# Generated by pormake.
# Topology umr, (4)-cn, num edge types: 1
# Building blocks:
#     Node 0, Type 0, BuildingBlock: ICAMEG_clean_sbu_1, # of connection points: 4
#     Node 1, Type 0, BuildingBlock: ICAMEG_clean_sbu_1, # of connection points: 4
#     Node 2, Type 0, BuildingBlock: ICAMEG_clean_sbu_1, # of connection points: 4
#     Node 3, Type 0, BuildingBlock: ICAMEG_clean_sbu_1, # of connection points: 4
#     Node 4, Type 0, BuildingBlock: ICAMEG_clean_sbu_1, # of connection points: 4
#     Node 5, Type 0, BuildingBlock: ICAMEG_clean_sbu_1, # of connection points: 4
#     Node 6, Type 0, BuildingBlock: ICAMEG_clean_sbu_1, # of connection points: 4
#     Node 7, Type 0, BuildingBlock: ICAMEG_clean_sbu_1, # of connection points: 4
#     Node 8, Type 0, BuildingBlock: ICAMEG_clean_sbu_1, # of connection points: 4
#     Node 9, Type 0, BuildingBlock: ICAMEG_clean_sbu_1, # of connection points: 4
#     Node 10, Type 0, BuildingBlock: ICAMEG_clean_sbu_1, # of connection points: 4
#     Node 11, Type 0, BuildingBlock: ICAMEG_clean_sbu_1, # of connection points: 4
#     Node 12, Type 0, BuildingBlock: ICAMEG_clean_sbu_1, # of connection points: 4
#     Node 13, Type 0, BuildingBlock: ICAMEG_clean_sbu_1, # of connection points: 4
#     Node 14, Type 0, BuildingBlock: ICAMEG_clean_sbu_1, # of connection points: 4
#     Node 15, Type 0, BuildingBlock: ICAMEG_clean_sbu_1, # of connection points: 4
#     Node 16, Type 0, BuildingBlock: ICAMEG_clean_sbu_1, # of connection points: 4
#     Node 17, Type 0, BuildingBlock: ICAMEG_clean_sbu_1, # of connection points: 4
#     Node 18, Type 0, BuildingBlock: ICAMEG_clean_sbu_1, # of connection points: 4
#     Node 19, Type 0, BuildingBlock: ICAMEG_clean_sbu_1, # of connection points: 4
#     Node 20, Type 0, BuildingBlock: ICAMEG_clean_sbu_1, # of connection points: 4
#     Node 21, Type 0, BuildingBlock: ICAMEG_clean_sbu_1, # of connection points: 4
#     Node 22, Type 0, BuildingBlock: ICAMEG_clean_sbu_1, # of connection points: 4
#     Node 23, Type 0, BuildingBlock: ICAMEG_clean_sbu_1, # of connection points: 4
#     Node 24, Type 0, BuildingBlock: ICAMEG_clean_sbu_1, # of connection points: 4
#     Node 25, Type 0, BuildingBlock: ICAMEG_clean_sbu_1, # of connection points: 4
#     Node 26, Type 0, BuildingBlock: ICAMEG_clean_sbu_1, # of connection points: 4
#     Node 27, Type 0, BuildingBlock: ICAMEG_clean_sbu_1, # of connection points: 4
#     Node 28, Type 0, BuildingBlock: ICAMEG_clean_sbu_1, # of connection points: 4
#     Node 29, Type 0, BuildingBlock: ICAMEG_clean_sbu_1, # of connection points: 4
#     Node 30, Type 0, BuildingBlock: ICAMEG_clean_sbu_1, # of connection points: 4
#     Node 31, Type 0, BuildingBlock: ICAMEG_clean_sbu_1, # of connection points: 4
#     Edge 32, Type (0, 0), None
#     Edge 33, Type (0, 0), None
#     Edge 34, Type (0, 0), None
#     Edge 35, Type (0, 0), None
#     Edge 36, Type (0, 0), None
#     Edge 37, Type (0, 0), None
#     Edge 38, Type (0, 0), None
#     Edge 39, Type (0, 0), None
#     Edge 40, Type (0, 0), None
#     Edge 41, Type (0, 0), None
#     Edge 42, Type (0, 0), None
#     Edge 43, Type (0, 0), None
#     Edge 44, Type (0, 0), None
#     Edge 45, Type (0, 0), None
#     Edge 46, Type (0, 0), None
#     Edge 47, Type (0, 0), None
#     Edge 48, Type (0, 0), None
#     Edge 49, Type (0, 0), None
#     Edge 50, Type (0, 0), None
#     Edge 51, Type (0, 0), None
#     Edge 52, Type (0, 0), None
#     Edge 53, Type (0, 0), None
#     Edge 54, Type (0, 0), None
#     Edge 55, Type (0, 0), None
#     Edge 56, Type (0, 0), None
#     Edge 57, Type (0, 0), None
#     Edge 58, Type (0, 0), None
#     Edge 59, Type (0, 0), None
#     Edge 60, Type (0, 0), None
#     Edge 61, Type (0, 0), None
#     Edge 62, Type (0, 0), None
#     Edge 63, Type (0, 0), None
#     Edge 64, Type (0, 0), None
#     Edge 65, Type (0, 0), None
#     Edge 66, Type (0, 0), None
#     Edge 67, Type (0, 0), None
#     Edge 68, Type (0, 0), None
#     Edge 69, Type (0, 0), None
#     Edge 70, Type (0, 0), None
#     Edge 71, Type (0, 0), None
#     Edge 72, Type (0, 0), None
#     Edge 73, Type (0, 0), None
#     Edge 74, Type (0, 0), None
#     Edge 75, Type (0, 0), None
#     Edge 76, Type (0, 0), None
#     Edge 77, Type (0, 0), None
#     Edge 78, Type (0, 0), None
#     Edge 79, Type (0, 0), None
#     Edge 80, Type (0, 0), None
#     Edge 81, Type (0, 0), None
#     Edge 82, Type (0, 0), None
#     Edge 83, Type (0, 0), None
#     Edge 84, Type (0, 0), None
#     Edge 85, Type (0, 0), None
#     Edge 86, Type (0, 0), None
#     Edge 87, Type (0, 0), None
#     Edge 88, Type (0, 0), None
#     Edge 89, Type (0, 0), None
#     Edge 90, Type (0, 0), None
#     Edge 91, Type (0, 0), None
#     Edge 92, Type (0, 0), None
#     Edge 93, Type (0, 0), None
#     Edge 94, Type (0, 0), None
#     Edge 95, Type (0, 0), None
# Relax obj value: 0.068
# Max RMSD: 0.107
# Mean RMSD: 0.107
data_MOF--net-umr--node1-ICAMEG_clean_sbu_1--edge1-none
_symmetry_space_group_name_H-M    P1
_symmetry_Int_Tables_number       1
_symmetry_cell_setting            triclinic
loop_
_symmetry_equiv_pos_as_xyz
'x, y, z'
_cell_length_a     41.685309
_cell_length_b     41.779649
_cell_length_c     14.116833
_cell_angle_alpha  89.995689
_cell_angle_beta   89.999841
_cell_angle_gamma 90.000097
loop_
_atom_site_label
_atom_site_type_symbol
_atom_site_fract_x
_atom_site_fract_y
_atom_site_fract_z
_atom_type_partial_charge
Co0 Co 0.17786 0.24088 0.05459 0.0
Co1 Co 0.17298 0.32077 0.00257 0.0
O2 O 0.16348 0.28463 0.08518 0.0
C3 C 0.1627 0.24298 0.26445 0.0
O4 O 0.1517 0.27196 0.25375 0.0
C5 C 0.11081 0.3383 0.11276 0.0
O6 O 0.11298 0.31275 0.16556 0.0
O7 O 0.15424 0.29659 0.89315 0.0
O8 O 0.17934 0.2502 0.91684 0.0
H9 H 0.22239 0.36697 0.71035 0.0
H10 H 0.11275 0.25401 0.14723 0.0
O11 O 0.17672 0.22875 0.19544 0.0
H12 H 0.09066 0.18269 0.87856 0.0
H13 H 0.17954 0.12071 0.08287 0.0
H14 H 0.22555 0.21427 0.9199 0.0
H15 H 0.14582 0.19801 0.91626 0.0
H16 H 0.16251 0.17533 0.12665 0.0
O17 O 0.12901 0.34181 0.03854 0.0
H18 H 0.20587 0.32408 0.81783 0.0
H19 H 0.15913 0.39152 -0.00433 0.0
H20 H 0.24258 0.16038 0.87397 0.0
H21 H 0.05741 0.24066 0.10901 0.0
H22 H 0.22086 0.11304 0.95919 0.0
H23 H 0.0457 0.2044 0.97384 0.0
O24 O 0.22364 0.2566 0.06047 0.0
H25 H 0.17745 0.36949 0.32593 0.0
H26 H 0.22807 0.36471 0.01371 0.0
H27 H 0.24521 0.40639 0.12462 0.0
H28 H 0.22007 0.40938 0.28346 0.0
H29 H 0.16356 0.32779 0.21592 0.0
H30 H 0.17543 0.43509 0.88718 0.0
H31 H 0.20602 0.42289 0.74227 0.0
O32 O 0.21758 0.30193 0.97439 0.0
C33 C 0.16652 0.27059 0.86243 0.0
C34 C 0.20753 0.37243 0.77075 0.0
C35 C 0.18109 0.41066 0.87063 0.0
N36 N 0.1814 0.35519 0.91332 0.0
C37 C 0.19843 0.34828 0.8331 0.0
C38 C 0.17196 0.38588 0.93133 0.0
C39 C 0.19862 0.40383 0.78935 0.0
C40 C 0.10861 0.23809 0.08963 0.0
N41 N 0.13341 0.22642 0.03668 0.0
C42 C 0.0768 0.23052 0.06786 0.0
C43 C 0.07022 0.21034 0.9919 0.0
C44 C 0.0954 0.19818 0.93844 0.0
C45 C 0.12681 0.20678 0.96119 0.0
C46 C 0.18983 0.1412 0.04754 0.0
C47 C 0.21532 0.19395 0.95625 0.0
C48 C 0.18058 0.17219 0.07252 0.0
N49 N 0.19325 0.1981 0.02666 0.0
C50 C 0.22508 0.16338 0.92976 0.0
C51 C 0.21287 0.13688 0.9776 0.0
C52 C 0.23514 0.27912 0.00771 0.0
C53 C 0.18946 0.36862 0.25844 0.0
C54 C 0.2176 0.36527 0.08291 0.0
C55 C 0.22729 0.38908 0.14567 0.0
C56 C 0.21289 0.39093 0.23415 0.0
N57 N 0.19295 0.34505 0.10469 0.0
C58 C 0.18071 0.34511 0.19399 0.0
Co59 Co 0.01859 0.92397 0.29959 0.0
Co60 Co 0.93933 0.92317 0.24186 0.0
O61 O 0.97392 0.91253 0.32712 0.0
C62 C 0.0092 0.92739 0.50449 0.0
O63 O 0.98465 0.94578 0.48389 0.0
C64 C 0.91948 0.86224 0.35088 0.0
O65 O 0.94456 0.86435 0.40627 0.0
O66 O 0.9646 0.90527 0.13266 0.0
O67 O 0.01128 0.92885 0.16207 0.0
H68 H 0.89775 0.97405 0.94529 0.0
H69 H 0.00496 0.86396 0.40699 0.0
O70 O 0.02816 0.91891 0.43896 0.0
H71 H 0.06221 0.82976 0.11867 0.0
H72 H 0.13745 0.91086 0.33966 0.0
H73 H 0.05213 0.97362 0.18511 0.0
H74 H 0.05419 0.88699 0.1526 0.0
H75 H 0.08069 0.89791 0.36762 0.0
O76 O 0.91739 0.87952 0.27428 0.0
H77 H 0.93823 0.95956 0.06248 0.0
H78 H 0.86894 0.90802 0.22131 0.0
H79 H 0.10872 0.98757 0.15773 0.0
H80 H 0.01088 0.80641 0.37307 0.0
H81 H 0.15166 0.9579 0.24072 0.0
H82 H 0.03989 0.78896 0.22818 0.0
O83 O 0.00585 0.97087 0.3064 0.0
H84 H 0.89142 0.93026 0.56779 0.0
H85 H 0.89316 0.9762 0.24971 0.0
H86 H 0.85408 0.99657 0.36357 0.0
H87 H 0.8534 0.97476 0.52614 0.0
H88 H 0.93243 0.91482 0.45687 0.0
H89 H 0.82732 0.92222 0.10277 0.0
H90 H 0.84163 0.95513 0.96423 0.0
O91 O 0.95971 0.96742 0.22056 0.0
C92 C 0.99045 0.91871 0.10444 0.0
C93 C 0.89117 0.95916 0.00471 0.0
C94 C 0.85179 0.92981 0.09338 0.0
N95 N 0.90614 0.9326 0.14884 0.0
C96 C 0.9141 0.95085 0.07196 0.0
C97 C 0.87546 0.92167 0.15941 0.0
C98 C 0.85978 0.94855 0.01552 0.0
C99 C 0.01731 0.8566 0.3435 0.0
N100 N 0.02865 0.87891 0.28127 0.0
C101 C 0.02081 0.82396 0.32491 0.0
C102 C 0.037 0.81417 0.24351 0.0
C103 C 0.04947 0.83704 0.18194 0.0
C104 C 0.04488 0.86945 0.20174 0.0
C105 C 0.1189 0.9249 0.30616 0.0
C106 C 0.07069 0.96004 0.22034 0.0
C107 C 0.08666 0.91769 0.32153 0.0
N108 N 0.06303 0.93522 0.27877 0.0
C109 C 0.10267 0.96823 0.20512 0.0
C110 C 0.12686 0.95105 0.25006 0.0
C111 C 0.98349 0.98367 0.25467 0.0
C112 C 0.89214 0.94166 0.49948 0.0
C113 C 0.89336 0.96669 0.31988 0.0
C114 C 0.87097 0.97821 0.38439 0.0
C115 C 0.87038 0.96558 0.47513 0.0
N116 N 0.91403 0.94259 0.34297 0.0
C117 C 0.91474 0.93155 0.43374 0.0
Co118 Co 0.32747 0.76196 0.55398 0.0
Co119 Co 0.33235 0.68207 0.50202 0.0
O120 O 0.34186 0.71821 0.58461 0.0
C121 C 0.34267 0.75988 0.76384 0.0
O122 O 0.35369 0.73092 0.75315 0.0
C123 C 0.39449 0.66451 0.61233 0.0
O124 O 0.39233 0.69006 0.66511 0.0
O125 O 0.35111 0.70625 0.39259 0.0
O126 O 0.32599 0.75263 0.41624 0.0
H127 H 0.28294 0.63587 0.20982 0.0
H128 H 0.39261 0.74878 0.64646 0.0
O129 O 0.32862 0.77409 0.69483 0.0
H130 H 0.41466 0.82017 0.37786 0.0
H131 H 0.32577 0.88213 0.58223 0.0
H132 H 0.27978 0.78856 0.41929 0.0
H133 H 0.35949 0.80485 0.41564 0.0
H134 H 0.34282 0.82751 0.626 0.0
O135 O 0.37631 0.66102 0.53805 0.0
H136 H 0.29948 0.67876 0.31724 0.0
H137 H 0.34617 0.61132 0.4952 0.0
H138 H 0.26273 0.84244 0.37338 0.0
H139 H 0.44794 0.76213 0.60815 0.0
H140 H 0.28443 0.88979 0.4586 0.0
H141 H 0.45963 0.79842 0.47303 0.0
O142 O 0.28169 0.74623 0.55989 0.0
H143 H 0.32783 0.63337 0.82539 0.0
H144 H 0.27724 0.63816 0.51314 0.0
H145 H 0.26009 0.59648 0.62405 0.0
H146 H 0.28522 0.59347 0.78291 0.0
H147 H 0.34172 0.67508 0.7154 0.0
H148 H 0.32983 0.56775 0.3868 0.0
H149 H 0.29926 0.57994 0.24184 0.0
O150 O 0.28776 0.70091 0.47379 0.0
C151 C 0.33882 0.73224 0.36185 0.0
C152 C 0.29779 0.6304 0.27023 0.0
C153 C 0.32419 0.59218 0.3702 0.0
N154 N 0.32393 0.64765 0.41278 0.0
C155 C 0.3069 0.65456 0.33254 0.0
C156 C 0.33335 0.61696 0.43085 0.0
C157 C 0.30667 0.59901 0.2889 0.0
C158 C 0.39674 0.76472 0.58889 0.0
N159 N 0.37192 0.77642 0.53602 0.0
C160 C 0.42854 0.77228 0.56706 0.0
C161 C 0.43511 0.79248 0.49113 0.0
C162 C 0.40992 0.80467 0.43773 0.0
C163 C 0.37851 0.79607 0.46055 0.0
C164 C 0.31549 0.86163 0.54691 0.0
C165 C 0.29 0.80888 0.45564 0.0
C166 C 0.32475 0.83065 0.57188 0.0
N167 N 0.31208 0.80473 0.52603 0.0
C168 C 0.28023 0.83945 0.42916 0.0
C169 C 0.29243 0.86596 0.47699 0.0
C170 C 0.2702 0.72372 0.50713 0.0
C171 C 0.31583 0.63424 0.7579 0.0
C172 C 0.28771 0.63759 0.58235 0.0
C173 C 0.278 0.61377 0.64511 0.0
C174 C 0.2924 0.61193 0.73359 0.0
N175 N 0.31236 0.65781 0.60413 0.0
C176 C 0.32458 0.65775 0.69345 0.0
Co177 Co 0.48663 0.07877 0.79975 0.0
Co178 Co 0.5659 0.07959 0.74206 0.0
O179 O 0.5313 0.09021 0.82731 0.0
C180 C 0.49603 0.07539 0.00467 0.0
O181 O 0.5206 0.05702 0.9841 0.0
C182 C 0.58572 0.14049 0.85124 0.0
O183 O 0.56061 0.13837 0.90654 0.0
O184 O 0.54064 0.09751 0.63287 0.0
O185 O 0.49396 0.07392 0.66222 0.0
H186 H 0.60754 0.02875 0.44554 0.0
H187 H 0.50023 0.13876 0.90722 0.0
O188 O 0.47705 0.08381 0.93912 0.0
H189 H 0.44296 0.173 0.61895 0.0
H190 H 0.36776 0.09182 0.83975 0.0
H191 H 0.45312 0.02915 0.68515 0.0
H192 H 0.45103 0.11576 0.65276 0.0
H193 H 0.42451 0.10479 0.86776 0.0
O194 O 0.58783 0.12323 0.77462 0.0
H195 H 0.56703 0.04325 0.5626 0.0
H196 H 0.63629 0.09472 0.72172 0.0
H197 H 0.39654 0.01518 0.65769 0.0
H198 H 0.49426 0.19632 0.87341 0.0
H199 H 0.35358 0.04478 0.74077 0.0
H200 H 0.46523 0.21379 0.72856 0.0
O201 O 0.49939 0.03187 0.8065 0.0
H202 H 0.61396 0.0725 0.06778 0.0
H203 H 0.61195 0.0265 0.74983 0.0
H204 H 0.65114 0.00615 0.86344 0.0
H205 H 0.65196 0.02801 0.02594 0.0
H206 H 0.57287 0.08792 0.9571 0.0
H207 H 0.67795 0.08051 0.60331 0.0
H208 H 0.66367 0.04764 0.46468 0.0
O209 O 0.54552 0.03535 0.72065 0.0
C210 C 0.5148 0.08407 0.60461 0.0
C211 C 0.61411 0.04364 0.50498 0.0
C212 C 0.65347 0.07295 0.59381 0.0
N213 N 0.5991 0.07018 0.64907 0.0
C214 C 0.59115 0.05195 0.57216 0.0
C215 C 0.62978 0.08109 0.65977 0.0
C216 C 0.64551 0.05422 0.5159 0.0
C217 C 0.48788 0.14613 0.84373 0.0
N218 N 0.47656 0.12383 0.78146 0.0
C219 C 0.48435 0.17878 0.82522 0.0
C220 C 0.46815 0.18857 0.74384 0.0
C221 C 0.4557 0.16571 0.6822 0.0
C222 C 0.46033 0.1333 0.70194 0.0
C223 C 0.38632 0.0778 0.80625 0.0
C224 C 0.43456 0.0427 0.72039 0.0
C225 C 0.41855 0.08502 0.82164 0.0
N226 N 0.4422 0.06751 0.77887 0.0
C227 C 0.40258 0.03451 0.70513 0.0
C228 C 0.37838 0.05165 0.75011 0.0
C229 C 0.52175 0.01908 0.75472 0.0
C230 C 0.61318 0.06108 -0.0005 0.0
C231 C 0.61181 0.03601 0.81998 0.0
C232 C 0.63426 0.02451 0.88434 0.0
C233 C 0.63493 0.03716 0.97505 0.0
N234 N 0.59118 0.06013 0.84314 0.0
C235 C 0.59054 0.07119 0.93389 0.0
Co236 Co 0.17786 0.76197 0.43517 0.0
Co237 Co 0.17296 0.68208 0.48721 0.0
O238 O 0.16347 0.71822 0.40458 0.0
C239 C 0.16267 0.75989 0.22533 0.0
O240 O 0.15163 0.73093 0.23603 0.0
C241 C 0.11081 0.66453 0.37697 0.0
O242 O 0.11298 0.69006 0.32409 0.0
O243 O 0.15422 0.70628 0.59663 0.0
O244 O 0.17935 0.75265 0.57291 0.0
H245 H 0.22237 0.6359 0.77944 0.0
H246 H 0.11272 0.74879 0.34274 0.0
O247 O 0.17672 0.7741 0.29433 0.0
H248 H 0.09069 0.82022 0.6112 0.0
H249 H 0.17958 0.88214 0.40689 0.0
H250 H 0.22555 0.78857 0.56988 0.0
H251 H 0.14585 0.80488 0.57346 0.0
H252 H 0.16254 0.82752 0.36308 0.0
O253 O 0.12899 0.66105 0.45125 0.0
H254 H 0.20587 0.67877 0.67192 0.0
H255 H 0.15906 0.61134 0.49422 0.0
H256 H 0.24257 0.84246 0.61586 0.0
H257 H 0.05739 0.76216 0.38101 0.0
H258 H 0.22087 0.8898 0.53063 0.0
H259 H 0.04572 0.79847 0.51607 0.0
O260 O 0.22364 0.74624 0.42928 0.0
H261 H 0.17745 0.63341 0.16381 0.0
H262 H 0.22802 0.63808 0.47611 0.0
H263 H 0.24514 0.59641 0.36515 0.0
H264 H 0.22002 0.59347 0.20626 0.0
H265 H 0.1636 0.67512 0.27383 0.0
H266 H 0.17535 0.56778 0.60275 0.0
H267 H 0.20596 0.57997 0.74761 0.0
O268 O 0.21756 0.70091 0.51537 0.0
C269 C 0.16652 0.73227 0.62733 0.0
C270 C 0.2075 0.63043 0.71906 0.0
C271 C 0.18103 0.59221 0.61926 0.0
N272 N 0.18137 0.64767 0.57649 0.0
C273 C 0.19841 0.65458 0.65669 0.0
C274 C 0.1719 0.61698 0.55854 0.0
C275 C 0.19857 0.59904 0.70051 0.0
C276 C 0.1086 0.76474 0.40027 0.0
N277 N 0.13342 0.77644 0.45311 0.0
C278 C 0.0768 0.77231 0.42208 0.0
C279 C 0.07023 0.79253 0.49797 0.0
C280 C 0.09542 0.80471 0.55135 0.0
C281 C 0.12683 0.7961 0.52856 0.0
C282 C 0.18985 0.86165 0.44222 0.0
C283 C 0.21533 0.80889 0.53353 0.0
C284 C 0.1806 0.83066 0.41723 0.0
N285 N 0.19327 0.80475 0.4631 0.0
C286 C 0.22508 0.83946 0.56004 0.0
C287 C 0.21288 0.86597 0.5122 0.0
C288 C 0.23513 0.72372 0.48204 0.0
C289 C 0.18945 0.63426 0.23131 0.0
C290 C 0.21755 0.63754 0.4069 0.0
C291 C 0.22724 0.61373 0.3441 0.0
C292 C 0.21285 0.61192 0.2556 0.0
N293 N 0.19293 0.65779 0.38511 0.0
C294 C 0.18072 0.65776 0.29578 0.0
Co295 Co 0.48665 0.92399 0.68999 0.0
Co296 Co 0.56592 0.92318 0.74766 0.0
O297 O 0.53131 0.91256 0.66243 0.0
C298 C 0.49605 0.92739 0.48508 0.0
O299 O 0.52061 0.94577 0.50567 0.0
C300 C 0.58573 0.86227 0.63849 0.0
O301 O 0.56063 0.86439 0.5832 0.0
O302 O 0.54066 0.90527 0.85688 0.0
O303 O 0.49398 0.92885 0.82752 0.0
H304 H 0.60758 0.97402 0.04418 0.0
H305 H 0.50025 0.864 0.5825 0.0
O306 O 0.47707 0.91896 0.55062 0.0
H307 H 0.443 0.82976 0.8708 0.0
H308 H 0.36778 0.91096 0.64996 0.0
H309 H 0.45314 0.97361 0.80462 0.0
H310 H 0.45105 0.887 0.83698 0.0
H311 H 0.42453 0.89797 0.62197 0.0
O312 O 0.58785 0.87954 0.71511 0.0
H313 H 0.56706 0.95953 0.92712 0.0
H314 H 0.63631 0.90805 0.76798 0.0
H315 H 0.39656 0.98758 0.83206 0.0
H316 H 0.49429 0.80645 0.61632 0.0
H317 H 0.3536 0.95799 0.74894 0.0
H318 H 0.46528 0.78898 0.76119 0.0
O319 O 0.4994 0.97089 0.68325 0.0
H320 H 0.61395 0.93025 0.4219 0.0
H321 H 0.61199 0.97626 0.73985 0.0
H322 H 0.65116 0.99661 0.62618 0.0
H323 H 0.65196 0.97475 0.46368 0.0
H324 H 0.57286 0.91484 0.53263 0.0
H325 H 0.67798 0.92226 0.88637 0.0
H326 H 0.6637 0.95512 0.02503 0.0
O327 O 0.54553 0.96743 0.76907 0.0
C328 C 0.51481 0.91871 0.88513 0.0
C329 C 0.61414 0.95913 0.98473 0.0
C330 C 0.6535 0.92982 0.89588 0.0
N331 N 0.59913 0.93259 0.84063 0.0
C332 C 0.59118 0.95083 0.91756 0.0
C333 C 0.6298 0.92168 0.82993 0.0
C334 C 0.64553 0.94855 0.9738 0.0
C335 C 0.4879 0.85664 0.646 0.0
N336 N 0.47658 0.87893 0.70827 0.0
C337 C 0.48438 0.82399 0.66452 0.0
C338 C 0.46819 0.81419 0.7459 0.0
C339 C 0.45574 0.83705 0.80754 0.0
C340 C 0.46035 0.86946 0.7878 0.0
C341 C 0.38634 0.92497 0.68347 0.0
C342 C 0.43457 0.96006 0.76936 0.0
C343 C 0.41857 0.91775 0.66809 0.0
N344 N 0.44221 0.93525 0.71087 0.0
C345 C 0.4026 0.96826 0.78462 0.0
C346 C 0.37839 0.95112 0.73961 0.0
C347 C 0.52176 0.98368 0.73502 0.0
C348 C 0.61318 0.94168 0.49017 0.0
C349 C 0.61183 0.96675 0.66969 0.0
C350 C 0.63428 0.97825 0.6053 0.0
C351 C 0.63493 0.9656 0.5146 0.0
N352 N 0.59119 0.94263 0.64656 0.0
C353 C 0.59054 0.93157 0.55581 0.0
Co354 Co 0.32748 0.24086 0.93578 0.0
Co355 Co 0.33237 0.32075 0.98775 0.0
O356 O 0.34187 0.28461 0.90515 0.0
C357 C 0.34268 0.24294 0.72593 0.0
O358 O 0.35371 0.2719 0.73661 0.0
C359 C 0.39451 0.3383 0.87744 0.0
O360 O 0.39234 0.31275 0.82466 0.0
O361 O 0.35112 0.29657 0.09718 0.0
O362 O 0.326 0.25019 0.07353 0.0
H363 H 0.28297 0.36695 0.27997 0.0
H364 H 0.39262 0.25403 0.8433 0.0
O365 O 0.32862 0.22873 0.79494 0.0
H366 H 0.41465 0.18265 0.11192 0.0
H367 H 0.32577 0.12069 0.9075 0.0
H368 H 0.27979 0.21426 0.07048 0.0
H369 H 0.3595 0.19797 0.07413 0.0
H370 H 0.34282 0.17532 0.86375 0.0
O371 O 0.37633 0.34179 0.95172 0.0
H372 H 0.2995 0.32406 0.17253 0.0
H373 H 0.3462 0.3915 0.99457 0.0
H374 H 0.26273 0.16038 0.11638 0.0
H375 H 0.44795 0.24067 0.88161 0.0
H376 H 0.28443 0.11303 0.03115 0.0
H377 H 0.45963 0.20439 0.01675 0.0
O378 O 0.2817 0.2566 0.92988 0.0
H379 H 0.32786 0.36943 0.66434 0.0
H380 H 0.27728 0.3647 0.97662 0.0
H381 H 0.26014 0.40638 0.8657 0.0
H382 H 0.28526 0.40935 0.70682 0.0
H383 H 0.34173 0.32773 0.77436 0.0
H384 H 0.32987 0.43507 0.10298 0.0
H385 H 0.2993 0.42288 0.24795 0.0
O386 O 0.28778 0.30191 0.01597 0.0
C387 C 0.33882 0.27058 0.12792 0.0
C388 C 0.29782 0.37242 0.21955 0.0
C389 C 0.32423 0.41064 0.11958 0.0
N390 N 0.32396 0.35517 0.07699 0.0
C391 C 0.30693 0.34826 0.15723 0.0
C392 C 0.33338 0.38586 0.05893 0.0
C393 C 0.30671 0.40381 0.20089 0.0
C394 C 0.39674 0.23809 0.90087 0.0
N395 N 0.37193 0.2264 0.95374 0.0
C396 C 0.42854 0.23052 0.92271 0.0
C397 C 0.43512 0.21032 -0.00135 0.0
C398 C 0.40993 0.19815 0.05204 0.0
C399 C 0.37851 0.20675 0.02923 0.0
C400 C 0.31549 0.14119 0.94283 0.0
C401 C 0.29001 0.19394 0.03413 0.0
C402 C 0.32475 0.17217 0.91787 0.0
N403 N 0.31208 0.19809 0.96373 0.0
C404 C 0.28023 0.16338 0.0606 0.0
C405 C 0.29243 0.13687 0.01276 0.0
C406 C 0.27021 0.27911 0.98263 0.0
C407 C 0.31585 0.36857 0.73184 0.0
C408 C 0.28774 0.36526 0.90742 0.0
C409 C 0.27805 0.38907 0.84464 0.0
C410 C 0.29244 0.39089 0.75614 0.0
N411 N 0.31239 0.34502 0.88563 0.0
C412 C 0.3246 0.34507 0.79631 0.0
Co413 Co 0.01858 0.07879 0.19015 0.0
Co414 Co 0.93932 0.07957 0.24788 0.0
O415 O 0.97391 0.09022 0.16262 0.0
C416 C 0.00918 0.07541 0.98525 0.0
O417 O 0.98462 0.05704 0.00582 0.0
C418 C 0.91948 0.1405 0.13887 0.0
O419 O 0.94457 0.13841 0.08354 0.0
O420 O 0.96459 0.09749 0.35706 0.0
O421 O 0.01126 0.0739 0.32768 0.0
H422 H 0.89775 0.02871 0.54447 0.0
H423 H 0.00496 0.1388 0.08275 0.0
O424 O 0.02816 0.08385 0.05079 0.0
H425 H 0.06216 0.173 0.37116 0.0
H426 H 0.13744 0.09194 0.15018 0.0
H427 H 0.05213 0.02913 0.30455 0.0
H428 H 0.05416 0.11576 0.33719 0.0
H429 H 0.08068 0.10488 0.12221 0.0
O430 O 0.91737 0.12321 0.21543 0.0
H431 H 0.93823 0.04321 0.42732 0.0
H432 H 0.86891 0.09465 0.26828 0.0
H433 H 0.10873 0.01518 0.33191 0.0
H434 H 0.01087 0.19635 0.1167 0.0
H435 H 0.15166 0.04487 0.249 0.0
H436 H 0.03985 0.2138 0.26164 0.0
O437 O 0.00585 0.03189 0.18333 0.0
H438 H 0.89128 0.0725 0.92211 0.0
H439 H 0.89331 0.02645 0.24004 0.0
H440 H 0.85415 0.00608 0.12636 0.0
H441 H 0.85333 0.02795 0.96387 0.0
H442 H 0.93234 0.08796 0.03287 0.0
H443 H 0.82728 0.08043 0.38678 0.0
H444 H 0.84161 0.04757 0.52541 0.0
O445 O 0.95972 0.03533 0.26921 0.0
C446 C 0.99044 0.08405 0.3853 0.0
C447 C 0.89116 0.04358 0.48501 0.0
C448 C 0.85177 0.07287 0.39623 0.0
N449 N 0.90613 0.07013 0.34087 0.0
C450 C 0.9141 0.0519 0.41779 0.0
C451 C 0.87544 0.08102 0.33022 0.0
C452 C 0.85976 0.05415 0.47414 0.0
C453 C 0.0173 0.14615 0.14626 0.0
N454 N 0.02863 0.12385 0.2085 0.0
C455 C 0.0208 0.1788 0.16486 0.0
C456 C 0.03697 0.18858 0.24629 0.0
C457 C 0.04943 0.16572 0.30787 0.0
C458 C 0.04485 0.13331 0.28805 0.0
C459 C 0.11889 0.07789 0.18363 0.0
C460 C 0.07069 0.04271 0.26935 0.0
C461 C 0.08665 0.08509 0.16826 0.0
N462 N 0.06302 0.06754 0.21098 0.0
C463 C 0.10267 0.03452 0.28456 0.0
C464 C 0.12686 0.05172 0.23966 0.0
C465 C 0.98349 0.01908 0.23508 0.0
C466 C 0.89206 0.06107 0.99039 0.0
C467 C 0.89344 0.03598 0.1699 0.0
C468 C 0.87101 0.02446 0.1055 0.0
C469 C 0.87034 0.03712 0.0148 0.0
N470 N 0.91404 0.06013 0.14678 0.0
C471 C 0.91469 0.0712 0.05604 0.0
Co472 Co 0.82738 0.7619 0.93515 0.0
Co473 Co 0.83226 0.68201 0.98717 0.0
O474 O 0.84177 0.71815 0.90456 0.0
C475 C 0.84255 0.7598 0.72529 0.0
O476 O 0.85354 0.73083 0.73599 0.0
C477 C 0.89443 0.66448 0.87698 0.0
O478 O 0.89227 0.69004 0.82419 0.0
O479 O 0.85101 0.7062 0.09659 0.0
O480 O 0.82591 0.75258 0.0729 0.0
H481 H 0.78285 0.63582 0.27939 0.0
H482 H 0.8925 0.74877 0.84251 0.0
O483 O 0.82853 0.77404 0.79431 0.0
H484 H 0.91459 0.82009 0.11119 0.0
H485 H 0.8257 0.88208 0.90688 0.0
H486 H 0.7797 0.78851 0.06984 0.0
H487 H 0.85942 0.80477 0.07349 0.0
H488 H 0.84274 0.82745 0.8631 0.0
O489 O 0.87623 0.66097 0.9512 0.0
H490 H 0.79938 0.6787 0.17191 0.0
H491 H 0.84611 0.61127 0.99407 0.0
H492 H 0.76267 0.8424 0.11577 0.0
H493 H 0.94784 0.76212 0.88072 0.0
H494 H 0.78438 0.88974 0.03055 0.0
H495 H 0.95955 0.79838 0.0159 0.0
O496 O 0.78161 0.74618 0.92927 0.0
H497 H 0.8278 0.6333 0.66381 0.0
H498 H 0.77717 0.63808 0.97602 0.0
H499 H 0.76004 0.5964 0.86513 0.0
H500 H 0.78517 0.5934 0.70628 0.0
H501 H 0.84168 0.67499 0.77382 0.0
H502 H 0.82981 0.5677 0.10255 0.0
H503 H 0.79922 0.57989 0.24747 0.0
O504 O 0.78767 0.70085 0.01535 0.0
C505 C 0.83873 0.73219 0.12731 0.0
C506 C 0.79771 0.63035 0.21899 0.0
C507 C 0.82415 0.59213 0.1191 0.0
N508 N 0.82385 0.6476 0.07642 0.0
C509 C 0.80681 0.65451 0.15664 0.0
C510 C 0.83329 0.6169 0.05841 0.0
C511 C 0.80662 0.59896 0.20038 0.0
C512 C 0.89664 0.76469 0.9001 0.0
N513 N 0.87183 0.77637 0.95306 0.0
C514 C 0.92844 0.77226 0.92188 0.0
C515 C 0.93503 0.79244 -0.00217 0.0
C516 C 0.90985 0.80461 0.05131 0.0
C517 C 0.87844 0.796 0.02855 0.0
C518 C 0.81542 0.86158 0.94221 0.0
C519 C 0.78992 0.80883 0.03349 0.0
C520 C 0.82467 0.8306 0.91723 0.0
N521 N 0.81199 0.80468 0.96309 0.0
C522 C 0.78016 0.8394 0.05998 0.0
C523 C 0.79237 0.86591 0.01214 0.0
C524 C 0.77011 0.72366 0.98203 0.0
C525 C 0.81578 0.63417 0.7313 0.0
C526 C 0.78765 0.63751 0.90683 0.0
C527 C 0.77795 0.6137 0.84407 0.0
C528 C 0.79235 0.61186 0.75559 0.0
N529 N 0.8123 0.65774 0.88505 0.0
C530 C 0.82453 0.65767 0.79575 0.0
Co531 Co 0.98665 0.07882 0.69015 0.0
Co532 Co 0.06592 0.07962 0.74789 0.0
O533 O 0.03132 0.09026 0.66263 0.0
C534 C 0.99605 0.0754 0.48525 0.0
O535 O 0.02059 0.05701 0.50586 0.0
C536 C 0.08577 0.14054 0.63887 0.0
O537 O 0.06069 0.13844 0.58348 0.0
O538 O 0.04065 0.09752 0.85709 0.0
O539 O 0.99397 0.07394 0.82767 0.0
H540 H 0.10749 0.02874 0.04446 0.0
H541 H 1.00028 0.13882 0.58275 0.0
O542 O 0.97709 0.08387 0.55079 0.0
H543 H 0.94303 0.17303 0.87107 0.0
H544 H 0.8678 0.09192 0.65008 0.0
H545 H 0.95311 0.02917 0.80463 0.0
H546 H 0.95105 0.11579 0.83714 0.0
H547 H 0.92455 0.10487 0.62212 0.0
O548 O 0.08786 0.12326 0.71546 0.0
H549 H 0.06702 0.04323 0.92727 0.0
H550 H 0.13631 0.09476 0.76843 0.0
H551 H 0.89652 0.01522 0.83202 0.0
H552 H 0.99436 0.19637 0.61667 0.0
H553 H 0.85359 0.04488 0.74902 0.0
H554 H 0.96536 0.21383 0.76156 0.0
O555 O 0.9994 0.03192 0.68335 0.0
H556 H 0.11383 0.07253 0.42196 0.0
H557 H 0.11208 0.02659 0.74003 0.0
H558 H 0.15116 0.00621 0.62618 0.0
H559 H 0.15185 0.02803 0.46361 0.0
H560 H 0.07282 0.08796 0.53288 0.0
H561 H 0.17793 0.08056 0.88697 0.0
H562 H 0.16362 0.04766 0.02551 0.0
O563 O 0.04553 0.03537 0.76918 0.0
C564 C 0.01479 0.08408 0.8853 0.0
C565 C 0.11407 0.04363 0.98503 0.0
C566 C 0.15345 0.07298 0.89636 0.0
N567 N 0.09911 0.07018 0.8409 0.0
C568 C 0.09114 0.05193 0.91778 0.0
C569 C 0.12978 0.08111 0.83033 0.0
C570 C 0.14547 0.05423 0.97422 0.0
C571 C 0.98794 0.14618 0.64624 0.0
N572 N 0.9766 0.12388 0.70847 0.0
C573 C 0.98443 0.17883 0.66482 0.0
C574 C 0.96825 0.18861 0.74622 0.0
C575 C 0.95577 0.16575 0.8078 0.0
C576 C 0.96036 0.13334 0.788 0.0
C577 C 0.88634 0.07789 0.68358 0.0
C578 C 0.93456 0.04274 0.7694 0.0
C579 C 0.91858 0.08509 0.66821 0.0
N580 N 0.94221 0.06757 0.71097 0.0
C581 C 0.90257 0.03456 0.78463 0.0
C582 C 0.87838 0.05173 0.73968 0.0
C583 C 0.02176 0.01911 0.73508 0.0
C584 C 0.1131 0.06112 0.49026 0.0
C585 C 0.11188 0.03609 0.66986 0.0
C586 C 0.13427 0.02457 0.60536 0.0
C587 C 0.13487 0.0372 0.51462 0.0
N588 N 0.09121 0.06019 0.64678 0.0
C589 C 0.0905 0.07124 0.55601 0.0
Co590 Co 0.67777 0.24083 0.43576 0.0
Co591 Co 0.6729 0.32072 0.48772 0.0
O592 O 0.66339 0.28458 0.40513 0.0
C593 C 0.66258 0.24291 0.2259 0.0
O594 O 0.65156 0.27187 0.23659 0.0
C595 C 0.61076 0.33828 0.37741 0.0
O596 O 0.61292 0.31272 0.32464 0.0
O597 O 0.65414 0.29654 0.59715 0.0
O598 O 0.67926 0.25016 0.5735 0.0
H599 H 0.72231 0.36691 0.77992 0.0
H600 H 0.61264 0.254 0.34327 0.0
O601 O 0.67663 0.22869 0.29491 0.0
H602 H 0.59059 0.18262 0.61188 0.0
H603 H 0.67948 0.12066 0.40751 0.0
H604 H 0.72547 0.21423 0.57045 0.0
H605 H 0.64575 0.19794 0.5741 0.0
H606 H 0.66242 0.17528 0.36375 0.0
O607 O 0.62894 0.34177 0.45168 0.0
H608 H 0.70577 0.32403 0.6725 0.0
H609 H 0.65908 0.39147 0.49453 0.0
H610 H 0.74252 0.16034 0.61636 0.0
H611 H 0.55731 0.24066 0.38158 0.0
H612 H 0.72082 0.113 0.53114 0.0
H613 H 0.54562 0.20437 0.51671 0.0
O614 O 0.72355 0.25655 0.42985 0.0
H615 H 0.67741 0.36942 0.16435 0.0
H616 H 0.72801 0.36462 0.47659 0.0
H617 H 0.74516 0.40631 0.36569 0.0
H618 H 0.72003 0.40931 0.20684 0.0
H619 H 0.66353 0.32771 0.27434 0.0
H620 H 0.67542 0.43504 0.60293 0.0
H621 H 0.70599 0.42285 0.74789 0.0
O622 O 0.71748 0.30187 0.51595 0.0
C623 C 0.66643 0.27055 0.62789 0.0
C624 C 0.70746 0.37238 0.7195 0.0
C625 C 0.68106 0.41061 0.61953 0.0
N626 N 0.68132 0.35513 0.57695 0.0
C627 C 0.69834 0.34822 0.65719 0.0
C628 C 0.6719 0.38583 0.55889 0.0
C629 C 0.69857 0.40378 0.70084 0.0
C630 C 0.60851 0.23806 0.40084 0.0
N631 N 0.63333 0.22637 0.45372 0.0
C632 C 0.57671 0.2305 0.42267 0.0
C633 C 0.57013 0.2103 0.49861 0.0
C634 C 0.59532 0.19812 0.55201 0.0
C635 C 0.62673 0.20672 0.5292 0.0
C636 C 0.68976 0.14115 0.44283 0.0
C637 C 0.71524 0.19391 0.53411 0.0
C638 C 0.6805 0.17214 0.41786 0.0
N639 N 0.69317 0.19805 0.46371 0.0
C640 C 0.72502 0.16334 0.56058 0.0
C641 C 0.71282 0.13683 0.51275 0.0
C642 C 0.73505 0.27907 0.48261 0.0
C643 C 0.68942 0.36855 0.23184 0.0
C644 C 0.71754 0.3652 0.40739 0.0
C645 C 0.72724 0.38901 0.34463 0.0
C646 C 0.71284 0.39086 0.25615 0.0
N647 N 0.69288 0.34498 0.38561 0.0
C648 C 0.68066 0.34504 0.29629 0.0
Co649 Co 0.51862 0.92401 0.19 0.0
Co650 Co 0.43935 0.92319 0.24768 0.0
O651 O 0.47395 0.91257 0.16243 0.0
C652 C 0.50921 0.92739 0.98508 0.0
O653 O 0.48465 0.94576 0.00564 0.0
C654 C 0.41953 0.86229 0.1385 0.0
O655 O 0.44463 0.86441 0.0832 0.0
O656 O 0.46461 0.90527 0.35688 0.0
O657 O 0.51128 0.92887 0.32752 0.0
H658 H 0.3977 0.97403 0.54421 0.0
H659 H 0.50502 0.86402 0.08252 0.0
O660 O 0.5282 0.91897 0.05062 0.0
H661 H 0.56229 0.82979 0.37078 0.0
H662 H 0.63748 0.91097 0.14999 0.0
H663 H 0.55212 0.97364 0.3046 0.0
H664 H 0.55422 0.88702 0.33698 0.0
H665 H 0.58073 0.89799 0.12197 0.0
O666 O 0.41742 0.87955 0.21512 0.0
H667 H 0.43821 0.95953 0.42715 0.0
H668 H 0.36895 0.90807 0.26801 0.0
H669 H 0.6087 0.9876 0.33206 0.0
H670 H 0.51099 0.80647 0.11633 0.0
H671 H 0.65166 0.958 0.24898 0.0
H672 H 0.54002 0.789 0.26117 0.0
O673 O 0.50586 0.97091 0.18325 0.0
H674 H 0.39128 0.93028 0.92197 0.0
H675 H 0.3933 0.97629 0.23991 0.0
H676 H 0.35411 0.99664 0.1263 0.0
H677 H 0.35328 0.97478 0.9638 0.0
H678 H 0.43238 0.91486 0.03265 0.0
H679 H 0.32729 0.92228 0.38642 0.0
H680 H 0.34158 0.95515 0.52506 0.0
O681 O 0.45973 0.96743 0.2691 0.0
C682 C 0.49045 0.91871 0.38513 0.0
C683 C 0.39114 0.95915 0.48476 0.0
C684 C 0.35177 0.92984 0.39592 0.0
N685 N 0.40614 0.9326 0.34067 0.0
C686 C 0.41409 0.95084 0.41759 0.0
C687 C 0.37546 0.9217 0.32997 0.0
C688 C 0.35974 0.94856 0.47384 0.0
C689 C 0.51737 0.85666 0.14601 0.0
N690 N 0.52869 0.87895 0.20828 0.0
C691 C 0.5209 0.82401 0.16452 0.0
C692 C 0.5371 0.81422 0.2459 0.0
C693 C 0.54955 0.83707 0.30753 0.0
C694 C 0.54492 0.86949 0.2878 0.0
C695 C 0.61893 0.92498 0.18349 0.0
C696 C 0.57069 0.96008 0.26936 0.0
C697 C 0.58669 0.91777 0.1681 0.0
N698 N 0.56305 0.93527 0.21087 0.0
C699 C 0.60267 0.96828 0.28462 0.0
C700 C 0.62687 0.95113 0.23963 0.0
C701 C 0.4835 0.9837 0.23502 0.0
C702 C 0.39206 0.9417 0.99024 0.0
C703 C 0.39344 0.96677 0.16976 0.0
C704 C 0.37099 0.97828 0.1054 0.0
C705 C 0.37031 0.96562 0.0147 0.0
N706 N 0.41407 0.94265 0.1466 0.0
C707 C 0.41471 0.93159 0.05585 0.0
Co708 Co 0.82738 0.24081 0.55457 0.0
Co709 Co 0.83228 0.3207 0.50253 0.0
O710 O 0.84178 0.28457 0.58516 0.0
C711 C 0.84258 0.2429 0.76441 0.0
O712 O 0.85362 0.27185 0.75371 0.0
C713 C 0.89444 0.33826 0.61277 0.0
O714 O 0.89226 0.31273 0.66566 0.0
O715 O 0.85102 0.29651 0.39311 0.0
O716 O 0.8259 0.25013 0.41683 0.0
H717 H 0.78288 0.36689 0.2103 0.0
H718 H 0.89252 0.254 0.64699 0.0
O719 O 0.82853 0.22868 0.69541 0.0
H720 H 0.91455 0.18256 0.37854 0.0
H721 H 0.82567 0.12064 0.58286 0.0
H722 H 0.77969 0.21421 0.41986 0.0
H723 H 0.8594 0.1979 0.41628 0.0
H724 H 0.84271 0.17526 0.62667 0.0
O725 O 0.87626 0.34173 0.53849 0.0
H726 H 0.79938 0.32401 0.31782 0.0
H727 H 0.84619 0.39144 0.49552 0.0
H728 H 0.76268 0.16033 0.37388 0.0
H729 H 0.94785 0.24063 0.60872 0.0
H730 H 0.78438 0.11298 0.45911 0.0
H731 H 0.95953 0.20431 0.47367 0.0
O732 O 0.78161 0.25655 0.56046 0.0
H733 H 0.8278 0.36937 0.82593 0.0
H734 H 0.77723 0.36471 0.51363 0.0
H735 H 0.76011 0.40638 0.62459 0.0
H736 H 0.78523 0.40932 0.78348 0.0
H737 H 0.84164 0.32767 0.71591 0.0
H738 H 0.8299 0.435 0.38699 0.0
H739 H 0.79929 0.42281 0.24212 0.0
O740 O 0.78769 0.30187 0.47437 0.0
C741 C 0.83873 0.27052 0.36241 0.0
C742 C 0.79775 0.37235 0.27068 0.0
C743 C 0.82422 0.41057 0.37048 0.0
N744 N 0.82388 0.35511 0.41325 0.0
C745 C 0.80683 0.3482 0.33305 0.0
C746 C 0.83335 0.3858 0.4312 0.0
C747 C 0.80668 0.40374 0.28923 0.0
C748 C 0.89665 0.23805 0.58947 0.0
N749 N 0.87183 0.22634 0.53663 0.0
C750 C 0.92845 0.23047 0.56765 0.0
C751 C 0.93502 0.21026 0.49176 0.0
C752 C 0.90983 0.19807 0.43839 0.0
C753 C 0.87842 0.20669 0.46118 0.0
C754 C 0.8154 0.14114 0.54752 0.0
C755 C 0.78992 0.19389 0.45622 0.0
C756 C 0.82464 0.17212 0.57252 0.0
N757 N 0.81198 0.19804 0.52664 0.0
C758 C 0.78016 0.16333 0.4297 0.0
C759 C 0.79236 0.13682 0.47754 0.0
C760 C 0.77012 0.27907 0.5077 0.0
C761 C 0.8158 0.36853 0.75843 0.0
C762 C 0.7877 0.36525 0.58284 0.0
C763 C 0.77801 0.38905 0.64564 0.0
C764 C 0.7924 0.39086 0.73414 0.0
N765 N 0.81232 0.34499 0.60463 0.0
C766 C 0.82453 0.34502 0.69396 0.0
Co767 Co 0.5186 0.07879 0.29975 0.0
Co768 Co 0.43933 0.07961 0.24208 0.0
O769 O 0.47393 0.09023 0.32731 0.0
C770 C 0.5092 0.07539 0.50466 0.0
O771 O 0.48464 0.05701 0.48407 0.0
C772 C 0.41952 0.14051 0.35125 0.0
O773 O 0.44462 0.13839 0.40654 0.0
O774 O 0.46459 0.09752 0.13286 0.0
O775 O 0.51127 0.07394 0.16222 0.0
H776 H 0.39767 0.02876 0.94556 0.0
H777 H 0.505 0.13878 0.40723 0.0
O778 O 0.52818 0.08383 0.43912 0.0
H779 H 0.56225 0.17302 0.11895 0.0
H780 H 0.63747 0.09183 0.33979 0.0
H781 H 0.55211 0.02917 0.18512 0.0
H782 H 0.5542 0.11578 0.15277 0.0
H783 H 0.58072 0.10481 0.36777 0.0
O784 O 0.4174 0.12325 0.27463 0.0
H785 H 0.43819 0.04326 0.06262 0.0
H786 H 0.36894 0.09473 0.22176 0.0
H787 H 0.60868 0.0152 0.15768 0.0
H788 H 0.51095 0.19633 0.37342 0.0
H789 H 0.65164 0.04479 0.24081 0.0
H790 H 0.53997 0.21381 0.22855 0.0
O791 O 0.50585 0.03189 0.30649 0.0
H792 H 0.3913 0.07253 0.56784 0.0
H793 H 0.39325 0.02652 0.24989 0.0
H794 H 0.35409 0.00618 0.36357 0.0
H795 H 0.35329 0.02803 0.52607 0.0
H796 H 0.43239 0.08794 0.45711 0.0
H797 H 0.32727 0.08053 0.10336 0.0
H798 H 0.34155 0.04766 0.96471 0.0
O799 O 0.45971 0.03536 0.22067 0.0
C800 C 0.49043 0.08408 0.10461 0.0
C801 C 0.39111 0.04365 0.00501 0.0
C802 C 0.35175 0.07296 0.09385 0.0
N803 N 0.40612 0.07019 0.1491 0.0
C804 C 0.41407 0.05196 0.07218 0.0
C805 C 0.37544 0.0811 0.1598 0.0
C806 C 0.35971 0.05424 0.01593 0.0
C807 C 0.51735 0.14615 0.34374 0.0
N808 N 0.52867 0.12385 0.28147 0.0
C809 C 0.52087 0.17879 0.32522 0.0
C810 C 0.53706 0.18859 0.24383 0.0
C811 C 0.54951 0.16574 0.1822 0.0
C812 C 0.5449 0.13332 0.20194 0.0
C813 C 0.61891 0.07781 0.30627 0.0
C814 C 0.57067 0.04272 0.22038 0.0
C815 C 0.58668 0.08504 0.32165 0.0
N816 N 0.56303 0.06753 0.27887 0.0
C817 C 0.60265 0.03452 0.20513 0.0
C818 C 0.62685 0.05166 0.25013 0.0
C819 C 0.48349 0.0191 0.25472 0.0
C820 C 0.39207 0.06111 0.49957 0.0
C821 C 0.39341 0.03604 0.32005 0.0
C822 C 0.37097 0.02453 0.38445 0.0
C823 C 0.37032 0.03719 0.47515 0.0
N824 N 0.41405 0.06015 0.34318 0.0
C825 C 0.41471 0.07121 0.43393 0.0
Co826 Co 0.67777 0.76192 0.05396 0.0
Co827 Co 0.67288 0.68203 0.00199 0.0
O828 O 0.66338 0.71817 0.08459 0.0
C829 C 0.66257 0.75985 0.26381 0.0
O830 O 0.65154 0.73089 0.25313 0.0
C831 C 0.61074 0.66449 0.1123 0.0
O832 O 0.61291 0.69004 0.16508 0.0
O833 O 0.65413 0.70622 0.89256 0.0
O834 O 0.67925 0.75259 0.91621 0.0
H835 H 0.72228 0.63584 0.70977 0.0
H836 H 0.61263 0.74876 0.14643 0.0
O837 O 0.67662 0.77406 0.1948 0.0
H838 H 0.59059 0.82014 0.87782 0.0
H839 H 0.67948 0.88209 0.08224 0.0
H840 H 0.72546 0.78852 0.91926 0.0
H841 H 0.64575 0.80481 0.91561 0.0
H842 H 0.66242 0.82747 0.12599 0.0
O843 O 0.62891 0.66099 0.03802 0.0
H844 H 0.70575 0.67872 0.81721 0.0
H845 H 0.65905 0.61129 -0.00484 0.0
H846 H 0.74251 0.84241 0.87336 0.0
H847 H 0.5573 0.76211 0.10812 0.0
H848 H 0.72081 0.88975 0.95859 0.0
H849 H 0.54562 0.7984 0.97298 0.0
O850 O 0.72354 0.74619 0.05987 0.0
H851 H 0.67739 0.63336 0.3254 0.0
H852 H 0.72796 0.63808 0.01312 0.0
H853 H 0.7451 0.59641 0.12404 0.0
H854 H 0.71998 0.59344 0.28292 0.0
H855 H 0.66352 0.67506 0.21538 0.0
H856 H 0.67537 0.56771 0.88675 0.0
H857 H 0.70594 0.5799 0.74179 0.0
O858 O 0.71747 0.70087 0.97377 0.0
C859 C 0.66642 0.73221 0.86182 0.0
C860 C 0.70742 0.63037 0.77019 0.0
C861 C 0.68101 0.59214 0.87015 0.0
N862 N 0.68129 0.64762 0.91275 0.0
C863 C 0.69832 0.65453 0.83251 0.0
C864 C 0.67186 0.61692 0.9308 0.0
C865 C 0.69853 0.59897 0.78884 0.0
C866 C 0.6085 0.7647 0.08886 0.0
N867 N 0.63332 0.77639 0.036 0.0
C868 C 0.5767 0.77226 0.06703 0.0
C869 C 0.57013 0.79246 0.99109 0.0
C870 C 0.59532 0.80464 0.93769 0.0
C871 C 0.62673 0.79603 0.96051 0.0
C872 C 0.68976 0.8616 0.04691 0.0
C873 C 0.71524 0.80884 0.95562 0.0
C874 C 0.6805 0.83061 0.07187 0.0
N875 N 0.69317 0.8047 0.02601 0.0
C876 C 0.72501 0.83941 0.92914 0.0
C877 C 0.71281 0.86592 0.97698 0.0
C878 C 0.73504 0.72367 0.00711 0.0
C879 C 0.68939 0.63421 0.2579 0.0
C880 C 0.7175 0.63753 0.08232 0.0
C881 C 0.72719 0.61372 0.1451 0.0
C882 C 0.7128 0.61189 0.2336 0.0
N883 N 0.69286 0.65776 0.10411 0.0
C884 C 0.68064 0.65772 0.19343 0.0
Co885 Co 0.98666 0.924 0.79959 0.0
Co886 Co 0.06593 0.92321 0.74186 0.0
O887 O 0.03133 0.91257 0.82712 0.0
C888 C 0.99606 0.92737 0.00449 0.0
O889 O 0.02063 0.94575 0.98392 0.0
C890 C 0.08577 0.86229 0.85087 0.0
O891 O 0.06067 0.86438 0.9062 0.0
O892 O 0.04066 0.9053 0.63268 0.0
O893 O 0.99398 0.92888 0.66207 0.0
H894 H 0.1075 0.97408 0.44527 0.0
H895 H 1.00028 0.86399 0.90699 0.0
O896 O 0.97709 0.91894 0.93895 0.0
H897 H 0.94308 0.82979 0.61858 0.0
H898 H 0.86781 0.91084 0.83956 0.0
H899 H 0.95312 0.97366 0.68519 0.0
H900 H 0.95108 0.88702 0.65255 0.0
H901 H 0.92457 0.89791 0.86753 0.0
O902 O 0.08788 0.87958 0.77431 0.0
H903 H 0.06702 0.95957 0.56243 0.0
H904 H 0.13633 0.90814 0.72146 0.0
H905 H 0.89652 0.98761 0.65783 0.0
H906 H 0.99437 0.80644 0.87304 0.0
H907 H 0.85359 0.95791 0.74075 0.0
H908 H 0.9654 0.78899 0.7281 0.0
O909 O 0.9994 0.9709 0.80641 0.0
H910 H 0.11396 0.93029 0.06763 0.0
H911 H 0.11194 0.97633 0.7497 0.0
H912 H 0.1511 0.99671 0.86339 0.0
H913 H 0.15191 0.97483 0.02588 0.0
H914 H 0.0729 0.91483 0.95687 0.0
H915 H 0.17796 0.92236 0.60296 0.0
H916 H 0.16363 0.95522 0.46433 0.0
O917 O 0.04553 0.96746 0.72053 0.0
C918 C 0.01481 0.91873 0.60444 0.0
C919 C 0.11408 0.9592 0.50472 0.0
C920 C 0.15348 0.92992 0.59351 0.0
N921 N 0.09912 0.93266 0.64887 0.0
C922 C 0.09115 0.95089 0.57195 0.0
C923 C 0.1298 0.92177 0.65952 0.0
C924 C 0.14549 0.94863 0.5156 0.0
C925 C 0.98795 0.85663 0.84348 0.0
N926 N 0.97661 0.87894 0.78124 0.0
C927 C 0.98445 0.82399 0.82488 0.0
C928 C 0.96828 0.8142 0.74345 0.0
C929 C 0.95581 0.83707 0.68187 0.0
C930 C 0.96039 0.86948 0.70169 0.0
C931 C 0.88635 0.9249 0.80611 0.0
C932 C 0.93456 0.96008 0.72039 0.0
C933 C 0.91859 0.9177 0.82148 0.0
N934 N 0.94222 0.93524 0.77876 0.0
C935 C 0.90258 0.96826 0.70519 0.0
C936 C 0.87839 0.95107 0.75008 0.0
C937 C 0.02176 0.98371 0.75467 0.0
C938 C 0.11318 0.94171 -0.00064 0.0
C939 C 0.11181 0.9668 0.81984 0.0
C940 C 0.13424 0.97832 0.88425 0.0
C941 C 0.13491 0.96566 0.97495 0.0
N942 N 0.0912 0.94266 0.84296 0.0
C943 C 0.09056 0.93158 0.9337 0.0
Co944 Co 0.67777 0.74083 0.55396 0.0
Co945 Co 0.67289 0.82071 0.50198 0.0
O946 O 0.66338 0.78458 0.58458 0.0
C947 C 0.66257 0.74291 0.7638 0.0
O948 O 0.65155 0.77187 0.75313 0.0
C949 C 0.61075 0.83828 0.6123 0.0
O950 O 0.61291 0.81272 0.66508 0.0
O951 O 0.65413 0.79654 0.39255 0.0
O952 O 0.67925 0.75016 0.41622 0.0
H953 H 0.7223 0.86692 0.20976 0.0
H954 H 0.61263 0.754 0.64644 0.0
O955 O 0.67662 0.72869 0.69482 0.0
H956 H 0.59058 0.68262 0.37786 0.0
H957 H 0.67948 0.62065 0.58225 0.0
H958 H 0.72546 0.71423 0.41928 0.0
H959 H 0.64574 0.69794 0.41564 0.0
H960 H 0.66242 0.67527 0.626 0.0
O961 O 0.62893 0.84177 0.53802 0.0
H962 H 0.70575 0.82403 0.31719 0.0
H963 H 0.65908 0.89147 0.49516 0.0
H964 H 0.74251 0.66034 0.37338 0.0
H965 H 0.5573 0.74066 0.60813 0.0
H966 H 0.72081 0.613 0.45862 0.0
H967 H 0.54561 0.70437 0.47301 0.0
O968 O 0.72354 0.75655 0.55986 0.0
H969 H 0.67741 0.86941 0.82533 0.0
H970 H 0.72801 0.86462 0.51309 0.0
H971 H 0.74516 0.9063 0.62397 0.0
H972 H 0.72003 0.90931 0.78282 0.0
H973 H 0.66352 0.82771 0.71536 0.0
H974 H 0.67542 0.93504 0.38676 0.0
H975 H 0.70598 0.92286 0.2418 0.0
O976 O 0.71747 0.80187 0.47374 0.0
C977 C 0.66643 0.77055 0.36182 0.0
C978 C 0.70745 0.87239 0.27018 0.0
C979 C 0.68105 0.91061 0.37015 0.0
N980 N 0.68131 0.85513 0.41274 0.0
C981 C 0.69833 0.84823 0.33249 0.0
C982 C 0.67189 0.88583 0.4308 0.0
C983 C 0.69857 0.90378 0.28885 0.0
C984 C 0.6085 0.73806 0.58888 0.0
N985 N 0.63332 0.72636 0.53601 0.0
C986 C 0.5767 0.7305 0.56704 0.0
C987 C 0.57012 0.7103 0.49112 0.0
C988 C 0.59531 0.69812 0.43773 0.0
C989 C 0.62673 0.70672 0.46054 0.0
C990 C 0.68976 0.64115 0.54692 0.0
C991 C 0.71524 0.69391 0.45563 0.0
C992 C 0.68049 0.67213 0.57188 0.0
N993 N 0.69316 0.69805 0.52602 0.0
C994 C 0.72501 0.66334 0.42916 0.0
C995 C 0.71281 0.63683 0.477 0.0
C996 C 0.73504 0.77907 0.50709 0.0
C997 C 0.68942 0.86855 0.75784 0.0
C998 C 0.71754 0.86519 0.58229 0.0
C999 C 0.72724 0.889 0.64504 0.0
C1000 C 0.71284 0.89085 0.73352 0.0
N1001 N 0.69288 0.84498 0.60408 0.0
C1002 C 0.68066 0.84504 0.6934 0.0
Co1003 Co 0.51862 0.42401 0.79974 0.0
Co1004 Co 0.43935 0.42319 0.74206 0.0
O1005 O 0.47395 0.41257 0.82731 0.0
C1006 C 0.50921 0.42739 0.00466 0.0
O1007 O 0.48465 0.44576 0.98408 0.0
C1008 C 0.41954 0.36229 0.85125 0.0
O1009 O 0.44464 0.36441 0.90655 0.0
O1010 O 0.46461 0.40527 0.63287 0.0
O1011 O 0.51129 0.42887 0.66222 0.0
H1012 H 0.39771 0.47404 0.44551 0.0
H1013 H 0.50502 0.36402 0.90723 0.0
O1014 O 0.5282 0.41897 0.93912 0.0
H1015 H 0.56229 0.32979 0.61896 0.0
H1016 H 0.63748 0.41096 0.83975 0.0
H1017 H 0.55213 0.47364 0.68514 0.0
H1018 H 0.55422 0.38703 0.65277 0.0
H1019 H 0.58073 0.39799 0.86777 0.0
O1020 O 0.41742 0.37955 0.77462 0.0
H1021 H 0.43822 0.45954 0.56259 0.0
H1022 H 0.36896 0.40807 0.72172 0.0
H1023 H 0.60871 0.48761 0.65768 0.0
H1024 H 0.51098 0.30647 0.87342 0.0
H1025 H 0.65167 0.45799 0.74074 0.0
H1026 H 0.54001 0.289 0.72857 0.0
O1027 O 0.50586 0.47091 0.80649 0.0
H1028 H 0.3913 0.43028 0.06779 0.0
H1029 H 0.3933 0.47629 0.74981 0.0
H1030 H 0.35412 0.49664 0.86344 0.0
H1031 H 0.3533 0.47478 0.02595 0.0
H1032 H 0.43239 0.41486 0.9571 0.0
H1033 H 0.3273 0.42228 0.60329 0.0
H1034 H 0.34159 0.45515 0.46465 0.0
O1035 O 0.45973 0.46744 0.72064 0.0
C1036 C 0.49046 0.41872 0.60461 0.0
C1037 C 0.39115 0.45915 0.50496 0.0
C1038 C 0.35178 0.42984 0.5938 0.0
N1039 N 0.40615 0.43261 0.64907 0.0
C1040 C 0.4141 0.45084 0.57214 0.0
C1041 C 0.37547 0.4217 0.65976 0.0
C1042 C 0.35975 0.44857 0.51588 0.0
C1043 C 0.51737 0.35665 0.84374 0.0
N1044 N 0.52869 0.37895 0.78147 0.0
C1045 C 0.5209 0.32401 0.82522 0.0
C1046 C 0.53709 0.31422 0.74384 0.0
C1047 C 0.54954 0.33708 0.68221 0.0
C1048 C 0.54492 0.36949 0.70194 0.0
C1049 C 0.61893 0.42498 0.80624 0.0
C1050 C 0.5707 0.46009 0.72038 0.0
C1051 C 0.5867 0.41776 0.82165 0.0
N1052 N 0.56305 0.43527 0.77887 0.0
C1053 C 0.60267 0.46828 0.70512 0.0
C1054 C 0.62687 0.45113 0.7501 0.0
C1055 C 0.4835 0.4837 0.75472 0.0
C1056 C 0.39207 0.4417 -0.00049 0.0
C1057 C 0.39344 0.46677 0.81997 0.0
C1058 C 0.37099 0.47828 0.88434 0.0
C1059 C 0.37033 0.46562 0.97505 0.0
N1060 N 0.41407 0.44265 0.84313 0.0
C1061 C 0.41472 0.43159 0.93389 0.0
Co1062 Co 0.82739 0.26191 0.05456 0.0
Co1063 Co 0.83227 0.18202 0.00257 0.0
O1064 O 0.84178 0.21815 0.08517 0.0
C1065 C 0.84257 0.25981 0.26441 0.0
O1066 O 0.85357 0.23083 0.25374 0.0
C1067 C 0.89444 0.16448 0.11275 0.0
O1068 O 0.89227 0.19003 0.16555 0.0
O1069 O 0.85101 0.2062 0.89314 0.0
O1070 O 0.82591 0.25259 0.91682 0.0
H1071 H 0.78286 0.13583 0.71036 0.0
H1072 H 0.89251 0.24877 0.14717 0.0
O1073 O 0.82853 0.27404 0.19541 0.0
H1074 H 0.91459 0.32011 0.8785 0.0
H1075 H 0.82571 0.38208 0.08281 0.0
H1076 H 0.7797 0.28852 0.91988 0.0
H1077 H 0.85943 0.30478 0.91621 0.0
H1078 H 0.84275 0.32745 0.1266 0.0
O1079 O 0.87624 0.16098 0.03853 0.0
H1080 H 0.79937 0.17871 0.81784 0.0
H1081 H 0.84613 0.11127 -0.00433 0.0
H1082 H 0.76267 0.34241 0.87394 0.0
H1083 H 0.94785 0.26213 0.10895 0.0
H1084 H 0.78439 0.38975 0.95915 0.0
H1085 H 0.95955 0.29839 0.97378 0.0
O1086 O 0.78161 0.24619 0.06045 0.0
H1087 H 0.8278 0.1333 0.32595 0.0
H1088 H 0.77718 0.13807 0.01373 0.0
H1089 H 0.76005 0.09639 0.12465 0.0
H1090 H 0.78518 0.0934 0.2835 0.0
H1091 H 0.84168 0.175 0.21592 0.0
H1092 H 0.82983 0.06771 0.88718 0.0
H1093 H 0.79924 0.0799 0.74227 0.0
O1094 O 0.78767 0.20086 0.97439 0.0
C1095 C 0.83872 0.23219 0.86242 0.0
C1096 C 0.79772 0.13036 0.77076 0.0
C1097 C 0.82416 0.09214 0.87064 0.0
N1098 N 0.82385 0.1476 0.91332 0.0
C1099 C 0.80681 0.15451 0.8331 0.0
C1100 C 0.8333 0.11691 0.93133 0.0
C1101 C 0.80663 0.09897 0.78936 0.0
C1102 C 0.89665 0.26469 0.08958 0.0
N1103 N 0.87184 0.27637 0.03664 0.0
C1104 C 0.92845 0.27226 0.0678 0.0
C1105 C 0.93503 0.29245 0.99185 0.0
C1106 C 0.90985 0.30462 0.93838 0.0
C1107 C 0.87844 0.29601 0.96115 0.0
C1108 C 0.81543 0.36159 0.04749 0.0
C1109 C 0.78993 0.30884 0.95622 0.0
C1110 C 0.82468 0.3306 0.07247 0.0
N1111 N 0.812 0.30469 0.02662 0.0
C1112 C 0.78017 0.33941 0.92973 0.0
C1113 C 0.79238 0.36591 0.97755 0.0
C1114 C 0.77011 0.22367 0.0077 0.0
C1115 C 0.81579 0.13417 0.25846 0.0
C1116 C 0.78766 0.13751 0.08292 0.0
C1117 C 0.77796 0.1137 0.1457 0.0
C1118 C 0.79237 0.11186 0.23418 0.0
N1119 N 0.8123 0.15774 0.10469 0.0
C1120 C 0.82454 0.15767 0.194 0.0
Co1121 Co 0.98665 0.57881 0.29959 0.0
Co1122 Co 0.06592 0.57962 0.24186 0.0
O1123 O 0.03132 0.59025 0.32712 0.0
C1124 C 0.99604 0.5754 0.50449 0.0
O1125 O 0.02059 0.55701 0.4839 0.0
C1126 C 0.08577 0.64054 0.35089 0.0
O1127 O 0.06068 0.63843 0.40627 0.0
O1128 O 0.04065 0.59752 0.13266 0.0
O1129 O 0.99397 0.57394 0.16207 0.0
H1130 H 0.10751 0.52875 0.94532 0.0
H1131 H 1.00028 0.63882 0.40698 0.0
O1132 O 0.97708 0.58387 0.43895 0.0
H1133 H 0.94303 0.67303 0.11865 0.0
H1134 H 0.8678 0.59191 0.33964 0.0
H1135 H 0.95312 0.52918 0.18509 0.0
H1136 H 0.95105 0.61579 0.15258 0.0
H1137 H 0.92455 0.60486 0.36761 0.0
O1138 O 0.08785 0.62326 0.27429 0.0
H1139 H 0.06703 0.54323 0.06249 0.0
H1140 H 0.13631 0.59477 0.22134 0.0
H1141 H 0.89653 0.51523 0.15769 0.0
H1142 H 0.99436 0.69637 0.37306 0.0
H1143 H 0.85359 0.54488 0.24069 0.0
H1144 H 0.96535 0.71383 0.22816 0.0
O1145 O 0.9994 0.53191 0.30639 0.0
H1146 H 0.11384 0.57253 0.56778 0.0
H1147 H 0.11208 0.52659 0.24973 0.0
H1148 H 0.15117 0.50622 0.36358 0.0
H1149 H 0.15186 0.52803 0.52614 0.0
H1150 H 0.07282 0.58796 0.45688 0.0
H1151 H 0.17794 0.58057 0.10282 0.0
H1152 H 0.16363 0.54766 0.96429 0.0
O1153 O 0.04554 0.53537 0.22057 0.0
C1154 C 0.0148 0.58408 0.10444 0.0
C1155 C 0.11408 0.54364 0.00474 0.0
C1156 C 0.15346 0.57298 0.09342 0.0
N1157 N 0.09911 0.57019 0.14885 0.0
C1158 C 0.09115 0.55194 0.07198 0.0
C1159 C 0.12979 0.58112 0.15943 0.0
C1160 C 0.14548 0.55424 0.01556 0.0
C1161 C 0.98794 0.64618 0.34348 0.0
N1162 N 0.9766 0.62388 0.28126 0.0
C1163 C 0.98443 0.67882 0.3249 0.0
C1164 C 0.96824 0.68861 0.24349 0.0
C1165 C 0.95577 0.66575 0.18192 0.0
C1166 C 0.96036 0.63333 0.20172 0.0
C1167 C 0.88634 0.57788 0.30614 0.0
C1168 C 0.93456 0.54274 0.22032 0.0
C1169 C 0.91858 0.58509 0.32152 0.0
N1170 N 0.94221 0.56756 0.27876 0.0
C1171 C 0.90258 0.53456 0.20509 0.0
C1172 C 0.87838 0.55173 0.25003 0.0
C1173 C 0.02176 0.51911 0.25467 0.0
C1174 C 0.11311 0.56112 0.49949 0.0
C1175 C 0.11188 0.53609 0.3199 0.0
C1176 C 0.13428 0.52457 0.3844 0.0
C1177 C 0.13487 0.5372 0.47513 0.0
N1178 N 0.09121 0.56019 0.34298 0.0
C1179 C 0.09051 0.57123 0.43374 0.0
Co1180 Co 0.67777 0.26192 0.93575 0.0
Co1181 Co 0.67289 0.18204 0.98774 0.0
O1182 O 0.66338 0.21817 0.90513 0.0
C1183 C 0.66257 0.25985 0.72591 0.0
O1184 O 0.65154 0.23088 0.73658 0.0
C1185 C 0.61074 0.16448 0.87743 0.0
O1186 O 0.61291 0.19004 0.82465 0.0
O1187 O 0.65413 0.20622 0.09716 0.0
O1188 O 0.67926 0.2526 0.07349 0.0
H1189 H 0.72228 0.13583 0.27997 0.0
H1190 H 0.61263 0.24876 0.84327 0.0
O1191 O 0.67663 0.27406 0.79489 0.0
H1192 H 0.5906 0.32013 0.11187 0.0
H1193 H 0.67948 0.38209 0.90742 0.0
H1194 H 0.72546 0.28852 0.07043 0.0
H1195 H 0.64576 0.30481 0.07407 0.0
H1196 H 0.66243 0.32747 0.86368 0.0
O1197 O 0.62892 0.16099 0.95171 0.0
H1198 H 0.70575 0.17872 0.17253 0.0
H1199 H 0.65906 0.11129 0.99458 0.0
H1200 H 0.74251 0.34241 0.11633 0.0
H1201 H 0.5573 0.26211 0.88159 0.0
H1202 H 0.72081 0.38975 0.03108 0.0
H1203 H 0.54562 0.29839 0.01672 0.0
O1204 O 0.72355 0.24619 0.92985 0.0
H1205 H 0.67739 0.13336 0.66436 0.0
H1206 H 0.72798 0.13809 0.97663 0.0
H1207 H 0.74511 0.09642 0.86572 0.0
H1208 H 0.71999 0.09344 0.70685 0.0
H1209 H 0.66352 0.17506 0.77436 0.0
H1210 H 0.67539 0.06771 0.10299 0.0
H1211 H 0.70595 0.0799 0.24796 0.0
O1212 O 0.71747 0.20087 0.01596 0.0
C1213 C 0.66644 0.2322 0.1279 0.0
C1214 C 0.70743 0.13037 0.21956 0.0
C1215 C 0.68103 0.09214 0.11959 0.0
N1216 N 0.6813 0.14762 0.07699 0.0
C1217 C 0.69832 0.15452 0.15723 0.0
C1218 C 0.67187 0.11692 0.05894 0.0
C1219 C 0.69854 0.09897 0.2009 0.0
C1220 C 0.60851 0.2647 0.90084 0.0
N1221 N 0.63332 0.27639 0.9537 0.0
C1222 C 0.57671 0.27226 0.92268 0.0
C1223 C 0.57013 0.29246 -0.00139 0.0
C1224 C 0.59533 0.30464 0.052 0.0
C1225 C 0.62674 0.29603 0.02918 0.0
C1226 C 0.68976 0.3616 0.94276 0.0
C1227 C 0.71524 0.30885 0.03407 0.0
C1228 C 0.6805 0.33061 0.91781 0.0
N1229 N 0.69317 0.3047 0.96367 0.0
C1230 C 0.72501 0.33941 0.06054 0.0
C1231 C 0.71281 0.36592 0.01269 0.0
C1232 C 0.73504 0.22367 0.98261 0.0
C1233 C 0.6894 0.13421 0.73186 0.0
C1234 C 0.71751 0.13753 0.90742 0.0
C1235 C 0.7272 0.11372 0.84466 0.0
C1236 C 0.71281 0.11189 0.75617 0.0
N1237 N 0.69286 0.15777 0.88563 0.0
C1238 C 0.68065 0.15772 0.79631 0.0
Co1239 Co 0.98666 0.424 0.19016 0.0
Co1240 Co 0.06593 0.42321 0.24788 0.0
O1241 O 0.03133 0.41257 0.16263 0.0
C1242 C 0.99606 0.42737 0.98524 0.0
O1243 O 0.02063 0.44574 0.00581 0.0
C1244 C 0.08577 0.36229 0.13888 0.0
O1245 O 0.06067 0.36438 0.08356 0.0
O1246 O 0.04066 0.4053 0.35707 0.0
O1247 O 0.99398 0.42888 0.32768 0.0
H1248 H 0.10751 0.47407 0.54445 0.0
H1249 H 1.00028 0.36399 0.08276 0.0
O1250 O 0.97709 0.41894 0.05079 0.0
H1251 H 0.94307 0.32979 0.37116 0.0
H1252 H 0.86781 0.41086 0.1502 0.0
H1253 H 0.95312 0.47366 0.30455 0.0
H1254 H 0.95108 0.38702 0.33721 0.0
H1255 H 0.92456 0.39792 0.12223 0.0
O1256 O 0.08788 0.37958 0.21544 0.0
H1257 H 0.06702 0.45957 0.42731 0.0
H1258 H 0.13633 0.40814 0.26827 0.0
H1259 H 0.89653 0.48761 0.33191 0.0
H1260 H 0.99436 0.30644 0.1167 0.0
H1261 H 0.85359 0.45793 0.24899 0.0
H1262 H 0.96537 0.28899 0.26164 0.0
O1263 O 0.9994 0.4709 0.18332 0.0
H1264 H 0.11398 0.43028 0.92213 0.0
H1265 H 0.11193 0.47633 0.24003 0.0
H1266 H 0.1511 0.49671 0.12636 0.0
H1267 H 0.15193 0.47483 0.96388 0.0
H1268 H 0.07291 0.41482 0.03288 0.0
H1269 H 0.17797 0.42236 0.38675 0.0
H1270 H 0.16364 0.45521 0.52538 0.0
O1271 O 0.04553 0.46745 0.2692 0.0
C1272 C 0.01481 0.41873 0.38531 0.0
C1273 C 0.11409 0.4592 0.485 0.0
C1274 C 0.15348 0.42991 0.39621 0.0
N1275 N 0.09912 0.43265 0.34087 0.0
C1276 C 0.09115 0.45088 0.41778 0.0
C1277 C 0.12981 0.42176 0.33021 0.0
C1278 C 0.1455 0.44863 0.47412 0.0
C1279 C 0.98794 0.35663 0.14627 0.0
N1280 N 0.97661 0.37894 0.20851 0.0
C1281 C 0.98444 0.32399 0.16487 0.0
C1282 C 0.96826 0.3142 0.24629 0.0
C1283 C 0.9558 0.33707 0.30788 0.0
C1284 C 0.96039 0.36948 0.28806 0.0
C1285 C 0.88635 0.42491 0.18364 0.0
C1286 C 0.93456 0.46008 0.26935 0.0
C1287 C 0.91859 0.41771 0.16827 0.0
N1288 N 0.94222 0.43525 0.21099 0.0
C1289 C 0.90258 0.46827 0.28456 0.0
C1290 C 0.87839 0.45108 0.23966 0.0
C1291 C 0.02176 0.48371 0.23507 0.0
C1292 C 0.1132 0.44171 0.9904 0.0
C1293 C 0.11181 0.4668 0.16989 0.0
C1294 C 0.13424 0.47832 0.1055 0.0
C1295 C 0.13492 0.46566 0.01481 0.0
N1296 N 0.0912 0.44266 0.14678 0.0
C1297 C 0.09057 0.43158 0.05605 0.0
Co1298 Co 0.82738 0.74081 0.43514 0.0
Co1299 Co 0.83227 0.8207 0.48716 0.0
O1300 O 0.84177 0.78456 0.40453 0.0
C1301 C 0.84259 0.74289 0.22531 0.0
O1302 O 0.85363 0.77185 0.23598 0.0
C1303 C 0.89444 0.83825 0.37695 0.0
O1304 O 0.89226 0.81273 0.32406 0.0
O1305 O 0.85101 0.7965 0.59658 0.0
O1306 O 0.82589 0.75013 0.57287 0.0
H1307 H 0.78287 0.86688 0.77939 0.0
H1308 H 0.89252 0.754 0.34273 0.0
O1309 O 0.82852 0.72868 0.29429 0.0
H1310 H 0.91454 0.68255 0.61119 0.0
H1311 H 0.82567 0.62064 0.40688 0.0
H1312 H 0.77969 0.7142 0.56985 0.0
H1313 H 0.85939 0.6979 0.57344 0.0
H1314 H 0.8427 0.67526 0.36305 0.0
O1315 O 0.87625 0.84173 0.45121 0.0
H1316 H 0.79936 0.824 0.67186 0.0
H1317 H 0.84619 0.89144 0.49417 0.0
H1318 H 0.76267 0.66031 0.61584 0.0
H1319 H 0.94785 0.74062 0.38101 0.0
H1320 H 0.78438 0.61297 0.53064 0.0
H1321 H 0.95952 0.7043 0.51606 0.0
O1322 O 0.7816 0.75655 0.42924 0.0
H1323 H 0.8278 0.86937 0.16374 0.0
H1324 H 0.77723 0.86471 0.47604 0.0
H1325 H 0.76011 0.90638 0.36505 0.0
H1326 H 0.78523 0.90932 0.20617 0.0
H1327 H 0.84164 0.82767 0.27379 0.0
H1328 H 0.82991 0.93499 0.60271 0.0
H1329 H 0.79929 0.9228 0.74757 0.0
O1330 O 0.78768 0.80187 0.51531 0.0
C1331 C 0.8387 0.77051 0.62729 0.0
C1332 C 0.79774 0.87234 0.71901 0.0
C1333 C 0.82422 0.91056 0.61921 0.0
N1334 N 0.82387 0.85511 0.57644 0.0
C1335 C 0.80682 0.84819 0.65663 0.0
C1336 C 0.83335 0.88579 0.55849 0.0
C1337 C 0.80668 0.90373 0.70046 0.0
C1338 C 0.89664 0.73804 0.40025 0.0
N1339 N 0.87182 0.72634 0.45309 0.0
C1340 C 0.92844 0.73046 0.42207 0.0
C1341 C 0.93501 0.71024 0.49797 0.0
C1342 C 0.90981 0.69806 0.55134 0.0
C1343 C 0.87841 0.70668 0.52854 0.0
C1344 C 0.81539 0.64113 0.44221 0.0
C1345 C 0.78991 0.69388 0.5335 0.0
C1346 C 0.82464 0.67212 0.4172 0.0
N1347 N 0.81197 0.69803 0.46307 0.0
C1348 C 0.78016 0.66332 0.56003 0.0
C1349 C 0.79236 0.63681 0.5122 0.0
C1350 C 0.77011 0.77906 0.48199 0.0
C1351 C 0.8158 0.86853 0.23124 0.0
C1352 C 0.78769 0.86525 0.40683 0.0
C1353 C 0.77801 0.88906 0.34402 0.0
C1354 C 0.7924 0.89087 0.25552 0.0
N1355 N 0.81232 0.84499 0.38505 0.0
C1356 C 0.82453 0.84502 0.29572 0.0
Co1357 Co 0.5186 0.5788 0.68999 0.0
Co1358 Co 0.43933 0.57961 0.74767 0.0
O1359 O 0.47393 0.59023 0.66243 0.0
C1360 C 0.50919 0.5754 0.48508 0.0
O1361 O 0.48464 0.55701 0.50568 0.0
C1362 C 0.41951 0.64051 0.63851 0.0
O1363 O 0.44461 0.6384 0.58321 0.0
O1364 O 0.46459 0.59751 0.85688 0.0
O1365 O 0.51127 0.57394 0.82752 0.0
H1366 H 0.39768 0.52876 0.04421 0.0
H1367 H 0.505 0.63879 0.58249 0.0
O1368 O 0.52817 0.58383 0.55061 0.0
H1369 H 0.56224 0.67302 0.87078 0.0
H1370 H 0.63746 0.59184 0.64994 0.0
H1371 H 0.55211 0.52917 0.80461 0.0
H1372 H 0.55419 0.61579 0.83696 0.0
H1373 H 0.58071 0.60482 0.62196 0.0
O1374 O 0.4174 0.62324 0.71513 0.0
H1375 H 0.43819 0.54325 0.92713 0.0
H1376 H 0.36893 0.59473 0.768 0.0
H1377 H 0.60869 0.5152 0.83203 0.0
H1378 H 0.51094 0.69634 0.61631 0.0
H1379 H 0.65164 0.5448 0.74891 0.0
H1380 H 0.53996 0.71381 0.76117 0.0
O1381 O 0.50585 0.53189 0.68325 0.0
H1382 H 0.39131 0.57253 0.42189 0.0
H1383 H 0.39325 0.52652 0.73986 0.0
H1384 H 0.35409 0.50617 0.62618 0.0
H1385 H 0.35331 0.52803 0.46366 0.0
H1386 H 0.43239 0.58795 0.53264 0.0
H1387 H 0.32727 0.58052 0.88642 0.0
H1388 H 0.34156 0.54765 0.02507 0.0
O1389 O 0.45971 0.53536 0.76908 0.0
C1390 C 0.49043 0.58407 0.88513 0.0
C1391 C 0.39112 0.54364 0.98476 0.0
C1392 C 0.35175 0.57295 0.89592 0.0
N1393 N 0.40612 0.57018 0.84065 0.0
C1394 C 0.41407 0.55195 0.91757 0.0
C1395 C 0.37544 0.58109 0.82996 0.0
C1396 C 0.35972 0.55423 0.97384 0.0
C1397 C 0.51734 0.64615 0.64598 0.0
N1398 N 0.52866 0.62386 0.70826 0.0
C1399 C 0.52086 0.6788 0.6645 0.0
C1400 C 0.53705 0.68859 0.74589 0.0
C1401 C 0.5495 0.66574 0.80752 0.0
C1402 C 0.54489 0.63332 0.78779 0.0
C1403 C 0.6189 0.57782 0.68346 0.0
C1404 C 0.57067 0.54273 0.76935 0.0
C1405 C 0.58667 0.58505 0.66808 0.0
N1406 N 0.56303 0.56754 0.71086 0.0
C1407 C 0.60265 0.53453 0.78459 0.0
C1408 C 0.62685 0.55167 0.73959 0.0
C1409 C 0.48349 0.5191 0.73503 0.0
C1410 C 0.39207 0.56111 0.49017 0.0
C1411 C 0.39341 0.53604 0.66971 0.0
C1412 C 0.37097 0.52453 0.6053 0.0
C1413 C 0.37032 0.53719 0.51459 0.0
N1414 N 0.41405 0.56016 0.64657 0.0
C1415 C 0.41471 0.57122 0.55582 0.0
Co1416 Co 0.32748 0.26196 0.43578 0.0
Co1417 Co 0.33235 0.18207 0.48776 0.0
O1418 O 0.34187 0.21821 0.40516 0.0
C1419 C 0.34268 0.25988 0.22594 0.0
O1420 O 0.3537 0.23091 0.23661 0.0
C1421 C 0.39449 0.1645 0.37744 0.0
O1422 O 0.39234 0.19006 0.32466 0.0
O1423 O 0.35111 0.20625 0.59719 0.0
O1424 O 0.326 0.25263 0.57352 0.0
H1425 H 0.28295 0.13586 0.77998 0.0
H1426 H 0.39262 0.24878 0.34331 0.0
O1427 O 0.32863 0.2741 0.29492 0.0
H1428 H 0.41466 0.32016 0.61188 0.0
H1429 H 0.32577 0.38213 0.40749 0.0
H1430 H 0.27979 0.28856 0.57046 0.0
H1431 H 0.3595 0.30485 0.5741 0.0
H1432 H 0.34283 0.32751 0.36374 0.0
O1433 O 0.37631 0.16101 0.45172 0.0
H1434 H 0.29949 0.17875 0.67255 0.0
H1435 H 0.34617 0.11132 0.49458 0.0
H1436 H 0.26273 0.34244 0.61636 0.0
H1437 H 0.44795 0.26213 0.38162 0.0
H1438 H 0.28443 0.38979 0.53112 0.0
H1439 H 0.45963 0.29841 0.51674 0.0
O1440 O 0.2817 0.24623 0.42988 0.0
H1441 H 0.32784 0.13337 0.16441 0.0
H1442 H 0.27724 0.13816 0.47665 0.0
H1443 H 0.26009 0.09648 0.36577 0.0
H1444 H 0.28522 0.09348 0.20692 0.0
H1445 H 0.34172 0.17508 0.27438 0.0
H1446 H 0.32983 0.06774 0.60298 0.0
H1447 H 0.29926 0.07993 0.74795 0.0
O1448 O 0.28777 0.20092 0.516 0.0
C1449 C 0.33882 0.23223 0.62792 0.0
C1450 C 0.2978 0.1304 0.71956 0.0
C1451 C 0.32419 0.09217 0.61959 0.0
N1452 N 0.32394 0.14765 0.57701 0.0
C1453 C 0.30691 0.15456 0.65725 0.0
C1454 C 0.33335 0.11695 0.55894 0.0
C1455 C 0.30668 0.099 0.7009 0.0
C1456 C 0.39675 0.26472 0.40087 0.0
N1457 N 0.37193 0.27642 0.45373 0.0
C1458 C 0.42854 0.27228 0.4227 0.0
C1459 C 0.43512 0.29248 0.49863 0.0
C1460 C 0.40993 0.30467 0.55202 0.0
C1461 C 0.37852 0.29607 0.5292 0.0
C1462 C 0.31549 0.36163 0.44282 0.0
C1463 C 0.29001 0.30888 0.53411 0.0
C1464 C 0.32475 0.33065 0.41786 0.0
N1465 N 0.31208 0.30473 0.46372 0.0
C1466 C 0.28023 0.33944 0.56058 0.0
C1467 C 0.29243 0.36595 0.51274 0.0
C1468 C 0.2702 0.22372 0.48265 0.0
C1469 C 0.31583 0.13424 0.2319 0.0
C1470 C 0.28771 0.13759 0.40745 0.0
C1471 C 0.27801 0.11378 0.3447 0.0
C1472 C 0.29241 0.11193 0.25622 0.0
N1473 N 0.31237 0.15781 0.38566 0.0
C1474 C 0.32459 0.15775 0.29634 0.0
Co1475 Co 0.48663 0.57877 0.18999 0.0
Co1476 Co 0.5659 0.57959 0.24768 0.0
O1477 O 0.53129 0.59021 0.16243 0.0
C1478 C 0.49603 0.57539 0.98508 0.0
O1479 O 0.5206 0.55702 0.00566 0.0
C1480 C 0.58571 0.6405 0.13849 0.0
O1481 O 0.56061 0.63838 0.08319 0.0
O1482 O 0.54063 0.59751 0.35687 0.0
O1483 O 0.49396 0.57391 0.32752 0.0
H1484 H 0.60753 0.52875 0.54423 0.0
H1485 H 0.50023 0.63877 0.08251 0.0
O1486 O 0.47705 0.58381 0.05062 0.0
H1487 H 0.44296 0.67299 0.37078 0.0
H1488 H 0.36776 0.59183 0.14999 0.0
H1489 H 0.45312 0.52914 0.3046 0.0
H1490 H 0.45103 0.61575 0.33697 0.0
H1491 H 0.42451 0.60479 0.12197 0.0
O1492 O 0.58782 0.62323 0.21512 0.0
H1493 H 0.56702 0.54325 0.42715 0.0
H1494 H 0.63629 0.59472 0.26803 0.0
H1495 H 0.39654 0.51518 0.33206 0.0
H1496 H 0.49426 0.69632 0.11632 0.0
H1497 H 0.35358 0.54479 0.24899 0.0
H1498 H 0.46524 0.71378 0.26117 0.0
O1499 O 0.49939 0.53187 0.18325 0.0
H1500 H 0.61394 0.5725 0.92195 0.0
H1501 H 0.61195 0.5265 0.23992 0.0
H1502 H 0.65113 0.50615 0.1263 0.0
H1503 H 0.65194 0.528 0.96378 0.0
H1504 H 0.57286 0.58793 0.03264 0.0
H1505 H 0.67795 0.58051 0.38645 0.0
H1506 H 0.66366 0.54764 0.5251 0.0
O1507 O 0.54552 0.53535 0.2691 0.0
C1508 C 0.51479 0.58407 0.38513 0.0
C1509 C 0.6141 0.54363 0.48478 0.0
C1510 C 0.65347 0.57294 0.39595 0.0
N1511 N 0.5991 0.57018 0.34067 0.0
C1512 C 0.59115 0.55194 0.4176 0.0
C1513 C 0.62978 0.58109 0.32998 0.0
C1514 C 0.6455 0.55422 0.47386 0.0
C1515 C 0.48788 0.64613 0.146 0.0
N1516 N 0.47656 0.62383 0.20827 0.0
C1517 C 0.48435 0.67878 0.16452 0.0
C1518 C 0.46815 0.68857 0.2459 0.0
C1519 C 0.4557 0.66571 0.30753 0.0
C1520 C 0.46032 0.63329 0.28779 0.0
C1521 C 0.38632 0.5778 0.18349 0.0
C1522 C 0.43455 0.5427 0.26935 0.0
C1523 C 0.41855 0.58502 0.16809 0.0
N1524 N 0.44219 0.56751 0.21087 0.0
C1525 C 0.40257 0.5345 0.28462 0.0
C1526 C 0.37837 0.55165 0.23964 0.0
C1527 C 0.52175 0.51908 0.23502 0.0
C1528 C 0.61317 0.56108 0.99023 0.0
C1529 C 0.61181 0.53602 0.16977 0.0
C1530 C 0.63425 0.52451 0.10539 0.0
C1531 C 0.63492 0.53716 0.01468 0.0
N1532 N 0.59118 0.56014 0.14661 0.0
C1533 C 0.59053 0.57119 0.05585 0.0
Co1534 Co 0.17786 0.74088 0.93518 0.0
Co1535 Co 0.17298 0.82077 0.98717 0.0
O1536 O 0.16347 0.78463 0.90457 0.0
C1537 C 0.16267 0.74298 0.72533 0.0
O1538 O 0.15167 0.77195 0.736 0.0
C1539 C 0.11081 0.8383 0.87699 0.0
O1540 O 0.11297 0.81275 0.82419 0.0
O1541 O 0.15424 0.79658 0.0966 0.0
O1542 O 0.17934 0.7502 0.07292 0.0
H1543 H 0.22239 0.86696 0.27938 0.0
H1544 H 0.11273 0.75402 0.84257 0.0
O1545 O 0.17671 0.72875 0.79433 0.0
H1546 H 0.09066 0.68268 0.11124 0.0
H1547 H 0.17953 0.62071 0.90693 0.0
H1548 H 0.22555 0.71427 0.06986 0.0
H1549 H 0.14582 0.69801 0.07353 0.0
H1550 H 0.1625 0.67533 0.86314 0.0
O1551 O 0.12901 0.84181 0.95121 0.0
H1552 H 0.20587 0.82408 0.1719 0.0
H1553 H 0.15912 0.89151 0.99408 0.0
H1554 H 0.24257 0.66037 0.1158 0.0
H1555 H 0.0574 0.74066 0.8808 0.0
H1556 H 0.22086 0.61304 0.03059 0.0
H1557 H 0.0457 0.70439 0.01597 0.0
O1558 O 0.22364 0.7566 0.92929 0.0
H1559 H 0.17744 0.86948 0.66379 0.0
H1560 H 0.22806 0.86472 0.97602 0.0
H1561 H 0.24519 0.9064 0.86509 0.0
H1562 H 0.22006 0.90938 0.70624 0.0
H1563 H 0.16357 0.82778 0.77382 0.0
H1564 H 0.17541 0.93508 0.10257 0.0
H1565 H 0.20601 0.92288 0.24747 0.0
O1566 O 0.21757 0.80193 0.01535 0.0
C1567 C 0.16653 0.77059 0.12732 0.0
C1568 C 0.20753 0.87242 0.21899 0.0
C1569 C 0.18108 0.91065 0.11911 0.0
N1570 N 0.18139 0.85518 0.07642 0.0
C1571 C 0.19843 0.84827 0.15664 0.0
C1572 C 0.17195 0.88587 0.05841 0.0
C1573 C 0.19861 0.90382 0.20039 0.0
C1574 C 0.1086 0.73809 0.90016 0.0
N1575 N 0.13341 0.72642 0.9531 0.0
C1576 C 0.0768 0.73052 0.92194 0.0
C1577 C 0.07021 0.71033 -0.0021 0.0
C1578 C 0.09539 0.69817 0.05136 0.0
C1579 C 0.12681 0.70678 0.02859 0.0
C1580 C 0.18982 0.6412 0.94225 0.0
C1581 C 0.21532 0.69395 0.03352 0.0
C1582 C 0.18057 0.67219 0.91727 0.0
N1583 N 0.19325 0.6981 0.96312 0.0
C1584 C 0.22508 0.66338 0.06001 0.0
C1585 C 0.21287 0.63687 0.01219 0.0
C1586 C 0.23514 0.77912 0.98203 0.0
C1587 C 0.18946 0.86862 0.73128 0.0
C1588 C 0.21759 0.86528 0.90682 0.0
C1589 C 0.22728 0.88909 0.84404 0.0
C1590 C 0.21288 0.89093 0.75556 0.0
N1591 N 0.19294 0.84505 0.88505 0.0
C1592 C 0.18071 0.84511 0.79574 0.0
Co1593 Co 0.0186 0.42397 0.69015 0.0
Co1594 Co 0.93933 0.42317 0.74788 0.0
O1595 O 0.97392 0.41253 0.66262 0.0
C1596 C 0.0092 0.42739 0.48525 0.0
O1597 O 0.98466 0.44578 0.50584 0.0
C1598 C 0.91948 0.36225 0.63885 0.0
O1599 O 0.94456 0.36436 0.58347 0.0
O1600 O 0.9646 0.40527 0.85709 0.0
O1601 O 0.01128 0.42885 0.82767 0.0
H1602 H 0.89774 0.47404 0.04442 0.0
H1603 H 0.00496 0.36397 0.58277 0.0
O1604 O 0.02816 0.41892 0.55079 0.0
H1605 H 0.06221 0.32976 0.87109 0.0
H1606 H 0.13745 0.41087 0.6501 0.0
H1607 H 0.05213 0.47361 0.80465 0.0
H1608 H 0.05419 0.38699 0.83715 0.0
H1609 H 0.08069 0.39792 0.62213 0.0
O1610 O 0.91739 0.37952 0.71545 0.0
H1611 H 0.93822 0.45955 0.92725 0.0
H1612 H 0.86894 0.40801 0.76841 0.0
H1613 H 0.10872 0.48756 0.83204 0.0
H1614 H 0.01089 0.30642 0.61669 0.0
H1615 H 0.15166 0.45791 0.74905 0.0
H1616 H 0.03989 0.28896 0.76158 0.0
O1617 O 0.00585 0.47087 0.68335 0.0
H1618 H 0.89141 0.43026 0.42196 0.0
H1619 H 0.89316 0.47619 0.74001 0.0
H1620 H 0.85407 0.49657 0.62616 0.0
H1621 H 0.85339 0.47476 0.4636 0.0
H1622 H 0.93243 0.41483 0.53286 0.0
H1623 H 0.82731 0.42221 0.88693 0.0
H1624 H 0.84162 0.45512 0.02546 0.0
O1625 O 0.95971 0.46742 0.76917 0.0
C1626 C 0.99045 0.4187 0.8853 0.0
C1627 C 0.89116 0.45915 0.985 0.0
C1628 C 0.85179 0.4298 0.89633 0.0
N1629 N 0.90613 0.4326 0.84089 0.0
C1630 C 0.9141 0.45085 0.91776 0.0
C1631 C 0.87546 0.42166 0.83031 0.0
C1632 C 0.85977 0.44854 0.97419 0.0
C1633 C 0.01731 0.35661 0.64626 0.0
N1634 N 0.02865 0.37891 0.70848 0.0
C1635 C 0.02082 0.32396 0.66484 0.0
C1636 C 0.037 0.31418 0.74625 0.0
C1637 C 0.04948 0.33704 0.80782 0.0
C1638 C 0.04488 0.36945 0.78802 0.0
C1639 C 0.1189 0.42491 0.6836 0.0
C1640 C 0.07069 0.46004 0.76942 0.0
C1641 C 0.08667 0.4177 0.66822 0.0
N1642 N 0.06303 0.43522 0.71098 0.0
C1643 C 0.10267 0.46823 0.78465 0.0
C1644 C 0.12686 0.45106 0.7397 0.0
C1645 C 0.98348 0.48367 0.73507 0.0
C1646 C 0.89214 0.44167 0.49025 0.0
C1647 C 0.89336 0.46669 0.66984 0.0
C1648 C 0.87097 0.47821 0.60534 0.0
C1649 C 0.87037 0.46558 0.5146 0.0
N1650 N 0.91403 0.4426 0.64676 0.0
C1651 C 0.91474 0.43155 0.556 0.0
Co1652 Co 0.32747 0.74086 0.05399 0.0
Co1653 Co 0.33236 0.82075 0.002 0.0
O1654 O 0.34187 0.78461 0.08461 0.0
C1655 C 0.34268 0.74294 0.26383 0.0
O1656 O 0.3537 0.7719 0.25316 0.0
C1657 C 0.3945 0.8383 0.11231 0.0
O1658 O 0.39234 0.81274 0.16509 0.0
O1659 O 0.35111 0.79657 0.89258 0.0
O1660 O 0.32599 0.75019 0.91625 0.0
H1661 H 0.28297 0.86696 0.70977 0.0
H1662 H 0.39261 0.75403 0.14647 0.0
O1663 O 0.32862 0.72873 0.19485 0.0
H1664 H 0.41465 0.68266 0.87787 0.0
H1665 H 0.32576 0.62069 0.08231 0.0
H1666 H 0.27978 0.71426 0.91931 0.0
H1667 H 0.35949 0.69798 0.91566 0.0
H1668 H 0.34282 0.67531 0.12605 0.0
O1669 O 0.37633 0.8418 0.03803 0.0
H1670 H 0.2995 0.82407 0.81721 0.0
H1671 H 0.34619 0.8915 -0.00483 0.0
H1672 H 0.26274 0.66038 0.87341 0.0
H1673 H 0.44794 0.74068 0.10815 0.0
H1674 H 0.28443 0.61303 0.95866 0.0
H1675 H 0.45963 0.7044 0.97302 0.0
O1676 O 0.2817 0.75659 0.05989 0.0
H1677 H 0.32785 0.86943 0.32538 0.0
H1678 H 0.27727 0.86469 0.01311 0.0
H1679 H 0.26013 0.90637 0.12402 0.0
H1680 H 0.28525 0.90935 0.28289 0.0
H1681 H 0.34173 0.82773 0.21538 0.0
H1682 H 0.32986 0.93508 0.88676 0.0
H1683 H 0.29929 0.92289 0.74179 0.0
O1684 O 0.28777 0.80191 0.97378 0.0
C1685 C 0.33881 0.77058 0.86184 0.0
C1686 C 0.29782 0.87242 0.77018 0.0
C1687 C 0.32422 0.91065 0.87015 0.0
N1688 N 0.32395 0.85517 0.91275 0.0
C1689 C 0.30693 0.84826 0.83251 0.0
C1690 C 0.33337 0.88586 0.93081 0.0
C1691 C 0.3067 0.90382 0.78885 0.0
C1692 C 0.39674 0.73809 0.08891 0.0
N1693 N 0.37192 0.7264 0.03604 0.0
C1694 C 0.42854 0.73053 0.06707 0.0
C1695 C 0.43511 0.71033 0.99113 0.0
C1696 C 0.40992 0.69815 0.93774 0.0
C1697 C 0.37851 0.70675 0.96056 0.0
C1698 C 0.31548 0.64119 0.04698 0.0
C1699 C 0.29 0.69394 0.95567 0.0
C1700 C 0.32475 0.67217 0.07193 0.0
N1701 N 0.31207 0.69809 0.02606 0.0
C1702 C 0.28023 0.66337 0.9292 0.0
C1703 C 0.29243 0.63687 0.97705 0.0
C1704 C 0.2702 0.77911 0.00713 0.0
C1705 C 0.31585 0.86857 0.25788 0.0
C1706 C 0.28774 0.86525 0.08232 0.0
C1707 C 0.27804 0.88906 0.14508 0.0
C1708 C 0.29244 0.89089 0.23357 0.0
N1709 N 0.31238 0.84502 0.10411 0.0
C1710 C 0.3246 0.84507 0.19343 0.0
Co1711 Co 0.01859 0.57879 0.79958 0.0
Co1712 Co 0.93932 0.57958 0.74186 0.0
O1713 O 0.97391 0.59022 0.82711 0.0
C1714 C 0.00918 0.57541 0.00449 0.0
O1715 O 0.98461 0.55705 0.98393 0.0
C1716 C 0.91948 0.6405 0.85086 0.0
O1717 O 0.94458 0.63841 0.90617 0.0
O1718 O 0.96458 0.59749 0.63266 0.0
O1719 O 0.01126 0.57391 0.66206 0.0
H1720 H 0.89774 0.52872 0.44529 0.0
H1721 H 0.00497 0.63879 0.90698 0.0
O1722 O 0.02816 0.58384 0.93895 0.0
H1723 H 0.06218 0.673 0.61858 0.0
H1724 H 0.13744 0.59192 0.83955 0.0
H1725 H 0.05212 0.52913 0.68518 0.0
H1726 H 0.05417 0.61576 0.65254 0.0
H1727 H 0.08068 0.60487 0.86752 0.0
O1728 O 0.91737 0.62321 0.7743 0.0
H1729 H 0.93822 0.54322 0.56243 0.0
H1730 H 0.86891 0.59465 0.72148 0.0
H1731 H 0.10872 0.51517 0.65782 0.0
H1732 H 0.01089 0.69634 0.87304 0.0
H1733 H 0.15165 0.54486 0.74074 0.0
H1734 H 0.03988 0.7138 0.72811 0.0
O1735 O 0.00584 0.53188 0.80642 0.0
H1736 H 0.89126 0.5725 0.06761 0.0
H1737 H 0.89332 0.52645 0.74971 0.0
H1738 H 0.85415 0.50607 0.86338 0.0
H1739 H 0.85332 0.52796 0.02586 0.0
H1740 H 0.93233 0.58796 0.95686 0.0
H1741 H 0.82728 0.58042 0.603 0.0
H1742 H 0.8416 0.54757 0.46436 0.0
O1743 O 0.95972 0.53533 0.72053 0.0
C1744 C 0.99044 0.58406 0.60444 0.0
C1745 C 0.89116 0.54359 0.50474 0.0
C1746 C 0.85176 0.57287 0.59354 0.0
N1747 N 0.90612 0.57013 0.64887 0.0
C1748 C 0.91409 0.5519 0.57196 0.0
C1749 C 0.87544 0.58102 0.65953 0.0
C1750 C 0.85975 0.55416 0.51563 0.0
C1751 C 0.01731 0.64615 0.84347 0.0
N1752 N 0.02864 0.62385 0.78123 0.0
C1753 C 0.02081 0.6788 0.82488 0.0
C1754 C 0.03699 0.68858 0.74345 0.0
C1755 C 0.04945 0.66572 0.68187 0.0
C1756 C 0.04486 0.63331 0.70168 0.0
C1757 C 0.11889 0.57788 0.8061 0.0
C1758 C 0.07068 0.5427 0.72038 0.0
C1759 C 0.08666 0.58508 0.82147 0.0
N1760 N 0.06302 0.56754 0.77875 0.0
C1761 C 0.10267 0.53452 0.70518 0.0
C1762 C 0.12686 0.5517 0.75008 0.0
C1763 C 0.98348 0.51908 0.75467 0.0
C1764 C 0.89205 0.56108 -0.00066 0.0
C1765 C 0.89344 0.53598 0.81985 0.0
C1766 C 0.87101 0.52446 0.88424 0.0
C1767 C 0.87033 0.53712 0.97493 0.0
N1768 N 0.91405 0.56013 0.84296 0.0
C1769 C 0.91468 0.57121 0.93369 0.0
Co1770 Co 0.17787 0.26197 0.5546 0.0
Co1771 Co 0.17297 0.18209 0.50258 0.0
O1772 O 0.16347 0.21822 0.58521 0.0
C1773 C 0.16266 0.25989 0.76443 0.0
O1774 O 0.15162 0.23093 0.75376 0.0
C1775 C 0.11081 0.16453 0.6128 0.0
O1776 O 0.11299 0.19006 0.66568 0.0
O1777 O 0.15424 0.20628 0.39316 0.0
O1778 O 0.17936 0.25266 0.41687 0.0
H1779 H 0.22238 0.13591 0.21036 0.0
H1780 H 0.11273 0.24879 0.64702 0.0
O1781 O 0.17672 0.2741 0.69545 0.0
H1782 H 0.0907 0.32023 0.37855 0.0
H1783 H 0.17957 0.38215 0.58286 0.0
H1784 H 0.22556 0.28858 0.41989 0.0
H1785 H 0.14586 0.30488 0.4163 0.0
H1786 H 0.16254 0.32752 0.62669 0.0
O1787 O 0.12899 0.16106 0.53853 0.0
H1788 H 0.20588 0.17878 0.31788 0.0
H1789 H 0.15906 0.11135 0.49558 0.0
H1790 H 0.24257 0.34247 0.3739 0.0
H1791 H 0.0574 0.26216 0.60874 0.0
H1792 H 0.22087 0.38981 0.45911 0.0
H1793 H 0.04573 0.29848 0.47368 0.0
O1794 O 0.22364 0.24624 0.5605 0.0
H1795 H 0.17744 0.13341 0.826 0.0
H1796 H 0.22802 0.13808 0.51371 0.0
H1797 H 0.24514 0.09641 0.62469 0.0
H1798 H 0.22002 0.09347 0.78357 0.0
H1799 H 0.1636 0.17512 0.71596 0.0
H1800 H 0.17534 0.06779 0.38704 0.0
H1801 H 0.20596 0.07999 0.24218 0.0
O1802 O 0.21757 0.20091 0.47443 0.0
C1803 C 0.16654 0.23227 0.36245 0.0
C1804 C 0.20751 0.13044 0.27074 0.0
C1805 C 0.18103 0.09222 0.37054 0.0
N1806 N 0.18138 0.14768 0.41331 0.0
C1807 C 0.19843 0.15459 0.33311 0.0
C1808 C 0.1719 0.11699 0.43126 0.0
C1809 C 0.19857 0.09905 0.28929 0.0
C1810 C 0.1086 0.26474 0.58949 0.0
N1811 N 0.13342 0.27645 0.53665 0.0
C1812 C 0.07681 0.27232 0.56767 0.0
C1813 C 0.07024 0.29254 0.49178 0.0
C1814 C 0.09543 0.30472 0.4384 0.0
C1815 C 0.12684 0.2961 0.4612 0.0
C1816 C 0.18985 0.36165 0.54752 0.0
C1817 C 0.21534 0.3089 0.45624 0.0
C1818 C 0.18061 0.33067 0.57254 0.0
N1819 N 0.19328 0.30475 0.52667 0.0
C1820 C 0.22509 0.33947 0.42971 0.0
C1821 C 0.21288 0.36598 0.47754 0.0
C1822 C 0.23514 0.22372 0.50775 0.0
C1823 C 0.18945 0.13426 0.7585 0.0
C1824 C 0.21755 0.13754 0.58292 0.0
C1825 C 0.22724 0.11373 0.64572 0.0
C1826 C 0.21285 0.11192 0.73422 0.0
N1827 N 0.19293 0.15779 0.60469 0.0
C1828 C 0.18072 0.15776 0.69402 0.0
Co1829 Co 0.48665 0.42399 0.29975 0.0
Co1830 Co 0.56592 0.42318 0.24206 0.0
O1831 O 0.53132 0.41255 0.3273 0.0
C1832 C 0.49605 0.42739 0.50465 0.0
O1833 O 0.52061 0.44577 0.48405 0.0
C1834 C 0.58573 0.36227 0.35122 0.0
O1835 O 0.56063 0.36438 0.40652 0.0
O1836 O 0.54066 0.40527 0.13285 0.0
O1837 O 0.49398 0.42885 0.16222 0.0
H1838 H 0.60757 0.47403 0.94552 0.0
H1839 H 0.50025 0.364 0.40725 0.0
O1840 O 0.47707 0.41895 0.43912 0.0
H1841 H 0.443 0.32976 0.11897 0.0
H1842 H 0.36778 0.41094 0.3398 0.0
H1843 H 0.45314 0.47361 0.18513 0.0
H1844 H 0.45105 0.387 0.15278 0.0
H1845 H 0.42453 0.39797 0.36778 0.0
O1846 O 0.58785 0.37954 0.27461 0.0
H1847 H 0.56705 0.45953 0.0626 0.0
H1848 H 0.63631 0.40806 0.22174 0.0
H1849 H 0.39656 0.48758 0.1577 0.0
H1850 H 0.4943 0.30645 0.37344 0.0
H1851 H 0.3536 0.45799 0.24082 0.0
H1852 H 0.46529 0.28897 0.22858 0.0
O1853 O 0.4994 0.47089 0.30649 0.0
H1854 H 0.61394 0.43025 0.56784 0.0
H1855 H 0.61199 0.47626 0.24988 0.0
H1856 H 0.65115 0.49662 0.36356 0.0
H1857 H 0.65194 0.47476 0.52607 0.0
H1858 H 0.57286 0.41483 0.4571 0.0
H1859 H 0.67797 0.42227 0.10332 0.0
H1860 H 0.66369 0.45514 0.96467 0.0
O1861 O 0.54553 0.46743 0.22066 0.0
C1862 C 0.51481 0.4187 0.10461 0.0
C1863 C 0.61413 0.45914 0.00498 0.0
C1864 C 0.65349 0.42983 0.09382 0.0
N1865 N 0.59913 0.4326 0.14909 0.0
C1866 C 0.59118 0.45084 0.07216 0.0
C1867 C 0.6298 0.42169 0.15978 0.0
C1868 C 0.64553 0.44856 0.0159 0.0
C1869 C 0.48791 0.35663 0.34376 0.0
N1870 N 0.47658 0.37893 0.28148 0.0
C1871 C 0.48438 0.32399 0.32524 0.0
C1872 C 0.46819 0.31419 0.24386 0.0
C1873 C 0.45574 0.33705 0.18222 0.0
C1874 C 0.46035 0.36946 0.20195 0.0
C1875 C 0.38634 0.42496 0.30628 0.0
C1876 C 0.43457 0.46006 0.22038 0.0
C1877 C 0.41857 0.41774 0.32166 0.0
N1878 N 0.44222 0.43525 0.27887 0.0
C1879 C 0.4026 0.46826 0.20514 0.0
C1880 C 0.3784 0.45111 0.25015 0.0
C1881 C 0.52176 0.48368 0.25471 0.0
C1882 C 0.61317 0.44167 0.49956 0.0
C1883 C 0.61183 0.46675 0.32003 0.0
C1884 C 0.63427 0.47825 0.38443 0.0
C1885 C 0.63492 0.4656 0.47514 0.0
N1886 N 0.5912 0.44263 0.34316 0.0
C1887 C 0.59054 0.43157 0.43391 0.0
loop_
_geom_bond_atom_site_label_1
_geom_bond_atom_site_label_2
_geom_bond_distance
_geom_bond_site_symmetry_2
_ccdc_geom_bond_type
Co0 O2 2.143 . S
Co0 O8 2.074 1_554 S
Co0 O11 2.093 . S
Co0 O24 2.097 . S
Co0 N41 2.151 . S
Co0 N49 2.214 . S
Co1 O2 2.160 . S
Co1 O7 2.058 1_554 S
Co1 O17 2.057 . S
Co1 O32 2.037 . S
Co1 N36 2.145 1_554 S
Co1 N57 2.257 . S
O2 Co0 2.143 . S
O2 Co1 2.160 . S
C3 O4 1.278 . S
C3 O11 1.224 . S
O4 C3 1.278 . S
C5 O6 1.245 . S
C5 O17 1.232 . S
O6 C5 1.245 . S
O7 Co1 2.058 1_556 S
O7 C33 1.269 . S
O8 Co0 2.074 1_556 S
O8 C33 1.257 . S
H9 C34 0.930 . S
H10 C40 0.930 . S
O11 Co0 2.093 . S
O11 C3 1.224 . S
H12 C44 0.929 . S
H13 C46 0.930 . S
H14 C47 0.925 1_556 S
H15 C45 0.929 1_556 S
H16 C48 0.928 . S
O17 Co1 2.057 . S
O17 C5 1.232 . S
H18 C37 0.929 . S
H19 C38 0.929 . S
H20 C50 0.931 . S
H21 C42 0.929 . S
H22 C51 0.930 . S
H23 C43 0.931 . S
O24 Co0 2.097 . S
O24 C52 1.214 . S
H25 C53 0.929 . S
H26 C54 0.929 . S
H27 C55 0.930 . S
H28 C56 0.929 . S
H29 C58 0.930 . S
H30 C35 0.930 . S
H31 C39 0.930 . S
O32 Co1 2.037 . S
O32 C52 1.234 . S
C33 O7 1.269 . S
C33 O8 1.257 . S
C34 H9 0.930 . S
C34 C37 1.388 . S
C34 C39 1.418 . S
C35 H30 0.930 . S
C35 C38 1.404 . S
C35 C39 1.353 . S
N36 Co1 2.145 1_556 S
N36 C37 1.397 . S
N36 C38 1.334 . S
C37 H18 0.929 . S
C37 C34 1.388 . S
C37 N36 1.397 . S
C38 H19 0.929 . S
C38 C35 1.404 . S
C38 N36 1.334 . S
C39 H31 0.930 . S
C39 C34 1.418 . S
C39 C35 1.353 . S
C40 H10 0.930 . S
C40 N41 1.330 . S
C40 C42 1.446 . S
N41 Co0 2.151 . S
N41 C40 1.330 . S
N41 C45 1.418 . S
C42 H21 0.929 . S
C42 C40 1.446 . S
C42 C43 1.332 . S
C43 H23 0.931 . S
C43 C42 1.332 . S
C43 C44 1.267 . S
C44 H12 0.929 . S
C44 C43 1.267 . S
C44 C45 1.251 . S
C45 H15 0.929 1_554 S
C45 N41 1.418 . S
C45 C44 1.251 . S
C46 H13 0.930 . S
C46 C48 1.406 . S
C46 C51 1.261 . S
C47 H14 0.925 1_554 S
C47 N49 1.332 . S
C47 C50 1.354 1_554 S
C48 H16 0.928 . S
C48 C46 1.406 . S
C48 N49 1.261 . S
N49 Co0 2.214 . S
N49 C47 1.332 . S
N49 C48 1.261 . S
C50 H20 0.931 . S
C50 C47 1.354 1_556 S
C50 C51 1.312 1_556 S
C51 H22 0.930 . S
C51 C46 1.261 . S
C51 C50 1.312 1_554 S
C52 O24 1.214 . S
C52 O32 1.234 . S
C53 H25 0.929 . S
C53 C56 1.391 . S
C53 C58 1.391 . S
C54 H26 0.929 . S
C54 C55 1.390 . S
C54 N57 1.391 . S
C55 H27 0.930 . S
C55 C54 1.390 . S
C55 C56 1.392 . S
C56 H28 0.929 . S
C56 C53 1.391 . S
C56 C55 1.392 . S
N57 Co1 2.257 . S
N57 C54 1.391 . S
N57 C58 1.388 . S
C58 H29 0.930 . S
C58 C53 1.391 . S
C58 N57 1.388 . S
Co59 O61 2.143 1_455 S
Co59 O67 2.074 . S
Co59 O70 2.093 . S
Co59 O83 2.097 1_455 S
Co59 N100 2.151 . S
Co59 N108 2.214 . S
Co60 O61 2.160 . S
Co60 O66 2.058 . S
Co60 O76 2.057 . S
Co60 O91 2.037 . S
Co60 N95 2.145 . S
Co60 N116 2.257 . S
O61 Co59 2.143 1_655 S
O61 Co60 2.160 . S
C62 O63 1.278 1_455 S
C62 O70 1.224 . S
O63 C62 1.278 1_655 S
C64 O65 1.245 . S
C64 O76 1.232 . S
O65 C64 1.245 . S
O66 Co60 2.058 . S
O66 C92 1.269 . S
O67 Co59 2.074 . S
O67 C92 1.257 1_455 S
H68 C93 0.930 . S
H69 C99 0.930 . S
O70 Co59 2.093 . S
O70 C62 1.224 . S
H71 C103 0.929 . S
H72 C105 0.930 . S
H73 C106 0.930 . S
H74 C104 0.929 . S
H75 C107 0.928 . S
O76 Co60 2.057 . S
O76 C64 1.232 . S
H77 C96 0.929 . S
H78 C97 0.929 . S
H79 C109 0.922 1_545 S
H80 C101 0.929 . S
H81 C110 0.930 . S
H82 C102 0.931 . S
O83 Co59 2.097 1_655 S
O83 C111 1.214 . S
H84 C112 0.929 . S
H85 C113 0.929 . S
H86 C114 0.930 1_545 S
H87 C115 0.929 . S
H88 C117 0.930 . S
H89 C94 0.930 . S
H90 C98 0.930 . S
O91 Co60 2.037 . S
O91 C111 1.234 . S
C92 O66 1.269 . S
C92 O67 1.257 1_655 S
C93 H68 0.930 . S
C93 C96 1.388 . S
C93 C98 1.418 . S
C94 H89 0.930 . S
C94 C97 1.404 . S
C94 C98 1.353 . S
N95 Co60 2.145 . S
N95 C96 1.397 . S
N95 C97 1.334 . S
C96 H77 0.929 . S
C96 C93 1.388 . S
C96 N95 1.397 . S
C97 H78 0.929 . S
C97 C94 1.404 . S
C97 N95 1.334 . S
C98 H90 0.930 . S
C98 C93 1.418 . S
C98 C94 1.353 . S
C99 H69 0.930 . S
C99 N100 1.330 . S
C99 C101 1.446 . S
N100 Co59 2.151 . S
N100 C99 1.330 . S
N100 C104 1.418 . S
C101 H80 0.929 . S
C101 C99 1.446 . S
C101 C102 1.332 . S
C102 H82 0.931 . S
C102 C101 1.332 . S
C102 C103 1.267 . S
C103 H71 0.929 . S
C103 C102 1.267 . S
C103 C104 1.251 . S
C104 H74 0.929 . S
C104 N100 1.418 . S
C104 C103 1.251 . S
C105 H72 0.930 . S
C105 C107 1.406 . S
C105 C110 1.261 . S
C106 H73 0.930 . S
C106 N108 1.325 . S
C106 C109 1.357 . S
C107 H75 0.928 . S
C107 C105 1.406 . S
C107 N108 1.261 . S
N108 Co59 2.214 . S
N108 C106 1.325 . S
N108 C107 1.261 . S
C109 H79 0.922 1_565 S
C109 C106 1.357 . S
C109 C110 1.312 . S
C110 H81 0.930 . S
C110 C105 1.261 . S
C110 C109 1.312 . S
C111 O83 1.214 . S
C111 O91 1.234 . S
C112 H84 0.929 . S
C112 C115 1.391 . S
C112 C117 1.391 . S
C113 H85 0.929 . S
C113 C114 1.390 . S
C113 N116 1.391 . S
C114 H86 0.930 1_565 S
C114 C113 1.390 . S
C114 C115 1.392 . S
C115 H87 0.929 . S
C115 C112 1.391 . S
C115 C114 1.392 . S
N116 Co60 2.257 . S
N116 C113 1.391 . S
N116 C117 1.388 . S
C117 H88 0.930 . S
C117 C112 1.391 . S
C117 N116 1.388 . S
Co118 O120 2.143 . S
Co118 O126 2.074 . S
Co118 O129 2.093 . S
Co118 O142 2.097 . S
Co118 N159 2.151 . S
Co118 N167 2.214 . S
Co119 O120 2.160 . S
Co119 O125 2.058 . S
Co119 O135 2.057 . S
Co119 O150 2.037 . S
Co119 N154 2.145 . S
Co119 N175 2.257 . S
O120 Co118 2.143 . S
O120 Co119 2.160 . S
C121 O122 1.278 . S
C121 O129 1.224 . S
O122 C121 1.278 . S
C123 O124 1.245 . S
C123 O135 1.232 . S
O124 C123 1.245 . S
O125 Co119 2.058 . S
O125 C151 1.269 . S
O126 Co118 2.074 . S
O126 C151 1.257 . S
H127 C152 0.930 . S
H128 C158 0.930 . S
O129 Co118 2.093 . S
O129 C121 1.224 . S
H130 C162 0.929 . S
H131 C164 0.930 . S
H132 C165 0.930 . S
H133 C163 0.929 . S
H134 C166 0.928 . S
O135 Co119 2.057 . S
O135 C123 1.232 . S
H136 C155 0.929 . S
H137 C156 0.929 . S
H138 C168 0.931 . S
H139 C160 0.929 . S
H140 C169 0.930 . S
H141 C161 0.931 . S
O142 Co118 2.097 . S
O142 C170 1.214 . S
H143 C171 0.929 . S
H144 C172 0.929 . S
H145 C173 0.930 . S
H146 C174 0.929 . S
H147 C176 0.930 . S
H148 C153 0.930 . S
H149 C157 0.930 . S
O150 Co119 2.037 . S
O150 C170 1.234 . S
C151 O125 1.269 . S
C151 O126 1.257 . S
C152 H127 0.930 . S
C152 C155 1.388 . S
C152 C157 1.418 . S
C153 H148 0.930 . S
C153 C156 1.404 . S
C153 C157 1.353 . S
N154 Co119 2.145 . S
N154 C155 1.397 . S
N154 C156 1.334 . S
C155 H136 0.929 . S
C155 C152 1.388 . S
C155 N154 1.397 . S
C156 H137 0.929 . S
C156 C153 1.404 . S
C156 N154 1.334 . S
C157 H149 0.930 . S
C157 C152 1.418 . S
C157 C153 1.353 . S
C158 H128 0.930 . S
C158 N159 1.330 . S
C158 C160 1.446 . S
N159 Co118 2.151 . S
N159 C158 1.330 . S
N159 C163 1.418 . S
C160 H139 0.929 . S
C160 C158 1.446 . S
C160 C161 1.332 . S
C161 H141 0.931 . S
C161 C160 1.332 . S
C161 C162 1.267 . S
C162 H130 0.929 . S
C162 C161 1.267 . S
C162 C163 1.251 . S
C163 H133 0.929 . S
C163 N159 1.418 . S
C163 C162 1.251 . S
C164 H131 0.930 . S
C164 C166 1.406 . S
C164 C169 1.261 . S
C165 H132 0.930 . S
C165 N167 1.325 . S
C165 C168 1.357 . S
C166 H134 0.928 . S
C166 C164 1.406 . S
C166 N167 1.261 . S
N167 Co118 2.214 . S
N167 C165 1.325 . S
N167 C166 1.261 . S
C168 H138 0.931 . S
C168 C165 1.357 . S
C168 C169 1.312 . S
C169 H140 0.930 . S
C169 C164 1.261 . S
C169 C168 1.312 . S
C170 O142 1.214 . S
C170 O150 1.234 . S
C171 H143 0.929 . S
C171 C174 1.391 . S
C171 C176 1.391 . S
C172 H144 0.929 . S
C172 C173 1.390 . S
C172 N175 1.391 . S
C173 H145 0.930 . S
C173 C172 1.390 . S
C173 C174 1.392 . S
C174 H146 0.929 . S
C174 C171 1.391 . S
C174 C173 1.392 . S
N175 Co119 2.257 . S
N175 C172 1.391 . S
N175 C176 1.388 . S
C176 H147 0.930 . S
C176 C171 1.391 . S
C176 N175 1.388 . S
Co177 O179 2.143 . S
Co177 O185 2.074 . S
Co177 O188 2.097 . S
Co177 O201 2.097 . S
Co177 N218 2.151 . S
Co177 N226 2.214 . S
Co178 O179 2.160 . S
Co178 O184 2.058 . S
Co178 O194 2.057 . S
Co178 O209 2.037 . S
Co178 N213 2.145 . S
Co178 N234 2.257 . S
O179 Co177 2.143 . S
O179 Co178 2.160 . S
C180 O181 1.278 . S
C180 O188 1.221 1_554 S
O181 C180 1.278 . S
C182 O183 1.245 . S
C182 O194 1.232 . S
O183 C182 1.245 . S
O184 Co178 2.058 . S
O184 C210 1.269 . S
O185 Co177 2.074 . S
O185 C210 1.257 . S
H186 C211 0.930 . S
H187 C217 0.930 . S
O188 Co177 2.097 . S
O188 C180 1.221 1_556 S
H189 C221 0.929 . S
H190 C223 0.930 . S
H191 C224 0.930 . S
H192 C222 0.929 . S
H193 C225 0.928 . S
O194 Co178 2.057 . S
O194 C182 1.232 . S
H195 C214 0.929 . S
H196 C215 0.929 . S
H197 C227 0.922 1_565 S
H198 C219 0.929 . S
H199 C228 0.930 . S
H200 C220 0.931 . S
O201 Co177 2.097 . S
O201 C229 1.214 . S
H202 C230 0.929 . S
H203 C231 0.929 . S
H204 C232 0.930 1_565 S
H205 C233 0.929 . S
H206 C235 0.930 . S
H207 C212 0.930 . S
H208 C216 0.930 . S
O209 Co178 2.037 . S
O209 C229 1.234 . S
C210 O184 1.269 . S
C210 O185 1.257 . S
C211 H186 0.930 . S
C211 C214 1.388 . S
C211 C216 1.418 . S
C212 H207 0.930 . S
C212 C215 1.404 . S
C212 C216 1.353 . S
N213 Co178 2.145 . S
N213 C214 1.397 . S
N213 C215 1.334 . S
C214 H195 0.929 . S
C214 C211 1.388 . S
C214 N213 1.397 . S
C215 H196 0.929 . S
C215 C212 1.404 . S
C215 N213 1.334 . S
C216 H208 0.930 . S
C216 C211 1.418 . S
C216 C212 1.353 . S
C217 H187 0.930 . S
C217 N218 1.330 . S
C217 C219 1.446 . S
N218 Co177 2.151 . S
N218 C217 1.330 . S
N218 C222 1.418 . S
C219 H198 0.929 . S
C219 C217 1.446 . S
C219 C220 1.332 . S
C220 H200 0.931 . S
C220 C219 1.332 . S
C220 C221 1.267 . S
C221 H189 0.929 . S
C221 C220 1.267 . S
C221 C222 1.251 . S
C222 H192 0.929 . S
C222 N218 1.418 . S
C222 C221 1.251 . S
C223 H190 0.930 . S
C223 C225 1.406 . S
C223 C228 1.261 . S
C224 H191 0.930 . S
C224 N226 1.325 . S
C224 C227 1.357 . S
C225 H193 0.928 . S
C225 C223 1.406 . S
C225 N226 1.261 . S
N226 Co177 2.214 . S
N226 C224 1.325 . S
N226 C225 1.261 . S
C227 H197 0.922 1_545 S
C227 C224 1.357 . S
C227 C228 1.312 . S
C228 H199 0.930 . S
C228 C223 1.261 . S
C228 C227 1.312 . S
C229 O201 1.214 . S
C229 O209 1.234 . S
C230 H202 0.929 . S
C230 C233 1.391 . S
C230 C235 1.391 1_554 S
C231 H203 0.929 . S
C231 C232 1.390 . S
C231 N234 1.391 . S
C232 H204 0.930 1_545 S
C232 C231 1.390 . S
C232 C233 1.392 1_556 S
C233 H205 0.929 . S
C233 C230 1.391 . S
C233 C232 1.392 1_554 S
N234 Co178 2.257 . S
N234 C231 1.391 . S
N234 C235 1.388 . S
C235 H206 0.930 . S
C235 C230 1.391 1_556 S
C235 N234 1.388 . S
Co236 O238 2.143 . S
Co236 O244 2.074 . S
Co236 O247 2.093 . S
Co236 O260 2.097 . S
Co236 N277 2.151 . S
Co236 N285 2.214 . S
Co237 O238 2.160 . S
Co237 O243 2.058 . S
Co237 O253 2.057 . S
Co237 O268 2.037 . S
Co237 N272 2.145 . S
Co237 N293 2.257 . S
O238 Co236 2.143 . S
O238 Co237 2.160 . S
C239 O240 1.278 . S
C239 O247 1.224 . S
O240 C239 1.278 . S
C241 O242 1.245 . S
C241 O253 1.232 . S
O242 C241 1.245 . S
O243 Co237 2.058 . S
O243 C269 1.269 . S
O244 Co236 2.074 . S
O244 C269 1.257 . S
H245 C270 0.930 . S
H246 C276 0.930 . S
O247 Co236 2.093 . S
O247 C239 1.224 . S
H248 C280 0.929 . S
H249 C282 0.930 . S
H250 C283 0.930 . S
H251 C281 0.929 . S
H252 C284 0.928 . S
O253 Co237 2.057 . S
O253 C241 1.232 . S
H254 C273 0.929 . S
H255 C274 0.929 . S
H256 C286 0.931 . S
H257 C278 0.929 . S
H258 C287 0.930 . S
H259 C279 0.931 . S
O260 Co236 2.097 . S
O260 C288 1.214 . S
H261 C289 0.929 . S
H262 C290 0.929 . S
H263 C291 0.930 . S
H264 C292 0.929 . S
H265 C294 0.930 . S
H266 C271 0.930 . S
H267 C275 0.930 . S
O268 Co237 2.037 . S
O268 C288 1.234 . S
C269 O243 1.269 . S
C269 O244 1.257 . S
C270 H245 0.930 . S
C270 C273 1.388 . S
C270 C275 1.418 . S
C271 H266 0.930 . S
C271 C274 1.404 . S
C271 C275 1.353 . S
N272 Co237 2.145 . S
N272 C273 1.397 . S
N272 C274 1.334 . S
C273 H254 0.929 . S
C273 C270 1.388 . S
C273 N272 1.397 . S
C274 H255 0.929 . S
C274 C271 1.404 . S
C274 N272 1.334 . S
C275 H267 0.930 . S
C275 C270 1.418 . S
C275 C271 1.353 . S
C276 H246 0.930 . S
C276 N277 1.330 . S
C276 C278 1.446 . S
N277 Co236 2.151 . S
N277 C276 1.330 . S
N277 C281 1.418 . S
C278 H257 0.929 . S
C278 C276 1.446 . S
C278 C279 1.332 . S
C279 H259 0.931 . S
C279 C278 1.332 . S
C279 C280 1.267 . S
C280 H248 0.929 . S
C280 C279 1.267 . S
C280 C281 1.251 . S
C281 H251 0.929 . S
C281 N277 1.418 . S
C281 C280 1.251 . S
C282 H249 0.930 . S
C282 C284 1.406 . S
C282 C287 1.261 . S
C283 H250 0.930 . S
C283 N285 1.325 . S
C283 C286 1.357 . S
C284 H252 0.928 . S
C284 C282 1.406 . S
C284 N285 1.261 . S
N285 Co236 2.214 . S
N285 C283 1.325 . S
N285 C284 1.261 . S
C286 H256 0.931 . S
C286 C283 1.357 . S
C286 C287 1.312 . S
C287 H258 0.930 . S
C287 C282 1.261 . S
C287 C286 1.312 . S
C288 O260 1.214 . S
C288 O268 1.234 . S
C289 H261 0.929 . S
C289 C292 1.391 . S
C289 C294 1.391 . S
C290 H262 0.929 . S
C290 C291 1.390 . S
C290 N293 1.391 . S
C291 H263 0.930 . S
C291 C290 1.390 . S
C291 C292 1.392 . S
C292 H264 0.929 . S
C292 C289 1.391 . S
C292 C291 1.392 . S
N293 Co237 2.257 . S
N293 C290 1.391 . S
N293 C294 1.388 . S
C294 H265 0.930 . S
C294 C289 1.391 . S
C294 N293 1.388 . S
Co295 O297 2.143 . S
Co295 O303 2.074 . S
Co295 O306 2.093 . S
Co295 O319 2.097 . S
Co295 N336 2.151 . S
Co295 N344 2.214 . S
Co296 O297 2.160 . S
Co296 O302 2.058 . S
Co296 O312 2.057 . S
Co296 O327 2.037 . S
Co296 N331 2.145 . S
Co296 N352 2.257 . S
O297 Co295 2.143 . S
O297 Co296 2.160 . S
C298 O299 1.278 . S
C298 O306 1.224 . S
O299 C298 1.278 . S
C300 O301 1.245 . S
C300 O312 1.232 . S
O301 C300 1.245 . S
O302 Co296 2.058 . S
O302 C328 1.269 . S
O303 Co295 2.074 . S
O303 C328 1.257 . S
H304 C329 0.930 . S
H305 C335 0.930 . S
O306 Co295 2.093 . S
O306 C298 1.224 . S
H307 C339 0.929 . S
H308 C341 0.930 . S
H309 C342 0.930 . S
H310 C340 0.929 . S
H311 C343 0.928 . S
O312 Co296 2.057 . S
O312 C300 1.232 . S
H313 C332 0.929 . S
H314 C333 0.929 . S
H315 C345 0.922 1_545 S
H316 C337 0.929 . S
H317 C346 0.930 . S
H318 C338 0.931 . S
O319 Co295 2.097 . S
O319 C347 1.214 . S
H320 C348 0.929 . S
H321 C349 0.929 . S
H322 C350 0.930 1_545 S
H323 C351 0.929 . S
H324 C353 0.930 . S
H325 C330 0.930 . S
H326 C334 0.930 . S
O327 Co296 2.037 . S
O327 C347 1.234 . S
C328 O302 1.269 . S
C328 O303 1.257 . S
C329 H304 0.930 . S
C329 C332 1.388 . S
C329 C334 1.418 . S
C330 H325 0.930 . S
C330 C333 1.404 . S
C330 C334 1.353 . S
N331 Co296 2.145 . S
N331 C332 1.397 . S
N331 C333 1.334 . S
C332 H313 0.929 . S
C332 C329 1.388 . S
C332 N331 1.397 . S
C333 H314 0.929 . S
C333 C330 1.404 . S
C333 N331 1.334 . S
C334 H326 0.930 . S
C334 C329 1.418 . S
C334 C330 1.353 . S
C335 H305 0.930 . S
C335 N336 1.330 . S
C335 C337 1.446 . S
N336 Co295 2.151 . S
N336 C335 1.330 . S
N336 C340 1.418 . S
C337 H316 0.929 . S
C337 C335 1.446 . S
C337 C338 1.332 . S
C338 H318 0.931 . S
C338 C337 1.332 . S
C338 C339 1.267 . S
C339 H307 0.929 . S
C339 C338 1.267 . S
C339 C340 1.251 . S
C340 H310 0.929 . S
C340 N336 1.418 . S
C340 C339 1.251 . S
C341 H308 0.930 . S
C341 C343 1.406 . S
C341 C346 1.261 . S
C342 H309 0.930 . S
C342 N344 1.325 . S
C342 C345 1.357 . S
C343 H311 0.928 . S
C343 C341 1.406 . S
C343 N344 1.261 . S
N344 Co295 2.214 . S
N344 C342 1.325 . S
N344 C343 1.261 . S
C345 H315 0.922 1_565 S
C345 C342 1.357 . S
C345 C346 1.312 . S
C346 H317 0.930 . S
C346 C341 1.261 . S
C346 C345 1.312 . S
C347 O319 1.214 . S
C347 O327 1.234 . S
C348 H320 0.929 . S
C348 C351 1.391 . S
C348 C353 1.391 . S
C349 H321 0.929 . S
C349 C350 1.390 . S
C349 N352 1.391 . S
C350 H322 0.930 1_565 S
C350 C349 1.390 . S
C350 C351 1.392 . S
C351 H323 0.929 . S
C351 C348 1.391 . S
C351 C350 1.392 . S
N352 Co296 2.257 . S
N352 C349 1.391 . S
N352 C353 1.388 . S
C353 H324 0.930 . S
C353 C348 1.391 . S
C353 N352 1.388 . S
Co354 O356 2.143 . S
Co354 O362 2.074 1_556 S
Co354 O365 2.093 . S
Co354 O378 2.097 . S
Co354 N395 2.151 . S
Co354 N403 2.214 . S
Co355 O356 2.160 . S
Co355 O361 2.058 1_556 S
Co355 O371 2.057 . S
Co355 O386 2.037 . S
Co355 N390 2.145 1_556 S
Co355 N411 2.257 . S
O356 Co354 2.143 . S
O356 Co355 2.160 . S
C357 O358 1.278 . S
C357 O365 1.224 . S
O358 C357 1.278 . S
C359 O360 1.245 . S
C359 O371 1.232 . S
O360 C359 1.245 . S
O361 Co355 2.058 1_554 S
O361 C387 1.269 . S
O362 Co354 2.074 1_554 S
O362 C387 1.257 . S
H363 C388 0.930 . S
H364 C394 0.930 . S
O365 Co354 2.093 . S
O365 C357 1.224 . S
H366 C398 0.929 . S
H367 C400 0.930 . S
H368 C401 0.925 1_554 S
H369 C399 0.929 1_554 S
H370 C402 0.928 . S
O371 Co355 2.057 . S
O371 C359 1.232 . S
H372 C391 0.929 . S
H373 C392 0.929 . S
H374 C404 0.931 . S
H375 C396 0.929 . S
H376 C405 0.930 . S
H377 C397 0.931 . S
O378 Co354 2.097 . S
O378 C406 1.214 . S
H379 C407 0.929 . S
H380 C408 0.929 . S
H381 C409 0.930 . S
H382 C410 0.929 . S
H383 C412 0.930 . S
H384 C389 0.930 . S
H385 C393 0.930 . S
O386 Co355 2.037 . S
O386 C406 1.234 . S
C387 O361 1.269 . S
C387 O362 1.257 . S
C388 H363 0.930 . S
C388 C391 1.388 . S
C388 C393 1.418 . S
C389 H384 0.930 . S
C389 C392 1.404 . S
C389 C393 1.353 . S
N390 Co355 2.145 1_554 S
N390 C391 1.397 . S
N390 C392 1.334 . S
C391 H372 0.929 . S
C391 C388 1.388 . S
C391 N390 1.397 . S
C392 H373 0.929 . S
C392 C389 1.404 . S
C392 N390 1.334 . S
C393 H385 0.930 . S
C393 C388 1.418 . S
C393 C389 1.353 . S
C394 H364 0.930 . S
C394 N395 1.330 . S
C394 C396 1.446 . S
N395 Co354 2.151 . S
N395 C394 1.330 . S
N395 C399 1.418 . S
C396 H375 0.929 . S
C396 C394 1.446 . S
C396 C397 1.332 . S
C397 H377 0.931 . S
C397 C396 1.332 . S
C397 C398 1.267 . S
C398 H366 0.929 . S
C398 C397 1.267 . S
C398 C399 1.251 . S
C399 H369 0.929 1_556 S
C399 N395 1.418 . S
C399 C398 1.251 . S
C400 H367 0.930 . S
C400 C402 1.406 . S
C400 C405 1.261 . S
C401 H368 0.925 1_556 S
C401 N403 1.334 . S
C401 C404 1.354 1_556 S
C402 H370 0.928 . S
C402 C400 1.406 . S
C402 N403 1.261 . S
N403 Co354 2.214 . S
N403 C401 1.334 . S
N403 C402 1.261 . S
C404 H374 0.931 . S
C404 C401 1.354 1_554 S
C404 C405 1.312 1_554 S
C405 H376 0.930 . S
C405 C400 1.261 . S
C405 C404 1.312 1_556 S
C406 O378 1.214 . S
C406 O386 1.234 . S
C407 H379 0.929 . S
C407 C410 1.391 . S
C407 C412 1.391 . S
C408 H380 0.929 . S
C408 C409 1.390 . S
C408 N411 1.391 . S
C409 H381 0.930 . S
C409 C408 1.390 . S
C409 C410 1.392 . S
C410 H382 0.929 . S
C410 C407 1.391 . S
C410 C409 1.392 . S
N411 Co355 2.257 . S
N411 C408 1.391 . S
N411 C412 1.388 . S
C412 H383 0.930 . S
C412 C407 1.391 . S
C412 N411 1.388 . S
Co413 O415 2.143 1_455 S
Co413 O421 2.074 . S
Co413 O424 2.097 . S
Co413 O437 2.097 1_455 S
Co413 N454 2.151 . S
Co413 N462 2.214 . S
Co414 O415 2.160 . S
Co414 O420 2.058 . S
Co414 O430 2.057 . S
Co414 O445 2.037 . S
Co414 N449 2.145 . S
Co414 N470 2.257 . S
O415 Co413 2.143 1_655 S
O415 Co414 2.160 . S
C416 O417 1.278 1_455 S
C416 O424 1.221 1_556 S
O417 C416 1.278 1_655 S
C418 O419 1.245 . S
C418 O430 1.232 . S
O419 C418 1.245 . S
O420 Co414 2.058 . S
O420 C446 1.269 . S
O421 Co413 2.074 . S
O421 C446 1.257 1_455 S
H422 C447 0.930 . S
H423 C453 0.930 . S
O424 Co413 2.097 . S
O424 C416 1.221 1_554 S
H425 C457 0.929 . S
H426 C459 0.930 . S
H427 C460 0.930 . S
H428 C458 0.929 . S
H429 C461 0.928 . S
O430 Co414 2.057 . S
O430 C418 1.232 . S
H431 C450 0.929 . S
H432 C451 0.929 . S
H433 C463 0.922 1_565 S
H434 C455 0.929 . S
H435 C464 0.930 . S
H436 C456 0.931 . S
O437 Co413 2.097 1_655 S
O437 C465 1.214 . S
H438 C466 0.929 . S
H439 C467 0.929 . S
H440 C468 0.930 1_565 S
H441 C469 0.929 . S
H442 C471 0.930 . S
H443 C448 0.930 . S
H444 C452 0.930 . S
O445 Co414 2.037 . S
O445 C465 1.234 . S
C446 O420 1.269 . S
C446 O421 1.257 1_655 S
C447 H422 0.930 . S
C447 C450 1.388 . S
C447 C452 1.418 . S
C448 H443 0.930 . S
C448 C451 1.404 . S
C448 C452 1.353 . S
N449 Co414 2.145 . S
N449 C450 1.397 . S
N449 C451 1.334 . S
C450 H431 0.929 . S
C450 C447 1.388 . S
C450 N449 1.397 . S
C451 H432 0.929 . S
C451 C448 1.404 . S
C451 N449 1.334 . S
C452 H444 0.930 . S
C452 C447 1.418 . S
C452 C448 1.353 . S
C453 H423 0.930 . S
C453 N454 1.330 . S
C453 C455 1.446 . S
N454 Co413 2.151 . S
N454 C453 1.330 . S
N454 C458 1.418 . S
C455 H434 0.929 . S
C455 C453 1.446 . S
C455 C456 1.332 . S
C456 H436 0.931 . S
C456 C455 1.332 . S
C456 C457 1.267 . S
C457 H425 0.929 . S
C457 C456 1.267 . S
C457 C458 1.251 . S
C458 H428 0.929 . S
C458 N454 1.418 . S
C458 C457 1.251 . S
C459 H426 0.930 . S
C459 C461 1.406 . S
C459 C464 1.261 . S
C460 H427 0.930 . S
C460 N462 1.325 . S
C460 C463 1.357 . S
C461 H429 0.928 . S
C461 C459 1.406 . S
C461 N462 1.261 . S
N462 Co413 2.214 . S
N462 C460 1.325 . S
N462 C461 1.261 . S
C463 H433 0.922 1_545 S
C463 C460 1.357 . S
C463 C464 1.312 . S
C464 H435 0.930 . S
C464 C459 1.261 . S
C464 C463 1.312 . S
C465 O437 1.214 . S
C465 O445 1.234 . S
C466 H438 0.929 . S
C466 C469 1.391 . S
C466 C471 1.391 1_556 S
C467 H439 0.929 . S
C467 C468 1.390 . S
C467 N470 1.391 . S
C468 H440 0.930 1_545 S
C468 C467 1.390 . S
C468 C469 1.392 1_554 S
C469 H441 0.929 . S
C469 C466 1.391 . S
C469 C468 1.392 1_556 S
N470 Co414 2.257 . S
N470 C467 1.391 . S
N470 C471 1.388 . S
C471 H442 0.930 . S
C471 C466 1.391 1_554 S
C471 N470 1.388 . S
Co472 O474 2.143 . S
Co472 O480 2.074 1_556 S
Co472 O483 2.093 . S
Co472 O496 2.097 . S
Co472 N513 2.151 . S
Co472 N521 2.214 . S
Co473 O474 2.160 . S
Co473 O479 2.058 1_556 S
Co473 O489 2.057 . S
Co473 O504 2.037 . S
Co473 N508 2.145 1_556 S
Co473 N529 2.257 . S
O474 Co472 2.143 . S
O474 Co473 2.160 . S
C475 O476 1.278 . S
C475 O483 1.224 . S
O476 C475 1.278 . S
C477 O478 1.245 . S
C477 O489 1.232 . S
O478 C477 1.245 . S
O479 Co473 2.058 1_554 S
O479 C505 1.269 . S
O480 Co472 2.074 1_554 S
O480 C505 1.257 . S
H481 C506 0.930 . S
H482 C512 0.930 . S
O483 Co472 2.093 . S
O483 C475 1.224 . S
H484 C516 0.929 . S
H485 C518 0.930 . S
H486 C519 0.925 1_554 S
H487 C517 0.929 1_554 S
H488 C520 0.928 . S
O489 Co473 2.057 . S
O489 C477 1.232 . S
H490 C509 0.929 . S
H491 C510 0.929 . S
H492 C522 0.931 . S
H493 C514 0.929 . S
H494 C523 0.930 . S
H495 C515 0.931 . S
O496 Co472 2.097 . S
O496 C524 1.214 . S
H497 C525 0.929 . S
H498 C526 0.929 . S
H499 C527 0.930 . S
H500 C528 0.929 . S
H501 C530 0.930 . S
H502 C507 0.930 . S
H503 C511 0.930 . S
O504 Co473 2.037 . S
O504 C524 1.234 . S
C505 O479 1.269 . S
C505 O480 1.257 . S
C506 H481 0.930 . S
C506 C509 1.388 . S
C506 C511 1.418 . S
C507 H502 0.930 . S
C507 C510 1.404 . S
C507 C511 1.353 . S
N508 Co473 2.145 1_554 S
N508 C509 1.397 . S
N508 C510 1.334 . S
C509 H490 0.929 . S
C509 C506 1.388 . S
C509 N508 1.397 . S
C510 H491 0.929 . S
C510 C507 1.404 . S
C510 N508 1.334 . S
C511 H503 0.930 . S
C511 C506 1.418 . S
C511 C507 1.353 . S
C512 H482 0.930 . S
C512 N513 1.330 . S
C512 C514 1.446 . S
N513 Co472 2.151 . S
N513 C512 1.330 . S
N513 C517 1.418 . S
C514 H493 0.929 . S
C514 C512 1.446 . S
C514 C515 1.332 . S
C515 H495 0.931 . S
C515 C514 1.332 . S
C515 C516 1.267 . S
C516 H484 0.929 . S
C516 C515 1.267 . S
C516 C517 1.251 . S
C517 H487 0.929 1_556 S
C517 N513 1.418 . S
C517 C516 1.251 . S
C518 H485 0.930 . S
C518 C520 1.406 . S
C518 C523 1.261 . S
C519 H486 0.925 1_556 S
C519 N521 1.332 . S
C519 C522 1.354 1_556 S
C520 H488 0.928 . S
C520 C518 1.406 . S
C520 N521 1.261 . S
N521 Co472 2.214 . S
N521 C519 1.332 . S
N521 C520 1.261 . S
C522 H492 0.931 . S
C522 C519 1.354 1_554 S
C522 C523 1.312 1_554 S
C523 H494 0.930 . S
C523 C518 1.261 . S
C523 C522 1.312 1_556 S
C524 O496 1.214 . S
C524 O504 1.234 . S
C525 H497 0.929 . S
C525 C528 1.391 . S
C525 C530 1.391 . S
C526 H498 0.929 . S
C526 C527 1.390 . S
C526 N529 1.391 . S
C527 H499 0.930 . S
C527 C526 1.390 . S
C527 C528 1.392 . S
C528 H500 0.929 . S
C528 C525 1.391 . S
C528 C527 1.392 . S
N529 Co473 2.257 . S
N529 C526 1.391 . S
N529 C530 1.388 . S
C530 H501 0.930 . S
C530 C525 1.391 . S
C530 N529 1.388 . S
Co531 O533 2.143 1_655 S
Co531 O539 2.074 . S
Co531 O542 2.093 . S
Co531 O555 2.097 1_655 S
Co531 N572 2.151 . S
Co531 N580 2.214 . S
Co532 O533 2.160 . S
Co532 O538 2.058 . S
Co532 O548 2.057 . S
Co532 O563 2.037 . S
Co532 N567 2.145 . S
Co532 N588 2.257 . S
O533 Co531 2.143 1_455 S
O533 Co532 2.160 . S
C534 O535 1.278 1_655 S
C534 O542 1.224 . S
O535 C534 1.278 1_455 S
C536 O537 1.245 . S
C536 O548 1.232 . S
O537 C536 1.245 . S
O538 Co532 2.058 . S
O538 C564 1.269 . S
O539 Co531 2.074 . S
O539 C564 1.257 1_655 S
H540 C565 0.930 . S
H541 C571 0.930 . S
O542 Co531 2.093 . S
O542 C534 1.224 . S
H543 C575 0.929 . S
H544 C577 0.930 . S
H545 C578 0.930 . S
H546 C576 0.929 . S
H547 C579 0.928 . S
O548 Co532 2.057 . S
O548 C536 1.232 . S
H549 C568 0.929 . S
H550 C569 0.929 . S
H551 C581 0.922 1_565 S
H552 C573 0.929 . S
H553 C582 0.930 . S
H554 C574 0.931 . S
O555 Co531 2.097 1_455 S
O555 C583 1.214 . S
H556 C584 0.929 . S
H557 C585 0.929 . S
H558 C586 0.930 1_565 S
H559 C587 0.929 . S
H560 C589 0.930 . S
H561 C566 0.930 . S
H562 C570 0.930 . S
O563 Co532 2.037 . S
O563 C583 1.234 . S
C564 O538 1.269 . S
C564 O539 1.257 1_455 S
C565 H540 0.930 . S
C565 C568 1.388 . S
C565 C570 1.418 . S
C566 H561 0.930 . S
C566 C569 1.404 . S
C566 C570 1.353 . S
N567 Co532 2.145 . S
N567 C568 1.397 . S
N567 C569 1.334 . S
C568 H549 0.929 . S
C568 C565 1.388 . S
C568 N567 1.397 . S
C569 H550 0.929 . S
C569 C566 1.404 . S
C569 N567 1.334 . S
C570 H562 0.930 . S
C570 C565 1.418 . S
C570 C566 1.353 . S
C571 H541 0.930 . S
C571 N572 1.330 . S
C571 C573 1.446 . S
N572 Co531 2.151 . S
N572 C571 1.330 . S
N572 C576 1.418 . S
C573 H552 0.929 . S
C573 C571 1.446 . S
C573 C574 1.332 . S
C574 H554 0.931 . S
C574 C573 1.332 . S
C574 C575 1.267 . S
C575 H543 0.929 . S
C575 C574 1.267 . S
C575 C576 1.251 . S
C576 H546 0.929 . S
C576 N572 1.418 . S
C576 C575 1.251 . S
C577 H544 0.930 . S
C577 C579 1.406 . S
C577 C582 1.261 . S
C578 H545 0.930 . S
C578 N580 1.325 . S
C578 C581 1.357 . S
C579 H547 0.928 . S
C579 C577 1.406 . S
C579 N580 1.261 . S
N580 Co531 2.214 . S
N580 C578 1.325 . S
N580 C579 1.261 . S
C581 H551 0.922 1_545 S
C581 C578 1.357 . S
C581 C582 1.312 . S
C582 H553 0.930 . S
C582 C577 1.261 . S
C582 C581 1.312 . S
C583 O555 1.214 . S
C583 O563 1.234 . S
C584 H556 0.929 . S
C584 C587 1.391 . S
C584 C589 1.391 . S
C585 H557 0.929 . S
C585 C586 1.390 . S
C585 N588 1.391 . S
C586 H558 0.930 1_545 S
C586 C585 1.390 . S
C586 C587 1.392 . S
C587 H559 0.929 . S
C587 C584 1.391 . S
C587 C586 1.392 . S
N588 Co532 2.257 . S
N588 C585 1.391 . S
N588 C589 1.388 . S
C589 H560 0.930 . S
C589 C584 1.391 . S
C589 N588 1.388 . S
Co590 O592 2.143 . S
Co590 O598 2.074 . S
Co590 O601 2.093 . S
Co590 O614 2.097 . S
Co590 N631 2.151 . S
Co590 N639 2.214 . S
Co591 O592 2.160 . S
Co591 O597 2.058 . S
Co591 O607 2.057 . S
Co591 O622 2.037 . S
Co591 N626 2.145 . S
Co591 N647 2.257 . S
O592 Co590 2.143 . S
O592 Co591 2.160 . S
C593 O594 1.278 . S
C593 O601 1.224 . S
O594 C593 1.278 . S
C595 O596 1.245 . S
C595 O607 1.232 . S
O596 C595 1.245 . S
O597 Co591 2.058 . S
O597 C623 1.269 . S
O598 Co590 2.074 . S
O598 C623 1.257 . S
H599 C624 0.930 . S
H600 C630 0.930 . S
O601 Co590 2.093 . S
O601 C593 1.224 . S
H602 C634 0.929 . S
H603 C636 0.930 . S
H604 C637 0.930 . S
H605 C635 0.929 . S
H606 C638 0.928 . S
O607 Co591 2.057 . S
O607 C595 1.232 . S
H608 C627 0.929 . S
H609 C628 0.929 . S
H610 C640 0.931 . S
H611 C632 0.929 . S
H612 C641 0.930 . S
H613 C633 0.931 . S
O614 Co590 2.097 . S
O614 C642 1.214 . S
H615 C643 0.929 . S
H616 C644 0.929 . S
H617 C645 0.930 . S
H618 C646 0.929 . S
H619 C648 0.930 . S
H620 C625 0.930 . S
H621 C629 0.930 . S
O622 Co591 2.037 . S
O622 C642 1.234 . S
C623 O597 1.269 . S
C623 O598 1.257 . S
C624 H599 0.930 . S
C624 C627 1.388 . S
C624 C629 1.418 . S
C625 H620 0.930 . S
C625 C628 1.404 . S
C625 C629 1.353 . S
N626 Co591 2.145 . S
N626 C627 1.397 . S
N626 C628 1.334 . S
C627 H608 0.929 . S
C627 C624 1.388 . S
C627 N626 1.397 . S
C628 H609 0.929 . S
C628 C625 1.404 . S
C628 N626 1.334 . S
C629 H621 0.930 . S
C629 C624 1.418 . S
C629 C625 1.353 . S
C630 H600 0.930 . S
C630 N631 1.330 . S
C630 C632 1.446 . S
N631 Co590 2.151 . S
N631 C630 1.330 . S
N631 C635 1.418 . S
C632 H611 0.929 . S
C632 C630 1.446 . S
C632 C633 1.332 . S
C633 H613 0.931 . S
C633 C632 1.332 . S
C633 C634 1.267 . S
C634 H602 0.929 . S
C634 C633 1.267 . S
C634 C635 1.251 . S
C635 H605 0.929 . S
C635 N631 1.418 . S
C635 C634 1.251 . S
C636 H603 0.930 . S
C636 C638 1.406 . S
C636 C641 1.261 . S
C637 H604 0.930 . S
C637 N639 1.325 . S
C637 C640 1.357 . S
C638 H606 0.928 . S
C638 C636 1.406 . S
C638 N639 1.261 . S
N639 Co590 2.214 . S
N639 C637 1.325 . S
N639 C638 1.261 . S
C640 H610 0.931 . S
C640 C637 1.357 . S
C640 C641 1.312 . S
C641 H612 0.930 . S
C641 C636 1.261 . S
C641 C640 1.312 . S
C642 O614 1.214 . S
C642 O622 1.234 . S
C643 H615 0.929 . S
C643 C646 1.391 . S
C643 C648 1.391 . S
C644 H616 0.929 . S
C644 C645 1.390 . S
C644 N647 1.391 . S
C645 H617 0.930 . S
C645 C644 1.390 . S
C645 C646 1.392 . S
C646 H618 0.929 . S
C646 C643 1.391 . S
C646 C645 1.392 . S
N647 Co591 2.257 . S
N647 C644 1.391 . S
N647 C648 1.388 . S
C648 H619 0.930 . S
C648 C643 1.391 . S
C648 N647 1.388 . S
Co649 O651 2.143 . S
Co649 O657 2.074 . S
Co649 O660 2.097 . S
Co649 O673 2.097 . S
Co649 N690 2.151 . S
Co649 N698 2.214 . S
Co650 O651 2.160 . S
Co650 O656 2.058 . S
Co650 O666 2.057 . S
Co650 O681 2.037 . S
Co650 N685 2.145 . S
Co650 N706 2.257 . S
O651 Co649 2.143 . S
O651 Co650 2.160 . S
C652 O653 1.278 . S
C652 O660 1.221 1_556 S
O653 C652 1.278 . S
C654 O655 1.245 . S
C654 O666 1.232 . S
O655 C654 1.245 . S
O656 Co650 2.058 . S
O656 C682 1.269 . S
O657 Co649 2.074 . S
O657 C682 1.257 . S
H658 C683 0.930 . S
H659 C689 0.930 . S
O660 Co649 2.097 . S
O660 C652 1.221 1_554 S
H661 C693 0.929 . S
H662 C695 0.930 . S
H663 C696 0.930 . S
H664 C694 0.929 . S
H665 C697 0.928 . S
O666 Co650 2.057 . S
O666 C654 1.232 . S
H667 C686 0.929 . S
H668 C687 0.929 . S
H669 C699 0.922 1_545 S
H670 C691 0.929 . S
H671 C700 0.930 . S
H672 C692 0.931 . S
O673 Co649 2.097 . S
O673 C701 1.214 . S
H674 C702 0.929 . S
H675 C703 0.929 . S
H676 C704 0.930 1_545 S
H677 C705 0.929 . S
H678 C707 0.930 . S
H679 C684 0.930 . S
H680 C688 0.930 . S
O681 Co650 2.037 . S
O681 C701 1.234 . S
C682 O656 1.269 . S
C682 O657 1.257 . S
C683 H658 0.930 . S
C683 C686 1.388 . S
C683 C688 1.418 . S
C684 H679 0.930 . S
C684 C687 1.404 . S
C684 C688 1.353 . S
N685 Co650 2.145 . S
N685 C686 1.397 . S
N685 C687 1.334 . S
C686 H667 0.929 . S
C686 C683 1.388 . S
C686 N685 1.397 . S
C687 H668 0.929 . S
C687 C684 1.404 . S
C687 N685 1.334 . S
C688 H680 0.930 . S
C688 C683 1.418 . S
C688 C684 1.353 . S
C689 H659 0.930 . S
C689 N690 1.330 . S
C689 C691 1.446 . S
N690 Co649 2.151 . S
N690 C689 1.330 . S
N690 C694 1.418 . S
C691 H670 0.929 . S
C691 C689 1.446 . S
C691 C692 1.332 . S
C692 H672 0.931 . S
C692 C691 1.332 . S
C692 C693 1.267 . S
C693 H661 0.929 . S
C693 C692 1.267 . S
C693 C694 1.251 . S
C694 H664 0.929 . S
C694 N690 1.418 . S
C694 C693 1.251 . S
C695 H662 0.930 . S
C695 C697 1.406 . S
C695 C700 1.261 . S
C696 H663 0.930 . S
C696 N698 1.325 . S
C696 C699 1.357 . S
C697 H665 0.928 . S
C697 C695 1.406 . S
C697 N698 1.261 . S
N698 Co649 2.214 . S
N698 C696 1.325 . S
N698 C697 1.261 . S
C699 H669 0.922 1_565 S
C699 C696 1.357 . S
C699 C700 1.312 . S
C700 H671 0.930 . S
C700 C695 1.261 . S
C700 C699 1.312 . S
C701 O673 1.214 . S
C701 O681 1.234 . S
C702 H674 0.929 . S
C702 C705 1.391 . S
C702 C707 1.391 1_556 S
C703 H675 0.929 . S
C703 C704 1.390 . S
C703 N706 1.391 . S
C704 H676 0.930 1_565 S
C704 C703 1.390 . S
C704 C705 1.392 1_554 S
C705 H677 0.929 . S
C705 C702 1.391 . S
C705 C704 1.392 1_556 S
N706 Co650 2.257 . S
N706 C703 1.391 . S
N706 C707 1.388 . S
C707 H678 0.930 . S
C707 C702 1.391 1_554 S
C707 N706 1.388 . S
Co708 O710 2.143 . S
Co708 O716 2.074 . S
Co708 O719 2.093 . S
Co708 O732 2.097 . S
Co708 N749 2.151 . S
Co708 N757 2.214 . S
Co709 O710 2.160 . S
Co709 O715 2.058 . S
Co709 O725 2.057 . S
Co709 O740 2.037 . S
Co709 N744 2.145 . S
Co709 N765 2.257 . S
O710 Co708 2.143 . S
O710 Co709 2.160 . S
C711 O712 1.278 . S
C711 O719 1.224 . S
O712 C711 1.278 . S
C713 O714 1.245 . S
C713 O725 1.232 . S
O714 C713 1.245 . S
O715 Co709 2.058 . S
O715 C741 1.269 . S
O716 Co708 2.074 . S
O716 C741 1.257 . S
H717 C742 0.930 . S
H718 C748 0.930 . S
O719 Co708 2.093 . S
O719 C711 1.224 . S
H720 C752 0.929 . S
H721 C754 0.930 . S
H722 C755 0.930 . S
H723 C753 0.929 . S
H724 C756 0.928 . S
O725 Co709 2.057 . S
O725 C713 1.232 . S
H726 C745 0.929 . S
H727 C746 0.929 . S
H728 C758 0.931 . S
H729 C750 0.929 . S
H730 C759 0.930 . S
H731 C751 0.931 . S
O732 Co708 2.097 . S
O732 C760 1.214 . S
H733 C761 0.929 . S
H734 C762 0.929 . S
H735 C763 0.930 . S
H736 C764 0.929 . S
H737 C766 0.930 . S
H738 C743 0.930 . S
H739 C747 0.930 . S
O740 Co709 2.037 . S
O740 C760 1.234 . S
C741 O715 1.269 . S
C741 O716 1.257 . S
C742 H717 0.930 . S
C742 C745 1.388 . S
C742 C747 1.418 . S
C743 H738 0.930 . S
C743 C746 1.404 . S
C743 C747 1.353 . S
N744 Co709 2.145 . S
N744 C745 1.397 . S
N744 C746 1.334 . S
C745 H726 0.929 . S
C745 C742 1.388 . S
C745 N744 1.397 . S
C746 H727 0.929 . S
C746 C743 1.404 . S
C746 N744 1.334 . S
C747 H739 0.930 . S
C747 C742 1.418 . S
C747 C743 1.353 . S
C748 H718 0.930 . S
C748 N749 1.330 . S
C748 C750 1.446 . S
N749 Co708 2.151 . S
N749 C748 1.330 . S
N749 C753 1.418 . S
C750 H729 0.929 . S
C750 C748 1.446 . S
C750 C751 1.332 . S
C751 H731 0.931 . S
C751 C750 1.332 . S
C751 C752 1.267 . S
C752 H720 0.929 . S
C752 C751 1.267 . S
C752 C753 1.251 . S
C753 H723 0.929 . S
C753 N749 1.418 . S
C753 C752 1.251 . S
C754 H721 0.930 . S
C754 C756 1.406 . S
C754 C759 1.261 . S
C755 H722 0.930 . S
C755 N757 1.325 . S
C755 C758 1.357 . S
C756 H724 0.928 . S
C756 C754 1.406 . S
C756 N757 1.261 . S
N757 Co708 2.214 . S
N757 C755 1.325 . S
N757 C756 1.261 . S
C758 H728 0.931 . S
C758 C755 1.357 . S
C758 C759 1.312 . S
C759 H730 0.930 . S
C759 C754 1.261 . S
C759 C758 1.312 . S
C760 O732 1.214 . S
C760 O740 1.234 . S
C761 H733 0.929 . S
C761 C764 1.391 . S
C761 C766 1.391 . S
C762 H734 0.929 . S
C762 C763 1.390 . S
C762 N765 1.391 . S
C763 H735 0.930 . S
C763 C762 1.390 . S
C763 C764 1.392 . S
C764 H736 0.929 . S
C764 C761 1.391 . S
C764 C763 1.392 . S
N765 Co709 2.257 . S
N765 C762 1.391 . S
N765 C766 1.388 . S
C766 H737 0.930 . S
C766 C761 1.391 . S
C766 N765 1.388 . S
Co767 O769 2.143 . S
Co767 O775 2.074 . S
Co767 O778 2.093 . S
Co767 O791 2.097 . S
Co767 N808 2.151 . S
Co767 N816 2.214 . S
Co768 O769 2.160 . S
Co768 O774 2.058 . S
Co768 O784 2.057 . S
Co768 O799 2.037 . S
Co768 N803 2.145 . S
Co768 N824 2.257 . S
O769 Co767 2.143 . S
O769 Co768 2.160 . S
C770 O771 1.278 . S
C770 O778 1.224 . S
O771 C770 1.278 . S
C772 O773 1.245 . S
C772 O784 1.232 . S
O773 C772 1.245 . S
O774 Co768 2.058 . S
O774 C800 1.269 . S
O775 Co767 2.074 . S
O775 C800 1.257 . S
H776 C801 0.930 . S
H777 C807 0.930 . S
O778 Co767 2.093 . S
O778 C770 1.224 . S
H779 C811 0.929 . S
H780 C813 0.930 . S
H781 C814 0.930 . S
H782 C812 0.929 . S
H783 C815 0.928 . S
O784 Co768 2.057 . S
O784 C772 1.232 . S
H785 C804 0.929 . S
H786 C805 0.929 . S
H787 C817 0.922 1_565 S
H788 C809 0.929 . S
H789 C818 0.930 . S
H790 C810 0.931 . S
O791 Co767 2.097 . S
O791 C819 1.214 . S
H792 C820 0.929 . S
H793 C821 0.929 . S
H794 C822 0.930 1_565 S
H795 C823 0.929 . S
H796 C825 0.930 . S
H797 C802 0.930 . S
H798 C806 0.930 . S
O799 Co768 2.037 . S
O799 C819 1.234 . S
C800 O774 1.269 . S
C800 O775 1.257 . S
C801 H776 0.930 . S
C801 C804 1.388 . S
C801 C806 1.418 . S
C802 H797 0.930 . S
C802 C805 1.404 . S
C802 C806 1.353 . S
N803 Co768 2.145 . S
N803 C804 1.397 . S
N803 C805 1.334 . S
C804 H785 0.929 . S
C804 C801 1.388 . S
C804 N803 1.397 . S
C805 H786 0.929 . S
C805 C802 1.404 . S
C805 N803 1.334 . S
C806 H798 0.930 . S
C806 C801 1.418 . S
C806 C802 1.353 . S
C807 H777 0.930 . S
C807 N808 1.330 . S
C807 C809 1.446 . S
N808 Co767 2.151 . S
N808 C807 1.330 . S
N808 C812 1.418 . S
C809 H788 0.929 . S
C809 C807 1.446 . S
C809 C810 1.332 . S
C810 H790 0.931 . S
C810 C809 1.332 . S
C810 C811 1.267 . S
C811 H779 0.929 . S
C811 C810 1.267 . S
C811 C812 1.251 . S
C812 H782 0.929 . S
C812 N808 1.418 . S
C812 C811 1.251 . S
C813 H780 0.930 . S
C813 C815 1.406 . S
C813 C818 1.261 . S
C814 H781 0.930 . S
C814 N816 1.325 . S
C814 C817 1.357 . S
C815 H783 0.928 . S
C815 C813 1.406 . S
C815 N816 1.261 . S
N816 Co767 2.214 . S
N816 C814 1.325 . S
N816 C815 1.261 . S
C817 H787 0.922 1_545 S
C817 C814 1.357 . S
C817 C818 1.312 . S
C818 H789 0.930 . S
C818 C813 1.261 . S
C818 C817 1.312 . S
C819 O791 1.214 . S
C819 O799 1.234 . S
C820 H792 0.929 . S
C820 C823 1.391 . S
C820 C825 1.391 . S
C821 H793 0.929 . S
C821 C822 1.390 . S
C821 N824 1.391 . S
C822 H794 0.930 1_545 S
C822 C821 1.390 . S
C822 C823 1.392 . S
C823 H795 0.929 . S
C823 C820 1.391 . S
C823 C822 1.392 . S
N824 Co768 2.257 . S
N824 C821 1.391 . S
N824 C825 1.388 . S
C825 H796 0.930 . S
C825 C820 1.391 . S
C825 N824 1.388 . S
Co826 O828 2.143 . S
Co826 O834 2.074 1_554 S
Co826 O837 2.093 . S
Co826 O850 2.097 . S
Co826 N867 2.151 . S
Co826 N875 2.214 . S
Co827 O828 2.160 . S
Co827 O833 2.058 1_554 S
Co827 O843 2.057 . S
Co827 O858 2.037 . S
Co827 N862 2.145 1_554 S
Co827 N883 2.257 . S
O828 Co826 2.143 . S
O828 Co827 2.160 . S
C829 O830 1.278 . S
C829 O837 1.224 . S
O830 C829 1.278 . S
C831 O832 1.245 . S
C831 O843 1.232 . S
O832 C831 1.245 . S
O833 Co827 2.058 1_556 S
O833 C859 1.269 . S
O834 Co826 2.074 1_556 S
O834 C859 1.257 . S
H835 C860 0.930 . S
H836 C866 0.930 . S
O837 Co826 2.093 . S
O837 C829 1.224 . S
H838 C870 0.929 . S
H839 C872 0.930 . S
H840 C873 0.925 1_556 S
H841 C871 0.929 1_556 S
H842 C874 0.928 . S
O843 Co827 2.057 . S
O843 C831 1.232 . S
H844 C863 0.929 . S
H845 C864 0.929 . S
H846 C876 0.931 . S
H847 C868 0.929 . S
H848 C877 0.930 . S
H849 C869 0.931 . S
O850 Co826 2.097 . S
O850 C878 1.214 . S
H851 C879 0.929 . S
H852 C880 0.929 . S
H853 C881 0.930 . S
H854 C882 0.929 . S
H855 C884 0.930 . S
H856 C861 0.930 . S
H857 C865 0.930 . S
O858 Co827 2.037 . S
O858 C878 1.234 . S
C859 O833 1.269 . S
C859 O834 1.257 . S
C860 H835 0.930 . S
C860 C863 1.388 . S
C860 C865 1.418 . S
C861 H856 0.930 . S
C861 C864 1.404 . S
C861 C865 1.353 . S
N862 Co827 2.145 1_556 S
N862 C863 1.397 . S
N862 C864 1.334 . S
C863 H844 0.929 . S
C863 C860 1.388 . S
C863 N862 1.397 . S
C864 H845 0.929 . S
C864 C861 1.404 . S
C864 N862 1.334 . S
C865 H857 0.930 . S
C865 C860 1.418 . S
C865 C861 1.353 . S
C866 H836 0.930 . S
C866 N867 1.330 . S
C866 C868 1.446 . S
N867 Co826 2.151 . S
N867 C866 1.330 . S
N867 C871 1.418 . S
C868 H847 0.929 . S
C868 C866 1.446 . S
C868 C869 1.332 . S
C869 H849 0.931 . S
C869 C868 1.332 . S
C869 C870 1.267 . S
C870 H838 0.929 . S
C870 C869 1.267 . S
C870 C871 1.251 . S
C871 H841 0.929 1_554 S
C871 N867 1.418 . S
C871 C870 1.251 . S
C872 H839 0.930 . S
C872 C874 1.406 . S
C872 C877 1.261 . S
C873 H840 0.925 1_554 S
C873 N875 1.334 . S
C873 C876 1.354 1_554 S
C874 H842 0.928 . S
C874 C872 1.406 . S
C874 N875 1.261 . S
N875 Co826 2.214 . S
N875 C873 1.334 . S
N875 C874 1.261 . S
C876 H846 0.931 . S
C876 C873 1.354 1_556 S
C876 C877 1.312 1_556 S
C877 H848 0.930 . S
C877 C872 1.261 . S
C877 C876 1.312 1_554 S
C878 O850 1.214 . S
C878 O858 1.234 . S
C879 H851 0.929 . S
C879 C882 1.391 . S
C879 C884 1.391 . S
C880 H852 0.929 . S
C880 C881 1.390 . S
C880 N883 1.391 . S
C881 H853 0.930 . S
C881 C880 1.390 . S
C881 C882 1.392 . S
C882 H854 0.929 . S
C882 C879 1.391 . S
C882 C881 1.392 . S
N883 Co827 2.257 . S
N883 C880 1.391 . S
N883 C884 1.388 . S
C884 H855 0.930 . S
C884 C879 1.391 . S
C884 N883 1.388 . S
Co885 O887 2.143 1_655 S
Co885 O893 2.074 . S
Co885 O896 2.097 . S
Co885 O909 2.097 1_655 S
Co885 N926 2.151 . S
Co885 N934 2.214 . S
Co886 O887 2.160 . S
Co886 O892 2.058 . S
Co886 O902 2.057 . S
Co886 O917 2.037 . S
Co886 N921 2.145 . S
Co886 N942 2.257 . S
O887 Co885 2.143 1_455 S
O887 Co886 2.160 . S
C888 O889 1.278 1_655 S
C888 O896 1.221 1_554 S
O889 C888 1.278 1_455 S
C890 O891 1.245 . S
C890 O902 1.232 . S
O891 C890 1.245 . S
O892 Co886 2.058 . S
O892 C918 1.269 . S
O893 Co885 2.074 . S
O893 C918 1.257 1_655 S
H894 C919 0.930 . S
H895 C925 0.930 . S
O896 Co885 2.097 . S
O896 C888 1.221 1_556 S
H897 C929 0.929 . S
H898 C931 0.930 . S
H899 C932 0.930 . S
H900 C930 0.929 . S
H901 C933 0.928 . S
O902 Co886 2.057 . S
O902 C890 1.232 . S
H903 C922 0.929 . S
H904 C923 0.929 . S
H905 C935 0.922 1_545 S
H906 C927 0.929 . S
H907 C936 0.930 . S
H908 C928 0.931 . S
O909 Co885 2.097 1_455 S
O909 C937 1.214 . S
H910 C938 0.929 . S
H911 C939 0.929 . S
H912 C940 0.930 1_545 S
H913 C941 0.929 . S
H914 C943 0.930 . S
H915 C920 0.930 . S
H916 C924 0.930 . S
O917 Co886 2.037 . S
O917 C937 1.234 . S
C918 O892 1.269 . S
C918 O893 1.257 1_455 S
C919 H894 0.930 . S
C919 C922 1.388 . S
C919 C924 1.418 . S
C920 H915 0.930 . S
C920 C923 1.404 . S
C920 C924 1.353 . S
N921 Co886 2.145 . S
N921 C922 1.397 . S
N921 C923 1.334 . S
C922 H903 0.929 . S
C922 C919 1.388 . S
C922 N921 1.397 . S
C923 H904 0.929 . S
C923 C920 1.404 . S
C923 N921 1.334 . S
C924 H916 0.930 . S
C924 C919 1.418 . S
C924 C920 1.353 . S
C925 H895 0.930 . S
C925 N926 1.330 . S
C925 C927 1.446 . S
N926 Co885 2.151 . S
N926 C925 1.330 . S
N926 C930 1.418 . S
C927 H906 0.929 . S
C927 C925 1.446 . S
C927 C928 1.332 . S
C928 H908 0.931 . S
C928 C927 1.332 . S
C928 C929 1.267 . S
C929 H897 0.929 . S
C929 C928 1.267 . S
C929 C930 1.251 . S
C930 H900 0.929 . S
C930 N926 1.418 . S
C930 C929 1.251 . S
C931 H898 0.930 . S
C931 C933 1.406 . S
C931 C936 1.261 . S
C932 H899 0.930 . S
C932 N934 1.325 . S
C932 C935 1.357 . S
C933 H901 0.928 . S
C933 C931 1.406 . S
C933 N934 1.261 . S
N934 Co885 2.214 . S
N934 C932 1.325 . S
N934 C933 1.261 . S
C935 H905 0.922 1_565 S
C935 C932 1.357 . S
C935 C936 1.312 . S
C936 H907 0.930 . S
C936 C931 1.261 . S
C936 C935 1.312 . S
C937 O909 1.214 . S
C937 O917 1.234 . S
C938 H910 0.929 . S
C938 C941 1.391 . S
C938 C943 1.391 1_554 S
C939 H911 0.929 . S
C939 C940 1.390 . S
C939 N942 1.391 . S
C940 H912 0.930 1_565 S
C940 C939 1.390 . S
C940 C941 1.392 1_556 S
C941 H913 0.929 . S
C941 C938 1.391 . S
C941 C940 1.392 1_554 S
N942 Co886 2.257 . S
N942 C939 1.391 . S
N942 C943 1.388 . S
C943 H914 0.930 . S
C943 C938 1.391 1_556 S
C943 N942 1.388 . S
Co944 O946 2.143 . S
Co944 O952 2.074 . S
Co944 O955 2.093 . S
Co944 O968 2.097 . S
Co944 N985 2.151 . S
Co944 N993 2.214 . S
Co945 O946 2.160 . S
Co945 O951 2.058 . S
Co945 O961 2.057 . S
Co945 O976 2.037 . S
Co945 N980 2.145 . S
Co945 N1001 2.257 . S
O946 Co944 2.143 . S
O946 Co945 2.160 . S
C947 O948 1.278 . S
C947 O955 1.224 . S
O948 C947 1.278 . S
C949 O950 1.245 . S
C949 O961 1.232 . S
O950 C949 1.245 . S
O951 Co945 2.058 . S
O951 C977 1.269 . S
O952 Co944 2.074 . S
O952 C977 1.257 . S
H953 C978 0.930 . S
H954 C984 0.930 . S
O955 Co944 2.093 . S
O955 C947 1.224 . S
H956 C988 0.929 . S
H957 C990 0.930 . S
H958 C991 0.930 . S
H959 C989 0.929 . S
H960 C992 0.928 . S
O961 Co945 2.057 . S
O961 C949 1.232 . S
H962 C981 0.929 . S
H963 C982 0.929 . S
H964 C994 0.931 . S
H965 C986 0.929 . S
H966 C995 0.930 . S
H967 C987 0.931 . S
O968 Co944 2.097 . S
O968 C996 1.214 . S
H969 C997 0.929 . S
H970 C998 0.929 . S
H971 C999 0.930 . S
H972 C1000 0.929 . S
H973 C1002 0.930 . S
H974 C979 0.930 . S
H975 C983 0.930 . S
O976 Co945 2.037 . S
O976 C996 1.234 . S
C977 O951 1.269 . S
C977 O952 1.257 . S
C978 H953 0.930 . S
C978 C981 1.388 . S
C978 C983 1.418 . S
C979 H974 0.930 . S
C979 C982 1.404 . S
C979 C983 1.353 . S
N980 Co945 2.145 . S
N980 C981 1.397 . S
N980 C982 1.334 . S
C981 H962 0.929 . S
C981 C978 1.388 . S
C981 N980 1.397 . S
C982 H963 0.929 . S
C982 C979 1.404 . S
C982 N980 1.334 . S
C983 H975 0.930 . S
C983 C978 1.418 . S
C983 C979 1.353 . S
C984 H954 0.930 . S
C984 N985 1.330 . S
C984 C986 1.446 . S
N985 Co944 2.151 . S
N985 C984 1.330 . S
N985 C989 1.418 . S
C986 H965 0.929 . S
C986 C984 1.446 . S
C986 C987 1.332 . S
C987 H967 0.931 . S
C987 C986 1.332 . S
C987 C988 1.267 . S
C988 H956 0.929 . S
C988 C987 1.267 . S
C988 C989 1.251 . S
C989 H959 0.929 . S
C989 N985 1.418 . S
C989 C988 1.251 . S
C990 H957 0.930 . S
C990 C992 1.406 . S
C990 C995 1.261 . S
C991 H958 0.930 . S
C991 N993 1.325 . S
C991 C994 1.357 . S
C992 H960 0.928 . S
C992 C990 1.406 . S
C992 N993 1.261 . S
N993 Co944 2.214 . S
N993 C991 1.325 . S
N993 C992 1.261 . S
C994 H964 0.931 . S
C994 C991 1.357 . S
C994 C995 1.312 . S
C995 H966 0.930 . S
C995 C990 1.261 . S
C995 C994 1.312 . S
C996 O968 1.214 . S
C996 O976 1.234 . S
C997 H969 0.929 . S
C997 C1000 1.391 . S
C997 C1002 1.391 . S
C998 H970 0.929 . S
C998 C999 1.390 . S
C998 N1001 1.391 . S
C999 H971 0.930 . S
C999 C998 1.390 . S
C999 C1000 1.392 . S
C1000 H972 0.929 . S
C1000 C997 1.391 . S
C1000 C999 1.392 . S
N1001 Co945 2.257 . S
N1001 C998 1.391 . S
N1001 C1002 1.388 . S
C1002 H973 0.930 . S
C1002 C997 1.391 . S
C1002 N1001 1.388 . S
Co1003 O1005 2.143 . S
Co1003 O1011 2.074 . S
Co1003 O1014 2.097 . S
Co1003 O1027 2.097 . S
Co1003 N1044 2.151 . S
Co1003 N1052 2.214 . S
Co1004 O1005 2.160 . S
Co1004 O1010 2.058 . S
Co1004 O1020 2.057 . S
Co1004 O1035 2.037 . S
Co1004 N1039 2.145 . S
Co1004 N1060 2.257 . S
O1005 Co1003 2.143 . S
O1005 Co1004 2.160 . S
C1006 O1007 1.278 . S
C1006 O1014 1.221 1_554 S
O1007 C1006 1.278 . S
C1008 O1009 1.245 . S
C1008 O1020 1.232 . S
O1009 C1008 1.245 . S
O1010 Co1004 2.058 . S
O1010 C1036 1.269 . S
O1011 Co1003 2.074 . S
O1011 C1036 1.257 . S
H1012 C1037 0.930 . S
H1013 C1043 0.930 . S
O1014 Co1003 2.097 . S
O1014 C1006 1.221 1_556 S
H1015 C1047 0.929 . S
H1016 C1049 0.930 . S
H1017 C1050 0.930 . S
H1018 C1048 0.929 . S
H1019 C1051 0.928 . S
O1020 Co1004 2.057 . S
O1020 C1008 1.232 . S
H1021 C1040 0.929 . S
H1022 C1041 0.929 . S
H1023 C1053 0.931 . S
H1024 C1045 0.929 . S
H1025 C1054 0.930 . S
H1026 C1046 0.931 . S
O1027 Co1003 2.097 . S
O1027 C1055 1.214 . S
H1028 C1056 0.929 . S
H1029 C1057 0.929 . S
H1030 C1058 0.930 . S
H1031 C1059 0.929 . S
H1032 C1061 0.930 . S
H1033 C1038 0.930 . S
H1034 C1042 0.930 . S
O1035 Co1004 2.037 . S
O1035 C1055 1.234 . S
C1036 O1010 1.269 . S
C1036 O1011 1.257 . S
C1037 H1012 0.930 . S
C1037 C1040 1.388 . S
C1037 C1042 1.418 . S
C1038 H1033 0.930 . S
C1038 C1041 1.404 . S
C1038 C1042 1.353 . S
N1039 Co1004 2.145 . S
N1039 C1040 1.397 . S
N1039 C1041 1.334 . S
C1040 H1021 0.929 . S
C1040 C1037 1.388 . S
C1040 N1039 1.397 . S
C1041 H1022 0.929 . S
C1041 C1038 1.404 . S
C1041 N1039 1.334 . S
C1042 H1034 0.930 . S
C1042 C1037 1.418 . S
C1042 C1038 1.353 . S
C1043 H1013 0.930 . S
C1043 N1044 1.330 . S
C1043 C1045 1.446 . S
N1044 Co1003 2.151 . S
N1044 C1043 1.330 . S
N1044 C1048 1.418 . S
C1045 H1024 0.929 . S
C1045 C1043 1.446 . S
C1045 C1046 1.332 . S
C1046 H1026 0.931 . S
C1046 C1045 1.332 . S
C1046 C1047 1.267 . S
C1047 H1015 0.929 . S
C1047 C1046 1.267 . S
C1047 C1048 1.251 . S
C1048 H1018 0.929 . S
C1048 N1044 1.418 . S
C1048 C1047 1.251 . S
C1049 H1016 0.930 . S
C1049 C1051 1.406 . S
C1049 C1054 1.261 . S
C1050 H1017 0.930 . S
C1050 N1052 1.325 . S
C1050 C1053 1.357 . S
C1051 H1019 0.928 . S
C1051 C1049 1.406 . S
C1051 N1052 1.261 . S
N1052 Co1003 2.214 . S
N1052 C1050 1.325 . S
N1052 C1051 1.261 . S
C1053 H1023 0.931 . S
C1053 C1050 1.357 . S
C1053 C1054 1.312 . S
C1054 H1025 0.930 . S
C1054 C1049 1.261 . S
C1054 C1053 1.312 . S
C1055 O1027 1.214 . S
C1055 O1035 1.234 . S
C1056 H1028 0.929 . S
C1056 C1059 1.391 . S
C1056 C1061 1.391 1_554 S
C1057 H1029 0.929 . S
C1057 C1058 1.390 . S
C1057 N1060 1.391 . S
C1058 H1030 0.930 . S
C1058 C1057 1.390 . S
C1058 C1059 1.392 1_556 S
C1059 H1031 0.929 . S
C1059 C1056 1.391 . S
C1059 C1058 1.392 1_554 S
N1060 Co1004 2.257 . S
N1060 C1057 1.391 . S
N1060 C1061 1.388 . S
C1061 H1032 0.930 . S
C1061 C1056 1.391 1_556 S
C1061 N1060 1.388 . S
Co1062 O1064 2.143 . S
Co1062 O1070 2.074 1_554 S
Co1062 O1073 2.093 . S
Co1062 O1086 2.097 . S
Co1062 N1103 2.151 . S
Co1062 N1111 2.214 . S
Co1063 O1064 2.160 . S
Co1063 O1069 2.058 1_554 S
Co1063 O1079 2.057 . S
Co1063 O1094 2.037 . S
Co1063 N1098 2.145 1_554 S
Co1063 N1119 2.257 . S
O1064 Co1062 2.143 . S
O1064 Co1063 2.160 . S
C1065 O1066 1.278 . S
C1065 O1073 1.224 . S
O1066 C1065 1.278 . S
C1067 O1068 1.245 . S
C1067 O1079 1.232 . S
O1068 C1067 1.245 . S
O1069 Co1063 2.058 1_556 S
O1069 C1095 1.269 . S
O1070 Co1062 2.074 1_556 S
O1070 C1095 1.257 . S
H1071 C1096 0.930 . S
H1072 C1102 0.930 . S
O1073 Co1062 2.093 . S
O1073 C1065 1.224 . S
H1074 C1106 0.929 . S
H1075 C1108 0.930 . S
H1076 C1109 0.925 1_556 S
H1077 C1107 0.929 1_556 S
H1078 C1110 0.928 . S
O1079 Co1063 2.057 . S
O1079 C1067 1.232 . S
H1080 C1099 0.929 . S
H1081 C1100 0.929 . S
H1082 C1112 0.931 . S
H1083 C1104 0.929 . S
H1084 C1113 0.930 . S
H1085 C1105 0.931 . S
O1086 Co1062 2.097 . S
O1086 C1114 1.214 . S
H1087 C1115 0.929 . S
H1088 C1116 0.929 . S
H1089 C1117 0.930 . S
H1090 C1118 0.929 . S
H1091 C1120 0.930 . S
H1092 C1097 0.930 . S
H1093 C1101 0.930 . S
O1094 Co1063 2.037 . S
O1094 C1114 1.234 . S
C1095 O1069 1.269 . S
C1095 O1070 1.257 . S
C1096 H1071 0.930 . S
C1096 C1099 1.388 . S
C1096 C1101 1.418 . S
C1097 H1092 0.930 . S
C1097 C1100 1.404 . S
C1097 C1101 1.353 . S
N1098 Co1063 2.145 1_556 S
N1098 C1099 1.397 . S
N1098 C1100 1.334 . S
C1099 H1080 0.929 . S
C1099 C1096 1.388 . S
C1099 N1098 1.397 . S
C1100 H1081 0.929 . S
C1100 C1097 1.404 . S
C1100 N1098 1.334 . S
C1101 H1093 0.930 . S
C1101 C1096 1.418 . S
C1101 C1097 1.353 . S
C1102 H1072 0.930 . S
C1102 N1103 1.330 . S
C1102 C1104 1.446 . S
N1103 Co1062 2.151 . S
N1103 C1102 1.330 . S
N1103 C1107 1.418 . S
C1104 H1083 0.929 . S
C1104 C1102 1.446 . S
C1104 C1105 1.332 . S
C1105 H1085 0.931 . S
C1105 C1104 1.332 . S
C1105 C1106 1.267 . S
C1106 H1074 0.929 . S
C1106 C1105 1.267 . S
C1106 C1107 1.251 . S
C1107 H1077 0.929 1_554 S
C1107 N1103 1.418 . S
C1107 C1106 1.251 . S
C1108 H1075 0.930 . S
C1108 C1110 1.406 . S
C1108 C1113 1.261 . S
C1109 H1076 0.925 1_554 S
C1109 N1111 1.332 . S
C1109 C1112 1.354 1_554 S
C1110 H1078 0.928 . S
C1110 C1108 1.406 . S
C1110 N1111 1.261 . S
N1111 Co1062 2.214 . S
N1111 C1109 1.332 . S
N1111 C1110 1.261 . S
C1112 H1082 0.931 . S
C1112 C1109 1.354 1_556 S
C1112 C1113 1.312 1_556 S
C1113 H1084 0.930 . S
C1113 C1108 1.261 . S
C1113 C1112 1.312 1_554 S
C1114 O1086 1.214 . S
C1114 O1094 1.234 . S
C1115 H1087 0.929 . S
C1115 C1118 1.391 . S
C1115 C1120 1.391 . S
C1116 H1088 0.929 . S
C1116 C1117 1.390 . S
C1116 N1119 1.391 . S
C1117 H1089 0.930 . S
C1117 C1116 1.390 . S
C1117 C1118 1.392 . S
C1118 H1090 0.929 . S
C1118 C1115 1.391 . S
C1118 C1117 1.392 . S
N1119 Co1063 2.257 . S
N1119 C1116 1.391 . S
N1119 C1120 1.388 . S
C1120 H1091 0.930 . S
C1120 C1115 1.391 . S
C1120 N1119 1.388 . S
Co1121 O1123 2.143 1_655 S
Co1121 O1129 2.074 . S
Co1121 O1132 2.093 . S
Co1121 O1145 2.097 1_655 S
Co1121 N1162 2.151 . S
Co1121 N1170 2.214 . S
Co1122 O1123 2.160 . S
Co1122 O1128 2.058 . S
Co1122 O1138 2.057 . S
Co1122 O1153 2.037 . S
Co1122 N1157 2.145 . S
Co1122 N1178 2.257 . S
O1123 Co1121 2.143 1_455 S
O1123 Co1122 2.160 . S
C1124 O1125 1.278 1_655 S
C1124 O1132 1.224 . S
O1125 C1124 1.278 1_455 S
C1126 O1127 1.245 . S
C1126 O1138 1.232 . S
O1127 C1126 1.245 . S
O1128 Co1122 2.058 . S
O1128 C1154 1.269 . S
O1129 Co1121 2.074 . S
O1129 C1154 1.257 1_655 S
H1130 C1155 0.930 . S
H1131 C1161 0.930 . S
O1132 Co1121 2.093 . S
O1132 C1124 1.224 . S
H1133 C1165 0.929 . S
H1134 C1167 0.930 . S
H1135 C1168 0.930 . S
H1136 C1166 0.929 . S
H1137 C1169 0.928 . S
O1138 Co1122 2.057 . S
O1138 C1126 1.232 . S
H1139 C1158 0.929 . S
H1140 C1159 0.929 . S
H1141 C1171 0.931 . S
H1142 C1163 0.929 . S
H1143 C1172 0.930 . S
H1144 C1164 0.931 . S
O1145 Co1121 2.097 1_455 S
O1145 C1173 1.214 . S
H1146 C1174 0.929 . S
H1147 C1175 0.929 . S
H1148 C1176 0.930 . S
H1149 C1177 0.929 . S
H1150 C1179 0.930 . S
H1151 C1156 0.930 . S
H1152 C1160 0.930 . S
O1153 Co1122 2.037 . S
O1153 C1173 1.234 . S
C1154 O1128 1.269 . S
C1154 O1129 1.257 1_455 S
C1155 H1130 0.930 . S
C1155 C1158 1.388 . S
C1155 C1160 1.418 . S
C1156 H1151 0.930 . S
C1156 C1159 1.404 . S
C1156 C1160 1.353 . S
N1157 Co1122 2.145 . S
N1157 C1158 1.397 . S
N1157 C1159 1.334 . S
C1158 H1139 0.929 . S
C1158 C1155 1.388 . S
C1158 N1157 1.397 . S
C1159 H1140 0.929 . S
C1159 C1156 1.404 . S
C1159 N1157 1.334 . S
C1160 H1152 0.930 . S
C1160 C1155 1.418 . S
C1160 C1156 1.353 . S
C1161 H1131 0.930 . S
C1161 N1162 1.330 . S
C1161 C1163 1.446 . S
N1162 Co1121 2.151 . S
N1162 C1161 1.330 . S
N1162 C1166 1.418 . S
C1163 H1142 0.929 . S
C1163 C1161 1.446 . S
C1163 C1164 1.332 . S
C1164 H1144 0.931 . S
C1164 C1163 1.332 . S
C1164 C1165 1.267 . S
C1165 H1133 0.929 . S
C1165 C1164 1.267 . S
C1165 C1166 1.251 . S
C1166 H1136 0.929 . S
C1166 N1162 1.418 . S
C1166 C1165 1.251 . S
C1167 H1134 0.930 . S
C1167 C1169 1.406 . S
C1167 C1172 1.261 . S
C1168 H1135 0.930 . S
C1168 N1170 1.325 . S
C1168 C1171 1.357 . S
C1169 H1137 0.928 . S
C1169 C1167 1.406 . S
C1169 N1170 1.261 . S
N1170 Co1121 2.214 . S
N1170 C1168 1.325 . S
N1170 C1169 1.261 . S
C1171 H1141 0.931 . S
C1171 C1168 1.357 . S
C1171 C1172 1.312 . S
C1172 H1143 0.930 . S
C1172 C1167 1.261 . S
C1172 C1171 1.312 . S
C1173 O1145 1.214 . S
C1173 O1153 1.234 . S
C1174 H1146 0.929 . S
C1174 C1177 1.391 . S
C1174 C1179 1.391 . S
C1175 H1147 0.929 . S
C1175 C1176 1.390 . S
C1175 N1178 1.391 . S
C1176 H1148 0.930 . S
C1176 C1175 1.390 . S
C1176 C1177 1.392 . S
C1177 H1149 0.929 . S
C1177 C1174 1.391 . S
C1177 C1176 1.392 . S
N1178 Co1122 2.257 . S
N1178 C1175 1.391 . S
N1178 C1179 1.388 . S
C1179 H1150 0.930 . S
C1179 C1174 1.391 . S
C1179 N1178 1.388 . S
Co1180 O1182 2.143 . S
Co1180 O1188 2.074 1_556 S
Co1180 O1191 2.093 . S
Co1180 O1204 2.097 . S
Co1180 N1221 2.151 . S
Co1180 N1229 2.214 . S
Co1181 O1182 2.160 . S
Co1181 O1187 2.058 1_556 S
Co1181 O1197 2.057 . S
Co1181 O1212 2.037 . S
Co1181 N1216 2.145 1_556 S
Co1181 N1237 2.257 . S
O1182 Co1180 2.143 . S
O1182 Co1181 2.160 . S
C1183 O1184 1.278 . S
C1183 O1191 1.224 . S
O1184 C1183 1.278 . S
C1185 O1186 1.245 . S
C1185 O1197 1.232 . S
O1186 C1185 1.245 . S
O1187 Co1181 2.058 1_554 S
O1187 C1213 1.269 . S
O1188 Co1180 2.074 1_554 S
O1188 C1213 1.257 . S
H1189 C1214 0.930 . S
H1190 C1220 0.930 . S
O1191 Co1180 2.093 . S
O1191 C1183 1.224 . S
H1192 C1224 0.929 . S
H1193 C1226 0.930 . S
H1194 C1227 0.925 1_554 S
H1195 C1225 0.929 1_554 S
H1196 C1228 0.928 . S
O1197 Co1181 2.057 . S
O1197 C1185 1.232 . S
H1198 C1217 0.929 . S
H1199 C1218 0.929 . S
H1200 C1230 0.931 . S
H1201 C1222 0.929 . S
H1202 C1231 0.930 . S
H1203 C1223 0.931 . S
O1204 Co1180 2.097 . S
O1204 C1232 1.214 . S
H1205 C1233 0.929 . S
H1206 C1234 0.929 . S
H1207 C1235 0.930 . S
H1208 C1236 0.929 . S
H1209 C1238 0.930 . S
H1210 C1215 0.930 . S
H1211 C1219 0.930 . S
O1212 Co1181 2.037 . S
O1212 C1232 1.234 . S
C1213 O1187 1.269 . S
C1213 O1188 1.257 . S
C1214 H1189 0.930 . S
C1214 C1217 1.388 . S
C1214 C1219 1.418 . S
C1215 H1210 0.930 . S
C1215 C1218 1.404 . S
C1215 C1219 1.353 . S
N1216 Co1181 2.145 1_554 S
N1216 C1217 1.397 . S
N1216 C1218 1.334 . S
C1217 H1198 0.929 . S
C1217 C1214 1.388 . S
C1217 N1216 1.397 . S
C1218 H1199 0.929 . S
C1218 C1215 1.404 . S
C1218 N1216 1.334 . S
C1219 H1211 0.930 . S
C1219 C1214 1.418 . S
C1219 C1215 1.353 . S
C1220 H1190 0.930 . S
C1220 N1221 1.330 . S
C1220 C1222 1.446 . S
N1221 Co1180 2.151 . S
N1221 C1220 1.330 . S
N1221 C1225 1.418 . S
C1222 H1201 0.929 . S
C1222 C1220 1.446 . S
C1222 C1223 1.332 . S
C1223 H1203 0.931 . S
C1223 C1222 1.332 . S
C1223 C1224 1.267 . S
C1224 H1192 0.929 . S
C1224 C1223 1.267 . S
C1224 C1225 1.251 . S
C1225 H1195 0.929 1_556 S
C1225 N1221 1.418 . S
C1225 C1224 1.251 . S
C1226 H1193 0.930 . S
C1226 C1228 1.406 . S
C1226 C1231 1.261 . S
C1227 H1194 0.925 1_556 S
C1227 N1229 1.333 . S
C1227 C1230 1.354 1_556 S
C1228 H1196 0.928 . S
C1228 C1226 1.406 . S
C1228 N1229 1.261 . S
N1229 Co1180 2.214 . S
N1229 C1227 1.333 . S
N1229 C1228 1.261 . S
C1230 H1200 0.931 . S
C1230 C1227 1.354 1_554 S
C1230 C1231 1.312 1_554 S
C1231 H1202 0.930 . S
C1231 C1226 1.261 . S
C1231 C1230 1.312 1_556 S
C1232 O1204 1.214 . S
C1232 O1212 1.234 . S
C1233 H1205 0.929 . S
C1233 C1236 1.391 . S
C1233 C1238 1.391 . S
C1234 H1206 0.929 . S
C1234 C1235 1.390 . S
C1234 N1237 1.391 . S
C1235 H1207 0.930 . S
C1235 C1234 1.390 . S
C1235 C1236 1.392 . S
C1236 H1208 0.929 . S
C1236 C1233 1.391 . S
C1236 C1235 1.392 . S
N1237 Co1181 2.257 . S
N1237 C1234 1.391 . S
N1237 C1238 1.388 . S
C1238 H1209 0.930 . S
C1238 C1233 1.391 . S
C1238 N1237 1.388 . S
Co1239 O1241 2.143 1_655 S
Co1239 O1247 2.074 . S
Co1239 O1250 2.097 . S
Co1239 O1263 2.097 1_655 S
Co1239 N1280 2.151 . S
Co1239 N1288 2.214 . S
Co1240 O1241 2.160 . S
Co1240 O1246 2.058 . S
Co1240 O1256 2.057 . S
Co1240 O1271 2.037 . S
Co1240 N1275 2.145 . S
Co1240 N1296 2.257 . S
O1241 Co1239 2.143 1_455 S
O1241 Co1240 2.160 . S
C1242 O1243 1.278 1_655 S
C1242 O1250 1.221 1_556 S
O1243 C1242 1.278 1_455 S
C1244 O1245 1.245 . S
C1244 O1256 1.232 . S
O1245 C1244 1.245 . S
O1246 Co1240 2.058 . S
O1246 C1272 1.269 . S
O1247 Co1239 2.074 . S
O1247 C1272 1.257 1_655 S
H1248 C1273 0.930 . S
H1249 C1279 0.930 . S
O1250 Co1239 2.097 . S
O1250 C1242 1.221 1_554 S
H1251 C1283 0.929 . S
H1252 C1285 0.930 . S
H1253 C1286 0.930 . S
H1254 C1284 0.929 . S
H1255 C1287 0.928 . S
O1256 Co1240 2.057 . S
O1256 C1244 1.232 . S
H1257 C1276 0.929 . S
H1258 C1277 0.929 . S
H1259 C1289 0.931 . S
H1260 C1281 0.929 . S
H1261 C1290 0.930 . S
H1262 C1282 0.931 . S
O1263 Co1239 2.097 1_455 S
O1263 C1291 1.214 . S
H1264 C1292 0.929 . S
H1265 C1293 0.929 . S
H1266 C1294 0.930 . S
H1267 C1295 0.929 . S
H1268 C1297 0.930 . S
H1269 C1274 0.930 . S
H1270 C1278 0.930 . S
O1271 Co1240 2.037 . S
O1271 C1291 1.234 . S
C1272 O1246 1.269 . S
C1272 O1247 1.257 1_455 S
C1273 H1248 0.930 . S
C1273 C1276 1.388 . S
C1273 C1278 1.418 . S
C1274 H1269 0.930 . S
C1274 C1277 1.404 . S
C1274 C1278 1.353 . S
N1275 Co1240 2.145 . S
N1275 C1276 1.397 . S
N1275 C1277 1.334 . S
C1276 H1257 0.929 . S
C1276 C1273 1.388 . S
C1276 N1275 1.397 . S
C1277 H1258 0.929 . S
C1277 C1274 1.404 . S
C1277 N1275 1.334 . S
C1278 H1270 0.930 . S
C1278 C1273 1.418 . S
C1278 C1274 1.353 . S
C1279 H1249 0.930 . S
C1279 N1280 1.330 . S
C1279 C1281 1.446 . S
N1280 Co1239 2.151 . S
N1280 C1279 1.330 . S
N1280 C1284 1.418 . S
C1281 H1260 0.929 . S
C1281 C1279 1.446 . S
C1281 C1282 1.332 . S
C1282 H1262 0.931 . S
C1282 C1281 1.332 . S
C1282 C1283 1.267 . S
C1283 H1251 0.929 . S
C1283 C1282 1.267 . S
C1283 C1284 1.251 . S
C1284 H1254 0.929 . S
C1284 N1280 1.418 . S
C1284 C1283 1.251 . S
C1285 H1252 0.930 . S
C1285 C1287 1.406 . S
C1285 C1290 1.261 . S
C1286 H1253 0.930 . S
C1286 N1288 1.325 . S
C1286 C1289 1.357 . S
C1287 H1255 0.928 . S
C1287 C1285 1.406 . S
C1287 N1288 1.261 . S
N1288 Co1239 2.214 . S
N1288 C1286 1.325 . S
N1288 C1287 1.261 . S
C1289 H1259 0.931 . S
C1289 C1286 1.357 . S
C1289 C1290 1.312 . S
C1290 H1261 0.930 . S
C1290 C1285 1.261 . S
C1290 C1289 1.312 . S
C1291 O1263 1.214 . S
C1291 O1271 1.234 . S
C1292 H1264 0.929 . S
C1292 C1295 1.391 . S
C1292 C1297 1.391 1_556 S
C1293 H1265 0.929 . S
C1293 C1294 1.390 . S
C1293 N1296 1.391 . S
C1294 H1266 0.930 . S
C1294 C1293 1.390 . S
C1294 C1295 1.392 1_554 S
C1295 H1267 0.929 . S
C1295 C1292 1.391 . S
C1295 C1294 1.392 1_556 S
N1296 Co1240 2.257 . S
N1296 C1293 1.391 . S
N1296 C1297 1.388 . S
C1297 H1268 0.930 . S
C1297 C1292 1.391 1_554 S
C1297 N1296 1.388 . S
Co1298 O1300 2.143 . S
Co1298 O1306 2.074 . S
Co1298 O1309 2.093 . S
Co1298 O1322 2.097 . S
Co1298 N1339 2.151 . S
Co1298 N1347 2.214 . S
Co1299 O1300 2.160 . S
Co1299 O1305 2.058 . S
Co1299 O1315 2.057 . S
Co1299 O1330 2.037 . S
Co1299 N1334 2.145 . S
Co1299 N1355 2.257 . S
O1300 Co1298 2.143 . S
O1300 Co1299 2.160 . S
C1301 O1302 1.278 . S
C1301 O1309 1.224 . S
O1302 C1301 1.278 . S
C1303 O1304 1.245 . S
C1303 O1315 1.232 . S
O1304 C1303 1.245 . S
O1305 Co1299 2.058 . S
O1305 C1331 1.269 . S
O1306 Co1298 2.074 . S
O1306 C1331 1.257 . S
H1307 C1332 0.930 . S
H1308 C1338 0.930 . S
O1309 Co1298 2.093 . S
O1309 C1301 1.224 . S
H1310 C1342 0.929 . S
H1311 C1344 0.930 . S
H1312 C1345 0.930 . S
H1313 C1343 0.929 . S
H1314 C1346 0.928 . S
O1315 Co1299 2.057 . S
O1315 C1303 1.232 . S
H1316 C1335 0.929 . S
H1317 C1336 0.929 . S
H1318 C1348 0.931 . S
H1319 C1340 0.929 . S
H1320 C1349 0.930 . S
H1321 C1341 0.931 . S
O1322 Co1298 2.097 . S
O1322 C1350 1.214 . S
H1323 C1351 0.929 . S
H1324 C1352 0.929 . S
H1325 C1353 0.930 . S
H1326 C1354 0.929 . S
H1327 C1356 0.930 . S
H1328 C1333 0.930 . S
H1329 C1337 0.930 . S
O1330 Co1299 2.037 . S
O1330 C1350 1.234 . S
C1331 O1305 1.269 . S
C1331 O1306 1.257 . S
C1332 H1307 0.930 . S
C1332 C1335 1.388 . S
C1332 C1337 1.418 . S
C1333 H1328 0.930 . S
C1333 C1336 1.404 . S
C1333 C1337 1.353 . S
N1334 Co1299 2.145 . S
N1334 C1335 1.397 . S
N1334 C1336 1.334 . S
C1335 H1316 0.929 . S
C1335 C1332 1.388 . S
C1335 N1334 1.397 . S
C1336 H1317 0.929 . S
C1336 C1333 1.404 . S
C1336 N1334 1.334 . S
C1337 H1329 0.930 . S
C1337 C1332 1.418 . S
C1337 C1333 1.353 . S
C1338 H1308 0.930 . S
C1338 N1339 1.330 . S
C1338 C1340 1.446 . S
N1339 Co1298 2.151 . S
N1339 C1338 1.330 . S
N1339 C1343 1.418 . S
C1340 H1319 0.929 . S
C1340 C1338 1.446 . S
C1340 C1341 1.332 . S
C1341 H1321 0.931 . S
C1341 C1340 1.332 . S
C1341 C1342 1.267 . S
C1342 H1310 0.929 . S
C1342 C1341 1.267 . S
C1342 C1343 1.251 . S
C1343 H1313 0.929 . S
C1343 N1339 1.418 . S
C1343 C1342 1.251 . S
C1344 H1311 0.930 . S
C1344 C1346 1.406 . S
C1344 C1349 1.261 . S
C1345 H1312 0.930 . S
C1345 N1347 1.325 . S
C1345 C1348 1.357 . S
C1346 H1314 0.928 . S
C1346 C1344 1.406 . S
C1346 N1347 1.261 . S
N1347 Co1298 2.214 . S
N1347 C1345 1.325 . S
N1347 C1346 1.261 . S
C1348 H1318 0.931 . S
C1348 C1345 1.357 . S
C1348 C1349 1.312 . S
C1349 H1320 0.930 . S
C1349 C1344 1.261 . S
C1349 C1348 1.312 . S
C1350 O1322 1.214 . S
C1350 O1330 1.234 . S
C1351 H1323 0.929 . S
C1351 C1354 1.391 . S
C1351 C1356 1.391 . S
C1352 H1324 0.929 . S
C1352 C1353 1.390 . S
C1352 N1355 1.391 . S
C1353 H1325 0.930 . S
C1353 C1352 1.390 . S
C1353 C1354 1.392 . S
C1354 H1326 0.929 . S
C1354 C1351 1.391 . S
C1354 C1353 1.392 . S
N1355 Co1299 2.257 . S
N1355 C1352 1.391 . S
N1355 C1356 1.388 . S
C1356 H1327 0.930 . S
C1356 C1351 1.391 . S
C1356 N1355 1.388 . S
Co1357 O1359 2.143 . S
Co1357 O1365 2.074 . S
Co1357 O1368 2.093 . S
Co1357 O1381 2.097 . S
Co1357 N1398 2.151 . S
Co1357 N1406 2.214 . S
Co1358 O1359 2.160 . S
Co1358 O1364 2.058 . S
Co1358 O1374 2.057 . S
Co1358 O1389 2.037 . S
Co1358 N1393 2.145 . S
Co1358 N1414 2.257 . S
O1359 Co1357 2.143 . S
O1359 Co1358 2.160 . S
C1360 O1361 1.278 . S
C1360 O1368 1.224 . S
O1361 C1360 1.278 . S
C1362 O1363 1.245 . S
C1362 O1374 1.232 . S
O1363 C1362 1.245 . S
O1364 Co1358 2.058 . S
O1364 C1390 1.269 . S
O1365 Co1357 2.074 . S
O1365 C1390 1.257 . S
H1366 C1391 0.930 . S
H1367 C1397 0.930 . S
O1368 Co1357 2.093 . S
O1368 C1360 1.224 . S
H1369 C1401 0.929 . S
H1370 C1403 0.930 . S
H1371 C1404 0.930 . S
H1372 C1402 0.929 . S
H1373 C1405 0.928 . S
O1374 Co1358 2.057 . S
O1374 C1362 1.232 . S
H1375 C1394 0.929 . S
H1376 C1395 0.929 . S
H1377 C1407 0.931 . S
H1378 C1399 0.929 . S
H1379 C1408 0.930 . S
H1380 C1400 0.931 . S
O1381 Co1357 2.097 . S
O1381 C1409 1.214 . S
H1382 C1410 0.929 . S
H1383 C1411 0.929 . S
H1384 C1412 0.930 . S
H1385 C1413 0.929 . S
H1386 C1415 0.930 . S
H1387 C1392 0.930 . S
H1388 C1396 0.930 . S
O1389 Co1358 2.037 . S
O1389 C1409 1.234 . S
C1390 O1364 1.269 . S
C1390 O1365 1.257 . S
C1391 H1366 0.930 . S
C1391 C1394 1.388 . S
C1391 C1396 1.418 . S
C1392 H1387 0.930 . S
C1392 C1395 1.404 . S
C1392 C1396 1.353 . S
N1393 Co1358 2.145 . S
N1393 C1394 1.397 . S
N1393 C1395 1.334 . S
C1394 H1375 0.929 . S
C1394 C1391 1.388 . S
C1394 N1393 1.397 . S
C1395 H1376 0.929 . S
C1395 C1392 1.404 . S
C1395 N1393 1.334 . S
C1396 H1388 0.930 . S
C1396 C1391 1.418 . S
C1396 C1392 1.353 . S
C1397 H1367 0.930 . S
C1397 N1398 1.330 . S
C1397 C1399 1.446 . S
N1398 Co1357 2.151 . S
N1398 C1397 1.330 . S
N1398 C1402 1.418 . S
C1399 H1378 0.929 . S
C1399 C1397 1.446 . S
C1399 C1400 1.332 . S
C1400 H1380 0.931 . S
C1400 C1399 1.332 . S
C1400 C1401 1.267 . S
C1401 H1369 0.929 . S
C1401 C1400 1.267 . S
C1401 C1402 1.251 . S
C1402 H1372 0.929 . S
C1402 N1398 1.418 . S
C1402 C1401 1.251 . S
C1403 H1370 0.930 . S
C1403 C1405 1.406 . S
C1403 C1408 1.261 . S
C1404 H1371 0.930 . S
C1404 N1406 1.325 . S
C1404 C1407 1.357 . S
C1405 H1373 0.928 . S
C1405 C1403 1.406 . S
C1405 N1406 1.261 . S
N1406 Co1357 2.214 . S
N1406 C1404 1.325 . S
N1406 C1405 1.261 . S
C1407 H1377 0.931 . S
C1407 C1404 1.357 . S
C1407 C1408 1.312 . S
C1408 H1379 0.930 . S
C1408 C1403 1.261 . S
C1408 C1407 1.312 . S
C1409 O1381 1.214 . S
C1409 O1389 1.234 . S
C1410 H1382 0.929 . S
C1410 C1413 1.391 . S
C1410 C1415 1.391 . S
C1411 H1383 0.929 . S
C1411 C1412 1.390 . S
C1411 N1414 1.391 . S
C1412 H1384 0.930 . S
C1412 C1411 1.390 . S
C1412 C1413 1.392 . S
C1413 H1385 0.929 . S
C1413 C1410 1.391 . S
C1413 C1412 1.392 . S
N1414 Co1358 2.257 . S
N1414 C1411 1.391 . S
N1414 C1415 1.388 . S
C1415 H1386 0.930 . S
C1415 C1410 1.391 . S
C1415 N1414 1.388 . S
Co1416 O1418 2.143 . S
Co1416 O1424 2.074 . S
Co1416 O1427 2.093 . S
Co1416 O1440 2.097 . S
Co1416 N1457 2.151 . S
Co1416 N1465 2.214 . S
Co1417 O1418 2.160 . S
Co1417 O1423 2.058 . S
Co1417 O1433 2.057 . S
Co1417 O1448 2.037 . S
Co1417 N1452 2.145 . S
Co1417 N1473 2.257 . S
O1418 Co1416 2.143 . S
O1418 Co1417 2.160 . S
C1419 O1420 1.278 . S
C1419 O1427 1.224 . S
O1420 C1419 1.278 . S
C1421 O1422 1.245 . S
C1421 O1433 1.232 . S
O1422 C1421 1.245 . S
O1423 Co1417 2.058 . S
O1423 C1449 1.269 . S
O1424 Co1416 2.074 . S
O1424 C1449 1.257 . S
H1425 C1450 0.930 . S
H1426 C1456 0.930 . S
O1427 Co1416 2.093 . S
O1427 C1419 1.224 . S
H1428 C1460 0.929 . S
H1429 C1462 0.930 . S
H1430 C1463 0.930 . S
H1431 C1461 0.929 . S
H1432 C1464 0.928 . S
O1433 Co1417 2.057 . S
O1433 C1421 1.232 . S
H1434 C1453 0.929 . S
H1435 C1454 0.929 . S
H1436 C1466 0.931 . S
H1437 C1458 0.929 . S
H1438 C1467 0.930 . S
H1439 C1459 0.931 . S
O1440 Co1416 2.097 . S
O1440 C1468 1.214 . S
H1441 C1469 0.929 . S
H1442 C1470 0.929 . S
H1443 C1471 0.930 . S
H1444 C1472 0.929 . S
H1445 C1474 0.930 . S
H1446 C1451 0.930 . S
H1447 C1455 0.930 . S
O1448 Co1417 2.037 . S
O1448 C1468 1.234 . S
C1449 O1423 1.269 . S
C1449 O1424 1.257 . S
C1450 H1425 0.930 . S
C1450 C1453 1.388 . S
C1450 C1455 1.418 . S
C1451 H1446 0.930 . S
C1451 C1454 1.404 . S
C1451 C1455 1.353 . S
N1452 Co1417 2.145 . S
N1452 C1453 1.397 . S
N1452 C1454 1.334 . S
C1453 H1434 0.929 . S
C1453 C1450 1.388 . S
C1453 N1452 1.397 . S
C1454 H1435 0.929 . S
C1454 C1451 1.404 . S
C1454 N1452 1.334 . S
C1455 H1447 0.930 . S
C1455 C1450 1.418 . S
C1455 C1451 1.353 . S
C1456 H1426 0.930 . S
C1456 N1457 1.330 . S
C1456 C1458 1.446 . S
N1457 Co1416 2.151 . S
N1457 C1456 1.330 . S
N1457 C1461 1.418 . S
C1458 H1437 0.929 . S
C1458 C1456 1.446 . S
C1458 C1459 1.332 . S
C1459 H1439 0.931 . S
C1459 C1458 1.332 . S
C1459 C1460 1.267 . S
C1460 H1428 0.929 . S
C1460 C1459 1.267 . S
C1460 C1461 1.251 . S
C1461 H1431 0.929 . S
C1461 N1457 1.418 . S
C1461 C1460 1.251 . S
C1462 H1429 0.930 . S
C1462 C1464 1.406 . S
C1462 C1467 1.261 . S
C1463 H1430 0.930 . S
C1463 N1465 1.325 . S
C1463 C1466 1.357 . S
C1464 H1432 0.928 . S
C1464 C1462 1.406 . S
C1464 N1465 1.261 . S
N1465 Co1416 2.214 . S
N1465 C1463 1.325 . S
N1465 C1464 1.261 . S
C1466 H1436 0.931 . S
C1466 C1463 1.357 . S
C1466 C1467 1.312 . S
C1467 H1438 0.930 . S
C1467 C1462 1.261 . S
C1467 C1466 1.312 . S
C1468 O1440 1.214 . S
C1468 O1448 1.234 . S
C1469 H1441 0.929 . S
C1469 C1472 1.391 . S
C1469 C1474 1.391 . S
C1470 H1442 0.929 . S
C1470 C1471 1.390 . S
C1470 N1473 1.391 . S
C1471 H1443 0.930 . S
C1471 C1470 1.390 . S
C1471 C1472 1.392 . S
C1472 H1444 0.929 . S
C1472 C1469 1.391 . S
C1472 C1471 1.392 . S
N1473 Co1417 2.257 . S
N1473 C1470 1.391 . S
N1473 C1474 1.388 . S
C1474 H1445 0.930 . S
C1474 C1469 1.391 . S
C1474 N1473 1.388 . S
Co1475 O1477 2.143 . S
Co1475 O1483 2.074 . S
Co1475 O1486 2.097 . S
Co1475 O1499 2.097 . S
Co1475 N1516 2.151 . S
Co1475 N1524 2.214 . S
Co1476 O1477 2.160 . S
Co1476 O1482 2.058 . S
Co1476 O1492 2.057 . S
Co1476 O1507 2.037 . S
Co1476 N1511 2.145 . S
Co1476 N1532 2.257 . S
O1477 Co1475 2.143 . S
O1477 Co1476 2.160 . S
C1478 O1479 1.278 . S
C1478 O1486 1.221 1_556 S
O1479 C1478 1.278 . S
C1480 O1481 1.245 . S
C1480 O1492 1.232 . S
O1481 C1480 1.245 . S
O1482 Co1476 2.058 . S
O1482 C1508 1.269 . S
O1483 Co1475 2.074 . S
O1483 C1508 1.257 . S
H1484 C1509 0.930 . S
H1485 C1515 0.930 . S
O1486 Co1475 2.097 . S
O1486 C1478 1.221 1_554 S
H1487 C1519 0.929 . S
H1488 C1521 0.930 . S
H1489 C1522 0.930 . S
H1490 C1520 0.929 . S
H1491 C1523 0.928 . S
O1492 Co1476 2.057 . S
O1492 C1480 1.232 . S
H1493 C1512 0.929 . S
H1494 C1513 0.929 . S
H1495 C1525 0.931 . S
H1496 C1517 0.929 . S
H1497 C1526 0.930 . S
H1498 C1518 0.931 . S
O1499 Co1475 2.097 . S
O1499 C1527 1.214 . S
H1500 C1528 0.929 . S
H1501 C1529 0.929 . S
H1502 C1530 0.930 . S
H1503 C1531 0.929 . S
H1504 C1533 0.930 . S
H1505 C1510 0.930 . S
H1506 C1514 0.930 . S
O1507 Co1476 2.037 . S
O1507 C1527 1.234 . S
C1508 O1482 1.269 . S
C1508 O1483 1.257 . S
C1509 H1484 0.930 . S
C1509 C1512 1.388 . S
C1509 C1514 1.418 . S
C1510 H1505 0.930 . S
C1510 C1513 1.404 . S
C1510 C1514 1.353 . S
N1511 Co1476 2.145 . S
N1511 C1512 1.397 . S
N1511 C1513 1.334 . S
C1512 H1493 0.929 . S
C1512 C1509 1.388 . S
C1512 N1511 1.397 . S
C1513 H1494 0.929 . S
C1513 C1510 1.404 . S
C1513 N1511 1.334 . S
C1514 H1506 0.930 . S
C1514 C1509 1.418 . S
C1514 C1510 1.353 . S
C1515 H1485 0.930 . S
C1515 N1516 1.330 . S
C1515 C1517 1.446 . S
N1516 Co1475 2.151 . S
N1516 C1515 1.330 . S
N1516 C1520 1.418 . S
C1517 H1496 0.929 . S
C1517 C1515 1.446 . S
C1517 C1518 1.332 . S
C1518 H1498 0.931 . S
C1518 C1517 1.332 . S
C1518 C1519 1.267 . S
C1519 H1487 0.929 . S
C1519 C1518 1.267 . S
C1519 C1520 1.251 . S
C1520 H1490 0.929 . S
C1520 N1516 1.418 . S
C1520 C1519 1.251 . S
C1521 H1488 0.930 . S
C1521 C1523 1.406 . S
C1521 C1526 1.261 . S
C1522 H1489 0.930 . S
C1522 N1524 1.325 . S
C1522 C1525 1.357 . S
C1523 H1491 0.928 . S
C1523 C1521 1.406 . S
C1523 N1524 1.261 . S
N1524 Co1475 2.214 . S
N1524 C1522 1.325 . S
N1524 C1523 1.261 . S
C1525 H1495 0.931 . S
C1525 C1522 1.357 . S
C1525 C1526 1.312 . S
C1526 H1497 0.930 . S
C1526 C1521 1.261 . S
C1526 C1525 1.312 . S
C1527 O1499 1.214 . S
C1527 O1507 1.234 . S
C1528 H1500 0.929 . S
C1528 C1531 1.391 . S
C1528 C1533 1.391 1_556 S
C1529 H1501 0.929 . S
C1529 C1530 1.390 . S
C1529 N1532 1.391 . S
C1530 H1502 0.930 . S
C1530 C1529 1.390 . S
C1530 C1531 1.392 1_554 S
C1531 H1503 0.929 . S
C1531 C1528 1.391 . S
C1531 C1530 1.392 1_556 S
N1532 Co1476 2.257 . S
N1532 C1529 1.391 . S
N1532 C1533 1.388 . S
C1533 H1504 0.930 . S
C1533 C1528 1.391 1_554 S
C1533 N1532 1.388 . S
Co1534 O1536 2.143 . S
Co1534 O1542 2.074 1_556 S
Co1534 O1545 2.093 . S
Co1534 O1558 2.097 . S
Co1534 N1575 2.151 . S
Co1534 N1583 2.214 . S
Co1535 O1536 2.160 . S
Co1535 O1541 2.058 1_556 S
Co1535 O1551 2.057 . S
Co1535 O1566 2.037 . S
Co1535 N1570 2.145 1_556 S
Co1535 N1591 2.257 . S
O1536 Co1534 2.143 . S
O1536 Co1535 2.160 . S
C1537 O1538 1.278 . S
C1537 O1545 1.224 . S
O1538 C1537 1.278 . S
C1539 O1540 1.245 . S
C1539 O1551 1.232 . S
O1540 C1539 1.245 . S
O1541 Co1535 2.058 1_554 S
O1541 C1567 1.269 . S
O1542 Co1534 2.074 1_554 S
O1542 C1567 1.257 . S
H1543 C1568 0.930 . S
H1544 C1574 0.930 . S
O1545 Co1534 2.093 . S
O1545 C1537 1.224 . S
H1546 C1578 0.929 . S
H1547 C1580 0.930 . S
H1548 C1581 0.925 1_554 S
H1549 C1579 0.929 1_554 S
H1550 C1582 0.928 . S
O1551 Co1535 2.057 . S
O1551 C1539 1.232 . S
H1552 C1571 0.929 . S
H1553 C1572 0.929 . S
H1554 C1584 0.931 . S
H1555 C1576 0.929 . S
H1556 C1585 0.930 . S
H1557 C1577 0.931 . S
O1558 Co1534 2.097 . S
O1558 C1586 1.214 . S
H1559 C1587 0.929 . S
H1560 C1588 0.929 . S
H1561 C1589 0.930 . S
H1562 C1590 0.929 . S
H1563 C1592 0.930 . S
H1564 C1569 0.930 . S
H1565 C1573 0.930 . S
O1566 Co1535 2.037 . S
O1566 C1586 1.234 . S
C1567 O1541 1.269 . S
C1567 O1542 1.257 . S
C1568 H1543 0.930 . S
C1568 C1571 1.388 . S
C1568 C1573 1.418 . S
C1569 H1564 0.930 . S
C1569 C1572 1.404 . S
C1569 C1573 1.353 . S
N1570 Co1535 2.145 1_554 S
N1570 C1571 1.397 . S
N1570 C1572 1.334 . S
C1571 H1552 0.929 . S
C1571 C1568 1.388 . S
C1571 N1570 1.397 . S
C1572 H1553 0.929 . S
C1572 C1569 1.404 . S
C1572 N1570 1.334 . S
C1573 H1565 0.930 . S
C1573 C1568 1.418 . S
C1573 C1569 1.353 . S
C1574 H1544 0.930 . S
C1574 N1575 1.330 . S
C1574 C1576 1.446 . S
N1575 Co1534 2.151 . S
N1575 C1574 1.330 . S
N1575 C1579 1.418 . S
C1576 H1555 0.929 . S
C1576 C1574 1.446 . S
C1576 C1577 1.332 . S
C1577 H1557 0.931 . S
C1577 C1576 1.332 . S
C1577 C1578 1.267 . S
C1578 H1546 0.929 . S
C1578 C1577 1.267 . S
C1578 C1579 1.251 . S
C1579 H1549 0.929 1_556 S
C1579 N1575 1.418 . S
C1579 C1578 1.251 . S
C1580 H1547 0.930 . S
C1580 C1582 1.406 . S
C1580 C1585 1.261 . S
C1581 H1548 0.925 1_556 S
C1581 N1583 1.332 . S
C1581 C1584 1.354 1_556 S
C1582 H1550 0.928 . S
C1582 C1580 1.406 . S
C1582 N1583 1.261 . S
N1583 Co1534 2.214 . S
N1583 C1581 1.332 . S
N1583 C1582 1.261 . S
C1584 H1554 0.931 . S
C1584 C1581 1.354 1_554 S
C1584 C1585 1.312 1_554 S
C1585 H1556 0.930 . S
C1585 C1580 1.261 . S
C1585 C1584 1.312 1_556 S
C1586 O1558 1.214 . S
C1586 O1566 1.234 . S
C1587 H1559 0.929 . S
C1587 C1590 1.391 . S
C1587 C1592 1.391 . S
C1588 H1560 0.929 . S
C1588 C1589 1.390 . S
C1588 N1591 1.391 . S
C1589 H1561 0.930 . S
C1589 C1588 1.390 . S
C1589 C1590 1.392 . S
C1590 H1562 0.929 . S
C1590 C1587 1.391 . S
C1590 C1589 1.392 . S
N1591 Co1535 2.257 . S
N1591 C1588 1.391 . S
N1591 C1592 1.388 . S
C1592 H1563 0.930 . S
C1592 C1587 1.391 . S
C1592 N1591 1.388 . S
Co1593 O1595 2.143 1_455 S
Co1593 O1601 2.074 . S
Co1593 O1604 2.093 . S
Co1593 O1617 2.097 1_455 S
Co1593 N1634 2.151 . S
Co1593 N1642 2.214 . S
Co1594 O1595 2.160 . S
Co1594 O1600 2.058 . S
Co1594 O1610 2.057 . S
Co1594 O1625 2.037 . S
Co1594 N1629 2.145 . S
Co1594 N1650 2.257 . S
O1595 Co1593 2.143 1_655 S
O1595 Co1594 2.160 . S
C1596 O1597 1.278 1_455 S
C1596 O1604 1.224 . S
O1597 C1596 1.278 1_655 S
C1598 O1599 1.245 . S
C1598 O1610 1.232 . S
O1599 C1598 1.245 . S
O1600 Co1594 2.058 . S
O1600 C1626 1.269 . S
O1601 Co1593 2.074 . S
O1601 C1626 1.257 1_455 S
H1602 C1627 0.930 . S
H1603 C1633 0.930 . S
O1604 Co1593 2.093 . S
O1604 C1596 1.224 . S
H1605 C1637 0.929 . S
H1606 C1639 0.930 . S
H1607 C1640 0.930 . S
H1608 C1638 0.929 . S
H1609 C1641 0.928 . S
O1610 Co1594 2.057 . S
O1610 C1598 1.232 . S
H1611 C1630 0.929 . S
H1612 C1631 0.929 . S
H1613 C1643 0.931 . S
H1614 C1635 0.929 . S
H1615 C1644 0.930 . S
H1616 C1636 0.931 . S
O1617 Co1593 2.097 1_655 S
O1617 C1645 1.214 . S
H1618 C1646 0.929 . S
H1619 C1647 0.929 . S
H1620 C1648 0.930 . S
H1621 C1649 0.929 . S
H1622 C1651 0.930 . S
H1623 C1628 0.930 . S
H1624 C1632 0.930 . S
O1625 Co1594 2.037 . S
O1625 C1645 1.234 . S
C1626 O1600 1.269 . S
C1626 O1601 1.257 1_655 S
C1627 H1602 0.930 . S
C1627 C1630 1.388 . S
C1627 C1632 1.418 . S
C1628 H1623 0.930 . S
C1628 C1631 1.404 . S
C1628 C1632 1.353 . S
N1629 Co1594 2.145 . S
N1629 C1630 1.397 . S
N1629 C1631 1.334 . S
C1630 H1611 0.929 . S
C1630 C1627 1.388 . S
C1630 N1629 1.397 . S
C1631 H1612 0.929 . S
C1631 C1628 1.404 . S
C1631 N1629 1.334 . S
C1632 H1624 0.930 . S
C1632 C1627 1.418 . S
C1632 C1628 1.353 . S
C1633 H1603 0.930 . S
C1633 N1634 1.330 . S
C1633 C1635 1.446 . S
N1634 Co1593 2.151 . S
N1634 C1633 1.330 . S
N1634 C1638 1.418 . S
C1635 H1614 0.929 . S
C1635 C1633 1.446 . S
C1635 C1636 1.332 . S
C1636 H1616 0.931 . S
C1636 C1635 1.332 . S
C1636 C1637 1.267 . S
C1637 H1605 0.929 . S
C1637 C1636 1.267 . S
C1637 C1638 1.251 . S
C1638 H1608 0.929 . S
C1638 N1634 1.418 . S
C1638 C1637 1.251 . S
C1639 H1606 0.930 . S
C1639 C1641 1.406 . S
C1639 C1644 1.261 . S
C1640 H1607 0.930 . S
C1640 N1642 1.325 . S
C1640 C1643 1.357 . S
C1641 H1609 0.928 . S
C1641 C1639 1.406 . S
C1641 N1642 1.261 . S
N1642 Co1593 2.214 . S
N1642 C1640 1.325 . S
N1642 C1641 1.261 . S
C1643 H1613 0.931 . S
C1643 C1640 1.357 . S
C1643 C1644 1.312 . S
C1644 H1615 0.930 . S
C1644 C1639 1.261 . S
C1644 C1643 1.312 . S
C1645 O1617 1.214 . S
C1645 O1625 1.234 . S
C1646 H1618 0.929 . S
C1646 C1649 1.391 . S
C1646 C1651 1.391 . S
C1647 H1619 0.929 . S
C1647 C1648 1.390 . S
C1647 N1650 1.391 . S
C1648 H1620 0.930 . S
C1648 C1647 1.390 . S
C1648 C1649 1.392 . S
C1649 H1621 0.929 . S
C1649 C1646 1.391 . S
C1649 C1648 1.392 . S
N1650 Co1594 2.257 . S
N1650 C1647 1.391 . S
N1650 C1651 1.388 . S
C1651 H1622 0.930 . S
C1651 C1646 1.391 . S
C1651 N1650 1.388 . S
Co1652 O1654 2.143 . S
Co1652 O1660 2.074 1_554 S
Co1652 O1663 2.093 . S
Co1652 O1676 2.097 . S
Co1652 N1693 2.151 . S
Co1652 N1701 2.214 . S
Co1653 O1654 2.160 . S
Co1653 O1659 2.058 1_554 S
Co1653 O1669 2.057 . S
Co1653 O1684 2.037 . S
Co1653 N1688 2.145 1_554 S
Co1653 N1709 2.257 . S
O1654 Co1652 2.143 . S
O1654 Co1653 2.160 . S
C1655 O1656 1.278 . S
C1655 O1663 1.224 . S
O1656 C1655 1.278 . S
C1657 O1658 1.245 . S
C1657 O1669 1.232 . S
O1658 C1657 1.245 . S
O1659 Co1653 2.058 1_556 S
O1659 C1685 1.269 . S
O1660 Co1652 2.074 1_556 S
O1660 C1685 1.257 . S
H1661 C1686 0.930 . S
H1662 C1692 0.930 . S
O1663 Co1652 2.093 . S
O1663 C1655 1.224 . S
H1664 C1696 0.929 . S
H1665 C1698 0.930 . S
H1666 C1699 0.925 1_556 S
H1667 C1697 0.929 1_556 S
H1668 C1700 0.928 . S
O1669 Co1653 2.057 . S
O1669 C1657 1.232 . S
H1670 C1689 0.929 . S
H1671 C1690 0.929 . S
H1672 C1702 0.931 . S
H1673 C1694 0.929 . S
H1674 C1703 0.930 . S
H1675 C1695 0.931 . S
O1676 Co1652 2.097 . S
O1676 C1704 1.214 . S
H1677 C1705 0.929 . S
H1678 C1706 0.929 . S
H1679 C1707 0.930 . S
H1680 C1708 0.929 . S
H1681 C1710 0.930 . S
H1682 C1687 0.930 . S
H1683 C1691 0.930 . S
O1684 Co1653 2.037 . S
O1684 C1704 1.234 . S
C1685 O1659 1.269 . S
C1685 O1660 1.257 . S
C1686 H1661 0.930 . S
C1686 C1689 1.388 . S
C1686 C1691 1.418 . S
C1687 H1682 0.930 . S
C1687 C1690 1.404 . S
C1687 C1691 1.353 . S
N1688 Co1653 2.145 1_556 S
N1688 C1689 1.397 . S
N1688 C1690 1.334 . S
C1689 H1670 0.929 . S
C1689 C1686 1.388 . S
C1689 N1688 1.397 . S
C1690 H1671 0.929 . S
C1690 C1687 1.404 . S
C1690 N1688 1.334 . S
C1691 H1683 0.930 . S
C1691 C1686 1.418 . S
C1691 C1687 1.353 . S
C1692 H1662 0.930 . S
C1692 N1693 1.330 . S
C1692 C1694 1.446 . S
N1693 Co1652 2.151 . S
N1693 C1692 1.330 . S
N1693 C1697 1.418 . S
C1694 H1673 0.929 . S
C1694 C1692 1.446 . S
C1694 C1695 1.332 . S
C1695 H1675 0.931 . S
C1695 C1694 1.332 . S
C1695 C1696 1.267 . S
C1696 H1664 0.929 . S
C1696 C1695 1.267 . S
C1696 C1697 1.251 . S
C1697 H1667 0.929 1_554 S
C1697 N1693 1.418 . S
C1697 C1696 1.251 . S
C1698 H1665 0.930 . S
C1698 C1700 1.406 . S
C1698 C1703 1.261 . S
C1699 H1666 0.925 1_554 S
C1699 N1701 1.333 . S
C1699 C1702 1.354 1_554 S
C1700 H1668 0.928 . S
C1700 C1698 1.406 . S
C1700 N1701 1.261 . S
N1701 Co1652 2.214 . S
N1701 C1699 1.333 . S
N1701 C1700 1.261 . S
C1702 H1672 0.931 . S
C1702 C1699 1.354 1_556 S
C1702 C1703 1.312 1_556 S
C1703 H1674 0.930 . S
C1703 C1698 1.261 . S
C1703 C1702 1.312 1_554 S
C1704 O1676 1.214 . S
C1704 O1684 1.234 . S
C1705 H1677 0.929 . S
C1705 C1708 1.391 . S
C1705 C1710 1.391 . S
C1706 H1678 0.929 . S
C1706 C1707 1.390 . S
C1706 N1709 1.391 . S
C1707 H1679 0.930 . S
C1707 C1706 1.390 . S
C1707 C1708 1.392 . S
C1708 H1680 0.929 . S
C1708 C1705 1.391 . S
C1708 C1707 1.392 . S
N1709 Co1653 2.257 . S
N1709 C1706 1.391 . S
N1709 C1710 1.388 . S
C1710 H1681 0.930 . S
C1710 C1705 1.391 . S
C1710 N1709 1.388 . S
Co1711 O1713 2.143 1_455 S
Co1711 O1719 2.074 . S
Co1711 O1722 2.097 . S
Co1711 O1735 2.097 1_455 S
Co1711 N1752 2.151 . S
Co1711 N1760 2.214 . S
Co1712 O1713 2.160 . S
Co1712 O1718 2.058 . S
Co1712 O1728 2.057 . S
Co1712 O1743 2.037 . S
Co1712 N1747 2.145 . S
Co1712 N1768 2.257 . S
O1713 Co1711 2.143 1_655 S
O1713 Co1712 2.160 . S
C1714 O1715 1.278 1_455 S
C1714 O1722 1.221 1_554 S
O1715 C1714 1.278 1_655 S
C1716 O1717 1.245 . S
C1716 O1728 1.232 . S
O1717 C1716 1.245 . S
O1718 Co1712 2.058 . S
O1718 C1744 1.269 . S
O1719 Co1711 2.074 . S
O1719 C1744 1.257 1_455 S
H1720 C1745 0.930 . S
H1721 C1751 0.930 . S
O1722 Co1711 2.097 . S
O1722 C1714 1.221 1_556 S
H1723 C1755 0.929 . S
H1724 C1757 0.930 . S
H1725 C1758 0.930 . S
H1726 C1756 0.929 . S
H1727 C1759 0.928 . S
O1728 Co1712 2.057 . S
O1728 C1716 1.232 . S
H1729 C1748 0.929 . S
H1730 C1749 0.929 . S
H1731 C1761 0.931 . S
H1732 C1753 0.929 . S
H1733 C1762 0.930 . S
H1734 C1754 0.931 . S
O1735 Co1711 2.097 1_655 S
O1735 C1763 1.214 . S
H1736 C1764 0.929 . S
H1737 C1765 0.929 . S
H1738 C1766 0.930 . S
H1739 C1767 0.929 . S
H1740 C1769 0.930 . S
H1741 C1746 0.930 . S
H1742 C1750 0.930 . S
O1743 Co1712 2.037 . S
O1743 C1763 1.234 . S
C1744 O1718 1.269 . S
C1744 O1719 1.257 1_655 S
C1745 H1720 0.930 . S
C1745 C1748 1.388 . S
C1745 C1750 1.418 . S
C1746 H1741 0.930 . S
C1746 C1749 1.404 . S
C1746 C1750 1.353 . S
N1747 Co1712 2.145 . S
N1747 C1748 1.397 . S
N1747 C1749 1.334 . S
C1748 H1729 0.929 . S
C1748 C1745 1.388 . S
C1748 N1747 1.397 . S
C1749 H1730 0.929 . S
C1749 C1746 1.404 . S
C1749 N1747 1.334 . S
C1750 H1742 0.930 . S
C1750 C1745 1.418 . S
C1750 C1746 1.353 . S
C1751 H1721 0.930 . S
C1751 N1752 1.330 . S
C1751 C1753 1.446 . S
N1752 Co1711 2.151 . S
N1752 C1751 1.330 . S
N1752 C1756 1.418 . S
C1753 H1732 0.929 . S
C1753 C1751 1.446 . S
C1753 C1754 1.332 . S
C1754 H1734 0.931 . S
C1754 C1753 1.332 . S
C1754 C1755 1.267 . S
C1755 H1723 0.929 . S
C1755 C1754 1.267 . S
C1755 C1756 1.251 . S
C1756 H1726 0.929 . S
C1756 N1752 1.418 . S
C1756 C1755 1.251 . S
C1757 H1724 0.930 . S
C1757 C1759 1.406 . S
C1757 C1762 1.261 . S
C1758 H1725 0.930 . S
C1758 N1760 1.325 . S
C1758 C1761 1.357 . S
C1759 H1727 0.928 . S
C1759 C1757 1.406 . S
C1759 N1760 1.261 . S
N1760 Co1711 2.214 . S
N1760 C1758 1.325 . S
N1760 C1759 1.261 . S
C1761 H1731 0.931 . S
C1761 C1758 1.357 . S
C1761 C1762 1.312 . S
C1762 H1733 0.930 . S
C1762 C1757 1.261 . S
C1762 C1761 1.312 . S
C1763 O1735 1.214 . S
C1763 O1743 1.234 . S
C1764 H1736 0.929 . S
C1764 C1767 1.391 . S
C1764 C1769 1.391 1_554 S
C1765 H1737 0.929 . S
C1765 C1766 1.390 . S
C1765 N1768 1.391 . S
C1766 H1738 0.930 . S
C1766 C1765 1.390 . S
C1766 C1767 1.392 1_556 S
C1767 H1739 0.929 . S
C1767 C1764 1.391 . S
C1767 C1766 1.392 1_554 S
N1768 Co1712 2.257 . S
N1768 C1765 1.391 . S
N1768 C1769 1.388 . S
C1769 H1740 0.930 . S
C1769 C1764 1.391 1_556 S
C1769 N1768 1.388 . S
Co1770 O1772 2.143 . S
Co1770 O1778 2.074 . S
Co1770 O1781 2.093 . S
Co1770 O1794 2.097 . S
Co1770 N1811 2.151 . S
Co1770 N1819 2.214 . S
Co1771 O1772 2.160 . S
Co1771 O1777 2.058 . S
Co1771 O1787 2.057 . S
Co1771 O1802 2.037 . S
Co1771 N1806 2.145 . S
Co1771 N1827 2.257 . S
O1772 Co1770 2.143 . S
O1772 Co1771 2.160 . S
C1773 O1774 1.278 . S
C1773 O1781 1.224 . S
O1774 C1773 1.278 . S
C1775 O1776 1.245 . S
C1775 O1787 1.232 . S
O1776 C1775 1.245 . S
O1777 Co1771 2.058 . S
O1777 C1803 1.269 . S
O1778 Co1770 2.074 . S
O1778 C1803 1.257 . S
H1779 C1804 0.930 . S
H1780 C1810 0.930 . S
O1781 Co1770 2.093 . S
O1781 C1773 1.224 . S
H1782 C1814 0.929 . S
H1783 C1816 0.930 . S
H1784 C1817 0.930 . S
H1785 C1815 0.929 . S
H1786 C1818 0.928 . S
O1787 Co1771 2.057 . S
O1787 C1775 1.232 . S
H1788 C1807 0.929 . S
H1789 C1808 0.929 . S
H1790 C1820 0.931 . S
H1791 C1812 0.929 . S
H1792 C1821 0.930 . S
H1793 C1813 0.931 . S
O1794 Co1770 2.097 . S
O1794 C1822 1.214 . S
H1795 C1823 0.929 . S
H1796 C1824 0.929 . S
H1797 C1825 0.930 . S
H1798 C1826 0.929 . S
H1799 C1828 0.930 . S
H1800 C1805 0.930 . S
H1801 C1809 0.930 . S
O1802 Co1771 2.037 . S
O1802 C1822 1.234 . S
C1803 O1777 1.269 . S
C1803 O1778 1.257 . S
C1804 H1779 0.930 . S
C1804 C1807 1.388 . S
C1804 C1809 1.418 . S
C1805 H1800 0.930 . S
C1805 C1808 1.404 . S
C1805 C1809 1.353 . S
N1806 Co1771 2.145 . S
N1806 C1807 1.397 . S
N1806 C1808 1.334 . S
C1807 H1788 0.929 . S
C1807 C1804 1.388 . S
C1807 N1806 1.397 . S
C1808 H1789 0.929 . S
C1808 C1805 1.404 . S
C1808 N1806 1.334 . S
C1809 H1801 0.930 . S
C1809 C1804 1.418 . S
C1809 C1805 1.353 . S
C1810 H1780 0.930 . S
C1810 N1811 1.330 . S
C1810 C1812 1.446 . S
N1811 Co1770 2.151 . S
N1811 C1810 1.330 . S
N1811 C1815 1.418 . S
C1812 H1791 0.929 . S
C1812 C1810 1.446 . S
C1812 C1813 1.332 . S
C1813 H1793 0.931 . S
C1813 C1812 1.332 . S
C1813 C1814 1.267 . S
C1814 H1782 0.929 . S
C1814 C1813 1.267 . S
C1814 C1815 1.251 . S
C1815 H1785 0.929 . S
C1815 N1811 1.418 . S
C1815 C1814 1.251 . S
C1816 H1783 0.930 . S
C1816 C1818 1.406 . S
C1816 C1821 1.261 . S
C1817 H1784 0.930 . S
C1817 N1819 1.325 . S
C1817 C1820 1.357 . S
C1818 H1786 0.928 . S
C1818 C1816 1.406 . S
C1818 N1819 1.261 . S
N1819 Co1770 2.214 . S
N1819 C1817 1.325 . S
N1819 C1818 1.261 . S
C1820 H1790 0.931 . S
C1820 C1817 1.357 . S
C1820 C1821 1.312 . S
C1821 H1792 0.930 . S
C1821 C1816 1.261 . S
C1821 C1820 1.312 . S
C1822 O1794 1.214 . S
C1822 O1802 1.234 . S
C1823 H1795 0.929 . S
C1823 C1826 1.391 . S
C1823 C1828 1.391 . S
C1824 H1796 0.929 . S
C1824 C1825 1.390 . S
C1824 N1827 1.391 . S
C1825 H1797 0.930 . S
C1825 C1824 1.390 . S
C1825 C1826 1.392 . S
C1826 H1798 0.929 . S
C1826 C1823 1.391 . S
C1826 C1825 1.392 . S
N1827 Co1771 2.257 . S
N1827 C1824 1.391 . S
N1827 C1828 1.388 . S
C1828 H1799 0.930 . S
C1828 C1823 1.391 . S
C1828 N1827 1.388 . S
Co1829 O1831 2.143 . S
Co1829 O1837 2.074 . S
Co1829 O1840 2.093 . S
Co1829 O1853 2.097 . S
Co1829 N1870 2.151 . S
Co1829 N1878 2.214 . S
Co1830 O1831 2.160 . S
Co1830 O1836 2.058 . S
Co1830 O1846 2.057 . S
Co1830 O1861 2.037 . S
Co1830 N1865 2.145 . S
Co1830 N1886 2.257 . S
O1831 Co1829 2.143 . S
O1831 Co1830 2.160 . S
C1832 O1833 1.278 . S
C1832 O1840 1.224 . S
O1833 C1832 1.278 . S
C1834 O1835 1.245 . S
C1834 O1846 1.232 . S
O1835 C1834 1.245 . S
O1836 Co1830 2.058 . S
O1836 C1862 1.269 . S
O1837 Co1829 2.074 . S
O1837 C1862 1.257 . S
H1838 C1863 0.930 . S
H1839 C1869 0.930 . S
O1840 Co1829 2.093 . S
O1840 C1832 1.224 . S
H1841 C1873 0.929 . S
H1842 C1875 0.930 . S
H1843 C1876 0.930 . S
H1844 C1874 0.929 . S
H1845 C1877 0.928 . S
O1846 Co1830 2.057 . S
O1846 C1834 1.232 . S
H1847 C1866 0.929 . S
H1848 C1867 0.929 . S
H1849 C1879 0.931 . S
H1850 C1871 0.929 . S
H1851 C1880 0.930 . S
H1852 C1872 0.931 . S
O1853 Co1829 2.097 . S
O1853 C1881 1.214 . S
H1854 C1882 0.929 . S
H1855 C1883 0.929 . S
H1856 C1884 0.930 . S
H1857 C1885 0.929 . S
H1858 C1887 0.930 . S
H1859 C1864 0.930 . S
H1860 C1868 0.930 . S
O1861 Co1830 2.037 . S
O1861 C1881 1.234 . S
C1862 O1836 1.269 . S
C1862 O1837 1.257 . S
C1863 H1838 0.930 . S
C1863 C1866 1.388 . S
C1863 C1868 1.418 . S
C1864 H1859 0.930 . S
C1864 C1867 1.404 . S
C1864 C1868 1.353 . S
N1865 Co1830 2.145 . S
N1865 C1866 1.397 . S
N1865 C1867 1.334 . S
C1866 H1847 0.929 . S
C1866 C1863 1.388 . S
C1866 N1865 1.397 . S
C1867 H1848 0.929 . S
C1867 C1864 1.404 . S
C1867 N1865 1.334 . S
C1868 H1860 0.930 . S
C1868 C1863 1.418 . S
C1868 C1864 1.353 . S
C1869 H1839 0.930 . S
C1869 N1870 1.330 . S
C1869 C1871 1.446 . S
N1870 Co1829 2.151 . S
N1870 C1869 1.330 . S
N1870 C1874 1.418 . S
C1871 H1850 0.929 . S
C1871 C1869 1.446 . S
C1871 C1872 1.332 . S
C1872 H1852 0.931 . S
C1872 C1871 1.332 . S
C1872 C1873 1.267 . S
C1873 H1841 0.929 . S
C1873 C1872 1.267 . S
C1873 C1874 1.251 . S
C1874 H1844 0.929 . S
C1874 N1870 1.418 . S
C1874 C1873 1.251 . S
C1875 H1842 0.930 . S
C1875 C1877 1.406 . S
C1875 C1880 1.261 . S
C1876 H1843 0.930 . S
C1876 N1878 1.325 . S
C1876 C1879 1.357 . S
C1877 H1845 0.928 . S
C1877 C1875 1.406 . S
C1877 N1878 1.261 . S
N1878 Co1829 2.214 . S
N1878 C1876 1.325 . S
N1878 C1877 1.261 . S
C1879 H1849 0.931 . S
C1879 C1876 1.357 . S
C1879 C1880 1.312 . S
C1880 H1851 0.930 . S
C1880 C1875 1.261 . S
C1880 C1879 1.312 . S
C1881 O1853 1.214 . S
C1881 O1861 1.234 . S
C1882 H1854 0.929 . S
C1882 C1885 1.391 . S
C1882 C1887 1.391 . S
C1883 H1855 0.929 . S
C1883 C1884 1.390 . S
C1883 N1886 1.391 . S
C1884 H1856 0.930 . S
C1884 C1883 1.390 . S
C1884 C1885 1.392 . S
C1885 H1857 0.929 . S
C1885 C1882 1.391 . S
C1885 C1884 1.392 . S
N1886 Co1830 2.257 . S
N1886 C1883 1.391 . S
N1886 C1887 1.388 . S
C1887 H1858 0.930 . S
C1887 C1882 1.391 . S
C1887 N1886 1.388 . S
C406 C52 1.781 1_556 S
C111 C465 1.781 1_565 S
C288 C170 1.781 . S
C229 C347 1.781 1_545 S
C878 C524 1.781 1_554 S
C937 C583 1.781 1_565 S
C642 C760 1.781 . S
C701 C819 1.781 1_565 S
C996 C1350 1.781 . S
C1055 C1409 1.781 . S
C1232 C1114 1.781 1_556 S
C1291 C1173 1.781 . S
C1468 C1822 1.781 . S
C1881 C1527 1.781 . S
C1704 C1586 1.781 1_554 S
C1645 C1763 1.781 . S
C33 C1773 1.429 . S
C888 C92 1.429 . S
C151 C1655 1.429 . S
C210 C770 1.429 . S
C1537 C269 1.429 . S
C652 C328 1.429 . S
C387 C1419 1.429 . S
C534 C446 1.429 . S
C505 C1301 1.429 . S
C416 C564 1.429 . S
C623 C1183 1.429 . S
C682 C298 1.429 . S
C1065 C741 1.429 . S
C800 C180 1.429 . S
C859 C947 1.429 . S
C62 C918 1.429 . S
C977 C829 1.429 . S
C1036 C1832 1.429 . S
C711 C1095 1.429 . S
C1154 C1714 1.429 . S
C593 C1213 1.429 . S
C1596 C1272 1.429 . S
C475 C1331 1.429 . S
C1478 C1390 1.429 . S
C1449 C357 1.429 . S
C1360 C1508 1.429 . S
C239 C1567 1.429 . S
C1626 C1242 1.429 . S
C1685 C121 1.429 . S
C1744 C1124 1.429 . S
C3 C1803 1.429 . S
C1862 C1006 1.429 . S
C5 C1244 1.733 . S
C1303 C64 1.733 . S
C123 C1362 1.732 . S
C1185 C182 1.733 . S
C1126 C241 1.733 . S
C949 C300 1.732 . S
C1008 C359 1.733 . S
C1067 C418 1.733 . S
C477 C1716 1.733 . S
C1775 C536 1.733 . S
C1834 C595 1.733 . S
C1657 C654 1.733 . S
C1598 C713 1.733 . S
C1421 C772 1.733 . S
C831 C1480 1.733 . S
C890 C1539 1.733 . S
