# Generated by pormake.
# Topology vcc, (6)-cn, num edge types: 1
# Building blocks:
#     Node 0, Type 0, BuildingBlock: VOLQOD_clean_sbu_1, # of connection points: 6
#     Node 1, Type 0, BuildingBlock: VOLQOD_clean_sbu_1, # of connection points: 6
#     Node 2, Type 0, BuildingBlock: VOLQOD_clean_sbu_1, # of connection points: 6
#     Node 3, Type 0, BuildingBlock: VOLQOD_clean_sbu_1, # of connection points: 6
#     Node 4, Type 0, BuildingBlock: VOLQOD_clean_sbu_1, # of connection points: 6
#     Node 5, Type 0, BuildingBlock: VOLQOD_clean_sbu_1, # of connection points: 6
#     Node 6, Type 0, BuildingBlock: VOLQOD_clean_sbu_1, # of connection points: 6
#     Node 7, Type 0, BuildingBlock: VOLQOD_clean_sbu_1, # of connection points: 6
#     Node 8, Type 0, BuildingBlock: VOLQOD_clean_sbu_1, # of connection points: 6
#     Node 9, Type 0, BuildingBlock: VOLQOD_clean_sbu_1, # of connection points: 6
#     Node 10, Type 0, BuildingBlock: VOLQOD_clean_sbu_1, # of connection points: 6
#     Node 11, Type 0, BuildingBlock: VOLQOD_clean_sbu_1, # of connection points: 6
#     Node 12, Type 0, BuildingBlock: VOLQOD_clean_sbu_1, # of connection points: 6
#     Node 13, Type 0, BuildingBlock: VOLQOD_clean_sbu_1, # of connection points: 6
#     Node 14, Type 0, BuildingBlock: VOLQOD_clean_sbu_1, # of connection points: 6
#     Node 15, Type 0, BuildingBlock: VOLQOD_clean_sbu_1, # of connection points: 6
#     Node 16, Type 0, BuildingBlock: VOLQOD_clean_sbu_1, # of connection points: 6
#     Node 17, Type 0, BuildingBlock: VOLQOD_clean_sbu_1, # of connection points: 6
#     Node 18, Type 0, BuildingBlock: VOLQOD_clean_sbu_1, # of connection points: 6
#     Node 19, Type 0, BuildingBlock: VOLQOD_clean_sbu_1, # of connection points: 6
#     Node 20, Type 0, BuildingBlock: VOLQOD_clean_sbu_1, # of connection points: 6
#     Node 21, Type 0, BuildingBlock: VOLQOD_clean_sbu_1, # of connection points: 6
#     Node 22, Type 0, BuildingBlock: VOLQOD_clean_sbu_1, # of connection points: 6
#     Node 23, Type 0, BuildingBlock: VOLQOD_clean_sbu_1, # of connection points: 6
#     Node 24, Type 0, BuildingBlock: VOLQOD_clean_sbu_1, # of connection points: 6
#     Node 25, Type 0, BuildingBlock: VOLQOD_clean_sbu_1, # of connection points: 6
#     Node 26, Type 0, BuildingBlock: VOLQOD_clean_sbu_1, # of connection points: 6
#     Node 27, Type 0, BuildingBlock: VOLQOD_clean_sbu_1, # of connection points: 6
#     Node 28, Type 0, BuildingBlock: VOLQOD_clean_sbu_1, # of connection points: 6
#     Node 29, Type 0, BuildingBlock: VOLQOD_clean_sbu_1, # of connection points: 6
#     Node 30, Type 0, BuildingBlock: VOLQOD_clean_sbu_1, # of connection points: 6
#     Node 31, Type 0, BuildingBlock: VOLQOD_clean_sbu_1, # of connection points: 6
#     Edge 32, Type (0, 0), BuildingBlock: AJUNOK_clean_linker_0, # of connection points: 2
#     Edge 33, Type (0, 0), BuildingBlock: AJUNOK_clean_linker_0, # of connection points: 2
#     Edge 34, Type (0, 0), BuildingBlock: AJUNOK_clean_linker_0, # of connection points: 2
#     Edge 35, Type (0, 0), BuildingBlock: AJUNOK_clean_linker_0, # of connection points: 2
#     Edge 36, Type (0, 0), BuildingBlock: AJUNOK_clean_linker_0, # of connection points: 2
#     Edge 37, Type (0, 0), BuildingBlock: AJUNOK_clean_linker_0, # of connection points: 2
#     Edge 38, Type (0, 0), BuildingBlock: AJUNOK_clean_linker_0, # of connection points: 2
#     Edge 39, Type (0, 0), BuildingBlock: AJUNOK_clean_linker_0, # of connection points: 2
#     Edge 40, Type (0, 0), BuildingBlock: AJUNOK_clean_linker_0, # of connection points: 2
#     Edge 41, Type (0, 0), BuildingBlock: AJUNOK_clean_linker_0, # of connection points: 2
#     Edge 42, Type (0, 0), BuildingBlock: AJUNOK_clean_linker_0, # of connection points: 2
#     Edge 43, Type (0, 0), BuildingBlock: AJUNOK_clean_linker_0, # of connection points: 2
#     Edge 44, Type (0, 0), BuildingBlock: AJUNOK_clean_linker_0, # of connection points: 2
#     Edge 45, Type (0, 0), BuildingBlock: AJUNOK_clean_linker_0, # of connection points: 2
#     Edge 46, Type (0, 0), BuildingBlock: AJUNOK_clean_linker_0, # of connection points: 2
#     Edge 47, Type (0, 0), BuildingBlock: AJUNOK_clean_linker_0, # of connection points: 2
#     Edge 48, Type (0, 0), BuildingBlock: AJUNOK_clean_linker_0, # of connection points: 2
#     Edge 49, Type (0, 0), BuildingBlock: AJUNOK_clean_linker_0, # of connection points: 2
#     Edge 50, Type (0, 0), BuildingBlock: AJUNOK_clean_linker_0, # of connection points: 2
#     Edge 51, Type (0, 0), BuildingBlock: AJUNOK_clean_linker_0, # of connection points: 2
#     Edge 52, Type (0, 0), BuildingBlock: AJUNOK_clean_linker_0, # of connection points: 2
#     Edge 53, Type (0, 0), BuildingBlock: AJUNOK_clean_linker_0, # of connection points: 2
#     Edge 54, Type (0, 0), BuildingBlock: AJUNOK_clean_linker_0, # of connection points: 2
#     Edge 55, Type (0, 0), BuildingBlock: AJUNOK_clean_linker_0, # of connection points: 2
#     Edge 56, Type (0, 0), BuildingBlock: AJUNOK_clean_linker_0, # of connection points: 2
#     Edge 57, Type (0, 0), BuildingBlock: AJUNOK_clean_linker_0, # of connection points: 2
#     Edge 58, Type (0, 0), BuildingBlock: AJUNOK_clean_linker_0, # of connection points: 2
#     Edge 59, Type (0, 0), BuildingBlock: AJUNOK_clean_linker_0, # of connection points: 2
#     Edge 60, Type (0, 0), BuildingBlock: AJUNOK_clean_linker_0, # of connection points: 2
#     Edge 61, Type (0, 0), BuildingBlock: AJUNOK_clean_linker_0, # of connection points: 2
#     Edge 62, Type (0, 0), BuildingBlock: AJUNOK_clean_linker_0, # of connection points: 2
#     Edge 63, Type (0, 0), BuildingBlock: AJUNOK_clean_linker_0, # of connection points: 2
#     Edge 64, Type (0, 0), BuildingBlock: AJUNOK_clean_linker_0, # of connection points: 2
#     Edge 65, Type (0, 0), BuildingBlock: AJUNOK_clean_linker_0, # of connection points: 2
#     Edge 66, Type (0, 0), BuildingBlock: AJUNOK_clean_linker_0, # of connection points: 2
#     Edge 67, Type (0, 0), BuildingBlock: AJUNOK_clean_linker_0, # of connection points: 2
#     Edge 68, Type (0, 0), BuildingBlock: AJUNOK_clean_linker_0, # of connection points: 2
#     Edge 69, Type (0, 0), BuildingBlock: AJUNOK_clean_linker_0, # of connection points: 2
#     Edge 70, Type (0, 0), BuildingBlock: AJUNOK_clean_linker_0, # of connection points: 2
#     Edge 71, Type (0, 0), BuildingBlock: AJUNOK_clean_linker_0, # of connection points: 2
#     Edge 72, Type (0, 0), BuildingBlock: AJUNOK_clean_linker_0, # of connection points: 2
#     Edge 73, Type (0, 0), BuildingBlock: AJUNOK_clean_linker_0, # of connection points: 2
#     Edge 74, Type (0, 0), BuildingBlock: AJUNOK_clean_linker_0, # of connection points: 2
#     Edge 75, Type (0, 0), BuildingBlock: AJUNOK_clean_linker_0, # of connection points: 2
#     Edge 76, Type (0, 0), BuildingBlock: AJUNOK_clean_linker_0, # of connection points: 2
#     Edge 77, Type (0, 0), BuildingBlock: AJUNOK_clean_linker_0, # of connection points: 2
#     Edge 78, Type (0, 0), BuildingBlock: AJUNOK_clean_linker_0, # of connection points: 2
#     Edge 79, Type (0, 0), BuildingBlock: AJUNOK_clean_linker_0, # of connection points: 2
#     Edge 80, Type (0, 0), BuildingBlock: AJUNOK_clean_linker_0, # of connection points: 2
#     Edge 81, Type (0, 0), BuildingBlock: AJUNOK_clean_linker_0, # of connection points: 2
#     Edge 82, Type (0, 0), BuildingBlock: AJUNOK_clean_linker_0, # of connection points: 2
#     Edge 83, Type (0, 0), BuildingBlock: AJUNOK_clean_linker_0, # of connection points: 2
#     Edge 84, Type (0, 0), BuildingBlock: AJUNOK_clean_linker_0, # of connection points: 2
#     Edge 85, Type (0, 0), BuildingBlock: AJUNOK_clean_linker_0, # of connection points: 2
#     Edge 86, Type (0, 0), BuildingBlock: AJUNOK_clean_linker_0, # of connection points: 2
#     Edge 87, Type (0, 0), BuildingBlock: AJUNOK_clean_linker_0, # of connection points: 2
#     Edge 88, Type (0, 0), BuildingBlock: AJUNOK_clean_linker_0, # of connection points: 2
#     Edge 89, Type (0, 0), BuildingBlock: AJUNOK_clean_linker_0, # of connection points: 2
#     Edge 90, Type (0, 0), BuildingBlock: AJUNOK_clean_linker_0, # of connection points: 2
#     Edge 91, Type (0, 0), BuildingBlock: AJUNOK_clean_linker_0, # of connection points: 2
#     Edge 92, Type (0, 0), BuildingBlock: AJUNOK_clean_linker_0, # of connection points: 2
#     Edge 93, Type (0, 0), BuildingBlock: AJUNOK_clean_linker_0, # of connection points: 2
#     Edge 94, Type (0, 0), BuildingBlock: AJUNOK_clean_linker_0, # of connection points: 2
#     Edge 95, Type (0, 0), BuildingBlock: AJUNOK_clean_linker_0, # of connection points: 2
#     Edge 96, Type (0, 0), BuildingBlock: AJUNOK_clean_linker_0, # of connection points: 2
#     Edge 97, Type (0, 0), BuildingBlock: AJUNOK_clean_linker_0, # of connection points: 2
#     Edge 98, Type (0, 0), BuildingBlock: AJUNOK_clean_linker_0, # of connection points: 2
#     Edge 99, Type (0, 0), BuildingBlock: AJUNOK_clean_linker_0, # of connection points: 2
#     Edge 100, Type (0, 0), BuildingBlock: AJUNOK_clean_linker_0, # of connection points: 2
#     Edge 101, Type (0, 0), BuildingBlock: AJUNOK_clean_linker_0, # of connection points: 2
#     Edge 102, Type (0, 0), BuildingBlock: AJUNOK_clean_linker_0, # of connection points: 2
#     Edge 103, Type (0, 0), BuildingBlock: AJUNOK_clean_linker_0, # of connection points: 2
#     Edge 104, Type (0, 0), BuildingBlock: AJUNOK_clean_linker_0, # of connection points: 2
#     Edge 105, Type (0, 0), BuildingBlock: AJUNOK_clean_linker_0, # of connection points: 2
#     Edge 106, Type (0, 0), BuildingBlock: AJUNOK_clean_linker_0, # of connection points: 2
#     Edge 107, Type (0, 0), BuildingBlock: AJUNOK_clean_linker_0, # of connection points: 2
#     Edge 108, Type (0, 0), BuildingBlock: AJUNOK_clean_linker_0, # of connection points: 2
#     Edge 109, Type (0, 0), BuildingBlock: AJUNOK_clean_linker_0, # of connection points: 2
#     Edge 110, Type (0, 0), BuildingBlock: AJUNOK_clean_linker_0, # of connection points: 2
#     Edge 111, Type (0, 0), BuildingBlock: AJUNOK_clean_linker_0, # of connection points: 2
#     Edge 112, Type (0, 0), BuildingBlock: AJUNOK_clean_linker_0, # of connection points: 2
#     Edge 113, Type (0, 0), BuildingBlock: AJUNOK_clean_linker_0, # of connection points: 2
#     Edge 114, Type (0, 0), BuildingBlock: AJUNOK_clean_linker_0, # of connection points: 2
#     Edge 115, Type (0, 0), BuildingBlock: AJUNOK_clean_linker_0, # of connection points: 2
#     Edge 116, Type (0, 0), BuildingBlock: AJUNOK_clean_linker_0, # of connection points: 2
#     Edge 117, Type (0, 0), BuildingBlock: AJUNOK_clean_linker_0, # of connection points: 2
#     Edge 118, Type (0, 0), BuildingBlock: AJUNOK_clean_linker_0, # of connection points: 2
#     Edge 119, Type (0, 0), BuildingBlock: AJUNOK_clean_linker_0, # of connection points: 2
#     Edge 120, Type (0, 0), BuildingBlock: AJUNOK_clean_linker_0, # of connection points: 2
#     Edge 121, Type (0, 0), BuildingBlock: AJUNOK_clean_linker_0, # of connection points: 2
#     Edge 122, Type (0, 0), BuildingBlock: AJUNOK_clean_linker_0, # of connection points: 2
#     Edge 123, Type (0, 0), BuildingBlock: AJUNOK_clean_linker_0, # of connection points: 2
#     Edge 124, Type (0, 0), BuildingBlock: AJUNOK_clean_linker_0, # of connection points: 2
#     Edge 125, Type (0, 0), BuildingBlock: AJUNOK_clean_linker_0, # of connection points: 2
#     Edge 126, Type (0, 0), BuildingBlock: AJUNOK_clean_linker_0, # of connection points: 2
#     Edge 127, Type (0, 0), BuildingBlock: AJUNOK_clean_linker_0, # of connection points: 2
# Relax obj value: 0.034
# Max RMSD: 0.059
# Mean RMSD: 0.059
data_MOF--net-vcc--node1-VOLQOD_clean_sbu_1--edge1-AJUNOK_clean_linker_0
_symmetry_space_group_name_H-M    P1
_symmetry_Int_Tables_number       1
_symmetry_cell_setting            triclinic
loop_
_symmetry_equiv_pos_as_xyz
'x, y, z'
_cell_length_a     44.701328
_cell_length_b     51.767867
_cell_length_c     28.932475
_cell_angle_alpha  90.114653
_cell_angle_beta   90.010124
_cell_angle_gamma 90.012596
loop_
_atom_site_label
_atom_site_type_symbol
_atom_site_fract_x
_atom_site_fract_y
_atom_site_fract_z
_atom_type_partial_charge
O0 O 0.28673 0.96386 0.02995 0.0
Zn1 Zn 0.31815 0.95937 0.08096 0.0
O2 O 0.34871 -0.01406 0.07926 0.0
Zn3 Zn 0.38655 0.97205 0.05777 0.0
Zn4 Zn 0.33252 0.01212 0.0393 0.0
Zn5 Zn 0.35592 0.00171 0.13826 0.0
O6 O 0.42164 0.98204 0.10057 0.0
O7 O 0.39634 -0.00686 0.16375 0.0
O8 O 0.33718 0.92383 0.07784 0.0
O9 O 0.38443 0.93339 0.06132 0.0
O10 O 0.39117 0.98134 0.98975 0.0
O11 O 0.35314 0.00864 0.98078 0.0
O12 O 0.33847 0.04802 0.06291 0.0
O13 O 0.29621 0.96387 0.14056 0.0
O14 O 0.35555 0.04016 0.13326 0.0
O15 O 0.32302 -0.00775 0.18095 0.0
C16 C 0.27679 0.98477 0.01235 0.0
C17 C 0.42094 -0.01198 0.14353 0.0
C18 C 0.37481 -0.00419 0.96443 0.0
C19 C 0.36409 0.91685 0.06981 0.0
C20 C 0.34817 0.05596 0.10172 0.0
C21 C 0.30038 0.97751 0.17669 0.0
O22 O 0.28989 0.0062 0.01986 0.0
O23 O 0.96683 0.25833 0.02948 0.0
Zn24 Zn 0.93755 0.2621 0.08371 0.0
O25 O 0.90698 0.23594 0.08285 0.0
Zn26 Zn 0.86943 0.24962 0.06086 0.0
Zn27 Zn 0.92468 0.21045 0.04349 0.0
Zn28 Zn 0.89924 0.22034 0.14131 0.0
O29 O 0.83401 0.23781 0.10168 0.0
O30 O 0.85912 0.23065 0.16685 0.0
O31 O 0.91838 0.29724 0.08254 0.0
O32 O 0.87088 0.28863 0.06588 0.0
O33 O 0.86664 0.24089 -0.00745 0.0
O34 O 0.9061 0.21506 0.98321 0.0
O35 O 0.91737 0.1748 0.06568 0.0
O36 O 0.96082 0.25688 0.14237 0.0
O37 O 0.89933 0.1815 0.13606 0.0
O38 O 0.93248 0.22972 0.18299 0.0
C39 C 0.97926 0.23723 0.01728 0.0
C40 C 0.83452 0.23402 0.14542 0.0
C41 C 0.88414 0.22759 0.96688 0.0
C42 C 0.8917 0.30478 0.0747 0.0
C43 C 0.90711 0.16626 0.10362 0.0
C44 C 0.95581 0.24357 0.17864 0.0
O45 O 0.96859 0.21563 0.03006 0.0
O46 O 0.28939 0.25818 0.20526 0.0
Zn47 Zn 0.31873 0.26194 0.15123 0.0
O48 O 0.35024 0.23651 0.15324 0.0
Zn49 Zn 0.38711 0.25182 0.17468 0.0
Zn50 Zn 0.33415 0.21053 0.19334 0.0
Zn51 Zn 0.35852 0.22052 0.09492 0.0
O52 O 0.42296 0.24092 0.13387 0.0
O53 O 0.39826 0.23146 0.06907 0.0
O54 O 0.33643 0.29785 0.15059 0.0
O55 O 0.38403 0.29051 0.16824 0.0
O56 O 0.39035 0.24412 0.24331 0.0
O57 O 0.35467 0.21433 0.25214 0.0
O58 O 0.34091 0.17499 0.17024 0.0
O59 O 0.29551 0.25487 0.09322 0.0
O60 O 0.35951 0.18177 0.1003 0.0
O61 O 0.32488 0.22828 0.05309 0.0
C62 C 0.2786 0.23701 0.22038 0.0
C63 C 0.42258 0.2362 0.0904 0.0
C64 C 0.37525 0.22854 0.26836 0.0
C65 C 0.36286 0.30607 0.15842 0.0
C66 C 0.35155 0.16653 0.13247 0.0
C67 C 0.30073 0.24102 0.0576 0.0
O68 O 0.29075 0.21549 0.21052 0.0
O69 O 0.96631 0.96285 0.20219 0.0
Zn70 Zn 0.93563 0.95911 0.15029 0.0
O71 O 0.90433 -0.01482 0.15422 0.0
Zn72 Zn 0.86659 0.96977 0.17237 0.0
Zn73 Zn 0.91856 0.01106 0.1974 0.0
Zn74 Zn 0.89721 0.00196 0.0962 0.0
O75 O 0.83171 0.9801 0.12964 0.0
O76 O 0.85722 -0.006 0.06874 0.0
O77 O 0.91764 0.92296 0.15042 0.0
O78 O 0.87 0.93142 0.16624 0.0
O79 O 0.86018 0.97744 0.24024 0.0
O80 O 0.89373 0.0086 0.25253 0.0
O81 O 0.91579 0.04727 0.17339 0.0
O82 O 0.95844 0.9656 0.09167 0.0
O83 O 0.89819 0.04017 0.10302 0.0
O84 O 0.93022 -0.00622 0.05357 0.0
C85 C 0.97456 0.98272 0.2251 0.0
C86 C 0.83259 -0.01233 0.08759 0.0
C87 C 0.87293 -0.00607 0.26652 0.0
C88 C 0.89081 0.9154 0.15731 0.0
C89 C 0.90655 0.0556 0.13463 0.0
C90 C 0.95368 0.98007 0.05683 0.0
O91 O 0.95991 0.00377 0.22258 0.0
O92 O 0.71749 0.00803 0.94843 0.0
Zn93 Zn 0.68577 0.01201 0.89819 0.0
O94 O 0.65427 -0.01378 0.90221 0.0
Zn95 Zn 0.61701 0.00224 0.92209 0.0
Zn96 Zn 0.6689 0.96066 0.94525 0.0
Zn97 Zn 0.64679 0.96886 0.84413 0.0
O98 O 0.5819 -0.00699 0.87908 0.0
O99 O 0.60595 0.97641 0.81866 0.0
O100 O 0.66847 0.04807 0.90053 0.0
O101 O 0.62089 0.04078 0.91798 0.0
O102 O 0.61082 -0.006 -0.00997 0.0
O103 O 0.64494 0.96324 0.001 0.0
O104 O 0.66582 0.92467 0.92191 0.0
O105 O 0.70704 0.00638 0.8384 0.0
O106 O 0.64886 0.9304 0.85079 0.0
O107 O 0.67886 0.97817 0.79982 0.0
C108 C 0.72564 -0.01187 0.9711 0.0
C109 C 0.58197 0.98449 0.83752 0.0
C110 C 0.62408 0.97759 0.01577 0.0
C111 C 0.64219 0.05634 0.90913 0.0
C112 C 0.65698 0.9156 0.88348 0.0
C113 C 0.70184 -0.00742 0.80278 0.0
O114 O 0.71051 0.96735 0.96913 0.0
O115 O 0.03564 0.71153 0.94586 0.0
Zn116 Zn 0.06734 0.70788 0.89507 0.0
O117 O 0.09818 0.73416 0.90003 0.0
Zn118 Zn 0.13552 0.71962 0.92177 0.0
Zn119 Zn 0.08204 0.75989 0.9414 0.0
Zn120 Zn 0.10677 0.75055 0.84216 0.0
O121 O 0.17142 0.72994 0.88147 0.0
O122 O 0.14772 0.74251 0.81793 0.0
O123 O 0.08605 0.67209 0.89676 0.0
O124 O 0.13302 0.68117 0.9161 0.0
O125 O 0.13955 0.72768 -0.00997 0.0
O126 O 0.10292 0.75629 -7e-05 0.0
O127 O 0.08652 0.79599 0.91818 0.0
O128 O 0.04598 0.71392 0.83496 0.0
O129 O 0.10504 0.78882 0.84834 0.0
O130 O 0.07498 0.74177 0.79748 0.0
C131 C 0.02604 0.73194 0.96583 0.0
C132 C 0.17179 0.73653 0.83889 0.0
C133 C 0.12392 0.74248 0.01582 0.0
C134 C 0.11275 0.66489 0.90577 0.0
C135 C 0.09624 0.80426 0.87967 0.0
C136 C 0.05155 0.72794 0.79977 0.0
O137 O 0.03969 0.75334 0.96121 0.0
O138 O 0.71549 0.7124 0.77398 0.0
Zn139 Zn 0.68598 0.70893 0.8281 0.0
O140 O 0.65527 0.7353 0.8264 0.0
Zn141 Zn 0.61773 0.72111 0.80519 0.0
Zn142 Zn 0.67216 0.76144 0.78695 0.0
Zn143 Zn 0.64757 0.75098 0.88493 0.0
O144 O 0.58208 0.73199 0.84657 0.0
O145 O 0.60707 0.74311 0.90997 0.0
O146 O 0.66698 0.67328 0.82799 0.0
O147 O 0.61979 0.68255 0.81047 0.0
O148 O 0.61454 0.72959 0.73698 0.0
O149 O 0.65099 0.75873 0.72827 0.0
O150 O 0.66745 0.79723 0.8114 0.0
O151 O 0.70935 0.71527 0.88664 0.0
O152 O 0.6494 0.78938 0.88117 0.0
O153 O 0.67977 0.74132 0.92746 0.0
C154 C 0.72688 0.7334 0.75906 0.0
C155 C 0.58253 0.73831 0.8894 0.0
C156 C 0.62988 0.74506 0.71208 0.0
C157 C 0.64009 0.66617 0.82008 0.0
C158 C 0.65795 0.80513 0.85031 0.0
C159 C 0.70384 0.72856 0.92289 0.0
O160 O 0.71531 0.75514 0.76922 0.0
O161 O 0.03612 0.00705 0.77893 0.0
Zn162 Zn 0.06774 0.01144 0.82987 0.0
O163 O 0.09887 0.98508 0.82777 0.0
Zn164 Zn 0.13665 -1e-05 0.80831 0.0
Zn165 Zn 0.08454 0.95925 0.78519 0.0
Zn166 Zn 0.10567 0.96836 0.88668 0.0
O167 O 0.17113 -0.00943 0.85198 0.0
O168 O 0.14627 0.97632 0.91338 0.0
O169 O 0.08606 0.04737 0.82785 0.0
O170 O 0.13362 0.03839 0.81256 0.0
O171 O 0.14365 -0.00886 0.7408 0.0
O172 O 0.1093 0.96056 0.73011 0.0
O173 O 0.08695 0.92367 0.80979 0.0
O174 O 0.04588 0.00648 0.88932 0.0
O175 O 0.10388 0.92975 0.88089 0.0
O176 O 0.07275 0.97808 0.92938 0.0
C177 C 0.02842 -0.01319 0.75662 0.0
C178 C 0.17061 0.98333 0.89422 0.0
C179 C 0.1307 0.97432 0.71547 0.0
C180 C 0.11297 0.05465 0.8208 0.0
C181 C 0.09574 0.9148 0.84831 0.0
C182 C 0.05009 -0.0072 0.92528 0.0
O183 O 0.04348 0.96606 0.75997 0.0
O184 O 0.28646 0.46164 0.52757 0.0
Zn185 Zn 0.31678 0.4582 0.58079 0.0
O186 O 0.34651 0.4852 0.58023 0.0
Zn187 Zn 0.38395 0.47203 0.55707 0.0
Zn188 Zn 0.32759 0.51011 0.54126 0.0
Zn189 Zn 0.35385 0.50171 0.6384 0.0
O190 O 0.41918 0.4829 0.59834 0.0
O191 O 0.39505 0.49368 0.66288 0.0
O192 O 0.33657 0.42307 0.57963 0.0
O193 O 0.38335 0.43322 0.56131 0.0
O194 O 0.38652 0.48141 0.48897 0.0
O195 O 0.34509 0.50506 0.48059 0.0
O196 O 0.33477 0.5463 0.56138 0.0
O197 O 0.29409 0.46332 0.63959 0.0
O198 O 0.35231 0.5404 0.63217 0.0
O199 O 0.32088 0.49155 0.68069 0.0
C200 C 0.27306 0.48261 0.51718 0.0
C201 C 0.4193 0.4886 0.64144 0.0
C202 C 0.36766 0.49356 0.46387 0.0
C203 C 0.36351 0.41644 0.57114 0.0
C204 C 0.34467 0.55529 0.59928 0.0
C205 C 0.29812 0.47695 0.67583 0.0
O206 O 0.28364 0.50423 0.5303 0.0
O207 O 0.96361 0.75754 0.52011 0.0
Zn208 Zn 0.93467 0.76198 0.57451 0.0
O209 O 0.9043 0.73553 0.57557 0.0
Zn210 Zn 0.86647 0.7488 0.55433 0.0
Zn211 Zn 0.92111 0.70892 0.53734 0.0
Zn212 Zn 0.89723 0.7214 0.63549 0.0
O213 O 0.83159 0.73733 0.59686 0.0
O214 O 0.85761 0.73258 0.66185 0.0
O215 O 0.91541 0.79734 0.57352 0.0
O216 O 0.86791 0.78767 0.55872 0.0
O217 O 0.86299 0.73938 0.48627 0.0
O218 O 0.90013 0.71086 0.47823 0.0
O219 O 0.91521 0.67379 0.56355 0.0
O220 O 0.95905 0.75699 0.63201 0.0
O221 O 0.89648 0.6826 0.63273 0.0
O222 O 0.93161 0.73059 0.67539 0.0
C223 C 0.97565 0.73627 0.5078 0.0
C224 C 0.83266 0.73489 0.64091 0.0
C225 C 0.87856 0.72382 0.46173 0.0
C226 C 0.88835 0.80427 0.56674 0.0
C227 C 0.90477 0.6664 0.60218 0.0
C228 C 0.95516 0.74393 0.66885 0.0
O229 O 0.96456 0.71472 0.52024 0.0
O230 O 0.28758 0.75738 0.70378 0.0
Zn231 Zn 0.31827 0.76194 0.65237 0.0
O232 O 0.34982 0.7363 0.65383 0.0
Zn233 Zn 0.3867 0.75225 0.67484 0.0
Zn234 Zn 0.33545 0.70965 0.69474 0.0
Zn235 Zn 0.35709 0.72047 0.59434 0.0
O236 O 0.42202 0.74283 0.6323 0.0
O237 O 0.39799 0.72907 0.56954 0.0
O238 O 0.33519 0.79805 0.65417 0.0
O239 O 0.38292 0.79097 0.67086 0.0
O240 O 0.39184 0.74335 0.74287 0.0
O241 O 0.35952 0.71086 0.75036 0.0
O242 O 0.3383 0.67418 0.66861 0.0
O243 O 0.29586 0.75635 0.59408 0.0
O244 O 0.35574 0.68177 0.59836 0.0
O245 O 0.32383 0.72986 0.55158 0.0
C246 C 0.27963 0.73694 0.72499 0.0
C247 C 0.4221 0.73583 0.58981 0.0
C248 C 0.37934 0.72571 0.76692 0.0
C249 C 0.36147 0.80645 0.66229 0.0
C250 C 0.34732 0.66611 0.62955 0.0
C251 C 0.30023 0.74327 0.55744 0.0
O252 O 0.29419 0.716 0.72019 0.0
O253 O 0.96491 0.46303 0.7022 0.0
Zn254 Zn 0.93369 0.45924 0.65086 0.0
O255 O 0.90292 0.48563 0.65444 0.0
Zn256 Zn 0.86506 0.47117 0.67468 0.0
Zn257 Zn 0.91838 0.51146 0.69605 0.0
Zn258 Zn 0.89543 0.50211 0.59615 0.0
O259 O 0.82996 0.48221 0.63255 0.0
O260 O 0.8557 0.4921 0.56931 0.0
O261 O 0.91482 0.42356 0.65245 0.0
O262 O 0.86739 0.43252 0.669 0.0
O263 O 0.86002 0.47937 0.74302 0.0
O264 O 0.89518 0.50943 0.75249 0.0
O265 O 0.91443 0.54724 0.67219 0.0
O266 O 0.95584 0.46459 0.59133 0.0
O267 O 0.89529 0.5408 0.60247 0.0
O268 O 0.92856 0.49362 0.5535 0.0
C269 C 0.97406 0.48327 0.7232 0.0
C270 C 0.83094 0.48725 0.58926 0.0
C271 C 0.87406 0.49569 0.76809 0.0
C272 C 0.88797 0.41625 0.66 0.0
C273 C 0.90393 0.55592 0.63452 0.0
C274 C 0.95128 0.47894 0.55626 0.0
O275 O 0.96015 0.50459 0.71909 0.0
O276 O 0.71386 0.5089 0.45633 0.0
Zn277 Zn 0.68467 0.51236 0.40225 0.0
O278 O 0.65439 0.48576 0.40241 0.0
Zn279 Zn 0.61698 0.5 0.42387 0.0
Zn280 Zn 0.67129 0.45964 0.44174 0.0
Zn281 Zn 0.64751 0.47007 0.34326 0.0
O282 O 0.58204 0.48956 0.38129 0.0
O283 O 0.60694 0.47852 0.31763 0.0
O284 O 0.66594 0.54791 0.40225 0.0
O285 O 0.61875 0.53873 0.41954 0.0
O286 O 0.61312 0.49079 0.4919 0.0
O287 O 0.64974 0.46181 0.49983 0.0
O288 O 0.6668 0.42395 0.41723 0.0
O289 O 0.70853 0.50662 0.34488 0.0
O290 O 0.64869 0.43144 0.34739 0.0
O291 O 0.68106 0.47979 0.302 0.0
C292 C 0.72536 0.48795 0.47107 0.0
C293 C 0.58247 0.48375 0.33823 0.0
C294 C 0.62834 0.47497 0.5163 0.0
C295 C 0.63912 0.55509 0.41012 0.0
C296 C 0.65712 0.41581 0.3786 0.0
C297 C 0.70453 0.49331 0.30831 0.0
O298 O 0.71411 0.46614 0.46065 0.0
O299 O 0.03951 0.21319 0.45574 0.0
Zn300 Zn 0.07012 0.20847 0.40413 0.0
O301 O 0.10182 0.23397 0.40568 0.0
Zn302 Zn 0.13921 0.21829 0.42482 0.0
Zn303 Zn 0.08818 0.26059 0.44743 0.0
Zn304 Zn 0.10883 0.24948 0.34626 0.0
O305 O 0.17434 0.22924 0.38246 0.0
O306 O 0.14848 0.23914 0.31922 0.0
O307 O 0.08738 0.17246 0.40532 0.0
O308 O 0.13561 0.17951 0.41879 0.0
O309 O 0.14431 0.22599 0.4933 0.0
O310 O 0.11254 0.25874 0.50305 0.0
O311 O 0.09156 0.29606 0.42129 0.0
O312 O 0.04722 0.21416 0.34611 0.0
O313 O 0.10903 0.28817 0.35103 0.0
O314 O 0.07486 0.24124 0.30453 0.0
C315 C 0.03183 0.23366 0.47726 0.0
C316 C 0.17328 0.23431 0.33915 0.0
C317 C 0.13199 0.24322 0.51859 0.0
C318 C 0.1139 0.16404 0.41139 0.0
C319 C 0.10087 0.30397 0.38229 0.0
C320 C 0.05134 0.22776 0.31008 0.0
O321 O 0.04675 0.25446 0.47297 0.0
O322 O 0.71543 0.21145 0.27381 0.0
Zn323 Zn 0.68619 0.20813 0.32816 0.0
O324 O 0.65596 0.23488 0.32836 0.0
Zn325 Zn 0.61795 0.22099 0.3082 0.0
Zn326 Zn 0.67278 0.26038 0.28789 0.0
Zn327 Zn 0.64998 0.25127 0.38725 0.0
O328 O 0.58367 0.23159 0.35215 0.0
O329 O 0.60971 0.24298 0.41447 0.0
O330 O 0.66696 0.17274 0.32804 0.0
O331 O 0.61963 0.18226 0.31214 0.0
O332 O 0.61275 0.23044 0.24036 0.0
O333 O 0.65092 0.25767 0.23003 0.0
O334 O 0.66765 0.29617 0.31066 0.0
O335 O 0.71032 0.21351 0.3857 0.0
O336 O 0.65088 0.29001 0.38175 0.0
O337 O 0.684 0.24156 0.42776 0.0
C338 C 0.72722 0.23245 0.25971 0.0
C339 C 0.58482 0.23783 0.395 0.0
C340 C 0.62838 0.24544 0.21493 0.0
C341 C 0.63998 0.16575 0.32081 0.0
C342 C 0.65831 0.30501 0.34894 0.0
C343 C 0.70692 0.2273 0.4219 0.0
O344 O 0.7159 0.25419 0.27034 0.0
O345 O 0.03689 0.50745 0.27895 0.0
Zn346 Zn 0.06761 0.51132 0.33078 0.0
O347 O 0.09774 0.4845 0.32918 0.0
Zn348 Zn 0.13605 0.49812 0.30952 0.0
Zn349 Zn 0.08207 0.45859 0.28812 0.0
Zn350 Zn 0.10415 0.46864 0.38828 0.0
O351 O 0.17028 0.48654 0.35299 0.0
O352 O 0.14329 0.47957 0.41646 0.0
O353 O 0.08709 0.54668 0.32935 0.0
O354 O 0.13457 0.53689 0.31482 0.0
O355 O 0.14129 0.48965 0.24117 0.0
O356 O 0.10502 0.46061 0.23141 0.0
O357 O 0.08655 0.42297 0.31258 0.0
O358 O 0.04428 0.50646 0.38896 0.0
O359 O 0.10526 0.42988 0.38248 0.0
O360 O 0.06965 0.47699 0.4288 0.0
C361 C 0.02694 0.48692 0.25983 0.0
C362 C 0.16843 0.4831 0.39673 0.0
C363 C 0.12664 0.47381 0.21591 0.0
C364 C 0.1142 0.55353 0.32281 0.0
C365 C 0.09708 0.41454 0.35044 0.0
C366 C 0.04721 0.49188 0.42407 0.0
O367 O 0.04011 0.46536 0.26561 0.0
O368 O 0.78875 0.9636 0.5219 0.0
Zn369 Zn 0.81724 0.95895 0.57668 0.0
O370 O 0.8486 0.98452 0.57816 0.0
Zn371 Zn 0.88544 0.96905 0.55713 0.0
Zn372 Zn 0.83278 0.01085 0.53855 0.0
Zn373 Zn 0.85538 0.00024 0.63747 0.0
O374 O 0.92049 0.97913 0.59969 0.0
O375 O 0.89594 -0.00887 0.66317 0.0
O376 O 0.8343 0.92287 0.57604 0.0
O377 O 0.88221 0.93022 0.56112 0.0
O378 O 0.88974 0.97789 0.48909 0.0
O379 O 0.85349 0.00712 0.47991 0.0
O380 O 0.83976 0.04633 0.56198 0.0
O381 O 0.79319 0.96494 0.63374 0.0
O382 O 0.8553 0.03911 0.63342 0.0
O383 O 0.82111 -0.00919 0.67794 0.0
C384 C 0.77742 0.98507 0.50944 0.0
C385 C 0.9203 -0.01463 0.64257 0.0
C386 C 0.87459 -0.0066 0.46395 0.0
C387 C 0.86075 0.9146 0.5689 0.0
C388 C 0.84884 0.0546 0.60084 0.0
C389 C 0.79729 0.97785 0.67076 0.0
O390 O 0.7892 0.00635 0.52187 0.0
O391 O 0.46839 0.25803 0.53176 0.0
Zn392 Zn 0.43678 0.26209 0.58222 0.0
O393 O 0.40533 0.23626 0.57858 0.0
Zn394 Zn 0.36797 0.25242 0.56015 0.0
Zn395 Zn 0.4195 0.21087 0.53457 0.0
Zn396 Zn 0.39827 0.21872 0.63664 0.0
O397 O 0.33339 0.24269 0.6034 0.0
O398 O 0.35789 0.22709 0.66409 0.0
O399 O 0.41969 0.29839 0.5812 0.0
O400 O 0.37192 0.29095 0.56518 0.0
O401 O 0.36066 0.24456 0.49244 0.0
O402 O 0.39514 0.21435 0.47929 0.0
O403 O 0.41538 0.17461 0.55678 0.0
O404 O 0.45876 0.25562 0.64082 0.0
O405 O 0.39859 0.18027 0.62809 0.0
O406 O 0.43208 0.22646 0.67946 0.0
C407 C 0.47659 0.23807 0.50911 0.0
C408 C 0.33367 0.2347 0.64521 0.0
C409 C 0.3738 0.22854 0.46573 0.0
C410 C 0.39324 0.30659 0.5736 0.0
C411 C 0.4061 0.16549 0.59489 0.0
C412 C 0.45504 0.24086 0.67548 0.0
O413 O 0.46134 0.21732 0.51069 0.0
O414 O 0.78699 0.25614 0.70167 0.0
Zn415 Zn 0.81823 0.26083 0.65049 0.0
O416 O 0.85033 0.23565 0.65384 0.0
Zn417 Zn 0.88736 0.25181 0.67423 0.0
Zn418 Zn 0.83571 0.20952 0.69573 0.0
Zn419 Zn 0.85864 0.21932 0.59549 0.0
O420 O 0.92315 0.24211 0.63298 0.0
O421 O 0.89943 0.22792 0.57048 0.0
O422 O 0.83516 0.29711 0.65227 0.0
O423 O 0.88306 0.29043 0.66874 0.0
O424 O 0.89276 0.24398 0.74241 0.0
O425 O 0.85707 0.21446 0.75352 0.0
O426 O 0.84169 0.17338 0.67267 0.0
O427 O 0.79679 0.25471 0.59076 0.0
O428 O 0.85792 0.18093 0.6017 0.0
O429 O 0.82613 0.22781 0.55143 0.0
C430 C 0.77857 0.23548 0.72189 0.0
C431 C 0.92348 0.2348 0.5907 0.0
C432 C 0.87786 0.22884 0.76851 0.0
C433 C 0.86144 0.30571 0.66 0.0
C434 C 0.85072 0.16526 0.63357 0.0
C435 C 0.80244 0.24128 0.55483 0.0
O436 O 0.79314 0.21457 0.7167 0.0
O437 O 0.46598 0.96369 0.70244 0.0
Zn438 Zn 0.43532 0.95883 0.65049 0.0
O439 O 0.40492 -0.01463 0.6507 0.0
Zn440 Zn 0.36698 0.97224 0.67251 0.0
Zn441 Zn 0.42146 0.01172 0.68964 0.0
Zn442 Zn 0.39745 -7e-05 0.5911 0.0
O443 O 0.33187 0.98333 0.63058 0.0
O444 O 0.35745 -0.01083 0.56548 0.0
O445 O 0.41595 0.92359 0.6539 0.0
O446 O 0.36848 0.9334 0.6686 0.0
O447 O 0.36326 0.98141 0.74061 0.0
O448 O 0.40196 0.00822 0.74924 0.0
O449 O 0.41514 0.0471 0.66462 0.0
O450 O 0.45804 0.96279 0.5915 0.0
O451 O 0.39759 0.03875 0.59447 0.0
O452 O 0.43089 -0.00979 0.54978 0.0
C453 C 0.47667 0.98492 0.71776 0.0
C454 C 0.33269 -0.01381 0.58664 0.0
C455 C 0.38032 -0.00459 0.7657 0.0
C456 C 0.38891 0.91674 0.66109 0.0
C457 C 0.40543 0.05475 0.62566 0.0
C458 C 0.45384 0.97596 0.55492 0.0
O459 O 0.46444 0.00635 0.70747 0.0
O460 O 0.21455 0.0067 0.45603 0.0
Zn461 Zn 0.1853 0.01028 0.40196 0.0
O462 O 0.15448 0.9841 0.40366 0.0
Zn463 Zn 0.11729 -0.00136 0.42565 0.0
Zn464 Zn 0.17153 0.95774 0.4425 0.0
Zn465 Zn 0.14666 0.9685 0.34505 0.0
O466 O 0.0816 -0.01154 0.3837 0.0
O467 O 0.1064 0.97754 0.31994 0.0
O468 O 0.16689 0.04607 0.40209 0.0
O469 O 0.11986 0.03734 0.42129 0.0
O470 O 0.11396 -0.01065 0.49378 0.0
O471 O 0.15061 0.96032 0.50133 0.0
O472 O 0.16592 0.92194 0.41816 0.0
O473 O 0.20883 0.00384 0.34385 0.0
O474 O 0.14676 0.92997 0.34918 0.0
O475 O 0.17978 0.97731 0.303 0.0
C476 C 0.2262 -0.0143 0.47035 0.0
C477 C 0.08195 0.98252 0.34068 0.0
C478 C 0.12933 0.97356 0.51805 0.0
C479 C 0.14029 0.05351 0.41102 0.0
C480 C 0.15532 0.9141 0.37987 0.0
C481 C 0.20377 -0.00977 0.30785 0.0
O482 O 0.21486 0.96393 0.45972 0.0
O483 O 0.53767 0.71462 0.45388 0.0
Zn484 Zn 0.56809 0.70982 0.40183 0.0
O485 O 0.59985 0.73532 0.40274 0.0
Zn486 Zn 0.63741 0.71966 0.42094 0.0
Zn487 Zn 0.58653 0.76154 0.44529 0.0
Zn488 Zn 0.60651 0.75127 0.34337 0.0
O489 O 0.67194 0.73052 0.37811 0.0
O490 O 0.64604 0.74079 0.31509 0.0
O491 O 0.58533 0.67375 0.40311 0.0
O492 O 0.63365 0.68094 0.41554 0.0
O493 O 0.64431 0.72763 0.48862 0.0
O494 O 0.61125 0.75915 0.50042 0.0
O495 O 0.59071 0.79699 0.42024 0.0
O496 O 0.54498 0.7154 0.34393 0.0
O497 O 0.60732 0.79009 0.34912 0.0
O498 O 0.57192 0.74314 0.30261 0.0
C499 C 0.53002 0.73516 0.47528 0.0
C500 C 0.67084 0.73582 0.33496 0.0
C501 C 0.6319 0.74442 0.51465 0.0
C502 C 0.61193 0.66541 0.40878 0.0
C503 C 0.6 0.80543 0.38165 0.0
C504 C 0.54866 0.72928 0.30813 0.0
O505 O 0.54501 0.7559 0.47067 0.0
O506 O 0.21794 0.71248 0.27907 0.0
Zn507 Zn 0.18722 0.70781 0.33121 0.0
O508 O 0.15544 0.73324 0.32913 0.0
Zn509 Zn 0.118 0.71811 0.30863 0.0
Zn510 Zn 0.17066 0.75901 0.28786 0.0
Zn511 Zn 0.14744 0.74952 0.38741 0.0
O512 O 0.08248 0.72917 0.34988 0.0
O513 O 0.10754 0.73901 0.41397 0.0
O514 O 0.16943 0.67186 0.32959 0.0
O515 O 0.12142 0.67936 0.3147 0.0
O516 O 0.11327 0.72569 0.24008 0.0
O517 O 0.15075 0.7535 0.22931 0.0
O518 O 0.16321 0.79481 0.30974 0.0
O519 O 0.20951 0.71367 0.39035 0.0
O520 O 0.14676 0.78829 0.38103 0.0
O521 O 0.181 0.74137 0.42952 0.0
C522 C 0.22722 0.73359 0.26136 0.0
C523 C 0.083 0.73419 0.39323 0.0
C524 C 0.12951 0.73977 0.214 0.0
C525 C 0.14284 0.66371 0.32276 0.0
C526 C 0.15358 0.80345 0.34807 0.0
C527 C 0.20442 0.72755 0.42594 0.0
O528 O 0.21362 0.7547 0.26937 0.0
O529 O 0.53717 0.00748 0.28024 0.0
Zn530 Zn 0.56804 0.0114 0.33148 0.0
O531 O 0.59956 -0.01408 0.32711 0.0
Zn532 Zn 0.63679 0.00138 0.30693 0.0
Zn533 Zn 0.58462 0.95956 0.28585 0.0
Zn534 Zn 0.60795 0.97018 0.38544 0.0
O535 O 0.67246 -0.00893 0.34876 0.0
O536 O 0.64687 0.98189 0.41255 0.0
O537 O 0.58554 0.04737 0.33065 0.0
O538 O 0.6331 0.04007 0.31257 0.0
O539 O 0.64136 -0.00663 0.23862 0.0
O540 O 0.60775 0.96196 0.22901 0.0
O541 O 0.58903 0.92384 0.31122 0.0
O542 O 0.54567 0.00483 0.39019 0.0
O543 O 0.60963 0.93174 0.37951 0.0
O544 O 0.57437 0.97689 0.42786 0.0
C545 C 0.52823 -0.01277 0.25915 0.0
C546 C 0.67147 -0.01307 0.39236 0.0
C547 C 0.62788 0.9768 0.21333 0.0
C548 C 0.61186 0.05562 0.32216 0.0
C549 C 0.6003 0.91596 0.34902 0.0
C550 C 0.55067 -0.00972 0.42481 0.0
O551 O 0.5425 0.96603 0.26282 0.0
O552 O 0.78506 0.4618 0.03023 0.0
Zn553 Zn 0.81663 0.45782 0.08146 0.0
O554 O 0.84786 0.48415 0.07834 0.0
Zn555 Zn 0.88563 0.46938 0.05823 0.0
Zn556 Zn 0.83293 0.50989 0.03648 0.0
Zn557 Zn 0.85508 0.50126 0.1365 0.0
O558 O 0.92068 0.4795 0.10122 0.0
O559 O 0.89554 0.4936 0.16252 0.0
O560 O 0.83518 0.42188 0.07992 0.0
O561 O 0.88254 0.43097 0.06326 0.0
O562 O 0.8915 0.47784 -0.00991 0.0
O563 O 0.85672 0.50817 0.98082 0.0
O564 O 0.83586 0.54568 0.06003 0.0
O565 O 0.79488 0.46341 0.14122 0.0
O566 O 0.8534 0.53983 0.13072 0.0
O567 O 0.82284 0.49181 0.17978 0.0
C568 C 0.77707 0.4821 0.00844 0.0
C569 C 0.92004 0.48714 0.14333 0.0
C570 C 0.87789 0.49449 0.96526 0.0
C571 C 0.86206 0.41466 0.07229 0.0
C572 C 0.84511 0.55467 0.09824 0.0
C573 C 0.79994 0.47734 0.17677 0.0
O574 O 0.79174 0.50301 0.01245 0.0
O575 O 0.46785 0.75883 0.02958 0.0
Zn576 Zn 0.4365 0.76261 0.08061 0.0
O577 O 0.40508 0.7367 0.07683 0.0
Zn578 Zn 0.36762 0.75246 0.05701 0.0
Zn579 Zn 0.41995 0.71097 0.03419 0.0
Zn580 Zn 0.39775 0.71948 0.13492 0.0
O581 O 0.33261 0.74296 0.10025 0.0
O582 O 0.35698 0.72695 0.16074 0.0
O583 O 0.41883 0.79855 0.07877 0.0
O584 O 0.37126 0.79113 0.06115 0.0
O585 O 0.36131 0.74362 0.9891 0.0
O586 O 0.39523 0.71255 0.97935 0.0
O587 O 0.41782 0.67509 0.05806 0.0
O588 O 0.45817 0.75709 0.14024 0.0
O589 O 0.3999 0.68097 0.12856 0.0
O590 O 0.43 0.72896 0.17871 0.0
C591 C 0.47588 0.73904 0.00634 0.0
C592 C 0.33283 0.73464 0.14189 0.0
C593 C 0.37424 0.72658 0.96416 0.0
C594 C 0.39251 0.80675 0.0702 0.0
C595 C 0.40864 0.6661 0.09627 0.0
C596 C 0.45302 0.7433 0.17581 0.0
O597 O 0.46101 0.71814 0.00861 0.0
O598 O 0.78796 0.75804 0.20253 0.0
Zn599 Zn 0.81817 0.76156 0.14981 0.0
O600 O 0.84908 0.73544 0.15131 0.0
Zn601 Zn 0.88689 0.75054 0.17088 0.0
Zn602 Zn 0.83342 0.70942 0.19242 0.0
Zn603 Zn 0.85549 0.71921 0.09235 0.0
O604 O 0.92152 0.74013 0.12722 0.0
O605 O 0.8958 0.72661 0.06599 0.0
O606 O 0.83649 0.79712 0.15047 0.0
O607 O 0.88419 0.78944 0.1667 0.0
O608 O 0.89261 0.74127 0.2387 0.0
O609 O 0.85675 0.71179 0.24918 0.0
O610 O 0.83719 0.67357 0.16801 0.0
O611 O 0.79521 0.75615 0.09131 0.0
O612 O 0.85356 0.68085 0.09713 0.0
O613 O 0.82286 0.72894 0.04983 0.0
C614 C 0.77782 0.73721 0.21998 0.0
C615 C 0.92051 0.73261 0.08503 0.0
C616 C 0.87851 0.72515 0.26406 0.0
C617 C 0.86301 0.80518 0.15796 0.0
C618 C 0.84574 0.66533 0.12881 0.0
C619 C 0.79969 0.7429 0.0548 0.0
O620 O 0.79083 0.71569 0.21315 0.0
O621 O 0.46729 0.46348 0.20031 0.0
Zn622 Zn 0.43621 0.4595 0.14852 0.0
O623 O 0.40496 0.48563 0.15173 0.0
Zn624 Zn 0.36755 0.47086 0.17259 0.0
Zn625 Zn 0.42037 0.51176 0.19295 0.0
Zn626 Zn 0.39678 0.50163 0.09316 0.0
O627 O 0.33208 0.48042 0.13107 0.0
O628 O 0.3559 0.49355 0.06802 0.0
O629 O 0.4178 0.42356 0.14949 0.0
O630 O 0.3706 0.43237 0.16783 0.0
O631 O 0.36208 0.47989 0.24011 0.0
O632 O 0.39808 0.50912 0.25037 0.0
O633 O 0.41681 0.54758 0.16816 0.0
O634 O 0.45841 0.4656 0.08936 0.0
O635 O 0.3989 0.54004 0.09804 0.0
O636 O 0.42906 0.49234 0.04978 0.0
C637 C 0.47608 0.48403 0.22071 0.0
C638 C 0.33184 0.48714 0.08858 0.0
C639 C 0.37682 0.49543 0.26576 0.0
C640 C 0.39108 0.4162 0.1579 0.0
C641 C 0.40767 0.55563 0.12917 0.0
C642 C 0.45292 0.47916 0.0536 0.0
O643 O 0.46221 0.50525 0.21525 0.0
O644 O 0.21576 0.50644 0.95288 0.0
Zn645 Zn 0.18472 0.51039 0.90146 0.0
O646 O 0.15286 0.48496 0.90532 0.0
Zn647 Zn 0.11562 0.50086 0.92547 0.0
Zn648 Zn 0.16736 0.45868 0.94692 0.0
Zn649 Zn 0.14516 0.46854 0.84695 0.0
O650 O 0.08012 0.49095 0.8829 0.0
O651 O 0.10489 0.47676 0.82128 0.0
O652 O 0.16726 0.54644 0.90186 0.0
O653 O 0.11964 0.53945 0.91987 0.0
O654 O 0.11022 0.49242 -0.00614 0.0
O655 O 0.1433 0.46056 0.00256 0.0
O656 O 0.16428 0.42281 0.92215 0.0
O657 O 0.20691 0.50388 0.84253 0.0
O658 O 0.146 0.43023 0.85241 0.0
O659 O 0.1777 0.47685 0.80338 0.0
C660 C 0.22365 0.48623 0.97497 0.0
C661 C 0.08053 0.48329 0.84076 0.0
C662 C 0.12298 0.47513 0.01843 0.0
C663 C 0.14095 0.55484 0.91002 0.0
C664 C 0.15465 0.41466 0.88349 0.0
C665 C 0.20153 0.49007 0.80698 0.0
O666 O 0.20878 0.46537 0.97137 0.0
O667 O 0.53843 0.21396 0.95673 0.0
Zn668 Zn 0.56853 0.20928 0.90364 0.0
O669 O 0.59957 0.23561 0.90384 0.0
Zn670 Zn 0.63712 0.22126 0.92492 0.0
Zn671 Zn 0.58403 0.26224 0.94368 0.0
Zn672 Zn 0.60681 0.2507 0.84427 0.0
O673 O 0.67232 0.2307 0.88226 0.0
O674 O 0.64765 0.24256 0.81905 0.0
O675 O 0.58718 0.17356 0.90548 0.0
O676 O 0.63464 0.18276 0.92109 0.0
O677 O 0.64195 0.23065 -0.00741 0.0
O678 O 0.60639 0.26048 0.0016 0.0
O679 O 0.58825 0.29756 0.91765 0.0
O680 O 0.54551 0.21381 0.84451 0.0
O681 O 0.60454 0.28927 0.84694 0.0
O682 O 0.57427 0.2398 0.80233 0.0
C683 C 0.52816 0.23529 0.97228 0.0
C684 C 0.67201 0.23674 0.83938 0.0
C685 C 0.62766 0.24692 0.01743 0.0
C686 C 0.6141 0.1664 0.91271 0.0
C687 C 0.59669 0.30522 0.87808 0.0
C688 C 0.55078 0.22621 0.80733 0.0
O689 O 0.5413 0.25652 0.96341 0.0
O690 O 0.21769 0.21293 0.78057 0.0
Zn691 Zn 0.18632 0.20831 0.83154 0.0
O692 O 0.15495 0.23412 0.82987 0.0
Zn693 Zn 0.11716 0.21924 0.81005 0.0
Zn694 Zn 0.16954 0.26017 0.78849 0.0
Zn695 Zn 0.14792 0.25015 0.88894 0.0
O696 O 0.08222 0.23019 0.85291 0.0
O697 O 0.10841 0.23972 0.9161 0.0
O698 O 0.16815 0.17266 0.82889 0.0
O699 O 0.12011 0.18049 0.81512 0.0
O700 O 0.11192 0.22719 0.7416 0.0
O701 O 0.14667 0.25752 0.73174 0.0
O702 O 0.16477 0.29561 0.81297 0.0
O703 O 0.2084 0.21315 0.89082 0.0
O704 O 0.14747 0.28891 0.88369 0.0
O705 O 0.18148 0.24155 0.93085 0.0
C706 C 0.22614 0.23367 0.76066 0.0
C707 C 0.08353 0.23499 0.89634 0.0
C708 C 0.12592 0.24331 0.71617 0.0
C709 C 0.14147 0.16469 0.82236 0.0
C710 C 0.15513 0.30414 0.85132 0.0
C711 C 0.20425 0.227 0.92668 0.0
O712 O 0.21157 0.25457 0.76597 0.0
O713 O 0.53567 0.50801 0.777 0.0
Zn714 Zn 0.56709 0.51204 0.82804 0.0
O715 O 0.59847 0.48611 0.82545 0.0
Zn716 Zn 0.63606 0.50177 0.80647 0.0
Zn717 Zn 0.58415 0.46036 0.78253 0.0
Zn718 Zn 0.60528 0.46912 0.88402 0.0
O719 O 0.67063 0.49159 0.8496 0.0
O720 O 0.64594 0.4767 0.91063 0.0
O721 O 0.58486 0.54796 0.8267 0.0
O722 O 0.63272 0.54045 0.81131 0.0
O723 O 0.64303 0.49315 0.73883 0.0
O724 O 0.6091 0.4622 0.72789 0.0
O725 O 0.58678 0.42451 0.80627 0.0
O726 O 0.54517 0.50659 0.88709 0.0
O727 O 0.60356 0.4306 0.87743 0.0
O728 O 0.57236 0.4784 0.92706 0.0
C729 C 0.52792 0.48796 0.75424 0.0
C730 C 0.6703 0.4837 0.89149 0.0
C731 C 0.63035 0.4762 0.71343 0.0
C732 C 0.61138 0.55612 0.81955 0.0
C733 C 0.5956 0.41564 0.84478 0.0
C734 C 0.54949 0.49286 0.92294 0.0
O735 O 0.54299 0.46718 0.75715 0.0
C736 C 0.35629 0.84371 0.06873 0.0
C737 C 0.38612 0.83495 0.07071 0.0
C738 C 0.3494 0.87011 0.0688 0.0
C739 C 0.37203 0.88897 0.07047 0.0
H740 H 0.33793 0.83007 0.06723 0.0
H741 H 0.32609 0.87574 0.06707 0.0
S742 S 0.45385 0.87644 0.07694 0.0
N743 N 0.43856 0.84744 0.07503 0.0
N744 N 0.42567 0.89699 0.07511 0.0
C745 C 0.40201 0.88053 0.0727 0.0
C746 C 0.40902 0.8536 0.07288 0.0
C747 C 0.84761 0.36776 0.0717 0.0
C748 C 0.87002 0.3868 0.07409 0.0
C749 C 0.85481 0.34138 0.07206 0.0
C750 C 0.88471 0.3329 0.07523 0.0
H751 H 0.82429 0.37323 0.06889 0.0
H752 H 0.83668 0.32754 0.06978 0.0
S753 S 0.95183 0.37503 0.08441 0.0
N754 N 0.92344 0.39529 0.08124 0.0
N755 N 0.9369 0.34592 0.08189 0.0
C756 C 0.90733 0.35177 0.07838 0.0
C757 C 0.90002 0.37862 0.07779 0.0
C758 C 0.40599 0.36952 0.16003 0.0
C759 C 0.3834 0.38829 0.15635 0.0
C760 C 0.39911 0.34309 0.16039 0.0
C761 C 0.36935 0.33427 0.15669 0.0
H762 H 0.4292 0.37524 0.16345 0.0
H763 H 0.41739 0.3295 0.16378 0.0
S764 S 0.30194 0.37563 0.14344 0.0
N765 N 0.33003 0.39621 0.14695 0.0
N766 N 0.31713 0.34667 0.14758 0.0
C767 C 0.34656 0.35286 0.15199 0.0
C768 C 0.35356 0.37979 0.15188 0.0
C769 C 0.89913 0.84232 0.16187 0.0
C770 C 0.86952 0.83338 0.1565 0.0
C771 C 0.90594 0.86877 0.16124 0.0
C772 C 0.8834 0.88744 0.1556 0.0
H773 H 0.91734 0.82879 0.16679 0.0
H774 H 0.929 0.87461 0.16606 0.0
S775 S 0.80241 0.87446 0.13769 0.0
N776 N 0.81756 0.8456 0.14362 0.0
N777 N 0.83032 0.89513 0.14251 0.0
C778 C 0.85374 0.87882 0.14945 0.0
C779 C 0.84682 0.85189 0.14987 0.0
C780 C 0.60614 0.09333 0.91321 0.0
C781 C 0.63589 0.08454 0.90915 0.0
C782 C 0.59931 0.11974 0.91396 0.0
C783 C 0.62192 0.13853 0.91105 0.0
H784 H 0.58781 0.07973 0.91584 0.0
H785 H 0.57609 0.1254 0.91738 0.0
S786 S 0.70343 0.12596 0.89844 0.0
N787 N 0.68817 0.09697 0.90116 0.0
N788 N 0.67537 0.14653 0.90258 0.0
C789 C 0.65178 0.13008 0.90656 0.0
C790 C 0.65874 0.10315 0.90557 0.0
C791 C 0.09788 0.61824 0.90843 0.0
C792 C 0.12052 0.637 0.90512 0.0
C793 C 0.10477 0.59185 0.90993 0.0
C794 C 0.13459 0.58302 0.90778 0.0
H795 H 0.07462 0.62396 0.91068 0.0
H796 H 0.08642 0.57828 0.91286 0.0
S797 S 0.2022 0.62431 0.89648 0.0
N798 N 0.17405 0.6449 0.89801 0.0
N799 N 0.18695 0.59538 0.90076 0.0
C800 C 0.15746 0.60159 0.90358 0.0
C801 C 0.15044 0.6285 0.9023 0.0
C802 C 0.65471 0.61943 0.81853 0.0
C803 C 0.63216 0.6383 0.8214 0.0
C804 C 0.64773 0.59303 0.81806 0.0
C805 C 0.61789 0.58431 0.82079 0.0
H806 H 0.678 0.62504 0.81593 0.0
H807 H 0.66601 0.57938 0.81545 0.0
S808 S 0.55047 0.62591 0.83111 0.0
N809 N 0.57869 0.64641 0.82859 0.0
N810 N 0.5656 0.5969 0.82776 0.0
C811 C 0.59511 0.603 0.82446 0.0
C812 C 0.60222 0.62991 0.82471 0.0
C813 C 0.10521 0.12776 0.81775 0.0
C814 C 0.13491 0.13651 0.82295 0.0
C815 C 0.09826 0.10135 0.81761 0.0
C816 C 0.12071 0.08253 0.82232 0.0
H817 H 0.08703 0.14139 0.8136 0.0
H818 H 0.07511 0.09567 0.81314 0.0
S819 S 0.20193 0.09498 0.83912 0.0
N820 N 0.1869 0.12397 0.83441 0.0
N821 N 0.17386 0.07448 0.83412 0.0
C822 C 0.15049 0.09095 0.82812 0.0
C823 C 0.15757 0.11785 0.82846 0.0
C824 C 0.35675 0.34328 0.57196 0.0
C825 C 0.38668 0.33478 0.5741 0.0
C826 C 0.34955 0.3696 0.57141 0.0
C827 C 0.37194 0.38867 0.57262 0.0
H828 H 0.33853 0.3295 0.57066 0.0
H829 H 0.32616 0.37499 0.56948 0.0
S830 S 0.45386 0.37695 0.57984 0.0
N831 N 0.43895 0.34778 0.57849 0.0
N832 N 0.42544 0.39724 0.57737 0.0
C833 C 0.40201 0.38054 0.57519 0.0
C834 C 0.40936 0.35365 0.57602 0.0
C835 C 0.89666 0.8774 0.56712 0.0
C836 C 0.86692 0.88634 0.56921 0.0
C837 C 0.90332 0.85095 0.5667 0.0
C838 C 0.88054 0.8322 0.56801 0.0
H839 H 0.91513 0.89093 0.56581 0.0
H840 H 0.92659 0.84521 0.56486 0.0
S841 S 0.79885 0.84521 0.5746 0.0
N842 N 0.81438 0.87411 0.57328 0.0
N843 N 0.82686 0.82448 0.57242 0.0
C844 C 0.85065 0.84081 0.57038 0.0
C845 C 0.84386 0.8678 0.57104 0.0
C846 C 0.40392 0.87013 0.66303 0.0
C847 C 0.38111 0.88882 0.66094 0.0
C848 C 0.39729 0.84368 0.66352 0.0
C849 C 0.36756 0.8347 0.6616 0.0
H850 H 0.42718 0.87591 0.66472 0.0
H851 H 0.41578 0.8302 0.66527 0.0
S852 S 0.29944 0.87566 0.65468 0.0
N853 N 0.32742 0.89643 0.65619 0.0
N854 N 0.315 0.84679 0.65704 0.0
C855 C 0.34447 0.85317 0.65912 0.0
C856 C 0.35123 0.88016 0.65885 0.0
C857 C 0.89701 0.34319 0.661 0.0
C858 C 0.86733 0.33402 0.65898 0.0
C859 C 0.90344 0.36969 0.66075 0.0
C860 C 0.8805 0.38825 0.65883 0.0
H861 H 0.9156 0.32981 0.6628 0.0
H862 H 0.92665 0.37563 0.66268 0.0
S863 S 0.79895 0.37461 0.65174 0.0
N864 N 0.81472 0.34582 0.65402 0.0
N865 N 0.82676 0.39554 0.65362 0.0
C866 C 0.85069 0.3794 0.65637 0.0
C867 C 0.84413 0.35237 0.65638 0.0
C868 C 0.65427 0.60167 0.4113 0.0
C869 C 0.63147 0.583 0.40867 0.0
C870 C 0.64768 0.62812 0.41114 0.0
C871 C 0.61799 0.63713 0.408 0.0
H872 H 0.67747 0.59585 0.41414 0.0
H873 H 0.66616 0.64159 0.41363 0.0
S874 S 0.55001 0.59611 0.39803 0.0
N875 N 0.57792 0.57535 0.40127 0.0
N876 N 0.56552 0.625 0.40088 0.0
C877 C 0.59494 0.61864 0.40461 0.0
C878 C 0.60166 0.59165 0.40501 0.0
C879 C 0.1559 0.10005 0.41129 0.0
C880 C 0.1329 0.08151 0.40992 0.0
C881 C 0.14951 0.12656 0.41163 0.0
C882 C 0.11983 0.13574 0.41023 0.0
H883 H 0.1791 0.09408 0.41276 0.0
H884 H 0.16812 0.13994 0.41306 0.0
S885 S 0.05133 0.09514 0.40436 0.0
N886 N 0.07914 0.07421 0.40576 0.0
N887 N 0.06715 0.12392 0.40631 0.0
C888 C 0.09658 0.11739 0.40814 0.0
C889 C 0.1031 0.09036 0.40804 0.0
C890 C 0.65475 0.11908 0.3198 0.0
C891 C 0.63209 0.13788 0.32222 0.0
C892 C 0.64794 0.09266 0.31999 0.0
C893 C 0.61817 0.08383 0.32298 0.0
H894 H 0.67801 0.12475 0.31714 0.0
H895 H 0.66631 0.07907 0.31773 0.0
S896 S 0.55047 0.12519 0.33188 0.0
N897 N 0.57855 0.14581 0.32896 0.0
N898 N 0.56579 0.09622 0.32938 0.0
C899 C 0.59526 0.10243 0.32609 0.0
C900 C 0.6022 0.12939 0.32565 0.0
C901 C 0.10659 0.6267 0.32073 0.0
C902 C 0.13639 0.63547 0.32386 0.0
C903 C 0.09966 0.6003 0.32094 0.0
C904 C 0.12221 0.58142 0.32396 0.0
H905 H 0.08829 0.64032 0.31799 0.0
H906 H 0.07638 0.59468 0.3181 0.0
S907 S 0.20383 0.59392 0.33452 0.0
N908 N 0.18867 0.62292 0.33124 0.0
N909 N 0.17566 0.57338 0.33159 0.0
C910 C 0.15212 0.58986 0.32761 0.0
C911 C 0.15918 0.6168 0.32761 0.0
C912 C 0.27643 -0.00031 0.2435 0.0
C913 C 0.2765 0.97906 0.2117 0.0
C914 C 0.25253 0.00348 0.27376 0.0
C915 C 0.22775 -0.01319 0.27342 0.0
H916 H 0.29468 0.01346 0.24448 0.0
H917 H 0.25348 0.01969 0.29747 0.0
S918 S 0.21799 0.92861 0.19928 0.0
N919 N 0.25042 0.94092 0.18332 0.0
N920 N 0.20538 0.94796 0.24021 0.0
C921 C 0.22774 0.96576 0.24238 0.0
C922 C 0.25216 0.96187 0.21163 0.0
C923 C 0.03246 0.24152 0.23306 0.0
C924 C 0.0267 0.23079 0.27677 0.0
C925 C 0.0092 0.24663 0.20219 0.0
C926 C 0.97934 0.24122 0.21394 0.0
H927 H 0.05512 0.24596 0.22247 0.0
H928 H 0.01483 0.25426 0.16845 0.0
S929 S 0.95203 0.21506 0.32567 0.0
N930 N 0.98873 0.21623 0.3313 0.0
N931 N 0.94501 0.22592 0.27321 0.0
C932 C 0.97317 0.23101 0.25793 0.0
C933 C 0.99685 0.2257 0.28932 0.0
C934 C 0.22795 0.24955 -0.00674 0.0
C935 C 0.2282 0.22891 0.9615 0.0
C936 C 0.2518 0.25364 0.02349 0.0
C937 C 0.27683 0.23726 0.02317 0.0
H938 H 0.20948 0.26308 -0.00573 0.0
H939 H 0.25058 0.26984 0.04717 0.0
S940 S 0.28754 0.17923 0.94896 0.0
N941 N 0.2549 0.19111 0.93305 0.0
N942 N 0.29985 0.19873 -0.01009 0.0
C943 C 0.27719 0.21622 -0.00787 0.0
C944 C 0.25281 0.21203 0.96139 0.0
C945 C 1.00222 0.9667 0.02206 0.0
C946 C 0.97751 0.98345 0.02211 0.0
C947 C 0.0261 0.9705 -0.00824 0.0
C948 C 0.0262 -0.0088 0.96028 0.0
H949 H 0.0032 0.95045 0.04556 0.0
H950 H 0.0443 0.95669 -0.0075 0.0
S951 S 0.96775 0.04171 0.94854 0.0
N952 N 0.95516 0.02233 0.98931 0.0
N953 N 1.00014 0.0294 0.93238 0.0
C954 C 1.00189 0.00841 0.96047 0.0
C955 C 0.9775 0.00452 -0.00873 0.0
C956 C 0.755 -0.00423 0.77897 0.0
C957 C 0.72516 -0.00975 0.76721 0.0
C958 C 0.77823 -0.00906 0.74799 0.0
C959 C 0.77251 0.98051 0.70397 0.0
H960 H 0.76067 0.00327 0.81285 0.0
H961 H 0.80086 -0.00456 0.75875 0.0
S962 S 0.69786 0.96453 0.65508 0.0
N963 N 0.69083 0.97495 0.70791 0.0
N964 N 0.73454 0.96603 0.64921 0.0
C965 C 0.74267 0.97528 0.69141 0.0
C966 C 0.71898 0.98018 0.72309 0.0
C967 C 1.00037 0.71917 0.76982 0.0
C968 C 0.0283 0.73117 0.76395 0.0
C969 C 0.9767 0.72415 0.73976 0.0
C970 C 0.97993 0.74126 0.70232 0.0
H971 H 0.99644 0.70608 0.79835 0.0
H972 H 0.95575 0.71421 0.74591 0.0
S973 S 0.04869 0.77756 0.67109 0.0
N974 N 0.05805 0.76085 0.71737 0.0
N975 N 0.01341 0.77019 0.66079 0.0
C976 C 0.00779 0.75336 0.69577 0.0
C977 C 0.03201 0.74825 0.72645 0.0
C978 C 0.75288 0.71625 0.95711 0.0
C979 C 0.72745 0.73214 0.95787 0.0
C980 C 0.77656 0.72049 0.98759 0.0
C981 C 0.77575 0.74081 0.02001 0.0
H982 H 0.75456 0.70036 0.93281 0.0
H983 H 0.79539 0.70734 0.98616 0.0
S984 S 0.7151 0.78912 0.03423 0.0
N985 N 0.70337 0.76984 -0.00743 0.0
N986 N 0.74803 0.7777 0.04979 0.0
C987 C 0.75069 0.75715 0.02071 0.0
C988 C 0.72648 0.75281 0.98976 0.0
C989 C 0.25048 0.50281 0.77318 0.0
C990 C 0.22515 0.48677 0.7719 0.0
C991 C 0.27439 0.49883 0.74306 0.0
C992 C 0.27393 0.47868 0.71034 0.0
H993 H 0.25199 0.51859 0.79773 0.0
H994 H 0.29313 0.51206 0.74504 0.0
S995 S 0.2134 0.43033 0.69422 0.0
N996 N 0.20135 0.44931 0.73612 0.0
N997 N 0.24642 0.44189 0.67941 0.0
C998 C 0.24888 0.46225 0.70896 0.0
C999 C 0.22443 0.46633 0.73964 0.0
C1000 C 0.25759 0.72357 0.45029 0.0
C1001 C 0.22798 0.73043 0.46116 0.0
C1002 C 0.28097 0.72859 0.48102 0.0
C1003 C 0.27562 0.74064 0.52381 0.0
H1004 H 0.26297 0.7147 0.41737 0.0
H1005 H 0.30338 0.72287 0.47111 0.0
S1006 S 0.20166 0.76113 0.56991 0.0
N1007 N 0.19429 0.74899 0.5184 0.0
N1008 N 0.2382 0.75853 0.57625 0.0
C1009 C 0.24601 0.74742 0.53534 0.0
C1010 C 0.2222 0.74221 0.50407 0.0
C1011 C 0.02737 0.4771 0.49986 0.0
C1012 C 0.02252 0.48982 0.45761 0.0
C1013 C 0.00394 0.47285 0.53078 0.0
C1014 C 0.97474 0.48118 0.5207 0.0
H1015 H 0.04948 0.47032 0.50925 0.0
H1016 H 0.009 0.46342 0.56326 0.0
S1017 S 0.94972 0.51407 0.41342 0.0
N1018 N 0.98601 0.50983 0.40637 0.0
N1019 N 0.9419 0.50184 0.46463 0.0
C1020 C 0.96942 0.49363 0.47828 0.0
C1021 C 0.99333 0.49802 0.44677 0.0
C1022 C 0.74685 0.47381 0.201 0.0
C1023 C 0.7766 0.47989 0.21229 0.0
C1024 C 0.7236 0.47907 0.23172 0.0
C1025 C 0.72921 0.49053 0.27497 0.0
H1026 H 0.74127 0.46552 0.16768 0.0
H1027 H 0.70103 0.47405 0.2214 0.0
S1028 S 0.80363 0.50856 0.32238 0.0
N1029 N 0.81076 0.49692 0.2704 0.0
N1030 N 0.76699 0.50677 0.32844 0.0
C1031 C 0.75896 0.4964 0.28703 0.0
C1032 C 0.78268 0.491 0.25568 0.0
C1033 C 0.72652 0.24221 0.49781 0.0
C1034 C 0.73154 0.22935 0.45566 0.0
C1035 C 0.74982 0.24675 0.52881 0.0
C1036 C 0.77913 0.23854 0.51905 0.0
H1037 H 0.70438 0.24899 0.50704 0.0
H1038 H 0.74457 0.25639 0.56107 0.0
S1039 S 0.80453 0.20479 0.41261 0.0
N1040 N 0.76826 0.20897 0.40512 0.0
N1041 N 0.81217 0.21745 0.46365 0.0
C1042 C 0.78461 0.22577 0.47688 0.0
C1043 C 0.76079 0.22111 0.44521 0.0
C1044 C 0.49761 0.22152 0.78286 0.0
C1045 C 0.5273 0.22804 0.7717 0.0
C1046 C 0.47426 0.22626 0.75192 0.0
C1047 C 0.4797 0.23778 0.70878 0.0
H1048 H 0.49216 0.2133 0.81622 0.0
H1049 H 0.45174 0.22101 0.76208 0.0
S1050 S 0.55385 0.25636 0.66115 0.0
N1051 N 0.56115 0.24507 0.71322 0.0
N1052 N 0.51725 0.25411 0.65518 0.0
C1053 C 0.50939 0.24387 0.69671 0.0
C1054 C 0.53318 0.23889 0.72808 0.0
C1055 C 0.47736 -0.00201 0.48792 0.0
C1056 C 0.47801 0.97782 0.52047 0.0
C1057 C 0.50131 0.00226 0.45807 0.0
C1058 C 0.52686 -0.01349 0.4594 0.0
H1059 H 0.45847 0.01105 0.48596 0.0
H1060 H 0.49966 0.01808 0.43372 0.0
S1061 S 0.53905 0.93005 0.5365 0.0
N1062 N 0.50584 0.94126 0.55119 0.0
N1063 N 0.551 0.9492 0.4949 0.0
C1064 C 0.52771 0.96599 0.49138 0.0
C1065 C 0.50323 0.96163 0.52183 0.0
C1066 C 0.50565 0.7491 0.20161 0.0
C1067 C 0.47631 0.74107 0.21161 0.0
C1068 C 0.52901 0.74455 0.23251 0.0
C1069 C 0.52396 0.73183 0.27468 0.0
H1070 H 0.51089 0.75847 0.16915 0.0
H1071 H 0.55122 0.75107 0.22312 0.0
S1072 S 0.45072 0.70837 0.31871 0.0
N1073 N 0.44312 0.72078 0.26756 0.0
N1074 N 0.48707 0.71219 0.32582 0.0
C1075 C 0.49461 0.724 0.28551 0.0
C1076 C 0.47077 0.7287 0.25401 0.0
C1077 C 0.50127 0.46578 0.01834 0.0
C1078 C 0.47658 0.48256 0.0187 0.0
C1079 C 0.52525 0.46986 0.98838 0.0
C1080 C 0.52548 0.49088 0.9576 0.0
H1081 H 0.50215 0.44934 0.04142 0.0
H1082 H 0.54345 0.45605 0.98883 0.0
S1083 S 0.46711 0.54153 0.94689 0.0
N1084 N 0.45434 0.52175 0.98692 0.0
N1085 N 0.49954 0.52935 0.93062 0.0
C1086 C 0.50116 0.50807 0.95803 0.0
C1087 C 0.47665 0.50389 0.98846 0.0
C1088 C 0.35116 -0.00054 0.88719 0.0
C1089 C 0.37722 -0.00491 0.91381 0.0
C1090 C 0.35186 -0.00132 0.839 0.0
C1091 C 0.37873 -0.00605 0.81599 0.0
H1092 H 0.32986 0.00333 0.90367 0.0
H1093 H 0.33154 0.00245 0.81973 0.0
S1094 S 0.4526 0.97959 0.86885 0.0
N1095 N 0.43012 0.98447 0.91331 0.0
N1096 N 0.4317 0.98342 0.82228 0.0
C1097 C 0.40481 -0.011 0.84189 0.0
C1098 C 0.404 -0.01057 0.891 0.0
C1099 C 0.90781 0.22445 0.88939 0.0
C1100 C 0.88188 0.22892 0.91627 0.0
C1101 C 0.90699 0.22567 0.8412 0.0
C1102 C 0.88013 0.231 0.81858 0.0
H1103 H 0.92901 0.21997 0.90564 0.0
H1104 H 0.92711 0.22159 0.82163 0.0
S1105 S 0.80664 0.2458 0.87212 0.0
N1106 N 0.82912 0.24028 0.9163 0.0
N1107 N 0.82742 0.24216 0.82537 0.0
C1108 C 0.85426 0.23617 0.84474 0.0
C1109 C 0.85516 0.23525 0.89376 0.0
C1110 C 0.3753 0.20604 0.34314 0.0
C1111 C 0.37724 0.22935 0.31867 0.0
C1112 C 0.37166 0.20598 0.39096 0.0
C1113 C 0.36921 0.22923 0.41577 0.0
H1114 H 0.37651 0.1877 0.32508 0.0
H1115 H 0.37157 0.18761 0.40888 0.0
S1116 S 0.37079 0.2954 0.36719 0.0
N1117 N 0.37492 0.27623 0.32191 0.0
N1118 N 0.36806 0.27616 0.41249 0.0
C1119 C 0.37017 0.2527 0.39159 0.0
C1120 C 0.37437 0.25276 0.34281 0.0
C1121 C 0.86999 0.0162 0.34155 0.0
C1122 C 0.869 -0.00706 0.31656 0.0
C1123 C 0.87365 0.01616 0.38938 0.0
C1124 C 0.87712 -0.00711 0.41366 0.0
H1125 H 0.86855 0.03457 0.32379 0.0
H1126 H 0.87352 0.03447 0.40762 0.0
S1127 S 0.87609 0.92682 0.36423 0.0
N1128 N 0.87171 0.94605 0.31923 0.0
N1129 N 0.87866 0.946 0.40977 0.0
C1130 C 0.87618 0.96948 0.3892 0.0
C1131 C 0.87193 0.9695 0.34044 0.0
C1132 C 0.62269 0.95481 0.09026 0.0
C1133 C 0.62066 0.97821 0.06598 0.0
C1134 C 0.62708 0.95458 0.13795 0.0
C1135 C 0.63016 0.97772 0.16292 0.0
H1136 H 0.62152 0.93653 0.07202 0.0
H1137 H 0.62772 0.93613 0.15559 0.0
S1138 S 0.6266 0.04411 0.11541 0.0
N1139 N 0.62215 0.0251 0.06999 0.0
N1140 N 0.63033 0.02468 0.16028 0.0
C1141 C 0.62824 0.00128 0.13913 0.0
C1142 C 0.62331 0.00152 0.09049 0.0
C1143 C 0.10011 0.74512 0.09305 0.0
C1144 C 0.12612 0.7408 0.06631 0.0
C1145 C 0.10073 0.74344 0.14118 0.0
C1146 C 0.12745 0.73775 0.16389 0.0
H1147 H 0.07898 0.74978 0.07671 0.0
H1148 H 0.08057 0.74751 0.16069 0.0
S1149 S 0.20105 0.72311 0.11046 0.0
N1150 N 0.17875 0.72913 0.06626 0.0
N1151 N 0.18014 0.7264 0.15717 0.0
C1152 C 0.1534 0.73268 0.13779 0.0
C1153 C 0.15268 0.73406 0.08879 0.0
C1154 C 0.63043 0.76743 0.63708 0.0
C1155 C 0.62783 0.74424 0.66178 0.0
C1156 C 0.63414 0.76725 0.58925 0.0
C1157 C 0.63608 0.74387 0.56471 0.0
H1158 H 0.62971 0.78584 0.65496 0.0
H1159 H 0.63479 0.78555 0.57113 0.0
S1160 S 0.63245 0.6779 0.61397 0.0
N1161 N 0.62876 0.69731 0.65901 0.0
N1162 N 0.63586 0.69694 0.56851 0.0
C1163 C 0.63436 0.72051 0.58914 0.0
C1164 C 0.63004 0.72071 0.63787 0.0
C1165 C 0.13289 -0.00285 0.64067 0.0
C1166 C 0.13513 0.97393 0.66548 0.0
C1167 C 0.12872 -0.00309 0.59271 0.0
C1168 C 0.12699 0.97345 0.56837 0.0
H1169 H 0.13303 0.01554 0.65863 0.0
H1170 H 0.12767 0.01514 0.57444 0.0
S1171 S 0.13238 0.90757 0.61747 0.0
N1172 N 0.13555 0.92703 0.6625 0.0
N1173 N 0.12856 0.92659 0.57208 0.0
C1174 C 0.12973 0.95018 0.59275 0.0
C1175 C 0.13367 0.95042 0.6414 0.0
C1176 C 0.39748 0.49622 0.39187 0.0
C1177 C 0.36985 0.49278 0.41354 0.0
C1178 C 0.39919 0.49738 0.3438 0.0
C1179 C 0.37341 0.49463 0.31603 0.0
H1180 H 0.41769 0.49865 0.41211 0.0
H1181 H 0.42101 0.50018 0.32827 0.0
S1182 S 0.29608 0.48342 0.35664 0.0
N1183 N 0.31625 0.48554 0.40434 0.0
N1184 N 0.31984 0.48723 0.31349 0.0
C1185 C 0.34581 0.49037 0.33729 0.0
C1186 C 0.34394 0.48961 0.38628 0.0
C1187 C 0.87622 0.74729 0.38734 0.0
C1188 C 0.87592 0.72374 0.41137 0.0
C1189 C 0.87982 0.74779 0.33926 0.0
C1190 C 0.88288 0.72473 0.31405 0.0
H1191 H 0.8745 0.76543 0.4059 0.0
H1192 H 0.87898 0.76621 0.32157 0.0
S1193 S 0.8835 0.65821 0.36096 0.0
N1194 N 0.87946 0.67696 0.40679 0.0
N1195 N 0.88523 0.67788 0.31616 0.0
C1196 C 0.88262 0.70113 0.33773 0.0
C1197 C 0.87935 0.70063 0.38651 0.0
C1198 C 0.37936 0.74917 0.84162 0.0
C1199 C 0.38157 0.72569 0.81737 0.0
C1200 C 0.37393 0.74946 0.8893 0.0
C1201 C 0.3707 0.72628 0.91398 0.0
H1202 H 0.38087 0.7674 0.82344 0.0
H1203 H 0.3735 0.76786 0.90722 0.0
S1204 S 0.37447 0.65985 0.86644 0.0
N1205 N 0.37986 0.6788 0.82136 0.0
N1206 N 0.36999 0.67939 0.91106 0.0
C1207 C 0.3727 0.70275 0.89005 0.0
C1208 C 0.3782 0.70244 0.84177 0.0
C1209 C 0.87363 0.47206 0.84228 0.0
C1210 C 0.87118 0.49556 0.81835 0.0
C1211 C 0.87871 0.47174 0.89006 0.0
C1212 C 0.88128 0.49493 0.91508 0.0
H1213 H 0.87268 0.45386 0.82375 0.0
H1214 H 0.87946 0.45332 0.90773 0.0
S1215 S 0.87638 0.56139 0.86827 0.0
N1216 N 0.87187 0.54243 0.82283 0.0
N1217 N 0.88085 0.54185 0.91278 0.0
C1218 C 0.87885 0.51848 0.89144 0.0
C1219 C 0.87382 0.5188 0.84305 0.0
C1220 C 0.63192 0.49894 0.63859 0.0
C1221 C 0.63485 0.47582 0.66351 0.0
C1222 C 0.62742 0.49851 0.5907 0.0
C1223 C 0.626 0.47496 0.5666 0.0
H1224 H 0.63174 0.51737 0.65642 0.0
H1225 H 0.62589 0.51668 0.57231 0.0
S1226 S 0.63325 0.4093 0.61609 0.0
N1227 N 0.63636 0.42893 0.66089 0.0
N1228 N 0.62862 0.42814 0.57064 0.0
C1229 C 0.62942 0.4518 0.5911 0.0
C1230 C 0.63377 0.45223 0.63964 0.0
C1231 C 0.12758 0.26575 0.64128 0.0
C1232 C 0.12342 0.24261 0.66574 0.0
C1233 C 0.13267 0.2656 0.59376 0.0
C1234 C 0.13425 0.24227 0.56902 0.0
H1235 H 0.12747 0.28414 0.65928 0.0
H1236 H 0.13487 0.28392 0.57601 0.0
S1237 S 0.12485 0.17638 0.61687 0.0
N1238 N 0.12133 0.19572 0.66204 0.0
N1239 N 0.13069 0.19543 0.57201 0.0
C1240 C 0.13021 0.21894 0.59296 0.0
C1241 C 0.12464 0.21912 0.64146 0.0
C1242 C 0.62966 0.22336 0.09163 0.0
C1243 C 0.63095 0.24691 0.06765 0.0
C1244 C 0.62619 0.22293 0.13971 0.0
C1245 C 0.62426 0.24605 0.16497 0.0
H1246 H 0.63038 0.20518 0.073 0.0
H1247 H 0.62613 0.20449 0.15736 0.0
S1248 S 0.62694 0.3126 0.11836 0.0
N1249 N 0.62984 0.29378 0.07241 0.0
N1250 N 0.62437 0.29296 0.1631 0.0
C1251 C 0.62573 0.26966 0.1414 0.0
C1252 C 0.62885 0.2701 0.09261 0.0
C1253 C 0.12337 0.49789 0.09378 0.0
C1254 C 0.1198 0.4748 0.06873 0.0
C1255 C 0.12831 0.49742 0.14162 0.0
C1256 C 0.12965 0.47387 0.1656 0.0
H1257 H 0.12345 0.51632 0.0761 0.0
H1258 H 0.13003 0.51558 0.16013 0.0
S1259 S 0.12156 0.40825 0.11569 0.0
N1260 N 0.11809 0.4279 0.07113 0.0
N1261 N 0.12686 0.42706 0.16112 0.0
C1262 C 0.12604 0.45074 0.14087 0.0
C1263 C 0.12114 0.4512 0.09242 0.0
C1264 C 0.34979 0.12817 0.08045 0.0
C1265 C 0.35312 0.13841 0.12515 0.0
C1266 C 0.34843 0.10147 0.0732 0.0
C1267 C 0.35074 0.08404 0.11034 0.0
H1268 H 0.34728 0.14087 0.05097 0.0
H1269 H 0.34532 0.09451 0.0382 0.0
S1270 S 0.36224 0.1013 0.23383 0.0
N1271 N 0.36041 0.12929 0.2068 0.0
N1272 N 0.35813 0.07908 0.19335 0.0
C1273 C 0.35514 0.09409 0.15511 0.0
C1274 C 0.35623 0.12128 0.16247 0.0
C1275 C 0.90631 0.10119 0.16313 0.0
C1276 C 0.90571 0.0837 0.12587 0.0
C1277 C 0.90594 0.12789 0.15568 0.0
C1278 C 0.90537 0.13807 0.11066 0.0
H1279 H 0.90706 0.09424 0.19841 0.0
H1280 H 0.9068 0.14061 0.18543 0.0
S1281 S 0.90281 0.10057 0.00117 0.0
N1282 N 0.90385 0.0785 0.04219 0.0
N1283 N 0.90326 0.12865 0.02826 0.0
C1284 C 0.90438 0.12082 0.07307 0.0
C1285 C 0.9045 0.09365 0.08065 0.0
C1286 C 0.65708 0.85074 0.82302 0.0
C1287 C 0.65712 0.83311 0.85992 0.0
C1288 C 0.65663 0.87736 0.83103 0.0
C1289 C 0.6566 0.88737 0.87625 0.0
H1290 H 0.65726 0.84395 0.78757 0.0
H1291 H 0.65675 0.89017 0.80146 0.0
S1292 S 0.65649 0.84936 0.985 0.0
N1293 N 0.65692 0.82747 0.94347 0.0
N1294 N 0.65621 0.87758 0.95856 0.0
C1295 C 0.65655 0.86996 0.91355 0.0
C1296 C 0.65674 0.84282 0.90537 0.0
C1297 C 0.09594 0.84981 0.90794 0.0
C1298 C 0.09675 0.8323 0.87073 0.0
C1299 C 0.096 0.87648 0.90038 0.0
C1300 C 0.09646 0.88661 0.85533 0.0
H1301 H 0.09538 0.8429 0.94325 0.0
H1302 H 0.09525 0.88922 0.93011 0.0
S1303 S 0.09889 0.84899 0.74593 0.0
N1304 N 0.09823 0.82697 0.78707 0.0
N1305 N 0.09827 0.8771 0.7729 0.0
C1306 C 0.09738 0.86932 0.81776 0.0
C1307 C 0.09758 0.84217 0.82545 0.0
C1308 C 0.3471 0.62066 0.65788 0.0
C1309 C 0.34777 0.63801 0.62051 0.0
C1310 C 0.34671 0.59396 0.65064 0.0
C1311 C 0.34656 0.58355 0.60574 0.0
H1312 H 0.34688 0.62772 0.69316 0.0
H1313 H 0.34591 0.58142 0.68056 0.0
S1314 S 0.349 0.62057 0.49598 0.0
N1315 N 0.34897 0.64286 0.53685 0.0
N1316 N 0.34802 0.5926 0.52321 0.0
C1317 C 0.34757 0.60063 0.56798 0.0
C1318 C 0.34827 0.62787 0.57537 0.0
C1319 C 0.90338 0.62077 0.5746 0.0
C1320 C 0.90284 0.63842 0.61166 0.0
C1321 C 0.903 0.59412 0.58232 0.0
C1322 C 0.90249 0.5841 0.62741 0.0
H1323 H 0.90424 0.62755 0.53922 0.0
H1324 H 0.90384 0.58131 0.55269 0.0
S1325 S 0.89951 0.62198 0.73643 0.0
N1326 N 0.90063 0.64395 0.69519 0.0
N1327 N 0.90014 0.59379 0.7097 0.0
C1328 C 0.90137 0.60148 0.66483 0.0
C1329 C 0.90143 0.62866 0.65696 0.0
C1330 C 0.65794 0.3437 0.40032 0.0
C1331 C 0.65659 0.33323 0.35554 0.0
C1332 C 0.65788 0.37043 0.40737 0.0
C1333 C 0.65607 0.38769 0.36993 0.0
H1334 H 0.65971 0.3312 0.43019 0.0
H1335 H 0.65934 0.37757 0.44252 0.0
S1336 S 0.65024 0.36991 0.24581 0.0
N1337 N 0.65212 0.34203 0.2732 0.0
N1338 N 0.65185 0.39231 0.28641 0.0
C1339 C 0.65392 0.37744 0.32497 0.0
C1340 C 0.65426 0.3502 0.31778 0.0
C1341 C 0.10009 0.34962 0.41016 0.0
C1342 C 0.10142 0.33204 0.37303 0.0
C1343 C 0.09931 0.37628 0.40256 0.0
C1344 C 0.09942 0.38639 0.35752 0.0
H1345 H 0.09952 0.34277 0.44551 0.0
H1346 H 0.09795 0.38903 0.43224 0.0
S1347 S 0.10401 0.34879 0.2483 0.0
N1348 N 0.10382 0.32675 0.28944 0.0
N1349 N 0.10217 0.37689 0.27519 0.0
C1350 C 0.10125 0.3691 0.32003 0.0
C1351 C 0.10235 0.34193 0.32777 0.0
C1352 C 0.84963 0.09286 0.65355 0.0
C1353 C 0.85113 0.08275 0.60847 0.0
C1354 C 0.84984 0.11955 0.66138 0.0
C1355 C 0.85194 0.13714 0.62447 0.0
H1356 H 0.84752 0.0801 0.68301 0.0
H1357 H 0.84814 0.12642 0.69668 0.0
S1358 S 0.85839 0.12035 0.49988 0.0
N1359 N 0.85618 0.09226 0.5265 0.0
N1360 N 0.8567 0.14238 0.54108 0.0
C1361 C 0.85432 0.12721 0.57924 0.0
C1362 C 0.85386 0.10005 0.57128 0.0
C1363 C 0.40449 0.12696 0.64632 0.0
C1364 C 0.40465 0.13721 0.60136 0.0
C1365 C 0.40438 0.10029 0.6537 0.0
C1366 C 0.40405 0.08279 0.61644 0.0
H1367 H 0.40506 0.13959 0.6762 0.0
H1368 H 0.40467 0.09337 0.68902 0.0
S1369 S 0.40289 0.09975 0.49179 0.0
N1370 N 0.40346 0.12784 0.51888 0.0
N1371 N 0.40307 0.07762 0.53278 0.0
C1372 C 0.40348 0.09276 0.57123 0.0
C1373 C 0.40388 0.11998 0.56369 0.0
C1374 C 0.15329 0.84186 0.40025 0.0
C1375 C 0.15189 0.83167 0.35522 0.0
C1376 C 0.15417 0.86854 0.40786 0.0
C1377 C 0.15327 0.88605 0.37077 0.0
H1378 H 0.15454 0.82915 0.42989 0.0
H1379 H 0.15569 0.87545 0.44315 0.0
S1380 S 0.1478 0.86924 0.24618 0.0
N1381 N 0.14839 0.84113 0.273 0.0
N1382 N 0.14986 0.89131 0.28729 0.0
C1383 C 0.151 0.87614 0.32557 0.0
C1384 C 0.15038 0.84895 0.3178 0.0
C1385 C 0.6011 0.84361 0.32907 0.0
C1386 C 0.60162 0.83362 0.37423 0.0
C1387 C 0.60092 0.87028 0.32123 0.0
C1388 C 0.6017 0.88794 0.35823 0.0
H1389 H 0.60014 0.83077 0.2995 0.0
H1390 H 0.6001 0.87708 0.28586 0.0
S1391 S 0.60445 0.8717 0.48313 0.0
N1392 N 0.60382 0.84348 0.45652 0.0
N1393 N 0.60361 0.89357 0.44175 0.0
C1394 C 0.60291 0.87822 0.40356 0.0
C1395 C 0.6028 0.85107 0.41157 0.0
C1396 C 0.84469 0.59319 0.14992 0.0
C1397 C 0.84608 0.58286 0.10503 0.0
C1398 C 0.84464 0.61989 0.15722 0.0
C1399 C 0.84636 0.63724 0.11993 0.0
H1400 H 0.84313 0.58059 0.17967 0.0
H1401 H 0.84329 0.62693 0.19245 0.0
S1402 S 0.85193 0.61983 -0.00444 0.0
N1403 N 0.85023 0.59187 0.02274 0.0
N1404 N 0.85029 0.64209 0.03637 0.0
C1405 C 0.84834 0.62712 0.07482 0.0
C1406 C 0.84812 0.59993 0.0674 0.0
C1407 C 0.40713 0.6013 0.1566 0.0
C1408 C 0.40761 0.58362 0.11967 0.0
C1409 C 0.4072 0.62793 0.14865 0.0
C1410 C 0.40818 0.63787 0.10347 0.0
H1411 H 0.40646 0.59455 0.19201 0.0
H1412 H 0.40683 0.64078 0.17824 0.0
S1413 S 0.41 0.59968 -0.00533 0.0
N1414 N 0.40923 0.57785 0.03615 0.0
N1415 N 0.40949 0.62793 0.02116 0.0
C1416 C 0.40875 0.6204 0.06615 0.0
C1417 C 0.40839 0.59327 0.07425 0.0
C1418 C 0.15463 0.36911 0.91144 0.0
C1419 C 0.15376 0.38662 0.87435 0.0
C1420 C 0.15436 0.34243 0.90373 0.0
C1421 C 0.15361 0.33231 0.85863 0.0
H1422 H 0.15552 0.37602 0.94679 0.0
H1423 H 0.15539 0.32968 0.93334 0.0
S1424 S 0.15031 0.36992 0.74954 0.0
N1425 N 0.15145 0.39195 0.79079 0.0
N1426 N 0.15104 0.34181 0.77631 0.0
C1427 C 0.15235 0.34959 0.8212 0.0
C1428 C 0.15237 0.37675 0.82905 0.0
C1429 C 0.59635 0.35094 0.90516 0.0
C1430 C 0.59711 0.3332 0.86827 0.0
C1431 C 0.5962 0.37754 0.89717 0.0
C1432 C 0.59643 0.38745 0.85199 0.0
H1433 H 0.59597 0.34427 0.94062 0.0
H1434 H 0.59546 0.39041 0.92674 0.0
S1435 S 0.59892 0.34927 0.74323 0.0
N1436 N 0.59851 0.32744 0.78472 0.0
N1437 N 0.5981 0.37753 0.76971 0.0
C1438 C 0.59735 0.36997 0.81469 0.0
C1439 C 0.59777 0.34284 0.82283 0.0
C1440 C 0.22715 0.96626 0.98811 0.0
C1441 C 0.25028 0.98426 0.98117 0.0
C1442 C 0.20162 0.96604 0.95969 0.0
C1443 C 0.19853 0.98335 0.92238 0.0
H1444 H 0.22848 0.95258 0.01634 0.0
H1445 H 0.18418 0.9521 0.96695 0.0
S1446 S 0.25349 0.03348 0.88799 0.0
N1447 N 0.26878 0.01947 0.93344 0.0
N1448 N 0.22128 0.01859 0.87954 0.0
C1449 C 0.22186 0.00101 0.91437 0.0
C1450 C 0.24755 0.0016 0.94388 0.0
C1451 C 0.0577 0.22602 0.97134 0.0
C1452 C 0.05608 0.23506 0.92545 0.0
C1453 C 0.03276 0.22679 0.00084 0.0
C1454 C 0.00551 0.23744 0.98612 0.0
H1455 H 0.07842 0.21804 0.98451 0.0
H1456 H 0.03489 0.21925 0.0356 0.0
S1457 S 0.98909 0.26359 0.86967 0.0
N1458 N 0.02448 0.25447 0.8666 0.0
N1459 N 0.97797 0.25686 0.92278 0.0
C1460 C 0.00348 0.24664 0.94055 0.0
C1461 C 0.02865 0.24519 0.91 0.0
C1462 C 0.22451 0.22811 0.23459 0.0
C1463 C 0.25213 0.23716 0.25101 0.0
C1464 C 0.19931 0.2272 0.26355 0.0
C1465 C 0.20094 0.23463 0.31043 0.0
H1466 H 0.22233 0.22183 0.199 0.0
H1467 H 0.17839 0.22036 0.24912 0.0
S1468 S 0.26877 0.25904 0.3703 0.0
N1469 N 0.28005 0.25349 0.3168 0.0
N1470 N 0.23295 0.25112 0.37178 0.0
C1471 C 0.22871 0.2433 0.32742 0.0
C1472 C 0.25422 0.24475 0.29755 0.0
C1473 C 0.00476 -0.00103 0.29277 0.0
C1474 C 1.00148 0.98149 0.25555 0.0
C1475 C 0.03024 -0.00137 0.3214 0.0
C1476 C 0.05375 0.98115 0.31338 0.0
H1477 H 0.98748 0.01309 0.29988 0.0
H1478 H 0.03194 0.01268 0.34908 0.0
S1479 S 0.05597 0.93069 0.22192 0.0
N1480 N 0.02374 0.94555 0.21364 0.0
N1481 N 0.07162 0.94522 0.26664 0.0
C1482 C 0.05056 0.96331 0.27682 0.0
C1483 C 0.02447 0.96338 0.24819 0.0
C1484 C 0.78114 0.97165 0.06693 0.0
C1485 C 0.8048 -0.01097 0.05932 0.0
C1486 C 0.75575 0.9715 0.0382 0.0
C1487 C 0.7527 -0.01095 0.00121 0.0
H1488 H 0.78257 0.9576 0.09454 0.0
H1489 H 0.73832 0.95751 0.04519 0.0
S1490 S 0.80769 0.03949 0.96823 0.0
N1491 N 0.82312 0.02486 0.01291 0.0
N1492 N 0.77536 0.02483 0.95965 0.0
C1493 C 0.77588 0.00698 -0.00597 0.0
C1494 C 0.80191 0.00688 0.02282 0.0
C1495 C 0.99651 0.74895 0.0332 0.0
C1496 C 0.99943 0.73092 -0.0032 0.0
C1497 C 0.97155 0.74882 0.06279 0.0
C1498 C 0.94819 0.73097 0.05659 0.0
H1499 H 0.01373 0.76333 0.03904 0.0
H1500 H 0.97014 0.76329 0.0898 0.0
S1501 S 0.94532 0.67902 0.96784 0.0
N1502 N 0.97719 0.69408 0.9576 0.0
N1503 N 0.9301 0.6941 0.01235 0.0
C1504 C 0.95103 0.71257 0.02081 0.0
C1505 C 0.97667 0.71245 -0.00879 0.0
C1506 C 0.80497 0.74662 0.71317 0.0
C1507 C 0.80484 0.73478 0.66924 0.0
C1508 C 0.77966 0.74607 0.74196 0.0
C1509 C 0.75356 0.73289 0.72869 0.0
H1510 H 0.82476 0.75666 0.72528 0.0
H1511 H 0.78063 0.75581 0.77512 0.0
S1512 S 0.74129 0.69879 0.61751 0.0
N1513 N 0.77588 0.70988 0.61368 0.0
N1514 N 0.72874 0.70803 0.66867 0.0
C1515 C 0.75305 0.72084 0.6851 0.0
C1516 C 0.77856 0.72202 0.65514 0.0
C1517 C 0.95075 0.00193 0.70943 0.0
C1518 C 0.94872 -0.01378 0.66961 0.0
C1519 C 0.9768 0.00258 0.73669 0.0
C1520 C 1.00169 -0.01288 0.72587 0.0
H1521 H 0.93202 0.0139 0.71973 0.0
H1522 H 0.97713 0.01481 0.76712 0.0
S1523 S 0.0085 0.94325 0.6246 0.0
N1524 N 0.97452 0.95549 0.62005 0.0
N1525 N 0.02311 0.95629 0.67159 0.0
C1526 C 1.00015 0.97155 0.68587 0.0
C1527 C 0.97382 0.97124 0.65767 0.0
C1528 C 0.24386 0.4654 0.44933 0.0
C1529 C 0.24595 0.48235 0.48739 0.0
C1530 C 0.21929 0.46634 0.4188 0.0
C1531 C 0.19558 0.48374 0.42613 0.0
H1532 H 0.26164 0.45169 0.44252 0.0
H1533 H 0.21851 0.45299 0.38994 0.0
S1534 S 0.18977 0.53165 0.5211 0.0
N1535 N 0.22207 0.51706 0.53034 0.0
N1536 N 0.17551 0.51798 0.47441 0.0
C1537 C 0.19722 0.50048 0.46433 0.0
C1538 C 0.22249 0.50001 0.49457 0.0
C1539 C 0.05525 0.725 0.46661 0.0
C1540 C 0.05491 0.73436 0.42088 0.0
C1541 C 0.02947 0.72557 0.49442 0.0
C1542 C 0.00263 0.73632 0.47811 0.0
H1543 H 0.07558 0.7169 0.48093 0.0
H1544 H 0.03064 0.71784 0.52914 0.0
S1545 S 0.98963 0.76356 0.36147 0.0
N1546 N 0.02504 0.75437 0.36054 0.0
N1547 N 0.97697 0.75634 0.41354 0.0
C1548 C 1.00192 0.7459 0.43272 0.0
C1549 C 0.02794 0.74468 0.4039 0.0
C1550 C 0.22831 0.75294 0.74489 0.0
C1551 C 0.25306 0.73737 0.75582 0.0
C1552 C 0.2024 0.75269 0.7723 0.0
C1553 C 0.20035 0.73728 0.81237 0.0
H1554 H 0.22865 0.76492 0.71424 0.0
H1555 H 0.18374 0.76467 0.76182 0.0
S1556 S 0.25995 0.69436 0.85784 0.0
N1557 N 0.2745 0.7069 0.81046 0.0
N1558 N 0.22606 0.70681 0.86242 0.0
C1559 C 0.22536 0.72224 0.82449 0.0
C1560 C 0.25158 0.72215 0.79608 0.0
C1561 C 0.02955 0.5001 0.81913 0.0
C1562 C 0.05254 0.4819 0.81293 0.0
C1563 C 0.00435 0.50038 0.78995 0.0
C1564 C 1.00082 0.48214 0.75398 0.0
H1565 H 0.03144 0.51473 0.8458 0.0
H1566 H 0.98746 0.51504 0.79572 0.0
S1567 S 0.05385 0.42935 0.72522 0.0
N1568 N 0.06961 0.44451 0.76918 0.0
N1569 N 0.02219 0.44477 0.71518 0.0
C1570 C 0.02324 0.46335 0.74841 0.0
C1571 C 0.04908 0.46331 0.7776 0.0
C1572 C 0.77998 0.48169 0.48423 0.0
C1573 C 0.75183 0.48868 0.50159 0.0
C1574 C 0.80527 0.48129 0.51302 0.0
C1575 C 0.80327 0.4873 0.56054 0.0
H1576 H 0.78249 0.47658 0.4481 0.0
H1577 H 0.82656 0.47594 0.49791 0.0
S1578 S 0.73401 0.50631 0.62266 0.0
N1579 N 0.72298 0.50162 0.56876 0.0
N1580 N 0.77034 0.50034 0.62335 0.0
C1581 C 0.77499 0.494 0.57834 0.0
C1582 C 0.74933 0.49485 0.54872 0.0
C1583 C 0.97953 0.21925 0.49508 0.0
C1584 C 0.00505 0.23344 0.50773 0.0
C1585 C 0.9535 0.21976 0.52228 0.0
C1586 C 0.95203 0.23408 0.56383 0.0
H1587 H 0.9794 0.20814 0.4633 0.0
H1588 H 0.93432 0.2088 0.51045 0.0
S1589 S 0.01391 0.27296 0.61405 0.0
N1590 N 0.0279 0.26131 0.56547 0.0
N1591 N 0.97931 0.26188 0.61709 0.0
C1592 C 0.97782 0.24773 0.57755 0.0
C1593 C 0.00418 0.24755 0.54938 0.0
C1594 C 0.78015 0.24519 0.24448 0.0
C1595 C 0.75431 0.23192 0.2303 0.0
C1596 C 0.80589 0.24573 0.21665 0.0
C1597 C 0.80642 0.2338 0.17283 0.0
H1598 H 0.78058 0.25499 0.27761 0.0
H1599 H 0.82547 0.25583 0.22936 0.0
S1600 S 0.74398 0.19733 0.11915 0.0
N1601 N 0.73057 0.2067 0.16972 0.0
N1602 N 0.77854 0.2086 0.11647 0.0
C1603 C 0.78047 0.22089 0.15787 0.0
C1604 C 0.75453 0.2197 0.18687 0.0
C1605 C 0.97139 0.47073 0.16383 0.0
C1606 C 0.94796 0.48837 0.17142 0.0
C1607 C 0.99676 0.47037 0.19265 0.0
C1608 C 1.00002 0.488 0.22957 0.0
H1609 H 0.96976 0.45662 0.13624 0.0
H1610 H 0.01403 0.45619 0.18581 0.0
S1611 S 0.94564 0.53882 0.26299 0.0
N1612 N 0.93005 0.52436 0.21813 0.0
N1613 N 0.97783 0.52393 0.27139 0.0
C1614 C 0.9771 0.50614 0.23679 0.0
C1615 C 0.95108 0.50624 0.20801 0.0
C1616 C 0.75026 0.97322 0.43645 0.0
C1617 C 0.75041 -0.01442 0.47985 0.0
C1618 C 0.7251 0.97458 0.40717 0.0
C1619 C 0.69902 -0.01226 0.42097 0.0
H1620 H 0.76984 0.96273 0.42483 0.0
H1621 H 0.72574 0.96469 0.37416 0.0
S1622 S 0.68826 0.02311 0.53146 0.0
N1623 N 0.7227 0.01171 0.53475 0.0
N1624 N 0.6751 0.01339 0.48097 0.0
C1625 C 0.699 5e-05 0.46441 0.0
C1626 C 0.72479 -0.00078 0.49352 0.0
C1627 C 0.50651 0.22293 0.44053 0.0
C1628 C 0.50406 0.23891 0.4799 0.0
C1629 C 0.53227 0.22316 0.41254 0.0
C1630 C 0.55694 0.23897 0.42332 0.0
H1631 H 0.48827 0.2102 0.43103 0.0
H1632 H 0.53311 0.2104 0.38283 0.0
S1633 S 0.5619 0.28453 0.52254 0.0
N1634 N 0.5285 0.27124 0.52775 0.0
N1635 N 0.57696 0.27138 0.47601 0.0
C1636 C 0.55472 0.2551 0.46255 0.0
C1637 C 0.52831 0.25517 0.49054 0.0
C1638 C 0.72894 0.25395 0.7463 0.0
C1639 C 0.75195 0.2358 0.75303 0.0
C1640 C 0.70339 0.25421 0.77466 0.0
C1641 C 0.70013 0.23681 0.81177 0.0
H1642 H 0.73034 0.26775 0.71829 0.0
H1643 H 0.68604 0.26824 0.76748 0.0
S1644 S 0.75438 0.18603 0.84546 0.0
N1645 N 0.76989 0.20011 0.80024 0.0
N1646 N 0.7224 0.20124 0.85416 0.0
C1647 C 0.72327 0.21898 0.81963 0.0
C1648 C 0.74898 0.21829 0.7901 0.0
C1649 C 0.52454 0.96514 0.74648 0.0
C1650 C 0.50294 0.98482 0.74944 0.0
C1651 C 0.54979 0.96508 0.77547 0.0
C1652 C 0.55404 0.98426 0.80952 0.0
H1653 H 0.52229 0.94997 0.72088 0.0
H1654 H 0.56614 0.94982 0.77116 0.0
S1655 S 0.50329 0.03939 0.83315 0.0
N1656 N 0.4872 0.02378 0.78996 0.0
N1657 N 0.53404 0.02307 0.84526 0.0
C1658 C 0.53219 0.00363 0.81375 0.0
C1659 C 0.50687 0.00409 0.78348 0.0
C1660 C 0.27923 0.97358 0.48681 0.0
C1661 C 0.25296 -0.01363 0.50047 0.0
C1662 C 0.3048 0.97366 0.51505 0.0
C1663 C 0.30475 -0.01425 0.55875 0.0
H1664 H 0.28014 0.96377 0.45372 0.0
H1665 H 0.32472 0.96393 0.50271 0.0
S1666 S 0.24089 0.02086 0.6113 0.0
N1667 N 0.2281 0.01113 0.56056 0.0
N1668 N 0.27576 0.01038 0.61457 0.0
C1669 C 0.27832 -0.00193 0.57326 0.0
C1670 C 0.25255 -0.00137 0.54385 0.0
C1671 C 0.45306 0.71896 0.52389 0.0
C1672 C 0.45051 0.73533 0.56275 0.0
C1673 C 0.47899 0.71863 0.49644 0.0
C1674 C 0.50328 0.73506 0.50602 0.0
H1675 H 0.43483 0.70619 0.51452 0.0
H1676 H 0.47972 0.70579 0.46684 0.0
S1677 S 0.50851 0.78116 0.60427 0.0
N1678 N 0.47511 0.7679 0.60999 0.0
N1679 N 0.52352 0.76767 0.558 0.0
C1680 C 0.5012 0.75138 0.54497 0.0
C1681 C 0.47497 0.75139 0.57343 0.0
C1682 C 0.30174 0.71567 0.20567 0.0
C1683 C 0.30485 0.73397 0.1699 0.0
C1684 C 0.27642 0.71532 0.23451 0.0
C1685 C 0.25349 0.7337 0.2296 0.0
H1686 H 0.31906 0.70141 0.21149 0.0
H1687 H 0.27514 0.7009 0.26151 0.0
S1688 S 0.25026 0.78538 0.1407 0.0
N1689 N 0.28221 0.77042 0.1304 0.0
N1690 N 0.23514 0.77033 0.18521 0.0
C1691 C 0.25618 0.752 0.19374 0.0
C1692 C 0.28165 0.75197 0.16372 0.0
C1693 C 0.49768 0.97079 0.19213 0.0
C1694 C 0.50113 -0.01167 0.22916 0.0
C1695 C 0.47224 0.97132 0.16344 0.0
C1696 C 0.44894 -0.01095 0.17129 0.0
H1697 H 0.51484 0.95655 0.18507 0.0
H1698 H 0.47043 0.95727 0.13578 0.0
S1699 S 0.44716 0.03957 0.26262 0.0
N1700 N 0.47923 0.02447 0.27097 0.0
N1701 N 0.43137 0.02512 0.21794 0.0
C1702 C 0.45224 0.00686 0.20785 0.0
C1703 C 0.47831 0.00661 0.2365 0.0
C1704 C 0.70008 0.46677 0.95875 0.0
C1705 C 0.69847 0.48264 0.91916 0.0
C1706 C 0.72578 0.46609 0.98677 0.0
C1707 C 0.75074 0.48165 0.97693 0.0
H1708 H 0.68125 0.45475 0.96836 0.0
H1709 H 0.72578 0.4538 0.01703 0.0
S1710 S 0.75885 0.52566 0.87638 0.0
N1711 N 0.7249 0.51347 0.87075 0.0
N1712 N 0.77285 0.51252 0.92361 0.0
C1713 C 0.74969 0.49726 0.93707 0.0
C1714 C 0.72371 0.49765 0.90815 0.0
C1715 C 0.53072 0.72277 0.90922 0.0
C1716 C 0.55443 0.74011 0.91681 0.0
C1717 C 0.50544 0.72265 0.93824 0.0
C1718 C 0.50259 0.74018 0.97546 0.0
H1719 H 0.53212 0.70864 0.88164 0.0
H1720 H 0.488 0.7086 0.93145 0.0
S1721 S 0.55766 0.79074 0.00791 0.0
N1722 N 0.5729 0.77604 0.96304 0.0
N1723 N 0.52537 0.77608 0.01679 0.0
C1724 C 0.52573 0.75819 0.98234 0.0
C1725 C 0.55162 0.75806 0.95329 0.0
C1726 C 0.69802 0.72708 0.26081 0.0
C1727 C 0.69865 0.7362 0.30674 0.0
C1728 C 0.72374 0.72751 0.23288 0.0
C1729 C 0.75079 0.7378 0.24937 0.0
H1730 H 0.67756 0.71918 0.24652 0.0
H1731 H 0.72243 0.71986 0.19804 0.0
S1732 S 0.76437 0.76483 0.36616 0.0
N1733 N 0.72886 0.75593 0.36715 0.0
N1734 N 0.77686 0.7575 0.31399 0.0
C1735 C 0.75174 0.74728 0.29485 0.0
C1736 C 0.72576 0.74628 0.32372 0.0
C1737 C 0.52636 0.46649 0.24381 0.0
C1738 C 0.50238 0.48341 0.2523 0.0
C1739 C 0.55195 0.46659 0.27209 0.0
C1740 C 0.55431 0.48315 0.31073 0.0
H1741 H 0.52571 0.45351 0.21439 0.0
H1742 H 0.5701 0.45356 0.26353 0.0
S1743 S 0.49692 0.53014 0.34965 0.0
N1744 N 0.48222 0.51665 0.30313 0.0
N1745 N 0.5299 0.51633 0.35669 0.0
C1746 C 0.53009 0.49959 0.32044 0.0
C1747 C 0.50429 0.49988 0.29111 0.0
C1748 C 0.30033 0.50378 0.02326 0.0
C1749 C 0.30335 0.48738 0.06185 0.0
C1750 C 0.2743 0.50373 -0.00398 0.0
C1751 C 0.25044 0.48686 0.00558 0.0
H1752 H 0.31828 0.51683 0.01394 0.0
H1753 H 0.27319 0.51659 0.96659 0.0
S1754 S 0.24666 0.44041 0.10321 0.0
N1755 N 0.27975 0.45426 0.10883 0.0
N1756 N 0.23114 0.45378 0.05732 0.0
C1757 C 0.253 0.47051 0.04433 0.0
C1758 C 0.27932 0.47089 0.07255 0.0
C1759 C 0.47094 0.21639 0.06428 0.0
C1760 C 0.45048 0.23701 0.06298 0.0
C1761 C 0.49575 0.21563 0.03422 0.0
C1762 C 0.50116 0.23569 0.00239 0.0
H1763 H 0.46736 0.20048 0.08791 0.0
H1764 H 0.51097 0.1994 0.0363 0.0
S1765 S 0.4536 0.29368 0.98521 0.0
N1766 N 0.43668 0.27748 0.0268 0.0
N1767 N 0.48354 0.27661 0.97146 0.0
C1768 C 0.48085 0.25647 0.00124 0.0
C1769 C 0.45543 0.25696 0.03117 0.0
C1770 C 0.303 0.2175 0.71128 0.0
C1771 C 0.30552 0.23419 0.67295 0.0
C1772 C 0.27712 0.21702 0.7389 0.0
C1773 C 0.25291 0.23363 0.73001 0.0
H1774 H 0.32119 0.20457 0.72002 0.0
H1775 H 0.27634 0.20393 0.76803 0.0
S1776 S 0.2476 0.28054 0.63332 0.0
N1777 N 0.28093 0.26725 0.62699 0.0
N1778 N 0.23268 0.26671 0.67923 0.0
C1779 C 0.25498 0.25027 0.69162 0.0
C1780 C 0.28112 0.25044 0.66303 0.0
C1781 C 0.47707 0.50531 0.7338 0.0
C1782 C 0.50103 0.48861 0.72376 0.0
C1783 C 0.45092 0.50531 0.70676 0.0
C1784 C 0.4479 0.48904 0.66788 0.0
H1785 H 0.47818 0.51808 0.76347 0.0
H1786 H 0.43288 0.51819 0.71646 0.0
S1787 S 0.50469 0.44243 0.62537 0.0
N1788 N 0.52031 0.45575 0.67133 0.0
N1789 N 0.47152 0.45616 0.62021 0.0
C1790 C 0.47201 0.47272 0.65672 0.0
C1791 C 0.49842 0.47237 0.68473 0.0
loop_
_geom_bond_atom_site_label_1
_geom_bond_atom_site_label_2
_geom_bond_distance
_geom_bond_site_symmetry_2
_ccdc_geom_bond_type
O0 Zn1 1.953 . S
O0 C16 1.225 . S
Zn1 O0 1.953 . S
Zn1 O2 1.949 1_565 S
Zn1 O8 1.919 . S
Zn1 O13 1.924 . S
O2 Zn1 1.949 1_545 S
O2 Zn3 1.923 1_545 S
O2 Zn4 1.950 . S
O2 Zn5 1.945 . S
Zn3 O2 1.923 1_565 S
Zn3 O6 1.933 . S
Zn3 O9 1.941 . S
Zn3 O10 1.965 . S
Zn4 O2 1.950 . S
Zn4 O11 1.938 1_554 S
Zn4 O12 1.906 . S
Zn4 O22 1.953 . S
Zn5 O2 1.945 . S
Zn5 O7 1.932 . S
Zn5 O14 1.977 . S
Zn5 O15 1.910 . S
O6 Zn3 1.933 . S
O6 C17 1.226 1_565 S
O7 Zn5 1.932 . S
O7 C17 1.307 . S
O8 Zn1 1.919 . S
O8 C19 1.253 . S
O9 Zn3 1.941 . S
O9 C19 1.283 . S
O10 Zn3 1.965 . S
O10 C18 1.303 1_564 S
O11 Zn4 1.938 1_556 S
O11 C18 1.247 . S
O12 Zn4 1.906 . S
O12 C20 1.304 . S
O13 Zn1 1.924 . S
O13 C21 1.311 . S
O14 Zn5 1.977 . S
O14 C20 1.272 . S
O15 Zn5 1.910 . S
O15 C21 1.231 1_545 S
C16 O0 1.225 . S
C16 O22 1.298 1_565 S
C17 O6 1.226 1_545 S
C17 O7 1.307 . S
C18 O10 1.303 1_546 S
C18 O11 1.247 . S
C19 O8 1.253 . S
C19 O9 1.283 . S
C20 O12 1.304 . S
C20 O14 1.272 . S
C21 O13 1.311 . S
C21 O15 1.231 1_565 S
O22 Zn4 1.953 . S
O22 C16 1.298 1_545 S
O23 Zn24 1.953 . S
O23 C39 1.225 . S
Zn24 O23 1.953 . S
Zn24 O25 1.949 . S
Zn24 O31 1.919 . S
Zn24 O36 1.924 . S
O25 Zn24 1.949 . S
O25 Zn26 1.923 . S
O25 Zn27 1.950 . S
O25 Zn28 1.945 . S
Zn26 O25 1.923 . S
Zn26 O29 1.933 . S
Zn26 O32 1.941 . S
Zn26 O33 1.965 . S
Zn27 O25 1.950 . S
Zn27 O34 1.938 1_554 S
Zn27 O35 1.906 . S
Zn27 O45 1.953 . S
Zn28 O25 1.945 . S
Zn28 O30 1.932 . S
Zn28 O37 1.977 . S
Zn28 O38 1.910 . S
O29 Zn26 1.933 . S
O29 C40 1.226 . S
O30 Zn28 1.932 . S
O30 C40 1.307 . S
O31 Zn24 1.919 . S
O31 C42 1.253 . S
O32 Zn26 1.941 . S
O32 C42 1.283 . S
O33 Zn26 1.965 . S
O33 C41 1.303 1_554 S
O34 Zn27 1.938 1_556 S
O34 C41 1.247 . S
O35 Zn27 1.906 . S
O35 C43 1.304 . S
O36 Zn24 1.924 . S
O36 C44 1.311 . S
O37 Zn28 1.977 . S
O37 C43 1.272 . S
O38 Zn28 1.910 . S
O38 C44 1.231 . S
C39 O23 1.225 . S
C39 O45 1.298 . S
C40 O29 1.226 . S
C40 O30 1.307 . S
C41 O33 1.303 1_556 S
C41 O34 1.247 . S
C42 O31 1.253 . S
C42 O32 1.283 . S
C43 O35 1.304 . S
C43 O37 1.272 . S
C44 O36 1.311 . S
C44 O38 1.231 . S
O45 Zn27 1.953 . S
O45 C39 1.298 . S
O46 Zn47 1.953 . S
O46 C62 1.225 . S
Zn47 O46 1.953 . S
Zn47 O48 1.949 . S
Zn47 O54 1.919 . S
Zn47 O59 1.924 . S
O48 Zn47 1.949 . S
O48 Zn49 1.923 . S
O48 Zn50 1.950 . S
O48 Zn51 1.945 . S
Zn49 O48 1.923 . S
Zn49 O52 1.933 . S
Zn49 O55 1.941 . S
Zn49 O56 1.965 . S
Zn50 O48 1.950 . S
Zn50 O57 1.938 . S
Zn50 O58 1.906 . S
Zn50 O68 1.953 . S
Zn51 O48 1.945 . S
Zn51 O53 1.932 . S
Zn51 O60 1.977 . S
Zn51 O61 1.910 . S
O52 Zn49 1.933 . S
O52 C63 1.226 . S
O53 Zn51 1.932 . S
O53 C63 1.307 . S
O54 Zn47 1.919 . S
O54 C65 1.253 . S
O55 Zn49 1.941 . S
O55 C65 1.283 . S
O56 Zn49 1.965 . S
O56 C64 1.303 . S
O57 Zn50 1.938 . S
O57 C64 1.247 . S
O58 Zn50 1.906 . S
O58 C66 1.304 . S
O59 Zn47 1.924 . S
O59 C67 1.311 . S
O60 Zn51 1.977 . S
O60 C66 1.272 . S
O61 Zn51 1.910 . S
O61 C67 1.231 . S
C62 O46 1.225 . S
C62 O68 1.298 . S
C63 O52 1.226 . S
C63 O53 1.307 . S
C64 O56 1.303 . S
C64 O57 1.247 . S
C65 O54 1.253 . S
C65 O55 1.283 . S
C66 O58 1.304 . S
C66 O60 1.272 . S
C67 O59 1.311 . S
C67 O61 1.231 . S
O68 Zn50 1.953 . S
O68 C62 1.298 . S
O69 Zn70 1.953 . S
O69 C85 1.225 . S
Zn70 O69 1.953 . S
Zn70 O71 1.949 1_565 S
Zn70 O77 1.919 . S
Zn70 O82 1.924 . S
O71 Zn70 1.949 1_545 S
O71 Zn72 1.923 1_545 S
O71 Zn73 1.950 . S
O71 Zn74 1.945 . S
Zn72 O71 1.923 1_565 S
Zn72 O75 1.933 . S
Zn72 O78 1.941 . S
Zn72 O79 1.965 . S
Zn73 O71 1.950 . S
Zn73 O80 1.938 . S
Zn73 O81 1.906 . S
Zn73 O91 1.953 . S
Zn74 O71 1.945 . S
Zn74 O76 1.932 . S
Zn74 O83 1.977 . S
Zn74 O84 1.910 . S
O75 Zn72 1.933 . S
O75 C86 1.226 1_565 S
O76 Zn74 1.932 . S
O76 C86 1.307 . S
O77 Zn70 1.919 . S
O77 C88 1.253 . S
O78 Zn72 1.941 . S
O78 C88 1.283 . S
O79 Zn72 1.965 . S
O79 C87 1.303 1_565 S
O80 Zn73 1.938 . S
O80 C87 1.247 . S
O81 Zn73 1.906 . S
O81 C89 1.304 . S
O82 Zn70 1.924 . S
O82 C90 1.311 . S
O83 Zn74 1.977 . S
O83 C89 1.272 . S
O84 Zn74 1.910 . S
O84 C90 1.231 1_545 S
C85 O69 1.225 . S
C85 O91 1.298 1_565 S
C86 O75 1.226 1_545 S
C86 O76 1.307 . S
C87 O79 1.303 1_545 S
C87 O80 1.247 . S
C88 O77 1.253 . S
C88 O78 1.283 . S
C89 O81 1.304 . S
C89 O83 1.272 . S
C90 O82 1.311 . S
C90 O84 1.231 1_565 S
O91 Zn73 1.953 . S
O91 C85 1.298 1_545 S
O92 Zn93 1.953 . S
O92 C108 1.225 . S
Zn93 O92 1.953 . S
Zn93 O94 1.949 1_545 S
Zn93 O100 1.919 . S
Zn93 O105 1.924 . S
O94 Zn93 1.949 1_565 S
O94 Zn95 1.923 1_565 S
O94 Zn96 1.950 . S
O94 Zn97 1.945 . S
Zn95 O94 1.923 1_545 S
Zn95 O98 1.933 . S
Zn95 O101 1.941 . S
Zn95 O102 1.965 . S
Zn96 O94 1.950 . S
Zn96 O103 1.938 1_556 S
Zn96 O104 1.906 . S
Zn96 O114 1.953 . S
Zn97 O94 1.945 . S
Zn97 O99 1.932 . S
Zn97 O106 1.977 . S
Zn97 O107 1.910 . S
O98 Zn95 1.933 . S
O98 C109 1.226 1_545 S
O99 Zn97 1.932 . S
O99 C109 1.307 . S
O100 Zn93 1.919 . S
O100 C111 1.253 . S
O101 Zn95 1.941 . S
O101 C111 1.283 . S
O102 Zn95 1.965 . S
O102 C110 1.303 1_546 S
O103 Zn96 1.938 1_554 S
O103 C110 1.247 . S
O104 Zn96 1.906 . S
O104 C112 1.304 . S
O105 Zn93 1.924 . S
O105 C113 1.311 . S
O106 Zn97 1.977 . S
O106 C112 1.272 . S
O107 Zn97 1.910 . S
O107 C113 1.231 1_565 S
C108 O92 1.225 . S
C108 O114 1.298 1_545 S
C109 O98 1.226 1_565 S
C109 O99 1.307 . S
C110 O102 1.303 1_564 S
C110 O103 1.247 . S
C111 O100 1.253 . S
C111 O101 1.283 . S
C112 O104 1.304 . S
C112 O106 1.272 . S
C113 O105 1.311 . S
C113 O107 1.231 1_545 S
O114 Zn96 1.953 . S
O114 C108 1.298 1_565 S
O115 Zn116 1.953 . S
O115 C131 1.225 . S
Zn116 O115 1.953 . S
Zn116 O117 1.949 . S
Zn116 O123 1.919 . S
Zn116 O128 1.924 . S
O117 Zn116 1.949 . S
O117 Zn118 1.923 . S
O117 Zn119 1.950 . S
O117 Zn120 1.945 . S
Zn118 O117 1.923 . S
Zn118 O121 1.933 . S
Zn118 O124 1.941 . S
Zn118 O125 1.965 . S
Zn119 O117 1.950 . S
Zn119 O126 1.938 1_556 S
Zn119 O127 1.906 . S
Zn119 O137 1.953 . S
Zn120 O117 1.945 . S
Zn120 O122 1.932 . S
Zn120 O129 1.977 . S
Zn120 O130 1.910 . S
O121 Zn118 1.933 . S
O121 C132 1.226 . S
O122 Zn120 1.932 . S
O122 C132 1.307 . S
O123 Zn116 1.919 . S
O123 C134 1.253 . S
O124 Zn118 1.941 . S
O124 C134 1.283 . S
O125 Zn118 1.965 . S
O125 C133 1.303 1_556 S
O126 Zn119 1.938 1_554 S
O126 C133 1.247 . S
O127 Zn119 1.906 . S
O127 C135 1.304 . S
O128 Zn116 1.924 . S
O128 C136 1.311 . S
O129 Zn120 1.977 . S
O129 C135 1.272 . S
O130 Zn120 1.910 . S
O130 C136 1.231 . S
C131 O115 1.225 . S
C131 O137 1.298 . S
C132 O121 1.226 . S
C132 O122 1.307 . S
C133 O125 1.303 1_554 S
C133 O126 1.247 . S
C134 O123 1.253 . S
C134 O124 1.283 . S
C135 O127 1.304 . S
C135 O129 1.272 . S
C136 O128 1.311 . S
C136 O130 1.231 . S
O137 Zn119 1.953 . S
O137 C131 1.298 . S
O138 Zn139 1.953 . S
O138 C154 1.225 . S
Zn139 O138 1.953 . S
Zn139 O140 1.949 . S
Zn139 O146 1.919 . S
Zn139 O151 1.924 . S
O140 Zn139 1.949 . S
O140 Zn141 1.923 . S
O140 Zn142 1.950 . S
O140 Zn143 1.945 . S
Zn141 O140 1.923 . S
Zn141 O144 1.933 . S
Zn141 O147 1.941 . S
Zn141 O148 1.965 . S
Zn142 O140 1.950 . S
Zn142 O149 1.938 . S
Zn142 O150 1.906 . S
Zn142 O160 1.953 . S
Zn143 O140 1.945 . S
Zn143 O145 1.932 . S
Zn143 O152 1.977 . S
Zn143 O153 1.910 . S
O144 Zn141 1.933 . S
O144 C155 1.226 . S
O145 Zn143 1.932 . S
O145 C155 1.307 . S
O146 Zn139 1.919 . S
O146 C157 1.253 . S
O147 Zn141 1.941 . S
O147 C157 1.283 . S
O148 Zn141 1.965 . S
O148 C156 1.303 . S
O149 Zn142 1.938 . S
O149 C156 1.247 . S
O150 Zn142 1.906 . S
O150 C158 1.304 . S
O151 Zn139 1.924 . S
O151 C159 1.311 . S
O152 Zn143 1.977 . S
O152 C158 1.272 . S
O153 Zn143 1.910 . S
O153 C159 1.231 . S
C154 O138 1.225 . S
C154 O160 1.298 . S
C155 O144 1.226 . S
C155 O145 1.307 . S
C156 O148 1.303 . S
C156 O149 1.247 . S
C157 O146 1.253 . S
C157 O147 1.283 . S
C158 O150 1.304 . S
C158 O152 1.272 . S
C159 O151 1.311 . S
C159 O153 1.231 . S
O160 Zn142 1.953 . S
O160 C154 1.298 . S
O161 Zn162 1.953 . S
O161 C177 1.225 . S
Zn162 O161 1.953 . S
Zn162 O163 1.949 1_545 S
Zn162 O169 1.919 . S
Zn162 O174 1.924 . S
O163 Zn162 1.949 1_565 S
O163 Zn164 1.923 1_565 S
O163 Zn165 1.950 . S
O163 Zn166 1.945 . S
Zn164 O163 1.923 1_545 S
Zn164 O167 1.933 . S
Zn164 O170 1.941 . S
Zn164 O171 1.965 . S
Zn165 O163 1.950 . S
Zn165 O172 1.938 . S
Zn165 O173 1.906 . S
Zn165 O183 1.953 . S
Zn166 O163 1.945 . S
Zn166 O168 1.932 . S
Zn166 O175 1.977 . S
Zn166 O176 1.910 . S
O167 Zn164 1.933 . S
O167 C178 1.226 1_545 S
O168 Zn166 1.932 . S
O168 C178 1.307 . S
O169 Zn162 1.919 . S
O169 C180 1.253 . S
O170 Zn164 1.941 . S
O170 C180 1.283 . S
O171 Zn164 1.965 . S
O171 C179 1.303 1_545 S
O172 Zn165 1.938 . S
O172 C179 1.247 . S
O173 Zn165 1.906 . S
O173 C181 1.304 . S
O174 Zn162 1.924 . S
O174 C182 1.311 . S
O175 Zn166 1.977 . S
O175 C181 1.272 . S
O176 Zn166 1.910 . S
O176 C182 1.231 1_565 S
C177 O161 1.225 . S
C177 O183 1.298 1_545 S
C178 O167 1.226 1_565 S
C178 O168 1.307 . S
C179 O171 1.303 1_565 S
C179 O172 1.247 . S
C180 O169 1.253 . S
C180 O170 1.283 . S
C181 O173 1.304 . S
C181 O175 1.272 . S
C182 O174 1.311 . S
C182 O176 1.231 1_545 S
O183 Zn165 1.953 . S
O183 C177 1.298 1_565 S
O184 Zn185 1.953 . S
O184 C200 1.225 . S
Zn185 O184 1.953 . S
Zn185 O186 1.949 . S
Zn185 O192 1.919 . S
Zn185 O197 1.924 . S
O186 Zn185 1.949 . S
O186 Zn187 1.923 . S
O186 Zn188 1.950 . S
O186 Zn189 1.945 . S
Zn187 O186 1.923 . S
Zn187 O190 1.933 . S
Zn187 O193 1.941 . S
Zn187 O194 1.965 . S
Zn188 O186 1.950 . S
Zn188 O195 1.938 . S
Zn188 O196 1.906 . S
Zn188 O206 1.953 . S
Zn189 O186 1.945 . S
Zn189 O191 1.932 . S
Zn189 O198 1.977 . S
Zn189 O199 1.910 . S
O190 Zn187 1.933 . S
O190 C201 1.226 . S
O191 Zn189 1.932 . S
O191 C201 1.307 . S
O192 Zn185 1.919 . S
O192 C203 1.253 . S
O193 Zn187 1.941 . S
O193 C203 1.283 . S
O194 Zn187 1.965 . S
O194 C202 1.303 . S
O195 Zn188 1.938 . S
O195 C202 1.247 . S
O196 Zn188 1.906 . S
O196 C204 1.304 . S
O197 Zn185 1.924 . S
O197 C205 1.311 . S
O198 Zn189 1.977 . S
O198 C204 1.272 . S
O199 Zn189 1.910 . S
O199 C205 1.231 . S
C200 O184 1.225 . S
C200 O206 1.298 . S
C201 O190 1.226 . S
C201 O191 1.307 . S
C202 O194 1.303 . S
C202 O195 1.247 . S
C203 O192 1.253 . S
C203 O193 1.283 . S
C204 O196 1.304 . S
C204 O198 1.272 . S
C205 O197 1.311 . S
C205 O199 1.231 . S
O206 Zn188 1.953 . S
O206 C200 1.298 . S
O207 Zn208 1.953 . S
O207 C223 1.225 . S
Zn208 O207 1.953 . S
Zn208 O209 1.949 . S
Zn208 O215 1.919 . S
Zn208 O220 1.924 . S
O209 Zn208 1.949 . S
O209 Zn210 1.923 . S
O209 Zn211 1.950 . S
O209 Zn212 1.945 . S
Zn210 O209 1.923 . S
Zn210 O213 1.933 . S
Zn210 O216 1.941 . S
Zn210 O217 1.965 . S
Zn211 O209 1.950 . S
Zn211 O218 1.938 . S
Zn211 O219 1.906 . S
Zn211 O229 1.953 . S
Zn212 O209 1.945 . S
Zn212 O214 1.932 . S
Zn212 O221 1.977 . S
Zn212 O222 1.910 . S
O213 Zn210 1.933 . S
O213 C224 1.226 . S
O214 Zn212 1.932 . S
O214 C224 1.307 . S
O215 Zn208 1.919 . S
O215 C226 1.253 . S
O216 Zn210 1.941 . S
O216 C226 1.283 . S
O217 Zn210 1.965 . S
O217 C225 1.303 . S
O218 Zn211 1.938 . S
O218 C225 1.247 . S
O219 Zn211 1.906 . S
O219 C227 1.304 . S
O220 Zn208 1.924 . S
O220 C228 1.311 . S
O221 Zn212 1.977 . S
O221 C227 1.272 . S
O222 Zn212 1.910 . S
O222 C228 1.231 . S
C223 O207 1.225 . S
C223 O229 1.298 . S
C224 O213 1.226 . S
C224 O214 1.307 . S
C225 O217 1.303 . S
C225 O218 1.247 . S
C226 O215 1.253 . S
C226 O216 1.283 . S
C227 O219 1.304 . S
C227 O221 1.272 . S
C228 O220 1.311 . S
C228 O222 1.231 . S
O229 Zn211 1.953 . S
O229 C223 1.298 . S
O230 Zn231 1.953 . S
O230 C246 1.225 . S
Zn231 O230 1.953 . S
Zn231 O232 1.949 . S
Zn231 O238 1.919 . S
Zn231 O243 1.924 . S
O232 Zn231 1.949 . S
O232 Zn233 1.923 . S
O232 Zn234 1.950 . S
O232 Zn235 1.945 . S
Zn233 O232 1.923 . S
Zn233 O236 1.933 . S
Zn233 O239 1.941 . S
Zn233 O240 1.965 . S
Zn234 O232 1.950 . S
Zn234 O241 1.938 . S
Zn234 O242 1.906 . S
Zn234 O252 1.953 . S
Zn235 O232 1.945 . S
Zn235 O237 1.932 . S
Zn235 O244 1.977 . S
Zn235 O245 1.910 . S
O236 Zn233 1.933 . S
O236 C247 1.226 . S
O237 Zn235 1.932 . S
O237 C247 1.307 . S
O238 Zn231 1.919 . S
O238 C249 1.253 . S
O239 Zn233 1.941 . S
O239 C249 1.283 . S
O240 Zn233 1.965 . S
O240 C248 1.303 . S
O241 Zn234 1.938 . S
O241 C248 1.247 . S
O242 Zn234 1.906 . S
O242 C250 1.304 . S
O243 Zn231 1.924 . S
O243 C251 1.311 . S
O244 Zn235 1.977 . S
O244 C250 1.272 . S
O245 Zn235 1.910 . S
O245 C251 1.231 . S
C246 O230 1.225 . S
C246 O252 1.298 . S
C247 O236 1.226 . S
C247 O237 1.307 . S
C248 O240 1.303 . S
C248 O241 1.247 . S
C249 O238 1.253 . S
C249 O239 1.283 . S
C250 O242 1.304 . S
C250 O244 1.272 . S
C251 O243 1.311 . S
C251 O245 1.231 . S
O252 Zn234 1.953 . S
O252 C246 1.298 . S
O253 Zn254 1.953 . S
O253 C269 1.225 . S
Zn254 O253 1.953 . S
Zn254 O255 1.949 . S
Zn254 O261 1.919 . S
Zn254 O266 1.924 . S
O255 Zn254 1.949 . S
O255 Zn256 1.923 . S
O255 Zn257 1.950 . S
O255 Zn258 1.945 . S
Zn256 O255 1.923 . S
Zn256 O259 1.933 . S
Zn256 O262 1.941 . S
Zn256 O263 1.965 . S
Zn257 O255 1.950 . S
Zn257 O264 1.938 . S
Zn257 O265 1.906 . S
Zn257 O275 1.953 . S
Zn258 O255 1.945 . S
Zn258 O260 1.932 . S
Zn258 O267 1.977 . S
Zn258 O268 1.910 . S
O259 Zn256 1.933 . S
O259 C270 1.226 . S
O260 Zn258 1.932 . S
O260 C270 1.307 . S
O261 Zn254 1.919 . S
O261 C272 1.253 . S
O262 Zn256 1.941 . S
O262 C272 1.283 . S
O263 Zn256 1.965 . S
O263 C271 1.303 . S
O264 Zn257 1.938 . S
O264 C271 1.247 . S
O265 Zn257 1.906 . S
O265 C273 1.304 . S
O266 Zn254 1.924 . S
O266 C274 1.311 . S
O267 Zn258 1.977 . S
O267 C273 1.272 . S
O268 Zn258 1.910 . S
O268 C274 1.231 . S
C269 O253 1.225 . S
C269 O275 1.298 . S
C270 O259 1.226 . S
C270 O260 1.307 . S
C271 O263 1.303 . S
C271 O264 1.247 . S
C272 O261 1.253 . S
C272 O262 1.283 . S
C273 O265 1.304 . S
C273 O267 1.272 . S
C274 O266 1.311 . S
C274 O268 1.231 . S
O275 Zn257 1.953 . S
O275 C269 1.298 . S
O276 Zn277 1.953 . S
O276 C292 1.225 . S
Zn277 O276 1.953 . S
Zn277 O278 1.949 . S
Zn277 O284 1.919 . S
Zn277 O289 1.924 . S
O278 Zn277 1.949 . S
O278 Zn279 1.923 . S
O278 Zn280 1.950 . S
O278 Zn281 1.945 . S
Zn279 O278 1.923 . S
Zn279 O282 1.933 . S
Zn279 O285 1.941 . S
Zn279 O286 1.965 . S
Zn280 O278 1.950 . S
Zn280 O287 1.938 . S
Zn280 O288 1.906 . S
Zn280 O298 1.953 . S
Zn281 O278 1.945 . S
Zn281 O283 1.932 . S
Zn281 O290 1.977 . S
Zn281 O291 1.910 . S
O282 Zn279 1.933 . S
O282 C293 1.226 . S
O283 Zn281 1.932 . S
O283 C293 1.307 . S
O284 Zn277 1.919 . S
O284 C295 1.253 . S
O285 Zn279 1.941 . S
O285 C295 1.283 . S
O286 Zn279 1.965 . S
O286 C294 1.303 . S
O287 Zn280 1.938 . S
O287 C294 1.247 . S
O288 Zn280 1.906 . S
O288 C296 1.304 . S
O289 Zn277 1.924 . S
O289 C297 1.311 . S
O290 Zn281 1.977 . S
O290 C296 1.272 . S
O291 Zn281 1.910 . S
O291 C297 1.231 . S
C292 O276 1.225 . S
C292 O298 1.298 . S
C293 O282 1.226 . S
C293 O283 1.307 . S
C294 O286 1.303 . S
C294 O287 1.247 . S
C295 O284 1.253 . S
C295 O285 1.283 . S
C296 O288 1.304 . S
C296 O290 1.272 . S
C297 O289 1.311 . S
C297 O291 1.231 . S
O298 Zn280 1.953 . S
O298 C292 1.298 . S
O299 Zn300 1.953 . S
O299 C315 1.225 . S
Zn300 O299 1.953 . S
Zn300 O301 1.949 . S
Zn300 O307 1.919 . S
Zn300 O312 1.924 . S
O301 Zn300 1.949 . S
O301 Zn302 1.923 . S
O301 Zn303 1.950 . S
O301 Zn304 1.945 . S
Zn302 O301 1.923 . S
Zn302 O305 1.933 . S
Zn302 O308 1.941 . S
Zn302 O309 1.965 . S
Zn303 O301 1.950 . S
Zn303 O310 1.938 . S
Zn303 O311 1.906 . S
Zn303 O321 1.953 . S
Zn304 O301 1.945 . S
Zn304 O306 1.932 . S
Zn304 O313 1.977 . S
Zn304 O314 1.910 . S
O305 Zn302 1.933 . S
O305 C316 1.226 . S
O306 Zn304 1.932 . S
O306 C316 1.307 . S
O307 Zn300 1.919 . S
O307 C318 1.253 . S
O308 Zn302 1.941 . S
O308 C318 1.283 . S
O309 Zn302 1.965 . S
O309 C317 1.303 . S
O310 Zn303 1.938 . S
O310 C317 1.247 . S
O311 Zn303 1.906 . S
O311 C319 1.304 . S
O312 Zn300 1.924 . S
O312 C320 1.311 . S
O313 Zn304 1.977 . S
O313 C319 1.272 . S
O314 Zn304 1.910 . S
O314 C320 1.231 . S
C315 O299 1.225 . S
C315 O321 1.298 . S
C316 O305 1.226 . S
C316 O306 1.307 . S
C317 O309 1.303 . S
C317 O310 1.247 . S
C318 O307 1.253 . S
C318 O308 1.283 . S
C319 O311 1.304 . S
C319 O313 1.272 . S
C320 O312 1.311 . S
C320 O314 1.231 . S
O321 Zn303 1.953 . S
O321 C315 1.298 . S
O322 Zn323 1.953 . S
O322 C338 1.225 . S
Zn323 O322 1.953 . S
Zn323 O324 1.949 . S
Zn323 O330 1.919 . S
Zn323 O335 1.924 . S
O324 Zn323 1.949 . S
O324 Zn325 1.923 . S
O324 Zn326 1.950 . S
O324 Zn327 1.945 . S
Zn325 O324 1.923 . S
Zn325 O328 1.933 . S
Zn325 O331 1.941 . S
Zn325 O332 1.965 . S
Zn326 O324 1.950 . S
Zn326 O333 1.938 . S
Zn326 O334 1.906 . S
Zn326 O344 1.953 . S
Zn327 O324 1.945 . S
Zn327 O329 1.932 . S
Zn327 O336 1.977 . S
Zn327 O337 1.910 . S
O328 Zn325 1.933 . S
O328 C339 1.226 . S
O329 Zn327 1.932 . S
O329 C339 1.307 . S
O330 Zn323 1.919 . S
O330 C341 1.253 . S
O331 Zn325 1.941 . S
O331 C341 1.283 . S
O332 Zn325 1.965 . S
O332 C340 1.303 . S
O333 Zn326 1.938 . S
O333 C340 1.247 . S
O334 Zn326 1.906 . S
O334 C342 1.304 . S
O335 Zn323 1.924 . S
O335 C343 1.311 . S
O336 Zn327 1.977 . S
O336 C342 1.272 . S
O337 Zn327 1.910 . S
O337 C343 1.231 . S
C338 O322 1.225 . S
C338 O344 1.298 . S
C339 O328 1.226 . S
C339 O329 1.307 . S
C340 O332 1.303 . S
C340 O333 1.247 . S
C341 O330 1.253 . S
C341 O331 1.283 . S
C342 O334 1.304 . S
C342 O336 1.272 . S
C343 O335 1.311 . S
C343 O337 1.231 . S
O344 Zn326 1.953 . S
O344 C338 1.298 . S
O345 Zn346 1.953 . S
O345 C361 1.225 . S
Zn346 O345 1.953 . S
Zn346 O347 1.949 . S
Zn346 O353 1.919 . S
Zn346 O358 1.924 . S
O347 Zn346 1.949 . S
O347 Zn348 1.923 . S
O347 Zn349 1.950 . S
O347 Zn350 1.945 . S
Zn348 O347 1.923 . S
Zn348 O351 1.933 . S
Zn348 O354 1.941 . S
Zn348 O355 1.965 . S
Zn349 O347 1.950 . S
Zn349 O356 1.938 . S
Zn349 O357 1.906 . S
Zn349 O367 1.953 . S
Zn350 O347 1.945 . S
Zn350 O352 1.932 . S
Zn350 O359 1.977 . S
Zn350 O360 1.910 . S
O351 Zn348 1.933 . S
O351 C362 1.226 . S
O352 Zn350 1.932 . S
O352 C362 1.307 . S
O353 Zn346 1.919 . S
O353 C364 1.253 . S
O354 Zn348 1.941 . S
O354 C364 1.283 . S
O355 Zn348 1.965 . S
O355 C363 1.303 . S
O356 Zn349 1.938 . S
O356 C363 1.247 . S
O357 Zn349 1.906 . S
O357 C365 1.304 . S
O358 Zn346 1.924 . S
O358 C366 1.311 . S
O359 Zn350 1.977 . S
O359 C365 1.272 . S
O360 Zn350 1.910 . S
O360 C366 1.231 . S
C361 O345 1.225 . S
C361 O367 1.298 . S
C362 O351 1.226 . S
C362 O352 1.307 . S
C363 O355 1.303 . S
C363 O356 1.247 . S
C364 O353 1.253 . S
C364 O354 1.283 . S
C365 O357 1.304 . S
C365 O359 1.272 . S
C366 O358 1.311 . S
C366 O360 1.231 . S
O367 Zn349 1.953 . S
O367 C361 1.298 . S
O368 Zn369 1.953 . S
O368 C384 1.225 . S
Zn369 O368 1.953 . S
Zn369 O370 1.949 1_565 S
Zn369 O376 1.919 . S
Zn369 O381 1.924 . S
O370 Zn369 1.949 1_545 S
O370 Zn371 1.923 1_545 S
O370 Zn372 1.950 . S
O370 Zn373 1.945 . S
Zn371 O370 1.923 1_565 S
Zn371 O374 1.933 . S
Zn371 O377 1.941 . S
Zn371 O378 1.965 . S
Zn372 O370 1.950 . S
Zn372 O379 1.938 . S
Zn372 O380 1.906 . S
Zn372 O390 1.953 . S
Zn373 O370 1.945 . S
Zn373 O375 1.932 . S
Zn373 O382 1.977 . S
Zn373 O383 1.910 . S
O374 Zn371 1.933 . S
O374 C385 1.226 1_565 S
O375 Zn373 1.932 . S
O375 C385 1.307 . S
O376 Zn369 1.919 . S
O376 C387 1.253 . S
O377 Zn371 1.941 . S
O377 C387 1.283 . S
O378 Zn371 1.965 . S
O378 C386 1.303 1_565 S
O379 Zn372 1.938 . S
O379 C386 1.247 . S
O380 Zn372 1.906 . S
O380 C388 1.304 . S
O381 Zn369 1.924 . S
O381 C389 1.311 . S
O382 Zn373 1.977 . S
O382 C388 1.272 . S
O383 Zn373 1.910 . S
O383 C389 1.231 1_545 S
C384 O368 1.225 . S
C384 O390 1.298 1_565 S
C385 O374 1.226 1_545 S
C385 O375 1.307 . S
C386 O378 1.303 1_545 S
C386 O379 1.247 . S
C387 O376 1.253 . S
C387 O377 1.283 . S
C388 O380 1.304 . S
C388 O382 1.272 . S
C389 O381 1.311 . S
C389 O383 1.231 1_565 S
O390 Zn372 1.953 . S
O390 C384 1.298 1_545 S
O391 Zn392 1.953 . S
O391 C407 1.225 . S
Zn392 O391 1.953 . S
Zn392 O393 1.949 . S
Zn392 O399 1.919 . S
Zn392 O404 1.924 . S
O393 Zn392 1.949 . S
O393 Zn394 1.923 . S
O393 Zn395 1.950 . S
O393 Zn396 1.945 . S
Zn394 O393 1.923 . S
Zn394 O397 1.933 . S
Zn394 O400 1.941 . S
Zn394 O401 1.965 . S
Zn395 O393 1.950 . S
Zn395 O402 1.938 . S
Zn395 O403 1.906 . S
Zn395 O413 1.953 . S
Zn396 O393 1.945 . S
Zn396 O398 1.932 . S
Zn396 O405 1.977 . S
Zn396 O406 1.910 . S
O397 Zn394 1.933 . S
O397 C408 1.226 . S
O398 Zn396 1.932 . S
O398 C408 1.307 . S
O399 Zn392 1.919 . S
O399 C410 1.253 . S
O400 Zn394 1.941 . S
O400 C410 1.283 . S
O401 Zn394 1.965 . S
O401 C409 1.303 . S
O402 Zn395 1.938 . S
O402 C409 1.247 . S
O403 Zn395 1.906 . S
O403 C411 1.304 . S
O404 Zn392 1.924 . S
O404 C412 1.311 . S
O405 Zn396 1.977 . S
O405 C411 1.272 . S
O406 Zn396 1.910 . S
O406 C412 1.231 . S
C407 O391 1.225 . S
C407 O413 1.298 . S
C408 O397 1.226 . S
C408 O398 1.307 . S
C409 O401 1.303 . S
C409 O402 1.247 . S
C410 O399 1.253 . S
C410 O400 1.283 . S
C411 O403 1.304 . S
C411 O405 1.272 . S
C412 O404 1.311 . S
C412 O406 1.231 . S
O413 Zn395 1.953 . S
O413 C407 1.298 . S
O414 Zn415 1.953 . S
O414 C430 1.225 . S
Zn415 O414 1.953 . S
Zn415 O416 1.949 . S
Zn415 O422 1.919 . S
Zn415 O427 1.924 . S
O416 Zn415 1.949 . S
O416 Zn417 1.923 . S
O416 Zn418 1.950 . S
O416 Zn419 1.945 . S
Zn417 O416 1.923 . S
Zn417 O420 1.933 . S
Zn417 O423 1.941 . S
Zn417 O424 1.965 . S
Zn418 O416 1.950 . S
Zn418 O425 1.938 . S
Zn418 O426 1.906 . S
Zn418 O436 1.953 . S
Zn419 O416 1.945 . S
Zn419 O421 1.932 . S
Zn419 O428 1.977 . S
Zn419 O429 1.910 . S
O420 Zn417 1.933 . S
O420 C431 1.226 . S
O421 Zn419 1.932 . S
O421 C431 1.307 . S
O422 Zn415 1.919 . S
O422 C433 1.253 . S
O423 Zn417 1.941 . S
O423 C433 1.283 . S
O424 Zn417 1.965 . S
O424 C432 1.303 . S
O425 Zn418 1.938 . S
O425 C432 1.247 . S
O426 Zn418 1.906 . S
O426 C434 1.304 . S
O427 Zn415 1.924 . S
O427 C435 1.311 . S
O428 Zn419 1.977 . S
O428 C434 1.272 . S
O429 Zn419 1.910 . S
O429 C435 1.231 . S
C430 O414 1.225 . S
C430 O436 1.298 . S
C431 O420 1.226 . S
C431 O421 1.307 . S
C432 O424 1.303 . S
C432 O425 1.247 . S
C433 O422 1.253 . S
C433 O423 1.283 . S
C434 O426 1.304 . S
C434 O428 1.272 . S
C435 O427 1.311 . S
C435 O429 1.231 . S
O436 Zn418 1.953 . S
O436 C430 1.298 . S
O437 Zn438 1.953 . S
O437 C453 1.225 . S
Zn438 O437 1.953 . S
Zn438 O439 1.949 1_565 S
Zn438 O445 1.919 . S
Zn438 O450 1.924 . S
O439 Zn438 1.949 1_545 S
O439 Zn440 1.923 1_545 S
O439 Zn441 1.950 . S
O439 Zn442 1.945 . S
Zn440 O439 1.923 1_565 S
Zn440 O443 1.933 . S
Zn440 O446 1.941 . S
Zn440 O447 1.965 . S
Zn441 O439 1.950 . S
Zn441 O448 1.938 . S
Zn441 O449 1.906 . S
Zn441 O459 1.953 . S
Zn442 O439 1.945 . S
Zn442 O444 1.932 . S
Zn442 O451 1.977 . S
Zn442 O452 1.910 . S
O443 Zn440 1.933 . S
O443 C454 1.226 1_565 S
O444 Zn442 1.932 . S
O444 C454 1.307 . S
O445 Zn438 1.919 . S
O445 C456 1.253 . S
O446 Zn440 1.941 . S
O446 C456 1.283 . S
O447 Zn440 1.965 . S
O447 C455 1.303 1_565 S
O448 Zn441 1.938 . S
O448 C455 1.247 . S
O449 Zn441 1.906 . S
O449 C457 1.304 . S
O450 Zn438 1.924 . S
O450 C458 1.311 . S
O451 Zn442 1.977 . S
O451 C457 1.272 . S
O452 Zn442 1.910 . S
O452 C458 1.231 1_545 S
C453 O437 1.225 . S
C453 O459 1.298 1_565 S
C454 O443 1.226 1_545 S
C454 O444 1.307 . S
C455 O447 1.303 1_545 S
C455 O448 1.247 . S
C456 O445 1.253 . S
C456 O446 1.283 . S
C457 O449 1.304 . S
C457 O451 1.272 . S
C458 O450 1.311 . S
C458 O452 1.231 1_565 S
O459 Zn441 1.953 . S
O459 C453 1.298 1_545 S
O460 Zn461 1.953 . S
O460 C476 1.225 . S
Zn461 O460 1.953 . S
Zn461 O462 1.949 1_545 S
Zn461 O468 1.919 . S
Zn461 O473 1.924 . S
O462 Zn461 1.949 1_565 S
O462 Zn463 1.923 1_565 S
O462 Zn464 1.950 . S
O462 Zn465 1.945 . S
Zn463 O462 1.923 1_545 S
Zn463 O466 1.933 . S
Zn463 O469 1.941 . S
Zn463 O470 1.965 . S
Zn464 O462 1.950 . S
Zn464 O471 1.938 . S
Zn464 O472 1.906 . S
Zn464 O482 1.953 . S
Zn465 O462 1.945 . S
Zn465 O467 1.932 . S
Zn465 O474 1.977 . S
Zn465 O475 1.910 . S
O466 Zn463 1.933 . S
O466 C477 1.226 1_545 S
O467 Zn465 1.932 . S
O467 C477 1.307 . S
O468 Zn461 1.919 . S
O468 C479 1.253 . S
O469 Zn463 1.941 . S
O469 C479 1.283 . S
O470 Zn463 1.965 . S
O470 C478 1.303 1_545 S
O471 Zn464 1.938 . S
O471 C478 1.247 . S
O472 Zn464 1.906 . S
O472 C480 1.304 . S
O473 Zn461 1.924 . S
O473 C481 1.311 . S
O474 Zn465 1.977 . S
O474 C480 1.272 . S
O475 Zn465 1.910 . S
O475 C481 1.231 1_565 S
C476 O460 1.225 . S
C476 O482 1.298 1_545 S
C477 O466 1.226 1_565 S
C477 O467 1.307 . S
C478 O470 1.303 1_565 S
C478 O471 1.247 . S
C479 O468 1.253 . S
C479 O469 1.283 . S
C480 O472 1.304 . S
C480 O474 1.272 . S
C481 O473 1.311 . S
C481 O475 1.231 1_545 S
O482 Zn464 1.953 . S
O482 C476 1.298 1_565 S
O483 Zn484 1.953 . S
O483 C499 1.225 . S
Zn484 O483 1.953 . S
Zn484 O485 1.949 . S
Zn484 O491 1.919 . S
Zn484 O496 1.924 . S
O485 Zn484 1.949 . S
O485 Zn486 1.923 . S
O485 Zn487 1.950 . S
O485 Zn488 1.945 . S
Zn486 O485 1.923 . S
Zn486 O489 1.933 . S
Zn486 O492 1.941 . S
Zn486 O493 1.965 . S
Zn487 O485 1.950 . S
Zn487 O494 1.938 . S
Zn487 O495 1.906 . S
Zn487 O505 1.953 . S
Zn488 O485 1.945 . S
Zn488 O490 1.932 . S
Zn488 O497 1.977 . S
Zn488 O498 1.910 . S
O489 Zn486 1.933 . S
O489 C500 1.226 . S
O490 Zn488 1.932 . S
O490 C500 1.307 . S
O491 Zn484 1.919 . S
O491 C502 1.253 . S
O492 Zn486 1.941 . S
O492 C502 1.283 . S
O493 Zn486 1.965 . S
O493 C501 1.303 . S
O494 Zn487 1.938 . S
O494 C501 1.247 . S
O495 Zn487 1.906 . S
O495 C503 1.304 . S
O496 Zn484 1.924 . S
O496 C504 1.311 . S
O497 Zn488 1.977 . S
O497 C503 1.272 . S
O498 Zn488 1.910 . S
O498 C504 1.231 . S
C499 O483 1.225 . S
C499 O505 1.298 . S
C500 O489 1.226 . S
C500 O490 1.307 . S
C501 O493 1.303 . S
C501 O494 1.247 . S
C502 O491 1.253 . S
C502 O492 1.283 . S
C503 O495 1.304 . S
C503 O497 1.272 . S
C504 O496 1.311 . S
C504 O498 1.231 . S
O505 Zn487 1.953 . S
O505 C499 1.298 . S
O506 Zn507 1.953 . S
O506 C522 1.225 . S
Zn507 O506 1.953 . S
Zn507 O508 1.949 . S
Zn507 O514 1.919 . S
Zn507 O519 1.924 . S
O508 Zn507 1.949 . S
O508 Zn509 1.923 . S
O508 Zn510 1.950 . S
O508 Zn511 1.945 . S
Zn509 O508 1.923 . S
Zn509 O512 1.933 . S
Zn509 O515 1.941 . S
Zn509 O516 1.965 . S
Zn510 O508 1.950 . S
Zn510 O517 1.938 . S
Zn510 O518 1.906 . S
Zn510 O528 1.953 . S
Zn511 O508 1.945 . S
Zn511 O513 1.932 . S
Zn511 O520 1.977 . S
Zn511 O521 1.910 . S
O512 Zn509 1.933 . S
O512 C523 1.226 . S
O513 Zn511 1.932 . S
O513 C523 1.307 . S
O514 Zn507 1.919 . S
O514 C525 1.253 . S
O515 Zn509 1.941 . S
O515 C525 1.283 . S
O516 Zn509 1.965 . S
O516 C524 1.303 . S
O517 Zn510 1.938 . S
O517 C524 1.247 . S
O518 Zn510 1.906 . S
O518 C526 1.304 . S
O519 Zn507 1.924 . S
O519 C527 1.311 . S
O520 Zn511 1.977 . S
O520 C526 1.272 . S
O521 Zn511 1.910 . S
O521 C527 1.231 . S
C522 O506 1.225 . S
C522 O528 1.298 . S
C523 O512 1.226 . S
C523 O513 1.307 . S
C524 O516 1.303 . S
C524 O517 1.247 . S
C525 O514 1.253 . S
C525 O515 1.283 . S
C526 O518 1.304 . S
C526 O520 1.272 . S
C527 O519 1.311 . S
C527 O521 1.231 . S
O528 Zn510 1.953 . S
O528 C522 1.298 . S
O529 Zn530 1.953 . S
O529 C545 1.225 . S
Zn530 O529 1.953 . S
Zn530 O531 1.949 1_545 S
Zn530 O537 1.919 . S
Zn530 O542 1.924 . S
O531 Zn530 1.949 1_565 S
O531 Zn532 1.923 1_565 S
O531 Zn533 1.950 . S
O531 Zn534 1.945 . S
Zn532 O531 1.923 1_545 S
Zn532 O535 1.933 . S
Zn532 O538 1.941 . S
Zn532 O539 1.965 . S
Zn533 O531 1.950 . S
Zn533 O540 1.938 . S
Zn533 O541 1.906 . S
Zn533 O551 1.953 . S
Zn534 O531 1.945 . S
Zn534 O536 1.932 . S
Zn534 O543 1.977 . S
Zn534 O544 1.910 . S
O535 Zn532 1.933 . S
O535 C546 1.226 1_545 S
O536 Zn534 1.932 . S
O536 C546 1.307 . S
O537 Zn530 1.919 . S
O537 C548 1.253 . S
O538 Zn532 1.941 . S
O538 C548 1.283 . S
O539 Zn532 1.965 . S
O539 C547 1.303 1_545 S
O540 Zn533 1.938 . S
O540 C547 1.247 . S
O541 Zn533 1.906 . S
O541 C549 1.304 . S
O542 Zn530 1.924 . S
O542 C550 1.311 . S
O543 Zn534 1.977 . S
O543 C549 1.272 . S
O544 Zn534 1.910 . S
O544 C550 1.231 1_565 S
C545 O529 1.225 . S
C545 O551 1.298 1_545 S
C546 O535 1.226 1_565 S
C546 O536 1.307 . S
C547 O539 1.303 1_565 S
C547 O540 1.247 . S
C548 O537 1.253 . S
C548 O538 1.283 . S
C549 O541 1.304 . S
C549 O543 1.272 . S
C550 O542 1.311 . S
C550 O544 1.231 1_545 S
O551 Zn533 1.953 . S
O551 C545 1.298 1_565 S
O552 Zn553 1.953 . S
O552 C568 1.225 . S
Zn553 O552 1.953 . S
Zn553 O554 1.949 . S
Zn553 O560 1.919 . S
Zn553 O565 1.924 . S
O554 Zn553 1.949 . S
O554 Zn555 1.923 . S
O554 Zn556 1.950 . S
O554 Zn557 1.945 . S
Zn555 O554 1.923 . S
Zn555 O558 1.933 . S
Zn555 O561 1.941 . S
Zn555 O562 1.965 . S
Zn556 O554 1.950 . S
Zn556 O563 1.938 1_554 S
Zn556 O564 1.906 . S
Zn556 O574 1.953 . S
Zn557 O554 1.945 . S
Zn557 O559 1.932 . S
Zn557 O566 1.977 . S
Zn557 O567 1.910 . S
O558 Zn555 1.933 . S
O558 C569 1.226 . S
O559 Zn557 1.932 . S
O559 C569 1.307 . S
O560 Zn553 1.919 . S
O560 C571 1.253 . S
O561 Zn555 1.941 . S
O561 C571 1.283 . S
O562 Zn555 1.965 . S
O562 C570 1.303 1_554 S
O563 Zn556 1.938 1_556 S
O563 C570 1.247 . S
O564 Zn556 1.906 . S
O564 C572 1.304 . S
O565 Zn553 1.924 . S
O565 C573 1.311 . S
O566 Zn557 1.977 . S
O566 C572 1.272 . S
O567 Zn557 1.910 . S
O567 C573 1.231 . S
C568 O552 1.225 . S
C568 O574 1.298 . S
C569 O558 1.226 . S
C569 O559 1.307 . S
C570 O562 1.303 1_556 S
C570 O563 1.247 . S
C571 O560 1.253 . S
C571 O561 1.283 . S
C572 O564 1.304 . S
C572 O566 1.272 . S
C573 O565 1.311 . S
C573 O567 1.231 . S
O574 Zn556 1.953 . S
O574 C568 1.298 . S
O575 Zn576 1.953 . S
O575 C591 1.225 . S
Zn576 O575 1.953 . S
Zn576 O577 1.949 . S
Zn576 O583 1.919 . S
Zn576 O588 1.924 . S
O577 Zn576 1.949 . S
O577 Zn578 1.923 . S
O577 Zn579 1.950 . S
O577 Zn580 1.945 . S
Zn578 O577 1.923 . S
Zn578 O581 1.933 . S
Zn578 O584 1.941 . S
Zn578 O585 1.965 . S
Zn579 O577 1.950 . S
Zn579 O586 1.938 1_554 S
Zn579 O587 1.906 . S
Zn579 O597 1.953 . S
Zn580 O577 1.945 . S
Zn580 O582 1.932 . S
Zn580 O589 1.977 . S
Zn580 O590 1.910 . S
O581 Zn578 1.933 . S
O581 C592 1.226 . S
O582 Zn580 1.932 . S
O582 C592 1.307 . S
O583 Zn576 1.919 . S
O583 C594 1.253 . S
O584 Zn578 1.941 . S
O584 C594 1.283 . S
O585 Zn578 1.965 . S
O585 C593 1.303 1_554 S
O586 Zn579 1.938 1_556 S
O586 C593 1.247 . S
O587 Zn579 1.906 . S
O587 C595 1.304 . S
O588 Zn576 1.924 . S
O588 C596 1.311 . S
O589 Zn580 1.977 . S
O589 C595 1.272 . S
O590 Zn580 1.910 . S
O590 C596 1.231 . S
C591 O575 1.225 . S
C591 O597 1.298 . S
C592 O581 1.226 . S
C592 O582 1.307 . S
C593 O585 1.303 1_556 S
C593 O586 1.247 . S
C594 O583 1.253 . S
C594 O584 1.283 . S
C595 O587 1.304 . S
C595 O589 1.272 . S
C596 O588 1.311 . S
C596 O590 1.231 . S
O597 Zn579 1.953 . S
O597 C591 1.298 . S
O598 Zn599 1.953 . S
O598 C614 1.225 . S
Zn599 O598 1.953 . S
Zn599 O600 1.949 . S
Zn599 O606 1.919 . S
Zn599 O611 1.924 . S
O600 Zn599 1.949 . S
O600 Zn601 1.923 . S
O600 Zn602 1.950 . S
O600 Zn603 1.945 . S
Zn601 O600 1.923 . S
Zn601 O604 1.933 . S
Zn601 O607 1.941 . S
Zn601 O608 1.965 . S
Zn602 O600 1.950 . S
Zn602 O609 1.938 . S
Zn602 O610 1.906 . S
Zn602 O620 1.953 . S
Zn603 O600 1.945 . S
Zn603 O605 1.932 . S
Zn603 O612 1.977 . S
Zn603 O613 1.910 . S
O604 Zn601 1.933 . S
O604 C615 1.226 . S
O605 Zn603 1.932 . S
O605 C615 1.307 . S
O606 Zn599 1.919 . S
O606 C617 1.253 . S
O607 Zn601 1.941 . S
O607 C617 1.283 . S
O608 Zn601 1.965 . S
O608 C616 1.303 . S
O609 Zn602 1.938 . S
O609 C616 1.247 . S
O610 Zn602 1.906 . S
O610 C618 1.304 . S
O611 Zn599 1.924 . S
O611 C619 1.311 . S
O612 Zn603 1.977 . S
O612 C618 1.272 . S
O613 Zn603 1.910 . S
O613 C619 1.231 . S
C614 O598 1.225 . S
C614 O620 1.298 . S
C615 O604 1.226 . S
C615 O605 1.307 . S
C616 O608 1.303 . S
C616 O609 1.247 . S
C617 O606 1.253 . S
C617 O607 1.283 . S
C618 O610 1.304 . S
C618 O612 1.272 . S
C619 O611 1.311 . S
C619 O613 1.231 . S
O620 Zn602 1.953 . S
O620 C614 1.298 . S
O621 Zn622 1.953 . S
O621 C637 1.225 . S
Zn622 O621 1.953 . S
Zn622 O623 1.949 . S
Zn622 O629 1.919 . S
Zn622 O634 1.924 . S
O623 Zn622 1.949 . S
O623 Zn624 1.923 . S
O623 Zn625 1.950 . S
O623 Zn626 1.945 . S
Zn624 O623 1.923 . S
Zn624 O627 1.933 . S
Zn624 O630 1.941 . S
Zn624 O631 1.965 . S
Zn625 O623 1.950 . S
Zn625 O632 1.938 . S
Zn625 O633 1.906 . S
Zn625 O643 1.953 . S
Zn626 O623 1.945 . S
Zn626 O628 1.932 . S
Zn626 O635 1.977 . S
Zn626 O636 1.910 . S
O627 Zn624 1.933 . S
O627 C638 1.226 . S
O628 Zn626 1.932 . S
O628 C638 1.307 . S
O629 Zn622 1.919 . S
O629 C640 1.253 . S
O630 Zn624 1.941 . S
O630 C640 1.283 . S
O631 Zn624 1.965 . S
O631 C639 1.303 . S
O632 Zn625 1.938 . S
O632 C639 1.247 . S
O633 Zn625 1.906 . S
O633 C641 1.304 . S
O634 Zn622 1.924 . S
O634 C642 1.311 . S
O635 Zn626 1.977 . S
O635 C641 1.272 . S
O636 Zn626 1.910 . S
O636 C642 1.231 . S
C637 O621 1.225 . S
C637 O643 1.298 . S
C638 O627 1.226 . S
C638 O628 1.307 . S
C639 O631 1.303 . S
C639 O632 1.247 . S
C640 O629 1.253 . S
C640 O630 1.283 . S
C641 O633 1.304 . S
C641 O635 1.272 . S
C642 O634 1.311 . S
C642 O636 1.231 . S
O643 Zn625 1.953 . S
O643 C637 1.298 . S
O644 Zn645 1.953 . S
O644 C660 1.225 . S
Zn645 O644 1.953 . S
Zn645 O646 1.949 . S
Zn645 O652 1.919 . S
Zn645 O657 1.924 . S
O646 Zn645 1.949 . S
O646 Zn647 1.923 . S
O646 Zn648 1.950 . S
O646 Zn649 1.945 . S
Zn647 O646 1.923 . S
Zn647 O650 1.933 . S
Zn647 O653 1.941 . S
Zn647 O654 1.965 . S
Zn648 O646 1.950 . S
Zn648 O655 1.938 1_556 S
Zn648 O656 1.906 . S
Zn648 O666 1.953 . S
Zn649 O646 1.945 . S
Zn649 O651 1.932 . S
Zn649 O658 1.977 . S
Zn649 O659 1.910 . S
O650 Zn647 1.933 . S
O650 C661 1.226 . S
O651 Zn649 1.932 . S
O651 C661 1.307 . S
O652 Zn645 1.919 . S
O652 C663 1.253 . S
O653 Zn647 1.941 . S
O653 C663 1.283 . S
O654 Zn647 1.965 . S
O654 C662 1.303 1_556 S
O655 Zn648 1.938 1_554 S
O655 C662 1.247 . S
O656 Zn648 1.906 . S
O656 C664 1.304 . S
O657 Zn645 1.924 . S
O657 C665 1.311 . S
O658 Zn649 1.977 . S
O658 C664 1.272 . S
O659 Zn649 1.910 . S
O659 C665 1.231 . S
C660 O644 1.225 . S
C660 O666 1.298 . S
C661 O650 1.226 . S
C661 O651 1.307 . S
C662 O654 1.303 1_554 S
C662 O655 1.247 . S
C663 O652 1.253 . S
C663 O653 1.283 . S
C664 O656 1.304 . S
C664 O658 1.272 . S
C665 O657 1.311 . S
C665 O659 1.231 . S
O666 Zn648 1.953 . S
O666 C660 1.298 . S
O667 Zn668 1.953 . S
O667 C683 1.225 . S
Zn668 O667 1.953 . S
Zn668 O669 1.949 . S
Zn668 O675 1.919 . S
Zn668 O680 1.924 . S
O669 Zn668 1.949 . S
O669 Zn670 1.923 . S
O669 Zn671 1.950 . S
O669 Zn672 1.945 . S
Zn670 O669 1.923 . S
Zn670 O673 1.933 . S
Zn670 O676 1.941 . S
Zn670 O677 1.965 . S
Zn671 O669 1.950 . S
Zn671 O678 1.938 1_556 S
Zn671 O679 1.906 . S
Zn671 O689 1.953 . S
Zn672 O669 1.945 . S
Zn672 O674 1.932 . S
Zn672 O681 1.977 . S
Zn672 O682 1.910 . S
O673 Zn670 1.933 . S
O673 C684 1.226 . S
O674 Zn672 1.932 . S
O674 C684 1.307 . S
O675 Zn668 1.919 . S
O675 C686 1.253 . S
O676 Zn670 1.941 . S
O676 C686 1.283 . S
O677 Zn670 1.965 . S
O677 C685 1.303 1_556 S
O678 Zn671 1.938 1_554 S
O678 C685 1.247 . S
O679 Zn671 1.906 . S
O679 C687 1.304 . S
O680 Zn668 1.924 . S
O680 C688 1.311 . S
O681 Zn672 1.977 . S
O681 C687 1.272 . S
O682 Zn672 1.910 . S
O682 C688 1.231 . S
C683 O667 1.225 . S
C683 O689 1.298 . S
C684 O673 1.226 . S
C684 O674 1.307 . S
C685 O677 1.303 1_554 S
C685 O678 1.247 . S
C686 O675 1.253 . S
C686 O676 1.283 . S
C687 O679 1.304 . S
C687 O681 1.272 . S
C688 O680 1.311 . S
C688 O682 1.231 . S
O689 Zn671 1.953 . S
O689 C683 1.298 . S
O690 Zn691 1.953 . S
O690 C706 1.225 . S
Zn691 O690 1.953 . S
Zn691 O692 1.949 . S
Zn691 O698 1.919 . S
Zn691 O703 1.924 . S
O692 Zn691 1.949 . S
O692 Zn693 1.923 . S
O692 Zn694 1.950 . S
O692 Zn695 1.945 . S
Zn693 O692 1.923 . S
Zn693 O696 1.933 . S
Zn693 O699 1.941 . S
Zn693 O700 1.965 . S
Zn694 O692 1.950 . S
Zn694 O701 1.938 . S
Zn694 O702 1.906 . S
Zn694 O712 1.953 . S
Zn695 O692 1.945 . S
Zn695 O697 1.932 . S
Zn695 O704 1.977 . S
Zn695 O705 1.910 . S
O696 Zn693 1.933 . S
O696 C707 1.226 . S
O697 Zn695 1.932 . S
O697 C707 1.307 . S
O698 Zn691 1.919 . S
O698 C709 1.253 . S
O699 Zn693 1.941 . S
O699 C709 1.283 . S
O700 Zn693 1.965 . S
O700 C708 1.303 . S
O701 Zn694 1.938 . S
O701 C708 1.247 . S
O702 Zn694 1.906 . S
O702 C710 1.304 . S
O703 Zn691 1.924 . S
O703 C711 1.311 . S
O704 Zn695 1.977 . S
O704 C710 1.272 . S
O705 Zn695 1.910 . S
O705 C711 1.231 . S
C706 O690 1.225 . S
C706 O712 1.298 . S
C707 O696 1.226 . S
C707 O697 1.307 . S
C708 O700 1.303 . S
C708 O701 1.247 . S
C709 O698 1.253 . S
C709 O699 1.283 . S
C710 O702 1.304 . S
C710 O704 1.272 . S
C711 O703 1.311 . S
C711 O705 1.231 . S
O712 Zn694 1.953 . S
O712 C706 1.298 . S
O713 Zn714 1.953 . S
O713 C729 1.225 . S
Zn714 O713 1.953 . S
Zn714 O715 1.949 . S
Zn714 O721 1.919 . S
Zn714 O726 1.924 . S
O715 Zn714 1.949 . S
O715 Zn716 1.923 . S
O715 Zn717 1.950 . S
O715 Zn718 1.945 . S
Zn716 O715 1.923 . S
Zn716 O719 1.933 . S
Zn716 O722 1.941 . S
Zn716 O723 1.965 . S
Zn717 O715 1.950 . S
Zn717 O724 1.938 . S
Zn717 O725 1.906 . S
Zn717 O735 1.953 . S
Zn718 O715 1.945 . S
Zn718 O720 1.932 . S
Zn718 O727 1.977 . S
Zn718 O728 1.910 . S
O719 Zn716 1.933 . S
O719 C730 1.226 . S
O720 Zn718 1.932 . S
O720 C730 1.307 . S
O721 Zn714 1.919 . S
O721 C732 1.253 . S
O722 Zn716 1.941 . S
O722 C732 1.283 . S
O723 Zn716 1.965 . S
O723 C731 1.303 . S
O724 Zn717 1.938 . S
O724 C731 1.247 . S
O725 Zn717 1.906 . S
O725 C733 1.304 . S
O726 Zn714 1.924 . S
O726 C734 1.311 . S
O727 Zn718 1.977 . S
O727 C733 1.272 . S
O728 Zn718 1.910 . S
O728 C734 1.231 . S
C729 O713 1.225 . S
C729 O735 1.298 . S
C730 O719 1.226 . S
C730 O720 1.307 . S
C731 O723 1.303 . S
C731 O724 1.247 . S
C732 O721 1.253 . S
C732 O722 1.283 . S
C733 O725 1.304 . S
C733 O727 1.272 . S
C734 O726 1.311 . S
C734 O728 1.231 . S
O735 Zn717 1.953 . S
O735 C729 1.298 . S
C736 C737 1.369 . S
C736 C738 1.419 . S
C736 H740 0.930 . S
C737 C736 1.369 . S
C737 C746 1.429 . S
C738 C736 1.419 . S
C738 C739 1.363 . S
C738 H741 0.929 . S
C739 C738 1.363 . S
C739 C745 1.428 . S
H740 C736 0.930 . S
H741 C738 0.929 . S
S742 N743 1.613 . S
S742 N744 1.610 . S
N743 S742 1.613 . S
N743 C746 1.350 . S
N744 S742 1.610 . S
N744 C745 1.351 . S
C745 C739 1.428 . S
C745 N744 1.351 . S
C745 C746 1.434 . S
C746 C737 1.429 . S
C746 N743 1.350 . S
C746 C745 1.434 . S
C747 C748 1.369 . S
C747 C749 1.419 . S
C747 H751 0.930 . S
C748 C747 1.369 . S
C748 C757 1.429 . S
C749 C747 1.419 . S
C749 C750 1.363 . S
C749 H752 0.929 . S
C750 C749 1.363 . S
C750 C756 1.428 . S
H751 C747 0.930 . S
H752 C749 0.929 . S
S753 N754 1.613 1_556 S
S753 N755 1.610 1_556 S
N754 S753 1.613 1_554 S
N754 C757 1.350 . S
N755 S753 1.610 1_554 S
N755 C756 1.351 . S
C756 C750 1.428 . S
C756 N755 1.351 . S
C756 C757 1.434 . S
C757 C748 1.429 . S
C757 N754 1.350 . S
C757 C756 1.434 . S
C758 C759 1.369 . S
C758 C760 1.419 . S
C758 H762 0.930 . S
C759 C758 1.369 . S
C759 C768 1.429 . S
C760 C758 1.419 . S
C760 C761 1.363 . S
C760 H763 0.929 . S
C761 C760 1.363 . S
C761 C767 1.428 . S
H762 C758 0.930 . S
H763 C760 0.929 . S
S764 N765 1.613 . S
S764 N766 1.610 . S
N765 S764 1.613 . S
N765 C768 1.350 . S
N766 S764 1.610 . S
N766 C767 1.351 . S
C767 C761 1.428 . S
C767 N766 1.351 . S
C767 C768 1.434 . S
C768 C759 1.429 . S
C768 N765 1.350 . S
C768 C767 1.434 . S
C769 C770 1.369 . S
C769 C771 1.419 . S
C769 H773 0.930 . S
C770 C769 1.369 . S
C770 C779 1.429 . S
C771 C769 1.419 . S
C771 C772 1.363 . S
C771 H774 0.929 . S
C772 C771 1.363 . S
C772 C778 1.428 . S
H773 C769 0.930 . S
H774 C771 0.929 . S
S775 N776 1.613 . S
S775 N777 1.610 . S
N776 S775 1.613 . S
N776 C779 1.350 . S
N777 S775 1.610 . S
N777 C778 1.351 . S
C778 C772 1.428 . S
C778 N777 1.351 . S
C778 C779 1.434 . S
C779 C770 1.429 . S
C779 N776 1.350 . S
C779 C778 1.434 . S
C780 C781 1.369 . S
C780 C782 1.419 . S
C780 H784 0.930 . S
C781 C780 1.369 . S
C781 C790 1.429 . S
C782 C780 1.419 . S
C782 C783 1.363 . S
C782 H785 0.929 . S
C783 C782 1.363 . S
C783 C789 1.428 . S
H784 C780 0.930 . S
H785 C782 0.929 . S
S786 N787 1.613 . S
S786 N788 1.610 . S
N787 S786 1.613 . S
N787 C790 1.350 . S
N788 S786 1.610 . S
N788 C789 1.351 . S
C789 C783 1.428 . S
C789 N788 1.351 . S
C789 C790 1.434 . S
C790 C781 1.429 . S
C790 N787 1.350 . S
C790 C789 1.434 . S
C791 C792 1.369 . S
C791 C793 1.419 . S
C791 H795 0.930 . S
C792 C791 1.369 . S
C792 C801 1.429 . S
C793 C791 1.419 . S
C793 C794 1.363 . S
C793 H796 0.929 . S
C794 C793 1.363 . S
C794 C800 1.428 . S
H795 C791 0.930 . S
H796 C793 0.929 . S
S797 N798 1.613 . S
S797 N799 1.610 . S
N798 S797 1.613 . S
N798 C801 1.350 . S
N799 S797 1.610 . S
N799 C800 1.351 . S
C800 C794 1.428 . S
C800 N799 1.351 . S
C800 C801 1.434 . S
C801 C792 1.429 . S
C801 N798 1.350 . S
C801 C800 1.434 . S
C802 C803 1.369 . S
C802 C804 1.419 . S
C802 H806 0.930 . S
C803 C802 1.369 . S
C803 C812 1.429 . S
C804 C802 1.419 . S
C804 C805 1.363 . S
C804 H807 0.929 . S
C805 C804 1.363 . S
C805 C811 1.428 . S
H806 C802 0.930 . S
H807 C804 0.929 . S
S808 N809 1.613 . S
S808 N810 1.610 . S
N809 S808 1.613 . S
N809 C812 1.350 . S
N810 S808 1.610 . S
N810 C811 1.351 . S
C811 C805 1.428 . S
C811 N810 1.351 . S
C811 C812 1.434 . S
C812 C803 1.429 . S
C812 N809 1.350 . S
C812 C811 1.434 . S
C813 C814 1.369 . S
C813 C815 1.419 . S
C813 H817 0.930 . S
C814 C813 1.369 . S
C814 C823 1.429 . S
C815 C813 1.419 . S
C815 C816 1.363 . S
C815 H818 0.929 . S
C816 C815 1.363 . S
C816 C822 1.428 . S
H817 C813 0.930 . S
H818 C815 0.929 . S
S819 N820 1.613 . S
S819 N821 1.610 . S
N820 S819 1.613 . S
N820 C823 1.350 . S
N821 S819 1.610 . S
N821 C822 1.351 . S
C822 C816 1.428 . S
C822 N821 1.351 . S
C822 C823 1.434 . S
C823 C814 1.429 . S
C823 N820 1.350 . S
C823 C822 1.434 . S
C824 C825 1.369 . S
C824 C826 1.419 . S
C824 H828 0.930 . S
C825 C824 1.369 . S
C825 C834 1.429 . S
C826 C824 1.419 . S
C826 C827 1.363 . S
C826 H829 0.929 . S
C827 C826 1.363 . S
C827 C833 1.428 . S
H828 C824 0.930 . S
H829 C826 0.929 . S
S830 N831 1.613 . S
S830 N832 1.610 . S
N831 S830 1.613 . S
N831 C834 1.350 . S
N832 S830 1.610 . S
N832 C833 1.351 . S
C833 C827 1.428 . S
C833 N832 1.351 . S
C833 C834 1.434 . S
C834 C825 1.429 . S
C834 N831 1.350 . S
C834 C833 1.434 . S
C835 C836 1.369 . S
C835 C837 1.419 . S
C835 H839 0.930 . S
C836 C835 1.369 . S
C836 C845 1.429 . S
C837 C835 1.419 . S
C837 C838 1.363 . S
C837 H840 0.929 . S
C838 C837 1.363 . S
C838 C844 1.428 . S
H839 C835 0.930 . S
H840 C837 0.929 . S
S841 N842 1.613 . S
S841 N843 1.610 . S
N842 S841 1.613 . S
N842 C845 1.350 . S
N843 S841 1.610 . S
N843 C844 1.351 . S
C844 C838 1.428 . S
C844 N843 1.351 . S
C844 C845 1.434 . S
C845 C836 1.429 . S
C845 N842 1.350 . S
C845 C844 1.434 . S
C846 C847 1.369 . S
C846 C848 1.419 . S
C846 H850 0.930 . S
C847 C846 1.369 . S
C847 C856 1.429 . S
C848 C846 1.419 . S
C848 C849 1.363 . S
C848 H851 0.929 . S
C849 C848 1.363 . S
C849 C855 1.428 . S
H850 C846 0.930 . S
H851 C848 0.929 . S
S852 N853 1.613 . S
S852 N854 1.610 . S
N853 S852 1.613 . S
N853 C856 1.350 . S
N854 S852 1.610 . S
N854 C855 1.351 . S
C855 C849 1.428 . S
C855 N854 1.351 . S
C855 C856 1.434 . S
C856 C847 1.429 . S
C856 N853 1.350 . S
C856 C855 1.434 . S
C857 C858 1.369 . S
C857 C859 1.419 . S
C857 H861 0.930 . S
C858 C857 1.369 . S
C858 C867 1.429 . S
C859 C857 1.419 . S
C859 C860 1.363 . S
C859 H862 0.929 . S
C860 C859 1.363 . S
C860 C866 1.428 . S
H861 C857 0.930 . S
H862 C859 0.929 . S
S863 N864 1.613 . S
S863 N865 1.610 . S
N864 S863 1.613 . S
N864 C867 1.350 . S
N865 S863 1.610 . S
N865 C866 1.351 . S
C866 C860 1.428 . S
C866 N865 1.351 . S
C866 C867 1.434 . S
C867 C858 1.429 . S
C867 N864 1.350 . S
C867 C866 1.434 . S
C868 C869 1.369 . S
C868 C870 1.419 . S
C868 H872 0.930 . S
C869 C868 1.369 . S
C869 C878 1.429 . S
C870 C868 1.419 . S
C870 C871 1.363 . S
C870 H873 0.929 . S
C871 C870 1.363 . S
C871 C877 1.428 . S
H872 C868 0.930 . S
H873 C870 0.929 . S
S874 N875 1.613 . S
S874 N876 1.610 . S
N875 S874 1.613 . S
N875 C878 1.350 . S
N876 S874 1.610 . S
N876 C877 1.351 . S
C877 C871 1.428 . S
C877 N876 1.351 . S
C877 C878 1.434 . S
C878 C869 1.429 . S
C878 N875 1.350 . S
C878 C877 1.434 . S
C879 C880 1.369 . S
C879 C881 1.419 . S
C879 H883 0.930 . S
C880 C879 1.369 . S
C880 C889 1.429 . S
C881 C879 1.419 . S
C881 C882 1.363 . S
C881 H884 0.929 . S
C882 C881 1.363 . S
C882 C888 1.428 . S
H883 C879 0.930 . S
H884 C881 0.929 . S
S885 N886 1.613 . S
S885 N887 1.610 . S
N886 S885 1.613 . S
N886 C889 1.350 . S
N887 S885 1.610 . S
N887 C888 1.351 . S
C888 C882 1.428 . S
C888 N887 1.351 . S
C888 C889 1.434 . S
C889 C880 1.429 . S
C889 N886 1.350 . S
C889 C888 1.434 . S
C890 C891 1.369 . S
C890 C892 1.419 . S
C890 H894 0.930 . S
C891 C890 1.369 . S
C891 C900 1.429 . S
C892 C890 1.419 . S
C892 C893 1.363 . S
C892 H895 0.929 . S
C893 C892 1.363 . S
C893 C899 1.428 . S
H894 C890 0.930 . S
H895 C892 0.929 . S
S896 N897 1.613 . S
S896 N898 1.610 . S
N897 S896 1.613 . S
N897 C900 1.350 . S
N898 S896 1.610 . S
N898 C899 1.351 . S
C899 C893 1.428 . S
C899 N898 1.351 . S
C899 C900 1.434 . S
C900 C891 1.429 . S
C900 N897 1.350 . S
C900 C899 1.434 . S
C901 C902 1.369 . S
C901 C903 1.419 . S
C901 H905 0.930 . S
C902 C901 1.369 . S
C902 C911 1.429 . S
C903 C901 1.419 . S
C903 C904 1.363 . S
C903 H906 0.929 . S
C904 C903 1.363 . S
C904 C910 1.428 . S
H905 C901 0.930 . S
H906 C903 0.929 . S
S907 N908 1.613 . S
S907 N909 1.610 . S
N908 S907 1.613 . S
N908 C911 1.350 . S
N909 S907 1.610 . S
N909 C910 1.351 . S
C910 C904 1.428 . S
C910 N909 1.351 . S
C910 C911 1.434 . S
C911 C902 1.429 . S
C911 N908 1.350 . S
C911 C910 1.434 . S
C912 C913 1.369 1_545 S
C912 C914 1.419 . S
C912 H916 0.930 . S
C913 C912 1.369 1_565 S
C913 C922 1.429 . S
C914 C912 1.419 . S
C914 C915 1.363 . S
C914 H917 0.929 . S
C915 C914 1.363 . S
C915 C921 1.428 1_545 S
H916 C912 0.930 . S
H917 C914 0.929 . S
S918 N919 1.613 . S
S918 N920 1.610 . S
N919 S918 1.613 . S
N919 C922 1.350 . S
N920 S918 1.610 . S
N920 C921 1.351 . S
C921 C915 1.428 1_565 S
C921 N920 1.351 . S
C921 C922 1.434 . S
C922 C913 1.429 . S
C922 N919 1.350 . S
C922 C921 1.434 . S
C923 C924 1.369 . S
C923 C925 1.419 . S
C923 H927 0.930 . S
C924 C923 1.369 . S
C924 C933 1.429 1_455 S
C925 C923 1.419 . S
C925 C926 1.363 1_455 S
C925 H928 0.929 . S
C926 C925 1.363 1_655 S
C926 C932 1.428 . S
H927 C923 0.930 . S
H928 C925 0.929 . S
S929 N930 1.613 . S
S929 N931 1.610 . S
N930 S929 1.613 . S
N930 C933 1.350 . S
N931 S929 1.610 . S
N931 C932 1.351 . S
C932 C926 1.428 . S
C932 N931 1.351 . S
C932 C933 1.434 . S
C933 C924 1.429 1_655 S
C933 N930 1.350 . S
C933 C932 1.434 . S
C934 C935 1.369 . S
C934 C936 1.419 1_556 S
C934 H938 0.930 . S
C935 C934 1.369 . S
C935 C944 1.429 . S
C936 C934 1.419 1_554 S
C936 C937 1.363 . S
C936 H939 0.929 . S
C937 C936 1.363 . S
C937 C943 1.428 . S
H938 C934 0.930 . S
H939 C936 0.929 . S
S940 N941 1.613 1_554 S
S940 N942 1.610 . S
N941 S940 1.613 1_556 S
N941 C944 1.350 . S
N942 S940 1.610 . S
N942 C943 1.351 . S
C943 C937 1.428 . S
C943 N942 1.351 . S
C943 C944 1.434 1_554 S
C944 C935 1.429 . S
C944 N941 1.350 . S
C944 C943 1.434 1_556 S
C945 C946 1.369 1_556 S
C945 C947 1.403 1_655 S
C945 H949 0.930 . S
C946 C945 1.369 1_554 S
C946 C955 1.434 1_565 S
C947 C945 1.403 1_455 S
C947 C948 1.379 1_565 S
C947 H950 0.929 1_455 S
C948 C947 1.379 1_545 S
C948 C954 1.428 1_556 S
H949 C945 0.930 . S
H950 C947 0.929 1_655 S
S951 N952 1.613 . S
S951 N953 1.610 . S
N952 S951 1.613 . S
N952 C955 1.349 1_455 S
N953 S951 1.610 . S
N953 C954 1.351 . S
C954 C948 1.428 1_554 S
C954 N953 1.351 . S
C954 C955 1.429 1_455 S
C955 C946 1.434 1_545 S
C955 N952 1.349 1_655 S
C955 C954 1.429 1_655 S
C956 C957 1.369 1_565 S
C956 C958 1.419 . S
C956 H960 0.930 . S
C957 C956 1.369 1_545 S
C957 C966 1.429 . S
C958 C956 1.419 . S
C958 C959 1.363 . S
C958 H961 0.929 . S
C959 C958 1.363 . S
C959 C965 1.428 1_565 S
H960 C956 0.930 . S
H961 C958 0.929 . S
S962 N963 1.613 . S
S962 N964 1.610 . S
N963 S962 1.613 . S
N963 C966 1.350 . S
N964 S962 1.610 . S
N964 C965 1.351 . S
C965 C959 1.428 1_545 S
C965 N964 1.351 . S
C965 C966 1.434 . S
C966 C957 1.429 . S
C966 N963 1.350 . S
C966 C965 1.434 . S
C967 C968 1.369 . S
C967 C969 1.419 1_455 S
C967 H971 0.930 . S
C968 C967 1.369 . S
C968 C977 1.429 . S
C969 C967 1.419 1_655 S
C969 C970 1.363 . S
C969 H972 0.929 . S
C970 C969 1.363 . S
C970 C976 1.428 . S
H971 C967 0.930 . S
H972 C969 0.929 . S
S973 N974 1.613 1_655 S
S973 N975 1.610 . S
N974 S973 1.613 1_455 S
N974 C977 1.350 . S
N975 S973 1.610 . S
N975 C976 1.351 . S
C976 C970 1.428 . S
C976 N975 1.351 . S
C976 C977 1.434 1_655 S
C977 C968 1.429 . S
C977 N974 1.350 . S
C977 C976 1.434 1_455 S
C978 C979 1.369 . S
C978 C980 1.419 1_556 S
C978 H982 0.930 . S
C979 C978 1.369 . S
C979 C988 1.429 . S
C980 C978 1.419 1_554 S
C980 C981 1.363 . S
C980 H983 0.929 . S
C981 C980 1.363 . S
C981 C987 1.428 . S
H982 C978 0.930 . S
H983 C980 0.929 . S
S984 N985 1.613 . S
S984 N986 1.610 . S
N985 S984 1.613 . S
N985 C988 1.350 . S
N986 S984 1.610 . S
N986 C987 1.351 1_556 S
C987 C981 1.428 . S
C987 N986 1.351 1_554 S
C987 C988 1.434 1_554 S
C988 C979 1.429 . S
C988 N985 1.350 . S
C988 C987 1.434 1_556 S
C989 C990 1.369 . S
C989 C991 1.419 . S
C989 H993 0.930 . S
C990 C989 1.369 . S
C990 C999 1.429 . S
C991 C989 1.419 . S
C991 C992 1.363 . S
C991 H994 0.929 . S
C992 C991 1.363 . S
C992 C998 1.428 . S
H993 C989 0.930 . S
H994 C991 0.929 . S
S995 N996 1.613 . S
S995 N997 1.610 . S
N996 S995 1.613 . S
N996 C999 1.350 . S
N997 S995 1.610 . S
N997 C998 1.351 . S
C998 C992 1.428 . S
C998 N997 1.351 . S
C998 C999 1.434 . S
C999 C990 1.429 . S
C999 N996 1.350 . S
C999 C998 1.434 . S
C1000 C1001 1.369 . S
C1000 C1002 1.419 . S
C1000 H1004 0.930 . S
C1001 C1000 1.369 . S
C1001 C1010 1.429 . S
C1002 C1000 1.419 . S
C1002 C1003 1.363 . S
C1002 H1005 0.929 . S
C1003 C1002 1.363 . S
C1003 C1009 1.428 . S
H1004 C1000 0.930 . S
H1005 C1002 0.929 . S
S1006 N1007 1.613 . S
S1006 N1008 1.610 . S
N1007 S1006 1.613 . S
N1007 C1010 1.350 . S
N1008 S1006 1.610 . S
N1008 C1009 1.351 . S
C1009 C1003 1.428 . S
C1009 N1008 1.351 . S
C1009 C1010 1.434 . S
C1010 C1001 1.429 . S
C1010 N1007 1.350 . S
C1010 C1009 1.434 . S
C1011 C1012 1.369 . S
C1011 C1013 1.419 1_455 S
C1011 H1015 0.930 . S
C1012 C1011 1.369 . S
C1012 C1021 1.429 . S
C1013 C1011 1.419 1_655 S
C1013 C1014 1.363 . S
C1013 H1016 0.929 . S
C1014 C1013 1.363 . S
C1014 C1020 1.428 . S
H1015 C1011 0.930 . S
H1016 C1013 0.929 . S
S1017 N1018 1.613 1_655 S
S1017 N1019 1.610 . S
N1018 S1017 1.613 1_455 S
N1018 C1021 1.350 . S
N1019 S1017 1.610 . S
N1019 C1020 1.351 . S
C1020 C1014 1.428 . S
C1020 N1019 1.351 . S
C1020 C1021 1.434 1_655 S
C1021 C1012 1.429 . S
C1021 N1018 1.350 . S
C1021 C1020 1.434 1_455 S
C1022 C1023 1.369 . S
C1022 C1024 1.419 . S
C1022 H1026 0.930 . S
C1023 C1022 1.369 . S
C1023 C1032 1.429 . S
C1024 C1022 1.419 . S
C1024 C1025 1.363 . S
C1024 H1027 0.929 . S
C1025 C1024 1.363 . S
C1025 C1031 1.428 . S
H1026 C1022 0.930 . S
H1027 C1024 0.929 . S
S1028 N1029 1.613 . S
S1028 N1030 1.610 . S
N1029 S1028 1.613 . S
N1029 C1032 1.350 . S
N1030 S1028 1.610 . S
N1030 C1031 1.351 . S
C1031 C1025 1.428 . S
C1031 N1030 1.351 . S
C1031 C1032 1.434 . S
C1032 C1023 1.429 . S
C1032 N1029 1.350 . S
C1032 C1031 1.434 . S
C1033 C1034 1.369 . S
C1033 C1035 1.419 . S
C1033 H1037 0.930 . S
C1034 C1033 1.369 . S
C1034 C1043 1.429 . S
C1035 C1033 1.419 . S
C1035 C1036 1.363 . S
C1035 H1038 0.929 . S
C1036 C1035 1.363 . S
C1036 C1042 1.428 . S
H1037 C1033 0.930 . S
H1038 C1035 0.929 . S
S1039 N1040 1.613 . S
S1039 N1041 1.610 . S
N1040 S1039 1.613 . S
N1040 C1043 1.350 . S
N1041 S1039 1.610 . S
N1041 C1042 1.351 . S
C1042 C1036 1.428 . S
C1042 N1041 1.351 . S
C1042 C1043 1.434 . S
C1043 C1034 1.429 . S
C1043 N1040 1.350 . S
C1043 C1042 1.434 . S
C1044 C1045 1.369 . S
C1044 C1046 1.419 . S
C1044 H1048 0.930 . S
C1045 C1044 1.369 . S
C1045 C1054 1.429 . S
C1046 C1044 1.419 . S
C1046 C1047 1.363 . S
C1046 H1049 0.929 . S
C1047 C1046 1.363 . S
C1047 C1053 1.428 . S
H1048 C1044 0.930 . S
H1049 C1046 0.929 . S
S1050 N1051 1.613 . S
S1050 N1052 1.610 . S
N1051 S1050 1.613 . S
N1051 C1054 1.350 . S
N1052 S1050 1.610 . S
N1052 C1053 1.351 . S
C1053 C1047 1.428 . S
C1053 N1052 1.351 . S
C1053 C1054 1.434 . S
C1054 C1045 1.429 . S
C1054 N1051 1.350 . S
C1054 C1053 1.434 . S
C1055 C1056 1.369 1_545 S
C1055 C1057 1.419 . S
C1055 H1059 0.930 . S
C1056 C1055 1.369 1_565 S
C1056 C1065 1.429 . S
C1057 C1055 1.419 . S
C1057 C1058 1.363 . S
C1057 H1060 0.929 . S
C1058 C1057 1.363 . S
C1058 C1064 1.428 1_545 S
H1059 C1055 0.930 . S
H1060 C1057 0.929 . S
S1061 N1062 1.613 . S
S1061 N1063 1.610 . S
N1062 S1061 1.613 . S
N1062 C1065 1.350 . S
N1063 S1061 1.610 . S
N1063 C1064 1.351 . S
C1064 C1058 1.428 1_565 S
C1064 N1063 1.351 . S
C1064 C1065 1.434 . S
C1065 C1056 1.429 . S
C1065 N1062 1.350 . S
C1065 C1064 1.434 . S
C1066 C1067 1.369 . S
C1066 C1068 1.419 . S
C1066 H1070 0.930 . S
C1067 C1066 1.369 . S
C1067 C1076 1.429 . S
C1068 C1066 1.419 . S
C1068 C1069 1.363 . S
C1068 H1071 0.929 . S
C1069 C1068 1.363 . S
C1069 C1075 1.428 . S
H1070 C1066 0.930 . S
H1071 C1068 0.929 . S
S1072 N1073 1.613 . S
S1072 N1074 1.610 . S
N1073 S1072 1.613 . S
N1073 C1076 1.350 . S
N1074 S1072 1.610 . S
N1074 C1075 1.351 . S
C1075 C1069 1.428 . S
C1075 N1074 1.351 . S
C1075 C1076 1.434 . S
C1076 C1067 1.429 . S
C1076 N1073 1.350 . S
C1076 C1075 1.434 . S
C1077 C1078 1.369 . S
C1077 C1079 1.419 1_554 S
C1077 H1081 0.930 . S
C1078 C1077 1.369 . S
C1078 C1087 1.429 . S
C1079 C1077 1.419 1_556 S
C1079 C1080 1.363 . S
C1079 H1082 0.929 . S
C1080 C1079 1.363 . S
C1080 C1086 1.428 . S
H1081 C1077 0.930 . S
H1082 C1079 0.929 . S
S1083 N1084 1.613 . S
S1083 N1085 1.610 1_554 S
N1084 S1083 1.613 . S
N1084 C1087 1.350 . S
N1085 S1083 1.610 1_556 S
N1085 C1086 1.351 . S
C1086 C1080 1.428 . S
C1086 N1085 1.351 . S
C1086 C1087 1.434 1_556 S
C1087 C1078 1.429 . S
C1087 N1084 1.350 . S
C1087 C1086 1.434 1_554 S
C1088 C1089 1.364 1_565 S
C1088 C1090 1.418 . S
C1088 H1092 0.937 . S
C1089 C1088 1.364 1_545 S
C1089 C1098 1.429 . S
C1090 C1088 1.418 . S
C1090 C1091 1.360 1_565 S
C1090 H1093 0.933 . S
C1091 C1090 1.360 1_545 S
C1091 C1097 1.428 . S
H1092 C1088 0.937 . S
H1093 C1090 0.933 . S
S1094 N1095 1.613 . S
S1094 N1096 1.610 . S
N1095 S1094 1.613 . S
N1095 C1098 1.350 . S
N1096 S1094 1.610 . S
N1096 C1097 1.351 . S
C1097 C1091 1.428 . S
C1097 N1096 1.351 . S
C1097 C1098 1.434 . S
C1098 C1089 1.429 . S
C1098 N1095 1.350 . S
C1098 C1097 1.434 . S
C1099 C1100 1.369 . S
C1099 C1101 1.419 . S
C1099 H1103 0.930 . S
C1100 C1099 1.369 . S
C1100 C1109 1.429 . S
C1101 C1099 1.419 . S
C1101 C1102 1.363 . S
C1101 H1104 0.929 . S
C1102 C1101 1.363 . S
C1102 C1108 1.428 . S
H1103 C1099 0.930 . S
H1104 C1101 0.929 . S
S1105 N1106 1.613 . S
S1105 N1107 1.610 . S
N1106 S1105 1.613 . S
N1106 C1109 1.350 . S
N1107 S1105 1.610 . S
N1107 C1108 1.351 . S
C1108 C1102 1.428 . S
C1108 N1107 1.351 . S
C1108 C1109 1.434 . S
C1109 C1100 1.429 . S
C1109 N1106 1.350 . S
C1109 C1108 1.434 . S
C1110 C1111 1.369 . S
C1110 C1112 1.419 . S
C1110 H1114 0.930 . S
C1111 C1110 1.369 . S
C1111 C1120 1.429 . S
C1112 C1110 1.419 . S
C1112 C1113 1.363 . S
C1112 H1115 0.929 . S
C1113 C1112 1.363 . S
C1113 C1119 1.428 . S
H1114 C1110 0.930 . S
H1115 C1112 0.929 . S
S1116 N1117 1.613 . S
S1116 N1118 1.610 . S
N1117 S1116 1.613 . S
N1117 C1120 1.350 . S
N1118 S1116 1.610 . S
N1118 C1119 1.351 . S
C1119 C1113 1.428 . S
C1119 N1118 1.351 . S
C1119 C1120 1.434 . S
C1120 C1111 1.429 . S
C1120 N1117 1.350 . S
C1120 C1119 1.434 . S
C1121 C1122 1.369 . S
C1121 C1123 1.419 . S
C1121 H1125 0.930 . S
C1122 C1121 1.369 . S
C1122 C1131 1.429 1_545 S
C1123 C1121 1.419 . S
C1123 C1124 1.363 . S
C1123 H1126 0.929 . S
C1124 C1123 1.363 . S
C1124 C1130 1.428 1_545 S
H1125 C1121 0.930 . S
H1126 C1123 0.929 . S
S1127 N1128 1.613 . S
S1127 N1129 1.610 . S
N1128 S1127 1.613 . S
N1128 C1131 1.350 . S
N1129 S1127 1.610 . S
N1129 C1130 1.351 . S
C1130 C1124 1.428 1_565 S
C1130 N1129 1.351 . S
C1130 C1131 1.434 . S
C1131 C1122 1.429 1_565 S
C1131 N1128 1.350 . S
C1131 C1130 1.434 . S
C1132 C1133 1.369 . S
C1132 C1134 1.419 . S
C1132 H1136 0.930 . S
C1133 C1132 1.369 . S
C1133 C1142 1.429 1_565 S
C1134 C1132 1.419 . S
C1134 C1135 1.363 . S
C1134 H1137 0.929 . S
C1135 C1134 1.363 . S
C1135 C1141 1.428 1_565 S
H1136 C1132 0.930 . S
H1137 C1134 0.929 . S
S1138 N1139 1.613 . S
S1138 N1140 1.610 . S
N1139 S1138 1.613 . S
N1139 C1142 1.350 . S
N1140 S1138 1.610 . S
N1140 C1141 1.351 . S
C1141 C1135 1.428 1_545 S
C1141 N1140 1.351 . S
C1141 C1142 1.434 . S
C1142 C1133 1.429 1_545 S
C1142 N1139 1.350 . S
C1142 C1141 1.434 . S
C1143 C1144 1.369 . S
C1143 C1145 1.419 . S
C1143 H1147 0.930 . S
C1144 C1143 1.369 . S
C1144 C1153 1.429 . S
C1145 C1143 1.419 . S
C1145 C1146 1.363 . S
C1145 H1148 0.929 . S
C1146 C1145 1.363 . S
C1146 C1152 1.428 . S
H1147 C1143 0.930 . S
H1148 C1145 0.929 . S
S1149 N1150 1.613 . S
S1149 N1151 1.610 . S
N1150 S1149 1.613 . S
N1150 C1153 1.350 . S
N1151 S1149 1.610 . S
N1151 C1152 1.351 . S
C1152 C1146 1.428 . S
C1152 N1151 1.351 . S
C1152 C1153 1.434 . S
C1153 C1144 1.429 . S
C1153 N1150 1.350 . S
C1153 C1152 1.434 . S
C1154 C1155 1.369 . S
C1154 C1156 1.419 . S
C1154 H1158 0.930 . S
C1155 C1154 1.369 . S
C1155 C1164 1.429 . S
C1156 C1154 1.419 . S
C1156 C1157 1.363 . S
C1156 H1159 0.929 . S
C1157 C1156 1.363 . S
C1157 C1163 1.428 . S
H1158 C1154 0.930 . S
H1159 C1156 0.929 . S
S1160 N1161 1.613 . S
S1160 N1162 1.610 . S
N1161 S1160 1.613 . S
N1161 C1164 1.350 . S
N1162 S1160 1.610 . S
N1162 C1163 1.351 . S
C1163 C1157 1.428 . S
C1163 N1162 1.351 . S
C1163 C1164 1.434 . S
C1164 C1155 1.429 . S
C1164 N1161 1.350 . S
C1164 C1163 1.434 . S
C1165 C1166 1.369 1_545 S
C1165 C1167 1.419 . S
C1165 H1169 0.930 . S
C1166 C1165 1.369 1_565 S
C1166 C1175 1.429 . S
C1167 C1165 1.419 . S
C1167 C1168 1.363 1_545 S
C1167 H1170 0.929 . S
C1168 C1167 1.363 1_565 S
C1168 C1174 1.428 . S
H1169 C1165 0.930 . S
H1170 C1167 0.929 . S
S1171 N1172 1.613 . S
S1171 N1173 1.610 . S
N1172 S1171 1.613 . S
N1172 C1175 1.350 . S
N1173 S1171 1.610 . S
N1173 C1174 1.351 . S
C1174 C1168 1.428 . S
C1174 N1173 1.351 . S
C1174 C1175 1.434 . S
C1175 C1166 1.429 . S
C1175 N1172 1.350 . S
C1175 C1174 1.434 . S
C1176 C1177 1.369 . S
C1176 C1178 1.419 . S
C1176 H1180 0.930 . S
C1177 C1176 1.369 . S
C1177 C1186 1.429 . S
C1178 C1176 1.419 . S
C1178 C1179 1.363 . S
C1178 H1181 0.929 . S
C1179 C1178 1.363 . S
C1179 C1185 1.428 . S
H1180 C1176 0.930 . S
H1181 C1178 0.929 . S
S1182 N1183 1.613 . S
S1182 N1184 1.610 . S
N1183 S1182 1.613 . S
N1183 C1186 1.350 . S
N1184 S1182 1.610 . S
N1184 C1185 1.351 . S
C1185 C1179 1.428 . S
C1185 N1184 1.351 . S
C1185 C1186 1.434 . S
C1186 C1177 1.429 . S
C1186 N1183 1.350 . S
C1186 C1185 1.434 . S
C1187 C1188 1.369 . S
C1187 C1189 1.419 . S
C1187 H1191 0.930 . S
C1188 C1187 1.369 . S
C1188 C1197 1.429 . S
C1189 C1187 1.419 . S
C1189 C1190 1.363 . S
C1189 H1192 0.929 . S
C1190 C1189 1.363 . S
C1190 C1196 1.428 . S
H1191 C1187 0.930 . S
H1192 C1189 0.929 . S
S1193 N1194 1.613 . S
S1193 N1195 1.610 . S
N1194 S1193 1.613 . S
N1194 C1197 1.350 . S
N1195 S1193 1.610 . S
N1195 C1196 1.351 . S
C1196 C1190 1.428 . S
C1196 N1195 1.351 . S
C1196 C1197 1.434 . S
C1197 C1188 1.429 . S
C1197 N1194 1.350 . S
C1197 C1196 1.434 . S
C1198 C1199 1.369 . S
C1198 C1200 1.419 . S
C1198 H1202 0.930 . S
C1199 C1198 1.369 . S
C1199 C1208 1.429 . S
C1200 C1198 1.419 . S
C1200 C1201 1.363 . S
C1200 H1203 0.929 . S
C1201 C1200 1.363 . S
C1201 C1207 1.428 . S
H1202 C1198 0.930 . S
H1203 C1200 0.929 . S
S1204 N1205 1.613 . S
S1204 N1206 1.610 . S
N1205 S1204 1.613 . S
N1205 C1208 1.350 . S
N1206 S1204 1.610 . S
N1206 C1207 1.351 . S
C1207 C1201 1.428 . S
C1207 N1206 1.351 . S
C1207 C1208 1.434 . S
C1208 C1199 1.429 . S
C1208 N1205 1.350 . S
C1208 C1207 1.434 . S
C1209 C1210 1.369 . S
C1209 C1211 1.419 . S
C1209 H1213 0.930 . S
C1210 C1209 1.369 . S
C1210 C1219 1.429 . S
C1211 C1209 1.419 . S
C1211 C1212 1.363 . S
C1211 H1214 0.929 . S
C1212 C1211 1.363 . S
C1212 C1218 1.428 . S
H1213 C1209 0.930 . S
H1214 C1211 0.929 . S
S1215 N1216 1.613 . S
S1215 N1217 1.610 . S
N1216 S1215 1.613 . S
N1216 C1219 1.350 . S
N1217 S1215 1.610 . S
N1217 C1218 1.351 . S
C1218 C1212 1.428 . S
C1218 N1217 1.351 . S
C1218 C1219 1.434 . S
C1219 C1210 1.429 . S
C1219 N1216 1.350 . S
C1219 C1218 1.434 . S
C1220 C1221 1.369 . S
C1220 C1222 1.419 . S
C1220 H1224 0.930 . S
C1221 C1220 1.369 . S
C1221 C1230 1.429 . S
C1222 C1220 1.419 . S
C1222 C1223 1.363 . S
C1222 H1225 0.929 . S
C1223 C1222 1.363 . S
C1223 C1229 1.428 . S
H1224 C1220 0.930 . S
H1225 C1222 0.929 . S
S1226 N1227 1.613 . S
S1226 N1228 1.610 . S
N1227 S1226 1.613 . S
N1227 C1230 1.350 . S
N1228 S1226 1.610 . S
N1228 C1229 1.351 . S
C1229 C1223 1.428 . S
C1229 N1228 1.351 . S
C1229 C1230 1.434 . S
C1230 C1221 1.429 . S
C1230 N1227 1.350 . S
C1230 C1229 1.434 . S
C1231 C1232 1.369 . S
C1231 C1233 1.419 . S
C1231 H1235 0.930 . S
C1232 C1231 1.369 . S
C1232 C1241 1.429 . S
C1233 C1231 1.419 . S
C1233 C1234 1.363 . S
C1233 H1236 0.929 . S
C1234 C1233 1.363 . S
C1234 C1240 1.428 . S
H1235 C1231 0.930 . S
H1236 C1233 0.929 . S
S1237 N1238 1.613 . S
S1237 N1239 1.610 . S
N1238 S1237 1.613 . S
N1238 C1241 1.350 . S
N1239 S1237 1.610 . S
N1239 C1240 1.351 . S
C1240 C1234 1.428 . S
C1240 N1239 1.351 . S
C1240 C1241 1.434 . S
C1241 C1232 1.429 . S
C1241 N1238 1.350 . S
C1241 C1240 1.434 . S
C1242 C1243 1.369 . S
C1242 C1244 1.419 . S
C1242 H1246 0.930 . S
C1243 C1242 1.369 . S
C1243 C1252 1.429 . S
C1244 C1242 1.419 . S
C1244 C1245 1.363 . S
C1244 H1247 0.929 . S
C1245 C1244 1.363 . S
C1245 C1251 1.428 . S
H1246 C1242 0.930 . S
H1247 C1244 0.929 . S
S1248 N1249 1.613 . S
S1248 N1250 1.610 . S
N1249 S1248 1.613 . S
N1249 C1252 1.350 . S
N1250 S1248 1.610 . S
N1250 C1251 1.351 . S
C1251 C1245 1.428 . S
C1251 N1250 1.351 . S
C1251 C1252 1.434 . S
C1252 C1243 1.429 . S
C1252 N1249 1.350 . S
C1252 C1251 1.434 . S
C1253 C1254 1.369 . S
C1253 C1255 1.419 . S
C1253 H1257 0.930 . S
C1254 C1253 1.369 . S
C1254 C1263 1.429 . S
C1255 C1253 1.419 . S
C1255 C1256 1.363 . S
C1255 H1258 0.929 . S
C1256 C1255 1.363 . S
C1256 C1262 1.428 . S
H1257 C1253 0.930 . S
H1258 C1255 0.929 . S
S1259 N1260 1.613 . S
S1259 N1261 1.610 . S
N1260 S1259 1.613 . S
N1260 C1263 1.350 . S
N1261 S1259 1.610 . S
N1261 C1262 1.351 . S
C1262 C1256 1.428 . S
C1262 N1261 1.351 . S
C1262 C1263 1.434 . S
C1263 C1254 1.429 . S
C1263 N1260 1.350 . S
C1263 C1262 1.434 . S
C1264 C1265 1.369 . S
C1264 C1266 1.419 . S
C1264 H1268 0.930 . S
C1265 C1264 1.369 . S
C1265 C1274 1.429 . S
C1266 C1264 1.419 . S
C1266 C1267 1.363 . S
C1266 H1269 0.929 . S
C1267 C1266 1.363 . S
C1267 C1273 1.428 . S
H1268 C1264 0.930 . S
H1269 C1266 0.929 . S
S1270 N1271 1.613 . S
S1270 N1272 1.610 . S
N1271 S1270 1.613 . S
N1271 C1274 1.350 . S
N1272 S1270 1.610 . S
N1272 C1273 1.351 . S
C1273 C1267 1.428 . S
C1273 N1272 1.351 . S
C1273 C1274 1.434 . S
C1274 C1265 1.429 . S
C1274 N1271 1.350 . S
C1274 C1273 1.434 . S
C1275 C1276 1.369 . S
C1275 C1277 1.419 . S
C1275 H1279 0.930 . S
C1276 C1275 1.369 . S
C1276 C1285 1.429 . S
C1277 C1275 1.419 . S
C1277 C1278 1.363 . S
C1277 H1280 0.929 . S
C1278 C1277 1.363 . S
C1278 C1284 1.428 . S
H1279 C1275 0.930 . S
H1280 C1277 0.929 . S
S1281 N1282 1.613 . S
S1281 N1283 1.610 . S
N1282 S1281 1.613 . S
N1282 C1285 1.350 . S
N1283 S1281 1.610 . S
N1283 C1284 1.351 . S
C1284 C1278 1.428 . S
C1284 N1283 1.351 . S
C1284 C1285 1.434 . S
C1285 C1276 1.429 . S
C1285 N1282 1.350 . S
C1285 C1284 1.434 . S
C1286 C1287 1.369 . S
C1286 C1288 1.419 . S
C1286 H1290 0.930 . S
C1287 C1286 1.369 . S
C1287 C1296 1.429 . S
C1288 C1286 1.419 . S
C1288 C1289 1.363 . S
C1288 H1291 0.929 . S
C1289 C1288 1.363 . S
C1289 C1295 1.428 . S
H1290 C1286 0.930 . S
H1291 C1288 0.929 . S
S1292 N1293 1.613 . S
S1292 N1294 1.610 . S
N1293 S1292 1.613 . S
N1293 C1296 1.350 . S
N1294 S1292 1.610 . S
N1294 C1295 1.351 . S
C1295 C1289 1.428 . S
C1295 N1294 1.351 . S
C1295 C1296 1.434 . S
C1296 C1287 1.429 . S
C1296 N1293 1.350 . S
C1296 C1295 1.434 . S
C1297 C1298 1.369 . S
C1297 C1299 1.419 . S
C1297 H1301 0.930 . S
C1298 C1297 1.369 . S
C1298 C1307 1.429 . S
C1299 C1297 1.419 . S
C1299 C1300 1.363 . S
C1299 H1302 0.929 . S
C1300 C1299 1.363 . S
C1300 C1306 1.428 . S
H1301 C1297 0.930 . S
H1302 C1299 0.929 . S
S1303 N1304 1.613 . S
S1303 N1305 1.610 . S
N1304 S1303 1.613 . S
N1304 C1307 1.350 . S
N1305 S1303 1.610 . S
N1305 C1306 1.351 . S
C1306 C1300 1.428 . S
C1306 N1305 1.351 . S
C1306 C1307 1.434 . S
C1307 C1298 1.429 . S
C1307 N1304 1.350 . S
C1307 C1306 1.434 . S
C1308 C1309 1.369 . S
C1308 C1310 1.419 . S
C1308 H1312 0.930 . S
C1309 C1308 1.369 . S
C1309 C1318 1.429 . S
C1310 C1308 1.419 . S
C1310 C1311 1.363 . S
C1310 H1313 0.929 . S
C1311 C1310 1.363 . S
C1311 C1317 1.428 . S
H1312 C1308 0.930 . S
H1313 C1310 0.929 . S
S1314 N1315 1.613 . S
S1314 N1316 1.610 . S
N1315 S1314 1.613 . S
N1315 C1318 1.350 . S
N1316 S1314 1.610 . S
N1316 C1317 1.351 . S
C1317 C1311 1.428 . S
C1317 N1316 1.351 . S
C1317 C1318 1.434 . S
C1318 C1309 1.429 . S
C1318 N1315 1.350 . S
C1318 C1317 1.434 . S
C1319 C1320 1.369 . S
C1319 C1321 1.419 . S
C1319 H1323 0.930 . S
C1320 C1319 1.369 . S
C1320 C1329 1.429 . S
C1321 C1319 1.419 . S
C1321 C1322 1.363 . S
C1321 H1324 0.929 . S
C1322 C1321 1.363 . S
C1322 C1328 1.428 . S
H1323 C1319 0.930 . S
H1324 C1321 0.929 . S
S1325 N1326 1.613 . S
S1325 N1327 1.610 . S
N1326 S1325 1.613 . S
N1326 C1329 1.350 . S
N1327 S1325 1.610 . S
N1327 C1328 1.351 . S
C1328 C1322 1.428 . S
C1328 N1327 1.351 . S
C1328 C1329 1.434 . S
C1329 C1320 1.429 . S
C1329 N1326 1.350 . S
C1329 C1328 1.434 . S
C1330 C1331 1.369 . S
C1330 C1332 1.419 . S
C1330 H1334 0.930 . S
C1331 C1330 1.369 . S
C1331 C1340 1.429 . S
C1332 C1330 1.419 . S
C1332 C1333 1.363 . S
C1332 H1335 0.929 . S
C1333 C1332 1.363 . S
C1333 C1339 1.428 . S
H1334 C1330 0.930 . S
H1335 C1332 0.929 . S
S1336 N1337 1.613 . S
S1336 N1338 1.610 . S
N1337 S1336 1.613 . S
N1337 C1340 1.350 . S
N1338 S1336 1.610 . S
N1338 C1339 1.351 . S
C1339 C1333 1.428 . S
C1339 N1338 1.351 . S
C1339 C1340 1.434 . S
C1340 C1331 1.429 . S
C1340 N1337 1.350 . S
C1340 C1339 1.434 . S
C1341 C1342 1.369 . S
C1341 C1343 1.419 . S
C1341 H1345 0.930 . S
C1342 C1341 1.369 . S
C1342 C1351 1.429 . S
C1343 C1341 1.419 . S
C1343 C1344 1.363 . S
C1343 H1346 0.929 . S
C1344 C1343 1.363 . S
C1344 C1350 1.428 . S
H1345 C1341 0.930 . S
H1346 C1343 0.929 . S
S1347 N1348 1.613 . S
S1347 N1349 1.610 . S
N1348 S1347 1.613 . S
N1348 C1351 1.350 . S
N1349 S1347 1.610 . S
N1349 C1350 1.351 . S
C1350 C1344 1.428 . S
C1350 N1349 1.351 . S
C1350 C1351 1.434 . S
C1351 C1342 1.429 . S
C1351 N1348 1.350 . S
C1351 C1350 1.434 . S
C1352 C1353 1.369 . S
C1352 C1354 1.419 . S
C1352 H1356 0.930 . S
C1353 C1352 1.369 . S
C1353 C1362 1.429 . S
C1354 C1352 1.419 . S
C1354 C1355 1.363 . S
C1354 H1357 0.929 . S
C1355 C1354 1.363 . S
C1355 C1361 1.428 . S
H1356 C1352 0.930 . S
H1357 C1354 0.929 . S
S1358 N1359 1.613 . S
S1358 N1360 1.610 . S
N1359 S1358 1.613 . S
N1359 C1362 1.350 . S
N1360 S1358 1.610 . S
N1360 C1361 1.351 . S
C1361 C1355 1.428 . S
C1361 N1360 1.351 . S
C1361 C1362 1.434 . S
C1362 C1353 1.429 . S
C1362 N1359 1.350 . S
C1362 C1361 1.434 . S
C1363 C1364 1.369 . S
C1363 C1365 1.419 . S
C1363 H1367 0.930 . S
C1364 C1363 1.369 . S
C1364 C1373 1.429 . S
C1365 C1363 1.419 . S
C1365 C1366 1.363 . S
C1365 H1368 0.929 . S
C1366 C1365 1.363 . S
C1366 C1372 1.428 . S
H1367 C1363 0.930 . S
H1368 C1365 0.929 . S
S1369 N1370 1.613 . S
S1369 N1371 1.610 . S
N1370 S1369 1.613 . S
N1370 C1373 1.350 . S
N1371 S1369 1.610 . S
N1371 C1372 1.351 . S
C1372 C1366 1.428 . S
C1372 N1371 1.351 . S
C1372 C1373 1.434 . S
C1373 C1364 1.429 . S
C1373 N1370 1.350 . S
C1373 C1372 1.434 . S
C1374 C1375 1.369 . S
C1374 C1376 1.419 . S
C1374 H1378 0.930 . S
C1375 C1374 1.369 . S
C1375 C1384 1.429 . S
C1376 C1374 1.419 . S
C1376 C1377 1.363 . S
C1376 H1379 0.929 . S
C1377 C1376 1.363 . S
C1377 C1383 1.428 . S
H1378 C1374 0.930 . S
H1379 C1376 0.929 . S
S1380 N1381 1.613 . S
S1380 N1382 1.610 . S
N1381 S1380 1.613 . S
N1381 C1384 1.350 . S
N1382 S1380 1.610 . S
N1382 C1383 1.351 . S
C1383 C1377 1.428 . S
C1383 N1382 1.351 . S
C1383 C1384 1.434 . S
C1384 C1375 1.429 . S
C1384 N1381 1.350 . S
C1384 C1383 1.434 . S
C1385 C1386 1.369 . S
C1385 C1387 1.419 . S
C1385 H1389 0.930 . S
C1386 C1385 1.369 . S
C1386 C1395 1.429 . S
C1387 C1385 1.419 . S
C1387 C1388 1.363 . S
C1387 H1390 0.929 . S
C1388 C1387 1.363 . S
C1388 C1394 1.428 . S
H1389 C1385 0.930 . S
H1390 C1387 0.929 . S
S1391 N1392 1.613 . S
S1391 N1393 1.610 . S
N1392 S1391 1.613 . S
N1392 C1395 1.350 . S
N1393 S1391 1.610 . S
N1393 C1394 1.351 . S
C1394 C1388 1.428 . S
C1394 N1393 1.351 . S
C1394 C1395 1.434 . S
C1395 C1386 1.429 . S
C1395 N1392 1.350 . S
C1395 C1394 1.434 . S
C1396 C1397 1.369 . S
C1396 C1398 1.419 . S
C1396 H1400 0.930 . S
C1397 C1396 1.369 . S
C1397 C1406 1.429 . S
C1398 C1396 1.419 . S
C1398 C1399 1.363 . S
C1398 H1401 0.929 . S
C1399 C1398 1.363 . S
C1399 C1405 1.428 . S
H1400 C1396 0.930 . S
H1401 C1398 0.929 . S
S1402 N1403 1.613 . S
S1402 N1404 1.610 . S
N1403 S1402 1.613 . S
N1403 C1406 1.350 . S
N1404 S1402 1.610 . S
N1404 C1405 1.351 . S
C1405 C1399 1.428 . S
C1405 N1404 1.351 . S
C1405 C1406 1.434 . S
C1406 C1397 1.429 . S
C1406 N1403 1.350 . S
C1406 C1405 1.434 . S
C1407 C1408 1.369 . S
C1407 C1409 1.419 . S
C1407 H1411 0.930 . S
C1408 C1407 1.369 . S
C1408 C1417 1.429 . S
C1409 C1407 1.419 . S
C1409 C1410 1.363 . S
C1409 H1412 0.929 . S
C1410 C1409 1.363 . S
C1410 C1416 1.428 . S
H1411 C1407 0.930 . S
H1412 C1409 0.929 . S
S1413 N1414 1.613 . S
S1413 N1415 1.610 . S
N1414 S1413 1.613 . S
N1414 C1417 1.350 . S
N1415 S1413 1.610 . S
N1415 C1416 1.351 . S
C1416 C1410 1.428 . S
C1416 N1415 1.351 . S
C1416 C1417 1.434 . S
C1417 C1408 1.429 . S
C1417 N1414 1.350 . S
C1417 C1416 1.434 . S
C1418 C1419 1.369 . S
C1418 C1420 1.419 . S
C1418 H1422 0.930 . S
C1419 C1418 1.369 . S
C1419 C1428 1.429 . S
C1420 C1418 1.419 . S
C1420 C1421 1.363 . S
C1420 H1423 0.929 . S
C1421 C1420 1.363 . S
C1421 C1427 1.428 . S
H1422 C1418 0.930 . S
H1423 C1420 0.929 . S
S1424 N1425 1.613 . S
S1424 N1426 1.610 . S
N1425 S1424 1.613 . S
N1425 C1428 1.350 . S
N1426 S1424 1.610 . S
N1426 C1427 1.351 . S
C1427 C1421 1.428 . S
C1427 N1426 1.351 . S
C1427 C1428 1.434 . S
C1428 C1419 1.429 . S
C1428 N1425 1.350 . S
C1428 C1427 1.434 . S
C1429 C1430 1.369 . S
C1429 C1431 1.419 . S
C1429 H1433 0.930 . S
C1430 C1429 1.369 . S
C1430 C1439 1.429 . S
C1431 C1429 1.419 . S
C1431 C1432 1.363 . S
C1431 H1434 0.929 . S
C1432 C1431 1.363 . S
C1432 C1438 1.428 . S
H1433 C1429 0.930 . S
H1434 C1431 0.929 . S
S1435 N1436 1.613 . S
S1435 N1437 1.610 . S
N1436 S1435 1.613 . S
N1436 C1439 1.350 . S
N1437 S1435 1.610 . S
N1437 C1438 1.351 . S
C1438 C1432 1.428 . S
C1438 N1437 1.351 . S
C1438 C1439 1.434 . S
C1439 C1430 1.429 . S
C1439 N1436 1.350 . S
C1439 C1438 1.434 . S
C1440 C1441 1.369 . S
C1440 C1442 1.419 . S
C1440 H1444 0.930 . S
C1441 C1440 1.369 . S
C1441 C1450 1.429 1_565 S
C1442 C1440 1.419 . S
C1442 C1443 1.363 . S
C1442 H1445 0.929 . S
C1443 C1442 1.363 . S
C1443 C1449 1.428 1_565 S
H1444 C1440 0.930 . S
H1445 C1442 0.929 . S
S1446 N1447 1.613 . S
S1446 N1448 1.610 . S
N1447 S1446 1.613 . S
N1447 C1450 1.350 . S
N1448 S1446 1.610 . S
N1448 C1449 1.351 . S
C1449 C1443 1.428 1_545 S
C1449 N1448 1.351 . S
C1449 C1450 1.434 . S
C1450 C1441 1.429 1_545 S
C1450 N1447 1.350 . S
C1450 C1449 1.434 . S
C1451 C1452 1.369 . S
C1451 C1453 1.419 1_556 S
C1451 H1455 0.930 . S
C1452 C1451 1.369 . S
C1452 C1461 1.429 . S
C1453 C1451 1.419 1_554 S
C1453 C1454 1.363 1_554 S
C1453 H1456 0.929 . S
C1454 C1453 1.363 1_556 S
C1454 C1460 1.428 . S
H1455 C1451 0.930 . S
H1456 C1453 0.929 . S
S1457 N1458 1.613 1_655 S
S1457 N1459 1.610 . S
N1458 S1457 1.613 1_455 S
N1458 C1461 1.350 . S
N1459 S1457 1.610 . S
N1459 C1460 1.351 1_655 S
C1460 C1454 1.428 . S
C1460 N1459 1.351 1_455 S
C1460 C1461 1.434 . S
C1461 C1452 1.429 . S
C1461 N1458 1.350 . S
C1461 C1460 1.434 . S
C1462 C1463 1.369 . S
C1462 C1464 1.419 . S
C1462 H1466 0.930 . S
C1463 C1462 1.369 . S
C1463 C1472 1.429 . S
C1464 C1462 1.419 . S
C1464 C1465 1.363 . S
C1464 H1467 0.929 . S
C1465 C1464 1.363 . S
C1465 C1471 1.428 . S
H1466 C1462 0.930 . S
H1467 C1464 0.929 . S
S1468 N1469 1.613 . S
S1468 N1470 1.610 . S
N1469 S1468 1.613 . S
N1469 C1472 1.350 . S
N1470 S1468 1.610 . S
N1470 C1471 1.351 . S
C1471 C1465 1.428 . S
C1471 N1470 1.351 . S
C1471 C1472 1.434 . S
C1472 C1463 1.429 . S
C1472 N1469 1.350 . S
C1472 C1471 1.434 . S
C1473 C1474 1.369 1_545 S
C1473 C1475 1.419 . S
C1473 H1477 0.930 . S
C1474 C1473 1.369 1_565 S
C1474 C1483 1.429 . S
C1475 C1473 1.419 . S
C1475 C1476 1.363 1_545 S
C1475 H1478 0.929 . S
C1476 C1475 1.363 1_565 S
C1476 C1482 1.428 . S
H1477 C1473 0.930 . S
H1478 C1475 0.929 . S
S1479 N1480 1.613 . S
S1479 N1481 1.610 . S
N1480 S1479 1.613 . S
N1480 C1483 1.350 . S
N1481 S1479 1.610 . S
N1481 C1482 1.351 . S
C1482 C1476 1.428 . S
C1482 N1481 1.351 . S
C1482 C1483 1.434 . S
C1483 C1474 1.429 . S
C1483 N1480 1.350 . S
C1483 C1482 1.434 . S
C1484 C1485 1.369 1_565 S
C1484 C1486 1.419 . S
C1484 H1488 0.930 . S
C1485 C1484 1.369 1_545 S
C1485 C1494 1.429 . S
C1486 C1484 1.419 . S
C1486 C1487 1.363 1_565 S
C1486 H1489 0.929 . S
C1487 C1486 1.363 1_545 S
C1487 C1493 1.428 . S
H1488 C1484 0.930 . S
H1489 C1486 0.929 . S
S1490 N1491 1.613 1_556 S
S1490 N1492 1.610 . S
N1491 S1490 1.613 1_554 S
N1491 C1494 1.350 . S
N1492 S1490 1.610 . S
N1492 C1493 1.351 1_556 S
C1493 C1487 1.428 . S
C1493 N1492 1.351 1_554 S
C1493 C1494 1.434 . S
C1494 C1485 1.429 . S
C1494 N1491 1.350 . S
C1494 C1493 1.434 . S
C1495 C1496 1.369 . S
C1495 C1497 1.419 . S
C1495 H1499 0.930 1_655 S
C1496 C1495 1.369 . S
C1496 C1505 1.429 1_554 S
C1497 C1495 1.419 . S
C1497 C1498 1.363 . S
C1497 H1500 0.929 . S
C1498 C1497 1.363 . S
C1498 C1504 1.428 . S
H1499 C1495 0.930 1_455 S
H1500 C1497 0.929 . S
S1501 N1502 1.613 . S
S1501 N1503 1.610 . S
N1502 S1501 1.613 . S
N1502 C1505 1.350 . S
N1503 S1501 1.610 . S
N1503 C1504 1.351 1_556 S
C1504 C1498 1.428 . S
C1504 N1503 1.351 1_554 S
C1504 C1505 1.434 1_554 S
C1505 C1496 1.429 1_556 S
C1505 N1502 1.350 . S
C1505 C1504 1.434 1_556 S
C1506 C1507 1.369 . S
C1506 C1508 1.419 . S
C1506 H1510 0.930 . S
C1507 C1506 1.369 . S
C1507 C1516 1.429 . S
C1508 C1506 1.419 . S
C1508 C1509 1.363 . S
C1508 H1511 0.929 . S
C1509 C1508 1.363 . S
C1509 C1515 1.428 . S
H1510 C1506 0.930 . S
H1511 C1508 0.929 . S
S1512 N1513 1.613 . S
S1512 N1514 1.610 . S
N1513 S1512 1.613 . S
N1513 C1516 1.350 . S
N1514 S1512 1.610 . S
N1514 C1515 1.351 . S
C1515 C1509 1.428 . S
C1515 N1514 1.351 . S
C1515 C1516 1.434 . S
C1516 C1507 1.429 . S
C1516 N1513 1.350 . S
C1516 C1515 1.434 . S
C1517 C1518 1.369 . S
C1517 C1519 1.419 . S
C1517 H1521 0.930 . S
C1518 C1517 1.369 . S
C1518 C1527 1.429 1_545 S
C1519 C1517 1.419 . S
C1519 C1520 1.363 . S
C1519 H1522 0.929 . S
C1520 C1519 1.363 . S
C1520 C1526 1.428 1_545 S
H1521 C1517 0.930 . S
H1522 C1519 0.929 . S
S1523 N1524 1.613 . S
S1523 N1525 1.597 1_655 S
N1524 S1523 1.613 . S
N1524 C1527 1.350 . S
N1525 S1523 1.597 1_455 S
N1525 C1526 1.337 1_455 S
C1526 C1520 1.428 1_565 S
C1526 N1525 1.337 1_655 S
C1526 C1527 1.434 . S
C1527 C1518 1.429 1_565 S
C1527 N1524 1.350 . S
C1527 C1526 1.434 . S
C1528 C1529 1.369 . S
C1528 C1530 1.419 . S
C1528 H1532 0.930 . S
C1529 C1528 1.369 . S
C1529 C1538 1.429 . S
C1530 C1528 1.419 . S
C1530 C1531 1.363 . S
C1530 H1533 0.929 . S
C1531 C1530 1.363 . S
C1531 C1537 1.428 . S
H1532 C1528 0.930 . S
H1533 C1530 0.929 . S
S1534 N1535 1.613 . S
S1534 N1536 1.610 . S
N1535 S1534 1.613 . S
N1535 C1538 1.350 . S
N1536 S1534 1.610 . S
N1536 C1537 1.351 . S
C1537 C1531 1.428 . S
C1537 N1536 1.351 . S
C1537 C1538 1.434 . S
C1538 C1529 1.429 . S
C1538 N1535 1.350 . S
C1538 C1537 1.434 . S
C1539 C1540 1.369 . S
C1539 C1541 1.419 . S
C1539 H1543 0.930 . S
C1540 C1539 1.369 . S
C1540 C1549 1.429 . S
C1541 C1539 1.419 . S
C1541 C1542 1.363 . S
C1541 H1544 0.929 . S
C1542 C1541 1.363 . S
C1542 C1548 1.428 . S
H1543 C1539 0.930 . S
H1544 C1541 0.929 . S
S1545 N1546 1.613 . S
S1545 N1547 1.610 1_455 S
N1546 S1545 1.613 . S
N1546 C1549 1.350 . S
N1547 S1545 1.610 1_655 S
N1547 C1548 1.351 1_655 S
C1548 C1542 1.428 . S
C1548 N1547 1.351 1_455 S
C1548 C1549 1.434 . S
C1549 C1540 1.429 . S
C1549 N1546 1.350 . S
C1549 C1548 1.434 . S
C1550 C1551 1.369 . S
C1550 C1552 1.419 . S
C1550 H1554 0.930 . S
C1551 C1550 1.369 . S
C1551 C1560 1.429 . S
C1552 C1550 1.419 . S
C1552 C1553 1.363 . S
C1552 H1555 0.929 . S
C1553 C1552 1.363 . S
C1553 C1559 1.428 . S
H1554 C1550 0.930 . S
H1555 C1552 0.929 . S
S1556 N1557 1.613 . S
S1556 N1558 1.610 . S
N1557 S1556 1.613 . S
N1557 C1560 1.350 . S
N1558 S1556 1.610 . S
N1558 C1559 1.351 . S
C1559 C1553 1.428 . S
C1559 N1558 1.351 . S
C1559 C1560 1.434 . S
C1560 C1551 1.429 . S
C1560 N1557 1.350 . S
C1560 C1559 1.434 . S
C1561 C1562 1.369 . S
C1561 C1563 1.419 . S
C1561 H1565 0.930 . S
C1562 C1561 1.369 . S
C1562 C1571 1.429 . S
C1563 C1561 1.419 . S
C1563 C1564 1.363 . S
C1563 H1566 0.929 1_455 S
C1564 C1563 1.363 . S
C1564 C1570 1.428 . S
H1565 C1561 0.930 . S
H1566 C1563 0.929 1_655 S
S1567 N1568 1.613 . S
S1567 N1569 1.610 . S
N1568 S1567 1.613 . S
N1568 C1571 1.350 . S
N1569 S1567 1.610 . S
N1569 C1570 1.351 . S
C1570 C1564 1.428 . S
C1570 N1569 1.351 . S
C1570 C1571 1.434 . S
C1571 C1562 1.429 . S
C1571 N1568 1.350 . S
C1571 C1570 1.434 . S
C1572 C1573 1.369 . S
C1572 C1574 1.419 . S
C1572 H1576 0.930 . S
C1573 C1572 1.369 . S
C1573 C1582 1.429 . S
C1574 C1572 1.419 . S
C1574 C1575 1.363 . S
C1574 H1577 0.929 . S
C1575 C1574 1.363 . S
C1575 C1581 1.428 . S
H1576 C1572 0.930 . S
H1577 C1574 0.929 . S
S1578 N1579 1.613 . S
S1578 N1580 1.610 . S
N1579 S1578 1.613 . S
N1579 C1582 1.350 . S
N1580 S1578 1.610 . S
N1580 C1581 1.351 . S
C1581 C1575 1.428 . S
C1581 N1580 1.351 . S
C1581 C1582 1.434 . S
C1582 C1573 1.429 . S
C1582 N1579 1.350 . S
C1582 C1581 1.434 . S
C1583 C1584 1.369 . S
C1583 C1585 1.419 . S
C1583 H1587 0.930 . S
C1584 C1583 1.369 . S
C1584 C1593 1.429 . S
C1585 C1583 1.419 . S
C1585 C1586 1.363 . S
C1585 H1588 0.929 . S
C1586 C1585 1.363 . S
C1586 C1592 1.428 . S
H1587 C1583 0.930 . S
H1588 C1585 0.929 . S
S1589 N1590 1.614 1_655 S
S1589 N1591 1.610 . S
N1590 S1589 1.614 1_455 S
N1590 C1593 1.351 1_455 S
N1591 S1589 1.610 . S
N1591 C1592 1.351 . S
C1592 C1586 1.428 . S
C1592 N1591 1.351 . S
C1592 C1593 1.434 . S
C1593 C1584 1.429 . S
C1593 N1590 1.351 1_655 S
C1593 C1592 1.434 . S
C1594 C1595 1.369 . S
C1594 C1596 1.419 . S
C1594 H1598 0.930 . S
C1595 C1594 1.369 . S
C1595 C1604 1.429 . S
C1596 C1594 1.419 . S
C1596 C1597 1.363 . S
C1596 H1599 0.929 . S
C1597 C1596 1.363 . S
C1597 C1603 1.428 . S
H1598 C1594 0.930 . S
H1599 C1596 0.929 . S
S1600 N1601 1.613 . S
S1600 N1602 1.610 . S
N1601 S1600 1.613 . S
N1601 C1604 1.350 . S
N1602 S1600 1.610 . S
N1602 C1603 1.351 . S
C1603 C1597 1.428 . S
C1603 N1602 1.351 . S
C1603 C1604 1.434 . S
C1604 C1595 1.429 . S
C1604 N1601 1.350 . S
C1604 C1603 1.434 . S
C1605 C1606 1.369 . S
C1605 C1607 1.419 . S
C1605 H1609 0.930 . S
C1606 C1605 1.369 . S
C1606 C1615 1.429 . S
C1607 C1605 1.419 . S
C1607 C1608 1.363 . S
C1607 H1610 0.929 1_655 S
C1608 C1607 1.363 . S
C1608 C1614 1.428 . S
H1609 C1605 0.930 . S
H1610 C1607 0.929 1_455 S
S1611 N1612 1.613 . S
S1611 N1613 1.610 . S
N1612 S1611 1.613 . S
N1612 C1615 1.350 . S
N1613 S1611 1.610 . S
N1613 C1614 1.351 . S
C1614 C1608 1.428 . S
C1614 N1613 1.351 . S
C1614 C1615 1.434 . S
C1615 C1606 1.429 . S
C1615 N1612 1.350 . S
C1615 C1614 1.434 . S
C1616 C1617 1.369 . S
C1616 C1618 1.419 . S
C1616 H1620 0.930 . S
C1617 C1616 1.369 . S
C1617 C1626 1.429 1_565 S
C1618 C1616 1.419 . S
C1618 C1619 1.363 . S
C1618 H1621 0.929 . S
C1619 C1618 1.363 . S
C1619 C1625 1.428 1_565 S
H1620 C1616 0.930 . S
H1621 C1618 0.929 . S
S1622 N1623 1.613 . S
S1622 N1624 1.610 . S
N1623 S1622 1.613 . S
N1623 C1626 1.350 . S
N1624 S1622 1.610 . S
N1624 C1625 1.351 . S
C1625 C1619 1.428 1_545 S
C1625 N1624 1.351 . S
C1625 C1626 1.434 . S
C1626 C1617 1.429 1_545 S
C1626 N1623 1.350 . S
C1626 C1625 1.434 . S
C1627 C1628 1.369 . S
C1627 C1629 1.419 . S
C1627 H1631 0.930 . S
C1628 C1627 1.369 . S
C1628 C1637 1.429 . S
C1629 C1627 1.419 . S
C1629 C1630 1.363 . S
C1629 H1632 0.929 . S
C1630 C1629 1.363 . S
C1630 C1636 1.428 . S
H1631 C1627 0.930 . S
H1632 C1629 0.929 . S
S1633 N1634 1.613 . S
S1633 N1635 1.610 . S
N1634 S1633 1.613 . S
N1634 C1637 1.350 . S
N1635 S1633 1.610 . S
N1635 C1636 1.351 . S
C1636 C1630 1.428 . S
C1636 N1635 1.351 . S
C1636 C1637 1.434 . S
C1637 C1628 1.429 . S
C1637 N1634 1.350 . S
C1637 C1636 1.434 . S
C1638 C1639 1.369 . S
C1638 C1640 1.419 . S
C1638 H1642 0.930 . S
C1639 C1638 1.369 . S
C1639 C1648 1.429 . S
C1640 C1638 1.419 . S
C1640 C1641 1.363 . S
C1640 H1643 0.929 . S
C1641 C1640 1.363 . S
C1641 C1647 1.428 . S
H1642 C1638 0.930 . S
H1643 C1640 0.929 . S
S1644 N1645 1.613 . S
S1644 N1646 1.610 . S
N1645 S1644 1.613 . S
N1645 C1648 1.350 . S
N1646 S1644 1.610 . S
N1646 C1647 1.351 . S
C1647 C1641 1.428 . S
C1647 N1646 1.351 . S
C1647 C1648 1.434 . S
C1648 C1639 1.429 . S
C1648 N1645 1.350 . S
C1648 C1647 1.434 . S
C1649 C1650 1.369 . S
C1649 C1651 1.419 . S
C1649 H1653 0.930 . S
C1650 C1649 1.369 . S
C1650 C1659 1.429 1_565 S
C1651 C1649 1.419 . S
C1651 C1652 1.363 . S
C1651 H1654 0.929 . S
C1652 C1651 1.363 . S
C1652 C1658 1.428 1_565 S
H1653 C1649 0.930 . S
H1654 C1651 0.929 . S
S1655 N1656 1.613 . S
S1655 N1657 1.610 . S
N1656 S1655 1.613 . S
N1656 C1659 1.350 . S
N1657 S1655 1.610 . S
N1657 C1658 1.351 . S
C1658 C1652 1.428 1_545 S
C1658 N1657 1.351 . S
C1658 C1659 1.434 . S
C1659 C1650 1.429 1_545 S
C1659 N1656 1.350 . S
C1659 C1658 1.434 . S
C1660 C1661 1.369 1_565 S
C1660 C1662 1.419 . S
C1660 H1664 0.930 . S
C1661 C1660 1.369 1_545 S
C1661 C1670 1.429 . S
C1662 C1660 1.419 . S
C1662 C1663 1.363 1_565 S
C1662 H1665 0.929 . S
C1663 C1662 1.363 1_545 S
C1663 C1669 1.428 . S
H1664 C1660 0.930 . S
H1665 C1662 0.929 . S
S1666 N1667 1.613 . S
S1666 N1668 1.610 . S
N1667 S1666 1.613 . S
N1667 C1670 1.350 . S
N1668 S1666 1.610 . S
N1668 C1669 1.351 . S
C1669 C1663 1.428 . S
C1669 N1668 1.351 . S
C1669 C1670 1.434 . S
C1670 C1661 1.429 . S
C1670 N1667 1.350 . S
C1670 C1669 1.434 . S
C1671 C1672 1.369 . S
C1671 C1673 1.419 . S
C1671 H1675 0.930 . S
C1672 C1671 1.369 . S
C1672 C1681 1.429 . S
C1673 C1671 1.419 . S
C1673 C1674 1.363 . S
C1673 H1676 0.929 . S
C1674 C1673 1.363 . S
C1674 C1680 1.428 . S
H1675 C1671 0.930 . S
H1676 C1673 0.929 . S
S1677 N1678 1.613 . S
S1677 N1679 1.610 . S
N1678 S1677 1.613 . S
N1678 C1681 1.350 . S
N1679 S1677 1.610 . S
N1679 C1680 1.351 . S
C1680 C1674 1.428 . S
C1680 N1679 1.351 . S
C1680 C1681 1.434 . S
C1681 C1672 1.429 . S
C1681 N1678 1.350 . S
C1681 C1680 1.434 . S
C1682 C1683 1.369 . S
C1682 C1684 1.419 . S
C1682 H1686 0.930 . S
C1683 C1682 1.369 . S
C1683 C1692 1.429 . S
C1684 C1682 1.419 . S
C1684 C1685 1.363 . S
C1684 H1687 0.929 . S
C1685 C1684 1.363 . S
C1685 C1691 1.428 . S
H1686 C1682 0.930 . S
H1687 C1684 0.929 . S
S1688 N1689 1.613 . S
S1688 N1690 1.610 . S
N1689 S1688 1.613 . S
N1689 C1692 1.350 . S
N1690 S1688 1.610 . S
N1690 C1691 1.351 . S
C1691 C1685 1.428 . S
C1691 N1690 1.351 . S
C1691 C1692 1.434 . S
C1692 C1683 1.429 . S
C1692 N1689 1.350 . S
C1692 C1691 1.434 . S
C1693 C1694 1.369 1_565 S
C1693 C1695 1.419 . S
C1693 H1697 0.930 . S
C1694 C1693 1.369 1_545 S
C1694 C1703 1.429 . S
C1695 C1693 1.419 . S
C1695 C1696 1.363 1_565 S
C1695 H1698 0.929 . S
C1696 C1695 1.363 1_545 S
C1696 C1702 1.428 . S
H1697 C1693 0.930 . S
H1698 C1695 0.929 . S
S1699 N1700 1.613 . S
S1699 N1701 1.610 . S
N1700 S1699 1.613 . S
N1700 C1703 1.350 . S
N1701 S1699 1.610 . S
N1701 C1702 1.351 . S
C1702 C1696 1.428 . S
C1702 N1701 1.351 . S
C1702 C1703 1.434 . S
C1703 C1694 1.429 . S
C1703 N1700 1.350 . S
C1703 C1702 1.434 . S
C1704 C1705 1.369 . S
C1704 C1706 1.419 1_556 S
C1704 H1708 0.930 . S
C1705 C1704 1.369 . S
C1705 C1714 1.429 . S
C1706 C1704 1.419 1_554 S
C1706 C1707 1.363 1_554 S
C1706 H1709 0.929 . S
C1707 C1706 1.363 1_556 S
C1707 C1713 1.428 . S
H1708 C1704 0.930 . S
H1709 C1706 0.929 . S
S1710 N1711 1.613 . S
S1710 N1712 1.610 . S
N1711 S1710 1.613 . S
N1711 C1714 1.350 . S
N1712 S1710 1.610 . S
N1712 C1713 1.351 . S
C1713 C1707 1.428 . S
C1713 N1712 1.351 . S
C1713 C1714 1.434 . S
C1714 C1705 1.429 . S
C1714 N1711 1.350 . S
C1714 C1713 1.434 . S
C1715 C1716 1.369 . S
C1715 C1717 1.419 . S
C1715 H1719 0.930 . S
C1716 C1715 1.369 . S
C1716 C1725 1.429 . S
C1717 C1715 1.419 . S
C1717 C1718 1.363 . S
C1717 H1720 0.929 . S
C1718 C1717 1.363 . S
C1718 C1724 1.428 1_556 S
H1719 C1715 0.930 . S
H1720 C1717 0.929 . S
S1721 N1722 1.633 . S
S1721 N1723 1.610 . S
N1722 S1721 1.633 . S
N1722 C1725 1.340 1_554 S
N1723 S1721 1.610 . S
N1723 C1724 1.351 . S
C1724 C1718 1.428 1_554 S
C1724 N1723 1.351 . S
C1724 C1725 1.434 1_554 S
C1725 C1716 1.429 . S
C1725 N1722 1.340 1_556 S
C1725 C1724 1.434 1_556 S
C1726 C1727 1.369 . S
C1726 C1728 1.419 . S
C1726 H1730 0.930 . S
C1727 C1726 1.369 . S
C1727 C1736 1.429 . S
C1728 C1726 1.419 . S
C1728 C1729 1.363 . S
C1728 H1731 0.929 . S
C1729 C1728 1.363 . S
C1729 C1735 1.428 . S
H1730 C1726 0.930 . S
H1731 C1728 0.929 . S
S1732 N1733 1.613 . S
S1732 N1734 1.610 . S
N1733 S1732 1.613 . S
N1733 C1736 1.350 . S
N1734 S1732 1.610 . S
N1734 C1735 1.351 . S
C1735 C1729 1.428 . S
C1735 N1734 1.351 . S
C1735 C1736 1.434 . S
C1736 C1727 1.429 . S
C1736 N1733 1.350 . S
C1736 C1735 1.434 . S
C1737 C1738 1.369 . S
C1737 C1739 1.419 . S
C1737 H1741 0.930 . S
C1738 C1737 1.369 . S
C1738 C1747 1.429 . S
C1739 C1737 1.419 . S
C1739 C1740 1.363 . S
C1739 H1742 0.929 . S
C1740 C1739 1.363 . S
C1740 C1746 1.428 . S
H1741 C1737 0.930 . S
H1742 C1739 0.929 . S
S1743 N1744 1.613 . S
S1743 N1745 1.610 . S
N1744 S1743 1.613 . S
N1744 C1747 1.350 . S
N1745 S1743 1.610 . S
N1745 C1746 1.351 . S
C1746 C1740 1.428 . S
C1746 N1745 1.351 . S
C1746 C1747 1.434 . S
C1747 C1738 1.429 . S
C1747 N1744 1.350 . S
C1747 C1746 1.434 . S
C1748 C1749 1.369 . S
C1748 C1750 1.419 . S
C1748 H1752 0.930 . S
C1749 C1748 1.369 . S
C1749 C1758 1.429 . S
C1750 C1748 1.419 . S
C1750 C1751 1.363 . S
C1750 H1753 0.929 . S
C1751 C1750 1.363 . S
C1751 C1757 1.428 . S
H1752 C1748 0.930 . S
H1753 C1750 0.929 . S
S1754 N1755 1.613 . S
S1754 N1756 1.610 . S
N1755 S1754 1.613 . S
N1755 C1758 1.350 . S
N1756 S1754 1.610 . S
N1756 C1757 1.351 . S
C1757 C1751 1.428 . S
C1757 N1756 1.351 . S
C1757 C1758 1.434 . S
C1758 C1749 1.429 . S
C1758 N1755 1.350 . S
C1758 C1757 1.434 . S
C1759 C1760 1.369 . S
C1759 C1761 1.419 . S
C1759 H1763 0.930 . S
C1760 C1759 1.369 . S
C1760 C1769 1.429 . S
C1761 C1759 1.419 . S
C1761 C1762 1.363 . S
C1761 H1764 0.929 . S
C1762 C1761 1.363 . S
C1762 C1768 1.428 1_554 S
H1763 C1759 0.930 . S
H1764 C1761 0.929 . S
S1765 N1766 1.615 1_556 S
S1765 N1767 1.610 . S
N1766 S1765 1.615 1_554 S
N1766 C1769 1.349 . S
N1767 S1765 1.610 . S
N1767 C1768 1.351 . S
C1768 C1762 1.428 1_556 S
C1768 N1767 1.351 . S
C1768 C1769 1.434 1_556 S
C1769 C1760 1.429 . S
C1769 N1766 1.349 . S
C1769 C1768 1.434 1_554 S
C1770 C1771 1.369 . S
C1770 C1772 1.419 . S
C1770 H1774 0.930 . S
C1771 C1770 1.369 . S
C1771 C1780 1.429 . S
C1772 C1770 1.419 . S
C1772 C1773 1.363 . S
C1772 H1775 0.929 . S
C1773 C1772 1.363 . S
C1773 C1779 1.428 . S
H1774 C1770 0.930 . S
H1775 C1772 0.929 . S
S1776 N1777 1.613 . S
S1776 N1778 1.610 . S
N1777 S1776 1.613 . S
N1777 C1780 1.350 . S
N1778 S1776 1.610 . S
N1778 C1779 1.351 . S
C1779 C1773 1.428 . S
C1779 N1778 1.351 . S
C1779 C1780 1.434 . S
C1780 C1771 1.429 . S
C1780 N1777 1.350 . S
C1780 C1779 1.434 . S
C1781 C1782 1.369 . S
C1781 C1783 1.419 . S
C1781 H1785 0.930 . S
C1782 C1781 1.369 . S
C1782 C1791 1.429 . S
C1783 C1781 1.419 . S
C1783 C1784 1.363 . S
C1783 H1786 0.929 . S
C1784 C1783 1.363 . S
C1784 C1790 1.428 . S
H1785 C1781 0.930 . S
H1786 C1783 0.929 . S
S1787 N1788 1.613 . S
S1787 N1789 1.610 . S
N1788 S1787 1.613 . S
N1788 C1791 1.350 . S
N1789 S1787 1.610 . S
N1789 C1790 1.351 . S
C1790 C1784 1.428 . S
C1790 N1789 1.351 . S
C1790 C1791 1.434 . S
C1791 C1782 1.429 . S
C1791 N1788 1.350 . S
C1791 C1790 1.434 . S
C737 C594 1.635 . S
C739 C19 1.634 . S
C748 C571 1.630 . S
C750 C42 1.631 . S
C759 C640 1.631 . S
C761 C65 1.631 . S
C770 C617 1.634 . S
C772 C88 1.634 . S
C781 C111 1.630 . S
C783 C686 1.632 . S
C792 C134 1.635 . S
C794 C663 1.634 . S
C803 C157 1.635 . S
C805 C732 1.634 . S
C814 C709 1.630 . S
C816 C180 1.632 . S
C825 C410 1.634 . S
C827 C203 1.634 . S
C836 C387 1.635 . S
C838 C226 1.635 . S
C847 C456 1.633 . S
C849 C249 1.631 . S
C858 C433 1.635 . S
C860 C272 1.634 . S
C869 C295 1.635 . S
C871 C502 1.634 . S
C880 C479 1.631 . S
C882 C318 1.631 . S
C891 C341 1.635 . S
C893 C548 1.634 . S
C902 C525 1.630 . S
C904 C364 1.632 . S
C913 C21 1.266 . S
C915 C481 1.265 . S
C924 C320 1.268 . S
C926 C44 1.264 . S
C935 C711 1.265 . S
C937 C67 1.265 . S
C946 C90 1.265 . S
C948 C182 1.265 . S
C957 C113 1.264 . S
C959 C389 1.267 . S
C968 C136 1.267 . S
C970 C228 1.265 . S
C979 C159 1.267 . S
C981 C619 1.265 . S
C990 C665 1.264 . S
C992 C205 1.266 . S
C1001 C527 1.263 . S
C1003 C251 1.267 . S
C1012 C366 1.266 . S
C1014 C274 1.265 . S
C1023 C573 1.263 . S
C1025 C297 1.267 . S
C1034 C343 1.267 . S
C1036 C435 1.264 . S
C1045 C688 1.263 . S
C1047 C412 1.267 . S
C1056 C458 1.266 . S
C1058 C550 1.265 . S
C1067 C596 1.264 . S
C1069 C504 1.266 . S
C1078 C642 1.264 . S
C1080 C734 1.266 . S
C1089 C18 1.309 . S
C1091 C455 1.308 . S
C1100 C41 1.310 . S
C1102 C432 1.309 . S
C1111 C64 1.312 . S
C1113 C409 1.312 . S
C1122 C87 1.312 . S
C1124 C386 1.311 . S
C1133 C110 1.312 . S
C1135 C547 1.312 . S
C1144 C133 1.312 . S
C1146 C524 1.311 . S
C1155 C156 1.312 . S
C1157 C501 1.312 . S
C1166 C179 1.307 . S
C1168 C478 1.308 . S
C1177 C202 1.311 . S
C1179 C639 1.312 . S
C1188 C225 1.307 . S
C1190 C616 1.308 . S
C1199 C248 1.307 . S
C1201 C593 1.308 . S
C1210 C271 1.307 . S
C1212 C570 1.308 . S
C1221 C731 1.307 . S
C1223 C294 1.308 . S
C1232 C708 1.312 . S
C1234 C317 1.312 . S
C1243 C685 1.309 . S
C1245 C340 1.308 . S
C1254 C662 1.309 . S
C1256 C363 1.308 . S
C1265 C66 1.323 . S
C1267 C20 1.319 . S
C1276 C89 1.320 . S
C1278 C43 1.323 . S
C1287 C158 1.318 . S
C1289 C112 1.321 . S
C1298 C135 1.316 . S
C1300 C181 1.319 . S
C1309 C250 1.316 . S
C1311 C204 1.320 . S
C1320 C227 1.316 . S
C1322 C273 1.318 . S
C1331 C342 1.324 . S
C1333 C296 1.322 . S
C1342 C319 1.323 . S
C1344 C365 1.323 . S
C1353 C388 1.318 . S
C1355 C434 1.317 . S
C1364 C411 1.322 . S
C1366 C457 1.319 . S
C1375 C526 1.323 . S
C1377 C480 1.320 . S
C1386 C503 1.319 . S
C1388 C549 1.317 . S
C1397 C572 1.322 . S
C1399 C618 1.319 . S
C1408 C641 1.317 . S
C1410 C595 1.321 . S
C1419 C664 1.323 . S
C1421 C710 1.323 . S
C1430 C687 1.317 . S
C1432 C733 1.320 . S
C1441 C16 1.616 1_556 S
C1443 C178 1.616 . S
C1452 C707 1.616 . S
C1454 C39 1.615 1_456 S
C1463 C62 1.615 . S
C1465 C316 1.617 . S
C1474 C85 1.615 1_455 S
C1476 C477 1.616 . S
C1485 C86 1.616 . S
C1487 C108 1.615 1_554 S
C1496 C131 1.616 1_654 S
C1498 C615 1.616 . S
C1507 C224 1.617 . S
C1509 C154 1.615 . S
C1518 C385 1.616 . S
C1520 C177 1.616 1_655 S
C1529 C200 1.616 . S
C1531 C362 1.616 . S
C1540 C523 1.616 . S
C1542 C223 1.615 1_455 S
C1551 C246 1.615 . S
C1553 C132 1.617 . S
C1562 C661 1.616 . S
C1564 C269 1.616 1_455 S
C1573 C292 1.615 . S
C1575 C270 1.616 . S
C1584 C315 1.615 1_655 S
C1586 C431 1.616 . S
C1595 C338 1.615 . S
C1597 C40 1.616 . S
C1606 C569 1.616 . S
C1608 C361 1.616 1_655 S
C1617 C384 1.616 . S
C1619 C546 1.616 . S
C1628 C407 1.615 . S
C1630 C339 1.616 . S
C1639 C430 1.615 . S
C1641 C684 1.617 . S
C1650 C453 1.616 . S
C1652 C109 1.616 . S
C1661 C476 1.615 . S
C1663 C454 1.617 . S
C1672 C247 1.617 . S
C1674 C499 1.615 . S
C1683 C592 1.617 . S
C1685 C522 1.615 . S
C1694 C545 1.616 . S
C1696 C17 1.616 . S
C1705 C730 1.617 . S
C1707 C568 1.615 1_556 S
C1716 C155 1.616 . S
C1718 C591 1.616 1_556 S
C1727 C500 1.616 . S
C1729 C614 1.615 . S
C1738 C637 1.615 . S
C1740 C293 1.617 . S
C1749 C638 1.616 . S
C1751 C660 1.616 1_554 S
C1760 C63 1.616 . S
C1762 C683 1.616 1_554 S
C1771 C408 1.616 . S
C1773 C706 1.616 . S
C1782 C729 1.616 . S
C1784 C201 1.616 . S
