# Generated by pormake.
# Topology som, (6)-cn, num edge types: 1
# Building blocks:
#     Node 0, Type 0, BuildingBlock: BETFEN_clean_sbu_0, # of connection points: 6
#     Node 1, Type 0, BuildingBlock: BETFEN_clean_sbu_0, # of connection points: 6
#     Node 2, Type 0, BuildingBlock: BETFEN_clean_sbu_0, # of connection points: 6
#     Node 3, Type 0, BuildingBlock: BETFEN_clean_sbu_0, # of connection points: 6
#     Node 4, Type 0, BuildingBlock: BETFEN_clean_sbu_0, # of connection points: 6
#     Node 5, Type 0, BuildingBlock: BETFEN_clean_sbu_0, # of connection points: 6
#     Node 6, Type 0, BuildingBlock: BETFEN_clean_sbu_0, # of connection points: 6
#     Node 7, Type 0, BuildingBlock: BETFEN_clean_sbu_0, # of connection points: 6
#     Node 8, Type 0, BuildingBlock: BETFEN_clean_sbu_0, # of connection points: 6
#     Node 9, Type 0, BuildingBlock: BETFEN_clean_sbu_0, # of connection points: 6
#     Node 10, Type 0, BuildingBlock: BETFEN_clean_sbu_0, # of connection points: 6
#     Node 11, Type 0, BuildingBlock: BETFEN_clean_sbu_0, # of connection points: 6
#     Node 12, Type 0, BuildingBlock: BETFEN_clean_sbu_0, # of connection points: 6
#     Node 13, Type 0, BuildingBlock: BETFEN_clean_sbu_0, # of connection points: 6
#     Node 14, Type 0, BuildingBlock: BETFEN_clean_sbu_0, # of connection points: 6
#     Node 15, Type 0, BuildingBlock: BETFEN_clean_sbu_0, # of connection points: 6
#     Node 16, Type 0, BuildingBlock: BETFEN_clean_sbu_0, # of connection points: 6
#     Node 17, Type 0, BuildingBlock: BETFEN_clean_sbu_0, # of connection points: 6
#     Node 18, Type 0, BuildingBlock: BETFEN_clean_sbu_0, # of connection points: 6
#     Node 19, Type 0, BuildingBlock: BETFEN_clean_sbu_0, # of connection points: 6
#     Node 20, Type 0, BuildingBlock: BETFEN_clean_sbu_0, # of connection points: 6
#     Node 21, Type 0, BuildingBlock: BETFEN_clean_sbu_0, # of connection points: 6
#     Node 22, Type 0, BuildingBlock: BETFEN_clean_sbu_0, # of connection points: 6
#     Node 23, Type 0, BuildingBlock: BETFEN_clean_sbu_0, # of connection points: 6
#     Node 24, Type 0, BuildingBlock: BETFEN_clean_sbu_0, # of connection points: 6
#     Node 25, Type 0, BuildingBlock: BETFEN_clean_sbu_0, # of connection points: 6
#     Node 26, Type 0, BuildingBlock: BETFEN_clean_sbu_0, # of connection points: 6
#     Node 27, Type 0, BuildingBlock: BETFEN_clean_sbu_0, # of connection points: 6
#     Node 28, Type 0, BuildingBlock: BETFEN_clean_sbu_0, # of connection points: 6
#     Node 29, Type 0, BuildingBlock: BETFEN_clean_sbu_0, # of connection points: 6
#     Node 30, Type 0, BuildingBlock: BETFEN_clean_sbu_0, # of connection points: 6
#     Node 31, Type 0, BuildingBlock: BETFEN_clean_sbu_0, # of connection points: 6
#     Edge 32, Type (0, 0), BuildingBlock: XIVTED_clean_linker_0, # of connection points: 2
#     Edge 33, Type (0, 0), BuildingBlock: XIVTED_clean_linker_0, # of connection points: 2
#     Edge 34, Type (0, 0), BuildingBlock: XIVTED_clean_linker_0, # of connection points: 2
#     Edge 35, Type (0, 0), BuildingBlock: XIVTED_clean_linker_0, # of connection points: 2
#     Edge 36, Type (0, 0), BuildingBlock: XIVTED_clean_linker_0, # of connection points: 2
#     Edge 37, Type (0, 0), BuildingBlock: XIVTED_clean_linker_0, # of connection points: 2
#     Edge 38, Type (0, 0), BuildingBlock: XIVTED_clean_linker_0, # of connection points: 2
#     Edge 39, Type (0, 0), BuildingBlock: XIVTED_clean_linker_0, # of connection points: 2
#     Edge 40, Type (0, 0), BuildingBlock: XIVTED_clean_linker_0, # of connection points: 2
#     Edge 41, Type (0, 0), BuildingBlock: XIVTED_clean_linker_0, # of connection points: 2
#     Edge 42, Type (0, 0), BuildingBlock: XIVTED_clean_linker_0, # of connection points: 2
#     Edge 43, Type (0, 0), BuildingBlock: XIVTED_clean_linker_0, # of connection points: 2
#     Edge 44, Type (0, 0), BuildingBlock: XIVTED_clean_linker_0, # of connection points: 2
#     Edge 45, Type (0, 0), BuildingBlock: XIVTED_clean_linker_0, # of connection points: 2
#     Edge 46, Type (0, 0), BuildingBlock: XIVTED_clean_linker_0, # of connection points: 2
#     Edge 47, Type (0, 0), BuildingBlock: XIVTED_clean_linker_0, # of connection points: 2
#     Edge 48, Type (0, 0), BuildingBlock: XIVTED_clean_linker_0, # of connection points: 2
#     Edge 49, Type (0, 0), BuildingBlock: XIVTED_clean_linker_0, # of connection points: 2
#     Edge 50, Type (0, 0), BuildingBlock: XIVTED_clean_linker_0, # of connection points: 2
#     Edge 51, Type (0, 0), BuildingBlock: XIVTED_clean_linker_0, # of connection points: 2
#     Edge 52, Type (0, 0), BuildingBlock: XIVTED_clean_linker_0, # of connection points: 2
#     Edge 53, Type (0, 0), BuildingBlock: XIVTED_clean_linker_0, # of connection points: 2
#     Edge 54, Type (0, 0), BuildingBlock: XIVTED_clean_linker_0, # of connection points: 2
#     Edge 55, Type (0, 0), BuildingBlock: XIVTED_clean_linker_0, # of connection points: 2
#     Edge 56, Type (0, 0), BuildingBlock: XIVTED_clean_linker_0, # of connection points: 2
#     Edge 57, Type (0, 0), BuildingBlock: XIVTED_clean_linker_0, # of connection points: 2
#     Edge 58, Type (0, 0), BuildingBlock: XIVTED_clean_linker_0, # of connection points: 2
#     Edge 59, Type (0, 0), BuildingBlock: XIVTED_clean_linker_0, # of connection points: 2
#     Edge 60, Type (0, 0), BuildingBlock: XIVTED_clean_linker_0, # of connection points: 2
#     Edge 61, Type (0, 0), BuildingBlock: XIVTED_clean_linker_0, # of connection points: 2
#     Edge 62, Type (0, 0), BuildingBlock: XIVTED_clean_linker_0, # of connection points: 2
#     Edge 63, Type (0, 0), BuildingBlock: XIVTED_clean_linker_0, # of connection points: 2
#     Edge 64, Type (0, 0), BuildingBlock: XIVTED_clean_linker_0, # of connection points: 2
#     Edge 65, Type (0, 0), BuildingBlock: XIVTED_clean_linker_0, # of connection points: 2
#     Edge 66, Type (0, 0), BuildingBlock: XIVTED_clean_linker_0, # of connection points: 2
#     Edge 67, Type (0, 0), BuildingBlock: XIVTED_clean_linker_0, # of connection points: 2
#     Edge 68, Type (0, 0), BuildingBlock: XIVTED_clean_linker_0, # of connection points: 2
#     Edge 69, Type (0, 0), BuildingBlock: XIVTED_clean_linker_0, # of connection points: 2
#     Edge 70, Type (0, 0), BuildingBlock: XIVTED_clean_linker_0, # of connection points: 2
#     Edge 71, Type (0, 0), BuildingBlock: XIVTED_clean_linker_0, # of connection points: 2
#     Edge 72, Type (0, 0), BuildingBlock: XIVTED_clean_linker_0, # of connection points: 2
#     Edge 73, Type (0, 0), BuildingBlock: XIVTED_clean_linker_0, # of connection points: 2
#     Edge 74, Type (0, 0), BuildingBlock: XIVTED_clean_linker_0, # of connection points: 2
#     Edge 75, Type (0, 0), BuildingBlock: XIVTED_clean_linker_0, # of connection points: 2
#     Edge 76, Type (0, 0), BuildingBlock: XIVTED_clean_linker_0, # of connection points: 2
#     Edge 77, Type (0, 0), BuildingBlock: XIVTED_clean_linker_0, # of connection points: 2
#     Edge 78, Type (0, 0), BuildingBlock: XIVTED_clean_linker_0, # of connection points: 2
#     Edge 79, Type (0, 0), BuildingBlock: XIVTED_clean_linker_0, # of connection points: 2
#     Edge 80, Type (0, 0), BuildingBlock: XIVTED_clean_linker_0, # of connection points: 2
#     Edge 81, Type (0, 0), BuildingBlock: XIVTED_clean_linker_0, # of connection points: 2
#     Edge 82, Type (0, 0), BuildingBlock: XIVTED_clean_linker_0, # of connection points: 2
#     Edge 83, Type (0, 0), BuildingBlock: XIVTED_clean_linker_0, # of connection points: 2
#     Edge 84, Type (0, 0), BuildingBlock: XIVTED_clean_linker_0, # of connection points: 2
#     Edge 85, Type (0, 0), BuildingBlock: XIVTED_clean_linker_0, # of connection points: 2
#     Edge 86, Type (0, 0), BuildingBlock: XIVTED_clean_linker_0, # of connection points: 2
#     Edge 87, Type (0, 0), BuildingBlock: XIVTED_clean_linker_0, # of connection points: 2
#     Edge 88, Type (0, 0), BuildingBlock: XIVTED_clean_linker_0, # of connection points: 2
#     Edge 89, Type (0, 0), BuildingBlock: XIVTED_clean_linker_0, # of connection points: 2
#     Edge 90, Type (0, 0), BuildingBlock: XIVTED_clean_linker_0, # of connection points: 2
#     Edge 91, Type (0, 0), BuildingBlock: XIVTED_clean_linker_0, # of connection points: 2
#     Edge 92, Type (0, 0), BuildingBlock: XIVTED_clean_linker_0, # of connection points: 2
#     Edge 93, Type (0, 0), BuildingBlock: XIVTED_clean_linker_0, # of connection points: 2
#     Edge 94, Type (0, 0), BuildingBlock: XIVTED_clean_linker_0, # of connection points: 2
#     Edge 95, Type (0, 0), BuildingBlock: XIVTED_clean_linker_0, # of connection points: 2
#     Edge 96, Type (0, 0), BuildingBlock: XIVTED_clean_linker_0, # of connection points: 2
#     Edge 97, Type (0, 0), BuildingBlock: XIVTED_clean_linker_0, # of connection points: 2
#     Edge 98, Type (0, 0), BuildingBlock: XIVTED_clean_linker_0, # of connection points: 2
#     Edge 99, Type (0, 0), BuildingBlock: XIVTED_clean_linker_0, # of connection points: 2
#     Edge 100, Type (0, 0), BuildingBlock: XIVTED_clean_linker_0, # of connection points: 2
#     Edge 101, Type (0, 0), BuildingBlock: XIVTED_clean_linker_0, # of connection points: 2
#     Edge 102, Type (0, 0), BuildingBlock: XIVTED_clean_linker_0, # of connection points: 2
#     Edge 103, Type (0, 0), BuildingBlock: XIVTED_clean_linker_0, # of connection points: 2
#     Edge 104, Type (0, 0), BuildingBlock: XIVTED_clean_linker_0, # of connection points: 2
#     Edge 105, Type (0, 0), BuildingBlock: XIVTED_clean_linker_0, # of connection points: 2
#     Edge 106, Type (0, 0), BuildingBlock: XIVTED_clean_linker_0, # of connection points: 2
#     Edge 107, Type (0, 0), BuildingBlock: XIVTED_clean_linker_0, # of connection points: 2
#     Edge 108, Type (0, 0), BuildingBlock: XIVTED_clean_linker_0, # of connection points: 2
#     Edge 109, Type (0, 0), BuildingBlock: XIVTED_clean_linker_0, # of connection points: 2
#     Edge 110, Type (0, 0), BuildingBlock: XIVTED_clean_linker_0, # of connection points: 2
#     Edge 111, Type (0, 0), BuildingBlock: XIVTED_clean_linker_0, # of connection points: 2
#     Edge 112, Type (0, 0), BuildingBlock: XIVTED_clean_linker_0, # of connection points: 2
#     Edge 113, Type (0, 0), BuildingBlock: XIVTED_clean_linker_0, # of connection points: 2
#     Edge 114, Type (0, 0), BuildingBlock: XIVTED_clean_linker_0, # of connection points: 2
#     Edge 115, Type (0, 0), BuildingBlock: XIVTED_clean_linker_0, # of connection points: 2
#     Edge 116, Type (0, 0), BuildingBlock: XIVTED_clean_linker_0, # of connection points: 2
#     Edge 117, Type (0, 0), BuildingBlock: XIVTED_clean_linker_0, # of connection points: 2
#     Edge 118, Type (0, 0), BuildingBlock: XIVTED_clean_linker_0, # of connection points: 2
#     Edge 119, Type (0, 0), BuildingBlock: XIVTED_clean_linker_0, # of connection points: 2
#     Edge 120, Type (0, 0), BuildingBlock: XIVTED_clean_linker_0, # of connection points: 2
#     Edge 121, Type (0, 0), BuildingBlock: XIVTED_clean_linker_0, # of connection points: 2
#     Edge 122, Type (0, 0), BuildingBlock: XIVTED_clean_linker_0, # of connection points: 2
#     Edge 123, Type (0, 0), BuildingBlock: XIVTED_clean_linker_0, # of connection points: 2
#     Edge 124, Type (0, 0), BuildingBlock: XIVTED_clean_linker_0, # of connection points: 2
#     Edge 125, Type (0, 0), BuildingBlock: XIVTED_clean_linker_0, # of connection points: 2
#     Edge 126, Type (0, 0), BuildingBlock: XIVTED_clean_linker_0, # of connection points: 2
#     Edge 127, Type (0, 0), BuildingBlock: XIVTED_clean_linker_0, # of connection points: 2
# Relax obj value: 0.064
# Max RMSD: 0.128
# Mean RMSD: 0.128
data_MOF--net-som--node1-BETFEN_clean_sbu_0--edge1-XIVTED_clean_linker_0
_symmetry_space_group_name_H-M    P1
_symmetry_Int_Tables_number       1
_symmetry_cell_setting            triclinic
loop_
_symmetry_equiv_pos_as_xyz
'x, y, z'
_cell_length_a     26.37414
_cell_length_b     56.310661
_cell_length_c     113.39209
_cell_angle_alpha  89.945779
_cell_angle_beta   89.941924
_cell_angle_gamma 90.000946
loop_
_atom_site_label
_atom_site_type_symbol
_atom_site_fract_x
_atom_site_fract_y
_atom_site_fract_z
_atom_type_partial_charge
Pr0 Pr 0.98032 0.49512 0.07967 0.0
Pr1 Pr 0.09109 0.47052 0.0801 0.0
C2 C 0.88299 0.50851 0.07621 0.0
C3 C 0.82918 0.50109 0.07729 0.0
C4 C 0.80782 0.49439 0.08816 0.0
C5 C 0.75584 0.48937 0.08905 0.0
C6 C 0.72404 0.4909 0.0791 0.0
C7 C 0.74589 0.4971 0.06819 0.0
C8 C 0.79774 0.50218 0.06732 0.0
C9 C 0.0347 0.49628 0.10093 0.0
C10 C 0.98883 0.43654 0.08355 0.0
C11 C 0.18322 0.458 0.08835 0.0
C12 C 0.23836 0.46127 0.0867 0.0
C13 C 0.25973 0.46604 0.0756 0.0
C14 C 0.31232 0.46921 0.07442 0.0
C15 C 0.34447 0.46779 0.08433 0.0
C16 C 0.32257 0.46299 0.09541 0.0
C17 C 0.2702 0.4598 0.09656 0.0
C18 C 0.06011 0.47493 0.05654 0.0
C19 C 0.07594 0.52809 0.07319 0.0
O20 O 0.91056 0.49831 0.06805 0.0
O21 O 0.90834 0.51315 0.08587 0.0
O22 O 0.03111 0.47884 0.09401 0.0
O23 O 1.00833 0.51424 0.09708 0.0
O24 O 0.03908 0.43737 0.0838 0.0
O25 O 0.96016 0.45538 0.08177 0.0
O26 O 0.15776 0.47631 0.09232 0.0
O27 O 0.15839 0.44551 0.08048 0.0
O28 O 0.03523 0.48138 0.06554 0.0
O29 O 0.10267 0.46517 0.05972 0.0
O30 O 0.0278 0.52422 0.07089 0.0
O31 O 0.10557 0.51185 0.07815 0.0
H32 H 0.83104 0.49333 0.09601 0.0
H33 H 0.74055 0.48433 0.09756 0.0
H34 H 0.72266 0.49877 0.06036 0.0
H35 H 0.81313 0.50748 0.05885 0.0
H36 H 0.2358 0.46742 0.06787 0.0
H37 H 0.32768 0.47314 0.06577 0.0
H38 H 0.34598 0.46138 0.10321 0.0
H39 H 0.25448 0.45612 0.10521 0.0
Pr40 Pr 0.29764 0.728 0.07459 0.0
Pr41 Pr 0.18714 0.75246 0.07435 0.0
C42 C 0.39552 0.71394 0.07299 0.0
C43 C 0.44888 0.72189 0.0719 0.0
C44 C 0.46729 0.74171 0.07809 0.0
C45 C 0.51917 0.74729 0.07789 0.0
C46 C 0.55376 0.73319 0.07149 0.0
C47 C 0.53471 0.7138 0.06503 0.0
C48 C 0.48295 0.70823 0.06525 0.0
C49 C 0.24153 0.72765 0.09568 0.0
C50 C 0.28918 0.78644 0.07681 0.0
C51 C 0.09423 0.76595 0.08178 0.0
C52 C 0.03927 0.7637 0.07949 0.0
C53 C 0.01949 0.74527 0.07254 0.0
C54 C 0.96682 0.74261 0.07125 0.0
C55 C 0.93295 0.75825 0.07693 0.0
C56 C 0.95329 0.77694 0.08369 0.0
C57 C 1.00578 0.77959 0.08495 0.0
C58 C 0.2202 0.74756 0.05091 0.0
C59 C 0.20276 0.6941 0.06901 0.0
O60 O 0.36587 0.71591 0.06378 0.0
O61 O 0.37229 0.71807 0.08298 0.0
O62 O 0.24583 0.74488 0.08864 0.0
O63 O 0.26731 0.70943 0.09196 0.0
O64 O 0.2397 0.78504 0.07878 0.0
O65 O 0.31663 0.76798 0.07364 0.0
O66 O 0.11765 0.74695 0.08565 0.0
O67 O 0.12141 0.77859 0.07438 0.0
O68 O 0.24434 0.74134 0.06005 0.0
O69 O 0.17723 0.75717 0.05386 0.0
O70 O 0.2511 0.69758 0.06676 0.0
O71 O 0.17294 0.71098 0.07335 0.0
H72 H 0.44179 0.75262 0.08326 0.0
H73 H 0.5322 0.76257 0.08282 0.0
H74 H 0.56004 0.70236 0.06011 0.0
H75 H 0.46971 0.69277 0.06048 0.0
H76 H 0.04471 0.73271 0.0683 0.0
H77 H 0.95266 0.7279 0.06606 0.0
H78 H 0.9286 0.78957 0.08803 0.0
H79 H 0.02025 0.79392 0.09036 0.0
Pr80 Pr 0.98172 0.73185 0.19222 0.0
Pr81 Pr 0.09228 0.75665 0.1916 0.0
C82 C 0.88492 0.71795 0.19601 0.0
C83 C 0.83083 0.72391 0.19423 0.0
C84 C 0.79577 0.70539 0.1929 0.0
C85 C 0.74383 0.71017 0.19208 0.0
C86 C 0.72559 0.73365 0.19257 0.0
C87 C 0.76104 0.75227 0.19361 0.0
C88 C 0.81317 0.74745 0.19446 0.0
C89 C 0.03541 0.73015 0.17086 0.0
C90 C 0.98977 0.79032 0.18793 0.0
C91 C 0.18534 0.76925 0.18393 0.0
C92 C 0.24013 0.76563 0.18628 0.0
C93 C 0.27281 0.78529 0.18649 0.0
C94 C 0.32522 0.78223 0.18786 0.0
C95 C 0.34634 0.75937 0.18901 0.0
C96 C 0.31326 0.7397 0.189 0.0
C97 C 0.26083 0.74279 0.18767 0.0
C98 C 0.06164 0.75176 0.21524 0.0
C99 C 0.07793 0.69927 0.19843 0.0
O100 O 0.91083 0.73096 0.20343 0.0
O101 O 0.91132 0.71121 0.18683 0.0
O102 O 0.03244 0.74785 0.17766 0.0
O103 O 1.00846 0.7125 0.17483 0.0
O104 O 0.04003 0.7896 0.1878 0.0
O105 O 0.96118 0.77143 0.18966 0.0
O106 O 0.15984 0.75116 0.17971 0.0
O107 O 0.15931 0.7821 0.19144 0.0
O108 O 0.0369 0.7455 0.20622 0.0
O109 O 0.10421 0.76148 0.21206 0.0
O110 O 0.03018 0.70321 0.20116 0.0
O111 O 0.10672 0.71543 0.19317 0.0
H112 H 0.80854 0.68711 0.19269 0.0
H113 H 0.71791 0.6954 0.19106 0.0
H114 H 0.74845 0.77055 0.19409 0.0
H115 H 0.83952 0.76206 0.19549 0.0
H116 H 0.25783 0.80309 0.18543 0.0
H117 H 0.34917 0.79785 0.18802 0.0
H118 H 0.32793 0.7218 0.18972 0.0
H119 H 0.23663 0.72725 0.18753 0.0
Pr120 Pr 0.30512 0.4996 0.19575 0.0
Pr121 Pr 0.20184 0.47568 0.1961 0.0
C122 C 0.40273 0.51387 0.19815 0.0
C123 C 0.45688 0.50646 0.19748 0.0
C124 C 0.48284 0.50559 0.18664 0.0
C125 C 0.53509 0.50096 0.18626 0.0
C126 C 0.56287 0.49722 0.1967 0.0
C127 C 0.53659 0.49766 0.20751 0.0
C128 C 0.4844 0.50229 0.2079 0.0
C129 C 0.25358 0.49896 0.17404 0.0
C130 C 0.30031 0.44162 0.19278 0.0
C131 C 0.10478 0.46235 0.19193 0.0
C132 C 0.05031 0.46881 0.19304 0.0
C133 C 0.02531 0.469 0.20401 0.0
C134 C 0.97284 0.47301 0.20466 0.0
C135 C 0.94402 0.47679 0.19437 0.0
C136 C 0.96942 0.47704 0.18345 0.0
C137 C 0.02176 0.47305 0.1828 0.0
C138 C 0.24733 0.47737 0.21842 0.0
C139 C 0.21207 0.53454 0.20038 0.0
O140 O 0.37529 0.50579 0.2069 0.0
O141 O 0.37701 0.51604 0.18835 0.0
O142 O 0.25769 0.48167 0.18105 0.0
O143 O 0.27735 0.51748 0.17805 0.0
O144 O 0.25184 0.44348 0.19002 0.0
O145 O 0.32568 0.45974 0.19705 0.0
O146 O 0.13231 0.47425 0.18436 0.0
O147 O 0.12994 0.4562 0.20139 0.0
O148 O 0.24749 0.49417 0.21098 0.0
O149 O 0.22256 0.45912 0.21441 0.0
O150 O 0.26036 0.53142 0.20267 0.0
O151 O 0.18309 0.5169 0.1966 0.0
H152 H 0.4631 0.50903 0.17845 0.0
H153 H 0.55397 0.50107 0.17777 0.0
H154 H 0.55638 0.49453 0.21573 0.0
H155 H 0.46577 0.50306 0.2164 0.0
H156 H 0.04602 0.4656 0.21208 0.0
H157 H 0.95465 0.47244 0.21322 0.0
H158 H 0.94884 0.48027 0.17534 0.0
H159 H 0.03982 0.47285 0.17421 0.0
Pr160 Pr 0.94945 0.50293 0.94739 0.0
Pr161 Pr 0.05242 0.47932 0.94697 0.0
C162 C 0.85227 0.51612 0.94319 0.0
C163 C 0.79788 0.50965 0.94473 0.0
C164 C 0.7698 0.51809 0.95441 0.0
C165 C 0.71744 0.51397 0.95521 0.0
C166 C 0.69166 0.5014 0.94631 0.0
C167 C 0.71998 0.49268 0.93671 0.0
C168 C 0.77226 0.49681 0.93591 0.0
C169 C 0.99292 0.49998 0.96988 0.0
C170 C 0.96003 0.44379 0.95078 0.0
C171 C 0.15014 0.46502 0.94908 0.0
C172 C 0.20428 0.47229 0.94816 0.0
C173 C 0.23412 0.46391 0.93877 0.0
C174 C 0.28635 0.4684 0.93839 0.0
C175 C 0.31036 0.48128 0.94744 0.0
C176 C 0.28021 0.49014 0.95671 0.0
C177 C 0.2279 0.48567 0.95708 0.0
C178 C 1.00212 0.48156 0.92507 0.0
C179 C 0.04809 0.53716 0.94477 0.0
O180 O 0.87948 0.50356 0.93584 0.0
O181 O 0.87805 0.52322 0.95239 0.0
O182 O 0.99443 0.48364 0.9622 0.0
O183 O 0.96758 0.51823 0.96607 0.0
O184 O 1.00799 0.44694 0.95339 0.0
O185 O 0.93118 0.46161 0.94714 0.0
O186 O 0.12316 0.47313 0.95789 0.0
O187 O 0.12397 0.46286 0.93935 0.0
O188 O 1.00604 0.49837 0.93235 0.0
O189 O 0.02524 0.46273 0.92893 0.0
O190 O 1.00012 0.53525 0.94154 0.0
O191 O 0.07252 0.51899 0.94925 0.0
H192 H 0.78809 0.52828 0.9613 0.0
H193 H 0.69714 0.52073 0.9628 0.0
H194 H 0.70151 0.48327 0.92959 0.0
H195 H 0.79237 0.49041 0.92822 0.0
H196 H 0.21725 0.45339 0.93181 0.0
H197 H 0.30798 0.46161 0.93101 0.0
H198 H 0.29727 0.49989 0.96392 0.0
H199 H 0.20627 0.49221 0.96453 0.0
Pr200 Pr 0.84173 0.22073 0.93992 0.0
Pr201 Pr 0.73188 0.24568 0.9399 0.0
C202 C 0.93512 0.20797 0.93252 0.0
C203 C 0.9899 0.2118 0.93486 0.0
C204 C 0.02224 0.19214 0.93605 0.0
C205 C 0.07466 0.19526 0.93738 0.0
C206 C 0.09616 0.21817 0.93748 0.0
C207 C 0.06344 0.23786 0.93649 0.0
C208 C 1.011 0.23472 0.93521 0.0
C209 C 0.81001 0.22577 0.96343 0.0
C210 C 0.82755 0.27846 0.94629 0.0
C211 C 0.63491 0.26014 0.9429 0.0
C212 C 0.58084 0.25385 0.94138 0.0
C213 C 0.54581 0.27203 0.93914 0.0
C214 C 0.49388 0.26712 0.93852 0.0
C215 C 0.47559 0.24386 0.94014 0.0
C216 C 0.51101 0.22551 0.94209 0.0
C217 C 0.56314 0.23046 0.94273 0.0
C218 C 0.78744 0.24625 0.91875 0.0
C219 C 0.73928 0.18701 0.93645 0.0
O220 O 0.90951 0.2258 0.92805 0.0
O221 O 0.90902 0.19541 0.94016 0.0
O222 O 0.78539 0.2322 0.95438 0.0
O223 O 0.8524 0.2158 0.96032 0.0
O224 O 0.77943 0.27474 0.94869 0.0
O225 O 0.85681 0.26202 0.94141 0.0
O226 O 0.66075 0.24869 0.95095 0.0
O227 O 0.66144 0.26504 0.93345 0.0
O228 O 0.78295 0.2289 0.92572 0.0
O229 O 0.76137 0.26438 0.92249 0.0
O230 O 0.78955 0.18765 0.93633 0.0
O231 O 0.71085 0.20601 0.93796 0.0
H232 H 1.00699 0.17428 0.9358 0.0
H233 H 0.09833 0.17967 0.93832 0.0
H234 H 0.07841 0.25576 0.93638 0.0
H235 H 0.98715 0.25027 0.93428 0.0
H236 H 0.55861 0.29019 0.93805 0.0
H237 H 0.468 0.28163 0.93677 0.0
H238 H 0.49838 0.20741 0.94345 0.0
H239 H 0.58946 0.21612 0.94447 0.0
Pr240 Pr 0.94805 0.22594 0.82312 0.0
Pr241 Pr 0.05154 0.24964 0.82288 0.0
C242 C 0.85106 0.21287 0.82766 0.0
C243 C 0.79664 0.21928 0.82646 0.0
C244 C 0.77316 0.2218 0.81539 0.0
C245 C 0.72077 0.22596 0.81459 0.0
C246 C 0.69058 0.22768 0.82483 0.0
C247 C 0.71451 0.22555 0.83587 0.0
C248 C 0.76674 0.22137 0.83666 0.0
C249 C 0.99081 0.22814 0.8005 0.0
C250 C 0.95833 0.2849 0.8194 0.0
C251 C 0.14897 0.26365 0.81975 0.0
C252 C 0.20325 0.25667 0.82067 0.0
C253 C 0.22711 0.25342 0.83165 0.0
C254 C 0.27946 0.24914 0.8323 0.0
C255 C 0.30934 0.24801 0.82201 0.0
C256 C 0.28511 0.25079 0.81103 0.0
C257 C 0.23286 0.25513 0.81039 0.0
C258 C 1.00267 0.24846 0.84496 0.0
C259 C 0.04625 0.19161 0.82612 0.0
O260 O 0.87862 0.22528 0.83499 0.0
O261 O 0.87611 0.20612 0.81828 0.0
O262 O 0.99216 0.24478 0.80801 0.0
O263 O 0.96648 0.20984 0.8046 0.0
O264 O 1.00603 0.2818 0.81648 0.0
O265 O 0.93004 0.26713 0.82331 0.0
O266 O 0.12168 0.25395 0.81141 0.0
O267 O 0.12331 0.26742 0.82945 0.0
O268 O 1.00581 0.23137 0.83782 0.0
O269 O 0.02651 0.26696 0.84094 0.0
O270 O 0.99806 0.1937 0.82912 0.0
O271 O 0.07156 0.20962 0.82167 0.0
H272 H 0.79508 0.22028 0.80735 0.0
H273 H 0.70393 0.22782 0.80594 0.0
H274 H 0.69266 0.2264 0.84395 0.0
H275 H 0.78368 0.21925 0.8453 0.0
H276 H 0.20556 0.25457 0.83976 0.0
H277 H 0.29656 0.24678 0.8409 0.0
H278 H 0.30676 0.25038 0.80292 0.0
H279 H 0.21576 0.25786 0.80181 0.0
Pr280 Pr 0.83711 0.50952 0.828 0.0
Pr281 Pr 0.73472 0.48512 0.82964 0.0
C282 C 0.93479 0.52356 0.83078 0.0
C283 C 0.98923 0.51689 0.82974 0.0
C284 C 0.02122 0.53029 0.82239 0.0
C285 C 0.07357 0.52603 0.82209 0.0
C286 C 0.09554 0.50827 0.82919 0.0
C287 C 0.06323 0.49448 0.83637 0.0
C288 C 1.01078 0.49876 0.83666 0.0
C289 C 0.78752 0.50725 0.80617 0.0
C290 C 0.82781 0.4506 0.82419 0.0
C291 C 0.63725 0.47014 0.82811 0.0
C292 C 0.583 0.47694 0.82934 0.0
C293 C 0.55102 0.46317 0.83651 0.0
C294 C 0.49875 0.46758 0.83694 0.0
C295 C 0.47687 0.48587 0.83016 0.0
C296 C 0.50925 0.50008 0.8232 0.0
C297 C 0.56164 0.49567 0.82279 0.0
C298 C 0.79059 0.486 0.85075 0.0
C299 C 0.73855 0.54355 0.83191 0.0
O300 O 0.90771 0.51386 0.83917 0.0
O301 O 0.90896 0.5272 0.82111 0.0
O302 O 0.78885 0.49054 0.81367 0.0
O303 O 0.81206 0.52574 0.80996 0.0
O304 O 0.77906 0.45343 0.82238 0.0
O305 O 0.85701 0.46845 0.82759 0.0
O306 O 0.66288 0.4788 0.81921 0.0
O307 O 0.6645 0.4679 0.83768 0.0
O308 O 0.78486 0.50337 0.8438 0.0
O309 O 0.76607 0.46747 0.847 0.0
O310 O 0.78823 0.54267 0.83329 0.0
O311 O 0.71187 0.5247 0.82913 0.0
H312 H 1.00581 0.54447 0.81701 0.0
H313 H 0.09686 0.53676 0.8163 0.0
H314 H 0.07861 0.48082 0.84206 0.0
H315 H 0.98734 0.48819 0.8425 0.0
H316 H 0.56637 0.44859 0.84162 0.0
H317 H 0.47545 0.45653 0.84258 0.0
H318 H 0.49399 0.51418 0.81777 0.0
H319 H 0.58517 0.50659 0.81714 0.0
Pr320 Pr 0.9779 0.00161 0.58077 0.0
Pr321 Pr 0.0815 0.97797 0.58003 0.0
C322 C 0.88054 0.01613 0.57831 0.0
C323 C 0.82622 0.01016 0.57994 0.0
C324 C 0.79292 0.02782 0.58396 0.0
C325 C 0.74063 0.02363 0.58453 0.0
C326 C 0.72018 0.00162 0.58107 0.0
C327 C 0.75388 0.98367 0.57735 0.0
C328 C 0.80632 0.9879 0.57677 0.0
C329 C 0.02975 0.00035 0.60243 0.0
C330 C 0.9836 0.9434 0.58363 0.0
C331 C 0.17874 0.96449 0.58384 0.0
C332 C 0.23322 0.9702 0.58216 0.0
C333 C 0.26624 0.9523 0.57827 0.0
C334 C 0.31859 0.9563 0.57764 0.0
C335 C 0.33942 0.97834 0.58093 0.0
C336 C 0.30603 -0.00351 0.58456 0.0
C337 C 0.25354 -0.00754 0.58519 0.0
C338 C 0.035 0.97974 0.55785 0.0
C339 C 0.07078 0.03664 0.57548 0.0
O340 O 0.90579 0.00483 0.57012 0.0
O341 O 0.9078 0.02083 0.58765 0.0
O342 O 0.02608 0.98331 0.59527 0.0
O343 O 1.00523 0.01884 0.59863 0.0
O344 O 0.03267 0.94514 0.58579 0.0
O345 O 0.95681 0.96175 0.58012 0.0
O346 O 0.15247 0.97743 0.59123 0.0
O347 O 0.1525 0.9576 0.57468 0.0
O348 O 0.03466 -0.00349 0.5653 0.0
O349 O 0.06032 0.9616 0.56179 0.0
O350 O 0.02229 0.03332 0.57349 0.0
O351 O 0.10037 0.01916 0.57919 0.0
H352 H 0.8073 0.04514 0.58644 0.0
H353 H 0.7162 0.03774 0.58766 0.0
H354 H 0.73966 0.96656 0.57453 0.0
H355 H 0.83111 0.97395 0.57361 0.0
H356 H 0.25158 0.93496 0.57591 0.0
H357 H 0.34277 0.94202 0.57459 0.0
H358 H 0.32053 0.01363 0.58727 0.0
H359 H 0.22905 0.00661 0.58826 0.0
Pr360 Pr 0.30493 0.23291 0.57339 0.0
Pr361 Pr 0.19464 0.25873 0.57444 0.0
C362 C 0.40207 0.21929 0.56964 0.0
C363 C 0.456 0.22672 0.57058 0.0
C364 C 0.47654 0.23549 0.58116 0.0
C365 C 0.52856 0.24049 0.58205 0.0
C366 C 0.56133 0.23691 0.57238 0.0
C367 C 0.54029 0.22865 0.56173 0.0
C368 C 0.48838 0.22359 0.56087 0.0
C369 C 0.25242 0.23224 0.59496 0.0
C370 C 0.2985 0.29153 0.57771 0.0
C371 C 0.1024 0.27141 0.5827 0.0
C372 C 0.04723 0.26815 0.58092 0.0
C373 C 0.02686 0.26124 0.57001 0.0
C374 C 0.97431 0.2579 0.56874 0.0
C375 C 0.94112 0.26128 0.57836 0.0
C376 C 0.96204 0.26827 0.58925 0.0
C377 C 1.01438 0.27162 0.5905 0.0
C378 C 0.2241 0.25377 0.55073 0.0
C379 C 0.20739 0.20056 0.56834 0.0
O380 O 0.3741 0.22933 0.56151 0.0
O381 O 0.37715 0.21487 0.57939 0.0
O382 O 0.25574 0.24965 0.58798 0.0
O383 O 0.27837 0.21421 0.59104 0.0
O384 O 0.24835 0.291 0.57867 0.0
O385 O 0.32588 0.27264 0.57514 0.0
O386 O 0.12769 0.25301 0.58663 0.0
O387 O 0.1276 0.28397 0.57489 0.0
O388 O 0.24896 0.24717 0.55968 0.0
O389 O 0.18233 0.26407 0.55404 0.0
O390 O 0.25514 0.20373 0.56535 0.0
O391 O 0.17961 0.21746 0.57332 0.0
H392 H 0.45258 0.23818 0.58881 0.0
H393 H 0.54312 0.24716 0.59034 0.0
H394 H 0.56418 0.22538 0.55414 0.0
H395 H 0.47364 0.2167 0.55264 0.0
H396 H 0.05155 0.25827 0.56252 0.0
H397 H 0.95982 0.25226 0.56026 0.0
H398 H 0.93791 0.27143 0.59681 0.0
H399 H 0.02926 0.27694 0.599 0.0
Pr400 Pr 0.98107 0.23231 0.68987 0.0
Pr401 Pr 0.0847 0.25575 0.69121 0.0
C402 C 0.88361 0.21765 0.69173 0.0
C403 C 0.82941 0.2238 0.69016 0.0
C404 C 0.79633 0.20664 0.68557 0.0
C405 C 0.74406 0.21083 0.68509 0.0
C406 C 0.72342 0.23233 0.68924 0.0
C407 C 0.75692 0.24983 0.69352 0.0
C408 C 0.80935 0.2456 0.69399 0.0
C409 C 0.03639 0.2327 0.66865 0.0
C410 C 0.98748 0.29045 0.68685 0.0
C411 C 0.1823 0.26913 0.68788 0.0
C412 C 0.23664 0.26315 0.68949 0.0
C413 C 0.26943 0.28037 0.69415 0.0
C414 C 0.32177 0.27632 0.69468 0.0
C415 C 0.34277 0.25492 0.69052 0.0
C416 C 0.30961 0.23739 0.68614 0.0
C417 C 0.25715 0.24147 0.68561 0.0
C418 C 0.0351 0.25467 0.71306 0.0
C419 C 0.07271 0.19724 0.69612 0.0
O420 O 0.90846 0.22805 0.70026 0.0
O421 O 0.91128 0.21393 0.68233 0.0
O422 O 0.03156 0.25001 0.67562 0.0
O423 O 1.01142 0.21432 0.67244 0.0
O424 O 0.03687 0.28865 0.68513 0.0
O425 O 0.95997 0.27218 0.69017 0.0
O426 O 0.15614 0.25694 0.68018 0.0
O427 O 0.15584 0.27532 0.69714 0.0
O428 O 0.03564 0.23774 0.7057 0.0
O429 O 0.06104 0.2727 0.70919 0.0
O430 O 0.02403 0.20079 0.69769 0.0
O431 O 0.10313 0.2145 0.69249 0.0
H432 H 0.81087 0.18968 0.68257 0.0
H433 H 0.71976 0.19712 0.68152 0.0
H434 H 0.74254 0.26652 0.69687 0.0
H435 H 0.83399 0.25916 0.69759 0.0
H436 H 0.25464 0.29726 0.69717 0.0
H437 H 0.34581 0.29007 0.69832 0.0
H438 H 0.32429 0.22078 0.68276 0.0
H439 H 0.23285 0.22786 0.68193 0.0
Pr440 Pr 0.29467 -0.00169 0.69819 0.0
Pr441 Pr 0.18479 0.97383 0.69885 0.0
C442 C 0.39296 0.01192 0.69873 0.0
C443 C 0.44631 0.00485 0.70088 0.0
C444 C 0.46675 0.98378 0.69622 0.0
C445 C 0.51893 0.97912 0.69706 0.0
C446 C 0.55183 -0.00454 0.70254 0.0
C447 C 0.53069 0.01604 0.7076 0.0
C448 C 0.47865 0.02067 0.70676 0.0
C449 C 0.23687 -0.00051 0.67737 0.0
C450 C 0.28632 0.94012 0.69676 0.0
C451 C 0.09101 0.96035 0.69206 0.0
C452 C 0.03659 0.96295 0.69496 0.0
C453 C 1.01814 0.98293 0.701 0.0
C454 C 0.96586 0.98587 0.70281 0.0
C455 C 0.93092 0.9689 0.69863 0.0
C456 C 0.94993 0.94868 0.6928 0.0
C457 C 1.00211 0.94578 0.69099 0.0
C458 C 0.21938 0.97838 0.72218 0.0
C459 C 0.20055 0.03217 0.70415 0.0
O460 O 0.36243 0.01449 0.70776 0.0
O461 O 0.37055 0.00334 0.68936 0.0
O462 O 0.24171 0.9819 0.68417 0.0
O463 O 0.26292 0.01749 0.68119 0.0
O464 O 0.23759 0.94163 0.69405 0.0
O465 O 0.31248 0.95847 0.70056 0.0
O466 O 0.11416 0.97925 0.68797 0.0
O467 O 0.11921 0.94758 0.69918 0.0
O468 O 0.24294 0.98477 0.71299 0.0
O469 O 0.17627 0.96881 0.71935 0.0
O470 O 0.24905 0.02883 0.70625 0.0
O471 O 0.1707 0.01522 0.69993 0.0
H472 H 0.44272 0.97124 0.69162 0.0
H473 H 0.5337 0.96316 0.69299 0.0
H474 H 0.55449 0.0288 0.71211 0.0
H475 H 0.46385 0.03704 0.71042 0.0
H476 H 0.04407 -0.00358 0.70415 0.0
H477 H 0.95284 0.00149 0.70748 0.0
H478 H 0.9244 0.93538 0.6893 0.0
H479 H 1.0155 0.93031 0.68624 0.0
Pr480 Pr 0.95399 0.0074 0.44769 0.0
Pr481 Pr 0.05712 0.98413 0.44776 0.0
C482 C 0.85662 0.02009 0.4434 0.0
C483 C 0.80233 0.01354 0.44496 0.0
C484 C 0.77408 0.02237 0.45453 0.0
C485 C 0.72174 0.01826 0.45532 0.0
C486 C 0.69617 0.00532 0.44652 0.0
C487 C 0.72466 -0.00383 0.43705 0.0
C488 C 0.77694 0.00029 0.43626 0.0
C489 C 0.99752 0.00612 0.47024 0.0
C490 C 0.96501 0.94874 0.45221 0.0
C491 C 0.15475 0.9703 0.45058 0.0
C492 C 0.20886 0.97734 0.44926 0.0
C493 C 0.238 0.96823 0.43992 0.0
C494 C 0.29024 0.97259 0.43928 0.0
C495 C 0.31492 0.98605 0.44802 0.0
C496 C 0.28549 -0.0044 0.45724 0.0
C497 C 0.23321 -0.00874 0.45787 0.0
C498 C 1.00737 0.98434 0.4258 0.0
C499 C 0.05147 0.04192 0.44404 0.0
O500 O 0.88404 0.00744 0.43613 0.0
O501 O 0.88222 0.02748 0.45257 0.0
O502 O 0.99881 0.98925 0.46287 0.0
O503 O 0.97305 0.02425 0.46602 0.0
O504 O 1.01276 0.95229 0.45489 0.0
O505 O 0.93615 0.96612 0.4481 0.0
O506 O 0.1279 0.98036 0.4589 0.0
O507 O 0.12845 0.96595 0.44105 0.0
O508 O 1.01067 0.00175 0.43275 0.0
O509 O 0.03113 0.96599 0.43 0.0
O510 O 1.00306 0.03966 0.44132 0.0
O511 O 0.0773 0.02413 0.44851 0.0
H512 H 0.7922 0.03287 0.46132 0.0
H513 H 0.70127 0.02534 0.46281 0.0
H514 H 0.70632 0.98645 0.43001 0.0
H515 H 0.79722 -0.00643 0.42866 0.0
H516 H 0.2206 0.95726 0.4332 0.0
H517 H 0.31136 0.96524 0.43194 0.0
H518 H 0.30309 0.00579 0.46421 0.0
H519 H 0.21219 -0.00167 0.46528 0.0
Pr520 Pr 0.85014 0.72549 0.44218 0.0
Pr521 Pr 0.74101 0.74994 0.44139 0.0
C522 C 0.94407 0.71231 0.43529 0.0
C523 C 0.99851 0.71506 0.43813 0.0
C524 C 1.01686 0.73512 0.44412 0.0
C525 C 0.06912 0.73813 0.44592 0.0
C526 C 0.10418 0.72114 0.44179 0.0
C527 C 0.08528 0.70086 0.436 0.0
C528 C 0.03311 0.69789 0.4342 0.0
C529 C 0.81591 0.72968 0.46551 0.0
C530 C 0.83442 0.78348 0.44834 0.0
C531 C 0.64263 0.76357 0.4415 0.0
C532 C 0.58915 0.75665 0.4437 0.0
C533 C 0.56834 0.73567 0.43902 0.0
C534 C 0.51613 0.73113 0.43993 0.0
C535 C 0.48348 0.7475 0.44549 0.0
C536 C 0.50494 0.76801 0.45054 0.0
C537 C 0.55704 0.77252 0.44963 0.0
C538 C 0.79979 0.75115 0.42068 0.0
C539 C 0.74872 0.69165 0.44057 0.0
O540 O 0.92058 0.73113 0.43122 0.0
O541 O 0.91611 0.69945 0.44242 0.0
O542 O 0.79178 0.73632 0.45642 0.0
O543 O 0.85883 0.72004 0.46255 0.0
O544 O 0.78559 0.78011 0.44992 0.0
O545 O 0.86483 0.76679 0.44405 0.0
O546 O 0.67281 0.7668 0.45053 0.0
O547 O 0.66546 0.75435 0.43233 0.0
O548 O 0.79396 0.73352 0.4274 0.0
O549 O 0.77445 0.76932 0.42457 0.0
O550 O 0.7976 0.69284 0.43795 0.0
O551 O 0.72261 0.71029 0.44401 0.0
H552 H 0.99084 0.74861 0.44725 0.0
H553 H 0.08204 0.7538 0.45056 0.0
H554 H 0.11087 0.68754 0.43254 0.0
H555 H 0.01983 0.68235 0.4295 0.0
H556 H 0.59212 0.72311 0.43436 0.0
H557 H 0.50113 0.71523 0.43586 0.0
H558 H 0.48135 0.78081 0.45509 0.0
H559 H 0.57207 0.78884 0.45329 0.0
Pr560 Pr 0.94669 0.72247 0.32499 0.0
Pr561 Pr 0.05786 0.74741 0.3239 0.0
C562 C 0.85391 0.71002 0.33292 0.0
C563 C 0.79909 0.71367 0.33069 0.0
C564 C 0.76533 0.69465 0.33222 0.0
C565 C 0.71291 0.69804 0.33105 0.0
C566 C 0.69297 0.72061 0.32838 0.0
C567 C 0.72708 0.73955 0.32662 0.0
C568 C 0.77953 0.73612 0.32774 0.0
C569 C 0.97622 0.72765 0.30125 0.0
C570 C 0.96115 0.78016 0.31878 0.0
C571 C 0.15442 0.76093 0.31947 0.0
C572 C 0.20852 0.75544 0.32157 0.0
C573 C 0.24389 0.77401 0.32138 0.0
C574 C 0.29575 0.7694 0.32266 0.0
C575 C 0.31362 0.74602 0.32418 0.0
C576 C 0.27782 0.72741 0.32451 0.0
C577 C 0.2258 0.73207 0.32322 0.0
C578 C 1.00606 0.74838 0.34556 0.0
C579 C 0.04964 0.68913 0.32902 0.0
O580 O 0.87953 0.72824 0.33697 0.0
O581 O 0.87956 0.69707 0.32537 0.0
O582 O 1.00119 0.73378 0.31025 0.0
O583 O 0.93388 0.71782 0.30451 0.0
O584 O 1.0081 0.77615 0.31539 0.0
O585 O 0.9332 0.76381 0.32414 0.0
O586 O 0.12877 0.74645 0.31269 0.0
O587 O 0.12782 0.76927 0.3283 0.0
O588 O 1.0083 0.7311 0.33852 0.0
O589 O 0.0335 0.76603 0.34175 0.0
O590 O 0.99936 0.68989 0.32931 0.0
O591 O 0.07816 0.70784 0.32678 0.0
H592 H 0.77947 0.67721 0.33456 0.0
H593 H 0.68794 0.68309 0.33259 0.0
H594 H 0.71324 0.75709 0.32437 0.0
H595 H 0.8047 0.75111 0.32646 0.0
H596 H 0.23145 0.79215 0.32004 0.0
H597 H 0.32193 0.78418 0.32215 0.0
H598 H 0.28994 0.70923 0.32581 0.0
H599 H 0.19918 0.71743 0.32339 0.0
Pr600 Pr 0.85115 0.00613 0.32826 0.0
Pr601 Pr 0.74793 0.98214 0.32922 0.0
C602 C 0.94837 0.01947 0.33222 0.0
C603 C 1.00276 0.01293 0.33085 0.0
C604 C 0.02887 0.01667 0.32018 0.0
C605 C 0.08126 0.01258 0.31941 0.0
C606 C 0.10893 0.00472 0.32929 0.0
C607 C 0.08252 0.00066 0.3399 0.0
C608 C 0.03026 0.00478 0.34067 0.0
C609 C 0.80458 0.00404 0.30612 0.0
C610 C 0.84053 0.94718 0.32404 0.0
C611 C 0.65027 0.96755 0.32755 0.0
C612 C 0.5961 0.97493 0.32823 0.0
C613 C 0.56808 0.97123 0.33863 0.0
C614 C 0.51578 0.9756 0.33894 0.0
C615 C 0.48991 0.98364 0.32884 0.0
C616 C 0.51821 0.98787 0.31851 0.0
C617 C 0.57054 0.9835 0.3182 0.0
C618 C 0.80132 0.98357 0.35068 0.0
C619 C 0.75216 0.04011 0.33132 0.0
O620 O 0.92118 0.00745 0.33981 0.0
O621 O 0.92265 0.02586 0.32287 0.0
O622 O 0.80405 0.98746 0.31369 0.0
O623 O 0.83086 0.02209 0.30982 0.0
O624 O 0.79192 0.9503 0.3222 0.0
O625 O 0.87021 0.96484 0.32751 0.0
O626 O 0.67719 0.97464 0.31851 0.0
O627 O 0.67653 0.9665 0.33731 0.0
O628 O 0.79627 0.00067 0.34358 0.0
O629 O 0.77781 0.96482 0.34686 0.0
O630 O 0.80092 0.0387 0.33391 0.0
O631 O 0.72691 0.02168 0.3274 0.0
H632 H 1.00906 0.02314 0.31246 0.0
H633 H 0.10009 0.01564 0.31106 0.0
H634 H 0.10249 -0.00501 0.34775 0.0
H635 H 1.01156 0.00212 0.34908 0.0
H636 H 0.58634 0.96442 0.34648 0.0
H637 H 0.49554 0.97248 0.34711 0.0
H638 H 0.49967 -0.00623 0.31051 0.0
H639 H 0.59067 0.98623 0.30998 0.0
Pr640 Pr 0.49152 0.49991 0.57779 0.0
Pr641 Pr 0.60186 0.47519 0.57799 0.0
C642 C 0.39411 0.51365 0.57477 0.0
C643 C 0.34027 0.50598 0.57557 0.0
C644 C 0.31593 0.50295 0.58651 0.0
C645 C 0.2639 0.49799 0.58706 0.0
C646 C 0.23485 0.49596 0.57669 0.0
C647 C 0.25955 0.49846 0.56576 0.0
C648 C 0.31152 0.50349 0.56521 0.0
C649 C 0.54654 0.50108 0.59898 0.0
C650 C 0.49956 0.44129 0.5813 0.0
C651 C 0.69438 0.46264 0.58596 0.0
C652 C 0.74941 0.46641 0.58427 0.0
C653 C 0.77169 0.46783 0.57303 0.0
C654 C 0.82417 0.47141 0.57185 0.0
C655 C 0.85525 0.47378 0.58189 0.0
C656 C 0.83251 0.4723 0.5931 0.0
C657 C 0.7803 0.46867 0.59426 0.0
C658 C 0.57004 0.4798 0.55447 0.0
C659 C 0.58697 0.53281 0.57118 0.0
O660 O 0.42192 0.50476 0.56629 0.0
O661 O 0.41939 0.51697 0.58457 0.0
O662 O 0.54263 0.48355 0.59211 0.0
O663 O 0.52049 0.51909 0.59507 0.0
O664 O 0.54978 0.44211 0.58182 0.0
O665 O 0.47123 0.46015 0.57934 0.0
O666 O 0.66851 0.48053 0.59025 0.0
O667 O 0.66954 0.45039 0.57799 0.0
O668 O 0.54564 0.48618 0.56355 0.0
O669 O 0.61282 0.47011 0.55754 0.0
O670 O 0.53876 0.529 0.56896 0.0
O671 O 0.61661 0.51652 0.57609 0.0
H672 H 0.33681 0.50482 0.59468 0.0
H673 H 0.24635 0.49586 0.59564 0.0
H674 H 0.23842 0.49733 0.55759 0.0
H675 H 0.32901 0.50602 0.55665 0.0
H676 H 0.74861 0.46627 0.56517 0.0
H677 H 0.84025 0.47269 0.56308 0.0
H678 H 0.85517 0.47365 0.60103 0.0
H679 H 0.76396 0.46756 0.60302 0.0
Pr680 Pr 0.79801 0.73406 0.57422 0.0
Pr681 Pr 0.68745 0.75836 0.5743 0.0
C682 C 0.89566 0.71981 0.57243 0.0
C683 C 0.94926 0.72729 0.57126 0.0
C684 C 0.96872 0.74698 0.57739 0.0
C685 C 0.02083 0.75205 0.57709 0.0
C686 C 0.0546 0.7375 0.57071 0.0
C687 C 0.03448 0.71829 0.56429 0.0
C688 C 0.98251 0.71326 0.56458 0.0
C689 C 0.74149 0.73198 0.59521 0.0
C690 C 0.78918 0.79232 0.57742 0.0
C691 C 0.59409 0.77119 0.58171 0.0
C692 C 0.53958 0.76851 0.57902 0.0
C693 C 0.52158 0.74974 0.57204 0.0
C694 C 0.46931 0.74664 0.5703 0.0
C695 C 0.43396 0.76223 0.57552 0.0
C696 C 0.45251 0.78124 0.58233 0.0
C697 C 0.50468 0.78431 0.58406 0.0
C698 C 0.72048 0.75479 0.55081 0.0
C699 C 0.70331 0.70045 0.56808 0.0
O700 O 0.8658 0.72201 0.56327 0.0
O701 O 0.87289 0.72401 0.58247 0.0
O702 O 0.74581 0.74977 0.58853 0.0
O703 O 0.76747 0.7141 0.59118 0.0
O704 O 0.73961 0.79075 0.5792 0.0
O705 O 0.81699 0.77412 0.57405 0.0
O706 O 0.61782 0.75218 0.58547 0.0
O707 O 0.62148 0.78434 0.57458 0.0
O708 O 0.74476 0.74813 0.55985 0.0
O709 O 0.67753 0.76423 0.55391 0.0
O710 O 0.7516 0.70417 0.56587 0.0
O711 O 0.67339 0.71699 0.57269 0.0
H712 H 0.94388 0.75808 0.58263 0.0
H713 H 0.03485 0.76689 0.5822 0.0
H714 H 0.05899 0.70696 0.55909 0.0
H715 H 0.96841 0.69799 0.55979 0.0
H716 H 0.54789 0.73732 0.56806 0.0
H717 H 0.45663 0.732 0.56487 0.0
H718 H 0.42668 0.79342 0.58664 0.0
H719 H 0.51776 0.79881 0.58954 0.0
Pr720 Pr 0.48112 0.7339 0.6916 0.0
Pr721 Pr 0.59254 0.75847 0.69082 0.0
C722 C 0.38399 0.72069 0.69554 0.0
C723 C 0.33011 0.72787 0.6944 0.0
C724 C 0.30939 0.73529 0.68358 0.0
C725 C 0.2574 0.74021 0.68262 0.0
C726 C 0.22496 0.73788 0.69244 0.0
C727 C 0.24619 0.73093 0.70329 0.0
C728 C 0.29805 0.72597 0.70424 0.0
C729 C 0.53383 0.73302 0.67011 0.0
C730 C 0.49027 0.79252 0.68782 0.0
C731 C 0.68446 0.77117 0.68246 0.0
C732 C 0.73954 0.76776 0.68415 0.0
C733 C 0.76032 0.7619 0.69517 0.0
C734 C 0.81285 0.75865 0.6964 0.0
C735 C 0.84554 0.76107 0.68662 0.0
C736 C 0.82423 0.76695 0.67561 0.0
C737 C 0.7719 0.77022 0.67441 0.0
C738 C 0.56239 0.75336 0.71445 0.0
C739 C 0.57746 0.70082 0.69733 0.0
O740 O 0.41163 0.73172 0.70341 0.0
O741 O 0.4091 0.71525 0.68595 0.0
O742 O 0.53132 0.75033 0.67714 0.0
O743 O 0.50689 0.7152 0.67391 0.0
O744 O 0.5405 0.79167 0.68745 0.0
O745 O 0.46149 0.7737 0.68956 0.0
O746 O 0.6589 0.75293 0.67844 0.0
O747 O 0.65969 0.78354 0.6904 0.0
O748 O 0.53744 0.74729 0.70542 0.0
O749 O 0.6052 0.76291 0.71128 0.0
O750 O 0.52955 0.70461 0.69997 0.0
O751 O 0.60659 0.71716 0.69229 0.0
H752 H 0.33318 0.73701 0.67584 0.0
H753 H 0.2426 0.74583 0.67416 0.0
H754 H 0.22248 0.72864 0.71101 0.0
H755 H 0.31299 0.72013 0.71266 0.0
H756 H 0.73597 0.75974 0.70279 0.0
H757 H 0.82775 0.75387 0.70497 0.0
H758 H 0.84806 0.76933 0.66792 0.0
H759 H 0.75663 0.77475 0.66582 0.0
Pr760 Pr 0.80443 0.50106 0.69587 0.0
Pr761 Pr 0.70111 0.4773 0.6964 0.0
C762 C 0.90187 0.51542 0.69845 0.0
C763 C 0.95611 0.50917 0.69684 0.0
C764 C 0.98958 0.5264 0.69243 0.0
C765 C 0.04178 0.52194 0.6918 0.0
C766 C 0.06197 0.50009 0.69561 0.0
C767 C 0.02811 0.48261 0.69979 0.0
C768 C 0.97578 0.48709 0.7004 0.0
C769 C 0.75312 0.50018 0.6741 0.0
C770 C 0.79912 0.4431 0.69241 0.0
C771 C 0.60371 0.46394 0.69266 0.0
C772 C 0.54932 0.46987 0.69437 0.0
C773 C 0.51621 0.45234 0.69866 0.0
C774 C 0.46389 0.4565 0.69928 0.0
C775 C 0.44318 0.47831 0.69557 0.0
C776 C 0.47663 0.49607 0.69151 0.0
C777 C 0.52906 0.49191 0.69092 0.0
C778 C 0.74687 0.47929 0.7187 0.0
C779 C 0.7115 0.53604 0.70052 0.0
O780 O 0.87626 0.50427 0.70664 0.0
O781 O 0.87482 0.52019 0.68908 0.0
O782 O 0.75667 0.483 0.68121 0.0
O783 O 0.77761 0.51858 0.67801 0.0
O784 O 0.75029 0.44507 0.69003 0.0
O785 O 0.82532 0.46112 0.69651 0.0
O786 O 0.63005 0.47679 0.68525 0.0
O787 O 0.63003 0.45695 0.7018 0.0
O788 O 0.74711 0.49602 0.71122 0.0
O789 O 0.72231 0.46098 0.71472 0.0
O790 O 0.75955 0.53275 0.70302 0.0
O791 O 0.68262 0.51849 0.69663 0.0
H792 H 0.97545 0.54363 0.68972 0.0
H793 H 0.06646 0.53596 0.68868 0.0
H794 H 0.04203 0.46545 0.70264 0.0
H795 H 0.95087 0.47343 0.70383 0.0
H796 H 0.53073 0.43512 0.70126 0.0
H797 H 0.43951 0.44227 0.70231 0.0
H798 H 0.46229 0.51321 0.68875 0.0
H799 H 0.55359 0.50581 0.68758 0.0
Pr800 Pr 0.44223 0.50943 0.44559 0.0
Pr801 Pr 0.55243 0.48397 0.44629 0.0
C802 C 0.34954 0.52173 0.43758 0.0
C803 C 0.29421 0.51799 0.43936 0.0
C804 C 0.26732 0.52935 0.44847 0.0
C805 C 0.21455 0.52669 0.44946 0.0
C806 C 0.18736 0.51273 0.44133 0.0
C807 C 0.21456 0.50118 0.43232 0.0
C808 C 0.26713 0.50387 0.43132 0.0
C809 C 0.4731 0.50481 0.46922 0.0
C810 C 0.45578 0.45164 0.4522 0.0
C811 C 0.64972 0.47034 0.44956 0.0
C812 C 0.70336 0.47799 0.44817 0.0
C813 C 0.73464 0.46643 0.43995 0.0
C814 C 0.78626 0.47201 0.43909 0.0
C815 C 0.80812 0.48921 0.44651 0.0
C816 C 0.77664 0.50101 0.45466 0.0
C817 C 0.72489 0.49549 0.45547 0.0
C818 C 0.49822 0.48245 0.42501 0.0
C819 C 0.54543 0.54244 0.44181 0.0
O820 O 0.37564 0.50378 0.43342 0.0
O821 O 0.37477 0.53449 0.44529 0.0
O822 O 0.49746 0.49826 0.46018 0.0
O823 O 0.43072 0.51475 0.46606 0.0
O824 O 0.50359 0.45518 0.45499 0.0
O825 O 0.42742 0.46819 0.44711 0.0
O826 O 0.62224 0.48045 0.45777 0.0
O827 O 0.62399 0.46551 0.43999 0.0
O828 O 0.50221 0.50014 0.43177 0.0
O829 O 0.52426 0.46454 0.42903 0.0
O830 O 0.4952 0.5419 0.44128 0.0
O831 O 0.5733 0.52359 0.44412 0.0
H832 H 0.28685 0.54057 0.45475 0.0
H833 H 0.19494 0.53608 0.45644 0.0
H834 H 0.19526 0.48998 0.426 0.0
H835 H 0.28657 0.49503 0.42414 0.0
H836 H 0.71937 0.45265 0.43431 0.0
H837 H 0.80935 0.46231 0.43283 0.0
H838 H 0.792 0.51454 0.46042 0.0
H839 H 0.702 0.50473 0.46194 0.0
Pr840 Pr 0.34572 0.22659 0.44228 0.0
Pr841 Pr 0.24225 0.2499 0.44129 0.0
C842 C 0.44331 0.21354 0.43863 0.0
C843 C 0.49762 0.21956 0.44038 0.0
C844 C 0.52882 0.20385 0.4467 0.0
C845 C 0.58121 0.20764 0.4474 0.0
C846 C 0.60392 0.2272 0.44174 0.0
C847 C 0.57239 0.2433 0.43567 0.0
C848 C 0.5199 0.23951 0.43499 0.0
C849 C 0.29804 0.22768 0.46438 0.0
C850 C 0.33408 0.28506 0.44708 0.0
C851 C 0.1448 0.26448 0.44333 0.0
C852 C 0.09053 0.25825 0.44185 0.0
C853 C 0.05868 0.27391 0.4357 0.0
C854 C 1.00631 0.26997 0.43521 0.0
C855 C 0.98431 0.25029 0.44093 0.0
C856 C 1.01656 0.2342 0.4468 0.0
C857 C 0.06906 0.23814 0.44726 0.0
C858 C 0.29624 0.24972 0.41986 0.0
C859 C 0.24848 0.19187 0.43819 0.0
O860 O 0.41695 0.22622 0.43115 0.0
O861 O 0.41685 0.20652 0.44774 0.0
O862 O 0.2975 0.2445 0.45695 0.0
O863 O 0.32464 0.20988 0.46053 0.0
O864 O 0.28558 0.2815 0.44893 0.0
O865 O 0.36413 0.26779 0.44334 0.0
O866 O 0.17009 0.25423 0.45185 0.0
O867 O 0.17215 0.26824 0.43388 0.0
O868 O 0.2917 0.23229 0.4268 0.0
O869 O 0.27169 0.26807 0.42382 0.0
O870 O 0.2977 0.19374 0.43626 0.0
O871 O 0.22125 0.21005 0.44171 0.0
H872 H 0.5128 0.18826 0.45089 0.0
H873 H 0.60399 0.19508 0.45232 0.0
H874 H 0.58842 0.25843 0.4311 0.0
H875 H 0.49705 0.25191 0.42998 0.0
H876 H 0.07422 0.28957 0.43147 0.0
H877 H 0.983 0.28251 0.43041 0.0
H878 H 1.00111 0.21894 0.45138 0.0
H879 H 0.09261 0.22575 0.4521 0.0
Pr880 Pr 0.44547 0.22096 0.32379 0.0
Pr881 Pr 0.55539 0.24729 0.32309 0.0
C882 C 0.35226 0.2082 0.33138 0.0
C883 C 0.2974 0.21183 0.32903 0.0
C884 C 0.26388 0.19255 0.32994 0.0
C885 C 0.21144 0.19584 0.32866 0.0
C886 C 0.19107 0.21856 0.32647 0.0
C887 C 0.22501 0.23779 0.32534 0.0
C888 C 0.27748 0.23447 0.32659 0.0
C889 C 0.47654 0.22621 0.30015 0.0
C890 C 0.45733 0.27884 0.3174 0.0
C891 C 0.652 0.26154 0.31917 0.0
C892 C 0.70627 0.25572 0.32094 0.0
C893 C 0.74175 0.27425 0.32134 0.0
C894 C 0.79371 0.26944 0.32221 0.0
C895 C 0.81163 0.2459 0.32272 0.0
C896 C 0.77577 0.22731 0.32259 0.0
C897 C 0.72363 0.23217 0.32167 0.0
C898 C 0.50156 0.24792 0.3445 0.0
C899 C 0.54992 0.18893 0.32822 0.0
O900 O 0.3776 0.22633 0.3356 0.0
O901 O 0.37848 0.19539 0.32387 0.0
O902 O 0.50055 0.23277 0.30923 0.0
O903 O 0.43464 0.21581 0.3033 0.0
O904 O 0.50509 0.27563 0.31444 0.0
O905 O 0.42981 0.2621 0.32258 0.0
O906 O 0.62618 0.24833 0.31181 0.0
O907 O 0.62555 0.26831 0.32834 0.0
O908 O 0.50548 0.23054 0.33754 0.0
O909 O 0.52806 0.2659 0.34071 0.0
O910 O 0.49957 0.18901 0.32844 0.0
O911 O 0.5773 0.20797 0.32592 0.0
H912 H 0.27823 0.17493 0.33182 0.0
H913 H 0.18689 0.1805 0.32938 0.0
H914 H 0.21103 0.2556 0.3238 0.0
H915 H 0.30235 0.24971 0.32587 0.0
H916 H 0.72927 0.29256 0.32081 0.0
H917 H 0.8199 0.28424 0.3225 0.0
H918 H 0.78803 0.20896 0.32288 0.0
H919 H 0.697 0.21754 0.32133 0.0
Pr920 Pr 0.33777 0.50257 0.32813 0.0
Pr921 Pr 0.23451 0.47859 0.3291 0.0
C922 C 0.43519 0.516 0.33177 0.0
C923 C 0.4896 0.51002 0.33006 0.0
C924 C 0.522 0.52684 0.32486 0.0
C925 C 0.57436 0.5228 0.32419 0.0
C926 C 0.59584 0.50182 0.32875 0.0
C927 C 0.56312 0.48473 0.33373 0.0
C928 C 0.51065 0.48876 0.33437 0.0
C929 C 0.29046 0.50079 0.30604 0.0
C930 C 0.32745 0.44388 0.32358 0.0
C931 C 0.13697 0.464 0.32706 0.0
C932 C 0.08275 0.47039 0.3286 0.0
C933 C 0.0498 0.4539 0.33385 0.0
C934 C 0.99759 0.45832 0.33447 0.0
C935 C 0.97683 0.47937 0.32981 0.0
C936 C 1.01014 0.49614 0.32476 0.0
C937 C 0.0625 0.49171 0.32418 0.0
C938 C 0.28776 0.47992 0.35059 0.0
C939 C 0.23952 0.53671 0.33189 0.0
O940 O 0.40885 0.50337 0.33928 0.0
O941 O 0.4088 0.52279 0.32261 0.0
O942 O 0.29047 0.48404 0.31351 0.0
O943 O 0.31593 0.51895 0.30989 0.0
O944 O 0.27882 0.44702 0.32172 0.0
O945 O 0.35692 0.46143 0.32724 0.0
O946 O 0.16231 0.4743 0.31856 0.0
O947 O 0.16434 0.46017 0.33648 0.0
O948 O 0.28298 0.49699 0.34347 0.0
O949 O 0.26368 0.46128 0.34683 0.0
O950 O 0.28856 0.5351 0.33412 0.0
O951 O 0.21324 0.51837 0.32821 0.0
H952 H 0.50693 0.54348 0.32158 0.0
H953 H 0.59818 0.53652 0.32043 0.0
H954 H 0.57806 0.46821 0.33718 0.0
H955 H 0.48676 0.47541 0.33843 0.0
H956 H 0.06434 0.43724 0.33724 0.0
H957 H 0.97331 0.44483 0.33828 0.0
H958 H 0.99576 0.51269 0.32124 0.0
H959 H 0.08697 0.50481 0.32009 0.0
Pr960 Pr 0.47105 -0.00289 0.08102 0.0
Pr961 Pr 0.58175 0.97227 0.08158 0.0
C962 C 0.37433 0.01132 0.07736 0.0
C963 C 0.32013 0.00533 0.07886 0.0
C964 C 0.28444 0.02377 0.07903 0.0
C965 C 0.23254 0.01883 0.07972 0.0
C966 C 0.21496 -0.00475 0.08028 0.0
C967 C 0.251 0.97674 0.08036 0.0
C968 C 0.30312 0.98173 0.07962 0.0
C969 C 0.52536 -0.00112 0.10226 0.0
C970 C 0.47917 0.93857 0.08515 0.0
C971 C 0.67472 0.95971 0.08931 0.0
C972 C 0.72954 0.96304 0.08692 0.0
C973 C 0.76254 0.9436 0.08789 0.0
C974 C 0.81497 0.94655 0.0865 0.0
C975 C 0.83579 0.96911 0.08413 0.0
C976 C 0.80239 0.98851 0.08295 0.0
C977 C 0.74991 0.98552 0.08432 0.0
C978 C 0.55079 0.97666 0.058 0.0
C979 C 0.56736 0.02958 0.07444 0.0
O980 O 0.40052 -0.00105 0.06972 0.0
O981 O 0.40026 0.01706 0.08677 0.0
O982 O 0.52195 0.98118 0.09549 0.0
O983 O 0.49863 0.01661 0.09831 0.0
O984 O 0.52942 0.93937 0.08541 0.0
O985 O 0.45052 0.95743 0.0834 0.0
O986 O 0.64954 0.97808 0.09335 0.0
O987 O 0.64853 0.94669 0.08191 0.0
O988 O 0.52606 0.98318 0.067 0.0
O989 O 0.59321 0.96682 0.06119 0.0
O990 O 0.51934 0.0257 0.07198 0.0
O991 O 0.59648 0.01346 0.07963 0.0
H992 H 0.29674 0.0421 0.07847 0.0
H993 H 0.20614 0.03355 0.07986 0.0
H994 H 0.23891 0.95837 0.0807 0.0
H995 H 0.33001 0.9672 0.07948 0.0
H996 H 0.74776 0.92609 0.08989 0.0
H997 H 0.83917 0.9311 0.08726 0.0
H998 H 0.81681 0.0062 0.08128 0.0
H999 H 0.72538 0.00087 0.08353 0.0
Pr1000 Pr 0.79513 0.22923 0.07218 0.0
Pr1001 Pr 0.6916 0.25299 0.07235 0.0
C1002 C 0.89267 0.21521 0.06924 0.0
C1003 C 0.94684 0.22255 0.06977 0.0
C1004 C 0.97078 0.22805 0.08051 0.0
C1005 C 0.02306 0.23268 0.0809 0.0
C1006 C 0.0528 0.23185 0.07057 0.0
C1007 C 0.02841 0.22686 0.05981 0.0
C1008 C 0.97624 0.22222 0.05944 0.0
C1009 C 0.74599 0.23006 0.09423 0.0
C1010 C 0.79033 0.2871 0.07522 0.0
C1011 C 0.59482 0.26622 0.07702 0.0
C1012 C 0.54021 0.26027 0.07581 0.0
C1013 C 0.51736 0.25633 0.06478 0.0
C1014 C 0.46483 0.25252 0.06395 0.0
C1015 C 0.43393 0.25267 0.0741 0.0
C1016 C 0.45728 0.25616 0.08513 0.0
C1017 C 0.50963 0.25993 0.08595 0.0
C1018 C 0.73483 0.25108 0.04976 0.0
C1019 C 0.70193 0.19403 0.06835 0.0
O1020 O 0.86477 0.22364 0.06068 0.0
O1021 O 0.86758 0.21267 0.07912 0.0
O1022 O 0.74898 0.2473 0.08714 0.0
O1023 O 0.76969 0.21161 0.09012 0.0
O1024 O 0.74225 0.2851 0.07836 0.0
O1025 O 0.81505 0.26911 0.07063 0.0
O1026 O 0.6221 0.25334 0.08421 0.0
O1027 O 0.61992 0.2732 0.06768 0.0
O1028 O 0.73611 0.2344 0.05726 0.0
O1029 O 0.7095 0.26916 0.05378 0.0
O1030 O 0.7499 0.19714 0.06569 0.0
O1031 O 0.6733 0.21175 0.0722 0.0
H1032 H 0.94941 0.2283 0.08867 0.0
H1033 H 0.04038 0.2362 0.08937 0.0
H1034 H 0.04966 0.22645 0.05164 0.0
H1035 H 0.95899 0.2179 0.05104 0.0
H1036 H 0.53986 0.25657 0.05679 0.0
H1037 H 0.44828 0.2501 0.0553 0.0
H1038 H 0.43508 0.25597 0.09317 0.0
H1039 H 0.52621 0.26296 0.09456 0.0
Pr1040 Pr 0.49024 0.23344 0.19151 0.0
Pr1041 Pr 0.60141 0.25736 0.19113 0.0
C1042 C 0.39292 0.22008 0.19503 0.0
C1043 C 0.33913 0.22744 0.19408 0.0
C1044 C 0.31877 0.23665 0.18358 0.0
C1045 C 0.26681 0.24171 0.18274 0.0
C1046 C 0.23411 0.23773 0.19238 0.0
C1047 C 0.25501 0.229 0.20295 0.0
C1048 C 0.30682 0.22389 0.20377 0.0
C1049 C 0.5443 0.23224 0.17016 0.0
C1050 C 0.4999 0.2919 0.18777 0.0
C1051 C 0.69359 0.26998 0.18292 0.0
C1052 C 0.74866 0.26684 0.18461 0.0
C1053 C 0.76922 0.25941 0.19541 0.0
C1054 C 0.8218 0.2563 0.19662 0.0
C1055 C 0.85469 0.26046 0.18702 0.0
C1056 C 0.83358 0.26796 0.17624 0.0
C1057 C 0.78122 0.27108 0.17506 0.0
C1058 C 0.57034 0.2527 0.21472 0.0
C1059 C 0.58506 0.19986 0.19783 0.0
O1060 O 0.42057 0.23017 0.20319 0.0
O1061 O 0.41801 0.21572 0.1853 0.0
O1062 O 0.54138 0.24962 0.17714 0.0
O1063 O 0.5175 0.21441 0.174 0.0
O1064 O 0.55011 0.29075 0.18744 0.0
O1065 O 0.47079 0.27324 0.18963 0.0
O1066 O 0.66836 0.25158 0.17897 0.0
O1067 O 0.66862 0.28241 0.1908 0.0
O1068 O 0.54536 0.24661 0.20569 0.0
O1069 O 0.6133 0.26213 0.21157 0.0
O1070 O 0.53708 0.20404 0.20018 0.0
O1071 O 0.61511 0.21595 0.19287 0.0
H1072 H 0.34281 0.23966 0.17598 0.0
H1073 H 0.25224 0.24872 0.17452 0.0
H1074 H 0.23107 0.22541 0.21051 0.0
H1075 H 0.32154 0.21667 0.21194 0.0
H1076 H 0.74465 0.25588 0.20288 0.0
H1077 H 0.83657 0.25027 0.20501 0.0
H1078 H 0.85759 0.27171 0.16871 0.0
H1079 H 0.76609 0.27684 0.16665 0.0
Pr1080 Pr 0.80379 0.0004 0.19583 0.0
Pr1081 Pr 0.69463 0.97544 0.19659 0.0
C1082 C 0.9018 0.01437 0.19659 0.0
C1083 C 0.95501 0.00647 0.19823 0.0
C1084 C 0.97702 0.98902 0.19098 0.0
C1085 C 0.029 0.98397 0.19174 0.0
C1086 C 0.06022 -0.00377 0.19977 0.0
C1087 C 0.03751 0.01303 0.20731 0.0
C1088 C 0.98566 0.01813 0.20651 0.0
C1089 C 0.74557 0.00095 0.17509 0.0
C1090 C 0.79652 0.94191 0.19408 0.0
C1091 C 0.60047 0.96256 0.18985 0.0
C1092 C 0.54585 0.96634 0.19256 0.0
C1093 C 0.51633 0.94756 0.19698 0.0
C1094 C 0.46399 0.95031 0.1987 0.0
C1095 C 0.4397 0.9719 0.19594 0.0
C1096 C 0.46952 -0.00923 0.19165 0.0
C1097 C 0.52182 0.98804 0.18998 0.0
C1098 C 0.72929 0.97975 0.21986 0.0
C1099 C 0.70945 0.03372 0.20235 0.0
O1100 O 0.8719 0.01497 0.20582 0.0
O1101 O 0.87855 0.00803 0.1869 0.0
O1102 O 0.75134 0.98355 0.18195 0.0
O1103 O 0.77074 0.01932 0.17883 0.0
O1104 O 0.74718 0.94305 0.19196 0.0
O1105 O 0.82322 0.96052 0.19735 0.0
O1106 O 0.6255 0.98037 0.18518 0.0
O1107 O 0.62766 0.94999 0.19728 0.0
O1108 O 0.75288 0.98648 0.21072 0.0
O1109 O 0.68663 0.96978 0.21699 0.0
O1110 O 0.75812 0.03046 0.20419 0.0
O1111 O 0.67955 0.01681 0.1981 0.0
H1112 H 0.95445 0.97971 0.18449 0.0
H1113 H 0.04496 0.97108 0.18571 0.0
H1114 H 0.05991 0.0225 0.21378 0.0
H1115 H 0.96971 0.03167 0.21219 0.0
H1116 H 0.53363 0.93057 0.19897 0.0
H1117 H 0.44258 0.93546 0.20217 0.0
H1118 H 0.4523 0.00754 0.18924 0.0
H1119 H 0.54315 0.00287 0.18645 0.0
Pr1120 Pr 0.44247 0.00314 0.94859 0.0
Pr1121 Pr 0.54654 0.97978 0.94911 0.0
C1122 C 0.34592 0.01595 0.94352 0.0
C1123 C 0.2913 0.00999 0.9448 0.0
C1124 C 0.26645 0.01069 0.95578 0.0
C1125 C 0.21388 0.00706 0.95653 0.0
C1126 C 0.18487 0.00276 0.94632 0.0
C1127 C 0.21015 0.00159 0.9354 0.0
C1128 C 0.26257 0.00521 0.93466 0.0
C1129 C 0.48349 0.00084 0.97135 0.0
C1130 C 0.45372 0.94421 0.95252 0.0
C1131 C 0.64396 0.96597 0.95235 0.0
C1132 C 0.69812 0.97326 0.95155 0.0
C1133 C 0.7242 0.9733 0.94072 0.0
C1134 C 0.77648 0.97781 0.94028 0.0
C1135 C 0.80415 0.98226 0.95067 0.0
C1136 C 0.77773 0.98269 0.96146 0.0
C1137 C 0.72552 0.97818 0.9619 0.0
C1138 C 0.49891 0.98098 0.92691 0.0
C1139 C 0.54088 0.03766 0.94609 0.0
O1140 O 0.37351 0.00252 0.93664 0.0
O1141 O 0.37075 0.02379 0.95272 0.0
O1142 O 0.48615 0.98442 0.96375 0.0
O1143 O 0.45766 0.01879 0.96738 0.0
O1144 O 0.50112 0.94768 0.95558 0.0
O1145 O 0.42518 0.96176 0.94845 0.0
O1146 O 0.61608 0.97536 0.96068 0.0
O1147 O 0.61878 0.96229 0.94259 0.0
O1148 O 0.50143 -0.00196 0.93409 0.0
O1149 O 0.52257 0.96249 0.93099 0.0
O1150 O 0.49311 0.03544 0.94277 0.0
O1151 O 0.56569 0.01975 0.95074 0.0
H1152 H 0.28738 0.01449 0.96377 0.0
H1153 H 0.19578 0.00832 0.96508 0.0
H1154 H 0.1894 -0.00207 0.92737 0.0
H1155 H 0.28059 0.00469 0.92607 0.0
H1156 H 0.70453 0.9693 0.93258 0.0
H1157 H 0.79548 0.97703 0.93182 0.0
H1158 H 0.79744 0.9864 0.96963 0.0
H1159 H 0.70675 0.97807 0.9704 0.0
Pr1160 Pr 0.35774 0.71814 0.94265 0.0
Pr1161 Pr 0.2377 0.74127 0.94411 0.0
C1162 C 0.44922 0.705 0.9343 0.0
C1163 C 0.50387 0.70799 0.93647 0.0
C1164 C 0.52186 0.72376 0.94507 0.0
C1165 C 0.57414 0.7271 0.94659 0.0
C1166 C 0.6093 0.71472 0.93952 0.0
C1167 C 0.59077 0.69878 0.93099 0.0
C1168 C 0.53862 0.69548 0.92949 0.0
C1169 C 0.32342 0.7225 0.96606 0.0
C1170 C 0.3376 0.776 0.94803 0.0
C1171 C 0.14546 0.75432 0.95195 0.0
C1172 C 0.0909 0.75112 0.94974 0.0
C1173 C 0.07321 0.73495 0.94128 0.0
C1174 C 0.02098 0.73145 0.93975 0.0
C1175 C 0.98558 0.74406 0.94666 0.0
C1176 C 1.00384 0.76035 0.95505 0.0
C1177 C 0.05592 0.76383 0.95656 0.0
C1178 C 0.2795 0.73902 0.92108 0.0
C1179 C 0.2538 0.68399 0.93846 0.0
O1180 O 0.42476 0.72383 0.93059 0.0
O1181 O 0.42347 0.69223 0.94192 0.0
O1182 O 0.29966 0.72781 0.95674 0.0
O1183 O 0.36784 0.71406 0.96325 0.0
O1184 O 0.28892 0.77224 0.9501 0.0
O1185 O 0.3696 0.75943 0.94423 0.0
O1186 O 0.16999 0.73572 0.95596 0.0
O1187 O 0.17137 0.76685 0.94425 0.0
O1188 O 0.29715 0.73224 0.93073 0.0
O1189 O 0.23421 0.7475 0.92301 0.0
O1190 O 0.30394 0.68608 0.9375 0.0
O1191 O 0.22318 0.70131 0.94173 0.0
H1192 H 0.4955 0.7336 0.95054 0.0
H1193 H 0.58699 0.73929 0.95333 0.0
H1194 H 0.61654 0.68923 0.92527 0.0
H1195 H 0.52538 0.68336 0.92274 0.0
H1196 H 0.09975 0.72494 0.93595 0.0
H1197 H 1.00835 0.71897 0.93312 0.0
H1198 H 0.97791 0.77008 0.96066 0.0
H1199 H 0.06893 0.77624 0.9632 0.0
Pr1200 Pr 0.42787 0.72396 0.82285 0.0
Pr1201 Pr 0.53753 0.7462 0.82435 0.0
C1202 C 0.33343 0.71037 0.82907 0.0
C1203 C 0.27944 0.71278 0.82583 0.0
C1204 C 0.2611 0.73315 0.82009 0.0
C1205 C 0.20901 0.73594 0.81805 0.0
C1206 C 0.17418 0.71839 0.82167 0.0
C1207 C 0.19308 0.69774 0.82714 0.0
C1208 C 0.2451 0.69501 0.8292 0.0
C1209 C 0.46175 0.72997 0.79958 0.0
C1210 C 0.44739 0.78257 0.81915 0.0
C1211 C 0.63699 0.75759 0.82496 0.0
C1212 C 0.68974 0.75128 0.8217 0.0
C1213 C 0.71126 0.72933 0.82488 0.0
C1214 C 0.76334 0.72526 0.82338 0.0
C1215 C 0.79507 0.74304 0.81867 0.0
C1216 C 0.7728 0.76453 0.81498 0.0
C1217 C 0.72085 0.7686 0.81652 0.0
C1218 C 0.48011 0.74543 0.84533 0.0
C1219 C 0.52686 0.68883 0.82283 0.0
O1220 O 0.35582 0.7294 0.83321 0.0
O1221 O 0.36263 0.69756 0.82221 0.0
O1222 O 0.48682 0.73536 0.80873 0.0
O1223 O 0.41818 0.7209 0.80242 0.0
O1224 O 0.49566 0.77856 0.81711 0.0
O1225 O 0.41602 0.76569 0.82284 0.0
O1226 O 0.60625 0.76556 0.81679 0.0
O1227 O 0.61434 0.74465 0.83299 0.0
O1228 O 0.48378 0.72875 0.83797 0.0
O1229 O 0.50751 0.7634 0.84205 0.0
O1230 O 0.47953 0.69062 0.82663 0.0
O1231 O 0.55187 0.70739 0.81892 0.0
H1232 H 0.28695 0.74709 0.81739 0.0
H1233 H 0.19599 0.7519 0.81366 0.0
H1234 H 0.16754 0.68399 0.83019 0.0
H1235 H 0.25842 0.67922 0.8337 0.0
H1236 H 0.68827 0.71561 0.82893 0.0
H1237 H 0.779 0.70856 0.82639 0.0
H1238 H 0.79569 0.77845 0.81109 0.0
H1239 H 0.70527 0.78568 0.81401 0.0
Pr1240 Pr 0.34709 0.00766 0.83099 0.0
Pr1241 Pr 0.23584 0.98378 0.83095 0.0
C1242 C 0.43996 0.02043 0.8386 0.0
C1243 C 0.49481 0.01688 0.83645 0.0
C1244 C 0.52759 0.03648 0.83684 0.0
C1245 C 0.5801 0.03342 0.83577 0.0
C1246 C 0.60105 0.01061 0.83434 0.0
C1247 C 0.56795 -0.00898 0.8337 0.0
C1248 C 0.5154 -0.00588 0.83472 0.0
C1249 C 0.31537 0.00225 0.80749 0.0
C1250 C 0.33054 0.95033 0.82448 0.0
C1251 C 0.13884 0.97007 0.82746 0.0
C1252 C 0.08497 0.97563 0.82973 0.0
C1253 C 0.05031 0.95688 0.83078 0.0
C1254 C 0.99845 0.9614 0.83205 0.0
C1255 C 0.97993 0.98484 0.83233 0.0
C1256 C 1.01501 0.00367 0.83147 0.0
C1257 C 0.06705 -0.00089 0.8302 0.0
C1258 C 0.2902 0.98315 0.85224 0.0
C1259 C 0.24561 0.04232 0.83444 0.0
O1260 O 0.41444 0.00242 0.84292 0.0
O1261 O 0.4143 0.03296 0.83088 0.0
O1262 O 0.29077 -0.00353 0.81664 0.0
O1263 O 0.35852 0.01167 0.81046 0.0
O1264 O 0.283 0.95492 0.82185 0.0
O1265 O 0.36038 0.96618 0.82965 0.0
O1266 O 0.16369 0.98401 0.82024 0.0
O1267 O 0.16633 0.96239 0.83628 0.0
O1268 O 0.2872 0.0003 0.84512 0.0
O1269 O 0.26276 0.96536 0.84864 0.0
O1270 O 0.29586 0.04122 0.83434 0.0
O1271 O 0.21629 0.02354 0.83316 0.0
H1272 H 0.51263 0.05418 0.83824 0.0
H1273 H 0.60436 0.04887 0.83643 0.0
H1274 H 0.58267 0.97325 0.83243 0.0
H1275 H 0.49099 0.97866 0.83432 0.0
H1276 H 0.06328 0.93864 0.83035 0.0
H1277 H 0.97273 0.94643 0.8325 0.0
H1278 H 1.00228 0.02194 0.8318 0.0
H1279 H 0.09313 0.01389 0.82942 0.0
H1280 H 0.89042 0.42993 0.08997 0.0
H1281 H 0.89121 0.29382 0.07157 0.0
H1282 H 0.02543 0.39139 0.08006 0.0
H1283 H 0.75724 0.33 0.0842 0.0
H1284 H 0.94098 0.32897 0.07556 0.0
H1285 H 0.84218 0.39314 0.08925 0.0
C1286 C 0.9101 0.41364 0.08774 0.0
C1287 C 0.96199 0.41375 0.0849 0.0
C1288 C 0.90077 0.3293 0.0775 0.0
C1289 C 0.90662 0.37157 0.08399 0.0
C1290 C 0.87201 0.30921 0.07516 0.0
C1291 C 0.81961 0.30898 0.07747 0.0
C1292 C 0.8772 0.34952 0.08212 0.0
C1293 C 0.79738 0.32945 0.08222 0.0
C1294 C 0.88241 0.39264 0.08735 0.0
C1295 C 0.98552 0.39211 0.08227 0.0
N1296 N 0.82632 0.349 0.08434 0.0
N1297 N 0.95746 0.37189 0.08174 0.0
H1298 H 0.37912 0.93147 0.09005 0.0
H1299 H 0.39088 0.79375 0.07475 0.0
H1300 H 0.51796 0.89357 0.0827 0.0
H1301 H 0.25162 0.83011 0.08362 0.0
H1302 H 0.43779 0.82984 0.07855 0.0
H1303 H 0.33251 0.89426 0.08907 0.0
C1304 C 0.39996 0.91527 0.08833 0.0
C1305 C 0.45255 0.91566 0.0863 0.0
C1306 C 0.39701 0.83 0.07969 0.0
C1307 C 0.39907 0.87298 0.0851 0.0
C1308 C 0.36991 0.80936 0.07746 0.0
C1309 C 0.3169 0.80887 0.07879 0.0
C1310 C 0.37117 0.85051 0.08323 0.0
C1311 C 0.29233 0.82971 0.08241 0.0
C1312 C 0.37319 0.89402 0.08777 0.0
C1313 C 0.47749 0.89409 0.08428 0.0
N1314 N 0.31972 0.84976 0.08447 0.0
N1315 N 0.45038 0.87362 0.08361 0.0
H1316 H 0.8984 0.93537 0.19617 0.0
H1317 H 0.89003 0.79686 0.18265 0.0
H1318 H 0.76027 0.89775 0.1877 0.0
H1319 H 0.02771 0.83555 0.19014 0.0
H1320 H 0.84283 0.83392 0.18303 0.0
H1321 H 0.9463 0.89934 0.19293 0.0
C1322 C 0.87789 0.91949 0.19366 0.0
C1323 C 0.8249 0.91959 0.1923 0.0
C1324 C 0.88339 0.83437 0.18449 0.0
C1325 C 0.8803 0.87805 0.18849 0.0
C1326 C 0.91051 0.81321 0.18429 0.0
C1327 C 0.96292 0.81309 0.18653 0.0
C1328 C 0.90873 0.85562 0.18701 0.0
C1329 C 0.98738 0.83482 0.18841 0.0
C1330 C 0.90556 0.89889 0.19175 0.0
C1331 C 0.80094 0.89846 0.18892 0.0
N1332 N 0.95992 0.85523 0.18873 0.0
N1333 N 0.82888 0.87845 0.18717 0.0
H1334 H 0.26478 0.39817 0.18521 0.0
H1335 H 0.53884 0.33707 0.18967 0.0
H1336 H 0.40175 0.43489 0.19541 0.0
H1337 H 0.40056 0.29872 0.18235 0.0
H1338 H 0.49046 0.37421 0.18936 0.0
H1339 H 0.31516 0.36212 0.18202 0.0
C1340 C 0.30527 0.39866 0.18677 0.0
C1341 C 0.32888 0.41949 0.1907 0.0
C1342 C 0.47086 0.35763 0.18774 0.0
C1343 C 0.38666 0.3786 0.187 0.0
C1344 C 0.49854 0.33649 0.18787 0.0
C1345 C 0.47361 0.31479 0.18622 0.0
C1346 C 0.41806 0.35696 0.18594 0.0
C1347 C 0.42126 0.31503 0.18388 0.0
C1348 C 0.33405 0.37815 0.18493 0.0
C1349 C 0.38164 0.4192 0.1925 0.0
N1350 N 0.39519 0.33575 0.1839 0.0
N1351 N 0.40863 0.3991 0.19067 0.0
H1352 H 1.01729 0.57924 0.9345 0.0
H1353 H 0.29173 0.63898 0.94165 0.0
H1354 H 0.14758 0.54443 0.94984 0.0
H1355 H 0.15842 0.67713 0.93032 0.0
H1356 H 0.24214 0.60212 0.94155 0.0
H1357 H 0.07057 0.61407 0.93045 0.0
C1358 C 0.05685 0.57894 0.93704 0.0
C1359 C 0.07775 0.55898 0.9426 0.0
C1360 C 0.22395 0.61855 0.93895 0.0
C1361 C 0.13893 0.59837 0.93785 0.0
C1362 C 0.25241 0.63949 0.93891 0.0
C1363 C 0.22887 0.66107 0.93619 0.0
C1364 C 0.17187 0.61937 0.93622 0.0
C1365 C 0.17774 0.66084 0.93271 0.0
C1366 C 0.08733 0.59871 0.93467 0.0
C1367 C 0.12949 0.55944 0.94561 0.0
N1368 N 0.15079 0.64037 0.93295 0.0
N1369 N 0.15816 0.57878 0.94321 0.0
H1370 H 0.64048 0.18031 0.93037 0.0
H1371 H 0.64095 0.04517 0.95047 0.0
H1372 H 0.7757 0.14195 0.94028 0.0
H1373 H 0.50798 0.08004 0.93647 0.0
H1374 H 0.69055 0.08031 0.94628 0.0
H1375 H 0.59209 0.1436 0.93158 0.0
C1376 C 0.66018 0.16408 0.93269 0.0
C1377 C 0.7122 0.16422 0.93538 0.0
C1378 C 0.6506 0.08034 0.94408 0.0
C1379 C 0.65666 0.12215 0.93686 0.0
C1380 C 0.62192 0.06027 0.94654 0.0
C1381 C 0.56988 0.05966 0.94389 0.0
C1382 C 0.62727 0.10017 0.93899 0.0
C1383 C 0.54784 0.07979 0.93873 0.0
C1384 C 0.6324 0.14312 0.93337 0.0
C1385 C 0.73571 0.14265 0.93816 0.0
N1386 N 0.57668 0.09933 0.93649 0.0
N1387 N 0.70758 0.12249 0.93897 0.0
H1388 H 1.01141 0.14924 0.83524 0.0
H1389 H 0.28445 0.08709 0.83096 0.0
H1390 H 0.14677 0.18387 0.82232 0.0
H1391 H 0.14699 0.04993 0.84041 0.0
H1392 H 0.23612 0.1242 0.83021 0.0
H1393 H 0.06185 0.11352 0.83917 0.0
C1394 C 0.05155 0.14933 0.83321 0.0
C1395 C 0.07471 0.1695 0.82836 0.0
C1396 C 0.21669 0.10791 0.83254 0.0
C1397 C 0.1326 0.12899 0.83294 0.0
C1398 C 0.24436 0.08679 0.83304 0.0
C1399 C 0.21961 0.06538 0.83558 0.0
C1400 C 0.16407 0.10753 0.83463 0.0
C1401 C 0.16752 0.06599 0.83821 0.0
C1402 C 0.08037 0.12901 0.83549 0.0
C1403 C 0.12702 0.16871 0.82598 0.0
N1404 N 0.14142 0.08668 0.83758 0.0
N1405 N 0.1541 0.14881 0.82828 0.0
H1406 H 0.62122 0.68001 0.81422 0.0
H1407 H 0.64151 0.54879 0.8392 0.0
H1408 H 0.5004 0.64723 0.83422 0.0
H1409 H 0.77037 0.58882 0.82673 0.0
H1410 H 0.58891 0.5842 0.83751 0.0
H1411 H 0.67456 0.6459 0.81807 0.0
C1412 C 0.60558 0.66553 0.81937 0.0
C1413 C 0.55603 0.66655 0.82394 0.0
C1414 C 0.62877 0.58537 0.83529 0.0
C1415 C 0.61777 0.62729 0.82844 0.0
C1416 C 0.6589 0.5652 0.83626 0.0
C1417 C 0.71027 0.56593 0.833 0.0
C1418 C 0.64999 0.60636 0.83086 0.0
C1419 C 0.73098 0.58759 0.82935 0.0
C1420 C 0.63644 0.6461 0.82163 0.0
C1421 C 0.53818 0.64715 0.83048 0.0
N1422 N 0.7005 0.60694 0.82822 0.0
N1423 N 0.56914 0.62825 0.83255 0.0
H1424 H 0.02338 0.8983 0.58498 0.0
H1425 H 0.74956 0.83647 0.58246 0.0
H1426 H 0.88182 0.93687 0.58526 0.0
H1427 H 0.89137 0.79916 0.57776 0.0
H1428 H 0.79746 0.87312 0.58591 0.0
H1429 H 0.97537 0.86101 0.58502 0.0
C1430 C 0.98234 0.89891 0.58518 0.0
C1431 C 0.95659 0.92065 0.58494 0.0
C1432 C 0.81794 0.85684 0.58415 0.0
C1433 C 0.90157 0.87833 0.58493 0.0
C1434 C 0.7906 0.83596 0.58217 0.0
C1435 C 0.81634 0.81478 0.57968 0.0
C1436 C 0.87127 0.8564 0.5837 0.0
C1437 C 0.86968 0.8151 0.5795 0.0
C1438 C 0.95493 0.87768 0.58515 0.0
C1439 C 0.9033 0.92049 0.58524 0.0
N1440 N 0.89528 0.83556 0.58144 0.0
N1441 N 0.87758 0.89967 0.58514 0.0
H1442 H 0.26132 0.33664 0.58161 0.0
H1443 H 0.53784 0.39573 0.5811 0.0
H1444 H 0.40105 0.29696 0.57863 0.0
H1445 H 0.39843 0.43529 0.58498 0.0
H1446 H 0.4886 0.35884 0.58172 0.0
H1447 H 0.31125 0.37295 0.58423 0.0
C1448 C 0.30231 0.33553 0.58154 0.0
C1449 C 0.32686 0.31376 0.57977 0.0
C1450 C 0.46894 0.37564 0.58251 0.0
C1451 C 0.38416 0.35505 0.58276 0.0
C1452 C 0.49709 0.39666 0.58219 0.0
C1453 C 0.47226 0.41861 0.58282 0.0
C1454 C 0.41574 0.37669 0.58347 0.0
C1455 C 0.41927 0.41879 0.58427 0.0
C1456 C 0.33084 0.35622 0.58305 0.0
C1457 C 0.38023 0.31334 0.57983 0.0
N1458 N 0.39282 0.39819 0.58445 0.0
N1459 N 0.40698 0.33366 0.58124 0.0
H1460 H 0.88643 0.297 0.68365 0.0
H1461 H 0.90133 0.43666 0.69274 0.0
H1462 H 0.02739 0.33559 0.68648 0.0
H1463 H 0.76103 0.39912 0.68651 0.0
H1464 H 0.94803 0.40019 0.68938 0.0
H1465 H 0.84046 0.33438 0.68335 0.0
C1466 C 0.90783 0.3134 0.68413 0.0
C1467 C 0.96087 0.31321 0.68526 0.0
C1468 C 0.90708 0.39989 0.68869 0.0
C1469 C 0.90814 0.35614 0.68496 0.0
C1470 C 0.88018 0.42071 0.69067 0.0
C1471 C 0.82695 0.42089 0.69005 0.0
C1472 C 0.88073 0.37893 0.68613 0.0
C1473 C 0.80195 0.39974 0.68716 0.0
C1474 C 0.88144 0.33475 0.68393 0.0
C1475 C 0.98652 0.33496 0.68566 0.0
N1476 N 0.8291 0.37952 0.68539 0.0
N1477 N 0.95979 0.35561 0.68565 0.0
H1478 H 0.52758 0.83745 0.69146 0.0
H1479 H 0.25253 0.89766 0.68755 0.0
H1480 H 0.39164 0.79941 0.6818 0.0
H1481 H 0.38621 0.93231 0.70132 0.0
H1482 H 0.30405 0.86234 0.68348 0.0
H1483 H 0.47773 0.87407 0.69256 0.0
C1484 C 0.48751 0.83688 0.6894 0.0
C1485 C 0.46358 0.81537 0.68672 0.0
C1486 C 0.32191 0.87774 0.68739 0.0
C1487 C 0.40632 0.85689 0.68809 0.0
C1488 C 0.29246 0.89781 0.68977 0.0
C1489 C 0.31489 0.91793 0.69483 0.0
C1490 C 0.37402 0.87794 0.69005 0.0
C1491 C 0.367 0.91723 0.69745 0.0
C1492 C 0.45896 0.8577 0.69011 0.0
C1493 C 0.41148 0.81558 0.68411 0.0
N1494 N 0.39469 0.89761 0.69502 0.0
N1495 N 0.38451 0.83598 0.68496 0.0
H1496 H 1.01379 0.0854 0.43715 0.0
H1497 H 0.28827 0.14674 0.43739 0.0
H1498 H 0.15345 0.04858 0.44506 0.0
H1499 H 0.14728 0.18552 0.4353 0.0
H1500 H 0.24001 0.10951 0.437 0.0
H1501 H 0.06296 0.12165 0.43351 0.0
C1502 C 0.05464 0.08492 0.4381 0.0
C1503 C 0.0794 0.06405 0.44156 0.0
C1504 C 0.21978 0.12622 0.43654 0.0
C1505 C 0.13574 0.10515 0.43733 0.0
C1506 C 0.24734 0.1474 0.43671 0.0
C1507 C 0.22171 0.16917 0.43657 0.0
C1508 C 0.16644 0.12696 0.43616 0.0
C1509 C 0.16857 0.1691 0.43564 0.0
C1510 C 0.08269 0.10555 0.43601 0.0
C1511 C 0.13254 0.06434 0.44257 0.0
N1512 N 0.1427 0.14833 0.43555 0.0
N1513 N 0.15885 0.08456 0.4405 0.0
H1514 H 0.78481 0.6465 0.43606 0.0
H1515 H 0.50814 0.58808 0.44111 0.0
H1516 H 0.6467 0.68592 0.44228 0.0
H1517 H 0.64655 0.54756 0.43774 0.0
H1518 H 0.55793 0.62462 0.43934 0.0
H1519 H 0.73416 0.61004 0.43467 0.0
C1520 C 0.74405 0.64751 0.43711 0.0
C1521 C 0.72017 0.66923 0.43943 0.0
C1522 C 0.57727 0.60768 0.43893 0.0
C1523 C 0.66216 0.62789 0.43777 0.0
C1524 C 0.5488 0.58686 0.43991 0.0
C1525 C 0.57321 0.56479 0.43975 0.0
C1526 C 0.63035 0.60631 0.43776 0.0
C1527 C 0.62609 0.56421 0.43811 0.0
C1528 C 0.71513 0.62675 0.4363 0.0
C1529 C 0.66707 0.66957 0.44063 0.0
N1530 N 0.65288 0.58465 0.43726 0.0
N1531 N 0.63999 0.64924 0.43983 0.0
H1532 H 0.13736 0.54245 0.33271 0.0
H1533 H 0.15029 0.68352 0.33359 0.0
H1534 H 0.27756 0.58187 0.33499 0.0
H1535 H 1.01091 0.64379 0.33021 0.0
H1536 H 0.19647 0.64662 0.33616 0.0
H1537 H 0.09025 0.57933 0.33389 0.0
C1538 C 0.15839 0.55891 0.33349 0.0
C1539 C 0.21167 0.55912 0.33357 0.0
C1540 C 0.15579 0.64593 0.33492 0.0
C1541 C 0.15746 0.60154 0.33494 0.0
C1542 C 0.12924 0.66701 0.3334 0.0
C1543 C 0.07658 0.66673 0.33148 0.0
C1544 C 0.12967 0.62431 0.3345 0.0
C1545 C 0.05146 0.64483 0.33158 0.0
C1546 C 0.13127 0.57998 0.3342 0.0
C1547 C 0.23657 0.58093 0.33481 0.0
N1548 N 0.07837 0.62443 0.33295 0.0
N1549 N 0.20918 0.60137 0.33534 0.0
H1550 H 0.64993 0.04415 0.33242 0.0
H1551 H 0.65038 0.18529 0.33339 0.0
H1552 H 0.78695 0.08604 0.33419 0.0
H1553 H 0.51519 0.14282 0.32914 0.0
H1554 H 0.6998 0.14934 0.33601 0.0
H1555 H 0.59991 0.08009 0.33358 0.0
C1556 C 0.66967 0.06097 0.33307 0.0
C1557 C 0.72291 0.06214 0.33301 0.0
C1558 C 0.65934 0.14784 0.33456 0.0
C1559 C 0.66522 0.10354 0.33437 0.0
C1560 C 0.63092 0.16837 0.33302 0.0
C1561 C 0.5785 0.16704 0.33083 0.0
C1562 C 0.63535 0.12573 0.33391 0.0
C1563 C 0.55547 0.14465 0.33072 0.0
C1564 C 0.64085 0.08152 0.33377 0.0
C1565 C 0.74606 0.08439 0.33412 0.0
N1566 N 0.5842 0.12481 0.33213 0.0
N1567 N 0.71696 0.10433 0.33464 0.0
H1568 H 0.0814 0.45858 0.11165 0.0
H1569 H 0.22584 0.53677 0.16025 0.0
H1570 H 0.06195 0.53433 0.1147 0.0
H1571 H 0.20928 0.46082 0.16302 0.0
H1572 H 0.17262 0.53631 0.14252 0.0
H1573 H 0.13484 0.45908 0.12934 0.0
C1574 C 0.08835 0.47534 0.11605 0.0
C1575 C 0.06701 0.49645 0.11169 0.0
C1576 C 0.18062 0.51973 0.14699 0.0
C1577 C 0.12863 0.49718 0.13196 0.0
C1578 C 0.21118 0.51997 0.1571 0.0
C1579 C 0.22216 0.49879 0.16313 0.0
C1580 C 0.16123 0.4981 0.14275 0.0
C1581 C 0.20186 0.47756 0.15865 0.0
C1582 C 0.11881 0.4756 0.12617 0.0
C1583 C 0.07744 0.51763 0.11776 0.0
N1584 N 0.17263 0.47774 0.14873 0.0
N1585 N 0.10762 0.51748 0.12753 0.0
H1586 H 0.19671 0.76609 0.1062 0.0
H1587 H 0.05942 0.69148 0.15732 0.0
H1588 H 0.21589 0.6905 0.11023 0.0
H1589 H 0.08133 0.76723 0.15926 0.0
H1590 H 0.10952 0.69067 0.13907 0.0
H1591 H 0.14705 0.76682 0.12451 0.0
C1592 C 0.19043 0.74963 0.11093 0.0
C1593 C 0.21069 0.7282 0.10668 0.0
C1594 C 0.10343 0.70747 0.14349 0.0
C1595 C 0.15339 0.72888 0.12765 0.0
C1596 C 0.07471 0.70796 0.15389 0.0
C1597 C 0.06609 0.72946 0.15983 0.0
C1598 C 0.12321 0.72871 0.13884 0.0
C1599 C 0.08701 0.75025 0.15498 0.0
C1600 C 0.16218 0.75007 0.1214 0.0
C1601 C 0.20119 0.70742 0.11319 0.0
N1602 N 0.11428 0.74938 0.14476 0.0
N1603 N 0.17311 0.70825 0.12329 0.0
H1604 H 0.83543 0.52423 0.86179 0.0
H1605 H 0.97652 0.44472 0.91057 0.0
H1606 H 0.81808 0.4483 0.86451 0.0
H1607 H 0.9586 0.52043 0.91429 0.0
H1608 H 0.92561 0.44611 0.89253 0.0
H1609 H 0.88728 0.52369 0.87983 0.0
C1610 C 0.8425 0.50746 0.86617 0.0
C1611 C 0.82215 0.48628 0.86165 0.0
C1612 C 0.93277 0.46245 0.89727 0.0
C1613 C 0.88193 0.48549 0.88223 0.0
C1614 C 0.96203 0.46168 0.90756 0.0
C1615 C 0.97195 0.48249 0.91397 0.0
C1616 C 0.91353 0.48426 0.89319 0.0
C1617 C 0.95193 0.50394 0.90964 0.0
C1618 C 0.87203 0.50716 0.87648 0.0
C1619 C 0.83272 0.46507 0.86769 0.0
N1620 N 0.9239 0.5043 0.89952 0.0
N1621 N 0.86193 0.46521 0.8776 0.0
H1622 H 0.97703 0.28609 0.85902 0.0
H1623 H 0.83345 0.20826 0.90805 0.0
H1624 H 0.95823 0.21029 0.85604 0.0
H1625 H 0.81523 0.28407 0.90491 0.0
H1626 H 0.88622 0.20852 0.8902 0.0
H1627 H 0.92507 0.28561 0.87696 0.0
C1628 C 0.96216 0.26931 0.86217 0.0
C1629 C 0.97212 0.24819 0.85602 0.0
C1630 C 0.87062 0.22509 0.89339 0.0
C1631 C 0.9126 0.24748 0.87665 0.0
C1632 C 0.84057 0.22497 0.9036 0.0
C1633 C 0.81971 0.24617 0.90797 0.0
C1634 C 0.88055 0.24663 0.88754 0.0
C1635 C 0.83032 0.2673 0.90184 0.0
C1636 C 0.93231 0.26906 0.8724 0.0
C1637 C 0.95158 0.22699 0.8605 0.0
N1638 N 0.8601 0.26701 0.892 0.0
N1639 N 0.92304 0.22716 0.87055 0.0
H1640 H 0.07364 0.96176 0.61321 0.0
H1641 H 0.21025 0.03773 0.66382 0.0
H1642 H 0.0539 0.03735 0.61705 0.0
H1643 H 0.1914 0.96184 0.66615 0.0
H1644 H 0.15921 0.03788 0.64575 0.0
H1645 H 0.12298 0.96126 0.63159 0.0
C1646 C 0.07963 0.97825 0.61793 0.0
C1647 C 0.05941 -0.00038 0.6136 0.0
C1648 C 0.16613 0.02118 0.65021 0.0
C1649 C 0.11638 -0.00077 0.63459 0.0
C1650 C 0.19539 0.02108 0.66052 0.0
C1651 C 0.20522 -0.00026 0.66651 0.0
C1652 C 0.14695 -0.00028 0.64571 0.0
C1653 C 0.18479 0.9787 0.66183 0.0
C1654 C 0.10772 0.97794 0.62843 0.0
C1655 C 0.06854 0.02045 0.62007 0.0
N1656 N 0.15695 0.9792 0.65169 0.0
N1657 N 0.09649 0.01975 0.63018 0.0
H1658 H 0.22547 0.19405 0.60862 0.0
H1659 H 0.08172 0.27097 0.65794 0.0
H1660 H 0.2069 0.26993 0.60605 0.0
H1661 H 0.06339 0.19521 0.65456 0.0
H1662 H 0.13403 0.271 0.64001 0.0
H1663 H 0.1727 0.19409 0.62647 0.0
C1664 C 0.2104 0.21073 0.61183 0.0
C1665 C 0.22068 0.23202 0.60583 0.0
C1666 C 0.11847 0.25437 0.64317 0.0
C1667 C 0.1604 0.23224 0.62634 0.0
C1668 C 0.08866 0.25434 0.65342 0.0
C1669 C 0.06793 0.23306 0.65774 0.0
C1670 C 0.12833 0.23292 0.63724 0.0
C1671 C 0.07837 0.21204 0.65153 0.0
C1672 C 0.18012 0.21074 0.622 0.0
C1673 C 0.19995 0.2531 0.61039 0.0
N1674 N 0.10794 0.21248 0.64165 0.0
N1675 N 0.17108 0.2527 0.62037 0.0
H1676 H 0.98359 0.9464 0.41182 0.0
H1677 H 0.84437 0.02239 0.36145 0.0
H1678 H 0.96355 0.0222 0.4143 0.0
H1679 H 0.82821 0.94655 0.36503 0.0
H1680 H 0.89477 0.023 0.37968 0.0
H1681 H 0.93376 0.94636 0.3936 0.0
C1682 C 0.96886 0.96307 0.40851 0.0
C1683 C 0.97786 0.98434 0.41461 0.0
C1684 C 0.8801 0.00623 0.37649 0.0
C1685 C 0.92075 0.98446 0.39363 0.0
C1686 C 0.85139 0.00587 0.36607 0.0
C1687 C 0.83182 0.98439 0.36173 0.0
C1688 C 0.88997 0.98491 0.38255 0.0
C1689 C 0.8423 0.96353 0.36807 0.0
C1690 C 0.94023 0.96303 0.39811 0.0
C1691 C 0.95758 0.00539 0.40989 0.0
N1692 N 0.87073 0.9643 0.3781 0.0
N1693 N 0.93021 0.00495 0.39968 0.0
H1694 H 0.95888 0.71089 0.35643 0.0
H1695 H 0.82784 0.78911 0.40702 0.0
H1696 H 0.984 0.7862 0.35993 0.0
H1697 H 0.84309 0.71305 0.40942 0.0
H1698 H 0.87837 0.7886 0.38883 0.0
H1699 H 0.90952 0.71145 0.37478 0.0
C1700 C 0.954 0.72756 0.36106 0.0
C1701 C 0.97578 0.74853 0.35665 0.0
C1702 C 0.87076 0.77202 0.39334 0.0
C1703 C 0.91886 0.74933 0.37766 0.0
C1704 C 0.8418 0.7723 0.40372 0.0
C1705 C 0.83113 0.75109 0.40975 0.0
C1706 C 0.8887 0.75032 0.38884 0.0
C1707 C 0.85037 0.72982 0.40507 0.0
C1708 C 0.92591 0.72785 0.37156 0.0
C1709 C 0.96809 0.7696 0.36302 0.0
N1710 N 0.87788 0.72996 0.39487 0.0
N1711 N 0.94013 0.76949 0.37315 0.0
H1712 H 0.57282 0.53916 0.61275 0.0
H1713 H 0.70905 0.46191 0.6631 0.0
H1714 H 0.59105 0.46326 0.61025 0.0
H1715 H 0.7288 0.53759 0.65971 0.0
H1716 H 0.65954 0.46193 0.64475 0.0
H1717 H 0.62357 0.53893 0.63088 0.0
C1718 C 0.58744 0.52243 0.61602 0.0
C1719 C 0.57758 0.5012 0.60996 0.0
C1720 C 0.67482 0.47853 0.648 0.0
C1721 C 0.63553 0.50075 0.63083 0.0
C1722 C 0.70303 0.47853 0.65849 0.0
C1723 C 0.72333 0.49977 0.66294 0.0
C1724 C 0.66611 0.49998 0.64196 0.0
C1725 C 0.71412 0.52078 0.65659 0.0
C1726 C 0.61655 0.52231 0.62637 0.0
C1727 C 0.59769 0.48006 0.61463 0.0
N1728 N 0.68607 0.52038 0.64649 0.0
N1729 N 0.62539 0.48035 0.62479 0.0
H1730 H 0.71512 0.69357 0.60883 0.0
H1731 H 0.58036 0.77071 0.65931 0.0
H1732 H 0.69693 0.76952 0.60656 0.0
H1733 H 0.55739 0.69525 0.65581 0.0
H1734 H 0.6304 0.77041 0.64108 0.0
H1735 H 0.66437 0.69355 0.62701 0.0
C1736 C 0.7005 0.71024 0.61216 0.0
C1737 C 0.71036 0.73158 0.60617 0.0
C1738 C 0.61434 0.75392 0.64427 0.0
C1739 C 0.65258 0.73173 0.62705 0.0
C1740 C 0.58586 0.75406 0.6547 0.0
C1741 C 0.56448 0.73298 0.65908 0.0
C1742 C 0.62218 0.73247 0.63819 0.0
C1743 C 0.57298 0.71193 0.65273 0.0
C1744 C 0.67142 0.71021 0.62253 0.0
C1745 C 0.69029 0.75265 0.61089 0.0
N1746 N 0.6013 0.71218 0.64265 0.0
N1747 N 0.66269 0.75221 0.62106 0.0
H1748 H 0.33132 0.51875 0.36115 0.0
H1749 H 0.47155 0.44382 0.41173 0.0
H1750 H 0.31385 0.44306 0.36516 0.0
H1751 H 0.45298 0.51979 0.4135 0.0
H1752 H 0.41986 0.44321 0.39376 0.0
H1753 H 0.38184 0.5196 0.37934 0.0
C1754 C 0.33806 0.50231 0.36587 0.0
C1755 C 0.31813 0.48081 0.36164 0.0
C1756 C 0.427 0.46002 0.39808 0.0
C1757 C 0.37645 0.4816 0.38243 0.0
C1758 C 0.45666 0.46039 0.40832 0.0
C1759 C 0.46668 0.48189 0.41413 0.0
C1760 C 0.40762 0.48136 0.39346 0.0
C1761 C 0.44621 0.5028 0.40932 0.0
C1762 C 0.36684 0.50281 0.37626 0.0
C1763 C 0.32825 0.46005 0.36811 0.0
N1764 N 0.41794 0.50204 0.39925 0.0
N1765 N 0.35682 0.46094 0.37812 0.0
H1766 H 0.32161 0.28748 0.40585 0.0
H1767 H 0.45611 0.20994 0.35541 0.0
H1768 H 0.33932 0.21156 0.40847 0.0
H1769 H 0.47664 0.28558 0.35871 0.0
H1770 H 0.40626 0.21009 0.37372 0.0
H1771 H 0.37126 0.28708 0.38756 0.0
C1772 C 0.33583 0.2707 0.40256 0.0
C1773 C 0.32617 0.24951 0.40871 0.0
C1774 C 0.42172 0.22665 0.37045 0.0
C1775 C 0.38297 0.2489 0.38766 0.0
C1776 C 0.4501 0.22659 0.35998 0.0
C1777 C 0.47077 0.24778 0.35553 0.0
C1778 C 0.41328 0.24811 0.37648 0.0
C1779 C 0.46163 0.26882 0.36183 0.0
C1780 C 0.36434 0.2705 0.39212 0.0
C1781 C 0.3458 0.22831 0.40402 0.0
N1782 N 0.43347 0.26847 0.37193 0.0
N1783 N 0.37298 0.22852 0.39377 0.0
H1784 H 0.70069 0.96251 0.16467 0.0
H1785 H 0.55131 0.03761 0.11561 0.0
H1786 H 0.71553 0.03844 0.16122 0.0
H1787 H 0.57294 0.96187 0.11342 0.0
H1788 H 0.60483 0.0384 0.13332 0.0
H1789 H 0.64723 0.962 0.147 0.0
C1790 C 0.69268 0.9791 0.16019 0.0
C1791 C 0.7128 0.00055 0.16441 0.0
C1792 C 0.5979 0.02161 0.12896 0.0
C1793 C 0.65115 0.00012 0.14417 0.0
C1794 C 0.56723 0.02114 0.11887 0.0
C1795 C 0.55758 -0.00036 0.11302 0.0
C1796 C 0.61866 0.00037 0.13336 0.0
C1797 C 0.57936 0.97884 0.11764 0.0
C1798 C 0.66222 0.97878 0.15008 0.0
C1799 C 0.70101 0.02149 0.15825 0.0
N1800 N 0.60861 0.97971 0.12754 0.0
N1801 N 0.67086 0.02077 0.14849 0.0
H1802 H 0.72135 0.19233 0.10835 0.0
H1803 H 0.59053 0.26998 0.15925 0.0
H1804 H 0.704 0.26828 0.1058 0.0
H1805 H 0.56747 0.19453 0.15577 0.0
H1806 H 0.63965 0.26973 0.14084 0.0
H1807 H 0.67262 0.19277 0.12678 0.0
C1808 C 0.70745 0.20913 0.11169 0.0
C1809 C 0.71691 0.23031 0.10551 0.0
C1810 C 0.62379 0.25323 0.14409 0.0
C1811 C 0.66116 0.23097 0.12673 0.0
C1812 C 0.59583 0.25335 0.15462 0.0
C1813 C 0.57465 0.23225 0.15906 0.0
C1814 C 0.63134 0.2318 0.13798 0.0
C1815 C 0.5829 0.21123 0.15267 0.0
C1816 C 0.67944 0.20936 0.12221 0.0
C1817 C 0.69767 0.25153 0.11027 0.0
N1818 N 0.61069 0.21151 0.14251 0.0
N1819 N 0.67101 0.25134 0.12059 0.0
H1820 H 0.3376 0.02094 0.86276 0.0
H1821 H 0.47362 0.94329 0.91288 0.0
H1822 H 0.31442 0.94554 0.86656 0.0
H1823 H 0.45597 0.0192 0.91557 0.0
H1824 H 0.42315 0.94377 0.89473 0.0
H1825 H 0.38865 0.0207 0.88086 0.0
C1826 C 0.34327 0.00432 0.8674 0.0
C1827 C 0.32152 0.98323 0.86315 0.0
C1828 C 0.43031 0.96034 0.89928 0.0
C1829 C 0.38041 0.98279 0.88385 0.0
C1830 C 0.45932 0.96009 0.90962 0.0
C1831 C 0.46916 0.98125 0.91575 0.0
C1832 C 0.41141 0.98195 0.89489 0.0
C1833 C 0.44936 0.00247 0.91113 0.0
C1834 C 0.37233 0.00421 0.87775 0.0
C1835 C 0.33026 0.96222 0.86953 0.0
N1836 N 0.4217 0.00231 0.90096 0.0
N1837 N 0.35914 0.96251 0.8795 0.0
H1838 H 0.48434 0.77591 0.86405 0.0
H1839 H 0.24655 0.72555 0.89914 0.0
H1840 H 0.40804 0.71267 0.85209 0.0
H1841 H 0.3758 0.75468 0.91722 0.0
H1842 H 0.29522 0.72646 0.88053 0.0
H1843 H 0.43531 0.77416 0.88245 0.0
C1844 C 0.45707 0.76173 0.86526 0.0
C1845 C 0.45016 0.74447 0.85647 0.0
C1846 C 0.31289 0.73254 0.8886 0.0
C1847 C 0.39316 0.74267 0.87744 0.0
C1848 C 0.28514 0.73213 0.89917 0.0
C1849 C 0.30759 0.7397 0.90974 0.0
C1850 C 0.36279 0.74135 0.88854 0.0
C1851 C 0.3576 0.74817 0.90931 0.0
C1852 C 0.42922 0.76072 0.87577 0.0
C1853 C 0.41434 0.72644 0.85857 0.0
N1854 N 0.38334 0.749 0.89889 0.0
N1855 N 0.3868 0.72614 0.86878 0.0
H1856 H 0.25747 0.6542 0.06419 0.0
H1857 H 0.02129 0.56697 0.06667 0.0
H1858 H 0.10447 0.67831 0.07084 0.0
H1859 H 0.17429 0.54419 0.07434 0.0
H1860 H 0.05175 0.60736 0.06412 0.0
H1861 H 0.2271 0.61345 0.0638 0.0
C1862 C 0.21733 0.651 0.06545 0.0
C1863 C 0.1834 0.66974 0.06764 0.0
C1864 C 0.07863 0.5935 0.06631 0.0
C1865 C 0.14877 0.62304 0.06717 0.0
C1866 C 0.06145 0.57037 0.06773 0.0
C1867 C 0.09536 0.55214 0.07081 0.0
C1868 C 0.13014 0.59845 0.06786 0.0
C1869 C 0.14685 0.55772 0.07204 0.0
C1870 C 0.20022 0.62768 0.06528 0.0
C1871 C 0.13194 0.66441 0.0692 0.0
N1872 N 0.16275 0.58048 0.07057 0.0
N1873 N 0.11613 0.64146 0.06895 0.0
H1874 H 0.02444 0.65971 0.20453 0.0
H1875 H 0.26485 0.57489 0.20509 0.0
H1876 H 0.17646 0.6841 0.19697 0.0
H1877 H 0.11288 0.54916 0.19874 0.0
H1878 H 0.23228 0.61517 0.20609 0.0
H1879 H 0.05647 0.61933 0.20638 0.0
C1880 C 0.06468 0.65664 0.20337 0.0
C1881 C 0.09791 0.67528 0.20051 0.0
C1882 C 0.20608 0.6007 0.20452 0.0
C1883 C 0.13441 0.62915 0.20264 0.0
C1884 C 0.22448 0.57765 0.20399 0.0
C1885 C 0.19145 0.55862 0.20174 0.0
C1886 C 0.15425 0.60477 0.20291 0.0
C1887 C 0.13963 0.56335 0.20041 0.0
C1888 C 0.08274 0.63356 0.20437 0.0
C1889 C 0.14954 0.67022 0.1991 0.0
N1890 N 0.12251 0.58606 0.201 0.0
N1891 N 0.16627 0.64754 0.20017 0.0
H1892 H 0.77377 0.31796 0.9523 0.0
H1893 H 1.0134 0.40315 0.95454 0.0
H1894 H 0.92618 0.29388 0.94495 0.0
H1895 H 0.86121 0.42893 0.94854 0.0
H1896 H 0.98148 0.36268 0.95452 0.0
H1897 H 0.80547 0.35827 0.95443 0.0
C1898 C 0.81403 0.32107 0.95122 0.0
C1899 C 0.84746 0.3025 0.94838 0.0
C1900 C 0.9551 0.37719 0.95325 0.0
C1901 C 0.88365 0.34868 0.95083 0.0
C1902 C 0.97312 0.40035 0.9533 0.0
C1903 C 0.93982 0.41948 0.95149 0.0
C1904 C 0.90335 0.37309 0.95148 0.0
C1905 C 0.88815 0.41469 0.94992 0.0
C1906 C 0.83193 0.34415 0.95239 0.0
C1907 C 0.89911 0.30768 0.94708 0.0
N1908 N 0.87141 0.39187 0.94995 0.0
N1909 N 0.9157 0.33037 0.94832 0.0
H1910 H 0.92773 0.43668 0.82458 0.0
H1911 H 0.85971 0.29898 0.82234 0.0
H1912 H 0.7753 0.40992 0.82018 0.0
H1913 H 1.01031 0.32594 0.81547 0.0
H1914 H 0.82823 0.33979 0.82279 0.0
H1915 H 0.95975 0.39601 0.82251 0.0
C1916 C 0.90111 0.42232 0.82314 0.0
C1917 C 0.84887 0.42666 0.82256 0.0
C1918 C 0.86811 0.3367 0.8211 0.0
C1919 C 0.8849 0.38042 0.82029 0.0
C1920 C 0.88603 0.31344 0.82085 0.0
C1921 C 0.93761 0.30909 0.81888 0.0
C1922 C 0.90219 0.35563 0.81951 0.0
C1923 C 0.97016 0.32848 0.81701 0.0
C1924 C 0.91934 0.39918 0.82193 0.0
C1925 C 0.81594 0.40744 0.82068 0.0
N1926 N 0.95195 0.35095 0.81746 0.0
N1927 N 0.8345 0.38515 0.81968 0.0
H1928 H 1.01715 0.07685 0.57115 0.0
H1929 H 0.25857 0.15977 0.56305 0.0
H1930 H 0.17056 0.05092 0.57485 0.0
H1931 H 0.1091 0.18629 0.57149 0.0
H1932 H 0.22565 0.11936 0.56373 0.0
H1933 H 0.04983 0.11655 0.56782 0.0
C1934 C 0.05784 0.07946 0.57122 0.0
C1935 C 0.09129 0.06053 0.57333 0.0
C1936 C 0.20011 0.13406 0.56536 0.0
C1937 C 0.12874 0.10608 0.56949 0.0
C1938 C 0.21867 0.15715 0.5649 0.0
C1939 C 0.1865 0.17645 0.56731 0.0
C1940 C 0.149 0.13027 0.56812 0.0
C1941 C 0.13526 0.17194 0.56966 0.0
C1942 C 0.07636 0.10219 0.56934 0.0
C1943 C 0.14352 0.06505 0.57333 0.0
N1944 N 0.11808 0.14925 0.57004 0.0
N1945 N 0.16077 0.08748 0.57143 0.0
H1946 H 1.01739 0.15804 0.70146 0.0
H1947 H 0.25454 0.0724 0.70893 0.0
H1948 H 0.17188 0.18185 0.69664 0.0
H1949 H 0.10257 0.04758 0.70174 0.0
H1950 H 0.22395 0.11317 0.70824 0.0
H1951 H 0.04805 0.1182 0.70521 0.0
C1952 C 0.05792 0.15495 0.70123 0.0
C1953 C 0.09223 0.17333 0.69866 0.0
C1954 C 0.19735 0.09877 0.70689 0.0
C1955 C 0.12735 0.12755 0.70298 0.0
C1956 C 0.21458 0.07546 0.70735 0.0
C1957 C 0.18103 0.05653 0.70527 0.0
C1958 C 0.14619 0.10314 0.70447 0.0
C1959 C 0.12977 0.06163 0.7033 0.0
C1960 C 0.07527 0.13212 0.70336 0.0
C1961 C 0.14419 0.16816 0.69851 0.0
N1962 N 0.11392 0.08452 0.7029 0.0
N1963 N 0.16028 0.14562 0.70064 0.0
H1964 H 0.77985 0.82294 0.45397 0.0
H1965 H 0.01841 0.90864 0.4572 0.0
H1966 H 0.93334 0.7988 0.44796 0.0
H1967 H 0.86671 0.93351 0.44977 0.0
H1968 H 0.98694 0.86807 0.45768 0.0
H1969 H 0.81115 0.86321 0.45633 0.0
C1970 C 0.82026 0.82603 0.45323 0.0
C1971 C 0.8541 0.80746 0.45066 0.0
C1972 C 0.96057 0.88242 0.456 0.0
C1973 C 0.88984 0.85361 0.45338 0.0
C1974 C 0.97833 0.90562 0.45577 0.0
C1975 C 0.94505 0.9245 0.45337 0.0
C1976 C 0.90914 0.87807 0.45393 0.0
C1977 C 0.89364 0.91947 0.45158 0.0
C1978 C 0.83794 0.84908 0.45454 0.0
C1979 C 0.90595 0.81261 0.44984 0.0
N1980 N 0.87717 0.89664 0.45189 0.0
N1981 N 0.92231 0.83531 0.45118 0.0
H1982 H 0.86387 0.79568 0.32194 0.0
H1983 H 0.94011 0.93222 0.32391 0.0
H1984 H 1.015 0.82018 0.31357 0.0
H1985 H 0.78605 0.90719 0.32006 0.0
H1986 H 0.96991 0.8912 0.32131 0.0
H1987 H 0.83522 0.83689 0.32233 0.0
C1988 C 0.89087 0.8097 0.32007 0.0
C1989 C 0.94182 0.80453 0.31775 0.0
C1990 C 0.92964 0.89488 0.32096 0.0
C1991 C 0.90965 0.85157 0.31835 0.0
C1992 C 0.9127 0.91819 0.32249 0.0
C1993 C 0.86064 0.92311 0.32222 0.0
C1994 C 0.89407 0.87657 0.31932 0.0
C1995 C 0.82661 0.9043 0.32032 0.0
C1996 C 0.87456 0.83319 0.32029 0.0
C1997 C 0.97528 0.82337 0.31538 0.0
N1998 N 0.84392 0.88188 0.31902 0.0
N1999 N 0.9587 0.84613 0.31586 0.0
H2000 H 0.68517 0.54902 0.57256 0.0
H2001 H 0.60517 0.68441 0.56958 0.0
H2002 H 0.5323 0.57158 0.56459 0.0
H2003 H 0.75867 0.66092 0.56302 0.0
H2004 H 0.57722 0.64298 0.56878 0.0
H2005 H 0.71351 0.59021 0.57013 0.0
C2006 C 0.65773 0.56254 0.57022 0.0
C2007 C 0.60635 0.55688 0.56886 0.0
C2008 C 0.61692 0.64702 0.56739 0.0
C2009 C 0.63816 0.60375 0.5662 0.0
C2010 C 0.63284 0.67062 0.56787 0.0
C2011 C 0.68427 0.67612 0.56644 0.0
C2012 C 0.65288 0.62893 0.56567 0.0
C2013 C 0.71859 0.65754 0.56421 0.0
C2014 C 0.67387 0.58597 0.56881 0.0
C2015 C 0.57232 0.57508 0.56578 0.0
N2016 N 0.70236 0.63474 0.56404 0.0
N2017 N 0.58876 0.59774 0.56469 0.0
H2018 H 0.76432 0.57646 0.70512 0.0
H2019 H 0.52381 0.66117 0.70318 0.0
H2020 H 0.61259 0.5507 0.69851 0.0
H2021 H 0.6762 0.68569 0.69615 0.0
H2022 H 0.55591 0.62091 0.7053 0.0
H2023 H 0.73186 0.61685 0.70569 0.0
C2024 C 0.72404 0.57925 0.70388 0.0
C2025 C 0.69103 0.56019 0.70169 0.0
C2026 C 0.58227 0.63513 0.70334 0.0
C2027 C 0.65397 0.6064 0.70235 0.0
C2028 C 0.56414 0.65816 0.70217 0.0
C2029 C 0.59746 0.67682 0.69941 0.0
C2030 C 0.63409 0.63076 0.70185 0.0
C2031 C 0.64921 0.6718 0.6982 0.0
C2032 C 0.7057 0.60234 0.70416 0.0
C2033 C 0.63932 0.56491 0.70016 0.0
N2034 N 0.66602 0.64915 0.69943 0.0
N2035 N 0.62229 0.58765 0.7005 0.0
H2036 H 0.35781 0.4365 0.44949 0.0
H2037 H 0.43328 0.30021 0.44721 0.0
H2038 H 0.5086 0.41158 0.45783 0.0
H2039 H 0.27914 0.3247 0.45173 0.0
H2040 H 0.4628 0.34112 0.4501 0.0
H2041 H 0.32833 0.39537 0.44947 0.0
C2042 C 0.38455 0.42243 0.45144 0.0
C2043 C 0.43571 0.42745 0.45359 0.0
C2044 C 0.42257 0.33737 0.45055 0.0
C2045 C 0.40259 0.38054 0.45342 0.0
C2046 C 0.40578 0.31411 0.44885 0.0
C2047 C 0.35379 0.30909 0.44919 0.0
C2048 C 0.38694 0.35556 0.45242 0.0
C2049 C 0.31965 0.32772 0.45138 0.0
C2050 C 0.36776 0.39899 0.45143 0.0
C2051 C 0.46878 0.40854 0.45609 0.0
N2052 N 0.33682 0.35015 0.45282 0.0
N2053 N 0.45175 0.38586 0.4558 0.0
H2054 H 0.35863 0.29282 0.32002 0.0
H2055 H 0.42735 0.42987 0.3232 0.0
H2056 H 0.5085 0.31959 0.31215 0.0
H2057 H 0.27439 0.40366 0.31899 0.0
H2058 H 0.45895 0.3894 0.32001 0.0
H2059 H 0.32711 0.33357 0.3203 0.0
C2060 C 0.38475 0.30723 0.31823 0.0
C2061 C 0.43624 0.30284 0.31614 0.0
C2062 C 0.41851 0.39267 0.31971 0.0
C2063 C 0.40077 0.34936 0.31661 0.0
C2064 C 0.40053 0.41567 0.32158 0.0
C2065 C 0.34827 0.42008 0.32141 0.0
C2066 C 0.38381 0.37411 0.31781 0.0
C2067 C 0.31505 0.4011 0.31922 0.0
C2068 C 0.36679 0.33046 0.31839 0.0
C2069 C 0.46846 0.32217 0.31383 0.0
N2070 N 0.33339 0.37893 0.31759 0.0
N2071 N 0.45029 0.34465 0.31427 0.0
H2072 H 0.51389 0.06886 0.06796 0.0
H2073 H 0.75456 0.15328 0.06429 0.0
H2074 H 0.66622 0.04471 0.07531 0.0
H2075 H 0.60302 0.17953 0.0707 0.0
H2076 H 0.72203 0.11288 0.06446 0.0
H2077 H 0.54613 0.10892 0.06513 0.0
C2078 C 0.55424 0.0719 0.06889 0.0
C2079 C 0.58749 0.05341 0.07195 0.0
C2080 C 0.69593 0.1275 0.06578 0.0
C2081 C 0.62429 0.09926 0.06869 0.0
C2082 C 0.7143 0.1506 0.06563 0.0
C2083 C 0.68138 0.16982 0.06755 0.0
C2084 C 0.64423 0.12357 0.06775 0.0
C2085 C 0.62969 0.16521 0.06925 0.0
C2086 C 0.57245 0.09483 0.06732 0.0
C2087 C 0.63928 0.05848 0.07304 0.0
N2088 N 0.61262 0.14246 0.06932 0.0
N2089 N 0.65617 0.08102 0.0714 0.0
H2090 H 0.52891 0.16114 0.20382 0.0
H2091 H 0.76337 0.07331 0.2082 0.0
H2092 H 0.68326 0.18344 0.19729 0.0
H2093 H 0.61143 0.04963 0.20006 0.0
H2094 H 0.73329 0.11409 0.20854 0.0
H2095 H 0.5584 0.12068 0.20666 0.0
C2096 C 0.56915 0.15761 0.20307 0.0
C2097 C 0.60377 0.17573 0.20023 0.0
C2098 C 0.70656 0.09994 0.20675 0.0
C2099 C 0.63742 0.12935 0.20352 0.0
C2100 C 0.7235 0.0766 0.2066 0.0
C2101 C 0.68985 0.05798 0.20396 0.0
C2102 C 0.65556 0.10472 0.20439 0.0
C2103 C 0.63869 0.06343 0.20204 0.0
C2104 C 0.58578 0.13445 0.20465 0.0
C2105 C 0.65532 0.16999 0.19938 0.0
N2106 N 0.62306 0.0864 0.20225 0.0
N2107 N 0.67067 0.14719 0.20102 0.0
H2108 H 0.43593 0.79211 0.94872 0.0
H2109 H 0.35672 0.92857 0.94833 0.0
H2110 H 0.28028 0.81579 0.95091 0.0
H2111 H 0.50657 0.90415 0.95787 0.0
H2112 H 0.32807 0.88719 0.94797 0.0
H2113 H 0.46352 0.83344 0.95069 0.0
C2114 C 0.40764 0.80593 0.94965 0.0
C2115 C 0.35582 0.80049 0.94966 0.0
C2116 C 0.36712 0.89101 0.95023 0.0
C2117 C 0.3869 0.84757 0.95182 0.0
C2118 C 0.38342 0.91457 0.95043 0.0
C2119 C 0.43404 0.9198 0.9531 0.0
C2120 C 0.40192 0.87269 0.95257 0.0
C2121 C 0.46714 0.90098 0.95575 0.0
C2122 C 0.42335 0.82947 0.95081 0.0
C2123 C 0.3207 0.8191 0.95091 0.0
N2124 N 0.45059 0.87825 0.95532 0.0
N2125 N 0.33689 0.84183 0.95186 0.0
H2126 H 0.50547 0.82206 0.81589 0.0
H2127 H 0.2745 0.91236 0.81738 0.0
H2128 H 0.34995 0.79967 0.82054 0.0
H2129 H 0.42757 0.93281 0.82643 0.0
H2130 H 0.30275 0.87164 0.81484 0.0
H2131 H 0.47783 0.86324 0.81605 0.0
C2132 C 0.46537 0.82575 0.81684 0.0
C2133 C 0.42988 0.80734 0.81827 0.0
C2134 C 0.33014 0.88505 0.81735 0.0
C2135 C 0.39834 0.85454 0.81844 0.0
C2136 C 0.31423 0.90838 0.81876 0.0
C2137 C 0.34879 0.92606 0.82219 0.0
C2138 C 0.38106 0.87934 0.81927 0.0
C2139 C 0.39967 0.91972 0.82384 0.0
C2140 C 0.4498 0.8493 0.81699 0.0
C2141 C 0.37856 0.81329 0.81947 0.0
N2142 N 0.41435 0.89678 0.82236 0.0
N2143 N 0.36427 0.83646 0.81954 0.0
H2144 H 0.65979 0.50484 0.09691 0.0
H2145 H 0.40845 0.45241 0.06665 0.0
H2146 H 0.66031 0.46795 0.06357 0.0
H2147 H 0.40878 0.49117 0.09947 0.0
H2148 H 0.50042 0.45772 0.06533 0.0
H2149 H 0.56812 0.49916 0.09815 0.0
C2150 C 0.64079 0.49535 0.08989 0.0
C2151 C 0.66815 0.48685 0.08012 0.0
C2152 C 0.48035 0.46507 0.07282 0.0
C2153 C 0.56245 0.48054 0.08141 0.0
C2154 C 0.42769 0.46218 0.07355 0.0
C2155 C 0.40051 0.47129 0.08321 0.0
C2156 C 0.50631 0.4772 0.08181 0.0
C2157 C 0.42795 0.48348 0.09195 0.0
C2158 C 0.58824 0.49226 0.09056 0.0
C2159 C 0.64094 0.47507 0.0712 0.0
N2160 N 0.47912 0.48606 0.09104 0.0
N2161 N 0.58976 0.47227 0.07207 0.0
H2162 H 0.62399 0.72972 0.05351 0.0
H2163 H 0.86145 0.7637 0.09438 0.0
H2164 H 0.61147 0.74749 0.09041 0.0
H2165 H 0.87577 0.74497 0.05764 0.0
H2166 H 0.76979 0.75861 0.09291 0.0
H2167 H 0.7157 0.73583 0.05469 0.0
C2168 C 0.64041 0.73487 0.06188 0.0
C2169 C 0.60958 0.73804 0.07188 0.0
C2170 C 0.79288 0.75564 0.08515 0.0
C2171 C 0.71509 0.74523 0.07327 0.0
C2172 C 0.84538 0.75868 0.08596 0.0
C2173 C 0.87674 0.7549 0.0761 0.0
C2174 C 0.77105 0.74874 0.07439 0.0
C2175 C 0.8534 0.7479 0.06551 0.0
C2176 C 0.69288 0.73845 0.06252 0.0
C2177 C 0.6333 0.74511 0.08242 0.0
N2178 N 0.80211 0.7451 0.06493 0.0
N2179 N 0.68444 0.74838 0.08283 0.0
H2180 H 0.67463 0.76971 0.18111 0.0
H2181 H 0.39893 0.72672 0.2024 0.0
H2182 H 0.64894 0.70863 0.20334 0.0
H2183 H 0.4226 0.78428 0.17782 0.0
H2184 H 0.49057 0.72088 0.2034 0.0
H2185 H 0.58296 0.77665 0.18055 0.0
C2186 C 0.64984 0.75782 0.18592 0.0
C2187 C 0.66981 0.73846 0.19223 0.0
C2188 C 0.47575 0.73482 0.1978 0.0
C2189 C 0.56443 0.74625 0.19156 0.0
C2190 C 0.42324 0.7381 0.19716 0.0
C2191 C 0.40254 0.75601 0.18998 0.0
C2192 C 0.50827 0.74955 0.19123 0.0
C2193 C 0.43649 0.77045 0.18361 0.0
C2194 C 0.5974 0.76172 0.18554 0.0
C2195 C 0.63548 0.72354 0.19819 0.0
N2196 N 0.48747 0.76688 0.18437 0.0
N2197 N 0.58471 0.72775 0.19771 0.0
H2198 H 0.88744 0.50121 0.21087 0.0
H2199 H 0.61945 0.47187 0.18057 0.0
H2200 H 0.87151 0.45932 0.17923 0.0
H2201 H 0.63518 0.51437 0.21201 0.0
H2202 H 0.71154 0.46695 0.18 0.0
H2203 H 0.79522 0.50574 0.21161 0.0
C2204 C 0.86466 0.49286 0.2041 0.0
C2205 C 0.88767 0.47989 0.19495 0.0
C2206 C 0.69486 0.47733 0.18704 0.0
C2207 C 0.78154 0.48521 0.19571 0.0
C2208 C 0.64215 0.48026 0.18734 0.0
C2209 C 0.61911 0.49357 0.19636 0.0
C2210 C 0.72516 0.48779 0.19581 0.0
C2211 C 0.65085 0.50367 0.20498 0.0
C2212 C 0.8119 0.49557 0.2045 0.0
C2213 C 0.85585 0.46979 0.18635 0.0
N2214 N 0.70204 0.50061 0.20447 0.0
N2215 N 0.80464 0.47264 0.18695 0.0
H2216 H 0.6361 0.46207 0.93987 0.0
H2217 H 0.36541 0.52064 0.95428 0.0
H2218 H 0.61834 0.53282 0.95388 0.0
H2219 H 0.38441 0.44969 0.9406 0.0
H2220 H 0.45764 0.5254 0.95439 0.0
H2221 H 0.54403 0.45732 0.94013 0.0
C2222 C 0.61294 0.47666 0.94297 0.0
C2223 C 0.6354 0.49792 0.94684 0.0
C2224 C 0.44162 0.5088 0.95135 0.0
C2225 C 0.52928 0.49247 0.94724 0.0
C2226 C 0.38883 0.50601 0.95134 0.0
C2227 C 0.36668 0.48473 0.9474 0.0
C2228 C 0.47284 0.49018 0.94741 0.0
C2229 C 0.39937 0.46657 0.94354 0.0
C2230 C 0.56023 0.47388 0.94317 0.0
C2231 C 0.60307 0.516 0.95095 0.0
N2232 N 0.45055 0.46971 0.94365 0.0
N2233 N 0.55182 0.51289 0.95101 0.0
H2234 H 0.42457 0.20575 0.93048 0.0
H2235 H 0.14888 0.25307 0.94933 0.0
H2236 H 0.39893 0.27089 0.94959 0.0
H2237 H 0.17239 0.19099 0.92769 0.0
H2238 H 0.24055 0.25888 0.95015 0.0
H2239 H 0.33286 0.19881 0.9302 0.0
C2240 C 0.39979 0.21854 0.93467 0.0
C2241 C 0.41979 0.23903 0.94001 0.0
C2242 C 0.22569 0.24395 0.94523 0.0
C2243 C 0.31437 0.23124 0.93966 0.0
C2244 C 0.17316 0.24067 0.9447 0.0
C2245 C 0.15239 0.22152 0.93839 0.0
C2246 C 0.25818 0.22796 0.93944 0.0
C2247 C 0.18632 0.20584 0.93279 0.0
C2248 C 0.34733 0.21463 0.93445 0.0
C2249 C 0.38547 0.25506 0.94519 0.0
N2250 N 0.23733 0.20943 0.93343 0.0
N2251 N 0.33468 0.25083 0.94488 0.0
H2252 H 0.62369 0.20816 0.80888 0.0
H2253 H 0.37628 0.26708 0.83804 0.0
H2254 H 0.62847 0.25478 0.83905 0.0
H2255 H 0.37143 0.22161 0.80745 0.0
H2256 H 0.46835 0.26231 0.8387 0.0
H2257 H 0.53162 0.21301 0.80814 0.0
C2258 C 0.60558 0.21959 0.8153 0.0
C2259 C 0.63431 0.23106 0.82404 0.0
C2260 C 0.44718 0.25334 0.83184 0.0
C2261 C 0.52815 0.23643 0.82334 0.0
C2262 C 0.3944 0.25591 0.83151 0.0
C2263 C 0.36564 0.24472 0.82268 0.0
C2264 C 0.47182 0.23942 0.8233 0.0
C2265 C 0.3918 0.23084 0.81434 0.0
C2266 C 0.5528 0.22221 0.81492 0.0
C2267 C 0.60815 0.24529 0.83223 0.0
N2268 N 0.44319 0.22859 0.81486 0.0
N2269 N 0.55677 0.24755 0.83168 0.0
H2270 H 0.14895 0.46619 0.83068 0.0
H2271 H 0.42352 0.52807 0.82914 0.0
H2272 H 0.17132 0.54194 0.82803 0.0
H2273 H 0.40095 0.45224 0.83097 0.0
H2274 H 0.33151 0.53351 0.82877 0.0
H2275 H 0.24097 0.46081 0.83108 0.0
C2276 C 0.17306 0.48173 0.83023 0.0
C2277 C 0.15188 0.50458 0.8293 0.0
C2278 C 0.34668 0.51568 0.82927 0.0
C2279 C 0.25798 0.49846 0.82965 0.0
C2280 C 0.39939 0.51253 0.82942 0.0
C2281 C 0.42053 0.48963 0.83011 0.0
C2282 C 0.31443 0.49581 0.82981 0.0
C2283 C 0.38681 0.47026 0.83063 0.0
C2284 C 0.22576 0.47861 0.83039 0.0
C2285 C 0.18553 0.52394 0.82858 0.0
N2286 N 0.33571 0.47379 0.83046 0.0
N2287 N 0.23665 0.52045 0.82878 0.0
H2288 H 0.393 0.01847 0.57455 0.0
H2289 H 0.66681 0.96124 0.58718 0.0
H2290 H 0.41477 0.94684 0.58715 0.0
H2291 H 0.64475 0.03306 0.57489 0.0
H2292 H 0.57483 0.95547 0.58702 0.0
H2293 H 0.48496 0.02413 0.57464 0.0
C2294 C 0.41697 0.00394 0.57739 0.0
C2295 C 0.39568 0.98211 0.58083 0.0
C2296 C 0.59011 0.97251 0.58437 0.0
C2297 C 0.50166 0.98845 0.58085 0.0
C2298 C 0.64277 0.97579 0.5844 0.0
C2299 C 0.66396 -0.00228 0.58108 0.0
C2300 C 0.55803 -0.00875 0.58096 0.0
C2301 C 0.63045 0.01596 0.57771 0.0
C2302 C 0.46964 0.00716 0.57738 0.0
C2303 C 0.42914 0.96387 0.58424 0.0
N2304 N 0.5794 0.01231 0.57773 0.0
N2305 N 0.48021 0.96746 0.58417 0.0
H2306 H 0.62385 0.22694 0.59119 0.0
H2307 H 0.87886 0.27253 0.55959 0.0
H2308 H 0.62716 0.25616 0.556 0.0
H2309 H 0.87483 0.24144 0.59439 0.0
H2310 H 0.78706 0.26682 0.55807 0.0
H2311 H 0.71542 0.2329 0.5926 0.0
C2312 C 0.64364 0.23481 0.58378 0.0
C2313 C 0.61731 0.24106 0.57345 0.0
C2314 C 0.80627 0.26125 0.56604 0.0
C2315 C 0.72305 0.24768 0.57498 0.0
C2316 C 0.85888 0.26436 0.56689 0.0
C2317 C 0.88505 0.25754 0.57715 0.0
C2318 C 0.77925 0.25118 0.5755 0.0
C2319 C 0.85654 0.24736 0.58637 0.0
C2320 C 0.69617 0.23805 0.58457 0.0
C2321 C 0.64563 0.25078 0.56409 0.0
N2322 N 0.80545 0.24452 0.58532 0.0
N2323 N 0.69675 0.25379 0.56508 0.0
H2324 H 0.66976 0.2733 0.68445 0.0
H2325 H 0.39655 0.21402 0.69535 0.0
H2326 H 0.64834 0.2 0.69445 0.0
H2327 H 0.41781 0.28741 0.6855 0.0
H2328 H 0.48854 0.20851 0.69496 0.0
H2329 H 0.57777 0.27889 0.68491 0.0
C2330 C 0.64586 0.25839 0.68679 0.0
C2331 C 0.66721 0.23611 0.68938 0.0
C2332 C 0.47309 0.22584 0.6929 0.0
C2333 C 0.5613 0.24237 0.68983 0.0
C2334 C 0.42042 0.22898 0.69305 0.0
C2335 C 0.39902 0.25124 0.69047 0.0
C2336 C 0.50496 0.24507 0.69011 0.0
C2337 C 0.43231 0.27 0.68773 0.0
C2338 C 0.59319 0.26157 0.68699 0.0
C2339 C 0.63389 0.21741 0.69219 0.0
N2340 N 0.48339 0.26649 0.68761 0.0
N2341 N 0.58283 0.22097 0.69234 0.0
H2342 H 0.8569 0.9356 0.70344 0.0
H2343 H 0.62711 0.02867 0.69949 0.0
H2344 H 0.87659 0.01052 0.6968 0.0
H2345 H 0.60541 0.95363 0.70541 0.0
H2346 H 0.71857 0.02237 0.69918 0.0
H2347 H 0.76525 0.94182 0.7047 0.0
C2348 C 0.84209 0.95336 0.70222 0.0
C2349 C 0.87493 0.97254 0.69998 0.0
C2350 C 0.6939 0.00726 0.70058 0.0
C2351 C 0.76947 0.97982 0.70152 0.0
C2352 C 0.64146 0.01086 0.70085 0.0
C2353 C 0.60806 -0.00832 0.70254 0.0
C2354 C 0.71364 0.98426 0.702 0.0
C2355 C 0.62939 0.96895 0.70396 0.0
C2356 C 0.78963 0.95691 0.703 0.0
C2357 C 0.85317 -0.0048 0.69869 0.0
N2358 N 0.68066 0.96589 0.70367 0.0
N2359 N 0.80202 -0.00183 0.69944 0.0
H2360 H 0.64042 0.96578 0.44049 0.0
H2361 H 0.37039 0.02581 0.45399 0.0
H2362 H 0.62309 0.03729 0.45355 0.0
H2363 H 0.38844 0.95389 0.44152 0.0
H2364 H 0.46261 0.03038 0.45392 0.0
H2365 H 0.54826 0.96124 0.44072 0.0
C2366 C 0.61733 0.98058 0.44338 0.0
C2367 C 0.63991 0.00198 0.447 0.0
C2368 C 0.44639 0.0136 0.45118 0.0
C2369 C 0.53378 -0.0032 0.44736 0.0
C2370 C 0.39362 0.01093 0.45127 0.0
C2371 C 0.37121 0.98942 0.44774 0.0
C2372 C 0.47736 -0.00536 0.44755 0.0
C2373 C 0.40363 0.97094 0.44414 0.0
C2374 C 0.56459 0.97792 0.44356 0.0
C2375 C 0.6077 0.02036 0.45083 0.0
N2376 N 0.45484 0.97397 0.44415 0.0
N2377 N 0.55646 0.01736 0.45088 0.0
H2378 H 0.40827 0.78084 0.44263 0.0
H2379 H 0.17818 0.68787 0.44665 0.0
H2380 H 0.42969 0.70572 0.44837 0.0
H2381 H 0.15859 0.76278 0.43996 0.0
H2382 H 0.26981 0.69408 0.4479 0.0
H2383 H 0.31674 0.77462 0.44242 0.0
C2384 C 0.39385 0.76303 0.44397 0.0
C2385 C 0.4272 0.7438 0.44557 0.0
C2386 C 0.24546 0.70917 0.44619 0.0
C2387 C 0.32154 0.73648 0.44515 0.0
C2388 C 0.193 0.70563 0.44542 0.0
C2389 C 0.16017 0.7248 0.44315 0.0
C2390 C 0.26567 0.73207 0.4447 0.0
C2391 C 0.18198 0.74746 0.44186 0.0
C2392 C 0.34137 0.75947 0.44376 0.0
C2393 C 0.40577 0.72109 0.44699 0.0
N2394 N 0.23314 0.75042 0.44261 0.0
N2395 N 0.35447 0.71808 0.44675 0.0
H2396 H 0.36847 0.70856 0.31503 0.0
H2397 H 0.6378 0.75855 0.33665 0.0
H2398 H 0.38657 0.77257 0.33551 0.0
H2399 H 0.61978 0.69145 0.31879 0.0
H2400 H 0.54607 0.76436 0.33583 0.0
H2401 H 0.46004 0.702 0.31616 0.0
C2402 C 0.39148 0.72115 0.31986 0.0
C2403 C 0.36935 0.74122 0.32515 0.0
C2404 C 0.56211 0.74835 0.33208 0.0
C2405 C 0.47489 0.73395 0.32632 0.0
C2406 C 0.61467 0.74509 0.33247 0.0
C2407 C 0.63689 0.72448 0.32775 0.0
C2408 C 0.53112 0.73094 0.3269 0.0
C2409 C 0.60452 0.7075 0.32265 0.0
C2410 C 0.44395 0.71746 0.32042 0.0
C2411 C 0.40166 0.75706 0.33111 0.0
N2412 N 0.55344 0.71113 0.32233 0.0
N2413 N 0.45257 0.75312 0.3315 0.0
H2414 H 0.17968 0.03215 0.31766 0.0
H2415 H 0.4183 0.95574 0.33979 0.0
H2416 H 0.16709 0.96979 0.33962 0.0
H2417 H 0.43227 0.01837 0.31805 0.0
H2418 H 0.32637 0.96067 0.33974 0.0
H2419 H 0.27178 0.02705 0.31733 0.0
C2420 C 0.19611 0.01725 0.32233 0.0
C2421 C 0.1652 0.0014 0.32869 0.0
C2422 C 0.34948 0.97337 0.33498 0.0
C2423 C 0.27125 -0.00437 0.32847 0.0
C2424 C 0.40219 0.97067 0.33508 0.0
C2425 C 0.43351 0.98672 0.32896 0.0
C2426 C 0.32742 -0.00774 0.32872 0.0
C2427 C 0.40989 0.0054 0.3228 0.0
C2428 C 0.24887 0.01445 0.32221 0.0
C2429 C 0.18915 0.98268 0.33473 0.0
N2430 N 0.35844 0.00766 0.32285 0.0
N2431 N 0.24052 0.98034 0.33448 0.0
H2432 H 0.17504 0.4677 0.56254 0.0
H2433 H 0.91565 0.50326 0.59509 0.0
H2434 H 0.16637 0.51573 0.59211 0.0
H2435 H 0.92257 0.45355 0.56619 0.0
H2436 H 1.00732 0.50841 0.59381 0.0
H2437 H 0.08287 0.46273 0.56341 0.0
C2438 C 0.15384 0.47726 0.5692 0.0
C2439 C 0.1788 0.49214 0.57728 0.0
C2440 C 0.98889 0.49637 0.58774 0.0
C2441 C 0.07294 0.48641 0.57835 0.0
C2442 C 0.93642 0.49332 0.5885 0.0
C2443 C 0.91109 0.4778 0.58079 0.0
C2444 C 1.01673 0.48383 0.5792 0.0
C2445 C 0.94022 0.46584 0.57226 0.0
C2446 C 0.10116 0.47433 0.56971 0.0
C2447 C 0.14913 0.5038 0.5858 0.0
N2448 N 0.99141 0.46904 0.57173 0.0
N2449 N 0.09797 0.50072 0.58609 0.0
H2450 H 0.38151 0.71995 0.57523 0.0
H2451 H 0.10626 0.78017 0.57041 0.0
H2452 H 0.35829 0.79568 0.57285 0.0
H2453 H 0.13122 0.70447 0.57187 0.0
H2454 H 0.19811 0.78634 0.57125 0.0
H2455 H 0.29004 0.71407 0.57366 0.0
C2456 C 0.35735 0.73537 0.57427 0.0
C2457 C 0.37806 0.75837 0.57418 0.0
C2458 C 0.18348 0.76838 0.57136 0.0
C2459 C 0.27249 0.75172 0.57255 0.0
C2460 C 0.13092 0.76483 0.57094 0.0
C2461 C 0.11062 0.74174 0.57103 0.0
C2462 C 0.21627 0.74872 0.57192 0.0
C2463 C 0.14484 0.72259 0.57158 0.0
C2464 C 0.30491 0.73199 0.57345 0.0
C2465 C 0.34429 0.77762 0.57313 0.0
N2466 N 0.19572 0.72651 0.57203 0.0
N2467 N 0.29336 0.77387 0.57237 0.0
H2468 H 0.90837 0.77475 0.70482 0.0
H2469 H 0.16187 0.7253 0.67417 0.0
H2470 H 0.91093 0.73929 0.6711 0.0
H2471 H 0.1601 0.75947 0.70822 0.0
H2472 H 0.07024 0.731 0.67278 0.0
H2473 H 1.00026 0.7694 0.70628 0.0
C2474 C 0.92808 0.7657 0.69775 0.0
C2475 C 0.90155 0.75753 0.6878 0.0
C2476 C 0.08985 0.73729 0.68056 0.0
C2477 C 1.00729 0.75156 0.68937 0.0
C2478 C 0.14238 0.7342 0.68132 0.0
C2479 C 0.16909 0.74192 0.69133 0.0
C2480 C 0.06343 0.74824 0.68986 0.0
C2481 C 0.14125 0.75295 0.7004 0.0
C2482 C 0.98071 0.76278 0.69856 0.0
C2483 C 0.9296 0.74624 0.67886 0.0
N2484 N 0.09012 0.75577 0.69944 0.0
N2485 N 0.98072 0.74361 0.67985 0.0
H2486 H 0.12034 0.47674 0.71211 0.0
H2487 H 0.38467 0.50154 0.67907 0.0
H2488 H 0.13238 0.51415 0.67899 0.0
H2489 H 0.37274 0.46365 0.71206 0.0
H2490 H 0.29263 0.50663 0.679 0.0
H2491 H 0.21235 0.4714 0.71214 0.0
C2492 C 0.14214 0.48366 0.70478 0.0
C2493 C 0.11813 0.49594 0.69553 0.0
C2494 C 0.31011 0.49722 0.68627 0.0
C2495 C 0.22427 0.49015 0.69561 0.0
C2496 C 0.36287 0.49445 0.68637 0.0
C2497 C 0.38693 0.48215 0.6956 0.0
C2498 C 0.28073 0.48766 0.69547 0.0
C2499 C 0.35612 0.473 0.70467 0.0
C2500 C 0.19488 0.48075 0.70486 0.0
C2501 C 0.14895 0.50485 0.6864 0.0
N2502 N 0.30485 0.47595 0.70438 0.0
N2503 N 0.20019 0.50179 0.68668 0.0
H2504 H 0.8744 0.49684 0.46486 0.0
H2505 H 0.1184 0.51135 0.42315 0.0
H2506 H 0.86905 0.49295 0.42688 0.0
H2507 H 0.12692 0.50903 0.46115 0.0
H2508 H 0.02664 0.50651 0.42443 0.0
H2509 H 0.96592 0.50368 0.46374 0.0
C2510 C 0.89231 0.49763 0.45628 0.0
C2511 C 0.86372 0.49426 0.44595 0.0
C2512 C 0.04852 0.50707 0.4325 0.0
C2513 C 0.96899 0.50187 0.44461 0.0
C2514 C 0.10113 0.50968 0.43178 0.0
C2515 C 0.13089 0.51043 0.44206 0.0
C2516 C 0.02497 0.50522 0.44358 0.0
C2517 C 0.10576 0.50876 0.45298 0.0
C2518 C 0.94472 0.50138 0.45565 0.0
C2519 C 0.88943 0.49513 0.43509 0.0
N2520 N 0.05442 0.50618 0.45345 0.0
N2521 N 0.94041 0.49883 0.43471 0.0
H2522 H 0.91032 0.28449 0.44295 0.0
H2523 H 0.67783 0.19284 0.44011 0.0
H2524 H 0.92922 0.20871 0.43933 0.0
H2525 H 0.65916 0.26869 0.44347 0.0
H2526 H 0.7697 0.19824 0.44009 0.0
H2527 H 0.81852 0.27901 0.44315 0.0
C2528 C 0.89529 0.26668 0.4421 0.0
C2529 C 0.92797 0.24705 0.44105 0.0
C2530 C 0.74555 0.21372 0.44084 0.0
C2531 C 0.82215 0.24061 0.44147 0.0
C2532 C 0.69292 0.21065 0.44095 0.0
C2533 C 0.66029 0.23033 0.44184 0.0
C2534 C 0.76616 0.23666 0.44164 0.0
C2535 C 0.68251 0.25298 0.44264 0.0
C2536 C 0.8427 0.26356 0.4423 0.0
C2537 C 0.90583 0.22438 0.44026 0.0
N2538 N 0.73388 0.2555 0.44253 0.0
N2539 N 0.85446 0.22181 0.44047 0.0
H2540 H 0.13844 0.2491 0.31186 0.0
H2541 H 0.86249 0.21178 0.33563 0.0
H2542 H 0.11456 0.19651 0.33903 0.0
H2543 H 0.88858 0.26862 0.31081 0.0
H2544 H 0.95408 0.20456 0.33634 0.0
H2545 H 0.04691 0.25542 0.31089 0.0
C2546 C 0.11415 0.23892 0.31767 0.0
C2547 C 0.13482 0.22224 0.32556 0.0
C2548 C 0.93975 0.21862 0.33074 0.0
C2549 C 0.02906 0.22924 0.32436 0.0
C2550 C 0.88733 0.22268 0.33028 0.0
C2551 C 0.86744 0.24094 0.32319 0.0
C2552 C 0.97285 0.23281 0.32402 0.0
C2553 C 0.90192 0.2546 0.31656 0.0
C2554 C 0.06166 0.24247 0.31706 0.0
C2555 C 0.10076 0.20933 0.33268 0.0
N2556 N 0.95266 0.25025 0.31713 0.0
N2557 N 0.04981 0.21311 0.33192 0.0
H2558 H 0.90816 0.46831 0.34732 0.0
H2559 H 0.66446 0.51362 0.31132 0.0
H2560 H 0.91669 0.49946 0.31259 0.0
H2561 H 0.65629 0.48193 0.34594 0.0
H2562 H 0.75663 0.50886 0.31166 0.0
H2563 H 0.81613 0.47336 0.34699 0.0
C2564 C 0.89079 0.47615 0.3396 0.0
C2565 C 0.92063 0.48338 0.32995 0.0
C2566 C 0.7347 0.50291 0.31918 0.0
C2567 C 0.81457 0.4894 0.32956 0.0
C2568 C 0.68193 0.50572 0.31902 0.0
C2569 C 0.65215 0.4982 0.32862 0.0
C2570 C 0.7583 0.49253 0.32903 0.0
C2571 C 0.67729 0.48773 0.33826 0.0
C2572 C 0.83809 0.47913 0.33944 0.0
C2573 C 0.89562 0.49384 0.3203 0.0
N2574 N 0.72869 0.48528 0.33822 0.0
N2575 N 0.84424 0.49646 0.32034 0.0
H2576 H 0.8888 -0.0013 0.06914 0.0
H2577 H 0.16376 0.96154 0.09336 0.0
H2578 H 0.9117 0.94719 0.09685 0.0
H2579 H 0.13875 0.01737 0.06793 0.0
H2580 H 0.07214 0.95442 0.09401 0.0
H2581 H 0.98046 0.00452 0.06802 0.0
C2582 C 0.91293 0.98865 0.07504 0.0
C2583 C 0.89201 0.97244 0.08313 0.0
C2584 C 0.08671 0.96823 0.08829 0.0
C2585 C 0.99777 0.97885 0.08177 0.0
C2586 C 0.13913 0.97222 0.08786 0.0
C2587 C 0.15927 -0.00981 0.08062 0.0
C2588 C 0.05394 0.98221 0.08139 0.0
C2589 C 0.12514 0.00359 0.07379 0.0
C2590 C 0.96546 -0.00809 0.07434 0.0
C2591 C 0.92577 0.95965 0.09036 0.0
N2592 N 0.07439 -0.00066 0.07435 0.0
N2593 N 0.97676 0.96315 0.08952 0.0
H2594 H 0.10725 0.26323 0.08432 0.0
H2595 H 0.37947 0.22288 0.05952 0.0
H2596 H 0.12738 0.20886 0.05792 0.0
H2597 H 0.35931 0.27558 0.08673 0.0
H2598 H 0.28732 0.21821 0.05844 0.0
H2599 H 0.19926 0.26835 0.08513 0.0
C2600 C 0.13088 0.25227 0.07872 0.0
C2601 C 0.10907 0.23556 0.07103 0.0
C2602 C 0.30305 0.23079 0.06465 0.0
C2603 C 0.2151 0.24155 0.07184 0.0
C2604 C 0.35579 0.23358 0.06523 0.0
C2605 C 0.37759 0.24961 0.07326 0.0
C2606 C 0.2715 0.24418 0.07212 0.0
C2607 C 0.34459 0.26272 0.08053 0.0
C2608 C 0.18356 0.25531 0.07914 0.0
C2609 C 0.14205 0.22221 0.06386 0.0
N2610 N 0.29345 0.25972 0.07978 0.0
N2611 N 0.19317 0.22547 0.06445 0.0
H2612 H 0.91683 0.27157 0.20577 0.0
H2613 H 0.17169 0.22802 0.17359 0.0
H2614 H 0.92071 0.24138 0.17081 0.0
H2615 H 0.16874 0.25665 0.20887 0.0
H2616 H 0.08002 0.23364 0.17231 0.0
H2617 H 1.00882 0.2664 0.20712 0.0
C2618 C 0.93686 0.26371 0.1984 0.0
C2619 C 0.9107 0.25698 0.18814 0.0
C2620 C 0.09938 0.23874 0.18033 0.0
C2621 C 1.01647 0.25124 0.18959 0.0
C2622 C 0.15193 0.2357 0.18104 0.0
C2623 C 0.17829 0.24187 0.19135 0.0
C2624 C 0.07263 0.24808 0.19001 0.0
C2625 C 0.15014 0.25134 0.20079 0.0
C2626 C 0.98952 0.26091 0.19915 0.0
C2627 C 0.93911 0.2472 0.17883 0.0
N2628 N 0.09899 0.25415 0.19989 0.0
N2629 N 0.99024 0.24465 0.17977 0.0
H2630 H 0.36483 0.93879 0.19165 0.0
H2631 H 0.13576 0.02923 0.20316 0.0
H2632 H 0.38559 0.01123 0.20312 0.0
H2633 H 0.11358 0.95444 0.19658 0.0
H2634 H 0.22718 0.02292 0.20296 0.0
H2635 H 0.27309 0.94407 0.19323 0.0
C2636 C 0.3503 0.95575 0.19461 0.0
C2637 C 0.38346 0.9746 0.19723 0.0
C2638 C 0.20237 0.00784 0.2016 0.0
C2639 C 0.2778 0.98087 0.19885 0.0
C2640 C 0.14992 0.0114 0.2018 0.0
C2641 C 0.1164 -0.00766 0.19993 0.0
C2642 C 0.22197 0.98507 0.19945 0.0
C2643 C 0.13763 0.96977 0.19792 0.0
C2644 C 0.29774 0.95879 0.19543 0.0
C2645 C 0.36185 -0.00373 0.2008 0.0
N2646 N 0.1889 0.96679 0.19771 0.0
N2647 N 0.3106 -0.00119 0.20147 0.0
H2648 H 0.87581 0.96595 0.96636 0.0
H2649 H 0.11294 0.01976 0.93091 0.0
H2650 H 0.8615 0.00619 0.93412 0.0
H2651 H 0.12754 0.97983 0.96324 0.0
H2652 H 0.02104 0.01498 0.93197 0.0
H2653 H 0.96766 0.97129 0.96551 0.0
C2654 C 0.89181 0.97609 0.95914 0.0
C2655 C 0.86044 0.98568 0.95031 0.0
C2656 C 0.04429 0.00725 0.93884 0.0
C2657 C 0.96635 -0.00842 0.94921 0.0
C2658 C 0.09696 0.00983 0.9382 0.0
C2659 C 0.12845 8e-05 0.94697 0.0
C2660 C 0.02245 -0.0052 0.94831 0.0
C2661 C 0.10503 0.98786 0.95633 0.0
C2662 C 0.94446 0.97899 0.95863 0.0
C2663 C 0.88391 -0.00177 0.94106 0.0
N2664 N 0.05362 0.98554 0.95673 0.0
N2665 N 0.93526 0.0008 0.94076 0.0
H2666 H 0.90868 0.77701 0.94746 0.0
H2667 H 0.68613 0.68174 0.93843 0.0
H2668 H 0.93514 0.70194 0.94283 0.0
H2669 H 0.65984 0.75668 0.94357 0.0
H2670 H 0.7773 0.6888 0.93988 0.0
H2671 H 0.81758 0.76989 0.946 0.0
C2672 C 0.89542 0.759 0.94617 0.0
C2673 C 0.92992 0.74005 0.94531 0.0
C2674 C 0.75161 0.70371 0.94071 0.0
C2675 C 0.82515 0.73179 0.9435 0.0
C2676 C 0.69945 0.69971 0.93983 0.0
C2677 C 0.66499 0.71865 0.94084 0.0
C2678 C 0.76978 0.72683 0.94263 0.0
C2679 C 0.68474 0.74147 0.94286 0.0
C2680 C 0.84328 0.75496 0.94528 0.0
C2681 C 0.91022 0.71716 0.94342 0.0
N2682 N 0.7357 0.74491 0.94366 0.0
N2683 N 0.85926 0.71369 0.94261 0.0
H2684 H 0.1015 0.68544 0.81553 0.0
H2685 H 0.86926 0.77605 0.82317 0.0
H2686 H 0.11901 0.75941 0.82459 0.0
H2687 H 0.84986 0.70255 0.81337 0.0
H2688 H 0.96085 0.77039 0.82305 0.0
H2689 H 1.00975 0.69136 0.81422 0.0
C2690 C 0.08616 0.70293 0.81725 0.0
C2691 C 0.11835 0.72193 0.82021 0.0
C2692 C 0.93665 0.75549 0.82088 0.0
C2693 C 1.01293 0.72887 0.81865 0.0
C2694 C 0.88414 0.75875 0.82085 0.0
C2695 C 0.85136 0.73979 0.81822 0.0
C2696 C 0.95706 0.73305 0.8183 0.0
C2697 C 0.87336 0.71766 0.81558 0.0
C2698 C 0.03369 0.70632 0.81645 0.0
C2699 C 0.09604 0.74427 0.82215 0.0
N2700 N 0.9247 0.7149 0.81569 0.0
N2701 N 0.04489 0.74707 0.82139 0.0
H2702 H 0.67237 0.03795 0.82289 0.0
H2703 H 0.90892 0.96091 0.84558 0.0
H2704 H 0.65805 0.97568 0.84485 0.0
H2705 H 0.92335 0.01916 0.82103 0.0
H2706 H 0.81737 0.96719 0.84602 0.0
H2707 H 0.76446 0.03251 0.82272 0.0
C2708 C 0.68854 0.02316 0.82771 0.0
C2709 C 0.65719 0.00723 0.83388 0.0
C2710 C 0.84052 0.97864 0.84054 0.0
C2711 C 0.7629 0.00085 0.83369 0.0
C2712 C 0.89293 0.975 0.84024 0.0
C2713 C 0.92421 0.98942 0.83319 0.0
C2714 C 0.81882 -0.00311 0.83377 0.0
C2715 C 0.90105 0.00772 0.82669 0.0
C2716 C 0.74117 0.02002 0.82756 0.0
C2717 C 0.68046 0.98823 0.83983 0.0
N2718 N 0.84987 0.01087 0.8271 0.0
N2719 N 0.73175 0.98563 0.83961 0.0
H2720 H 0.98637 0.50405 0.04688 0.0
H2721 H 0.04432 0.46311 0.98028 0.0
H2722 H 0.10143 0.453 0.03757 0.0
H2723 H 0.96435 0.52778 0.98856 0.0
H2724 H 0.05791 0.45643 1.00143 0.0
H2725 H 0.96908 0.51017 0.02571 0.0
C2726 C 1.00757 0.49399 0.04041 0.0
C2727 C 0.04539 0.47802 0.04399 0.0
C2728 C 0.03744 0.47211 0.99862 0.0
C2729 C 0.02593 0.48484 0.01983 0.0
C2730 C 0.02974 0.47592 0.98654 0.0
C2731 C 1.00333 0.49606 0.98263 0.0
C2732 C 1.01806 0.48839 1.0069 0.0
C2733 C 0.98513 0.51206 0.99117 0.0
C2734 C 0.99796 0.49757 0.02834 0.0
C2735 C 0.07201 0.46555 0.03522 0.0
N2736 N 0.99259 0.50783 1.00288 0.0
N2737 N 0.06174 0.46917 0.0236 0.0
H2738 H 0.37316 0.70862 0.98579 0.0
H2739 H 0.16923 0.76123 0.03123 0.0
H2740 H 0.23632 0.74404 0.97471 0.0
H2741 H 0.30651 0.72591 0.0421 0.0
H2742 H 0.19283 0.7551 0.01063 0.0
H2743 H 0.34894 0.7146 1.00632 0.0
C2744 C 0.33778 0.71763 0.98768 0.0
C2745 C 0.30662 0.72578 0.97847 0.0
C2746 C 0.21792 0.74869 0.01748 0.0
C2747 C 0.2786 0.73281 1.00216 0.0
C2748 C 0.20452 0.7522 0.02928 0.0
C2749 C 0.23601 0.7441 0.03844 0.0
C2750 C 0.26328 0.73693 0.01471 0.0
C2751 C 0.28117 0.7325 0.03534 0.0
C2752 C 0.32401 0.72105 0.99945 0.0
C2753 C 0.26132 0.73734 0.9815 0.0
N2754 N 0.29341 0.72925 0.02375 0.0
N2755 N 0.2487 0.74053 0.99309 0.0
H2756 H 0.06107 0.74977 0.29204 0.0
H2757 H 0.97668 0.72959 0.22442 0.0
H2758 H 0.92367 0.71381 0.28182 0.0
H2759 H 0.11377 0.76576 0.23469 0.0
H2760 H 0.95622 0.72366 0.24539 0.0
H2761 H 0.08136 0.75573 0.27106 0.0
C2762 C 0.03532 0.74307 0.28539 0.0
C2763 C 0.99071 0.73124 0.28869 0.0
C2764 C 0.99075 0.73293 0.24305 0.0
C2765 C 1.01338 0.73805 0.26467 0.0
C2766 C 1.00232 0.73635 0.23107 0.0
C2767 C 0.0469 0.74822 0.22779 0.0
C2768 C 0.02405 0.74144 0.25181 0.0
C2769 C 0.07893 0.75651 0.2368 0.0
C2770 C 0.04678 0.7465 0.27341 0.0
C2771 C 0.95854 0.72302 0.27969 0.0
N2772 N 0.06694 0.75297 0.24834 0.0
N2773 N 0.97044 0.72657 0.26814 0.0
H2774 H 0.28062 0.51751 0.22981 0.0
H2775 H 0.25714 0.46051 0.29471 0.0
H2776 H 0.23491 0.44512 0.23626 0.0
H2777 H 0.30175 0.53302 0.28818 0.0
H2778 H 0.24788 0.45456 0.27338 0.0
H2779 H 0.2895 0.5234 0.25114 0.0
C2780 C 0.2728 0.5028 0.23571 0.0
C2781 C 0.25692 0.4808 0.23123 0.0
C2782 C 0.25953 0.4718 0.27661 0.0
C2783 C 0.26657 0.48745 0.25571 0.0
C2784 C 0.2646 0.47523 0.2888 0.0
C2785 C 0.28033 0.49728 0.29325 0.0
C2786 C 0.27028 0.49057 0.26878 0.0
C2787 C 0.28961 0.5157 0.28516 0.0
C2788 C 0.27766 0.50619 0.2479 0.0
C2789 C 0.2472 0.4624 0.23931 0.0
N2790 N 0.28462 0.51191 0.27335 0.0
N2791 N 0.25203 0.46615 0.25112 0.0
H2792 H 0.84935 0.20277 0.98227 0.0
H2793 H 0.70809 0.2801 0.03137 0.0
H2794 H 0.73738 0.2555 0.97325 0.0
H2795 H 0.78547 0.21441 0.03899 0.0
H2796 H 0.7229 0.27356 1.01026 0.0
H2797 H 0.83034 0.20867 1.0031 0.0
C2798 C 0.82045 0.21556 0.98468 0.0
C2799 C 0.79485 0.22864 0.97597 0.0
C2800 C 0.73657 0.26057 0.01654 0.0
C2801 C 0.77328 0.23577 1.0 0.0
C2802 C 0.72842 0.26434 0.02861 0.0
C2803 C 0.74562 0.24776 0.03698 0.0
C2804 C 0.76276 0.24022 0.01278 0.0
C2805 C 0.77155 0.22765 0.03286 0.0
C2806 C 0.8096 0.2189 0.99661 0.0
C2807 C 0.75781 0.24495 0.97966 0.0
N2808 N 0.77949 0.22451 0.02109 0.0
N2809 N 0.74842 0.24821 0.99141 0.0
H2810 H 0.97887 0.1957 0.78281 0.0
H2811 H 0.04422 0.28747 0.7307 0.0
H2812 H 0.02198 0.26853 0.78886 0.0
H2813 H 1.00306 0.21437 0.72465 0.0
H2814 H 0.0345 0.28112 0.75193 0.0
H2815 H 0.98741 0.20219 0.76156 0.0
C2816 C 0.99043 0.21305 0.77967 0.0
C2817 C 0.99966 0.23161 0.78765 0.0
C2818 C 0.02739 0.26646 0.74598 0.0
C2819 C 1.00918 0.23925 0.76322 0.0
C2820 C 0.03274 0.2701 0.73383 0.0
C2821 C 0.02454 0.25141 0.72585 0.0
C2822 C 1.01372 0.24393 0.75027 0.0
C2823 C 1.00974 0.2293 0.73046 0.0
C2824 C 0.99515 0.21677 0.76751 0.0
C2825 C 1.01452 0.25371 0.78305 0.0
N2826 N 1.00501 0.22616 0.74234 0.0
N2827 N 0.01867 0.25692 0.77116 0.0
H2828 H 0.79483 0.53986 0.78839 0.0
H2829 H 0.73696 0.44672 0.73648 0.0
H2830 H 0.75906 0.46621 0.79469 0.0
H2831 H 0.77614 0.52002 0.73028 0.0
H2832 H 0.74488 0.45342 0.75773 0.0
H2833 H 0.78644 0.53308 0.76717 0.0
C2834 C 0.78482 0.52226 0.78531 0.0
C2835 C 0.77772 0.50357 0.79337 0.0
C2836 C 0.75192 0.46805 0.75174 0.0
C2837 C 0.76841 0.49559 0.76895 0.0
C2838 C 0.74757 0.46422 0.73958 0.0
C2839 C 0.75584 0.48284 0.73155 0.0
C2840 C 0.76457 0.49073 0.75599 0.0
C2841 C 0.76947 0.50513 0.73612 0.0
C2842 C 0.78023 0.51838 0.77317 0.0
C2843 C 0.76482 0.48116 0.78883 0.0
N2844 N 0.77322 0.50845 0.74801 0.0
N2845 N 0.76076 0.47779 0.77694 0.0
H2846 H 0.04525 0.94707 0.54022 0.0
H2847 H 0.98452 0.03881 0.48783 0.0
H2848 H 1.00471 0.02027 0.54617 0.0
H2849 H 0.02822 0.96594 0.48206 0.0
H2850 H 0.99161 0.03248 0.50913 0.0
H2851 H 0.03743 0.95351 0.51897 0.0
C2852 C 0.03433 0.96449 0.53706 0.0
C2853 C 0.02572 0.98317 0.54502 0.0
C2854 C 0.99982 0.01788 0.50322 0.0
C2855 C 1.01705 -0.00924 0.52057 0.0
C2856 C 0.99594 0.0215 0.49104 0.0
C2857 C 1.00573 0.00287 0.48312 0.0
C2858 C 1.01355 -0.00458 0.5076 0.0
C2859 C 0.02034 0.98082 0.48782 0.0
C2860 C 0.03005 0.96818 0.5249 0.0
C2861 C 1.01166 0.00535 0.54037 0.0
N2862 N 0.02364 0.9777 0.49972 0.0
N2863 N 1.00794 0.00854 0.52847 0.0
H2864 H 0.32411 0.19866 0.48283 0.0
H2865 H 0.18315 0.27627 0.53189 0.0
H2866 H 0.24634 0.26418 0.47505 0.0
H2867 H 0.29625 0.224 0.54082 0.0
H2868 H 0.20121 0.27004 0.51102 0.0
H2869 H 0.30903 0.2053 0.50391 0.0
C2870 C 0.30358 0.2144 0.48554 0.0
C2871 C 0.28643 0.23091 0.47713 0.0
C2872 C 0.22237 0.25999 0.5175 0.0
C2873 C 0.269 0.23858 0.50132 0.0
C2874 C 0.21207 0.26352 0.52945 0.0
C2875 C 0.23833 0.25067 0.53814 0.0
C2876 C 0.25878 0.24317 0.51409 0.0
C2877 C 0.27534 0.23438 0.53442 0.0
C2878 C 0.29527 0.21822 0.4976 0.0
C2879 C 0.26022 0.25099 0.4812 0.0
N2880 N 0.2842 0.23095 0.52267 0.0
N2881 N 0.25217 0.2542 0.49298 0.0
H2882 H 0.22872 0.98087 0.79889 0.0
H2883 H 0.30628 -0.00015 0.7307 0.0
H2884 H 0.36668 0.01528 0.78771 0.0
H2885 H 0.16927 0.96476 0.742 0.0
H2886 H 0.32949 0.00569 0.75151 0.0
H2887 H 0.206 0.97489 0.77807 0.0
C2888 C 0.2541 0.98721 0.79206 0.0
C2889 C 0.29957 -0.00138 0.79505 0.0
C2890 C 0.29437 -0.00333 0.74943 0.0
C2891 C 0.2741 -0.00819 0.7712 0.0
C2892 C 0.28122 -0.00668 0.73754 0.0
C2893 C 0.23584 0.98179 0.7346 0.0
C2894 C 0.26185 0.98844 0.75843 0.0
C2895 C 0.20467 0.97374 0.74385 0.0
C2896 C 0.24124 0.98378 0.78018 0.0
C2897 C 0.3312 0.00641 0.78583 0.0
N2898 N 0.21817 0.97723 0.75529 0.0
N2899 N 0.31792 0.00288 0.77437 0.0
H2900 H 0.86637 0.71472 0.48499 0.0
H2901 H 0.66961 0.76982 0.53138 0.0
H2902 H 0.73111 0.7523 0.47461 0.0
H2903 H 0.80524 0.73241 0.54163 0.0
H2904 H 0.69152 0.76375 0.51068 0.0
H2905 H 0.84433 0.72091 0.50565 0.0
C2906 C 0.8318 0.72425 0.48706 0.0
C2907 C 0.80048 0.73299 0.47802 0.0
C2908 C 0.71664 0.75688 0.51742 0.0
C2909 C 0.77502 0.74026 0.50183 0.0
C2910 C 0.70422 0.76037 0.52927 0.0
C2911 C 0.73571 0.75163 0.53828 0.0
C2912 C 0.761 0.7445 0.51445 0.0
C2913 C 0.77996 0.73951 0.53499 0.0
C2914 C 0.81931 0.7278 0.49889 0.0
C2915 C 0.75627 0.74521 0.48127 0.0
N2916 N 0.79124 0.73627 0.52335 0.0
N2917 N 0.7449 0.7485 0.49291 0.0
H2918 H 0.80301 0.00937 0.22913 0.0
H2919 H 0.75259 0.96725 0.29591 0.0
H2920 H 0.69121 0.95711 0.23899 0.0
H2921 H 0.83065 0.03234 0.28739 0.0
H2922 H 0.73724 0.96077 0.27483 0.0
H2923 H 0.82225 0.0154 0.25021 0.0
C2924 C 0.78297 -0.00097 0.23571 0.0
C2925 C 0.74545 0.98275 0.23231 0.0
C2926 C 0.75765 0.97651 0.27757 0.0
C2927 C 0.76709 0.98948 0.25635 0.0
C2928 C 0.76634 0.98021 0.28961 0.0
C2929 C 0.79277 0.00039 0.29343 0.0
C2930 C 0.77602 -0.00705 0.26923 0.0
C2931 C 0.80989 0.01658 0.28485 0.0
C2932 C 0.79367 0.00256 0.24772 0.0
C2933 C 0.72032 0.96991 0.2412 0.0
N2934 N 0.80146 0.01246 0.27317 0.0
N2935 N 0.73161 0.97351 0.25275 0.0
H2936 H 0.62083 0.46519 0.53493 0.0
H2937 H 0.42201 0.51947 0.48873 0.0
H2938 H 0.48498 0.50216 0.54543 0.0
H2939 H 0.55773 0.4823 0.47832 0.0
H2940 H 0.4444 0.51341 0.50941 0.0
H2941 H 0.5982 0.4712 0.51427 0.0
C2942 C 0.58604 0.47455 0.53289 0.0
C2943 C 0.55468 0.48315 0.54196 0.0
C2944 C 0.46942 0.50658 0.50264 0.0
C2945 C 0.5285 0.4902 0.51816 0.0
C2946 C 0.45671 0.51005 0.4908 0.0
C2947 C 0.48813 0.50142 0.48175 0.0
C2948 C 0.51401 0.49432 0.50556 0.0
C2949 C 0.5325 0.48933 0.48499 0.0
C2950 C 0.57318 0.47799 0.52106 0.0
C2951 C 0.51017 0.49516 0.53874 0.0
N2952 N 0.54409 0.48613 0.49662 0.0
N2953 N 0.49844 0.49835 0.52712 0.0
H2954 H 0.40945 0.71745 0.77997 0.0
H2955 H 0.61513 0.76659 0.73396 0.0
H2956 H 0.54999 0.75001 0.7907 0.0
H2957 H 0.47589 0.73247 0.72354 0.0
H2958 H 0.59205 0.76097 0.75465 0.0
H2959 H 0.43329 0.72299 0.75938 0.0
C2960 C 0.44551 0.72577 0.778 0.0
C2961 C 0.4778 0.73327 0.78712 0.0
C2962 C 0.56644 0.75471 0.74787 0.0
C2963 C 0.50542 0.73975 0.76336 0.0
C2964 C 0.57954 0.75793 0.73602 0.0
C2965 C 0.54729 0.75004 0.72698 0.0
C2966 C 0.5206 0.74348 0.75078 0.0
C2967 C 0.50178 0.7389 0.73021 0.0
C2968 C 0.45907 0.72893 0.76619 0.0
C2969 C 0.52398 0.74394 0.78397 0.0
N2970 N 0.48981 0.73597 0.74184 0.0
N2971 N 0.53638 0.74688 0.77236 0.0
H2972 H 0.42557 0.21156 0.28067 0.0
H2973 H 0.62198 0.26705 0.23418 0.0
H2974 H 0.56046 0.24943 0.29098 0.0
H2975 H 0.48551 0.23036 0.22395 0.0
H2976 H 0.60023 0.26077 0.25489 0.0
H2977 H 0.44718 0.21806 0.25999 0.0
C2978 C 0.45994 0.22122 0.27859 0.0
C2979 C 0.49133 0.22992 0.28761 0.0
C2980 C 0.57489 0.25411 0.24815 0.0
C2981 C 0.51635 0.23754 0.26377 0.0
C2982 C 0.58724 0.2577 0.23629 0.0
C2983 C 0.55545 0.24926 0.22727 0.0
C2984 C 0.53031 0.24188 0.25114 0.0
C2985 C 0.51103 0.23725 0.23058 0.0
C2986 C 0.4722 0.22495 0.26673 0.0
C2987 C 0.53527 0.24234 0.28433 0.0
N2988 N 0.49983 0.23389 0.24223 0.0
N2989 N 0.54645 0.24578 0.27268 0.0
H2990 H 0.47678 0.00564 0.04834 0.0
H2991 H 0.5361 0.96458 0.98184 0.0
H2992 H 0.59238 0.95483 0.03906 0.0
H2993 H 0.45357 0.02865 0.98993 0.0
H2994 H 0.54971 0.95819 1.003 0.0
H2995 H 0.45942 0.01166 0.02717 0.0
C2996 C 0.49809 -0.00439 0.04187 0.0
C2997 C 0.53608 0.97973 0.04546 0.0
C2998 C 0.52867 0.97368 1.00015 0.0
C2999 C 0.51655 0.98644 0.02132 0.0
C3000 C 0.52096 0.97733 0.98807 0.0
C3001 C 0.49381 -0.0028 0.9841 0.0
C3002 C 0.50862 0.98986 1.00838 0.0
C3003 C 0.47492 0.01312 0.99259 0.0
C3004 C 0.48844 -0.00086 0.0298 0.0
C3005 C 0.56284 0.9673 0.0367 0.0
N3006 N 0.48245 0.00907 1.00432 0.0
N3007 N 0.55253 0.97087 0.02509 0.0
loop_
_geom_bond_atom_site_label_1
_geom_bond_atom_site_label_2
_geom_bond_distance
_geom_bond_site_symmetry_2
_ccdc_geom_bond_type
Pr0 C2 2.880 . S
Pr0 O20 2.562 . S
Pr0 O21 2.490 . S
Pr0 O22 2.695 1_655 S
Pr0 O23 2.512 . S
Pr0 O25 2.437 . S
Pr0 O28 2.436 1_655 S
Pr0 O30 2.438 1_655 S
Pr1 C11 2.880 . S
Pr1 O22 2.436 . S
Pr1 O24 2.438 . S
Pr1 O26 2.562 . S
Pr1 O27 2.490 . S
Pr1 O28 2.695 . S
Pr1 O29 2.512 . S
Pr1 O31 2.437 . S
C2 Pr0 2.880 . S
C2 C3 1.491 . S
C2 O20 1.254 . S
C2 O21 1.225 . S
C3 C2 1.491 . S
C3 C4 1.392 . S
C3 C8 1.356 . S
C4 C3 1.392 . S
C4 C5 1.368 . S
C4 H32 0.929 . S
C5 C4 1.368 . S
C5 C6 1.386 . S
C5 H33 0.929 . S
C6 C5 1.386 . S
C6 C7 1.373 . S
C7 C6 1.373 . S
C7 C8 1.409 . S
C7 H34 0.931 . S
C8 C3 1.356 . S
C8 C7 1.409 . S
C8 H35 0.930 . S
C9 O22 1.270 . S
C9 O23 1.248 1_455 S
C10 O24 1.267 1_655 S
C10 O25 1.278 . S
C11 Pr1 2.880 . S
C11 C12 1.491 . S
C11 O26 1.254 . S
C11 O27 1.225 . S
C12 C11 1.491 . S
C12 C13 1.392 . S
C12 C17 1.356 . S
C13 C12 1.392 . S
C13 C14 1.368 . S
C13 H36 0.929 . S
C14 C13 1.368 . S
C14 C15 1.386 . S
C14 H37 0.929 . S
C15 C14 1.386 . S
C15 C16 1.373 . S
C16 C15 1.373 . S
C16 C17 1.409 . S
C16 H38 0.931 . S
C17 C12 1.356 . S
C17 C16 1.409 . S
C17 H39 0.930 . S
C18 O28 1.270 . S
C18 O29 1.248 . S
C19 O30 1.267 . S
C19 O31 1.278 . S
O20 Pr0 2.562 . S
O20 C2 1.254 . S
O21 Pr0 2.490 . S
O21 C2 1.225 . S
O22 Pr0 2.695 1_455 S
O22 Pr1 2.436 . S
O22 C9 1.270 . S
O23 Pr0 2.512 . S
O23 C9 1.248 1_655 S
O24 Pr1 2.438 . S
O24 C10 1.267 1_455 S
O25 Pr0 2.437 . S
O25 C10 1.278 . S
O26 Pr1 2.562 . S
O26 C11 1.254 . S
O27 Pr1 2.490 . S
O27 C11 1.225 . S
O28 Pr0 2.436 1_455 S
O28 Pr1 2.695 . S
O28 C18 1.270 . S
O29 Pr1 2.512 . S
O29 C18 1.248 . S
O30 Pr0 2.438 1_455 S
O30 C19 1.267 . S
O31 Pr1 2.437 . S
O31 C19 1.278 . S
H32 C4 0.929 . S
H33 C5 0.929 . S
H34 C7 0.931 . S
H35 C8 0.930 . S
H36 C13 0.929 . S
H37 C14 0.929 . S
H38 C16 0.931 . S
H39 C17 0.930 . S
Pr40 C42 2.880 . S
Pr40 O60 2.562 . S
Pr40 O61 2.490 . S
Pr40 O62 2.695 . S
Pr40 O63 2.512 . S
Pr40 O65 2.437 . S
Pr40 O68 2.436 . S
Pr40 O70 2.438 . S
Pr41 C51 2.880 . S
Pr41 O62 2.436 . S
Pr41 O64 2.438 . S
Pr41 O66 2.562 . S
Pr41 O67 2.490 . S
Pr41 O68 2.695 . S
Pr41 O69 2.512 . S
Pr41 O71 2.437 . S
C42 Pr40 2.880 . S
C42 C43 1.491 . S
C42 O60 1.254 . S
C42 O61 1.225 . S
C43 C42 1.491 . S
C43 C44 1.392 . S
C43 C48 1.356 . S
C44 C43 1.392 . S
C44 C45 1.368 . S
C44 H72 0.929 . S
C45 C44 1.368 . S
C45 C46 1.386 . S
C45 H73 0.929 . S
C46 C45 1.386 . S
C46 C47 1.373 . S
C47 C46 1.373 . S
C47 C48 1.409 . S
C47 H74 0.931 . S
C48 C43 1.356 . S
C48 C47 1.409 . S
C48 H75 0.930 . S
C49 O62 1.270 . S
C49 O63 1.248 . S
C50 O64 1.267 . S
C50 O65 1.278 . S
C51 Pr41 2.880 . S
C51 C52 1.502 . S
C51 O66 1.254 . S
C51 O67 1.225 . S
C52 C51 1.502 . S
C52 C53 1.386 1_455 S
C52 C57 1.350 1_455 S
C53 C52 1.386 1_655 S
C53 C54 1.368 . S
C53 H76 0.929 . S
C54 C53 1.368 . S
C54 C55 1.386 . S
C54 H77 0.929 . S
C55 C54 1.386 . S
C55 C56 1.373 . S
C56 C55 1.373 . S
C56 C57 1.409 . S
C56 H78 0.931 . S
C57 C52 1.350 1_655 S
C57 C56 1.409 . S
C57 H79 0.930 . S
C58 O68 1.270 . S
C58 O69 1.248 . S
C59 O70 1.267 . S
C59 O71 1.278 . S
O60 Pr40 2.562 . S
O60 C42 1.254 . S
O61 Pr40 2.490 . S
O61 C42 1.225 . S
O62 Pr40 2.695 . S
O62 Pr41 2.436 . S
O62 C49 1.270 . S
O63 Pr40 2.512 . S
O63 C49 1.248 . S
O64 Pr41 2.438 . S
O64 C50 1.267 . S
O65 Pr40 2.437 . S
O65 C50 1.278 . S
O66 Pr41 2.562 . S
O66 C51 1.254 . S
O67 Pr41 2.490 . S
O67 C51 1.225 . S
O68 Pr40 2.436 . S
O68 Pr41 2.695 . S
O68 C58 1.270 . S
O69 Pr41 2.512 . S
O69 C58 1.248 . S
O70 Pr40 2.438 . S
O70 C59 1.267 . S
O71 Pr41 2.437 . S
O71 C59 1.278 . S
H72 C44 0.929 . S
H73 C45 0.929 . S
H74 C47 0.931 . S
H75 C48 0.930 . S
H76 C53 0.929 . S
H77 C54 0.929 . S
H78 C56 0.931 . S
H79 C57 0.930 . S
Pr80 C82 2.880 . S
Pr80 O100 2.562 . S
Pr80 O101 2.490 . S
Pr80 O102 2.695 1_655 S
Pr80 O103 2.512 . S
Pr80 O105 2.437 . S
Pr80 O108 2.436 1_655 S
Pr80 O110 2.438 1_655 S
Pr81 C91 2.880 . S
Pr81 O102 2.436 . S
Pr81 O104 2.438 . S
Pr81 O106 2.562 . S
Pr81 O107 2.490 . S
Pr81 O108 2.695 . S
Pr81 O109 2.512 . S
Pr81 O111 2.437 . S
C82 Pr80 2.880 . S
C82 C83 1.491 . S
C82 O100 1.254 . S
C82 O101 1.225 . S
C83 C82 1.491 . S
C83 C84 1.392 . S
C83 C88 1.356 . S
C84 C83 1.392 . S
C84 C85 1.368 . S
C84 H112 0.929 . S
C85 C84 1.368 . S
C85 C86 1.386 . S
C85 H113 0.929 . S
C86 C85 1.386 . S
C86 C87 1.373 . S
C87 C86 1.373 . S
C87 C88 1.409 . S
C87 H114 0.931 . S
C88 C83 1.356 . S
C88 C87 1.409 . S
C88 H115 0.930 . S
C89 O102 1.270 . S
C89 O103 1.248 1_455 S
C90 O104 1.267 1_655 S
C90 O105 1.278 . S
C91 Pr81 2.880 . S
C91 C92 1.491 . S
C91 O106 1.254 . S
C91 O107 1.225 . S
C92 C91 1.491 . S
C92 C93 1.392 . S
C92 C97 1.356 . S
C93 C92 1.392 . S
C93 C94 1.368 . S
C93 H116 0.929 . S
C94 C93 1.368 . S
C94 C95 1.386 . S
C94 H117 0.929 . S
C95 C94 1.386 . S
C95 C96 1.373 . S
C96 C95 1.373 . S
C96 C97 1.409 . S
C96 H118 0.931 . S
C97 C92 1.356 . S
C97 C96 1.409 . S
C97 H119 0.930 . S
C98 O108 1.270 . S
C98 O109 1.248 . S
C99 O110 1.267 . S
C99 O111 1.278 . S
O100 Pr80 2.562 . S
O100 C82 1.254 . S
O101 Pr80 2.490 . S
O101 C82 1.225 . S
O102 Pr80 2.695 1_455 S
O102 Pr81 2.436 . S
O102 C89 1.270 . S
O103 Pr80 2.512 . S
O103 C89 1.248 1_655 S
O104 Pr81 2.438 . S
O104 C90 1.267 1_455 S
O105 Pr80 2.437 . S
O105 C90 1.278 . S
O106 Pr81 2.562 . S
O106 C91 1.254 . S
O107 Pr81 2.490 . S
O107 C91 1.225 . S
O108 Pr80 2.436 1_455 S
O108 Pr81 2.695 . S
O108 C98 1.270 . S
O109 Pr81 2.512 . S
O109 C98 1.248 . S
O110 Pr80 2.438 1_455 S
O110 C99 1.267 . S
O111 Pr81 2.437 . S
O111 C99 1.278 . S
H112 C84 0.929 . S
H113 C85 0.929 . S
H114 C87 0.931 . S
H115 C88 0.930 . S
H116 C93 0.929 . S
H117 C94 0.929 . S
H118 C96 0.931 . S
H119 C97 0.930 . S
Pr120 C122 2.880 . S
Pr120 O140 2.562 . S
Pr120 O141 2.490 . S
Pr120 O142 2.695 . S
Pr120 O143 2.512 . S
Pr120 O145 2.437 . S
Pr120 O148 2.436 . S
Pr120 O150 2.438 . S
Pr121 C131 2.880 . S
Pr121 O142 2.436 . S
Pr121 O144 2.438 . S
Pr121 O146 2.562 . S
Pr121 O147 2.490 . S
Pr121 O148 2.695 . S
Pr121 O149 2.512 . S
Pr121 O151 2.437 . S
C122 Pr120 2.880 . S
C122 C123 1.491 . S
C122 O140 1.254 . S
C122 O141 1.225 . S
C123 C122 1.491 . S
C123 C124 1.392 . S
C123 C128 1.356 . S
C124 C123 1.392 . S
C124 C125 1.368 . S
C124 H152 0.929 . S
C125 C124 1.368 . S
C125 C126 1.386 . S
C125 H153 0.929 . S
C126 C125 1.386 . S
C126 C127 1.373 . S
C127 C126 1.373 . S
C127 C128 1.409 . S
C127 H154 0.931 . S
C128 C123 1.356 . S
C128 C127 1.409 . S
C128 H155 0.930 . S
C129 O142 1.270 . S
C129 O143 1.248 . S
C130 O144 1.267 . S
C130 O145 1.278 . S
C131 Pr121 2.880 . S
C131 C132 1.502 . S
C131 O146 1.254 . S
C131 O147 1.225 . S
C132 C131 1.502 . S
C132 C133 1.386 1_455 S
C132 C137 1.350 1_455 S
C133 C132 1.386 1_655 S
C133 C134 1.368 . S
C133 H156 0.929 . S
C134 C133 1.368 . S
C134 C135 1.386 . S
C134 H157 0.929 . S
C135 C134 1.386 . S
C135 C136 1.373 . S
C136 C135 1.373 . S
C136 C137 1.409 . S
C136 H158 0.931 . S
C137 C132 1.350 1_655 S
C137 C136 1.409 . S
C137 H159 0.930 . S
C138 O148 1.270 . S
C138 O149 1.248 . S
C139 O150 1.267 . S
C139 O151 1.278 . S
O140 Pr120 2.562 . S
O140 C122 1.254 . S
O141 Pr120 2.490 . S
O141 C122 1.225 . S
O142 Pr120 2.695 . S
O142 Pr121 2.436 . S
O142 C129 1.270 . S
O143 Pr120 2.512 . S
O143 C129 1.248 . S
O144 Pr121 2.438 . S
O144 C130 1.267 . S
O145 Pr120 2.437 . S
O145 C130 1.278 . S
O146 Pr121 2.562 . S
O146 C131 1.254 . S
O147 Pr121 2.490 . S
O147 C131 1.225 . S
O148 Pr120 2.436 . S
O148 Pr121 2.695 . S
O148 C138 1.270 . S
O149 Pr121 2.512 . S
O149 C138 1.248 . S
O150 Pr120 2.438 . S
O150 C139 1.267 . S
O151 Pr121 2.437 . S
O151 C139 1.278 . S
H152 C124 0.929 . S
H153 C125 0.929 . S
H154 C127 0.931 . S
H155 C128 0.930 . S
H156 C133 0.929 . S
H157 C134 0.929 . S
H158 C136 0.931 . S
H159 C137 0.930 . S
Pr160 C162 2.880 . S
Pr160 O180 2.562 . S
Pr160 O181 2.490 . S
Pr160 O182 2.695 . S
Pr160 O183 2.512 . S
Pr160 O185 2.437 . S
Pr160 O188 2.436 . S
Pr160 O190 2.438 . S
Pr161 C171 2.880 . S
Pr161 O182 2.436 1_455 S
Pr161 O184 2.438 1_455 S
Pr161 O186 2.562 . S
Pr161 O187 2.490 . S
Pr161 O188 2.695 1_455 S
Pr161 O189 2.512 . S
Pr161 O191 2.437 . S
C162 Pr160 2.880 . S
C162 C163 1.491 . S
C162 O180 1.254 . S
C162 O181 1.225 . S
C163 C162 1.491 . S
C163 C164 1.392 . S
C163 C168 1.356 . S
C164 C163 1.392 . S
C164 C165 1.368 . S
C164 H192 0.929 . S
C165 C164 1.368 . S
C165 C166 1.386 . S
C165 H193 0.929 . S
C166 C165 1.386 . S
C166 C167 1.373 . S
C167 C166 1.373 . S
C167 C168 1.409 . S
C167 H194 0.931 . S
C168 C163 1.356 . S
C168 C167 1.409 . S
C168 H195 0.930 . S
C169 O182 1.270 . S
C169 O183 1.248 . S
C170 O184 1.267 . S
C170 O185 1.278 . S
C171 Pr161 2.880 . S
C171 C172 1.491 . S
C171 O186 1.254 . S
C171 O187 1.225 . S
C172 C171 1.491 . S
C172 C173 1.392 . S
C172 C177 1.356 . S
C173 C172 1.392 . S
C173 C174 1.368 . S
C173 H196 0.929 . S
C174 C173 1.368 . S
C174 C175 1.386 . S
C174 H197 0.929 . S
C175 C174 1.386 . S
C175 C176 1.373 . S
C176 C175 1.373 . S
C176 C177 1.409 . S
C176 H198 0.931 . S
C177 C172 1.356 . S
C177 C176 1.409 . S
C177 H199 0.930 . S
C178 O188 1.270 . S
C178 O189 1.248 1_655 S
C179 O190 1.267 1_455 S
C179 O191 1.278 . S
O180 Pr160 2.562 . S
O180 C162 1.254 . S
O181 Pr160 2.490 . S
O181 C162 1.225 . S
O182 Pr160 2.695 . S
O182 Pr161 2.436 1_655 S
O182 C169 1.270 . S
O183 Pr160 2.512 . S
O183 C169 1.248 . S
O184 Pr161 2.438 1_655 S
O184 C170 1.267 . S
O185 Pr160 2.437 . S
O185 C170 1.278 . S
O186 Pr161 2.562 . S
O186 C171 1.254 . S
O187 Pr161 2.490 . S
O187 C171 1.225 . S
O188 Pr160 2.436 . S
O188 Pr161 2.695 1_655 S
O188 C178 1.270 . S
O189 Pr161 2.512 . S
O189 C178 1.248 1_455 S
O190 Pr160 2.438 . S
O190 C179 1.267 1_655 S
O191 Pr161 2.437 . S
O191 C179 1.278 . S
H192 C164 0.929 . S
H193 C165 0.929 . S
H194 C167 0.931 . S
H195 C168 0.930 . S
H196 C173 0.929 . S
H197 C174 0.929 . S
H198 C176 0.931 . S
H199 C177 0.930 . S
Pr200 C202 2.880 . S
Pr200 O220 2.562 . S
Pr200 O221 2.490 . S
Pr200 O222 2.695 . S
Pr200 O223 2.512 . S
Pr200 O225 2.437 . S
Pr200 O228 2.436 . S
Pr200 O230 2.438 . S
Pr201 C211 2.880 . S
Pr201 O222 2.436 . S
Pr201 O224 2.438 . S
Pr201 O226 2.562 . S
Pr201 O227 2.490 . S
Pr201 O228 2.695 . S
Pr201 O229 2.512 . S
Pr201 O231 2.437 . S
C202 Pr200 2.880 . S
C202 C203 1.502 . S
C202 O220 1.254 . S
C202 O221 1.225 . S
C203 C202 1.502 . S
C203 C204 1.386 1_655 S
C203 C208 1.350 1_655 S
C204 C203 1.386 1_455 S
C204 C205 1.368 . S
C204 H232 0.929 . S
C205 C204 1.368 . S
C205 C206 1.386 . S
C205 H233 0.929 . S
C206 C205 1.386 . S
C206 C207 1.373 . S
C207 C206 1.373 . S
C207 C208 1.409 . S
C207 H234 0.931 . S
C208 C203 1.350 1_455 S
C208 C207 1.409 . S
C208 H235 0.930 . S
C209 O222 1.270 . S
C209 O223 1.248 . S
C210 O224 1.267 . S
C210 O225 1.278 . S
C211 Pr201 2.880 . S
C211 C212 1.491 . S
C211 O226 1.254 . S
C211 O227 1.225 . S
C212 C211 1.491 . S
C212 C213 1.392 . S
C212 C217 1.356 . S
C213 C212 1.392 . S
C213 C214 1.368 . S
C213 H236 0.929 . S
C214 C213 1.368 . S
C214 C215 1.386 . S
C214 H237 0.929 . S
C215 C214 1.386 . S
C215 C216 1.373 . S
C216 C215 1.373 . S
C216 C217 1.409 . S
C216 H238 0.931 . S
C217 C212 1.356 . S
C217 C216 1.409 . S
C217 H239 0.930 . S
C218 O228 1.270 . S
C218 O229 1.248 . S
C219 O230 1.267 . S
C219 O231 1.278 . S
O220 Pr200 2.562 . S
O220 C202 1.254 . S
O221 Pr200 2.490 . S
O221 C202 1.225 . S
O222 Pr200 2.695 . S
O222 Pr201 2.436 . S
O222 C209 1.270 . S
O223 Pr200 2.512 . S
O223 C209 1.248 . S
O224 Pr201 2.438 . S
O224 C210 1.267 . S
O225 Pr200 2.437 . S
O225 C210 1.278 . S
O226 Pr201 2.562 . S
O226 C211 1.254 . S
O227 Pr201 2.490 . S
O227 C211 1.225 . S
O228 Pr200 2.436 . S
O228 Pr201 2.695 . S
O228 C218 1.270 . S
O229 Pr201 2.512 . S
O229 C218 1.248 . S
O230 Pr200 2.438 . S
O230 C219 1.267 . S
O231 Pr201 2.437 . S
O231 C219 1.278 . S
H232 C204 0.929 . S
H233 C205 0.929 . S
H234 C207 0.931 . S
H235 C208 0.930 . S
H236 C213 0.929 . S
H237 C214 0.929 . S
H238 C216 0.931 . S
H239 C217 0.930 . S
Pr240 C242 2.880 . S
Pr240 O260 2.562 . S
Pr240 O261 2.490 . S
Pr240 O262 2.695 . S
Pr240 O263 2.512 . S
Pr240 O265 2.437 . S
Pr240 O268 2.436 . S
Pr240 O270 2.438 . S
Pr241 C251 2.880 . S
Pr241 O262 2.436 1_455 S
Pr241 O264 2.438 1_455 S
Pr241 O266 2.562 . S
Pr241 O267 2.490 . S
Pr241 O268 2.695 1_455 S
Pr241 O269 2.512 . S
Pr241 O271 2.437 . S
C242 Pr240 2.880 . S
C242 C243 1.491 . S
C242 O260 1.254 . S
C242 O261 1.225 . S
C243 C242 1.491 . S
C243 C244 1.392 . S
C243 C248 1.356 . S
C244 C243 1.392 . S
C244 C245 1.368 . S
C244 H272 0.929 . S
C245 C244 1.368 . S
C245 C246 1.386 . S
C245 H273 0.929 . S
C246 C245 1.386 . S
C246 C247 1.373 . S
C247 C246 1.373 . S
C247 C248 1.409 . S
C247 H274 0.931 . S
C248 C243 1.356 . S
C248 C247 1.409 . S
C248 H275 0.930 . S
C249 O262 1.270 . S
C249 O263 1.248 . S
C250 O264 1.267 . S
C250 O265 1.278 . S
C251 Pr241 2.880 . S
C251 C252 1.491 . S
C251 O266 1.254 . S
C251 O267 1.225 . S
C252 C251 1.491 . S
C252 C253 1.392 . S
C252 C257 1.356 . S
C253 C252 1.392 . S
C253 C254 1.368 . S
C253 H276 0.929 . S
C254 C253 1.368 . S
C254 C255 1.386 . S
C254 H277 0.929 . S
C255 C254 1.386 . S
C255 C256 1.373 . S
C256 C255 1.373 . S
C256 C257 1.409 . S
C256 H278 0.931 . S
C257 C252 1.356 . S
C257 C256 1.409 . S
C257 H279 0.930 . S
C258 O268 1.270 . S
C258 O269 1.248 1_655 S
C259 O270 1.267 1_455 S
C259 O271 1.278 . S
O260 Pr240 2.562 . S
O260 C242 1.254 . S
O261 Pr240 2.490 . S
O261 C242 1.225 . S
O262 Pr240 2.695 . S
O262 Pr241 2.436 1_655 S
O262 C249 1.270 . S
O263 Pr240 2.512 . S
O263 C249 1.248 . S
O264 Pr241 2.438 1_655 S
O264 C250 1.267 . S
O265 Pr240 2.437 . S
O265 C250 1.278 . S
O266 Pr241 2.562 . S
O266 C251 1.254 . S
O267 Pr241 2.490 . S
O267 C251 1.225 . S
O268 Pr240 2.436 . S
O268 Pr241 2.695 1_655 S
O268 C258 1.270 . S
O269 Pr241 2.512 . S
O269 C258 1.248 1_455 S
O270 Pr240 2.438 . S
O270 C259 1.267 1_655 S
O271 Pr241 2.437 . S
O271 C259 1.278 . S
H272 C244 0.929 . S
H273 C245 0.929 . S
H274 C247 0.931 . S
H275 C248 0.930 . S
H276 C253 0.929 . S
H277 C254 0.929 . S
H278 C256 0.931 . S
H279 C257 0.930 . S
Pr280 C282 2.880 . S
Pr280 O300 2.562 . S
Pr280 O301 2.490 . S
Pr280 O302 2.695 . S
Pr280 O303 2.512 . S
Pr280 O305 2.437 . S
Pr280 O308 2.436 . S
Pr280 O310 2.438 . S
Pr281 C291 2.880 . S
Pr281 O302 2.436 . S
Pr281 O304 2.438 . S
Pr281 O306 2.562 . S
Pr281 O307 2.490 . S
Pr281 O308 2.695 . S
Pr281 O309 2.512 . S
Pr281 O311 2.437 . S
C282 Pr280 2.880 . S
C282 C283 1.502 . S
C282 O300 1.254 . S
C282 O301 1.225 . S
C283 C282 1.502 . S
C283 C284 1.386 1_655 S
C283 C288 1.350 1_655 S
C284 C283 1.386 1_455 S
C284 C285 1.368 . S
C284 H312 0.929 . S
C285 C284 1.368 . S
C285 C286 1.386 . S
C285 H313 0.929 . S
C286 C285 1.386 . S
C286 C287 1.373 . S
C287 C286 1.373 . S
C287 C288 1.409 . S
C287 H314 0.931 . S
C288 C283 1.350 1_455 S
C288 C287 1.409 . S
C288 H315 0.930 . S
C289 O302 1.270 . S
C289 O303 1.248 . S
C290 O304 1.267 . S
C290 O305 1.278 . S
C291 Pr281 2.880 . S
C291 C292 1.491 . S
C291 O306 1.254 . S
C291 O307 1.225 . S
C292 C291 1.491 . S
C292 C293 1.392 . S
C292 C297 1.356 . S
C293 C292 1.392 . S
C293 C294 1.368 . S
C293 H316 0.929 . S
C294 C293 1.368 . S
C294 C295 1.386 . S
C294 H317 0.929 . S
C295 C294 1.386 . S
C295 C296 1.373 . S
C296 C295 1.373 . S
C296 C297 1.409 . S
C296 H318 0.931 . S
C297 C292 1.356 . S
C297 C296 1.409 . S
C297 H319 0.930 . S
C298 O308 1.270 . S
C298 O309 1.248 . S
C299 O310 1.267 . S
C299 O311 1.278 . S
O300 Pr280 2.562 . S
O300 C282 1.254 . S
O301 Pr280 2.490 . S
O301 C282 1.225 . S
O302 Pr280 2.695 . S
O302 Pr281 2.436 . S
O302 C289 1.270 . S
O303 Pr280 2.512 . S
O303 C289 1.248 . S
O304 Pr281 2.438 . S
O304 C290 1.267 . S
O305 Pr280 2.437 . S
O305 C290 1.278 . S
O306 Pr281 2.562 . S
O306 C291 1.254 . S
O307 Pr281 2.490 . S
O307 C291 1.225 . S
O308 Pr280 2.436 . S
O308 Pr281 2.695 . S
O308 C298 1.270 . S
O309 Pr281 2.512 . S
O309 C298 1.248 . S
O310 Pr280 2.438 . S
O310 C299 1.267 . S
O311 Pr281 2.437 . S
O311 C299 1.278 . S
H312 C284 0.929 . S
H313 C285 0.929 . S
H314 C287 0.931 . S
H315 C288 0.930 . S
H316 C293 0.929 . S
H317 C294 0.929 . S
H318 C296 0.931 . S
H319 C297 0.930 . S
Pr320 C322 2.872 1_545 S
Pr320 O340 2.562 1_545 S
Pr320 O341 2.490 . S
Pr320 O342 2.695 1_645 S
Pr320 O343 2.512 . S
Pr320 O345 2.437 1_545 S
Pr320 O348 2.436 1_645 S
Pr320 O350 2.438 1_655 S
Pr321 C331 2.880 . S
Pr321 O342 2.436 . S
Pr321 O344 2.438 . S
Pr321 O346 2.562 . S
Pr321 O347 2.490 . S
Pr321 O348 2.695 . S
Pr321 O349 2.512 . S
Pr321 O351 2.437 1_565 S
C322 Pr320 2.872 1_565 S
C322 C323 1.500 . S
C322 O340 1.258 . S
C322 O341 1.213 1_565 S
C323 C322 1.500 . S
C323 C324 1.392 . S
C323 C328 1.356 . S
C324 C323 1.392 . S
C324 C325 1.368 . S
C324 H352 0.929 1_565 S
C325 C324 1.368 . S
C325 C326 1.386 . S
C325 H353 0.929 . S
C326 C325 1.386 . S
C326 C327 1.373 . S
C327 C326 1.373 . S
C327 C328 1.409 . S
C327 H354 0.931 . S
C328 C323 1.356 . S
C328 C327 1.409 . S
C328 H355 0.930 . S
C329 O342 1.270 . S
C329 O343 1.248 1_465 S
C330 O344 1.267 1_655 S
C330 O345 1.278 . S
C331 Pr321 2.880 . S
C331 C332 1.491 . S
C331 O346 1.254 . S
C331 O347 1.225 . S
C332 C331 1.491 . S
C332 C333 1.392 . S
C332 C337 1.356 1_565 S
C333 C332 1.392 . S
C333 C334 1.368 . S
C333 H356 0.929 . S
C334 C333 1.368 . S
C334 C335 1.386 1_565 S
C334 H357 0.929 . S
C335 C334 1.386 1_545 S
C335 C336 1.373 . S
C336 C335 1.373 . S
C336 C337 1.409 . S
C336 H358 0.931 . S
C337 C332 1.356 1_545 S
C337 C336 1.409 . S
C337 H359 0.930 . S
C338 O348 1.270 . S
C338 O349 1.248 . S
C339 O350 1.267 . S
C339 O351 1.278 . S
O340 Pr320 2.562 1_565 S
O340 C322 1.258 . S
O341 Pr320 2.490 . S
O341 C322 1.213 1_545 S
O342 Pr320 2.695 1_465 S
O342 Pr321 2.436 . S
O342 C329 1.270 . S
O343 Pr320 2.512 . S
O343 C329 1.248 1_645 S
O344 Pr321 2.438 . S
O344 C330 1.267 1_455 S
O345 Pr320 2.437 1_565 S
O345 C330 1.278 . S
O346 Pr321 2.562 . S
O346 C331 1.254 . S
O347 Pr321 2.490 . S
O347 C331 1.225 . S
O348 Pr320 2.436 1_465 S
O348 Pr321 2.695 . S
O348 C338 1.270 . S
O349 Pr321 2.512 . S
O349 C338 1.248 . S
O350 Pr320 2.438 1_455 S
O350 C339 1.267 . S
O351 Pr321 2.437 1_545 S
O351 C339 1.278 . S
H352 C324 0.929 1_545 S
H353 C325 0.929 . S
H354 C327 0.931 . S
H355 C328 0.930 . S
H356 C333 0.929 . S
H357 C334 0.929 . S
H358 C336 0.931 . S
H359 C337 0.930 . S
Pr360 C362 2.880 . S
Pr360 O380 2.562 . S
Pr360 O381 2.490 . S
Pr360 O382 2.695 . S
Pr360 O383 2.512 . S
Pr360 O385 2.437 . S
Pr360 O388 2.436 . S
Pr360 O390 2.438 . S
Pr361 C371 2.880 . S
Pr361 O382 2.436 . S
Pr361 O384 2.438 . S
Pr361 O386 2.562 . S
Pr361 O387 2.490 . S
Pr361 O388 2.695 . S
Pr361 O389 2.512 . S
Pr361 O391 2.437 . S
C362 Pr360 2.880 . S
C362 C363 1.491 . S
C362 O380 1.254 . S
C362 O381 1.225 . S
C363 C362 1.491 . S
C363 C364 1.392 . S
C363 C368 1.356 . S
C364 C363 1.392 . S
C364 C365 1.368 . S
C364 H392 0.929 . S
C365 C364 1.368 . S
C365 C366 1.386 . S
C365 H393 0.929 . S
C366 C365 1.386 . S
C366 C367 1.373 . S
C367 C366 1.373 . S
C367 C368 1.409 . S
C367 H394 0.931 . S
C368 C363 1.356 . S
C368 C367 1.409 . S
C368 H395 0.930 . S
C369 O382 1.270 . S
C369 O383 1.248 . S
C370 O384 1.267 . S
C370 O385 1.278 . S
C371 Pr361 2.880 . S
C371 C372 1.502 . S
C371 O386 1.254 . S
C371 O387 1.225 . S
C372 C371 1.502 . S
C372 C373 1.386 1_455 S
C372 C377 1.350 1_455 S
C373 C372 1.386 1_655 S
C373 C374 1.368 . S
C373 H396 0.929 . S
C374 C373 1.368 . S
C374 C375 1.386 . S
C374 H397 0.929 . S
C375 C374 1.386 . S
C375 C376 1.373 . S
C376 C375 1.373 . S
C376 C377 1.409 . S
C376 H398 0.931 . S
C377 C372 1.350 1_655 S
C377 C376 1.409 . S
C377 H399 0.930 . S
C378 O388 1.270 . S
C378 O389 1.248 . S
C379 O390 1.267 . S
C379 O391 1.278 . S
O380 Pr360 2.562 . S
O380 C362 1.254 . S
O381 Pr360 2.490 . S
O381 C362 1.225 . S
O382 Pr360 2.695 . S
O382 Pr361 2.436 . S
O382 C369 1.270 . S
O383 Pr360 2.512 . S
O383 C369 1.248 . S
O384 Pr361 2.438 . S
O384 C370 1.267 . S
O385 Pr360 2.437 . S
O385 C370 1.278 . S
O386 Pr361 2.562 . S
O386 C371 1.254 . S
O387 Pr361 2.490 . S
O387 C371 1.225 . S
O388 Pr360 2.436 . S
O388 Pr361 2.695 . S
O388 C378 1.270 . S
O389 Pr361 2.512 . S
O389 C378 1.248 . S
O390 Pr360 2.438 . S
O390 C379 1.267 . S
O391 Pr361 2.437 . S
O391 C379 1.278 . S
H392 C364 0.929 . S
H393 C365 0.929 . S
H394 C367 0.931 . S
H395 C368 0.930 . S
H396 C373 0.929 . S
H397 C374 0.929 . S
H398 C376 0.931 . S
H399 C377 0.930 . S
Pr400 C402 2.880 . S
Pr400 O420 2.562 . S
Pr400 O421 2.490 . S
Pr400 O422 2.695 1_655 S
Pr400 O423 2.512 . S
Pr400 O425 2.437 . S
Pr400 O428 2.436 1_655 S
Pr400 O430 2.438 1_655 S
Pr401 C411 2.880 . S
Pr401 O422 2.436 . S
Pr401 O424 2.438 . S
Pr401 O426 2.562 . S
Pr401 O427 2.490 . S
Pr401 O428 2.695 . S
Pr401 O429 2.512 . S
Pr401 O431 2.437 . S
C402 Pr400 2.880 . S
C402 C403 1.491 . S
C402 O420 1.254 . S
C402 O421 1.225 . S
C403 C402 1.491 . S
C403 C404 1.392 . S
C403 C408 1.356 . S
C404 C403 1.392 . S
C404 C405 1.368 . S
C404 H432 0.929 . S
C405 C404 1.368 . S
C405 C406 1.386 . S
C405 H433 0.929 . S
C406 C405 1.386 . S
C406 C407 1.373 . S
C407 C406 1.373 . S
C407 C408 1.409 . S
C407 H434 0.931 . S
C408 C403 1.356 . S
C408 C407 1.409 . S
C408 H435 0.930 . S
C409 O422 1.270 . S
C409 O423 1.248 1_455 S
C410 O424 1.267 1_655 S
C410 O425 1.278 . S
C411 Pr401 2.880 . S
C411 C412 1.491 . S
C411 O426 1.254 . S
C411 O427 1.225 . S
C412 C411 1.491 . S
C412 C413 1.392 . S
C412 C417 1.356 . S
C413 C412 1.392 . S
C413 C414 1.368 . S
C413 H436 0.929 . S
C414 C413 1.368 . S
C414 C415 1.386 . S
C414 H437 0.929 . S
C415 C414 1.386 . S
C415 C416 1.373 . S
C416 C415 1.373 . S
C416 C417 1.409 . S
C416 H438 0.931 . S
C417 C412 1.356 . S
C417 C416 1.409 . S
C417 H439 0.930 . S
C418 O428 1.270 . S
C418 O429 1.248 . S
C419 O430 1.267 . S
C419 O431 1.278 . S
O420 Pr400 2.562 . S
O420 C402 1.254 . S
O421 Pr400 2.490 . S
O421 C402 1.225 . S
O422 Pr400 2.695 1_455 S
O422 Pr401 2.436 . S
O422 C409 1.270 . S
O423 Pr400 2.512 . S
O423 C409 1.248 1_655 S
O424 Pr401 2.438 . S
O424 C410 1.267 1_455 S
O425 Pr400 2.437 . S
O425 C410 1.278 . S
O426 Pr401 2.562 . S
O426 C411 1.254 . S
O427 Pr401 2.490 . S
O427 C411 1.225 . S
O428 Pr400 2.436 1_455 S
O428 Pr401 2.695 . S
O428 C418 1.270 . S
O429 Pr401 2.512 . S
O429 C418 1.248 . S
O430 Pr400 2.438 1_455 S
O430 C419 1.267 . S
O431 Pr401 2.437 . S
O431 C419 1.278 . S
H432 C404 0.929 . S
H433 C405 0.929 . S
H434 C407 0.931 . S
H435 C408 0.930 . S
H436 C413 0.929 . S
H437 C414 0.929 . S
H438 C416 0.931 . S
H439 C417 0.930 . S
Pr440 C442 2.872 1_545 S
Pr440 O460 2.562 1_545 S
Pr440 O461 2.490 . S
Pr440 O462 2.695 1_545 S
Pr440 O463 2.512 . S
Pr440 O465 2.437 1_545 S
Pr440 O468 2.436 1_545 S
Pr440 O470 2.438 . S
Pr441 C451 2.880 . S
Pr441 O462 2.436 . S
Pr441 O464 2.438 . S
Pr441 O466 2.562 . S
Pr441 O467 2.490 . S
Pr441 O468 2.695 . S
Pr441 O469 2.512 . S
Pr441 O471 2.437 1_565 S
C442 Pr440 2.872 1_565 S
C442 C443 1.500 . S
C442 O460 1.258 . S
C442 O461 1.213 1_565 S
C443 C442 1.500 . S
C443 C444 1.392 . S
C443 C448 1.356 . S
C444 C443 1.392 . S
C444 C445 1.368 . S
C444 H472 0.929 1_565 S
C445 C444 1.368 . S
C445 C446 1.386 . S
C445 H473 0.929 . S
C446 C445 1.386 . S
C446 C447 1.373 . S
C447 C446 1.373 . S
C447 C448 1.409 . S
C447 H474 0.931 . S
C448 C443 1.356 . S
C448 C447 1.409 . S
C448 H475 0.930 . S
C449 O462 1.270 . S
C449 O463 1.248 1_565 S
C450 O464 1.267 . S
C450 O465 1.278 . S
C451 Pr441 2.880 . S
C451 C452 1.502 . S
C451 O466 1.254 . S
C451 O467 1.225 . S
C452 C451 1.502 . S
C452 C453 1.386 1_455 S
C452 C457 1.350 1_465 S
C453 C452 1.386 1_655 S
C453 C454 1.368 . S
C453 H476 0.929 . S
C454 C453 1.368 . S
C454 C455 1.386 1_565 S
C454 H477 0.929 . S
C455 C454 1.386 1_545 S
C455 C456 1.373 . S
C456 C455 1.373 . S
C456 C457 1.409 . S
C456 H478 0.931 . S
C457 C452 1.350 1_645 S
C457 C456 1.409 . S
C457 H479 0.930 . S
C458 O468 1.270 . S
C458 O469 1.248 . S
C459 O470 1.267 . S
C459 O471 1.278 . S
O460 Pr440 2.562 1_565 S
O460 C442 1.258 . S
O461 Pr440 2.490 . S
O461 C442 1.213 1_545 S
O462 Pr440 2.695 1_565 S
O462 Pr441 2.436 . S
O462 C449 1.270 . S
O463 Pr440 2.512 . S
O463 C449 1.248 1_545 S
O464 Pr441 2.438 . S
O464 C450 1.267 . S
O465 Pr440 2.437 1_565 S
O465 C450 1.278 . S
O466 Pr441 2.562 . S
O466 C451 1.254 . S
O467 Pr441 2.490 . S
O467 C451 1.225 . S
O468 Pr440 2.436 1_565 S
O468 Pr441 2.695 . S
O468 C458 1.270 . S
O469 Pr441 2.512 . S
O469 C458 1.248 . S
O470 Pr440 2.438 . S
O470 C459 1.267 . S
O471 Pr441 2.437 1_545 S
O471 C459 1.278 . S
H472 C444 0.929 1_545 S
H473 C445 0.929 . S
H474 C447 0.931 . S
H475 C448 0.930 . S
H476 C453 0.929 . S
H477 C454 0.929 . S
H478 C456 0.931 . S
H479 C457 0.930 . S
Pr480 C482 2.880 . S
Pr480 O500 2.562 . S
Pr480 O501 2.490 . S
Pr480 O502 2.695 . S
Pr480 O503 2.512 . S
Pr480 O505 2.437 1_545 S
Pr480 O508 2.436 . S
Pr480 O510 2.438 . S
Pr481 C491 2.872 1_565 S
Pr481 O502 2.436 1_465 S
Pr481 O504 2.438 1_455 S
Pr481 O506 2.562 1_565 S
Pr481 O507 2.490 . S
Pr481 O508 2.695 1_465 S
Pr481 O509 2.512 . S
Pr481 O511 2.437 1_565 S
C482 Pr480 2.880 . S
C482 C483 1.491 . S
C482 O500 1.254 . S
C482 O501 1.225 . S
C483 C482 1.491 . S
C483 C484 1.392 . S
C483 C488 1.356 1_545 S
C484 C483 1.392 . S
C484 C485 1.368 . S
C484 H512 0.929 . S
C485 C484 1.368 . S
C485 C486 1.386 1_545 S
C485 H513 0.929 . S
C486 C485 1.386 1_565 S
C486 C487 1.373 . S
C487 C486 1.373 . S
C487 C488 1.409 . S
C487 H514 0.931 . S
C488 C483 1.356 1_565 S
C488 C487 1.409 . S
C488 H515 0.930 . S
C489 O502 1.270 . S
C489 O503 1.248 . S
C490 O504 1.267 . S
C490 O505 1.278 . S
C491 Pr481 2.872 1_545 S
C491 C492 1.500 . S
C491 O506 1.258 . S
C491 O507 1.213 1_545 S
C492 C491 1.500 . S
C492 C493 1.392 . S
C492 C497 1.356 . S
C493 C492 1.392 . S
C493 C494 1.368 . S
C493 H516 0.929 1_545 S
C494 C493 1.368 . S
C494 C495 1.386 . S
C494 H517 0.929 . S
C495 C494 1.386 . S
C495 C496 1.373 . S
C496 C495 1.373 . S
C496 C497 1.409 . S
C496 H518 0.931 . S
C497 C492 1.356 . S
C497 C496 1.409 . S
C497 H519 0.930 . S
C498 O508 1.270 . S
C498 O509 1.248 1_645 S
C499 O510 1.267 1_455 S
C499 O511 1.278 . S
O500 Pr480 2.562 . S
O500 C482 1.254 . S
O501 Pr480 2.490 . S
O501 C482 1.225 . S
O502 Pr480 2.695 . S
O502 Pr481 2.436 1_645 S
O502 C489 1.270 . S
O503 Pr480 2.512 . S
O503 C489 1.248 . S
O504 Pr481 2.438 1_655 S
O504 C490 1.267 . S
O505 Pr480 2.437 1_565 S
O505 C490 1.278 . S
O506 Pr481 2.562 1_545 S
O506 C491 1.258 . S
O507 Pr481 2.490 . S
O507 C491 1.213 1_565 S
O508 Pr480 2.436 . S
O508 Pr481 2.695 1_645 S
O508 C498 1.270 . S
O509 Pr481 2.512 . S
O509 C498 1.248 1_465 S
O510 Pr480 2.438 . S
O510 C499 1.267 1_655 S
O511 Pr481 2.437 1_545 S
O511 C499 1.278 . S
H512 C484 0.929 . S
H513 C485 0.929 . S
H514 C487 0.931 . S
H515 C488 0.930 . S
H516 C493 0.929 1_565 S
H517 C494 0.929 . S
H518 C496 0.931 . S
H519 C497 0.930 . S
Pr520 C522 2.880 . S
Pr520 O540 2.562 . S
Pr520 O541 2.490 . S
Pr520 O542 2.695 . S
Pr520 O543 2.512 . S
Pr520 O545 2.437 . S
Pr520 O548 2.436 . S
Pr520 O550 2.438 . S
Pr521 C531 2.880 . S
Pr521 O542 2.436 . S
Pr521 O544 2.438 . S
Pr521 O546 2.562 . S
Pr521 O547 2.490 . S
Pr521 O548 2.695 . S
Pr521 O549 2.512 . S
Pr521 O551 2.437 . S
C522 Pr520 2.880 . S
C522 C523 1.502 . S
C522 O540 1.254 . S
C522 O541 1.225 . S
C523 C522 1.502 . S
C523 C524 1.386 1_655 S
C523 C528 1.350 1_655 S
C524 C523 1.386 1_455 S
C524 C525 1.368 . S
C524 H552 0.929 . S
C525 C524 1.368 . S
C525 C526 1.386 . S
C525 H553 0.929 . S
C526 C525 1.386 . S
C526 C527 1.373 . S
C527 C526 1.373 . S
C527 C528 1.409 . S
C527 H554 0.931 . S
C528 C523 1.350 1_455 S
C528 C527 1.409 . S
C528 H555 0.930 . S
C529 O542 1.270 . S
C529 O543 1.248 . S
C530 O544 1.267 . S
C530 O545 1.278 . S
C531 Pr521 2.880 . S
C531 C532 1.491 . S
C531 O546 1.254 . S
C531 O547 1.225 . S
C532 C531 1.491 . S
C532 C533 1.392 . S
C532 C537 1.356 . S
C533 C532 1.392 . S
C533 C534 1.368 . S
C533 H556 0.929 . S
C534 C533 1.368 . S
C534 C535 1.386 . S
C534 H557 0.929 . S
C535 C534 1.386 . S
C535 C536 1.373 . S
C536 C535 1.373 . S
C536 C537 1.409 . S
C536 H558 0.931 . S
C537 C532 1.356 . S
C537 C536 1.409 . S
C537 H559 0.930 . S
C538 O548 1.270 . S
C538 O549 1.248 . S
C539 O550 1.267 . S
C539 O551 1.278 . S
O540 Pr520 2.562 . S
O540 C522 1.254 . S
O541 Pr520 2.490 . S
O541 C522 1.225 . S
O542 Pr520 2.695 . S
O542 Pr521 2.436 . S
O542 C529 1.270 . S
O543 Pr520 2.512 . S
O543 C529 1.248 . S
O544 Pr521 2.438 . S
O544 C530 1.267 . S
O545 Pr520 2.437 . S
O545 C530 1.278 . S
O546 Pr521 2.562 . S
O546 C531 1.254 . S
O547 Pr521 2.490 . S
O547 C531 1.225 . S
O548 Pr520 2.436 . S
O548 Pr521 2.695 . S
O548 C538 1.270 . S
O549 Pr521 2.512 . S
O549 C538 1.248 . S
O550 Pr520 2.438 . S
O550 C539 1.267 . S
O551 Pr521 2.437 . S
O551 C539 1.278 . S
H552 C524 0.929 . S
H553 C525 0.929 . S
H554 C527 0.931 . S
H555 C528 0.930 . S
H556 C533 0.929 . S
H557 C534 0.929 . S
H558 C536 0.931 . S
H559 C537 0.930 . S
Pr560 C562 2.880 . S
Pr560 O580 2.562 . S
Pr560 O581 2.490 . S
Pr560 O582 2.695 . S
Pr560 O583 2.512 . S
Pr560 O585 2.437 . S
Pr560 O588 2.436 . S
Pr560 O590 2.438 . S
Pr561 C571 2.880 . S
Pr561 O582 2.436 1_455 S
Pr561 O584 2.438 1_455 S
Pr561 O586 2.562 . S
Pr561 O587 2.490 . S
Pr561 O588 2.695 1_455 S
Pr561 O589 2.512 . S
Pr561 O591 2.437 . S
C562 Pr560 2.880 . S
C562 C563 1.491 . S
C562 O580 1.254 . S
C562 O581 1.225 . S
C563 C562 1.491 . S
C563 C564 1.392 . S
C563 C568 1.356 . S
C564 C563 1.392 . S
C564 C565 1.368 . S
C564 H592 0.929 . S
C565 C564 1.368 . S
C565 C566 1.386 . S
C565 H593 0.929 . S
C566 C565 1.386 . S
C566 C567 1.373 . S
C567 C566 1.373 . S
C567 C568 1.409 . S
C567 H594 0.931 . S
C568 C563 1.356 . S
C568 C567 1.409 . S
C568 H595 0.930 . S
C569 O582 1.270 . S
C569 O583 1.248 . S
C570 O584 1.267 . S
C570 O585 1.278 . S
C571 Pr561 2.880 . S
C571 C572 1.491 . S
C571 O586 1.254 . S
C571 O587 1.225 . S
C572 C571 1.491 . S
C572 C573 1.392 . S
C572 C577 1.356 . S
C573 C572 1.392 . S
C573 C574 1.368 . S
C573 H596 0.929 . S
C574 C573 1.368 . S
C574 C575 1.386 . S
C574 H597 0.929 . S
C575 C574 1.386 . S
C575 C576 1.373 . S
C576 C575 1.373 . S
C576 C577 1.409 . S
C576 H598 0.931 . S
C577 C572 1.356 . S
C577 C576 1.409 . S
C577 H599 0.930 . S
C578 O588 1.270 . S
C578 O589 1.248 1_655 S
C579 O590 1.267 1_455 S
C579 O591 1.278 . S
O580 Pr560 2.562 . S
O580 C562 1.254 . S
O581 Pr560 2.490 . S
O581 C562 1.225 . S
O582 Pr560 2.695 . S
O582 Pr561 2.436 1_655 S
O582 C569 1.270 . S
O583 Pr560 2.512 . S
O583 C569 1.248 . S
O584 Pr561 2.438 1_655 S
O584 C570 1.267 . S
O585 Pr560 2.437 . S
O585 C570 1.278 . S
O586 Pr561 2.562 . S
O586 C571 1.254 . S
O587 Pr561 2.490 . S
O587 C571 1.225 . S
O588 Pr560 2.436 . S
O588 Pr561 2.695 1_655 S
O588 C578 1.270 . S
O589 Pr561 2.512 . S
O589 C578 1.248 1_455 S
O590 Pr560 2.438 . S
O590 C579 1.267 1_655 S
O591 Pr561 2.437 . S
O591 C579 1.278 . S
H592 C564 0.929 . S
H593 C565 0.929 . S
H594 C567 0.931 . S
H595 C568 0.930 . S
H596 C573 0.929 . S
H597 C574 0.929 . S
H598 C576 0.931 . S
H599 C577 0.930 . S
Pr600 C602 2.880 . S
Pr600 O620 2.562 . S
Pr600 O621 2.490 . S
Pr600 O622 2.695 . S
Pr600 O623 2.512 . S
Pr600 O625 2.437 1_545 S
Pr600 O628 2.436 . S
Pr600 O630 2.438 . S
Pr601 C611 2.872 1_565 S
Pr601 O622 2.436 1_565 S
Pr601 O624 2.438 . S
Pr601 O626 2.562 1_565 S
Pr601 O627 2.490 . S
Pr601 O628 2.695 1_565 S
Pr601 O629 2.512 . S
Pr601 O631 2.437 1_565 S
C602 Pr600 2.880 . S
C602 C603 1.502 . S
C602 O620 1.254 . S
C602 O621 1.225 . S
C603 C602 1.502 . S
C603 C604 1.386 1_655 S
C603 C608 1.350 1_645 S
C604 C603 1.386 1_455 S
C604 C605 1.368 . S
C604 H632 0.929 . S
C605 C604 1.368 . S
C605 C606 1.386 1_545 S
C605 H633 0.929 . S
C606 C605 1.386 1_565 S
C606 C607 1.373 . S
C607 C606 1.373 . S
C607 C608 1.409 . S
C607 H634 0.931 . S
C608 C603 1.350 1_465 S
C608 C607 1.409 . S
C608 H635 0.930 . S
C609 O622 1.270 . S
C609 O623 1.248 . S
C610 O624 1.267 . S
C610 O625 1.278 . S
C611 Pr601 2.872 1_545 S
C611 C612 1.500 . S
C611 O626 1.258 . S
C611 O627 1.213 1_545 S
C612 C611 1.500 . S
C612 C613 1.392 . S
C612 C617 1.356 . S
C613 C612 1.392 . S
C613 C614 1.368 . S
C613 H636 0.929 1_545 S
C614 C613 1.368 . S
C614 C615 1.386 . S
C614 H637 0.929 . S
C615 C614 1.386 . S
C615 C616 1.373 . S
C616 C615 1.373 . S
C616 C617 1.409 . S
C616 H638 0.931 . S
C617 C612 1.356 . S
C617 C616 1.409 . S
C617 H639 0.930 . S
C618 O628 1.270 . S
C618 O629 1.248 1_545 S
C619 O630 1.267 . S
C619 O631 1.278 . S
O620 Pr600 2.562 . S
O620 C602 1.254 . S
O621 Pr600 2.490 . S
O621 C602 1.225 . S
O622 Pr600 2.695 . S
O622 Pr601 2.436 1_545 S
O622 C609 1.270 . S
O623 Pr600 2.512 . S
O623 C609 1.248 . S
O624 Pr601 2.438 . S
O624 C610 1.267 . S
O625 Pr600 2.437 1_565 S
O625 C610 1.278 . S
O626 Pr601 2.562 1_545 S
O626 C611 1.258 . S
O627 Pr601 2.490 . S
O627 C611 1.213 1_565 S
O628 Pr600 2.436 . S
O628 Pr601 2.695 1_545 S
O628 C618 1.270 . S
O629 Pr601 2.512 . S
O629 C618 1.248 1_565 S
O630 Pr600 2.438 . S
O630 C619 1.267 . S
O631 Pr601 2.437 1_545 S
O631 C619 1.278 . S
H632 C604 0.929 . S
H633 C605 0.929 . S
H634 C607 0.931 . S
H635 C608 0.930 . S
H636 C613 0.929 1_565 S
H637 C614 0.929 . S
H638 C616 0.931 . S
H639 C617 0.930 . S
Pr640 C642 2.880 . S
Pr640 O660 2.562 . S
Pr640 O661 2.490 . S
Pr640 O662 2.695 . S
Pr640 O663 2.512 . S
Pr640 O665 2.437 . S
Pr640 O668 2.436 . S
Pr640 O670 2.438 . S
Pr641 C651 2.880 . S
Pr641 O662 2.436 . S
Pr641 O664 2.438 . S
Pr641 O666 2.562 . S
Pr641 O667 2.490 . S
Pr641 O668 2.695 . S
Pr641 O669 2.512 . S
Pr641 O671 2.437 . S
C642 Pr640 2.880 . S
C642 C643 1.491 . S
C642 O660 1.254 . S
C642 O661 1.225 . S
C643 C642 1.491 . S
C643 C644 1.392 . S
C643 C648 1.356 . S
C644 C643 1.392 . S
C644 C645 1.368 . S
C644 H672 0.929 . S
C645 C644 1.368 . S
C645 C646 1.386 . S
C645 H673 0.929 . S
C646 C645 1.386 . S
C646 C647 1.373 . S
C647 C646 1.373 . S
C647 C648 1.409 . S
C647 H674 0.931 . S
C648 C643 1.356 . S
C648 C647 1.409 . S
C648 H675 0.930 . S
C649 O662 1.270 . S
C649 O663 1.248 . S
C650 O664 1.267 . S
C650 O665 1.278 . S
C651 Pr641 2.880 . S
C651 C652 1.491 . S
C651 O666 1.254 . S
C651 O667 1.225 . S
C652 C651 1.491 . S
C652 C653 1.392 . S
C652 C657 1.356 . S
C653 C652 1.392 . S
C653 C654 1.368 . S
C653 H676 0.929 . S
C654 C653 1.368 . S
C654 C655 1.386 . S
C654 H677 0.929 . S
C655 C654 1.386 . S
C655 C656 1.373 . S
C656 C655 1.373 . S
C656 C657 1.409 . S
C656 H678 0.931 . S
C657 C652 1.356 . S
C657 C656 1.409 . S
C657 H679 0.930 . S
C658 O668 1.270 . S
C658 O669 1.248 . S
C659 O670 1.267 . S
C659 O671 1.278 . S
O660 Pr640 2.562 . S
O660 C642 1.254 . S
O661 Pr640 2.490 . S
O661 C642 1.225 . S
O662 Pr640 2.695 . S
O662 Pr641 2.436 . S
O662 C649 1.270 . S
O663 Pr640 2.512 . S
O663 C649 1.248 . S
O664 Pr641 2.438 . S
O664 C650 1.267 . S
O665 Pr640 2.437 . S
O665 C650 1.278 . S
O666 Pr641 2.562 . S
O666 C651 1.254 . S
O667 Pr641 2.490 . S
O667 C651 1.225 . S
O668 Pr640 2.436 . S
O668 Pr641 2.695 . S
O668 C658 1.270 . S
O669 Pr641 2.512 . S
O669 C658 1.248 . S
O670 Pr640 2.438 . S
O670 C659 1.267 . S
O671 Pr641 2.437 . S
O671 C659 1.278 . S
H672 C644 0.929 . S
H673 C645 0.929 . S
H674 C647 0.931 . S
H675 C648 0.930 . S
H676 C653 0.929 . S
H677 C654 0.929 . S
H678 C656 0.931 . S
H679 C657 0.930 . S
Pr680 C682 2.880 . S
Pr680 O700 2.562 . S
Pr680 O701 2.490 . S
Pr680 O702 2.695 . S
Pr680 O703 2.512 . S
Pr680 O705 2.437 . S
Pr680 O708 2.436 . S
Pr680 O710 2.438 . S
Pr681 C691 2.880 . S
Pr681 O702 2.436 . S
Pr681 O704 2.438 . S
Pr681 O706 2.562 . S
Pr681 O707 2.490 . S
Pr681 O708 2.695 . S
Pr681 O709 2.512 . S
Pr681 O711 2.437 . S
C682 Pr680 2.880 . S
C682 C683 1.491 . S
C682 O700 1.254 . S
C682 O701 1.225 . S
C683 C682 1.491 . S
C683 C684 1.392 . S
C683 C688 1.356 . S
C684 C683 1.392 . S
C684 C685 1.368 1_655 S
C684 H712 0.929 . S
C685 C684 1.368 1_455 S
C685 C686 1.386 . S
C685 H713 0.929 . S
C686 C685 1.386 . S
C686 C687 1.373 . S
C687 C686 1.373 . S
C687 C688 1.409 1_455 S
C687 H714 0.931 . S
C688 C683 1.356 . S
C688 C687 1.409 1_655 S
C688 H715 0.930 . S
C689 O702 1.270 . S
C689 O703 1.248 . S
C690 O704 1.267 . S
C690 O705 1.278 . S
C691 Pr681 2.880 . S
C691 C692 1.491 . S
C691 O706 1.254 . S
C691 O707 1.225 . S
C692 C691 1.491 . S
C692 C693 1.392 . S
C692 C697 1.356 . S
C693 C692 1.392 . S
C693 C694 1.368 . S
C693 H716 0.929 . S
C694 C693 1.368 . S
C694 C695 1.386 . S
C694 H717 0.929 . S
C695 C694 1.386 . S
C695 C696 1.373 . S
C696 C695 1.373 . S
C696 C697 1.409 . S
C696 H718 0.931 . S
C697 C692 1.356 . S
C697 C696 1.409 . S
C697 H719 0.930 . S
C698 O708 1.270 . S
C698 O709 1.248 . S
C699 O710 1.267 . S
C699 O711 1.278 . S
O700 Pr680 2.562 . S
O700 C682 1.254 . S
O701 Pr680 2.490 . S
O701 C682 1.225 . S
O702 Pr680 2.695 . S
O702 Pr681 2.436 . S
O702 C689 1.270 . S
O703 Pr680 2.512 . S
O703 C689 1.248 . S
O704 Pr681 2.438 . S
O704 C690 1.267 . S
O705 Pr680 2.437 . S
O705 C690 1.278 . S
O706 Pr681 2.562 . S
O706 C691 1.254 . S
O707 Pr681 2.490 . S
O707 C691 1.225 . S
O708 Pr680 2.436 . S
O708 Pr681 2.695 . S
O708 C698 1.270 . S
O709 Pr681 2.512 . S
O709 C698 1.248 . S
O710 Pr680 2.438 . S
O710 C699 1.267 . S
O711 Pr681 2.437 . S
O711 C699 1.278 . S
H712 C684 0.929 . S
H713 C685 0.929 . S
H714 C687 0.931 . S
H715 C688 0.930 . S
H716 C693 0.929 . S
H717 C694 0.929 . S
H718 C696 0.931 . S
H719 C697 0.930 . S
Pr720 C722 2.880 . S
Pr720 O740 2.562 . S
Pr720 O741 2.490 . S
Pr720 O742 2.695 . S
Pr720 O743 2.512 . S
Pr720 O745 2.437 . S
Pr720 O748 2.436 . S
Pr720 O750 2.438 . S
Pr721 C731 2.880 . S
Pr721 O742 2.436 . S
Pr721 O744 2.438 . S
Pr721 O746 2.562 . S
Pr721 O747 2.490 . S
Pr721 O748 2.695 . S
Pr721 O749 2.512 . S
Pr721 O751 2.437 . S
C722 Pr720 2.880 . S
C722 C723 1.491 . S
C722 O740 1.254 . S
C722 O741 1.225 . S
C723 C722 1.491 . S
C723 C724 1.392 . S
C723 C728 1.356 . S
C724 C723 1.392 . S
C724 C725 1.368 . S
C724 H752 0.929 . S
C725 C724 1.368 . S
C725 C726 1.386 . S
C725 H753 0.929 . S
C726 C725 1.386 . S
C726 C727 1.373 . S
C727 C726 1.373 . S
C727 C728 1.409 . S
C727 H754 0.931 . S
C728 C723 1.356 . S
C728 C727 1.409 . S
C728 H755 0.930 . S
C729 O742 1.270 . S
C729 O743 1.248 . S
C730 O744 1.267 . S
C730 O745 1.278 . S
C731 Pr721 2.880 . S
C731 C732 1.491 . S
C731 O746 1.254 . S
C731 O747 1.225 . S
C732 C731 1.491 . S
C732 C733 1.392 . S
C732 C737 1.356 . S
C733 C732 1.392 . S
C733 C734 1.368 . S
C733 H756 0.929 . S
C734 C733 1.368 . S
C734 C735 1.386 . S
C734 H757 0.929 . S
C735 C734 1.386 . S
C735 C736 1.373 . S
C736 C735 1.373 . S
C736 C737 1.409 . S
C736 H758 0.931 . S
C737 C732 1.356 . S
C737 C736 1.409 . S
C737 H759 0.930 . S
C738 O748 1.270 . S
C738 O749 1.248 . S
C739 O750 1.267 . S
C739 O751 1.278 . S
O740 Pr720 2.562 . S
O740 C722 1.254 . S
O741 Pr720 2.490 . S
O741 C722 1.225 . S
O742 Pr720 2.695 . S
O742 Pr721 2.436 . S
O742 C729 1.270 . S
O743 Pr720 2.512 . S
O743 C729 1.248 . S
O744 Pr721 2.438 . S
O744 C730 1.267 . S
O745 Pr720 2.437 . S
O745 C730 1.278 . S
O746 Pr721 2.562 . S
O746 C731 1.254 . S
O747 Pr721 2.490 . S
O747 C731 1.225 . S
O748 Pr720 2.436 . S
O748 Pr721 2.695 . S
O748 C738 1.270 . S
O749 Pr721 2.512 . S
O749 C738 1.248 . S
O750 Pr720 2.438 . S
O750 C739 1.267 . S
O751 Pr721 2.437 . S
O751 C739 1.278 . S
H752 C724 0.929 . S
H753 C725 0.929 . S
H754 C727 0.931 . S
H755 C728 0.930 . S
H756 C733 0.929 . S
H757 C734 0.929 . S
H758 C736 0.931 . S
H759 C737 0.930 . S
Pr760 C762 2.880 . S
Pr760 O780 2.562 . S
Pr760 O781 2.490 . S
Pr760 O782 2.695 . S
Pr760 O783 2.512 . S
Pr760 O785 2.437 . S
Pr760 O788 2.436 . S
Pr760 O790 2.438 . S
Pr761 C771 2.880 . S
Pr761 O782 2.436 . S
Pr761 O784 2.438 . S
Pr761 O786 2.562 . S
Pr761 O787 2.490 . S
Pr761 O788 2.695 . S
Pr761 O789 2.512 . S
Pr761 O791 2.437 . S
C762 Pr760 2.880 . S
C762 C763 1.491 . S
C762 O780 1.254 . S
C762 O781 1.225 . S
C763 C762 1.491 . S
C763 C764 1.392 . S
C763 C768 1.356 . S
C764 C763 1.392 . S
C764 C765 1.368 1_655 S
C764 H792 0.929 . S
C765 C764 1.368 1_455 S
C765 C766 1.386 . S
C765 H793 0.929 . S
C766 C765 1.386 . S
C766 C767 1.373 . S
C767 C766 1.373 . S
C767 C768 1.409 1_455 S
C767 H794 0.931 . S
C768 C763 1.356 . S
C768 C767 1.409 1_655 S
C768 H795 0.930 . S
C769 O782 1.270 . S
C769 O783 1.248 . S
C770 O784 1.267 . S
C770 O785 1.278 . S
C771 Pr761 2.880 . S
C771 C772 1.491 . S
C771 O786 1.254 . S
C771 O787 1.225 . S
C772 C771 1.491 . S
C772 C773 1.392 . S
C772 C777 1.356 . S
C773 C772 1.392 . S
C773 C774 1.368 . S
C773 H796 0.929 . S
C774 C773 1.368 . S
C774 C775 1.386 . S
C774 H797 0.929 . S
C775 C774 1.386 . S
C775 C776 1.373 . S
C776 C775 1.373 . S
C776 C777 1.409 . S
C776 H798 0.931 . S
C777 C772 1.356 . S
C777 C776 1.409 . S
C777 H799 0.930 . S
C778 O788 1.270 . S
C778 O789 1.248 . S
C779 O790 1.267 . S
C779 O791 1.278 . S
O780 Pr760 2.562 . S
O780 C762 1.254 . S
O781 Pr760 2.490 . S
O781 C762 1.225 . S
O782 Pr760 2.695 . S
O782 Pr761 2.436 . S
O782 C769 1.270 . S
O783 Pr760 2.512 . S
O783 C769 1.248 . S
O784 Pr761 2.438 . S
O784 C770 1.267 . S
O785 Pr760 2.437 . S
O785 C770 1.278 . S
O786 Pr761 2.562 . S
O786 C771 1.254 . S
O787 Pr761 2.490 . S
O787 C771 1.225 . S
O788 Pr760 2.436 . S
O788 Pr761 2.695 . S
O788 C778 1.270 . S
O789 Pr761 2.512 . S
O789 C778 1.248 . S
O790 Pr760 2.438 . S
O790 C779 1.267 . S
O791 Pr761 2.437 . S
O791 C779 1.278 . S
H792 C764 0.929 . S
H793 C765 0.929 . S
H794 C767 0.931 . S
H795 C768 0.930 . S
H796 C773 0.929 . S
H797 C774 0.929 . S
H798 C776 0.931 . S
H799 C777 0.930 . S
Pr800 C802 2.880 . S
Pr800 O820 2.562 . S
Pr800 O821 2.490 . S
Pr800 O822 2.695 . S
Pr800 O823 2.512 . S
Pr800 O825 2.437 . S
Pr800 O828 2.436 . S
Pr800 O830 2.438 . S
Pr801 C811 2.880 . S
Pr801 O822 2.436 . S
Pr801 O824 2.438 . S
Pr801 O826 2.562 . S
Pr801 O827 2.490 . S
Pr801 O828 2.695 . S
Pr801 O829 2.512 . S
Pr801 O831 2.437 . S
C802 Pr800 2.880 . S
C802 C803 1.491 . S
C802 O820 1.254 . S
C802 O821 1.225 . S
C803 C802 1.491 . S
C803 C804 1.392 . S
C803 C808 1.356 . S
C804 C803 1.392 . S
C804 C805 1.368 . S
C804 H832 0.929 . S
C805 C804 1.368 . S
C805 C806 1.386 . S
C805 H833 0.929 . S
C806 C805 1.386 . S
C806 C807 1.373 . S
C807 C806 1.373 . S
C807 C808 1.409 . S
C807 H834 0.931 . S
C808 C803 1.356 . S
C808 C807 1.409 . S
C808 H835 0.930 . S
C809 O822 1.270 . S
C809 O823 1.248 . S
C810 O824 1.267 . S
C810 O825 1.278 . S
C811 Pr801 2.880 . S
C811 C812 1.491 . S
C811 O826 1.254 . S
C811 O827 1.225 . S
C812 C811 1.491 . S
C812 C813 1.392 . S
C812 C817 1.356 . S
C813 C812 1.392 . S
C813 C814 1.368 . S
C813 H836 0.929 . S
C814 C813 1.368 . S
C814 C815 1.386 . S
C814 H837 0.929 . S
C815 C814 1.386 . S
C815 C816 1.373 . S
C816 C815 1.373 . S
C816 C817 1.409 . S
C816 H838 0.931 . S
C817 C812 1.356 . S
C817 C816 1.409 . S
C817 H839 0.930 . S
C818 O828 1.270 . S
C818 O829 1.248 . S
C819 O830 1.267 . S
C819 O831 1.278 . S
O820 Pr800 2.562 . S
O820 C802 1.254 . S
O821 Pr800 2.490 . S
O821 C802 1.225 . S
O822 Pr800 2.695 . S
O822 Pr801 2.436 . S
O822 C809 1.270 . S
O823 Pr800 2.512 . S
O823 C809 1.248 . S
O824 Pr801 2.438 . S
O824 C810 1.267 . S
O825 Pr800 2.437 . S
O825 C810 1.278 . S
O826 Pr801 2.562 . S
O826 C811 1.254 . S
O827 Pr801 2.490 . S
O827 C811 1.225 . S
O828 Pr800 2.436 . S
O828 Pr801 2.695 . S
O828 C818 1.270 . S
O829 Pr801 2.512 . S
O829 C818 1.248 . S
O830 Pr800 2.438 . S
O830 C819 1.267 . S
O831 Pr801 2.437 . S
O831 C819 1.278 . S
H832 C804 0.929 . S
H833 C805 0.929 . S
H834 C807 0.931 . S
H835 C808 0.930 . S
H836 C813 0.929 . S
H837 C814 0.929 . S
H838 C816 0.931 . S
H839 C817 0.930 . S
Pr840 C842 2.880 . S
Pr840 O860 2.562 . S
Pr840 O861 2.490 . S
Pr840 O862 2.695 . S
Pr840 O863 2.512 . S
Pr840 O865 2.437 . S
Pr840 O868 2.436 . S
Pr840 O870 2.438 . S
Pr841 C851 2.880 . S
Pr841 O862 2.436 . S
Pr841 O864 2.438 . S
Pr841 O866 2.562 . S
Pr841 O867 2.490 . S
Pr841 O868 2.695 . S
Pr841 O869 2.512 . S
Pr841 O871 2.437 . S
C842 Pr840 2.880 . S
C842 C843 1.491 . S
C842 O860 1.254 . S
C842 O861 1.225 . S
C843 C842 1.491 . S
C843 C844 1.392 . S
C843 C848 1.356 . S
C844 C843 1.392 . S
C844 C845 1.368 . S
C844 H872 0.929 . S
C845 C844 1.368 . S
C845 C846 1.386 . S
C845 H873 0.929 . S
C846 C845 1.386 . S
C846 C847 1.373 . S
C847 C846 1.373 . S
C847 C848 1.409 . S
C847 H874 0.931 . S
C848 C843 1.356 . S
C848 C847 1.409 . S
C848 H875 0.930 . S
C849 O862 1.270 . S
C849 O863 1.248 . S
C850 O864 1.267 . S
C850 O865 1.278 . S
C851 Pr841 2.880 . S
C851 C852 1.491 . S
C851 O866 1.254 . S
C851 O867 1.225 . S
C852 C851 1.491 . S
C852 C853 1.392 . S
C852 C857 1.356 . S
C853 C852 1.392 . S
C853 C854 1.368 1_455 S
C853 H876 0.929 . S
C854 C853 1.368 1_655 S
C854 C855 1.386 . S
C854 H877 0.929 . S
C855 C854 1.386 . S
C855 C856 1.373 . S
C856 C855 1.373 . S
C856 C857 1.409 1_655 S
C856 H878 0.931 . S
C857 C852 1.356 . S
C857 C856 1.409 1_455 S
C857 H879 0.930 . S
C858 O868 1.270 . S
C858 O869 1.248 . S
C859 O870 1.267 . S
C859 O871 1.278 . S
O860 Pr840 2.562 . S
O860 C842 1.254 . S
O861 Pr840 2.490 . S
O861 C842 1.225 . S
O862 Pr840 2.695 . S
O862 Pr841 2.436 . S
O862 C849 1.270 . S
O863 Pr840 2.512 . S
O863 C849 1.248 . S
O864 Pr841 2.438 . S
O864 C850 1.267 . S
O865 Pr840 2.437 . S
O865 C850 1.278 . S
O866 Pr841 2.562 . S
O866 C851 1.254 . S
O867 Pr841 2.490 . S
O867 C851 1.225 . S
O868 Pr840 2.436 . S
O868 Pr841 2.695 . S
O868 C858 1.270 . S
O869 Pr841 2.512 . S
O869 C858 1.248 . S
O870 Pr840 2.438 . S
O870 C859 1.267 . S
O871 Pr841 2.437 . S
O871 C859 1.278 . S
H872 C844 0.929 . S
H873 C845 0.929 . S
H874 C847 0.931 . S
H875 C848 0.930 . S
H876 C853 0.929 . S
H877 C854 0.929 . S
H878 C856 0.931 . S
H879 C857 0.930 . S
Pr880 C882 2.880 . S
Pr880 O900 2.562 . S
Pr880 O901 2.490 . S
Pr880 O902 2.695 . S
Pr880 O903 2.512 . S
Pr880 O905 2.437 . S
Pr880 O908 2.436 . S
Pr880 O910 2.438 . S
Pr881 C891 2.880 . S
Pr881 O902 2.436 . S
Pr881 O904 2.438 . S
Pr881 O906 2.562 . S
Pr881 O907 2.490 . S
Pr881 O908 2.695 . S
Pr881 O909 2.512 . S
Pr881 O911 2.437 . S
C882 Pr880 2.880 . S
C882 C883 1.491 . S
C882 O900 1.254 . S
C882 O901 1.225 . S
C883 C882 1.491 . S
C883 C884 1.392 . S
C883 C888 1.356 . S
C884 C883 1.392 . S
C884 C885 1.368 . S
C884 H912 0.929 . S
C885 C884 1.368 . S
C885 C886 1.386 . S
C885 H913 0.929 . S
C886 C885 1.386 . S
C886 C887 1.373 . S
C887 C886 1.373 . S
C887 C888 1.409 . S
C887 H914 0.931 . S
C888 C883 1.356 . S
C888 C887 1.409 . S
C888 H915 0.930 . S
C889 O902 1.270 . S
C889 O903 1.248 . S
C890 O904 1.267 . S
C890 O905 1.278 . S
C891 Pr881 2.880 . S
C891 C892 1.491 . S
C891 O906 1.254 . S
C891 O907 1.225 . S
C892 C891 1.491 . S
C892 C893 1.392 . S
C892 C897 1.356 . S
C893 C892 1.392 . S
C893 C894 1.368 . S
C893 H916 0.929 . S
C894 C893 1.368 . S
C894 C895 1.386 . S
C894 H917 0.929 . S
C895 C894 1.386 . S
C895 C896 1.373 . S
C896 C895 1.373 . S
C896 C897 1.409 . S
C896 H918 0.931 . S
C897 C892 1.356 . S
C897 C896 1.409 . S
C897 H919 0.930 . S
C898 O908 1.270 . S
C898 O909 1.248 . S
C899 O910 1.267 . S
C899 O911 1.278 . S
O900 Pr880 2.562 . S
O900 C882 1.254 . S
O901 Pr880 2.490 . S
O901 C882 1.225 . S
O902 Pr880 2.695 . S
O902 Pr881 2.436 . S
O902 C889 1.270 . S
O903 Pr880 2.512 . S
O903 C889 1.248 . S
O904 Pr881 2.438 . S
O904 C890 1.267 . S
O905 Pr880 2.437 . S
O905 C890 1.278 . S
O906 Pr881 2.562 . S
O906 C891 1.254 . S
O907 Pr881 2.490 . S
O907 C891 1.225 . S
O908 Pr880 2.436 . S
O908 Pr881 2.695 . S
O908 C898 1.270 . S
O909 Pr881 2.512 . S
O909 C898 1.248 . S
O910 Pr880 2.438 . S
O910 C899 1.267 . S
O911 Pr881 2.437 . S
O911 C899 1.278 . S
H912 C884 0.929 . S
H913 C885 0.929 . S
H914 C887 0.931 . S
H915 C888 0.930 . S
H916 C893 0.929 . S
H917 C894 0.929 . S
H918 C896 0.931 . S
H919 C897 0.930 . S
Pr920 C922 2.880 . S
Pr920 O940 2.562 . S
Pr920 O941 2.490 . S
Pr920 O942 2.695 . S
Pr920 O943 2.512 . S
Pr920 O945 2.437 . S
Pr920 O948 2.436 . S
Pr920 O950 2.438 . S
Pr921 C931 2.880 . S
Pr921 O942 2.436 . S
Pr921 O944 2.438 . S
Pr921 O946 2.562 . S
Pr921 O947 2.490 . S
Pr921 O948 2.695 . S
Pr921 O949 2.512 . S
Pr921 O951 2.437 . S
C922 Pr920 2.880 . S
C922 C923 1.491 . S
C922 O940 1.254 . S
C922 O941 1.225 . S
C923 C922 1.491 . S
C923 C924 1.392 . S
C923 C928 1.356 . S
C924 C923 1.392 . S
C924 C925 1.368 . S
C924 H952 0.929 . S
C925 C924 1.368 . S
C925 C926 1.386 . S
C925 H953 0.929 . S
C926 C925 1.386 . S
C926 C927 1.373 . S
C927 C926 1.373 . S
C927 C928 1.409 . S
C927 H954 0.931 . S
C928 C923 1.356 . S
C928 C927 1.409 . S
C928 H955 0.930 . S
C929 O942 1.270 . S
C929 O943 1.248 . S
C930 O944 1.267 . S
C930 O945 1.278 . S
C931 Pr921 2.880 . S
C931 C932 1.491 . S
C931 O946 1.254 . S
C931 O947 1.225 . S
C932 C931 1.491 . S
C932 C933 1.392 . S
C932 C937 1.356 . S
C933 C932 1.392 . S
C933 C934 1.368 1_455 S
C933 H956 0.929 . S
C934 C933 1.368 1_655 S
C934 C935 1.386 . S
C934 H957 0.929 . S
C935 C934 1.386 . S
C935 C936 1.373 . S
C936 C935 1.373 . S
C936 C937 1.409 1_655 S
C936 H958 0.931 . S
C937 C932 1.356 . S
C937 C936 1.409 1_455 S
C937 H959 0.930 . S
C938 O948 1.270 . S
C938 O949 1.248 . S
C939 O950 1.267 . S
C939 O951 1.278 . S
O940 Pr920 2.562 . S
O940 C922 1.254 . S
O941 Pr920 2.490 . S
O941 C922 1.225 . S
O942 Pr920 2.695 . S
O942 Pr921 2.436 . S
O942 C929 1.270 . S
O943 Pr920 2.512 . S
O943 C929 1.248 . S
O944 Pr921 2.438 . S
O944 C930 1.267 . S
O945 Pr920 2.437 . S
O945 C930 1.278 . S
O946 Pr921 2.562 . S
O946 C931 1.254 . S
O947 Pr921 2.490 . S
O947 C931 1.225 . S
O948 Pr920 2.436 . S
O948 Pr921 2.695 . S
O948 C938 1.270 . S
O949 Pr921 2.512 . S
O949 C938 1.248 . S
O950 Pr920 2.438 . S
O950 C939 1.267 . S
O951 Pr921 2.437 . S
O951 C939 1.278 . S
H952 C924 0.929 . S
H953 C925 0.929 . S
H954 C927 0.931 . S
H955 C928 0.930 . S
H956 C933 0.929 . S
H957 C934 0.929 . S
H958 C936 0.931 . S
H959 C937 0.930 . S
Pr960 C962 2.872 1_545 S
Pr960 O980 2.562 1_545 S
Pr960 O981 2.490 . S
Pr960 O982 2.695 1_545 S
Pr960 O983 2.512 . S
Pr960 O985 2.437 1_545 S
Pr960 O988 2.436 1_545 S
Pr960 O990 2.438 . S
Pr961 C971 2.880 . S
Pr961 O982 2.436 . S
Pr961 O984 2.438 . S
Pr961 O986 2.562 . S
Pr961 O987 2.490 . S
Pr961 O988 2.695 . S
Pr961 O989 2.512 . S
Pr961 O991 2.437 1_565 S
C962 Pr960 2.872 1_565 S
C962 C963 1.500 . S
C962 O980 1.258 . S
C962 O981 1.213 1_565 S
C963 C962 1.500 . S
C963 C964 1.392 . S
C963 C968 1.356 . S
C964 C963 1.392 . S
C964 C965 1.368 . S
C964 H992 0.929 1_565 S
C965 C964 1.368 . S
C965 C966 1.386 . S
C965 H993 0.929 . S
C966 C965 1.386 . S
C966 C967 1.373 . S
C967 C966 1.373 . S
C967 C968 1.409 . S
C967 H994 0.931 . S
C968 C963 1.356 . S
C968 C967 1.409 . S
C968 H995 0.930 . S
C969 O982 1.270 . S
C969 O983 1.248 1_565 S
C970 O984 1.267 . S
C970 O985 1.278 . S
C971 Pr961 2.880 . S
C971 C972 1.491 . S
C971 O986 1.254 . S
C971 O987 1.225 . S
C972 C971 1.491 . S
C972 C973 1.392 . S
C972 C977 1.356 1_565 S
C973 C972 1.392 . S
C973 C974 1.368 . S
C973 H996 0.929 . S
C974 C973 1.368 . S
C974 C975 1.386 1_565 S
C974 H997 0.929 . S
C975 C974 1.386 1_545 S
C975 C976 1.373 . S
C976 C975 1.373 . S
C976 C977 1.409 . S
C976 H998 0.931 . S
C977 C972 1.356 1_545 S
C977 C976 1.409 . S
C977 H999 0.930 . S
C978 O988 1.270 . S
C978 O989 1.248 . S
C979 O990 1.267 . S
C979 O991 1.278 . S
O980 Pr960 2.562 1_565 S
O980 C962 1.258 . S
O981 Pr960 2.490 . S
O981 C962 1.213 1_545 S
O982 Pr960 2.695 1_565 S
O982 Pr961 2.436 . S
O982 C969 1.270 . S
O983 Pr960 2.512 . S
O983 C969 1.248 1_545 S
O984 Pr961 2.438 . S
O984 C970 1.267 . S
O985 Pr960 2.437 1_565 S
O985 C970 1.278 . S
O986 Pr961 2.562 . S
O986 C971 1.254 . S
O987 Pr961 2.490 . S
O987 C971 1.225 . S
O988 Pr960 2.436 1_565 S
O988 Pr961 2.695 . S
O988 C978 1.270 . S
O989 Pr961 2.512 . S
O989 C978 1.248 . S
O990 Pr960 2.438 . S
O990 C979 1.267 . S
O991 Pr961 2.437 1_545 S
O991 C979 1.278 . S
H992 C964 0.929 1_545 S
H993 C965 0.929 . S
H994 C967 0.931 . S
H995 C968 0.930 . S
H996 C973 0.929 . S
H997 C974 0.929 . S
H998 C976 0.931 . S
H999 C977 0.930 . S
Pr1000 C1002 2.880 . S
Pr1000 O1020 2.562 . S
Pr1000 O1021 2.490 . S
Pr1000 O1022 2.695 . S
Pr1000 O1023 2.512 . S
Pr1000 O1025 2.437 . S
Pr1000 O1028 2.436 . S
Pr1000 O1030 2.438 . S
Pr1001 C1011 2.880 . S
Pr1001 O1022 2.436 . S
Pr1001 O1024 2.438 . S
Pr1001 O1026 2.562 . S
Pr1001 O1027 2.490 . S
Pr1001 O1028 2.695 . S
Pr1001 O1029 2.512 . S
Pr1001 O1031 2.437 . S
C1002 Pr1000 2.880 . S
C1002 C1003 1.491 . S
C1002 O1020 1.254 . S
C1002 O1021 1.225 . S
C1003 C1002 1.491 . S
C1003 C1004 1.392 . S
C1003 C1008 1.356 . S
C1004 C1003 1.392 . S
C1004 C1005 1.368 1_655 S
C1004 H1032 0.929 . S
C1005 C1004 1.368 1_455 S
C1005 C1006 1.386 . S
C1005 H1033 0.929 . S
C1006 C1005 1.386 . S
C1006 C1007 1.373 . S
C1007 C1006 1.373 . S
C1007 C1008 1.409 1_455 S
C1007 H1034 0.931 . S
C1008 C1003 1.356 . S
C1008 C1007 1.409 1_655 S
C1008 H1035 0.930 . S
C1009 O1022 1.270 . S
C1009 O1023 1.248 . S
C1010 O1024 1.267 . S
C1010 O1025 1.278 . S
C1011 Pr1001 2.880 . S
C1011 C1012 1.491 . S
C1011 O1026 1.254 . S
C1011 O1027 1.225 . S
C1012 C1011 1.491 . S
C1012 C1013 1.392 . S
C1012 C1017 1.356 . S
C1013 C1012 1.392 . S
C1013 C1014 1.368 . S
C1013 H1036 0.929 . S
C1014 C1013 1.368 . S
C1014 C1015 1.386 . S
C1014 H1037 0.929 . S
C1015 C1014 1.386 . S
C1015 C1016 1.373 . S
C1016 C1015 1.373 . S
C1016 C1017 1.409 . S
C1016 H1038 0.931 . S
C1017 C1012 1.356 . S
C1017 C1016 1.409 . S
C1017 H1039 0.930 . S
C1018 O1028 1.270 . S
C1018 O1029 1.248 . S
C1019 O1030 1.267 . S
C1019 O1031 1.278 . S
O1020 Pr1000 2.562 . S
O1020 C1002 1.254 . S
O1021 Pr1000 2.490 . S
O1021 C1002 1.225 . S
O1022 Pr1000 2.695 . S
O1022 Pr1001 2.436 . S
O1022 C1009 1.270 . S
O1023 Pr1000 2.512 . S
O1023 C1009 1.248 . S
O1024 Pr1001 2.438 . S
O1024 C1010 1.267 . S
O1025 Pr1000 2.437 . S
O1025 C1010 1.278 . S
O1026 Pr1001 2.562 . S
O1026 C1011 1.254 . S
O1027 Pr1001 2.490 . S
O1027 C1011 1.225 . S
O1028 Pr1000 2.436 . S
O1028 Pr1001 2.695 . S
O1028 C1018 1.270 . S
O1029 Pr1001 2.512 . S
O1029 C1018 1.248 . S
O1030 Pr1000 2.438 . S
O1030 C1019 1.267 . S
O1031 Pr1001 2.437 . S
O1031 C1019 1.278 . S
H1032 C1004 0.929 . S
H1033 C1005 0.929 . S
H1034 C1007 0.931 . S
H1035 C1008 0.930 . S
H1036 C1013 0.929 . S
H1037 C1014 0.929 . S
H1038 C1016 0.931 . S
H1039 C1017 0.930 . S
Pr1040 C1042 2.880 . S
Pr1040 O1060 2.562 . S
Pr1040 O1061 2.490 . S
Pr1040 O1062 2.695 . S
Pr1040 O1063 2.512 . S
Pr1040 O1065 2.437 . S
Pr1040 O1068 2.436 . S
Pr1040 O1070 2.438 . S
Pr1041 C1051 2.880 . S
Pr1041 O1062 2.436 . S
Pr1041 O1064 2.438 . S
Pr1041 O1066 2.562 . S
Pr1041 O1067 2.490 . S
Pr1041 O1068 2.695 . S
Pr1041 O1069 2.512 . S
Pr1041 O1071 2.437 . S
C1042 Pr1040 2.880 . S
C1042 C1043 1.491 . S
C1042 O1060 1.254 . S
C1042 O1061 1.225 . S
C1043 C1042 1.491 . S
C1043 C1044 1.392 . S
C1043 C1048 1.356 . S
C1044 C1043 1.392 . S
C1044 C1045 1.368 . S
C1044 H1072 0.929 . S
C1045 C1044 1.368 . S
C1045 C1046 1.386 . S
C1045 H1073 0.929 . S
C1046 C1045 1.386 . S
C1046 C1047 1.373 . S
C1047 C1046 1.373 . S
C1047 C1048 1.409 . S
C1047 H1074 0.931 . S
C1048 C1043 1.356 . S
C1048 C1047 1.409 . S
C1048 H1075 0.930 . S
C1049 O1062 1.270 . S
C1049 O1063 1.248 . S
C1050 O1064 1.267 . S
C1050 O1065 1.278 . S
C1051 Pr1041 2.880 . S
C1051 C1052 1.491 . S
C1051 O1066 1.254 . S
C1051 O1067 1.225 . S
C1052 C1051 1.491 . S
C1052 C1053 1.392 . S
C1052 C1057 1.356 . S
C1053 C1052 1.392 . S
C1053 C1054 1.368 . S
C1053 H1076 0.929 . S
C1054 C1053 1.368 . S
C1054 C1055 1.386 . S
C1054 H1077 0.929 . S
C1055 C1054 1.386 . S
C1055 C1056 1.373 . S
C1056 C1055 1.373 . S
C1056 C1057 1.409 . S
C1056 H1078 0.931 . S
C1057 C1052 1.356 . S
C1057 C1056 1.409 . S
C1057 H1079 0.930 . S
C1058 O1068 1.270 . S
C1058 O1069 1.248 . S
C1059 O1070 1.267 . S
C1059 O1071 1.278 . S
O1060 Pr1040 2.562 . S
O1060 C1042 1.254 . S
O1061 Pr1040 2.490 . S
O1061 C1042 1.225 . S
O1062 Pr1040 2.695 . S
O1062 Pr1041 2.436 . S
O1062 C1049 1.270 . S
O1063 Pr1040 2.512 . S
O1063 C1049 1.248 . S
O1064 Pr1041 2.438 . S
O1064 C1050 1.267 . S
O1065 Pr1040 2.437 . S
O1065 C1050 1.278 . S
O1066 Pr1041 2.562 . S
O1066 C1051 1.254 . S
O1067 Pr1041 2.490 . S
O1067 C1051 1.225 . S
O1068 Pr1040 2.436 . S
O1068 Pr1041 2.695 . S
O1068 C1058 1.270 . S
O1069 Pr1041 2.512 . S
O1069 C1058 1.248 . S
O1070 Pr1040 2.438 . S
O1070 C1059 1.267 . S
O1071 Pr1041 2.437 . S
O1071 C1059 1.278 . S
H1072 C1044 0.929 . S
H1073 C1045 0.929 . S
H1074 C1047 0.931 . S
H1075 C1048 0.930 . S
H1076 C1053 0.929 . S
H1077 C1054 0.929 . S
H1078 C1056 0.931 . S
H1079 C1057 0.930 . S
Pr1080 C1082 2.872 1_545 S
Pr1080 O1100 2.562 1_545 S
Pr1080 O1101 2.490 . S
Pr1080 O1102 2.695 1_545 S
Pr1080 O1103 2.512 . S
Pr1080 O1105 2.437 1_545 S
Pr1080 O1108 2.436 1_545 S
Pr1080 O1110 2.438 . S
Pr1081 C1091 2.880 . S
Pr1081 O1102 2.436 . S
Pr1081 O1104 2.438 . S
Pr1081 O1106 2.562 . S
Pr1081 O1107 2.490 . S
Pr1081 O1108 2.695 . S
Pr1081 O1109 2.512 . S
Pr1081 O1111 2.437 1_565 S
C1082 Pr1080 2.872 1_565 S
C1082 C1083 1.500 . S
C1082 O1100 1.258 . S
C1082 O1101 1.213 1_565 S
C1083 C1082 1.500 . S
C1083 C1084 1.392 . S
C1083 C1088 1.356 . S
C1084 C1083 1.392 . S
C1084 C1085 1.368 1_655 S
C1084 H1112 0.929 1_565 S
C1085 C1084 1.368 1_455 S
C1085 C1086 1.386 . S
C1085 H1113 0.929 . S
C1086 C1085 1.386 . S
C1086 C1087 1.373 . S
C1087 C1086 1.373 . S
C1087 C1088 1.409 1_455 S
C1087 H1114 0.931 . S
C1088 C1083 1.356 . S
C1088 C1087 1.409 1_655 S
C1088 H1115 0.930 . S
C1089 O1102 1.270 . S
C1089 O1103 1.248 1_565 S
C1090 O1104 1.267 . S
C1090 O1105 1.278 . S
C1091 Pr1081 2.880 . S
C1091 C1092 1.491 . S
C1091 O1106 1.254 . S
C1091 O1107 1.225 . S
C1092 C1091 1.491 . S
C1092 C1093 1.392 . S
C1092 C1097 1.356 1_565 S
C1093 C1092 1.392 . S
C1093 C1094 1.368 . S
C1093 H1116 0.929 . S
C1094 C1093 1.368 . S
C1094 C1095 1.386 1_565 S
C1094 H1117 0.929 . S
C1095 C1094 1.386 1_545 S
C1095 C1096 1.373 . S
C1096 C1095 1.373 . S
C1096 C1097 1.409 . S
C1096 H1118 0.931 . S
C1097 C1092 1.356 1_545 S
C1097 C1096 1.409 . S
C1097 H1119 0.930 . S
C1098 O1108 1.270 . S
C1098 O1109 1.248 . S
C1099 O1110 1.267 . S
C1099 O1111 1.278 . S
O1100 Pr1080 2.562 1_565 S
O1100 C1082 1.258 . S
O1101 Pr1080 2.490 . S
O1101 C1082 1.213 1_545 S
O1102 Pr1080 2.695 1_565 S
O1102 Pr1081 2.436 . S
O1102 C1089 1.270 . S
O1103 Pr1080 2.512 . S
O1103 C1089 1.248 1_545 S
O1104 Pr1081 2.438 . S
O1104 C1090 1.267 . S
O1105 Pr1080 2.437 1_565 S
O1105 C1090 1.278 . S
O1106 Pr1081 2.562 . S
O1106 C1091 1.254 . S
O1107 Pr1081 2.490 . S
O1107 C1091 1.225 . S
O1108 Pr1080 2.436 1_565 S
O1108 Pr1081 2.695 . S
O1108 C1098 1.270 . S
O1109 Pr1081 2.512 . S
O1109 C1098 1.248 . S
O1110 Pr1080 2.438 . S
O1110 C1099 1.267 . S
O1111 Pr1081 2.437 1_545 S
O1111 C1099 1.278 . S
H1112 C1084 0.929 1_545 S
H1113 C1085 0.929 . S
H1114 C1087 0.931 . S
H1115 C1088 0.930 . S
H1116 C1093 0.929 . S
H1117 C1094 0.929 . S
H1118 C1096 0.931 . S
H1119 C1097 0.930 . S
Pr1120 C1122 2.880 . S
Pr1120 O1140 2.562 . S
Pr1120 O1141 2.490 . S
Pr1120 O1142 2.695 . S
Pr1120 O1143 2.512 . S
Pr1120 O1145 2.437 1_545 S
Pr1120 O1148 2.436 . S
Pr1120 O1150 2.438 . S
Pr1121 C1131 2.872 1_565 S
Pr1121 O1142 2.436 1_565 S
Pr1121 O1144 2.438 . S
Pr1121 O1146 2.562 1_565 S
Pr1121 O1147 2.490 . S
Pr1121 O1148 2.695 1_565 S
Pr1121 O1149 2.512 . S
Pr1121 O1151 2.437 1_565 S
C1122 Pr1120 2.880 . S
C1122 C1123 1.491 . S
C1122 O1140 1.254 . S
C1122 O1141 1.225 . S
C1123 C1122 1.491 . S
C1123 C1124 1.392 . S
C1123 C1128 1.356 1_545 S
C1124 C1123 1.392 . S
C1124 C1125 1.368 . S
C1124 H1152 0.929 . S
C1125 C1124 1.368 . S
C1125 C1126 1.386 1_545 S
C1125 H1153 0.929 . S
C1126 C1125 1.386 1_565 S
C1126 C1127 1.373 . S
C1127 C1126 1.373 . S
C1127 C1128 1.409 . S
C1127 H1154 0.931 . S
C1128 C1123 1.356 1_565 S
C1128 C1127 1.409 . S
C1128 H1155 0.930 . S
C1129 O1142 1.270 . S
C1129 O1143 1.248 . S
C1130 O1144 1.267 . S
C1130 O1145 1.278 . S
C1131 Pr1121 2.872 1_545 S
C1131 C1132 1.500 . S
C1131 O1146 1.258 . S
C1131 O1147 1.213 1_545 S
C1132 C1131 1.500 . S
C1132 C1133 1.392 . S
C1132 C1137 1.356 . S
C1133 C1132 1.392 . S
C1133 C1134 1.368 . S
C1133 H1156 0.929 1_545 S
C1134 C1133 1.368 . S
C1134 C1135 1.386 . S
C1134 H1157 0.929 . S
C1135 C1134 1.386 . S
C1135 C1136 1.373 . S
C1136 C1135 1.373 . S
C1136 C1137 1.409 . S
C1136 H1158 0.931 . S
C1137 C1132 1.356 . S
C1137 C1136 1.409 . S
C1137 H1159 0.930 . S
C1138 O1148 1.270 . S
C1138 O1149 1.248 1_545 S
C1139 O1150 1.267 . S
C1139 O1151 1.278 . S
O1140 Pr1120 2.562 . S
O1140 C1122 1.254 . S
O1141 Pr1120 2.490 . S
O1141 C1122 1.225 . S
O1142 Pr1120 2.695 . S
O1142 Pr1121 2.436 1_545 S
O1142 C1129 1.270 . S
O1143 Pr1120 2.512 . S
O1143 C1129 1.248 . S
O1144 Pr1121 2.438 . S
O1144 C1130 1.267 . S
O1145 Pr1120 2.437 1_565 S
O1145 C1130 1.278 . S
O1146 Pr1121 2.562 1_545 S
O1146 C1131 1.258 . S
O1147 Pr1121 2.490 . S
O1147 C1131 1.213 1_565 S
O1148 Pr1120 2.436 . S
O1148 Pr1121 2.695 1_545 S
O1148 C1138 1.270 . S
O1149 Pr1121 2.512 . S
O1149 C1138 1.248 1_565 S
O1150 Pr1120 2.438 . S
O1150 C1139 1.267 . S
O1151 Pr1121 2.437 1_545 S
O1151 C1139 1.278 . S
H1152 C1124 0.929 . S
H1153 C1125 0.929 . S
H1154 C1127 0.931 . S
H1155 C1128 0.930 . S
H1156 C1133 0.929 1_565 S
H1157 C1134 0.929 . S
H1158 C1136 0.931 . S
H1159 C1137 0.930 . S
Pr1160 C1162 2.880 . S
Pr1160 O1180 2.562 . S
Pr1160 O1181 2.490 . S
Pr1160 O1182 2.695 . S
Pr1160 O1183 2.512 . S
Pr1160 O1185 2.437 . S
Pr1160 O1188 2.436 . S
Pr1160 O1190 2.438 . S
Pr1161 C1171 2.880 . S
Pr1161 O1182 2.436 . S
Pr1161 O1184 2.438 . S
Pr1161 O1186 2.562 . S
Pr1161 O1187 2.490 . S
Pr1161 O1188 2.695 . S
Pr1161 O1189 2.512 . S
Pr1161 O1191 2.437 . S
C1162 Pr1160 2.880 . S
C1162 C1163 1.491 . S
C1162 O1180 1.254 . S
C1162 O1181 1.225 . S
C1163 C1162 1.491 . S
C1163 C1164 1.392 . S
C1163 C1168 1.356 . S
C1164 C1163 1.392 . S
C1164 C1165 1.368 . S
C1164 H1192 0.929 . S
C1165 C1164 1.368 . S
C1165 C1166 1.386 . S
C1165 H1193 0.929 . S
C1166 C1165 1.386 . S
C1166 C1167 1.373 . S
C1167 C1166 1.373 . S
C1167 C1168 1.409 . S
C1167 H1194 0.931 . S
C1168 C1163 1.356 . S
C1168 C1167 1.409 . S
C1168 H1195 0.930 . S
C1169 O1182 1.270 . S
C1169 O1183 1.248 . S
C1170 O1184 1.267 . S
C1170 O1185 1.278 . S
C1171 Pr1161 2.880 . S
C1171 C1172 1.491 . S
C1171 O1186 1.254 . S
C1171 O1187 1.225 . S
C1172 C1171 1.491 . S
C1172 C1173 1.392 . S
C1172 C1177 1.356 . S
C1173 C1172 1.392 . S
C1173 C1174 1.368 1_455 S
C1173 H1196 0.929 . S
C1174 C1173 1.368 1_655 S
C1174 C1175 1.386 . S
C1174 H1197 0.929 . S
C1175 C1174 1.386 . S
C1175 C1176 1.373 . S
C1176 C1175 1.373 . S
C1176 C1177 1.409 1_655 S
C1176 H1198 0.931 . S
C1177 C1172 1.356 . S
C1177 C1176 1.409 1_455 S
C1177 H1199 0.930 . S
C1178 O1188 1.270 . S
C1178 O1189 1.248 . S
C1179 O1190 1.267 . S
C1179 O1191 1.278 . S
O1180 Pr1160 2.562 . S
O1180 C1162 1.254 . S
O1181 Pr1160 2.490 . S
O1181 C1162 1.225 . S
O1182 Pr1160 2.695 . S
O1182 Pr1161 2.436 . S
O1182 C1169 1.270 . S
O1183 Pr1160 2.512 . S
O1183 C1169 1.248 . S
O1184 Pr1161 2.438 . S
O1184 C1170 1.267 . S
O1185 Pr1160 2.437 . S
O1185 C1170 1.278 . S
O1186 Pr1161 2.562 . S
O1186 C1171 1.254 . S
O1187 Pr1161 2.490 . S
O1187 C1171 1.225 . S
O1188 Pr1160 2.436 . S
O1188 Pr1161 2.695 . S
O1188 C1178 1.270 . S
O1189 Pr1161 2.512 . S
O1189 C1178 1.248 . S
O1190 Pr1160 2.438 . S
O1190 C1179 1.267 . S
O1191 Pr1161 2.437 . S
O1191 C1179 1.278 . S
H1192 C1164 0.929 . S
H1193 C1165 0.929 . S
H1194 C1167 0.931 . S
H1195 C1168 0.930 . S
H1196 C1173 0.929 . S
H1197 C1174 0.929 . S
H1198 C1176 0.931 . S
H1199 C1177 0.930 . S
Pr1200 C1202 2.880 . S
Pr1200 O1220 2.562 . S
Pr1200 O1221 2.490 . S
Pr1200 O1222 2.695 . S
Pr1200 O1223 2.512 . S
Pr1200 O1225 2.437 . S
Pr1200 O1228 2.436 . S
Pr1200 O1230 2.438 . S
Pr1201 C1211 2.880 . S
Pr1201 O1222 2.436 . S
Pr1201 O1224 2.438 . S
Pr1201 O1226 2.562 . S
Pr1201 O1227 2.490 . S
Pr1201 O1228 2.695 . S
Pr1201 O1229 2.512 . S
Pr1201 O1231 2.437 . S
C1202 Pr1200 2.880 . S
C1202 C1203 1.491 . S
C1202 O1220 1.254 . S
C1202 O1221 1.225 . S
C1203 C1202 1.491 . S
C1203 C1204 1.392 . S
C1203 C1208 1.356 . S
C1204 C1203 1.392 . S
C1204 C1205 1.368 . S
C1204 H1232 0.929 . S
C1205 C1204 1.368 . S
C1205 C1206 1.386 . S
C1205 H1233 0.929 . S
C1206 C1205 1.386 . S
C1206 C1207 1.373 . S
C1207 C1206 1.373 . S
C1207 C1208 1.409 . S
C1207 H1234 0.931 . S
C1208 C1203 1.356 . S
C1208 C1207 1.409 . S
C1208 H1235 0.930 . S
C1209 O1222 1.270 . S
C1209 O1223 1.248 . S
C1210 O1224 1.267 . S
C1210 O1225 1.278 . S
C1211 Pr1201 2.880 . S
C1211 C1212 1.491 . S
C1211 O1226 1.254 . S
C1211 O1227 1.225 . S
C1212 C1211 1.491 . S
C1212 C1213 1.392 . S
C1212 C1217 1.356 . S
C1213 C1212 1.392 . S
C1213 C1214 1.368 . S
C1213 H1236 0.929 . S
C1214 C1213 1.368 . S
C1214 C1215 1.386 . S
C1214 H1237 0.929 . S
C1215 C1214 1.386 . S
C1215 C1216 1.373 . S
C1216 C1215 1.373 . S
C1216 C1217 1.409 . S
C1216 H1238 0.931 . S
C1217 C1212 1.356 . S
C1217 C1216 1.409 . S
C1217 H1239 0.930 . S
C1218 O1228 1.270 . S
C1218 O1229 1.248 . S
C1219 O1230 1.267 . S
C1219 O1231 1.278 . S
O1220 Pr1200 2.562 . S
O1220 C1202 1.254 . S
O1221 Pr1200 2.490 . S
O1221 C1202 1.225 . S
O1222 Pr1200 2.695 . S
O1222 Pr1201 2.436 . S
O1222 C1209 1.270 . S
O1223 Pr1200 2.512 . S
O1223 C1209 1.248 . S
O1224 Pr1201 2.438 . S
O1224 C1210 1.267 . S
O1225 Pr1200 2.437 . S
O1225 C1210 1.278 . S
O1226 Pr1201 2.562 . S
O1226 C1211 1.254 . S
O1227 Pr1201 2.490 . S
O1227 C1211 1.225 . S
O1228 Pr1200 2.436 . S
O1228 Pr1201 2.695 . S
O1228 C1218 1.270 . S
O1229 Pr1201 2.512 . S
O1229 C1218 1.248 . S
O1230 Pr1200 2.438 . S
O1230 C1219 1.267 . S
O1231 Pr1201 2.437 . S
O1231 C1219 1.278 . S
H1232 C1204 0.929 . S
H1233 C1205 0.929 . S
H1234 C1207 0.931 . S
H1235 C1208 0.930 . S
H1236 C1213 0.929 . S
H1237 C1214 0.929 . S
H1238 C1216 0.931 . S
H1239 C1217 0.930 . S
Pr1240 C1242 2.880 . S
Pr1240 O1260 2.562 . S
Pr1240 O1261 2.490 . S
Pr1240 O1262 2.695 . S
Pr1240 O1263 2.512 . S
Pr1240 O1265 2.437 1_545 S
Pr1240 O1268 2.436 . S
Pr1240 O1270 2.438 . S
Pr1241 C1251 2.872 1_565 S
Pr1241 O1262 2.436 1_565 S
Pr1241 O1264 2.438 . S
Pr1241 O1266 2.562 1_565 S
Pr1241 O1267 2.490 . S
Pr1241 O1268 2.695 1_565 S
Pr1241 O1269 2.512 . S
Pr1241 O1271 2.437 1_565 S
C1242 Pr1240 2.880 . S
C1242 C1243 1.491 . S
C1242 O1260 1.254 . S
C1242 O1261 1.225 . S
C1243 C1242 1.491 . S
C1243 C1244 1.392 . S
C1243 C1248 1.356 1_545 S
C1244 C1243 1.392 . S
C1244 C1245 1.368 . S
C1244 H1272 0.929 . S
C1245 C1244 1.368 . S
C1245 C1246 1.386 1_545 S
C1245 H1273 0.929 . S
C1246 C1245 1.386 1_565 S
C1246 C1247 1.373 . S
C1247 C1246 1.373 . S
C1247 C1248 1.409 . S
C1247 H1274 0.931 . S
C1248 C1243 1.356 1_565 S
C1248 C1247 1.409 . S
C1248 H1275 0.930 . S
C1249 O1262 1.270 . S
C1249 O1263 1.248 . S
C1250 O1264 1.267 . S
C1250 O1265 1.278 . S
C1251 Pr1241 2.872 1_545 S
C1251 C1252 1.500 . S
C1251 O1266 1.258 . S
C1251 O1267 1.213 1_545 S
C1252 C1251 1.500 . S
C1252 C1253 1.392 . S
C1252 C1257 1.356 . S
C1253 C1252 1.392 . S
C1253 C1254 1.368 1_455 S
C1253 H1276 0.929 1_545 S
C1254 C1253 1.368 1_655 S
C1254 C1255 1.386 . S
C1254 H1277 0.929 . S
C1255 C1254 1.386 . S
C1255 C1256 1.373 . S
C1256 C1255 1.373 . S
C1256 C1257 1.409 1_655 S
C1256 H1278 0.931 . S
C1257 C1252 1.356 . S
C1257 C1256 1.409 1_455 S
C1257 H1279 0.930 . S
C1258 O1268 1.270 . S
C1258 O1269 1.248 1_545 S
C1259 O1270 1.267 . S
C1259 O1271 1.278 . S
O1260 Pr1240 2.562 . S
O1260 C1242 1.254 . S
O1261 Pr1240 2.490 . S
O1261 C1242 1.225 . S
O1262 Pr1240 2.695 . S
O1262 Pr1241 2.436 1_545 S
O1262 C1249 1.270 . S
O1263 Pr1240 2.512 . S
O1263 C1249 1.248 . S
O1264 Pr1241 2.438 . S
O1264 C1250 1.267 . S
O1265 Pr1240 2.437 1_565 S
O1265 C1250 1.278 . S
O1266 Pr1241 2.562 1_545 S
O1266 C1251 1.258 . S
O1267 Pr1241 2.490 . S
O1267 C1251 1.213 1_565 S
O1268 Pr1240 2.436 . S
O1268 Pr1241 2.695 1_545 S
O1268 C1258 1.270 . S
O1269 Pr1241 2.512 . S
O1269 C1258 1.248 1_565 S
O1270 Pr1240 2.438 . S
O1270 C1259 1.267 . S
O1271 Pr1241 2.437 1_545 S
O1271 C1259 1.278 . S
H1272 C1244 0.929 . S
H1273 C1245 0.929 . S
H1274 C1247 0.931 . S
H1275 C1248 0.930 . S
H1276 C1253 0.929 1_565 S
H1277 C1254 0.929 . S
H1278 C1256 0.931 . S
H1279 C1257 0.930 . S
H1280 C1286 0.930 . S
H1281 C1290 0.930 . S
H1282 C1295 0.929 . S
H1283 C1293 0.929 . S
H1284 C1288 0.929 . S
H1285 C1294 0.929 . S
C1286 H1280 0.930 . S
C1286 C1287 1.367 . S
C1286 C1294 1.378 . S
C1287 C1286 1.367 . S
C1287 C1295 1.433 . S
C1288 H1284 0.929 . S
C1288 C1290 1.378 . S
C1288 C1292 1.350 . S
C1289 C1292 1.463 . S
C1289 C1294 1.350 . S
C1289 N1297 1.427 . S
C1290 H1281 0.930 . S
C1290 C1288 1.378 . S
C1290 C1291 1.367 . S
C1291 C1290 1.367 . S
C1291 C1293 1.433 . S
C1292 C1288 1.350 . S
C1292 C1289 1.463 . S
C1292 N1296 1.427 . S
C1293 H1283 0.929 . S
C1293 C1291 1.433 . S
C1293 N1296 1.384 . S
C1294 H1285 0.929 . S
C1294 C1286 1.378 . S
C1294 C1289 1.350 . S
C1295 H1282 0.929 . S
C1295 C1287 1.433 . S
C1295 N1297 1.384 . S
N1296 C1292 1.427 . S
N1296 C1293 1.384 . S
N1297 C1289 1.427 . S
N1297 C1295 1.384 . S
H1298 C1304 0.930 . S
H1299 C1308 0.930 . S
H1300 C1313 0.929 . S
H1301 C1311 0.929 . S
H1302 C1306 0.929 . S
H1303 C1312 0.929 . S
C1304 H1298 0.930 . S
C1304 C1305 1.367 . S
C1304 C1312 1.378 . S
C1305 C1304 1.367 . S
C1305 C1313 1.433 . S
C1306 H1302 0.929 . S
C1306 C1308 1.378 . S
C1306 C1310 1.350 . S
C1307 C1310 1.463 . S
C1307 C1312 1.350 . S
C1307 N1315 1.427 . S
C1308 H1299 0.930 . S
C1308 C1306 1.378 . S
C1308 C1309 1.367 . S
C1309 C1308 1.367 . S
C1309 C1311 1.433 . S
C1310 C1306 1.350 . S
C1310 C1307 1.463 . S
C1310 N1314 1.427 . S
C1311 H1301 0.929 . S
C1311 C1309 1.433 . S
C1311 N1314 1.384 . S
C1312 H1303 0.929 . S
C1312 C1304 1.378 . S
C1312 C1307 1.350 . S
C1313 H1300 0.929 . S
C1313 C1305 1.433 . S
C1313 N1315 1.384 . S
N1314 C1310 1.427 . S
N1314 C1311 1.384 . S
N1315 C1307 1.427 . S
N1315 C1313 1.384 . S
H1316 C1322 0.930 . S
H1317 C1326 0.930 . S
H1318 C1331 0.929 . S
H1319 C1329 0.929 1_455 S
H1320 C1324 0.929 . S
H1321 C1330 0.929 . S
C1322 H1316 0.930 . S
C1322 C1323 1.367 . S
C1322 C1330 1.378 . S
C1323 C1322 1.367 . S
C1323 C1331 1.433 . S
C1324 H1320 0.929 . S
C1324 C1326 1.378 . S
C1324 C1328 1.350 . S
C1325 C1328 1.463 . S
C1325 C1330 1.350 . S
C1325 N1333 1.427 . S
C1326 H1317 0.930 . S
C1326 C1324 1.378 . S
C1326 C1327 1.367 . S
C1327 C1326 1.367 . S
C1327 C1329 1.433 . S
C1328 C1324 1.350 . S
C1328 C1325 1.463 . S
C1328 N1332 1.427 . S
C1329 H1319 0.929 1_655 S
C1329 C1327 1.433 . S
C1329 N1332 1.384 . S
C1330 H1321 0.929 . S
C1330 C1322 1.378 . S
C1330 C1325 1.350 . S
C1331 H1318 0.929 . S
C1331 C1323 1.433 . S
C1331 N1333 1.384 . S
N1332 C1328 1.427 . S
N1332 C1329 1.384 . S
N1333 C1325 1.427 . S
N1333 C1331 1.384 . S
H1334 C1340 0.930 . S
H1335 C1344 0.930 . S
H1336 C1349 0.929 . S
H1337 C1347 0.929 . S
H1338 C1342 0.929 . S
H1339 C1348 0.929 . S
C1340 H1334 0.930 . S
C1340 C1341 1.367 . S
C1340 C1348 1.378 . S
C1341 C1340 1.367 . S
C1341 C1349 1.433 . S
C1342 H1338 0.929 . S
C1342 C1344 1.378 . S
C1342 C1346 1.350 . S
C1343 C1346 1.463 . S
C1343 C1348 1.350 . S
C1343 N1351 1.427 . S
C1344 H1335 0.930 . S
C1344 C1342 1.378 . S
C1344 C1345 1.367 . S
C1345 C1344 1.367 . S
C1345 C1347 1.433 . S
C1346 C1342 1.350 . S
C1346 C1343 1.463 . S
C1346 N1350 1.427 . S
C1347 H1337 0.929 . S
C1347 C1345 1.433 . S
C1347 N1350 1.384 . S
C1348 H1339 0.929 . S
C1348 C1340 1.378 . S
C1348 C1343 1.350 . S
C1349 H1336 0.929 . S
C1349 C1341 1.433 . S
C1349 N1351 1.384 . S
N1350 C1346 1.427 . S
N1350 C1347 1.384 . S
N1351 C1343 1.427 . S
N1351 C1349 1.384 . S
H1352 C1358 0.930 . S
H1353 C1362 0.930 . S
H1354 C1367 0.929 . S
H1355 C1365 0.929 . S
H1356 C1360 0.929 . S
H1357 C1366 0.929 . S
C1358 H1352 0.930 . S
C1358 C1359 1.367 . S
C1358 C1366 1.378 . S
C1359 C1358 1.367 . S
C1359 C1367 1.433 . S
C1360 H1356 0.929 . S
C1360 C1362 1.378 . S
C1360 C1364 1.350 . S
C1361 C1364 1.463 . S
C1361 C1366 1.350 . S
C1361 N1369 1.427 . S
C1362 H1353 0.930 . S
C1362 C1360 1.378 . S
C1362 C1363 1.367 . S
C1363 C1362 1.367 . S
C1363 C1365 1.433 . S
C1364 C1360 1.350 . S
C1364 C1361 1.463 . S
C1364 N1368 1.427 . S
C1365 H1355 0.929 . S
C1365 C1363 1.433 . S
C1365 N1368 1.384 . S
C1366 H1357 0.929 . S
C1366 C1358 1.378 . S
C1366 C1361 1.350 . S
C1367 H1354 0.929 . S
C1367 C1359 1.433 . S
C1367 N1369 1.384 . S
N1368 C1364 1.427 . S
N1368 C1365 1.384 . S
N1369 C1361 1.427 . S
N1369 C1367 1.384 . S
H1370 C1376 0.930 . S
H1371 C1380 0.930 . S
H1372 C1385 0.929 . S
H1373 C1383 0.929 . S
H1374 C1378 0.929 . S
H1375 C1384 0.929 . S
C1376 H1370 0.930 . S
C1376 C1377 1.367 . S
C1376 C1384 1.378 . S
C1377 C1376 1.367 . S
C1377 C1385 1.433 . S
C1378 H1374 0.929 . S
C1378 C1380 1.378 . S
C1378 C1382 1.350 . S
C1379 C1382 1.463 . S
C1379 C1384 1.350 . S
C1379 N1387 1.427 . S
C1380 H1371 0.930 . S
C1380 C1378 1.378 . S
C1380 C1381 1.367 . S
C1381 C1380 1.367 . S
C1381 C1383 1.433 . S
C1382 C1378 1.350 . S
C1382 C1379 1.463 . S
C1382 N1386 1.427 . S
C1383 H1373 0.929 . S
C1383 C1381 1.433 . S
C1383 N1386 1.384 . S
C1384 H1375 0.929 . S
C1384 C1376 1.378 . S
C1384 C1379 1.350 . S
C1385 H1372 0.929 . S
C1385 C1377 1.433 . S
C1385 N1387 1.384 . S
N1386 C1382 1.427 . S
N1386 C1383 1.384 . S
N1387 C1379 1.427 . S
N1387 C1385 1.384 . S
H1388 C1394 0.930 . S
H1389 C1398 0.930 . S
H1390 C1403 0.929 . S
H1391 C1401 0.929 . S
H1392 C1396 0.929 . S
H1393 C1402 0.929 . S
C1394 H1388 0.930 . S
C1394 C1395 1.367 . S
C1394 C1402 1.378 . S
C1395 C1394 1.367 . S
C1395 C1403 1.433 . S
C1396 H1392 0.929 . S
C1396 C1398 1.378 . S
C1396 C1400 1.350 . S
C1397 C1400 1.463 . S
C1397 C1402 1.350 . S
C1397 N1405 1.427 . S
C1398 H1389 0.930 . S
C1398 C1396 1.378 . S
C1398 C1399 1.367 . S
C1399 C1398 1.367 . S
C1399 C1401 1.433 . S
C1400 C1396 1.350 . S
C1400 C1397 1.463 . S
C1400 N1404 1.427 . S
C1401 H1391 0.929 . S
C1401 C1399 1.433 . S
C1401 N1404 1.384 . S
C1402 H1393 0.929 . S
C1402 C1394 1.378 . S
C1402 C1397 1.350 . S
C1403 H1390 0.929 . S
C1403 C1395 1.433 . S
C1403 N1405 1.384 . S
N1404 C1400 1.427 . S
N1404 C1401 1.384 . S
N1405 C1397 1.427 . S
N1405 C1403 1.384 . S
H1406 C1412 0.930 . S
H1407 C1416 0.930 . S
H1408 C1421 0.929 . S
H1409 C1419 0.929 . S
H1410 C1414 0.929 . S
H1411 C1420 0.929 . S
C1412 H1406 0.930 . S
C1412 C1413 1.367 . S
C1412 C1420 1.378 . S
C1413 C1412 1.367 . S
C1413 C1421 1.433 . S
C1414 H1410 0.929 . S
C1414 C1416 1.378 . S
C1414 C1418 1.350 . S
C1415 C1418 1.463 . S
C1415 C1420 1.350 . S
C1415 N1423 1.427 . S
C1416 H1407 0.930 . S
C1416 C1414 1.378 . S
C1416 C1417 1.367 . S
C1417 C1416 1.367 . S
C1417 C1419 1.433 . S
C1418 C1414 1.350 . S
C1418 C1415 1.463 . S
C1418 N1422 1.427 . S
C1419 H1409 0.929 . S
C1419 C1417 1.433 . S
C1419 N1422 1.384 . S
C1420 H1411 0.929 . S
C1420 C1412 1.378 . S
C1420 C1415 1.350 . S
C1421 H1408 0.929 . S
C1421 C1413 1.433 . S
C1421 N1423 1.384 . S
N1422 C1418 1.427 . S
N1422 C1419 1.384 . S
N1423 C1415 1.427 . S
N1423 C1421 1.384 . S
H1424 C1430 0.930 . S
H1425 C1434 0.930 . S
H1426 C1439 0.929 . S
H1427 C1437 0.929 . S
H1428 C1432 0.929 . S
H1429 C1438 0.929 . S
C1430 H1424 0.930 . S
C1430 C1431 1.367 . S
C1430 C1438 1.378 . S
C1431 C1430 1.367 . S
C1431 C1439 1.433 . S
C1432 H1428 0.929 . S
C1432 C1434 1.378 . S
C1432 C1436 1.350 . S
C1433 C1436 1.463 . S
C1433 C1438 1.350 . S
C1433 N1441 1.427 . S
C1434 H1425 0.930 . S
C1434 C1432 1.378 . S
C1434 C1435 1.367 . S
C1435 C1434 1.367 . S
C1435 C1437 1.433 . S
C1436 C1432 1.350 . S
C1436 C1433 1.463 . S
C1436 N1440 1.427 . S
C1437 H1427 0.929 . S
C1437 C1435 1.433 . S
C1437 N1440 1.384 . S
C1438 H1429 0.929 . S
C1438 C1430 1.378 . S
C1438 C1433 1.350 . S
C1439 H1426 0.929 . S
C1439 C1431 1.433 . S
C1439 N1441 1.384 . S
N1440 C1436 1.427 . S
N1440 C1437 1.384 . S
N1441 C1433 1.427 . S
N1441 C1439 1.384 . S
H1442 C1448 0.930 . S
H1443 C1452 0.930 . S
H1444 C1457 0.929 . S
H1445 C1455 0.929 . S
H1446 C1450 0.929 . S
H1447 C1456 0.929 . S
C1448 H1442 0.930 . S
C1448 C1449 1.367 . S
C1448 C1456 1.378 . S
C1449 C1448 1.367 . S
C1449 C1457 1.433 . S
C1450 H1446 0.929 . S
C1450 C1452 1.378 . S
C1450 C1454 1.350 . S
C1451 C1454 1.463 . S
C1451 C1456 1.350 . S
C1451 N1459 1.427 . S
C1452 H1443 0.930 . S
C1452 C1450 1.378 . S
C1452 C1453 1.367 . S
C1453 C1452 1.367 . S
C1453 C1455 1.433 . S
C1454 C1450 1.350 . S
C1454 C1451 1.463 . S
C1454 N1458 1.427 . S
C1455 H1445 0.929 . S
C1455 C1453 1.433 . S
C1455 N1458 1.384 . S
C1456 H1447 0.929 . S
C1456 C1448 1.378 . S
C1456 C1451 1.350 . S
C1457 H1444 0.929 . S
C1457 C1449 1.433 . S
C1457 N1459 1.384 . S
N1458 C1454 1.427 . S
N1458 C1455 1.384 . S
N1459 C1451 1.427 . S
N1459 C1457 1.384 . S
H1460 C1466 0.930 . S
H1461 C1470 0.930 . S
H1462 C1475 0.929 . S
H1463 C1473 0.929 . S
H1464 C1468 0.929 . S
H1465 C1474 0.929 . S
C1466 H1460 0.930 . S
C1466 C1467 1.367 . S
C1466 C1474 1.378 . S
C1467 C1466 1.367 . S
C1467 C1475 1.433 . S
C1468 H1464 0.929 . S
C1468 C1470 1.378 . S
C1468 C1472 1.350 . S
C1469 C1472 1.463 . S
C1469 C1474 1.350 . S
C1469 N1477 1.427 . S
C1470 H1461 0.930 . S
C1470 C1468 1.378 . S
C1470 C1471 1.367 . S
C1471 C1470 1.367 . S
C1471 C1473 1.433 . S
C1472 C1468 1.350 . S
C1472 C1469 1.463 . S
C1472 N1476 1.427 . S
C1473 H1463 0.929 . S
C1473 C1471 1.433 . S
C1473 N1476 1.384 . S
C1474 H1465 0.929 . S
C1474 C1466 1.378 . S
C1474 C1469 1.350 . S
C1475 H1462 0.929 . S
C1475 C1467 1.433 . S
C1475 N1477 1.384 . S
N1476 C1472 1.427 . S
N1476 C1473 1.384 . S
N1477 C1469 1.427 . S
N1477 C1475 1.384 . S
H1478 C1484 0.930 . S
H1479 C1488 0.930 . S
H1480 C1493 0.929 . S
H1481 C1491 0.929 . S
H1482 C1486 0.929 . S
H1483 C1492 0.929 . S
C1484 H1478 0.930 . S
C1484 C1485 1.367 . S
C1484 C1492 1.378 . S
C1485 C1484 1.367 . S
C1485 C1493 1.433 . S
C1486 H1482 0.929 . S
C1486 C1488 1.378 . S
C1486 C1490 1.350 . S
C1487 C1490 1.463 . S
C1487 C1492 1.350 . S
C1487 N1495 1.427 . S
C1488 H1479 0.930 . S
C1488 C1486 1.378 . S
C1488 C1489 1.367 . S
C1489 C1488 1.367 . S
C1489 C1491 1.433 . S
C1490 C1486 1.350 . S
C1490 C1487 1.463 . S
C1490 N1494 1.427 . S
C1491 H1481 0.929 . S
C1491 C1489 1.433 . S
C1491 N1494 1.384 . S
C1492 H1483 0.929 . S
C1492 C1484 1.378 . S
C1492 C1487 1.350 . S
C1493 H1480 0.929 . S
C1493 C1485 1.433 . S
C1493 N1495 1.384 . S
N1494 C1490 1.427 . S
N1494 C1491 1.384 . S
N1495 C1487 1.427 . S
N1495 C1493 1.384 . S
H1496 C1502 0.930 . S
H1497 C1506 0.930 . S
H1498 C1511 0.929 . S
H1499 C1509 0.929 . S
H1500 C1504 0.929 . S
H1501 C1510 0.929 . S
C1502 H1496 0.930 . S
C1502 C1503 1.367 . S
C1502 C1510 1.378 . S
C1503 C1502 1.367 . S
C1503 C1511 1.433 . S
C1504 H1500 0.929 . S
C1504 C1506 1.378 . S
C1504 C1508 1.350 . S
C1505 C1508 1.463 . S
C1505 C1510 1.350 . S
C1505 N1513 1.427 . S
C1506 H1497 0.930 . S
C1506 C1504 1.378 . S
C1506 C1507 1.367 . S
C1507 C1506 1.367 . S
C1507 C1509 1.433 . S
C1508 C1504 1.350 . S
C1508 C1505 1.463 . S
C1508 N1512 1.427 . S
C1509 H1499 0.929 . S
C1509 C1507 1.433 . S
C1509 N1512 1.384 . S
C1510 H1501 0.929 . S
C1510 C1502 1.378 . S
C1510 C1505 1.350 . S
C1511 H1498 0.929 . S
C1511 C1503 1.433 . S
C1511 N1513 1.384 . S
N1512 C1508 1.427 . S
N1512 C1509 1.384 . S
N1513 C1505 1.427 . S
N1513 C1511 1.384 . S
H1514 C1520 0.930 . S
H1515 C1524 0.930 . S
H1516 C1529 0.929 . S
H1517 C1527 0.929 . S
H1518 C1522 0.929 . S
H1519 C1528 0.929 . S
C1520 H1514 0.930 . S
C1520 C1521 1.367 . S
C1520 C1528 1.378 . S
C1521 C1520 1.367 . S
C1521 C1529 1.433 . S
C1522 H1518 0.929 . S
C1522 C1524 1.378 . S
C1522 C1526 1.350 . S
C1523 C1526 1.463 . S
C1523 C1528 1.350 . S
C1523 N1531 1.427 . S
C1524 H1515 0.930 . S
C1524 C1522 1.378 . S
C1524 C1525 1.367 . S
C1525 C1524 1.367 . S
C1525 C1527 1.433 . S
C1526 C1522 1.350 . S
C1526 C1523 1.463 . S
C1526 N1530 1.427 . S
C1527 H1517 0.929 . S
C1527 C1525 1.433 . S
C1527 N1530 1.384 . S
C1528 H1519 0.929 . S
C1528 C1520 1.378 . S
C1528 C1523 1.350 . S
C1529 H1516 0.929 . S
C1529 C1521 1.433 . S
C1529 N1531 1.384 . S
N1530 C1526 1.427 . S
N1530 C1527 1.384 . S
N1531 C1523 1.427 . S
N1531 C1529 1.384 . S
H1532 C1538 0.930 . S
H1533 C1542 0.930 . S
H1534 C1547 0.929 . S
H1535 C1545 0.929 . S
H1536 C1540 0.929 . S
H1537 C1546 0.929 . S
C1538 H1532 0.930 . S
C1538 C1539 1.367 . S
C1538 C1546 1.378 . S
C1539 C1538 1.367 . S
C1539 C1547 1.433 . S
C1540 H1536 0.929 . S
C1540 C1542 1.378 . S
C1540 C1544 1.350 . S
C1541 C1544 1.463 . S
C1541 C1546 1.350 . S
C1541 N1549 1.427 . S
C1542 H1533 0.930 . S
C1542 C1540 1.378 . S
C1542 C1543 1.367 . S
C1543 C1542 1.367 . S
C1543 C1545 1.433 . S
C1544 C1540 1.350 . S
C1544 C1541 1.463 . S
C1544 N1548 1.427 . S
C1545 H1535 0.929 . S
C1545 C1543 1.433 . S
C1545 N1548 1.384 . S
C1546 H1537 0.929 . S
C1546 C1538 1.378 . S
C1546 C1541 1.350 . S
C1547 H1534 0.929 . S
C1547 C1539 1.433 . S
C1547 N1549 1.384 . S
N1548 C1544 1.427 . S
N1548 C1545 1.384 . S
N1549 C1541 1.427 . S
N1549 C1547 1.384 . S
H1550 C1556 0.930 . S
H1551 C1560 0.930 . S
H1552 C1565 0.929 . S
H1553 C1563 0.929 . S
H1554 C1558 0.929 . S
H1555 C1564 0.929 . S
C1556 H1550 0.930 . S
C1556 C1557 1.367 . S
C1556 C1564 1.378 . S
C1557 C1556 1.367 . S
C1557 C1565 1.433 . S
C1558 H1554 0.929 . S
C1558 C1560 1.378 . S
C1558 C1562 1.350 . S
C1559 C1562 1.463 . S
C1559 C1564 1.350 . S
C1559 N1567 1.427 . S
C1560 H1551 0.930 . S
C1560 C1558 1.378 . S
C1560 C1561 1.367 . S
C1561 C1560 1.367 . S
C1561 C1563 1.433 . S
C1562 C1558 1.350 . S
C1562 C1559 1.463 . S
C1562 N1566 1.427 . S
C1563 H1553 0.929 . S
C1563 C1561 1.433 . S
C1563 N1566 1.384 . S
C1564 H1555 0.929 . S
C1564 C1556 1.378 . S
C1564 C1559 1.350 . S
C1565 H1552 0.929 . S
C1565 C1557 1.433 . S
C1565 N1567 1.384 . S
N1566 C1562 1.427 . S
N1566 C1563 1.384 . S
N1567 C1559 1.427 . S
N1567 C1565 1.384 . S
H1568 C1574 0.930 . S
H1569 C1578 0.930 . S
H1570 C1583 0.929 . S
H1571 C1581 0.929 . S
H1572 C1576 0.929 . S
H1573 C1582 0.929 . S
C1574 H1568 0.930 . S
C1574 C1575 1.367 . S
C1574 C1582 1.378 . S
C1575 C1574 1.367 . S
C1575 C1583 1.433 . S
C1576 H1572 0.929 . S
C1576 C1578 1.378 . S
C1576 C1580 1.350 . S
C1577 C1580 1.463 . S
C1577 C1582 1.350 . S
C1577 N1585 1.427 . S
C1578 H1569 0.930 . S
C1578 C1576 1.378 . S
C1578 C1579 1.367 . S
C1579 C1578 1.367 . S
C1579 C1581 1.433 . S
C1580 C1576 1.350 . S
C1580 C1577 1.463 . S
C1580 N1584 1.427 . S
C1581 H1571 0.929 . S
C1581 C1579 1.433 . S
C1581 N1584 1.384 . S
C1582 H1573 0.929 . S
C1582 C1574 1.378 . S
C1582 C1577 1.350 . S
C1583 H1570 0.929 . S
C1583 C1575 1.433 . S
C1583 N1585 1.384 . S
N1584 C1580 1.427 . S
N1584 C1581 1.384 . S
N1585 C1577 1.427 . S
N1585 C1583 1.384 . S
H1586 C1592 0.930 . S
H1587 C1596 0.930 . S
H1588 C1601 0.929 . S
H1589 C1599 0.929 . S
H1590 C1594 0.929 . S
H1591 C1600 0.929 . S
C1592 H1586 0.930 . S
C1592 C1593 1.367 . S
C1592 C1600 1.378 . S
C1593 C1592 1.367 . S
C1593 C1601 1.433 . S
C1594 H1590 0.929 . S
C1594 C1596 1.378 . S
C1594 C1598 1.350 . S
C1595 C1598 1.463 . S
C1595 C1600 1.350 . S
C1595 N1603 1.427 . S
C1596 H1587 0.930 . S
C1596 C1594 1.378 . S
C1596 C1597 1.367 . S
C1597 C1596 1.367 . S
C1597 C1599 1.433 . S
C1598 C1594 1.350 . S
C1598 C1595 1.463 . S
C1598 N1602 1.427 . S
C1599 H1589 0.929 . S
C1599 C1597 1.433 . S
C1599 N1602 1.384 . S
C1600 H1591 0.929 . S
C1600 C1592 1.378 . S
C1600 C1595 1.350 . S
C1601 H1588 0.929 . S
C1601 C1593 1.433 . S
C1601 N1603 1.384 . S
N1602 C1598 1.427 . S
N1602 C1599 1.384 . S
N1603 C1595 1.427 . S
N1603 C1601 1.384 . S
H1604 C1610 0.930 . S
H1605 C1614 0.930 . S
H1606 C1619 0.929 . S
H1607 C1617 0.929 . S
H1608 C1612 0.929 . S
H1609 C1618 0.929 . S
C1610 H1604 0.930 . S
C1610 C1611 1.367 . S
C1610 C1618 1.378 . S
C1611 C1610 1.367 . S
C1611 C1619 1.433 . S
C1612 H1608 0.929 . S
C1612 C1614 1.378 . S
C1612 C1616 1.350 . S
C1613 C1616 1.463 . S
C1613 C1618 1.350 . S
C1613 N1621 1.427 . S
C1614 H1605 0.930 . S
C1614 C1612 1.378 . S
C1614 C1615 1.367 . S
C1615 C1614 1.367 . S
C1615 C1617 1.433 . S
C1616 C1612 1.350 . S
C1616 C1613 1.463 . S
C1616 N1620 1.427 . S
C1617 H1607 0.929 . S
C1617 C1615 1.433 . S
C1617 N1620 1.384 . S
C1618 H1609 0.929 . S
C1618 C1610 1.378 . S
C1618 C1613 1.350 . S
C1619 H1606 0.929 . S
C1619 C1611 1.433 . S
C1619 N1621 1.384 . S
N1620 C1616 1.427 . S
N1620 C1617 1.384 . S
N1621 C1613 1.427 . S
N1621 C1619 1.384 . S
H1622 C1628 0.930 . S
H1623 C1632 0.930 . S
H1624 C1637 0.929 . S
H1625 C1635 0.929 . S
H1626 C1630 0.929 . S
H1627 C1636 0.929 . S
C1628 H1622 0.930 . S
C1628 C1629 1.367 . S
C1628 C1636 1.378 . S
C1629 C1628 1.367 . S
C1629 C1637 1.433 . S
C1630 H1626 0.929 . S
C1630 C1632 1.378 . S
C1630 C1634 1.350 . S
C1631 C1634 1.463 . S
C1631 C1636 1.350 . S
C1631 N1639 1.427 . S
C1632 H1623 0.930 . S
C1632 C1630 1.378 . S
C1632 C1633 1.367 . S
C1633 C1632 1.367 . S
C1633 C1635 1.433 . S
C1634 C1630 1.350 . S
C1634 C1631 1.463 . S
C1634 N1638 1.427 . S
C1635 H1625 0.929 . S
C1635 C1633 1.433 . S
C1635 N1638 1.384 . S
C1636 H1627 0.929 . S
C1636 C1628 1.378 . S
C1636 C1631 1.350 . S
C1637 H1624 0.929 . S
C1637 C1629 1.433 . S
C1637 N1639 1.384 . S
N1638 C1634 1.427 . S
N1638 C1635 1.384 . S
N1639 C1631 1.427 . S
N1639 C1637 1.384 . S
H1640 C1646 0.930 . S
H1641 C1650 0.930 . S
H1642 C1655 0.929 . S
H1643 C1653 0.929 . S
H1644 C1648 0.929 . S
H1645 C1654 0.929 . S
C1646 H1640 0.930 . S
C1646 C1647 1.367 . S
C1646 C1654 1.378 . S
C1647 C1646 1.367 . S
C1647 C1655 1.433 1_565 S
C1648 H1644 0.929 . S
C1648 C1650 1.378 . S
C1648 C1652 1.350 1_545 S
C1649 C1652 1.463 . S
C1649 C1654 1.350 . S
C1649 N1657 1.427 1_565 S
C1650 H1641 0.930 . S
C1650 C1648 1.378 . S
C1650 C1651 1.367 1_545 S
C1651 C1650 1.367 1_565 S
C1651 C1653 1.433 . S
C1652 C1648 1.350 1_565 S
C1652 C1649 1.463 . S
C1652 N1656 1.427 . S
C1653 H1643 0.929 . S
C1653 C1651 1.433 . S
C1653 N1656 1.384 . S
C1654 H1645 0.929 . S
C1654 C1646 1.378 . S
C1654 C1649 1.350 . S
C1655 H1642 0.929 . S
C1655 C1647 1.433 1_545 S
C1655 N1657 1.384 . S
N1656 C1652 1.427 . S
N1656 C1653 1.384 . S
N1657 C1649 1.427 1_545 S
N1657 C1655 1.384 . S
H1658 C1664 0.930 . S
H1659 C1668 0.930 . S
H1660 C1673 0.929 . S
H1661 C1671 0.929 . S
H1662 C1666 0.929 . S
H1663 C1672 0.929 . S
C1664 H1658 0.930 . S
C1664 C1665 1.367 . S
C1664 C1672 1.378 . S
C1665 C1664 1.367 . S
C1665 C1673 1.433 . S
C1666 H1662 0.929 . S
C1666 C1668 1.378 . S
C1666 C1670 1.350 . S
C1667 C1670 1.463 . S
C1667 C1672 1.350 . S
C1667 N1675 1.427 . S
C1668 H1659 0.930 . S
C1668 C1666 1.378 . S
C1668 C1669 1.367 . S
C1669 C1668 1.367 . S
C1669 C1671 1.433 . S
C1670 C1666 1.350 . S
C1670 C1667 1.463 . S
C1670 N1674 1.427 . S
C1671 H1661 0.929 . S
C1671 C1669 1.433 . S
C1671 N1674 1.384 . S
C1672 H1663 0.929 . S
C1672 C1664 1.378 . S
C1672 C1667 1.350 . S
C1673 H1660 0.929 . S
C1673 C1665 1.433 . S
C1673 N1675 1.384 . S
N1674 C1670 1.427 . S
N1674 C1671 1.384 . S
N1675 C1667 1.427 . S
N1675 C1673 1.384 . S
H1676 C1682 0.930 . S
H1677 C1686 0.930 . S
H1678 C1691 0.929 . S
H1679 C1689 0.929 . S
H1680 C1684 0.929 . S
H1681 C1690 0.929 . S
C1682 H1676 0.930 . S
C1682 C1683 1.367 1_565 S
C1682 C1690 1.378 . S
C1683 C1682 1.367 1_545 S
C1683 C1691 1.433 . S
C1684 H1680 0.929 . S
C1684 C1686 1.378 . S
C1684 C1688 1.350 . S
C1685 C1688 1.463 . S
C1685 C1690 1.350 1_545 S
C1685 N1693 1.427 . S
C1686 H1677 0.930 . S
C1686 C1684 1.378 . S
C1686 C1687 1.367 . S
C1687 C1686 1.367 . S
C1687 C1689 1.433 1_545 S
C1688 C1684 1.350 . S
C1688 C1685 1.463 . S
C1688 N1692 1.427 1_545 S
C1689 H1679 0.929 . S
C1689 C1687 1.433 1_565 S
C1689 N1692 1.384 . S
C1690 H1681 0.929 . S
C1690 C1682 1.378 . S
C1690 C1685 1.350 1_565 S
C1691 H1678 0.929 . S
C1691 C1683 1.433 . S
C1691 N1693 1.384 . S
N1692 C1688 1.427 1_565 S
N1692 C1689 1.384 . S
N1693 C1685 1.427 . S
N1693 C1691 1.384 . S
H1694 C1700 0.930 . S
H1695 C1704 0.930 . S
H1696 C1709 0.929 . S
H1697 C1707 0.929 . S
H1698 C1702 0.929 . S
H1699 C1708 0.929 . S
C1700 H1694 0.930 . S
C1700 C1701 1.367 . S
C1700 C1708 1.378 . S
C1701 C1700 1.367 . S
C1701 C1709 1.433 . S
C1702 H1698 0.929 . S
C1702 C1704 1.378 . S
C1702 C1706 1.350 . S
C1703 C1706 1.463 . S
C1703 C1708 1.350 . S
C1703 N1711 1.427 . S
C1704 H1695 0.930 . S
C1704 C1702 1.378 . S
C1704 C1705 1.367 . S
C1705 C1704 1.367 . S
C1705 C1707 1.433 . S
C1706 C1702 1.350 . S
C1706 C1703 1.463 . S
C1706 N1710 1.427 . S
C1707 H1697 0.929 . S
C1707 C1705 1.433 . S
C1707 N1710 1.384 . S
C1708 H1699 0.929 . S
C1708 C1700 1.378 . S
C1708 C1703 1.350 . S
C1709 H1696 0.929 . S
C1709 C1701 1.433 . S
C1709 N1711 1.384 . S
N1710 C1706 1.427 . S
N1710 C1707 1.384 . S
N1711 C1703 1.427 . S
N1711 C1709 1.384 . S
H1712 C1718 0.930 . S
H1713 C1722 0.930 . S
H1714 C1727 0.929 . S
H1715 C1725 0.929 . S
H1716 C1720 0.929 . S
H1717 C1726 0.929 . S
C1718 H1712 0.930 . S
C1718 C1719 1.367 . S
C1718 C1726 1.378 . S
C1719 C1718 1.367 . S
C1719 C1727 1.433 . S
C1720 H1716 0.929 . S
C1720 C1722 1.378 . S
C1720 C1724 1.350 . S
C1721 C1724 1.463 . S
C1721 C1726 1.350 . S
C1721 N1729 1.427 . S
C1722 H1713 0.930 . S
C1722 C1720 1.378 . S
C1722 C1723 1.367 . S
C1723 C1722 1.367 . S
C1723 C1725 1.433 . S
C1724 C1720 1.350 . S
C1724 C1721 1.463 . S
C1724 N1728 1.427 . S
C1725 H1715 0.929 . S
C1725 C1723 1.433 . S
C1725 N1728 1.384 . S
C1726 H1717 0.929 . S
C1726 C1718 1.378 . S
C1726 C1721 1.350 . S
C1727 H1714 0.929 . S
C1727 C1719 1.433 . S
C1727 N1729 1.384 . S
N1728 C1724 1.427 . S
N1728 C1725 1.384 . S
N1729 C1721 1.427 . S
N1729 C1727 1.384 . S
H1730 C1736 0.930 . S
H1731 C1740 0.930 . S
H1732 C1745 0.929 . S
H1733 C1743 0.929 . S
H1734 C1738 0.929 . S
H1735 C1744 0.929 . S
C1736 H1730 0.930 . S
C1736 C1737 1.367 . S
C1736 C1744 1.378 . S
C1737 C1736 1.367 . S
C1737 C1745 1.433 . S
C1738 H1734 0.929 . S
C1738 C1740 1.378 . S
C1738 C1742 1.350 . S
C1739 C1742 1.463 . S
C1739 C1744 1.350 . S
C1739 N1747 1.427 . S
C1740 H1731 0.930 . S
C1740 C1738 1.378 . S
C1740 C1741 1.367 . S
C1741 C1740 1.367 . S
C1741 C1743 1.433 . S
C1742 C1738 1.350 . S
C1742 C1739 1.463 . S
C1742 N1746 1.427 . S
C1743 H1733 0.929 . S
C1743 C1741 1.433 . S
C1743 N1746 1.384 . S
C1744 H1735 0.929 . S
C1744 C1736 1.378 . S
C1744 C1739 1.350 . S
C1745 H1732 0.929 . S
C1745 C1737 1.433 . S
C1745 N1747 1.384 . S
N1746 C1742 1.427 . S
N1746 C1743 1.384 . S
N1747 C1739 1.427 . S
N1747 C1745 1.384 . S
H1748 C1754 0.930 . S
H1749 C1758 0.930 . S
H1750 C1763 0.929 . S
H1751 C1761 0.929 . S
H1752 C1756 0.929 . S
H1753 C1762 0.929 . S
C1754 H1748 0.930 . S
C1754 C1755 1.367 . S
C1754 C1762 1.378 . S
C1755 C1754 1.367 . S
C1755 C1763 1.433 . S
C1756 H1752 0.929 . S
C1756 C1758 1.378 . S
C1756 C1760 1.350 . S
C1757 C1760 1.463 . S
C1757 C1762 1.350 . S
C1757 N1765 1.427 . S
C1758 H1749 0.930 . S
C1758 C1756 1.378 . S
C1758 C1759 1.367 . S
C1759 C1758 1.367 . S
C1759 C1761 1.433 . S
C1760 C1756 1.350 . S
C1760 C1757 1.463 . S
C1760 N1764 1.427 . S
C1761 H1751 0.929 . S
C1761 C1759 1.433 . S
C1761 N1764 1.384 . S
C1762 H1753 0.929 . S
C1762 C1754 1.378 . S
C1762 C1757 1.350 . S
C1763 H1750 0.929 . S
C1763 C1755 1.433 . S
C1763 N1765 1.384 . S
N1764 C1760 1.427 . S
N1764 C1761 1.384 . S
N1765 C1757 1.427 . S
N1765 C1763 1.384 . S
H1766 C1772 0.930 . S
H1767 C1776 0.930 . S
H1768 C1781 0.929 . S
H1769 C1779 0.929 . S
H1770 C1774 0.929 . S
H1771 C1780 0.929 . S
C1772 H1766 0.930 . S
C1772 C1773 1.367 . S
C1772 C1780 1.378 . S
C1773 C1772 1.367 . S
C1773 C1781 1.433 . S
C1774 H1770 0.929 . S
C1774 C1776 1.378 . S
C1774 C1778 1.350 . S
C1775 C1778 1.463 . S
C1775 C1780 1.350 . S
C1775 N1783 1.427 . S
C1776 H1767 0.930 . S
C1776 C1774 1.378 . S
C1776 C1777 1.367 . S
C1777 C1776 1.367 . S
C1777 C1779 1.433 . S
C1778 C1774 1.350 . S
C1778 C1775 1.463 . S
C1778 N1782 1.427 . S
C1779 H1769 0.929 . S
C1779 C1777 1.433 . S
C1779 N1782 1.384 . S
C1780 H1771 0.929 . S
C1780 C1772 1.378 . S
C1780 C1775 1.350 . S
C1781 H1768 0.929 . S
C1781 C1773 1.433 . S
C1781 N1783 1.384 . S
N1782 C1778 1.427 . S
N1782 C1779 1.384 . S
N1783 C1775 1.427 . S
N1783 C1781 1.384 . S
H1784 C1790 0.930 . S
H1785 C1794 0.930 . S
H1786 C1799 0.929 . S
H1787 C1797 0.929 . S
H1788 C1792 0.929 . S
H1789 C1798 0.929 . S
C1790 H1784 0.930 . S
C1790 C1791 1.367 . S
C1790 C1798 1.378 . S
C1791 C1790 1.367 . S
C1791 C1799 1.433 1_565 S
C1792 H1788 0.929 . S
C1792 C1794 1.378 . S
C1792 C1796 1.350 1_545 S
C1793 C1796 1.463 . S
C1793 C1798 1.350 . S
C1793 N1801 1.427 1_565 S
C1794 H1785 0.930 . S
C1794 C1792 1.378 . S
C1794 C1795 1.367 1_545 S
C1795 C1794 1.367 1_565 S
C1795 C1797 1.433 . S
C1796 C1792 1.350 1_565 S
C1796 C1793 1.463 . S
C1796 N1800 1.427 . S
C1797 H1787 0.929 . S
C1797 C1795 1.433 . S
C1797 N1800 1.384 . S
C1798 H1789 0.929 . S
C1798 C1790 1.378 . S
C1798 C1793 1.350 . S
C1799 H1786 0.929 . S
C1799 C1791 1.433 1_545 S
C1799 N1801 1.384 . S
N1800 C1796 1.427 . S
N1800 C1797 1.384 . S
N1801 C1793 1.427 1_545 S
N1801 C1799 1.384 . S
H1802 C1808 0.930 . S
H1803 C1812 0.930 . S
H1804 C1817 0.929 . S
H1805 C1815 0.929 . S
H1806 C1810 0.929 . S
H1807 C1816 0.929 . S
C1808 H1802 0.930 . S
C1808 C1809 1.367 . S
C1808 C1816 1.378 . S
C1809 C1808 1.367 . S
C1809 C1817 1.433 . S
C1810 H1806 0.929 . S
C1810 C1812 1.378 . S
C1810 C1814 1.350 . S
C1811 C1814 1.463 . S
C1811 C1816 1.350 . S
C1811 N1819 1.427 . S
C1812 H1803 0.930 . S
C1812 C1810 1.378 . S
C1812 C1813 1.367 . S
C1813 C1812 1.367 . S
C1813 C1815 1.433 . S
C1814 C1810 1.350 . S
C1814 C1811 1.463 . S
C1814 N1818 1.427 . S
C1815 H1805 0.929 . S
C1815 C1813 1.433 . S
C1815 N1818 1.384 . S
C1816 H1807 0.929 . S
C1816 C1808 1.378 . S
C1816 C1811 1.350 . S
C1817 H1804 0.929 . S
C1817 C1809 1.433 . S
C1817 N1819 1.384 . S
N1818 C1814 1.427 . S
N1818 C1815 1.384 . S
N1819 C1811 1.427 . S
N1819 C1817 1.384 . S
H1820 C1826 0.930 . S
H1821 C1830 0.930 . S
H1822 C1835 0.929 . S
H1823 C1833 0.929 . S
H1824 C1828 0.929 . S
H1825 C1834 0.929 . S
C1826 H1820 0.930 . S
C1826 C1827 1.367 . S
C1826 C1834 1.378 . S
C1827 C1826 1.367 . S
C1827 C1835 1.433 1_545 S
C1828 H1824 0.929 . S
C1828 C1830 1.378 . S
C1828 C1832 1.350 1_565 S
C1829 C1832 1.463 . S
C1829 C1834 1.350 . S
C1829 N1837 1.427 1_545 S
C1830 H1821 0.930 . S
C1830 C1828 1.378 . S
C1830 C1831 1.367 1_565 S
C1831 C1830 1.367 1_545 S
C1831 C1833 1.433 . S
C1832 C1828 1.350 1_545 S
C1832 C1829 1.463 . S
C1832 N1836 1.427 . S
C1833 H1823 0.929 . S
C1833 C1831 1.433 . S
C1833 N1836 1.384 . S
C1834 H1825 0.929 . S
C1834 C1826 1.378 . S
C1834 C1829 1.350 . S
C1835 H1822 0.929 . S
C1835 C1827 1.433 1_565 S
C1835 N1837 1.384 . S
N1836 C1832 1.427 . S
N1836 C1833 1.384 . S
N1837 C1829 1.427 1_565 S
N1837 C1835 1.384 . S
H1838 C1844 0.930 . S
H1839 C1848 0.930 . S
H1840 C1853 0.929 . S
H1841 C1851 0.929 . S
H1842 C1846 0.929 . S
H1843 C1852 0.929 . S
C1844 H1838 0.930 . S
C1844 C1845 1.367 . S
C1844 C1852 1.378 . S
C1845 C1844 1.367 . S
C1845 C1853 1.433 . S
C1846 H1842 0.929 . S
C1846 C1848 1.378 . S
C1846 C1850 1.350 . S
C1847 C1850 1.463 . S
C1847 C1852 1.350 . S
C1847 N1855 1.427 . S
C1848 H1839 0.930 . S
C1848 C1846 1.378 . S
C1848 C1849 1.367 . S
C1849 C1848 1.367 . S
C1849 C1851 1.433 . S
C1850 C1846 1.350 . S
C1850 C1847 1.463 . S
C1850 N1854 1.427 . S
C1851 H1841 0.929 . S
C1851 C1849 1.433 . S
C1851 N1854 1.384 . S
C1852 H1843 0.929 . S
C1852 C1844 1.378 . S
C1852 C1847 1.350 . S
C1853 H1840 0.929 . S
C1853 C1845 1.433 . S
C1853 N1855 1.384 . S
N1854 C1850 1.427 . S
N1854 C1851 1.384 . S
N1855 C1847 1.427 . S
N1855 C1853 1.384 . S
H1856 C1862 0.930 . S
H1857 C1866 0.930 . S
H1858 C1871 0.929 . S
H1859 C1869 0.929 . S
H1860 C1864 0.929 . S
H1861 C1870 0.929 . S
C1862 H1856 0.930 . S
C1862 C1863 1.367 . S
C1862 C1870 1.378 . S
C1863 C1862 1.367 . S
C1863 C1871 1.433 . S
C1864 H1860 0.929 . S
C1864 C1866 1.378 . S
C1864 C1868 1.350 . S
C1865 C1868 1.463 . S
C1865 C1870 1.350 . S
C1865 N1873 1.427 . S
C1866 H1857 0.930 . S
C1866 C1864 1.378 . S
C1866 C1867 1.367 . S
C1867 C1866 1.367 . S
C1867 C1869 1.433 . S
C1868 C1864 1.350 . S
C1868 C1865 1.463 . S
C1868 N1872 1.427 . S
C1869 H1859 0.929 . S
C1869 C1867 1.433 . S
C1869 N1872 1.384 . S
C1870 H1861 0.929 . S
C1870 C1862 1.378 . S
C1870 C1865 1.350 . S
C1871 H1858 0.929 . S
C1871 C1863 1.433 . S
C1871 N1873 1.384 . S
N1872 C1868 1.427 . S
N1872 C1869 1.384 . S
N1873 C1865 1.427 . S
N1873 C1871 1.384 . S
H1874 C1880 0.930 . S
H1875 C1884 0.930 . S
H1876 C1889 0.929 . S
H1877 C1887 0.929 . S
H1878 C1882 0.929 . S
H1879 C1888 0.929 . S
C1880 H1874 0.930 . S
C1880 C1881 1.367 . S
C1880 C1888 1.378 . S
C1881 C1880 1.367 . S
C1881 C1889 1.433 . S
C1882 H1878 0.929 . S
C1882 C1884 1.378 . S
C1882 C1886 1.350 . S
C1883 C1886 1.463 . S
C1883 C1888 1.350 . S
C1883 N1891 1.427 . S
C1884 H1875 0.930 . S
C1884 C1882 1.378 . S
C1884 C1885 1.367 . S
C1885 C1884 1.367 . S
C1885 C1887 1.433 . S
C1886 C1882 1.350 . S
C1886 C1883 1.463 . S
C1886 N1890 1.427 . S
C1887 H1877 0.929 . S
C1887 C1885 1.433 . S
C1887 N1890 1.384 . S
C1888 H1879 0.929 . S
C1888 C1880 1.378 . S
C1888 C1883 1.350 . S
C1889 H1876 0.929 . S
C1889 C1881 1.433 . S
C1889 N1891 1.384 . S
N1890 C1886 1.427 . S
N1890 C1887 1.384 . S
N1891 C1883 1.427 . S
N1891 C1889 1.384 . S
H1892 C1898 0.930 . S
H1893 C1902 0.930 . S
H1894 C1907 0.929 . S
H1895 C1905 0.929 . S
H1896 C1900 0.929 . S
H1897 C1906 0.929 . S
C1898 H1892 0.930 . S
C1898 C1899 1.367 . S
C1898 C1906 1.378 . S
C1899 C1898 1.367 . S
C1899 C1907 1.433 . S
C1900 H1896 0.929 . S
C1900 C1902 1.378 . S
C1900 C1904 1.350 . S
C1901 C1904 1.463 . S
C1901 C1906 1.350 . S
C1901 N1909 1.427 . S
C1902 H1893 0.930 . S
C1902 C1900 1.378 . S
C1902 C1903 1.367 . S
C1903 C1902 1.367 . S
C1903 C1905 1.433 . S
C1904 C1900 1.350 . S
C1904 C1901 1.463 . S
C1904 N1908 1.427 . S
C1905 H1895 0.929 . S
C1905 C1903 1.433 . S
C1905 N1908 1.384 . S
C1906 H1897 0.929 . S
C1906 C1898 1.378 . S
C1906 C1901 1.350 . S
C1907 H1894 0.929 . S
C1907 C1899 1.433 . S
C1907 N1909 1.384 . S
N1908 C1904 1.427 . S
N1908 C1905 1.384 . S
N1909 C1901 1.427 . S
N1909 C1907 1.384 . S
H1910 C1916 0.930 . S
H1911 C1920 0.930 . S
H1912 C1925 0.929 . S
H1913 C1923 0.929 . S
H1914 C1918 0.929 . S
H1915 C1924 0.929 . S
C1916 H1910 0.930 . S
C1916 C1917 1.367 . S
C1916 C1924 1.378 . S
C1917 C1916 1.367 . S
C1917 C1925 1.433 . S
C1918 H1914 0.929 . S
C1918 C1920 1.378 . S
C1918 C1922 1.350 . S
C1919 C1922 1.463 . S
C1919 C1924 1.350 . S
C1919 N1927 1.427 . S
C1920 H1911 0.930 . S
C1920 C1918 1.378 . S
C1920 C1921 1.367 . S
C1921 C1920 1.367 . S
C1921 C1923 1.433 . S
C1922 C1918 1.350 . S
C1922 C1919 1.463 . S
C1922 N1926 1.427 . S
C1923 H1913 0.929 . S
C1923 C1921 1.433 . S
C1923 N1926 1.384 . S
C1924 H1915 0.929 . S
C1924 C1916 1.378 . S
C1924 C1919 1.350 . S
C1925 H1912 0.929 . S
C1925 C1917 1.433 . S
C1925 N1927 1.384 . S
N1926 C1922 1.427 . S
N1926 C1923 1.384 . S
N1927 C1919 1.427 . S
N1927 C1925 1.384 . S
H1928 C1934 0.930 . S
H1929 C1938 0.930 . S
H1930 C1943 0.929 . S
H1931 C1941 0.929 . S
H1932 C1936 0.929 . S
H1933 C1942 0.929 . S
C1934 H1928 0.930 . S
C1934 C1935 1.367 . S
C1934 C1942 1.378 . S
C1935 C1934 1.367 . S
C1935 C1943 1.433 . S
C1936 H1932 0.929 . S
C1936 C1938 1.378 . S
C1936 C1940 1.350 . S
C1937 C1940 1.463 . S
C1937 C1942 1.350 . S
C1937 N1945 1.427 . S
C1938 H1929 0.930 . S
C1938 C1936 1.378 . S
C1938 C1939 1.367 . S
C1939 C1938 1.367 . S
C1939 C1941 1.433 . S
C1940 C1936 1.350 . S
C1940 C1937 1.463 . S
C1940 N1944 1.427 . S
C1941 H1931 0.929 . S
C1941 C1939 1.433 . S
C1941 N1944 1.384 . S
C1942 H1933 0.929 . S
C1942 C1934 1.378 . S
C1942 C1937 1.350 . S
C1943 H1930 0.929 . S
C1943 C1935 1.433 . S
C1943 N1945 1.384 . S
N1944 C1940 1.427 . S
N1944 C1941 1.384 . S
N1945 C1937 1.427 . S
N1945 C1943 1.384 . S
H1946 C1952 0.930 . S
H1947 C1956 0.930 . S
H1948 C1961 0.929 . S
H1949 C1959 0.929 . S
H1950 C1954 0.929 . S
H1951 C1960 0.929 . S
C1952 H1946 0.930 . S
C1952 C1953 1.367 . S
C1952 C1960 1.378 . S
C1953 C1952 1.367 . S
C1953 C1961 1.433 . S
C1954 H1950 0.929 . S
C1954 C1956 1.378 . S
C1954 C1958 1.350 . S
C1955 C1958 1.463 . S
C1955 C1960 1.350 . S
C1955 N1963 1.427 . S
C1956 H1947 0.930 . S
C1956 C1954 1.378 . S
C1956 C1957 1.367 . S
C1957 C1956 1.367 . S
C1957 C1959 1.433 . S
C1958 C1954 1.350 . S
C1958 C1955 1.463 . S
C1958 N1962 1.427 . S
C1959 H1949 0.929 . S
C1959 C1957 1.433 . S
C1959 N1962 1.384 . S
C1960 H1951 0.929 . S
C1960 C1952 1.378 . S
C1960 C1955 1.350 . S
C1961 H1948 0.929 . S
C1961 C1953 1.433 . S
C1961 N1963 1.384 . S
N1962 C1958 1.427 . S
N1962 C1959 1.384 . S
N1963 C1955 1.427 . S
N1963 C1961 1.384 . S
H1964 C1970 0.930 . S
H1965 C1974 0.930 . S
H1966 C1979 0.929 . S
H1967 C1977 0.929 . S
H1968 C1972 0.929 . S
H1969 C1978 0.929 . S
C1970 H1964 0.930 . S
C1970 C1971 1.367 . S
C1970 C1978 1.378 . S
C1971 C1970 1.367 . S
C1971 C1979 1.433 . S
C1972 H1968 0.929 . S
C1972 C1974 1.378 . S
C1972 C1976 1.350 . S
C1973 C1976 1.463 . S
C1973 C1978 1.350 . S
C1973 N1981 1.427 . S
C1974 H1965 0.930 . S
C1974 C1972 1.378 . S
C1974 C1975 1.367 . S
C1975 C1974 1.367 . S
C1975 C1977 1.433 . S
C1976 C1972 1.350 . S
C1976 C1973 1.463 . S
C1976 N1980 1.427 . S
C1977 H1967 0.929 . S
C1977 C1975 1.433 . S
C1977 N1980 1.384 . S
C1978 H1969 0.929 . S
C1978 C1970 1.378 . S
C1978 C1973 1.350 . S
C1979 H1966 0.929 . S
C1979 C1971 1.433 . S
C1979 N1981 1.384 . S
N1980 C1976 1.427 . S
N1980 C1977 1.384 . S
N1981 C1973 1.427 . S
N1981 C1979 1.384 . S
H1982 C1988 0.930 . S
H1983 C1992 0.930 . S
H1984 C1997 0.929 . S
H1985 C1995 0.929 . S
H1986 C1990 0.929 . S
H1987 C1996 0.929 . S
C1988 H1982 0.930 . S
C1988 C1989 1.367 . S
C1988 C1996 1.378 . S
C1989 C1988 1.367 . S
C1989 C1997 1.433 . S
C1990 H1986 0.929 . S
C1990 C1992 1.378 . S
C1990 C1994 1.350 . S
C1991 C1994 1.463 . S
C1991 C1996 1.350 . S
C1991 N1999 1.427 . S
C1992 H1983 0.930 . S
C1992 C1990 1.378 . S
C1992 C1993 1.367 . S
C1993 C1992 1.367 . S
C1993 C1995 1.433 . S
C1994 C1990 1.350 . S
C1994 C1991 1.463 . S
C1994 N1998 1.427 . S
C1995 H1985 0.929 . S
C1995 C1993 1.433 . S
C1995 N1998 1.384 . S
C1996 H1987 0.929 . S
C1996 C1988 1.378 . S
C1996 C1991 1.350 . S
C1997 H1984 0.929 . S
C1997 C1989 1.433 . S
C1997 N1999 1.384 . S
N1998 C1994 1.427 . S
N1998 C1995 1.384 . S
N1999 C1991 1.427 . S
N1999 C1997 1.384 . S
H2000 C2006 0.930 . S
H2001 C2010 0.930 . S
H2002 C2015 0.929 . S
H2003 C2013 0.929 . S
H2004 C2008 0.929 . S
H2005 C2014 0.929 . S
C2006 H2000 0.930 . S
C2006 C2007 1.367 . S
C2006 C2014 1.378 . S
C2007 C2006 1.367 . S
C2007 C2015 1.433 . S
C2008 H2004 0.929 . S
C2008 C2010 1.378 . S
C2008 C2012 1.350 . S
C2009 C2012 1.463 . S
C2009 C2014 1.350 . S
C2009 N2017 1.427 . S
C2010 H2001 0.930 . S
C2010 C2008 1.378 . S
C2010 C2011 1.367 . S
C2011 C2010 1.367 . S
C2011 C2013 1.433 . S
C2012 C2008 1.350 . S
C2012 C2009 1.463 . S
C2012 N2016 1.427 . S
C2013 H2003 0.929 . S
C2013 C2011 1.433 . S
C2013 N2016 1.384 . S
C2014 H2005 0.929 . S
C2014 C2006 1.378 . S
C2014 C2009 1.350 . S
C2015 H2002 0.929 . S
C2015 C2007 1.433 . S
C2015 N2017 1.384 . S
N2016 C2012 1.427 . S
N2016 C2013 1.384 . S
N2017 C2009 1.427 . S
N2017 C2015 1.384 . S
H2018 C2024 0.930 . S
H2019 C2028 0.930 . S
H2020 C2033 0.929 . S
H2021 C2031 0.929 . S
H2022 C2026 0.929 . S
H2023 C2032 0.929 . S
C2024 H2018 0.930 . S
C2024 C2025 1.367 . S
C2024 C2032 1.378 . S
C2025 C2024 1.367 . S
C2025 C2033 1.433 . S
C2026 H2022 0.929 . S
C2026 C2028 1.378 . S
C2026 C2030 1.350 . S
C2027 C2030 1.463 . S
C2027 C2032 1.350 . S
C2027 N2035 1.427 . S
C2028 H2019 0.930 . S
C2028 C2026 1.378 . S
C2028 C2029 1.367 . S
C2029 C2028 1.367 . S
C2029 C2031 1.433 . S
C2030 C2026 1.350 . S
C2030 C2027 1.463 . S
C2030 N2034 1.427 . S
C2031 H2021 0.929 . S
C2031 C2029 1.433 . S
C2031 N2034 1.384 . S
C2032 H2023 0.929 . S
C2032 C2024 1.378 . S
C2032 C2027 1.350 . S
C2033 H2020 0.929 . S
C2033 C2025 1.433 . S
C2033 N2035 1.384 . S
N2034 C2030 1.427 . S
N2034 C2031 1.384 . S
N2035 C2027 1.427 . S
N2035 C2033 1.384 . S
H2036 C2042 0.930 . S
H2037 C2046 0.930 . S
H2038 C2051 0.929 . S
H2039 C2049 0.929 . S
H2040 C2044 0.929 . S
H2041 C2050 0.929 . S
C2042 H2036 0.930 . S
C2042 C2043 1.367 . S
C2042 C2050 1.378 . S
C2043 C2042 1.367 . S
C2043 C2051 1.433 . S
C2044 H2040 0.929 . S
C2044 C2046 1.378 . S
C2044 C2048 1.350 . S
C2045 C2048 1.463 . S
C2045 C2050 1.350 . S
C2045 N2053 1.427 . S
C2046 H2037 0.930 . S
C2046 C2044 1.378 . S
C2046 C2047 1.367 . S
C2047 C2046 1.367 . S
C2047 C2049 1.433 . S
C2048 C2044 1.350 . S
C2048 C2045 1.463 . S
C2048 N2052 1.427 . S
C2049 H2039 0.929 . S
C2049 C2047 1.433 . S
C2049 N2052 1.384 . S
C2050 H2041 0.929 . S
C2050 C2042 1.378 . S
C2050 C2045 1.350 . S
C2051 H2038 0.929 . S
C2051 C2043 1.433 . S
C2051 N2053 1.384 . S
N2052 C2048 1.427 . S
N2052 C2049 1.384 . S
N2053 C2045 1.427 . S
N2053 C2051 1.384 . S
H2054 C2060 0.930 . S
H2055 C2064 0.930 . S
H2056 C2069 0.929 . S
H2057 C2067 0.929 . S
H2058 C2062 0.929 . S
H2059 C2068 0.929 . S
C2060 H2054 0.930 . S
C2060 C2061 1.367 . S
C2060 C2068 1.378 . S
C2061 C2060 1.367 . S
C2061 C2069 1.433 . S
C2062 H2058 0.929 . S
C2062 C2064 1.378 . S
C2062 C2066 1.350 . S
C2063 C2066 1.463 . S
C2063 C2068 1.350 . S
C2063 N2071 1.427 . S
C2064 H2055 0.930 . S
C2064 C2062 1.378 . S
C2064 C2065 1.367 . S
C2065 C2064 1.367 . S
C2065 C2067 1.433 . S
C2066 C2062 1.350 . S
C2066 C2063 1.463 . S
C2066 N2070 1.427 . S
C2067 H2057 0.929 . S
C2067 C2065 1.433 . S
C2067 N2070 1.384 . S
C2068 H2059 0.929 . S
C2068 C2060 1.378 . S
C2068 C2063 1.350 . S
C2069 H2056 0.929 . S
C2069 C2061 1.433 . S
C2069 N2071 1.384 . S
N2070 C2066 1.427 . S
N2070 C2067 1.384 . S
N2071 C2063 1.427 . S
N2071 C2069 1.384 . S
H2072 C2078 0.930 . S
H2073 C2082 0.930 . S
H2074 C2087 0.929 . S
H2075 C2085 0.929 . S
H2076 C2080 0.929 . S
H2077 C2086 0.929 . S
C2078 H2072 0.930 . S
C2078 C2079 1.367 . S
C2078 C2086 1.378 . S
C2079 C2078 1.367 . S
C2079 C2087 1.433 . S
C2080 H2076 0.929 . S
C2080 C2082 1.378 . S
C2080 C2084 1.350 . S
C2081 C2084 1.463 . S
C2081 C2086 1.350 . S
C2081 N2089 1.427 . S
C2082 H2073 0.930 . S
C2082 C2080 1.378 . S
C2082 C2083 1.367 . S
C2083 C2082 1.367 . S
C2083 C2085 1.433 . S
C2084 C2080 1.350 . S
C2084 C2081 1.463 . S
C2084 N2088 1.427 . S
C2085 H2075 0.929 . S
C2085 C2083 1.433 . S
C2085 N2088 1.384 . S
C2086 H2077 0.929 . S
C2086 C2078 1.378 . S
C2086 C2081 1.350 . S
C2087 H2074 0.929 . S
C2087 C2079 1.433 . S
C2087 N2089 1.384 . S
N2088 C2084 1.427 . S
N2088 C2085 1.384 . S
N2089 C2081 1.427 . S
N2089 C2087 1.384 . S
H2090 C2096 0.930 . S
H2091 C2100 0.930 . S
H2092 C2105 0.929 . S
H2093 C2103 0.929 . S
H2094 C2098 0.929 . S
H2095 C2104 0.929 . S
C2096 H2090 0.930 . S
C2096 C2097 1.367 . S
C2096 C2104 1.378 . S
C2097 C2096 1.367 . S
C2097 C2105 1.433 . S
C2098 H2094 0.929 . S
C2098 C2100 1.378 . S
C2098 C2102 1.350 . S
C2099 C2102 1.463 . S
C2099 C2104 1.350 . S
C2099 N2107 1.427 . S
C2100 H2091 0.930 . S
C2100 C2098 1.378 . S
C2100 C2101 1.367 . S
C2101 C2100 1.367 . S
C2101 C2103 1.433 . S
C2102 C2098 1.350 . S
C2102 C2099 1.463 . S
C2102 N2106 1.427 . S
C2103 H2093 0.929 . S
C2103 C2101 1.433 . S
C2103 N2106 1.384 . S
C2104 H2095 0.929 . S
C2104 C2096 1.378 . S
C2104 C2099 1.350 . S
C2105 H2092 0.929 . S
C2105 C2097 1.433 . S
C2105 N2107 1.384 . S
N2106 C2102 1.427 . S
N2106 C2103 1.384 . S
N2107 C2099 1.427 . S
N2107 C2105 1.384 . S
H2108 C2114 0.930 . S
H2109 C2118 0.930 . S
H2110 C2123 0.929 . S
H2111 C2121 0.929 . S
H2112 C2116 0.929 . S
H2113 C2122 0.929 . S
C2114 H2108 0.930 . S
C2114 C2115 1.367 . S
C2114 C2122 1.378 . S
C2115 C2114 1.367 . S
C2115 C2123 1.433 . S
C2116 H2112 0.929 . S
C2116 C2118 1.378 . S
C2116 C2120 1.350 . S
C2117 C2120 1.463 . S
C2117 C2122 1.350 . S
C2117 N2125 1.427 . S
C2118 H2109 0.930 . S
C2118 C2116 1.378 . S
C2118 C2119 1.367 . S
C2119 C2118 1.367 . S
C2119 C2121 1.433 . S
C2120 C2116 1.350 . S
C2120 C2117 1.463 . S
C2120 N2124 1.427 . S
C2121 H2111 0.929 . S
C2121 C2119 1.433 . S
C2121 N2124 1.384 . S
C2122 H2113 0.929 . S
C2122 C2114 1.378 . S
C2122 C2117 1.350 . S
C2123 H2110 0.929 . S
C2123 C2115 1.433 . S
C2123 N2125 1.384 . S
N2124 C2120 1.427 . S
N2124 C2121 1.384 . S
N2125 C2117 1.427 . S
N2125 C2123 1.384 . S
H2126 C2132 0.930 . S
H2127 C2136 0.930 . S
H2128 C2141 0.929 . S
H2129 C2139 0.929 . S
H2130 C2134 0.929 . S
H2131 C2140 0.929 . S
C2132 H2126 0.930 . S
C2132 C2133 1.367 . S
C2132 C2140 1.378 . S
C2133 C2132 1.367 . S
C2133 C2141 1.433 . S
C2134 H2130 0.929 . S
C2134 C2136 1.378 . S
C2134 C2138 1.350 . S
C2135 C2138 1.463 . S
C2135 C2140 1.350 . S
C2135 N2143 1.427 . S
C2136 H2127 0.930 . S
C2136 C2134 1.378 . S
C2136 C2137 1.367 . S
C2137 C2136 1.367 . S
C2137 C2139 1.433 . S
C2138 C2134 1.350 . S
C2138 C2135 1.463 . S
C2138 N2142 1.427 . S
C2139 H2129 0.929 . S
C2139 C2137 1.433 . S
C2139 N2142 1.384 . S
C2140 H2131 0.929 . S
C2140 C2132 1.378 . S
C2140 C2135 1.350 . S
C2141 H2128 0.929 . S
C2141 C2133 1.433 . S
C2141 N2143 1.384 . S
N2142 C2138 1.427 . S
N2142 C2139 1.384 . S
N2143 C2135 1.427 . S
N2143 C2141 1.384 . S
H2144 C2150 0.930 . S
H2145 C2154 0.930 . S
H2146 C2159 0.929 . S
H2147 C2157 0.929 . S
H2148 C2152 0.929 . S
H2149 C2158 0.929 . S
C2150 H2144 0.930 . S
C2150 C2151 1.367 . S
C2150 C2158 1.378 . S
C2151 C2150 1.367 . S
C2151 C2159 1.433 . S
C2152 H2148 0.929 . S
C2152 C2154 1.378 . S
C2152 C2156 1.350 . S
C2153 C2156 1.463 . S
C2153 C2158 1.350 . S
C2153 N2161 1.427 . S
C2154 H2145 0.930 . S
C2154 C2152 1.378 . S
C2154 C2155 1.367 . S
C2155 C2154 1.367 . S
C2155 C2157 1.433 . S
C2156 C2152 1.350 . S
C2156 C2153 1.463 . S
C2156 N2160 1.427 . S
C2157 H2147 0.929 . S
C2157 C2155 1.433 . S
C2157 N2160 1.384 . S
C2158 H2149 0.929 . S
C2158 C2150 1.378 . S
C2158 C2153 1.350 . S
C2159 H2146 0.929 . S
C2159 C2151 1.433 . S
C2159 N2161 1.384 . S
N2160 C2156 1.427 . S
N2160 C2157 1.384 . S
N2161 C2153 1.427 . S
N2161 C2159 1.384 . S
H2162 C2168 0.930 . S
H2163 C2172 0.930 . S
H2164 C2177 0.929 . S
H2165 C2175 0.929 . S
H2166 C2170 0.929 . S
H2167 C2176 0.929 . S
C2168 H2162 0.930 . S
C2168 C2169 1.367 . S
C2168 C2176 1.378 . S
C2169 C2168 1.367 . S
C2169 C2177 1.433 . S
C2170 H2166 0.929 . S
C2170 C2172 1.378 . S
C2170 C2174 1.350 . S
C2171 C2174 1.463 . S
C2171 C2176 1.350 . S
C2171 N2179 1.427 . S
C2172 H2163 0.930 . S
C2172 C2170 1.378 . S
C2172 C2173 1.367 . S
C2173 C2172 1.367 . S
C2173 C2175 1.433 . S
C2174 C2170 1.350 . S
C2174 C2171 1.463 . S
C2174 N2178 1.427 . S
C2175 H2165 0.929 . S
C2175 C2173 1.433 . S
C2175 N2178 1.384 . S
C2176 H2167 0.929 . S
C2176 C2168 1.378 . S
C2176 C2171 1.350 . S
C2177 H2164 0.929 . S
C2177 C2169 1.433 . S
C2177 N2179 1.384 . S
N2178 C2174 1.427 . S
N2178 C2175 1.384 . S
N2179 C2171 1.427 . S
N2179 C2177 1.384 . S
H2180 C2186 0.930 . S
H2181 C2190 0.930 . S
H2182 C2195 0.929 . S
H2183 C2193 0.929 . S
H2184 C2188 0.929 . S
H2185 C2194 0.929 . S
C2186 H2180 0.930 . S
C2186 C2187 1.367 . S
C2186 C2194 1.378 . S
C2187 C2186 1.367 . S
C2187 C2195 1.433 . S
C2188 H2184 0.929 . S
C2188 C2190 1.378 . S
C2188 C2192 1.350 . S
C2189 C2192 1.463 . S
C2189 C2194 1.350 . S
C2189 N2197 1.427 . S
C2190 H2181 0.930 . S
C2190 C2188 1.378 . S
C2190 C2191 1.367 . S
C2191 C2190 1.367 . S
C2191 C2193 1.433 . S
C2192 C2188 1.350 . S
C2192 C2189 1.463 . S
C2192 N2196 1.427 . S
C2193 H2183 0.929 . S
C2193 C2191 1.433 . S
C2193 N2196 1.384 . S
C2194 H2185 0.929 . S
C2194 C2186 1.378 . S
C2194 C2189 1.350 . S
C2195 H2182 0.929 . S
C2195 C2187 1.433 . S
C2195 N2197 1.384 . S
N2196 C2192 1.427 . S
N2196 C2193 1.384 . S
N2197 C2189 1.427 . S
N2197 C2195 1.384 . S
H2198 C2204 0.930 . S
H2199 C2208 0.930 . S
H2200 C2213 0.929 . S
H2201 C2211 0.929 . S
H2202 C2206 0.929 . S
H2203 C2212 0.929 . S
C2204 H2198 0.930 . S
C2204 C2205 1.367 . S
C2204 C2212 1.378 . S
C2205 C2204 1.367 . S
C2205 C2213 1.433 . S
C2206 H2202 0.929 . S
C2206 C2208 1.378 . S
C2206 C2210 1.350 . S
C2207 C2210 1.463 . S
C2207 C2212 1.350 . S
C2207 N2215 1.427 . S
C2208 H2199 0.930 . S
C2208 C2206 1.378 . S
C2208 C2209 1.367 . S
C2209 C2208 1.367 . S
C2209 C2211 1.433 . S
C2210 C2206 1.350 . S
C2210 C2207 1.463 . S
C2210 N2214 1.427 . S
C2211 H2201 0.929 . S
C2211 C2209 1.433 . S
C2211 N2214 1.384 . S
C2212 H2203 0.929 . S
C2212 C2204 1.378 . S
C2212 C2207 1.350 . S
C2213 H2200 0.929 . S
C2213 C2205 1.433 . S
C2213 N2215 1.384 . S
N2214 C2210 1.427 . S
N2214 C2211 1.384 . S
N2215 C2207 1.427 . S
N2215 C2213 1.384 . S
H2216 C2222 0.930 . S
H2217 C2226 0.930 . S
H2218 C2231 0.929 . S
H2219 C2229 0.929 . S
H2220 C2224 0.929 . S
H2221 C2230 0.929 . S
C2222 H2216 0.930 . S
C2222 C2223 1.367 . S
C2222 C2230 1.378 . S
C2223 C2222 1.367 . S
C2223 C2231 1.433 . S
C2224 H2220 0.929 . S
C2224 C2226 1.378 . S
C2224 C2228 1.350 . S
C2225 C2228 1.463 . S
C2225 C2230 1.350 . S
C2225 N2233 1.427 . S
C2226 H2217 0.930 . S
C2226 C2224 1.378 . S
C2226 C2227 1.367 . S
C2227 C2226 1.367 . S
C2227 C2229 1.433 . S
C2228 C2224 1.350 . S
C2228 C2225 1.463 . S
C2228 N2232 1.427 . S
C2229 H2219 0.929 . S
C2229 C2227 1.433 . S
C2229 N2232 1.384 . S
C2230 H2221 0.929 . S
C2230 C2222 1.378 . S
C2230 C2225 1.350 . S
C2231 H2218 0.929 . S
C2231 C2223 1.433 . S
C2231 N2233 1.384 . S
N2232 C2228 1.427 . S
N2232 C2229 1.384 . S
N2233 C2225 1.427 . S
N2233 C2231 1.384 . S
H2234 C2240 0.930 . S
H2235 C2244 0.930 . S
H2236 C2249 0.929 . S
H2237 C2247 0.929 . S
H2238 C2242 0.929 . S
H2239 C2248 0.929 . S
C2240 H2234 0.930 . S
C2240 C2241 1.367 . S
C2240 C2248 1.378 . S
C2241 C2240 1.367 . S
C2241 C2249 1.433 . S
C2242 H2238 0.929 . S
C2242 C2244 1.378 . S
C2242 C2246 1.350 . S
C2243 C2246 1.463 . S
C2243 C2248 1.350 . S
C2243 N2251 1.427 . S
C2244 H2235 0.930 . S
C2244 C2242 1.378 . S
C2244 C2245 1.367 . S
C2245 C2244 1.367 . S
C2245 C2247 1.433 . S
C2246 C2242 1.350 . S
C2246 C2243 1.463 . S
C2246 N2250 1.427 . S
C2247 H2237 0.929 . S
C2247 C2245 1.433 . S
C2247 N2250 1.384 . S
C2248 H2239 0.929 . S
C2248 C2240 1.378 . S
C2248 C2243 1.350 . S
C2249 H2236 0.929 . S
C2249 C2241 1.433 . S
C2249 N2251 1.384 . S
N2250 C2246 1.427 . S
N2250 C2247 1.384 . S
N2251 C2243 1.427 . S
N2251 C2249 1.384 . S
H2252 C2258 0.930 . S
H2253 C2262 0.930 . S
H2254 C2267 0.929 . S
H2255 C2265 0.929 . S
H2256 C2260 0.929 . S
H2257 C2266 0.929 . S
C2258 H2252 0.930 . S
C2258 C2259 1.367 . S
C2258 C2266 1.378 . S
C2259 C2258 1.367 . S
C2259 C2267 1.433 . S
C2260 H2256 0.929 . S
C2260 C2262 1.378 . S
C2260 C2264 1.350 . S
C2261 C2264 1.463 . S
C2261 C2266 1.350 . S
C2261 N2269 1.427 . S
C2262 H2253 0.930 . S
C2262 C2260 1.378 . S
C2262 C2263 1.367 . S
C2263 C2262 1.367 . S
C2263 C2265 1.433 . S
C2264 C2260 1.350 . S
C2264 C2261 1.463 . S
C2264 N2268 1.427 . S
C2265 H2255 0.929 . S
C2265 C2263 1.433 . S
C2265 N2268 1.384 . S
C2266 H2257 0.929 . S
C2266 C2258 1.378 . S
C2266 C2261 1.350 . S
C2267 H2254 0.929 . S
C2267 C2259 1.433 . S
C2267 N2269 1.384 . S
N2268 C2264 1.427 . S
N2268 C2265 1.384 . S
N2269 C2261 1.427 . S
N2269 C2267 1.384 . S
H2270 C2276 0.930 . S
H2271 C2280 0.930 . S
H2272 C2285 0.929 . S
H2273 C2283 0.929 . S
H2274 C2278 0.929 . S
H2275 C2284 0.929 . S
C2276 H2270 0.930 . S
C2276 C2277 1.367 . S
C2276 C2284 1.378 . S
C2277 C2276 1.367 . S
C2277 C2285 1.433 . S
C2278 H2274 0.929 . S
C2278 C2280 1.378 . S
C2278 C2282 1.350 . S
C2279 C2282 1.463 . S
C2279 C2284 1.350 . S
C2279 N2287 1.427 . S
C2280 H2271 0.930 . S
C2280 C2278 1.378 . S
C2280 C2281 1.367 . S
C2281 C2280 1.367 . S
C2281 C2283 1.433 . S
C2282 C2278 1.350 . S
C2282 C2279 1.463 . S
C2282 N2286 1.427 . S
C2283 H2273 0.929 . S
C2283 C2281 1.433 . S
C2283 N2286 1.384 . S
C2284 H2275 0.929 . S
C2284 C2276 1.378 . S
C2284 C2279 1.350 . S
C2285 H2272 0.929 . S
C2285 C2277 1.433 . S
C2285 N2287 1.384 . S
N2286 C2282 1.427 . S
N2286 C2283 1.384 . S
N2287 C2279 1.427 . S
N2287 C2285 1.384 . S
H2288 C2294 0.930 . S
H2289 C2298 0.930 . S
H2290 C2303 0.929 . S
H2291 C2301 0.929 . S
H2292 C2296 0.929 . S
H2293 C2302 0.929 . S
C2294 H2288 0.930 . S
C2294 C2295 1.367 . S
C2294 C2302 1.378 . S
C2295 C2294 1.367 . S
C2295 C2303 1.433 1_545 S
C2296 H2292 0.929 . S
C2296 C2298 1.378 . S
C2296 C2300 1.350 . S
C2297 C2300 1.463 . S
C2297 C2302 1.350 1_565 S
C2297 N2305 1.427 . S
C2298 H2289 0.930 . S
C2298 C2296 1.378 . S
C2298 C2299 1.367 . S
C2299 C2298 1.367 . S
C2299 C2301 1.433 1_565 S
C2300 C2296 1.350 . S
C2300 C2297 1.463 . S
C2300 N2304 1.427 1_565 S
C2301 H2291 0.929 . S
C2301 C2299 1.433 1_545 S
C2301 N2304 1.384 . S
C2302 H2293 0.929 . S
C2302 C2294 1.378 . S
C2302 C2297 1.350 1_545 S
C2303 H2290 0.929 . S
C2303 C2295 1.433 1_565 S
C2303 N2305 1.384 . S
N2304 C2300 1.427 1_545 S
N2304 C2301 1.384 . S
N2305 C2297 1.427 . S
N2305 C2303 1.384 . S
H2306 C2312 0.930 . S
H2307 C2316 0.930 . S
H2308 C2321 0.929 . S
H2309 C2319 0.929 . S
H2310 C2314 0.929 . S
H2311 C2320 0.929 . S
C2312 H2306 0.930 . S
C2312 C2313 1.367 . S
C2312 C2320 1.378 . S
C2313 C2312 1.367 . S
C2313 C2321 1.433 . S
C2314 H2310 0.929 . S
C2314 C2316 1.378 . S
C2314 C2318 1.350 . S
C2315 C2318 1.463 . S
C2315 C2320 1.350 . S
C2315 N2323 1.427 . S
C2316 H2307 0.930 . S
C2316 C2314 1.378 . S
C2316 C2317 1.367 . S
C2317 C2316 1.367 . S
C2317 C2319 1.433 . S
C2318 C2314 1.350 . S
C2318 C2315 1.463 . S
C2318 N2322 1.427 . S
C2319 H2309 0.929 . S
C2319 C2317 1.433 . S
C2319 N2322 1.384 . S
C2320 H2311 0.929 . S
C2320 C2312 1.378 . S
C2320 C2315 1.350 . S
C2321 H2308 0.929 . S
C2321 C2313 1.433 . S
C2321 N2323 1.384 . S
N2322 C2318 1.427 . S
N2322 C2319 1.384 . S
N2323 C2315 1.427 . S
N2323 C2321 1.384 . S
H2324 C2330 0.930 . S
H2325 C2334 0.930 . S
H2326 C2339 0.929 . S
H2327 C2337 0.929 . S
H2328 C2332 0.929 . S
H2329 C2338 0.929 . S
C2330 H2324 0.930 . S
C2330 C2331 1.367 . S
C2330 C2338 1.378 . S
C2331 C2330 1.367 . S
C2331 C2339 1.433 . S
C2332 H2328 0.929 . S
C2332 C2334 1.378 . S
C2332 C2336 1.350 . S
C2333 C2336 1.463 . S
C2333 C2338 1.350 . S
C2333 N2341 1.427 . S
C2334 H2325 0.930 . S
C2334 C2332 1.378 . S
C2334 C2335 1.367 . S
C2335 C2334 1.367 . S
C2335 C2337 1.433 . S
C2336 C2332 1.350 . S
C2336 C2333 1.463 . S
C2336 N2340 1.427 . S
C2337 H2327 0.929 . S
C2337 C2335 1.433 . S
C2337 N2340 1.384 . S
C2338 H2329 0.929 . S
C2338 C2330 1.378 . S
C2338 C2333 1.350 . S
C2339 H2326 0.929 . S
C2339 C2331 1.433 . S
C2339 N2341 1.384 . S
N2340 C2336 1.427 . S
N2340 C2337 1.384 . S
N2341 C2333 1.427 . S
N2341 C2339 1.384 . S
H2342 C2348 0.930 . S
H2343 C2352 0.930 1_545 S
H2344 C2357 0.929 . S
H2345 C2355 0.929 . S
H2346 C2350 0.929 . S
H2347 C2356 0.929 . S
C2348 H2342 0.930 . S
C2348 C2349 1.367 1_565 S
C2348 C2356 1.378 . S
C2349 C2348 1.367 1_545 S
C2349 C2357 1.433 . S
C2350 H2346 0.929 . S
C2350 C2352 1.378 1_545 S
C2350 C2354 1.350 1_545 S
C2351 C2354 1.463 . S
C2351 C2356 1.350 . S
C2351 N2359 1.427 1_565 S
C2352 H2343 0.930 1_565 S
C2352 C2350 1.378 1_565 S
C2352 C2353 1.367 . S
C2353 C2352 1.367 . S
C2353 C2355 1.433 . S
C2354 C2350 1.350 1_565 S
C2354 C2351 1.463 . S
C2354 N2358 1.427 . S
C2355 H2345 0.929 . S
C2355 C2353 1.433 . S
C2355 N2358 1.384 . S
C2356 H2347 0.929 . S
C2356 C2348 1.378 . S
C2356 C2351 1.350 . S
C2357 H2344 0.929 . S
C2357 C2349 1.433 . S
C2357 N2359 1.384 . S
N2358 C2354 1.427 . S
N2358 C2355 1.384 . S
N2359 C2351 1.427 1_545 S
N2359 C2357 1.384 . S
H2360 C2366 0.930 . S
H2361 C2370 0.930 . S
H2362 C2375 0.929 . S
H2363 C2373 0.929 1_565 S
H2364 C2368 0.929 . S
H2365 C2374 0.929 . S
C2366 H2360 0.930 . S
C2366 C2367 1.367 . S
C2366 C2374 1.378 . S
C2367 C2366 1.367 . S
C2367 C2375 1.433 1_565 S
C2368 H2364 0.929 . S
C2368 C2370 1.378 . S
C2368 C2372 1.350 . S
C2369 C2372 1.463 . S
C2369 C2374 1.350 1_545 S
C2369 N2377 1.427 . S
C2370 H2361 0.930 . S
C2370 C2368 1.378 . S
C2370 C2371 1.367 . S
C2371 C2370 1.367 . S
C2371 C2373 1.433 . S
C2372 C2368 1.350 . S
C2372 C2369 1.463 . S
C2372 N2376 1.427 1_545 S
C2373 H2363 0.929 1_545 S
C2373 C2371 1.433 . S
C2373 N2376 1.384 1_545 S
C2374 H2365 0.929 . S
C2374 C2366 1.378 . S
C2374 C2369 1.350 1_565 S
C2375 H2362 0.929 . S
C2375 C2367 1.433 1_545 S
C2375 N2377 1.384 . S
N2376 C2372 1.427 1_565 S
N2376 C2373 1.384 1_565 S
N2377 C2369 1.427 . S
N2377 C2375 1.384 . S
H2378 C2384 0.930 . S
H2379 C2388 0.930 . S
H2380 C2393 0.929 . S
H2381 C2391 0.929 . S
H2382 C2386 0.929 . S
H2383 C2392 0.929 . S
C2384 H2378 0.930 . S
C2384 C2385 1.367 . S
C2384 C2392 1.378 . S
C2385 C2384 1.367 . S
C2385 C2393 1.433 . S
C2386 H2382 0.929 . S
C2386 C2388 1.378 . S
C2386 C2390 1.350 . S
C2387 C2390 1.463 . S
C2387 C2392 1.350 . S
C2387 N2395 1.427 . S
C2388 H2379 0.930 . S
C2388 C2386 1.378 . S
C2388 C2389 1.367 . S
C2389 C2388 1.367 . S
C2389 C2391 1.433 . S
C2390 C2386 1.350 . S
C2390 C2387 1.463 . S
C2390 N2394 1.427 . S
C2391 H2381 0.929 . S
C2391 C2389 1.433 . S
C2391 N2394 1.384 . S
C2392 H2383 0.929 . S
C2392 C2384 1.378 . S
C2392 C2387 1.350 . S
C2393 H2380 0.929 . S
C2393 C2385 1.433 . S
C2393 N2395 1.384 . S
N2394 C2390 1.427 . S
N2394 C2391 1.384 . S
N2395 C2387 1.427 . S
N2395 C2393 1.384 . S
H2396 C2402 0.930 . S
H2397 C2406 0.930 . S
H2398 C2411 0.929 . S
H2399 C2409 0.929 . S
H2400 C2404 0.929 . S
H2401 C2410 0.929 . S
C2402 H2396 0.930 . S
C2402 C2403 1.367 . S
C2402 C2410 1.378 . S
C2403 C2402 1.367 . S
C2403 C2411 1.433 . S
C2404 H2400 0.929 . S
C2404 C2406 1.378 . S
C2404 C2408 1.350 . S
C2405 C2408 1.463 . S
C2405 C2410 1.350 . S
C2405 N2413 1.427 . S
C2406 H2397 0.930 . S
C2406 C2404 1.378 . S
C2406 C2407 1.367 . S
C2407 C2406 1.367 . S
C2407 C2409 1.433 . S
C2408 C2404 1.350 . S
C2408 C2405 1.463 . S
C2408 N2412 1.427 . S
C2409 H2399 0.929 . S
C2409 C2407 1.433 . S
C2409 N2412 1.384 . S
C2410 H2401 0.929 . S
C2410 C2402 1.378 . S
C2410 C2405 1.350 . S
C2411 H2398 0.929 . S
C2411 C2403 1.433 . S
C2411 N2413 1.384 . S
N2412 C2408 1.427 . S
N2412 C2409 1.384 . S
N2413 C2405 1.427 . S
N2413 C2411 1.384 . S
H2414 C2420 0.930 . S
H2415 C2424 0.930 . S
H2416 C2429 0.929 . S
H2417 C2427 0.929 . S
H2418 C2422 0.929 . S
H2419 C2428 0.929 . S
C2420 H2414 0.930 . S
C2420 C2421 1.367 1_545 S
C2420 C2428 1.378 . S
C2421 C2420 1.367 1_565 S
C2421 C2429 1.433 . S
C2422 H2418 0.929 . S
C2422 C2424 1.378 . S
C2422 C2426 1.350 1_565 S
C2423 C2426 1.463 . S
C2423 C2428 1.350 . S
C2423 N2431 1.427 1_545 S
C2424 H2415 0.930 . S
C2424 C2422 1.378 . S
C2424 C2425 1.367 1_565 S
C2425 C2424 1.367 1_545 S
C2425 C2427 1.433 . S
C2426 C2422 1.350 1_545 S
C2426 C2423 1.463 . S
C2426 N2430 1.427 . S
C2427 H2417 0.929 . S
C2427 C2425 1.433 . S
C2427 N2430 1.384 . S
C2428 H2419 0.929 . S
C2428 C2420 1.378 . S
C2428 C2423 1.350 . S
C2429 H2416 0.929 . S
C2429 C2421 1.433 . S
C2429 N2431 1.384 . S
N2430 C2426 1.427 . S
N2430 C2427 1.384 . S
N2431 C2423 1.427 1_565 S
N2431 C2429 1.384 . S
H2432 C2438 0.930 . S
H2433 C2442 0.930 . S
H2434 C2447 0.929 . S
H2435 C2445 0.929 . S
H2436 C2440 0.929 1_455 S
H2437 C2446 0.929 . S
C2438 H2432 0.930 . S
C2438 C2439 1.367 . S
C2438 C2446 1.378 . S
C2439 C2438 1.367 . S
C2439 C2447 1.433 . S
C2440 H2436 0.929 1_655 S
C2440 C2442 1.378 . S
C2440 C2444 1.350 1_655 S
C2441 C2444 1.463 . S
C2441 C2446 1.350 . S
C2441 N2449 1.427 . S
C2442 H2433 0.930 . S
C2442 C2440 1.378 . S
C2442 C2443 1.367 . S
C2443 C2442 1.367 . S
C2443 C2445 1.433 . S
C2444 C2440 1.350 1_455 S
C2444 C2441 1.463 . S
C2444 N2448 1.427 1_455 S
C2445 H2435 0.929 . S
C2445 C2443 1.433 . S
C2445 N2448 1.384 . S
C2446 H2437 0.929 . S
C2446 C2438 1.378 . S
C2446 C2441 1.350 . S
C2447 H2434 0.929 . S
C2447 C2439 1.433 . S
C2447 N2449 1.384 . S
N2448 C2444 1.427 1_655 S
N2448 C2445 1.384 . S
N2449 C2441 1.427 . S
N2449 C2447 1.384 . S
H2450 C2456 0.930 . S
H2451 C2460 0.930 . S
H2452 C2465 0.929 . S
H2453 C2463 0.929 . S
H2454 C2458 0.929 . S
H2455 C2464 0.929 . S
C2456 H2450 0.930 . S
C2456 C2457 1.367 . S
C2456 C2464 1.378 . S
C2457 C2456 1.367 . S
C2457 C2465 1.433 . S
C2458 H2454 0.929 . S
C2458 C2460 1.378 . S
C2458 C2462 1.350 . S
C2459 C2462 1.463 . S
C2459 C2464 1.350 . S
C2459 N2467 1.427 . S
C2460 H2451 0.930 . S
C2460 C2458 1.378 . S
C2460 C2461 1.367 . S
C2461 C2460 1.367 . S
C2461 C2463 1.433 . S
C2462 C2458 1.350 . S
C2462 C2459 1.463 . S
C2462 N2466 1.427 . S
C2463 H2453 0.929 . S
C2463 C2461 1.433 . S
C2463 N2466 1.384 . S
C2464 H2455 0.929 . S
C2464 C2456 1.378 . S
C2464 C2459 1.350 . S
C2465 H2452 0.929 . S
C2465 C2457 1.433 . S
C2465 N2467 1.384 . S
N2466 C2462 1.427 . S
N2466 C2463 1.384 . S
N2467 C2459 1.427 . S
N2467 C2465 1.384 . S
H2468 C2474 0.930 . S
H2469 C2478 0.930 . S
H2470 C2483 0.929 . S
H2471 C2481 0.929 . S
H2472 C2476 0.929 . S
H2473 C2482 0.929 . S
C2474 H2468 0.930 . S
C2474 C2475 1.367 . S
C2474 C2482 1.378 . S
C2475 C2474 1.367 . S
C2475 C2483 1.433 . S
C2476 H2472 0.929 . S
C2476 C2478 1.378 . S
C2476 C2480 1.350 . S
C2477 C2480 1.463 . S
C2477 C2482 1.350 1_455 S
C2477 N2485 1.427 1_455 S
C2478 H2469 0.930 . S
C2478 C2476 1.378 . S
C2478 C2479 1.367 . S
C2479 C2478 1.367 . S
C2479 C2481 1.433 . S
C2480 C2476 1.350 . S
C2480 C2477 1.463 . S
C2480 N2484 1.427 . S
C2481 H2471 0.929 . S
C2481 C2479 1.433 . S
C2481 N2484 1.384 . S
C2482 H2473 0.929 . S
C2482 C2474 1.378 . S
C2482 C2477 1.350 1_655 S
C2483 H2470 0.929 . S
C2483 C2475 1.433 . S
C2483 N2485 1.384 . S
N2484 C2480 1.427 . S
N2484 C2481 1.384 . S
N2485 C2477 1.427 1_655 S
N2485 C2483 1.384 . S
H2486 C2492 0.930 . S
H2487 C2496 0.930 . S
H2488 C2501 0.929 . S
H2489 C2499 0.929 . S
H2490 C2494 0.929 . S
H2491 C2500 0.929 . S
C2492 H2486 0.930 . S
C2492 C2493 1.367 . S
C2492 C2500 1.378 . S
C2493 C2492 1.367 . S
C2493 C2501 1.433 . S
C2494 H2490 0.929 . S
C2494 C2496 1.378 . S
C2494 C2498 1.350 . S
C2495 C2498 1.463 . S
C2495 C2500 1.350 . S
C2495 N2503 1.427 . S
C2496 H2487 0.930 . S
C2496 C2494 1.378 . S
C2496 C2497 1.367 . S
C2497 C2496 1.367 . S
C2497 C2499 1.433 . S
C2498 C2494 1.350 . S
C2498 C2495 1.463 . S
C2498 N2502 1.427 . S
C2499 H2489 0.929 . S
C2499 C2497 1.433 . S
C2499 N2502 1.384 . S
C2500 H2491 0.929 . S
C2500 C2492 1.378 . S
C2500 C2495 1.350 . S
C2501 H2488 0.929 . S
C2501 C2493 1.433 . S
C2501 N2503 1.384 . S
N2502 C2498 1.427 . S
N2502 C2499 1.384 . S
N2503 C2495 1.427 . S
N2503 C2501 1.384 . S
H2504 C2510 0.930 . S
H2505 C2514 0.930 . S
H2506 C2519 0.929 . S
H2507 C2517 0.929 . S
H2508 C2512 0.929 . S
H2509 C2518 0.929 . S
C2510 H2504 0.930 . S
C2510 C2511 1.367 . S
C2510 C2518 1.378 . S
C2511 C2510 1.367 . S
C2511 C2519 1.433 . S
C2512 H2508 0.929 . S
C2512 C2514 1.378 . S
C2512 C2516 1.350 1_455 S
C2513 C2516 1.463 . S
C2513 C2518 1.350 . S
C2513 N2521 1.427 . S
C2514 H2505 0.930 . S
C2514 C2512 1.378 . S
C2514 C2515 1.367 . S
C2515 C2514 1.367 . S
C2515 C2517 1.433 . S
C2516 C2512 1.350 1_655 S
C2516 C2513 1.463 . S
C2516 N2520 1.427 1_655 S
C2517 H2507 0.929 . S
C2517 C2515 1.433 . S
C2517 N2520 1.384 . S
C2518 H2509 0.929 . S
C2518 C2510 1.378 . S
C2518 C2513 1.350 . S
C2519 H2506 0.929 . S
C2519 C2511 1.433 . S
C2519 N2521 1.384 . S
N2520 C2516 1.427 1_455 S
N2520 C2517 1.384 . S
N2521 C2513 1.427 . S
N2521 C2519 1.384 . S
H2522 C2528 0.930 . S
H2523 C2532 0.930 . S
H2524 C2537 0.929 . S
H2525 C2535 0.929 . S
H2526 C2530 0.929 . S
H2527 C2536 0.929 . S
C2528 H2522 0.930 . S
C2528 C2529 1.367 . S
C2528 C2536 1.378 . S
C2529 C2528 1.367 . S
C2529 C2537 1.433 . S
C2530 H2526 0.929 . S
C2530 C2532 1.378 . S
C2530 C2534 1.350 . S
C2531 C2534 1.463 . S
C2531 C2536 1.350 . S
C2531 N2539 1.427 . S
C2532 H2523 0.930 . S
C2532 C2530 1.378 . S
C2532 C2533 1.367 . S
C2533 C2532 1.367 . S
C2533 C2535 1.433 . S
C2534 C2530 1.350 . S
C2534 C2531 1.463 . S
C2534 N2538 1.427 . S
C2535 H2525 0.929 . S
C2535 C2533 1.433 . S
C2535 N2538 1.384 . S
C2536 H2527 0.929 . S
C2536 C2528 1.378 . S
C2536 C2531 1.350 . S
C2537 H2524 0.929 . S
C2537 C2529 1.433 . S
C2537 N2539 1.384 . S
N2538 C2534 1.427 . S
N2538 C2535 1.384 . S
N2539 C2531 1.427 . S
N2539 C2537 1.384 . S
H2540 C2546 0.930 . S
H2541 C2550 0.930 . S
H2542 C2555 0.929 . S
H2543 C2553 0.929 . S
H2544 C2548 0.929 . S
H2545 C2554 0.929 1_655 S
C2546 H2540 0.930 . S
C2546 C2547 1.367 . S
C2546 C2554 1.378 . S
C2547 C2546 1.367 . S
C2547 C2555 1.433 . S
C2548 H2544 0.929 . S
C2548 C2550 1.378 . S
C2548 C2552 1.350 . S
C2549 C2552 1.463 . S
C2549 C2554 1.350 1_655 S
C2549 N2557 1.427 1_655 S
C2550 H2541 0.930 . S
C2550 C2548 1.378 . S
C2550 C2551 1.367 . S
C2551 C2550 1.367 . S
C2551 C2553 1.433 . S
C2552 C2548 1.350 . S
C2552 C2549 1.463 . S
C2552 N2556 1.427 . S
C2553 H2543 0.929 . S
C2553 C2551 1.433 . S
C2553 N2556 1.384 . S
C2554 H2545 0.929 1_455 S
C2554 C2546 1.378 . S
C2554 C2549 1.350 1_455 S
C2555 H2542 0.929 . S
C2555 C2547 1.433 . S
C2555 N2557 1.384 . S
N2556 C2552 1.427 . S
N2556 C2553 1.384 . S
N2557 C2549 1.427 1_455 S
N2557 C2555 1.384 . S
H2558 C2564 0.930 . S
H2559 C2568 0.930 . S
H2560 C2573 0.929 . S
H2561 C2571 0.929 . S
H2562 C2566 0.929 . S
H2563 C2572 0.929 . S
C2564 H2558 0.930 . S
C2564 C2565 1.367 . S
C2564 C2572 1.378 . S
C2565 C2564 1.367 . S
C2565 C2573 1.433 . S
C2566 H2562 0.929 . S
C2566 C2568 1.378 . S
C2566 C2570 1.350 . S
C2567 C2570 1.463 . S
C2567 C2572 1.350 . S
C2567 N2575 1.427 . S
C2568 H2559 0.930 . S
C2568 C2566 1.378 . S
C2568 C2569 1.367 . S
C2569 C2568 1.367 . S
C2569 C2571 1.433 . S
C2570 C2566 1.350 . S
C2570 C2567 1.463 . S
C2570 N2574 1.427 . S
C2571 H2561 0.929 . S
C2571 C2569 1.433 . S
C2571 N2574 1.384 . S
C2572 H2563 0.929 . S
C2572 C2564 1.378 . S
C2572 C2567 1.350 . S
C2573 H2560 0.929 . S
C2573 C2565 1.433 . S
C2573 N2575 1.384 . S
N2574 C2570 1.427 . S
N2574 C2571 1.384 . S
N2575 C2567 1.427 . S
N2575 C2573 1.384 . S
H2576 C2582 0.930 . S
H2577 C2586 0.930 . S
H2578 C2591 0.929 . S
H2579 C2589 0.929 . S
H2580 C2584 0.929 . S
H2581 C2590 0.929 1_455 S
C2582 H2576 0.930 . S
C2582 C2583 1.367 . S
C2582 C2590 1.378 . S
C2583 C2582 1.367 . S
C2583 C2591 1.433 1_545 S
C2584 H2580 0.929 . S
C2584 C2586 1.378 . S
C2584 C2588 1.350 . S
C2585 C2588 1.463 . S
C2585 C2590 1.350 1_465 S
C2585 N2593 1.427 1_455 S
C2586 H2577 0.930 . S
C2586 C2584 1.378 . S
C2586 C2587 1.367 . S
C2587 C2586 1.367 . S
C2587 C2589 1.433 1_565 S
C2588 C2584 1.350 . S
C2588 C2585 1.463 . S
C2588 N2592 1.427 1_565 S
C2589 H2579 0.929 . S
C2589 C2587 1.433 1_545 S
C2589 N2592 1.384 . S
C2590 H2581 0.929 1_655 S
C2590 C2582 1.378 . S
C2590 C2585 1.350 1_645 S
C2591 H2578 0.929 . S
C2591 C2583 1.433 1_565 S
C2591 N2593 1.384 . S
N2592 C2588 1.427 1_545 S
N2592 C2589 1.384 . S
N2593 C2585 1.427 1_655 S
N2593 C2591 1.384 . S
H2594 C2600 0.930 . S
H2595 C2604 0.930 . S
H2596 C2609 0.929 . S
H2597 C2607 0.929 . S
H2598 C2602 0.929 . S
H2599 C2608 0.929 . S
C2600 H2594 0.930 . S
C2600 C2601 1.367 . S
C2600 C2608 1.378 . S
C2601 C2600 1.367 . S
C2601 C2609 1.433 . S
C2602 H2598 0.929 . S
C2602 C2604 1.378 . S
C2602 C2606 1.350 . S
C2603 C2606 1.463 . S
C2603 C2608 1.350 . S
C2603 N2611 1.427 . S
C2604 H2595 0.930 . S
C2604 C2602 1.378 . S
C2604 C2605 1.367 . S
C2605 C2604 1.367 . S
C2605 C2607 1.433 . S
C2606 C2602 1.350 . S
C2606 C2603 1.463 . S
C2606 N2610 1.427 . S
C2607 H2597 0.929 . S
C2607 C2605 1.433 . S
C2607 N2610 1.384 . S
C2608 H2599 0.929 . S
C2608 C2600 1.378 . S
C2608 C2603 1.350 . S
C2609 H2596 0.929 . S
C2609 C2601 1.433 . S
C2609 N2611 1.384 . S
N2610 C2606 1.427 . S
N2610 C2607 1.384 . S
N2611 C2603 1.427 . S
N2611 C2609 1.384 . S
H2612 C2618 0.930 . S
H2613 C2622 0.930 . S
H2614 C2627 0.929 . S
H2615 C2625 0.929 . S
H2616 C2620 0.929 . S
H2617 C2626 0.929 . S
C2618 H2612 0.930 . S
C2618 C2619 1.367 . S
C2618 C2626 1.378 . S
C2619 C2618 1.367 . S
C2619 C2627 1.433 . S
C2620 H2616 0.929 . S
C2620 C2622 1.378 . S
C2620 C2624 1.350 . S
C2621 C2624 1.463 . S
C2621 C2626 1.350 1_455 S
C2621 N2629 1.427 1_455 S
C2622 H2613 0.930 . S
C2622 C2620 1.378 . S
C2622 C2623 1.367 . S
C2623 C2622 1.367 . S
C2623 C2625 1.433 . S
C2624 C2620 1.350 . S
C2624 C2621 1.463 . S
C2624 N2628 1.427 . S
C2625 H2615 0.929 . S
C2625 C2623 1.433 . S
C2625 N2628 1.384 . S
C2626 H2617 0.929 . S
C2626 C2618 1.378 . S
C2626 C2621 1.350 1_655 S
C2627 H2614 0.929 . S
C2627 C2619 1.433 . S
C2627 N2629 1.384 . S
N2628 C2624 1.427 . S
N2628 C2625 1.384 . S
N2629 C2621 1.427 1_655 S
N2629 C2627 1.384 . S
H2630 C2636 0.930 . S
H2631 C2640 0.930 . S
H2632 C2645 0.929 . S
H2633 C2643 0.929 . S
H2634 C2638 0.929 . S
H2635 C2644 0.929 . S
C2636 H2630 0.930 . S
C2636 C2637 1.367 1_565 S
C2636 C2644 1.378 . S
C2637 C2636 1.367 1_545 S
C2637 C2645 1.433 . S
C2638 H2634 0.929 . S
C2638 C2640 1.378 . S
C2638 C2642 1.350 1_545 S
C2639 C2642 1.463 . S
C2639 C2644 1.350 . S
C2639 N2647 1.427 1_565 S
C2640 H2631 0.930 . S
C2640 C2638 1.378 . S
C2640 C2641 1.367 1_545 S
C2641 C2640 1.367 1_565 S
C2641 C2643 1.433 . S
C2642 C2638 1.350 1_565 S
C2642 C2639 1.463 . S
C2642 N2646 1.427 . S
C2643 H2633 0.929 . S
C2643 C2641 1.433 . S
C2643 N2646 1.384 . S
C2644 H2635 0.929 . S
C2644 C2636 1.378 . S
C2644 C2639 1.350 . S
C2645 H2632 0.929 . S
C2645 C2637 1.433 . S
C2645 N2647 1.384 . S
N2646 C2642 1.427 . S
N2646 C2643 1.384 . S
N2647 C2639 1.427 1_545 S
N2647 C2645 1.384 . S
H2648 C2654 0.930 . S
H2649 C2658 0.930 . S
H2650 C2663 0.929 . S
H2651 C2661 0.929 . S
H2652 C2656 0.929 . S
H2653 C2662 0.929 . S
C2654 H2648 0.930 . S
C2654 C2655 1.367 1_565 S
C2654 C2662 1.378 . S
C2655 C2654 1.367 1_545 S
C2655 C2663 1.433 . S
C2656 H2652 0.929 . S
C2656 C2658 1.378 . S
C2656 C2660 1.350 1_455 S
C2657 C2660 1.463 . S
C2657 C2662 1.350 1_545 S
C2657 N2665 1.427 . S
C2658 H2649 0.930 . S
C2658 C2656 1.378 . S
C2658 C2659 1.367 1_545 S
C2659 C2658 1.367 1_565 S
C2659 C2661 1.433 . S
C2660 C2656 1.350 1_655 S
C2660 C2657 1.463 . S
C2660 N2664 1.427 1_645 S
C2661 H2651 0.929 . S
C2661 C2659 1.433 . S
C2661 N2664 1.384 . S
C2662 H2653 0.929 . S
C2662 C2654 1.378 . S
C2662 C2657 1.350 1_565 S
C2663 H2650 0.929 . S
C2663 C2655 1.433 . S
C2663 N2665 1.384 . S
N2664 C2660 1.427 1_465 S
N2664 C2661 1.384 . S
N2665 C2657 1.427 . S
N2665 C2663 1.384 . S
H2666 C2672 0.930 . S
H2667 C2676 0.930 . S
H2668 C2681 0.929 . S
H2669 C2679 0.929 . S
H2670 C2674 0.929 . S
H2671 C2680 0.929 . S
C2672 H2666 0.930 . S
C2672 C2673 1.367 . S
C2672 C2680 1.378 . S
C2673 C2672 1.367 . S
C2673 C2681 1.433 . S
C2674 H2670 0.929 . S
C2674 C2676 1.378 . S
C2674 C2678 1.350 . S
C2675 C2678 1.463 . S
C2675 C2680 1.350 . S
C2675 N2683 1.427 . S
C2676 H2667 0.930 . S
C2676 C2674 1.378 . S
C2676 C2677 1.367 . S
C2677 C2676 1.367 . S
C2677 C2679 1.433 . S
C2678 C2674 1.350 . S
C2678 C2675 1.463 . S
C2678 N2682 1.427 . S
C2679 H2669 0.929 . S
C2679 C2677 1.433 . S
C2679 N2682 1.384 . S
C2680 H2671 0.929 . S
C2680 C2672 1.378 . S
C2680 C2675 1.350 . S
C2681 H2668 0.929 . S
C2681 C2673 1.433 . S
C2681 N2683 1.384 . S
N2682 C2678 1.427 . S
N2682 C2679 1.384 . S
N2683 C2675 1.427 . S
N2683 C2681 1.384 . S
H2684 C2690 0.930 . S
H2685 C2694 0.930 . S
H2686 C2699 0.929 . S
H2687 C2697 0.929 . S
H2688 C2692 0.929 . S
H2689 C2698 0.929 . S
C2690 H2684 0.930 . S
C2690 C2691 1.367 . S
C2690 C2698 1.378 . S
C2691 C2690 1.367 . S
C2691 C2699 1.433 . S
C2692 H2688 0.929 . S
C2692 C2694 1.378 . S
C2692 C2696 1.350 . S
C2693 C2696 1.463 . S
C2693 C2698 1.350 1_655 S
C2693 N2701 1.427 1_655 S
C2694 H2685 0.930 . S
C2694 C2692 1.378 . S
C2694 C2695 1.367 . S
C2695 C2694 1.367 . S
C2695 C2697 1.433 . S
C2696 C2692 1.350 . S
C2696 C2693 1.463 . S
C2696 N2700 1.427 . S
C2697 H2687 0.929 . S
C2697 C2695 1.433 . S
C2697 N2700 1.384 . S
C2698 H2689 0.929 . S
C2698 C2690 1.378 . S
C2698 C2693 1.350 1_455 S
C2699 H2686 0.929 . S
C2699 C2691 1.433 . S
C2699 N2701 1.384 . S
N2700 C2696 1.427 . S
N2700 C2697 1.384 . S
N2701 C2693 1.427 1_455 S
N2701 C2699 1.384 . S
H2702 C2708 0.930 . S
H2703 C2712 0.930 . S
H2704 C2717 0.929 . S
H2705 C2715 0.929 . S
H2706 C2710 0.927 . S
H2707 C2716 0.929 . S
C2708 H2702 0.930 . S
C2708 C2709 1.367 1_545 S
C2708 C2716 1.378 . S
C2709 C2708 1.367 1_565 S
C2709 C2717 1.433 . S
C2710 H2706 0.927 . S
C2710 C2712 1.378 . S
C2710 C2714 1.350 . S
C2711 C2714 1.463 . S
C2711 C2716 1.350 . S
C2711 N2719 1.427 1_545 S
C2712 H2703 0.930 . S
C2712 C2710 1.378 . S
C2712 C2713 1.367 . S
C2713 C2712 1.367 . S
C2713 C2715 1.433 . S
C2714 C2710 1.350 . S
C2714 C2711 1.463 . S
C2714 N2718 1.427 . S
C2715 H2705 0.929 . S
C2715 C2713 1.433 . S
C2715 N2718 1.384 . S
C2716 H2707 0.929 . S
C2716 C2708 1.378 . S
C2716 C2711 1.350 . S
C2717 H2704 0.929 . S
C2717 C2709 1.433 . S
C2717 N2719 1.384 . S
N2718 C2714 1.427 . S
N2718 C2715 1.384 . S
N2719 C2711 1.427 1_565 S
N2719 C2717 1.384 . S
H2720 C2726 0.930 . S
H2721 C2730 0.930 . S
H2722 C2735 0.929 . S
H2723 C2733 0.929 . S
H2724 C2728 0.929 . S
H2725 C2734 0.929 . S
C2726 H2720 0.930 . S
C2726 C2727 1.367 . S
C2726 C2734 1.378 . S
C2727 C2726 1.367 . S
C2727 C2735 1.433 1_455 S
C2728 H2724 0.929 . S
C2728 C2730 1.378 . S
C2728 C2732 1.350 . S
C2729 C2732 1.463 1_454 S
C2729 C2734 1.350 . S
C2729 N2737 1.427 1_455 S
C2730 H2721 0.930 . S
C2730 C2728 1.378 . S
C2730 C2731 1.367 . S
C2731 C2730 1.367 . S
C2731 C2733 1.433 1_655 S
C2732 C2728 1.350 . S
C2732 C2729 1.463 1_656 S
C2732 N2736 1.427 1_655 S
C2733 H2723 0.929 . S
C2733 C2731 1.433 1_455 S
C2733 N2736 1.384 . S
C2734 H2725 0.929 . S
C2734 C2726 1.378 . S
C2734 C2729 1.350 . S
C2735 H2722 0.929 . S
C2735 C2727 1.433 1_655 S
C2735 N2737 1.384 . S
N2736 C2732 1.427 1_455 S
N2736 C2733 1.384 . S
N2737 C2729 1.427 1_655 S
N2737 C2735 1.384 . S
H2738 C2744 0.930 . S
H2739 C2748 0.930 . S
H2740 C2753 0.929 . S
H2741 C2751 0.929 . S
H2742 C2746 0.929 . S
H2743 C2752 0.929 . S
C2744 H2738 0.930 . S
C2744 C2745 1.367 . S
C2744 C2752 1.378 . S
C2745 C2744 1.367 . S
C2745 C2753 1.433 . S
C2746 H2742 0.929 . S
C2746 C2748 1.378 . S
C2746 C2750 1.350 . S
C2747 C2750 1.463 1_556 S
C2747 C2752 1.350 . S
C2747 N2755 1.427 . S
C2748 H2739 0.930 . S
C2748 C2746 1.378 . S
C2748 C2749 1.367 . S
C2749 C2748 1.367 . S
C2749 C2751 1.433 . S
C2750 C2746 1.350 . S
C2750 C2747 1.463 1_554 S
C2750 N2754 1.427 . S
C2751 H2741 0.929 . S
C2751 C2749 1.433 . S
C2751 N2754 1.384 . S
C2752 H2743 0.929 . S
C2752 C2744 1.378 . S
C2752 C2747 1.350 . S
C2753 H2740 0.929 . S
C2753 C2745 1.433 . S
C2753 N2755 1.384 . S
N2754 C2750 1.427 . S
N2754 C2751 1.384 . S
N2755 C2747 1.427 . S
N2755 C2753 1.384 . S
H2756 C2762 0.930 . S
H2757 C2766 0.930 . S
H2758 C2771 0.929 . S
H2759 C2769 0.929 . S
H2760 C2764 0.929 . S
H2761 C2770 0.929 . S
C2762 H2756 0.930 . S
C2762 C2763 1.367 1_455 S
C2762 C2770 1.378 . S
C2763 C2762 1.367 1_655 S
C2763 C2771 1.433 . S
C2764 H2760 0.929 . S
C2764 C2766 1.378 . S
C2764 C2768 1.350 1_655 S
C2765 C2768 1.463 1_655 S
C2765 C2770 1.350 1_655 S
C2765 N2773 1.427 . S
C2766 H2757 0.930 . S
C2766 C2764 1.378 . S
C2766 C2767 1.367 1_655 S
C2767 C2766 1.367 1_455 S
C2767 C2769 1.433 . S
C2768 C2764 1.350 1_455 S
C2768 C2765 1.463 1_455 S
C2768 N2772 1.427 . S
C2769 H2759 0.929 . S
C2769 C2767 1.433 . S
C2769 N2772 1.384 . S
C2770 H2761 0.929 . S
C2770 C2762 1.378 . S
C2770 C2765 1.350 1_455 S
C2771 H2758 0.929 . S
C2771 C2763 1.433 . S
C2771 N2773 1.384 . S
N2772 C2768 1.427 . S
N2772 C2769 1.384 . S
N2773 C2765 1.427 . S
N2773 C2771 1.384 . S
H2774 C2780 0.930 . S
H2775 C2784 0.930 . S
H2776 C2789 0.929 . S
H2777 C2787 0.929 . S
H2778 C2782 0.929 . S
H2779 C2788 0.929 . S
C2780 H2774 0.930 . S
C2780 C2781 1.367 . S
C2780 C2788 1.378 . S
C2781 C2780 1.367 . S
C2781 C2789 1.433 . S
C2782 H2778 0.929 . S
C2782 C2784 1.378 . S
C2782 C2786 1.350 . S
C2783 C2786 1.463 . S
C2783 C2788 1.350 . S
C2783 N2791 1.427 . S
C2784 H2775 0.930 . S
C2784 C2782 1.378 . S
C2784 C2785 1.367 . S
C2785 C2784 1.367 . S
C2785 C2787 1.433 . S
C2786 C2782 1.350 . S
C2786 C2783 1.463 . S
C2786 N2790 1.427 . S
C2787 H2777 0.929 . S
C2787 C2785 1.433 . S
C2787 N2790 1.384 . S
C2788 H2779 0.929 . S
C2788 C2780 1.378 . S
C2788 C2783 1.350 . S
C2789 H2776 0.929 . S
C2789 C2781 1.433 . S
C2789 N2791 1.384 . S
N2790 C2786 1.427 . S
N2790 C2787 1.384 . S
N2791 C2783 1.427 . S
N2791 C2789 1.384 . S
H2792 C2798 0.930 . S
H2793 C2802 0.930 . S
H2794 C2807 0.929 . S
H2795 C2805 0.929 . S
H2796 C2800 0.929 . S
H2797 C2806 0.929 . S
C2798 H2792 0.930 . S
C2798 C2799 1.367 . S
C2798 C2806 1.378 . S
C2799 C2798 1.367 . S
C2799 C2807 1.433 . S
C2800 H2796 0.929 . S
C2800 C2802 1.378 . S
C2800 C2804 1.350 . S
C2801 C2804 1.463 1_556 S
C2801 C2806 1.350 . S
C2801 N2809 1.427 . S
C2802 H2793 0.930 . S
C2802 C2800 1.378 . S
C2802 C2803 1.367 . S
C2803 C2802 1.367 . S
C2803 C2805 1.433 . S
C2804 C2800 1.350 . S
C2804 C2801 1.463 1_554 S
C2804 N2808 1.427 . S
C2805 H2795 0.929 . S
C2805 C2803 1.433 . S
C2805 N2808 1.384 . S
C2806 H2797 0.929 . S
C2806 C2798 1.378 . S
C2806 C2801 1.350 . S
C2807 H2794 0.929 . S
C2807 C2799 1.433 . S
C2807 N2809 1.384 . S
N2808 C2804 1.427 . S
N2808 C2805 1.384 . S
N2809 C2801 1.427 . S
N2809 C2807 1.384 . S
H2810 C2816 0.930 . S
H2811 C2820 0.930 . S
H2812 C2825 0.929 . S
H2813 C2823 0.929 . S
H2814 C2818 0.929 . S
H2815 C2824 0.929 . S
C2816 H2810 0.930 . S
C2816 C2817 1.367 . S
C2816 C2824 1.378 . S
C2817 C2816 1.367 . S
C2817 C2825 1.433 1_655 S
C2818 H2814 0.929 . S
C2818 C2820 1.378 . S
C2818 C2822 1.350 . S
C2819 C2822 1.463 1_655 S
C2819 C2824 1.350 . S
C2819 N2827 1.427 1_655 S
C2820 H2811 0.930 . S
C2820 C2818 1.378 . S
C2820 C2821 1.367 . S
C2821 C2820 1.367 . S
C2821 C2823 1.433 1_455 S
C2822 C2818 1.350 . S
C2822 C2819 1.463 1_455 S
C2822 N2826 1.427 1_455 S
C2823 H2813 0.929 . S
C2823 C2821 1.433 1_655 S
C2823 N2826 1.384 . S
C2824 H2815 0.929 . S
C2824 C2816 1.378 . S
C2824 C2819 1.350 . S
C2825 H2812 0.929 . S
C2825 C2817 1.433 1_455 S
C2825 N2827 1.384 . S
N2826 C2822 1.427 1_655 S
N2826 C2823 1.384 . S
N2827 C2819 1.427 1_455 S
N2827 C2825 1.384 . S
H2828 C2834 0.930 . S
H2829 C2838 0.930 . S
H2830 C2843 0.929 . S
H2831 C2841 0.929 . S
H2832 C2836 0.929 . S
H2833 C2842 0.929 . S
C2834 H2828 0.930 . S
C2834 C2835 1.367 . S
C2834 C2842 1.378 . S
C2835 C2834 1.367 . S
C2835 C2843 1.433 . S
C2836 H2832 0.929 . S
C2836 C2838 1.378 . S
C2836 C2840 1.350 . S
C2837 C2840 1.463 . S
C2837 C2842 1.350 . S
C2837 N2845 1.427 . S
C2838 H2829 0.930 . S
C2838 C2836 1.378 . S
C2838 C2839 1.367 . S
C2839 C2838 1.367 . S
C2839 C2841 1.433 . S
C2840 C2836 1.350 . S
C2840 C2837 1.463 . S
C2840 N2844 1.427 . S
C2841 H2831 0.929 . S
C2841 C2839 1.433 . S
C2841 N2844 1.384 . S
C2842 H2833 0.929 . S
C2842 C2834 1.378 . S
C2842 C2837 1.350 . S
C2843 H2830 0.929 . S
C2843 C2835 1.433 . S
C2843 N2845 1.384 . S
N2844 C2840 1.427 . S
N2844 C2841 1.384 . S
N2845 C2837 1.427 . S
N2845 C2843 1.384 . S
H2846 C2852 0.931 . S
H2847 C2856 0.931 . S
H2848 C2861 0.929 . S
H2849 C2859 0.929 . S
H2850 C2854 0.929 . S
H2851 C2860 0.929 . S
C2852 H2846 0.931 . S
C2852 C2853 1.365 1_655 S
C2852 C2860 1.378 . S
C2853 C2852 1.365 1_455 S
C2853 C2861 1.433 1_565 S
C2854 H2850 0.929 . S
C2854 C2856 1.378 . S
C2854 C2858 1.350 1_455 S
C2855 C2858 1.463 1_465 S
C2855 C2860 1.350 1_455 S
C2855 N2863 1.427 1_565 S
C2856 H2847 0.931 . S
C2856 C2854 1.378 . S
C2856 C2857 1.365 1_455 S
C2857 C2856 1.365 1_655 S
C2857 C2859 1.433 1_545 S
C2858 C2854 1.350 1_655 S
C2858 C2855 1.463 1_645 S
C2858 N2862 1.427 1_545 S
C2859 H2849 0.929 . S
C2859 C2857 1.433 1_565 S
C2859 N2862 1.384 . S
C2860 H2851 0.929 . S
C2860 C2852 1.378 . S
C2860 C2855 1.350 1_655 S
C2861 H2848 0.929 . S
C2861 C2853 1.433 1_545 S
C2861 N2863 1.384 . S
N2862 C2858 1.427 1_565 S
N2862 C2859 1.384 . S
N2863 C2855 1.427 1_545 S
N2863 C2861 1.384 . S
H2864 C2870 0.930 . S
H2865 C2874 0.930 . S
H2866 C2879 0.929 . S
H2867 C2877 0.929 . S
H2868 C2872 0.929 . S
H2869 C2878 0.929 . S
C2870 H2864 0.930 . S
C2870 C2871 1.367 . S
C2870 C2878 1.378 . S
C2871 C2870 1.367 . S
C2871 C2879 1.433 . S
C2872 H2868 0.929 . S
C2872 C2874 1.378 . S
C2872 C2876 1.350 . S
C2873 C2876 1.463 . S
C2873 C2878 1.350 . S
C2873 N2881 1.427 . S
C2874 H2865 0.930 . S
C2874 C2872 1.378 . S
C2874 C2875 1.367 . S
C2875 C2874 1.367 . S
C2875 C2877 1.433 . S
C2876 C2872 1.350 . S
C2876 C2873 1.463 . S
C2876 N2880 1.427 . S
C2877 H2867 0.929 . S
C2877 C2875 1.433 . S
C2877 N2880 1.384 . S
C2878 H2869 0.929 . S
C2878 C2870 1.378 . S
C2878 C2873 1.350 . S
C2879 H2866 0.929 . S
C2879 C2871 1.433 . S
C2879 N2881 1.384 . S
N2880 C2876 1.427 . S
N2880 C2877 1.384 . S
N2881 C2873 1.427 . S
N2881 C2879 1.384 . S
H2882 C2888 0.930 . S
H2883 C2892 0.930 . S
H2884 C2897 0.929 . S
H2885 C2895 0.929 . S
H2886 C2890 0.929 . S
H2887 C2896 0.929 . S
C2888 H2882 0.930 . S
C2888 C2889 1.367 1_565 S
C2888 C2896 1.378 . S
C2889 C2888 1.367 1_545 S
C2889 C2897 1.433 . S
C2890 H2886 0.929 . S
C2890 C2892 1.378 . S
C2890 C2894 1.346 1_545 S
C2891 C2894 1.462 1_545 S
C2891 C2896 1.346 1_545 S
C2891 N2899 1.432 . S
C2892 H2883 0.930 . S
C2892 C2890 1.378 . S
C2892 C2893 1.367 1_545 S
C2893 C2892 1.367 1_565 S
C2893 C2895 1.433 . S
C2894 C2890 1.346 1_565 S
C2894 C2891 1.462 1_565 S
C2894 N2898 1.432 . S
C2895 H2885 0.929 . S
C2895 C2893 1.433 . S
C2895 N2898 1.384 . S
C2896 H2887 0.929 . S
C2896 C2888 1.378 . S
C2896 C2891 1.346 1_565 S
C2897 H2884 0.929 . S
C2897 C2889 1.433 . S
C2897 N2899 1.384 . S
N2898 C2894 1.432 . S
N2898 C2895 1.384 . S
N2899 C2891 1.432 . S
N2899 C2897 1.384 . S
H2900 C2906 0.930 . S
H2901 C2910 0.930 . S
H2902 C2915 0.929 . S
H2903 C2913 0.929 . S
H2904 C2908 0.929 . S
H2905 C2914 0.929 . S
C2906 H2900 0.930 . S
C2906 C2907 1.367 . S
C2906 C2914 1.378 . S
C2907 C2906 1.367 . S
C2907 C2915 1.433 . S
C2908 H2904 0.929 . S
C2908 C2910 1.378 . S
C2908 C2912 1.350 . S
C2909 C2912 1.463 . S
C2909 C2914 1.350 . S
C2909 N2917 1.427 . S
C2910 H2901 0.930 . S
C2910 C2908 1.378 . S
C2910 C2911 1.367 . S
C2911 C2910 1.367 . S
C2911 C2913 1.433 . S
C2912 C2908 1.350 . S
C2912 C2909 1.463 . S
C2912 N2916 1.427 . S
C2913 H2903 0.929 . S
C2913 C2911 1.433 . S
C2913 N2916 1.384 . S
C2914 H2905 0.929 . S
C2914 C2906 1.378 . S
C2914 C2909 1.350 . S
C2915 H2902 0.929 . S
C2915 C2907 1.433 . S
C2915 N2917 1.384 . S
N2916 C2912 1.427 . S
N2916 C2913 1.384 . S
N2917 C2909 1.427 . S
N2917 C2915 1.384 . S
H2918 C2924 0.930 . S
H2919 C2928 0.930 . S
H2920 C2933 0.929 . S
H2921 C2931 0.929 . S
H2922 C2926 0.929 . S
H2923 C2932 0.929 . S
C2924 H2918 0.930 . S
C2924 C2925 1.367 1_545 S
C2924 C2932 1.378 . S
C2925 C2924 1.367 1_565 S
C2925 C2933 1.433 . S
C2926 H2922 0.929 . S
C2926 C2928 1.378 . S
C2926 C2930 1.348 1_565 S
C2927 C2930 1.462 1_565 S
C2927 C2932 1.348 1_565 S
C2927 N2935 1.430 . S
C2928 H2919 0.930 . S
C2928 C2926 1.378 . S
C2928 C2929 1.367 1_565 S
C2929 C2928 1.367 1_545 S
C2929 C2931 1.433 . S
C2930 C2926 1.348 1_545 S
C2930 C2927 1.462 1_545 S
C2930 N2934 1.430 . S
C2931 H2921 0.929 . S
C2931 C2929 1.433 . S
C2931 N2934 1.384 . S
C2932 H2923 0.929 . S
C2932 C2924 1.378 . S
C2932 C2927 1.348 1_545 S
C2933 H2920 0.929 . S
C2933 C2925 1.433 . S
C2933 N2935 1.384 . S
N2934 C2930 1.430 . S
N2934 C2931 1.384 . S
N2935 C2927 1.430 . S
N2935 C2933 1.384 . S
H2936 C2942 0.930 . S
H2937 C2946 0.930 . S
H2938 C2951 0.929 . S
H2939 C2949 0.929 . S
H2940 C2944 0.929 . S
H2941 C2950 0.929 . S
C2942 H2936 0.930 . S
C2942 C2943 1.367 . S
C2942 C2950 1.378 . S
C2943 C2942 1.367 . S
C2943 C2951 1.433 . S
C2944 H2940 0.929 . S
C2944 C2946 1.378 . S
C2944 C2948 1.350 . S
C2945 C2948 1.463 . S
C2945 C2950 1.350 . S
C2945 N2953 1.427 . S
C2946 H2937 0.930 . S
C2946 C2944 1.378 . S
C2946 C2947 1.367 . S
C2947 C2946 1.367 . S
C2947 C2949 1.433 . S
C2948 C2944 1.350 . S
C2948 C2945 1.463 . S
C2948 N2952 1.427 . S
C2949 H2939 0.929 . S
C2949 C2947 1.433 . S
C2949 N2952 1.384 . S
C2950 H2941 0.929 . S
C2950 C2942 1.378 . S
C2950 C2945 1.350 . S
C2951 H2938 0.929 . S
C2951 C2943 1.433 . S
C2951 N2953 1.384 . S
N2952 C2948 1.427 . S
N2952 C2949 1.384 . S
N2953 C2945 1.427 . S
N2953 C2951 1.384 . S
H2954 C2960 0.930 . S
H2955 C2964 0.930 . S
H2956 C2969 0.929 . S
H2957 C2967 0.929 . S
H2958 C2962 0.929 . S
H2959 C2968 0.929 . S
C2960 H2954 0.930 . S
C2960 C2961 1.367 . S
C2960 C2968 1.378 . S
C2961 C2960 1.367 . S
C2961 C2969 1.433 . S
C2962 H2958 0.929 . S
C2962 C2964 1.378 . S
C2962 C2966 1.350 . S
C2963 C2966 1.463 . S
C2963 C2968 1.350 . S
C2963 N2971 1.427 . S
C2964 H2955 0.930 . S
C2964 C2962 1.378 . S
C2964 C2965 1.367 . S
C2965 C2964 1.367 . S
C2965 C2967 1.433 . S
C2966 C2962 1.350 . S
C2966 C2963 1.463 . S
C2966 N2970 1.427 . S
C2967 H2957 0.929 . S
C2967 C2965 1.433 . S
C2967 N2970 1.384 . S
C2968 H2959 0.929 . S
C2968 C2960 1.378 . S
C2968 C2963 1.350 . S
C2969 H2956 0.929 . S
C2969 C2961 1.433 . S
C2969 N2971 1.384 . S
N2970 C2966 1.427 . S
N2970 C2967 1.384 . S
N2971 C2963 1.427 . S
N2971 C2969 1.384 . S
H2972 C2978 0.930 . S
H2973 C2982 0.930 . S
H2974 C2987 0.929 . S
H2975 C2985 0.929 . S
H2976 C2980 0.929 . S
H2977 C2986 0.929 . S
C2978 H2972 0.930 . S
C2978 C2979 1.367 . S
C2978 C2986 1.378 . S
C2979 C2978 1.367 . S
C2979 C2987 1.433 . S
C2980 H2976 0.929 . S
C2980 C2982 1.378 . S
C2980 C2984 1.350 . S
C2981 C2984 1.463 . S
C2981 C2986 1.350 . S
C2981 N2989 1.427 . S
C2982 H2973 0.930 . S
C2982 C2980 1.378 . S
C2982 C2983 1.367 . S
C2983 C2982 1.367 . S
C2983 C2985 1.433 . S
C2984 C2980 1.350 . S
C2984 C2981 1.463 . S
C2984 N2988 1.427 . S
C2985 H2975 0.929 . S
C2985 C2983 1.433 . S
C2985 N2988 1.384 . S
C2986 H2977 0.929 . S
C2986 C2978 1.378 . S
C2986 C2981 1.350 . S
C2987 H2974 0.929 . S
C2987 C2979 1.433 . S
C2987 N2989 1.384 . S
N2988 C2984 1.427 . S
N2988 C2985 1.384 . S
N2989 C2981 1.427 . S
N2989 C2987 1.384 . S
H2990 C2996 0.930 . S
H2991 C3000 0.930 . S
H2992 C3005 0.929 . S
H2993 C3003 0.929 . S
H2994 C2998 0.929 . S
H2995 C3004 0.929 . S
C2996 H2990 0.930 . S
C2996 C2997 1.367 1_545 S
C2996 C3004 1.378 . S
C2997 C2996 1.367 1_565 S
C2997 C3005 1.433 . S
C2998 H2994 0.929 . S
C2998 C3000 1.378 . S
C2998 C3002 1.346 1_565 S
C2999 C3002 1.462 1_564 S
C2999 C3004 1.346 1_565 S
C2999 N3007 1.431 . S
C3000 H2991 0.930 . S
C3000 C2998 1.378 . S
C3000 C3001 1.367 1_565 S
C3001 C3000 1.367 1_545 S
C3001 C3003 1.433 . S
C3002 C2998 1.346 1_545 S
C3002 C2999 1.462 1_546 S
C3002 N3006 1.431 . S
C3003 H2993 0.929 . S
C3003 C3001 1.433 . S
C3003 N3006 1.384 . S
C3004 H2995 0.929 . S
C3004 C2996 1.378 . S
C3004 C2999 1.346 1_545 S
C3005 H2992 0.929 . S
C3005 C2997 1.433 . S
C3005 N3007 1.384 . S
N3006 C3002 1.431 . S
N3006 C3003 1.384 . S
N3007 C2999 1.431 . S
N3007 C3005 1.384 . S
C1287 C10 1.626 . S
C1291 C1010 1.629 . S
C1305 C970 1.627 . S
C1309 C50 1.628 . S
C1323 C1090 1.628 . S
C1327 C90 1.627 . S
C1341 C130 1.625 . S
C1345 C1050 1.629 . S
C1359 C179 1.625 . S
C1363 C1179 1.629 . S
C1377 C219 1.625 . S
C1381 C1139 1.629 . S
C1395 C259 1.624 . S
C1399 C1259 1.628 . S
C1413 C1219 1.629 . S
C1417 C299 1.625 . S
C1431 C330 1.629 . S
C1435 C690 1.624 . S
C1449 C370 1.627 . S
C1453 C650 1.625 . S
C1467 C410 1.625 . S
C1471 C770 1.629 . S
C1485 C730 1.628 . S
C1489 C450 1.624 . S
C1503 C499 1.624 . S
C1507 C859 1.628 . S
C1521 C539 1.625 . S
C1525 C819 1.628 . S
C1539 C939 1.629 . S
C1543 C579 1.625 . S
C1557 C619 1.629 . S
C1561 C899 1.626 . S
C1575 C9 1.619 . S
C1579 C129 1.613 . S
C1593 C49 1.619 . S
C1597 C89 1.613 . S
C1611 C298 1.619 . S
C1615 C178 1.613 . S
C1629 C258 1.612 . S
C1633 C218 1.619 . S
C1647 C329 1.619 . S
C1651 C449 1.614 . S
C1665 C369 1.612 . S
C1669 C409 1.617 . S
C1683 C498 1.614 . S
C1687 C618 1.619 . S
C1701 C578 1.617 . S
C1705 C538 1.612 . S
C1719 C649 1.613 . S
C1723 C769 1.615 . S
C1737 C689 1.612 . S
C1741 C729 1.618 . S
C1755 C938 1.617 . S
C1759 C818 1.612 . S
C1773 C858 1.613 . S
C1777 C898 1.619 . S
C1791 C1089 1.619 . S
C1795 C969 1.613 . S
C1809 C1009 1.612 . S
C1813 C1049 1.617 . S
C1827 C1258 1.618 . S
C1831 C1138 1.611 . S
C1845 C1218 1.613 . S
C1849 C1178 1.615 . S
C1863 C59 1.512 . S
C1867 C19 1.514 . S
C1881 C99 1.513 . S
C1885 C139 1.518 . S
C1899 C210 1.517 . S
C1903 C170 1.513 . S
C1917 C290 1.521 . S
C1921 C250 1.525 . S
C1935 C339 1.512 . S
C1939 C379 1.517 . S
C1953 C419 1.511 . S
C1957 C459 1.514 . S
C1971 C530 1.512 . S
C1975 C490 1.511 . S
C1989 C570 1.525 . S
C1993 C610 1.521 . S
C2007 C659 1.520 . S
C2011 C699 1.524 . S
C2025 C779 1.511 . S
C2029 C739 1.514 . S
C2043 C810 1.521 . S
C2047 C850 1.525 . S
C2061 C890 1.520 . S
C2065 C930 1.524 . S
C2079 C979 1.515 . S
C2083 C1019 1.512 . S
C2097 C1059 1.511 . S
C2101 C1099 1.514 . S
C2115 C1170 1.522 . S
C2119 C1130 1.525 . S
C2133 C1210 1.518 . S
C2137 C1250 1.513 . S
C2151 C6 1.665 . S
C2155 C15 1.665 . S
C2169 C46 1.667 . S
C2173 C55 1.667 . S
C2187 C86 1.671 . S
C2191 C95 1.671 . S
C2205 C135 1.672 . S
C2209 C126 1.672 . S
C2223 C166 1.668 . S
C2227 C175 1.668 . S
C2241 C215 1.671 . S
C2245 C206 1.671 . S
C2259 C246 1.665 . S
C2263 C255 1.665 . S
C2277 C286 1.669 . S
C2281 C295 1.669 . S
C2295 C335 1.672 . S
C2299 C326 1.672 . S
C2313 C366 1.667 . S
C2317 C375 1.667 . S
C2331 C406 1.669 . S
C2335 C415 1.669 . S
C2349 C455 1.663 . S
C2353 C446 1.663 . S
C2367 C486 1.668 . S
C2371 C495 1.668 . S
C2385 C535 1.664 . S
C2389 C526 1.664 . S
C2403 C575 1.666 . S
C2407 C566 1.666 . S
C2421 C606 1.663 . S
C2425 C615 1.663 . S
C2439 C646 1.669 . S
C2443 C655 1.669 . S
C2457 C695 1.672 . S
C2461 C686 1.672 . S
C2475 C735 1.665 . S
C2479 C726 1.665 . S
C2493 C766 1.664 . S
C2497 C775 1.664 . S
C2511 C815 1.664 . S
C2515 C806 1.664 . S
C2529 C855 1.665 . S
C2533 C846 1.665 . S
C2547 C886 1.671 . S
C2551 C895 1.671 . S
C2565 C935 1.669 . S
C2569 C926 1.669 . S
C2583 C975 1.672 . S
C2587 C966 1.672 . S
C2601 C1006 1.672 . S
C2605 C1015 1.672 . S
C2619 C1055 1.665 . S
C2623 C1046 1.665 . S
C2637 C1095 1.663 . S
C2641 C1086 1.663 . S
C2655 C1135 1.663 . S
C2659 C1126 1.663 . S
C2673 C1175 1.663 . S
C2677 C1166 1.663 . S
C2691 C1206 1.663 . S
C2695 C1215 1.663 . S
C2709 C1246 1.669 . S
C2713 C1255 1.669 . S
C2727 C18 1.476 . S
C2731 C169 1.476 . S
C2745 C1169 1.470 . S
C2749 C58 1.470 . S
C2763 C569 1.482 . S
C2767 C98 1.482 . S
C2781 C138 1.480 . S
C2785 C929 1.480 . S
C2799 C209 1.469 . S
C2803 C1018 1.469 . S
C2817 C249 1.470 . S
C2821 C418 1.470 . S
C2835 C289 1.469 . S
C2839 C778 1.469 . S
C2853 C338 1.475 . S
C2857 C489 1.475 . S
C2871 C849 1.472 . S
C2875 C378 1.472 . S
C2889 C1249 1.484 . S
C2893 C458 1.484 . S
C2907 C529 1.469 . S
C2911 C698 1.469 . S
C2925 C1098 1.475 . S
C2929 C609 1.475 . S
C2943 C658 1.469 . S
C2947 C809 1.469 . S
C2961 C1209 1.470 . S
C2965 C738 1.470 . S
C2979 C889 1.470 . S
C2983 C1058 1.470 . S
C2997 C978 1.474 . S
C3001 C1129 1.474 . S
