# Generated by pormake.
# Topology fnw, (5)-cn, num edge types: 1
# Building blocks:
#     Node 0, Type 0, BuildingBlock: BEQFEK_clean_sbu_0, # of connection points: 5
#     Node 1, Type 0, BuildingBlock: BEQFEK_clean_sbu_0, # of connection points: 5
#     Node 2, Type 0, BuildingBlock: BEQFEK_clean_sbu_0, # of connection points: 5
#     Node 3, Type 0, BuildingBlock: BEQFEK_clean_sbu_0, # of connection points: 5
#     Node 4, Type 0, BuildingBlock: BEQFEK_clean_sbu_0, # of connection points: 5
#     Node 5, Type 0, BuildingBlock: BEQFEK_clean_sbu_0, # of connection points: 5
#     Node 6, Type 0, BuildingBlock: BEQFEK_clean_sbu_0, # of connection points: 5
#     Node 7, Type 0, BuildingBlock: BEQFEK_clean_sbu_0, # of connection points: 5
#     Node 8, Type 0, BuildingBlock: BEQFEK_clean_sbu_0, # of connection points: 5
#     Node 9, Type 0, BuildingBlock: BEQFEK_clean_sbu_0, # of connection points: 5
#     Node 10, Type 0, BuildingBlock: BEQFEK_clean_sbu_0, # of connection points: 5
#     Node 11, Type 0, BuildingBlock: BEQFEK_clean_sbu_0, # of connection points: 5
#     Edge 12, Type (0, 0), BuildingBlock: XUDNAN_clean_linker_2, # of connection points: 2
#     Edge 13, Type (0, 0), BuildingBlock: XUDNAN_clean_linker_2, # of connection points: 2
#     Edge 14, Type (0, 0), BuildingBlock: XUDNAN_clean_linker_2, # of connection points: 2
#     Edge 15, Type (0, 0), BuildingBlock: XUDNAN_clean_linker_2, # of connection points: 2
#     Edge 16, Type (0, 0), BuildingBlock: XUDNAN_clean_linker_2, # of connection points: 2
#     Edge 17, Type (0, 0), BuildingBlock: XUDNAN_clean_linker_2, # of connection points: 2
#     Edge 18, Type (0, 0), BuildingBlock: XUDNAN_clean_linker_2, # of connection points: 2
#     Edge 19, Type (0, 0), BuildingBlock: XUDNAN_clean_linker_2, # of connection points: 2
#     Edge 20, Type (0, 0), BuildingBlock: XUDNAN_clean_linker_2, # of connection points: 2
#     Edge 21, Type (0, 0), BuildingBlock: XUDNAN_clean_linker_2, # of connection points: 2
#     Edge 22, Type (0, 0), BuildingBlock: XUDNAN_clean_linker_2, # of connection points: 2
#     Edge 23, Type (0, 0), BuildingBlock: XUDNAN_clean_linker_2, # of connection points: 2
#     Edge 24, Type (0, 0), BuildingBlock: XUDNAN_clean_linker_2, # of connection points: 2
#     Edge 25, Type (0, 0), BuildingBlock: XUDNAN_clean_linker_2, # of connection points: 2
#     Edge 26, Type (0, 0), BuildingBlock: XUDNAN_clean_linker_2, # of connection points: 2
#     Edge 27, Type (0, 0), BuildingBlock: XUDNAN_clean_linker_2, # of connection points: 2
#     Edge 28, Type (0, 0), BuildingBlock: XUDNAN_clean_linker_2, # of connection points: 2
#     Edge 29, Type (0, 0), BuildingBlock: XUDNAN_clean_linker_2, # of connection points: 2
#     Edge 30, Type (0, 0), BuildingBlock: XUDNAN_clean_linker_2, # of connection points: 2
#     Edge 31, Type (0, 0), BuildingBlock: XUDNAN_clean_linker_2, # of connection points: 2
#     Edge 32, Type (0, 0), BuildingBlock: XUDNAN_clean_linker_2, # of connection points: 2
#     Edge 33, Type (0, 0), BuildingBlock: XUDNAN_clean_linker_2, # of connection points: 2
#     Edge 34, Type (0, 0), BuildingBlock: XUDNAN_clean_linker_2, # of connection points: 2
#     Edge 35, Type (0, 0), BuildingBlock: XUDNAN_clean_linker_2, # of connection points: 2
#     Edge 36, Type (0, 0), BuildingBlock: XUDNAN_clean_linker_2, # of connection points: 2
#     Edge 37, Type (0, 0), BuildingBlock: XUDNAN_clean_linker_2, # of connection points: 2
#     Edge 38, Type (0, 0), BuildingBlock: XUDNAN_clean_linker_2, # of connection points: 2
#     Edge 39, Type (0, 0), BuildingBlock: XUDNAN_clean_linker_2, # of connection points: 2
#     Edge 40, Type (0, 0), BuildingBlock: XUDNAN_clean_linker_2, # of connection points: 2
#     Edge 41, Type (0, 0), BuildingBlock: XUDNAN_clean_linker_2, # of connection points: 2
# Relax obj value: 0.201
# Max RMSD: 0.128
# Mean RMSD: 0.128
data_MOF--net-fnw--node1-BEQFEK_clean_sbu_0--edge1-XUDNAN_clean_linker_2
_symmetry_space_group_name_H-M    P1
_symmetry_Int_Tables_number       1
_symmetry_cell_setting            triclinic
loop_
_symmetry_equiv_pos_as_xyz
'x, y, z'
_cell_length_a     55.935889
_cell_length_b     55.939776
_cell_length_c     30.661935
_cell_angle_alpha  89.991976
_cell_angle_beta   90.071005
_cell_angle_gamma 119.98441
loop_
_atom_site_label
_atom_site_type_symbol
_atom_site_fract_x
_atom_site_fract_y
_atom_site_fract_z
_atom_type_partial_charge
Co0 Co 0.25817 0.49564 0.23805 0.0
Co1 Co 0.28147 0.45615 0.25872 0.0
C2 C 0.25322 0.45282 0.17381 0.0
O3 O 0.24915 0.4723 0.18569 0.0
O4 O 0.26563 0.44412 0.19859 0.0
C5 C 0.25338 0.54277 0.21705 0.0
O6 O 0.2789 0.55261 0.20367 0.0
C7 C 0.29141 0.40885 0.26819 0.0
C8 C 0.3185 0.42236 0.32628 0.0
C9 C 0.30583 0.40117 0.29634 0.0
N10 N 0.295 0.43336 0.2815 0.0
N11 N 0.31151 0.44141 0.31588 0.0
C12 C 0.27452 0.39327 0.22951 0.0
H13 H 0.25473 0.39337 0.22956 0.0
H14 H 0.27041 0.37169 0.22939 0.0
H15 H 0.28582 0.4038 0.19933 0.0
C16 C 0.2316 0.47536 0.32299 0.0
N17 N 0.24585 0.47383 0.28887 0.0
N18 N 0.25525 0.45708 0.29837 0.0
C19 C 0.24694 0.44723 0.33919 0.0
C20 C 0.23215 0.45896 0.35656 0.0
C21 C 0.21978 0.49416 0.32459 0.0
H22 H 0.20672 0.49066 0.29537 0.0
H23 H 0.20707 0.49058 0.35425 0.0
H24 H 0.23683 0.51593 0.32395 0.0
O25 O 0.2984 0.52123 0.24208 0.0
O26 O 0.31495 0.49333 0.25528 0.0
H27 H 0.27697 0.44357 0.37717 0.0
H28 H 0.24207 0.41862 0.39065 0.0
C29 C 0.25613 0.42998 0.36336 0.0
H30 H 0.25683 0.41479 0.34101 0.0
H31 H 0.31812 0.46006 0.33217 0.0
O32 O 0.24024 0.51842 0.23238 0.0
C33 C 0.31867 0.51743 0.24893 0.0
Co34 Co 0.76062 0.25738 0.71731 0.0
Co35 Co 0.82469 0.28195 0.71417 0.0
C36 C 0.78966 0.24458 0.6441 0.0
O37 O 0.76856 0.24303 0.66283 0.0
O38 O 0.81372 0.2584 0.66084 0.0
C39 C 0.70216 0.21445 0.72522 0.0
O40 O 0.70997 0.19597 0.72142 0.0
C41 C 0.88318 0.2935 0.72016 0.0
C42 C 0.90123 0.33371 0.75409 0.0
C43 C 0.90756 0.31432 0.73847 0.0
N44 N 0.86341 0.30032 0.72558 0.0
N45 N 0.87455 0.32452 0.74537 0.0
C46 C 0.87809 0.26673 0.70124 0.0
H47 H 0.85577 0.25116 0.70249 0.0
H48 H 0.89023 0.25907 0.71904 0.0
H49 H 0.88474 0.27001 0.66662 0.0
C50 C 0.76969 0.24618 0.80873 0.0
N51 N 0.77825 0.25316 0.76716 0.0
N52 N 0.80487 0.26198 0.76497 0.0
C53 C 0.81386 0.25984 0.80481 0.0
C54 C 0.79206 0.25027 0.83423 0.0
C55 C 0.74185 0.24 0.82451 0.0
H56 H 0.73461 0.25206 0.80552 0.0
H57 H 0.72696 0.21774 0.81951 0.0
H58 H 0.7422 0.24493 0.85961 0.0
O59 O 0.7732 0.29662 0.7098 0.0
O60 O 0.81826 0.31361 0.70409 0.0
H61 H 0.85596 0.29008 0.81748 0.0
H62 H 0.84426 0.25787 0.84593 0.0
C63 C 0.84298 0.26733 0.81484 0.0
H64 H 0.85111 0.26004 0.78823 0.0
H65 H 0.86368 0.33445 0.75411 0.0
O66 O 0.72017 0.23995 0.72487 0.0
C67 C 0.79736 0.31692 0.70426 0.0
Co68 Co 0.50338 0.75732 0.23444 0.0
Co69 Co 0.54075 0.82148 0.22949 0.0
C70 C 0.54305 0.78505 0.16027 0.0
O71 O 0.52598 0.76346 0.18106 0.0
O72 O 0.5503 0.80918 0.17435 0.0
C73 C 0.48748 0.69901 0.24493 0.0
O74 O 0.51366 0.70656 0.24025 0.0
C75 C 0.58871 0.87831 0.22358 0.0
C76 C 0.57295 0.9009 0.26213 0.0
C77 C 0.59571 0.90443 0.23889 0.0
N78 N 0.56306 0.86032 0.23744 0.0
N79 N 0.55377 0.87401 0.26027 0.0
C80 C 0.60643 0.87005 0.19872 0.0
H81 H 0.60077 0.84855 0.20702 0.0
H82 H 0.6286 0.8842 0.20592 0.0
H83 H 0.60287 0.8709 0.16328 0.0
C84 C 0.52527 0.76827 0.32528 0.0
N85 N 0.52559 0.77602 0.28351 0.0
N86 N 0.54312 0.80263 0.27984 0.0
C87 C 0.55539 0.81242 0.31873 0.0
C88 C 0.54414 0.79118 0.34923 0.0
C89 C 0.50434 0.74061 0.34278 0.0
H90 H 0.48471 0.73249 0.32445 0.0
H91 H 0.51219 0.72604 0.33859 0.0
H92 H 0.50024 0.7417 0.37789 0.0
O93 O 0.47655 0.76985 0.22458 0.0
O94 O 0.50269 0.8154 0.22499 0.0
H95 H 0.56753 0.85458 0.33138 0.0
H96 H 0.58951 0.84342 0.35634 0.0
C97 C 0.57729 0.84172 0.32676 0.0
H98 H 0.59137 0.84969 0.29838 0.0
H99 H 0.53435 0.86491 0.2749 0.0
O100 O 0.48018 0.71716 0.24432 0.0
C101 C 0.47911 0.79371 0.22271 0.0
Co102 Co 0.74395 0.50298 0.72063 0.0
Co103 Co 0.71768 0.54038 0.73463 0.0
C104 C 0.75326 0.54714 0.65692 0.0
O105 O 0.7576 0.52809 0.67016 0.0
O106 O 0.73797 0.554 0.67798 0.0
C107 C 0.78412 0.48534 0.70438 0.0
O108 O 0.80031 0.51029 0.6891 0.0
C109 C 0.71214 0.58989 0.74331 0.0
C110 C 0.6729 0.57293 0.77961 0.0
C111 C 0.69338 0.59686 0.76037 0.0
N112 N 0.70297 0.56313 0.75196 0.0
N113 N 0.67957 0.55317 0.77379 0.0
C114 C 0.7388 0.60823 0.72054 0.0
H115 H 0.75388 0.60133 0.72754 0.0
H116 H 0.74742 0.63003 0.73092 0.0
H117 H 0.73514 0.60678 0.68482 0.0
C118 C 0.76177 0.51969 0.81116 0.0
N119 N 0.75119 0.52268 0.77352 0.0
N120 N 0.73986 0.53806 0.78029 0.0
C121 C 0.74268 0.54513 0.8229 0.0
C122 C 0.75642 0.53344 0.84409 0.0
C123 C 0.77439 0.50173 0.81612 0.0
H124 H 0.7904 0.50718 0.79074 0.0
H125 H 0.78402 0.50421 0.84871 0.0
H126 H 0.75826 0.47983 0.81124 0.0
O127 O 0.70373 0.47706 0.71518 0.0
O128 O 0.68505 0.5035 0.72473 0.0
H129 H 0.7057 0.54426 0.84278 0.0
H130 H 0.73452 0.56399 0.87857 0.0
C131 C 0.7283 0.55859 0.84405 0.0
H132 H 0.733 0.57759 0.8259 0.0
H133 H 0.66791 0.53271 0.78411 0.0
O134 O 0.76063 0.4791 0.71977 0.0
C135 C 0.68263 0.48 0.71757 0.0
Co136 Co 0.23836 0.75196 0.22119 0.0
Co137 Co 0.17376 0.71838 0.2187 0.0
C138 C 0.20749 0.75658 0.14576 0.0
O139 O 0.23005 0.76429 0.16593 0.0
O140 O 0.18434 0.73876 0.16182 0.0
C141 C 0.29181 0.76512 0.20432 0.0
O142 O 0.27782 0.74614 0.17481 0.0
C143 C 0.11735 0.7103 0.2259 0.0
C144 C 0.09259 0.66476 0.22391 0.0
C145 C 0.09052 0.68834 0.22631 0.0
N146 N 0.13458 0.70008 0.22345 0.0
N147 N 0.11959 0.67286 0.22243 0.0
C148 C 0.12632 0.74033 0.22475 0.0
H149 H 0.14918 0.75308 0.22579 0.0
H150 H 0.11723 0.74559 0.25271 0.0
H151 H 0.1185 0.7449 0.19443 0.0
C152 C 0.22776 0.76734 0.30803 0.0
N153 N 0.21887 0.75576 0.26853 0.0
N154 N 0.19171 0.74117 0.26849 0.0
C155 C 0.18249 0.74261 0.30857 0.0
C156 C 0.20504 0.75936 0.33492 0.0
C157 C 0.25758 0.7843 0.32025 0.0
H158 H 0.26923 0.79854 0.29318 0.0
H159 H 0.26032 0.79642 0.35036 0.0
H160 H 0.26615 0.77042 0.3256 0.0
O161 O 0.22877 0.71275 0.21682 0.0
O162 O 0.1831 0.68874 0.21634 0.0
H163 H 0.14402 0.70428 0.30744 0.0
H164 H 0.15214 0.72178 0.35934 0.0
C165 C 0.15331 0.72475 0.32347 0.0
H166 H 0.14114 0.73471 0.31453 0.0
H167 H 0.12778 0.65975 0.22012 0.0
O168 O 0.27893 0.77277 0.22969 0.0
C169 C 0.20632 0.68979 0.21554 0.0
Co170 Co 0.49807 0.23943 0.73079 0.0
Co171 Co 0.45911 0.17654 0.75013 0.0
C172 C 0.45378 0.20249 0.6677 0.0
O173 O 0.47347 0.22602 0.67937 0.0
O174 O 0.44586 0.1812 0.69174 0.0
C175 C 0.51595 0.29702 0.71118 0.0
O176 O 0.49057 0.28829 0.69784 0.0
C177 C 0.41114 0.11984 0.76065 0.0
C178 C 0.42647 0.10469 0.81437 0.0
C179 C 0.40402 0.0972 0.78732 0.0
N180 N 0.43658 0.13998 0.77199 0.0
N181 N 0.44567 0.13061 0.80377 0.0
C182 C 0.39397 0.1226 0.7258 0.0
H183 H 0.39651 0.14358 0.72684 0.0
H184 H 0.37184 0.10683 0.72956 0.0
H185 H 0.40125 0.1199 0.69351 0.0
C186 C 0.47935 0.24444 0.81853 0.0
N187 N 0.47753 0.22936 0.78319 0.0
N188 N 0.46081 0.20305 0.79163 0.0
C189 C 0.45121 0.20068 0.83277 0.0
C190 C 0.46299 0.22683 0.85149 0.0
C191 C 0.49804 0.27502 0.82155 0.0
H192 H 0.49289 0.28515 0.79503 0.0
H193 H 0.4959 0.28334 0.85324 0.0
H194 H 0.51975 0.28006 0.81704 0.0
O195 O 0.52361 0.22467 0.73045 0.0
O196 O 0.49615 0.18017 0.74368 0.0
H197 H 0.42383 0.17593 0.88494 0.0
H198 H 0.41818 0.15865 0.83339 0.0
C199 C 0.43418 0.17374 0.85574 0.0
H200 H 0.44777 0.1657 0.86645 0.0
H201 H 0.46506 0.142 0.8183 0.0
O202 O 0.52237 0.27987 0.72645 0.0
C203 C 0.52004 0.20058 0.73615 0.0
Co204 Co 0.50375 0.74388 0.78455 0.0
Co205 Co 0.54496 0.72233 0.76787 0.0
C206 C 0.54629 0.75098 0.85134 0.0
O207 O 0.52724 0.75527 0.83758 0.0
O208 O 0.55521 0.73814 0.82812 0.0
C209 C 0.48557 0.78431 0.7931 0.0
O210 O 0.51172 0.80281 0.79869 0.0
C211 C 0.59319 0.71365 0.76173 0.0
C212 C 0.58285 0.68965 0.70043 0.0
C213 C 0.60259 0.70104 0.73292 0.0
N214 N 0.5691 0.7102 0.74643 0.0
N215 N 0.56296 0.69558 0.7101 0.0
C216 C 0.60701 0.72924 0.80237 0.0
H217 H 0.60635 0.74873 0.80342 0.0
H218 H 0.62875 0.7339 0.8042 0.0
H219 H 0.59553 0.7167 0.83111 0.0
C220 C 0.52358 0.76789 0.69668 0.0
N221 N 0.52495 0.75483 0.73272 0.0
N222 N 0.54392 0.74776 0.72722 0.0
C223 C 0.5561 0.75726 0.68811 0.0
C224 C 0.54336 0.76996 0.66715 0.0
C225 C 0.50137 0.77488 0.68852 0.0
H226 H 0.48189 0.75943 0.70429 0.0
H227 H 0.50777 0.79548 0.70262 0.0
H228 H 0.49752 0.7754 0.65313 0.0
O229 O 0.47963 0.70362 0.78516 0.0
O230 O 0.50818 0.68803 0.77007 0.0
H231 H 0.57228 0.73548 0.65291 0.0
H232 H 0.59271 0.77234 0.64875 0.0
C233 C 0.58002 0.75504 0.67129 0.0
H234 H 0.59314 0.75538 0.69868 0.0
H235 H 0.54516 0.68974 0.69174 0.0
O236 O 0.47868 0.75921 0.78705 0.0
C237 C 0.48404 0.68376 0.77812 0.0
Co238 Co 0.75337 0.49876 0.28651 0.0
Co239 Co 0.81673 0.53897 0.27347 0.0
C240 C 0.78568 0.54341 0.35101 0.0
O241 O 0.76277 0.52334 0.33771 0.0
O242 O 0.80801 0.55164 0.32944 0.0
C243 C 0.69154 0.46526 0.30106 0.0
O244 O 0.69118 0.4833 0.32808 0.0
C245 C 0.87245 0.58906 0.2624 0.0
C246 C 0.89217 0.57044 0.22338 0.0
C247 C 0.89706 0.59506 0.24193 0.0
N248 N 0.85403 0.56218 0.25575 0.0
N249 N 0.86609 0.55127 0.23262 0.0
C250 C 0.86599 0.60844 0.28629 0.0
H251 H 0.84358 0.6012 0.2841 0.0
H252 H 0.87811 0.62964 0.27289 0.0
H253 H 0.87141 0.60885 0.32122 0.0
C254 C 0.75171 0.51568 0.19634 0.0
N255 N 0.76542 0.51885 0.23388 0.0
N256 N 0.792 0.53527 0.22733 0.0
C257 C 0.79603 0.54292 0.18494 0.0
C258 C 0.77059 0.53047 0.16369 0.0
C259 C 0.72126 0.4969 0.19123 0.0
H260 H 0.71031 0.50012 0.21873 0.0
H261 H 0.71367 0.5007 0.15999 0.0
H262 H 0.71655 0.47514 0.19223 0.0
O263 O 0.77016 0.4753 0.29279 0.0
O264 O 0.81489 0.50312 0.28356 0.0
H265 H 0.83301 0.54447 0.16324 0.0
H266 H 0.82285 0.5644 0.13014 0.0
C267 C 0.82388 0.55808 0.16399 0.0
H268 H 0.83758 0.5767 0.18341 0.0
H269 H 0.85643 0.53062 0.22304 0.0
O270 O 0.71399 0.47013 0.28317 0.0
C271 C 0.79452 0.47922 0.29065 0.0
Co272 Co 0.25641 0.7568 0.7654 0.0
Co273 Co 0.28008 0.82078 0.75852 0.0
C274 C 0.24698 0.78788 0.83651 0.0
O275 O 0.2429 0.76504 0.82054 0.0
O276 O 0.26088 0.81058 0.81589 0.0
C277 C 0.232 0.69771 0.78618 0.0
O278 O 0.22503 0.70295 0.82438 0.0
C279 C 0.28639 0.87662 0.76192 0.0
C280 C 0.3215 0.89905 0.71689 0.0
C281 C 0.304 0.90266 0.74458 0.0
N282 N 0.29343 0.85873 0.74536 0.0
N283 N 0.31435 0.87229 0.71836 0.0
C284 C 0.26276 0.86846 0.79251 0.0
H285 H 0.24633 0.84691 0.78586 0.0
H286 H 0.25419 0.8825 0.78928 0.0
H287 H 0.27006 0.86947 0.82648 0.0
C288 C 0.23337 0.75877 0.67889 0.0
N289 N 0.24728 0.77098 0.71575 0.0
N290 N 0.25667 0.79771 0.71318 0.0
C291 C 0.24858 0.80328 0.67488 0.0
C292 C 0.23366 0.7788 0.65175 0.0
C293 C 0.22061 0.72858 0.66967 0.0
H294 H 0.20791 0.71662 0.69797 0.0
H295 H 0.20754 0.72254 0.63992 0.0
H296 H 0.23721 0.72341 0.66534 0.0
O297 O 0.29683 0.77284 0.7693 0.0
O298 O 0.31387 0.81787 0.76305 0.0
H299 H 0.2796 0.84289 0.65254 0.0
H300 H 0.24621 0.83157 0.6289 0.0
C301 C 0.25712 0.83178 0.65921 0.0
H302 H 0.25297 0.84316 0.68494 0.0
H303 H 0.3241 0.86333 0.70155 0.0
O304 O 0.24322 0.71687 0.75802 0.0
C305 C 0.31733 0.79722 0.76767 0.0
Co306 Co 0.47855 0.22862 0.28685 0.0
Co307 Co 0.45399 0.26817 0.28666 0.0
C308 C 0.44331 0.22785 0.35989 0.0
O309 O 0.45674 0.21809 0.34081 0.0
O310 O 0.44096 0.24752 0.34338 0.0
C311 C 0.51426 0.20997 0.30675 0.0
O312 O 0.5184 0.2273 0.33869 0.0
C313 C 0.41056 0.28335 0.2867 0.0
C314 C 0.43258 0.32489 0.25707 0.0
C315 C 0.40728 0.30541 0.27398 0.0
N316 N 0.43657 0.28962 0.27764 0.0
N317 N 0.44962 0.3145 0.26005 0.0
C318 C 0.38921 0.25616 0.30484 0.0
H319 H 0.39388 0.23978 0.29529 0.0
H320 H 0.36829 0.25075 0.29325 0.0
H321 H 0.38964 0.25743 0.34097 0.0
C322 C 0.45685 0.21769 0.19833 0.0
N323 N 0.45732 0.2274 0.23856 0.0
N324 N 0.44773 0.2446 0.23717 0.0
C325 C 0.44103 0.24646 0.19544 0.0
C326 C 0.44694 0.22974 0.16928 0.0
C327 C 0.47041 0.20127 0.18682 0.0
H328 H 0.46365 0.18381 0.20994 0.0
H329 H 0.46524 0.19315 0.15302 0.0
H330 H 0.49313 0.21458 0.18989 0.0
O331 O 0.51062 0.26648 0.29087 0.0
O332 O 0.49404 0.29511 0.29126 0.0
H333 H 0.45292 0.28868 0.18469 0.0
H334 H 0.42915 0.26529 0.14443 0.0
C335 C 0.43464 0.26795 0.17957 0.0
H336 H 0.41717 0.26666 0.19851 0.0
H337 H 0.47017 0.32436 0.24992 0.0
O338 O 0.49538 0.20498 0.27911 0.0
C339 C 0.51433 0.29083 0.29212 0.0
Co340 Co 0.24941 0.48166 0.78763 0.0
Co341 Co 0.18572 0.45737 0.79472 0.0
C342 C 0.21868 0.44878 0.86498 0.0
O343 O 0.24097 0.462 0.84355 0.0
O344 O 0.19593 0.44568 0.85047 0.0
C345 C 0.30329 0.51725 0.80473 0.0
O346 O 0.28998 0.52075 0.83714 0.0
C347 C 0.12772 0.41251 0.78431 0.0
C348 C 0.10577 0.43568 0.7949 0.0
C349 C 0.10161 0.40962 0.78595 0.0
N350 N 0.14645 0.43919 0.79173 0.0
N351 N 0.13313 0.45286 0.79805 0.0
C352 C 0.1347 0.39013 0.77901 0.0
H353 H 0.15685 0.39801 0.78628 0.0
H354 H 0.13029 0.38221 0.74509 0.0
H355 H 0.12159 0.37264 0.80097 0.0
C356 C 0.23495 0.45695 0.70149 0.0
N357 N 0.2273 0.45844 0.74242 0.0
N358 N 0.20073 0.45013 0.74318 0.0
C359 C 0.1909 0.44403 0.70195 0.0
C360 C 0.21226 0.44799 0.67416 0.0
C361 C 0.26443 0.46941 0.68757 0.0
H362 H 0.27572 0.4634 0.7108 0.0
H363 H 0.26598 0.46264 0.65417 0.0
H364 H 0.27425 0.49225 0.68803 0.0
O365 O 0.24358 0.51391 0.78888 0.0
O366 O 0.19864 0.49749 0.79674 0.0
H367 H 0.159 0.45459 0.70817 0.0
H368 H 0.16398 0.44625 0.65312 0.0
C369 C 0.16385 0.44107 0.68808 0.0
H370 H 0.1473 0.4194 0.69291 0.0
H371 H 0.14274 0.47395 0.80468 0.0
O372 O 0.28955 0.4985 0.77682 0.0
C373 C 0.22306 0.51768 0.79262 0.0
Co374 Co 0.74062 0.23973 0.27123 0.0
Co375 Co 0.72137 0.17761 0.25241 0.0
C376 C 0.74977 0.20402 0.33557 0.0
O377 O 0.75139 0.22655 0.32339 0.0
O378 O 0.739 0.18257 0.3114 0.0
C379 C 0.78092 0.2976 0.28463 0.0
O380 O 0.79914 0.28944 0.28839 0.0
C381 C 0.71311 0.12104 0.24111 0.0
C382 C 0.68848 0.10882 0.18033 0.0
C383 C 0.70021 0.09971 0.21108 0.0
N384 N 0.70942 0.14197 0.2282 0.0
N385 N 0.69448 0.13436 0.1921 0.0
C386 C 0.7292 0.12191 0.28063 0.0
H387 H 0.74837 0.14228 0.28274 0.0
H388 H 0.73451 0.10526 0.27985 0.0
H389 H 0.71671 0.11944 0.31015 0.0
C390 C 0.76454 0.2459 0.18279 0.0
N391 N 0.7519 0.23078 0.21849 0.0
N392 N 0.74558 0.20504 0.21178 0.0
C393 C 0.75513 0.20328 0.17217 0.0
C394 C 0.76706 0.22898 0.15212 0.0
C395 C 0.77098 0.27506 0.17639 0.0
H396 H 0.7555 0.27852 0.19343 0.0
H397 H 0.79163 0.28926 0.19035 0.0
H398 H 0.77109 0.27996 0.1413 0.0
O399 O 0.70056 0.22313 0.27216 0.0
O400 O 0.68635 0.17906 0.25867 0.0
H401 H 0.7345 0.16571 0.13568 0.0
H402 H 0.77142 0.18335 0.13155 0.0
C403 C 0.75396 0.17783 0.15421 0.0
H404 H 0.75483 0.16498 0.181 0.0
H405 H 0.68842 0.14673 0.1754 0.0
O406 O 0.75583 0.27993 0.27704 0.0
C407 C 0.68125 0.19841 0.26674 0.0
H408 H 0.39093 0.33242 0.21853 0.0
H409 H 0.37108 0.28977 0.34275 0.0
H410 H 0.33591 0.30321 0.3558 0.0
H411 H 0.38953 0.38918 0.25353 0.0
H412 H 0.37449 0.39454 0.20513 0.0
H413 H 0.39386 0.37693 0.20138 0.0
H414 H 0.35199 0.33496 0.16536 0.0
H415 H 0.33243 0.35254 0.16889 0.0
H416 H 0.319 0.31871 0.19248 0.0
H417 H 0.31026 0.32881 0.36205 0.0
H418 H 0.29467 0.36311 0.3594 0.0
H419 H 0.3293 0.38786 0.23009 0.0
C420 C 0.37852 0.32517 0.24781 0.0
C421 C 0.38328 0.30951 0.27915 0.0
C422 C 0.36716 0.30093 0.31758 0.0
C423 C 0.34721 0.30863 0.32538 0.0
C424 C 0.34345 0.32463 0.29422 0.0
C425 C 0.35841 0.3325 0.25588 0.0
C426 C 0.35258 0.35205 0.22983 0.0
C427 C 0.37919 0.3798 0.22205 0.0
C428 C 0.33813 0.33876 0.18657 0.0
C429 C 0.33318 0.35518 0.26061 0.0
C430 C 0.32789 0.33891 0.29735 0.0
C431 C 0.31346 0.34092 0.33287 0.0
C432 C 0.30472 0.36043 0.33116 0.0
C433 C 0.31016 0.37735 0.29406 0.0
C434 C 0.32397 0.37426 0.25799 0.0
H435 H 0.94163 0.33631 0.80731 0.0
H436 H 0.93597 0.29967 0.68052 0.0
H437 H 0.98524 0.31275 0.6857 0.0
H438 H 0.00178 0.39397 0.7897 0.0
H439 H 0.01529 0.39782 0.84426 0.0
H440 H 0.97868 0.37953 0.83548 0.0
H441 H 0.97457 0.33659 0.87476 0.0
H442 H 0.01134 0.35488 0.88396 0.0
H443 H 0.99515 0.32197 0.85651 0.0
H444 H 0.0371 0.33766 0.6993 0.0
H445 H 0.08525 0.37229 0.7186 0.0
H446 H 0.05619 0.39332 0.83519 0.0
C447 C 0.95051 0.33021 0.78123 0.0
C448 C 0.93494 0.31668 0.74379 0.0
C449 C 0.94733 0.30941 0.71001 0.0
C450 C 0.97535 0.31687 0.71267 0.0
C451 C 0.99046 0.33128 0.74948 0.0
C452 C 0.97824 0.33758 0.78336 0.0
C453 C 0.99924 0.35636 0.81656 0.0
C454 C 0.99871 0.38351 0.82174 0.0
C455 C 0.99481 0.34155 0.86055 0.0
C456 C 0.02547 0.36106 0.79498 0.0
C457 C 0.02012 0.3459 0.75693 0.0
C458 C 0.04146 0.34903 0.7296 0.0
C459 C 0.06878 0.36861 0.7409 0.0
C460 C 0.0743 0.38501 0.77878 0.0
C461 C 0.05244 0.38063 0.80648 0.0
H462 H 0.68197 0.06388 0.27946 0.0
H463 H 0.70637 0.07171 0.14396 0.0
H464 H 0.68996 0.02173 0.14084 0.0
H465 H 0.69397 0.00411 0.30874 0.0
H466 H 0.66351 0.98869 0.34244 0.0
H467 H 0.6838 0.02572 0.33747 0.0
H468 H 0.64018 0.02708 0.31279 0.0
H469 H 0.61989 0.99022 0.31722 0.0
H470 H 0.62084 0.00683 0.26635 0.0
H471 H 0.66307 0.97068 0.14799 0.0
H472 H 0.62694 0.92291 0.16416 0.0
H473 H 0.61919 0.94769 0.29493 0.0
C474 C 0.68515 0.05522 0.24993 0.0
C475 C 0.69606 0.07157 0.21228 0.0
C476 C 0.69851 0.05945 0.17332 0.0
C477 C 0.68934 0.03114 0.17134 0.0
C478 C 0.67766 0.01524 0.20859 0.0
C479 C 0.67569 0.02689 0.24731 0.0
C480 C 0.65834 0.00488 0.28035 0.0
C481 C 0.67596 0.00591 0.31957 0.0
C482 C 0.63334 0.00741 0.29498 0.0
C483 C 0.64955 0.97914 0.25336 0.0
C484 C 0.66152 0.98548 0.21249 0.0
C485 C 0.65423 0.96534 0.18034 0.0
C486 C 0.63377 0.93815 0.1899 0.0
C487 C 0.62071 0.93146 0.23114 0.0
C488 C 0.62922 0.95216 0.2634 0.0
H489 H 0.67096 0.6175 0.817 0.0
H490 H 0.70964 0.63202 0.68988 0.0
H491 H 0.69872 0.66877 0.6762 0.0
H492 H 0.6152 0.61972 0.78375 0.0
H493 H 0.61112 0.63654 0.83097 0.0
H494 H 0.62832 0.61687 0.83607 0.0
H495 H 0.67139 0.65946 0.86826 0.0
H496 H 0.65419 0.67934 0.86345 0.0
H497 H 0.68746 0.69153 0.83849 0.0
H498 H 0.67467 0.6955 0.66898 0.0
H499 H 0.64029 0.71093 0.66991 0.0
H500 H 0.6171 0.68005 0.80157 0.0
C501 C 0.6781 0.62922 0.78702 0.0
C502 C 0.6919 0.6224 0.75511 0.0
C503 C 0.70015 0.63754 0.71568 0.0
C504 C 0.69382 0.65842 0.70745 0.0
C505 C 0.67936 0.664 0.73903 0.0
C506 C 0.67188 0.65006 0.77834 0.0
C507 C 0.6531 0.65708 0.80414 0.0
C508 C 0.6253 0.63101 0.81427 0.0
C509 C 0.6674 0.6728 0.84607 0.0
C510 C 0.64969 0.6757 0.77197 0.0
C511 C 0.66549 0.67989 0.73498 0.0
C512 C 0.66296 0.69319 0.6983 0.0
C513 C 0.64337 0.70182 0.69903 0.0
C514 C 0.62675 0.69728 0.73623 0.0
C515 C 0.63046 0.68475 0.77351 0.0
H516 H 0.0494 0.66582 0.1675 0.0
H517 H 0.07219 0.70852 0.29131 0.0
H518 H 0.0237 0.69701 0.3028 0.0
H519 H 0.99165 0.6818 0.13964 0.0
H520 H 0.97156 0.6481 0.11542 0.0
H521 H 0.00872 0.66595 0.11229 0.0
H522 H 0.00865 0.62373 0.14727 0.0
H523 H 0.97175 0.60595 0.15092 0.0
H524 H 0.9921 0.61115 0.19934 0.0
H525 H 0.9717 0.67079 0.30847 0.0
H526 H 0.92249 0.63475 0.30619 0.0
H527 H 0.93399 0.61154 0.17643 0.0
C528 C 0.0443 0.67384 0.19596 0.0
C529 C 0.06429 0.68837 0.22819 0.0
C530 C 0.05709 0.69793 0.26582 0.0
C531 C 0.02962 0.69141 0.27257 0.0
C532 C 0.00993 0.67587 0.24089 0.0
C533 C 0.01717 0.6678 0.20276 0.0
C534 C 0.99203 0.64834 0.17639 0.0
C535 C 0.99093 0.66187 0.13339 0.0
C536 C 0.99109 0.62068 0.16806 0.0
C537 C 0.96944 0.64494 0.20708 0.0
C538 C 0.97998 0.66136 0.24374 0.0
C539 C 0.96312 0.65864 0.27919 0.0
C540 C 0.93506 0.63818 0.27754 0.0
C541 C 0.92426 0.62069 0.24073 0.0
C542 C 0.94157 0.62495 0.20467 0.0
H543 H 0.3224 0.94754 0.69202 0.0
H544 H 0.2966 0.92021 0.82479 0.0
H545 H 0.31124 0.96783 0.84653 0.0
H546 H 0.38254 0.00346 0.71834 0.0
H547 H 0.38291 0.02606 0.6761 0.0
H548 H 0.36394 0.98937 0.66811 0.0
H549 H 0.31939 0.99138 0.65309 0.0
H550 H 0.33834 0.02828 0.66083 0.0
H551 H 0.30774 0.00722 0.69252 0.0
H552 H 0.33772 0.0184 0.85755 0.0
H553 H 0.3729 0.06795 0.85624 0.0
H554 H 0.38178 0.06351 0.71671 0.0
C555 C 0.31882 0.95146 0.72529 0.0
C556 C 0.30754 0.92993 0.75634 0.0
C557 C 0.30401 0.93597 0.79989 0.0
C558 C 0.31252 0.96313 0.81267 0.0
C559 C 0.3244 0.98402 0.78153 0.0
C560 C 0.32728 0.97847 0.73854 0.0
C561 C 0.34412 0.00486 0.71284 0.0
C562 C 0.3699 0.00599 0.69271 0.0
C563 C 0.32633 0.00813 0.67774 0.0
C564 C 0.35174 0.02608 0.74869 0.0
C565 C 0.33971 0.01365 0.7879 0.0
C566 C 0.34652 0.02849 0.82684 0.0
C567 C 0.36654 0.05655 0.82585 0.0
C568 C 0.37936 0.06949 0.78622 0.0
C569 C 0.37137 0.05425 0.74705 0.0
H570 H 0.19419 0.45285 0.93924 0.0
H571 H 0.24841 0.42468 0.88991 0.0
H572 H 0.25719 0.41516 0.96523 0.0
H573 H 0.23674 0.49051 0.02295 0.0
H574 H 0.21001 0.48396 0.06186 0.0
H575 H 0.20291 0.48249 0.00446 0.0
H576 H 0.16192 0.43263 0.01302 0.0
H577 H 0.16883 0.43399 0.0707 0.0
H578 H 0.16757 0.40665 0.03789 0.0
H579 H 0.26457 0.41414 0.04595 0.0
H580 H 0.27272 0.42514 0.12462 0.0
H581 H 0.21604 0.45685 0.12097 0.0
C582 C 0.20698 0.4436 0.94435 0.0
C583 C 0.22014 0.43885 0.90893 0.0
C584 C 0.23783 0.42802 0.91674 0.0
C585 C 0.24285 0.42247 0.95936 0.0
C586 C 0.23025 0.42818 0.99385 0.0
C587 C 0.21272 0.43859 0.9868 0.0
C588 C 0.20509 0.44682 0.02934 0.0
C589 C 0.21425 0.47777 0.02965 0.0
C590 C 0.174 0.42895 0.03826 0.0
C591 C 0.2218 0.44034 0.06119 0.0
C592 C 0.2356 0.42892 0.04031 0.0
C593 C 0.25357 0.42273 0.06275 0.0
C594 C 0.25806 0.42901 0.10745 0.0
C595 C 0.24506 0.44188 0.12893 0.0
C596 C 0.22623 0.44693 0.10553 0.0
H597 H 0.72478 0.20871 0.40713 0.0
H598 H 0.79238 0.19734 0.36579 0.0
H599 H 0.80855 0.20251 0.44272 0.0
H600 H 0.76032 0.25982 0.48303 0.0
H601 H 0.73252 0.24796 0.52186 0.0
H602 H 0.72497 0.24028 0.46489 0.0
H603 H 0.69645 0.18803 0.48241 0.0
H604 H 0.70375 0.19556 0.53962 0.0
H605 H 0.71211 0.17192 0.51309 0.0
H606 H 0.82048 0.2158 0.52342 0.0
H607 H 0.82489 0.23188 0.59996 0.0
H608 H 0.74733 0.23124 0.58733 0.0
C609 C 0.74256 0.20658 0.41458 0.0
C610 C 0.75729 0.20241 0.38104 0.0
C611 C 0.7807 0.20014 0.39143 0.0
C612 C 0.79 0.20315 0.43491 0.0
C613 C 0.77529 0.20789 0.46736 0.0
C614 C 0.75173 0.20903 0.45761 0.0
C615 C 0.74016 0.21551 0.49754 0.0
C616 C 0.73947 0.24249 0.49145 0.0
C617 C 0.71141 0.19131 0.50883 0.0
C618 C 0.76133 0.21877 0.53124 0.0
C619 C 0.7815 0.21435 0.51346 0.0
C620 C 0.80444 0.21868 0.53784 0.0
C621 C 0.80683 0.22788 0.58124 0.0
C622 C 0.78626 0.23241 0.59992 0.0
C623 C 0.76309 0.22733 0.57451 0.0
H624 H 0.54287 0.81041 0.08469 0.0
H625 H 0.56233 0.75051 0.13824 0.0
H626 H 0.5727 0.74069 0.06402 0.0
H627 H 0.50543 0.76951 0.99776 0.0
H628 H 0.51544 0.79725 0.95924 0.0
H629 H 0.51528 0.80375 0.01661 0.0
H630 H 0.56662 0.84223 0.01248 0.0
H631 H 0.56692 0.83583 0.9549 0.0
H632 H 0.59182 0.83439 0.99055 0.0
H633 H 0.57702 0.73457 0.98348 0.0
H634 H 0.56952 0.72841 0.90386 0.0
H635 H 0.54312 0.78934 0.90284 0.0
C636 C 0.55027 0.79596 0.08077 0.0
C637 C 0.55255 0.7817 0.11704 0.0
C638 C 0.56097 0.76195 0.11076 0.0
C639 C 0.56698 0.75635 0.0688 0.0
C640 C 0.564 0.77035 0.03343 0.0
C641 C 0.55556 0.78957 0.03899 0.0
C642 C 0.55 0.79873 0.99548 0.0
C643 C 0.51975 0.79189 0.99209 0.0
C644 C 0.57004 0.82963 0.98792 0.0
C645 C 0.55592 0.78117 0.96464 0.0
C646 C 0.56472 0.76552 0.98704 0.0
C647 C 0.57036 0.7469 0.96559 0.0
C648 C 0.56613 0.7436 0.9203 0.0
C649 C 0.55572 0.75837 0.89711 0.0
C650 C 0.5512 0.77783 0.91961 0.0
H651 H 0.742 0.53422 0.40284 0.0
H652 H 0.83156 0.57841 0.39895 0.0
H653 H 0.83292 0.59109 0.47638 0.0
H654 H 0.73484 0.58156 0.48273 0.0
H655 H 0.70565 0.55287 0.50849 0.0
H656 H 0.71177 0.55164 0.45103 0.0
H657 H 0.71166 0.50569 0.46244 0.0
H658 H 0.70568 0.50681 0.51973 0.0
H659 H 0.735 0.50431 0.50164 0.0
H660 H 0.82456 0.5905 0.55684 0.0
H661 H 0.80685 0.57927 0.63253 0.0
H662 H 0.72304 0.53824 0.58374 0.0
C663 C 0.76194 0.54729 0.41782 0.0
C664 C 0.78667 0.5553 0.39471 0.0
C665 C 0.81231 0.57213 0.4158 0.0
C666 C 0.81329 0.57947 0.45983 0.0
C667 C 0.78849 0.57029 0.48213 0.0
C668 C 0.76327 0.55498 0.46158 0.0
C669 C 0.73964 0.54543 0.49362 0.0
C670 C 0.72194 0.55868 0.48335 0.0
C671 C 0.72198 0.51369 0.4944 0.0
C672 C 0.7555 0.55659 0.53579 0.0
C673 C 0.78368 0.57109 0.52848 0.0
C674 C 0.80257 0.5801 0.56289 0.0
C675 C 0.79241 0.5737 0.60569 0.0
C676 C 0.7637 0.55885 0.61359 0.0
C677 C 0.74507 0.55074 0.57833 0.0
H678 H 0.21401 0.7439 0.88995 0.0
H679 H 0.25936 0.83349 0.88568 0.0
H680 H 0.24894 0.83508 0.96321 0.0
H681 H 0.16005 0.73762 0.96876 0.0
H682 H 0.15888 0.70836 0.99552 0.0
H683 H 0.16687 0.71414 0.93819 0.0
H684 H 0.21231 0.71356 0.95162 0.0
H685 H 0.20452 0.70785 0.00884 0.0
H686 H 0.23671 0.73685 0.99119 0.0
H687 H 0.24058 0.82722 0.04325 0.0
H688 H 0.23167 0.81001 0.1193 0.0
H689 H 0.1888 0.72584 0.07184 0.0
C690 C 0.2212 0.76386 0.90501 0.0
C691 C 0.2375 0.78856 0.8815 0.0
C692 C 0.24671 0.81424 0.90271 0.0
C693 C 0.24088 0.81539 0.94686 0.0
C694 C 0.2254 0.79069 0.96934 0.0
C695 C 0.21529 0.76539 0.94903 0.0
C696 C 0.20063 0.74194 0.98133 0.0
C697 C 0.16977 0.72449 0.97028 0.0
C698 C 0.21437 0.72401 0.98336 0.0
C699 C 0.20507 0.75805 0.02323 0.0
C700 C 0.21935 0.78617 0.01554 0.0
C701 C 0.22866 0.80528 0.04959 0.0
C702 C 0.22354 0.79539 0.09259 0.0
C703 C 0.20886 0.76673 0.10105 0.0
C704 C 0.1991 0.74787 0.06597 0.0
H705 H 0.45937 0.24404 0.61392 0.0
H706 H 0.42154 0.15493 0.6214 0.0
H707 H 0.40769 0.15127 0.54408 0.0
H708 H 0.40827 0.24505 0.53477 0.0
H709 H 0.43502 0.2751 0.50758 0.0
H710 H 0.43773 0.27031 0.56516 0.0
H711 H 0.48557 0.2747 0.55276 0.0
H712 H 0.48301 0.27942 0.49535 0.0
H713 H 0.48875 0.25215 0.51412 0.0
H714 H 0.40636 0.15801 0.46357 0.0
H715 H 0.41518 0.17452 0.38725 0.0
H716 H 0.45096 0.25887 0.4324 0.0
C717 C 0.44751 0.22368 0.59968 0.0
C718 C 0.44157 0.19976 0.62375 0.0
C719 C 0.42619 0.17353 0.60376 0.0
C720 C 0.41821 0.17125 0.55982 0.0
C721 C 0.42523 0.19534 0.53661 0.0
C722 C 0.43913 0.22104 0.55608 0.0
C723 C 0.44635 0.24387 0.52319 0.0
C724 C 0.43091 0.2595 0.53328 0.0
C725 C 0.47777 0.26368 0.52125 0.0
C726 C 0.43564 0.22712 0.4817 0.0
C727 C 0.42329 0.19912 0.49019 0.0
C728 C 0.41512 0.17977 0.45662 0.0
C729 C 0.42021 0.18929 0.41343 0.0
C730 C 0.433 0.21783 0.40418 0.0
C731 C 0.44011 0.23687 0.4387 0.0
H732 H 0.78532 0.56959 0.09891 0.0
H733 H 0.74534 0.48135 0.12138 0.0
H734 H 0.73681 0.47287 0.0425 0.0
H735 H 0.74182 0.56777 0.01024 0.0
H736 H 0.76964 0.59485 0.97954 0.0
H737 H 0.7718 0.59424 0.03813 0.0
H738 H 0.81829 0.59483 0.03205 0.0
H739 H 0.8163 0.59551 0.97345 0.0
H740 H 0.82011 0.56882 0.99989 0.0
H741 H 0.73197 0.4736 0.96234 0.0
H742 H 0.7328 0.48355 0.88385 0.0
H743 H 0.77887 0.57138 0.91091 0.0
C744 C 0.77482 0.54854 0.08703 0.0
C745 C 0.76564 0.52607 0.11615 0.0
C746 C 0.752 0.49879 0.09964 0.0
C747 C 0.74722 0.49379 0.0549 0.0
C748 C 0.75649 0.51631 0.02701 0.0
C749 C 0.77018 0.54317 0.0422 0.0
C750 C 0.77863 0.56355 0.00473 0.0
C751 C 0.76463 0.58114 0.00839 0.0
C752 C 0.81021 0.58175 1.0024 0.0
C753 C 0.76743 0.54389 0.96627 0.0
C754 C 0.75462 0.51675 0.98008 0.0
C755 C 0.74217 0.49475 0.95102 0.0
C756 C 0.74288 0.50059 0.90654 0.0
C757 C 0.75623 0.52818 0.89144 0.0
C758 C 0.76861 0.55011 0.92172 0.0
H759 H 0.24995 0.7599 0.58249 0.0
H760 H 0.19586 0.79117 0.6188 0.0
H761 H 0.18167 0.78878 0.5415 0.0
H762 H 0.27358 0.79718 0.48325 0.0
H763 H 0.27483 0.76989 0.45397 0.0
H764 H 0.27938 0.77249 0.51227 0.0
H765 H 0.23912 0.72226 0.52115 0.0
H766 H 0.23461 0.7194 0.46283 0.0
H767 H 0.20592 0.7125 0.49764 0.0
H768 H 0.17453 0.78408 0.4597 0.0
H769 H 0.17513 0.77759 0.37976 0.0
H770 H 0.23431 0.74987 0.39734 0.0
C771 C 0.23482 0.76584 0.57407 0.0
C772 C 0.22381 0.77561 0.60623 0.0
C773 C 0.20441 0.78363 0.59431 0.0
C774 C 0.19627 0.78232 0.55063 0.0
C775 C 0.20781 0.77296 0.51943 0.0
C776 C 0.22663 0.7648 0.53063 0.0
C777 C 0.23664 0.75641 0.49076 0.0
C778 C 0.26796 0.77511 0.48472 0.0
C779 C 0.22858 0.72582 0.49325 0.0
C780 C 0.22069 0.76128 0.45533 0.0
C781 C 0.20405 0.77069 0.47249 0.0
C782 C 0.18746 0.7767 0.44594 0.0
C783 C 0.18791 0.77298 0.40071 0.0
C784 C 0.20496 0.76355 0.38259 0.0
C785 C 0.22144 0.75756 0.41034 0.0
H786 H 0.42164 0.2149 0.91113 0.0
H787 H 0.51038 0.25199 0.89833 0.0
H788 H 0.51573 0.25994 0.9777 0.0
H789 H 0.42158 0.25805 1.0018 0.0
H790 H 0.39258 0.22973 0.02857 0.0
H791 H 0.39572 0.22978 0.97006 0.0
H792 H 0.3927 0.18207 0.97354 0.0
H793 H 0.38959 0.18188 0.03199 0.0
H794 H 0.4166 0.17776 0.00753 0.0
H795 H 0.51168 0.26135 0.05773 0.0
H796 H 0.4983 0.2551 0.13537 0.0
H797 H 0.41194 0.2148 0.09858 0.0
C798 C 0.44215 0.2249 0.92517 0.0
C799 C 0.46566 0.23315 0.89871 0.0
C800 C 0.49219 0.24607 0.91801 0.0
C801 C 0.49542 0.25055 0.96304 0.0
C802 C 0.47186 0.2418 0.98837 0.0
C803 C 0.44571 0.22919 0.97033 0.0
C804 C 0.42381 0.22006 0.00553 0.0
C805 C 0.40746 0.23532 1.00122 0.0
C806 C 0.40455 0.18857 0.00458 0.0
C807 C 0.44176 0.22912 0.0461 0.0
C808 C 0.46943 0.24188 0.03522 0.0
C809 C 0.49011 0.25148 0.06672 0.0
C810 C 0.48234 0.24774 0.1106 0.0
C811 C 0.45417 0.23429 0.12256 0.0
C812 C 0.4336 0.22515 0.09 0.0
H813 H 0.20247 0.41839 0.41754 0.0
H814 H 0.2538 0.50697 0.40156 0.0
H815 H 0.25023 0.51355 0.48018 0.0
H816 H 0.15822 0.41935 0.5056 0.0
H817 H 0.15763 0.391 0.53449 0.0
H818 H 0.16122 0.39314 0.47598 0.0
H819 H 0.20619 0.39076 0.48228 0.0
H820 H 0.20272 0.38858 0.54073 0.0
H821 H 0.23394 0.41539 0.51622 0.0
H822 H 0.24409 0.51085 0.56003 0.0
H823 H 0.23712 0.49876 0.63825 0.0
H824 H 0.19183 0.41182 0.6051 0.0
C825 C 0.21277 0.43913 0.4307 0.0
C826 C 0.22813 0.46223 0.40347 0.0
C827 C 0.24139 0.48906 0.42172 0.0
C828 C 0.23959 0.493 0.46635 0.0
C829 C 0.22462 0.46986 0.49245 0.0
C830 C 0.2115 0.44342 0.47553 0.0
C831 C 0.19859 0.4221 0.51157 0.0
C832 C 0.16704 0.40541 0.5066 0.0
C833 C 0.21111 0.40309 0.51276 0.0
C834 C 0.20697 0.44074 0.55133 0.0
C835 C 0.22167 0.46822 0.53929 0.0
C836 C 0.23248 0.48944 0.56991 0.0
C837 C 0.22851 0.48242 0.61411 0.0
C838 C 0.21407 0.45446 0.62723 0.0
C839 C 0.2028 0.43334 0.59557 0.0
H840 H 0.75676 0.21115 0.89261 0.0
H841 H 0.83085 0.29148 0.88511 0.0
H842 H 0.83414 0.29338 0.9653 0.0
H843 H 0.72825 0.22796 0.98417 0.0
H844 H 0.71321 0.19413 0.00839 0.0
H845 H 0.71793 0.19805 0.95021 0.0
H846 H 0.74615 0.1728 0.95253 0.0
H847 H 0.74164 0.16897 0.0108 0.0
H848 H 0.77586 0.18557 0.9878 0.0
H849 H 0.82892 0.28721 0.04643 0.0
H850 H 0.81408 0.2742 0.12297 0.0
H851 H 0.74167 0.1996 0.07813 0.0
C852 C 0.77373 0.22903 0.90795 0.0
C853 C 0.79393 0.25087 0.88259 0.0
C854 C 0.81566 0.27409 0.90379 0.0
C855 C 0.81759 0.27547 0.94938 0.0
C856 C 0.79743 0.25359 0.97346 0.0
C857 C 0.77578 0.23089 0.95356 0.0
C858 C 0.75604 0.21092 0.98716 0.0
C859 C 0.72715 0.20758 0.98218 0.0
C860 C 0.75486 0.18291 0.98439 0.0
C861 C 0.76994 0.22601 0.02892 0.0
C862 C 0.79391 0.25047 0.0203 0.0
C863 C 0.81017 0.26811 0.05361 0.0
C864 C 0.80156 0.26064 0.0969 0.0
C865 C 0.77683 0.2359 0.10644 0.0
C866 C 0.76095 0.21837 0.07191 0.0
H867 H 0.54696 0.74371 0.59407 0.0
H868 H 0.54723 0.81769 0.637 0.0
H869 H 0.54932 0.83208 0.56012 0.0
H870 H 0.59506 0.7762 0.50227 0.0
H871 H 0.57715 0.74603 0.46824 0.0
H872 H 0.57705 0.74238 0.52666 0.0
H873 H 0.52358 0.71501 0.52599 0.0
H874 H 0.52349 0.71881 0.46769 0.0
H875 H 0.50501 0.73034 0.50183 0.0
H876 H 0.54709 0.8361 0.47915 0.0
H877 H 0.54368 0.8313 0.39926 0.0
H878 H 0.54883 0.75662 0.40826 0.0
C879 C 0.5482 0.76328 0.58734 0.0
C880 C 0.54706 0.77971 0.6214 0.0
C881 C 0.54793 0.80479 0.61126 0.0
C882 C 0.54921 0.81314 0.56779 0.0
C883 C 0.54993 0.79629 0.53493 0.0
C884 C 0.54977 0.77204 0.54415 0.0
C885 C 0.54999 0.75736 0.5027 0.0
C886 C 0.57639 0.75539 0.4998 0.0
C887 C 0.52397 0.72869 0.49938 0.0
C888 C 0.54982 0.77691 0.46868 0.0
C889 C 0.54973 0.79919 0.48805 0.0
C890 C 0.54785 0.81913 0.46358 0.0
C891 C 0.54617 0.81634 0.41813 0.0
C892 C 0.54676 0.794 0.39742 0.0
C893 C 0.54864 0.77407 0.42318 0.0
H894 H 0.27892 0.59842 0.20251 0.0
H895 H 0.19893 0.52679 0.22964 0.0
H896 H 0.17779 0.55642 0.2293 0.0
H897 H 0.27059 0.64493 0.27131 0.0
H898 H 0.28858 0.67413 0.23545 0.0
H899 H 0.2971 0.64708 0.23542 0.0
H900 H 0.28773 0.64042 0.15229 0.0
H901 H 0.27924 0.66752 0.15216 0.0
H902 H 0.25487 0.63383 0.13126 0.0
H903 H 0.16554 0.59394 0.22696 0.0
H904 H 0.16334 0.63694 0.22597 0.0
H905 H 0.2517 0.68406 0.20255 0.0
C906 C 0.2569 0.58889 0.20795 0.0
C907 C 0.24051 0.56026 0.21579 0.0
C908 C 0.21186 0.54867 0.22344 0.0
C909 C 0.19966 0.56531 0.22322 0.0
C910 C 0.21644 0.59348 0.21556 0.0
C911 C 0.24446 0.60522 0.20826 0.0
C912 C 0.2581 0.63619 0.20263 0.0
C913 C 0.27987 0.65147 0.23834 0.0
C914 C 0.27072 0.64499 0.15686 0.0
C915 C 0.23336 0.64005 0.20818 0.0
C916 C 0.2095 0.61517 0.21522 0.0
C917 C 0.18408 0.61356 0.22143 0.0
C918 C 0.18304 0.63809 0.22075 0.0
C919 C 0.20734 0.66388 0.21427 0.0
C920 C 0.23275 0.66471 0.20769 0.0
H921 H 0.67993 0.24824 0.72569 0.0
H922 H 0.65743 0.16193 0.7316 0.0
H923 H 0.60809 0.14866 0.73534 0.0
H924 H 0.62819 0.24408 0.79959 0.0
H925 H 0.62242 0.26833 0.76919 0.0
H926 H 0.65573 0.27073 0.76786 0.0
H927 H 0.65336 0.26778 0.68347 0.0
H928 H 0.62001 0.26529 0.68454 0.0
H929 H 0.62426 0.23904 0.65749 0.0
H930 H 0.56098 0.14515 0.73831 0.0
H931 H 0.52035 0.1516 0.73956 0.0
H932 H 0.57461 0.2403 0.73023 0.0
C933 C 0.66471 0.22651 0.72796 0.0
C934 C 0.67257 0.2061 0.72845 0.0
C935 C 0.65191 0.17793 0.73121 0.0
C936 C 0.62384 0.1702 0.73335 0.0
C937 C 0.61686 0.19091 0.73256 0.0
C938 C 0.63675 0.21848 0.72989 0.0
C939 C 0.62401 0.23679 0.72895 0.0
C940 C 0.63313 0.25611 0.76877 0.0
C941 C 0.63081 0.25318 0.68606 0.0
C942 C 0.59375 0.21523 0.73146 0.0
C943 C 0.58997 0.18889 0.73367 0.0
C944 C 0.56372 0.1657 0.73653 0.0
C945 C 0.54077 0.16958 0.73722 0.0
C946 C 0.54423 0.19645 0.73485 0.0
C947 C 0.57116 0.21947 0.73186 0.0
H948 H 0.43154 0.67719 0.24495 0.0
H949 H 0.49489 0.65408 0.25228 0.0
H950 H 0.45858 0.60483 0.2554 0.0
H951 H 0.38269 0.62482 0.31756 0.0
H952 H 0.35319 0.61956 0.28612 0.0
H953 H 0.38422 0.65279 0.28613 0.0
H954 H 0.38598 0.65132 0.20178 0.0
H955 H 0.35503 0.61805 0.20153 0.0
H956 H 0.38585 0.62242 0.17551 0.0
H957 H 0.41485 0.55789 0.25658 0.0
H958 H 0.36772 0.51742 0.255 0.0
H959 H 0.33381 0.57215 0.24541 0.0
C960 C 0.43789 0.66186 0.24755 0.0
C961 C 0.4661 0.66952 0.24851 0.0
C962 C 0.47341 0.64871 0.25156 0.0
C963 C 0.45294 0.6207 0.25336 0.0
C964 C 0.42532 0.61391 0.25196 0.0
C965 C 0.41783 0.63395 0.2491 0.0
C966 C 0.38681 0.62138 0.24702 0.0
C967 C 0.37611 0.63016 0.28657 0.0
C968 C 0.37791 0.62873 0.20389 0.0
C969 C 0.37793 0.59106 0.24896 0.0
C970 C 0.40037 0.58711 0.252 0.0
C971 C 0.39715 0.56077 0.25422 0.0
C972 C 0.37029 0.53791 0.25329 0.0
C973 C 0.34701 0.54155 0.24994 0.0
C974 C 0.35109 0.56857 0.24779 0.0
H975 H 0.75882 0.33255 0.71783 0.0
H976 H 0.84465 0.36488 0.68205 0.0
H977 H 0.85095 0.41186 0.67776 0.0
H978 H 0.7457 0.37692 0.64925 0.0
H979 H 0.72394 0.38051 0.68891 0.0
H980 H 0.72627 0.34956 0.68766 0.0
H981 H 0.74067 0.35657 0.76912 0.0
H982 H 0.73852 0.38762 0.77056 0.0
H983 H 0.77007 0.38864 0.78634 0.0
H984 H 0.84751 0.45554 0.67753 0.0
H985 H 0.83478 0.49197 0.68252 0.0
H986 H 0.75175 0.43028 0.72078 0.0
C987 C 0.77893 0.34941 0.70871 0.0
C988 C 0.8012 0.34499 0.7 0.0
C989 C 0.82725 0.36775 0.68874 0.0
C990 C 0.83102 0.3945 0.68623 0.0
C991 C 0.80861 0.39811 0.69534 0.0
C992 C 0.7831 0.37615 0.70644 0.0
C993 C 0.76247 0.38544 0.71577 0.0
C994 C 0.73817 0.37233 0.68346 0.0
C995 C 0.75235 0.3792 0.76327 0.0
C996 C 0.78031 0.41611 0.70811 0.0
C997 C 0.80683 0.42309 0.69618 0.0
C998 C 0.82682 0.4503 0.68695 0.0
C999 C 0.81941 0.47084 0.68987 0.0
C1000 C 0.79233 0.46401 0.7022 0.0
C1001 C 0.77269 0.43626 0.71155 0.0
H1002 H 0.3198 0.73916 0.18048 0.0
H1003 H 0.33083 0.81422 0.2406 0.0
H1004 H 0.38092 0.8311 0.24854 0.0
H1005 H 0.36597 0.73124 0.25077 0.0
H1006 H 0.37827 0.71751 0.20881 0.0
H1007 H 0.34392 0.71247 0.20552 0.0
H1008 H 0.35468 0.73483 0.12877 0.0
H1009 H 0.38912 0.74003 0.1318 0.0
H1010 H 0.38403 0.7689 0.12148 0.0
H1011 H 0.43003 0.83968 0.24863 0.0
H1012 H 0.47309 0.8374 0.24792 0.0
H1013 H 0.42841 0.75523 0.19188 0.0
C1014 C 0.33279 0.75931 0.19489 0.0
C1015 C 0.32164 0.77562 0.20942 0.0
C1016 C 0.33912 0.80153 0.22909 0.0
C1017 C 0.36753 0.81127 0.23356 0.0
C1018 C 0.37789 0.79464 0.21873 0.0
C1019 C 0.36094 0.76905 0.2003 0.0
C1020 C 0.3767 0.7544 0.18927 0.0
C1021 C 0.36556 0.72731 0.21515 0.0
C1022 C 0.3761 0.74925 0.1399 0.0
C1023 C 0.40526 0.77572 0.20439 0.0
C1024 C 0.40567 0.79897 0.22069 0.0
C1025 C 0.42992 0.82154 0.23608 0.0
C1026 C 0.45427 0.82011 0.23536 0.0
C1027 C 0.45403 0.7961 0.22 0.0
C1028 C 0.42919 0.77379 0.20406 0.0
H1029 H 0.66851 0.42565 0.72285 0.0
H1030 H 0.63368 0.47895 0.70317 0.0
H1031 H 0.58708 0.4379 0.69759 0.0
H1032 H 0.62314 0.37096 0.65003 0.0
H1033 H 0.62087 0.34403 0.68507 0.0
H1034 H 0.65147 0.3776 0.68568 0.0
H1035 H 0.64619 0.38096 0.76906 0.0
H1036 H 0.61557 0.34744 0.76871 0.0
H1037 H 0.61427 0.37671 0.79043 0.0
H1038 H 0.5441 0.39061 0.69418 0.0
H1039 H 0.50825 0.34117 0.69634 0.0
H1040 H 0.57164 0.31968 0.72108 0.0
C1041 C 0.65114 0.42874 0.71696 0.0
C1042 C 0.65477 0.45551 0.71314 0.0
C1043 C 0.63141 0.45862 0.70613 0.0
C1044 C 0.60487 0.43544 0.70284 0.0
C1045 C 0.60204 0.40933 0.70697 0.0
C1046 C 0.62455 0.40591 0.7141 0.0
C1047 C 0.61594 0.37575 0.71898 0.0
C1048 C 0.62861 0.36655 0.68277 0.0
C1049 C 0.62343 0.36988 0.7645 0.0
C1050 C 0.58504 0.36272 0.71346 0.0
C1051 C 0.57738 0.38235 0.70624 0.0
C1052 C 0.54986 0.37506 0.69989 0.0
C1053 C 0.52966 0.34696 0.70111 0.0
C1054 C 0.53712 0.3266 0.70905 0.0
C1055 C 0.56521 0.33474 0.71521 0.0
H1056 H 0.33241 0.75762 0.77123 0.0
H1057 H 0.36627 0.84642 0.77322 0.0
H1058 H 0.41322 0.85309 0.78112 0.0
H1059 H 0.37825 0.75515 0.85036 0.0
H1060 H 0.38076 0.72806 0.82267 0.0
H1061 H 0.34995 0.73045 0.81734 0.0
H1062 H 0.35497 0.73227 0.73319 0.0
H1063 H 0.38574 0.72981 0.73825 0.0
H1064 H 0.38675 0.75815 0.70869 0.0
H1065 H 0.45669 0.84977 0.78945 0.0
H1066 H 0.49284 0.83671 0.79507 0.0
H1067 H 0.42978 0.75024 0.7867 0.0
C1068 C 0.34964 0.77851 0.77335 0.0
C1069 C 0.3456 0.80149 0.7717 0.0
C1070 C 0.36882 0.82847 0.77439 0.0
C1071 C 0.39556 0.83247 0.77896 0.0
C1072 C 0.39874 0.80931 0.78065 0.0
C1073 C 0.37638 0.78287 0.77774 0.0
C1074 C 0.38524 0.76141 0.77984 0.0
C1075 C 0.37281 0.74267 0.81994 0.0
C1076 C 0.37773 0.74442 0.73747 0.0
C1077 C 0.41611 0.77987 0.78444 0.0
C1078 C 0.42357 0.80743 0.78499 0.0
C1079 C 0.45107 0.82824 0.78902 0.0
C1080 C 0.47145 0.82063 0.79227 0.0
C1081 C 0.46417 0.79248 0.79131 0.0
C1082 C 0.43609 0.77196 0.7875 0.0
H1083 H 0.53313 0.34459 0.31833 0.0
H1084 H 0.56008 0.29024 0.26405 0.0
H1085 H 0.60755 0.3293 0.25904 0.0
H1086 H 0.57731 0.40483 0.25508 0.0
H1087 H 0.5849 0.42886 0.29924 0.0
H1088 H 0.55259 0.39678 0.29828 0.0
H1089 H 0.56281 0.38462 0.37502 0.0
H1090 H 0.59508 0.41674 0.37634 0.0
H1091 H 0.59462 0.38459 0.3844 0.0
H1092 H 0.65115 0.37364 0.25669 0.0
H1093 H 0.69046 0.42058 0.26406 0.0
H1094 H 0.63715 0.44703 0.32416 0.0
C1095 C 0.54906 0.34098 0.30544 0.0
C1096 C 0.54288 0.31438 0.29141 0.0
C1097 C 0.56432 0.31038 0.27514 0.0
C1098 C 0.59134 0.33246 0.27195 0.0
C1099 C 0.59672 0.35838 0.28572 0.0
C1100 C 0.57639 0.36278 0.30276 0.0
C1101 C 0.58824 0.39268 0.31661 0.0
C1102 C 0.57497 0.4066 0.29075 0.0
C1103 C 0.58499 0.39477 0.36603 0.0
C1104 C 0.61831 0.40435 0.30418 0.0
C1105 C 0.62252 0.38413 0.28604 0.0
C1106 C 0.64822 0.38965 0.27112 0.0
C1107 C 0.67042 0.4165 0.27534 0.0
C1108 C 0.66698 0.43758 0.29485 0.0
C1109 C 0.64047 0.43138 0.30929 0.0
H1110 H 0.1974 0.54249 0.83448 0.0
H1111 H 0.25884 0.55612 0.73646 0.0
H1112 H 0.26535 0.60231 0.72151 0.0
H1113 H 0.16739 0.579 0.78185 0.0
H1114 H 0.16388 0.59439 0.83131 0.0
H1115 H 0.1628 0.56167 0.83334 0.0
H1116 H 0.20276 0.58145 0.88956 0.0
H1117 H 0.2038 0.61414 0.88798 0.0
H1118 H 0.23457 0.6125 0.87671 0.0
H1119 H 0.26401 0.64574 0.71474 0.0
H1120 H 0.26035 0.68745 0.72386 0.0
H1121 H 0.20292 0.64844 0.83095 0.0
C1122 C 0.21218 0.55529 0.80991 0.0
C1123 C 0.22756 0.54579 0.78642 0.0
C1124 C 0.24698 0.56312 0.75492 0.0
C1125 C 0.25068 0.58928 0.74597 0.0
C1126 C 0.23516 0.59804 0.76941 0.0
C1127 C 0.21673 0.58191 0.80139 0.0
C1128 C 0.20414 0.59726 0.82367 0.0
C1129 C 0.17268 0.58218 0.81713 0.0
C1130 C 0.21178 0.6016 0.87236 0.0
C1131 C 0.21821 0.62437 0.79887 0.0
C1132 C 0.23564 0.62407 0.76727 0.0
C1133 C 0.2506 0.64636 0.73957 0.0
C1134 C 0.24824 0.66993 0.74492 0.0
C1135 C 0.23142 0.6713 0.77824 0.0
C1136 C 0.216 0.64804 0.80528 0.0
H1137 H 0.56574 0.23197 0.341 0.0
H1138 H 0.50825 0.1671 0.2548 0.0
H1139 H 0.5438 0.15411 0.23912 0.0
H1140 H 0.62308 0.25381 0.27357 0.0
H1141 H 0.64739 0.26222 0.3176 0.0
H1142 H 0.61638 0.26377 0.32604 0.0
H1143 H 0.60331 0.23001 0.3913 0.0
H1144 H 0.63439 0.22844 0.38317 0.0
H1145 H 0.60135 0.19713 0.38356 0.0
H1146 H 0.58717 0.1498 0.23117 0.0
H1147 H 0.63463 0.15688 0.22746 0.0
H1148 H 0.66309 0.2267 0.31522 0.0
C1149 C 0.56032 0.21459 0.31958 0.0
C1150 C 0.53411 0.20023 0.29963 0.0
C1151 C 0.52817 0.17818 0.27076 0.0
C1152 C 0.5482 0.17065 0.26176 0.0
C1153 C 0.57405 0.1856 0.28158 0.0
C1154 C 0.5801 0.20722 0.30971 0.0
C1155 C 0.60996 0.22174 0.32388 0.0
C1156 C 0.62508 0.25217 0.30939 0.0
C1157 C 0.61238 0.21916 0.37342 0.0
C1158 C 0.61999 0.20515 0.29903 0.0
C1159 C 0.599 0.18407 0.27535 0.0
C1160 C 0.60372 0.16624 0.24965 0.0
C1161 C 0.63066 0.17035 0.24778 0.0
C1162 C 0.65248 0.19244 0.27079 0.0
C1163 C 0.64686 0.20978 0.29697 0.0
H1164 H 0.43584 0.66561 0.82208 0.0
H1165 H 0.47895 0.63774 0.73708 0.0
H1166 H 0.43785 0.59077 0.73644 0.0
H1167 H 0.40068 0.6028 0.8865 0.0
H1168 H 0.36993 0.60529 0.89211 0.0
H1169 H 0.40304 0.63614 0.88648 0.0
H1170 H 0.3848 0.65088 0.81986 0.0
H1171 H 0.35168 0.62009 0.82525 0.0
H1172 H 0.37008 0.62762 0.77429 0.0
H1173 H 0.38981 0.5477 0.74055 0.0
H1174 H 0.34094 0.512 0.75364 0.0
H1175 H 0.33187 0.56854 0.83959 0.0
C1176 C 0.43673 0.64961 0.80348 0.0
C1177 C 0.46045 0.65528 0.7794 0.0
C1178 C 0.46093 0.63374 0.75583 0.0
C1179 C 0.43769 0.60707 0.75521 0.0
C1180 C 0.41445 0.60228 0.77898 0.0
C1181 C 0.41404 0.62294 0.80314 0.0
C1182 C 0.38671 0.61278 0.82584 0.0
C1183 C 0.39032 0.61434 0.87569 0.0
C1184 C 0.37249 0.62879 0.81036 0.0
C1185 C 0.37151 0.58326 0.81013 0.0
C1186 C 0.38766 0.57748 0.78292 0.0
C1187 C 0.37716 0.55188 0.7624 0.0
C1188 C 0.34944 0.53177 0.76992 0.0
C1189 C 0.33281 0.53739 0.79811 0.0
C1190 C 0.34421 0.56339 0.8186 0.0
H1191 H 0.74707 0.31965 0.2869 0.0
H1192 H 0.83343 0.34224 0.29096 0.0
H1193 H 0.8467 0.39154 0.29578 0.0
H1194 H 0.75522 0.37522 0.22075 0.0
H1195 H 0.72927 0.37933 0.24903 0.0
H1196 H 0.7269 0.34605 0.24723 0.0
H1197 H 0.72506 0.34374 0.33169 0.0
H1198 H 0.72749 0.37706 0.33373 0.0
H1199 H 0.75214 0.37129 0.36294 0.0
H1200 H 0.85024 0.4387 0.29693 0.0
H1201 H 0.84371 0.47931 0.29543 0.0
H1202 H 0.75488 0.42469 0.29238 0.0
C1203 C 0.76881 0.3349 0.28895 0.0
C1204 C 0.78924 0.3271 0.2885 0.0
C1205 C 0.81743 0.34775 0.29133 0.0
C1206 C 0.82515 0.37578 0.29407 0.0
C1207 C 0.80441 0.38271 0.29427 0.0
C1208 C 0.77682 0.3628 0.29195 0.0
C1209 C 0.75846 0.37547 0.29212 0.0
C1210 C 0.74147 0.36861 0.24976 0.0
C1211 C 0.73969 0.36635 0.33253 0.0
C1212 C 0.78002 0.40571 0.29444 0.0
C1213 C 0.80642 0.40957 0.29566 0.0
C1214 C 0.82964 0.43589 0.29634 0.0
C1215 C 0.82573 0.45883 0.29546 0.0
C1216 C 0.79879 0.45522 0.29407 0.0
C1217 C 0.77575 0.42824 0.29393 0.0
loop_
_geom_bond_atom_site_label_1
_geom_bond_atom_site_label_2
_geom_bond_distance
_geom_bond_site_symmetry_2
_ccdc_geom_bond_type
Co0 O3 1.970 . S
Co0 N17 1.989 . S
Co0 O25 1.967 . S
Co0 O32 1.920 . S
Co1 O4 1.966 . S
Co1 N10 2.022 . S
Co1 N18 1.993 . S
Co1 O26 1.941 . S
C2 O3 1.258 . S
C2 O4 1.263 . S
O3 Co0 1.970 . S
O3 C2 1.258 . S
O4 Co1 1.966 . S
O4 C2 1.263 . S
C5 O6 1.235 . S
C5 O32 1.289 . S
O6 C5 1.235 . S
C7 C9 1.400 . S
C7 N10 1.351 . S
C7 C12 1.501 . S
C8 C9 1.387 . S
C8 N11 1.341 . S
C9 C7 1.400 . S
C9 C8 1.387 . S
N10 Co1 2.022 . S
N10 C7 1.351 . S
N10 N11 1.365 . S
N11 C8 1.341 . S
N11 N10 1.365 . S
N11 H31 0.862 . S
C12 C7 1.501 . S
C12 H13 0.961 . S
C12 H14 0.961 . S
C12 H15 0.960 . S
H13 C12 0.961 . S
H14 C12 0.961 . S
H15 C12 0.960 . S
C16 N17 1.342 . S
C16 C20 1.401 . S
C16 C21 1.499 . S
N17 Co0 1.989 . S
N17 C16 1.342 . S
N17 N18 1.388 . S
N18 Co1 1.993 . S
N18 N17 1.388 . S
N18 C19 1.346 . S
C19 N18 1.346 . S
C19 C20 1.396 . S
C19 C29 1.510 . S
C20 C16 1.401 . S
C20 C19 1.396 . S
C21 C16 1.499 . S
C21 H22 0.959 . S
C21 H23 0.960 . S
C21 H24 0.961 . S
H22 C21 0.959 . S
H23 C21 0.960 . S
H24 C21 0.961 . S
O25 Co0 1.967 . S
O25 C33 1.258 . S
O26 Co1 1.941 . S
O26 C33 1.266 . S
H27 C29 0.959 . S
H28 C29 0.961 . S
C29 C19 1.510 . S
C29 H27 0.959 . S
C29 H28 0.961 . S
C29 H30 0.960 . S
H30 C29 0.960 . S
H31 N11 0.862 . S
O32 Co0 1.920 . S
O32 C5 1.289 . S
C33 O25 1.258 . S
C33 O26 1.266 . S
Co34 O37 1.970 . S
Co34 N51 1.989 . S
Co34 O59 1.967 . S
Co34 O66 1.920 . S
Co35 O38 1.966 . S
Co35 N44 2.022 . S
Co35 N52 1.993 . S
Co35 O60 1.941 . S
C36 O37 1.258 . S
C36 O38 1.263 . S
O37 Co34 1.970 . S
O37 C36 1.258 . S
O38 Co35 1.966 . S
O38 C36 1.263 . S
C39 O40 1.235 . S
C39 O66 1.289 . S
O40 C39 1.235 . S
C41 C43 1.400 . S
C41 N44 1.351 . S
C41 C46 1.501 . S
C42 C43 1.387 . S
C42 N45 1.341 . S
C43 C41 1.400 . S
C43 C42 1.387 . S
N44 Co35 2.022 . S
N44 C41 1.351 . S
N44 N45 1.365 . S
N45 C42 1.341 . S
N45 N44 1.365 . S
N45 H65 0.862 . S
C46 C41 1.501 . S
C46 H47 0.961 . S
C46 H48 0.961 . S
C46 H49 0.960 . S
H47 C46 0.961 . S
H48 C46 0.961 . S
H49 C46 0.960 . S
C50 N51 1.342 . S
C50 C54 1.401 . S
C50 C55 1.499 . S
N51 Co34 1.989 . S
N51 C50 1.342 . S
N51 N52 1.388 . S
N52 Co35 1.993 . S
N52 N51 1.388 . S
N52 C53 1.346 . S
C53 N52 1.346 . S
C53 C54 1.396 . S
C53 C63 1.510 . S
C54 C50 1.401 . S
C54 C53 1.396 . S
C55 C50 1.499 . S
C55 H56 0.959 . S
C55 H57 0.960 . S
C55 H58 0.961 . S
H56 C55 0.959 . S
H57 C55 0.960 . S
H58 C55 0.961 . S
O59 Co34 1.967 . S
O59 C67 1.258 . S
O60 Co35 1.941 . S
O60 C67 1.266 . S
H61 C63 0.959 . S
H62 C63 0.961 . S
C63 C53 1.510 . S
C63 H61 0.959 . S
C63 H62 0.961 . S
C63 H64 0.960 . S
H64 C63 0.960 . S
H65 N45 0.862 . S
O66 Co34 1.920 . S
O66 C39 1.289 . S
C67 O59 1.258 . S
C67 O60 1.266 . S
Co68 O71 1.970 . S
Co68 N85 1.989 . S
Co68 O93 1.967 . S
Co68 O100 1.920 . S
Co69 O72 1.966 . S
Co69 N78 2.022 . S
Co69 N86 1.993 . S
Co69 O94 1.941 . S
C70 O71 1.258 . S
C70 O72 1.263 . S
O71 Co68 1.970 . S
O71 C70 1.258 . S
O72 Co69 1.966 . S
O72 C70 1.263 . S
C73 O74 1.235 . S
C73 O100 1.289 . S
O74 C73 1.235 . S
C75 C77 1.400 . S
C75 N78 1.351 . S
C75 C80 1.501 . S
C76 C77 1.387 . S
C76 N79 1.341 . S
C77 C75 1.400 . S
C77 C76 1.387 . S
N78 Co69 2.022 . S
N78 C75 1.351 . S
N78 N79 1.365 . S
N79 C76 1.341 . S
N79 N78 1.365 . S
N79 H99 0.862 . S
C80 C75 1.501 . S
C80 H81 0.961 . S
C80 H82 0.961 . S
C80 H83 0.960 . S
H81 C80 0.961 . S
H82 C80 0.961 . S
H83 C80 0.960 . S
C84 N85 1.342 . S
C84 C88 1.401 . S
C84 C89 1.499 . S
N85 Co68 1.989 . S
N85 C84 1.342 . S
N85 N86 1.388 . S
N86 Co69 1.993 . S
N86 N85 1.388 . S
N86 C87 1.346 . S
C87 N86 1.346 . S
C87 C88 1.396 . S
C87 C97 1.510 . S
C88 C84 1.401 . S
C88 C87 1.396 . S
C89 C84 1.499 . S
C89 H90 0.959 . S
C89 H91 0.960 . S
C89 H92 0.961 . S
H90 C89 0.959 . S
H91 C89 0.960 . S
H92 C89 0.961 . S
O93 Co68 1.967 . S
O93 C101 1.258 . S
O94 Co69 1.941 . S
O94 C101 1.266 . S
H95 C97 0.959 . S
H96 C97 0.961 . S
C97 C87 1.510 . S
C97 H95 0.959 . S
C97 H96 0.961 . S
C97 H98 0.960 . S
H98 C97 0.960 . S
H99 N79 0.862 . S
O100 Co68 1.920 . S
O100 C73 1.289 . S
C101 O93 1.258 . S
C101 O94 1.266 . S
Co102 O105 1.970 . S
Co102 N119 1.989 . S
Co102 O127 1.967 . S
Co102 O134 1.920 . S
Co103 O106 1.966 . S
Co103 N112 2.022 . S
Co103 N120 1.993 . S
Co103 O128 1.941 . S
C104 O105 1.258 . S
C104 O106 1.263 . S
O105 Co102 1.970 . S
O105 C104 1.258 . S
O106 Co103 1.966 . S
O106 C104 1.263 . S
C107 O108 1.235 . S
C107 O134 1.289 . S
O108 C107 1.235 . S
C109 C111 1.400 . S
C109 N112 1.351 . S
C109 C114 1.501 . S
C110 C111 1.387 . S
C110 N113 1.341 . S
C111 C109 1.400 . S
C111 C110 1.387 . S
N112 Co103 2.022 . S
N112 C109 1.351 . S
N112 N113 1.365 . S
N113 C110 1.341 . S
N113 N112 1.365 . S
N113 H133 0.862 . S
C114 C109 1.501 . S
C114 H115 0.961 . S
C114 H116 0.961 . S
C114 H117 0.960 . S
H115 C114 0.961 . S
H116 C114 0.961 . S
H117 C114 0.960 . S
C118 N119 1.342 . S
C118 C122 1.401 . S
C118 C123 1.499 . S
N119 Co102 1.989 . S
N119 C118 1.342 . S
N119 N120 1.388 . S
N120 Co103 1.993 . S
N120 N119 1.388 . S
N120 C121 1.346 . S
C121 N120 1.346 . S
C121 C122 1.396 . S
C121 C131 1.510 . S
C122 C118 1.401 . S
C122 C121 1.396 . S
C123 C118 1.499 . S
C123 H124 0.959 . S
C123 H125 0.960 . S
C123 H126 0.961 . S
H124 C123 0.959 . S
H125 C123 0.960 . S
H126 C123 0.961 . S
O127 Co102 1.967 . S
O127 C135 1.258 . S
O128 Co103 1.941 . S
O128 C135 1.266 . S
H129 C131 0.959 . S
H130 C131 0.961 . S
C131 C121 1.510 . S
C131 H129 0.959 . S
C131 H130 0.961 . S
C131 H132 0.960 . S
H132 C131 0.960 . S
H133 N113 0.862 . S
O134 Co102 1.920 . S
O134 C107 1.289 . S
C135 O127 1.258 . S
C135 O128 1.266 . S
Co136 O139 1.970 . S
Co136 N153 1.989 . S
Co136 O161 1.967 . S
Co136 O168 1.920 . S
Co137 O140 1.966 . S
Co137 N146 2.022 . S
Co137 N154 1.993 . S
Co137 O162 1.941 . S
C138 O139 1.258 . S
C138 O140 1.263 . S
O139 Co136 1.970 . S
O139 C138 1.258 . S
O140 Co137 1.966 . S
O140 C138 1.263 . S
C141 O142 1.235 . S
C141 O168 1.289 . S
O142 C141 1.235 . S
C143 C145 1.400 . S
C143 N146 1.351 . S
C143 C148 1.501 . S
C144 C145 1.387 . S
C144 N147 1.341 . S
C145 C143 1.400 . S
C145 C144 1.387 . S
N146 Co137 2.022 . S
N146 C143 1.351 . S
N146 N147 1.365 . S
N147 C144 1.341 . S
N147 N146 1.365 . S
N147 H167 0.862 . S
C148 C143 1.501 . S
C148 H149 0.961 . S
C148 H150 0.961 . S
C148 H151 0.960 . S
H149 C148 0.961 . S
H150 C148 0.961 . S
H151 C148 0.960 . S
C152 N153 1.342 . S
C152 C156 1.401 . S
C152 C157 1.499 . S
N153 Co136 1.989 . S
N153 C152 1.342 . S
N153 N154 1.388 . S
N154 Co137 1.993 . S
N154 N153 1.388 . S
N154 C155 1.346 . S
C155 N154 1.346 . S
C155 C156 1.396 . S
C155 C165 1.510 . S
C156 C152 1.401 . S
C156 C155 1.396 . S
C157 C152 1.499 . S
C157 H158 0.959 . S
C157 H159 0.960 . S
C157 H160 0.961 . S
H158 C157 0.959 . S
H159 C157 0.960 . S
H160 C157 0.961 . S
O161 Co136 1.967 . S
O161 C169 1.258 . S
O162 Co137 1.941 . S
O162 C169 1.266 . S
H163 C165 0.959 . S
H164 C165 0.961 . S
C165 C155 1.510 . S
C165 H163 0.959 . S
C165 H164 0.961 . S
C165 H166 0.960 . S
H166 C165 0.960 . S
H167 N147 0.862 . S
O168 Co136 1.920 . S
O168 C141 1.289 . S
C169 O161 1.258 . S
C169 O162 1.266 . S
Co170 O173 1.970 . S
Co170 N187 1.989 . S
Co170 O195 1.967 . S
Co170 O202 1.920 . S
Co171 O174 1.966 . S
Co171 N180 2.022 . S
Co171 N188 1.993 . S
Co171 O196 1.941 . S
C172 O173 1.258 . S
C172 O174 1.263 . S
O173 Co170 1.970 . S
O173 C172 1.258 . S
O174 Co171 1.966 . S
O174 C172 1.263 . S
C175 O176 1.235 . S
C175 O202 1.289 . S
O176 C175 1.235 . S
C177 C179 1.400 . S
C177 N180 1.351 . S
C177 C182 1.501 . S
C178 C179 1.387 . S
C178 N181 1.341 . S
C179 C177 1.400 . S
C179 C178 1.387 . S
N180 Co171 2.022 . S
N180 C177 1.351 . S
N180 N181 1.365 . S
N181 C178 1.341 . S
N181 N180 1.365 . S
N181 H201 0.862 . S
C182 C177 1.501 . S
C182 H183 0.961 . S
C182 H184 0.961 . S
C182 H185 0.960 . S
H183 C182 0.961 . S
H184 C182 0.961 . S
H185 C182 0.960 . S
C186 N187 1.342 . S
C186 C190 1.401 . S
C186 C191 1.499 . S
N187 Co170 1.989 . S
N187 C186 1.342 . S
N187 N188 1.388 . S
N188 Co171 1.993 . S
N188 N187 1.388 . S
N188 C189 1.346 . S
C189 N188 1.346 . S
C189 C190 1.396 . S
C189 C199 1.510 . S
C190 C186 1.401 . S
C190 C189 1.396 . S
C191 C186 1.499 . S
C191 H192 0.959 . S
C191 H193 0.960 . S
C191 H194 0.961 . S
H192 C191 0.959 . S
H193 C191 0.960 . S
H194 C191 0.961 . S
O195 Co170 1.967 . S
O195 C203 1.258 . S
O196 Co171 1.941 . S
O196 C203 1.266 . S
H197 C199 0.959 . S
H198 C199 0.961 . S
C199 C189 1.510 . S
C199 H197 0.959 . S
C199 H198 0.961 . S
C199 H200 0.960 . S
H200 C199 0.960 . S
H201 N181 0.862 . S
O202 Co170 1.920 . S
O202 C175 1.289 . S
C203 O195 1.258 . S
C203 O196 1.266 . S
Co204 O207 1.970 . S
Co204 N221 1.989 . S
Co204 O229 1.967 . S
Co204 O236 1.920 . S
Co205 O208 1.966 . S
Co205 N214 2.022 . S
Co205 N222 1.993 . S
Co205 O230 1.941 . S
C206 O207 1.258 . S
C206 O208 1.263 . S
O207 Co204 1.970 . S
O207 C206 1.258 . S
O208 Co205 1.966 . S
O208 C206 1.263 . S
C209 O210 1.235 . S
C209 O236 1.289 . S
O210 C209 1.235 . S
C211 C213 1.400 . S
C211 N214 1.351 . S
C211 C216 1.501 . S
C212 C213 1.387 . S
C212 N215 1.341 . S
C213 C211 1.400 . S
C213 C212 1.387 . S
N214 Co205 2.022 . S
N214 C211 1.351 . S
N214 N215 1.365 . S
N215 C212 1.341 . S
N215 N214 1.365 . S
N215 H235 0.862 . S
C216 C211 1.501 . S
C216 H217 0.961 . S
C216 H218 0.961 . S
C216 H219 0.960 . S
H217 C216 0.961 . S
H218 C216 0.961 . S
H219 C216 0.960 . S
C220 N221 1.342 . S
C220 C224 1.401 . S
C220 C225 1.499 . S
N221 Co204 1.989 . S
N221 C220 1.342 . S
N221 N222 1.388 . S
N222 Co205 1.993 . S
N222 N221 1.388 . S
N222 C223 1.346 . S
C223 N222 1.346 . S
C223 C224 1.396 . S
C223 C233 1.510 . S
C224 C220 1.401 . S
C224 C223 1.396 . S
C225 C220 1.499 . S
C225 H226 0.959 . S
C225 H227 0.960 . S
C225 H228 0.961 . S
H226 C225 0.959 . S
H227 C225 0.960 . S
H228 C225 0.961 . S
O229 Co204 1.967 . S
O229 C237 1.258 . S
O230 Co205 1.941 . S
O230 C237 1.266 . S
H231 C233 0.959 . S
H232 C233 0.961 . S
C233 C223 1.510 . S
C233 H231 0.959 . S
C233 H232 0.961 . S
C233 H234 0.960 . S
H234 C233 0.960 . S
H235 N215 0.862 . S
O236 Co204 1.920 . S
O236 C209 1.289 . S
C237 O229 1.258 . S
C237 O230 1.266 . S
Co238 O241 1.970 . S
Co238 N255 1.989 . S
Co238 O263 1.967 . S
Co238 O270 1.920 . S
Co239 O242 1.966 . S
Co239 N248 2.022 . S
Co239 N256 1.993 . S
Co239 O264 1.941 . S
C240 O241 1.258 . S
C240 O242 1.263 . S
O241 Co238 1.970 . S
O241 C240 1.258 . S
O242 Co239 1.966 . S
O242 C240 1.263 . S
C243 O244 1.235 . S
C243 O270 1.289 . S
O244 C243 1.235 . S
C245 C247 1.400 . S
C245 N248 1.351 . S
C245 C250 1.501 . S
C246 C247 1.387 . S
C246 N249 1.341 . S
C247 C245 1.400 . S
C247 C246 1.387 . S
N248 Co239 2.022 . S
N248 C245 1.351 . S
N248 N249 1.365 . S
N249 C246 1.341 . S
N249 N248 1.365 . S
N249 H269 0.862 . S
C250 C245 1.501 . S
C250 H251 0.961 . S
C250 H252 0.961 . S
C250 H253 0.960 . S
H251 C250 0.961 . S
H252 C250 0.961 . S
H253 C250 0.960 . S
C254 N255 1.342 . S
C254 C258 1.401 . S
C254 C259 1.499 . S
N255 Co238 1.989 . S
N255 C254 1.342 . S
N255 N256 1.388 . S
N256 Co239 1.993 . S
N256 N255 1.388 . S
N256 C257 1.346 . S
C257 N256 1.346 . S
C257 C258 1.396 . S
C257 C267 1.510 . S
C258 C254 1.401 . S
C258 C257 1.396 . S
C259 C254 1.499 . S
C259 H260 0.959 . S
C259 H261 0.960 . S
C259 H262 0.961 . S
H260 C259 0.959 . S
H261 C259 0.960 . S
H262 C259 0.961 . S
O263 Co238 1.967 . S
O263 C271 1.258 . S
O264 Co239 1.941 . S
O264 C271 1.266 . S
H265 C267 0.959 . S
H266 C267 0.961 . S
C267 C257 1.510 . S
C267 H265 0.959 . S
C267 H266 0.961 . S
C267 H268 0.960 . S
H268 C267 0.960 . S
H269 N249 0.862 . S
O270 Co238 1.920 . S
O270 C243 1.289 . S
C271 O263 1.258 . S
C271 O264 1.266 . S
Co272 O275 1.970 . S
Co272 N289 1.989 . S
Co272 O297 1.967 . S
Co272 O304 1.920 . S
Co273 O276 1.966 . S
Co273 N282 2.022 . S
Co273 N290 1.993 . S
Co273 O298 1.941 . S
C274 O275 1.258 . S
C274 O276 1.263 . S
O275 Co272 1.970 . S
O275 C274 1.258 . S
O276 Co273 1.966 . S
O276 C274 1.263 . S
C277 O278 1.235 . S
C277 O304 1.289 . S
O278 C277 1.235 . S
C279 C281 1.400 . S
C279 N282 1.351 . S
C279 C284 1.501 . S
C280 C281 1.387 . S
C280 N283 1.341 . S
C281 C279 1.400 . S
C281 C280 1.387 . S
N282 Co273 2.022 . S
N282 C279 1.351 . S
N282 N283 1.365 . S
N283 C280 1.341 . S
N283 N282 1.365 . S
N283 H303 0.862 . S
C284 C279 1.501 . S
C284 H285 0.961 . S
C284 H286 0.961 . S
C284 H287 0.960 . S
H285 C284 0.961 . S
H286 C284 0.961 . S
H287 C284 0.960 . S
C288 N289 1.342 . S
C288 C292 1.401 . S
C288 C293 1.499 . S
N289 Co272 1.989 . S
N289 C288 1.342 . S
N289 N290 1.388 . S
N290 Co273 1.993 . S
N290 N289 1.388 . S
N290 C291 1.346 . S
C291 N290 1.346 . S
C291 C292 1.396 . S
C291 C301 1.510 . S
C292 C288 1.401 . S
C292 C291 1.396 . S
C293 C288 1.499 . S
C293 H294 0.959 . S
C293 H295 0.960 . S
C293 H296 0.961 . S
H294 C293 0.959 . S
H295 C293 0.960 . S
H296 C293 0.961 . S
O297 Co272 1.967 . S
O297 C305 1.258 . S
O298 Co273 1.941 . S
O298 C305 1.266 . S
H299 C301 0.959 . S
H300 C301 0.961 . S
C301 C291 1.510 . S
C301 H299 0.959 . S
C301 H300 0.961 . S
C301 H302 0.960 . S
H302 C301 0.960 . S
H303 N283 0.862 . S
O304 Co272 1.920 . S
O304 C277 1.289 . S
C305 O297 1.258 . S
C305 O298 1.266 . S
Co306 O309 1.970 . S
Co306 N323 1.989 . S
Co306 O331 1.967 . S
Co306 O338 1.920 . S
Co307 O310 1.966 . S
Co307 N316 2.022 . S
Co307 N324 1.993 . S
Co307 O332 1.941 . S
C308 O309 1.258 . S
C308 O310 1.263 . S
O309 Co306 1.970 . S
O309 C308 1.258 . S
O310 Co307 1.966 . S
O310 C308 1.263 . S
C311 O312 1.235 . S
C311 O338 1.289 . S
O312 C311 1.235 . S
C313 C315 1.400 . S
C313 N316 1.351 . S
C313 C318 1.501 . S
C314 C315 1.387 . S
C314 N317 1.341 . S
C315 C313 1.400 . S
C315 C314 1.387 . S
N316 Co307 2.022 . S
N316 C313 1.351 . S
N316 N317 1.365 . S
N317 C314 1.341 . S
N317 N316 1.365 . S
N317 H337 0.862 . S
C318 C313 1.501 . S
C318 H319 0.961 . S
C318 H320 0.961 . S
C318 H321 0.960 . S
H319 C318 0.961 . S
H320 C318 0.961 . S
H321 C318 0.960 . S
C322 N323 1.342 . S
C322 C326 1.401 . S
C322 C327 1.499 . S
N323 Co306 1.989 . S
N323 C322 1.342 . S
N323 N324 1.388 . S
N324 Co307 1.993 . S
N324 N323 1.388 . S
N324 C325 1.346 . S
C325 N324 1.346 . S
C325 C326 1.396 . S
C325 C335 1.510 . S
C326 C322 1.401 . S
C326 C325 1.396 . S
C327 C322 1.499 . S
C327 H328 0.959 . S
C327 H329 0.960 . S
C327 H330 0.961 . S
H328 C327 0.959 . S
H329 C327 0.960 . S
H330 C327 0.961 . S
O331 Co306 1.967 . S
O331 C339 1.258 . S
O332 Co307 1.941 . S
O332 C339 1.266 . S
H333 C335 0.959 . S
H334 C335 0.961 . S
C335 C325 1.510 . S
C335 H333 0.959 . S
C335 H334 0.961 . S
C335 H336 0.960 . S
H336 C335 0.960 . S
H337 N317 0.862 . S
O338 Co306 1.920 . S
O338 C311 1.289 . S
C339 O331 1.258 . S
C339 O332 1.266 . S
Co340 O343 1.970 . S
Co340 N357 1.989 . S
Co340 O365 1.967 . S
Co340 O372 1.920 . S
Co341 O344 1.966 . S
Co341 N350 2.022 . S
Co341 N358 1.993 . S
Co341 O366 1.941 . S
C342 O343 1.258 . S
C342 O344 1.263 . S
O343 Co340 1.970 . S
O343 C342 1.258 . S
O344 Co341 1.966 . S
O344 C342 1.263 . S
C345 O346 1.235 . S
C345 O372 1.289 . S
O346 C345 1.235 . S
C347 C349 1.400 . S
C347 N350 1.351 . S
C347 C352 1.501 . S
C348 C349 1.387 . S
C348 N351 1.341 . S
C349 C347 1.400 . S
C349 C348 1.387 . S
N350 Co341 2.022 . S
N350 C347 1.351 . S
N350 N351 1.365 . S
N351 C348 1.341 . S
N351 N350 1.365 . S
N351 H371 0.862 . S
C352 C347 1.501 . S
C352 H353 0.961 . S
C352 H354 0.961 . S
C352 H355 0.960 . S
H353 C352 0.961 . S
H354 C352 0.961 . S
H355 C352 0.960 . S
C356 N357 1.342 . S
C356 C360 1.401 . S
C356 C361 1.499 . S
N357 Co340 1.989 . S
N357 C356 1.342 . S
N357 N358 1.388 . S
N358 Co341 1.993 . S
N358 N357 1.388 . S
N358 C359 1.346 . S
C359 N358 1.346 . S
C359 C360 1.396 . S
C359 C369 1.510 . S
C360 C356 1.401 . S
C360 C359 1.396 . S
C361 C356 1.499 . S
C361 H362 0.959 . S
C361 H363 0.960 . S
C361 H364 0.961 . S
H362 C361 0.959 . S
H363 C361 0.960 . S
H364 C361 0.961 . S
O365 Co340 1.967 . S
O365 C373 1.258 . S
O366 Co341 1.941 . S
O366 C373 1.266 . S
H367 C369 0.959 . S
H368 C369 0.961 . S
C369 C359 1.510 . S
C369 H367 0.959 . S
C369 H368 0.961 . S
C369 H370 0.960 . S
H370 C369 0.960 . S
H371 N351 0.862 . S
O372 Co340 1.920 . S
O372 C345 1.289 . S
C373 O365 1.258 . S
C373 O366 1.266 . S
Co374 O377 1.970 . S
Co374 N391 1.989 . S
Co374 O399 1.967 . S
Co374 O406 1.920 . S
Co375 O378 1.966 . S
Co375 N384 2.022 . S
Co375 N392 1.993 . S
Co375 O400 1.941 . S
C376 O377 1.258 . S
C376 O378 1.263 . S
O377 Co374 1.970 . S
O377 C376 1.258 . S
O378 Co375 1.966 . S
O378 C376 1.263 . S
C379 O380 1.235 . S
C379 O406 1.289 . S
O380 C379 1.235 . S
C381 C383 1.400 . S
C381 N384 1.351 . S
C381 C386 1.501 . S
C382 C383 1.387 . S
C382 N385 1.341 . S
C383 C381 1.400 . S
C383 C382 1.387 . S
N384 Co375 2.022 . S
N384 C381 1.351 . S
N384 N385 1.365 . S
N385 C382 1.341 . S
N385 N384 1.365 . S
N385 H405 0.862 . S
C386 C381 1.501 . S
C386 H387 0.961 . S
C386 H388 0.961 . S
C386 H389 0.960 . S
H387 C386 0.961 . S
H388 C386 0.961 . S
H389 C386 0.960 . S
C390 N391 1.342 . S
C390 C394 1.401 . S
C390 C395 1.499 . S
N391 Co374 1.989 . S
N391 C390 1.342 . S
N391 N392 1.388 . S
N392 Co375 1.993 . S
N392 N391 1.388 . S
N392 C393 1.346 . S
C393 N392 1.346 . S
C393 C394 1.396 . S
C393 C403 1.510 . S
C394 C390 1.401 . S
C394 C393 1.396 . S
C395 C390 1.499 . S
C395 H396 0.959 . S
C395 H397 0.960 . S
C395 H398 0.961 . S
H396 C395 0.959 . S
H397 C395 0.960 . S
H398 C395 0.961 . S
O399 Co374 1.967 . S
O399 C407 1.258 . S
O400 Co375 1.941 . S
O400 C407 1.266 . S
H401 C403 0.959 . S
H402 C403 0.961 . S
C403 C393 1.510 . S
C403 H401 0.959 . S
C403 H402 0.961 . S
C403 H404 0.960 . S
H404 C403 0.960 . S
H405 N385 0.862 . S
O406 Co374 1.920 . S
O406 C379 1.289 . S
C407 O399 1.258 . S
C407 O400 1.266 . S
H408 C420 0.930 . S
H409 C422 0.930 . S
H410 C423 0.930 . S
H411 C427 0.959 . S
H412 C427 0.959 . S
H413 C427 0.961 . S
H414 C428 0.960 . S
H415 C428 0.961 . S
H416 C428 0.959 . S
H417 C431 0.929 . S
H418 C432 0.931 . S
H419 C434 0.930 . S
C420 H408 0.930 . S
C420 C421 1.399 . S
C420 C425 1.399 . S
C421 C420 1.399 . S
C421 C422 1.376 . S
C422 H409 0.930 . S
C422 C421 1.376 . S
C422 C423 1.388 . S
C423 H410 0.930 . S
C423 C422 1.388 . S
C423 C424 1.390 . S
C424 C423 1.390 . S
C424 C425 1.394 . S
C424 C430 1.465 . S
C425 C420 1.399 . S
C425 C424 1.394 . S
C425 C426 1.516 . S
C426 C425 1.516 . S
C426 C427 1.502 . S
C426 C428 1.561 . S
C426 C429 1.526 . S
C427 H411 0.959 . S
C427 H412 0.959 . S
C427 H413 0.961 . S
C427 C426 1.502 . S
C428 H414 0.960 . S
C428 H415 0.961 . S
C428 H416 0.959 . S
C428 C426 1.561 . S
C429 C426 1.526 . S
C429 C430 1.396 . S
C429 C434 1.390 . S
C430 C424 1.465 . S
C430 C429 1.396 . S
C430 C431 1.399 . S
C431 H417 0.929 . S
C431 C430 1.399 . S
C431 C432 1.385 . S
C432 H418 0.931 . S
C432 C431 1.385 . S
C432 C433 1.389 . S
C433 C432 1.389 . S
C433 C434 1.387 . S
C434 H419 0.930 . S
C434 C429 1.390 . S
C434 C433 1.387 . S
H435 C447 0.930 . S
H436 C449 0.930 . S
H437 C450 0.930 . S
H438 C454 0.959 . S
H439 C454 0.959 1_455 S
H440 C454 0.961 . S
H441 C455 0.960 . S
H442 C455 0.961 1_455 S
H443 C455 0.959 . S
H444 C458 0.929 . S
H445 C459 0.931 . S
H446 C461 0.930 . S
C447 H435 0.930 . S
C447 C448 1.399 . S
C447 C452 1.399 . S
C448 C447 1.399 . S
C448 C449 1.376 . S
C449 H436 0.930 . S
C449 C448 1.376 . S
C449 C450 1.388 . S
C450 H437 0.930 . S
C450 C449 1.388 . S
C450 C451 1.390 . S
C451 C450 1.390 . S
C451 C452 1.394 . S
C451 C457 1.465 1_655 S
C452 C447 1.399 . S
C452 C451 1.394 . S
C452 C453 1.516 . S
C453 C452 1.516 . S
C453 C454 1.502 . S
C453 C455 1.561 . S
C453 C456 1.526 1_655 S
C454 H438 0.959 . S
C454 H439 0.959 1_655 S
C454 H440 0.961 . S
C454 C453 1.502 . S
C455 H441 0.960 . S
C455 H442 0.961 1_655 S
C455 H443 0.959 . S
C455 C453 1.561 . S
C456 C453 1.526 1_455 S
C456 C457 1.396 . S
C456 C461 1.390 . S
C457 C451 1.465 1_455 S
C457 C456 1.396 . S
C457 C458 1.399 . S
C458 H444 0.929 . S
C458 C457 1.399 . S
C458 C459 1.385 . S
C459 H445 0.931 . S
C459 C458 1.385 . S
C459 C460 1.389 . S
C460 C459 1.389 . S
C460 C461 1.387 . S
C461 H446 0.930 . S
C461 C456 1.390 . S
C461 C460 1.387 . S
H462 C474 0.930 . S
H463 C476 0.930 . S
H464 C477 0.930 . S
H465 C481 0.959 . S
H466 C481 0.959 . S
H467 C481 0.961 1_545 S
H468 C482 0.960 1_545 S
H469 C482 0.961 . S
H470 C482 0.959 . S
H471 C485 0.929 . S
H472 C486 0.931 . S
H473 C488 0.930 . S
C474 H462 0.930 . S
C474 C475 1.399 . S
C474 C479 1.399 . S
C475 C474 1.399 . S
C475 C476 1.376 . S
C476 H463 0.930 . S
C476 C475 1.376 . S
C476 C477 1.388 . S
C477 H464 0.930 . S
C477 C476 1.388 . S
C477 C478 1.390 . S
C478 C477 1.390 . S
C478 C479 1.394 . S
C478 C484 1.465 1_545 S
C479 C474 1.399 . S
C479 C478 1.394 . S
C479 C480 1.516 1_545 S
C480 C479 1.516 1_565 S
C480 C481 1.502 . S
C480 C482 1.561 . S
C480 C483 1.526 . S
C481 H465 0.959 . S
C481 H466 0.959 . S
C481 H467 0.961 1_565 S
C481 C480 1.502 . S
C482 H468 0.960 1_565 S
C482 H469 0.961 . S
C482 H470 0.959 . S
C482 C480 1.561 . S
C483 C480 1.526 . S
C483 C484 1.396 . S
C483 C488 1.390 . S
C484 C478 1.465 1_565 S
C484 C483 1.396 . S
C484 C485 1.399 . S
C485 H471 0.929 . S
C485 C484 1.399 . S
C485 C486 1.385 . S
C486 H472 0.931 . S
C486 C485 1.385 . S
C486 C487 1.389 . S
C487 C486 1.389 . S
C487 C488 1.387 . S
C488 H473 0.930 . S
C488 C483 1.390 . S
C488 C487 1.387 . S
H489 C501 0.930 . S
H490 C503 0.930 . S
H491 C504 0.930 . S
H492 C508 0.959 . S
H493 C508 0.959 . S
H494 C508 0.961 . S
H495 C509 0.960 . S
H496 C509 0.961 . S
H497 C509 0.959 . S
H498 C512 0.929 . S
H499 C513 0.931 . S
H500 C515 0.930 . S
C501 H489 0.930 . S
C501 C502 1.399 . S
C501 C506 1.399 . S
C502 C501 1.399 . S
C502 C503 1.376 . S
C503 H490 0.930 . S
C503 C502 1.376 . S
C503 C504 1.388 . S
C504 H491 0.930 . S
C504 C503 1.388 . S
C504 C505 1.390 . S
C505 C504 1.390 . S
C505 C506 1.394 . S
C505 C511 1.465 . S
C506 C501 1.399 . S
C506 C505 1.394 . S
C506 C507 1.516 . S
C507 C506 1.516 . S
C507 C508 1.502 . S
C507 C509 1.561 . S
C507 C510 1.526 . S
C508 H492 0.959 . S
C508 H493 0.959 . S
C508 H494 0.961 . S
C508 C507 1.502 . S
C509 H495 0.960 . S
C509 H496 0.961 . S
C509 H497 0.959 . S
C509 C507 1.561 . S
C510 C507 1.526 . S
C510 C511 1.396 . S
C510 C515 1.390 . S
C511 C505 1.465 . S
C511 C510 1.396 . S
C511 C512 1.399 . S
C512 H498 0.929 . S
C512 C511 1.399 . S
C512 C513 1.385 . S
C513 H499 0.931 . S
C513 C512 1.385 . S
C513 C514 1.389 . S
C514 C513 1.389 . S
C514 C515 1.387 . S
C515 H500 0.930 . S
C515 C510 1.390 . S
C515 C514 1.387 . S
H516 C528 0.930 . S
H517 C530 0.930 . S
H518 C531 0.930 . S
H519 C535 0.959 . S
H520 C535 0.959 . S
H521 C535 0.961 1_455 S
H522 C536 0.960 1_455 S
H523 C536 0.961 . S
H524 C536 0.959 . S
H525 C539 0.929 . S
H526 C540 0.931 . S
H527 C542 0.930 . S
C528 H516 0.930 . S
C528 C529 1.399 . S
C528 C533 1.399 . S
C529 C528 1.399 . S
C529 C530 1.376 . S
C530 H517 0.930 . S
C530 C529 1.376 . S
C530 C531 1.388 . S
C531 H518 0.930 . S
C531 C530 1.388 . S
C531 C532 1.390 . S
C532 C531 1.390 . S
C532 C533 1.394 . S
C532 C538 1.465 1_455 S
C533 C528 1.399 . S
C533 C532 1.394 . S
C533 C534 1.516 1_455 S
C534 C533 1.516 1_655 S
C534 C535 1.502 . S
C534 C536 1.561 . S
C534 C537 1.526 . S
C535 H519 0.959 . S
C535 H520 0.959 . S
C535 H521 0.961 1_655 S
C535 C534 1.502 . S
C536 H522 0.960 1_655 S
C536 H523 0.961 . S
C536 H524 0.959 . S
C536 C534 1.561 . S
C537 C534 1.526 . S
C537 C538 1.396 . S
C537 C542 1.390 . S
C538 C532 1.465 1_655 S
C538 C537 1.396 . S
C538 C539 1.399 . S
C539 H525 0.929 . S
C539 C538 1.399 . S
C539 C540 1.385 . S
C540 H526 0.931 . S
C540 C539 1.385 . S
C540 C541 1.389 . S
C541 C540 1.389 . S
C541 C542 1.387 . S
C542 H527 0.930 . S
C542 C537 1.390 . S
C542 C541 1.387 . S
H543 C555 0.930 . S
H544 C557 0.930 . S
H545 C558 0.930 . S
H546 C562 0.956 . S
H547 C562 0.959 1_545 S
H548 C562 0.961 . S
H549 C563 0.960 . S
H550 C563 0.961 1_545 S
H551 C563 0.959 . S
H552 C566 0.929 . S
H553 C567 0.931 . S
H554 C569 0.930 . S
C555 H543 0.930 . S
C555 C556 1.399 . S
C555 C560 1.399 . S
C556 C555 1.399 . S
C556 C557 1.376 . S
C557 H544 0.930 . S
C557 C556 1.376 . S
C557 C558 1.388 . S
C558 H545 0.930 . S
C558 C557 1.388 . S
C558 C559 1.390 . S
C559 C558 1.390 . S
C559 C560 1.394 . S
C559 C565 1.465 1_565 S
C560 C555 1.399 . S
C560 C559 1.394 . S
C560 C561 1.516 . S
C561 C560 1.516 . S
C561 C562 1.502 . S
C561 C563 1.561 . S
C561 C564 1.526 1_565 S
C562 H546 0.956 . S
C562 H547 0.959 1_565 S
C562 H548 0.961 . S
C562 C561 1.502 . S
C563 H549 0.960 . S
C563 H550 0.961 1_565 S
C563 H551 0.959 . S
C563 C561 1.561 . S
C564 C561 1.526 1_545 S
C564 C565 1.396 . S
C564 C569 1.390 . S
C565 C559 1.465 1_545 S
C565 C564 1.396 . S
C565 C566 1.399 . S
C566 H552 0.929 . S
C566 C565 1.399 . S
C566 C567 1.385 . S
C567 H553 0.931 . S
C567 C566 1.385 . S
C567 C568 1.389 . S
C568 C567 1.389 . S
C568 C569 1.387 . S
C569 H554 0.930 . S
C569 C564 1.390 . S
C569 C568 1.387 . S
H570 C582 0.930 . S
H571 C584 0.930 . S
H572 C585 0.930 . S
H573 C589 0.959 . S
H574 C589 0.959 . S
H575 C589 0.961 1_556 S
H576 C590 0.960 . S
H577 C590 0.961 1_554 S
H578 C590 0.959 . S
H579 C593 0.929 . S
H580 C594 0.931 . S
H581 C596 0.930 . S
C582 H570 0.930 . S
C582 C583 1.399 . S
C582 C587 1.399 . S
C583 C582 1.399 . S
C583 C584 1.376 . S
C584 H571 0.930 . S
C584 C583 1.376 . S
C584 C585 1.388 . S
C585 H572 0.930 . S
C585 C584 1.388 . S
C585 C586 1.390 . S
C586 C585 1.390 . S
C586 C587 1.394 . S
C586 C592 1.465 1_556 S
C587 C582 1.399 . S
C587 C586 1.394 . S
C587 C588 1.516 1_556 S
C588 C587 1.516 1_554 S
C588 C589 1.502 . S
C588 C590 1.561 1_554 S
C588 C591 1.526 . S
C589 H573 0.959 . S
C589 H574 0.959 . S
C589 H575 0.961 1_554 S
C589 C588 1.502 . S
C590 H576 0.960 . S
C590 H577 0.961 1_556 S
C590 H578 0.959 . S
C590 C588 1.561 1_556 S
C591 C588 1.526 . S
C591 C592 1.396 . S
C591 C596 1.390 . S
C592 C586 1.465 1_554 S
C592 C591 1.396 . S
C592 C593 1.399 . S
C593 H579 0.929 . S
C593 C592 1.399 . S
C593 C594 1.385 . S
C594 H580 0.931 . S
C594 C593 1.385 . S
C594 C595 1.389 . S
C595 C594 1.389 . S
C595 C596 1.387 . S
C596 H581 0.930 . S
C596 C591 1.390 . S
C596 C595 1.387 . S
H597 C609 0.930 . S
H598 C611 0.930 . S
H599 C612 0.930 . S
H600 C616 0.959 . S
H601 C616 0.959 . S
H602 C616 0.961 . S
H603 C617 0.960 . S
H604 C617 0.961 . S
H605 C617 0.959 . S
H606 C620 0.929 . S
H607 C621 0.931 . S
H608 C623 0.930 . S
C609 H597 0.930 . S
C609 C610 1.399 . S
C609 C614 1.399 . S
C610 C609 1.399 . S
C610 C611 1.376 . S
C611 H598 0.930 . S
C611 C610 1.376 . S
C611 C612 1.388 . S
C612 H599 0.930 . S
C612 C611 1.388 . S
C612 C613 1.390 . S
C613 C612 1.390 . S
C613 C614 1.394 . S
C613 C619 1.465 . S
C614 C609 1.399 . S
C614 C613 1.394 . S
C614 C615 1.516 . S
C615 C614 1.516 . S
C615 C616 1.502 . S
C615 C617 1.561 . S
C615 C618 1.526 . S
C616 H600 0.959 . S
C616 H601 0.959 . S
C616 H602 0.961 . S
C616 C615 1.502 . S
C617 H603 0.960 . S
C617 H604 0.961 . S
C617 H605 0.959 . S
C617 C615 1.561 . S
C618 C615 1.526 . S
C618 C619 1.396 . S
C618 C623 1.390 . S
C619 C613 1.465 . S
C619 C618 1.396 . S
C619 C620 1.399 . S
C620 H606 0.929 . S
C620 C619 1.399 . S
C620 C621 1.385 . S
C621 H607 0.931 . S
C621 C620 1.385 . S
C621 C622 1.389 . S
C622 C621 1.389 . S
C622 C623 1.387 . S
C623 H608 0.930 . S
C623 C618 1.390 . S
C623 C622 1.387 . S
H624 C636 0.930 . S
H625 C638 0.930 . S
H626 C639 0.930 . S
H627 C643 0.959 . S
H628 C643 0.959 . S
H629 C643 0.961 1_554 S
H630 C644 0.960 1_554 S
H631 C644 0.961 . S
H632 C644 0.959 . S
H633 C647 0.929 . S
H634 C648 0.931 . S
H635 C650 0.930 . S
C636 H624 0.930 . S
C636 C637 1.399 . S
C636 C641 1.399 . S
C637 C636 1.399 . S
C637 C638 1.376 . S
C638 H625 0.930 . S
C638 C637 1.376 . S
C638 C639 1.388 . S
C639 H626 0.930 . S
C639 C638 1.388 . S
C639 C640 1.390 . S
C640 C639 1.390 . S
C640 C641 1.394 . S
C640 C646 1.465 1_554 S
C641 C636 1.399 . S
C641 C640 1.394 . S
C641 C642 1.516 1_554 S
C642 C641 1.516 1_556 S
C642 C643 1.502 . S
C642 C644 1.561 . S
C642 C645 1.526 . S
C643 H627 0.959 . S
C643 H628 0.959 . S
C643 H629 0.961 1_556 S
C643 C642 1.502 . S
C644 H630 0.960 1_556 S
C644 H631 0.961 . S
C644 H632 0.959 . S
C644 C642 1.561 . S
C645 C642 1.526 . S
C645 C646 1.396 . S
C645 C650 1.390 . S
C646 C640 1.465 1_556 S
C646 C645 1.396 . S
C646 C647 1.399 . S
C647 H633 0.929 . S
C647 C646 1.399 . S
C647 C648 1.385 . S
C648 H634 0.931 . S
C648 C647 1.385 . S
C648 C649 1.389 . S
C649 C648 1.389 . S
C649 C650 1.387 . S
C650 H635 0.930 . S
C650 C645 1.390 . S
C650 C649 1.387 . S
H651 C663 0.930 . S
H652 C665 0.930 . S
H653 C666 0.930 . S
H654 C670 0.959 . S
H655 C670 0.959 . S
H656 C670 0.961 . S
H657 C671 0.960 . S
H658 C671 0.961 . S
H659 C671 0.959 . S
H660 C674 0.929 . S
H661 C675 0.931 . S
H662 C677 0.930 . S
C663 H651 0.930 . S
C663 C664 1.399 . S
C663 C668 1.399 . S
C664 C663 1.399 . S
C664 C665 1.376 . S
C665 H652 0.930 . S
C665 C664 1.376 . S
C665 C666 1.388 . S
C666 H653 0.930 . S
C666 C665 1.388 . S
C666 C667 1.390 . S
C667 C666 1.390 . S
C667 C668 1.394 . S
C667 C673 1.465 . S
C668 C663 1.399 . S
C668 C667 1.394 . S
C668 C669 1.516 . S
C669 C668 1.516 . S
C669 C670 1.502 . S
C669 C671 1.561 . S
C669 C672 1.526 . S
C670 H654 0.959 . S
C670 H655 0.959 . S
C670 H656 0.961 . S
C670 C669 1.502 . S
C671 H657 0.960 . S
C671 H658 0.961 . S
C671 H659 0.959 . S
C671 C669 1.561 . S
C672 C669 1.526 . S
C672 C673 1.396 . S
C672 C677 1.390 . S
C673 C667 1.465 . S
C673 C672 1.396 . S
C673 C674 1.399 . S
C674 H660 0.929 . S
C674 C673 1.399 . S
C674 C675 1.385 . S
C675 H661 0.931 . S
C675 C674 1.385 . S
C675 C676 1.389 . S
C676 C675 1.389 . S
C676 C677 1.387 . S
C677 H662 0.930 . S
C677 C672 1.390 . S
C677 C676 1.387 . S
H678 C690 0.930 . S
H679 C692 0.930 . S
H680 C693 0.930 . S
H681 C697 0.959 . S
H682 C697 0.959 . S
H683 C697 0.961 1_556 S
H684 C698 0.960 . S
H685 C698 0.961 1_554 S
H686 C698 0.959 . S
H687 C701 0.929 . S
H688 C702 0.931 . S
H689 C704 0.930 . S
C690 H678 0.930 . S
C690 C691 1.399 . S
C690 C695 1.399 . S
C691 C690 1.399 . S
C691 C692 1.376 . S
C692 H679 0.930 . S
C692 C691 1.376 . S
C692 C693 1.388 . S
C693 H680 0.930 . S
C693 C692 1.388 . S
C693 C694 1.390 . S
C694 C693 1.390 . S
C694 C695 1.394 . S
C694 C700 1.465 1_556 S
C695 C690 1.399 . S
C695 C694 1.394 . S
C695 C696 1.516 . S
C696 C695 1.516 . S
C696 C697 1.502 1_556 S
C696 C698 1.561 . S
C696 C699 1.526 1_556 S
C697 H681 0.959 . S
C697 H682 0.959 . S
C697 H683 0.961 1_554 S
C697 C696 1.502 1_554 S
C698 H684 0.960 . S
C698 H685 0.961 1_556 S
C698 H686 0.959 . S
C698 C696 1.561 . S
C699 C696 1.526 1_554 S
C699 C700 1.396 . S
C699 C704 1.390 . S
C700 C694 1.465 1_554 S
C700 C699 1.396 . S
C700 C701 1.399 . S
C701 H687 0.929 . S
C701 C700 1.399 . S
C701 C702 1.385 . S
C702 H688 0.931 . S
C702 C701 1.385 . S
C702 C703 1.389 . S
C703 C702 1.389 . S
C703 C704 1.387 . S
C704 H689 0.930 . S
C704 C699 1.390 . S
C704 C703 1.387 . S
H705 C717 0.930 . S
H706 C719 0.930 . S
H707 C720 0.930 . S
H708 C724 0.959 . S
H709 C724 0.959 . S
H710 C724 0.961 . S
H711 C725 0.960 . S
H712 C725 0.961 . S
H713 C725 0.959 . S
H714 C728 0.929 . S
H715 C729 0.931 . S
H716 C731 0.930 . S
C717 H705 0.930 . S
C717 C718 1.399 . S
C717 C722 1.399 . S
C718 C717 1.399 . S
C718 C719 1.376 . S
C719 H706 0.930 . S
C719 C718 1.376 . S
C719 C720 1.388 . S
C720 H707 0.930 . S
C720 C719 1.388 . S
C720 C721 1.390 . S
C721 C720 1.390 . S
C721 C722 1.394 . S
C721 C727 1.465 . S
C722 C717 1.399 . S
C722 C721 1.394 . S
C722 C723 1.516 . S
C723 C722 1.516 . S
C723 C724 1.502 . S
C723 C725 1.561 . S
C723 C726 1.526 . S
C724 H708 0.959 . S
C724 H709 0.959 . S
C724 H710 0.961 . S
C724 C723 1.502 . S
C725 H711 0.960 . S
C725 H712 0.961 . S
C725 H713 0.959 . S
C725 C723 1.561 . S
C726 C723 1.526 . S
C726 C727 1.396 . S
C726 C731 1.390 . S
C727 C721 1.465 . S
C727 C726 1.396 . S
C727 C728 1.399 . S
C728 H714 0.929 . S
C728 C727 1.399 . S
C728 C729 1.385 . S
C729 H715 0.931 . S
C729 C728 1.385 . S
C729 C730 1.389 . S
C730 C729 1.389 . S
C730 C731 1.387 . S
C731 H716 0.930 . S
C731 C726 1.390 . S
C731 C730 1.387 . S
H732 C744 0.930 . S
H733 C746 0.930 . S
H734 C747 0.930 . S
H735 C751 0.959 . S
H736 C751 0.959 1_556 S
H737 C751 0.961 . S
H738 C752 0.960 1_554 S
H739 C752 0.961 . S
H740 C752 0.959 . S
H741 C755 0.929 . S
H742 C756 0.931 . S
H743 C758 0.930 . S
C744 H732 0.930 . S
C744 C745 1.399 . S
C744 C749 1.399 . S
C745 C744 1.399 . S
C745 C746 1.376 . S
C746 H733 0.930 . S
C746 C745 1.376 . S
C746 C747 1.388 . S
C747 H734 0.930 . S
C747 C746 1.388 . S
C747 C748 1.390 . S
C748 C747 1.390 . S
C748 C749 1.394 . S
C748 C754 1.465 1_554 S
C749 C744 1.399 . S
C749 C748 1.394 . S
C749 C750 1.516 . S
C750 C749 1.516 . S
C750 C751 1.502 . S
C750 C752 1.561 1_554 S
C750 C753 1.526 1_554 S
C751 H735 0.959 . S
C751 H736 0.959 1_554 S
C751 H737 0.961 . S
C751 C750 1.502 . S
C752 H738 0.960 1_556 S
C752 H739 0.961 . S
C752 H740 0.959 . S
C752 C750 1.561 1_556 S
C753 C750 1.526 1_556 S
C753 C754 1.396 . S
C753 C758 1.390 . S
C754 C748 1.465 1_556 S
C754 C753 1.396 . S
C754 C755 1.399 . S
C755 H741 0.929 . S
C755 C754 1.399 . S
C755 C756 1.385 . S
C756 H742 0.931 . S
C756 C755 1.385 . S
C756 C757 1.389 . S
C757 C756 1.389 . S
C757 C758 1.387 . S
C758 H743 0.930 . S
C758 C753 1.390 . S
C758 C757 1.387 . S
H759 C771 0.930 . S
H760 C773 0.930 . S
H761 C774 0.930 . S
H762 C778 0.959 . S
H763 C778 0.959 . S
H764 C778 0.961 . S
H765 C779 0.960 . S
H766 C779 0.961 . S
H767 C779 0.959 . S
H768 C782 0.929 . S
H769 C783 0.931 . S
H770 C785 0.930 . S
C771 H759 0.930 . S
C771 C772 1.399 . S
C771 C776 1.399 . S
C772 C771 1.399 . S
C772 C773 1.376 . S
C773 H760 0.930 . S
C773 C772 1.376 . S
C773 C774 1.388 . S
C774 H761 0.930 . S
C774 C773 1.388 . S
C774 C775 1.390 . S
C775 C774 1.390 . S
C775 C776 1.394 . S
C775 C781 1.465 . S
C776 C771 1.399 . S
C776 C775 1.394 . S
C776 C777 1.516 . S
C777 C776 1.516 . S
C777 C778 1.502 . S
C777 C779 1.561 . S
C777 C780 1.526 . S
C778 H762 0.959 . S
C778 H763 0.959 . S
C778 H764 0.961 . S
C778 C777 1.502 . S
C779 H765 0.960 . S
C779 H766 0.961 . S
C779 H767 0.959 . S
C779 C777 1.561 . S
C780 C777 1.526 . S
C780 C781 1.396 . S
C780 C785 1.390 . S
C781 C775 1.465 . S
C781 C780 1.396 . S
C781 C782 1.399 . S
C782 H768 0.929 . S
C782 C781 1.399 . S
C782 C783 1.385 . S
C783 H769 0.931 . S
C783 C782 1.385 . S
C783 C784 1.389 . S
C784 C783 1.389 . S
C784 C785 1.387 . S
C785 H770 0.930 . S
C785 C780 1.390 . S
C785 C784 1.387 . S
H786 C798 0.930 . S
H787 C800 0.930 . S
H788 C801 0.930 . S
H789 C805 0.959 . S
H790 C805 0.959 . S
H791 C805 0.961 1_556 S
H792 C806 0.960 1_556 S
H793 C806 0.961 . S
H794 C806 0.959 . S
H795 C809 0.929 . S
H796 C810 0.931 . S
H797 C812 0.930 . S
C798 H786 0.930 . S
C798 C799 1.399 . S
C798 C803 1.399 . S
C799 C798 1.399 . S
C799 C800 1.376 . S
C800 H787 0.930 . S
C800 C799 1.376 . S
C800 C801 1.388 . S
C801 H788 0.930 . S
C801 C800 1.388 . S
C801 C802 1.390 . S
C802 C801 1.390 . S
C802 C803 1.394 . S
C802 C808 1.465 1_556 S
C803 C798 1.399 . S
C803 C802 1.394 . S
C803 C804 1.516 1_556 S
C804 C803 1.516 1_554 S
C804 C805 1.502 . S
C804 C806 1.561 . S
C804 C807 1.526 . S
C805 H789 0.959 . S
C805 H790 0.959 . S
C805 H791 0.961 1_554 S
C805 C804 1.502 . S
C806 H792 0.960 1_554 S
C806 H793 0.961 . S
C806 H794 0.959 . S
C806 C804 1.561 . S
C807 C804 1.526 . S
C807 C808 1.396 . S
C807 C812 1.390 . S
C808 C802 1.465 1_554 S
C808 C807 1.396 . S
C808 C809 1.399 . S
C809 H795 0.929 . S
C809 C808 1.399 . S
C809 C810 1.385 . S
C810 H796 0.931 . S
C810 C809 1.385 . S
C810 C811 1.389 . S
C811 C810 1.389 . S
C811 C812 1.387 . S
C812 H797 0.930 . S
C812 C807 1.390 . S
C812 C811 1.387 . S
H813 C825 0.930 . S
H814 C827 0.930 . S
H815 C828 0.930 . S
H816 C832 0.959 . S
H817 C832 0.959 . S
H818 C832 0.961 . S
H819 C833 0.960 . S
H820 C833 0.961 . S
H821 C833 0.959 . S
H822 C836 0.929 . S
H823 C837 0.931 . S
H824 C839 0.930 . S
C825 H813 0.930 . S
C825 C826 1.399 . S
C825 C830 1.399 . S
C826 C825 1.399 . S
C826 C827 1.376 . S
C827 H814 0.930 . S
C827 C826 1.376 . S
C827 C828 1.388 . S
C828 H815 0.930 . S
C828 C827 1.388 . S
C828 C829 1.390 . S
C829 C828 1.390 . S
C829 C830 1.394 . S
C829 C835 1.465 . S
C830 C825 1.399 . S
C830 C829 1.394 . S
C830 C831 1.516 . S
C831 C830 1.516 . S
C831 C832 1.502 . S
C831 C833 1.561 . S
C831 C834 1.526 . S
C832 H816 0.959 . S
C832 H817 0.959 . S
C832 H818 0.961 . S
C832 C831 1.502 . S
C833 H819 0.960 . S
C833 H820 0.961 . S
C833 H821 0.959 . S
C833 C831 1.561 . S
C834 C831 1.526 . S
C834 C835 1.396 . S
C834 C839 1.390 . S
C835 C829 1.465 . S
C835 C834 1.396 . S
C835 C836 1.399 . S
C836 H822 0.929 . S
C836 C835 1.399 . S
C836 C837 1.385 . S
C837 H823 0.931 . S
C837 C836 1.385 . S
C837 C838 1.389 . S
C838 C837 1.389 . S
C838 C839 1.387 . S
C839 H824 0.930 . S
C839 C834 1.390 . S
C839 C838 1.387 . S
H840 C852 0.930 . S
H841 C854 0.930 . S
H842 C855 0.930 . S
H843 C859 0.959 . S
H844 C859 0.959 1_554 S
H845 C859 0.961 . S
H846 C860 0.960 . S
H847 C860 0.961 1_554 S
H848 C860 0.959 . S
H849 C863 0.929 . S
H850 C864 0.931 . S
H851 C866 0.930 . S
C852 H840 0.930 . S
C852 C853 1.399 . S
C852 C857 1.399 . S
C853 C852 1.399 . S
C853 C854 1.376 . S
C854 H841 0.930 . S
C854 C853 1.376 . S
C854 C855 1.388 . S
C855 H842 0.930 . S
C855 C854 1.388 . S
C855 C856 1.390 . S
C856 C855 1.390 . S
C856 C857 1.394 . S
C856 C862 1.465 1_556 S
C857 C852 1.399 . S
C857 C856 1.394 . S
C857 C858 1.516 . S
C858 C857 1.516 . S
C858 C859 1.502 . S
C858 C860 1.561 . S
C858 C861 1.526 1_556 S
C859 H843 0.959 . S
C859 H844 0.959 1_556 S
C859 H845 0.961 . S
C859 C858 1.502 . S
C860 H846 0.960 . S
C860 H847 0.961 1_556 S
C860 H848 0.959 . S
C860 C858 1.561 . S
C861 C858 1.526 1_554 S
C861 C862 1.396 . S
C861 C866 1.390 . S
C862 C856 1.465 1_554 S
C862 C861 1.396 . S
C862 C863 1.399 . S
C863 H849 0.929 . S
C863 C862 1.399 . S
C863 C864 1.385 . S
C864 H850 0.931 . S
C864 C863 1.385 . S
C864 C865 1.389 . S
C865 C864 1.389 . S
C865 C866 1.387 . S
C866 H851 0.930 . S
C866 C861 1.390 . S
C866 C865 1.387 . S
H867 C879 0.930 . S
H868 C881 0.930 . S
H869 C882 0.930 . S
H870 C886 0.959 . S
H871 C886 0.959 . S
H872 C886 0.961 . S
H873 C887 0.960 . S
H874 C887 0.961 . S
H875 C887 0.959 . S
H876 C890 0.929 . S
H877 C891 0.931 . S
H878 C893 0.930 . S
C879 H867 0.930 . S
C879 C880 1.399 . S
C879 C884 1.399 . S
C880 C879 1.399 . S
C880 C881 1.376 . S
C881 H868 0.930 . S
C881 C880 1.376 . S
C881 C882 1.388 . S
C882 H869 0.930 . S
C882 C881 1.388 . S
C882 C883 1.390 . S
C883 C882 1.390 . S
C883 C884 1.394 . S
C883 C889 1.465 . S
C884 C879 1.399 . S
C884 C883 1.394 . S
C884 C885 1.516 . S
C885 C884 1.516 . S
C885 C886 1.502 . S
C885 C887 1.561 . S
C885 C888 1.526 . S
C886 H870 0.959 . S
C886 H871 0.959 . S
C886 H872 0.961 . S
C886 C885 1.502 . S
C887 H873 0.960 . S
C887 H874 0.961 . S
C887 H875 0.959 . S
C887 C885 1.561 . S
C888 C885 1.526 . S
C888 C889 1.396 . S
C888 C893 1.390 . S
C889 C883 1.465 . S
C889 C888 1.396 . S
C889 C890 1.399 . S
C890 H876 0.929 . S
C890 C889 1.399 . S
C890 C891 1.385 . S
C891 H877 0.931 . S
C891 C890 1.385 . S
C891 C892 1.389 . S
C892 C891 1.389 . S
C892 C893 1.387 . S
C893 H878 0.930 . S
C893 C888 1.390 . S
C893 C892 1.387 . S
H894 C906 0.930 . S
H895 C908 0.930 . S
H896 C909 0.930 . S
H897 C913 0.959 . S
H898 C913 0.959 . S
H899 C913 0.961 . S
H900 C914 0.960 . S
H901 C914 0.961 . S
H902 C914 0.959 . S
H903 C917 0.929 . S
H904 C918 0.931 . S
H905 C920 0.930 . S
C906 H894 0.930 . S
C906 C907 1.399 . S
C906 C911 1.399 . S
C907 C906 1.399 . S
C907 C908 1.376 . S
C908 H895 0.930 . S
C908 C907 1.376 . S
C908 C909 1.388 . S
C909 H896 0.930 . S
C909 C908 1.388 . S
C909 C910 1.390 . S
C910 C909 1.390 . S
C910 C911 1.394 . S
C910 C916 1.465 . S
C911 C906 1.399 . S
C911 C910 1.394 . S
C911 C912 1.516 . S
C912 C911 1.516 . S
C912 C913 1.502 . S
C912 C914 1.561 . S
C912 C915 1.526 . S
C913 H897 0.959 . S
C913 H898 0.959 . S
C913 H899 0.961 . S
C913 C912 1.502 . S
C914 H900 0.960 . S
C914 H901 0.961 . S
C914 H902 0.959 . S
C914 C912 1.561 . S
C915 C912 1.526 . S
C915 C916 1.396 . S
C915 C920 1.390 . S
C916 C910 1.465 . S
C916 C915 1.396 . S
C916 C917 1.399 . S
C917 H903 0.929 . S
C917 C916 1.399 . S
C917 C918 1.385 . S
C918 H904 0.931 . S
C918 C917 1.385 . S
C918 C919 1.389 . S
C919 C918 1.389 . S
C919 C920 1.387 . S
C920 H905 0.930 . S
C920 C915 1.390 . S
C920 C919 1.387 . S
H921 C933 0.930 . S
H922 C935 0.930 . S
H923 C936 0.930 . S
H924 C940 0.959 . S
H925 C940 0.959 . S
H926 C940 0.961 . S
H927 C941 0.960 . S
H928 C941 0.961 . S
H929 C941 0.959 . S
H930 C944 0.929 . S
H931 C945 0.931 . S
H932 C947 0.930 . S
C933 H921 0.930 . S
C933 C934 1.399 . S
C933 C938 1.399 . S
C934 C933 1.399 . S
C934 C935 1.376 . S
C935 H922 0.930 . S
C935 C934 1.376 . S
C935 C936 1.388 . S
C936 H923 0.930 . S
C936 C935 1.388 . S
C936 C937 1.390 . S
C937 C936 1.390 . S
C937 C938 1.394 . S
C937 C943 1.465 . S
C938 C933 1.399 . S
C938 C937 1.394 . S
C938 C939 1.516 . S
C939 C938 1.516 . S
C939 C940 1.502 . S
C939 C941 1.561 . S
C939 C942 1.526 . S
C940 H924 0.959 . S
C940 H925 0.959 . S
C940 H926 0.961 . S
C940 C939 1.502 . S
C941 H927 0.960 . S
C941 H928 0.961 . S
C941 H929 0.959 . S
C941 C939 1.561 . S
C942 C939 1.526 . S
C942 C943 1.396 . S
C942 C947 1.390 . S
C943 C937 1.465 . S
C943 C942 1.396 . S
C943 C944 1.399 . S
C944 H930 0.929 . S
C944 C943 1.399 . S
C944 C945 1.385 . S
C945 H931 0.931 . S
C945 C944 1.385 . S
C945 C946 1.389 . S
C946 C945 1.389 . S
C946 C947 1.387 . S
C947 H932 0.930 . S
C947 C942 1.390 . S
C947 C946 1.387 . S
H948 C960 0.930 . S
H949 C962 0.930 . S
H950 C963 0.930 . S
H951 C967 0.959 . S
H952 C967 0.959 . S
H953 C967 0.961 . S
H954 C968 0.960 . S
H955 C968 0.961 . S
H956 C968 0.959 . S
H957 C971 0.929 . S
H958 C972 0.931 . S
H959 C974 0.930 . S
C960 H948 0.930 . S
C960 C961 1.399 . S
C960 C965 1.399 . S
C961 C960 1.399 . S
C961 C962 1.376 . S
C962 H949 0.930 . S
C962 C961 1.376 . S
C962 C963 1.388 . S
C963 H950 0.930 . S
C963 C962 1.388 . S
C963 C964 1.390 . S
C964 C963 1.390 . S
C964 C965 1.394 . S
C964 C970 1.465 . S
C965 C960 1.399 . S
C965 C964 1.394 . S
C965 C966 1.516 . S
C966 C965 1.516 . S
C966 C967 1.502 . S
C966 C968 1.561 . S
C966 C969 1.526 . S
C967 H951 0.959 . S
C967 H952 0.959 . S
C967 H953 0.961 . S
C967 C966 1.502 . S
C968 H954 0.960 . S
C968 H955 0.961 . S
C968 H956 0.959 . S
C968 C966 1.561 . S
C969 C966 1.526 . S
C969 C970 1.396 . S
C969 C974 1.390 . S
C970 C964 1.465 . S
C970 C969 1.396 . S
C970 C971 1.399 . S
C971 H957 0.929 . S
C971 C970 1.399 . S
C971 C972 1.385 . S
C972 H958 0.931 . S
C972 C971 1.385 . S
C972 C973 1.389 . S
C973 C972 1.389 . S
C973 C974 1.387 . S
C974 H959 0.930 . S
C974 C969 1.390 . S
C974 C973 1.387 . S
H975 C987 0.930 . S
H976 C989 0.930 . S
H977 C990 0.930 . S
H978 C994 0.959 . S
H979 C994 0.959 . S
H980 C994 0.961 . S
H981 C995 0.960 . S
H982 C995 0.961 . S
H983 C995 0.959 . S
H984 C998 0.929 . S
H985 C999 0.931 . S
H986 C1001 0.930 . S
C987 H975 0.930 . S
C987 C988 1.399 . S
C987 C992 1.399 . S
C988 C987 1.399 . S
C988 C989 1.376 . S
C989 H976 0.930 . S
C989 C988 1.376 . S
C989 C990 1.388 . S
C990 H977 0.930 . S
C990 C989 1.388 . S
C990 C991 1.390 . S
C991 C990 1.390 . S
C991 C992 1.394 . S
C991 C997 1.465 . S
C992 C987 1.399 . S
C992 C991 1.394 . S
C992 C993 1.516 . S
C993 C992 1.516 . S
C993 C994 1.502 . S
C993 C995 1.561 . S
C993 C996 1.526 . S
C994 H978 0.959 . S
C994 H979 0.959 . S
C994 H980 0.961 . S
C994 C993 1.502 . S
C995 H981 0.960 . S
C995 H982 0.961 . S
C995 H983 0.959 . S
C995 C993 1.561 . S
C996 C993 1.526 . S
C996 C997 1.396 . S
C996 C1001 1.390 . S
C997 C991 1.465 . S
C997 C996 1.396 . S
C997 C998 1.399 . S
C998 H984 0.929 . S
C998 C997 1.399 . S
C998 C999 1.385 . S
C999 H985 0.931 . S
C999 C998 1.385 . S
C999 C1000 1.389 . S
C1000 C999 1.389 . S
C1000 C1001 1.387 . S
C1001 H986 0.930 . S
C1001 C996 1.390 . S
C1001 C1000 1.387 . S
H1002 C1014 0.930 . S
H1003 C1016 0.930 . S
H1004 C1017 0.930 . S
H1005 C1021 0.959 . S
H1006 C1021 0.959 . S
H1007 C1021 0.961 . S
H1008 C1022 0.960 . S
H1009 C1022 0.961 . S
H1010 C1022 0.959 . S
H1011 C1025 0.929 . S
H1012 C1026 0.931 . S
H1013 C1028 0.930 . S
C1014 H1002 0.930 . S
C1014 C1015 1.399 . S
C1014 C1019 1.399 . S
C1015 C1014 1.399 . S
C1015 C1016 1.376 . S
C1016 H1003 0.930 . S
C1016 C1015 1.376 . S
C1016 C1017 1.388 . S
C1017 H1004 0.930 . S
C1017 C1016 1.388 . S
C1017 C1018 1.390 . S
C1018 C1017 1.390 . S
C1018 C1019 1.394 . S
C1018 C1024 1.465 . S
C1019 C1014 1.399 . S
C1019 C1018 1.394 . S
C1019 C1020 1.516 . S
C1020 C1019 1.516 . S
C1020 C1021 1.502 . S
C1020 C1022 1.561 . S
C1020 C1023 1.526 . S
C1021 H1005 0.959 . S
C1021 H1006 0.959 . S
C1021 H1007 0.961 . S
C1021 C1020 1.502 . S
C1022 H1008 0.960 . S
C1022 H1009 0.961 . S
C1022 H1010 0.959 . S
C1022 C1020 1.561 . S
C1023 C1020 1.526 . S
C1023 C1024 1.396 . S
C1023 C1028 1.390 . S
C1024 C1018 1.465 . S
C1024 C1023 1.396 . S
C1024 C1025 1.399 . S
C1025 H1011 0.929 . S
C1025 C1024 1.399 . S
C1025 C1026 1.385 . S
C1026 H1012 0.931 . S
C1026 C1025 1.385 . S
C1026 C1027 1.389 . S
C1027 C1026 1.389 . S
C1027 C1028 1.387 . S
C1028 H1013 0.930 . S
C1028 C1023 1.390 . S
C1028 C1027 1.387 . S
H1029 C1041 0.930 . S
H1030 C1043 0.930 . S
H1031 C1044 0.930 . S
H1032 C1048 0.959 . S
H1033 C1048 0.959 . S
H1034 C1048 0.961 . S
H1035 C1049 0.960 . S
H1036 C1049 0.961 . S
H1037 C1049 0.959 . S
H1038 C1052 0.929 . S
H1039 C1053 0.931 . S
H1040 C1055 0.930 . S
C1041 H1029 0.930 . S
C1041 C1042 1.399 . S
C1041 C1046 1.399 . S
C1042 C1041 1.399 . S
C1042 C1043 1.376 . S
C1043 H1030 0.930 . S
C1043 C1042 1.376 . S
C1043 C1044 1.388 . S
C1044 H1031 0.930 . S
C1044 C1043 1.388 . S
C1044 C1045 1.390 . S
C1045 C1044 1.390 . S
C1045 C1046 1.394 . S
C1045 C1051 1.465 . S
C1046 C1041 1.399 . S
C1046 C1045 1.394 . S
C1046 C1047 1.516 . S
C1047 C1046 1.516 . S
C1047 C1048 1.502 . S
C1047 C1049 1.561 . S
C1047 C1050 1.526 . S
C1048 H1032 0.959 . S
C1048 H1033 0.959 . S
C1048 H1034 0.961 . S
C1048 C1047 1.502 . S
C1049 H1035 0.960 . S
C1049 H1036 0.961 . S
C1049 H1037 0.959 . S
C1049 C1047 1.561 . S
C1050 C1047 1.526 . S
C1050 C1051 1.396 . S
C1050 C1055 1.390 . S
C1051 C1045 1.465 . S
C1051 C1050 1.396 . S
C1051 C1052 1.399 . S
C1052 H1038 0.929 . S
C1052 C1051 1.399 . S
C1052 C1053 1.385 . S
C1053 H1039 0.931 . S
C1053 C1052 1.385 . S
C1053 C1054 1.389 . S
C1054 C1053 1.389 . S
C1054 C1055 1.387 . S
C1055 H1040 0.930 . S
C1055 C1050 1.390 . S
C1055 C1054 1.387 . S
H1056 C1068 0.930 . S
H1057 C1070 0.930 . S
H1058 C1071 0.930 . S
H1059 C1075 0.959 . S
H1060 C1075 0.959 . S
H1061 C1075 0.961 . S
H1062 C1076 0.960 . S
H1063 C1076 0.961 . S
H1064 C1076 0.959 . S
H1065 C1079 0.929 . S
H1066 C1080 0.931 . S
H1067 C1082 0.930 . S
C1068 H1056 0.930 . S
C1068 C1069 1.399 . S
C1068 C1073 1.399 . S
C1069 C1068 1.399 . S
C1069 C1070 1.376 . S
C1070 H1057 0.930 . S
C1070 C1069 1.376 . S
C1070 C1071 1.388 . S
C1071 H1058 0.930 . S
C1071 C1070 1.388 . S
C1071 C1072 1.390 . S
C1072 C1071 1.390 . S
C1072 C1073 1.394 . S
C1072 C1078 1.465 . S
C1073 C1068 1.399 . S
C1073 C1072 1.394 . S
C1073 C1074 1.516 . S
C1074 C1073 1.516 . S
C1074 C1075 1.502 . S
C1074 C1076 1.561 . S
C1074 C1077 1.526 . S
C1075 H1059 0.959 . S
C1075 H1060 0.959 . S
C1075 H1061 0.961 . S
C1075 C1074 1.502 . S
C1076 H1062 0.960 . S
C1076 H1063 0.961 . S
C1076 H1064 0.959 . S
C1076 C1074 1.561 . S
C1077 C1074 1.526 . S
C1077 C1078 1.396 . S
C1077 C1082 1.390 . S
C1078 C1072 1.465 . S
C1078 C1077 1.396 . S
C1078 C1079 1.399 . S
C1079 H1065 0.929 . S
C1079 C1078 1.399 . S
C1079 C1080 1.385 . S
C1080 H1066 0.931 . S
C1080 C1079 1.385 . S
C1080 C1081 1.389 . S
C1081 C1080 1.389 . S
C1081 C1082 1.387 . S
C1082 H1067 0.930 . S
C1082 C1077 1.390 . S
C1082 C1081 1.387 . S
H1083 C1095 0.930 . S
H1084 C1097 0.930 . S
H1085 C1098 0.930 . S
H1086 C1102 0.959 . S
H1087 C1102 0.959 . S
H1088 C1102 0.961 . S
H1089 C1103 0.960 . S
H1090 C1103 0.961 . S
H1091 C1103 0.959 . S
H1092 C1106 0.929 . S
H1093 C1107 0.931 . S
H1094 C1109 0.930 . S
C1095 H1083 0.930 . S
C1095 C1096 1.399 . S
C1095 C1100 1.399 . S
C1096 C1095 1.399 . S
C1096 C1097 1.376 . S
C1097 H1084 0.930 . S
C1097 C1096 1.376 . S
C1097 C1098 1.388 . S
C1098 H1085 0.930 . S
C1098 C1097 1.388 . S
C1098 C1099 1.390 . S
C1099 C1098 1.390 . S
C1099 C1100 1.394 . S
C1099 C1105 1.465 . S
C1100 C1095 1.399 . S
C1100 C1099 1.394 . S
C1100 C1101 1.516 . S
C1101 C1100 1.516 . S
C1101 C1102 1.502 . S
C1101 C1103 1.561 . S
C1101 C1104 1.526 . S
C1102 H1086 0.959 . S
C1102 H1087 0.959 . S
C1102 H1088 0.961 . S
C1102 C1101 1.502 . S
C1103 H1089 0.960 . S
C1103 H1090 0.961 . S
C1103 H1091 0.959 . S
C1103 C1101 1.561 . S
C1104 C1101 1.526 . S
C1104 C1105 1.396 . S
C1104 C1109 1.390 . S
C1105 C1099 1.465 . S
C1105 C1104 1.396 . S
C1105 C1106 1.399 . S
C1106 H1092 0.929 . S
C1106 C1105 1.399 . S
C1106 C1107 1.385 . S
C1107 H1093 0.931 . S
C1107 C1106 1.385 . S
C1107 C1108 1.389 . S
C1108 C1107 1.389 . S
C1108 C1109 1.387 . S
C1109 H1094 0.930 . S
C1109 C1104 1.390 . S
C1109 C1108 1.387 . S
H1110 C1122 0.930 . S
H1111 C1124 0.930 . S
H1112 C1125 0.930 . S
H1113 C1129 0.959 . S
H1114 C1129 0.959 . S
H1115 C1129 0.961 . S
H1116 C1130 0.960 . S
H1117 C1130 0.961 . S
H1118 C1130 0.959 . S
H1119 C1133 0.929 . S
H1120 C1134 0.931 . S
H1121 C1136 0.930 . S
C1122 H1110 0.930 . S
C1122 C1123 1.399 . S
C1122 C1127 1.399 . S
C1123 C1122 1.399 . S
C1123 C1124 1.376 . S
C1124 H1111 0.930 . S
C1124 C1123 1.376 . S
C1124 C1125 1.388 . S
C1125 H1112 0.930 . S
C1125 C1124 1.388 . S
C1125 C1126 1.390 . S
C1126 C1125 1.390 . S
C1126 C1127 1.394 . S
C1126 C1132 1.465 . S
C1127 C1122 1.399 . S
C1127 C1126 1.394 . S
C1127 C1128 1.516 . S
C1128 C1127 1.516 . S
C1128 C1129 1.502 . S
C1128 C1130 1.561 . S
C1128 C1131 1.526 . S
C1129 H1113 0.959 . S
C1129 H1114 0.959 . S
C1129 H1115 0.961 . S
C1129 C1128 1.502 . S
C1130 H1116 0.960 . S
C1130 H1117 0.961 . S
C1130 H1118 0.959 . S
C1130 C1128 1.561 . S
C1131 C1128 1.526 . S
C1131 C1132 1.396 . S
C1131 C1136 1.390 . S
C1132 C1126 1.465 . S
C1132 C1131 1.396 . S
C1132 C1133 1.399 . S
C1133 H1119 0.929 . S
C1133 C1132 1.399 . S
C1133 C1134 1.385 . S
C1134 H1120 0.931 . S
C1134 C1133 1.385 . S
C1134 C1135 1.389 . S
C1135 C1134 1.389 . S
C1135 C1136 1.387 . S
C1136 H1121 0.930 . S
C1136 C1131 1.390 . S
C1136 C1135 1.387 . S
H1137 C1149 0.930 . S
H1138 C1151 0.930 . S
H1139 C1152 0.930 . S
H1140 C1156 0.959 . S
H1141 C1156 0.959 . S
H1142 C1156 0.961 . S
H1143 C1157 0.960 . S
H1144 C1157 0.961 . S
H1145 C1157 0.959 . S
H1146 C1160 0.929 . S
H1147 C1161 0.931 . S
H1148 C1163 0.930 . S
C1149 H1137 0.930 . S
C1149 C1150 1.399 . S
C1149 C1154 1.399 . S
C1150 C1149 1.399 . S
C1150 C1151 1.376 . S
C1151 H1138 0.930 . S
C1151 C1150 1.376 . S
C1151 C1152 1.388 . S
C1152 H1139 0.930 . S
C1152 C1151 1.388 . S
C1152 C1153 1.390 . S
C1153 C1152 1.390 . S
C1153 C1154 1.394 . S
C1153 C1159 1.465 . S
C1154 C1149 1.399 . S
C1154 C1153 1.394 . S
C1154 C1155 1.516 . S
C1155 C1154 1.516 . S
C1155 C1156 1.502 . S
C1155 C1157 1.561 . S
C1155 C1158 1.526 . S
C1156 H1140 0.959 . S
C1156 H1141 0.959 . S
C1156 H1142 0.961 . S
C1156 C1155 1.502 . S
C1157 H1143 0.960 . S
C1157 H1144 0.961 . S
C1157 H1145 0.959 . S
C1157 C1155 1.561 . S
C1158 C1155 1.526 . S
C1158 C1159 1.396 . S
C1158 C1163 1.390 . S
C1159 C1153 1.465 . S
C1159 C1158 1.396 . S
C1159 C1160 1.399 . S
C1160 H1146 0.929 . S
C1160 C1159 1.399 . S
C1160 C1161 1.385 . S
C1161 H1147 0.931 . S
C1161 C1160 1.385 . S
C1161 C1162 1.389 . S
C1162 C1161 1.389 . S
C1162 C1163 1.387 . S
C1163 H1148 0.930 . S
C1163 C1158 1.390 . S
C1163 C1162 1.387 . S
H1164 C1176 0.930 . S
H1165 C1178 0.930 . S
H1166 C1179 0.930 . S
H1167 C1183 0.959 . S
H1168 C1183 0.959 . S
H1169 C1183 0.961 . S
H1170 C1184 0.960 . S
H1171 C1184 0.961 . S
H1172 C1184 0.959 . S
H1173 C1187 0.929 . S
H1174 C1188 0.931 . S
H1175 C1190 0.930 . S
C1176 H1164 0.930 . S
C1176 C1177 1.399 . S
C1176 C1181 1.399 . S
C1177 C1176 1.399 . S
C1177 C1178 1.376 . S
C1178 H1165 0.930 . S
C1178 C1177 1.376 . S
C1178 C1179 1.388 . S
C1179 H1166 0.930 . S
C1179 C1178 1.388 . S
C1179 C1180 1.390 . S
C1180 C1179 1.390 . S
C1180 C1181 1.394 . S
C1180 C1186 1.465 . S
C1181 C1176 1.399 . S
C1181 C1180 1.394 . S
C1181 C1182 1.516 . S
C1182 C1181 1.516 . S
C1182 C1183 1.502 . S
C1182 C1184 1.561 . S
C1182 C1185 1.526 . S
C1183 H1167 0.959 . S
C1183 H1168 0.959 . S
C1183 H1169 0.961 . S
C1183 C1182 1.502 . S
C1184 H1170 0.960 . S
C1184 H1171 0.961 . S
C1184 H1172 0.959 . S
C1184 C1182 1.561 . S
C1185 C1182 1.526 . S
C1185 C1186 1.396 . S
C1185 C1190 1.390 . S
C1186 C1180 1.465 . S
C1186 C1185 1.396 . S
C1186 C1187 1.399 . S
C1187 H1173 0.929 . S
C1187 C1186 1.399 . S
C1187 C1188 1.385 . S
C1188 H1174 0.931 . S
C1188 C1187 1.385 . S
C1188 C1189 1.389 . S
C1189 C1188 1.389 . S
C1189 C1190 1.387 . S
C1190 H1175 0.930 . S
C1190 C1185 1.390 . S
C1190 C1189 1.387 . S
H1191 C1203 0.930 . S
H1192 C1205 0.930 . S
H1193 C1206 0.930 . S
H1194 C1210 0.959 . S
H1195 C1210 0.959 . S
H1196 C1210 0.961 . S
H1197 C1211 0.960 . S
H1198 C1211 0.961 . S
H1199 C1211 0.959 . S
H1200 C1214 0.929 . S
H1201 C1215 0.931 . S
H1202 C1217 0.930 . S
C1203 H1191 0.930 . S
C1203 C1204 1.399 . S
C1203 C1208 1.399 . S
C1204 C1203 1.399 . S
C1204 C1205 1.376 . S
C1205 H1192 0.930 . S
C1205 C1204 1.376 . S
C1205 C1206 1.388 . S
C1206 H1193 0.930 . S
C1206 C1205 1.388 . S
C1206 C1207 1.390 . S
C1207 C1206 1.390 . S
C1207 C1208 1.394 . S
C1207 C1213 1.465 . S
C1208 C1203 1.399 . S
C1208 C1207 1.394 . S
C1208 C1209 1.516 . S
C1209 C1208 1.516 . S
C1209 C1210 1.502 . S
C1209 C1211 1.561 . S
C1209 C1212 1.526 . S
C1210 H1194 0.959 . S
C1210 H1195 0.959 . S
C1210 H1196 0.961 . S
C1210 C1209 1.502 . S
C1211 H1197 0.960 . S
C1211 H1198 0.961 . S
C1211 H1199 0.959 . S
C1211 C1209 1.561 . S
C1212 C1209 1.526 . S
C1212 C1213 1.396 . S
C1212 C1217 1.390 . S
C1213 C1207 1.465 . S
C1213 C1212 1.396 . S
C1213 C1214 1.399 . S
C1214 H1200 0.929 . S
C1214 C1213 1.399 . S
C1214 C1215 1.385 . S
C1215 H1201 0.931 . S
C1215 C1214 1.385 . S
C1215 C1216 1.389 . S
C1216 C1215 1.389 . S
C1216 C1217 1.387 . S
C1217 H1202 0.930 . S
C1217 C1212 1.390 . S
C1217 C1216 1.387 . S
C421 C315 1.683 . S
C433 C9 1.651 . S
C448 C43 1.676 . S
C460 C349 1.635 . S
C475 C383 1.591 . S
C487 C77 1.628 . S
C502 C111 1.685 . S
C514 C213 1.665 . S
C529 C145 1.595 . S
C541 C247 1.637 . S
C556 C281 1.681 . S
C568 C179 1.646 . S
C583 C342 1.349 . S
C595 C2 1.351 . S
C610 C376 1.368 . S
C622 C36 1.371 . S
C637 C70 1.369 . S
C649 C206 1.372 . S
C664 C240 1.385 . S
C676 C104 1.383 . S
C691 C274 1.346 . S
C703 C138 1.347 . S
C718 C172 1.367 . S
C730 C308 1.364 . S
C745 C258 1.486 . S
C757 C122 1.487 . S
C772 C292 1.520 . S
C784 C156 1.519 . S
C799 C190 1.484 . S
C811 C326 1.484 . S
C826 C20 1.484 . S
C838 C360 1.486 . S
C853 C54 1.509 . S
C865 C394 1.510 . S
C880 C224 1.507 . S
C892 C88 1.506 . S
C907 C5 1.475 . S
C919 C169 1.461 . S
C934 C39 1.451 . S
C946 C203 1.482 . S
C961 C73 1.484 . S
C973 C33 1.459 . S
C988 C67 1.471 . S
C1000 C107 1.470 . S
C1015 C141 1.454 . S
C1027 C101 1.471 . S
C1042 C135 1.476 . S
C1054 C175 1.463 . S
C1069 C305 1.468 . S
C1081 C209 1.475 . S
C1096 C339 1.474 . S
C1108 C243 1.449 . S
C1123 C373 1.468 . S
C1135 C277 1.459 . S
C1150 C311 1.469 . S
C1162 C407 1.464 . S
C1177 C237 1.469 . S
C1189 C345 1.456 . S
C1204 C379 1.435 . S
C1216 C271 1.489 . S
