# Generated by pormake.
# Topology wjz, (5)-cn, num edge types: 1
# Building blocks:
#     Node 0, Type 0, BuildingBlock: XOMCOT_clean_sbu_0, # of connection points: 5
#     Node 1, Type 0, BuildingBlock: XOMCOT_clean_sbu_0, # of connection points: 5
#     Node 2, Type 0, BuildingBlock: XOMCOT_clean_sbu_0, # of connection points: 5
#     Node 3, Type 0, BuildingBlock: XOMCOT_clean_sbu_0, # of connection points: 5
#     Node 4, Type 0, BuildingBlock: XOMCOT_clean_sbu_0, # of connection points: 5
#     Node 5, Type 0, BuildingBlock: XOMCOT_clean_sbu_0, # of connection points: 5
#     Node 6, Type 0, BuildingBlock: XOMCOT_clean_sbu_0, # of connection points: 5
#     Node 7, Type 0, BuildingBlock: XOMCOT_clean_sbu_0, # of connection points: 5
#     Node 8, Type 0, BuildingBlock: XOMCOT_clean_sbu_0, # of connection points: 5
#     Node 9, Type 0, BuildingBlock: XOMCOT_clean_sbu_0, # of connection points: 5
#     Node 10, Type 0, BuildingBlock: XOMCOT_clean_sbu_0, # of connection points: 5
#     Node 11, Type 0, BuildingBlock: XOMCOT_clean_sbu_0, # of connection points: 5
#     Edge 12, Type (0, 0), BuildingBlock: XUDNAN_clean_linker_2, # of connection points: 2
#     Edge 13, Type (0, 0), BuildingBlock: XUDNAN_clean_linker_2, # of connection points: 2
#     Edge 14, Type (0, 0), BuildingBlock: XUDNAN_clean_linker_2, # of connection points: 2
#     Edge 15, Type (0, 0), BuildingBlock: XUDNAN_clean_linker_2, # of connection points: 2
#     Edge 16, Type (0, 0), BuildingBlock: XUDNAN_clean_linker_2, # of connection points: 2
#     Edge 17, Type (0, 0), BuildingBlock: XUDNAN_clean_linker_2, # of connection points: 2
#     Edge 18, Type (0, 0), BuildingBlock: XUDNAN_clean_linker_2, # of connection points: 2
#     Edge 19, Type (0, 0), BuildingBlock: XUDNAN_clean_linker_2, # of connection points: 2
#     Edge 20, Type (0, 0), BuildingBlock: XUDNAN_clean_linker_2, # of connection points: 2
#     Edge 21, Type (0, 0), BuildingBlock: XUDNAN_clean_linker_2, # of connection points: 2
#     Edge 22, Type (0, 0), BuildingBlock: XUDNAN_clean_linker_2, # of connection points: 2
#     Edge 23, Type (0, 0), BuildingBlock: XUDNAN_clean_linker_2, # of connection points: 2
#     Edge 24, Type (0, 0), BuildingBlock: XUDNAN_clean_linker_2, # of connection points: 2
#     Edge 25, Type (0, 0), BuildingBlock: XUDNAN_clean_linker_2, # of connection points: 2
#     Edge 26, Type (0, 0), BuildingBlock: XUDNAN_clean_linker_2, # of connection points: 2
#     Edge 27, Type (0, 0), BuildingBlock: XUDNAN_clean_linker_2, # of connection points: 2
#     Edge 28, Type (0, 0), BuildingBlock: XUDNAN_clean_linker_2, # of connection points: 2
#     Edge 29, Type (0, 0), BuildingBlock: XUDNAN_clean_linker_2, # of connection points: 2
#     Edge 30, Type (0, 0), BuildingBlock: XUDNAN_clean_linker_2, # of connection points: 2
#     Edge 31, Type (0, 0), BuildingBlock: XUDNAN_clean_linker_2, # of connection points: 2
#     Edge 32, Type (0, 0), BuildingBlock: XUDNAN_clean_linker_2, # of connection points: 2
#     Edge 33, Type (0, 0), BuildingBlock: XUDNAN_clean_linker_2, # of connection points: 2
#     Edge 34, Type (0, 0), BuildingBlock: XUDNAN_clean_linker_2, # of connection points: 2
#     Edge 35, Type (0, 0), BuildingBlock: XUDNAN_clean_linker_2, # of connection points: 2
#     Edge 36, Type (0, 0), BuildingBlock: XUDNAN_clean_linker_2, # of connection points: 2
#     Edge 37, Type (0, 0), BuildingBlock: XUDNAN_clean_linker_2, # of connection points: 2
#     Edge 38, Type (0, 0), BuildingBlock: XUDNAN_clean_linker_2, # of connection points: 2
#     Edge 39, Type (0, 0), BuildingBlock: XUDNAN_clean_linker_2, # of connection points: 2
#     Edge 40, Type (0, 0), BuildingBlock: XUDNAN_clean_linker_2, # of connection points: 2
#     Edge 41, Type (0, 0), BuildingBlock: XUDNAN_clean_linker_2, # of connection points: 2
# Relax obj value: 0.149
# Max RMSD: 0.180
# Mean RMSD: 0.180
data_MOF--net-wjz--node1-XOMCOT_clean_sbu_0--edge1-XUDNAN_clean_linker_2
_symmetry_space_group_name_H-M    P1
_symmetry_Int_Tables_number       1
_symmetry_cell_setting            triclinic
loop_
_symmetry_equiv_pos_as_xyz
'x, y, z'
_cell_length_a     73.177101
_cell_length_b     73.200762
_cell_length_c     17.47114
_cell_angle_alpha  90.01909
_cell_angle_beta   89.988209
_cell_angle_gamma 119.96959
loop_
_atom_site_label
_atom_site_type_symbol
_atom_site_fract_x
_atom_site_fract_y
_atom_site_fract_z
_atom_type_partial_charge
Co0 Co 0.32578 0.47641 0.11826 0.0
C1 C 0.32869 0.47818 0.28736 0.0
C2 C 0.34452 0.5092 0.23989 0.0
C3 C 0.34382 0.51084 0.31856 0.0
N4 N 0.33549 0.48864 0.22011 0.0
N5 N 0.33363 0.49124 0.34802 0.0
H6 H 0.31861 0.46133 0.2919 0.0
H7 H 0.34968 0.52212 0.19994 0.0
C8 C 0.36875 0.51325 0.08089 0.0
O9 O 0.3769 0.5095 0.14176 0.0
N10 N 0.31548 0.46408 0.01839 0.0
C11 C 0.30517 0.44327 1.00307 0.0
C12 C 0.30085 0.44044 0.92603 0.0
C13 C 0.31738 0.4737 0.95037 0.0
N14 N 0.30857 0.45954 0.89289 0.0
C15 C 0.33945 0.44803 0.17502 0.0
C16 C 0.3698 0.45746 0.06402 0.0
C17 C 0.36776 0.44372 0.12336 0.0
C18 C 0.35192 0.43851 0.17812 0.0
C19 C 0.35684 0.46635 0.06255 0.0
N20 N 0.34279 0.46269 0.12027 0.0
H21 H 0.32695 0.44331 0.21602 0.0
H22 H 0.35812 0.47618 0.01449 0.0
H23 H 0.30134 0.43101 0.045 0.0
H24 H 0.32477 0.49059 0.9431 0.0
O25 O 0.29995 0.45443 0.16342 0.0
O26 O 0.30522 0.48545 0.1228 0.0
O27 O 0.34907 0.50209 0.06646 0.0
C28 C 0.29274 0.46736 0.15488 0.0
H29 H 0.34869 0.52519 0.35073 0.0
H30 H 0.293 0.42547 0.89629 0.0
H31 H 0.38128 0.46121 0.0188 0.0
H32 H 0.34947 0.4275 0.22377 0.0
Co33 Co 0.84369 0.33283 0.3136 0.0
C34 C 0.8459 0.33916 0.48287 0.0
C35 C 0.83181 0.35482 0.42383 0.0
C36 C 0.83183 0.35855 0.50077 0.0
N37 N 0.84076 0.34285 0.41249 0.0
N38 N 0.84073 0.3488 0.53802 0.0
H39 H 0.85334 0.32981 0.49331 0.0
H40 H 0.82539 0.36018 0.37915 0.0
C41 C 0.86436 0.37244 0.21729 0.0
O42 O 0.87729 0.36688 0.18688 0.0
N43 N 0.84583 0.32297 0.21223 0.0
C44 C 0.85544 0.31239 0.18759 0.0
C45 C 0.85497 0.31184 0.10848 0.0
C46 C 0.83887 0.32775 0.148 0.0
N47 N 0.84486 0.32188 0.08385 0.0
C48 C 0.87875 0.32706 0.35256 0.0
C49 C 0.90813 0.36942 0.36711 0.0
C50 C 0.91468 0.35458 0.37572 0.0
C51 C 0.89966 0.33312 0.37061 0.0
C52 C 0.88706 0.36266 0.35094 0.0
N53 N 0.87294 0.34181 0.3384 0.0
H54 H 0.86718 0.31047 0.35042 0.0
H55 H 0.88216 0.3743 0.35001 0.0
H56 H 0.86297 0.30606 0.22312 0.0
H57 H 0.8306 0.33655 0.14828 0.0
O58 O 0.82982 0.3042 0.35293 0.0
O59 O 0.8138 0.31998 0.29983 0.0
O60 O 0.85119 0.36109 0.26892 0.0
C61 C 0.81225 0.3035 0.33394 0.0
H62 H 0.82532 0.36741 0.52737 0.0
H63 H 0.86265 0.30574 0.07204 0.0
H64 H 0.91915 0.3861 0.37451 0.0
H65 H 0.90407 0.32119 0.37966 0.0
Co66 Co 0.51851 0.8481 0.46016 0.0
C67 C 0.51463 0.84722 0.63137 0.0
C68 C 0.48612 0.84113 0.57544 0.0
C69 C 0.48222 0.83783 0.65248 0.0
N70 N 0.5066 0.84748 0.56142 0.0
N71 N 0.50011 0.84156 0.68767 0.0
H72 H 0.53017 0.84929 0.64055 0.0
H73 H 0.47408 0.83719 0.53277 0.0
C74 C 0.4875 0.8618 0.41272 0.0
O75 O 0.49654 0.87818 0.45859 0.0
N76 N 0.5295 0.84767 0.35959 0.0
C77 C 0.54984 0.85676 0.33756 0.0
C78 C 0.55049 0.85447 0.25926 0.0
C79 C 0.51811 0.83969 0.29508 0.0
N80 N 0.5305 0.84374 0.23271 0.0
C81 C 0.54866 0.88811 0.52224 0.0
C82 C 0.55184 0.91211 0.39549 0.0
C83 C 0.56517 0.92192 0.45822 0.0
C84 C 0.56319 0.90962 0.52251 0.0
C85 C 0.53734 0.89047 0.39786 0.0
N86 N 0.53571 0.87874 0.46116 0.0
H87 H 0.54852 0.8789 0.5703 0.0
H88 H 0.52776 0.88303 0.3479 0.0
H89 H 0.56322 0.8651 0.37533 0.0
H90 H 0.50107 0.83181 0.2934 0.0
O91 O 0.53869 0.84185 0.50542 0.0
O92 O 0.50647 0.8179 0.46759 0.0
O93 O 0.49407 0.84862 0.40897 0.0
C94 C 0.52435 0.82209 0.49867 0.0
H95 H 0.46705 0.83202 0.67999 0.0
H96 H 0.56458 0.86043 0.22457 0.0
H97 H 0.55303 0.92089 0.34404 0.0
H98 H 0.57299 0.91646 0.57263 0.0
Co99 Co 0.67198 0.5236 0.60291 0.0
C100 C 0.66705 0.51861 0.77238 0.0
C101 C 0.65503 0.48913 0.71266 0.0
C102 C 0.65166 0.48504 0.7896 0.0
N103 N 0.6645 0.51009 0.70181 0.0
N104 N 0.65912 0.50353 0.82718 0.0
H105 H 0.67409 0.53535 0.78315 0.0
H106 H 0.65084 0.4776 0.66751 0.0
C107 C 0.63126 0.50176 0.51422 0.0
O108 O 0.63494 0.5199 0.48568 0.0
N109 N 0.67936 0.53616 0.50135 0.0
C110 C 0.68806 0.55632 0.47718 0.0
C111 C 0.68811 0.55652 0.39802 0.0
C112 C 0.67516 0.52464 0.43675 0.0
N113 N 0.67965 0.5365 0.37299 0.0
C114 C 0.67384 0.56237 0.64725 0.0
C115 C 0.63106 0.54516 0.67264 0.0
C116 C 0.64433 0.56689 0.68037 0.0
C117 C 0.66603 0.57551 0.6697 0.0
C118 C 0.63957 0.5326 0.65175 0.0
N119 N 0.6605 0.54139 0.6341 0.0
H120 H 0.69066 0.56905 0.64093 0.0
H121 H 0.62926 0.51574 0.65122 0.0
H122 H 0.69358 0.57003 0.51312 0.0
H123 H 0.66799 0.50764 0.43662 0.0
O124 O 0.70091 0.54084 0.63701 0.0
O125 O 0.68749 0.50946 0.58155 0.0
O126 O 0.64398 0.50096 0.56237 0.0
C127 C 0.70363 0.5255 0.61299 0.0
H128 H 0.64441 0.4696 0.81592 0.0
H129 H 0.69297 0.5702 0.3619 0.0
H130 H 0.6143 0.53793 0.68393 0.0
H131 H 0.67677 0.59222 0.67795 0.0
Co132 Co 0.14993 0.66937 0.77379 0.0
C133 C 0.14852 0.66391 0.94281 0.0
C134 C 0.16716 0.65275 0.88604 0.0
C135 C 0.16714 0.64907 0.96305 0.0
N136 N 0.15534 0.66181 0.87335 0.0
N137 N 0.15541 0.65603 0.99858 0.0
H138 H 0.13841 0.67057 0.95208 0.0
H139 H 0.17524 0.64906 0.84218 0.0
C140 C 0.13466 0.62913 0.68522 0.0
O141 O 0.11904 0.63129 0.6587 0.0
N142 N 0.1455 0.67709 0.67155 0.0
C143 C 0.13614 0.68801 0.64794 0.0
C144 C 0.13591 0.68822 0.56889 0.0
C145 C 0.15199 0.67211 0.60657 0.0
N146 N 0.14557 0.67784 0.5433 0.0
C147 C 0.11014 0.6666 0.80464 0.0
C148 C 0.08821 0.62419 0.84071 0.0
C149 C 0.07781 0.63581 0.84286 0.0
C150 C 0.08898 0.65727 0.82568 0.0
C151 C 0.10946 0.63419 0.81959 0.0
N152 N 0.11991 0.65493 0.79782 0.0
H153 H 0.11885 0.68343 0.79727 0.0
H154 H 0.11762 0.62534 0.82288 0.0
H155 H 0.12987 0.69544 0.68425 0.0
H156 H 0.16088 0.66395 0.6054 0.0
O157 O 0.15733 0.69691 0.81115 0.0
O158 O 0.17996 0.68829 0.76176 0.0
O159 O 0.14811 0.64278 0.73148 0.0
C160 C 0.17665 0.70253 0.7932 0.0
H161 H 0.17528 0.64197 0.99098 0.0
H162 H 0.12849 0.69475 0.53322 0.0
H163 H 0.08013 0.6077 0.85696 0.0
H164 H 0.08154 0.66684 0.83021 0.0
Co165 Co 0.4842 0.1495 0.94573 0.0
C166 C 0.48871 0.15297 0.11734 0.0
C167 C 0.51775 0.16239 0.05844 0.0
C168 C 0.52208 0.16646 0.13491 0.0
N169 N 0.49677 0.15343 0.04704 0.0
N170 N 0.50383 0.16061 0.17192 0.0
H171 H 0.47261 0.14886 0.12831 0.0
H172 H 0.52936 0.16667 0.01353 0.0
C173 C 0.50957 0.12803 0.93573 0.0
O174 O 0.50108 0.11899 1.00138 0.0
N175 N 0.47282 0.1467 0.84418 0.0
C176 C 0.45253 0.13794 0.82203 0.0
C177 C 0.45203 0.13978 0.74342 0.0
C178 C 0.48433 0.15389 0.77977 0.0
N179 N 0.47208 0.14993 0.71726 0.0
C180 C 0.44833 0.11575 0.02316 0.0
C181 C 0.44788 0.08341 0.94016 0.0
C182 C 0.43439 0.07829 1.00352 0.0
C183 C 0.43415 0.09486 0.04325 0.0
C184 C 0.46146 0.10447 0.92139 0.0
N185 N 0.46286 0.12033 0.96674 0.0
H186 H 0.44742 0.12821 0.05247 0.0
H187 H 0.47129 0.10798 0.87126 0.0
H188 H 0.43911 0.13082 0.86023 0.0
H189 H 0.50139 0.1618 0.7789 0.0
O190 O 0.46915 0.16356 0.97926 0.0
O191 O 0.50145 0.17937 0.93022 0.0
O192 O 0.50452 0.14072 0.9047 0.0
C193 C 0.486 0.18103 0.95968 0.0
H194 H 0.53756 0.17376 0.16092 0.0
H195 H 0.43806 0.13449 0.70851 0.0
H196 H 0.44855 0.07138 0.90631 0.0
H197 H 0.42314 0.09178 0.08953 0.0
Co198 Co 0.51433 0.66408 0.73997 0.0
C199 C 0.51046 0.65632 0.56895 0.0
C200 C 0.4818 0.65027 0.62418 0.0
C201 C 0.47777 0.64623 0.54762 0.0
N202 N 0.50213 0.65609 0.63831 0.0
N203 N 0.49577 0.65005 0.51315 0.0
H204 H 0.5267 0.661 0.55825 0.0
H205 H 0.47061 0.6491 0.66711 0.0
C206 C 0.47973 0.61964 0.75305 0.0
O207 O 0.48701 0.6158 0.68996 0.0
N208 N 0.5255 0.67219 0.84195 0.0
C209 C 0.54587 0.68214 0.864 0.0
C210 C 0.54657 0.68128 0.94285 0.0
C211 C 0.51417 0.66571 0.90687 0.0
N212 N 0.52657 0.67069 0.96932 0.0
C213 C 0.54695 0.65692 0.68156 0.0
C214 C 0.54101 0.62616 0.78644 0.0
C215 C 0.55774 0.63332 0.73463 0.0
C216 C 0.56056 0.64871 0.6811 0.0
C217 C 0.5275 0.63444 0.78382 0.0
N218 N 0.53019 0.6493 0.7306 0.0
H219 H 0.55072 0.67028 0.6455 0.0
H220 H 0.51564 0.6297 0.82783 0.0
H221 H 0.5592 0.68843 0.82538 0.0
H222 H 0.49712 0.6568 0.90819 0.0
O223 O 0.53538 0.69121 0.7021 0.0
O224 O 0.50368 0.68352 0.74409 0.0
O225 O 0.48893 0.63812 0.78235 0.0
C226 C 0.52173 0.6973 0.71455 0.0
H227 H 0.4629 0.64135 0.51907 0.0
H228 H 0.56063 0.68681 0.97745 0.0
H229 H 0.53869 0.61463 0.82985 0.0
H230 H 0.57385 0.65516 0.6421 0.0
Co231 Co 0.85008 0.51934 0.89115 0.0
C232 C 0.85572 0.51688 0.72093 0.0
C233 C 0.84284 0.48702 0.77742 0.0
C234 C 0.84318 0.48381 0.70029 0.0
N235 N 0.85144 0.50784 0.79151 0.0
N236 N 0.85127 0.50255 0.66455 0.0
H237 H 0.86088 0.53326 0.71013 0.0
H238 H 0.83551 0.47468 0.81976 0.0
C239 C 0.86394 0.4882 0.93462 0.0
O240 O 0.87844 0.49577 0.88084 0.0
N241 N 0.84778 0.53 0.9905 0.0
C242 C 0.8567 0.55031 0.01282 0.0
C243 C 0.8566 0.55102 0.09204 0.0
C244 C 0.84193 0.51874 0.05597 0.0
N245 N 0.84762 0.53111 0.11891 0.0
C246 C 0.89114 0.55236 0.84165 0.0
C247 C 0.91299 0.54919 0.96523 0.0
C248 C 0.92429 0.56365 0.90714 0.0
C249 C 0.91306 0.56536 0.84512 0.0
C250 C 0.89119 0.53656 0.95944 0.0
N251 N 0.88058 0.5375 0.89655 0.0
H252 H 0.88268 0.55464 0.79583 0.0
H253 H 0.88284 0.526 0.00615 0.0
H254 H 0.86453 0.5637 0.97476 0.0
H255 H 0.835 0.50183 0.05788 0.0
O256 O 0.84246 0.53814 0.84063 0.0
O257 O 0.82009 0.50537 0.87866 0.0
O258 O 0.85166 0.49572 0.94448 0.0
C259 C 0.82318 0.52237 0.84379 0.0
H260 H 0.83684 0.46865 0.67224 0.0
H261 H 0.86436 0.5651 0.12693 0.0
H262 H 0.92092 0.5474 0.01458 0.0
H263 H 0.92107 0.5769 0.80041 0.0
Co264 Co 0.33216 0.85023 0.05453 0.0
C265 C 0.33524 0.85258 0.88538 0.0
C266 C 0.35661 0.84363 0.93186 0.0
C267 C 0.3564 0.84164 0.8532 0.0
N268 N 0.3436 0.85093 0.95241 0.0
N269 N 0.34272 0.84705 0.82437 0.0
H270 H 0.32257 0.85607 0.88114 0.0
H271 H 0.36424 0.83812 0.9709 0.0
C272 C 0.37639 0.86161 0.09744 0.0
O273 O 0.38389 0.87779 0.05054 0.0
N274 N 0.32023 0.84899 0.15475 0.0
C275 C 0.30637 0.8555 0.17061 0.0
C276 C 0.30184 0.8529 0.24744 0.0
C277 C 0.32417 0.84271 0.22257 0.0
N278 N 0.31304 0.84492 0.2801 0.0
C279 C 0.34232 0.89162 1.00508 0.0
C280 C 0.36663 0.91316 0.13032 0.0
C281 C 0.36328 0.92455 0.07283 0.0
C282 C 0.35072 0.91338 0.00998 0.0
C283 C 0.35763 0.89132 0.1237 0.0
N284 N 0.34629 0.88087 0.06021 0.0
H285 H 0.33196 0.88337 0.95816 0.0
H286 H 0.35973 0.88279 0.17008 0.0
H287 H 0.30025 0.86209 0.12933 0.0
H288 H 0.33488 0.83668 0.22987 0.0
O289 O 0.30604 0.84505 0.00883 0.0
O290 O 0.31354 0.82023 0.04151 0.0
O291 O 0.35652 0.84925 0.10418 0.0
C292 C 0.30025 0.82513 0.01151 0.0
H293 H 0.36415 0.83488 0.82059 0.0
H294 H 0.29151 0.85709 0.27747 0.0
H295 H 0.37614 0.92095 0.18017 0.0
H296 H 0.34686 0.92123 0.96567 0.0
Co297 Co 0.48708 0.33501 0.20776 0.0
C298 C 0.49039 0.34261 0.03717 0.0
C299 C 0.52013 0.35864 0.09509 0.0
C300 C 0.52369 0.36222 0.01806 0.0
N301 N 0.49919 0.34697 0.10801 0.0
N302 N 0.50501 0.35217 0.98153 0.0
H303 H 0.47391 0.33205 0.02558 0.0
H304 H 0.53219 0.3635 0.13853 0.0
C305 C 0.51727 0.38087 0.24443 0.0
O306 O 0.51037 0.38683 0.18546 0.0
N307 N 0.47594 0.32313 0.3076 0.0
C308 C 0.4556 0.31195 0.3297 0.0
C309 C 0.45485 0.31149 0.40895 0.0
C310 C 0.48718 0.32885 0.37304 0.0
N311 N 0.47477 0.32245 0.43584 0.0
C312 C 0.45309 0.3404 0.14779 0.0
C313 C 0.45807 0.37073 0.25324 0.0
C314 C 0.445 0.36703 0.18999 0.0
C315 C 0.44163 0.35092 0.1388 0.0
C316 C 0.46889 0.35967 0.26047 0.0
N317 N 0.46784 0.34618 0.2043 0.0
H318 H 0.45027 0.32786 0.10888 0.0
H319 H 0.47877 0.36264 0.3101 0.0
H320 H 0.44225 0.3061 0.29131 0.0
H321 H 0.50413 0.33866 0.37478 0.0
O322 O 0.46995 0.30763 0.15981 0.0
O323 O 0.50251 0.32032 0.20467 0.0
O324 O 0.50954 0.3613 0.25973 0.0
C325 C 0.48644 0.30539 0.16879 0.0
H326 H 0.53898 0.37079 0.99072 0.0
H327 H 0.44075 0.3052 0.44376 0.0
H328 H 0.46039 0.38252 0.29556 0.0
H329 H 0.43101 0.34715 0.09067 0.0
Co330 Co 0.14314 0.47285 0.409 0.0
C331 C 0.1394 0.47664 0.238 0.0
C332 C 0.15651 0.50631 0.29578 0.0
C333 C 0.15678 0.51013 0.21897 0.0
N334 N 0.14497 0.48536 0.30874 0.0
N335 N 0.146 0.49151 0.18258 0.0
H336 H 0.13157 0.45998 0.22618 0.0
H337 H 0.16502 0.51811 0.33905 0.0
C338 C 0.13291 0.50694 0.44329 0.0
O339 O 0.11916 0.49984 0.38697 0.0
N340 N 0.14245 0.46141 0.50944 0.0
C341 C 0.13181 0.44108 0.5319 0.0
C342 C 0.13147 0.44048 0.61107 0.0
C343 C 0.1488 0.47276 0.5745 0.0
N344 N 0.1419 0.46047 0.63744 0.0
C345 C 0.10197 0.44196 0.35396 0.0
C346 C 0.07953 0.44589 0.47388 0.0
C347 C 0.06865 0.43096 0.4168 0.0
C348 C 0.08005 0.4291 0.35601 0.0
C349 C 0.10138 0.45876 0.46867 0.0
N350 N 0.11236 0.45712 0.40815 0.0
H351 H 0.11059 0.43885 0.31107 0.0
H352 H 0.10953 0.4695 0.51518 0.0
H353 H 0.12345 0.42779 0.49375 0.0
H354 H 0.15724 0.48979 0.5759 0.0
O355 O 0.14842 0.45193 0.36347 0.0
O356 O 0.17312 0.48359 0.40331 0.0
O357 O 0.14366 0.49802 0.45895 0.0
C358 C 0.16836 0.46564 0.37163 0.0
H359 H 0.16509 0.52543 0.19162 0.0
H360 H 0.12273 0.42656 0.64616 0.0
H361 H 0.07124 0.44745 0.52259 0.0
H362 H 0.07219 0.41715 0.31237 0.0
Co363 Co 0.6583 0.14557 0.55005 0.0
C364 C 0.65487 0.14706 0.3807 0.0
C365 C 0.63152 0.15142 0.43947 0.0
C366 C 0.62997 0.15407 0.36224 0.0
N367 N 0.64712 0.14707 0.45112 0.0
N368 N 0.64471 0.15146 0.32526 0.0
H369 H 0.66835 0.14504 0.3707 0.0
H370 H 0.62245 0.15341 0.48421 0.0
C371 C 0.62131 0.12095 0.65041 0.0
O372 O 0.63045 0.11005 0.66938 0.0
N373 N 0.66953 0.14499 0.6511 0.0
C374 C 0.68149 0.13686 0.67567 0.0
C375 C 0.68382 0.1393 0.75416 0.0
C376 C 0.66546 0.15283 0.71489 0.0
N377 N 0.6736 0.14925 0.77886 0.0
C378 C 0.6671 0.11236 0.5121 0.0
C379 C 0.62553 0.08137 0.4918 0.0
C380 C 0.64125 0.07579 0.48602 0.0
C381 C 0.66238 0.09185 0.49383 0.0
C382 C 0.63103 0.10209 0.50841 0.0
N383 N 0.65141 0.1169 0.52479 0.0
H384 H 0.68342 0.12463 0.51534 0.0
H385 H 0.61871 0.10612 0.50886 0.0
H386 H 0.68807 0.1295 0.64059 0.0
H387 H 0.65576 0.16014 0.71451 0.0
O388 O 0.68655 0.1607 0.50882 0.0
O389 O 0.66953 0.17546 0.56209 0.0
O390 O 0.62979 0.13551 0.59984 0.0
C391 C 0.68636 0.17779 0.52783 0.0
H392 H 0.61914 0.15814 0.33549 0.0
H393 H 0.69237 0.13407 0.7901 0.0
H394 H 0.60899 0.06985 0.48522 0.0
H395 H 0.67521 0.0887 0.48559 0.0
H396 H 0.35414 0.50934 0.48154 0.0
H397 H 0.29514 0.45959 0.38901 0.0
H398 H 0.28173 0.44793 0.51962 0.0
H399 H 0.3576 0.4793 0.63545 0.0
H400 H 0.36837 0.50063 0.70369 0.0
H401 H 0.37304 0.50619 0.60295 0.0
H402 H 0.35736 0.53096 0.61169 0.0
H403 H 0.35264 0.5254 0.71254 0.0
H404 H 0.33122 0.52105 0.65012 0.0
H405 H 0.27523 0.44017 0.65784 0.0
H406 H 0.27615 0.43637 0.79779 0.0
H407 H 0.33902 0.491 0.80543 0.0
C408 C 0.33833 0.49618 0.48918 0.0
C409 C 0.32574 0.48524 0.42506 0.0
C410 C 0.30519 0.46795 0.43709 0.0
C411 C 0.29736 0.46133 0.51114 0.0
C412 C 0.31022 0.47217 0.57303 0.0
C413 C 0.33026 0.48924 0.56324 0.0
C414 C 0.34106 0.49734 0.64023 0.0
C415 C 0.36121 0.49576 0.64588 0.0
C416 C 0.34585 0.52004 0.65447 0.0
C417 C 0.32405 0.48193 0.69433 0.0
C418 C 0.30637 0.46768 0.65399 0.0
C419 C 0.28891 0.45132 0.69018 0.0
C420 C 0.2896 0.44923 0.7696 0.0
C421 C 0.30759 0.46339 0.81243 0.0
C422 C 0.32492 0.48018 0.77428 0.0
H423 H 0.84268 0.30172 0.9494 0.0
H424 H 0.84712 0.35867 0.04385 0.0
H425 H 0.84786 0.37182 0.91398 0.0
H426 H 0.87726 0.32662 0.78663 0.0
H427 H 0.86181 0.30531 0.72138 0.0
H428 H 0.86183 0.30004 0.82213 0.0
H429 H 0.82109 0.28231 0.8253 0.0
H430 H 0.82095 0.2874 0.72451 0.0
H431 H 0.80865 0.2967 0.79137 0.0
H432 H 0.84883 0.37948 0.77634 0.0
H433 H 0.84701 0.37996 0.63595 0.0
H434 H 0.84113 0.31799 0.62592 0.0
C435 C 0.84388 0.31697 0.9425 0.0
C436 C 0.84466 0.32905 0.00707 0.0
C437 C 0.8461 0.34891 0.99571 0.0
C438 C 0.84678 0.35667 0.92202 0.0
C439 C 0.84604 0.34446 0.85984 0.0
C440 C 0.84445 0.32497 0.86886 0.0
C441 C 0.84323 0.31489 0.79151 0.0
C442 C 0.86216 0.31152 0.77974 0.0
C443 C 0.82223 0.29409 0.78267 0.0
C444 C 0.84434 0.33178 0.73801 0.0
C445 C 0.84613 0.34873 0.77909 0.0
C446 C 0.84728 0.36625 0.74343 0.0
C447 C 0.84611 0.36631 0.66357 0.0
C448 C 0.84367 0.34893 0.61975 0.0
C449 C 0.84313 0.33157 0.65769 0.0
H450 H 0.55158 0.86534 0.10419 0.0
H451 H 0.49354 0.81104 0.18235 0.0
H452 H 0.48044 0.80372 0.04962 0.0
H453 H 0.52839 0.88234 0.96457 0.0
H454 H 0.54933 0.89043 0.89547 0.0
H455 H 0.55491 0.89078 0.99599 0.0
H456 H 0.57092 0.86676 0.97119 0.0
H457 H 0.56544 0.86638 0.87044 0.0
H458 H 0.55542 0.84196 0.92241 0.0
H459 H 0.47265 0.8033 0.91073 0.0
H460 H 0.4707 0.80967 0.77324 0.0
H461 H 0.53384 0.86385 0.78187 0.0
C462 C 0.53629 0.85168 0.09325 0.0
C463 C 0.52358 0.83878 0.1541 0.0
C464 C 0.50347 0.8213 0.13716 0.0
C465 C 0.49594 0.81693 0.06177 0.0
C466 C 0.50871 0.8301 1.00348 0.0
C467 C 0.5285 0.84707 0.01805 0.0
C468 C 0.53862 0.8592 0.94496 0.0
C469 C 0.54307 0.88204 0.95062 0.0
C470 C 0.55879 0.85853 0.92615 0.0
C471 C 0.52128 0.84655 0.88735 0.0
C472 C 0.50423 0.82979 0.92257 0.0
C473 C 0.48595 0.81629 0.88244 0.0
C474 C 0.48493 0.82012 0.80444 0.0
C475 C 0.50208 0.83729 0.76695 0.0
C476 C 0.52062 0.85049 0.80893 0.0
H477 H 0.68689 0.53649 0.91636 0.0
H478 H 0.62879 0.47618 0.92298 0.0
H479 H 0.62769 0.47869 0.06315 0.0
H480 H 0.70944 0.52907 0.08559 0.0
H481 H 0.72105 0.55595 0.11828 0.0
H482 H 0.71697 0.55014 0.01748 0.0
H483 H 0.69517 0.56911 0.00883 0.0
H484 H 0.69928 0.57509 0.10958 0.0
H485 H 0.67287 0.56116 0.07148 0.0
H486 H 0.63342 0.48652 0.20151 0.0
H487 H 0.64496 0.50001 0.33192 0.0
H488 H 0.69935 0.55565 0.23953 0.0
C489 C 0.67381 0.52401 0.94734 0.0
C490 C 0.658 0.50604 0.90864 0.0
C491 C 0.64125 0.48989 0.95134 0.0
C492 C 0.64041 0.49123 0.031 0.0
C493 C 0.65641 0.50888 0.0675 0.0
C494 C 0.67273 0.52507 0.02738 0.0
C495 C 0.68813 0.54201 0.08159 0.0
C496 C 0.7102 0.54442 0.07534 0.0
C497 C 0.6889 0.56309 0.06699 0.0
C498 C 0.67796 0.53265 0.15823 0.0
C499 C 0.65967 0.51352 0.14838 0.0
C500 C 0.64767 0.50151 0.21009 0.0
C501 C 0.6545 0.50923 0.28406 0.0
C502 C 0.67318 0.52881 0.29608 0.0
C503 C 0.68497 0.5407 0.23205 0.0
H504 H 0.15252 0.68505 0.08742 0.0
H505 H 0.149 0.62415 0.09217 0.0
H506 H 0.14479 0.62279 0.23244 0.0
H507 H 0.18303 0.70499 0.25573 0.0
H508 H 0.17008 0.71891 0.28943 0.0
H509 H 0.17105 0.71453 0.18846 0.0
H510 H 0.13032 0.69625 0.18069 0.0
H511 H 0.12922 0.70072 0.2816 0.0
H512 H 0.11443 0.67439 0.2433 0.0
H513 H 0.14319 0.62871 0.37085 0.0
H514 H 0.1432 0.64115 0.50156 0.0
H515 H 0.14799 0.69856 0.41053 0.0
C516 C 0.15043 0.67129 0.11811 0.0
C517 C 0.1511 0.65469 0.07927 0.0
C518 C 0.14873 0.63709 0.12115 0.0
C519 C 0.14623 0.63613 0.20066 0.0
C520 C 0.14615 0.65294 0.23753 0.0
C521 C 0.14807 0.67016 0.19794 0.0
C522 C 0.14847 0.68649 0.25249 0.0
C523 C 0.1694 0.70747 0.24613 0.0
C524 C 0.12947 0.68964 0.23869 0.0
C525 C 0.1467 0.67581 0.32875 0.0
C526 C 0.14533 0.65645 0.31843 0.0
C527 C 0.14419 0.64382 0.37978 0.0
C528 C 0.14443 0.65114 0.45389 0.0
C529 C 0.14581 0.67093 0.46631 0.0
C530 C 0.14682 0.68334 0.40268 0.0
H531 H 0.45191 0.12922 0.5867 0.0
H532 H 0.50849 0.184 0.67147 0.0
H533 H 0.52174 0.19352 0.53949 0.0
H534 H 0.47704 0.11579 0.4415 0.0
H535 H 0.45604 0.1076 0.37262 0.0
H536 H 0.45026 0.10564 0.47344 0.0
H537 H 0.43237 0.12823 0.45526 0.0
H538 H 0.43811 0.13026 0.35428 0.0
H539 H 0.44689 0.1538 0.41074 0.0
H540 H 0.52966 0.19644 0.40046 0.0
H541 H 0.53209 0.19231 0.26155 0.0
H542 H 0.47053 0.1357 0.2642 0.0
C543 C 0.46692 0.14339 0.57726 0.0
C544 C 0.47919 0.15585 0.63952 0.0
C545 C 0.49894 0.17407 0.62491 0.0
C546 C 0.50653 0.17971 0.55006 0.0
C547 C 0.49418 0.16699 0.49017 0.0
C548 C 0.47479 0.14922 0.50265 0.0
C549 C 0.46517 0.13783 0.42799 0.0
C550 C 0.46195 0.11539 0.42898 0.0
C551 C 0.4444 0.13752 0.41109 0.0
C552 C 0.48231 0.15187 0.37191 0.0
C553 C 0.49882 0.16865 0.4092 0.0
C554 C 0.51681 0.18341 0.37052 0.0
C555 C 0.5181 0.18085 0.29168 0.0
C556 C 0.50155 0.16364 0.25211 0.0
C557 C 0.4833 0.14913 0.29281 0.0
H558 H 0.52886 0.67689 0.42456 0.0
H559 H 0.46828 0.61924 0.42039 0.0
H560 H 0.47085 0.61726 0.28 0.0
H561 H 0.52066 0.69878 0.2581 0.0
H562 H 0.54742 0.71075 0.22375 0.0
H563 H 0.5421 0.70654 0.32474 0.0
H564 H 0.56158 0.68518 0.33063 0.0
H565 H 0.5671 0.68945 0.22962 0.0
H566 H 0.55366 0.663 0.26741 0.0
H567 H 0.47867 0.62254 0.1416 0.0
H568 H 0.49123 0.63479 0.0111 0.0
H569 H 0.54645 0.68987 0.10211 0.0
C570 C 0.51644 0.66363 0.39397 0.0
C571 C 0.49841 0.64812 0.43276 0.0
C572 C 0.48215 0.63125 0.39119 0.0
C573 C 0.48352 0.62997 0.31175 0.0
C574 C 0.50127 0.64573 0.27484 0.0
C575 C 0.51748 0.66225 0.3143 0.0
C576 C 0.53406 0.67785 0.25979 0.0
C577 C 0.53617 0.69977 0.26705 0.0
C578 C 0.55536 0.67892 0.27264 0.0
C579 C 0.52444 0.66765 0.18365 0.0
C580 C 0.50561 0.64906 0.19398 0.0
C581 C 0.49341 0.63706 0.13269 0.0
C582 C 0.50058 0.64429 0.05863 0.0
C583 C 0.51971 0.66343 0.04621 0.0
C584 C 0.53186 0.67513 0.10981 0.0
H585 H 0.84636 0.53121 0.57843 0.0
H586 H 0.86093 0.48067 0.56474 0.0
H587 H 0.86185 0.48308 0.4242 0.0
H588 H 0.81237 0.51569 0.41566 0.0
H589 H 0.8211 0.54207 0.38204 0.0
H590 H 0.82252 0.53735 0.48248 0.0
H591 H 0.86247 0.56467 0.48278 0.0
H592 H 0.86115 0.56958 0.38241 0.0
H593 H 0.87961 0.56185 0.41566 0.0
H594 H 0.85981 0.48946 0.28686 0.0
H595 H 0.85643 0.50065 0.15767 0.0
H596 H 0.84331 0.54748 0.25445 0.0
C597 C 0.8501 0.52095 0.54572 0.0
C598 C 0.85349 0.50565 0.58269 0.0
C599 C 0.85802 0.49229 0.53775 0.0
C600 C 0.85866 0.4936 0.45785 0.0
C601 C 0.85481 0.50844 0.4231 0.0
C602 C 0.85077 0.52202 0.46516 0.0
C603 C 0.84674 0.53616 0.41226 0.0
C604 C 0.82435 0.5326 0.42382 0.0
C605 C 0.86349 0.55945 0.42398 0.0
C606 C 0.84902 0.52824 0.33427 0.0
C607 C 0.85365 0.51221 0.34244 0.0
C608 C 0.85617 0.50198 0.27964 0.0
C609 C 0.85396 0.50829 0.20631 0.0
C610 C 0.84923 0.52468 0.19568 0.0
C611 C 0.84689 0.53489 0.26082 0.0
H612 H 0.34679 0.85162 0.3674 0.0
H613 H 0.27961 0.82895 0.37494 0.0
H614 H 0.27982 0.82509 0.51509 0.0
H615 H 0.34763 0.81784 0.52489 0.0
H616 H 0.37249 0.83833 0.56184 0.0
H617 H 0.36681 0.83734 0.46104 0.0
H618 H 0.37413 0.87575 0.46695 0.0
H619 H 0.37967 0.87683 0.56776 0.0
H620 H 0.35973 0.8825 0.53416 0.0
H621 H 0.28744 0.82634 0.65356 0.0
H622 H 0.30197 0.83178 0.78408 0.0
H623 H 0.36449 0.85381 0.69086 0.0
C624 C 0.33209 0.84535 0.3986 0.0
C625 C 0.31313 0.84051 0.36045 0.0
C626 C 0.29427 0.83283 0.40322 0.0
C627 C 0.29423 0.83051 0.48273 0.0
C628 C 0.31321 0.83593 0.51896 0.0
C629 C 0.3318 0.84306 0.47857 0.0
C630 C 0.35018 0.84893 0.53269 0.0
C631 C 0.35984 0.83476 0.51931 0.0
C632 C 0.36691 0.8724 0.52491 0.0
C633 C 0.33903 0.84436 0.60959 0.0
C634 C 0.31768 0.83676 0.59995 0.0
C635 C 0.30411 0.83218 0.66192 0.0
C636 C 0.31255 0.83552 0.73587 0.0
C637 C 0.33439 0.84341 0.74759 0.0
C638 C 0.34773 0.84764 0.68344 0.0
H639 H 0.47528 0.31966 0.8946 0.0
H640 H 0.52812 0.38362 0.88279 0.0
H641 H 0.52532 0.38278 0.74233 0.0
H642 H 0.48891 0.30041 0.72926 0.0
H643 H 0.46221 0.28393 0.6963 0.0
H644 H 0.46741 0.28961 0.79684 0.0
H645 H 0.44161 0.30412 0.80042 0.0
H646 H 0.43623 0.29839 0.69992 0.0
H647 H 0.44533 0.32472 0.73487 0.0
H648 H 0.51809 0.37511 0.60488 0.0
H649 H 0.5062 0.36116 0.47542 0.0
H650 H 0.45782 0.30182 0.57082 0.0
C651 C 0.486 0.33356 0.86235 0.0
C652 C 0.50202 0.35171 0.89974 0.0
C653 C 0.51595 0.36948 0.85542 0.0
C654 C 0.51441 0.3692 0.7756 0.0
C655 C 0.49879 0.35102 0.74044 0.0
C656 C 0.48473 0.33353 0.78197 0.0
C657 C 0.46983 0.31587 0.72875 0.0
C658 C 0.47224 0.2963 0.73838 0.0
C659 C 0.44689 0.31046 0.74177 0.0
C660 C 0.4779 0.32619 0.65111 0.0
C661 C 0.49461 0.34648 0.65975 0.0
C662 C 0.50506 0.35922 0.59728 0.0
C663 C 0.49833 0.35105 0.52379 0.0
C664 C 0.48134 0.33026 0.51272 0.0
C665 C 0.47086 0.31774 0.57752 0.0
H666 H 0.14443 0.45972 0.09511 0.0
H667 H 0.14115 0.51723 0.08509 0.0
H668 H 0.13898 0.51479 0.94454 0.0
H669 H 0.17679 0.47008 0.93079 0.0
H670 H 0.16384 0.44323 0.89693 0.0
H671 H 0.16391 0.44856 0.99762 0.0
H672 H 0.1231 0.42661 1.00022 0.0
H673 H 0.1229 0.42109 0.89958 0.0
H674 H 0.10806 0.43295 0.93464 0.0
H675 H 0.13888 0.50749 0.80691 0.0
H676 H 0.1396 0.49499 0.67717 0.0
H677 H 0.14286 0.44185 0.77178 0.0
C678 C 0.14287 0.47155 0.06324 0.0
C679 C 0.14305 0.48875 0.10099 0.0
C680 C 0.14132 0.50411 0.05728 0.0
C681 C 0.13998 0.5028 0.97747 0.0
C682 C 0.1403 0.48596 0.94189 0.0
C683 C 0.14157 0.47051 0.98297 0.0
C684 C 0.14224 0.45447 0.9295 0.0
C685 C 0.16293 0.45407 0.93931 0.0
C686 C 0.12292 0.43247 0.94172 0.0
C687 C 0.14137 0.46352 0.85223 0.0
C688 C 0.14024 0.48168 0.8612 0.0
C689 C 0.13974 0.49328 0.79901 0.0
C690 C 0.14039 0.48614 0.7254 0.0
C691 C 0.14157 0.46757 0.71417 0.0
C692 C 0.14191 0.45605 0.77868 0.0
H693 H 0.67545 0.12953 0.90978 0.0
H694 H 0.66462 0.17924 0.82675 0.0
H695 H 0.6571 0.18562 0.95824 0.0
H696 H 0.635 0.10911 0.05032 0.0
H697 H 0.64981 0.10377 0.12037 0.0
H698 H 0.65523 0.10348 0.01997 0.0
H699 H 0.69448 0.1312 0.04298 0.0
H700 H 0.6892 0.13153 0.14359 0.0
H701 H 0.70111 0.15574 0.08953 0.0
H702 H 0.64917 0.18573 0.09704 0.0
H703 H 0.64208 0.18011 0.23541 0.0
H704 H 0.65879 0.13101 0.23212 0.0
C705 C 0.67185 0.142 0.91921 0.0
C706 C 0.67057 0.1538 0.85709 0.0
C707 C 0.66543 0.16973 0.87255 0.0
C708 C 0.66126 0.17359 0.94736 0.0
C709 C 0.66239 0.16151 0.0068 0.0
C710 C 0.66768 0.14612 0.99387 0.0
C711 C 0.6673 0.1351 0.06817 0.0
C712 C 0.65086 0.11147 0.06445 0.0
C713 C 0.68934 0.13861 0.08717 0.0
C714 C 0.66075 0.14658 0.12461 0.0
C715 C 0.65802 0.16175 0.08768 0.0
C716 C 0.65134 0.17396 0.12662 0.0
C717 C 0.64721 0.17055 0.20522 0.0
C718 C 0.64979 0.15507 0.2447 0.0
C719 C 0.65688 0.14309 0.2037 0.0
H720 H 0.4709 0.6134 0.90618 0.0
H721 H 0.44635 0.58707 0.68223 0.0
H722 H 0.41465 0.55788 0.74259 0.0
H723 H 0.45418 0.56373 0.99781 0.0
H724 H 0.44791 0.5714 0.08774 0.0
H725 H 0.46797 0.59102 0.02686 0.0
H726 H 0.44826 0.61217 0.02667 0.0
H727 H 0.42819 0.59261 0.08775 0.0
H728 H 0.42097 0.59934 0.99788 0.0
H729 H 0.3858 0.53207 0.8257 0.0
H730 H 0.36254 0.50896 0.92747 0.0
H731 H 0.40654 0.55024 0.09973 0.0
C732 C 0.45871 0.60158 0.87017 0.0
C733 C 0.46085 0.60249 0.78974 0.0
C734 C 0.4449 0.58657 0.74401 0.0
C735 C 0.42685 0.57003 0.77772 0.0
C736 C 0.42521 0.56951 0.85722 0.0
C737 C 0.44078 0.58468 0.90307 0.0
C738 C 0.43562 0.57964 0.98725 0.0
C739 C 0.45242 0.57624 0.02724 0.0
C740 C 0.43311 0.59697 0.02722 0.0
C741 C 0.4147 0.55923 0.98138 0.0
C742 C 0.40891 0.55393 0.90572 0.0
C743 C 0.39014 0.53603 0.88515 0.0
C744 C 0.37696 0.52308 0.94345 0.0
C745 C 0.38267 0.5279 0.0214 0.0
C746 C 0.40184 0.54619 0.04056 0.0
H747 H 0.88552 0.39792 0.09387 0.0
H748 H 0.84142 0.38909 0.27623 0.0
H749 H 0.83746 0.41809 0.22458 0.0
H750 H 0.91081 0.45574 0.08695 0.0
H751 H 0.91359 0.45683 0.98428 0.0
H752 H 0.91392 0.43588 0.03721 0.0
H753 H 0.88311 0.40811 0.95394 0.0
H754 H 0.88297 0.42911 0.90076 0.0
H755 H 0.85917 0.40935 0.94641 0.0
H756 H 0.83559 0.4454 0.14919 0.0
H757 H 0.83817 0.47215 0.05887 0.0
H758 H 0.88499 0.46565 0.92728 0.0
C759 C 0.8753 0.40232 0.12356 0.0
C760 C 0.86377 0.39118 0.18913 0.0
C761 C 0.85039 0.3973 0.22587 0.0
C762 C 0.84801 0.41377 0.197 0.0
C763 C 0.85922 0.42413 0.13163 0.0
C764 C 0.87278 0.41889 0.09561 0.0
C765 C 0.88259 0.4325 0.02524 0.0
C766 C 0.90666 0.44604 0.03398 0.0
C767 C 0.8766 0.41895 0.95229 0.0
C768 C 0.87217 0.44595 0.02717 0.0
C769 C 0.85869 0.4407 0.08896 0.0
C770 C 0.84638 0.44997 0.10131 0.0
C771 C 0.84801 0.46524 0.04953 0.0
C772 C 0.86212 0.47143 0.98672 0.0
C773 C 0.8743 0.46153 0.97535 0.0
H774 H 0.41451 0.8906 0.15845 0.0
H775 H 0.37053 0.82343 0.14134 0.0
H776 H 0.39433 0.81623 0.21989 0.0
H777 H 0.46271 0.8886 0.15371 0.0
H778 H 0.47589 0.90909 0.22418 0.0
H779 H 0.45583 0.90894 0.164 0.0
H780 H 0.43529 0.90928 0.28432 0.0
H781 H 0.45525 0.90937 0.34491 0.0
H782 H 0.42804 0.88914 0.35613 0.0
H783 H 0.42343 0.81628 0.29508 0.0
H784 H 0.45466 0.82357 0.3721 0.0
H785 H 0.47842 0.89078 0.35057 0.0
C786 C 0.41004 0.87439 0.17077 0.0
C787 C 0.39087 0.85752 0.14324 0.0
C788 C 0.38523 0.83653 0.16181 0.0
C789 C 0.39863 0.8323 0.20619 0.0
C790 C 0.41741 0.84927 0.23272 0.0
C791 C 0.42302 0.86991 0.21662 0.0
C792 C 0.44363 0.88524 0.25524 0.0
C793 C 0.46051 0.89876 0.19572 0.0
C794 C 0.44035 0.89907 0.31362 0.0
C795 C 0.44886 0.86998 0.29469 0.0
C796 C 0.43362 0.84931 0.28018 0.0
C797 C 0.43536 0.83238 0.30754 0.0
C798 C 0.45315 0.83668 0.35101 0.0
C799 C 0.46877 0.85771 0.36777 0.0
C800 C 0.46651 0.87455 0.33957 0.0
H801 H 0.53901 0.4243 0.23044 0.0
H802 H 0.53315 0.37314 0.3737 0.0
H803 H 0.55966 0.39872 0.46169 0.0
H804 H 0.59523 0.45609 0.24991 0.0
H805 H 0.59548 0.48083 0.25116 0.0
H806 H 0.5749 0.45856 0.20089 0.0
H807 H 0.5467 0.46182 0.28014 0.0
H808 H 0.56723 0.48406 0.33084 0.0
H809 H 0.54773 0.46149 0.38321 0.0
H810 H 0.58714 0.42913 0.53257 0.0
H811 H 0.6158 0.46307 0.57972 0.0
H812 H 0.60545 0.49524 0.39006 0.0
C813 C 0.54322 0.41851 0.28055 0.0
C814 C 0.53363 0.39665 0.29574 0.0
C815 C 0.53987 0.38973 0.36135 0.0
C816 C 0.555 0.40417 0.41179 0.0
C817 C 0.56402 0.42553 0.3955 0.0
C818 C 0.55858 0.43276 0.33129 0.0
C819 C 0.57161 0.45661 0.32579 0.0
C820 C 0.5851 0.46342 0.2526 0.0
C821 C 0.55747 0.46658 0.33028 0.0
C822 C 0.5852 0.46152 0.39679 0.0
C823 C 0.5804 0.44331 0.43622 0.0
C824 C 0.59106 0.44354 0.50244 0.0
C825 C 0.60733 0.46292 0.52867 0.0
C826 C 0.61286 0.48182 0.48866 0.0
C827 C 0.60144 0.48109 0.42233 0.0
H828 H 0.11321 0.53036 0.4261 0.0
H829 H 0.15966 0.5251 0.56464 0.0
H830 H 0.16487 0.5555 0.64179 0.0
H831 H 0.13983 0.58724 0.42389 0.0
H832 H 0.1158 0.58832 0.42963 0.0
H833 H 0.11568 0.56608 0.38496 0.0
H834 H 0.08599 0.54078 0.47725 0.0
H835 H 0.0861 0.56298 0.52224 0.0
H836 H 0.08993 0.54463 0.57916 0.0
H837 H 0.16546 0.58671 0.70306 0.0
H838 H 0.16098 0.61639 0.74545 0.0
H839 H 0.11396 0.6013 0.56813 0.0
C840 C 0.12448 0.53559 0.47262 0.0
C841 C 0.136 0.52528 0.48925 0.0
C842 C 0.15061 0.53267 0.55071 0.0
C843 C 0.15371 0.54996 0.59492 0.0
C844 C 0.14212 0.55975 0.57696 0.0
C845 C 0.12781 0.55287 0.51733 0.0
C846 C 0.11738 0.56622 0.51023 0.0
C847 C 0.12248 0.57764 0.43257 0.0
C848 C 0.09343 0.55285 0.523 0.0
C849 C 0.12804 0.58163 0.57533 0.0
C850 C 0.14231 0.57766 0.61287 0.0
C851 C 0.1543 0.58995 0.67423 0.0
C852 C 0.15166 0.6068 0.69781 0.0
C853 C 0.13707 0.61113 0.66032 0.0
C854 C 0.12511 0.5983 0.59838 0.0
H855 H 0.60119 0.14433 0.64592 0.0
H856 H 0.59836 0.08918 0.75092 0.0
H857 H 0.56851 0.08427 0.83044 0.0
H858 H 0.59076 0.16421 0.81378 0.0
H859 H 0.57468 0.17334 0.76833 0.0
H860 H 0.59479 0.17176 0.71431 0.0
H861 H 0.56696 0.14785 0.61414 0.0
H862 H 0.54675 0.14947 0.66761 0.0
H863 H 0.54377 0.12409 0.64517 0.0
H864 H 0.54109 0.0867 0.90561 0.0
H865 H 0.51636 0.09551 0.96868 0.0
H866 H 0.53607 0.14872 0.81484 0.0
C867 C 0.59403 0.13101 0.68462 0.0
C868 C 0.60211 0.11712 0.69201 0.0
C869 C 0.59248 0.10004 0.74411 0.0
C870 C 0.57548 0.09708 0.78958 0.0
C871 C 0.56817 0.11126 0.78212 0.0
C872 C 0.57696 0.12779 0.73062 0.0
C873 C 0.56656 0.1412 0.73654 0.0
C874 C 0.58266 0.16398 0.75963 0.0
C875 C 0.55534 0.14061 0.66139 0.0
C876 C 0.55083 0.12979 0.80022 0.0
C877 C 0.55204 0.11255 0.82545 0.0
C878 C 0.5398 0.10003 0.8859 0.0
C879 C 0.52587 0.10522 0.92158 0.0
C880 C 0.52424 0.12275 0.89659 0.0
C881 C 0.53683 0.1351 0.83476 0.0
H882 H 0.28027 0.49533 0.1963 0.0
H883 H 0.25883 0.42843 0.18455 0.0
H884 H 0.22442 0.4205 0.23957 0.0
H885 H 0.25633 0.49324 0.37757 0.0
H886 H 0.24987 0.51326 0.35302 0.0
H887 H 0.27233 0.51353 0.30964 0.0
H888 H 0.25734 0.51306 0.17473 0.0
H889 H 0.23489 0.51291 0.21765 0.0
H890 H 0.23103 0.49254 0.15072 0.0
H891 H 0.19197 0.42009 0.292 0.0
H892 H 0.16478 0.42721 0.34509 0.0
H893 H 0.2087 0.49445 0.33082 0.0
C894 C 0.26824 0.479 0.20455 0.0
C895 C 0.272 0.46244 0.18533 0.0
C896 C 0.25612 0.4413 0.19857 0.0
C897 C 0.23658 0.43667 0.22971 0.0
C898 C 0.23339 0.4534 0.24835 0.0
C899 C 0.24886 0.47414 0.23688 0.0
C900 C 0.24182 0.48926 0.26438 0.0
C901 C 0.25593 0.50314 0.33006 0.0
C902 C 0.24123 0.50273 0.1979 0.0
C903 C 0.21985 0.47379 0.29244 0.0
C904 C 0.2152 0.45318 0.28214 0.0
C905 C 0.19552 0.43616 0.30101 0.0
C906 C 0.18019 0.44035 0.33099 0.0
C907 C 0.18477 0.46135 0.34276 0.0
C908 C 0.2049 0.47823 0.32362 0.0
H909 H 0.80129 0.263 0.37736 0.0
H910 H 0.77632 0.3053 0.34735 0.0
H911 H 0.74204 0.27816 0.39825 0.0
H912 H 0.75298 0.21562 0.31942 0.0
H913 H 0.75619 0.19888 0.38723 0.0
H914 H 0.77903 0.22178 0.34926 0.0
H915 H 0.79148 0.23525 0.48724 0.0
H916 H 0.76855 0.21251 0.52561 0.0
H917 H 0.77408 0.23863 0.55131 0.0
H918 H 0.71127 0.24765 0.45872 0.0
H919 H 0.68386 0.21332 0.50941 0.0
H920 H 0.72731 0.18937 0.49235 0.0
C921 C 0.78853 0.26643 0.38113 0.0
C922 C 0.79145 0.28624 0.3585 0.0
C923 C 0.7744 0.29018 0.36388 0.0
C924 C 0.7549 0.27493 0.39322 0.0
C925 C 0.75257 0.25567 0.41593 0.0
C926 C 0.76872 0.25116 0.40897 0.0
C927 C 0.76161 0.22884 0.43514 0.0
C928 C 0.76251 0.21549 0.3688 0.0
C929 C 0.77471 0.22882 0.50392 0.0
C930 C 0.73904 0.22166 0.45826 0.0
C931 C 0.73431 0.23754 0.44772 0.0
C932 C 0.71468 0.235 0.46672 0.0
C933 C 0.69928 0.21551 0.4959 0.0
C934 C 0.7035 0.19875 0.50459 0.0
C935 C 0.72368 0.20193 0.48595 0.0
H936 H 0.49478 0.78174 0.53944 0.0
H937 H 0.56224 0.82523 0.5292 0.0
H938 H 0.56879 0.79832 0.5874 0.0
H939 H 0.49533 0.75957 0.7226 0.0
H940 H 0.475 0.73323 0.698 0.0
H941 H 0.47546 0.75562 0.65318 0.0
H942 H 0.47614 0.74074 0.51921 0.0
H943 H 0.47547 0.71821 0.56358 0.0
H944 H 0.49631 0.73424 0.49748 0.0
H945 H 0.56814 0.76667 0.64329 0.0
H946 H 0.56028 0.73212 0.69526 0.0
H947 H 0.49323 0.70968 0.6764 0.0
C948 C 0.51091 0.78548 0.54875 0.0
C949 C 0.52803 0.80546 0.52934 0.0
C950 C 0.54892 0.80997 0.54355 0.0
C951 C 0.5528 0.79481 0.57663 0.0
C952 C 0.5356 0.77534 0.59598 0.0
C953 C 0.51507 0.77062 0.58283 0.0
C954 C 0.49945 0.7486 0.61048 0.0
C955 C 0.48549 0.74931 0.6749 0.0
C956 C 0.48606 0.73463 0.5437 0.0
C957 C 0.51444 0.74163 0.64039 0.0
C958 C 0.53521 0.7573 0.63121 0.0
C959 C 0.55195 0.75433 0.65143 0.0
C960 C 0.54734 0.73469 0.68089 0.0
C961 C 0.52618 0.71841 0.69056 0.0
C962 C 0.50955 0.72203 0.67098 0.0
H963 H 0.80789 0.55002 0.84237 0.0
H964 H 0.80097 0.49316 0.738 0.0
H965 H 0.77243 0.49066 0.6557 0.0
H966 H 0.75308 0.53152 0.85385 0.0
H967 H 0.75504 0.55662 0.83436 0.0
H968 H 0.7768 0.55566 0.87817 0.0
H969 H 0.80151 0.57921 0.76972 0.0
H970 H 0.77974 0.58012 0.7253 0.0
H971 H 0.79476 0.57113 0.67143 0.0
H972 H 0.74375 0.49277 0.59113 0.0
H973 H 0.71384 0.49737 0.5549 0.0
H974 H 0.73732 0.55197 0.70421 0.0
C975 C 0.80046 0.53728 0.80131 0.0
C976 C 0.80648 0.52178 0.79581 0.0
C977 C 0.79636 0.50507 0.74284 0.0
C978 C 0.78031 0.50364 0.69553 0.0
C979 C 0.77445 0.51895 0.7026 0.0
C980 C 0.78398 0.53534 0.75458 0.0
C981 C 0.77309 0.54837 0.75547 0.0
C982 C 0.76396 0.54801 0.83518 0.0
C983 C 0.78818 0.57106 0.72888 0.0
C984 C 0.75575 0.53643 0.69716 0.0
C985 C 0.75717 0.51979 0.66647 0.0
C986 C 0.74251 0.50583 0.61419 0.0
C987 C 0.72556 0.50858 0.59405 0.0
C988 C 0.72328 0.52504 0.62663 0.0
C989 C 0.73883 0.53942 0.67762 0.0
H990 H 0.28872 0.78477 0.96784 0.0
H991 H 0.26659 0.82979 0.97643 0.0
H992 H 0.23331 0.80388 0.91432 0.0
H993 H 0.2665 0.76331 0.78171 0.0
H994 H 0.25963 0.73672 0.80651 0.0
H995 H 0.28179 0.75873 0.85206 0.0
H996 H 0.26559 0.7441 0.98551 0.0
H997 H 0.24351 0.72196 0.94046 0.0
H998 H 0.2391 0.7384 1.00594 0.0
H999 H 0.20195 0.77276 0.85754 0.0
H1000 H 0.17441 0.73827 0.80799 0.0
H1001 H 0.21743 0.71395 0.82884 0.0
C1002 C 0.27679 0.78908 0.95705 0.0
C1003 C 0.2801 0.80919 0.97741 0.0
C1004 C 0.26431 0.81443 0.96142 0.0
C1005 C 0.24539 0.79985 0.92602 0.0
C1006 C 0.24266 0.78022 0.9061 0.0
C1007 C 0.25791 0.77481 0.92072 0.0
C1008 C 0.25096 0.75264 0.89324 0.0
C1009 C 0.26559 0.75288 0.82959 0.0
C1010 C 0.24971 0.73844 0.96029 0.0
C1011 C 0.22925 0.74631 0.86225 0.0
C1012 C 0.22481 0.76249 0.87029 0.0
C1013 C 0.20532 0.76006 0.85001 0.0
C1014 C 0.1898 0.74045 0.82196 0.0
C1015 C 0.19397 0.72364 0.81371 0.0
C1016 C 0.21405 0.72673 0.83291 0.0
H1017 H 0.45683 0.26322 0.14726 0.0
H1018 H 0.5216 0.31099 0.09969 0.0
H1019 H 0.5272 0.28481 0.03134 0.0
H1020 H 0.46863 0.22234 0.18733 0.0
H1021 H 0.44487 0.20146 0.14508 0.0
H1022 H 0.44504 0.2243 0.18422 0.0
H1023 H 0.43215 0.23069 0.05415 0.0
H1024 H 0.43204 0.2079 0.0145 0.0
H1025 H 0.44697 0.2332 0.96846 0.0
H1026 H 0.52657 0.2541 0.97193 0.0
H1027 H 0.52069 0.21925 0.93352 0.0
H1028 H 0.45694 0.18999 0.02413 0.0
C1029 C 0.47206 0.26807 0.12168 0.0
C1030 C 0.48881 0.28905 0.12852 0.0
C1031 C 0.50865 0.29492 0.0955 0.0
C1032 C 0.51194 0.28022 0.05603 0.0
C1033 C 0.49529 0.25963 0.05075 0.0
C1034 C 0.4758 0.25338 0.08323 0.0
C1035 C 0.46124 0.22979 0.07391 0.0
C1036 C 0.45456 0.21883 0.1523 0.0
C1037 C 0.44196 0.22512 0.02482 0.0
C1038 C 0.47574 0.22387 0.03204 0.0
C1039 C 0.49516 0.24145 0.01829 0.0
C1040 C 0.51141 0.24017 0.98205 0.0
C1041 C 0.5079 0.22028 0.96039 0.0
C1042 C 0.48838 0.20191 0.97578 0.0
C1043 C 0.47199 0.20378 0.01121 0.0
H1044 H 0.35832 0.40268 0.1464 0.0
H1045 H 0.41048 0.46626 0.11296 0.0
H1046 H 0.43563 0.45321 0.12364 0.0
H1047 H 0.38364 0.38631 0.28401 0.0
H1048 H 0.37249 0.35988 0.24701 0.0
H1049 H 0.35845 0.37411 0.23615 0.0
H1050 H 0.35686 0.36832 0.08945 0.0
H1051 H 0.37092 0.35409 0.09985 0.0
H1052 H 0.38096 0.37658 0.03698 0.0
H1053 H 0.4551 0.43394 0.14392 0.0
H1054 H 0.46798 0.40897 0.16634 0.0
H1055 H 0.4035 0.35731 0.18051 0.0
C1056 C 0.37504 0.4138 0.14147 0.0
C1057 C 0.38252 0.43548 0.12883 0.0
C1058 C 0.40447 0.44958 0.12195 0.0
C1059 C 0.41885 0.44233 0.12821 0.0
C1060 C 0.41101 0.4209 0.14057 0.0
C1061 C 0.38965 0.40677 0.14654 0.0
C1062 C 0.3855 0.3845 0.15916 0.0
C1063 C 0.37436 0.37569 0.23617 0.0
C1064 C 0.37281 0.37002 0.09236 0.0
C1065 C 0.4079 0.38841 0.16024 0.0
C1066 C 0.42233 0.40956 0.14978 0.0
C1067 C 0.44399 0.41731 0.15148 0.0
C1068 C 0.45114 0.40307 0.16437 0.0
C1069 C 0.43669 0.38134 0.17461 0.0
C1070 C 0.4148 0.37386 0.17191 0.0
H1071 H 0.94859 0.38113 0.28935 0.0
H1072 H 0.93098 0.34447 0.49857 0.0
H1073 H 0.9688 0.35926 0.53078 0.0
H1074 H 0.9947 0.37537 0.24736 0.0
H1075 H 0.00964 0.40165 0.20882 0.0
H1076 H 0.98128 0.38742 0.20147 0.0
H1077 H 0.97988 0.41824 0.26884 0.0
H1078 H 0.00818 0.43249 0.27691 0.0
H1079 H 0.99211 0.42709 0.36131 0.0
H1080 H 0.00841 0.38077 0.54524 0.0
H1081 H 0.04704 0.40468 0.53497 0.0
H1082 H 0.03864 0.42543 0.31214 0.0
C1083 C 0.95278 0.37608 0.34146 0.0
C1084 C 0.93706 0.36175 0.39175 0.0
C1085 C 0.94293 0.35536 0.45934 0.0
C1086 C 0.9643 0.36372 0.47807 0.0
C1087 C 0.97948 0.37812 0.42778 0.0
C1088 C 0.97398 0.38395 0.36019 0.0
C1089 C 0.99327 0.39972 0.31607 0.0
C1090 C 0.99481 0.39048 0.23887 0.0
C1091 C 0.99336 0.42062 0.30519 0.0
C1092 C 0.01052 0.40228 0.37024 0.0
C1093 C 0.00225 0.38977 0.43455 0.0
C1094 C 0.01507 0.39038 0.49465 0.0
C1095 C 0.03691 0.40404 0.48858 0.0
C1096 C 0.04564 0.41667 0.42259 0.0
C1097 C 0.03228 0.41567 0.36264 0.0
H1098 H 0.60727 0.04458 0.40632 0.0
H1099 H 0.66166 0.05563 0.54208 0.0
H1100 H 0.65015 0.01786 0.53501 0.0
H1101 H 0.57179 -0.00087 0.50408 0.0
H1102 H 0.55587 0.98573 0.42168 0.0
H1103 H 0.57027 0.01407 0.42479 0.0
H1104 H 0.58873 0.01507 0.29695 0.0
H1105 H 0.57433 0.98666 0.2934 0.0
H1106 H 0.60274 0.00072 0.28863 0.0
H1107 H 0.63115 0.97861 0.52451 0.0
H1108 H 0.60542 0.94065 0.51553 0.0
H1109 H 0.56166 0.95481 0.39805 0.0
C1110 C 0.61692 0.03922 0.43437 0.0
C1111 C 0.63551 0.05334 0.47455 0.0
C1112 C 0.64766 0.04541 0.50934 0.0
C1113 C 0.64118 0.02388 0.50607 0.0
C1114 C 0.62245 0.0104 0.46814 0.0
C1115 C 0.61047 0.01774 0.43301 0.0
C1116 C 0.5899 -0.00026 0.40299 0.0
C1117 C 0.57084 -0.00033 0.44066 0.0
C1118 C 0.58887 0.0006 0.31527 0.0
C1119 C 0.59192 0.98109 0.42872 0.0
C1120 C 0.611 0.98761 0.46487 0.0
C1121 C 0.61618 0.97331 0.49613 0.0
C1122 C 0.60135 0.95177 0.49141 0.0
C1123 C 0.58138 0.9447 0.45683 0.0
C1124 C 0.57684 0.95964 0.424 0.0
H1125 H 0.61955 0.57586 0.591 0.0
H1126 H 0.64842 0.58723 0.81529 0.0
H1127 H 0.63017 0.60674 0.85314 0.0
H1128 H 0.62256 0.62747 0.57361 0.0
H1129 H 0.59772 0.61651 0.52377 0.0
H1130 H 0.6139 0.60448 0.51406 0.0
H1131 H 0.58252 0.56871 0.55826 0.0
H1132 H 0.56631 0.58064 0.56869 0.0
H1133 H 0.56992 0.5672 0.6486 0.0
H1134 H 0.60611 0.62184 0.86941 0.0
H1135 H 0.58049 0.63449 0.85967 0.0
H1136 H 0.56911 0.61512 0.62186 0.0
C1137 C 0.62221 0.58278 0.64761 0.0
C1138 C 0.63531 0.58025 0.70051 0.0
C1139 C 0.6385 0.58928 0.77422 0.0
C1140 C 0.62819 0.60027 0.79605 0.0
C1141 C 0.61508 0.60228 0.74285 0.0
C1142 C 0.61235 0.59409 0.66972 0.0
C1143 C 0.59728 0.59823 0.62366 0.0
C1144 C 0.60854 0.61253 0.5547 0.0
C1145 C 0.57786 0.57746 0.59835 0.0
C1146 C 0.59151 0.60958 0.68284 0.0
C1147 C 0.60187 0.61168 0.75132 0.0
C1148 C 0.59815 0.62057 0.81579 0.0
C1149 C 0.58354 0.62758 0.80992 0.0
C1150 C 0.57305 0.62583 0.73995 0.0
C1151 C 0.57719 0.61685 0.67562 0.0
H1152 H 0.04279 0.61482 0.75405 0.0
H1153 H 0.06357 0.63528 0.9864 0.0
H1154 H 0.02634 0.61995 0.02804 0.0
H1155 H -0.00051 0.62534 0.75576 0.0
H1156 H 0.98239 0.60261 0.69867 0.0
H1157 H 0.01059 0.61514 0.68732 0.0
H1158 H 0.00908 0.57961 0.71452 0.0
H1159 H 0.98089 0.56694 0.72535 0.0
H1160 H 0.99676 0.56541 0.80121 0.0
H1161 H 0.98714 0.60254 0.04359 0.0
H1162 H 0.94832 0.58311 0.03385 0.0
H1163 H 0.95301 0.57363 0.79088 0.0
C1164 C 0.03935 0.61591 0.81364 0.0
C1165 C 0.05572 0.626 0.86754 0.0
C1166 C 0.05099 0.62745 0.9449 0.0
C1167 C 0.03 0.61888 0.96877 0.0
C1168 C 0.01409 0.60908 0.91423 0.0
C1169 C 0.01849 0.60751 0.83831 0.0
C1170 C 0.99847 0.5961 0.79142 0.0
C1171 C 0.9977 0.61067 0.72965 0.0
C1172 C 0.99617 0.57581 0.75607 0.0
C1173 C 0.98211 0.59126 0.85299 0.0
C1174 C 0.99147 0.59901 0.92326 0.0
C1175 C 0.97961 0.59634 0.98894 0.0
C1176 C 0.95758 0.58519 0.98287 0.0
C1177 C 0.94761 0.57674 0.91169 0.0
C1178 C 0.96014 0.58008 0.84589 0.0
H1179 H 0.41602 0.04223 0.91459 0.0
H1180 H 0.42339 0.06345 0.15084 0.0
H1181 H 0.4041 0.02649 0.19382 0.0
H1182 H 0.36467 0.99521 0.93257 0.0
H1183 H 0.37146 0.97993 0.86997 0.0
H1184 H 0.3837 0.00804 0.85717 0.0
H1185 H 0.42064 0.01152 0.86836 0.0
H1186 H 0.40853 0.98345 0.88125 0.0
H1187 H 0.42686 0.00111 0.95161 0.0
H1188 H 0.38538 0.98703 0.21159 0.0
H1189 H 0.36942 0.94841 0.20271 0.0
H1190 H 0.37795 0.95363 0.95591 0.0
C1191 C 0.41367 0.03926 0.97546 0.0
C1192 C 0.42125 0.05597 0.02907 0.0
C1193 C 0.4174 0.05108 0.10815 0.0
C1194 C 0.40658 0.03008 0.13334 0.0
C1195 C 0.39981 0.01409 0.07894 0.0
C1196 C 0.40327 0.01845 1.00168 0.0
C1197 C 0.39566 0.99849 0.95519 0.0
C1198 C 0.37781 0.99523 0.90051 0.0
C1199 C 0.41402 0.99866 0.91156 0.0
C1200 C 0.38757 0.98223 0.01849 0.0
C1201 C 0.38987 0.99149 0.08937 0.0
C1202 C 0.38357 0.9796 0.15637 0.0
C1203 C 0.3747 0.95766 0.15073 0.0
C1204 C 0.37247 0.94783 0.07862 0.0
C1205 C 0.37906 0.96045 0.01188 0.0
loop_
_geom_bond_atom_site_label_1
_geom_bond_atom_site_label_2
_geom_bond_distance
_geom_bond_site_symmetry_2
_ccdc_geom_bond_type
Co0 N4 2.148 . S
Co0 N10 2.128 1_554 S
Co0 N20 2.194 . S
Co0 O25 2.351 . S
Co0 O26 2.155 . S
Co0 O27 2.096 . S
C1 N4 1.301 . S
C1 N5 1.328 . S
C1 H6 0.930 . S
C2 C3 1.333 . S
C2 N4 1.317 . S
C2 H7 0.930 . S
C3 C2 1.333 . S
C3 N5 1.350 . S
C3 H29 0.931 . S
N4 Co0 2.148 . S
N4 C1 1.301 . S
N4 C2 1.317 . S
N5 C1 1.328 . S
N5 C3 1.350 . S
H6 C1 0.930 . S
H7 C2 0.930 . S
C8 O9 1.224 . S
C8 O27 1.247 . S
O9 C8 1.224 . S
N10 Co0 2.128 1_556 S
N10 C11 1.355 . S
N10 C13 1.311 . S
C11 N10 1.355 . S
C11 C12 1.363 . S
C11 H23 0.929 . S
C12 C11 1.363 . S
C12 N14 1.375 . S
C12 H30 0.931 . S
C13 N10 1.311 . S
C13 N14 1.347 . S
C13 H24 0.929 . S
N14 C12 1.375 . S
N14 C13 1.347 . S
C15 C18 1.365 . S
C15 N20 1.328 . S
C15 H21 0.929 . S
C16 C17 1.362 . S
C16 C19 1.378 . S
C16 H31 0.929 . S
C17 C16 1.362 . S
C17 C18 1.366 . S
C18 C15 1.365 . S
C18 C17 1.366 . S
C18 H32 0.930 . S
C19 C16 1.378 . S
C19 N20 1.315 . S
C19 H22 0.930 . S
N20 Co0 2.194 . S
N20 C15 1.328 . S
N20 C19 1.315 . S
H21 C15 0.929 . S
H22 C19 0.930 . S
H23 C11 0.929 . S
H24 C13 0.929 . S
O25 Co0 2.351 . S
O25 C28 1.244 . S
O26 Co0 2.155 . S
O26 C28 1.240 . S
O27 Co0 2.096 . S
O27 C8 1.247 . S
C28 O25 1.244 . S
C28 O26 1.240 . S
H29 C3 0.931 . S
H30 C12 0.931 . S
H31 C16 0.929 . S
H32 C18 0.930 . S
Co33 N37 2.148 . S
Co33 N43 2.128 . S
Co33 N53 2.194 . S
Co33 O58 2.351 . S
Co33 O59 2.155 . S
Co33 O60 2.096 . S
C34 N37 1.301 . S
C34 N38 1.328 . S
C34 H39 0.930 . S
C35 C36 1.333 . S
C35 N37 1.317 . S
C35 H40 0.930 . S
C36 C35 1.333 . S
C36 N38 1.350 . S
C36 H62 0.931 . S
N37 Co33 2.148 . S
N37 C34 1.301 . S
N37 C35 1.317 . S
N38 C34 1.328 . S
N38 C36 1.350 . S
H39 C34 0.930 . S
H40 C35 0.930 . S
C41 O42 1.224 . S
C41 O60 1.247 . S
O42 C41 1.224 . S
N43 Co33 2.128 . S
N43 C44 1.355 . S
N43 C46 1.311 . S
C44 N43 1.355 . S
C44 C45 1.363 . S
C44 H56 0.929 . S
C45 C44 1.363 . S
C45 N47 1.375 . S
C45 H63 0.931 . S
C46 N43 1.311 . S
C46 N47 1.347 . S
C46 H57 0.929 . S
N47 C45 1.375 . S
N47 C46 1.347 . S
C48 C51 1.365 . S
C48 N53 1.328 . S
C48 H54 0.929 . S
C49 C50 1.362 . S
C49 C52 1.378 . S
C49 H64 0.929 . S
C50 C49 1.362 . S
C50 C51 1.366 . S
C51 C48 1.365 . S
C51 C50 1.366 . S
C51 H65 0.930 . S
C52 C49 1.378 . S
C52 N53 1.315 . S
C52 H55 0.930 . S
N53 Co33 2.194 . S
N53 C48 1.328 . S
N53 C52 1.315 . S
H54 C48 0.929 . S
H55 C52 0.930 . S
H56 C44 0.929 . S
H57 C46 0.929 . S
O58 Co33 2.351 . S
O58 C61 1.244 . S
O59 Co33 2.155 . S
O59 C61 1.240 . S
O60 Co33 2.096 . S
O60 C41 1.247 . S
C61 O58 1.244 . S
C61 O59 1.240 . S
H62 C36 0.931 . S
H63 C45 0.931 . S
H64 C49 0.929 . S
H65 C51 0.930 . S
Co66 N70 2.148 . S
Co66 N76 2.128 . S
Co66 N86 2.194 . S
Co66 O91 2.351 . S
Co66 O92 2.155 . S
Co66 O93 2.096 . S
C67 N70 1.301 . S
C67 N71 1.328 . S
C67 H72 0.930 . S
C68 C69 1.333 . S
C68 N70 1.317 . S
C68 H73 0.930 . S
C69 C68 1.333 . S
C69 N71 1.350 . S
C69 H95 0.931 . S
N70 Co66 2.148 . S
N70 C67 1.301 . S
N70 C68 1.317 . S
N71 C67 1.328 . S
N71 C69 1.350 . S
H72 C67 0.930 . S
H73 C68 0.930 . S
C74 O75 1.224 . S
C74 O93 1.247 . S
O75 C74 1.224 . S
N76 Co66 2.128 . S
N76 C77 1.355 . S
N76 C79 1.311 . S
C77 N76 1.355 . S
C77 C78 1.363 . S
C77 H89 0.929 . S
C78 C77 1.363 . S
C78 N80 1.375 . S
C78 H96 0.931 . S
C79 N76 1.311 . S
C79 N80 1.347 . S
C79 H90 0.929 . S
N80 C78 1.375 . S
N80 C79 1.347 . S
C81 C84 1.365 . S
C81 N86 1.328 . S
C81 H87 0.929 . S
C82 C83 1.362 . S
C82 C85 1.378 . S
C82 H97 0.929 . S
C83 C82 1.362 . S
C83 C84 1.366 . S
C84 C81 1.365 . S
C84 C83 1.366 . S
C84 H98 0.930 . S
C85 C82 1.378 . S
C85 N86 1.315 . S
C85 H88 0.930 . S
N86 Co66 2.194 . S
N86 C81 1.328 . S
N86 C85 1.315 . S
H87 C81 0.929 . S
H88 C85 0.930 . S
H89 C77 0.929 . S
H90 C79 0.929 . S
O91 Co66 2.351 . S
O91 C94 1.244 . S
O92 Co66 2.155 . S
O92 C94 1.240 . S
O93 Co66 2.096 . S
O93 C74 1.247 . S
C94 O91 1.244 . S
C94 O92 1.240 . S
H95 C69 0.931 . S
H96 C78 0.931 . S
H97 C82 0.929 . S
H98 C84 0.930 . S
Co99 N103 2.148 . S
Co99 N109 2.128 . S
Co99 N119 2.194 . S
Co99 O124 2.351 . S
Co99 O125 2.155 . S
Co99 O126 2.096 . S
C100 N103 1.301 . S
C100 N104 1.328 . S
C100 H105 0.930 . S
C101 C102 1.333 . S
C101 N103 1.317 . S
C101 H106 0.930 . S
C102 C101 1.333 . S
C102 N104 1.350 . S
C102 H128 0.931 . S
N103 Co99 2.148 . S
N103 C100 1.301 . S
N103 C101 1.317 . S
N104 C100 1.328 . S
N104 C102 1.350 . S
H105 C100 0.930 . S
H106 C101 0.930 . S
C107 O108 1.224 . S
C107 O126 1.247 . S
O108 C107 1.224 . S
N109 Co99 2.128 . S
N109 C110 1.355 . S
N109 C112 1.311 . S
C110 N109 1.355 . S
C110 C111 1.363 . S
C110 H122 0.929 . S
C111 C110 1.363 . S
C111 N113 1.375 . S
C111 H129 0.931 . S
C112 N109 1.311 . S
C112 N113 1.347 . S
C112 H123 0.929 . S
N113 C111 1.375 . S
N113 C112 1.347 . S
C114 C117 1.365 . S
C114 N119 1.328 . S
C114 H120 0.929 . S
C115 C116 1.362 . S
C115 C118 1.378 . S
C115 H130 0.929 . S
C116 C115 1.362 . S
C116 C117 1.366 . S
C117 C114 1.365 . S
C117 C116 1.366 . S
C117 H131 0.930 . S
C118 C115 1.378 . S
C118 N119 1.315 . S
C118 H121 0.930 . S
N119 Co99 2.194 . S
N119 C114 1.328 . S
N119 C118 1.315 . S
H120 C114 0.929 . S
H121 C118 0.930 . S
H122 C110 0.929 . S
H123 C112 0.929 . S
O124 Co99 2.351 . S
O124 C127 1.244 . S
O125 Co99 2.155 . S
O125 C127 1.240 . S
O126 Co99 2.096 . S
O126 C107 1.247 . S
C127 O124 1.244 . S
C127 O125 1.240 . S
H128 C102 0.931 . S
H129 C111 0.931 . S
H130 C115 0.929 . S
H131 C117 0.930 . S
Co132 N136 2.148 . S
Co132 N142 2.128 . S
Co132 N152 2.194 . S
Co132 O157 2.351 . S
Co132 O158 2.155 . S
Co132 O159 2.096 . S
C133 N136 1.301 . S
C133 N137 1.329 . S
C133 H138 0.930 . S
C134 C135 1.333 . S
C134 N136 1.317 . S
C134 H139 0.930 . S
C135 C134 1.333 . S
C135 N137 1.351 . S
C135 H161 0.924 1_556 S
N136 Co132 2.148 . S
N136 C133 1.301 . S
N136 C134 1.317 . S
N137 C133 1.329 . S
N137 C135 1.351 . S
H138 C133 0.930 . S
H139 C134 0.930 . S
C140 O141 1.224 . S
C140 O159 1.247 . S
O141 C140 1.224 . S
N142 Co132 2.128 . S
N142 C143 1.355 . S
N142 C145 1.311 . S
C143 N142 1.355 . S
C143 C144 1.363 . S
C143 H155 0.929 . S
C144 C143 1.363 . S
C144 N146 1.375 . S
C144 H162 0.931 . S
C145 N142 1.311 . S
C145 N146 1.347 . S
C145 H156 0.929 . S
N146 C144 1.375 . S
N146 C145 1.347 . S
C147 C150 1.365 . S
C147 N152 1.328 . S
C147 H153 0.929 . S
C148 C149 1.362 . S
C148 C151 1.378 . S
C148 H163 0.929 . S
C149 C148 1.362 . S
C149 C150 1.366 . S
C150 C147 1.365 . S
C150 C149 1.366 . S
C150 H164 0.930 . S
C151 C148 1.378 . S
C151 N152 1.315 . S
C151 H154 0.930 . S
N152 Co132 2.194 . S
N152 C147 1.328 . S
N152 C151 1.315 . S
H153 C147 0.929 . S
H154 C151 0.930 . S
H155 C143 0.929 . S
H156 C145 0.929 . S
O157 Co132 2.351 . S
O157 C160 1.244 . S
O158 Co132 2.155 . S
O158 C160 1.240 . S
O159 Co132 2.096 . S
O159 C140 1.247 . S
C160 O157 1.244 . S
C160 O158 1.240 . S
H161 C135 0.924 1_554 S
H162 C144 0.931 . S
H163 C148 0.929 . S
H164 C150 0.930 . S
Co165 N169 2.148 1_556 S
Co165 N175 2.128 . S
Co165 N185 2.194 . S
Co165 O190 2.351 . S
Co165 O191 2.155 . S
Co165 O192 2.096 . S
C166 N169 1.301 . S
C166 N170 1.328 . S
C166 H171 0.930 . S
C167 C168 1.333 . S
C167 N169 1.317 . S
C167 H172 0.930 . S
C168 C167 1.333 . S
C168 N170 1.350 . S
C168 H194 0.931 . S
N169 Co165 2.148 1_554 S
N169 C166 1.301 . S
N169 C167 1.317 . S
N170 C166 1.328 . S
N170 C168 1.350 . S
H171 C166 0.930 . S
H172 C167 0.930 . S
C173 O174 1.224 . S
C173 O192 1.247 . S
O174 C173 1.224 . S
N175 Co165 2.128 . S
N175 C176 1.355 . S
N175 C178 1.311 . S
C176 N175 1.355 . S
C176 C177 1.363 . S
C176 H188 0.929 . S
C177 C176 1.363 . S
C177 N179 1.375 . S
C177 H195 0.931 . S
C178 N175 1.311 . S
C178 N179 1.347 . S
C178 H189 0.929 . S
N179 C177 1.375 . S
N179 C178 1.347 . S
C180 C183 1.365 . S
C180 N185 1.328 . S
C180 H186 0.929 . S
C181 C182 1.362 . S
C181 C184 1.378 . S
C181 H196 0.929 . S
C182 C181 1.362 . S
C182 C183 1.366 . S
C183 C180 1.365 . S
C183 C182 1.366 . S
C183 H197 0.930 1_556 S
C184 C181 1.378 . S
C184 N185 1.315 . S
C184 H187 0.930 . S
N185 Co165 2.194 . S
N185 C180 1.328 . S
N185 C184 1.315 . S
H186 C180 0.929 . S
H187 C184 0.930 . S
H188 C176 0.929 . S
H189 C178 0.929 . S
O190 Co165 2.351 . S
O190 C193 1.244 . S
O191 Co165 2.155 . S
O191 C193 1.240 . S
O192 Co165 2.096 . S
O192 C173 1.247 . S
C193 O190 1.244 . S
C193 O191 1.240 . S
H194 C168 0.931 . S
H195 C177 0.931 . S
H196 C181 0.929 . S
H197 C183 0.930 1_554 S
Co198 N202 2.148 . S
Co198 N208 2.128 . S
Co198 N218 2.194 . S
Co198 O223 2.351 . S
Co198 O224 2.155 . S
Co198 O225 2.096 . S
C199 N202 1.301 . S
C199 N203 1.328 . S
C199 H204 0.930 . S
C200 C201 1.333 . S
C200 N202 1.317 . S
C200 H205 0.930 . S
C201 C200 1.333 . S
C201 N203 1.350 . S
C201 H227 0.931 . S
N202 Co198 2.148 . S
N202 C199 1.301 . S
N202 C200 1.317 . S
N203 C199 1.328 . S
N203 C201 1.350 . S
H204 C199 0.930 . S
H205 C200 0.930 . S
C206 O207 1.224 . S
C206 O225 1.247 . S
O207 C206 1.224 . S
N208 Co198 2.128 . S
N208 C209 1.355 . S
N208 C211 1.311 . S
C209 N208 1.355 . S
C209 C210 1.363 . S
C209 H221 0.929 . S
C210 C209 1.363 . S
C210 N212 1.375 . S
C210 H228 0.931 . S
C211 N208 1.311 . S
C211 N212 1.347 . S
C211 H222 0.929 . S
N212 C210 1.375 . S
N212 C211 1.347 . S
C213 C216 1.365 . S
C213 N218 1.328 . S
C213 H219 0.929 . S
C214 C215 1.362 . S
C214 C217 1.378 . S
C214 H229 0.929 . S
C215 C214 1.362 . S
C215 C216 1.366 . S
C216 C213 1.365 . S
C216 C215 1.366 . S
C216 H230 0.930 . S
C217 C214 1.378 . S
C217 N218 1.315 . S
C217 H220 0.930 . S
N218 Co198 2.194 . S
N218 C213 1.328 . S
N218 C217 1.315 . S
H219 C213 0.929 . S
H220 C217 0.930 . S
H221 C209 0.929 . S
H222 C211 0.929 . S
O223 Co198 2.351 . S
O223 C226 1.244 . S
O224 Co198 2.155 . S
O224 C226 1.240 . S
O225 Co198 2.096 . S
O225 C206 1.247 . S
C226 O223 1.244 . S
C226 O224 1.240 . S
H227 C201 0.931 . S
H228 C210 0.931 . S
H229 C214 0.929 . S
H230 C216 0.930 . S
Co231 N235 2.148 . S
Co231 N241 2.128 1_556 S
Co231 N251 2.194 . S
Co231 O256 2.351 . S
Co231 O257 2.155 . S
Co231 O258 2.096 . S
C232 N235 1.301 . S
C232 N236 1.328 . S
C232 H237 0.930 . S
C233 C234 1.333 . S
C233 N235 1.317 . S
C233 H238 0.930 . S
C234 C233 1.333 . S
C234 N236 1.350 . S
C234 H260 0.931 . S
N235 Co231 2.148 . S
N235 C232 1.301 . S
N235 C233 1.317 . S
N236 C232 1.328 . S
N236 C234 1.350 . S
H237 C232 0.930 . S
H238 C233 0.930 . S
C239 O240 1.224 . S
C239 O258 1.247 . S
O240 C239 1.224 . S
N241 Co231 2.128 1_554 S
N241 C242 1.355 . S
N241 C244 1.311 . S
C242 N241 1.355 . S
C242 C243 1.363 . S
C242 H254 0.929 . S
C243 C242 1.363 . S
C243 N245 1.375 . S
C243 H261 0.931 . S
C244 N241 1.311 . S
C244 N245 1.347 . S
C244 H255 0.929 . S
N245 C243 1.375 . S
N245 C244 1.347 . S
C246 C249 1.365 . S
C246 N251 1.328 . S
C246 H252 0.929 . S
C247 C248 1.362 . S
C247 C250 1.378 . S
C247 H262 0.929 . S
C248 C247 1.362 . S
C248 C249 1.366 . S
C249 C246 1.365 . S
C249 C248 1.366 . S
C249 H263 0.930 . S
C250 C247 1.378 . S
C250 N251 1.315 . S
C250 H253 0.930 . S
N251 Co231 2.194 . S
N251 C246 1.328 . S
N251 C250 1.315 . S
H252 C246 0.929 . S
H253 C250 0.930 . S
H254 C242 0.929 . S
H255 C244 0.929 . S
O256 Co231 2.351 . S
O256 C259 1.244 . S
O257 Co231 2.155 . S
O257 C259 1.240 . S
O258 Co231 2.096 . S
O258 C239 1.247 . S
C259 O256 1.244 . S
C259 O257 1.240 . S
H260 C234 0.931 . S
H261 C243 0.931 . S
H262 C247 0.929 . S
H263 C249 0.930 . S
Co264 N268 2.148 1_554 S
Co264 N274 2.128 . S
Co264 N284 2.194 . S
Co264 O289 2.351 . S
Co264 O290 2.155 . S
Co264 O291 2.096 . S
C265 N268 1.301 . S
C265 N269 1.328 . S
C265 H270 0.930 . S
C266 C267 1.333 . S
C266 N268 1.317 . S
C266 H271 0.930 . S
C267 C266 1.333 . S
C267 N269 1.350 . S
C267 H293 0.931 . S
N268 Co264 2.148 1_556 S
N268 C265 1.301 . S
N268 C266 1.317 . S
N269 C265 1.328 . S
N269 C267 1.350 . S
H270 C265 0.930 . S
H271 C266 0.930 . S
C272 O273 1.224 . S
C272 O291 1.247 . S
O273 C272 1.224 . S
N274 Co264 2.128 . S
N274 C275 1.355 . S
N274 C277 1.311 . S
C275 N274 1.355 . S
C275 C276 1.363 . S
C275 H287 0.929 . S
C276 C275 1.363 . S
C276 N278 1.375 . S
C276 H294 0.931 . S
C277 N274 1.311 . S
C277 N278 1.347 . S
C277 H288 0.929 . S
N278 C276 1.375 . S
N278 C277 1.347 . S
C279 C282 1.365 . S
C279 N284 1.328 . S
C279 H285 0.929 . S
C280 C281 1.362 . S
C280 C283 1.378 . S
C280 H295 0.929 . S
C281 C280 1.362 . S
C281 C282 1.366 . S
C282 C279 1.365 . S
C282 C281 1.366 . S
C282 H296 0.929 1_554 S
C283 C280 1.378 . S
C283 N284 1.315 . S
C283 H286 0.930 . S
N284 Co264 2.194 . S
N284 C279 1.328 . S
N284 C283 1.315 . S
H285 C279 0.929 . S
H286 C283 0.930 . S
H287 C275 0.929 . S
H288 C277 0.929 . S
O289 Co264 2.351 . S
O289 C292 1.244 . S
O290 Co264 2.155 . S
O290 C292 1.240 . S
O291 Co264 2.096 . S
O291 C272 1.247 . S
C292 O289 1.244 . S
C292 O290 1.240 . S
H293 C267 0.931 . S
H294 C276 0.931 . S
H295 C280 0.929 . S
H296 C282 0.929 1_556 S
Co297 N301 2.148 . S
Co297 N307 2.128 . S
Co297 N317 2.194 . S
Co297 O322 2.351 . S
Co297 O323 2.155 . S
Co297 O324 2.096 . S
C298 N301 1.301 . S
C298 N302 1.329 . S
C298 H303 0.930 . S
C299 C300 1.333 . S
C299 N301 1.317 . S
C299 H304 0.930 . S
C300 C299 1.333 . S
C300 N302 1.351 . S
C300 H326 0.924 1_554 S
N301 Co297 2.148 . S
N301 C298 1.301 . S
N301 C299 1.317 . S
N302 C298 1.329 . S
N302 C300 1.351 . S
H303 C298 0.930 . S
H304 C299 0.930 . S
C305 O306 1.224 . S
C305 O324 1.247 . S
O306 C305 1.224 . S
N307 Co297 2.128 . S
N307 C308 1.355 . S
N307 C310 1.311 . S
C308 N307 1.355 . S
C308 C309 1.363 . S
C308 H320 0.929 . S
C309 C308 1.363 . S
C309 N311 1.375 . S
C309 H327 0.931 . S
C310 N307 1.311 . S
C310 N311 1.347 . S
C310 H321 0.929 . S
N311 C309 1.375 . S
N311 C310 1.347 . S
C312 C315 1.365 . S
C312 N317 1.328 . S
C312 H318 0.929 . S
C313 C314 1.362 . S
C313 C316 1.378 . S
C313 H328 0.929 . S
C314 C313 1.362 . S
C314 C315 1.366 . S
C315 C312 1.365 . S
C315 C314 1.366 . S
C315 H329 0.930 . S
C316 C313 1.378 . S
C316 N317 1.315 . S
C316 H319 0.930 . S
N317 Co297 2.194 . S
N317 C312 1.328 . S
N317 C316 1.315 . S
H318 C312 0.929 . S
H319 C316 0.930 . S
H320 C308 0.929 . S
H321 C310 0.929 . S
O322 Co297 2.351 . S
O322 C325 1.244 . S
O323 Co297 2.155 . S
O323 C325 1.240 . S
O324 Co297 2.096 . S
O324 C305 1.247 . S
C325 O322 1.244 . S
C325 O323 1.240 . S
H326 C300 0.924 1_556 S
H327 C309 0.931 . S
H328 C313 0.929 . S
H329 C315 0.930 . S
Co330 N334 2.148 . S
Co330 N340 2.128 . S
Co330 N350 2.194 . S
Co330 O355 2.351 . S
Co330 O356 2.155 . S
Co330 O357 2.096 . S
C331 N334 1.301 . S
C331 N335 1.328 . S
C331 H336 0.930 . S
C332 C333 1.333 . S
C332 N334 1.317 . S
C332 H337 0.930 . S
C333 C332 1.333 . S
C333 N335 1.350 . S
C333 H359 0.931 . S
N334 Co330 2.148 . S
N334 C331 1.301 . S
N334 C332 1.317 . S
N335 C331 1.328 . S
N335 C333 1.350 . S
H336 C331 0.930 . S
H337 C332 0.930 . S
C338 O339 1.224 . S
C338 O357 1.247 . S
O339 C338 1.224 . S
N340 Co330 2.128 . S
N340 C341 1.355 . S
N340 C343 1.311 . S
C341 N340 1.355 . S
C341 C342 1.363 . S
C341 H353 0.929 . S
C342 C341 1.363 . S
C342 N344 1.375 . S
C342 H360 0.931 . S
C343 N340 1.311 . S
C343 N344 1.347 . S
C343 H354 0.929 . S
N344 C342 1.375 . S
N344 C343 1.347 . S
C345 C348 1.365 . S
C345 N350 1.328 . S
C345 H351 0.929 . S
C346 C347 1.362 . S
C346 C349 1.378 . S
C346 H361 0.929 . S
C347 C346 1.362 . S
C347 C348 1.366 . S
C348 C345 1.365 . S
C348 C347 1.366 . S
C348 H362 0.930 . S
C349 C346 1.378 . S
C349 N350 1.315 . S
C349 H352 0.930 . S
N350 Co330 2.194 . S
N350 C345 1.328 . S
N350 C349 1.315 . S
H351 C345 0.929 . S
H352 C349 0.930 . S
H353 C341 0.929 . S
H354 C343 0.929 . S
O355 Co330 2.351 . S
O355 C358 1.244 . S
O356 Co330 2.155 . S
O356 C358 1.240 . S
O357 Co330 2.096 . S
O357 C338 1.247 . S
C358 O355 1.244 . S
C358 O356 1.240 . S
H359 C333 0.931 . S
H360 C342 0.931 . S
H361 C346 0.929 . S
H362 C348 0.930 . S
Co363 N367 2.148 . S
Co363 N373 2.128 . S
Co363 N383 2.194 . S
Co363 O388 2.351 . S
Co363 O389 2.155 . S
Co363 O390 2.096 . S
C364 N367 1.301 . S
C364 N368 1.328 . S
C364 H369 0.930 . S
C365 C366 1.333 . S
C365 N367 1.317 . S
C365 H370 0.930 . S
C366 C365 1.333 . S
C366 N368 1.350 . S
C366 H392 0.931 . S
N367 Co363 2.148 . S
N367 C364 1.301 . S
N367 C365 1.317 . S
N368 C364 1.328 . S
N368 C366 1.350 . S
H369 C364 0.930 . S
H370 C365 0.930 . S
C371 O372 1.224 . S
C371 O390 1.247 . S
O372 C371 1.224 . S
N373 Co363 2.128 . S
N373 C374 1.355 . S
N373 C376 1.311 . S
C374 N373 1.355 . S
C374 C375 1.363 . S
C374 H386 0.929 . S
C375 C374 1.363 . S
C375 N377 1.375 . S
C375 H393 0.931 . S
C376 N373 1.311 . S
C376 N377 1.347 . S
C376 H387 0.929 . S
N377 C375 1.375 . S
N377 C376 1.347 . S
C378 C381 1.365 . S
C378 N383 1.328 . S
C378 H384 0.929 . S
C379 C380 1.362 . S
C379 C382 1.378 . S
C379 H394 0.929 . S
C380 C379 1.362 . S
C380 C381 1.366 . S
C381 C378 1.365 . S
C381 C380 1.366 . S
C381 H395 0.930 . S
C382 C379 1.378 . S
C382 N383 1.315 . S
C382 H385 0.930 . S
N383 Co363 2.194 . S
N383 C378 1.328 . S
N383 C382 1.315 . S
H384 C378 0.929 . S
H385 C382 0.930 . S
H386 C374 0.929 . S
H387 C376 0.929 . S
O388 Co363 2.351 . S
O388 C391 1.244 . S
O389 Co363 2.155 . S
O389 C391 1.240 . S
O390 Co363 2.096 . S
O390 C371 1.247 . S
C391 O388 1.244 . S
C391 O389 1.240 . S
H392 C366 0.931 . S
H393 C375 0.931 . S
H394 C379 0.929 . S
H395 C381 0.930 . S
H396 C408 0.930 . S
H397 C410 0.930 . S
H398 C411 0.930 . S
H399 C415 0.959 . S
H400 C415 0.959 . S
H401 C415 0.961 . S
H402 C416 0.960 . S
H403 C416 0.961 . S
H404 C416 0.959 . S
H405 C419 0.929 . S
H406 C420 0.931 . S
H407 C422 0.930 . S
C408 H396 0.930 . S
C408 C409 1.399 . S
C408 C413 1.399 . S
C409 C408 1.399 . S
C409 C410 1.376 . S
C410 H397 0.930 . S
C410 C409 1.376 . S
C410 C411 1.388 . S
C411 H398 0.930 . S
C411 C410 1.388 . S
C411 C412 1.390 . S
C412 C411 1.390 . S
C412 C413 1.394 . S
C412 C418 1.465 . S
C413 C408 1.399 . S
C413 C412 1.394 . S
C413 C414 1.516 . S
C414 C413 1.516 . S
C414 C415 1.502 . S
C414 C416 1.561 . S
C414 C417 1.526 . S
C415 H399 0.959 . S
C415 H400 0.959 . S
C415 H401 0.961 . S
C415 C414 1.502 . S
C416 H402 0.960 . S
C416 H403 0.961 . S
C416 H404 0.959 . S
C416 C414 1.561 . S
C417 C414 1.526 . S
C417 C418 1.396 . S
C417 C422 1.390 . S
C418 C412 1.465 . S
C418 C417 1.396 . S
C418 C419 1.399 . S
C419 H405 0.929 . S
C419 C418 1.399 . S
C419 C420 1.385 . S
C420 H406 0.931 . S
C420 C419 1.385 . S
C420 C421 1.389 . S
C421 C420 1.389 . S
C421 C422 1.387 . S
C422 H407 0.930 . S
C422 C417 1.390 . S
C422 C421 1.387 . S
H423 C435 0.930 . S
H424 C437 0.930 . S
H425 C438 0.930 . S
H426 C442 0.959 . S
H427 C442 0.959 . S
H428 C442 0.961 . S
H429 C443 0.960 . S
H430 C443 0.961 . S
H431 C443 0.959 . S
H432 C446 0.929 . S
H433 C447 0.931 . S
H434 C449 0.930 . S
C435 H423 0.930 . S
C435 C436 1.399 . S
C435 C440 1.399 . S
C436 C435 1.399 . S
C436 C437 1.376 . S
C437 H424 0.930 . S
C437 C436 1.376 . S
C437 C438 1.388 . S
C438 H425 0.930 . S
C438 C437 1.388 . S
C438 C439 1.390 . S
C439 C438 1.390 . S
C439 C440 1.394 . S
C439 C445 1.465 . S
C440 C435 1.399 . S
C440 C439 1.394 . S
C440 C441 1.516 . S
C441 C440 1.516 . S
C441 C442 1.502 . S
C441 C443 1.561 . S
C441 C444 1.526 . S
C442 H426 0.959 . S
C442 H427 0.959 . S
C442 H428 0.961 . S
C442 C441 1.502 . S
C443 H429 0.960 . S
C443 H430 0.961 . S
C443 H431 0.959 . S
C443 C441 1.561 . S
C444 C441 1.526 . S
C444 C445 1.396 . S
C444 C449 1.390 . S
C445 C439 1.465 . S
C445 C444 1.396 . S
C445 C446 1.399 . S
C446 H432 0.929 . S
C446 C445 1.399 . S
C446 C447 1.385 . S
C447 H433 0.931 . S
C447 C446 1.385 . S
C447 C448 1.389 . S
C448 C447 1.389 . S
C448 C449 1.387 . S
C449 H434 0.930 . S
C449 C444 1.390 . S
C449 C448 1.387 . S
H450 C462 0.930 . S
H451 C464 0.930 . S
H452 C465 0.930 1_556 S
H453 C469 0.959 . S
H454 C469 0.959 . S
H455 C469 0.961 . S
H456 C470 0.960 . S
H457 C470 0.961 . S
H458 C470 0.959 . S
H459 C473 0.929 . S
H460 C474 0.931 . S
H461 C476 0.930 . S
C462 H450 0.930 . S
C462 C463 1.399 . S
C462 C467 1.399 1_554 S
C463 C462 1.399 . S
C463 C464 1.376 . S
C464 H451 0.930 . S
C464 C463 1.376 . S
C464 C465 1.388 . S
C465 H452 0.930 1_554 S
C465 C464 1.388 . S
C465 C466 1.390 1_554 S
C466 C465 1.390 1_556 S
C466 C467 1.394 . S
C466 C472 1.465 . S
C467 C462 1.399 1_556 S
C467 C466 1.394 . S
C467 C468 1.516 . S
C468 C467 1.516 . S
C468 C469 1.502 . S
C468 C470 1.561 . S
C468 C471 1.526 . S
C469 H453 0.959 . S
C469 H454 0.959 . S
C469 H455 0.961 . S
C469 C468 1.502 . S
C470 H456 0.960 . S
C470 H457 0.961 . S
C470 H458 0.959 . S
C470 C468 1.561 . S
C471 C468 1.526 . S
C471 C472 1.396 . S
C471 C476 1.390 . S
C472 C466 1.465 . S
C472 C471 1.396 . S
C472 C473 1.399 . S
C473 H459 0.929 . S
C473 C472 1.399 . S
C473 C474 1.385 . S
C474 H460 0.931 . S
C474 C473 1.385 . S
C474 C475 1.389 . S
C475 C474 1.389 . S
C475 C476 1.387 . S
C476 H461 0.930 . S
C476 C471 1.390 . S
C476 C475 1.387 . S
H477 C489 0.930 . S
H478 C491 0.930 . S
H479 C492 0.930 . S
H480 C496 0.959 . S
H481 C496 0.959 . S
H482 C496 0.961 . S
H483 C497 0.960 . S
H484 C497 0.961 . S
H485 C497 0.959 . S
H486 C500 0.929 . S
H487 C501 0.931 . S
H488 C503 0.930 . S
C489 H477 0.930 . S
C489 C490 1.399 . S
C489 C494 1.399 1_556 S
C490 C489 1.399 . S
C490 C491 1.376 . S
C491 H478 0.930 . S
C491 C490 1.376 . S
C491 C492 1.388 1_556 S
C492 H479 0.930 . S
C492 C491 1.388 1_554 S
C492 C493 1.390 . S
C493 C492 1.390 . S
C493 C494 1.394 . S
C493 C499 1.465 . S
C494 C489 1.399 1_554 S
C494 C493 1.394 . S
C494 C495 1.516 . S
C495 C494 1.516 . S
C495 C496 1.502 . S
C495 C497 1.561 . S
C495 C498 1.526 . S
C496 H480 0.959 . S
C496 H481 0.959 . S
C496 H482 0.961 . S
C496 C495 1.502 . S
C497 H483 0.960 . S
C497 H484 0.961 . S
C497 H485 0.959 . S
C497 C495 1.561 . S
C498 C495 1.526 . S
C498 C499 1.396 . S
C498 C503 1.390 . S
C499 C493 1.465 . S
C499 C498 1.396 . S
C499 C500 1.399 . S
C500 H486 0.929 . S
C500 C499 1.399 . S
C500 C501 1.385 . S
C501 H487 0.931 . S
C501 C500 1.385 . S
C501 C502 1.389 . S
C502 C501 1.389 . S
C502 C503 1.387 . S
C503 H488 0.930 . S
C503 C498 1.390 . S
C503 C502 1.387 . S
H504 C516 0.930 . S
H505 C518 0.930 . S
H506 C519 0.930 . S
H507 C523 0.959 . S
H508 C523 0.959 . S
H509 C523 0.961 . S
H510 C524 0.960 . S
H511 C524 0.961 . S
H512 C524 0.959 . S
H513 C527 0.929 . S
H514 C528 0.931 . S
H515 C530 0.930 . S
C516 H504 0.930 . S
C516 C517 1.399 . S
C516 C521 1.399 . S
C517 C516 1.399 . S
C517 C518 1.376 . S
C518 H505 0.930 . S
C518 C517 1.376 . S
C518 C519 1.388 . S
C519 H506 0.930 . S
C519 C518 1.388 . S
C519 C520 1.390 . S
C520 C519 1.390 . S
C520 C521 1.394 . S
C520 C526 1.465 . S
C521 C516 1.399 . S
C521 C520 1.394 . S
C521 C522 1.516 . S
C522 C521 1.516 . S
C522 C523 1.502 . S
C522 C524 1.561 . S
C522 C525 1.526 . S
C523 H507 0.959 . S
C523 H508 0.959 . S
C523 H509 0.961 . S
C523 C522 1.502 . S
C524 H510 0.960 . S
C524 H511 0.961 . S
C524 H512 0.959 . S
C524 C522 1.561 . S
C525 C522 1.526 . S
C525 C526 1.396 . S
C525 C530 1.390 . S
C526 C520 1.465 . S
C526 C525 1.396 . S
C526 C527 1.399 . S
C527 H513 0.929 . S
C527 C526 1.399 . S
C527 C528 1.385 . S
C528 H514 0.931 . S
C528 C527 1.385 . S
C528 C529 1.389 . S
C529 C528 1.389 . S
C529 C530 1.387 . S
C530 H515 0.930 . S
C530 C525 1.390 . S
C530 C529 1.387 . S
H531 C543 0.930 . S
H532 C545 0.930 . S
H533 C546 0.930 . S
H534 C550 0.959 . S
H535 C550 0.959 . S
H536 C550 0.961 . S
H537 C551 0.960 . S
H538 C551 0.961 . S
H539 C551 0.959 . S
H540 C554 0.929 . S
H541 C555 0.931 . S
H542 C557 0.930 . S
C543 H531 0.930 . S
C543 C544 1.399 . S
C543 C548 1.399 . S
C544 C543 1.399 . S
C544 C545 1.376 . S
C545 H532 0.930 . S
C545 C544 1.376 . S
C545 C546 1.388 . S
C546 H533 0.930 . S
C546 C545 1.388 . S
C546 C547 1.390 . S
C547 C546 1.390 . S
C547 C548 1.394 . S
C547 C553 1.465 . S
C548 C543 1.399 . S
C548 C547 1.394 . S
C548 C549 1.516 . S
C549 C548 1.516 . S
C549 C550 1.502 . S
C549 C551 1.561 . S
C549 C552 1.526 . S
C550 H534 0.959 . S
C550 H535 0.959 . S
C550 H536 0.961 . S
C550 C549 1.502 . S
C551 H537 0.960 . S
C551 H538 0.961 . S
C551 H539 0.959 . S
C551 C549 1.561 . S
C552 C549 1.526 . S
C552 C553 1.396 . S
C552 C557 1.390 . S
C553 C547 1.465 . S
C553 C552 1.396 . S
C553 C554 1.399 . S
C554 H540 0.929 . S
C554 C553 1.399 . S
C554 C555 1.385 . S
C555 H541 0.931 . S
C555 C554 1.385 . S
C555 C556 1.389 . S
C556 C555 1.389 . S
C556 C557 1.387 . S
C557 H542 0.930 . S
C557 C552 1.390 . S
C557 C556 1.387 . S
H558 C570 0.930 . S
H559 C572 0.930 . S
H560 C573 0.930 . S
H561 C577 0.959 . S
H562 C577 0.959 . S
H563 C577 0.961 . S
H564 C578 0.960 . S
H565 C578 0.961 . S
H566 C578 0.959 . S
H567 C581 0.929 . S
H568 C582 0.931 . S
H569 C584 0.930 . S
C570 H558 0.930 . S
C570 C571 1.399 . S
C570 C575 1.399 . S
C571 C570 1.399 . S
C571 C572 1.376 . S
C572 H559 0.930 . S
C572 C571 1.376 . S
C572 C573 1.388 . S
C573 H560 0.930 . S
C573 C572 1.388 . S
C573 C574 1.390 . S
C574 C573 1.390 . S
C574 C575 1.394 . S
C574 C580 1.465 . S
C575 C570 1.399 . S
C575 C574 1.394 . S
C575 C576 1.516 . S
C576 C575 1.516 . S
C576 C577 1.502 . S
C576 C578 1.561 . S
C576 C579 1.526 . S
C577 H561 0.959 . S
C577 H562 0.959 . S
C577 H563 0.961 . S
C577 C576 1.502 . S
C578 H564 0.960 . S
C578 H565 0.961 . S
C578 H566 0.959 . S
C578 C576 1.561 . S
C579 C576 1.526 . S
C579 C580 1.396 . S
C579 C584 1.390 . S
C580 C574 1.465 . S
C580 C579 1.396 . S
C580 C581 1.399 . S
C581 H567 0.929 . S
C581 C580 1.399 . S
C581 C582 1.385 . S
C582 H568 0.931 . S
C582 C581 1.385 . S
C582 C583 1.389 . S
C583 C582 1.389 . S
C583 C584 1.387 . S
C584 H569 0.930 . S
C584 C579 1.390 . S
C584 C583 1.387 . S
H585 C597 0.930 . S
H586 C599 0.930 . S
H587 C600 0.930 . S
H588 C604 0.959 . S
H589 C604 0.959 . S
H590 C604 0.961 . S
H591 C605 0.960 . S
H592 C605 0.961 . S
H593 C605 0.959 . S
H594 C608 0.929 . S
H595 C609 0.931 . S
H596 C611 0.930 . S
C597 H585 0.930 . S
C597 C598 1.399 . S
C597 C602 1.399 . S
C598 C597 1.399 . S
C598 C599 1.376 . S
C599 H586 0.930 . S
C599 C598 1.376 . S
C599 C600 1.388 . S
C600 H587 0.930 . S
C600 C599 1.388 . S
C600 C601 1.390 . S
C601 C600 1.390 . S
C601 C602 1.394 . S
C601 C607 1.465 . S
C602 C597 1.399 . S
C602 C601 1.394 . S
C602 C603 1.516 . S
C603 C602 1.516 . S
C603 C604 1.502 . S
C603 C605 1.561 . S
C603 C606 1.526 . S
C604 H588 0.959 . S
C604 H589 0.959 . S
C604 H590 0.961 . S
C604 C603 1.502 . S
C605 H591 0.960 . S
C605 H592 0.961 . S
C605 H593 0.959 . S
C605 C603 1.561 . S
C606 C603 1.526 . S
C606 C607 1.396 . S
C606 C611 1.390 . S
C607 C601 1.465 . S
C607 C606 1.396 . S
C607 C608 1.399 . S
C608 H594 0.929 . S
C608 C607 1.399 . S
C608 C609 1.385 . S
C609 H595 0.931 . S
C609 C608 1.385 . S
C609 C610 1.389 . S
C610 C609 1.389 . S
C610 C611 1.387 . S
C611 H596 0.930 . S
C611 C606 1.390 . S
C611 C610 1.387 . S
H612 C624 0.930 . S
H613 C626 0.930 . S
H614 C627 0.930 . S
H615 C631 0.959 . S
H616 C631 0.959 . S
H617 C631 0.961 . S
H618 C632 0.960 . S
H619 C632 0.961 . S
H620 C632 0.959 . S
H621 C635 0.929 . S
H622 C636 0.931 . S
H623 C638 0.930 . S
C624 H612 0.930 . S
C624 C625 1.399 . S
C624 C629 1.399 . S
C625 C624 1.399 . S
C625 C626 1.376 . S
C626 H613 0.930 . S
C626 C625 1.376 . S
C626 C627 1.388 . S
C627 H614 0.930 . S
C627 C626 1.388 . S
C627 C628 1.390 . S
C628 C627 1.390 . S
C628 C629 1.394 . S
C628 C634 1.465 . S
C629 C624 1.399 . S
C629 C628 1.394 . S
C629 C630 1.516 . S
C630 C629 1.516 . S
C630 C631 1.502 . S
C630 C632 1.561 . S
C630 C633 1.526 . S
C631 H615 0.959 . S
C631 H616 0.959 . S
C631 H617 0.961 . S
C631 C630 1.502 . S
C632 H618 0.960 . S
C632 H619 0.961 . S
C632 H620 0.959 . S
C632 C630 1.561 . S
C633 C630 1.526 . S
C633 C634 1.396 . S
C633 C638 1.390 . S
C634 C628 1.465 . S
C634 C633 1.396 . S
C634 C635 1.399 . S
C635 H621 0.929 . S
C635 C634 1.399 . S
C635 C636 1.385 . S
C636 H622 0.931 . S
C636 C635 1.385 . S
C636 C637 1.389 . S
C637 C636 1.389 . S
C637 C638 1.387 . S
C638 H623 0.930 . S
C638 C633 1.390 . S
C638 C637 1.387 . S
H639 C651 0.930 . S
H640 C653 0.930 . S
H641 C654 0.930 . S
H642 C658 0.959 . S
H643 C658 0.959 . S
H644 C658 0.961 . S
H645 C659 0.960 . S
H646 C659 0.961 . S
H647 C659 0.959 . S
H648 C662 0.929 . S
H649 C663 0.931 . S
H650 C665 0.930 . S
C651 H639 0.930 . S
C651 C652 1.399 . S
C651 C656 1.399 . S
C652 C651 1.399 . S
C652 C653 1.376 . S
C653 H640 0.930 . S
C653 C652 1.376 . S
C653 C654 1.388 . S
C654 H641 0.930 . S
C654 C653 1.388 . S
C654 C655 1.390 . S
C655 C654 1.390 . S
C655 C656 1.394 . S
C655 C661 1.465 . S
C656 C651 1.399 . S
C656 C655 1.394 . S
C656 C657 1.516 . S
C657 C656 1.516 . S
C657 C658 1.502 . S
C657 C659 1.561 . S
C657 C660 1.526 . S
C658 H642 0.959 . S
C658 H643 0.959 . S
C658 H644 0.961 . S
C658 C657 1.502 . S
C659 H645 0.960 . S
C659 H646 0.961 . S
C659 H647 0.959 . S
C659 C657 1.561 . S
C660 C657 1.526 . S
C660 C661 1.396 . S
C660 C665 1.390 . S
C661 C655 1.465 . S
C661 C660 1.396 . S
C661 C662 1.399 . S
C662 H648 0.929 . S
C662 C661 1.399 . S
C662 C663 1.385 . S
C663 H649 0.931 . S
C663 C662 1.385 . S
C663 C664 1.389 . S
C664 C663 1.389 . S
C664 C665 1.387 . S
C665 H650 0.930 . S
C665 C660 1.390 . S
C665 C664 1.387 . S
H666 C678 0.930 . S
H667 C680 0.930 . S
H668 C681 0.930 . S
H669 C685 0.959 . S
H670 C685 0.959 . S
H671 C685 0.961 . S
H672 C686 0.960 . S
H673 C686 0.961 . S
H674 C686 0.959 . S
H675 C689 0.929 . S
H676 C690 0.931 . S
H677 C692 0.930 . S
C678 H666 0.930 . S
C678 C679 1.399 . S
C678 C683 1.399 1_554 S
C679 C678 1.399 . S
C679 C680 1.376 . S
C680 H667 0.930 . S
C680 C679 1.376 . S
C680 C681 1.388 1_554 S
C681 H668 0.930 . S
C681 C680 1.388 1_556 S
C681 C682 1.390 . S
C682 C681 1.390 . S
C682 C683 1.394 . S
C682 C688 1.465 . S
C683 C678 1.399 1_556 S
C683 C682 1.394 . S
C683 C684 1.516 . S
C684 C683 1.516 . S
C684 C685 1.502 . S
C684 C686 1.561 . S
C684 C687 1.526 . S
C685 H669 0.959 . S
C685 H670 0.959 . S
C685 H671 0.961 . S
C685 C684 1.502 . S
C686 H672 0.960 . S
C686 H673 0.961 . S
C686 H674 0.959 . S
C686 C684 1.561 . S
C687 C684 1.526 . S
C687 C688 1.396 . S
C687 C692 1.390 . S
C688 C682 1.465 . S
C688 C687 1.396 . S
C688 C689 1.399 . S
C689 H675 0.929 . S
C689 C688 1.399 . S
C689 C690 1.385 . S
C690 H676 0.931 . S
C690 C689 1.385 . S
C690 C691 1.389 . S
C691 C690 1.389 . S
C691 C692 1.387 . S
C692 H677 0.930 . S
C692 C687 1.390 . S
C692 C691 1.387 . S
H693 C705 0.930 . S
H694 C707 0.930 . S
H695 C708 0.932 . S
H696 C712 0.959 . S
H697 C712 0.959 . S
H698 C712 0.961 . S
H699 C713 0.960 . S
H700 C713 0.961 . S
H701 C713 0.959 . S
H702 C716 0.929 . S
H703 C717 0.931 . S
H704 C719 0.930 . S
C705 H693 0.930 . S
C705 C706 1.399 . S
C705 C710 1.399 1_556 S
C706 C705 1.399 . S
C706 C707 1.376 . S
C707 H694 0.930 . S
C707 C706 1.376 . S
C707 C708 1.388 . S
C708 H695 0.932 . S
C708 C707 1.388 . S
C708 C709 1.390 1_556 S
C709 C708 1.390 1_554 S
C709 C710 1.394 . S
C709 C715 1.465 . S
C710 C705 1.399 1_554 S
C710 C709 1.394 . S
C710 C711 1.516 . S
C711 C710 1.516 . S
C711 C712 1.502 . S
C711 C713 1.561 . S
C711 C714 1.526 . S
C712 H696 0.959 . S
C712 H697 0.959 . S
C712 H698 0.961 . S
C712 C711 1.502 . S
C713 H699 0.960 . S
C713 H700 0.961 . S
C713 H701 0.959 . S
C713 C711 1.561 . S
C714 C711 1.526 . S
C714 C715 1.396 . S
C714 C719 1.390 . S
C715 C709 1.465 . S
C715 C714 1.396 . S
C715 C716 1.399 . S
C716 H702 0.929 . S
C716 C715 1.399 . S
C716 C717 1.385 . S
C717 H703 0.931 . S
C717 C716 1.385 . S
C717 C718 1.389 . S
C718 C717 1.389 . S
C718 C719 1.387 . S
C719 H704 0.930 . S
C719 C714 1.390 . S
C719 C718 1.387 . S
H720 C732 0.930 . S
H721 C734 0.930 . S
H722 C735 0.930 . S
H723 C739 0.959 . S
H724 C739 0.959 1_554 S
H725 C739 0.961 . S
H726 C740 0.960 . S
H727 C740 0.961 . S
H728 C740 0.959 . S
H729 C743 0.929 . S
H730 C744 0.931 . S
H731 C746 0.930 . S
C732 H720 0.930 . S
C732 C733 1.399 . S
C732 C737 1.399 . S
C733 C732 1.399 . S
C733 C734 1.376 . S
C734 H721 0.930 . S
C734 C733 1.376 . S
C734 C735 1.388 . S
C735 H722 0.930 . S
C735 C734 1.388 . S
C735 C736 1.390 . S
C736 C735 1.390 . S
C736 C737 1.394 . S
C736 C742 1.465 . S
C737 C732 1.399 . S
C737 C736 1.394 . S
C737 C738 1.516 . S
C738 C737 1.516 . S
C738 C739 1.502 . S
C738 C740 1.561 1_556 S
C738 C741 1.526 . S
C739 H723 0.959 . S
C739 H724 0.959 1_556 S
C739 H725 0.961 . S
C739 C738 1.502 . S
C740 H726 0.960 . S
C740 H727 0.961 . S
C740 H728 0.959 . S
C740 C738 1.561 1_554 S
C741 C738 1.526 . S
C741 C742 1.396 . S
C741 C746 1.390 1_556 S
C742 C736 1.465 . S
C742 C741 1.396 . S
C742 C743 1.399 . S
C743 H729 0.929 . S
C743 C742 1.399 . S
C743 C744 1.385 . S
C744 H730 0.931 . S
C744 C743 1.385 . S
C744 C745 1.389 1_556 S
C745 C744 1.389 1_554 S
C745 C746 1.387 . S
C746 H731 0.930 . S
C746 C741 1.390 1_554 S
C746 C745 1.387 . S
H747 C759 0.930 . S
H748 C761 0.930 . S
H749 C762 0.930 . S
H750 C766 0.959 1_554 S
H751 C766 0.959 . S
H752 C766 0.961 . S
H753 C767 0.960 . S
H754 C767 0.961 . S
H755 C767 0.959 . S
H756 C770 0.929 . S
H757 C771 0.931 . S
H758 C773 0.930 . S
C759 H747 0.930 . S
C759 C760 1.399 . S
C759 C764 1.399 . S
C760 C759 1.399 . S
C760 C761 1.376 . S
C761 H748 0.930 . S
C761 C760 1.376 . S
C761 C762 1.388 . S
C762 H749 0.930 . S
C762 C761 1.388 . S
C762 C763 1.390 . S
C763 C762 1.390 . S
C763 C764 1.394 . S
C763 C769 1.465 . S
C764 C759 1.399 . S
C764 C763 1.394 . S
C764 C765 1.516 . S
C765 C764 1.516 . S
C765 C766 1.502 1_554 S
C765 C767 1.561 1_554 S
C765 C768 1.526 . S
C766 H750 0.959 1_556 S
C766 H751 0.959 . S
C766 H752 0.961 . S
C766 C765 1.502 1_556 S
C767 H753 0.960 . S
C767 H754 0.961 . S
C767 H755 0.959 . S
C767 C765 1.561 1_556 S
C768 C765 1.526 . S
C768 C769 1.396 . S
C768 C773 1.390 1_554 S
C769 C763 1.465 . S
C769 C768 1.396 . S
C769 C770 1.399 . S
C770 H756 0.929 . S
C770 C769 1.399 . S
C770 C771 1.385 . S
C771 H757 0.931 . S
C771 C770 1.385 . S
C771 C772 1.388 . S
C772 C771 1.388 . S
C772 C773 1.387 1_554 S
C773 H758 0.930 . S
C773 C768 1.390 1_556 S
C773 C772 1.387 1_556 S
H774 C786 0.930 . S
H775 C788 0.930 . S
H776 C789 0.930 . S
H777 C793 0.959 . S
H778 C793 0.959 . S
H779 C793 0.961 . S
H780 C794 0.960 . S
H781 C794 0.961 . S
H782 C794 0.959 . S
H783 C797 0.929 . S
H784 C798 0.931 . S
H785 C800 0.930 . S
C786 H774 0.930 . S
C786 C787 1.399 . S
C786 C791 1.399 . S
C787 C786 1.399 . S
C787 C788 1.376 . S
C788 H775 0.930 . S
C788 C787 1.376 . S
C788 C789 1.388 . S
C789 H776 0.930 . S
C789 C788 1.388 . S
C789 C790 1.390 . S
C790 C789 1.390 . S
C790 C791 1.394 . S
C790 C796 1.465 . S
C791 C786 1.399 . S
C791 C790 1.394 . S
C791 C792 1.516 . S
C792 C791 1.516 . S
C792 C793 1.502 . S
C792 C794 1.561 . S
C792 C795 1.526 . S
C793 H777 0.959 . S
C793 H778 0.959 . S
C793 H779 0.961 . S
C793 C792 1.502 . S
C794 H780 0.960 . S
C794 H781 0.961 . S
C794 H782 0.959 . S
C794 C792 1.561 . S
C795 C792 1.526 . S
C795 C796 1.396 . S
C795 C800 1.390 . S
C796 C790 1.465 . S
C796 C795 1.396 . S
C796 C797 1.399 . S
C797 H783 0.929 . S
C797 C796 1.399 . S
C797 C798 1.385 . S
C798 H784 0.931 . S
C798 C797 1.385 . S
C798 C799 1.389 . S
C799 C798 1.389 . S
C799 C800 1.387 . S
C800 H785 0.930 . S
C800 C795 1.390 . S
C800 C799 1.387 . S
H801 C813 0.930 . S
H802 C815 0.930 . S
H803 C816 0.930 . S
H804 C820 0.959 . S
H805 C820 0.959 . S
H806 C820 0.961 . S
H807 C821 0.960 . S
H808 C821 0.961 . S
H809 C821 0.959 . S
H810 C824 0.929 . S
H811 C825 0.931 . S
H812 C827 0.930 . S
C813 H801 0.930 . S
C813 C814 1.399 . S
C813 C818 1.399 . S
C814 C813 1.399 . S
C814 C815 1.376 . S
C815 H802 0.930 . S
C815 C814 1.376 . S
C815 C816 1.388 . S
C816 H803 0.930 . S
C816 C815 1.388 . S
C816 C817 1.390 . S
C817 C816 1.390 . S
C817 C818 1.394 . S
C817 C823 1.465 . S
C818 C813 1.399 . S
C818 C817 1.394 . S
C818 C819 1.516 . S
C819 C818 1.516 . S
C819 C820 1.502 . S
C819 C821 1.561 . S
C819 C822 1.526 . S
C820 H804 0.959 . S
C820 H805 0.959 . S
C820 H806 0.961 . S
C820 C819 1.502 . S
C821 H807 0.960 . S
C821 H808 0.961 . S
C821 H809 0.959 . S
C821 C819 1.561 . S
C822 C819 1.526 . S
C822 C823 1.396 . S
C822 C827 1.390 . S
C823 C817 1.465 . S
C823 C822 1.396 . S
C823 C824 1.399 . S
C824 H810 0.929 . S
C824 C823 1.399 . S
C824 C825 1.385 . S
C825 H811 0.931 . S
C825 C824 1.385 . S
C825 C826 1.389 . S
C826 C825 1.389 . S
C826 C827 1.387 . S
C827 H812 0.930 . S
C827 C822 1.390 . S
C827 C826 1.387 . S
H828 C840 0.930 . S
H829 C842 0.930 . S
H830 C843 0.930 . S
H831 C847 0.959 . S
H832 C847 0.959 . S
H833 C847 0.961 . S
H834 C848 0.960 . S
H835 C848 0.961 . S
H836 C848 0.959 . S
H837 C851 0.929 . S
H838 C852 0.931 . S
H839 C854 0.930 . S
C840 H828 0.930 . S
C840 C841 1.399 . S
C840 C845 1.399 . S
C841 C840 1.399 . S
C841 C842 1.376 . S
C842 H829 0.930 . S
C842 C841 1.376 . S
C842 C843 1.388 . S
C843 H830 0.930 . S
C843 C842 1.388 . S
C843 C844 1.390 . S
C844 C843 1.390 . S
C844 C845 1.394 . S
C844 C850 1.465 . S
C845 C840 1.399 . S
C845 C844 1.394 . S
C845 C846 1.516 . S
C846 C845 1.516 . S
C846 C847 1.502 . S
C846 C848 1.561 . S
C846 C849 1.526 . S
C847 H831 0.959 . S
C847 H832 0.959 . S
C847 H833 0.961 . S
C847 C846 1.502 . S
C848 H834 0.960 . S
C848 H835 0.961 . S
C848 H836 0.959 . S
C848 C846 1.561 . S
C849 C846 1.526 . S
C849 C850 1.396 . S
C849 C854 1.390 . S
C850 C844 1.465 . S
C850 C849 1.396 . S
C850 C851 1.399 . S
C851 H837 0.929 . S
C851 C850 1.399 . S
C851 C852 1.385 . S
C852 H838 0.931 . S
C852 C851 1.385 . S
C852 C853 1.389 . S
C853 C852 1.389 . S
C853 C854 1.387 . S
C854 H839 0.930 . S
C854 C849 1.390 . S
C854 C853 1.387 . S
H855 C867 0.930 . S
H856 C869 0.930 . S
H857 C870 0.930 . S
H858 C874 0.959 . S
H859 C874 0.959 . S
H860 C874 0.961 . S
H861 C875 0.960 . S
H862 C875 0.961 . S
H863 C875 0.959 . S
H864 C878 0.929 . S
H865 C879 0.931 . S
H866 C881 0.930 . S
C867 H855 0.930 . S
C867 C868 1.399 . S
C867 C872 1.399 . S
C868 C867 1.399 . S
C868 C869 1.376 . S
C869 H856 0.930 . S
C869 C868 1.376 . S
C869 C870 1.388 . S
C870 H857 0.930 . S
C870 C869 1.388 . S
C870 C871 1.390 . S
C871 C870 1.390 . S
C871 C872 1.394 . S
C871 C877 1.465 . S
C872 C867 1.399 . S
C872 C871 1.394 . S
C872 C873 1.516 . S
C873 C872 1.516 . S
C873 C874 1.502 . S
C873 C875 1.561 . S
C873 C876 1.526 . S
C874 H858 0.959 . S
C874 H859 0.959 . S
C874 H860 0.961 . S
C874 C873 1.502 . S
C875 H861 0.960 . S
C875 H862 0.961 . S
C875 H863 0.959 . S
C875 C873 1.561 . S
C876 C873 1.526 . S
C876 C877 1.396 . S
C876 C881 1.390 . S
C877 C871 1.465 . S
C877 C876 1.396 . S
C877 C878 1.399 . S
C878 H864 0.929 . S
C878 C877 1.399 . S
C878 C879 1.385 . S
C879 H865 0.931 . S
C879 C878 1.385 . S
C879 C880 1.389 . S
C880 C879 1.389 . S
C880 C881 1.387 . S
C881 H866 0.930 . S
C881 C876 1.390 . S
C881 C880 1.387 . S
H882 C894 0.930 . S
H883 C896 0.930 . S
H884 C897 0.930 . S
H885 C901 0.959 . S
H886 C901 0.959 . S
H887 C901 0.961 . S
H888 C902 0.960 . S
H889 C902 0.961 . S
H890 C902 0.959 . S
H891 C905 0.929 . S
H892 C906 0.931 . S
H893 C908 0.930 . S
C894 H882 0.930 . S
C894 C895 1.399 . S
C894 C899 1.399 . S
C895 C894 1.399 . S
C895 C896 1.376 . S
C896 H883 0.930 . S
C896 C895 1.376 . S
C896 C897 1.388 . S
C897 H884 0.930 . S
C897 C896 1.388 . S
C897 C898 1.390 . S
C898 C897 1.390 . S
C898 C899 1.394 . S
C898 C904 1.465 . S
C899 C894 1.399 . S
C899 C898 1.394 . S
C899 C900 1.516 . S
C900 C899 1.516 . S
C900 C901 1.502 . S
C900 C902 1.561 . S
C900 C903 1.526 . S
C901 H885 0.959 . S
C901 H886 0.959 . S
C901 H887 0.961 . S
C901 C900 1.502 . S
C902 H888 0.960 . S
C902 H889 0.961 . S
C902 H890 0.959 . S
C902 C900 1.561 . S
C903 C900 1.526 . S
C903 C904 1.396 . S
C903 C908 1.390 . S
C904 C898 1.465 . S
C904 C903 1.396 . S
C904 C905 1.399 . S
C905 H891 0.929 . S
C905 C904 1.399 . S
C905 C906 1.385 . S
C906 H892 0.931 . S
C906 C905 1.385 . S
C906 C907 1.389 . S
C907 C906 1.389 . S
C907 C908 1.387 . S
C908 H893 0.930 . S
C908 C903 1.390 . S
C908 C907 1.387 . S
H909 C921 0.930 . S
H910 C923 0.930 . S
H911 C924 0.930 . S
H912 C928 0.959 . S
H913 C928 0.959 . S
H914 C928 0.961 . S
H915 C929 0.960 . S
H916 C929 0.961 . S
H917 C929 0.959 . S
H918 C932 0.929 . S
H919 C933 0.931 . S
H920 C935 0.930 . S
C921 H909 0.930 . S
C921 C922 1.399 . S
C921 C926 1.399 . S
C922 C921 1.399 . S
C922 C923 1.376 . S
C923 H910 0.930 . S
C923 C922 1.376 . S
C923 C924 1.388 . S
C924 H911 0.930 . S
C924 C923 1.388 . S
C924 C925 1.390 . S
C925 C924 1.390 . S
C925 C926 1.394 . S
C925 C931 1.465 . S
C926 C921 1.399 . S
C926 C925 1.394 . S
C926 C927 1.516 . S
C927 C926 1.516 . S
C927 C928 1.502 . S
C927 C929 1.561 . S
C927 C930 1.526 . S
C928 H912 0.959 . S
C928 H913 0.959 . S
C928 H914 0.961 . S
C928 C927 1.502 . S
C929 H915 0.960 . S
C929 H916 0.961 . S
C929 H917 0.959 . S
C929 C927 1.561 . S
C930 C927 1.526 . S
C930 C931 1.396 . S
C930 C935 1.390 . S
C931 C925 1.465 . S
C931 C930 1.396 . S
C931 C932 1.399 . S
C932 H918 0.929 . S
C932 C931 1.399 . S
C932 C933 1.385 . S
C933 H919 0.931 . S
C933 C932 1.385 . S
C933 C934 1.389 . S
C934 C933 1.389 . S
C934 C935 1.387 . S
C935 H920 0.930 . S
C935 C930 1.390 . S
C935 C934 1.387 . S
H936 C948 0.930 . S
H937 C950 0.930 . S
H938 C951 0.930 . S
H939 C955 0.959 . S
H940 C955 0.959 . S
H941 C955 0.961 . S
H942 C956 0.960 . S
H943 C956 0.961 . S
H944 C956 0.959 . S
H945 C959 0.929 . S
H946 C960 0.931 . S
H947 C962 0.930 . S
C948 H936 0.930 . S
C948 C949 1.399 . S
C948 C953 1.399 . S
C949 C948 1.399 . S
C949 C950 1.376 . S
C950 H937 0.930 . S
C950 C949 1.376 . S
C950 C951 1.388 . S
C951 H938 0.930 . S
C951 C950 1.388 . S
C951 C952 1.390 . S
C952 C951 1.390 . S
C952 C953 1.394 . S
C952 C958 1.465 . S
C953 C948 1.399 . S
C953 C952 1.394 . S
C953 C954 1.516 . S
C954 C953 1.516 . S
C954 C955 1.502 . S
C954 C956 1.561 . S
C954 C957 1.526 . S
C955 H939 0.959 . S
C955 H940 0.959 . S
C955 H941 0.961 . S
C955 C954 1.502 . S
C956 H942 0.960 . S
C956 H943 0.961 . S
C956 H944 0.959 . S
C956 C954 1.561 . S
C957 C954 1.526 . S
C957 C958 1.396 . S
C957 C962 1.390 . S
C958 C952 1.465 . S
C958 C957 1.396 . S
C958 C959 1.399 . S
C959 H945 0.929 . S
C959 C958 1.399 . S
C959 C960 1.385 . S
C960 H946 0.931 . S
C960 C959 1.385 . S
C960 C961 1.389 . S
C961 C960 1.389 . S
C961 C962 1.387 . S
C962 H947 0.930 . S
C962 C957 1.390 . S
C962 C961 1.387 . S
H963 C975 0.930 . S
H964 C977 0.930 . S
H965 C978 0.930 . S
H966 C982 0.959 . S
H967 C982 0.959 . S
H968 C982 0.961 . S
H969 C983 0.960 . S
H970 C983 0.961 . S
H971 C983 0.959 . S
H972 C986 0.929 . S
H973 C987 0.931 . S
H974 C989 0.930 . S
C975 H963 0.930 . S
C975 C976 1.399 . S
C975 C980 1.399 . S
C976 C975 1.399 . S
C976 C977 1.376 . S
C977 H964 0.930 . S
C977 C976 1.376 . S
C977 C978 1.388 . S
C978 H965 0.930 . S
C978 C977 1.388 . S
C978 C979 1.390 . S
C979 C978 1.390 . S
C979 C980 1.394 . S
C979 C985 1.465 . S
C980 C975 1.399 . S
C980 C979 1.394 . S
C980 C981 1.516 . S
C981 C980 1.516 . S
C981 C982 1.502 . S
C981 C983 1.561 . S
C981 C984 1.526 . S
C982 H966 0.959 . S
C982 H967 0.959 . S
C982 H968 0.961 . S
C982 C981 1.502 . S
C983 H969 0.960 . S
C983 H970 0.961 . S
C983 H971 0.959 . S
C983 C981 1.561 . S
C984 C981 1.526 . S
C984 C985 1.396 . S
C984 C989 1.390 . S
C985 C979 1.465 . S
C985 C984 1.396 . S
C985 C986 1.399 . S
C986 H972 0.929 . S
C986 C985 1.399 . S
C986 C987 1.385 . S
C987 H973 0.931 . S
C987 C986 1.385 . S
C987 C988 1.389 . S
C988 C987 1.389 . S
C988 C989 1.387 . S
C989 H974 0.930 . S
C989 C984 1.390 . S
C989 C988 1.387 . S
H990 C1002 0.930 . S
H991 C1004 0.930 . S
H992 C1005 0.930 . S
H993 C1009 0.959 . S
H994 C1009 0.959 . S
H995 C1009 0.961 . S
H996 C1010 0.960 . S
H997 C1010 0.961 . S
H998 C1010 0.959 1_556 S
H999 C1013 0.929 . S
H1000 C1014 0.931 . S
H1001 C1016 0.930 . S
C1002 H990 0.930 . S
C1002 C1003 1.399 . S
C1002 C1007 1.399 1_554 S
C1003 C1002 1.399 . S
C1003 C1004 1.376 1_554 S
C1004 H991 0.930 . S
C1004 C1003 1.376 1_556 S
C1004 C1005 1.388 . S
C1005 H992 0.930 . S
C1005 C1004 1.388 . S
C1005 C1006 1.390 . S
C1006 C1005 1.390 . S
C1006 C1007 1.394 . S
C1006 C1012 1.465 . S
C1007 C1002 1.399 1_556 S
C1007 C1006 1.394 . S
C1007 C1008 1.516 . S
C1008 C1007 1.516 . S
C1008 C1009 1.502 1_556 S
C1008 C1010 1.561 1_556 S
C1008 C1011 1.526 . S
C1009 H993 0.959 . S
C1009 H994 0.959 . S
C1009 H995 0.961 . S
C1009 C1008 1.502 1_554 S
C1010 H996 0.960 . S
C1010 H997 0.961 . S
C1010 H998 0.959 1_554 S
C1010 C1008 1.561 1_554 S
C1011 C1008 1.526 . S
C1011 C1012 1.396 . S
C1011 C1016 1.390 . S
C1012 C1006 1.465 . S
C1012 C1011 1.396 . S
C1012 C1013 1.399 . S
C1013 H999 0.929 . S
C1013 C1012 1.399 . S
C1013 C1014 1.385 . S
C1014 H1000 0.931 . S
C1014 C1013 1.385 . S
C1014 C1015 1.389 . S
C1015 C1014 1.389 . S
C1015 C1016 1.387 . S
C1016 H1001 0.930 . S
C1016 C1011 1.390 . S
C1016 C1015 1.387 . S
H1017 C1029 0.930 . S
H1018 C1031 0.930 . S
H1019 C1032 0.930 . S
H1020 C1036 0.959 . S
H1021 C1036 0.959 . S
H1022 C1036 0.961 . S
H1023 C1037 0.960 . S
H1024 C1037 0.961 . S
H1025 C1037 0.959 . S
H1026 C1040 0.929 . S
H1027 C1041 0.931 . S
H1028 C1043 0.930 . S
C1029 H1017 0.930 . S
C1029 C1030 1.399 . S
C1029 C1034 1.399 . S
C1030 C1029 1.399 . S
C1030 C1031 1.376 . S
C1031 H1018 0.930 . S
C1031 C1030 1.376 . S
C1031 C1032 1.388 . S
C1032 H1019 0.930 . S
C1032 C1031 1.388 . S
C1032 C1033 1.390 . S
C1033 C1032 1.390 . S
C1033 C1034 1.394 . S
C1033 C1039 1.465 . S
C1034 C1029 1.399 . S
C1034 C1033 1.394 . S
C1034 C1035 1.516 . S
C1035 C1034 1.516 . S
C1035 C1036 1.502 . S
C1035 C1037 1.561 . S
C1035 C1038 1.526 . S
C1036 H1020 0.959 . S
C1036 H1021 0.959 . S
C1036 H1022 0.961 . S
C1036 C1035 1.502 . S
C1037 H1023 0.960 . S
C1037 H1024 0.961 . S
C1037 H1025 0.959 . S
C1037 C1035 1.561 . S
C1038 C1035 1.526 . S
C1038 C1039 1.396 . S
C1038 C1043 1.390 . S
C1039 C1033 1.465 . S
C1039 C1038 1.396 . S
C1039 C1040 1.399 1_554 S
C1040 H1026 0.929 . S
C1040 C1039 1.399 1_556 S
C1040 C1041 1.385 . S
C1041 H1027 0.931 . S
C1041 C1040 1.385 . S
C1041 C1042 1.389 . S
C1042 C1041 1.389 . S
C1042 C1043 1.387 1_556 S
C1043 H1028 0.930 . S
C1043 C1038 1.390 . S
C1043 C1042 1.387 1_554 S
H1044 C1056 0.930 . S
H1045 C1058 0.930 . S
H1046 C1059 0.930 . S
H1047 C1063 0.959 . S
H1048 C1063 0.959 . S
H1049 C1063 0.961 . S
H1050 C1064 0.960 . S
H1051 C1064 0.961 . S
H1052 C1064 0.959 . S
H1053 C1067 0.929 . S
H1054 C1068 0.931 . S
H1055 C1070 0.930 . S
C1056 H1044 0.930 . S
C1056 C1057 1.399 . S
C1056 C1061 1.399 . S
C1057 C1056 1.399 . S
C1057 C1058 1.376 . S
C1058 H1045 0.930 . S
C1058 C1057 1.376 . S
C1058 C1059 1.388 . S
C1059 H1046 0.930 . S
C1059 C1058 1.388 . S
C1059 C1060 1.390 . S
C1060 C1059 1.390 . S
C1060 C1061 1.394 . S
C1060 C1066 1.465 . S
C1061 C1056 1.399 . S
C1061 C1060 1.394 . S
C1061 C1062 1.516 . S
C1062 C1061 1.516 . S
C1062 C1063 1.502 . S
C1062 C1064 1.561 . S
C1062 C1065 1.526 . S
C1063 H1047 0.959 . S
C1063 H1048 0.959 . S
C1063 H1049 0.961 . S
C1063 C1062 1.502 . S
C1064 H1050 0.960 . S
C1064 H1051 0.961 . S
C1064 H1052 0.959 . S
C1064 C1062 1.561 . S
C1065 C1062 1.526 . S
C1065 C1066 1.396 . S
C1065 C1070 1.390 . S
C1066 C1060 1.465 . S
C1066 C1065 1.396 . S
C1066 C1067 1.399 . S
C1067 H1053 0.929 . S
C1067 C1066 1.399 . S
C1067 C1068 1.385 . S
C1068 H1054 0.931 . S
C1068 C1067 1.385 . S
C1068 C1069 1.389 . S
C1069 C1068 1.389 . S
C1069 C1070 1.387 . S
C1070 H1055 0.930 . S
C1070 C1065 1.390 . S
C1070 C1069 1.387 . S
H1071 C1083 0.930 . S
H1072 C1085 0.930 . S
H1073 C1086 0.930 . S
H1074 C1090 0.962 . S
H1075 C1090 0.959 . S
H1076 C1090 0.961 1_655 S
H1077 C1091 0.960 1_655 S
H1078 C1091 0.961 . S
H1079 C1091 0.959 . S
H1080 C1094 0.929 . S
H1081 C1095 0.931 . S
H1082 C1097 0.930 . S
C1083 H1071 0.930 . S
C1083 C1084 1.399 . S
C1083 C1088 1.399 . S
C1084 C1083 1.399 . S
C1084 C1085 1.376 . S
C1085 H1072 0.930 . S
C1085 C1084 1.376 . S
C1085 C1086 1.388 . S
C1086 H1073 0.930 . S
C1086 C1085 1.388 . S
C1086 C1087 1.390 . S
C1087 C1086 1.390 . S
C1087 C1088 1.394 . S
C1087 C1093 1.465 1_655 S
C1088 C1083 1.399 . S
C1088 C1087 1.394 . S
C1088 C1089 1.516 1_655 S
C1089 C1088 1.516 1_455 S
C1089 C1090 1.502 . S
C1089 C1091 1.561 . S
C1089 C1092 1.526 . S
C1090 H1074 0.962 . S
C1090 H1075 0.959 . S
C1090 H1076 0.961 1_455 S
C1090 C1089 1.502 . S
C1091 H1077 0.960 1_455 S
C1091 H1078 0.961 . S
C1091 H1079 0.959 . S
C1091 C1089 1.561 . S
C1092 C1089 1.526 . S
C1092 C1093 1.396 . S
C1092 C1097 1.390 . S
C1093 C1087 1.465 1_455 S
C1093 C1092 1.396 . S
C1093 C1094 1.399 . S
C1094 H1080 0.929 . S
C1094 C1093 1.399 . S
C1094 C1095 1.385 . S
C1095 H1081 0.931 . S
C1095 C1094 1.385 . S
C1095 C1096 1.389 . S
C1096 C1095 1.389 . S
C1096 C1097 1.387 . S
C1097 H1082 0.930 . S
C1097 C1092 1.390 . S
C1097 C1096 1.387 . S
H1098 C1110 0.930 . S
H1099 C1112 0.930 . S
H1100 C1113 0.930 . S
H1101 C1117 0.959 . S
H1102 C1117 0.959 . S
H1103 C1117 0.961 1_545 S
H1104 C1118 0.960 . S
H1105 C1118 0.961 1_565 S
H1106 C1118 0.959 . S
H1107 C1121 0.929 . S
H1108 C1122 0.931 . S
H1109 C1124 0.930 . S
C1110 H1098 0.930 . S
C1110 C1111 1.399 . S
C1110 C1115 1.399 . S
C1111 C1110 1.399 . S
C1111 C1112 1.376 . S
C1112 H1099 0.930 . S
C1112 C1111 1.376 . S
C1112 C1113 1.388 . S
C1113 H1100 0.930 . S
C1113 C1112 1.388 . S
C1113 C1114 1.390 . S
C1114 C1113 1.390 . S
C1114 C1115 1.394 . S
C1114 C1120 1.465 1_545 S
C1115 C1110 1.399 . S
C1115 C1114 1.394 . S
C1115 C1116 1.533 . S
C1116 C1115 1.533 . S
C1116 C1117 1.514 1_545 S
C1116 C1118 1.579 . S
C1116 C1119 1.479 1_545 S
C1117 H1101 0.959 . S
C1117 H1102 0.959 . S
C1117 H1103 0.961 1_565 S
C1117 C1116 1.514 1_565 S
C1118 H1104 0.960 . S
C1118 H1105 0.961 1_545 S
C1118 H1106 0.959 . S
C1118 C1116 1.579 . S
C1119 C1116 1.479 1_565 S
C1119 C1120 1.396 . S
C1119 C1124 1.390 . S
C1120 C1114 1.465 1_565 S
C1120 C1119 1.396 . S
C1120 C1121 1.399 . S
C1121 H1107 0.929 . S
C1121 C1120 1.399 . S
C1121 C1122 1.385 . S
C1122 H1108 0.931 . S
C1122 C1121 1.385 . S
C1122 C1123 1.389 . S
C1123 C1122 1.389 . S
C1123 C1124 1.387 . S
C1124 H1109 0.930 . S
C1124 C1119 1.390 . S
C1124 C1123 1.387 . S
H1125 C1137 0.930 . S
H1126 C1139 0.930 . S
H1127 C1140 0.930 . S
H1128 C1144 0.959 . S
H1129 C1144 0.959 . S
H1130 C1144 0.961 . S
H1131 C1145 0.960 . S
H1132 C1145 0.961 . S
H1133 C1145 0.959 . S
H1134 C1148 0.929 . S
H1135 C1149 0.931 . S
H1136 C1151 0.930 . S
C1137 H1125 0.930 . S
C1137 C1138 1.399 . S
C1137 C1142 1.399 . S
C1138 C1137 1.399 . S
C1138 C1139 1.376 . S
C1139 H1126 0.930 . S
C1139 C1138 1.376 . S
C1139 C1140 1.388 . S
C1140 H1127 0.930 . S
C1140 C1139 1.388 . S
C1140 C1141 1.390 . S
C1141 C1140 1.390 . S
C1141 C1142 1.394 . S
C1141 C1147 1.465 . S
C1142 C1137 1.399 . S
C1142 C1141 1.394 . S
C1142 C1143 1.516 . S
C1143 C1142 1.516 . S
C1143 C1144 1.502 . S
C1143 C1145 1.561 . S
C1143 C1146 1.526 . S
C1144 H1128 0.959 . S
C1144 H1129 0.959 . S
C1144 H1130 0.961 . S
C1144 C1143 1.502 . S
C1145 H1131 0.960 . S
C1145 H1132 0.961 . S
C1145 H1133 0.959 . S
C1145 C1143 1.561 . S
C1146 C1143 1.526 . S
C1146 C1147 1.396 . S
C1146 C1151 1.390 . S
C1147 C1141 1.465 . S
C1147 C1146 1.396 . S
C1147 C1148 1.399 . S
C1148 H1134 0.929 . S
C1148 C1147 1.399 . S
C1148 C1149 1.385 . S
C1149 H1135 0.931 . S
C1149 C1148 1.385 . S
C1149 C1150 1.389 . S
C1150 C1149 1.389 . S
C1150 C1151 1.387 . S
C1151 H1136 0.930 . S
C1151 C1146 1.390 . S
C1151 C1150 1.387 . S
H1152 C1164 0.930 . S
H1153 C1166 0.930 . S
H1154 C1167 0.930 . S
H1155 C1171 0.959 . S
H1156 C1171 0.959 . S
H1157 C1171 0.961 1_455 S
H1158 C1172 0.960 1_455 S
H1159 C1172 0.961 . S
H1160 C1172 0.959 . S
H1161 C1175 0.929 . S
H1162 C1176 0.931 . S
H1163 C1178 0.930 . S
C1164 H1152 0.930 . S
C1164 C1165 1.399 . S
C1164 C1169 1.399 . S
C1165 C1164 1.399 . S
C1165 C1166 1.376 . S
C1166 H1153 0.930 . S
C1166 C1165 1.376 . S
C1166 C1167 1.388 . S
C1167 H1154 0.930 . S
C1167 C1166 1.388 . S
C1167 C1168 1.390 . S
C1168 C1167 1.390 . S
C1168 C1169 1.394 . S
C1168 C1174 1.465 1_455 S
C1169 C1164 1.399 . S
C1169 C1168 1.394 . S
C1169 C1170 1.516 1_455 S
C1170 C1169 1.516 1_655 S
C1170 C1171 1.502 . S
C1170 C1172 1.561 . S
C1170 C1173 1.526 . S
C1171 H1155 0.959 . S
C1171 H1156 0.959 . S
C1171 H1157 0.961 1_655 S
C1171 C1170 1.502 . S
C1172 H1158 0.960 1_655 S
C1172 H1159 0.961 . S
C1172 H1160 0.959 . S
C1172 C1170 1.561 . S
C1173 C1170 1.526 . S
C1173 C1174 1.396 . S
C1173 C1178 1.390 . S
C1174 C1168 1.465 1_655 S
C1174 C1173 1.396 . S
C1174 C1175 1.399 . S
C1175 H1161 0.929 . S
C1175 C1174 1.399 . S
C1175 C1176 1.385 . S
C1176 H1162 0.931 . S
C1176 C1175 1.385 . S
C1176 C1177 1.389 . S
C1177 C1176 1.389 . S
C1177 C1178 1.387 . S
C1178 H1163 0.930 . S
C1178 C1173 1.390 . S
C1178 C1177 1.387 . S
H1179 C1191 0.930 . S
H1180 C1193 0.930 . S
H1181 C1194 0.930 . S
H1182 C1198 0.959 . S
H1183 C1198 0.959 . S
H1184 C1198 0.961 1_545 S
H1185 C1199 0.960 1_545 S
H1186 C1199 0.961 . S
H1187 C1199 0.958 1_544 S
H1188 C1202 0.929 . S
H1189 C1203 0.931 . S
H1190 C1205 0.930 . S
C1191 H1179 0.930 . S
C1191 C1192 1.399 . S
C1191 C1196 1.399 . S
C1192 C1191 1.399 . S
C1192 C1193 1.376 1_556 S
C1193 H1180 0.930 . S
C1193 C1192 1.376 1_554 S
C1193 C1194 1.388 . S
C1194 H1181 0.930 . S
C1194 C1193 1.388 . S
C1194 C1195 1.390 . S
C1195 C1194 1.390 . S
C1195 C1196 1.394 1_554 S
C1195 C1201 1.465 1_545 S
C1196 C1191 1.399 . S
C1196 C1195 1.394 1_556 S
C1196 C1197 1.516 1_545 S
C1197 C1196 1.516 1_565 S
C1197 C1198 1.502 . S
C1197 C1199 1.561 . S
C1197 C1200 1.526 . S
C1198 H1182 0.959 . S
C1198 H1183 0.959 . S
C1198 H1184 0.961 1_565 S
C1198 C1197 1.502 . S
C1199 H1185 0.960 1_565 S
C1199 H1186 0.961 . S
C1199 H1187 0.958 1_566 S
C1199 C1197 1.561 . S
C1200 C1197 1.526 . S
C1200 C1201 1.396 1_556 S
C1200 C1205 1.390 . S
C1201 C1195 1.465 1_565 S
C1201 C1200 1.396 1_554 S
C1201 C1202 1.399 . S
C1202 H1188 0.929 . S
C1202 C1201 1.399 . S
C1202 C1203 1.385 . S
C1203 H1189 0.931 . S
C1203 C1202 1.385 . S
C1203 C1204 1.389 . S
C1204 C1203 1.389 . S
C1204 C1205 1.387 1_554 S
C1205 H1190 0.930 . S
C1205 C1200 1.390 . S
C1205 C1204 1.387 1_556 S
C409 N5 1.276 . S
C421 N14 1.252 . S
C436 N47 1.277 1_556 S
C448 N38 1.256 . S
C463 N80 1.256 . S
C475 N71 1.272 . S
C490 N104 1.256 . S
C502 N113 1.277 . S
C517 N137 1.263 1_554 S
C529 N146 1.266 . S
C544 N179 1.262 . S
C556 N170 1.268 . S
C571 N203 1.262 . S
C583 N212 1.269 1_554 S
C598 N236 1.256 . S
C610 N245 1.276 . S
C625 N278 1.252 . S
C637 N269 1.275 . S
C652 N302 1.262 1_556 S
C664 N311 1.268 . S
C679 N335 1.255 . S
C691 N344 1.277 . S
C706 N377 1.258 . S
C718 N368 1.271 . S
C733 C206 1.530 . S
C745 C8 1.514 . S
C760 C41 1.529 . S
C772 C239 1.507 1_554 S
C787 C272 1.516 . S
C799 C74 1.529 . S
C814 C305 1.490 . S
C826 C107 1.518 . S
C841 C338 1.488 . S
C853 C140 1.502 . S
C868 C371 1.504 . S
C880 C173 1.488 . S
C895 C28 1.137 . S
C907 C358 1.146 . S
C922 C61 1.122 . S
C934 C391 1.092 . S
C949 C94 1.119 . S
C961 C226 1.146 . S
C976 C259 1.088 . S
C988 C127 1.110 . S
C1003 C292 1.108 . S
C1015 C160 1.141 . S
C1030 C325 1.092 . S
C1042 C193 1.123 . S
C1057 C17 1.489 . S
C1069 C314 1.465 . S
C1084 C50 1.468 . S
C1096 C347 1.478 . S
C1111 C380 1.506 . S
C1123 C83 1.514 . S
C1138 C116 1.465 . S
C1150 C215 1.496 . S
C1165 C149 1.471 . S
C1177 C248 1.507 . S
C1192 C182 1.486 . S
C1204 C281 1.517 . S
