# Generated by pormake.
# Topology wnd, (6)-cn, num edge types: 1
# Building blocks:
#     Node 0, Type 0, BuildingBlock: KUMBUR_clean_sbu_0, # of connection points: 6
#     Node 1, Type 0, BuildingBlock: KUMBUR_clean_sbu_0, # of connection points: 6
#     Node 2, Type 0, BuildingBlock: KUMBUR_clean_sbu_0, # of connection points: 6
#     Node 3, Type 0, BuildingBlock: KUMBUR_clean_sbu_0, # of connection points: 6
#     Node 4, Type 0, BuildingBlock: KUMBUR_clean_sbu_0, # of connection points: 6
#     Node 5, Type 0, BuildingBlock: KUMBUR_clean_sbu_0, # of connection points: 6
#     Node 6, Type 0, BuildingBlock: KUMBUR_clean_sbu_0, # of connection points: 6
#     Node 7, Type 0, BuildingBlock: KUMBUR_clean_sbu_0, # of connection points: 6
#     Node 8, Type 0, BuildingBlock: KUMBUR_clean_sbu_0, # of connection points: 6
#     Node 9, Type 0, BuildingBlock: KUMBUR_clean_sbu_0, # of connection points: 6
#     Node 10, Type 0, BuildingBlock: KUMBUR_clean_sbu_0, # of connection points: 6
#     Node 11, Type 0, BuildingBlock: KUMBUR_clean_sbu_0, # of connection points: 6
#     Node 12, Type 0, BuildingBlock: KUMBUR_clean_sbu_0, # of connection points: 6
#     Node 13, Type 0, BuildingBlock: KUMBUR_clean_sbu_0, # of connection points: 6
#     Node 14, Type 0, BuildingBlock: KUMBUR_clean_sbu_0, # of connection points: 6
#     Node 15, Type 0, BuildingBlock: KUMBUR_clean_sbu_0, # of connection points: 6
#     Node 16, Type 0, BuildingBlock: KUMBUR_clean_sbu_0, # of connection points: 6
#     Node 17, Type 0, BuildingBlock: KUMBUR_clean_sbu_0, # of connection points: 6
#     Node 18, Type 0, BuildingBlock: KUMBUR_clean_sbu_0, # of connection points: 6
#     Node 19, Type 0, BuildingBlock: KUMBUR_clean_sbu_0, # of connection points: 6
#     Node 20, Type 0, BuildingBlock: KUMBUR_clean_sbu_0, # of connection points: 6
#     Node 21, Type 0, BuildingBlock: KUMBUR_clean_sbu_0, # of connection points: 6
#     Node 22, Type 0, BuildingBlock: KUMBUR_clean_sbu_0, # of connection points: 6
#     Node 23, Type 0, BuildingBlock: KUMBUR_clean_sbu_0, # of connection points: 6
#     Node 24, Type 0, BuildingBlock: KUMBUR_clean_sbu_0, # of connection points: 6
#     Node 25, Type 0, BuildingBlock: KUMBUR_clean_sbu_0, # of connection points: 6
#     Node 26, Type 0, BuildingBlock: KUMBUR_clean_sbu_0, # of connection points: 6
#     Node 27, Type 0, BuildingBlock: KUMBUR_clean_sbu_0, # of connection points: 6
#     Node 28, Type 0, BuildingBlock: KUMBUR_clean_sbu_0, # of connection points: 6
#     Node 29, Type 0, BuildingBlock: KUMBUR_clean_sbu_0, # of connection points: 6
#     Node 30, Type 0, BuildingBlock: KUMBUR_clean_sbu_0, # of connection points: 6
#     Node 31, Type 0, BuildingBlock: KUMBUR_clean_sbu_0, # of connection points: 6
#     Node 32, Type 0, BuildingBlock: KUMBUR_clean_sbu_0, # of connection points: 6
#     Node 33, Type 0, BuildingBlock: KUMBUR_clean_sbu_0, # of connection points: 6
#     Node 34, Type 0, BuildingBlock: KUMBUR_clean_sbu_0, # of connection points: 6
#     Node 35, Type 0, BuildingBlock: KUMBUR_clean_sbu_0, # of connection points: 6
#     Edge 36, Type (0, 0), None
#     Edge 37, Type (0, 0), None
#     Edge 38, Type (0, 0), None
#     Edge 39, Type (0, 0), None
#     Edge 40, Type (0, 0), None
#     Edge 41, Type (0, 0), None
#     Edge 42, Type (0, 0), None
#     Edge 43, Type (0, 0), None
#     Edge 44, Type (0, 0), None
#     Edge 45, Type (0, 0), None
#     Edge 46, Type (0, 0), None
#     Edge 47, Type (0, 0), None
#     Edge 48, Type (0, 0), None
#     Edge 49, Type (0, 0), None
#     Edge 50, Type (0, 0), None
#     Edge 51, Type (0, 0), None
#     Edge 52, Type (0, 0), None
#     Edge 53, Type (0, 0), None
#     Edge 54, Type (0, 0), None
#     Edge 55, Type (0, 0), None
#     Edge 56, Type (0, 0), None
#     Edge 57, Type (0, 0), None
#     Edge 58, Type (0, 0), None
#     Edge 59, Type (0, 0), None
#     Edge 60, Type (0, 0), None
#     Edge 61, Type (0, 0), None
#     Edge 62, Type (0, 0), None
#     Edge 63, Type (0, 0), None
#     Edge 64, Type (0, 0), None
#     Edge 65, Type (0, 0), None
#     Edge 66, Type (0, 0), None
#     Edge 67, Type (0, 0), None
#     Edge 68, Type (0, 0), None
#     Edge 69, Type (0, 0), None
#     Edge 70, Type (0, 0), None
#     Edge 71, Type (0, 0), None
#     Edge 72, Type (0, 0), None
#     Edge 73, Type (0, 0), None
#     Edge 74, Type (0, 0), None
#     Edge 75, Type (0, 0), None
#     Edge 76, Type (0, 0), None
#     Edge 77, Type (0, 0), None
#     Edge 78, Type (0, 0), None
#     Edge 79, Type (0, 0), None
#     Edge 80, Type (0, 0), None
#     Edge 81, Type (0, 0), None
#     Edge 82, Type (0, 0), None
#     Edge 83, Type (0, 0), None
#     Edge 84, Type (0, 0), None
#     Edge 85, Type (0, 0), None
#     Edge 86, Type (0, 0), None
#     Edge 87, Type (0, 0), None
#     Edge 88, Type (0, 0), None
#     Edge 89, Type (0, 0), None
#     Edge 90, Type (0, 0), None
#     Edge 91, Type (0, 0), None
#     Edge 92, Type (0, 0), None
#     Edge 93, Type (0, 0), None
#     Edge 94, Type (0, 0), None
#     Edge 95, Type (0, 0), None
#     Edge 96, Type (0, 0), None
#     Edge 97, Type (0, 0), None
#     Edge 98, Type (0, 0), None
#     Edge 99, Type (0, 0), None
#     Edge 100, Type (0, 0), None
#     Edge 101, Type (0, 0), None
#     Edge 102, Type (0, 0), None
#     Edge 103, Type (0, 0), None
#     Edge 104, Type (0, 0), None
#     Edge 105, Type (0, 0), None
#     Edge 106, Type (0, 0), None
#     Edge 107, Type (0, 0), None
#     Edge 108, Type (0, 0), None
#     Edge 109, Type (0, 0), None
#     Edge 110, Type (0, 0), None
#     Edge 111, Type (0, 0), None
#     Edge 112, Type (0, 0), None
#     Edge 113, Type (0, 0), None
#     Edge 114, Type (0, 0), None
#     Edge 115, Type (0, 0), None
#     Edge 116, Type (0, 0), None
#     Edge 117, Type (0, 0), None
#     Edge 118, Type (0, 0), None
#     Edge 119, Type (0, 0), None
#     Edge 120, Type (0, 0), None
#     Edge 121, Type (0, 0), None
#     Edge 122, Type (0, 0), None
#     Edge 123, Type (0, 0), None
#     Edge 124, Type (0, 0), None
#     Edge 125, Type (0, 0), None
#     Edge 126, Type (0, 0), None
#     Edge 127, Type (0, 0), None
#     Edge 128, Type (0, 0), None
#     Edge 129, Type (0, 0), None
#     Edge 130, Type (0, 0), None
#     Edge 131, Type (0, 0), None
#     Edge 132, Type (0, 0), None
#     Edge 133, Type (0, 0), None
#     Edge 134, Type (0, 0), None
#     Edge 135, Type (0, 0), None
#     Edge 136, Type (0, 0), None
#     Edge 137, Type (0, 0), None
#     Edge 138, Type (0, 0), None
#     Edge 139, Type (0, 0), None
#     Edge 140, Type (0, 0), None
#     Edge 141, Type (0, 0), None
#     Edge 142, Type (0, 0), None
#     Edge 143, Type (0, 0), None
# Relax obj value: 0.075
# Max RMSD: 0.231
# Mean RMSD: 0.231
data_MOF--net-wnd--node1-KUMBUR_clean_sbu_0--edge1-none
_symmetry_space_group_name_H-M    P1
_symmetry_Int_Tables_number       1
_symmetry_cell_setting            triclinic
loop_
_symmetry_equiv_pos_as_xyz
'x, y, z'
_cell_length_a     21.845045
_cell_length_b     21.840678
_cell_length_c     71.849465
_cell_angle_alpha  89.615796
_cell_angle_beta   90.383449
_cell_angle_gamma 119.93292
loop_
_atom_site_label
_atom_site_type_symbol
_atom_site_fract_x
_atom_site_fract_y
_atom_site_fract_z
_atom_type_partial_charge
Tb0 Tb 0.54518 0.15316 0.01545 0.0
C1 C 0.83416 0.12768 0.06976 0.0
C2 C 0.92865 0.1402 0.04533 0.0
C3 C 0.88879 0.03576 0.06701 0.0
C4 C 0.84211 0.1029 0.04989 0.0
C5 C 0.83289 0.05052 0.07699 0.0
C6 C 0.94138 0.08738 0.05402 0.0
C7 C 0.70702 1.00059 0.10217 0.0
N8 N 0.76259 0.15619 0.07499 0.0
C9 C 0.69824 0.11434 0.08935 0.0
C10 C 0.77281 0.99321 0.09338 0.0
Tb11 Tb 0.66156 0.09654 0.0378 0.0
N12 N 0.77518 0.09834 0.02664 0.0
C13 C 0.81111 0.13596 0.00676 0.0
C14 C 0.95865 0.17963 0.02314 0.0
C15 C 0.90304 0.17709 0.00496 0.0
H16 H 0.65591 0.12674 0.08994 0.0
H17 H 0.92574 0.19962 -0.00822 0.0
H18 H 0.96026 0.14238 0.0528 0.0
H19 H 0.66918 0.95484 0.11029 0.0
H20 H 0.7814 0.14476 -0.00389 0.0
H21 H 0.30252 1.00923 0.05409 0.0
H22 H 1.01258 0.1965 0.01988 0.0
H23 H 0.57147 0.19756 0.97104 0.0
H24 H 0.42358 0.05078 0.04841 0.0
H25 H 0.52409 0.26092 0.9546 0.0
H26 H 0.85485 0.03995 0.07353 0.0
H27 H 0.22882 1.02685 0.03029 0.0
H28 H 0.22297 0.08225 0.0013 0.0
H29 H 0.77554 0.9473 0.09715 0.0
H30 H 0.28571 0.15686 0.97467 0.0
N31 N 0.42481 0.08784 0.02104 0.0
C32 C 0.39377 0.05457 0.03727 0.0
C33 C 0.28266 0.0417 0.02758 0.0
C34 C 0.31331 0.07542 0.01114 0.0
C35 C 0.32343 0.03168 0.04078 0.0
C36 C 0.38432 0.09523 0.00791 0.0
H37 H 0.40562 0.24102 0.96101 0.0
N38 N 0.48363 0.14522 -0.01098 0.0
C39 C 0.49192 0.22247 0.96453 0.0
C40 C 0.4163 0.12977 -0.008 0.0
C41 C 0.51815 0.18485 0.97387 0.0
C42 C 0.42519 0.21086 0.9683 0.0
C43 C 0.38339 0.15794 -0.01927 0.0
O44 O 0.60093 0.24456 0.00135 0.0
O45 O 0.65088 0.16541 0.02022 0.0
O46 O 0.62583 0.1739 0.05534 0.0
O47 O 0.52227 0.16149 0.04237 0.0
O48 O 0.64663 0.25132 0.02117 0.0
O49 O 0.52171 0.23619 0.02133 0.0
O50 O 0.59882 0.98328 0.0402 0.0
O51 O 0.5506 0.06216 0.02753 0.0
O52 O 0.54611 0.09118 -0.00701 0.0
O53 O 0.65658 0.11098 0.00352 0.0
O54 O 0.56188 0.03934 0.05345 0.0
O55 O 0.66747 1.0179 0.01892 0.0
C56 C 0.69114 0.22977 0.02129 0.0
C57 C 0.59141 0.34476 0.00253 0.0
C58 C 0.64358 0.46812 0.00879 0.0
C59 C 0.60945 0.39908 0.01518 0.0
C60 C 0.65647 0.48222 -0.01044 0.0
C61 C 0.61257 0.36083 -0.01621 0.0
C62 C 0.64188 0.42889 0.97719 0.0
C63 C 0.57262 0.1942 0.05402 0.0
C64 C 0.57254 0.27588 0.00968 0.0
C65 C 0.31252 0.13782 -0.01646 0.0
C66 C 0.27668 0.09462 -0.00146 0.0
C67 C 0.51141 1.02205 0.04086 0.0
C68 C 0.60036 0.87702 0.02685 0.0
C69 C 0.63837 0.83389 0.02563 0.0
C70 C 0.61778 0.76934 0.03771 0.0
C71 C 0.57561 0.76629 0.05264 0.0
C72 C 0.53846 0.83963 0.03665 0.0
C73 C 0.5367 0.79978 0.052 0.0
C74 C 0.60693 0.09754 -0.01103 0.0
C75 C 0.61586 0.95987 0.02583 0.0
H76 H 0.60245 0.38824 0.03 0.0
H77 H 0.68062 0.53425 -0.01624 0.0
H78 H 0.61298 0.32273 0.97453 0.0
H79 H 0.65757 0.44116 0.96279 0.0
H80 H 0.68239 0.84882 0.01649 0.0
H81 H 0.56866 0.73475 0.06493 0.0
H82 H 0.50044 0.85603 0.0352 0.0
H83 H 0.50663 0.79573 0.06414 0.0
Tb84 Tb 0.05758 0.47562 0.01479 0.0
C85 C 0.07993 0.78766 0.06844 0.0
C86 C 0.06877 0.86551 0.04171 0.0
C87 C 0.17909 0.93159 0.06255 0.0
C88 C 0.10535 0.81731 0.04804 0.0
C89 C 0.15695 0.86446 0.07534 0.0
C90 C 0.12947 0.9308 0.04819 0.0
C91 C 0.20357 0.79311 0.1032 0.0
N92 N 0.05187 0.68833 0.07516 0.0
C93 C 0.0918 0.66837 0.09097 0.0
C94 C 0.21134 0.86459 0.09306 0.0
Tb95 Tb 0.12033 0.6467 0.03886 0.0
N96 N 0.11299 0.75217 0.02633 0.0
C97 C 0.07697 0.74733 0.00585 0.0
C98 C 1.03081 0.85201 0.01918 0.0
C99 C 1.03537 0.79686 0.00227 0.0
H100 H 0.08122 0.61443 0.09216 0.0
H101 H 1.01329 0.79406 -0.01124 0.0
H102 H 0.0729 0.90156 0.04767 0.0
H103 H 0.2489 0.8025 0.11174 0.0
H104 H 0.07084 0.70959 -0.00451 0.0
H105 H 0.19319 0.36596 0.05398 0.0
H106 H 1.01323 0.88743 0.01494 0.0
H107 H 1.01549 0.46269 0.96991 0.0
H108 H 0.15548 0.45059 0.04785 0.0
H109 H 0.94759 0.35208 0.95402 0.0
H110 H 0.17014 0.89544 0.07066 0.0
H111 H 0.17612 0.27701 0.03026 0.0
H112 H 0.13025 0.22585 -0.0009 0.0
H113 H 0.25619 0.91472 0.09648 0.0
H114 H 0.05385 0.21653 0.97299 0.0
N115 N 0.12017 0.41723 0.02058 0.0
C116 C 0.15129 0.41642 0.03697 0.0
C117 C 0.16253 0.31732 0.02725 0.0
C118 C 0.13286 0.31898 0.01029 0.0
C119 C 0.17168 0.36658 0.04063 0.0
C120 C 0.11358 0.37116 0.00722 0.0
H121 H 0.96431 0.25086 0.96093 0.0
N122 N 0.06518 0.42376 -0.01175 0.0
C123 C 0.98557 0.35666 0.96412 0.0
C124 C 0.07948 0.3708 -0.00873 0.0
C125 C 1.02611 0.42051 0.973 0.0
C126 C 0.99525 0.30004 0.96817 0.0
C127 C 0.04975 0.31028 -0.01987 0.0
O128 O 0.968 0.4464 9e-05 0.0
O129 O 0.04944 0.57061 0.02072 0.0
O130 O 0.04429 0.53408 0.05619 0.0
O131 O 0.04586 0.43967 0.0414 0.0
O132 O 0.96179 0.48138 0.02175 0.0
O133 O 0.97335 0.37019 0.01946 0.0
O134 O 0.23162 0.69548 0.0448 0.0
O135 O 0.14902 0.56955 0.0262 0.0
O136 O 0.12114 0.53812 -0.00749 0.0
O137 O 0.10781 0.63091 0.00419 0.0
O138 O 0.18335 0.60175 0.05166 0.0
O139 O 0.20854 0.73109 0.02139 0.0
C140 C 0.98523 0.54775 0.02228 0.0
C141 C 0.86777 0.33647 0.00057 0.0
C142 C 0.74676 0.26155 0.00758 0.0
C143 C 0.81586 0.29707 0.01344 0.0
C144 C 0.73046 0.26091 -0.01152 0.0
C145 C 0.84995 0.3438 -0.01785 0.0
C146 C 0.78175 0.30288 0.97586 0.0
C147 C 1.01929 0.46016 0.05403 0.0
C148 C 0.93609 0.38462 0.00762 0.0
C149 C 0.07155 0.26023 -0.01769 0.0
C150 C 0.11589 0.26627 -0.00297 0.0
C151 C 0.1941 0.56855 0.03769 0.0
C152 C 0.34479 0.8074 0.03419 0.0
C153 C 0.38843 0.88627 0.0292 0.0
C154 C 0.4488 0.93978 0.04135 0.0
C155 C 0.45362 0.91194 0.05855 0.0
C156 C 0.37528 0.7928 0.04954 0.0
C157 C 0.42159 0.84168 0.06205 0.0
C158 C 0.11773 0.5946 -0.01098 0.0
C159 C 0.26288 0.73758 0.03079 0.0
H160 H 0.82838 0.29943 0.02815 0.0
H161 H 0.67816 0.23158 -0.01691 0.0
H162 H 0.88696 0.38408 0.9729 0.0
H163 H 0.76773 0.30678 0.9616 0.0
H164 H 0.37617 0.90705 0.01706 0.0
H165 H 0.48538 0.94417 0.06998 0.0
H166 H 0.3466 0.7446 0.05648 0.0
H167 H 0.42934 0.82413 0.07558 0.0
Tb168 Tb 0.73594 0.67294 0.01576 0.0
C169 C 0.4218 0.37989 0.06908 0.0
C170 C 0.3417 0.28479 0.04443 0.0
C171 C 0.27516 0.32598 0.06489 0.0
C172 C 0.39003 0.37136 0.04903 0.0
C173 C 0.34486 0.38002 0.07575 0.0
C174 C 0.27514 0.27389 0.05194 0.0
C175 C 0.4182 0.50584 0.10102 0.0
N176 N 0.52115 0.45254 0.07482 0.0
C177 C 0.54196 0.51651 0.08916 0.0
C178 C 0.34595 0.43908 0.09205 0.0
Tb179 Tb 0.56197 0.55317 0.0373 0.0
N180 N 0.45246 0.43857 0.02597 0.0
C181 C 0.45563 0.40273 0.00628 0.0
C182 C 0.35308 0.25508 0.02249 0.0
C183 C 0.40618 0.31086 0.00451 0.0
H184 H 0.59656 0.55893 0.09028 0.0
H185 H 0.40761 0.28825 -0.00849 0.0
H186 H 0.31013 0.25347 0.05134 0.0
H187 H 0.409 0.54232 0.10931 0.0
H188 H 0.49453 0.43266 -0.00417 0.0
H189 H 0.83594 0.90938 0.05781 0.0
H190 H 0.31738 0.20091 0.01932 0.0
H191 H 0.75963 0.65466 0.97195 0.0
H192 H 0.74942 0.79159 0.04907 0.0
H193 H 0.87239 0.70448 0.95684 0.0
H194 H 0.31284 0.35866 0.07186 0.0
H195 H 0.93362 0.98447 0.03605 0.0
H196 H 0.98813 1.00034 0.00532 0.0
H197 H 0.29618 0.43311 0.09603 0.0
H198 H 1.00014 0.94267 0.97743 0.0
N199 N 0.79239 0.79353 0.02282 0.0
C200 C 0.78808 0.82244 0.03915 0.0
C201 C 0.89264 0.93253 0.03211 0.0
C202 C 0.89362 0.9065 0.01476 0.0
C203 C 0.8389 0.89039 0.04433 0.0
C204 C 0.84164 0.83644 0.01043 0.0
H205 H 0.96767 0.8245 0.9633 0.0
N206 N 0.79283 0.74042 -0.00955 0.0
C207 C 0.86457 0.73556 0.9666 0.0
C208 C 0.84418 0.80763 -0.00592 0.0
C209 C 0.79987 0.70778 0.9753 0.0
C210 C 0.91796 0.8031 0.97052 0.0
C211 C 0.90515 0.84303 -0.01697 0.0
O212 O 0.76998 0.61708 0.00119 0.0
O213 O 0.64402 0.56601 0.02065 0.0
O214 O 0.67321 0.58852 0.05533 0.0
O215 O 0.76237 0.69374 0.04293 0.0
O216 O 0.73493 0.57181 0.02122 0.0
O217 O 0.84051 0.69226 0.02217 0.0
O218 O 0.50844 0.61367 0.03768 0.0
O219 O 0.63825 0.66435 0.02704 0.0
O220 O 0.67193 0.67006 -0.00693 0.0
O221 O 0.5834 0.55823 0.00333 0.0
O222 O 0.59758 0.65531 0.05198 0.0
O223 O 0.4769 0.53952 0.01736 0.0
C224 C 0.66914 0.52635 0.02185 0.0
C225 C 0.87814 0.62309 0.00314 0.0
C226 C 0.95256 0.57421 0.00932 0.0
C227 C 0.9128 0.60262 0.01585 0.0
C228 C 0.95629 0.56536 -0.01 0.0
C229 C 0.87577 0.60604 -0.0158 0.0
C230 C 0.91655 0.5792 0.97761 0.0
C231 C 0.74575 0.64244 0.05413 0.0
C232 C 0.82877 0.64255 0.01009 0.0
C233 C 0.95461 0.91407 -0.0137 0.0
C234 C 0.94779 0.94662 0.00212 0.0
C235 C 0.63444 0.7048 0.03947 0.0
C236 C 0.39823 0.6027 0.0222 0.0
C237 C 0.31643 0.56183 0.02225 0.0
C238 C 0.27453 0.58441 0.03431 0.0
C239 C 0.31786 0.62769 0.04822 0.0
C240 C 0.42221 0.66868 0.0294 0.0
C241 C 0.38924 0.67113 0.04543 0.0
C242 C 0.6188 0.60833 -0.01108 0.0
C243 C 0.4679 0.59101 0.02308 0.0
H244 H 0.90619 0.60569 0.03071 0.0
H245 H 0.98625 0.54399 -0.01586 0.0
H246 H 0.83873 0.60809 0.97467 0.0
H247 H 0.91475 0.56532 0.96315 0.0
H248 H 0.28578 0.51604 0.01377 0.0
H249 H 0.29689 0.63267 0.06135 0.0
H250 H 0.47613 0.70778 0.02688 0.0
H251 H 0.41793 0.70185 0.05707 0.0
Tb252 Tb 0.16714 0.53123 0.44078 0.0
C253 C 0.14167 0.82028 0.38648 0.0
C254 C 0.15424 0.9148 0.41091 0.0
C255 C 0.0498 0.87495 0.38925 0.0
C256 C 0.11691 0.82825 0.40636 0.0
C257 C 0.06453 0.81903 0.37926 0.0
C258 C 0.10143 0.92756 0.40222 0.0
C259 C 1.01456 0.69313 0.35408 0.0
N260 N 0.17014 0.74867 0.38126 0.0
C261 C 0.12827 0.68431 0.3669 0.0
C262 C 1.0072 0.75894 0.36287 0.0
Tb263 Tb 0.11051 0.64764 0.41845 0.0
N264 N 0.11234 0.76129 0.42961 0.0
C265 C 0.14997 0.79723 0.44948 0.0
C266 C 0.19367 0.9448 0.4331 0.0
C267 C 0.19112 0.88918 0.45128 0.0
H268 H 0.14066 0.64196 0.36631 0.0
H269 H 0.21364 0.91188 0.46446 0.0
H270 H 0.15642 0.94643 0.40344 0.0
H271 H 0.9688 0.65529 0.34596 0.0
H272 H 0.15874 0.7675 0.46014 0.0
H273 H 1.02325 0.28857 0.40215 0.0
H274 H 0.21054 0.99875 0.43636 0.0
H275 H 0.21156 0.55752 0.4852 0.0
H276 H 0.06475 0.40962 0.40784 0.0
H277 H 0.27489 0.51012 0.50164 0.0
H278 H 0.05397 0.84101 0.38272 0.0
H279 H 1.04082 0.21481 0.42595 0.0
H280 H 0.09616 0.20892 0.45494 0.0
H281 H 0.9613 0.76167 0.35911 0.0
H282 H 0.17079 0.27167 0.48156 0.0
N283 N 0.10182 0.41084 0.4352 0.0
C284 C 0.06855 0.37981 0.41898 0.0
C285 C 0.05566 0.26866 0.42866 0.0
C286 C 0.08937 0.2993 0.4451 0.0
C287 C 0.04567 0.30945 0.41546 0.0
C288 C 0.1092 0.37033 0.44833 0.0
H289 H 0.25496 0.3916 0.49523 0.0
N290 N 0.15921 0.46967 0.46722 0.0
C291 C 0.23644 0.47793 0.4917 0.0
C292 C 0.14375 0.40231 0.46424 0.0
C293 C 0.19884 0.50419 0.48237 0.0
C294 C 0.22481 0.41118 0.48794 0.0
C295 C 0.17189 0.36938 0.47551 0.0
O296 O 0.25854 0.58699 0.45489 0.0
O297 O 0.17936 0.63695 0.43602 0.0
O298 O 0.18787 0.61194 0.40091 0.0
O299 O 0.17543 0.50833 0.41386 0.0
O300 O 0.26527 0.63271 0.43508 0.0
O301 O 0.25017 0.50778 0.43489 0.0
O302 O 0.99726 0.5849 0.41605 0.0
O303 O 0.07615 0.53666 0.42872 0.0
O304 O 0.10519 0.53218 0.46326 0.0
O305 O 0.12494 0.64266 0.45272 0.0
O306 O 0.05332 0.54795 0.4028 0.0
O307 O 1.03189 0.65357 0.43732 0.0
C308 C 0.24371 0.67722 0.43496 0.0
C309 C 0.35875 0.5775 0.45369 0.0
C310 C 0.48211 0.62971 0.44743 0.0
C311 C 0.41307 0.59559 0.44104 0.0
C312 C 0.49618 0.64256 0.46667 0.0
C313 C 0.3748 0.59861 0.47243 0.0
C314 C 0.44285 0.62792 0.47903 0.0
C315 C 0.20816 0.55871 0.40222 0.0
C316 C 0.28986 0.55862 0.44655 0.0
C317 C 0.15176 0.2985 0.4727 0.0
C318 C 0.10856 0.26265 0.4577 0.0
C319 C 1.03603 0.49747 0.41538 0.0
C320 C 0.89102 0.58648 0.4294 0.0
C321 C 0.84789 0.62448 0.43062 0.0
C322 C 0.78332 0.60386 0.41854 0.0
C323 C 0.78028 0.56168 0.40362 0.0
C324 C 0.85363 0.52455 0.41961 0.0
C325 C 0.81379 0.52278 0.40425 0.0
C326 C 0.11153 0.593 0.46728 0.0
C327 C 0.97386 0.60197 0.43041 0.0
H328 H 0.40226 0.58863 0.42622 0.0
H329 H 0.5482 0.66669 0.47247 0.0
H330 H 0.3367 0.59898 0.4817 0.0
H331 H 0.4551 0.64358 0.49344 0.0
H332 H 0.86283 0.66854 0.43975 0.0
H333 H 0.74872 0.5547 0.39133 0.0
H334 H 0.87003 0.48653 0.42106 0.0
H335 H 0.80973 0.49271 0.39212 0.0
Tb336 Tb 0.68692 0.72204 0.44047 0.0
C337 C 0.39386 0.40791 0.38716 0.0
C338 C 0.29877 0.32781 0.41181 0.0
C339 C 0.33993 0.26123 0.39135 0.0
C340 C 0.38532 0.37613 0.40721 0.0
C341 C 0.39396 0.33094 0.38048 0.0
C342 C 0.28785 0.26124 0.4043 0.0
C343 C 0.51976 0.40427 0.35522 0.0
N344 N 0.46652 0.50727 0.38141 0.0
C345 C 0.53047 0.52806 0.36708 0.0
C346 C 0.45301 0.33201 0.36418 0.0
Tb347 Tb 0.56714 0.54805 0.41894 0.0
N348 N 0.45254 0.43856 0.43027 0.0
C349 C 0.41672 0.44174 0.44995 0.0
C350 C 0.26907 0.3392 0.43374 0.0
C351 C 0.32486 0.39231 0.45173 0.0
H352 H 0.57289 0.58267 0.36595 0.0
H353 H 0.30226 0.39375 0.46473 0.0
H354 H 0.26745 0.29623 0.4049 0.0
H355 H 0.55622 0.39505 0.34693 0.0
H356 H 0.44665 0.48065 0.4604 0.0
H357 H 0.92334 0.82193 0.39843 0.0
H358 H 0.21491 0.30353 0.43692 0.0
H359 H 0.66868 0.74574 0.48428 0.0
H360 H 0.80554 0.73545 0.40716 0.0
H361 H 0.71852 0.85853 0.49939 0.0
H362 H 0.3726 0.29891 0.38438 0.0
H363 H 0.99842 0.91965 0.42018 0.0
H364 H 1.0143 0.9742 0.4509 0.0
H365 H 0.44703 0.28222 0.36021 0.0
H366 H 0.95666 0.98625 0.47879 0.0
N367 N 0.80748 0.77847 0.43341 0.0
C368 C 0.83639 0.77413 0.41708 0.0
C369 C 0.94648 0.87869 0.42412 0.0
C370 C 0.92045 0.8797 0.44147 0.0
C371 C 0.90435 0.82493 0.41191 0.0
C372 C 0.8504 0.82773 0.4458 0.0
H373 H 0.83853 0.95379 0.49294 0.0
N374 N 0.75441 0.77893 0.46578 0.0
C375 C 0.74959 0.85069 0.48963 0.0
C376 C 0.82161 0.83027 0.46215 0.0
C377 C 0.72179 0.78598 0.48094 0.0
C378 C 0.81711 0.90407 0.48571 0.0
C379 C 0.85702 0.89125 0.4732 0.0
O380 O 0.63109 0.75609 0.45505 0.0
O381 O 0.57999 0.63013 0.43558 0.0
O382 O 0.60251 0.6593 0.4009 0.0
O383 O 0.70772 0.74845 0.4133 0.0
O384 O 0.58583 0.72107 0.43501 0.0
O385 O 0.70624 0.82663 0.43407 0.0
O386 O 0.6276 0.49449 0.41855 0.0
O387 O 0.6783 0.62432 0.4292 0.0
O388 O 0.68403 0.658 0.46316 0.0
O389 O 0.5722 0.56949 0.4529 0.0
O390 O 0.66929 0.58363 0.40427 0.0
O391 O 0.55347 0.46296 0.43888 0.0
C392 C 0.54036 0.65527 0.43438 0.0
C393 C 0.6371 0.86428 0.45309 0.0
C394 C 0.58814 0.93863 0.44692 0.0
C395 C 0.61661 0.89892 0.44038 0.0
C396 C 0.57931 0.94236 0.46624 0.0
C397 C 0.62007 0.8619 0.47204 0.0
C398 C 0.5932 0.90265 0.47863 0.0
C399 C 0.65643 0.73184 0.40211 0.0
C400 C 0.65655 0.81489 0.44615 0.0
C401 C 0.92806 0.94071 0.46993 0.0
C402 C 0.96059 0.93386 0.45411 0.0
C403 C 0.71877 0.62049 0.41678 0.0
C404 C 0.61664 0.38428 0.43403 0.0
C405 C 0.57577 0.30247 0.43398 0.0
C406 C 0.59839 0.26059 0.42192 0.0
C407 C 0.64163 0.30393 0.408 0.0
C408 C 0.68261 0.40828 0.42683 0.0
C409 C 0.68505 0.37533 0.4108 0.0
C410 C 0.62229 0.60488 0.46731 0.0
C411 C 0.60494 0.45395 0.43316 0.0
H412 H 0.61968 0.89232 0.42553 0.0
H413 H 0.55791 0.97229 0.47211 0.0
H414 H 0.62215 0.82487 0.48156 0.0
H415 H 0.57933 0.90085 0.4931 0.0
H416 H 0.52999 0.27181 0.44245 0.0
H417 H 0.64665 0.28298 0.39488 0.0
H418 H 0.7217 0.46221 0.42935 0.0
H419 H 0.71579 0.40403 0.39916 0.0
Tb420 Tb 0.48962 0.04364 0.44145 0.0
C421 C 0.80162 0.06603 0.38779 0.0
C422 C 0.87948 0.05488 0.4145 0.0
C423 C 0.94552 0.16521 0.39366 0.0
C424 C 0.83128 0.09146 0.40818 0.0
C425 C 0.87839 0.14306 0.38088 0.0
C426 C 0.94474 0.11559 0.40802 0.0
C427 C 0.80702 0.18968 0.35302 0.0
N428 N 0.7023 0.03795 0.38107 0.0
C429 C 0.68232 0.07788 0.36527 0.0
C430 C 0.8785 0.19746 0.36316 0.0
Tb431 Tb 0.66068 0.1064 0.41737 0.0
N432 N 0.76616 0.09909 0.4299 0.0
C433 C 0.76134 0.06306 0.45038 0.0
C434 C 0.866 1.01691 0.43703 0.0
C435 C 0.81087 1.02147 0.45395 0.0
H436 H 0.62839 0.06729 0.36408 0.0
H437 H 0.80808 0.99938 0.46746 0.0
H438 H 0.91552 0.05901 0.40855 0.0
H439 H 0.81639 0.23503 0.34449 0.0
H440 H 0.7236 0.05691 0.46074 0.0
H441 H 0.38007 0.17933 0.40224 0.0
H442 H 0.90142 0.99933 0.44127 0.0
H443 H 0.47668 1.0016 0.48633 0.0
H444 H 0.46469 0.1416 0.40839 0.0
H445 H 0.36608 0.9337 0.50222 0.0
H446 H 0.90936 0.15625 0.38555 0.0
H447 H 0.29111 0.16224 0.42595 0.0
H448 H 0.23995 0.11642 0.45711 0.0
H449 H 0.92861 0.24232 0.35974 0.0
H450 H 0.2306 0.04001 0.48324 0.0
N451 N 0.43129 0.10628 0.43565 0.0
C452 C 0.43051 0.13741 0.41926 0.0
C453 C 0.33141 0.14864 0.42897 0.0
C454 C 0.33306 0.11899 0.44593 0.0
C455 C 0.38068 0.1578 0.41559 0.0
C456 C 0.38523 0.09971 0.449 0.0
H457 H 0.2649 0.95045 0.4953 0.0
N458 N 0.43779 0.05131 0.46799 0.0
C459 C 0.37067 0.97169 0.49211 0.0
C460 C 0.38486 0.06562 0.46496 0.0
C461 C 0.43452 1.01224 0.48324 0.0
C462 C 0.31408 0.98139 0.48806 0.0
C463 C 0.32434 0.0359 0.4761 0.0
O464 O 0.46037 0.95406 0.45616 0.0
O465 O 0.58462 0.03554 0.43552 0.0
O466 O 0.54805 0.03036 0.40005 0.0
O467 O 0.45365 0.03189 0.41484 0.0
O468 O 0.49529 0.94777 0.43448 0.0
O469 O 0.3842 0.95942 0.43679 0.0
O470 O 0.70951 0.21773 0.41144 0.0
O471 O 0.58356 0.13509 0.43004 0.0
O472 O 0.55212 0.1072 0.46373 0.0
O473 O 0.64489 0.09387 0.45205 0.0
O474 O 0.61575 0.16941 0.40455 0.0
O475 O 0.74507 0.19459 0.43484 0.0
C476 C 0.56166 0.9713 0.43396 0.0
C477 C 0.35043 0.85384 0.45568 0.0
C478 C 0.27548 0.73283 0.44867 0.0
C479 C 0.31102 0.80194 0.44281 0.0
C480 C 0.27485 0.71651 0.46777 0.0
C481 C 0.35776 0.836 0.47411 0.0
C482 C 0.31683 0.76778 0.48039 0.0
C483 C 0.47414 1.00535 0.4022 0.0
C484 C 0.3986 0.92216 0.44864 0.0
C485 C 0.27431 0.05772 0.47391 0.0
C486 C 0.28036 0.10205 0.45919 0.0
C487 C 0.58265 0.18018 0.41854 0.0
C488 C 0.8214 0.33088 0.42207 0.0
C489 C 0.90026 0.3745 0.42704 0.0
C490 C 0.95376 0.43487 0.41489 0.0
C491 C 0.92592 0.4397 0.3977 0.0
C492 C 0.80679 0.36141 0.40672 0.0
C493 C 0.85567 0.4077 0.3942 0.0
C494 C 0.60859 0.10379 0.46722 0.0
C495 C 0.75158 0.24897 0.42545 0.0
H496 H 0.31338 0.81447 0.4281 0.0
H497 H 0.24552 0.66419 0.47315 0.0
H498 H 0.39804 0.87301 0.48335 0.0
H499 H 0.32074 0.75374 0.49465 0.0
H500 H 0.92104 0.36222 0.43918 0.0
H501 H 0.95814 0.47146 0.38626 0.0
H502 H 0.7586 0.33274 0.39979 0.0
H503 H 0.83813 0.41544 0.38067 0.0
Tb504 Tb 0.56754 0.10462 0.91844 0.0
C505 C 0.81275 0.07131 0.96424 0.0
C506 C 0.91576 0.12572 0.94511 0.0
C507 C 0.91654 0.0633 0.9727 0.0
C508 C 0.84474 0.10589 0.94833 0.0
C509 C 0.84567 0.04316 0.97551 0.0
C510 C 0.95239 0.10652 0.9577 0.0
C511 C 0.73715 0.97862 -0.0083 0.0
N512 N 0.7454 0.05584 0.96721 0.0
C513 C 0.71091 1.01625 -0.01763 0.0
C514 C 0.80388 0.99023 -0.01206 0.0
Tb515 Tb 0.68388 0.04796 0.94078 0.0
N516 N 0.80426 0.11332 0.93521 0.0
C517 C 0.8353 0.14657 0.91898 0.0
C518 C 0.94643 0.15948 0.92868 0.0
C519 C 0.90566 0.16947 0.91547 0.0
H520 H 0.65759 1.00352 -0.01479 0.0
H521 H 0.92658 0.19193 0.90216 0.0
H522 H 1.0061 0.11889 0.95495 0.0
H523 H 0.70497 0.94019 0.00164 0.0
H524 H 0.80551 0.15038 0.90783 0.0
H525 H 0.30348 1.00145 0.96447 0.0
H526 H 1.00029 0.17439 0.92597 0.0
H527 H 0.57307 0.0742 0.86629 0.0
H528 H 0.4478 0.05637 0.96012 0.0
H529 H 0.55992 0.24622 0.84594 0.0
H530 H 0.94335 0.04426 -0.01843 0.0
H531 H 0.21657 1.00457 0.93641 0.0
H532 H 0.26865 0.05869 0.90362 0.0
H533 H 0.82344 0.96007 -0.00477 0.0
H534 H 0.37427 0.16118 0.88272 0.0
N535 N 0.4539 0.10275 0.9296 0.0
C536 C 0.41803 0.0651 0.94947 0.0
C537 C 0.27046 1.02133 0.93313 0.0
C538 C 0.30045 0.06086 0.91091 0.0
C539 C 0.32613 1.02393 0.95129 0.0
C540 C 0.38696 0.09815 0.90635 0.0
H541 H 0.45358 0.25381 0.8591 0.0
N542 N 0.46641 0.04486 0.88124 0.0
C543 C 0.5221 0.2005 0.85407 0.0
C544 C 0.39492 0.07342 0.88649 0.0
C545 C 0.53083 0.08672 0.8669 0.0
C546 C 0.45631 0.20791 0.86287 0.0
C547 C 0.39621 0.1506 0.87926 0.0
O548 O 0.63024 0.21787 0.91601 0.0
O549 O 0.67855 0.13903 0.92872 0.0
O550 O 0.68298 0.10995 0.96325 0.0
O551 O 0.57254 0.09021 0.95272 0.0
O552 O 0.66717 0.16181 0.90279 0.0
O553 O 0.56167 0.18327 0.93731 0.0
O554 O 0.6281 0.95656 0.95489 0.0
O555 O 0.57823 0.03575 0.93601 0.0
O556 O 0.60329 1.02727 0.9009 0.0
O557 O 0.70683 0.03965 0.91387 0.0
O558 O 0.5824 0.94983 0.93506 0.0
O559 O 0.70734 0.96493 0.93491 0.0
C560 C 0.71763 0.1791 0.91537 0.0
C561 C 0.62875 0.32414 0.92938 0.0
C562 C 0.61133 0.4318 0.91851 0.0
C563 C 0.59074 0.36725 0.9306 0.0
C564 C 0.6535 0.43484 0.90359 0.0
C565 C 0.69066 0.36153 0.91959 0.0
C566 C 0.69242 0.40137 0.90423 0.0
C567 C 0.62219 0.10363 0.96727 0.0
C568 C 0.61324 0.24129 0.93039 0.0
C569 C 0.34028 0.16532 0.88924 0.0
C570 C 0.28757 0.11357 0.90218 0.0
C571 C 0.53791 0.97141 0.93494 0.0
C572 C 0.63763 0.85637 0.95371 0.0
C573 C 0.61962 0.80207 0.94105 0.0
C574 C 0.58557 0.73302 0.94744 0.0
C575 C 0.57268 0.71891 0.96667 0.0
C576 C 0.61648 0.84028 0.97244 0.0
C577 C 0.58722 0.77222 -0.02096 0.0
C578 C 0.6565 1.00696 0.90222 0.0
C579 C 0.6565 0.92524 0.94656 0.0
H580 H 0.54671 0.35231 0.93973 0.0
H581 H 0.66043 0.46637 0.89129 0.0
H582 H 0.72868 0.34512 0.92104 0.0
H583 H 0.72249 0.40541 0.8921 0.0
H584 H 0.62658 0.81291 0.92623 0.0
H585 H 0.54855 0.66687 0.97247 0.0
H586 H 0.61606 0.87837 -0.01829 0.0
H587 H 0.57153 0.75993 -0.00655 0.0
Tb588 Tb 0.10874 0.55444 0.91737 0.0
C589 C 0.14962 0.83033 0.96497 0.0
C590 C 0.0962 0.88212 0.94594 0.0
C591 C 0.15752 0.9409 0.97392 0.0
C592 C 0.11549 0.82995 0.94901 0.0
C593 C 0.17934 0.89086 0.9761 0.0
C594 C 0.11315 0.93484 0.95921 0.0
C595 C 0.24355 0.84452 -0.00789 0.0
N596 N 0.16394 0.77739 0.96798 0.0
C597 C 0.20298 0.78065 -0.01676 0.0
C598 C 0.23385 0.90112 -0.01194 0.0
Tb599 Tb 0.17151 0.7255 0.94145 0.0
N600 N 0.10888 0.78386 0.93566 0.0
C601 C 0.07779 0.7847 0.91927 0.0
C602 C 0.06651 0.88377 0.92899 0.0
C603 C 0.05738 0.83452 0.91561 0.0
H604 H 0.21363 0.7385 -0.01367 0.0
H605 H 1.03586 0.83515 0.90226 0.0
H606 H 0.09879 0.97526 0.95713 0.0
H607 H 0.28153 0.84911 0.00221 0.0
H608 H 0.07359 0.75052 0.90839 0.0
H609 H 0.21568 0.40705 0.96749 0.0
H610 H 0.05288 0.92405 0.92598 0.0
H611 H 0.14823 0.58694 0.86409 0.0
H612 H 0.15818 0.49154 0.96074 0.0
H613 H 0.98039 0.39899 0.84447 0.0
H614 H 0.17524 0.98462 -0.01676 0.0
H615 H 0.21564 0.31359 0.94133 0.0
H616 H 0.1561 0.29948 0.90871 0.0
H617 H 0.26478 0.95031 -0.0047 0.0
H618 H 0.05891 0.30582 0.88557 0.0
N619 N 0.1161 0.44898 0.9299 0.0
C620 C 0.1521 0.45382 0.95038 0.0
C621 C 0.19828 0.34916 0.93706 0.0
C622 C 0.16028 0.33565 0.91452 0.0
C623 C 0.19368 0.40431 0.95397 0.0
C624 C 0.12378 0.38389 0.90818 0.0
H625 H 0.97293 0.28665 0.85974 0.0
N626 N 0.17738 0.51286 0.88108 0.0
C627 C 1.02566 0.4083 0.85302 0.0
C628 C 0.1492 0.41354 0.88781 0.0
C629 C 0.1375 0.53297 0.86529 0.0
C630 C 1.0178 0.33675 0.86316 0.0
C631 C 0.07214 0.33679 0.88089 0.0
O632 O 0.99745 0.50562 0.91142 0.0
O633 O 0.08001 0.63158 0.93005 0.0
O634 O 0.10795 0.66303 0.96373 0.0
O635 O 0.12125 0.57022 0.95205 0.0
O636 O 0.04573 0.59935 0.90457 0.0
O637 O 1.02053 0.47005 0.93484 0.0
O638 O 0.26107 0.75468 0.95616 0.0
O639 O 0.17963 0.63055 0.93551 0.0
O640 O 0.18476 0.66707 0.90005 0.0
O641 O 0.18325 0.7615 0.91485 0.0
O642 O 0.26728 0.7197 0.93447 0.0
O643 O 0.25574 0.83092 0.93679 0.0
C644 C 1.03497 0.63253 0.91854 0.0
C645 C 0.88429 0.39371 0.92205 0.0
C646 C 0.7803 0.26135 0.91487 0.0
C647 C 0.84066 0.31484 0.92702 0.0
C648 C 0.7755 0.28918 0.89767 0.0
C649 C 0.85376 0.40831 0.9067 0.0
C650 C 0.8075 0.35944 0.89418 0.0
C651 C 0.11134 0.60654 0.96722 0.0
C652 C 0.96619 0.46354 0.92543 0.0
C653 C 0.04995 0.26962 0.89367 0.0
C654 C 0.09961 0.27035 0.908 0.0
C655 C 0.24382 0.65332 0.93394 0.0
C656 C 0.36132 0.86462 0.95566 0.0
C657 C 0.41321 0.90403 0.94279 0.0
C658 C 0.4823 0.93965 0.94865 0.0
C659 C 0.49862 0.9403 0.96775 0.0
C660 C 0.37916 0.85732 0.97409 0.0
C661 C 0.44736 0.89829 -0.01963 0.0
C662 C 0.20978 0.74099 0.9022 0.0
C663 C 0.29299 0.81646 0.94863 0.0
H664 H 0.85292 0.29406 0.93917 0.0
H665 H 0.74375 0.25695 0.88624 0.0
H666 H 0.88242 0.45652 0.89977 0.0
H667 H 0.79977 0.37699 0.88065 0.0
H668 H 0.40068 0.90162 0.92808 0.0
H669 H 0.55092 0.96966 0.97314 0.0
H670 H 0.34216 0.81704 -0.01666 0.0
H671 H 0.4614 0.89441 -0.00537 0.0
Tb672 Tb 0.66714 0.64797 0.91893 0.0
C673 C 0.38488 0.39352 0.96215 0.0
C674 C 0.33547 0.29464 0.94147 0.0
C675 C 0.27445 0.28705 0.96993 0.0
C676 C 0.38744 0.3647 0.9458 0.0
C677 C 0.3239 0.35811 0.9732 0.0
C678 C 0.2813 0.2545 0.9541 0.0
C679 C 0.36447 0.46555 -0.01038 0.0
N680 N 0.43622 0.46073 0.96577 0.0
C681 C 0.42917 0.49333 -0.01907 0.0
C682 C 0.31108 0.39802 -0.0143 0.0
Tb683 Tb 0.49317 0.52821 0.94047 0.0
N684 N 0.43673 0.40761 0.93342 0.0
C685 C 0.44105 0.3787 0.91709 0.0
C686 C 0.3365 0.26859 0.92412 0.0
C687 C 0.39025 0.31073 0.91191 0.0
H688 H 0.4694 0.54645 -0.01572 0.0
H689 H 0.39324 0.29173 0.89843 0.0
H690 H 0.24097 0.20079 0.9509 0.0
H691 H 0.35665 0.49663 -0.00062 0.0
H692 H 0.47973 0.40955 0.90717 0.0
H693 H 0.82132 0.91276 0.96474 0.0
H694 H 0.29557 0.21662 0.92019 0.0
H695 H 0.63242 0.64233 0.86594 0.0
H696 H 0.73447 0.76839 0.96039 0.0
H697 H 0.81995 0.65882 0.84691 0.0
H698 H 0.22892 0.25845 -0.02121 0.0
H699 H 0.91163 1.00017 0.93696 0.0
H700 H 0.91907 0.94782 0.90506 0.0
H701 H 0.26137 0.37661 -0.00707 0.0
H702 H 0.9162 0.84244 0.88439 0.0
N703 N 0.7766 0.76258 0.93026 0.0
C704 C 0.77336 0.79835 0.94994 0.0
C705 C 0.87586 0.94604 0.93376 0.0
C706 C 0.88733 0.91634 0.91181 0.0
C707 C 0.82275 0.8902 0.95173 0.0
C708 C 0.83899 0.8298 0.9072 0.0
H709 H 0.93283 0.768 0.8602 0.0
N710 N 0.70793 0.74871 0.8814 0.0
C711 C 0.81078 0.69528 0.85521 0.0
C712 C 0.80726 0.82126 0.88717 0.0
C713 C 0.68705 0.68466 0.86708 0.0
C714 C 0.88307 0.76203 0.86418 0.0
C715 C 0.88419 0.8211 0.88049 0.0
O716 O 0.72069 0.5875 0.91854 0.0
O717 O 0.59085 0.53674 0.9292 0.0
O718 O 0.55715 0.53107 0.96316 0.0
O719 O 0.6457 0.64289 0.9529 0.0
O720 O 0.63159 0.54586 0.90425 0.0
O721 O 0.7522 0.66161 0.93887 0.0
O722 O 0.45915 0.58408 0.95504 0.0
O723 O 0.58505 0.63509 0.93557 0.0
O724 O 0.5559 0.6126 0.9009 0.0
O725 O 0.46675 0.50738 0.9133 0.0
O726 O 0.49421 0.62936 0.93501 0.0
O727 O 0.38861 0.50892 0.93406 0.0
C728 C 0.59473 0.49637 0.91676 0.0
C729 C 0.83088 0.59845 0.93403 0.0
C730 C 0.95456 0.61674 0.92191 0.0
C731 C 0.91267 0.63933 0.93397 0.0
C732 C 0.91123 0.57348 0.908 0.0
C733 C 0.8069 0.53247 0.92683 0.0
C734 C 0.83985 0.53003 0.9108 0.0
C735 C 0.61029 0.5928 0.96731 0.0
C736 C 0.76122 0.61014 0.93315 0.0
C737 C 0.9539 0.87515 0.89135 0.0
C738 C 0.95392 0.92736 0.90425 0.0
C739 C 0.56001 0.67481 0.93438 0.0
C740 C 0.35099 0.57809 0.95308 0.0
C741 C 0.31631 0.59853 0.94037 0.0
C742 C 0.27649 0.62687 0.94691 0.0
C743 C 0.27274 0.6357 0.96622 0.0
C744 C 0.35334 0.59512 0.97203 0.0
C745 C 0.31252 0.62191 -0.02138 0.0
C746 C 0.48336 0.55869 0.90211 0.0
C747 C 0.40037 0.55863 0.94614 0.0
H748 H 0.94332 0.68512 0.94245 0.0
H749 H 0.93219 0.56848 0.89487 0.0
H750 H 0.75298 0.49337 0.92935 0.0
H751 H 0.81116 0.49931 0.89915 0.0
H752 H 0.32295 0.59549 0.92551 0.0
H753 H 0.24276 0.65705 0.97209 0.0
H754 H 0.39038 0.59308 -0.01845 0.0
H755 H 0.3143 0.63579 -0.00692 0.0
Tb756 Tb 0.11861 0.55361 0.5378 0.0
C757 C 0.08531 0.7989 0.49201 0.0
C758 C 0.13975 0.90193 0.51114 0.0
C759 C 0.07733 0.90273 0.48354 0.0
C760 C 0.11989 0.83089 0.50791 0.0
C761 C 0.05717 0.83184 0.48074 0.0
C762 C 0.12057 0.93858 0.49854 0.0
C763 C 0.99263 0.7233 0.46454 0.0
N764 N 0.06982 0.73153 0.48903 0.0
C765 C 1.03023 0.69704 0.47388 0.0
C766 C 1.00426 0.79006 0.46831 0.0
Tb767 Tb 0.06196 0.66998 0.51546 0.0
N768 N 0.12732 0.79039 0.52103 0.0
C769 C 0.16058 0.82143 0.53726 0.0
C770 C 0.17353 0.9326 0.52756 0.0
C771 C 0.18351 0.8918 0.54077 0.0
H772 H 1.01749 0.64371 0.47104 0.0
H773 H 0.20596 0.9127 0.55408 0.0
H774 H 0.13297 0.99232 0.50129 0.0
H775 H 0.95418 0.69113 0.45461 0.0
H776 H 0.1644 0.79162 0.5484 0.0
H777 H 1.01539 0.2895 0.49176 0.0
H778 H 0.18846 0.98647 0.53027 0.0
H779 H 0.08823 0.55917 0.58994 0.0
H780 H 0.07035 0.43385 0.49611 0.0
H781 H 0.26019 0.54594 0.61029 0.0
H782 H 0.0583 0.92956 0.47468 0.0
H783 H 1.01849 0.20256 0.51983 0.0
H784 H 0.07262 0.25464 0.55262 0.0
H785 H 0.97413 0.80964 0.46101 0.0
H786 H 0.17511 0.36026 0.57351 0.0
N787 N 0.11671 0.43994 0.52663 0.0
C788 C 0.07906 0.40407 0.50676 0.0
C789 C 1.03526 0.25646 0.52311 0.0
C790 C 0.07479 0.28644 0.54532 0.0
C791 C 1.03787 0.31215 0.50495 0.0
C792 C 0.11209 0.37297 0.54988 0.0
H793 H 0.26776 0.43959 0.59712 0.0
N794 N 0.05887 0.45248 0.57499 0.0
C795 C 0.21448 0.50812 0.60216 0.0
C796 C 0.08738 0.38094 0.56974 0.0
C797 C 0.10074 0.51691 0.58933 0.0
C798 C 0.22186 0.44232 0.59336 0.0
C799 C 0.16454 0.38222 0.57697 0.0
O800 O 0.23185 0.61631 0.54022 0.0
O801 O 0.15302 0.66464 0.52751 0.0
O802 O 0.12391 0.66907 0.49298 0.0
O803 O 0.10421 0.55861 0.50352 0.0
O804 O 0.1758 0.65325 0.55345 0.0
O805 O 0.19724 0.54772 0.51892 0.0
O806 O 0.97055 0.6142 0.50135 0.0
O807 O 0.04976 0.56432 0.52023 0.0
O808 O 1.04126 0.58933 0.55534 0.0
O809 O 0.05369 0.69292 0.54237 0.0
O810 O 0.96385 0.56848 0.52118 0.0
O811 O 0.97893 0.69342 0.52135 0.0
C812 C 0.1931 0.70372 0.54087 0.0
C813 C 0.3381 0.61479 0.52685 0.0
C814 C 0.44578 0.59739 0.53771 0.0
C815 C 0.38122 0.57677 0.52563 0.0
C816 C 0.44881 0.63956 0.55263 0.0
C817 C 0.3755 0.67672 0.53664 0.0
C818 C 0.41533 0.67848 0.552 0.0
C819 C 0.11761 0.60827 0.48897 0.0
C820 C 0.25527 0.59929 0.52585 0.0
C821 C 0.17924 0.32626 0.56699 0.0
C822 C 0.12748 0.27354 0.55405 0.0
C823 C 0.98543 0.52398 0.5213 0.0
C824 C 0.87035 0.62368 0.50255 0.0
C825 C 0.81603 0.60562 0.5152 0.0
C826 C 0.747 0.5716 0.50881 0.0
C827 C 0.73293 0.55877 0.48958 0.0
C828 C 0.85429 0.6026 0.48382 0.0
C829 C 0.78625 0.57335 0.47721 0.0
C830 C 1.02096 0.64255 0.55402 0.0
C831 C 0.93923 0.64256 0.5097 0.0
H832 H 0.36626 0.53272 0.5165 0.0
H833 H 0.48036 0.64652 0.56493 0.0
H834 H 0.35909 0.71473 0.53519 0.0
H835 H 0.41938 0.70855 0.56413 0.0
H836 H 0.82685 0.61254 0.53003 0.0
H837 H 0.68091 0.53467 0.48377 0.0
H838 H 0.89238 0.60221 0.47454 0.0
H839 H 0.77398 0.5577 0.4628 0.0
Tb840 Tb 0.66194 0.6532 0.5373 0.0
C841 C 0.40748 0.37094 0.4941 0.0
C842 C 0.30863 0.32155 0.51477 0.0
C843 C 0.30099 0.26053 0.48631 0.0
C844 C 0.37869 0.3735 0.51044 0.0
C845 C 0.37204 0.30996 0.48304 0.0
C846 C 0.26848 0.26739 0.50214 0.0
C847 C 0.47945 0.35049 0.46662 0.0
N848 N 0.47469 0.42227 0.49047 0.0
C849 C 0.50726 0.4152 0.4753 0.0
C850 C 0.41192 0.29712 0.47054 0.0
Tb851 Tb 0.54219 0.47922 0.51577 0.0
N852 N 0.42161 0.42279 0.52283 0.0
C853 C 0.39271 0.42714 0.53916 0.0
C854 C 0.28259 0.32261 0.53212 0.0
C855 C 0.32474 0.37636 0.54433 0.0
H856 H 0.56037 0.45543 0.47195 0.0
H857 H 0.30573 0.37939 0.55781 0.0
H858 H 0.21476 0.22706 0.50535 0.0
H859 H 0.51052 0.34264 0.45685 0.0
H860 H 0.42357 0.46583 0.54908 0.0
H861 H 0.92668 0.80731 0.49149 0.0
H862 H 0.23062 0.28169 0.53605 0.0
H863 H 0.65631 0.61846 0.59029 0.0
H864 H 0.78233 0.7205 0.49584 0.0
H865 H 0.67286 0.80606 0.60933 0.0
H866 H 0.27237 0.215 0.47745 0.0
H867 H 1.01411 0.89762 0.51926 0.0
H868 H 0.96178 0.90511 0.55117 0.0
H869 H 0.39049 0.24739 0.46331 0.0
H870 H 0.85644 0.90228 0.57184 0.0
N871 N 0.77655 0.76265 0.52598 0.0
C872 C 0.81231 0.75939 0.50629 0.0
C873 C 0.95998 0.86187 0.52247 0.0
C874 C 0.9303 0.87336 0.54442 0.0
C875 C 0.90414 0.80876 0.5045 0.0
C876 C 0.84378 0.82504 0.54903 0.0
H877 H 0.78203 0.91894 0.59602 0.0
N878 N 0.76267 0.69397 0.57483 0.0
C879 C 0.7093 0.79687 0.60102 0.0
C880 C 0.83524 0.7933 0.56906 0.0
C881 C 0.69864 0.6731 0.58915 0.0
C882 C 0.77605 0.86916 0.59205 0.0
C883 C 0.8351 0.87026 0.57574 0.0
O884 O 0.60151 0.70678 0.5377 0.0
O885 O 0.55073 0.57693 0.52703 0.0
O886 O 0.54505 0.54322 0.49307 0.0
O887 O 0.65686 0.63176 0.50334 0.0
O888 O 0.55984 0.61767 0.55198 0.0
O889 O 0.6756 0.73828 0.51736 0.0
O890 O 0.59805 0.44521 0.50118 0.0
O891 O 0.64906 0.5711 0.52067 0.0
O892 O 0.62655 0.54195 0.55534 0.0
O893 O 0.52135 0.45279 0.54293 0.0
O894 O 0.6433 0.48023 0.52123 0.0
O895 O 0.52293 0.37466 0.52217 0.0
C896 C 0.51036 0.58082 0.53946 0.0
C897 C 0.61245 0.81697 0.52221 0.0
C898 C 0.6307 0.94064 0.53432 0.0
C899 C 0.65333 0.89877 0.52227 0.0
C900 C 0.58747 0.89729 0.54824 0.0
C901 C 0.54648 0.79297 0.52941 0.0
C902 C 0.54404 0.8259 0.54544 0.0
C903 C 0.60677 0.59637 0.48892 0.0
C904 C 0.62415 0.7473 0.52309 0.0
C905 C 0.88916 0.93997 0.56488 0.0
C906 C 0.94134 0.93997 0.55197 0.0
C907 C 0.68876 0.54604 0.52187 0.0
C908 C 0.59208 0.33704 0.50315 0.0
C909 C 0.61257 0.3024 0.51586 0.0
C910 C 0.64091 0.26258 0.50933 0.0
C911 C 0.64972 0.25881 0.49001 0.0
C912 C 0.60906 0.33935 0.4842 0.0
C913 C 0.63587 0.29854 0.47761 0.0
C914 C 0.57264 0.4694 0.55413 0.0
C915 C 0.57261 0.38642 0.51008 0.0
H916 H 0.69911 0.92943 0.51379 0.0
H917 H 0.58245 0.91824 0.56137 0.0
H918 H 0.50738 0.73904 0.52688 0.0
H919 H 0.51332 0.79719 0.55708 0.0
H920 H 0.60955 0.30906 0.53072 0.0
H921 H 0.67107 0.22884 0.48414 0.0
H922 H 0.60696 0.37635 0.47467 0.0
H923 H 0.64971 0.3003 0.46315 0.0
Tb924 Tb 0.56842 0.09481 0.53888 0.0
C925 C 0.84425 0.13566 0.49128 0.0
C926 C 0.89601 0.08223 0.51031 0.0
C927 C 0.95478 0.14352 0.48232 0.0
C928 C 0.84386 0.10153 0.50723 0.0
C929 C 0.90477 0.16535 0.48014 0.0
C930 C 0.94871 0.09916 0.49704 0.0
C931 C 0.85845 0.22958 0.46413 0.0
N932 N 0.79133 0.14999 0.48826 0.0
C933 C 0.7946 0.18902 0.473 0.0
C934 C 0.91504 0.21987 0.46818 0.0
Tb935 Tb 0.73946 0.1576 0.51479 0.0
N936 N 0.79776 0.09492 0.52059 0.0
C937 C 0.79857 0.06381 0.53697 0.0
C938 C 0.89765 0.05255 0.52726 0.0
C939 C 0.84839 0.0434 0.54064 0.0
H940 H 0.75246 0.19969 0.4699 0.0
H941 H 0.849 1.02186 0.55399 0.0
H942 H 0.98912 0.08479 0.49912 0.0
H943 H 0.86304 0.26756 0.45403 0.0
H944 H 0.76438 0.0596 0.54785 0.0
H945 H 0.42125 0.20195 0.48876 0.0
H946 H 0.93792 0.03892 0.53028 0.0
H947 H 0.60081 0.13415 0.59217 0.0
H948 H 0.5056 0.14433 0.4955 0.0
H949 H 0.41279 0.96631 0.61176 0.0
H950 H 0.9985 0.16123 0.473 0.0
H951 H 0.32781 0.20196 0.51491 0.0
H952 H 0.31359 0.14234 0.54753 0.0
H953 H 0.96422 0.2508 0.46094 0.0
H954 H 0.3198 0.04502 0.57066 0.0
N955 N 0.463 0.10221 0.52634 0.0
C956 C 0.4679 0.13826 0.50587 0.0
C957 C 0.36332 0.18453 0.51918 0.0
C958 C 0.34974 0.14648 0.54172 0.0
C959 C 0.41845 0.17991 0.50228 0.0
C960 C 0.39791 0.1099 0.54806 0.0
H961 H 0.30054 0.95897 0.59648 0.0
N962 N 0.52681 0.16339 0.57517 0.0
C963 C 0.42214 1.01162 0.60321 0.0
C964 C 0.42753 0.13527 0.56843 0.0
C965 C 0.54685 0.12345 0.59096 0.0
C966 C 0.35065 1.00382 0.59307 0.0
C967 C 0.35076 0.05823 0.57534 0.0
O968 O 0.51956 0.98349 0.54483 0.0
O969 O 0.64553 0.06609 0.52618 0.0
O970 O 0.677 0.09403 0.49251 0.0
O971 O 0.5842 0.1073 0.50419 0.0
O972 O 0.61333 0.03182 0.55169 0.0
O973 O 0.48405 1.00659 0.52141 0.0
O974 O 0.76868 0.24717 0.50007 0.0
O975 O 0.64449 0.16568 0.52073 0.0
O976 O 0.68105 0.17084 0.55619 0.0
O977 O 0.77545 0.16933 0.54139 0.0
O978 O 0.73375 0.25345 0.52178 0.0
O979 O 0.84487 0.24182 0.51945 0.0
C980 C 0.64639 1.02103 0.5377 0.0
C981 C 0.40771 0.87032 0.5342 0.0
C982 C 0.27534 0.76636 0.54137 0.0
C983 C 0.32885 0.82672 0.52922 0.0
C984 C 0.30315 0.76154 0.55857 0.0
C985 C 0.42229 0.83977 0.54954 0.0
C986 C 0.3734 0.79352 0.56206 0.0
C987 C 0.62051 0.0974 0.48902 0.0
C988 C 0.47752 0.95224 0.53082 0.0
C989 C 0.28363 0.0361 0.56256 0.0
C990 C 0.28442 0.08583 0.54823 0.0
C991 C 0.66737 0.2299 0.52229 0.0
C992 C 0.87862 0.3474 0.50056 0.0
C993 C 0.91805 0.39928 0.51343 0.0
C994 C 0.95368 0.46839 0.50758 0.0
C995 C 0.95434 0.48473 0.48848 0.0
C996 C 0.87133 0.36526 0.48213 0.0
C997 C 0.91232 0.43347 0.47586 0.0
C998 C 0.75496 0.19586 0.55404 0.0
C999 C 0.83045 0.27908 0.5076 0.0
H1000 H 0.3081 0.83901 0.51707 0.0
H1001 H 0.27092 0.7298 0.57 0.0
H1002 H 0.47049 0.86841 0.55647 0.0
H1003 H 0.39093 0.78577 0.5756 0.0
H1004 H 0.91563 0.38674 0.52815 0.0
H1005 H 0.98368 0.53704 0.4831 0.0
H1006 H 0.83105 0.32827 0.47288 0.0
H1007 H 0.90844 0.44753 0.4616 0.0
Tb1008 Tb 0.21186 0.48659 0.34878 0.0
C1009 C 0.50084 0.46109 0.40309 0.0
C1010 C 0.59533 0.47364 0.37866 0.0
C1011 C 0.55547 0.36918 0.40033 0.0
C1012 C 0.50879 0.43632 0.38322 0.0
C1013 C 0.49957 0.38393 0.41031 0.0
C1014 C 0.60807 0.42082 0.38735 0.0
C1015 C 0.37368 0.33398 0.43549 0.0
N1016 N 0.42925 0.48959 0.40832 0.0
C1017 C 0.3649 0.44773 0.42268 0.0
C1018 C 0.43948 0.3266 0.4267 0.0
Tb1019 Tb 0.32824 0.42996 0.37112 0.0
N1020 N 0.44186 0.43177 0.35996 0.0
C1021 C 0.4778 0.46941 0.34009 0.0
C1022 C 0.62534 0.51308 0.35647 0.0
C1023 C 0.56973 0.51054 0.33829 0.0
H1024 H 0.32257 0.46013 0.42326 0.0
H1025 H 0.59243 0.53308 0.32511 0.0
H1026 H 0.62694 0.47582 0.38613 0.0
H1027 H 0.33584 0.28821 0.44361 0.0
H1028 H 0.44809 0.47821 0.32944 0.0
H1029 H 0.96921 0.3427 0.38742 0.0
H1030 H 0.67927 0.52996 0.35321 0.0
H1031 H 0.23815 0.53099 0.30436 0.0
H1032 H 0.09025 0.3842 0.38173 0.0
H1033 H 0.19079 0.59435 0.28792 0.0
H1034 H 0.52153 0.37337 0.40686 0.0
H1035 H 0.8955 0.36031 0.36361 0.0
H1036 H 0.88966 0.41569 0.33462 0.0
H1037 H 0.44221 0.2807 0.43047 0.0
H1038 H 0.9524 0.49029 0.308 0.0
N1039 N 0.09149 0.42126 0.35436 0.0
C1040 C 0.06045 0.388 0.37059 0.0
C1041 C 0.94934 0.37514 0.3609 0.0
C1042 C 0.97999 0.40885 0.34446 0.0
C1043 C 0.99011 0.36513 0.3741 0.0
C1044 C 0.05099 0.42866 0.34123 0.0
H1045 H 0.07232 0.57447 0.29433 0.0
N1046 N 0.15032 0.47865 0.32234 0.0
C1047 C 0.1586 0.55591 0.29786 0.0
C1048 C 0.08298 0.46321 0.32533 0.0
C1049 C 0.18484 0.51828 0.30719 0.0
C1050 C 0.09188 0.5443 0.30163 0.0
C1051 C 0.05007 0.49137 0.31406 0.0
O1052 O 0.26761 0.57799 0.33467 0.0
O1053 O 0.31757 0.49884 0.35354 0.0
O1054 O 0.29251 0.50732 0.38866 0.0
O1055 O 0.18892 0.49494 0.37569 0.0
O1056 O 0.31331 0.58474 0.3545 0.0
O1057 O 0.18839 0.56962 0.35466 0.0
O1058 O 0.2655 0.3167 0.37352 0.0
O1059 O 0.21729 0.3956 0.36085 0.0
O1060 O 0.2128 0.42461 0.32631 0.0
O1061 O 0.32326 0.4444 0.33685 0.0
O1062 O 0.22856 0.37275 0.38677 0.0
O1063 O 0.33416 0.35133 0.35225 0.0
C1064 C 0.35782 0.5632 0.35462 0.0
C1065 C 0.25809 0.67819 0.33585 0.0
C1066 C 0.31027 0.80155 0.34212 0.0
C1067 C 0.27612 0.7325 0.34851 0.0
C1068 C 0.32316 0.81566 0.32289 0.0
C1069 C 0.27925 0.69427 0.31712 0.0
C1070 C 0.30856 0.76233 0.31052 0.0
C1071 C 0.23925 0.52755 0.38735 0.0
C1072 C 0.23921 0.60931 0.343 0.0
C1073 C 0.97921 0.47125 0.31686 0.0
C1074 C 0.94337 0.42806 0.33187 0.0
C1075 C 0.17809 0.35548 0.37418 0.0
C1076 C 0.26705 0.21044 0.36017 0.0
C1077 C 0.30505 0.16732 0.35896 0.0
C1078 C 0.28445 0.10276 0.37104 0.0
C1079 C 0.24227 0.09971 0.38596 0.0
C1080 C 0.20513 0.17305 0.36997 0.0
C1081 C 0.20336 0.13321 0.38532 0.0
C1082 C 0.27361 0.43097 0.32229 0.0
C1083 C 0.28255 0.29329 0.35916 0.0
H1084 H 0.26912 0.72166 0.36333 0.0
H1085 H 0.34731 0.86769 0.31709 0.0
H1086 H 0.27966 0.65617 0.30785 0.0
H1087 H 0.32426 0.77461 0.29612 0.0
H1088 H 0.34908 0.18225 0.34982 0.0
H1089 H 0.23531 0.06817 0.39825 0.0
H1090 H 0.16711 0.18945 0.36851 0.0
H1091 H 0.17329 0.12916 0.39745 0.0
Tb1092 Tb 0.72425 0.80903 0.34812 0.0
C1093 C 0.74662 0.12106 0.40178 0.0
C1094 C 0.73553 0.19897 0.37506 0.0
C1095 C 0.84584 0.26498 0.39591 0.0
C1096 C 0.77207 0.15073 0.38139 0.0
C1097 C 0.82365 0.19782 0.40869 0.0
C1098 C 0.79625 0.26423 0.38154 0.0
C1099 C 0.8702 0.12638 0.43654 0.0
N1100 N 0.71851 1.0217 0.40849 0.0
C1101 C 0.75841 1.00169 0.42429 0.0
C1102 C 0.87802 0.19789 0.42641 0.0
Tb1103 Tb 0.787 0.9801 0.37219 0.0
N1104 N 0.7797 0.08561 0.35966 0.0
C1105 C 0.7437 0.08082 0.33918 0.0
C1106 C 0.69759 0.18553 0.35253 0.0
C1107 C 0.70214 0.13038 0.33561 0.0
H1108 H 0.74781 0.94774 0.42547 0.0
H1109 H 0.68008 0.12762 0.3221 0.0
H1110 H 0.73968 0.23503 0.38101 0.0
H1111 H 0.91552 0.13573 0.44508 0.0
H1112 H 0.73755 0.04307 0.32882 0.0
H1113 H 0.85985 0.69938 0.38732 0.0
H1114 H 0.68005 0.22098 0.34828 0.0
H1115 H 0.68219 0.7961 0.30324 0.0
H1116 H 0.82208 0.78398 0.38118 0.0
H1117 H 0.61427 0.68546 0.28735 0.0
H1118 H 0.83685 0.2288 0.40401 0.0
H1119 H 0.84282 0.61046 0.3636 0.0
H1120 H 0.79697 0.55929 0.33244 0.0
H1121 H 0.92288 0.24801 0.42983 0.0
H1122 H 0.72057 0.54994 0.30633 0.0
N1123 N 0.78685 0.75066 0.35392 0.0
C1124 C 0.81793 0.74984 0.3703 0.0
C1125 C 0.82922 0.65076 0.36058 0.0
C1126 C 0.79957 0.65242 0.34363 0.0
C1127 C 0.83835 0.70001 0.37397 0.0
C1128 C 0.78029 0.7046 0.34056 0.0
H1129 H 0.63102 0.58427 0.29427 0.0
N1130 N 0.73189 0.75719 0.32157 0.0
C1131 C 0.65226 0.69006 0.29745 0.0
C1132 C 0.74619 0.70424 0.3246 0.0
C1133 C 0.69282 0.75392 0.30632 0.0
C1134 C 0.66196 0.63346 0.30151 0.0
C1135 C 0.71647 0.64371 0.31347 0.0
O1136 O 0.63469 0.77984 0.3334 0.0
O1137 O 0.71611 0.90402 0.35405 0.0
O1138 O 0.71098 0.86748 0.38951 0.0
O1139 O 0.71242 0.77298 0.37471 0.0
O1140 O 0.62846 0.81479 0.35508 0.0
O1141 O 0.64001 0.7036 0.35277 0.0
O1142 O 0.8983 1.0289 0.37811 0.0
O1143 O 0.81569 0.90295 0.35953 0.0
O1144 O 0.78781 0.87154 0.32584 0.0
O1145 O 0.77446 0.96432 0.33751 0.0
O1146 O 0.85002 0.93517 0.38499 0.0
O1147 O 0.87517 0.06451 0.35472 0.0
C1148 C 0.6519 0.88116 0.35561 0.0
C1149 C 0.53444 0.6699 0.33389 0.0
C1150 C 0.41344 0.59498 0.3409 0.0
C1151 C 0.48254 0.63051 0.34676 0.0
C1152 C 0.39712 0.59434 0.3218 0.0
C1153 C 0.51661 0.67723 0.31546 0.0
C1154 C 0.4484 0.63631 0.30918 0.0
C1155 C 0.686 0.79357 0.38736 0.0
C1156 C 0.60277 0.71805 0.34093 0.0
C1157 C 0.73827 0.59366 0.31565 0.0
C1158 C 0.78261 0.59971 0.33036 0.0
C1159 C 0.86076 0.90195 0.37102 0.0
C1160 C 1.01144 0.14084 0.3675 0.0
C1161 C 0.05509 0.21972 0.36252 0.0
C1162 C 0.11547 0.27321 0.37467 0.0
C1163 C 0.12028 0.24535 0.39187 0.0
C1164 C 1.04195 0.12622 0.38284 0.0
C1165 C 0.08824 0.17509 0.39536 0.0
C1166 C 0.78439 0.92802 0.32234 0.0
C1167 C 0.92954 0.07101 0.3641 0.0
H1168 H 0.49507 0.63287 0.36147 0.0
H1169 H 0.34483 0.56501 0.31642 0.0
H1170 H 0.55363 0.7175 0.30621 0.0
H1171 H 0.43437 0.64021 0.29492 0.0
H1172 H 1.04284 0.24052 0.35038 0.0
H1173 H 0.15205 0.27756 0.4033 0.0
H1174 H 1.01327 0.07802 0.38978 0.0
H1175 H 0.09598 0.15752 0.40889 0.0
Tb1176 Tb 0.40262 1.00636 0.3491 0.0
C1177 C 0.08847 0.71328 0.40241 0.0
C1178 C 1.00836 0.61818 0.37777 0.0
C1179 C 0.94183 0.65938 0.39822 0.0
C1180 C 0.0567 0.70476 0.38236 0.0
C1181 C 1.01152 0.71341 0.40909 0.0
C1182 C 0.94181 0.60728 0.38528 0.0
C1183 C 0.08487 0.83923 0.43435 0.0
N1184 N 0.18782 0.78593 0.40816 0.0
C1185 C 0.20862 0.8499 0.4225 0.0
C1186 C 1.01261 0.77247 0.42539 0.0
Tb1187 Tb 0.22864 0.88657 0.37063 0.0
N1188 N 0.11913 0.77197 0.35931 0.0
C1189 C 0.1223 0.73614 0.33962 0.0
C1190 C 1.01975 0.58848 0.35583 0.0
C1191 C 0.07285 0.64426 0.33784 0.0
H1192 H 0.26322 0.89232 0.42362 0.0
H1193 H 0.07428 0.62166 0.32485 0.0
H1194 H 0.97679 0.58687 0.38467 0.0
H1195 H 0.07566 0.8757 0.44265 0.0
H1196 H 0.1612 0.76606 0.32917 0.0
H1197 H 0.50259 0.2428 0.39114 0.0
H1198 H 0.98405 0.53431 0.35265 0.0
H1199 H 0.42631 0.98808 0.30529 0.0
H1200 H 0.41608 0.125 0.3824 0.0
H1201 H 0.53907 0.0379 0.29018 0.0
H1202 H 0.97951 0.69205 0.40519 0.0
H1203 H 0.60028 0.31788 0.36938 0.0
H1204 H 0.6548 0.33376 0.33866 0.0
H1205 H 0.96284 0.7665 0.42936 0.0
H1206 H 0.66684 0.27608 0.31077 0.0
N1207 N 0.45906 0.12695 0.35615 0.0
C1208 C 0.45474 0.15586 0.37248 0.0
C1209 C 0.5593 0.26595 0.36544 0.0
C1210 C 0.56029 0.23991 0.34809 0.0
C1211 C 0.50556 0.22381 0.37766 0.0
C1212 C 0.50831 0.16986 0.34376 0.0
H1213 H 0.63436 0.15792 0.29663 0.0
N1214 N 0.45951 0.07384 0.32379 0.0
C1215 C 0.53125 0.06898 0.29994 0.0
C1216 C 0.51086 0.14104 0.32742 0.0
C1217 C 0.46655 0.0412 0.30863 0.0
C1218 C 0.58464 0.13651 0.30386 0.0
C1219 C 0.57184 0.17644 0.31637 0.0
O1220 O 0.43666 0.95051 0.33453 0.0
O1221 O 0.3107 0.89943 0.35399 0.0
O1222 O 0.33987 0.92191 0.38867 0.0
O1223 O 0.42908 1.02718 0.37626 0.0
O1224 O 0.40161 0.90524 0.35455 0.0
O1225 O 0.50719 1.02568 0.3555 0.0
O1226 O 0.17511 0.94707 0.37102 0.0
O1227 O 0.30492 0.99775 0.36038 0.0
O1228 O 0.33861 1.00348 0.32641 0.0
O1229 O 0.25008 0.89164 0.33667 0.0
O1230 O 0.26424 0.98872 0.38531 0.0
O1231 O 0.14356 0.87292 0.3507 0.0
C1232 C 0.33582 0.85977 0.35518 0.0
C1233 C 0.54483 0.95652 0.33648 0.0
C1234 C 0.61923 0.90763 0.34265 0.0
C1235 C 0.5795 0.93606 0.34919 0.0
C1236 C 0.62296 0.89879 0.32333 0.0
C1237 C 0.54244 0.93946 0.31754 0.0
C1238 C 0.58321 0.91263 0.31094 0.0
C1239 C 0.4124 0.97587 0.38747 0.0
C1240 C 0.49545 0.97597 0.34343 0.0
C1241 C 0.6213 0.24749 0.31964 0.0
C1242 C 0.61446 0.28004 0.33546 0.0
C1243 C 0.3011 0.03822 0.3728 0.0
C1244 C 0.06489 0.93609 0.35554 0.0
C1245 C 0.9831 0.89523 0.35559 0.0
C1246 C 0.9412 0.9178 0.36765 0.0
C1247 C 0.98452 0.96107 0.38156 0.0
C1248 C 0.08887 1.00207 0.36275 0.0
C1249 C 0.05591 1.00451 0.37877 0.0
C1250 C 0.28548 0.94174 0.32226 0.0
C1251 C 0.13456 0.9244 0.35642 0.0
H1252 H 0.5729 0.93914 0.36405 0.0
H1253 H 0.65292 0.87742 0.31747 0.0
H1254 H 0.50539 0.9415 0.30801 0.0
H1255 H 0.5814 0.89874 0.29648 0.0
H1256 H 0.95245 0.84945 0.34711 0.0
H1257 H 0.96355 0.96607 0.39469 0.0
H1258 H 0.14279 0.04117 0.36022 0.0
H1259 H 0.08459 0.03526 0.39041 0.0
Tb1260 Tb 0.83378 0.86451 0.77412 0.0
C1261 C 0.8083 0.15355 0.71981 0.0
C1262 C 0.82088 0.24807 0.74424 0.0
C1263 C 0.71644 0.20823 0.72258 0.0
C1264 C 0.78356 0.16152 0.73969 0.0
C1265 C 0.73117 0.1523 0.71259 0.0
C1266 C 0.76808 0.26083 0.73555 0.0
C1267 C 0.68118 1.02639 0.68741 0.0
N1268 N 0.83677 0.08193 0.71459 0.0
C1269 C 0.79489 1.01756 0.70023 0.0
C1270 C 0.67383 0.09221 0.69621 0.0
Tb1271 Tb 0.77715 0.98091 0.75178 0.0
N1272 N 0.77899 0.09456 0.76294 0.0
C1273 C 0.81662 0.13051 0.78282 0.0
C1274 C 0.86033 0.27808 0.76643 0.0
C1275 C 0.85778 0.22245 0.78461 0.0
H1276 H 0.80728 0.97521 0.69964 0.0
H1277 H 0.88032 0.24516 0.79779 0.0
H1278 H 0.82307 0.27969 0.73677 0.0
H1279 H 0.63543 0.98856 0.6793 0.0
H1280 H 0.8254 0.10078 0.79347 0.0
H1281 H 0.68988 0.62183 0.73549 0.0
H1282 H 0.87721 0.33202 0.76969 0.0
H1283 H 0.87821 0.89081 0.81853 0.0
H1284 H 0.73138 0.74288 0.74117 0.0
H1285 H 0.94156 0.84343 0.83497 0.0
H1286 H 0.72061 0.17428 0.71605 0.0
H1287 H 0.70745 0.54807 0.7593 0.0
H1288 H 0.76283 0.54221 0.78829 0.0
H1289 H 0.62793 0.09493 0.69245 0.0
H1290 H 0.83746 0.60498 0.8149 0.0
N1291 N 0.76846 0.74411 0.76854 0.0
C1292 C 0.73519 0.71307 0.75231 0.0
C1293 C 0.7223 0.60193 0.76201 0.0
C1294 C 0.75602 0.63258 0.77844 0.0
C1295 C 0.7123 0.64271 0.7488 0.0
C1296 C 0.77585 0.70361 0.78167 0.0
H1297 H 0.92163 0.72491 0.82857 0.0
N1298 N 0.82587 0.80296 0.80055 0.0
C1299 C 0.90311 0.81124 0.82504 0.0
C1300 C 0.81041 0.7356 0.79757 0.0
C1301 C 0.8655 0.83749 0.8157 0.0
C1302 C 0.89148 0.74449 0.82127 0.0
C1303 C 0.83856 0.70268 0.80884 0.0
O1304 O 0.92519 0.92026 0.78822 0.0
O1305 O 0.84601 0.97023 0.76936 0.0
O1306 O 0.85451 0.9452 0.73424 0.0
O1307 O 0.84206 0.84159 0.7472 0.0
O1308 O 0.93191 0.96598 0.76841 0.0
O1309 O 0.91681 0.84104 0.76823 0.0
O1310 O 0.6639 0.91817 0.74938 0.0
O1311 O 0.74278 0.86993 0.76205 0.0
O1312 O 0.77184 0.86546 0.79659 0.0
O1313 O 0.79158 0.97594 0.78605 0.0
O1314 O 0.71996 0.88122 0.73613 0.0
O1315 O 0.69854 0.98684 0.77066 0.0
C1316 C 0.91035 1.01049 0.76829 0.0
C1317 C 1.02539 0.91078 0.78702 0.0
C1318 C 0.14875 0.96297 0.78077 0.0
C1319 C 0.07972 0.92886 0.77437 0.0
C1320 C 0.16282 0.97583 0.8 0.0
C1321 C 1.04145 0.9319 0.80576 0.0
C1322 C 0.10949 0.9612 0.81236 0.0
C1323 C 0.8748 0.89197 0.73555 0.0
C1324 C 0.95651 0.8919 0.77988 0.0
C1325 C 0.81843 0.63179 0.80604 0.0
C1326 C 0.77522 0.59594 0.79104 0.0
C1327 C 0.70267 0.83074 0.74872 0.0
C1328 C 0.55766 0.91974 0.76274 0.0
C1329 C 0.51453 0.95775 0.76395 0.0
C1330 C 0.44996 0.93712 0.75187 0.0
C1331 C 0.44691 0.89493 0.73695 0.0
C1332 C 0.52027 0.85781 0.75294 0.0
C1333 C 0.48042 0.85604 0.73759 0.0
C1334 C 0.77817 0.92628 0.80061 0.0
C1335 C 0.6405 0.93523 0.76375 0.0
H1336 H 0.0689 0.92189 0.75955 0.0
H1337 H 0.21484 0.99996 0.8058 0.0
H1338 H 1.00335 0.93229 0.81503 0.0
H1339 H 0.12174 0.97687 0.82677 0.0
H1340 H 0.52948 1.0018 0.77308 0.0
H1341 H 0.41535 0.88795 0.72466 0.0
H1342 H 0.53667 0.81979 0.75439 0.0
H1343 H 0.47637 0.82597 0.72546 0.0
Tb1344 Tb 0.35356 0.0553 0.7738 0.0
C1345 C 0.06049 0.74116 0.7205 0.0
C1346 C 0.9654 0.66106 0.74515 0.0
C1347 C 1.00656 0.59448 0.72469 0.0
C1348 C 0.05196 0.70939 0.74055 0.0
C1349 C 0.06059 0.66418 0.71382 0.0
C1350 C 0.95448 0.59449 0.73764 0.0
C1351 C 0.18639 0.73751 0.68856 0.0
N1352 N 0.13315 0.84052 0.71475 0.0
C1353 C 0.1971 0.8613 0.70041 0.0
C1354 C 0.11963 0.66525 0.69752 0.0
Tb1355 Tb 0.23378 0.88131 0.75228 0.0
N1356 N 0.11918 0.77182 0.7636 0.0
C1357 C 0.08336 0.77501 0.78329 0.0
C1358 C 0.93572 0.67247 0.76708 0.0
C1359 C 0.99151 0.72558 0.78507 0.0
H1360 H 0.23952 0.91591 0.69929 0.0
H1361 H 0.96891 0.72702 0.79807 0.0
H1362 H 0.93409 0.62949 0.73824 0.0
H1363 H 0.22284 0.72829 0.68026 0.0
H1364 H 0.11329 0.81391 0.79374 0.0
H1365 H 0.58998 0.15518 0.73176 0.0
H1366 H 0.88155 0.63679 0.77026 0.0
H1367 H 0.33534 0.07902 0.81761 0.0
H1368 H 0.47218 0.06871 0.7405 0.0
H1369 H 0.38518 0.19182 0.83272 0.0
H1370 H 1.03923 0.63216 0.71772 0.0
H1371 H 0.66506 0.25291 0.75351 0.0
H1372 H 0.68095 0.30746 0.78423 0.0
H1373 H 0.11365 0.61547 0.69355 0.0
H1374 H 0.62332 0.31952 0.81212 0.0
N1375 N 0.47413 0.11174 0.76674 0.0
C1376 C 0.50303 0.10739 0.75042 0.0
C1377 C 0.61312 0.21195 0.75745 0.0
C1378 C 0.5871 0.21297 0.7748 0.0
C1379 C 0.57099 0.15819 0.74524 0.0
C1380 C 0.51704 0.161 0.77913 0.0
H1381 H 0.5052 0.28708 0.82627 0.0
N1382 N 0.42106 0.11221 0.79911 0.0
C1383 C 0.41624 0.18398 0.82296 0.0
C1384 C 0.48826 0.16355 0.79548 0.0
C1385 C 0.38845 0.11927 0.81427 0.0
C1386 C 0.48377 0.23736 0.81904 0.0
C1387 C 0.52368 0.22453 0.80653 0.0
O1388 O 0.29773 0.08935 0.78839 0.0
O1389 O 0.24664 0.96339 0.76892 0.0
O1390 O 0.26915 0.99255 0.73424 0.0
O1391 O 0.37436 0.0817 0.74664 0.0
O1392 O 0.25247 0.05433 0.76835 0.0
O1393 O 0.37288 0.15989 0.7674 0.0
O1394 O 0.29424 0.82775 0.75189 0.0
O1395 O 0.34494 0.95758 0.76253 0.0
O1396 O 0.35068 0.99128 0.7965 0.0
O1397 O 0.23885 0.90276 0.78624 0.0
O1398 O 0.33592 0.91689 0.7376 0.0
O1399 O 0.22012 0.79622 0.77221 0.0
C1400 C 0.207 0.98853 0.76772 0.0
C1401 C 0.30374 0.19754 0.78643 0.0
C1402 C 0.25478 0.27189 0.78026 0.0
C1403 C 0.28324 0.23218 0.77372 0.0
C1404 C 0.24595 0.27562 0.79957 0.0
C1405 C 0.28671 0.19517 0.80537 0.0
C1406 C 0.25985 0.23591 0.81197 0.0
C1407 C 0.32307 0.0651 0.73544 0.0
C1408 C 0.32319 0.14815 0.77948 0.0
C1409 C 0.59471 0.27398 0.80326 0.0
C1410 C 0.62724 0.26713 0.78743 0.0
C1411 C 0.38541 0.95375 0.75012 0.0
C1412 C 0.28328 0.71754 0.76737 0.0
C1413 C 0.24241 0.63573 0.76731 0.0
C1414 C 0.26503 0.59385 0.75526 0.0
C1415 C 0.30827 0.63719 0.74134 0.0
C1416 C 0.34925 0.74154 0.76017 0.0
C1417 C 0.3517 0.70859 0.74413 0.0
C1418 C 0.28895 0.93815 0.80065 0.0
C1419 C 0.27158 0.78721 0.76649 0.0
H1420 H 0.28631 0.22558 0.75886 0.0
H1421 H 0.22456 0.30556 0.80544 0.0
H1422 H 0.2888 0.15813 0.8149 0.0
H1423 H 0.24598 0.23411 0.82643 0.0
H1424 H 0.19664 0.60507 0.77579 0.0
H1425 H 0.31328 0.61624 0.72821 0.0
H1426 H 0.38835 0.79547 0.76269 0.0
H1427 H 0.38243 0.73729 0.73249 0.0
Tb1428 Tb 0.15626 0.3769 0.77478 0.0
C1429 C 0.46826 0.39929 0.72112 0.0
C1430 C 0.54612 0.38815 0.74784 0.0
C1431 C 0.61215 0.49848 0.727 0.0
C1432 C 0.49791 0.42472 0.74151 0.0
C1433 C 0.54502 0.47631 0.71422 0.0
C1434 C 0.61138 0.44887 0.74136 0.0
C1435 C 0.47364 0.52292 0.68636 0.0
N1436 N 0.36893 0.3712 0.71441 0.0
C1437 C 0.34895 0.41112 0.6986 0.0
C1438 C 0.54512 0.53071 0.69649 0.0
Tb1439 Tb 0.32731 0.43966 0.7507 0.0
N1440 N 0.43279 0.43236 0.76324 0.0
C1441 C 0.42798 0.39634 0.78371 0.0
C1442 C 0.53265 0.35019 0.77037 0.0
C1443 C 0.47751 0.35475 0.78729 0.0
H1444 H 0.29502 0.40053 0.69741 0.0
H1445 H 0.47473 0.33267 0.8008 0.0
H1446 H 0.58216 0.39229 0.74189 0.0
H1447 H 0.48301 0.56826 0.67782 0.0
H1448 H 0.39024 0.39019 0.79408 0.0
H1449 H 0.04671 0.51258 0.73557 0.0
H1450 H 0.56807 0.33263 0.77462 0.0
H1451 H 0.14332 0.33488 0.81967 0.0
H1452 H 0.13132 0.47484 0.74172 0.0
H1453 H 1.03272 0.267 0.83556 0.0
H1454 H 0.57599 0.48951 0.71889 0.0
H1455 H 0.95776 0.4955 0.75928 0.0
H1456 H 0.90661 0.44971 0.79044 0.0
H1457 H 0.59524 0.57557 0.69307 0.0
H1458 H 0.89726 0.37332 0.81657 0.0
N1459 N 0.09794 0.43955 0.76898 0.0
C1460 C 0.09715 0.47067 0.75259 0.0
C1461 C 0.99806 0.48191 0.7623 0.0
C1462 C 0.99971 0.45227 0.77926 0.0
C1463 C 0.04733 0.49107 0.74892 0.0
C1464 C 0.05188 0.43299 0.78234 0.0
H1465 H 0.93155 0.28376 0.82864 0.0
N1466 N 0.10444 0.38459 0.80132 0.0
C1467 C 1.03732 0.30498 0.82545 0.0
C1468 C 0.05151 0.39891 0.7983 0.0
C1469 C 0.10116 0.34553 0.81658 0.0
C1470 C 0.98073 0.31469 0.8214 0.0
C1471 C 0.99099 0.3692 0.80943 0.0
O1472 O 0.12701 0.28733 0.7895 0.0
O1473 O 0.25126 0.3688 0.76886 0.0
O1474 O 0.21468 0.36362 0.73339 0.0
O1475 O 0.12027 0.36513 0.74818 0.0
O1476 O 0.16192 0.28103 0.76782 0.0
O1477 O 0.05083 0.29269 0.77013 0.0
O1478 O 0.37614 0.55099 0.74478 0.0
O1479 O 0.25019 0.46835 0.76338 0.0
O1480 O 0.21876 0.44047 0.79706 0.0
O1481 O 0.31153 0.42714 0.78539 0.0
O1482 O 0.28238 0.50267 0.73789 0.0
O1483 O 0.4117 0.52785 0.76818 0.0
C1484 C 0.22829 0.30456 0.7673 0.0
C1485 C 1.01706 0.18712 0.78902 0.0
C1486 C 0.94212 0.06611 0.782 0.0
C1487 C 0.97766 0.13522 0.77615 0.0
C1488 C 0.94148 0.04977 0.8011 0.0
C1489 C 1.02438 0.16926 0.80745 0.0
C1490 C 0.98345 0.10105 0.81372 0.0
C1491 C 0.14077 0.33861 0.73554 0.0
C1492 C 0.06523 0.25543 0.78198 0.0
C1493 C 0.94097 0.39102 0.80725 0.0
C1494 C 0.94701 0.43534 0.79252 0.0
C1495 C 0.24928 0.51344 0.75188 0.0
C1496 C 0.48803 0.66414 0.7554 0.0
C1497 C 0.5669 0.70777 0.76037 0.0
C1498 C 0.6204 0.76813 0.74823 0.0
C1499 C 0.59256 0.77296 0.73103 0.0
C1500 C 0.47343 0.69467 0.74005 0.0
C1501 C 0.52231 0.74096 0.72753 0.0
C1502 C 0.27523 0.43706 0.80056 0.0
C1503 C 0.41821 0.58223 0.75878 0.0
H1504 H 0.98003 0.14776 0.76144 0.0
H1505 H 0.91216 0.99746 0.80648 0.0
H1506 H 0.06465 0.20628 0.8167 0.0
H1507 H 0.98735 0.087 0.82798 0.0
H1508 H 0.58768 0.6955 0.77252 0.0
H1509 H 0.62478 0.80473 0.7196 0.0
H1510 H 0.42523 0.66601 0.73312 0.0
H1511 H 0.50477 0.74871 0.714 0.0
Tb1512 Tb 0.23423 0.43805 0.25177 0.0
C1513 C 0.47946 0.40477 0.29756 0.0
C1514 C 0.58246 0.45918 0.27842 0.0
C1515 C 0.58326 0.39676 0.30602 0.0
C1516 C 0.51145 0.43934 0.28165 0.0
C1517 C 0.51239 0.37662 0.30883 0.0
C1518 C 0.6191 0.43998 0.29102 0.0
C1519 C 0.40387 0.31208 0.32503 0.0
N1520 N 0.41211 0.3893 0.30054 0.0
C1521 C 0.37763 0.3497 0.31569 0.0
C1522 C 0.4706 0.3237 0.32126 0.0
Tb1523 Tb 0.35058 0.38141 0.27411 0.0
N1524 N 0.47096 0.44677 0.26853 0.0
C1525 C 0.502 0.48003 0.2523 0.0
C1526 C 0.61313 0.49296 0.262 0.0
C1527 C 0.57236 0.50296 0.24879 0.0
H1528 H 0.32431 0.33697 0.31853 0.0
H1529 H 0.59328 0.52544 0.23549 0.0
H1530 H 0.67281 0.45237 0.28827 0.0
H1531 H 0.37169 0.27363 0.33496 0.0
H1532 H 0.4722 0.48384 0.24115 0.0
H1533 H 0.97017 0.33489 0.2978 0.0
H1534 H 0.667 0.50788 0.25929 0.0
H1535 H 0.23976 0.40762 0.19962 0.0
H1536 H 0.11448 0.3898 0.29345 0.0
H1537 H 0.22661 0.57963 0.17926 0.0
H1538 H 0.61007 0.37772 0.31489 0.0
H1539 H 0.88326 0.33801 0.26973 0.0
H1540 H 0.93534 0.39214 0.23694 0.0
H1541 H 0.49017 0.29354 0.32855 0.0
H1542 H 1.04096 0.49461 0.21605 0.0
N1543 N 0.12059 0.43618 0.26292 0.0
C1544 C 0.08472 0.39854 0.2828 0.0
C1545 C 0.93715 0.35477 0.26645 0.0
C1546 C 0.96714 0.3943 0.24424 0.0
C1547 C 0.99282 0.35737 0.28461 0.0
C1548 C 0.05365 0.43158 0.23968 0.0
H1549 H 0.12028 0.58724 0.19242 0.0
N1550 N 0.1331 0.37829 0.21457 0.0
C1551 C 0.18878 0.53392 0.1874 0.0
C1552 C 0.06161 0.40685 0.21982 0.0
C1553 C 0.19752 0.42015 0.20023 0.0
C1554 C 0.123 0.54133 0.19619 0.0
C1555 C 0.0629 0.48403 0.21259 0.0
O1556 O 0.29693 0.55131 0.24934 0.0
O1557 O 0.34524 0.47248 0.26205 0.0
O1558 O 0.34967 0.44339 0.29658 0.0
O1559 O 0.23923 0.42365 0.28604 0.0
O1560 O 0.33385 0.49524 0.23611 0.0
O1561 O 0.22836 0.5167 0.27064 0.0
O1562 O 0.2948 0.29001 0.28822 0.0
O1563 O 0.24493 0.36919 0.26934 0.0
O1564 O 0.26998 0.3607 0.23423 0.0
O1565 O 0.37353 0.3731 0.2472 0.0
O1566 O 0.2491 0.28327 0.26839 0.0
O1567 O 0.37404 0.29838 0.26823 0.0
C1568 C 0.38432 0.51255 0.2487 0.0
C1569 C 0.29544 0.65757 0.26271 0.0
C1570 C 0.27801 0.76523 0.25184 0.0
C1571 C 0.25743 0.70069 0.26393 0.0
C1572 C 0.32018 0.76828 0.23692 0.0
C1573 C 0.35735 0.69497 0.25291 0.0
C1574 C 0.3591 0.73481 0.23755 0.0
C1575 C 0.28887 0.43706 0.3006 0.0
C1576 C 0.27993 0.57473 0.26371 0.0
C1577 C 1.00698 0.49876 0.22257 0.0
C1578 C 0.95426 0.44701 0.2355 0.0
C1579 C 0.2046 0.30485 0.26826 0.0
C1580 C 0.30433 0.18982 0.28704 0.0
C1581 C 0.28631 0.13551 0.27438 0.0
C1582 C 0.25227 0.06646 0.28077 0.0
C1583 C 0.23939 0.05236 0.3 0.0
C1584 C 0.28319 0.17374 0.30577 0.0
C1585 C 0.25394 0.10568 0.31237 0.0
C1586 C 0.32319 0.3404 0.23555 0.0
C1587 C 0.32319 0.25869 0.27989 0.0
H1588 H 0.2134 0.68574 0.27306 0.0
H1589 H 0.32711 0.79981 0.22462 0.0
H1590 H 0.39537 0.67856 0.25436 0.0
H1591 H 0.38917 0.73886 0.22542 0.0
H1592 H 0.29327 0.14634 0.25956 0.0
H1593 H 0.21527 1.00034 0.3058 0.0
H1594 H 0.28276 0.21183 0.31504 0.0
H1595 H 0.23824 0.0934 0.32678 0.0
Tb1596 Tb 0.77542 0.88787 0.25069 0.0
C1597 C 0.81631 0.16377 0.29829 0.0
C1598 C 0.76289 0.21556 0.27927 0.0
C1599 C 0.8242 0.27432 0.30725 0.0
C1600 C 0.78219 0.16339 0.28234 0.0
C1601 C 0.84602 0.22429 0.30943 0.0
C1602 C 0.77984 0.26827 0.29254 0.0
C1603 C 0.91022 0.17793 0.32544 0.0
N1604 N 0.83063 0.11082 0.30131 0.0
C1605 C 0.86966 0.11408 0.31657 0.0
C1606 C 0.90053 0.23454 0.32139 0.0
Tb1607 Tb 0.8382 0.05893 0.27477 0.0
N1608 N 0.77557 0.11729 0.26898 0.0
C1609 C 0.74448 0.11813 0.2526 0.0
C1610 C 0.7332 0.2172 0.26232 0.0
C1611 C 0.72406 0.16795 0.24894 0.0
H1612 H 0.88032 0.07192 0.31966 0.0
H1613 H 0.70255 0.16858 0.23559 0.0
H1614 H 0.76547 0.30868 0.29047 0.0
H1615 H 0.94819 0.18252 0.33554 0.0
H1616 H 0.74027 0.08395 0.24172 0.0
H1617 H 0.88255 0.7407 0.30082 0.0
H1618 H 0.71957 0.25749 0.25931 0.0
H1619 H 0.81479 0.92026 0.1974 0.0
H1620 H 0.82493 0.82506 0.29407 0.0
H1621 H 0.647 0.7322 0.17782 0.0
H1622 H 0.8419 0.31803 0.31658 0.0
H1623 H 0.88256 0.64723 0.27468 0.0
H1624 H 0.82296 0.63301 0.24205 0.0
H1625 H 0.93146 0.28373 0.32863 0.0
H1626 H 0.72567 0.63921 0.21893 0.0
N1627 N 0.78285 0.78245 0.26324 0.0
C1628 C 0.81888 0.78736 0.28371 0.0
C1629 C 0.86514 0.68275 0.2704 0.0
C1630 C 0.82711 0.66917 0.24786 0.0
C1631 C 0.86052 0.7379 0.2873 0.0
C1632 C 0.79054 0.71735 0.24152 0.0
H1633 H 0.63964 0.61994 0.1931 0.0
N1634 N 0.84402 0.84626 0.2144 0.0
C1635 C 0.69229 0.74156 0.18637 0.0
C1636 C 0.81591 0.74696 0.22114 0.0
C1637 C 0.80409 0.86629 0.19861 0.0
C1638 C 0.68449 0.67006 0.19651 0.0
C1639 C 0.73888 0.67017 0.21425 0.0
O1640 O 0.66414 0.83906 0.24473 0.0
O1641 O 0.7467 0.96501 0.26338 0.0
O1642 O 0.77464 0.99646 0.29705 0.0
O1643 O 0.78791 0.90364 0.28538 0.0
O1644 O 0.71241 0.9328 0.2379 0.0
O1645 O 0.68719 0.8035 0.26816 0.0
O1646 O 0.92776 0.08812 0.28948 0.0
O1647 O 0.84631 0.96398 0.26883 0.0
O1648 O 0.85145 1.0005 0.23338 0.0
O1649 O 0.84993 0.09492 0.24817 0.0
O1650 O 0.93396 0.05314 0.2678 0.0
O1651 O 0.92243 0.16435 0.27012 0.0
C1652 C 0.70165 0.96596 0.25188 0.0
C1653 C 0.55096 0.72717 0.25536 0.0
C1654 C 0.44697 0.59479 0.24819 0.0
C1655 C 0.50733 0.64831 0.26034 0.0
C1656 C 0.44217 0.62261 0.23099 0.0
C1657 C 0.52044 0.74176 0.24001 0.0
C1658 C 0.47417 0.69286 0.22749 0.0
C1659 C 0.77801 0.93996 0.30055 0.0
C1660 C 0.63286 0.79699 0.25874 0.0
C1661 C 0.71675 0.60304 0.22703 0.0
C1662 C 0.76647 0.60382 0.24136 0.0
C1663 C 0.91052 0.98676 0.26727 0.0
C1664 C 1.02801 0.19806 0.28899 0.0
C1665 C 0.0799 0.23746 0.27612 0.0
C1666 C 0.14899 0.27308 0.28198 0.0
C1667 C 0.16531 0.27374 0.30108 0.0
C1668 C 0.04585 0.19077 0.30742 0.0
C1669 C 0.11405 0.23174 0.3137 0.0
C1670 C 0.87647 0.07442 0.23553 0.0
C1671 C 0.95968 0.1499 0.28196 0.0
H1672 H 0.5196 0.62755 0.27249 0.0
H1673 H 0.41042 0.59036 0.21956 0.0
H1674 H 0.5491 0.78996 0.23307 0.0
H1675 H 0.46642 0.7104 0.21396 0.0
H1676 H 0.06737 0.23505 0.26141 0.0
H1677 H 0.21761 0.30309 0.30646 0.0
H1678 H 1.00885 0.1505 0.31667 0.0
H1679 H 0.12809 0.22786 0.32796 0.0
Tb1680 Tb 0.33383 0.98139 0.25227 0.0
C1681 C 0.05157 0.72694 0.29548 0.0
C1682 C 1.00216 0.62807 0.2748 0.0
C1683 C 0.94116 0.62046 0.30326 0.0
C1684 C 0.05413 0.69813 0.27914 0.0
C1685 C 0.9906 0.69152 0.30653 0.0
C1686 C 0.948 0.58793 0.28744 0.0
C1687 C 1.03115 0.79896 0.32296 0.0
N1688 N 0.10291 0.79416 0.2991 0.0
C1689 C 0.09585 0.82675 0.31427 0.0
C1690 C 0.97777 0.73143 0.31904 0.0
Tb1691 Tb 0.15986 0.86165 0.2738 0.0
N1692 N 0.10342 0.74105 0.26675 0.0
C1693 C 0.10773 0.71214 0.25042 0.0
C1694 C 1.00319 0.60202 0.25746 0.0
C1695 C 0.05693 0.64417 0.24524 0.0
H1696 H 0.13608 0.87987 0.31762 0.0
H1697 H 0.05992 0.62517 0.23176 0.0
H1698 H 0.90767 0.53421 0.28423 0.0
H1699 H 1.02333 0.83004 0.33272 0.0
H1700 H 0.14641 0.74299 0.2405 0.0
H1701 H 0.48801 0.24618 0.29807 0.0
H1702 H 0.96226 0.55005 0.25352 0.0
H1703 H 0.29911 0.97574 0.19927 0.0
H1704 H 0.40116 0.10181 0.29372 0.0
H1705 H 0.48665 0.99224 0.18024 0.0
H1706 H 0.89563 0.59186 0.31213 0.0
H1707 H 0.57832 0.33359 0.2703 0.0
H1708 H 0.58576 0.28124 0.23839 0.0
H1709 H 0.92806 0.71001 0.32626 0.0
H1710 H 0.58289 0.17586 0.21772 0.0
N1711 N 0.44329 0.096 0.26359 0.0
C1712 C 0.44005 0.13178 0.28328 0.0
C1713 C 0.54254 0.27947 0.26709 0.0
C1714 C 0.55402 0.24976 0.24514 0.0
C1715 C 0.48944 0.22363 0.28507 0.0
C1716 C 0.50568 0.16322 0.24054 0.0
H1717 H 0.59953 0.10142 0.19354 0.0
N1718 N 0.37463 0.08212 0.21474 0.0
C1719 C 0.47748 1.0287 0.18855 0.0
C1720 C 0.47395 0.15468 0.2205 0.0
C1721 C 0.35374 1.01808 0.20042 0.0
C1722 C 0.54976 0.09544 0.19752 0.0
C1723 C 0.55088 0.15452 0.21383 0.0
O1724 O 0.38738 0.92092 0.25187 0.0
O1725 O 0.25754 0.87017 0.26254 0.0
O1726 O 0.22383 0.86449 0.2965 0.0
O1727 O 0.31239 0.97631 0.28623 0.0
O1728 O 0.29826 0.8793 0.23758 0.0
O1729 O 0.41889 0.99503 0.27221 0.0
O1730 O 0.12586 0.91753 0.28839 0.0
O1731 O 0.25175 0.96852 0.2689 0.0
O1732 O 0.22259 0.94602 0.23423 0.0
O1733 O 0.13342 0.84081 0.24664 0.0
O1734 O 0.16091 0.9628 0.26834 0.0
O1735 O 0.05532 0.84239 0.2674 0.0
C1736 C 0.26142 0.8298 0.2501 0.0
C1737 C 0.49756 0.93187 0.26737 0.0
C1738 C 0.62124 0.95017 0.25525 0.0
C1739 C 0.57936 0.97275 0.26731 0.0
C1740 C 0.57791 0.90689 0.24134 0.0
C1741 C 0.47358 0.86589 0.26017 0.0
C1742 C 0.50653 0.86344 0.24414 0.0
C1743 C 0.27698 0.92621 0.30065 0.0
C1744 C 0.4279 0.94357 0.26648 0.0
C1745 C 0.62058 0.20858 0.22469 0.0
C1746 C 0.6206 0.26079 0.23759 0.0
C1747 C 0.22671 1.00824 0.26771 0.0
C1748 C 1.01771 0.91157 0.28642 0.0
C1749 C 0.98305 0.93202 0.27371 0.0
C1750 C 0.94319 0.96032 0.28024 0.0
C1751 C 0.93942 0.96914 0.29956 0.0
C1752 C 1.02002 0.92857 0.30537 0.0
C1753 C 0.97919 0.95534 0.31195 0.0
C1754 C 0.15004 0.89211 0.23544 0.0
C1755 C 0.06708 0.89209 0.27948 0.0
H1756 H 0.61 1.01855 0.27579 0.0
H1757 H 0.59886 0.90191 0.22821 0.0
H1758 H 0.41966 0.82679 0.26269 0.0
H1759 H 0.47784 0.83273 0.23249 0.0
H1760 H 0.98971 0.929 0.25885 0.0
H1761 H 0.90942 0.99047 0.30542 0.0
H1762 H 0.05704 0.9265 0.3149 0.0
H1763 H 0.98094 0.9692 0.32642 0.0
Tb1764 Tb 0.78528 0.88692 0.87113 0.0
C1765 C 0.75197 0.1322 0.82534 0.0
C1766 C 0.80641 0.23523 0.84447 0.0
C1767 C 0.74399 0.23603 0.81688 0.0
C1768 C 0.78656 0.1642 0.84124 0.0
C1769 C 0.72384 0.16514 0.81407 0.0
C1770 C 0.78722 0.27188 0.83187 0.0
C1771 C 0.65928 0.0566 0.79788 0.0
N1772 N 0.73649 0.06483 0.82236 0.0
C1773 C 0.69689 0.03034 0.80721 0.0
C1774 C 0.67092 0.12335 0.80164 0.0
Tb1775 Tb 0.72862 1.00329 0.84879 0.0
N1776 N 0.79399 0.12369 0.85437 0.0
C1777 C 0.82725 0.15474 0.87059 0.0
C1778 C 0.84019 0.2659 0.8609 0.0
C1779 C 0.85017 0.2251 0.8741 0.0
H1780 H 0.68415 0.97701 0.80437 0.0
H1781 H 0.87262 0.24601 0.88741 0.0
H1782 H 0.79963 0.32562 0.83462 0.0
H1783 H 0.62084 1.02442 0.78794 0.0
H1784 H 0.83106 0.12492 0.88173 0.0
H1785 H 0.68205 0.6228 0.8251 0.0
H1786 H 0.85511 0.31978 0.8636 0.0
H1787 H 0.7549 0.89248 0.92327 0.0
H1788 H 0.73701 0.76715 0.82945 0.0
H1789 H 0.92686 0.87927 0.94362 0.0
H1790 H 0.72496 0.26286 0.80801 0.0
H1791 H 0.68516 0.53586 0.85317 0.0
H1792 H 0.73928 0.58794 0.88595 0.0
H1793 H 0.64078 0.14294 0.79435 0.0
H1794 H 0.84178 0.69357 0.90684 0.0
N1795 N 0.78337 0.77324 0.85997 0.0
C1796 C 0.74572 0.73737 0.8401 0.0
C1797 C 0.70192 0.58976 0.85644 0.0
C1798 C 0.74146 0.61975 0.87865 0.0
C1799 C 0.70453 0.64545 0.83828 0.0
C1800 C 0.77876 0.70628 0.88322 0.0
H1801 H 0.93443 0.77291 0.93045 0.0
N1802 N 0.72553 0.78579 0.90833 0.0
C1803 C 0.88115 0.84144 0.93549 0.0
C1804 C 0.75405 0.71425 0.90308 0.0
C1805 C 0.7674 0.85023 0.92267 0.0
C1806 C 0.88853 0.77563 0.92669 0.0
C1807 C 0.8312 0.71553 0.9103 0.0
O1808 O 0.89852 0.94962 0.87355 0.0
O1809 O 0.81968 0.99795 0.86085 0.0
O1810 O 0.79057 1.00237 0.82631 0.0
O1811 O 0.77087 0.89191 0.83685 0.0
O1812 O 0.84246 0.98655 0.88679 0.0
O1813 O 0.86391 0.88102 0.85225 0.0
O1814 O 0.63722 0.9475 0.83469 0.0
O1815 O 0.71643 0.89762 0.85356 0.0
O1816 O 0.70792 0.92264 0.88867 0.0
O1817 O 0.72032 1.02626 0.8757 0.0
O1818 O 0.63052 0.90179 0.85452 0.0
O1819 O 0.64559 1.02672 0.85468 0.0
C1820 C 0.85976 0.03703 0.8742 0.0
C1821 C 1.00477 0.9481 0.86018 0.0
C1822 C 0.11245 0.9307 0.87105 0.0
C1823 C 0.04788 0.91008 0.85897 0.0
C1824 C 0.11548 0.97287 0.88597 0.0
C1825 C 1.04216 1.01002 0.86997 0.0
C1826 C 0.082 1.01178 0.88533 0.0
C1827 C 0.78427 0.94156 0.8223 0.0
C1828 C 0.92193 0.9326 0.85918 0.0
C1829 C 0.84591 0.65957 0.90032 0.0
C1830 C 0.79415 0.60685 0.88739 0.0
C1831 C 0.6521 0.85729 0.85463 0.0
C1832 C 0.53701 0.95698 0.83589 0.0
C1833 C 0.4827 0.93892 0.84854 0.0
C1834 C 0.41367 0.9049 0.84215 0.0
C1835 C 0.39959 0.89207 0.82291 0.0
C1836 C 0.52095 0.93588 0.81715 0.0
C1837 C 0.45291 0.90664 0.81055 0.0
C1838 C 0.68769 0.97591 0.88736 0.0
C1839 C 0.6059 0.97586 0.84303 0.0
H1840 H 1.03293 0.86602 0.84984 0.0
H1841 H 0.14703 0.97983 0.89826 0.0
H1842 H 1.02575 0.04804 0.86853 0.0
H1843 H 0.08605 0.04185 0.89746 0.0
H1844 H 0.49352 0.94584 0.86336 0.0
H1845 H 0.34758 0.86797 0.81711 0.0
H1846 H 0.55904 0.9355 0.80788 0.0
H1847 H 0.44063 0.89099 0.79614 0.0
Tb1848 Tb 0.32861 0.9865 0.87064 0.0
C1849 C 0.07415 0.70423 0.82743 0.0
C1850 C 0.9753 0.65486 0.84811 0.0
C1851 C 0.96766 0.59382 0.81965 0.0
C1852 C 0.04536 0.7068 0.84378 0.0
C1853 C 1.03871 0.64325 0.81638 0.0
C1854 C 0.93515 0.60068 0.83548 0.0
C1855 C 0.14612 0.68377 0.79995 0.0
N1856 N 0.14136 0.75556 0.82381 0.0
C1857 C 0.17393 0.74849 0.80864 0.0
C1858 C 0.07859 0.6304 0.80387 0.0
Tb1859 Tb 0.20886 0.81252 0.8491 0.0
N1860 N 0.08828 0.7561 0.85616 0.0
C1861 C 0.05938 0.76045 0.87249 0.0
C1862 C 0.94926 0.65592 0.86546 0.0
C1863 C 0.99141 0.70968 0.87767 0.0
H1864 H 0.22704 0.78871 0.80528 0.0
H1865 H 0.97239 0.71271 0.89114 0.0
H1866 H 0.88143 0.56036 0.83868 0.0
H1867 H 0.17718 0.67592 0.79019 0.0
H1868 H 0.09024 0.79914 0.88241 0.0
H1869 H 0.59335 0.14061 0.82483 0.0
H1870 H 0.89728 0.61501 0.86939 0.0
H1871 H 0.32298 0.95178 0.92363 0.0
H1872 H 0.449 0.0538 0.82918 0.0
H1873 H 0.33954 0.13939 0.94266 0.0
H1874 H 0.93904 0.54829 0.81079 0.0
H1875 H 0.68077 0.23092 0.8526 0.0
H1876 H 0.62845 0.23841 0.8845 0.0
H1877 H 0.05715 0.58068 0.79665 0.0
H1878 H 0.52311 0.23559 0.90518 0.0
N1879 N 0.44322 0.09595 0.85931 0.0
C1880 C 0.47897 0.09269 0.83963 0.0
C1881 C 0.62665 0.19517 0.8558 0.0
C1882 C 0.59697 0.20667 0.87775 0.0
C1883 C 0.57081 0.14206 0.83783 0.0
C1884 C 0.51045 0.15835 0.88236 0.0
H1885 H 0.44871 0.25226 0.92936 0.0
N1886 N 0.42934 1.02728 0.90816 0.0
C1887 C 0.37598 0.1302 0.93435 0.0
C1888 C 0.50191 0.12661 0.9024 0.0
C1889 C 0.36532 1.00642 0.92248 0.0
C1890 C 0.44273 0.20248 0.92538 0.0
C1891 C 0.50178 0.20357 0.90907 0.0
O1892 O 0.26818 0.04008 0.87103 0.0
O1893 O 0.2174 0.91023 0.86036 0.0
O1894 O 0.21171 0.87652 0.82641 0.0
O1895 O 0.32352 0.96505 0.83667 0.0
O1896 O 0.22651 0.95098 0.88531 0.0
O1897 O 0.34227 0.07158 0.8507 0.0
O1898 O 0.26472 0.77852 0.83451 0.0
O1899 O 0.31573 0.90441 0.854 0.0
O1900 O 0.29322 0.87526 0.88867 0.0
O1901 O 0.188 0.78604 0.87626 0.0
O1902 O 0.30997 0.81354 0.85457 0.0
O1903 O 0.18961 0.70797 0.8555 0.0
C1904 C 0.17703 0.91412 0.8728 0.0
C1905 C 0.27912 0.15027 0.85554 0.0
C1906 C 0.29737 0.27394 0.86766 0.0
C1907 C 0.32 0.23208 0.8556 0.0
C1908 C 0.25413 0.2306 0.88157 0.0
C1909 C 0.21314 0.12627 0.86274 0.0
C1910 C 0.2107 0.1592 0.87877 0.0
C1911 C 0.27343 0.92966 0.82226 0.0
C1912 C 0.29082 0.08061 0.85642 0.0
C1913 C 0.55583 0.27328 0.89821 0.0
C1914 C 0.60802 0.27328 0.88531 0.0
C1915 C 0.35543 0.87934 0.8552 0.0
C1916 C 0.25876 0.67035 0.83648 0.0
C1917 C 0.27924 0.63571 0.84919 0.0
C1918 C 0.30757 0.59587 0.84266 0.0
C1919 C 0.31637 0.5921 0.82334 0.0
C1920 C 0.27574 0.67266 0.81753 0.0
C1921 C 0.30254 0.63184 0.81095 0.0
C1922 C 0.23927 0.80273 0.88747 0.0
C1923 C 0.23929 0.71973 0.84342 0.0
H1924 H 0.36578 0.26273 0.84712 0.0
H1925 H 0.24912 0.25154 0.8947 0.0
H1926 H 0.17405 0.07234 0.86021 0.0
H1927 H 0.17999 0.13049 0.89041 0.0
H1928 H 0.27622 0.64237 0.86405 0.0
H1929 H 0.33771 0.56211 0.81748 0.0
H1930 H 0.27365 0.70967 0.808 0.0
H1931 H 0.31638 0.63359 0.79648 0.0
Tb1932 Tb 0.23508 0.42811 0.87221 0.0
C1933 C 0.5109 0.46896 0.82461 0.0
C1934 C 0.56267 0.41553 0.84364 0.0
C1935 C 0.62143 0.47682 0.81566 0.0
C1936 C 0.51052 0.43483 0.84057 0.0
C1937 C 0.57142 0.49866 0.81348 0.0
C1938 C 0.61537 0.43246 0.83037 0.0
C1939 C 0.5251 0.56287 0.79746 0.0
N1940 N 0.45798 0.48329 0.82159 0.0
C1941 C 0.46125 0.52231 0.80633 0.0
C1942 C 0.58169 0.55317 0.80151 0.0
Tb1943 Tb 0.40612 0.49091 0.84813 0.0
N1944 N 0.46442 0.42823 0.85392 0.0
C1945 C 0.46524 0.39713 0.87031 0.0
C1946 C 0.56431 0.38585 0.86059 0.0
C1947 C 0.51505 0.37671 0.87397 0.0
H1948 H 0.41911 0.53298 0.80323 0.0
H1949 H 0.51566 0.35517 0.88732 0.0
H1950 H 0.65577 0.41808 0.83245 0.0
H1951 H 0.52968 0.60085 0.78736 0.0
H1952 H 0.43105 0.39293 0.88118 0.0
H1953 H 0.08791 0.53524 0.8221 0.0
H1954 H 0.60458 0.37222 0.86361 0.0
H1955 H 0.26747 0.46745 0.9255 0.0
H1956 H 0.17227 0.47762 0.82884 0.0
H1957 H 0.07946 0.29962 0.94509 0.0
H1958 H 0.66514 0.49452 0.80633 0.0
H1959 H 0.99448 0.53526 0.84825 0.0
H1960 H 0.98026 0.47564 0.88087 0.0
H1961 H 0.63087 0.5841 0.79427 0.0
H1962 H 0.98647 0.37832 0.90399 0.0
N1963 N 0.12966 0.43551 0.85968 0.0
C1964 C 0.13456 0.47156 0.8392 0.0
C1965 C 1.02998 0.51783 0.85252 0.0
C1966 C 1.01641 0.47978 0.87506 0.0
C1967 C 0.08512 0.5132 0.83561 0.0
C1968 C 0.06458 0.4432 0.88139 0.0
H1969 H 0.96721 0.29228 0.92982 0.0
N1970 N 0.19348 0.4967 0.90851 0.0
C1971 C 0.08881 0.34492 0.93654 0.0
C1972 C 0.0942 0.46858 0.90177 0.0
C1973 C 0.21352 0.45675 0.9243 0.0
C1974 C 1.01732 0.33713 0.9264 0.0
C1975 C 1.01743 0.39153 0.90867 0.0
O1976 O 0.18623 0.31679 0.87817 0.0
O1977 O 0.3122 0.39939 0.85952 0.0
O1978 O 0.34366 0.42733 0.82585 0.0
O1979 O 0.25085 0.44058 0.83753 0.0
O1980 O 0.28 0.36512 0.88503 0.0
O1981 O 0.15072 0.33989 0.85475 0.0
O1982 O 0.43533 0.58047 0.8334 0.0
O1983 O 0.31115 0.49897 0.85406 0.0
O1984 O 0.34772 0.50414 0.88953 0.0
O1985 O 0.44218 0.5027 0.87472 0.0
O1986 O 0.40041 0.58675 0.85511 0.0
O1987 O 0.51153 0.57513 0.85278 0.0
C1988 C 0.31306 0.35433 0.87103 0.0
C1989 C 0.07437 0.20362 0.86753 0.0
C1990 C 0.942 0.09966 0.8747 0.0
C1991 C 0.99551 0.16002 0.86255 0.0
C1992 C 0.96981 0.09484 0.89191 0.0
C1993 C 0.08895 0.17306 0.88288 0.0
C1994 C 1.04006 0.12681 0.8954 0.0
C1995 C 0.28717 0.43068 0.82236 0.0
C1996 C 0.14419 0.28554 0.86416 0.0
C1997 C 0.9503 0.3694 0.89589 0.0
C1998 C 0.95108 0.41914 0.88157 0.0
C1999 C 0.33403 0.56319 0.85563 0.0
C2000 C 0.54527 0.68071 0.83389 0.0
C2001 C 0.5847 0.73258 0.84677 0.0
C2002 C 0.62033 0.80169 0.84091 0.0
C2003 C 0.62099 0.81804 0.82181 0.0
C2004 C 0.53798 0.69858 0.81547 0.0
C2005 C 0.57897 0.76679 0.80919 0.0
C2006 C 0.42162 0.52913 0.88737 0.0
C2007 C 0.4971 0.61238 0.84093 0.0
H2008 H 0.97476 0.17231 0.85041 0.0
H2009 H 0.93757 0.0631 0.90334 0.0
H2010 H 0.13715 0.20171 0.88981 0.0
H2011 H 0.05759 0.11906 0.90893 0.0
H2012 H 0.58228 0.72004 0.86148 0.0
H2013 H 0.65034 0.87035 0.81643 0.0
H2014 H 0.49771 0.66158 0.80621 0.0
H2015 H 0.5751 0.78085 0.79493 0.0
Tb2016 Tb 0.87849 0.81983 0.68212 0.0
C2017 C 0.16747 0.79434 0.73643 0.0
C2018 C 0.26196 0.80688 0.712 0.0
C2019 C 0.2221 0.70243 0.73367 0.0
C2020 C 0.17543 0.76957 0.71655 0.0
C2021 C 0.1662 0.71718 0.74365 0.0
C2022 C 0.2747 0.75406 0.72069 0.0
C2023 C 1.04033 0.66724 0.76883 0.0
N2024 N 0.09589 0.82285 0.74165 0.0
C2025 C 1.03155 0.78099 0.75602 0.0
C2026 C 0.10612 0.65986 0.76004 0.0
Tb2027 Tb 0.99487 0.76321 0.70446 0.0
N2028 N 0.10849 0.76502 0.6933 0.0
C2029 C 0.14443 0.80265 0.67343 0.0
C2030 C 0.29196 0.84632 0.6898 0.0
C2031 C 0.23636 0.84378 0.67163 0.0
H2032 H 0.98922 0.79339 0.7566 0.0
H2033 H 0.25906 0.86632 0.65845 0.0
H2034 H 0.29358 0.80906 0.71946 0.0
H2035 H 1.00249 0.62148 0.77695 0.0
H2036 H 0.11472 0.81145 0.66277 0.0
H2037 H 0.63583 0.67594 0.72075 0.0
H2038 H 0.3459 0.86319 0.68655 0.0
H2039 H 0.90478 0.86423 0.6377 0.0
H2040 H 0.75688 0.71744 0.71507 0.0
H2041 H 0.85742 0.92761 0.62126 0.0
H2042 H 0.18817 0.70661 0.7402 0.0
H2043 H 0.56213 0.69355 0.69695 0.0
H2044 H 0.55629 0.74895 0.66796 0.0
H2045 H 0.10885 0.61396 0.76381 0.0
H2046 H 0.61904 0.82356 0.64133 0.0
N2047 N 0.75811 0.75451 0.6877 0.0
C2048 C 0.72707 0.72124 0.70393 0.0
C2049 C 0.61597 0.70839 0.69424 0.0
C2050 C 0.64662 0.7421 0.6778 0.0
C2051 C 0.65673 0.69837 0.70744 0.0
C2052 C 0.71762 0.7619 0.67457 0.0
H2053 H 0.73896 0.90772 0.62767 0.0
N2054 N 0.81695 0.8119 0.65568 0.0
C2055 C 0.82524 0.88916 0.6312 0.0
C2056 C 0.74961 0.79645 0.65866 0.0
C2057 C 0.85147 0.85153 0.64053 0.0
C2058 C 0.75851 0.87755 0.63497 0.0
C2059 C 0.71671 0.82462 0.64739 0.0
O2060 O 0.93423 0.91123 0.66801 0.0
O2061 O 0.98419 0.83208 0.68688 0.0
O2062 O 0.95915 0.84058 0.722 0.0
O2063 O 0.85555 0.82818 0.70903 0.0
O2064 O 0.97993 0.91799 0.68783 0.0
O2065 O 0.85502 0.90287 0.688 0.0
O2066 O 0.93213 0.64995 0.70686 0.0
O2067 O 0.88392 0.72884 0.69419 0.0
O2068 O 0.87943 0.75786 0.65965 0.0
O2069 O 0.9899 0.77765 0.67018 0.0
O2070 O 0.89519 0.70601 0.72011 0.0
O2071 O 1.00078 0.68458 0.68559 0.0
C2072 C 1.02445 0.89644 0.68795 0.0
C2073 C 0.92472 1.01143 0.66919 0.0
C2074 C 0.97689 0.13479 0.67546 0.0
C2075 C 0.94275 0.06575 0.68184 0.0
C2076 C 0.98979 0.1489 0.65623 0.0
C2077 C 0.94589 1.0275 0.65046 0.0
C2078 C 0.9752 0.09557 0.64386 0.0
C2079 C 0.90588 0.8608 0.72069 0.0
C2080 C 0.90584 0.94255 0.67634 0.0
C2081 C 0.64584 0.80451 0.6502 0.0
C2082 C 0.61 0.76131 0.6652 0.0
C2083 C 0.84472 0.68873 0.70752 0.0
C2084 C 0.93367 0.54369 0.69351 0.0
C2085 C 0.97168 0.50056 0.69229 0.0
C2086 C 0.95109 0.43601 0.70438 0.0
C2087 C 0.90891 0.43296 0.7193 0.0
C2088 C 0.87177 0.5063 0.70331 0.0
C2089 C 0.87 0.46645 0.71866 0.0
C2090 C 0.94024 0.76422 0.65563 0.0
C2091 C 0.94918 0.62654 0.6925 0.0
H2092 H 0.93575 0.05491 0.69666 0.0
H2093 H 1.01393 0.20093 0.65043 0.0
H2094 H 0.9463 0.98941 0.64119 0.0
H2095 H 0.9909 0.10784 0.62945 0.0
H2096 H 1.01571 0.51549 0.68316 0.0
H2097 H 0.90195 0.40141 0.73159 0.0
H2098 H 0.83374 0.5227 0.70186 0.0
H2099 H 0.83993 0.4624 0.7308 0.0
Tb2100 Tb 0.39087 0.14228 0.68145 0.0
C2101 C 0.41325 0.45431 0.73511 0.0
C2102 C 0.40215 0.53221 0.70839 0.0
C2103 C 0.51246 0.59823 0.72924 0.0
C2104 C 0.43869 0.48398 0.71472 0.0
C2105 C 0.49027 0.53108 0.74202 0.0
C2106 C 0.46287 0.59748 0.71487 0.0
C2107 C 0.53684 0.45965 0.76988 0.0
N2108 N 0.38515 0.35496 0.74183 0.0
C2109 C 0.42505 0.33496 0.75763 0.0
C2110 C 0.54465 0.53116 0.75975 0.0
Tb2111 Tb 0.45364 0.31335 0.70553 0.0
N2112 N 0.44633 0.41885 0.693 0.0
C2113 C 0.41032 0.41405 0.67252 0.0
C2114 C 0.36421 0.51875 0.68586 0.0
C2115 C 0.36876 0.46361 0.66894 0.0
H2116 H 0.41445 0.28101 0.75882 0.0
H2117 H 0.3467 0.46084 0.65543 0.0
H2118 H 0.4063 0.56827 0.71435 0.0
H2119 H 0.58216 0.46901 0.77842 0.0
H2120 H 0.40419 0.37631 0.66216 0.0
H2121 H 0.52646 0.03261 0.72065 0.0
H2122 H 0.34667 0.5542 0.68162 0.0
H2123 H 0.34881 0.12936 0.63657 0.0
H2124 H 0.48873 0.11723 0.71451 0.0
H2125 H 0.28091 1.01875 0.62068 0.0
H2126 H 0.50348 0.56206 0.73735 0.0
H2127 H 0.50943 0.94369 0.69693 0.0
H2128 H 0.46357 0.89253 0.66577 0.0
H2129 H 0.5895 0.58128 0.76316 0.0
H2130 H 0.38718 0.88321 0.63965 0.0
N2131 N 0.45347 0.0839 0.68725 0.0
C2132 C 0.48456 0.08308 0.70363 0.0
C2133 C 0.49583 0.98399 0.69391 0.0
C2134 C 0.46617 0.98566 0.67696 0.0
C2135 C 0.50497 0.03324 0.70729 0.0
C2136 C 0.4469 0.03784 0.67389 0.0
H2137 H 0.29763 0.91754 0.62759 0.0
N2138 N 0.3985 0.09044 0.65491 0.0
C2139 C 0.31889 1.02333 0.63078 0.0
C2140 C 0.4128 0.03748 0.65793 0.0
C2141 C 0.35943 0.08718 0.63966 0.0
C2142 C 0.32857 0.96672 0.63483 0.0
C2143 C 0.38307 0.97696 0.6468 0.0
O2144 O 0.30131 0.11308 0.66674 0.0
O2145 O 0.38275 0.23727 0.68738 0.0
O2146 O 0.37761 0.20073 0.72285 0.0
O2147 O 0.37907 0.10624 0.70805 0.0
O2148 O 0.2951 0.14805 0.68842 0.0
O2149 O 0.30665 0.03685 0.68611 0.0
O2150 O 0.56494 0.36214 0.71145 0.0
O2151 O 0.48232 0.2362 0.69287 0.0
O2152 O 0.45444 0.20479 0.65918 0.0
O2153 O 0.44111 0.29757 0.67085 0.0
O2154 O 0.51665 0.26841 0.71833 0.0
O2155 O 0.54182 0.39776 0.68806 0.0
C2156 C 0.31853 0.21442 0.68895 0.0
C2157 C 0.20107 1.00314 0.66723 0.0
C2158 C 0.08006 0.92822 0.67424 0.0
C2159 C 0.14917 0.96375 0.6801 0.0
C2160 C 0.06375 0.92758 0.65514 0.0
C2161 C 0.18324 1.01047 0.6488 0.0
C2162 C 0.11503 0.96955 0.64252 0.0
C2163 C 0.35263 0.12682 0.7207 0.0
C2164 C 0.26939 0.05129 0.67427 0.0
C2165 C 0.40488 0.92691 0.64898 0.0
C2166 C 0.44921 0.93295 0.66369 0.0
C2167 C 0.5274 0.2352 0.70436 0.0
C2168 C 0.67809 0.47408 0.70084 0.0
C2169 C 0.72173 0.55296 0.69587 0.0
C2170 C 0.7821 0.60645 0.70802 0.0
C2171 C 0.78692 0.5786 0.72522 0.0
C2172 C 0.70859 0.45947 0.71619 0.0
C2173 C 0.75489 0.50834 0.72871 0.0
C2174 C 0.45104 0.26127 0.65568 0.0
C2175 C 0.59618 0.40425 0.69745 0.0
H2176 H 0.16169 0.96611 0.69481 0.0
H2177 H 1.01146 0.89825 0.64976 0.0
H2178 H 0.22026 0.05074 0.63955 0.0
H2179 H 0.10101 0.97345 0.62826 0.0
H2180 H 0.70948 0.57375 0.68372 0.0
H2181 H 0.81868 0.61082 0.73665 0.0
H2182 H 0.67991 0.41127 0.72313 0.0
H2183 H 0.76263 0.49079 0.74224 0.0
Tb2184 Tb 0.06925 0.3396 0.68243 0.0
C2185 C 0.7551 0.04655 0.73575 0.0
C2186 C 0.67499 0.95145 0.7111 0.0
C2187 C 0.60846 0.99265 0.73156 0.0
C2188 C 0.72333 0.03802 0.7157 0.0
C2189 C 0.67816 0.04668 0.74242 0.0
C2190 C 0.60844 0.94055 0.71861 0.0
C2191 C 0.75152 0.1725 0.76769 0.0
N2192 N 0.85446 0.11919 0.74149 0.0
C2193 C 0.87527 0.18316 0.75583 0.0
C2194 C 0.67926 0.10575 0.75872 0.0
Tb2195 Tb 0.89527 0.21983 0.70396 0.0
N2196 N 0.78576 0.10523 0.69264 0.0
C2197 C 0.78892 0.06939 0.67295 0.0
C2198 C 0.68636 0.92174 0.68916 0.0
C2199 C 0.73947 0.97752 0.67118 0.0
H2200 H 0.92987 0.22559 0.75695 0.0
H2201 H 0.74089 0.95491 0.65818 0.0
H2202 H 0.64342 0.92013 0.71801 0.0
H2203 H 0.74232 0.20898 0.77598 0.0
H2204 H 0.82783 0.09931 0.6625 0.0
H2205 H 0.16923 0.57605 0.72447 0.0
H2206 H 0.65066 0.86757 0.68599 0.0
H2207 H 0.09294 0.32132 0.63862 0.0
H2208 H 0.08272 0.45825 0.71574 0.0
H2209 H 0.2057 0.37114 0.62351 0.0
H2210 H 0.64614 1.02532 0.73853 0.0
H2211 H 0.26693 0.65113 0.70271 0.0
H2212 H 0.32145 0.66699 0.67199 0.0
H2213 H 0.62949 0.09978 0.7627 0.0
H2214 H 0.33348 0.60931 0.6441 0.0
N2215 N 0.12569 0.46019 0.68948 0.0
C2216 C 0.12138 0.48911 0.70581 0.0
C2217 C 0.22594 0.59919 0.69877 0.0
C2218 C 0.22694 0.57316 0.68142 0.0
C2219 C 0.1722 0.55706 0.71099 0.0
C2220 C 0.17496 0.5031 0.67709 0.0
H2221 H 0.30099 0.49115 0.62996 0.0
N2222 N 0.12614 0.40708 0.65712 0.0
C2223 C 0.19788 0.40222 0.63327 0.0
C2224 C 0.17749 0.47428 0.66075 0.0
C2225 C 0.13319 0.37444 0.64196 0.0
C2226 C 0.25128 0.46975 0.63719 0.0
C2227 C 0.23847 0.50968 0.6497 0.0
O2228 O 0.10329 0.28375 0.66786 0.0
O2229 O 0.97733 0.23268 0.68732 0.0
O2230 O 1.00651 0.25517 0.722 0.0
O2231 O 0.09572 0.36043 0.70959 0.0
O2232 O 0.06824 0.23848 0.68789 0.0
O2233 O 0.17382 0.35892 0.68884 0.0
O2234 O 0.84174 0.28033 0.70435 0.0
O2235 O 0.97156 0.33101 0.69371 0.0
O2236 O 1.00525 0.33673 0.65974 0.0
O2237 O 0.91671 0.2249 0.67 0.0
O2238 O 0.93088 0.32197 0.71865 0.0
O2239 O 0.8102 0.20618 0.68403 0.0
C2240 C 1.00244 0.19302 0.68852 0.0
C2241 C 0.21146 0.28976 0.66981 0.0
C2242 C 0.28587 0.24089 0.67599 0.0
C2243 C 0.24613 0.26931 0.68252 0.0
C2244 C 0.28961 0.23204 0.65667 0.0
C2245 C 0.20908 0.27271 0.65087 0.0
C2246 C 0.24986 0.24588 0.64428 0.0
C2247 C 0.07903 0.30913 0.7208 0.0
C2248 C 0.16208 0.30922 0.67676 0.0
C2249 C 0.28794 0.58072 0.65297 0.0
C2250 C 0.28111 0.61328 0.66879 0.0
C2251 C 0.96774 0.37147 0.70613 0.0
C2252 C 0.73153 0.26935 0.68887 0.0
C2253 C 0.64973 0.22848 0.68892 0.0
C2254 C 0.60783 0.25106 0.70098 0.0
C2255 C 0.65115 0.29434 0.71489 0.0
C2256 C 0.75551 0.33533 0.69608 0.0
C2257 C 0.72254 0.33778 0.7121 0.0
C2258 C 0.95211 0.275 0.65559 0.0
C2259 C 0.8012 0.25766 0.68975 0.0
H2260 H 0.23952 0.27239 0.69738 0.0
H2261 H 0.31957 0.21068 0.65081 0.0
H2262 H 0.17203 0.27474 0.64134 0.0
H2263 H 0.24806 0.23199 0.62981 0.0
H2264 H 0.61908 0.1827 0.68044 0.0
H2265 H 0.63019 0.29933 0.72802 0.0
H2266 H 0.80943 0.37443 0.69355 0.0
H2267 H 0.75123 0.36851 0.72374 0.0
Tb2268 Tb 0.50048 0.19787 0.10746 0.0
C2269 C 0.475 0.48689 0.05315 0.0
C2270 C 0.48757 0.58142 0.07757 0.0
C2271 C 0.38313 0.54156 0.05591 0.0
C2272 C 0.45025 0.49486 0.07302 0.0
C2273 C 0.39786 0.48564 0.04592 0.0
C2274 C 0.43477 0.59417 0.06888 0.0
C2275 C 0.34789 0.35973 0.02074 0.0
N2276 N 0.50347 0.41527 0.04792 0.0
C2277 C 0.4616 0.35091 0.03356 0.0
C2278 C 0.34053 0.42554 0.02954 0.0
Tb2279 Tb 0.44384 0.31426 0.08511 0.0
N2280 N 0.44568 0.42791 0.09627 0.0
C2281 C 0.48331 0.46385 0.11615 0.0
C2282 C 0.52701 0.61142 0.09976 0.0
C2283 C 0.52446 0.5558 0.11794 0.0
H2284 H 0.47399 0.30856 0.03297 0.0
H2285 H 0.547 0.57851 0.13112 0.0
H2286 H 0.48976 0.61303 0.0701 0.0
H2287 H 0.30213 0.32189 0.01263 0.0
H2288 H 0.49209 0.43413 0.1268 0.0
H2289 H 0.35664 0.95518 0.06883 0.0
H2290 H 0.54389 0.66537 0.10302 0.0
H2291 H 0.5449 0.2242 0.15187 0.0
H2292 H 0.39808 0.07622 0.07452 0.0
H2293 H 0.60826 0.17684 0.16831 0.0
H2294 H 0.38731 0.50761 0.04938 0.0
H2295 H 0.3742 0.88143 0.09265 0.0
H2296 H 0.42957 0.8756 0.12164 0.0
H2297 H 0.29463 0.42826 0.02577 0.0
H2298 H 0.5042 0.93838 0.14825 0.0
N2299 N 0.43515 0.07746 0.10188 0.0
C2300 C 0.40189 0.04641 0.08566 0.0
C2301 C 0.38902 0.93528 0.09536 0.0
C2302 C 0.42273 0.96595 0.11179 0.0
C2303 C 0.37903 0.97606 0.08215 0.0
C2304 C 0.44255 0.03697 0.11502 0.0
H2305 H 0.58837 0.05834 0.16191 0.0
N2306 N 0.49256 0.13634 0.1339 0.0
C2307 C 0.56982 0.14465 0.15838 0.0
C2308 C 0.47711 0.06898 0.13092 0.0
C2309 C 0.5322 0.17088 0.14904 0.0
C2310 C 0.55821 0.0779 0.15461 0.0
C2311 C 0.50528 0.03607 0.14219 0.0
O2312 O 0.59189 0.25363 0.12155 0.0
O2313 O 0.5127 0.30358 0.10269 0.0
O2314 O 0.52121 0.27855 0.06757 0.0
O2315 O 0.50879 0.17491 0.08054 0.0
O2316 O 0.5986 0.29933 0.10174 0.0
O2317 O 0.5835 0.1744 0.10156 0.0
O2318 O 0.3306 0.25151 0.08271 0.0
O2319 O 0.40948 0.20328 0.09538 0.0
O2320 O 0.43854 0.19883 0.12993 0.0
O2321 O 0.45828 0.3093 0.11939 0.0
O2322 O 0.38667 0.21457 0.06946 0.0
O2323 O 0.36522 0.32018 0.10399 0.0
C2324 C 0.57705 0.34385 0.10162 0.0
C2325 C 0.69209 0.24415 0.12036 0.0
C2326 C 0.81545 0.29634 0.1141 0.0
C2327 C 0.74641 0.26222 0.10771 0.0
C2328 C 0.82953 0.30921 0.13333 0.0
C2329 C 0.70816 0.26529 0.13909 0.0
C2330 C 0.7762 0.29459 0.1457 0.0
C2331 C 0.54143 0.22527 0.06889 0.0
C2332 C 0.6232 0.22526 0.11322 0.0
C2333 C 0.48516 0.96519 0.13939 0.0
C2334 C 0.44195 0.92932 0.12439 0.0
C2335 C 0.36938 0.16409 0.08205 0.0
C2336 C 0.22435 0.25308 0.09607 0.0
C2337 C 0.18122 0.29109 0.09728 0.0
C2338 C 0.11665 0.27046 0.0852 0.0
C2339 C 0.1136 0.22828 0.07028 0.0
C2340 C 0.18696 0.19116 0.08627 0.0
C2341 C 0.14712 0.18939 0.07092 0.0
C2342 C 0.44487 0.25965 0.13394 0.0
C2343 C 0.30719 0.26857 0.09708 0.0
H2344 H 0.73559 0.25524 0.09289 0.0
H2345 H 0.88155 0.33334 0.13913 0.0
H2346 H 0.67006 0.26568 0.14836 0.0
H2347 H 0.78847 0.31027 0.1601 0.0
H2348 H 0.19616 0.33514 0.10641 0.0
H2349 H 0.08204 0.22129 0.05799 0.0
H2350 H 0.20337 0.15314 0.08772 0.0
H2351 H 0.14306 0.15932 0.05878 0.0
Tb2352 Tb 1.02025 0.38866 0.10713 0.0
C2353 C 0.72718 0.07449 0.05383 0.0
C2354 C 0.6321 0.99441 0.07849 0.0
C2355 C 0.67324 0.92782 0.05803 0.0
C2356 C 0.71865 0.04273 0.07389 0.0
C2357 C 0.72728 0.99751 0.04716 0.0
C2358 C 0.62117 0.92783 0.07098 0.0
C2359 C 0.85307 0.07082 0.02189 0.0
N2360 N 0.79984 0.17385 0.04808 0.0
C2361 C 0.86378 0.19462 0.03375 0.0
C2362 C 0.78631 0.99857 0.03086 0.0
Tb2363 Tb 0.90047 0.21466 0.08561 0.0
N2364 N 0.78587 0.10517 0.09694 0.0
C2365 C 0.75006 0.10837 0.11663 0.0
C2366 C 0.60241 1.00582 0.10042 0.0
C2367 C 0.6582 0.05894 0.11841 0.0
H2368 H 0.90621 0.24923 0.03262 0.0
H2369 H 0.63561 0.06039 0.1314 0.0
H2370 H 0.60078 0.96283 0.07158 0.0
H2371 H 0.88952 0.0616 0.0136 0.0
H2372 H 0.77999 0.14728 0.12707 0.0
H2373 H 0.25669 0.48853 0.06509 0.0
H2374 H 0.54825 0.97015 0.1036 0.0
H2375 H 1.00201 0.4124 0.15094 0.0
H2376 H 0.13889 0.40205 0.07383 0.0
H2377 H 0.05184 0.52521 0.16605 0.0
H2378 H 0.70591 0.96549 0.05106 0.0
H2379 H 0.33176 0.58627 0.08685 0.0
H2380 H 0.34762 0.64086 0.11756 0.0
H2381 H 0.78033 0.94878 0.02689 0.0
H2382 H 0.28998 0.65293 0.14545 0.0
N2383 N 0.14082 0.4451 0.10007 0.0
C2384 C 0.16974 0.44074 0.08375 0.0
C2385 C 0.27982 0.54531 0.09078 0.0
C2386 C 0.25378 0.54635 0.10813 0.0
C2387 C 0.23769 0.49154 0.07857 0.0
C2388 C 0.18373 0.49438 0.11246 0.0
H2389 H 0.17185 0.62047 0.15959 0.0
N2390 N 0.08774 0.44558 0.13244 0.0
C2391 C 0.08291 0.51736 0.15629 0.0
C2392 C 0.15493 0.49693 0.12881 0.0
C2393 C 0.05512 0.45265 0.1476 0.0
C2394 C 0.15043 0.57075 0.15236 0.0
C2395 C 0.19034 0.55792 0.13986 0.0
O2396 O 0.96442 0.42271 0.12171 0.0
O2397 O 0.91333 0.29674 0.10225 0.0
O2398 O 0.93583 0.32589 0.06757 0.0
O2399 O 1.04108 0.41508 0.07997 0.0
O2400 O 0.91917 0.38768 0.10167 0.0
O2401 O 1.03957 0.49325 0.10073 0.0
O2402 O 0.96093 0.1611 0.08522 0.0
O2403 O 1.01164 0.29093 0.09586 0.0
O2404 O 1.01738 0.32465 0.12983 0.0
O2405 O 0.90555 0.23613 0.11957 0.0
O2406 O 1.00261 0.25023 0.07093 0.0
O2407 O 0.88682 0.12958 0.10555 0.0
C2408 C 0.87369 0.32188 0.10104 0.0
C2409 C 0.97043 0.53089 0.11975 0.0
C2410 C 0.92151 0.60528 0.11358 0.0
C2411 C 0.94996 0.56556 0.10704 0.0
C2412 C 0.91268 0.60901 0.1329 0.0
C2413 C 0.95338 0.5285 0.1387 0.0
C2414 C 0.92654 0.56926 0.14529 0.0
C2415 C 0.98979 0.39842 0.06877 0.0
C2416 C 0.98988 0.4815 0.1128 0.0
C2417 C 0.26138 0.60738 0.13659 0.0
C2418 C 0.29391 0.60053 0.12076 0.0
C2419 C 0.0521 0.2871 0.08345 0.0
C2420 C 0.94998 0.0509 0.10071 0.0
C2421 C 0.90911 0.96909 0.10065 0.0
C2422 C 0.93172 0.92721 0.0886 0.0
C2423 C 0.97498 0.97055 0.07468 0.0
C2424 C 1.01595 0.0749 0.0935 0.0
C2425 C 1.0184 0.04195 0.07747 0.0
C2426 C 0.95564 0.27153 0.13398 0.0
C2427 C 0.93828 0.12056 0.09983 0.0
H2428 H 0.95305 0.55897 0.09219 0.0
H2429 H 0.89131 0.63896 0.13877 0.0
H2430 H 0.95543 0.49144 0.14822 0.0
H2431 H 0.91266 0.56745 0.15976 0.0
H2432 H 0.86333 0.93843 0.10913 0.0
H2433 H 0.97999 0.9496 0.06155 0.0
H2434 H 0.05505 0.12883 0.09603 0.0
H2435 H 0.04912 0.07065 0.06583 0.0
Tb2436 Tb 0.82296 0.71025 0.10812 0.0
C2437 C 0.13496 0.73265 0.05445 0.0
C2438 C 0.21287 0.7216 0.08117 0.0
C2439 C 0.27884 0.8319 0.06031 0.0
C2440 C 0.16463 0.75813 0.07484 0.0
C2441 C 0.2117 0.80969 0.04754 0.0
C2442 C 0.2781 0.78234 0.07469 0.0
C2443 C 0.14026 0.85622 0.01968 0.0
N2444 N 1.03562 0.70452 0.04774 0.0
C2445 C 1.0156 0.74441 0.03193 0.0
C2446 C 0.21177 0.86405 0.02981 0.0
Tb2447 Tb 0.99401 0.77303 0.08403 0.0
N2448 N 0.09951 0.76577 0.09656 0.0
C2449 C 0.09472 0.72978 0.11704 0.0
C2450 C 0.19943 0.68367 0.10371 0.0
C2451 C 0.14429 0.68823 0.12062 0.0
H2452 H 0.96167 0.73381 0.03075 0.0
H2453 H 0.14154 0.66618 0.13414 0.0
H2454 H 0.24892 0.72576 0.07522 0.0
H2455 H 0.14961 0.90155 0.01114 0.0
H2456 H 0.05698 0.72363 0.12741 0.0
H2457 H 0.7134 0.84592 0.06891 0.0
H2458 H 0.2349 0.66616 0.10795 0.0
H2459 H 0.81004 0.66823 0.153 0.0
H2460 H 0.798 0.80817 0.07505 0.0
H2461 H 0.69946 0.60036 0.1689 0.0
H2462 H 0.24267 0.8229 0.05221 0.0
H2463 H 0.62445 0.82884 0.09262 0.0
H2464 H 0.5733 0.78303 0.12379 0.0
H2465 H 0.26187 0.90892 0.02639 0.0
H2466 H 0.56397 0.70664 0.14991 0.0
N2467 N 0.76463 0.77289 0.10232 0.0
C2468 C 0.76384 0.804 0.08593 0.0
C2469 C 0.66475 0.81525 0.09564 0.0
C2470 C 0.6664 0.7856 0.1126 0.0
C2471 C 0.71401 0.82441 0.08226 0.0
C2472 C 0.71857 0.76632 0.11567 0.0
H2473 H 0.59826 0.61707 0.16198 0.0
N2474 N 0.77114 0.71792 0.13466 0.0
C2475 C 0.70404 0.63832 0.15879 0.0
C2476 C 0.7182 0.73222 0.13163 0.0
C2477 C 0.76788 0.67886 0.14992 0.0
C2478 C 0.64744 0.648 0.15474 0.0
C2479 C 0.65769 0.70251 0.14277 0.0
O2480 O 0.79373 0.62068 0.12284 0.0
O2481 O 0.91797 0.70217 0.10219 0.0
O2482 O 0.88138 0.69699 0.06671 0.0
O2483 O 0.78691 0.69843 0.08152 0.0
O2484 O 0.82865 0.61439 0.10115 0.0
O2485 O 0.71754 0.62603 0.10346 0.0
O2486 O 1.04283 0.88436 0.07811 0.0
O2487 O 0.91688 0.8017 0.09671 0.0
O2488 O 0.88544 0.77383 0.13039 0.0
O2489 O 0.97822 0.76053 0.11872 0.0
O2490 O 0.94906 0.83602 0.07122 0.0
O2491 O 0.0784 0.86122 0.1015 0.0
C2492 C 0.89502 0.63794 0.10063 0.0
C2493 C 0.68378 0.52046 0.12235 0.0
C2494 C 0.60882 0.39946 0.11534 0.0
C2495 C 0.64437 0.46857 0.10948 0.0
C2496 C 0.60818 0.38312 0.13444 0.0
C2497 C 0.6911 0.50261 0.14078 0.0
C2498 C 0.65016 0.43439 0.14706 0.0
C2499 C 0.80748 0.672 0.06887 0.0
C2500 C 0.73195 0.58878 0.11531 0.0
C2501 C 0.60767 0.72433 0.14059 0.0
C2502 C 0.61371 0.76866 0.12587 0.0
C2503 C 0.91597 0.8468 0.08521 0.0
C2504 C 0.15474 0.99751 0.08872 0.0
C2505 C 0.2336 0.04113 0.0937 0.0
C2506 C 0.2871 0.10149 0.08155 0.0
C2507 C 0.25927 0.10632 0.06435 0.0
C2508 C 0.14014 1.02804 0.07338 0.0
C2509 C 0.18903 0.07432 0.06086 0.0
C2510 C 0.94192 0.77045 0.13389 0.0
C2511 C 0.08491 0.9156 0.09211 0.0
H2512 H 0.64674 0.48111 0.09477 0.0
H2513 H 0.57884 0.33081 0.13982 0.0
H2514 H 0.73137 0.53961 0.15003 0.0
H2515 H 0.65405 0.42034 0.16132 0.0
H2516 H 0.25438 1.02887 0.10585 0.0
H2517 H 0.2915 0.13808 0.05292 0.0
H2518 H 0.09194 0.99938 0.06644 0.0
H2519 H 0.17149 0.08207 0.04733 0.0
Tb2520 Tb 0.90087 0.7713 0.5851 0.0
C2521 C 0.14608 0.73799 0.6309 0.0
C2522 C 0.24909 0.7924 0.61177 0.0
C2523 C 0.24987 0.72997 0.63937 0.0
C2524 C 0.17808 0.77258 0.615 0.0
C2525 C 0.17899 0.70983 0.64217 0.0
C2526 C 0.28572 0.7732 0.62437 0.0
C2527 C 0.07048 0.6453 0.65837 0.0
N2528 N 0.07873 0.72253 0.63388 0.0
C2529 C 0.04424 0.68293 0.64903 0.0
C2530 C 0.1372 0.65691 0.6546 0.0
Tb2531 Tb 1.01721 0.71465 0.60745 0.0
N2532 N 0.13759 0.78001 0.60187 0.0
C2533 C 0.16864 0.81326 0.58564 0.0
C2534 C 0.27977 0.82617 0.59534 0.0
C2535 C 0.23899 0.83616 0.58214 0.0
H2536 H 0.99092 0.67021 0.65187 0.0
H2537 H 0.25991 0.85862 0.56883 0.0
H2538 H 0.33943 0.78557 0.62162 0.0
H2539 H 1.03829 0.60686 0.6683 0.0
H2540 H 0.13884 0.81708 0.5745 0.0
H2541 H 0.63681 0.66812 0.63114 0.0
H2542 H 0.33363 0.84107 0.59264 0.0
H2543 H 0.9064 0.74089 0.53296 0.0
H2544 H 0.78112 0.72304 0.62679 0.0
H2545 H 0.89325 0.91291 0.51261 0.0
H2546 H 0.27667 0.71092 0.64823 0.0
H2547 H 0.54989 0.67124 0.60307 0.0
H2548 H 0.60198 0.72538 0.57028 0.0
H2549 H 0.15676 0.62675 0.66189 0.0
H2550 H 0.70759 0.82787 0.54939 0.0
N2551 N 0.78723 0.76943 0.59626 0.0
C2552 C 0.75136 0.73178 0.61613 0.0
C2553 C 0.60378 0.68801 0.59979 0.0
C2554 C 0.63377 0.72754 0.57758 0.0
C2555 C 0.65945 0.6906 0.61795 0.0
C2556 C 0.72028 0.76483 0.57302 0.0
H2557 H 0.78691 0.92051 0.52577 0.0
N2558 N 0.79974 0.71155 0.54791 0.0
C2559 C 0.85543 0.8672 0.52074 0.0
C2560 C 0.72824 0.74011 0.55316 0.0
C2561 C 0.86417 0.75341 0.53356 0.0
C2562 C 0.78964 0.8746 0.52954 0.0
C2563 C 0.72954 0.81729 0.54593 0.0
O2564 O 0.96357 0.88456 0.58268 0.0
O2565 O 1.01188 0.80571 0.59539 0.0
O2566 O 1.01631 0.77663 0.62992 0.0
O2567 O 0.90586 0.7569 0.61938 0.0
O2568 O 1.0005 0.8285 0.56945 0.0
O2569 O 0.89499 0.84995 0.60398 0.0
O2570 O 0.96143 0.62325 0.62156 0.0
O2571 O 0.91156 0.70244 0.60267 0.0
O2572 O 0.93661 0.69395 0.56756 0.0
O2573 O 1.04019 0.70632 0.58054 0.0
O2574 O 0.91573 0.61652 0.60172 0.0
O2575 O 1.04066 0.63161 0.60157 0.0
C2576 C 0.05096 0.84579 0.58203 0.0
C2577 C 0.96208 0.99083 0.59605 0.0
C2578 C 0.94466 0.09849 0.58518 0.0
C2579 C 0.92407 0.03394 0.59726 0.0
C2580 C 0.98683 0.10153 0.57026 0.0
C2581 C 1.02399 1.02822 0.58625 0.0
C2582 C 1.02575 0.06806 0.5709 0.0
C2583 C 0.95551 0.77031 0.63393 0.0
C2584 C 0.94657 0.90798 0.59705 0.0
C2585 C 0.67361 0.83201 0.55591 0.0
C2586 C 0.62089 0.78025 0.56884 0.0
C2587 C 0.87124 0.63809 0.6016 0.0
C2588 C 0.97095 0.52306 0.62038 0.0
C2589 C 0.95295 0.46875 0.60772 0.0
C2590 C 0.9189 0.39971 0.61411 0.0
C2591 C 0.90601 0.38559 0.63334 0.0
C2592 C 0.9498 0.50697 0.63911 0.0
C2593 C 0.92054 0.43891 0.64571 0.0
C2594 C 0.98987 0.67371 0.56888 0.0
C2595 C 0.98982 0.59193 0.61323 0.0
H2596 H 0.88003 1.01899 0.6064 0.0
H2597 H 0.99377 0.13306 0.55796 0.0
H2598 H 0.06201 1.01181 0.5877 0.0
H2599 H 0.05582 0.0721 0.55876 0.0
H2600 H 0.95991 0.47959 0.5929 0.0
H2601 H 0.88188 0.33356 0.63914 0.0
H2602 H 0.94937 0.54505 0.64838 0.0
H2603 H 0.90485 0.42661 0.66011 0.0
Tb2604 Tb 0.44207 0.22113 0.58403 0.0
C2605 C 0.48295 0.49701 0.63163 0.0
C2606 C 0.42953 0.5488 0.61261 0.0
C2607 C 0.49084 0.60757 0.64059 0.0
C2608 C 0.44882 0.49663 0.61568 0.0
C2609 C 0.51266 0.55754 0.64277 0.0
C2610 C 0.44648 0.60151 0.62588 0.0
C2611 C 0.57686 0.51118 0.65878 0.0
N2612 N 0.49727 0.44407 0.63465 0.0
C2613 C 0.5363 0.44733 0.64991 0.0
C2614 C 0.56717 0.56779 0.65473 0.0
Tb2615 Tb 0.50485 0.39219 0.60811 0.0
N2616 N 0.44222 0.45054 0.60232 0.0
C2617 C 0.41114 0.45139 0.58594 0.0
C2618 C 0.39984 0.55045 0.59566 0.0
C2619 C 0.39072 0.50121 0.58228 0.0
H2620 H 0.54695 0.40517 0.653 0.0
H2621 H 0.36921 0.50185 0.56893 0.0
H2622 H 0.43212 0.64193 0.62381 0.0
H2623 H 0.61484 0.51577 0.66888 0.0
H2624 H 0.40696 0.41723 0.57506 0.0
H2625 H 0.54901 0.07375 0.63415 0.0
H2626 H 0.38621 0.59074 0.59265 0.0
H2627 H 0.48156 0.25364 0.53075 0.0
H2628 H 0.49151 0.15823 0.6274 0.0
H2629 H 0.31372 0.06569 0.51113 0.0
H2630 H 0.50855 0.65128 0.64992 0.0
H2631 H 0.54897 0.98029 0.60799 0.0
H2632 H 0.48943 0.96617 0.57537 0.0
H2633 H 0.59811 0.61698 0.66197 0.0
H2634 H 0.39224 0.97252 0.55223 0.0
N2635 N 0.44943 0.11567 0.59656 0.0
C2636 C 0.48543 0.12052 0.61704 0.0
C2637 C 0.53161 1.01586 0.60372 0.0
C2638 C 0.49361 1.00234 0.58118 0.0
C2639 C 0.52701 0.071 0.62063 0.0
C2640 C 0.45711 0.05059 0.57484 0.0
H2641 H 0.30626 0.95335 0.5264 0.0
N2642 N 0.51071 0.17956 0.54774 0.0
C2643 C 0.35899 0.075 0.51969 0.0
C2644 C 0.48253 0.08023 0.55447 0.0
C2645 C 0.47083 0.19967 0.53195 0.0
C2646 C 0.35113 1.00345 0.52982 0.0
C2647 C 0.40548 1.00349 0.54755 0.0
O2648 O 0.33077 0.17232 0.57808 0.0
O2649 O 0.41335 0.29828 0.59671 0.0
O2650 O 0.44128 0.32971 0.63039 0.0
O2651 O 0.45457 0.2369 0.61871 0.0
O2652 O 0.37906 0.26605 0.57123 0.0
O2653 O 0.35386 0.13674 0.6015 0.0
O2654 O 0.5944 0.42135 0.62283 0.0
O2655 O 0.51295 0.29723 0.60217 0.0
O2656 O 0.51808 0.33376 0.56671 0.0
O2657 O 0.51665 0.42826 0.58152 0.0
O2658 O 0.6006 0.38638 0.60113 0.0
O2659 O 0.58909 0.4976 0.60346 0.0
C2660 C 0.3683 0.29923 0.58521 0.0
C2661 C 0.21761 0.0604 0.58871 0.0
C2662 C 0.11362 0.92803 0.58154 0.0
C2663 C 0.17398 0.98153 0.59369 0.0
C2664 C 0.10882 0.95586 0.56433 0.0
C2665 C 0.18708 0.075 0.57336 0.0
C2666 C 0.14083 1.02612 0.56084 0.0
C2667 C 0.44466 0.27321 0.63388 0.0
C2668 C 0.29952 0.13023 0.59209 0.0
C2669 C 0.38328 0.93632 0.56033 0.0
C2670 C 0.43294 0.93704 0.57466 0.0
C2671 C 0.57715 0.32 0.6006 0.0
C2672 C 0.69465 0.53129 0.62234 0.0
C2673 C 0.74654 0.5707 0.60946 0.0
C2674 C 0.81564 0.60632 0.61532 0.0
C2675 C 0.83196 0.60699 0.63442 0.0
C2676 C 0.71251 0.524 0.64076 0.0
C2677 C 0.7807 0.56498 0.64704 0.0
C2678 C 0.54307 0.40767 0.56887 0.0
C2679 C 0.62633 0.48314 0.6153 0.0
H2680 H 0.18624 0.96075 0.60583 0.0
H2681 H 0.07707 0.92363 0.5529 0.0
H2682 H 0.21574 0.12321 0.56643 0.0
H2683 H 0.13309 0.04368 0.54731 0.0
H2684 H 0.73401 0.56829 0.59475 0.0
H2685 H 0.88426 0.63634 0.6398 0.0
H2686 H 0.6755 0.48373 0.65002 0.0
H2687 H 0.79475 0.5611 0.6613 0.0
Tb2688 Tb 1.00047 0.31466 0.5856 0.0
C2689 C 0.7182 0.06021 0.62881 0.0
C2690 C 0.66879 0.96133 0.60814 0.0
C2691 C 0.60777 0.95374 0.63659 0.0
C2692 C 0.72076 0.03139 0.61247 0.0
C2693 C 0.65722 1.02479 0.63986 0.0
C2694 C 0.61462 0.92119 0.62077 0.0
C2695 C 0.69779 0.13223 0.65629 0.0
N2696 N 0.76954 0.12742 0.63243 0.0
C2697 C 0.76249 0.16001 0.6476 0.0
C2698 C 0.6444 0.0647 0.65237 0.0
Tb2699 Tb 0.82649 0.1949 0.60713 0.0
N2700 N 0.77006 0.0743 0.60008 0.0
C2701 C 0.77438 0.04539 0.58375 0.0
C2702 C 0.66983 0.93528 0.59079 0.0
C2703 C 0.72358 0.97742 0.57858 0.0
H2704 H 0.80272 0.21313 0.65095 0.0
H2705 H 0.72658 0.95842 0.5651 0.0
H2706 H 0.57429 0.86748 0.61757 0.0
H2707 H 0.68997 0.16331 0.66605 0.0
H2708 H 0.81305 0.07624 0.57383 0.0
H2709 H 0.15466 0.57944 0.6314 0.0
H2710 H 0.6289 0.8833 0.58686 0.0
H2711 H 0.96575 0.30903 0.5326 0.0
H2712 H 0.0678 0.43507 0.62705 0.0
H2713 H 0.15329 0.32552 0.51357 0.0
H2714 H 0.56224 0.92514 0.64545 0.0
H2715 H 0.24498 0.66685 0.60363 0.0
H2716 H 0.25241 0.6145 0.57172 0.0
H2717 H 0.59469 0.04329 0.6596 0.0
H2718 H 0.24954 0.50913 0.55105 0.0
N2719 N 0.10994 0.42926 0.59692 0.0
C2720 C 0.1067 0.46504 0.61661 0.0
C2721 C 0.2092 0.61273 0.60043 0.0
C2722 C 0.22067 0.58303 0.57848 0.0
C2723 C 0.15609 0.55689 0.6184 0.0
C2724 C 0.17233 0.49649 0.57387 0.0
H2725 H 0.26617 0.43469 0.52687 0.0
N2726 N 1.04127 0.4154 0.54807 0.0
C2727 C 0.14412 0.36198 0.52188 0.0
C2728 C 0.14059 0.48796 0.55383 0.0
C2729 C 1.02038 0.35136 0.53375 0.0
C2730 C 0.2164 0.42872 0.53085 0.0
C2731 C 0.21752 0.48779 0.54716 0.0
O2732 O 0.05402 0.25419 0.5852 0.0
O2733 O 0.92418 0.20343 0.59587 0.0
O2734 O 0.89047 0.19774 0.62983 0.0
O2735 O 0.97903 0.30957 0.61956 0.0
O2736 O 0.96491 0.21255 0.57091 0.0
O2737 O 0.08553 0.3283 0.60554 0.0
O2738 O 0.79248 0.25077 0.62171 0.0
O2739 O 0.91838 0.30177 0.60223 0.0
O2740 O 0.88923 0.2793 0.56757 0.0
O2741 O 0.80002 0.17405 0.57997 0.0
O2742 O 0.82754 0.29605 0.60167 0.0
O2743 O 0.72195 0.17562 0.60073 0.0
C2744 C 0.92806 0.16306 0.58343 0.0
C2745 C 0.16421 0.26514 0.60069 0.0
C2746 C 0.28789 0.28344 0.58858 0.0
C2747 C 0.246 0.30602 0.60064 0.0
C2748 C 0.24456 0.24017 0.57466 0.0
C2749 C 0.14023 0.19916 0.59349 0.0
C2750 C 0.17318 0.19672 0.57746 0.0
C2751 C 0.94361 0.25947 0.63398 0.0
C2752 C 0.09454 0.27683 0.59981 0.0
C2753 C 0.28723 0.54184 0.55802 0.0
C2754 C 0.28725 0.59405 0.57092 0.0
C2755 C 0.89334 0.34149 0.60104 0.0
C2756 C 0.68432 0.24479 0.61975 0.0
C2757 C 0.64965 0.26523 0.60704 0.0
C2758 C 0.60981 0.29355 0.61357 0.0
C2759 C 0.60605 0.30237 0.63289 0.0
C2760 C 0.68666 0.26181 0.6387 0.0
C2761 C 0.64583 0.28858 0.64528 0.0
C2762 C 0.8167 0.22534 0.56877 0.0
C2763 C 0.7337 0.22533 0.61281 0.0
H2764 H 0.27665 0.3518 0.60912 0.0
H2765 H 0.26552 0.23517 0.56154 0.0
H2766 H 0.08631 0.16006 0.59601 0.0
H2767 H 0.14449 0.166 0.56582 0.0
H2768 H 0.65629 0.26219 0.59218 0.0
H2769 H 0.57606 0.32371 0.63875 0.0
H2770 H 0.7237 0.25976 0.64822 0.0
H2771 H 0.6476 0.30245 0.65975 0.0
Tb2772 Tb 0.45197 0.22033 0.20446 0.0
C2773 C 0.41863 0.46557 0.15866 0.0
C2774 C 0.47307 0.56862 0.17778 0.0
C2775 C 0.41063 0.56937 0.15019 0.0
C2776 C 0.45323 0.49758 0.17455 0.0
C2777 C 0.39048 0.49848 0.14739 0.0
C2778 C 0.45386 0.60524 0.16518 0.0
C2779 C 0.32594 0.38993 0.1312 0.0
N2780 N 0.40316 0.39819 0.15569 0.0
C2781 C 0.36356 0.36369 0.14054 0.0
C2782 C 0.33756 0.45667 0.13496 0.0
Tb2783 Tb 0.39531 0.33669 0.18212 0.0
N2784 N 0.46067 0.4571 0.18768 0.0
C2785 C 0.49392 0.48815 0.20391 0.0
C2786 C 0.50684 0.5993 0.19421 0.0
C2787 C 0.51681 0.55852 0.20741 0.0
H2788 H 0.35083 0.31036 0.1377 0.0
H2789 H 0.53924 0.57942 0.22073 0.0
H2790 H 0.46625 0.65898 0.16793 0.0
H2791 H 0.2875 0.35773 0.12127 0.0
H2792 H 0.49774 0.45836 0.21505 0.0
H2793 H 0.34874 0.9562 0.15844 0.0
H2794 H 0.52174 0.65318 0.19691 0.0
H2795 H 0.42158 0.2259 0.25661 0.0
H2796 H 0.4037 0.10055 0.16278 0.0
H2797 H 0.59355 0.21269 0.27696 0.0
H2798 H 0.39158 0.59618 0.14132 0.0
H2799 H 0.35185 0.86927 0.1865 0.0
H2800 H 0.40598 0.92136 0.21929 0.0
H2801 H 0.3074 0.47624 0.12767 0.0
H2802 H 0.50847 1.027 0.24018 0.0
N2803 N 0.45006 0.10666 0.1933 0.0
C2804 C 0.41242 0.07078 0.17343 0.0
C2805 C 0.36862 0.92317 0.18978 0.0
C2806 C 0.40815 0.95317 0.21199 0.0
C2807 C 0.37123 0.97886 0.17162 0.0
C2808 C 0.44545 0.0397 0.21655 0.0
H2809 H 0.60112 0.10634 0.26379 0.0
N2810 N 0.39222 0.11921 0.24166 0.0
C2811 C 0.54783 0.17487 0.26883 0.0
C2812 C 0.42074 0.04767 0.23641 0.0
C2813 C 0.43409 0.18365 0.256 0.0
C2814 C 0.55522 0.10906 0.26003 0.0
C2815 C 0.4979 0.04895 0.24364 0.0
O2816 O 0.56521 0.28304 0.20689 0.0
O2817 O 0.48637 0.33136 0.19418 0.0
O2818 O 0.45725 0.33575 0.15964 0.0
O2819 O 0.43756 0.2253 0.17019 0.0
O2820 O 0.50913 0.31996 0.22012 0.0
O2821 O 0.5306 0.21444 0.18559 0.0
O2822 O 0.3039 0.28089 0.16802 0.0
O2823 O 0.38312 0.23103 0.18689 0.0
O2824 O 0.37461 0.25606 0.222 0.0
O2825 O 0.38701 0.35967 0.20903 0.0
O2826 O 0.29721 0.23519 0.18785 0.0
O2827 O 0.31228 0.36013 0.18801 0.0
C2828 C 0.52644 0.37044 0.20754 0.0
C2829 C 0.67146 0.28152 0.19352 0.0
C2830 C 0.77914 0.26412 0.20438 0.0
C2831 C 0.71458 0.2435 0.1923 0.0
C2832 C 0.78218 0.3063 0.2193 0.0
C2833 C 0.70885 0.34344 0.20331 0.0
C2834 C 0.74869 0.34521 0.21867 0.0
C2835 C 0.45096 0.27495 0.15563 0.0
C2836 C 0.58862 0.26602 0.19251 0.0
C2837 C 0.5126 0.993 0.23366 0.0
C2838 C 0.46084 0.94027 0.22073 0.0
C2839 C 0.31878 0.19069 0.18796 0.0
C2840 C 0.2037 0.29037 0.16922 0.0
C2841 C 0.14938 0.27233 0.18187 0.0
C2842 C 0.08035 0.2383 0.17548 0.0
C2843 C 0.06627 0.22545 0.15625 0.0
C2844 C 0.18762 0.26925 0.15048 0.0
C2845 C 0.11958 0.24001 0.14388 0.0
C2846 C 0.35438 0.30933 0.22069 0.0
C2847 C 0.27258 0.30926 0.17636 0.0
H2848 H 0.69962 0.19945 0.18317 0.0
H2849 H 0.81373 0.31326 0.23159 0.0
H2850 H 0.69243 0.38146 0.20186 0.0
H2851 H 0.75274 0.37528 0.2308 0.0
H2852 H 0.16021 0.27927 0.19669 0.0
H2853 H 1.01425 0.20134 0.15044 0.0
H2854 H 0.2257 0.26885 0.14121 0.0
H2855 H 0.1073 0.22434 0.12947 0.0
Tb2856 Tb 0.9953 0.31993 0.20396 0.0
C2857 C 0.74086 0.03761 0.16077 0.0
C2858 C 0.642 0.98823 0.18144 0.0
C2859 C 0.63438 0.92719 0.15299 0.0
C2860 C 0.71206 0.04019 0.17711 0.0
C2861 C 0.70543 0.97662 0.14972 0.0
C2862 C 0.60186 0.93405 0.16881 0.0
C2863 C 0.81284 1.01715 0.13329 0.0
N2864 N 0.80806 0.08895 0.15714 0.0
C2865 C 0.84064 0.08188 0.14198 0.0
C2866 C 0.74532 0.96378 0.13721 0.0
Tb2867 Tb 0.87554 0.14593 0.18244 0.0
N2868 N 0.75496 0.0895 0.1895 0.0
C2869 C 0.72605 0.09386 0.20582 0.0
C2870 C 0.61595 0.98931 0.19879 0.0
C2871 C 0.65808 0.04308 0.211 0.0
H2872 H 0.89374 0.12211 0.13862 0.0
H2873 H 0.63906 0.04612 0.22447 0.0
H2874 H 0.54815 0.89372 0.17202 0.0
H2875 H 0.84391 1.00931 0.12353 0.0
H2876 H 0.7569 0.13256 0.21574 0.0
H2877 H 0.26004 0.47402 0.15815 0.0
H2878 H 0.56397 0.9484 0.20272 0.0
H2879 H 0.98967 0.28522 0.25696 0.0
H2880 H 0.11569 0.3872 0.16251 0.0
H2881 H 1.00623 0.47283 0.27598 0.0
H2882 H 0.60577 0.88164 0.14413 0.0
H2883 H 0.34746 0.56435 0.18592 0.0
H2884 H 0.29514 0.57184 0.21783 0.0
H2885 H 0.72389 0.91405 0.12999 0.0
H2886 H 0.18981 0.56903 0.2385 0.0
N2887 N 0.10991 0.42937 0.19264 0.0
C2888 C 0.14566 0.4261 0.17295 0.0
C2889 C 0.29334 0.52859 0.18913 0.0
C2890 C 0.26366 0.5401 0.21108 0.0
C2891 C 0.2375 0.47548 0.17116 0.0
C2892 C 0.17714 0.49178 0.21569 0.0
H2893 H 0.1154 0.5857 0.26268 0.0
N2894 N 0.09603 0.36072 0.24149 0.0
C2895 C 1.04267 0.46364 0.26768 0.0
C2896 C 0.1686 0.46005 0.23572 0.0
C2897 C 1.03201 0.33985 0.25581 0.0
C2898 C 0.10942 0.53592 0.25871 0.0
C2899 C 0.16847 0.53701 0.2424 0.0
O2900 O 0.93487 0.37351 0.20436 0.0
O2901 O 0.88409 0.24365 0.19369 0.0
O2902 O 0.87839 0.20991 0.15974 0.0
O2903 O 0.99021 0.29846 0.17 0.0
O2904 O 0.89321 0.28441 0.21864 0.0
O2905 O 1.00895 0.405 0.18402 0.0
O2906 O 0.9314 0.11192 0.16786 0.0
O2907 O 0.98242 0.23782 0.18734 0.0
O2908 O 0.95992 0.20869 0.22201 0.0
O2909 O 0.85468 0.1195 0.2096 0.0
O2910 O 0.97666 0.14695 0.18791 0.0
O2911 O 0.85628 0.04137 0.18884 0.0
C2912 C 0.84372 0.24755 0.20613 0.0
C2913 C 0.94581 0.48368 0.18887 0.0
C2914 C 0.96406 0.60736 0.20098 0.0
C2915 C 0.98668 0.56549 0.18893 0.0
C2916 C 0.92081 0.56401 0.2149 0.0
C2917 C 0.87983 0.45968 0.19606 0.0
C2918 C 0.87738 0.49262 0.2121 0.0
C2919 C 0.94012 0.26305 0.15559 0.0
C2920 C 0.9575 0.41402 0.18975 0.0
C2921 C 0.22252 0.60672 0.23154 0.0
C2922 C 0.27471 0.60671 0.21863 0.0
C2923 C 1.02212 0.21276 0.18854 0.0
C2924 C 0.92543 1.00375 0.16982 0.0
C2925 C 0.94588 0.96908 0.18253 0.0
C2926 C 0.97423 0.92926 0.176 0.0
C2927 C 0.98304 0.9255 0.15668 0.0
C2928 C 0.94244 1.00609 0.15088 0.0
C2929 C 0.96923 0.96527 0.14429 0.0
C2930 C 0.90597 0.13616 0.2208 0.0
C2931 C 0.90597 0.05313 0.17676 0.0
H2932 H 1.03247 0.59614 0.18045 0.0
H2933 H 0.9158 0.58495 0.22803 0.0
H2934 H 0.84073 0.40575 0.19354 0.0
H2935 H 0.84668 0.46391 0.22374 0.0
H2936 H 0.94284 0.97572 0.19739 0.0
H2937 H 1.00437 0.89551 0.15081 0.0
H2938 H 0.94038 0.04313 0.14135 0.0
H2939 H 0.98309 0.96704 0.12982 0.0
Tb2940 Tb 0.90177 0.76152 0.20554 0.0
C2941 C 0.17759 0.80238 0.15794 0.0
C2942 C 0.22936 0.74895 0.17697 0.0
C2943 C 0.28811 0.81024 0.14899 0.0
C2944 C 0.17721 0.76826 0.1739 0.0
C2945 C 0.23811 0.83208 0.14681 0.0
C2946 C 0.28205 0.76588 0.1637 0.0
C2947 C 0.19177 0.89628 0.13079 0.0
N2948 N 0.12467 0.81671 0.15493 0.0
C2949 C 0.12793 0.85573 0.13966 0.0
C2950 C 0.24837 0.88659 0.13484 0.0
Tb2951 Tb 0.07281 0.82433 0.18146 0.0
N2952 N 0.13111 0.76165 0.18725 0.0
C2953 C 0.13193 0.73055 0.20364 0.0
C2954 C 0.231 0.71928 0.19392 0.0
C2955 C 0.18174 0.71013 0.2073 0.0
H2956 H 0.08578 0.86639 0.13656 0.0
H2957 H 0.18236 0.6886 0.22065 0.0
H2958 H 0.32245 0.7515 0.16578 0.0
H2959 H 0.19635 0.93424 0.12068 0.0
H2960 H 0.09775 0.72636 0.21452 0.0
H2961 H 0.75441 0.86842 0.15542 0.0
H2962 H 0.27127 0.70564 0.19694 0.0
H2963 H 0.93425 0.80101 0.25883 0.0
H2964 H 0.83888 0.81093 0.16217 0.0
H2965 H 0.74632 0.63315 0.27845 0.0
H2966 H 0.33182 0.82793 0.13966 0.0
H2967 H 0.66096 0.86839 0.18157 0.0
H2968 H 0.64685 0.80887 0.2142 0.0
H2969 H 0.29755 0.91752 0.1276 0.0
H2970 H 0.65319 0.71168 0.23735 0.0
N2971 N 0.79632 0.76885 0.19301 0.0
C2972 C 0.80117 0.80485 0.17254 0.0
C2973 C 0.69653 0.85105 0.18584 0.0
C2974 C 0.68301 0.81305 0.20839 0.0
C2975 C 0.75166 0.84643 0.16894 0.0
C2976 C 0.73124 0.77654 0.21473 0.0
H2977 H 0.63401 0.6257 0.26318 0.0
N2978 N 0.86018 0.83017 0.24184 0.0
C2979 C 0.75563 0.67843 0.26989 0.0
C2980 C 0.76088 0.80198 0.23511 0.0
C2981 C 0.88028 0.79028 0.25763 0.0
C2982 C 0.68411 0.67057 0.25976 0.0
C2983 C 0.68415 0.72492 0.24202 0.0
O2984 O 0.85293 0.6502 0.2115 0.0
O2985 O 0.97889 0.73281 0.19285 0.0
O2986 O 1.01036 0.76073 0.15918 0.0
O2987 O 0.91755 0.77399 0.17086 0.0
O2988 O 0.9467 0.69853 0.21836 0.0
O2989 O 0.8174 0.67329 0.18808 0.0
O2990 O 0.102 0.91388 0.16673 0.0
O2991 O 0.97783 0.83238 0.18739 0.0
O2992 O 1.0144 0.83755 0.22286 0.0
O2993 O 0.10888 0.83613 0.20805 0.0
O2994 O 0.06708 0.92016 0.18844 0.0
O2995 O 0.17821 0.90855 0.18611 0.0
C2996 C 0.97975 0.68775 0.20436 0.0
C2997 C 0.74105 0.53703 0.20087 0.0
C2998 C 0.60868 0.43308 0.20804 0.0
C2999 C 0.66219 0.49343 0.19589 0.0
C3000 C 0.63649 0.42826 0.22525 0.0
C3001 C 0.75563 0.50647 0.21622 0.0
C3002 C 0.70673 0.46023 0.22874 0.0
C3003 C 0.95386 0.76408 0.15569 0.0
C3004 C 0.81088 0.61894 0.19749 0.0
C3005 C 0.617 0.70271 0.22925 0.0
C3006 C 0.61772 0.75237 0.21491 0.0
C3007 C 1.0007 0.89659 0.18896 0.0
C3008 C 0.21195 1.01412 0.16722 0.0
C3009 C 0.25138 0.06599 0.1801 0.0
C3010 C 0.28703 0.1351 0.17424 0.0
C3011 C 0.28769 0.15144 0.15514 0.0
C3012 C 0.20468 0.03199 0.14879 0.0
C3013 C 0.24568 0.1002 0.14252 0.0
C3014 C 0.08831 0.86254 0.22071 0.0
C3015 C 0.16379 0.94579 0.17426 0.0
H3016 H 0.64143 0.5057 0.18374 0.0
H3017 H 0.60424 0.39652 0.23668 0.0
H3018 H 0.80384 0.53511 0.22315 0.0
H3019 H 0.72426 0.45248 0.24227 0.0
H3020 H 0.24896 0.05344 0.19481 0.0
H3021 H 0.31705 0.20375 0.14976 0.0
H3022 H 0.1644 0.99499 0.13954 0.0
H3023 H 0.24181 0.11426 0.12826 0.0
loop_
_geom_bond_atom_site_label_1
_geom_bond_atom_site_label_2
_geom_bond_distance
_geom_bond_site_symmetry_2
_ccdc_geom_bond_type
Tb0 N31 2.660 . S
Tb0 N38 2.600 . S
Tb0 O44 2.546 . S
Tb0 O45 2.610 . S
Tb0 O47 2.320 . S
Tb0 O48 2.552 . S
Tb0 O49 2.413 . S
Tb0 O51 2.362 . S
Tb0 O52 2.421 . S
Tb0 C64 2.833 . S
C1 C4 1.432 . S
C1 C5 1.414 . S
C1 N8 1.359 . S
C2 C4 1.417 . S
C2 C6 1.432 . S
C2 C14 1.410 . S
C3 C5 1.444 . S
C3 C6 1.317 . S
C3 H26 0.929 . S
C4 C1 1.432 . S
C4 C2 1.417 . S
C4 N12 1.360 . S
C5 C1 1.414 . S
C5 C3 1.444 . S
C5 C10 1.385 . S
C6 C2 1.432 . S
C6 C3 1.317 . S
C6 H18 0.930 . S
C7 C9 1.392 . S
C7 C10 1.370 . S
C7 H19 0.931 . S
N8 C1 1.359 . S
N8 C9 1.327 . S
N8 Tb11 2.600 . S
C9 C7 1.392 . S
C9 N8 1.327 . S
C9 H16 0.930 . S
C10 C5 1.385 . S
C10 C7 1.370 . S
C10 H29 0.930 . S
Tb11 N8 2.600 . S
Tb11 N12 2.660 . S
Tb11 O45 2.362 . S
Tb11 O46 2.421 . S
Tb11 O50 2.546 1_545 S
Tb11 O51 2.610 . S
Tb11 O53 2.320 . S
Tb11 O54 2.552 1_545 S
Tb11 O55 2.413 1_545 S
Tb11 C75 2.833 1_545 S
N12 C4 1.360 . S
N12 Tb11 2.660 . S
N12 C13 1.305 . S
C13 N12 1.305 . S
C13 C15 1.407 . S
C13 H20 0.930 . S
C14 C2 1.410 . S
C14 C15 1.345 . S
C14 H22 0.930 . S
C15 C13 1.407 . S
C15 C14 1.345 . S
C15 H17 0.930 . S
H16 C9 0.930 . S
H17 C15 0.930 . S
H18 C6 0.930 . S
H19 C7 0.931 . S
H20 C13 0.930 . S
H21 C35 0.930 . S
H22 C14 0.930 . S
H23 C41 0.930 . S
H24 C32 0.930 . S
H25 C39 0.931 . S
H26 C3 0.929 . S
H27 C33 0.930 1_565 S
H28 C66 0.930 1_565 S
H29 C10 0.930 . S
H30 C65 0.929 . S
N31 Tb0 2.660 . S
N31 C32 1.305 . S
N31 C36 1.360 . S
C32 H24 0.930 . S
C32 N31 1.305 . S
C32 C35 1.407 . S
C33 H27 0.930 1_545 S
C33 C34 1.410 . S
C33 C35 1.345 . S
C34 C33 1.410 . S
C34 C36 1.417 . S
C34 C66 1.432 . S
C35 H21 0.930 . S
C35 C32 1.407 . S
C35 C33 1.345 . S
C36 N31 1.360 . S
C36 C34 1.417 . S
C36 C40 1.432 . S
H37 C42 0.930 . S
N38 Tb0 2.600 . S
N38 C40 1.359 . S
N38 C41 1.327 1_554 S
C39 H25 0.931 . S
C39 C41 1.392 . S
C39 C42 1.370 . S
C40 C36 1.432 . S
C40 N38 1.359 . S
C40 C43 1.414 1_554 S
C41 H23 0.930 . S
C41 N38 1.327 1_556 S
C41 C39 1.392 . S
C42 H37 0.930 . S
C42 C39 1.370 . S
C42 C43 1.385 . S
C43 C40 1.414 1_556 S
C43 C42 1.385 . S
C43 C65 1.444 . S
O44 Tb0 2.546 . S
O44 C64 1.251 . S
O45 Tb0 2.610 . S
O45 Tb11 2.362 . S
O45 C56 1.283 . S
O46 Tb11 2.421 . S
O46 C63 1.262 . S
O47 Tb0 2.320 . S
O47 C63 1.260 . S
O48 Tb0 2.552 . S
O48 C56 1.243 . S
O49 Tb0 2.413 . S
O49 C64 1.256 . S
O50 Tb11 2.546 1_565 S
O50 C75 1.251 . S
O51 Tb0 2.362 . S
O51 Tb11 2.610 . S
O51 C67 1.283 1_545 S
O52 Tb0 2.421 . S
O52 C74 1.262 . S
O53 Tb11 2.320 . S
O53 C74 1.260 . S
O54 Tb11 2.552 1_565 S
O54 C67 1.243 . S
O55 Tb11 2.413 1_565 S
O55 C75 1.256 . S
C56 O45 1.283 . S
C56 O48 1.243 . S
C57 C59 1.382 . S
C57 C61 1.393 . S
C57 C64 1.500 . S
C58 C59 1.400 . S
C58 C60 1.384 . S
C59 C57 1.382 . S
C59 C58 1.400 . S
C59 H76 0.930 . S
C60 C58 1.384 . S
C60 C62 1.392 . S
C60 H77 0.931 . S
C61 C57 1.393 . S
C61 C62 1.401 . S
C61 H78 0.930 1_554 S
C62 C60 1.392 . S
C62 C61 1.401 . S
C62 H79 0.930 1_554 S
C63 O46 1.262 . S
C63 O47 1.260 . S
C64 Tb0 2.833 . S
C64 O44 1.251 . S
C64 O49 1.256 . S
C64 C57 1.500 . S
C65 H30 0.929 . S
C65 C43 1.444 . S
C65 C66 1.317 1_556 S
C66 H28 0.930 1_545 S
C66 C34 1.432 . S
C66 C65 1.317 1_554 S
C67 O51 1.283 1_565 S
C67 O54 1.243 . S
C68 C69 1.382 . S
C68 C72 1.393 . S
C68 C75 1.500 . S
C69 C68 1.382 . S
C69 C70 1.400 . S
C69 H80 0.930 . S
C70 C69 1.400 . S
C70 C71 1.384 . S
C71 C70 1.384 . S
C71 C73 1.392 . S
C71 H81 0.931 . S
C72 C68 1.393 . S
C72 C73 1.401 . S
C72 H82 0.930 . S
C73 C71 1.392 . S
C73 C72 1.401 . S
C73 H83 0.930 . S
C74 O52 1.262 . S
C74 O53 1.260 . S
C75 Tb11 2.833 1_565 S
C75 O50 1.251 . S
C75 O55 1.256 . S
C75 C68 1.500 . S
H76 C59 0.930 . S
H77 C60 0.931 . S
H78 C61 0.930 1_556 S
H79 C62 0.930 1_556 S
H80 C69 0.930 . S
H81 C71 0.931 . S
H82 C72 0.930 . S
H83 C73 0.930 . S
Tb84 N115 2.660 . S
Tb84 N122 2.600 . S
Tb84 O128 2.546 1_455 S
Tb84 O129 2.610 1_455 S
Tb84 O131 2.320 . S
Tb84 O132 2.552 1_455 S
Tb84 O133 2.413 1_455 S
Tb84 O135 2.362 . S
Tb84 O136 2.421 . S
Tb84 C148 2.833 1_455 S
C85 C88 1.432 . S
C85 C89 1.414 . S
C85 N92 1.359 . S
C86 C88 1.417 1_655 S
C86 C90 1.432 . S
C86 C98 1.410 . S
C87 C89 1.444 1_655 S
C87 C90 1.317 . S
C87 H110 0.929 . S
C88 C85 1.432 . S
C88 C86 1.417 1_455 S
C88 N96 1.360 . S
C89 C85 1.414 . S
C89 C87 1.444 1_455 S
C89 C94 1.385 . S
C90 C86 1.432 . S
C90 C87 1.317 . S
C90 H102 0.930 . S
C91 C93 1.392 . S
C91 C94 1.370 . S
C91 H103 0.931 . S
N92 C85 1.359 . S
N92 C93 1.327 . S
N92 Tb95 2.600 . S
C93 C91 1.392 . S
C93 N92 1.327 . S
C93 H100 0.930 . S
C94 C89 1.385 . S
C94 C91 1.370 . S
C94 H113 0.930 . S
Tb95 N92 2.600 . S
Tb95 N96 2.660 . S
Tb95 O129 2.362 1_455 S
Tb95 O130 2.421 . S
Tb95 O134 2.546 . S
Tb95 O135 2.610 . S
Tb95 O137 2.320 . S
Tb95 O138 2.552 . S
Tb95 O139 2.413 . S
Tb95 C159 2.833 . S
N96 C88 1.360 . S
N96 Tb95 2.660 . S
N96 C97 1.305 . S
C97 N96 1.305 . S
C97 C99 1.407 1_455 S
C97 H104 0.930 . S
C98 C86 1.410 . S
C98 C99 1.345 . S
C98 H106 0.930 . S
C99 C97 1.407 1_655 S
C99 C98 1.345 . S
C99 H101 0.930 . S
H100 C93 0.930 . S
H101 C99 0.930 . S
H102 C90 0.930 . S
H103 C91 0.931 . S
H104 C97 0.930 . S
H105 C119 0.930 . S
H106 C98 0.930 . S
H107 C125 0.930 . S
H108 C116 0.930 . S
H109 C123 0.931 . S
H110 C87 0.929 . S
H111 C117 0.930 . S
H112 C150 0.930 . S
H113 C94 0.930 . S
H114 C149 0.929 . S
N115 Tb84 2.660 . S
N115 C116 1.305 . S
N115 C120 1.360 . S
C116 H108 0.930 . S
C116 N115 1.305 . S
C116 C119 1.407 . S
C117 H111 0.930 . S
C117 C118 1.410 . S
C117 C119 1.345 . S
C118 C117 1.410 . S
C118 C120 1.417 . S
C118 C150 1.432 . S
C119 H105 0.930 . S
C119 C116 1.407 . S
C119 C117 1.345 . S
C120 N115 1.360 . S
C120 C118 1.417 . S
C120 C124 1.432 . S
H121 C126 0.930 . S
N122 Tb84 2.600 . S
N122 C124 1.359 . S
N122 C125 1.327 1_554 S
C123 H109 0.931 . S
C123 C125 1.392 . S
C123 C126 1.370 . S
C124 C120 1.432 . S
C124 N122 1.359 . S
C124 C127 1.414 1_554 S
C125 H107 0.930 . S
C125 N122 1.327 1_556 S
C125 C123 1.392 . S
C126 H121 0.930 . S
C126 C123 1.370 . S
C126 C127 1.385 . S
C127 C124 1.414 1_556 S
C127 C126 1.385 . S
C127 C149 1.444 . S
O128 Tb84 2.546 1_655 S
O128 C148 1.251 . S
O129 Tb84 2.610 1_655 S
O129 Tb95 2.362 1_655 S
O129 C140 1.283 . S
O130 Tb95 2.421 . S
O130 C147 1.262 . S
O131 Tb84 2.320 . S
O131 C147 1.260 . S
O132 Tb84 2.552 1_655 S
O132 C140 1.243 . S
O133 Tb84 2.413 1_655 S
O133 C148 1.256 . S
O134 Tb95 2.546 . S
O134 C159 1.251 . S
O135 Tb84 2.362 . S
O135 Tb95 2.610 . S
O135 C151 1.283 . S
O136 Tb84 2.421 . S
O136 C158 1.262 . S
O137 Tb95 2.320 . S
O137 C158 1.260 . S
O138 Tb95 2.552 . S
O138 C151 1.243 . S
O139 Tb95 2.413 . S
O139 C159 1.256 . S
C140 O129 1.283 . S
C140 O132 1.243 . S
C141 C143 1.382 . S
C141 C145 1.393 . S
C141 C148 1.500 . S
C142 C143 1.400 . S
C142 C144 1.384 . S
C143 C141 1.382 . S
C143 C142 1.400 . S
C143 H160 0.930 . S
C144 C142 1.384 . S
C144 C146 1.392 . S
C144 H161 0.931 . S
C145 C141 1.393 . S
C145 C146 1.401 . S
C145 H162 0.930 1_554 S
C146 C144 1.392 . S
C146 C145 1.401 . S
C146 H163 0.930 1_554 S
C147 O130 1.262 . S
C147 O131 1.260 . S
C148 Tb84 2.833 1_655 S
C148 O128 1.251 . S
C148 O133 1.256 . S
C148 C141 1.500 . S
C149 H114 0.929 . S
C149 C127 1.444 . S
C149 C150 1.317 1_556 S
C150 H112 0.930 . S
C150 C118 1.432 . S
C150 C149 1.317 1_554 S
C151 O135 1.283 . S
C151 O138 1.243 . S
C152 C153 1.382 . S
C152 C156 1.393 . S
C152 C159 1.500 . S
C153 C152 1.382 . S
C153 C154 1.400 . S
C153 H164 0.930 . S
C154 C153 1.400 . S
C154 C155 1.384 . S
C155 C154 1.384 . S
C155 C157 1.392 . S
C155 H165 0.931 . S
C156 C152 1.393 . S
C156 C157 1.401 . S
C156 H166 0.930 . S
C157 C155 1.392 . S
C157 C156 1.401 . S
C157 H167 0.930 . S
C158 O136 1.262 . S
C158 O137 1.260 . S
C159 Tb95 2.833 . S
C159 O134 1.251 . S
C159 O139 1.256 . S
C159 C152 1.500 . S
H160 C143 0.930 . S
H161 C144 0.931 . S
H162 C145 0.930 1_556 S
H163 C146 0.930 1_556 S
H164 C153 0.930 . S
H165 C155 0.931 . S
H166 C156 0.930 . S
H167 C157 0.930 . S
Tb168 N199 2.660 . S
Tb168 N206 2.600 . S
Tb168 O212 2.546 . S
Tb168 O213 2.610 . S
Tb168 O215 2.320 . S
Tb168 O216 2.552 . S
Tb168 O217 2.413 . S
Tb168 O219 2.362 . S
Tb168 O220 2.421 . S
Tb168 C232 2.833 . S
C169 C172 1.432 . S
C169 C173 1.414 . S
C169 N176 1.359 . S
C170 C172 1.417 . S
C170 C174 1.432 . S
C170 C182 1.410 . S
C171 C173 1.444 . S
C171 C174 1.317 . S
C171 H194 0.929 . S
C172 C169 1.432 . S
C172 C170 1.417 . S
C172 N180 1.360 . S
C173 C169 1.414 . S
C173 C171 1.444 . S
C173 C178 1.385 . S
C174 C170 1.432 . S
C174 C171 1.317 . S
C174 H186 0.930 . S
C175 C177 1.392 . S
C175 C178 1.370 . S
C175 H187 0.931 . S
N176 C169 1.359 . S
N176 C177 1.327 . S
N176 Tb179 2.600 . S
C177 C175 1.392 . S
C177 N176 1.327 . S
C177 H184 0.930 . S
C178 C173 1.385 . S
C178 C175 1.370 . S
C178 H197 0.930 . S
Tb179 N176 2.600 . S
Tb179 N180 2.660 . S
Tb179 O213 2.362 . S
Tb179 O214 2.421 . S
Tb179 O218 2.546 . S
Tb179 O219 2.610 . S
Tb179 O221 2.320 . S
Tb179 O222 2.552 . S
Tb179 O223 2.413 . S
Tb179 C243 2.833 . S
N180 C172 1.360 . S
N180 Tb179 2.660 . S
N180 C181 1.305 . S
C181 N180 1.305 . S
C181 C183 1.407 . S
C181 H188 0.930 . S
C182 C170 1.410 . S
C182 C183 1.345 . S
C182 H190 0.930 . S
C183 C181 1.407 . S
C183 C182 1.345 . S
C183 H185 0.930 . S
H184 C177 0.930 . S
H185 C183 0.930 . S
H186 C174 0.930 . S
H187 C175 0.931 . S
H188 C181 0.930 . S
H189 C203 0.930 . S
H190 C182 0.930 . S
H191 C209 0.930 . S
H192 C200 0.930 . S
H193 C207 0.931 . S
H194 C171 0.929 . S
H195 C201 0.930 . S
H196 C234 0.930 . S
H197 C178 0.930 . S
H198 C233 0.929 . S
N199 Tb168 2.660 . S
N199 C200 1.305 . S
N199 C204 1.360 . S
C200 H192 0.930 . S
C200 N199 1.305 . S
C200 C203 1.407 . S
C201 H195 0.930 . S
C201 C202 1.410 . S
C201 C203 1.345 . S
C202 C201 1.410 . S
C202 C204 1.417 . S
C202 C234 1.432 . S
C203 H189 0.930 . S
C203 C200 1.407 . S
C203 C201 1.345 . S
C204 N199 1.360 . S
C204 C202 1.417 . S
C204 C208 1.432 . S
H205 C210 0.930 . S
N206 Tb168 2.600 . S
N206 C208 1.359 . S
N206 C209 1.327 1_554 S
C207 H193 0.931 . S
C207 C209 1.392 . S
C207 C210 1.370 . S
C208 C204 1.432 . S
C208 N206 1.359 . S
C208 C211 1.414 1_554 S
C209 H191 0.930 . S
C209 N206 1.327 1_556 S
C209 C207 1.392 . S
C210 H205 0.930 . S
C210 C207 1.370 . S
C210 C211 1.385 . S
C211 C208 1.414 1_556 S
C211 C210 1.385 . S
C211 C233 1.444 . S
O212 Tb168 2.546 . S
O212 C232 1.251 . S
O213 Tb168 2.610 . S
O213 Tb179 2.362 . S
O213 C224 1.283 . S
O214 Tb179 2.421 . S
O214 C231 1.262 . S
O215 Tb168 2.320 . S
O215 C231 1.260 . S
O216 Tb168 2.552 . S
O216 C224 1.243 . S
O217 Tb168 2.413 . S
O217 C232 1.256 . S
O218 Tb179 2.546 . S
O218 C243 1.251 . S
O219 Tb168 2.362 . S
O219 Tb179 2.610 . S
O219 C235 1.283 . S
O220 Tb168 2.421 . S
O220 C242 1.262 . S
O221 Tb179 2.320 . S
O221 C242 1.260 . S
O222 Tb179 2.552 . S
O222 C235 1.243 . S
O223 Tb179 2.413 . S
O223 C243 1.256 . S
C224 O213 1.283 . S
C224 O216 1.243 . S
C225 C227 1.382 . S
C225 C229 1.393 . S
C225 C232 1.500 . S
C226 C227 1.400 . S
C226 C228 1.384 . S
C227 C225 1.382 . S
C227 C226 1.400 . S
C227 H244 0.930 . S
C228 C226 1.384 . S
C228 C230 1.392 . S
C228 H245 0.931 1_655 S
C229 C225 1.393 . S
C229 C230 1.401 . S
C229 H246 0.930 1_554 S
C230 C228 1.392 . S
C230 C229 1.401 . S
C230 H247 0.930 1_554 S
C231 O214 1.262 . S
C231 O215 1.260 . S
C232 Tb168 2.833 . S
C232 O212 1.251 . S
C232 O217 1.256 . S
C232 C225 1.500 . S
C233 H198 0.929 . S
C233 C211 1.444 . S
C233 C234 1.317 1_556 S
C234 H196 0.930 . S
C234 C202 1.432 . S
C234 C233 1.317 1_554 S
C235 O219 1.283 . S
C235 O222 1.243 . S
C236 C237 1.382 . S
C236 C240 1.393 . S
C236 C243 1.500 . S
C237 C236 1.382 . S
C237 C238 1.400 . S
C237 H248 0.930 . S
C238 C237 1.400 . S
C238 C239 1.384 . S
C239 C238 1.384 . S
C239 C241 1.392 . S
C239 H249 0.931 . S
C240 C236 1.393 . S
C240 C241 1.401 . S
C240 H250 0.930 . S
C241 C239 1.392 . S
C241 C240 1.401 . S
C241 H251 0.930 . S
C242 O220 1.262 . S
C242 O221 1.260 . S
C243 Tb179 2.833 . S
C243 O218 1.251 . S
C243 O223 1.256 . S
C243 C236 1.500 . S
H244 C227 0.930 . S
H245 C228 0.931 1_455 S
H246 C229 0.930 1_556 S
H247 C230 0.930 1_556 S
H248 C237 0.930 . S
H249 C239 0.931 . S
H250 C240 0.930 . S
H251 C241 0.930 . S
Tb252 N283 2.660 . S
Tb252 N290 2.600 . S
Tb252 O296 2.546 . S
Tb252 O297 2.610 . S
Tb252 O299 2.320 . S
Tb252 O300 2.552 . S
Tb252 O301 2.413 . S
Tb252 O303 2.362 . S
Tb252 O304 2.421 . S
Tb252 C316 2.833 . S
C253 C256 1.432 . S
C253 C257 1.414 . S
C253 N260 1.359 . S
C254 C256 1.417 . S
C254 C258 1.432 . S
C254 C266 1.410 . S
C255 C257 1.444 . S
C255 C258 1.317 . S
C255 H278 0.929 . S
C256 C253 1.432 . S
C256 C254 1.417 . S
C256 N264 1.360 . S
C257 C253 1.414 . S
C257 C255 1.444 . S
C257 C262 1.385 . S
C258 C254 1.432 . S
C258 C255 1.317 . S
C258 H270 0.930 . S
C259 C261 1.392 . S
C259 C262 1.370 . S
C259 H271 0.931 . S
N260 C253 1.359 . S
N260 C261 1.327 . S
N260 Tb263 2.600 . S
C261 C259 1.392 . S
C261 N260 1.327 . S
C261 H268 0.930 . S
C262 C257 1.385 . S
C262 C259 1.370 . S
C262 H281 0.930 . S
Tb263 N260 2.600 . S
Tb263 N264 2.660 . S
Tb263 O297 2.362 . S
Tb263 O298 2.421 . S
Tb263 O302 2.546 1_455 S
Tb263 O303 2.610 . S
Tb263 O305 2.320 . S
Tb263 O306 2.552 1_455 S
Tb263 O307 2.413 1_455 S
Tb263 C327 2.833 1_455 S
N264 C256 1.360 . S
N264 Tb263 2.660 . S
N264 C265 1.305 . S
C265 N264 1.305 . S
C265 C267 1.407 . S
C265 H272 0.930 . S
C266 C254 1.410 . S
C266 C267 1.345 . S
C266 H274 0.930 . S
C267 C265 1.407 . S
C267 C266 1.345 . S
C267 H269 0.930 . S
H268 C261 0.930 . S
H269 C267 0.930 . S
H270 C258 0.930 . S
H271 C259 0.931 . S
H272 C265 0.930 . S
H273 C287 0.930 . S
H274 C266 0.930 . S
H275 C293 0.930 . S
H276 C284 0.930 . S
H277 C291 0.931 . S
H278 C255 0.929 . S
H279 C285 0.930 1_655 S
H280 C318 0.930 1_655 S
H281 C262 0.930 . S
H282 C317 0.929 . S
N283 Tb252 2.660 . S
N283 C284 1.305 . S
N283 C288 1.360 . S
C284 H276 0.930 . S
C284 N283 1.305 . S
C284 C287 1.407 . S
C285 H279 0.930 1_455 S
C285 C286 1.410 . S
C285 C287 1.345 . S
C286 C285 1.410 . S
C286 C288 1.417 . S
C286 C318 1.432 . S
C287 H273 0.930 . S
C287 C284 1.407 . S
C287 C285 1.345 . S
C288 N283 1.360 . S
C288 C286 1.417 . S
C288 C292 1.432 . S
H289 C294 0.930 . S
N290 Tb252 2.600 . S
N290 C292 1.359 . S
N290 C293 1.327 . S
C291 H277 0.931 . S
C291 C293 1.392 . S
C291 C294 1.370 . S
C292 C288 1.432 . S
C292 N290 1.359 . S
C292 C295 1.414 . S
C293 H275 0.930 . S
C293 N290 1.327 . S
C293 C291 1.392 . S
C294 H289 0.930 . S
C294 C291 1.370 . S
C294 C295 1.385 . S
C295 C292 1.414 . S
C295 C294 1.385 . S
C295 C317 1.444 . S
O296 Tb252 2.546 . S
O296 C316 1.251 . S
O297 Tb252 2.610 . S
O297 Tb263 2.362 . S
O297 C308 1.283 . S
O298 Tb263 2.421 . S
O298 C315 1.262 . S
O299 Tb252 2.320 . S
O299 C315 1.260 . S
O300 Tb252 2.552 . S
O300 C308 1.243 . S
O301 Tb252 2.413 . S
O301 C316 1.256 . S
O302 Tb263 2.546 1_655 S
O302 C327 1.251 . S
O303 Tb252 2.362 . S
O303 Tb263 2.610 . S
O303 C319 1.283 1_455 S
O304 Tb252 2.421 . S
O304 C326 1.262 . S
O305 Tb263 2.320 . S
O305 C326 1.260 . S
O306 Tb263 2.552 1_655 S
O306 C319 1.243 . S
O307 Tb263 2.413 1_655 S
O307 C327 1.256 . S
C308 O297 1.283 . S
C308 O300 1.243 . S
C309 C311 1.382 . S
C309 C313 1.393 . S
C309 C316 1.500 . S
C310 C311 1.400 . S
C310 C312 1.384 . S
C311 C309 1.382 . S
C311 C310 1.400 . S
C311 H328 0.930 . S
C312 C310 1.384 . S
C312 C314 1.392 . S
C312 H329 0.931 . S
C313 C309 1.393 . S
C313 C314 1.401 . S
C313 H330 0.930 . S
C314 C312 1.392 . S
C314 C313 1.401 . S
C314 H331 0.930 . S
C315 O298 1.262 . S
C315 O299 1.260 . S
C316 Tb252 2.833 . S
C316 O296 1.251 . S
C316 O301 1.256 . S
C316 C309 1.500 . S
C317 H282 0.929 . S
C317 C295 1.444 . S
C317 C318 1.317 . S
C318 H280 0.930 1_455 S
C318 C286 1.432 . S
C318 C317 1.317 . S
C319 O303 1.283 1_655 S
C319 O306 1.243 . S
C320 C321 1.382 . S
C320 C324 1.393 . S
C320 C327 1.500 . S
C321 C320 1.382 . S
C321 C322 1.400 . S
C321 H332 0.930 . S
C322 C321 1.400 . S
C322 C323 1.384 . S
C323 C322 1.384 . S
C323 C325 1.392 . S
C323 H333 0.931 . S
C324 C320 1.393 . S
C324 C325 1.401 . S
C324 H334 0.930 . S
C325 C323 1.392 . S
C325 C324 1.401 . S
C325 H335 0.930 . S
C326 O304 1.262 . S
C326 O305 1.260 . S
C327 Tb263 2.833 1_655 S
C327 O302 1.251 . S
C327 O307 1.256 . S
C327 C320 1.500 . S
H328 C311 0.930 . S
H329 C312 0.931 . S
H330 C313 0.930 . S
H331 C314 0.930 . S
H332 C321 0.930 . S
H333 C323 0.931 . S
H334 C324 0.930 . S
H335 C325 0.930 . S
Tb336 N367 2.660 . S
Tb336 N374 2.600 . S
Tb336 O380 2.546 . S
Tb336 O381 2.610 . S
Tb336 O383 2.320 . S
Tb336 O384 2.552 . S
Tb336 O385 2.413 . S
Tb336 O387 2.362 . S
Tb336 O388 2.421 . S
Tb336 C400 2.833 . S
C337 C340 1.432 . S
C337 C341 1.414 . S
C337 N344 1.359 . S
C338 C340 1.417 . S
C338 C342 1.432 . S
C338 C350 1.410 . S
C339 C341 1.444 . S
C339 C342 1.317 . S
C339 H362 0.929 . S
C340 C337 1.432 . S
C340 C338 1.417 . S
C340 N348 1.360 . S
C341 C337 1.414 . S
C341 C339 1.444 . S
C341 C346 1.385 . S
C342 C338 1.432 . S
C342 C339 1.317 . S
C342 H354 0.930 . S
C343 C345 1.392 . S
C343 C346 1.370 . S
C343 H355 0.931 . S
N344 C337 1.359 . S
N344 C345 1.327 . S
N344 Tb347 2.600 . S
C345 C343 1.392 . S
C345 N344 1.327 . S
C345 H352 0.930 . S
C346 C341 1.385 . S
C346 C343 1.370 . S
C346 H365 0.930 . S
Tb347 N344 2.600 . S
Tb347 N348 2.660 . S
Tb347 O381 2.362 . S
Tb347 O382 2.421 . S
Tb347 O386 2.546 . S
Tb347 O387 2.610 . S
Tb347 O389 2.320 . S
Tb347 O390 2.552 . S
Tb347 O391 2.413 . S
Tb347 C411 2.833 . S
N348 C340 1.360 . S
N348 Tb347 2.660 . S
N348 C349 1.305 . S
C349 N348 1.305 . S
C349 C351 1.407 . S
C349 H356 0.930 . S
C350 C338 1.410 . S
C350 C351 1.345 . S
C350 H358 0.930 . S
C351 C349 1.407 . S
C351 C350 1.345 . S
C351 H353 0.930 . S
H352 C345 0.930 . S
H353 C351 0.930 . S
H354 C342 0.930 . S
H355 C343 0.931 . S
H356 C349 0.930 . S
H357 C371 0.930 . S
H358 C350 0.930 . S
H359 C377 0.930 . S
H360 C368 0.930 . S
H361 C375 0.931 . S
H362 C339 0.929 . S
H363 C369 0.930 . S
H364 C402 0.930 . S
H365 C346 0.930 . S
H366 C401 0.929 . S
N367 Tb336 2.660 . S
N367 C368 1.305 . S
N367 C372 1.360 . S
C368 H360 0.930 . S
C368 N367 1.305 . S
C368 C371 1.407 . S
C369 H363 0.930 . S
C369 C370 1.410 . S
C369 C371 1.345 . S
C370 C369 1.410 . S
C370 C372 1.417 . S
C370 C402 1.432 . S
C371 H357 0.930 . S
C371 C368 1.407 . S
C371 C369 1.345 . S
C372 N367 1.360 . S
C372 C370 1.417 . S
C372 C376 1.432 . S
H373 C378 0.930 . S
N374 Tb336 2.600 . S
N374 C376 1.359 . S
N374 C377 1.327 . S
C375 H361 0.931 . S
C375 C377 1.392 . S
C375 C378 1.370 . S
C376 C372 1.432 . S
C376 N374 1.359 . S
C376 C379 1.414 . S
C377 H359 0.930 . S
C377 N374 1.327 . S
C377 C375 1.392 . S
C378 H373 0.930 . S
C378 C375 1.370 . S
C378 C379 1.385 . S
C379 C376 1.414 . S
C379 C378 1.385 . S
C379 C401 1.444 . S
O380 Tb336 2.546 . S
O380 C400 1.251 . S
O381 Tb336 2.610 . S
O381 Tb347 2.362 . S
O381 C392 1.283 . S
O382 Tb347 2.421 . S
O382 C399 1.262 . S
O383 Tb336 2.320 . S
O383 C399 1.260 . S
O384 Tb336 2.552 . S
O384 C392 1.243 . S
O385 Tb336 2.413 . S
O385 C400 1.256 . S
O386 Tb347 2.546 . S
O386 C411 1.251 . S
O387 Tb336 2.362 . S
O387 Tb347 2.610 . S
O387 C403 1.283 . S
O388 Tb336 2.421 . S
O388 C410 1.262 . S
O389 Tb347 2.320 . S
O389 C410 1.260 . S
O390 Tb347 2.552 . S
O390 C403 1.243 . S
O391 Tb347 2.413 . S
O391 C411 1.256 . S
C392 O381 1.283 . S
C392 O384 1.243 . S
C393 C395 1.382 . S
C393 C397 1.393 . S
C393 C400 1.500 . S
C394 C395 1.400 . S
C394 C396 1.384 . S
C395 C393 1.382 . S
C395 C394 1.400 . S
C395 H412 0.930 . S
C396 C394 1.384 . S
C396 C398 1.392 . S
C396 H413 0.931 1_565 S
C397 C393 1.393 . S
C397 C398 1.401 . S
C397 H414 0.930 . S
C398 C396 1.392 . S
C398 C397 1.401 . S
C398 H415 0.930 . S
C399 O382 1.262 . S
C399 O383 1.260 . S
C400 Tb336 2.833 . S
C400 O380 1.251 . S
C400 O385 1.256 . S
C400 C393 1.500 . S
C401 H366 0.929 . S
C401 C379 1.444 . S
C401 C402 1.317 . S
C402 H364 0.930 . S
C402 C370 1.432 . S
C402 C401 1.317 . S
C403 O387 1.283 . S
C403 O390 1.243 . S
C404 C405 1.382 . S
C404 C408 1.393 . S
C404 C411 1.500 . S
C405 C404 1.382 . S
C405 C406 1.400 . S
C405 H416 0.930 . S
C406 C405 1.400 . S
C406 C407 1.384 . S
C407 C406 1.384 . S
C407 C409 1.392 . S
C407 H417 0.931 . S
C408 C404 1.393 . S
C408 C409 1.401 . S
C408 H418 0.930 . S
C409 C407 1.392 . S
C409 C408 1.401 . S
C409 H419 0.930 . S
C410 O388 1.262 . S
C410 O389 1.260 . S
C411 Tb347 2.833 . S
C411 O386 1.251 . S
C411 O391 1.256 . S
C411 C404 1.500 . S
H412 C395 0.930 . S
H413 C396 0.931 1_545 S
H414 C397 0.930 . S
H415 C398 0.930 . S
H416 C405 0.930 . S
H417 C407 0.931 . S
H418 C408 0.930 . S
H419 C409 0.930 . S
Tb420 N451 2.660 . S
Tb420 N458 2.600 . S
Tb420 O464 2.546 1_545 S
Tb420 O465 2.610 1_545 S
Tb420 O467 2.320 . S
Tb420 O468 2.552 1_545 S
Tb420 O469 2.413 1_545 S
Tb420 O471 2.362 . S
Tb420 O472 2.421 . S
Tb420 C484 2.833 1_545 S
C421 C424 1.432 . S
C421 C425 1.414 . S
C421 N428 1.359 . S
C422 C424 1.417 1_565 S
C422 C426 1.432 . S
C422 C434 1.410 . S
C423 C425 1.444 1_565 S
C423 C426 1.317 . S
C423 H446 0.929 . S
C424 C421 1.432 . S
C424 C422 1.417 1_545 S
C424 N432 1.360 . S
C425 C421 1.414 . S
C425 C423 1.444 1_545 S
C425 C430 1.385 . S
C426 C422 1.432 . S
C426 C423 1.317 . S
C426 H438 0.930 . S
C427 C429 1.392 . S
C427 C430 1.370 . S
C427 H439 0.931 . S
N428 C421 1.359 . S
N428 C429 1.327 . S
N428 Tb431 2.600 . S
C429 C427 1.392 . S
C429 N428 1.327 . S
C429 H436 0.930 . S
C430 C425 1.385 . S
C430 C427 1.370 . S
C430 H449 0.930 . S
Tb431 N428 2.600 . S
Tb431 N432 2.660 . S
Tb431 O465 2.362 1_545 S
Tb431 O466 2.421 . S
Tb431 O470 2.546 . S
Tb431 O471 2.610 . S
Tb431 O473 2.320 . S
Tb431 O474 2.552 . S
Tb431 O475 2.413 . S
Tb431 C495 2.833 . S
N432 C424 1.360 . S
N432 Tb431 2.660 . S
N432 C433 1.305 . S
C433 N432 1.305 . S
C433 C435 1.407 1_545 S
C433 H440 0.930 . S
C434 C422 1.410 . S
C434 C435 1.345 . S
C434 H442 0.930 . S
C435 C433 1.407 1_565 S
C435 C434 1.345 . S
C435 H437 0.930 . S
H436 C429 0.930 . S
H437 C435 0.930 . S
H438 C426 0.930 . S
H439 C427 0.931 . S
H440 C433 0.930 . S
H441 C455 0.930 . S
H442 C434 0.930 . S
H443 C461 0.930 . S
H444 C452 0.930 . S
H445 C459 0.931 . S
H446 C423 0.929 . S
H447 C453 0.930 . S
H448 C486 0.930 . S
H449 C430 0.930 . S
H450 C485 0.929 . S
N451 Tb420 2.660 . S
N451 C452 1.305 . S
N451 C456 1.360 . S
C452 H444 0.930 . S
C452 N451 1.305 . S
C452 C455 1.407 . S
C453 H447 0.930 . S
C453 C454 1.410 . S
C453 C455 1.345 . S
C454 C453 1.410 . S
C454 C456 1.417 . S
C454 C486 1.432 . S
C455 H441 0.930 . S
C455 C452 1.407 . S
C455 C453 1.345 . S
C456 N451 1.360 . S
C456 C454 1.417 . S
C456 C460 1.432 . S
H457 C462 0.930 . S
N458 Tb420 2.600 . S
N458 C460 1.359 . S
N458 C461 1.327 . S
C459 H445 0.931 . S
C459 C461 1.392 . S
C459 C462 1.370 . S
C460 C456 1.432 . S
C460 N458 1.359 . S
C460 C463 1.414 . S
C461 H443 0.930 . S
C461 N458 1.327 . S
C461 C459 1.392 . S
C462 H457 0.930 . S
C462 C459 1.370 . S
C462 C463 1.385 . S
C463 C460 1.414 . S
C463 C462 1.385 . S
C463 C485 1.444 . S
O464 Tb420 2.546 1_565 S
O464 C484 1.251 . S
O465 Tb420 2.610 1_565 S
O465 Tb431 2.362 1_565 S
O465 C476 1.283 . S
O466 Tb431 2.421 . S
O466 C483 1.262 . S
O467 Tb420 2.320 . S
O467 C483 1.260 . S
O468 Tb420 2.552 1_565 S
O468 C476 1.243 . S
O469 Tb420 2.413 1_565 S
O469 C484 1.256 . S
O470 Tb431 2.546 . S
O470 C495 1.251 . S
O471 Tb420 2.362 . S
O471 Tb431 2.610 . S
O471 C487 1.283 . S
O472 Tb420 2.421 . S
O472 C494 1.262 . S
O473 Tb431 2.320 . S
O473 C494 1.260 . S
O474 Tb431 2.552 . S
O474 C487 1.243 . S
O475 Tb431 2.413 . S
O475 C495 1.256 . S
C476 O465 1.283 . S
C476 O468 1.243 . S
C477 C479 1.382 . S
C477 C481 1.393 . S
C477 C484 1.500 . S
C478 C479 1.400 . S
C478 C480 1.384 . S
C479 C477 1.382 . S
C479 C478 1.400 . S
C479 H496 0.930 . S
C480 C478 1.384 . S
C480 C482 1.392 . S
C480 H497 0.931 . S
C481 C477 1.393 . S
C481 C482 1.401 . S
C481 H498 0.930 . S
C482 C480 1.392 . S
C482 C481 1.401 . S
C482 H499 0.930 . S
C483 O466 1.262 . S
C483 O467 1.260 . S
C484 Tb420 2.833 1_565 S
C484 O464 1.251 . S
C484 O469 1.256 . S
C484 C477 1.500 . S
C485 H450 0.929 . S
C485 C463 1.444 . S
C485 C486 1.317 . S
C486 H448 0.930 . S
C486 C454 1.432 . S
C486 C485 1.317 . S
C487 O471 1.283 . S
C487 O474 1.243 . S
C488 C489 1.382 . S
C488 C492 1.393 . S
C488 C495 1.500 . S
C489 C488 1.382 . S
C489 C490 1.400 . S
C489 H500 0.930 . S
C490 C489 1.400 . S
C490 C491 1.384 . S
C491 C490 1.384 . S
C491 C493 1.392 . S
C491 H501 0.931 . S
C492 C488 1.393 . S
C492 C493 1.401 . S
C492 H502 0.930 . S
C493 C491 1.392 . S
C493 C492 1.401 . S
C493 H503 0.930 . S
C494 O472 1.262 . S
C494 O473 1.260 . S
C495 Tb431 2.833 . S
C495 O470 1.251 . S
C495 O475 1.256 . S
C495 C488 1.500 . S
H496 C479 0.930 . S
H497 C480 0.931 . S
H498 C481 0.930 . S
H499 C482 0.930 . S
H500 C489 0.930 . S
H501 C491 0.931 . S
H502 C492 0.930 . S
H503 C493 0.930 . S
Tb504 N535 2.660 . S
Tb504 N542 2.600 . S
Tb504 O548 2.546 . S
Tb504 O549 2.610 . S
Tb504 O551 2.320 . S
Tb504 O552 2.552 . S
Tb504 O553 2.413 . S
Tb504 O555 2.362 1_545 S
Tb504 O556 2.421 . S
Tb504 C568 2.833 . S
C505 C508 1.432 . S
C505 C509 1.414 1_556 S
C505 N512 1.359 . S
C506 C508 1.417 . S
C506 C510 1.432 . S
C506 C518 1.410 . S
C507 C509 1.444 . S
C507 C510 1.317 1_554 S
C507 H530 0.929 . S
C508 C505 1.432 . S
C508 C506 1.417 . S
C508 N516 1.360 . S
C509 C505 1.414 1_554 S
C509 C507 1.444 . S
C509 C514 1.385 . S
C510 C506 1.432 . S
C510 C507 1.317 1_556 S
C510 H522 0.930 . S
C511 C513 1.392 . S
C511 C514 1.370 . S
C511 H523 0.931 . S
N512 C505 1.359 . S
N512 C513 1.327 1_556 S
N512 Tb515 2.600 . S
C513 C511 1.392 . S
C513 N512 1.327 1_554 S
C513 H520 0.930 . S
C514 C509 1.385 . S
C514 C511 1.370 . S
C514 H533 0.930 . S
Tb515 N512 2.600 . S
Tb515 N516 2.660 . S
Tb515 O549 2.362 . S
Tb515 O550 2.421 . S
Tb515 O554 2.546 1_545 S
Tb515 O555 2.610 1_545 S
Tb515 O557 2.320 . S
Tb515 O558 2.552 1_545 S
Tb515 O559 2.413 1_545 S
Tb515 C579 2.833 1_545 S
N516 C508 1.360 . S
N516 Tb515 2.660 . S
N516 C517 1.305 . S
C517 N516 1.305 . S
C517 C519 1.407 . S
C517 H524 0.930 . S
C518 C506 1.410 . S
C518 C519 1.345 . S
C518 H526 0.930 . S
C519 C517 1.407 . S
C519 C518 1.345 . S
C519 H521 0.930 . S
H520 C513 0.930 . S
H521 C519 0.930 . S
H522 C510 0.930 . S
H523 C511 0.931 . S
H524 C517 0.930 . S
H525 C539 0.930 . S
H526 C518 0.930 . S
H527 C545 0.930 . S
H528 C536 0.930 . S
H529 C543 0.931 . S
H530 C507 0.929 . S
H531 C537 0.930 . S
H532 C570 0.930 . S
H533 C514 0.930 . S
H534 C569 0.929 . S
N535 Tb504 2.660 . S
N535 C536 1.305 . S
N535 C540 1.360 . S
C536 H528 0.930 . S
C536 N535 1.305 . S
C536 C539 1.407 1_545 S
C537 H531 0.930 . S
C537 C538 1.410 . S
C537 C539 1.345 . S
C538 C537 1.410 . S
C538 C540 1.417 1_565 S
C538 C570 1.432 . S
C539 H525 0.930 . S
C539 C536 1.407 1_565 S
C539 C537 1.345 . S
C540 N535 1.360 . S
C540 C538 1.417 1_545 S
C540 C544 1.432 . S
H541 C546 0.930 . S
N542 Tb504 2.600 . S
N542 C544 1.359 . S
N542 C545 1.327 . S
C543 H529 0.931 . S
C543 C545 1.392 . S
C543 C546 1.370 . S
C544 C540 1.432 . S
C544 N542 1.359 . S
C544 C547 1.414 . S
C545 H527 0.930 . S
C545 N542 1.327 . S
C545 C543 1.392 . S
C546 H541 0.930 . S
C546 C543 1.370 . S
C546 C547 1.385 . S
C547 C544 1.414 . S
C547 C546 1.385 . S
C547 C569 1.444 1_545 S
O548 Tb504 2.546 . S
O548 C568 1.251 . S
O549 Tb504 2.610 . S
O549 Tb515 2.362 . S
O549 C560 1.283 . S
O550 Tb515 2.421 . S
O550 C567 1.262 . S
O551 Tb504 2.320 . S
O551 C567 1.260 . S
O552 Tb504 2.552 . S
O552 C560 1.243 . S
O553 Tb504 2.413 . S
O553 C568 1.256 . S
O554 Tb515 2.546 1_565 S
O554 C579 1.251 . S
O555 Tb504 2.362 1_565 S
O555 Tb515 2.610 1_565 S
O555 C571 1.283 . S
O556 Tb504 2.421 . S
O556 C578 1.262 . S
O557 Tb515 2.320 . S
O557 C578 1.260 . S
O558 Tb515 2.552 1_565 S
O558 C571 1.243 . S
O559 Tb515 2.413 1_565 S
O559 C579 1.256 . S
C560 O549 1.283 . S
C560 O552 1.243 . S
C561 C563 1.382 . S
C561 C565 1.393 . S
C561 C568 1.500 . S
C562 C563 1.400 . S
C562 C564 1.384 . S
C563 C561 1.382 . S
C563 C562 1.400 . S
C563 H580 0.930 . S
C564 C562 1.384 . S
C564 C566 1.392 . S
C564 H581 0.931 . S
C565 C561 1.393 . S
C565 C566 1.401 . S
C565 H582 0.930 . S
C566 C564 1.392 . S
C566 C565 1.401 . S
C566 H583 0.930 . S
C567 O550 1.262 . S
C567 O551 1.260 . S
C568 Tb504 2.833 . S
C568 O548 1.251 . S
C568 O553 1.256 . S
C568 C561 1.500 . S
C569 H534 0.929 . S
C569 C547 1.444 1_565 S
C569 C570 1.317 . S
C570 H532 0.930 . S
C570 C538 1.432 . S
C570 C569 1.317 . S
C571 O555 1.283 . S
C571 O558 1.243 . S
C572 C573 1.382 . S
C572 C576 1.393 . S
C572 C579 1.500 . S
C573 C572 1.382 . S
C573 C574 1.400 . S
C573 H584 0.930 . S
C574 C573 1.400 . S
C574 C575 1.384 . S
C575 C574 1.384 . S
C575 C577 1.392 . S
C575 H585 0.931 . S
C576 C572 1.393 . S
C576 C577 1.401 . S
C576 H586 0.930 1_556 S
C577 C575 1.392 . S
C577 C576 1.401 . S
C577 H587 0.930 1_556 S
C578 O556 1.262 . S
C578 O557 1.260 . S
C579 Tb515 2.833 1_565 S
C579 O554 1.251 . S
C579 O559 1.256 . S
C579 C572 1.500 . S
H580 C563 0.930 . S
H581 C564 0.931 . S
H582 C565 0.930 . S
H583 C566 0.930 . S
H584 C573 0.930 . S
H585 C575 0.931 . S
H586 C576 0.930 1_554 S
H587 C577 0.930 1_554 S
Tb588 N619 2.660 . S
Tb588 N626 2.600 . S
Tb588 O632 2.546 1_455 S
Tb588 O633 2.610 . S
Tb588 O635 2.320 . S
Tb588 O636 2.552 1_455 S
Tb588 O637 2.413 1_455 S
Tb588 O639 2.362 . S
Tb588 O640 2.421 . S
Tb588 C652 2.833 1_455 S
C589 C592 1.432 . S
C589 C593 1.414 1_556 S
C589 N596 1.359 . S
C590 C592 1.417 . S
C590 C594 1.432 . S
C590 C602 1.410 . S
C591 C593 1.444 . S
C591 C594 1.317 1_554 S
C591 H614 0.929 . S
C592 C589 1.432 . S
C592 C590 1.417 . S
C592 N600 1.360 . S
C593 C589 1.414 1_554 S
C593 C591 1.444 . S
C593 C598 1.385 . S
C594 C590 1.432 . S
C594 C591 1.317 1_556 S
C594 H606 0.930 1_455 S
C595 C597 1.392 . S
C595 C598 1.370 . S
C595 H607 0.931 . S
N596 C589 1.359 . S
N596 C597 1.327 1_556 S
N596 Tb599 2.600 . S
C597 C595 1.392 . S
C597 N596 1.327 1_554 S
C597 H604 0.930 . S
C598 C593 1.385 . S
C598 C595 1.370 . S
C598 H617 0.930 . S
Tb599 N596 2.600 . S
Tb599 N600 2.660 . S
Tb599 O633 2.362 . S
Tb599 O634 2.421 . S
Tb599 O638 2.546 . S
Tb599 O639 2.610 . S
Tb599 O641 2.320 . S
Tb599 O642 2.552 . S
Tb599 O643 2.413 . S
Tb599 C663 2.833 . S
N600 C592 1.360 . S
N600 Tb599 2.660 . S
N600 C601 1.305 . S
C601 N600 1.305 . S
C601 C603 1.407 . S
C601 H608 0.930 . S
C602 C590 1.410 . S
C602 C603 1.345 . S
C602 H610 0.930 1_455 S
C603 C601 1.407 . S
C603 C602 1.345 . S
C603 H605 0.930 . S
H604 C597 0.930 . S
H605 C603 0.930 . S
H606 C594 0.930 1_655 S
H607 C595 0.931 . S
H608 C601 0.930 . S
H609 C623 0.930 . S
H610 C602 0.930 1_655 S
H611 C629 0.930 . S
H612 C620 0.930 . S
H613 C627 0.931 . S
H614 C591 0.929 . S
H615 C621 0.930 . S
H616 C654 0.930 . S
H617 C598 0.930 . S
H618 C653 0.929 . S
N619 Tb588 2.660 . S
N619 C620 1.305 . S
N619 C624 1.360 . S
C620 H612 0.930 . S
C620 N619 1.305 . S
C620 C623 1.407 . S
C621 H615 0.930 . S
C621 C622 1.410 . S
C621 C623 1.345 . S
C622 C621 1.410 . S
C622 C624 1.417 . S
C622 C654 1.432 . S
C623 H609 0.930 . S
C623 C620 1.407 . S
C623 C621 1.345 . S
C624 N619 1.360 . S
C624 C622 1.417 . S
C624 C628 1.432 . S
H625 C630 0.930 . S
N626 Tb588 2.600 . S
N626 C628 1.359 . S
N626 C629 1.327 . S
C627 H613 0.931 . S
C627 C629 1.392 . S
C627 C630 1.370 . S
C628 C624 1.432 . S
C628 N626 1.359 . S
C628 C631 1.414 . S
C629 H611 0.930 . S
C629 N626 1.327 . S
C629 C627 1.392 . S
C630 H625 0.930 . S
C630 C627 1.370 . S
C630 C631 1.385 . S
C631 C628 1.414 . S
C631 C630 1.385 . S
C631 C653 1.444 . S
O632 Tb588 2.546 1_655 S
O632 C652 1.251 . S
O633 Tb588 2.610 . S
O633 Tb599 2.362 . S
O633 C644 1.283 1_455 S
O634 Tb599 2.421 . S
O634 C651 1.262 . S
O635 Tb588 2.320 . S
O635 C651 1.260 . S
O636 Tb588 2.552 1_655 S
O636 C644 1.243 . S
O637 Tb588 2.413 1_655 S
O637 C652 1.256 . S
O638 Tb599 2.546 . S
O638 C663 1.251 . S
O639 Tb588 2.362 . S
O639 Tb599 2.610 . S
O639 C655 1.283 . S
O640 Tb588 2.421 . S
O640 C662 1.262 . S
O641 Tb599 2.320 . S
O641 C662 1.260 . S
O642 Tb599 2.552 . S
O642 C655 1.243 . S
O643 Tb599 2.413 . S
O643 C663 1.256 . S
C644 O633 1.283 1_655 S
C644 O636 1.243 . S
C645 C647 1.382 . S
C645 C649 1.393 . S
C645 C652 1.500 . S
C646 C647 1.400 . S
C646 C648 1.384 . S
C647 C645 1.382 . S
C647 C646 1.400 . S
C647 H664 0.930 . S
C648 C646 1.384 . S
C648 C650 1.392 . S
C648 H665 0.931 . S
C649 C645 1.393 . S
C649 C650 1.401 . S
C649 H666 0.930 . S
C650 C648 1.392 . S
C650 C649 1.401 . S
C650 H667 0.930 . S
C651 O634 1.262 . S
C651 O635 1.260 . S
C652 Tb588 2.833 1_655 S
C652 O632 1.251 . S
C652 O637 1.256 . S
C652 C645 1.500 . S
C653 H618 0.929 . S
C653 C631 1.444 . S
C653 C654 1.317 . S
C654 H616 0.930 . S
C654 C622 1.432 . S
C654 C653 1.317 . S
C655 O639 1.283 . S
C655 O642 1.243 . S
C656 C657 1.382 . S
C656 C660 1.393 . S
C656 C663 1.500 . S
C657 C656 1.382 . S
C657 C658 1.400 . S
C657 H668 0.930 . S
C658 C657 1.400 . S
C658 C659 1.384 . S
C659 C658 1.384 . S
C659 C661 1.392 . S
C659 H669 0.931 1_565 S
C660 C656 1.393 . S
C660 C661 1.401 . S
C660 H670 0.930 1_556 S
C661 C659 1.392 . S
C661 C660 1.401 . S
C661 H671 0.930 1_556 S
C662 O640 1.262 . S
C662 O641 1.260 . S
C663 Tb599 2.833 . S
C663 O638 1.251 . S
C663 O643 1.256 . S
C663 C656 1.500 . S
H664 C647 0.930 . S
H665 C648 0.931 . S
H666 C649 0.930 . S
H667 C650 0.930 . S
H668 C657 0.930 . S
H669 C659 0.931 1_545 S
H670 C660 0.930 1_554 S
H671 C661 0.930 1_554 S
Tb672 N703 2.660 . S
Tb672 N710 2.600 . S
Tb672 O716 2.546 . S
Tb672 O717 2.610 . S
Tb672 O719 2.320 . S
Tb672 O720 2.552 . S
Tb672 O721 2.413 . S
Tb672 O723 2.362 . S
Tb672 O724 2.421 . S
Tb672 C736 2.833 . S
C673 C676 1.432 . S
C673 C677 1.414 1_556 S
C673 N680 1.359 . S
C674 C676 1.417 . S
C674 C678 1.432 . S
C674 C686 1.410 . S
C675 C677 1.444 . S
C675 C678 1.317 1_554 S
C675 H698 0.929 . S
C676 C673 1.432 . S
C676 C674 1.417 . S
C676 N684 1.360 . S
C677 C673 1.414 1_554 S
C677 C675 1.444 . S
C677 C682 1.385 . S
C678 C674 1.432 . S
C678 C675 1.317 1_556 S
C678 H690 0.930 . S
C679 C681 1.392 . S
C679 C682 1.370 . S
C679 H691 0.931 . S
N680 C673 1.359 . S
N680 C681 1.327 1_556 S
N680 Tb683 2.600 . S
C681 C679 1.392 . S
C681 N680 1.327 1_554 S
C681 H688 0.930 . S
C682 C677 1.385 . S
C682 C679 1.370 . S
C682 H701 0.930 . S
Tb683 N680 2.600 . S
Tb683 N684 2.660 . S
Tb683 O717 2.362 . S
Tb683 O718 2.421 . S
Tb683 O722 2.546 . S
Tb683 O723 2.610 . S
Tb683 O725 2.320 . S
Tb683 O726 2.552 . S
Tb683 O727 2.413 . S
Tb683 C747 2.833 . S
N684 C676 1.360 . S
N684 Tb683 2.660 . S
N684 C685 1.305 . S
C685 N684 1.305 . S
C685 C687 1.407 . S
C685 H692 0.930 . S
C686 C674 1.410 . S
C686 C687 1.345 . S
C686 H694 0.930 . S
C687 C685 1.407 . S
C687 C686 1.345 . S
C687 H689 0.930 . S
H688 C681 0.930 . S
H689 C687 0.930 . S
H690 C678 0.930 . S
H691 C679 0.931 . S
H692 C685 0.930 . S
H693 C707 0.930 . S
H694 C686 0.930 . S
H695 C713 0.930 . S
H696 C704 0.930 . S
H697 C711 0.931 . S
H698 C675 0.929 . S
H699 C705 0.930 . S
H700 C738 0.930 . S
H701 C682 0.930 . S
H702 C737 0.929 . S
N703 Tb672 2.660 . S
N703 C704 1.305 . S
N703 C708 1.360 . S
C704 H696 0.930 . S
C704 N703 1.305 . S
C704 C707 1.407 . S
C705 H699 0.930 . S
C705 C706 1.410 . S
C705 C707 1.345 . S
C706 C705 1.410 . S
C706 C708 1.417 . S
C706 C738 1.432 . S
C707 H693 0.930 . S
C707 C704 1.407 . S
C707 C705 1.345 . S
C708 N703 1.360 . S
C708 C706 1.417 . S
C708 C712 1.432 . S
H709 C714 0.930 . S
N710 Tb672 2.600 . S
N710 C712 1.359 . S
N710 C713 1.327 . S
C711 H697 0.931 . S
C711 C713 1.392 . S
C711 C714 1.370 . S
C712 C708 1.432 . S
C712 N710 1.359 . S
C712 C715 1.414 . S
C713 H695 0.930 . S
C713 N710 1.327 . S
C713 C711 1.392 . S
C714 H709 0.930 . S
C714 C711 1.370 . S
C714 C715 1.385 . S
C715 C712 1.414 . S
C715 C714 1.385 . S
C715 C737 1.444 . S
O716 Tb672 2.546 . S
O716 C736 1.251 . S
O717 Tb672 2.610 . S
O717 Tb683 2.362 . S
O717 C728 1.283 . S
O718 Tb683 2.421 . S
O718 C735 1.262 . S
O719 Tb672 2.320 . S
O719 C735 1.260 . S
O720 Tb672 2.552 . S
O720 C728 1.243 . S
O721 Tb672 2.413 . S
O721 C736 1.256 . S
O722 Tb683 2.546 . S
O722 C747 1.251 . S
O723 Tb672 2.362 . S
O723 Tb683 2.610 . S
O723 C739 1.283 . S
O724 Tb672 2.421 . S
O724 C746 1.262 . S
O725 Tb683 2.320 . S
O725 C746 1.260 . S
O726 Tb683 2.552 . S
O726 C739 1.243 . S
O727 Tb683 2.413 . S
O727 C747 1.256 . S
C728 O717 1.283 . S
C728 O720 1.243 . S
C729 C731 1.382 . S
C729 C733 1.393 . S
C729 C736 1.500 . S
C730 C731 1.400 . S
C730 C732 1.384 . S
C731 C729 1.382 . S
C731 C730 1.400 . S
C731 H748 0.930 . S
C732 C730 1.384 . S
C732 C734 1.392 . S
C732 H749 0.931 . S
C733 C729 1.393 . S
C733 C734 1.401 . S
C733 H750 0.930 . S
C734 C732 1.392 . S
C734 C733 1.401 . S
C734 H751 0.930 . S
C735 O718 1.262 . S
C735 O719 1.260 . S
C736 Tb672 2.833 . S
C736 O716 1.251 . S
C736 O721 1.256 . S
C736 C729 1.500 . S
C737 H702 0.929 . S
C737 C715 1.444 . S
C737 C738 1.317 . S
C738 H700 0.930 . S
C738 C706 1.432 . S
C738 C737 1.317 . S
C739 O723 1.283 . S
C739 O726 1.243 . S
C740 C741 1.382 . S
C740 C744 1.393 . S
C740 C747 1.500 . S
C741 C740 1.382 . S
C741 C742 1.400 . S
C741 H752 0.930 . S
C742 C741 1.400 . S
C742 C743 1.384 . S
C743 C742 1.384 . S
C743 C745 1.392 . S
C743 H753 0.931 . S
C744 C740 1.393 . S
C744 C745 1.401 . S
C744 H754 0.930 1_556 S
C745 C743 1.392 . S
C745 C744 1.401 . S
C745 H755 0.930 1_556 S
C746 O724 1.262 . S
C746 O725 1.260 . S
C747 Tb683 2.833 . S
C747 O722 1.251 . S
C747 O727 1.256 . S
C747 C740 1.500 . S
H748 C731 0.930 . S
H749 C732 0.931 . S
H750 C733 0.930 . S
H751 C734 0.930 . S
H752 C741 0.930 . S
H753 C743 0.931 . S
H754 C744 0.930 1_554 S
H755 C745 0.930 1_554 S
Tb756 N787 2.660 . S
Tb756 N794 2.600 . S
Tb756 O800 2.546 . S
Tb756 O801 2.610 . S
Tb756 O803 2.320 . S
Tb756 O804 2.552 . S
Tb756 O805 2.413 . S
Tb756 O807 2.362 1_455 S
Tb756 O808 2.421 . S
Tb756 C820 2.833 . S
C757 C760 1.432 . S
C757 C761 1.414 . S
C757 N764 1.359 . S
C758 C760 1.417 . S
C758 C762 1.432 . S
C758 C770 1.410 . S
C759 C761 1.444 . S
C759 C762 1.317 . S
C759 H782 0.929 . S
C760 C757 1.432 . S
C760 C758 1.417 . S
C760 N768 1.360 . S
C761 C757 1.414 . S
C761 C759 1.444 . S
C761 C766 1.385 . S
C762 C758 1.432 . S
C762 C759 1.317 . S
C762 H774 0.930 . S
C763 C765 1.392 . S
C763 C766 1.370 . S
C763 H775 0.931 . S
N764 C757 1.359 . S
N764 C765 1.327 . S
N764 Tb767 2.600 . S
C765 C763 1.392 . S
C765 N764 1.327 . S
C765 H772 0.930 . S
C766 C761 1.385 . S
C766 C763 1.370 . S
C766 H785 0.930 . S
Tb767 N764 2.600 . S
Tb767 N768 2.660 . S
Tb767 O801 2.362 . S
Tb767 O802 2.421 . S
Tb767 O806 2.546 1_455 S
Tb767 O807 2.610 1_455 S
Tb767 O809 2.320 . S
Tb767 O810 2.552 1_455 S
Tb767 O811 2.413 1_455 S
Tb767 C831 2.833 1_455 S
N768 C760 1.360 . S
N768 Tb767 2.660 . S
N768 C769 1.305 . S
C769 N768 1.305 . S
C769 C771 1.407 . S
C769 H776 0.930 . S
C770 C758 1.410 . S
C770 C771 1.345 . S
C770 H778 0.930 . S
C771 C769 1.407 . S
C771 C770 1.345 . S
C771 H773 0.930 . S
H772 C765 0.930 . S
H773 C771 0.930 . S
H774 C762 0.930 . S
H775 C763 0.931 . S
H776 C769 0.930 . S
H777 C791 0.930 . S
H778 C770 0.930 . S
H779 C797 0.930 . S
H780 C788 0.930 . S
H781 C795 0.931 . S
H782 C759 0.929 . S
H783 C789 0.930 . S
H784 C822 0.930 . S
H785 C766 0.930 . S
H786 C821 0.929 . S
N787 Tb756 2.660 . S
N787 C788 1.305 . S
N787 C792 1.360 . S
C788 H780 0.930 . S
C788 N787 1.305 . S
C788 C791 1.407 1_455 S
C789 H783 0.930 . S
C789 C790 1.410 . S
C789 C791 1.345 . S
C790 C789 1.410 . S
C790 C792 1.417 1_655 S
C790 C822 1.432 . S
C791 H777 0.930 . S
C791 C788 1.407 1_655 S
C791 C789 1.345 . S
C792 N787 1.360 . S
C792 C790 1.417 1_455 S
C792 C796 1.432 . S
H793 C798 0.930 . S
N794 Tb756 2.600 . S
N794 C796 1.359 . S
N794 C797 1.327 . S
C795 H781 0.931 . S
C795 C797 1.392 . S
C795 C798 1.370 . S
C796 C792 1.432 . S
C796 N794 1.359 . S
C796 C799 1.414 . S
C797 H779 0.930 . S
C797 N794 1.327 . S
C797 C795 1.392 . S
C798 H793 0.930 . S
C798 C795 1.370 . S
C798 C799 1.385 . S
C799 C796 1.414 . S
C799 C798 1.385 . S
C799 C821 1.444 1_455 S
O800 Tb756 2.546 . S
O800 C820 1.251 . S
O801 Tb756 2.610 . S
O801 Tb767 2.362 . S
O801 C812 1.283 . S
O802 Tb767 2.421 . S
O802 C819 1.262 . S
O803 Tb756 2.320 . S
O803 C819 1.260 . S
O804 Tb756 2.552 . S
O804 C812 1.243 . S
O805 Tb756 2.413 . S
O805 C820 1.256 . S
O806 Tb767 2.546 1_655 S
O806 C831 1.251 . S
O807 Tb756 2.362 1_655 S
O807 Tb767 2.610 1_655 S
O807 C823 1.283 . S
O808 Tb756 2.421 . S
O808 C830 1.262 . S
O809 Tb767 2.320 . S
O809 C830 1.260 . S
O810 Tb767 2.552 1_655 S
O810 C823 1.243 . S
O811 Tb767 2.413 1_655 S
O811 C831 1.256 . S
C812 O801 1.283 . S
C812 O804 1.243 . S
C813 C815 1.382 . S
C813 C817 1.393 . S
C813 C820 1.500 . S
C814 C815 1.400 . S
C814 C816 1.384 . S
C815 C813 1.382 . S
C815 C814 1.400 . S
C815 H832 0.930 . S
C816 C814 1.384 . S
C816 C818 1.392 . S
C816 H833 0.931 . S
C817 C813 1.393 . S
C817 C818 1.401 . S
C817 H834 0.930 . S
C818 C816 1.392 . S
C818 C817 1.401 . S
C818 H835 0.930 . S
C819 O802 1.262 . S
C819 O803 1.260 . S
C820 Tb756 2.833 . S
C820 O800 1.251 . S
C820 O805 1.256 . S
C820 C813 1.500 . S
C821 H786 0.929 . S
C821 C799 1.444 1_655 S
C821 C822 1.317 . S
C822 H784 0.930 . S
C822 C790 1.432 . S
C822 C821 1.317 . S
C823 O807 1.283 . S
C823 O810 1.243 . S
C824 C825 1.382 . S
C824 C828 1.393 . S
C824 C831 1.500 . S
C825 C824 1.382 . S
C825 C826 1.400 . S
C825 H836 0.930 . S
C826 C825 1.400 . S
C826 C827 1.384 . S
C827 C826 1.384 . S
C827 C829 1.392 . S
C827 H837 0.931 . S
C828 C824 1.393 . S
C828 C829 1.401 . S
C828 H838 0.930 . S
C829 C827 1.392 . S
C829 C828 1.401 . S
C829 H839 0.930 . S
C830 O808 1.262 . S
C830 O809 1.260 . S
C831 Tb767 2.833 1_655 S
C831 O806 1.251 . S
C831 O811 1.256 . S
C831 C824 1.500 . S
H832 C815 0.930 . S
H833 C816 0.931 . S
H834 C817 0.930 . S
H835 C818 0.930 . S
H836 C825 0.930 . S
H837 C827 0.931 . S
H838 C828 0.930 . S
H839 C829 0.930 . S
Tb840 N871 2.660 . S
Tb840 N878 2.600 . S
Tb840 O884 2.546 . S
Tb840 O885 2.610 . S
Tb840 O887 2.320 . S
Tb840 O888 2.552 . S
Tb840 O889 2.413 . S
Tb840 O891 2.362 . S
Tb840 O892 2.421 . S
Tb840 C904 2.833 . S
C841 C844 1.432 . S
C841 C845 1.414 . S
C841 N848 1.359 . S
C842 C844 1.417 . S
C842 C846 1.432 . S
C842 C854 1.410 . S
C843 C845 1.444 . S
C843 C846 1.317 . S
C843 H866 0.929 . S
C844 C841 1.432 . S
C844 C842 1.417 . S
C844 N852 1.360 . S
C845 C841 1.414 . S
C845 C843 1.444 . S
C845 C850 1.385 . S
C846 C842 1.432 . S
C846 C843 1.317 . S
C846 H858 0.930 . S
C847 C849 1.392 . S
C847 C850 1.370 . S
C847 H859 0.931 . S
N848 C841 1.359 . S
N848 C849 1.327 . S
N848 Tb851 2.600 . S
C849 C847 1.392 . S
C849 N848 1.327 . S
C849 H856 0.930 . S
C850 C845 1.385 . S
C850 C847 1.370 . S
C850 H869 0.930 . S
Tb851 N848 2.600 . S
Tb851 N852 2.660 . S
Tb851 O885 2.362 . S
Tb851 O886 2.421 . S
Tb851 O890 2.546 . S
Tb851 O891 2.610 . S
Tb851 O893 2.320 . S
Tb851 O894 2.552 . S
Tb851 O895 2.413 . S
Tb851 C915 2.833 . S
N852 C844 1.360 . S
N852 Tb851 2.660 . S
N852 C853 1.305 . S
C853 N852 1.305 . S
C853 C855 1.407 . S
C853 H860 0.930 . S
C854 C842 1.410 . S
C854 C855 1.345 . S
C854 H862 0.930 . S
C855 C853 1.407 . S
C855 C854 1.345 . S
C855 H857 0.930 . S
H856 C849 0.930 . S
H857 C855 0.930 . S
H858 C846 0.930 . S
H859 C847 0.931 . S
H860 C853 0.930 . S
H861 C875 0.930 . S
H862 C854 0.930 . S
H863 C881 0.930 . S
H864 C872 0.930 . S
H865 C879 0.931 . S
H866 C843 0.929 . S
H867 C873 0.930 . S
H868 C906 0.930 . S
H869 C850 0.930 . S
H870 C905 0.929 . S
N871 Tb840 2.660 . S
N871 C872 1.305 . S
N871 C876 1.360 . S
C872 H864 0.930 . S
C872 N871 1.305 . S
C872 C875 1.407 . S
C873 H867 0.930 . S
C873 C874 1.410 . S
C873 C875 1.345 . S
C874 C873 1.410 . S
C874 C876 1.417 . S
C874 C906 1.432 . S
C875 H861 0.930 . S
C875 C872 1.407 . S
C875 C873 1.345 . S
C876 N871 1.360 . S
C876 C874 1.417 . S
C876 C880 1.432 . S
H877 C882 0.930 . S
N878 Tb840 2.600 . S
N878 C880 1.359 . S
N878 C881 1.327 . S
C879 H865 0.931 . S
C879 C881 1.392 . S
C879 C882 1.370 . S
C880 C876 1.432 . S
C880 N878 1.359 . S
C880 C883 1.414 . S
C881 H863 0.930 . S
C881 N878 1.327 . S
C881 C879 1.392 . S
C882 H877 0.930 . S
C882 C879 1.370 . S
C882 C883 1.385 . S
C883 C880 1.414 . S
C883 C882 1.385 . S
C883 C905 1.444 . S
O884 Tb840 2.546 . S
O884 C904 1.251 . S
O885 Tb840 2.610 . S
O885 Tb851 2.362 . S
O885 C896 1.283 . S
O886 Tb851 2.421 . S
O886 C903 1.262 . S
O887 Tb840 2.320 . S
O887 C903 1.260 . S
O888 Tb840 2.552 . S
O888 C896 1.243 . S
O889 Tb840 2.413 . S
O889 C904 1.256 . S
O890 Tb851 2.546 . S
O890 C915 1.251 . S
O891 Tb840 2.362 . S
O891 Tb851 2.610 . S
O891 C907 1.283 . S
O892 Tb840 2.421 . S
O892 C914 1.262 . S
O893 Tb851 2.320 . S
O893 C914 1.260 . S
O894 Tb851 2.552 . S
O894 C907 1.243 . S
O895 Tb851 2.413 . S
O895 C915 1.256 . S
C896 O885 1.283 . S
C896 O888 1.243 . S
C897 C899 1.382 . S
C897 C901 1.393 . S
C897 C904 1.500 . S
C898 C899 1.400 . S
C898 C900 1.384 . S
C899 C897 1.382 . S
C899 C898 1.400 . S
C899 H916 0.930 . S
C900 C898 1.384 . S
C900 C902 1.392 . S
C900 H917 0.931 . S
C901 C897 1.393 . S
C901 C902 1.401 . S
C901 H918 0.930 . S
C902 C900 1.392 . S
C902 C901 1.401 . S
C902 H919 0.930 . S
C903 O886 1.262 . S
C903 O887 1.260 . S
C904 Tb840 2.833 . S
C904 O884 1.251 . S
C904 O889 1.256 . S
C904 C897 1.500 . S
C905 H870 0.929 . S
C905 C883 1.444 . S
C905 C906 1.317 . S
C906 H868 0.930 . S
C906 C874 1.432 . S
C906 C905 1.317 . S
C907 O891 1.283 . S
C907 O894 1.243 . S
C908 C909 1.382 . S
C908 C912 1.393 . S
C908 C915 1.500 . S
C909 C908 1.382 . S
C909 C910 1.400 . S
C909 H920 0.930 . S
C910 C909 1.400 . S
C910 C911 1.384 . S
C911 C910 1.384 . S
C911 C913 1.392 . S
C911 H921 0.931 . S
C912 C908 1.393 . S
C912 C913 1.401 . S
C912 H922 0.930 . S
C913 C911 1.392 . S
C913 C912 1.401 . S
C913 H923 0.930 . S
C914 O892 1.262 . S
C914 O893 1.260 . S
C915 Tb851 2.833 . S
C915 O890 1.251 . S
C915 O895 1.256 . S
C915 C908 1.500 . S
H916 C899 0.930 . S
H917 C900 0.931 . S
H918 C901 0.930 . S
H919 C902 0.930 . S
H920 C909 0.930 . S
H921 C911 0.931 . S
H922 C912 0.930 . S
H923 C913 0.930 . S
Tb924 N955 2.660 . S
Tb924 N962 2.600 . S
Tb924 O968 2.546 1_545 S
Tb924 O969 2.610 . S
Tb924 O971 2.320 . S
Tb924 O972 2.552 1_545 S
Tb924 O973 2.413 1_545 S
Tb924 O975 2.362 . S
Tb924 O976 2.421 . S
Tb924 C988 2.833 1_545 S
C925 C928 1.432 . S
C925 C929 1.414 . S
C925 N932 1.359 . S
C926 C928 1.417 . S
C926 C930 1.432 . S
C926 C938 1.410 . S
C927 C929 1.444 . S
C927 C930 1.317 . S
C927 H950 0.929 . S
C928 C925 1.432 . S
C928 C926 1.417 . S
C928 N936 1.360 . S
C929 C925 1.414 . S
C929 C927 1.444 . S
C929 C934 1.385 . S
C930 C926 1.432 . S
C930 C927 1.317 . S
C930 H942 0.930 1_545 S
C931 C933 1.392 . S
C931 C934 1.370 . S
C931 H943 0.931 . S
N932 C925 1.359 . S
N932 C933 1.327 . S
N932 Tb935 2.600 . S
C933 C931 1.392 . S
C933 N932 1.327 . S
C933 H940 0.930 . S
C934 C929 1.385 . S
C934 C931 1.370 . S
C934 H953 0.930 . S
Tb935 N932 2.600 . S
Tb935 N936 2.660 . S
Tb935 O969 2.362 . S
Tb935 O970 2.421 . S
Tb935 O974 2.546 . S
Tb935 O975 2.610 . S
Tb935 O977 2.320 . S
Tb935 O978 2.552 . S
Tb935 O979 2.413 . S
Tb935 C999 2.833 . S
N936 C928 1.360 . S
N936 Tb935 2.660 . S
N936 C937 1.305 . S
C937 N936 1.305 . S
C937 C939 1.407 . S
C937 H944 0.930 . S
C938 C926 1.410 . S
C938 C939 1.345 . S
C938 H946 0.930 1_545 S
C939 C937 1.407 . S
C939 C938 1.345 . S
C939 H941 0.930 . S
H940 C933 0.930 . S
H941 C939 0.930 . S
H942 C930 0.930 1_565 S
H943 C931 0.931 . S
H944 C937 0.930 . S
H945 C959 0.930 . S
H946 C938 0.930 1_565 S
H947 C965 0.930 . S
H948 C956 0.930 . S
H949 C963 0.931 . S
H950 C927 0.929 . S
H951 C957 0.930 . S
H952 C990 0.930 . S
H953 C934 0.930 . S
H954 C989 0.929 . S
N955 Tb924 2.660 . S
N955 C956 1.305 . S
N955 C960 1.360 . S
C956 H948 0.930 . S
C956 N955 1.305 . S
C956 C959 1.407 . S
C957 H951 0.930 . S
C957 C958 1.410 . S
C957 C959 1.345 . S
C958 C957 1.410 . S
C958 C960 1.417 . S
C958 C990 1.432 . S
C959 H945 0.930 . S
C959 C956 1.407 . S
C959 C957 1.345 . S
C960 N955 1.360 . S
C960 C958 1.417 . S
C960 C964 1.432 . S
H961 C966 0.930 . S
N962 Tb924 2.600 . S
N962 C964 1.359 . S
N962 C965 1.327 . S
C963 H949 0.931 . S
C963 C965 1.392 . S
C963 C966 1.370 . S
C964 C960 1.432 . S
C964 N962 1.359 . S
C964 C967 1.414 . S
C965 H947 0.930 . S
C965 N962 1.327 . S
C965 C963 1.392 . S
C966 H961 0.930 . S
C966 C963 1.370 . S
C966 C967 1.385 . S
C967 C964 1.414 . S
C967 C966 1.385 . S
C967 C989 1.444 . S
O968 Tb924 2.546 1_565 S
O968 C988 1.251 . S
O969 Tb924 2.610 . S
O969 Tb935 2.362 . S
O969 C980 1.283 1_545 S
O970 Tb935 2.421 . S
O970 C987 1.262 . S
O971 Tb924 2.320 . S
O971 C987 1.260 . S
O972 Tb924 2.552 1_565 S
O972 C980 1.243 . S
O973 Tb924 2.413 1_565 S
O973 C988 1.256 . S
O974 Tb935 2.546 . S
O974 C999 1.251 . S
O975 Tb924 2.362 . S
O975 Tb935 2.610 . S
O975 C991 1.283 . S
O976 Tb924 2.421 . S
O976 C998 1.262 . S
O977 Tb935 2.320 . S
O977 C998 1.260 . S
O978 Tb935 2.552 . S
O978 C991 1.243 . S
O979 Tb935 2.413 . S
O979 C999 1.256 . S
C980 O969 1.283 1_565 S
C980 O972 1.243 . S
C981 C983 1.382 . S
C981 C985 1.393 . S
C981 C988 1.500 . S
C982 C983 1.400 . S
C982 C984 1.384 . S
C983 C981 1.382 . S
C983 C982 1.400 . S
C983 H1000 0.930 . S
C984 C982 1.384 . S
C984 C986 1.392 . S
C984 H1001 0.931 . S
C985 C981 1.393 . S
C985 C986 1.401 . S
C985 H1002 0.930 . S
C986 C984 1.392 . S
C986 C985 1.401 . S
C986 H1003 0.930 . S
C987 O970 1.262 . S
C987 O971 1.260 . S
C988 Tb924 2.833 1_565 S
C988 O968 1.251 . S
C988 O973 1.256 . S
C988 C981 1.500 . S
C989 H954 0.929 . S
C989 C967 1.444 . S
C989 C990 1.317 . S
C990 H952 0.930 . S
C990 C958 1.432 . S
C990 C989 1.317 . S
C991 O975 1.283 . S
C991 O978 1.243 . S
C992 C993 1.382 . S
C992 C996 1.393 . S
C992 C999 1.500 . S
C993 C992 1.382 . S
C993 C994 1.400 . S
C993 H1004 0.930 . S
C994 C993 1.400 . S
C994 C995 1.384 . S
C995 C994 1.384 . S
C995 C997 1.392 . S
C995 H1005 0.931 1_655 S
C996 C992 1.393 . S
C996 C997 1.401 . S
C996 H1006 0.930 . S
C997 C995 1.392 . S
C997 C996 1.401 . S
C997 H1007 0.930 . S
C998 O976 1.262 . S
C998 O977 1.260 . S
C999 Tb935 2.833 . S
C999 O974 1.251 . S
C999 O979 1.256 . S
C999 C992 1.500 . S
H1000 C983 0.930 . S
H1001 C984 0.931 . S
H1002 C985 0.930 . S
H1003 C986 0.930 . S
H1004 C993 0.930 . S
H1005 C995 0.931 1_455 S
H1006 C996 0.930 . S
H1007 C997 0.930 . S
Tb1008 N1039 2.660 . S
Tb1008 N1046 2.600 . S
Tb1008 O1052 2.546 . S
Tb1008 O1053 2.610 . S
Tb1008 O1055 2.320 . S
Tb1008 O1056 2.552 . S
Tb1008 O1057 2.413 . S
Tb1008 O1059 2.362 . S
Tb1008 O1060 2.421 . S
Tb1008 C1072 2.833 . S
C1009 C1012 1.432 . S
C1009 C1013 1.414 . S
C1009 N1016 1.359 . S
C1010 C1012 1.417 . S
C1010 C1014 1.432 . S
C1010 C1022 1.410 . S
C1011 C1013 1.444 . S
C1011 C1014 1.317 . S
C1011 H1034 0.929 . S
C1012 C1009 1.432 . S
C1012 C1010 1.417 . S
C1012 N1020 1.360 . S
C1013 C1009 1.414 . S
C1013 C1011 1.444 . S
C1013 C1018 1.385 . S
C1014 C1010 1.432 . S
C1014 C1011 1.317 . S
C1014 H1026 0.930 . S
C1015 C1017 1.392 . S
C1015 C1018 1.370 . S
C1015 H1027 0.931 . S
N1016 C1009 1.359 . S
N1016 C1017 1.327 . S
N1016 Tb1019 2.600 . S
C1017 C1015 1.392 . S
C1017 N1016 1.327 . S
C1017 H1024 0.930 . S
C1018 C1013 1.385 . S
C1018 C1015 1.370 . S
C1018 H1037 0.930 . S
Tb1019 N1016 2.600 . S
Tb1019 N1020 2.660 . S
Tb1019 O1053 2.362 . S
Tb1019 O1054 2.421 . S
Tb1019 O1058 2.546 . S
Tb1019 O1059 2.610 . S
Tb1019 O1061 2.320 . S
Tb1019 O1062 2.552 . S
Tb1019 O1063 2.413 . S
Tb1019 C1083 2.833 . S
N1020 C1012 1.360 . S
N1020 Tb1019 2.660 . S
N1020 C1021 1.305 . S
C1021 N1020 1.305 . S
C1021 C1023 1.407 . S
C1021 H1028 0.930 . S
C1022 C1010 1.410 . S
C1022 C1023 1.345 . S
C1022 H1030 0.930 . S
C1023 C1021 1.407 . S
C1023 C1022 1.345 . S
C1023 H1025 0.930 . S
H1024 C1017 0.930 . S
H1025 C1023 0.930 . S
H1026 C1014 0.930 . S
H1027 C1015 0.931 . S
H1028 C1021 0.930 . S
H1029 C1043 0.930 . S
H1030 C1022 0.930 . S
H1031 C1049 0.930 . S
H1032 C1040 0.930 . S
H1033 C1047 0.931 . S
H1034 C1011 0.929 . S
H1035 C1041 0.930 . S
H1036 C1074 0.930 . S
H1037 C1018 0.930 . S
H1038 C1073 0.929 . S
N1039 Tb1008 2.660 . S
N1039 C1040 1.305 . S
N1039 C1044 1.360 . S
C1040 H1032 0.930 . S
C1040 N1039 1.305 . S
C1040 C1043 1.407 1_455 S
C1041 H1035 0.930 . S
C1041 C1042 1.410 . S
C1041 C1043 1.345 . S
C1042 C1041 1.410 . S
C1042 C1044 1.417 1_655 S
C1042 C1074 1.432 . S
C1043 H1029 0.930 . S
C1043 C1040 1.407 1_655 S
C1043 C1041 1.345 . S
C1044 N1039 1.360 . S
C1044 C1042 1.417 1_455 S
C1044 C1048 1.432 . S
H1045 C1050 0.930 1_655 S
N1046 Tb1008 2.600 . S
N1046 C1048 1.359 . S
N1046 C1049 1.327 . S
C1047 H1033 0.931 . S
C1047 C1049 1.392 . S
C1047 C1050 1.370 . S
C1048 C1044 1.432 . S
C1048 N1046 1.359 . S
C1048 C1051 1.403 1_455 S
C1049 H1031 0.930 . S
C1049 N1046 1.327 . S
C1049 C1047 1.392 . S
C1050 H1045 0.930 1_455 S
C1050 C1047 1.370 . S
C1050 C1051 1.379 1_455 S
C1051 C1048 1.403 1_655 S
C1051 C1050 1.379 1_655 S
C1051 C1073 1.460 . S
O1052 Tb1008 2.546 . S
O1052 C1072 1.251 . S
O1053 Tb1008 2.610 . S
O1053 Tb1019 2.362 . S
O1053 C1064 1.283 . S
O1054 Tb1019 2.421 . S
O1054 C1071 1.262 . S
O1055 Tb1008 2.320 . S
O1055 C1071 1.260 . S
O1056 Tb1008 2.552 . S
O1056 C1064 1.243 . S
O1057 Tb1008 2.413 . S
O1057 C1072 1.256 . S
O1058 Tb1019 2.546 . S
O1058 C1083 1.251 . S
O1059 Tb1008 2.362 . S
O1059 Tb1019 2.610 . S
O1059 C1075 1.283 . S
O1060 Tb1008 2.421 . S
O1060 C1082 1.262 . S
O1061 Tb1019 2.320 . S
O1061 C1082 1.260 . S
O1062 Tb1019 2.552 . S
O1062 C1075 1.243 . S
O1063 Tb1019 2.413 . S
O1063 C1083 1.256 . S
C1064 O1053 1.283 . S
C1064 O1056 1.243 . S
C1065 C1067 1.382 . S
C1065 C1069 1.393 . S
C1065 C1072 1.500 . S
C1066 C1067 1.400 . S
C1066 C1068 1.384 . S
C1067 C1065 1.382 . S
C1067 C1066 1.400 . S
C1067 H1084 0.930 . S
C1068 C1066 1.384 . S
C1068 C1070 1.392 . S
C1068 H1085 0.931 . S
C1069 C1065 1.393 . S
C1069 C1070 1.401 . S
C1069 H1086 0.930 . S
C1070 C1068 1.392 . S
C1070 C1069 1.401 . S
C1070 H1087 0.930 . S
C1071 O1054 1.262 . S
C1071 O1055 1.260 . S
C1072 Tb1008 2.833 . S
C1072 O1052 1.251 . S
C1072 O1057 1.256 . S
C1072 C1065 1.500 . S
C1073 H1038 0.929 . S
C1073 C1051 1.460 . S
C1073 C1074 1.317 . S
C1074 H1036 0.930 . S
C1074 C1042 1.432 . S
C1074 C1073 1.317 . S
C1075 O1059 1.283 . S
C1075 O1062 1.243 . S
C1076 C1077 1.382 . S
C1076 C1080 1.393 . S
C1076 C1083 1.500 . S
C1077 C1076 1.382 . S
C1077 C1078 1.400 . S
C1077 H1088 0.930 . S
C1078 C1077 1.400 . S
C1078 C1079 1.384 . S
C1079 C1078 1.384 . S
C1079 C1081 1.392 . S
C1079 H1089 0.931 . S
C1080 C1076 1.393 . S
C1080 C1081 1.401 . S
C1080 H1090 0.930 . S
C1081 C1079 1.392 . S
C1081 C1080 1.401 . S
C1081 H1091 0.930 . S
C1082 O1060 1.262 . S
C1082 O1061 1.260 . S
C1083 Tb1019 2.833 . S
C1083 O1058 1.251 . S
C1083 O1063 1.256 . S
C1083 C1076 1.500 . S
H1084 C1067 0.930 . S
H1085 C1068 0.931 . S
H1086 C1069 0.930 . S
H1087 C1070 0.930 . S
H1088 C1077 0.930 . S
H1089 C1079 0.931 . S
H1090 C1080 0.930 . S
H1091 C1081 0.930 . S
Tb1092 N1123 2.660 . S
Tb1092 N1130 2.600 . S
Tb1092 O1136 2.546 . S
Tb1092 O1137 2.610 . S
Tb1092 O1139 2.320 . S
Tb1092 O1140 2.552 . S
Tb1092 O1141 2.413 . S
Tb1092 O1143 2.362 . S
Tb1092 O1144 2.421 . S
Tb1092 C1156 2.833 . S
C1093 C1096 1.432 . S
C1093 C1097 1.414 . S
C1093 N1100 1.359 . S
C1094 C1096 1.417 . S
C1094 C1098 1.432 . S
C1094 C1106 1.410 . S
C1095 C1097 1.444 . S
C1095 C1098 1.317 . S
C1095 H1118 0.929 . S
C1096 C1093 1.432 . S
C1096 C1094 1.417 . S
C1096 N1104 1.360 . S
C1097 C1093 1.414 . S
C1097 C1095 1.444 . S
C1097 C1102 1.385 . S
C1098 C1094 1.432 . S
C1098 C1095 1.317 . S
C1098 H1110 0.930 . S
C1099 C1101 1.395 . S
C1099 C1102 1.370 . S
C1099 H1111 0.931 . S
N1100 C1093 1.359 . S
N1100 C1101 1.329 . S
N1100 Tb1103 2.600 1_545 S
C1101 C1099 1.395 . S
C1101 N1100 1.329 . S
C1101 H1108 0.925 1_545 S
C1102 C1097 1.385 . S
C1102 C1099 1.370 . S
C1102 H1121 0.930 . S
Tb1103 N1100 2.600 1_565 S
Tb1103 N1104 2.660 1_565 S
Tb1103 O1137 2.362 . S
Tb1103 O1138 2.421 . S
Tb1103 O1142 2.546 1_565 S
Tb1103 O1143 2.610 . S
Tb1103 O1145 2.320 . S
Tb1103 O1146 2.552 . S
Tb1103 O1147 2.413 1_565 S
Tb1103 C1167 2.833 1_565 S
N1104 C1096 1.360 . S
N1104 Tb1103 2.660 1_545 S
N1104 C1105 1.305 . S
C1105 N1104 1.305 . S
C1105 C1107 1.407 . S
C1105 H1112 0.930 . S
C1106 C1094 1.410 . S
C1106 C1107 1.345 . S
C1106 H1114 0.930 . S
C1107 C1105 1.407 . S
C1107 C1106 1.345 . S
C1107 H1109 0.930 . S
H1108 C1101 0.925 1_565 S
H1109 C1107 0.930 . S
H1110 C1098 0.930 . S
H1111 C1099 0.931 . S
H1112 C1105 0.930 . S
H1113 C1127 0.930 . S
H1114 C1106 0.930 . S
H1115 C1133 0.930 . S
H1116 C1124 0.930 . S
H1117 C1131 0.931 . S
H1118 C1095 0.929 . S
H1119 C1125 0.930 . S
H1120 C1158 0.930 . S
H1121 C1102 0.930 . S
H1122 C1157 0.929 . S
N1123 Tb1092 2.660 . S
N1123 C1124 1.305 . S
N1123 C1128 1.360 . S
C1124 H1116 0.930 . S
C1124 N1123 1.305 . S
C1124 C1127 1.407 . S
C1125 H1119 0.930 . S
C1125 C1126 1.410 . S
C1125 C1127 1.345 . S
C1126 C1125 1.410 . S
C1126 C1128 1.417 . S
C1126 C1158 1.432 . S
C1127 H1113 0.930 . S
C1127 C1124 1.407 . S
C1127 C1125 1.345 . S
C1128 N1123 1.360 . S
C1128 C1126 1.417 . S
C1128 C1132 1.432 . S
H1129 C1134 0.930 . S
N1130 Tb1092 2.600 . S
N1130 C1132 1.359 . S
N1130 C1133 1.327 . S
C1131 H1117 0.931 . S
C1131 C1133 1.392 . S
C1131 C1134 1.370 . S
C1132 C1128 1.432 . S
C1132 N1130 1.359 . S
C1132 C1135 1.414 . S
C1133 H1115 0.930 . S
C1133 N1130 1.327 . S
C1133 C1131 1.392 . S
C1134 H1129 0.930 . S
C1134 C1131 1.370 . S
C1134 C1135 1.385 . S
C1135 C1132 1.414 . S
C1135 C1134 1.385 . S
C1135 C1157 1.444 . S
O1136 Tb1092 2.546 . S
O1136 C1156 1.251 . S
O1137 Tb1092 2.610 . S
O1137 Tb1103 2.362 . S
O1137 C1148 1.283 . S
O1138 Tb1103 2.421 . S
O1138 C1155 1.262 . S
O1139 Tb1092 2.320 . S
O1139 C1155 1.260 . S
O1140 Tb1092 2.552 . S
O1140 C1148 1.243 . S
O1141 Tb1092 2.413 . S
O1141 C1156 1.256 . S
O1142 Tb1103 2.546 1_545 S
O1142 C1167 1.251 . S
O1143 Tb1092 2.362 . S
O1143 Tb1103 2.610 . S
O1143 C1159 1.283 . S
O1144 Tb1092 2.421 . S
O1144 C1166 1.262 . S
O1145 Tb1103 2.320 . S
O1145 C1166 1.260 . S
O1146 Tb1103 2.552 . S
O1146 C1159 1.243 . S
O1147 Tb1103 2.413 1_545 S
O1147 C1167 1.256 . S
C1148 O1137 1.283 . S
C1148 O1140 1.243 . S
C1149 C1151 1.382 . S
C1149 C1153 1.393 . S
C1149 C1156 1.500 . S
C1150 C1151 1.400 . S
C1150 C1152 1.384 . S
C1151 C1149 1.382 . S
C1151 C1150 1.400 . S
C1151 H1168 0.930 . S
C1152 C1150 1.384 . S
C1152 C1154 1.392 . S
C1152 H1169 0.931 . S
C1153 C1149 1.393 . S
C1153 C1154 1.401 . S
C1153 H1170 0.930 . S
C1154 C1152 1.392 . S
C1154 C1153 1.401 . S
C1154 H1171 0.930 . S
C1155 O1138 1.262 . S
C1155 O1139 1.260 . S
C1156 Tb1092 2.833 . S
C1156 O1136 1.251 . S
C1156 O1141 1.256 . S
C1156 C1149 1.500 . S
C1157 H1122 0.929 . S
C1157 C1135 1.444 . S
C1157 C1158 1.317 . S
C1158 H1120 0.930 . S
C1158 C1126 1.432 . S
C1158 C1157 1.317 . S
C1159 O1143 1.283 . S
C1159 O1146 1.243 . S
C1160 C1161 1.387 . S
C1160 C1164 1.393 . S
C1160 C1167 1.500 . S
C1161 C1160 1.387 . S
C1161 C1162 1.394 1_655 S
C1161 H1172 0.931 . S
C1162 C1161 1.394 1_455 S
C1162 C1163 1.384 . S
C1163 C1162 1.384 . S
C1163 C1165 1.392 . S
C1163 H1173 0.931 . S
C1164 C1160 1.393 . S
C1164 C1165 1.401 1_655 S
C1164 H1174 0.930 . S
C1165 C1163 1.392 . S
C1165 C1164 1.401 1_455 S
C1165 H1175 0.930 . S
C1166 O1144 1.262 . S
C1166 O1145 1.260 . S
C1167 Tb1103 2.833 1_545 S
C1167 O1142 1.251 . S
C1167 O1147 1.256 . S
C1167 C1160 1.500 . S
H1168 C1151 0.930 . S
H1169 C1152 0.931 . S
H1170 C1153 0.930 . S
H1171 C1154 0.930 . S
H1172 C1161 0.931 . S
H1173 C1163 0.931 . S
H1174 C1164 0.930 . S
H1175 C1165 0.930 . S
Tb1176 N1207 2.660 1_565 S
Tb1176 N1214 2.600 1_565 S
Tb1176 O1220 2.546 . S
Tb1176 O1221 2.610 . S
Tb1176 O1223 2.320 . S
Tb1176 O1224 2.552 . S
Tb1176 O1225 2.413 . S
Tb1176 O1227 2.362 . S
Tb1176 O1228 2.421 . S
Tb1176 C1240 2.833 . S
C1177 C1180 1.432 . S
C1177 C1181 1.414 . S
C1177 N1184 1.359 . S
C1178 C1180 1.417 . S
C1178 C1182 1.432 . S
C1178 C1190 1.410 . S
C1179 C1181 1.444 . S
C1179 C1182 1.317 . S
C1179 H1202 0.929 . S
C1180 C1177 1.432 . S
C1180 C1178 1.417 . S
C1180 N1188 1.360 . S
C1181 C1177 1.414 . S
C1181 C1179 1.444 . S
C1181 C1186 1.385 . S
C1182 C1178 1.432 . S
C1182 C1179 1.317 . S
C1182 H1194 0.930 1_455 S
C1183 C1185 1.392 . S
C1183 C1186 1.370 . S
C1183 H1195 0.931 . S
N1184 C1177 1.359 . S
N1184 C1185 1.327 . S
N1184 Tb1187 2.600 . S
C1185 C1183 1.392 . S
C1185 N1184 1.327 . S
C1185 H1192 0.930 . S
C1186 C1181 1.385 . S
C1186 C1183 1.370 . S
C1186 H1205 0.930 . S
Tb1187 N1184 2.600 . S
Tb1187 N1188 2.660 . S
Tb1187 O1221 2.362 . S
Tb1187 O1222 2.421 . S
Tb1187 O1226 2.546 . S
Tb1187 O1227 2.610 . S
Tb1187 O1229 2.320 . S
Tb1187 O1230 2.552 . S
Tb1187 O1231 2.413 . S
Tb1187 C1251 2.833 . S
N1188 C1180 1.360 . S
N1188 Tb1187 2.660 . S
N1188 C1189 1.305 . S
C1189 N1188 1.305 . S
C1189 C1191 1.407 . S
C1189 H1196 0.930 . S
C1190 C1178 1.410 . S
C1190 C1191 1.345 . S
C1190 H1198 0.930 . S
C1191 C1189 1.407 . S
C1191 C1190 1.345 . S
C1191 H1193 0.930 . S
H1192 C1185 0.930 . S
H1193 C1191 0.930 . S
H1194 C1182 0.930 1_655 S
H1195 C1183 0.931 . S
H1196 C1189 0.930 . S
H1197 C1211 0.930 . S
H1198 C1190 0.930 . S
H1199 C1217 0.930 1_565 S
H1200 C1208 0.930 . S
H1201 C1215 0.931 . S
H1202 C1179 0.929 . S
H1203 C1209 0.930 . S
H1204 C1242 0.930 . S
H1205 C1186 0.930 . S
H1206 C1241 0.929 . S
N1207 Tb1176 2.660 1_545 S
N1207 C1208 1.305 . S
N1207 C1212 1.360 . S
C1208 H1200 0.930 . S
C1208 N1207 1.305 . S
C1208 C1211 1.407 . S
C1209 H1203 0.930 . S
C1209 C1210 1.410 . S
C1209 C1211 1.345 . S
C1210 C1209 1.410 . S
C1210 C1212 1.417 . S
C1210 C1242 1.432 . S
C1211 H1197 0.930 . S
C1211 C1208 1.407 . S
C1211 C1209 1.345 . S
C1212 N1207 1.360 . S
C1212 C1210 1.417 . S
C1212 C1216 1.432 . S
H1213 C1218 0.930 . S
N1214 Tb1176 2.600 1_545 S
N1214 C1216 1.359 . S
N1214 C1217 1.327 . S
C1215 H1201 0.931 . S
C1215 C1217 1.392 . S
C1215 C1218 1.370 . S
C1216 C1212 1.432 . S
C1216 N1214 1.359 . S
C1216 C1219 1.414 . S
C1217 H1199 0.930 1_545 S
C1217 N1214 1.327 . S
C1217 C1215 1.392 . S
C1218 H1213 0.930 . S
C1218 C1215 1.370 . S
C1218 C1219 1.385 . S
C1219 C1216 1.414 . S
C1219 C1218 1.385 . S
C1219 C1241 1.444 . S
O1220 Tb1176 2.546 . S
O1220 C1240 1.251 . S
O1221 Tb1176 2.610 . S
O1221 Tb1187 2.362 . S
O1221 C1232 1.283 . S
O1222 Tb1187 2.421 . S
O1222 C1239 1.262 . S
O1223 Tb1176 2.320 . S
O1223 C1239 1.260 . S
O1224 Tb1176 2.552 . S
O1224 C1232 1.243 . S
O1225 Tb1176 2.413 . S
O1225 C1240 1.256 . S
O1226 Tb1187 2.546 . S
O1226 C1251 1.251 . S
O1227 Tb1176 2.362 . S
O1227 Tb1187 2.610 . S
O1227 C1243 1.283 1_565 S
O1228 Tb1176 2.421 . S
O1228 C1250 1.262 . S
O1229 Tb1187 2.320 . S
O1229 C1250 1.260 . S
O1230 Tb1187 2.552 . S
O1230 C1243 1.243 1_565 S
O1231 Tb1187 2.413 . S
O1231 C1251 1.256 . S
C1232 O1221 1.283 . S
C1232 O1224 1.243 . S
C1233 C1235 1.382 . S
C1233 C1237 1.393 . S
C1233 C1240 1.500 . S
C1234 C1235 1.400 . S
C1234 C1236 1.384 . S
C1235 C1233 1.382 . S
C1235 C1234 1.400 . S
C1235 H1252 0.930 . S
C1236 C1234 1.384 . S
C1236 C1238 1.392 . S
C1236 H1253 0.931 . S
C1237 C1233 1.393 . S
C1237 C1238 1.401 . S
C1237 H1254 0.930 . S
C1238 C1236 1.392 . S
C1238 C1237 1.401 . S
C1238 H1255 0.930 . S
C1239 O1222 1.262 . S
C1239 O1223 1.260 . S
C1240 Tb1176 2.833 . S
C1240 O1220 1.251 . S
C1240 O1225 1.256 . S
C1240 C1233 1.500 . S
C1241 H1206 0.929 . S
C1241 C1219 1.444 . S
C1241 C1242 1.317 . S
C1242 H1204 0.930 . S
C1242 C1210 1.432 . S
C1242 C1241 1.317 . S
C1243 O1227 1.283 1_545 S
C1243 O1230 1.243 1_545 S
C1244 C1245 1.382 . S
C1244 C1248 1.393 . S
C1244 C1251 1.500 1_655 S
C1245 C1244 1.382 . S
C1245 C1246 1.400 . S
C1245 H1256 0.930 . S
C1246 C1245 1.400 . S
C1246 C1247 1.384 . S
C1247 C1246 1.384 . S
C1247 C1249 1.392 . S
C1247 H1257 0.931 . S
C1248 C1244 1.393 . S
C1248 C1249 1.401 . S
C1248 H1258 0.930 . S
C1249 C1247 1.392 . S
C1249 C1248 1.401 . S
C1249 H1259 0.930 . S
C1250 O1228 1.262 . S
C1250 O1229 1.260 . S
C1251 Tb1187 2.833 . S
C1251 O1226 1.251 . S
C1251 O1231 1.256 . S
C1251 C1244 1.500 1_455 S
H1252 C1235 0.930 . S
H1253 C1236 0.931 . S
H1254 C1237 0.930 . S
H1255 C1238 0.930 . S
H1256 C1245 0.930 . S
H1257 C1247 0.931 . S
H1258 C1248 0.930 . S
H1259 C1249 0.930 . S
Tb1260 N1291 2.660 . S
Tb1260 N1298 2.600 . S
Tb1260 O1304 2.546 . S
Tb1260 O1305 2.610 . S
Tb1260 O1307 2.320 . S
Tb1260 O1308 2.552 . S
Tb1260 O1309 2.413 . S
Tb1260 O1311 2.362 . S
Tb1260 O1312 2.421 . S
Tb1260 C1324 2.833 . S
C1261 C1264 1.432 . S
C1261 C1265 1.414 . S
C1261 N1268 1.359 . S
C1262 C1264 1.417 . S
C1262 C1266 1.432 . S
C1262 C1274 1.410 . S
C1263 C1265 1.444 . S
C1263 C1266 1.317 . S
C1263 H1286 0.929 . S
C1264 C1261 1.432 . S
C1264 C1262 1.417 . S
C1264 N1272 1.360 . S
C1265 C1261 1.414 . S
C1265 C1263 1.444 . S
C1265 C1270 1.385 . S
C1266 C1262 1.432 . S
C1266 C1263 1.317 . S
C1266 H1278 0.930 . S
C1267 C1269 1.392 1_545 S
C1267 C1270 1.370 . S
C1267 H1279 0.931 . S
N1268 C1261 1.359 . S
N1268 C1269 1.327 1_545 S
N1268 Tb1271 2.600 1_545 S
C1269 C1267 1.392 1_565 S
C1269 N1268 1.327 1_565 S
C1269 H1276 0.930 . S
C1270 C1265 1.385 . S
C1270 C1267 1.370 . S
C1270 H1289 0.930 . S
Tb1271 N1268 2.600 1_565 S
Tb1271 N1272 2.660 1_565 S
Tb1271 O1305 2.362 . S
Tb1271 O1306 2.421 . S
Tb1271 O1310 2.546 . S
Tb1271 O1311 2.610 . S
Tb1271 O1313 2.320 . S
Tb1271 O1314 2.552 . S
Tb1271 O1315 2.413 . S
Tb1271 C1335 2.833 . S
N1272 C1264 1.360 . S
N1272 Tb1271 2.660 1_545 S
N1272 C1273 1.305 . S
C1273 N1272 1.305 . S
C1273 C1275 1.407 . S
C1273 H1280 0.930 . S
C1274 C1262 1.410 . S
C1274 C1275 1.345 . S
C1274 H1282 0.930 . S
C1275 C1273 1.407 . S
C1275 C1274 1.345 . S
C1275 H1277 0.930 . S
H1276 C1269 0.930 . S
H1277 C1275 0.930 . S
H1278 C1266 0.930 . S
H1279 C1267 0.931 . S
H1280 C1273 0.930 . S
H1281 C1295 0.930 . S
H1282 C1274 0.930 . S
H1283 C1301 0.930 . S
H1284 C1292 0.930 . S
H1285 C1299 0.931 . S
H1286 C1263 0.929 . S
H1287 C1293 0.930 . S
H1288 C1326 0.930 . S
H1289 C1270 0.930 . S
H1290 C1325 0.929 . S
N1291 Tb1260 2.660 . S
N1291 C1292 1.305 . S
N1291 C1296 1.360 . S
C1292 H1284 0.930 . S
C1292 N1291 1.305 . S
C1292 C1295 1.407 . S
C1293 H1287 0.930 . S
C1293 C1294 1.410 . S
C1293 C1295 1.345 . S
C1294 C1293 1.410 . S
C1294 C1296 1.417 . S
C1294 C1326 1.432 . S
C1295 H1281 0.930 . S
C1295 C1292 1.407 . S
C1295 C1293 1.345 . S
C1296 N1291 1.360 . S
C1296 C1294 1.417 . S
C1296 C1300 1.432 . S
H1297 C1302 0.930 . S
N1298 Tb1260 2.600 . S
N1298 C1300 1.359 . S
N1298 C1301 1.327 . S
C1299 H1285 0.931 . S
C1299 C1301 1.392 . S
C1299 C1302 1.370 . S
C1300 C1296 1.432 . S
C1300 N1298 1.359 . S
C1300 C1303 1.414 . S
C1301 H1283 0.930 . S
C1301 N1298 1.327 . S
C1301 C1299 1.392 . S
C1302 H1297 0.930 . S
C1302 C1299 1.370 . S
C1302 C1303 1.385 . S
C1303 C1300 1.414 . S
C1303 C1302 1.385 . S
C1303 C1325 1.444 . S
O1304 Tb1260 2.546 . S
O1304 C1324 1.251 . S
O1305 Tb1260 2.610 . S
O1305 Tb1271 2.362 . S
O1305 C1316 1.283 . S
O1306 Tb1271 2.421 . S
O1306 C1323 1.262 . S
O1307 Tb1260 2.320 . S
O1307 C1323 1.260 . S
O1308 Tb1260 2.552 . S
O1308 C1316 1.243 . S
O1309 Tb1260 2.413 . S
O1309 C1324 1.256 . S
O1310 Tb1271 2.546 . S
O1310 C1335 1.251 . S
O1311 Tb1260 2.362 . S
O1311 Tb1271 2.610 . S
O1311 C1327 1.283 . S
O1312 Tb1260 2.421 . S
O1312 C1334 1.262 . S
O1313 Tb1271 2.320 . S
O1313 C1334 1.260 . S
O1314 Tb1271 2.552 . S
O1314 C1327 1.243 . S
O1315 Tb1271 2.413 . S
O1315 C1335 1.256 . S
C1316 O1305 1.283 . S
C1316 O1308 1.243 . S
C1317 C1319 1.382 1_655 S
C1317 C1321 1.393 1_655 S
C1317 C1324 1.500 . S
C1318 C1319 1.400 . S
C1318 C1320 1.384 . S
C1319 C1317 1.382 1_455 S
C1319 C1318 1.400 . S
C1319 H1336 0.930 . S
C1320 C1318 1.384 . S
C1320 C1322 1.392 . S
C1320 H1337 0.931 . S
C1321 C1317 1.393 1_455 S
C1321 C1322 1.401 . S
C1321 H1338 0.930 1_455 S
C1322 C1320 1.392 . S
C1322 C1321 1.401 . S
C1322 H1339 0.930 . S
C1323 O1306 1.262 . S
C1323 O1307 1.260 . S
C1324 Tb1260 2.833 . S
C1324 O1304 1.251 . S
C1324 O1309 1.256 . S
C1324 C1317 1.500 . S
C1325 H1290 0.929 . S
C1325 C1303 1.444 . S
C1325 C1326 1.317 . S
C1326 H1288 0.930 . S
C1326 C1294 1.432 . S
C1326 C1325 1.317 . S
C1327 O1311 1.283 . S
C1327 O1314 1.243 . S
C1328 C1329 1.382 . S
C1328 C1332 1.393 . S
C1328 C1335 1.500 . S
C1329 C1328 1.382 . S
C1329 C1330 1.400 . S
C1329 H1340 0.930 . S
C1330 C1329 1.400 . S
C1330 C1331 1.384 . S
C1331 C1330 1.384 . S
C1331 C1333 1.392 . S
C1331 H1341 0.931 . S
C1332 C1328 1.393 . S
C1332 C1333 1.401 . S
C1332 H1342 0.930 . S
C1333 C1331 1.392 . S
C1333 C1332 1.401 . S
C1333 H1343 0.930 . S
C1334 O1312 1.262 . S
C1334 O1313 1.260 . S
C1335 Tb1271 2.833 . S
C1335 O1310 1.251 . S
C1335 O1315 1.256 . S
C1335 C1328 1.500 . S
H1336 C1319 0.930 . S
H1337 C1320 0.931 . S
H1338 C1321 0.930 1_655 S
H1339 C1322 0.930 . S
H1340 C1329 0.930 . S
H1341 C1331 0.931 . S
H1342 C1332 0.930 . S
H1343 C1333 0.930 . S
Tb1344 N1375 2.660 . S
Tb1344 N1382 2.600 . S
Tb1344 O1388 2.546 . S
Tb1344 O1389 2.610 1_545 S
Tb1344 O1391 2.320 . S
Tb1344 O1392 2.546 . S
Tb1344 O1393 2.413 . S
Tb1344 O1395 2.362 1_545 S
Tb1344 O1396 2.421 1_545 S
Tb1344 C1408 2.833 . S
C1345 C1348 1.432 . S
C1345 C1349 1.414 . S
C1345 N1352 1.359 . S
C1346 C1348 1.417 1_655 S
C1346 C1350 1.432 . S
C1346 C1358 1.410 . S
C1347 C1349 1.444 1_655 S
C1347 C1350 1.317 . S
C1347 H1370 0.929 . S
C1348 C1345 1.432 . S
C1348 C1346 1.417 1_455 S
C1348 N1356 1.360 . S
C1349 C1345 1.414 . S
C1349 C1347 1.444 1_455 S
C1349 C1354 1.385 . S
C1350 C1346 1.432 . S
C1350 C1347 1.317 . S
C1350 H1362 0.930 . S
C1351 C1353 1.392 . S
C1351 C1354 1.370 . S
C1351 H1363 0.931 . S
N1352 C1345 1.359 . S
N1352 C1353 1.327 . S
N1352 Tb1355 2.600 . S
C1353 C1351 1.392 . S
C1353 N1352 1.327 . S
C1353 H1360 0.930 . S
C1354 C1349 1.385 . S
C1354 C1351 1.370 . S
C1354 H1373 0.930 . S
Tb1355 N1352 2.600 . S
Tb1355 N1356 2.660 . S
Tb1355 O1389 2.362 . S
Tb1355 O1390 2.421 . S
Tb1355 O1394 2.546 . S
Tb1355 O1395 2.610 . S
Tb1355 O1397 2.320 . S
Tb1355 O1398 2.552 . S
Tb1355 O1399 2.413 . S
Tb1355 C1419 2.833 . S
N1356 C1348 1.360 . S
N1356 Tb1355 2.660 . S
N1356 C1357 1.305 . S
C1357 N1356 1.305 . S
C1357 C1359 1.407 1_455 S
C1357 H1364 0.930 . S
C1358 C1346 1.410 . S
C1358 C1359 1.345 . S
C1358 H1366 0.930 . S
C1359 C1357 1.407 1_655 S
C1359 C1358 1.345 . S
C1359 H1361 0.930 . S
H1360 C1353 0.930 . S
H1361 C1359 0.930 . S
H1362 C1350 0.930 . S
H1363 C1351 0.931 . S
H1364 C1357 0.930 . S
H1365 C1379 0.930 . S
H1366 C1358 0.930 . S
H1367 C1385 0.930 . S
H1368 C1376 0.930 . S
H1369 C1383 0.931 . S
H1370 C1347 0.929 . S
H1371 C1377 0.930 . S
H1372 C1410 0.930 . S
H1373 C1354 0.930 . S
H1374 C1409 0.929 . S
N1375 Tb1344 2.660 . S
N1375 C1376 1.305 . S
N1375 C1380 1.360 . S
C1376 H1368 0.930 . S
C1376 N1375 1.305 . S
C1376 C1379 1.407 . S
C1377 H1371 0.930 . S
C1377 C1378 1.410 . S
C1377 C1379 1.345 . S
C1378 C1377 1.410 . S
C1378 C1380 1.417 . S
C1378 C1410 1.432 . S
C1379 H1365 0.930 . S
C1379 C1376 1.407 . S
C1379 C1377 1.345 . S
C1380 N1375 1.360 . S
C1380 C1378 1.417 . S
C1380 C1384 1.432 . S
H1381 C1386 0.930 . S
N1382 Tb1344 2.600 . S
N1382 C1384 1.359 . S
N1382 C1385 1.327 . S
C1383 H1369 0.931 . S
C1383 C1385 1.392 . S
C1383 C1386 1.370 . S
C1384 C1380 1.432 . S
C1384 N1382 1.359 . S
C1384 C1387 1.414 . S
C1385 H1367 0.930 . S
C1385 N1382 1.327 . S
C1385 C1383 1.392 . S
C1386 H1381 0.930 . S
C1386 C1383 1.370 . S
C1386 C1387 1.385 . S
C1387 C1384 1.414 . S
C1387 C1386 1.385 . S
C1387 C1409 1.444 . S
O1388 Tb1344 2.546 . S
O1388 C1408 1.251 . S
O1389 Tb1344 2.610 1_565 S
O1389 Tb1355 2.362 . S
O1389 C1400 1.283 . S
O1390 Tb1355 2.421 . S
O1390 C1407 1.262 . S
O1391 Tb1344 2.320 . S
O1391 C1407 1.260 1_545 S
O1392 Tb1344 2.546 . S
O1392 C1400 1.231 1_545 S
O1393 Tb1344 2.413 . S
O1393 C1408 1.256 . S
O1394 Tb1355 2.546 . S
O1394 C1419 1.251 . S
O1395 Tb1344 2.362 1_565 S
O1395 Tb1355 2.610 . S
O1395 C1411 1.283 . S
O1396 Tb1344 2.421 1_565 S
O1396 C1418 1.262 . S
O1397 Tb1355 2.320 . S
O1397 C1418 1.260 . S
O1398 Tb1355 2.552 . S
O1398 C1411 1.243 . S
O1399 Tb1355 2.413 . S
O1399 C1419 1.256 . S
C1400 O1389 1.283 . S
C1400 O1392 1.231 1_565 S
C1401 C1403 1.382 . S
C1401 C1405 1.393 . S
C1401 C1408 1.500 . S
C1402 C1403 1.400 . S
C1402 C1404 1.384 . S
C1403 C1401 1.382 . S
C1403 C1402 1.400 . S
C1403 H1420 0.930 . S
C1404 C1402 1.384 . S
C1404 C1406 1.392 . S
C1404 H1421 0.931 . S
C1405 C1401 1.393 . S
C1405 C1406 1.401 . S
C1405 H1422 0.930 . S
C1406 C1404 1.392 . S
C1406 C1405 1.401 . S
C1406 H1423 0.930 . S
C1407 O1390 1.262 . S
C1407 O1391 1.260 1_565 S
C1408 Tb1344 2.833 . S
C1408 O1388 1.251 . S
C1408 O1393 1.256 . S
C1408 C1401 1.500 . S
C1409 H1374 0.929 . S
C1409 C1387 1.444 . S
C1409 C1410 1.317 . S
C1410 H1372 0.930 . S
C1410 C1378 1.432 . S
C1410 C1409 1.317 . S
C1411 O1395 1.283 . S
C1411 O1398 1.243 . S
C1412 C1413 1.382 . S
C1412 C1416 1.393 . S
C1412 C1419 1.500 . S
C1413 C1412 1.382 . S
C1413 C1414 1.400 . S
C1413 H1424 0.930 . S
C1414 C1413 1.400 . S
C1414 C1415 1.384 . S
C1415 C1414 1.384 . S
C1415 C1417 1.392 . S
C1415 H1425 0.931 . S
C1416 C1412 1.393 . S
C1416 C1417 1.401 . S
C1416 H1426 0.930 . S
C1417 C1415 1.392 . S
C1417 C1416 1.401 . S
C1417 H1427 0.930 . S
C1418 O1396 1.262 . S
C1418 O1397 1.260 . S
C1419 Tb1355 2.833 . S
C1419 O1394 1.251 . S
C1419 O1399 1.256 . S
C1419 C1412 1.500 . S
H1420 C1403 0.930 . S
H1421 C1404 0.931 . S
H1422 C1405 0.930 . S
H1423 C1406 0.930 . S
H1424 C1413 0.930 . S
H1425 C1415 0.931 . S
H1426 C1416 0.930 . S
H1427 C1417 0.930 . S
Tb1428 N1459 2.660 . S
Tb1428 N1466 2.600 . S
Tb1428 O1472 2.546 . S
Tb1428 O1473 2.610 . S
Tb1428 O1475 2.320 . S
Tb1428 O1476 2.552 . S
Tb1428 O1477 2.413 . S
Tb1428 O1479 2.362 . S
Tb1428 O1480 2.421 . S
Tb1428 C1492 2.833 . S
C1429 C1432 1.432 . S
C1429 C1433 1.414 . S
C1429 N1436 1.359 . S
C1430 C1432 1.417 . S
C1430 C1434 1.432 . S
C1430 C1442 1.410 . S
C1431 C1433 1.444 . S
C1431 C1434 1.317 . S
C1431 H1454 0.929 . S
C1432 C1429 1.432 . S
C1432 C1430 1.417 . S
C1432 N1440 1.360 . S
C1433 C1429 1.414 . S
C1433 C1431 1.444 . S
C1433 C1438 1.385 . S
C1434 C1430 1.432 . S
C1434 C1431 1.317 . S
C1434 H1446 0.930 . S
C1435 C1437 1.392 . S
C1435 C1438 1.370 . S
C1435 H1447 0.931 . S
N1436 C1429 1.359 . S
N1436 C1437 1.327 . S
N1436 Tb1439 2.600 . S
C1437 C1435 1.392 . S
C1437 N1436 1.327 . S
C1437 H1444 0.930 . S
C1438 C1433 1.385 . S
C1438 C1435 1.370 . S
C1438 H1457 0.930 . S
Tb1439 N1436 2.600 . S
Tb1439 N1440 2.660 . S
Tb1439 O1473 2.362 . S
Tb1439 O1474 2.421 . S
Tb1439 O1478 2.546 . S
Tb1439 O1479 2.610 . S
Tb1439 O1481 2.320 . S
Tb1439 O1482 2.552 . S
Tb1439 O1483 2.413 . S
Tb1439 C1503 2.833 . S
N1440 C1432 1.360 . S
N1440 Tb1439 2.660 . S
N1440 C1441 1.305 . S
C1441 N1440 1.305 . S
C1441 C1443 1.407 . S
C1441 H1448 0.930 . S
C1442 C1430 1.410 . S
C1442 C1443 1.345 . S
C1442 H1450 0.930 . S
C1443 C1441 1.407 . S
C1443 C1442 1.345 . S
C1443 H1445 0.930 . S
H1444 C1437 0.930 . S
H1445 C1443 0.930 . S
H1446 C1434 0.930 . S
H1447 C1435 0.931 . S
H1448 C1441 0.930 . S
H1449 C1463 0.930 . S
H1450 C1442 0.930 . S
H1451 C1469 0.930 . S
H1452 C1460 0.930 . S
H1453 C1467 0.931 . S
H1454 C1431 0.929 . S
H1455 C1461 0.930 . S
H1456 C1494 0.930 . S
H1457 C1438 0.930 . S
H1458 C1493 0.929 . S
N1459 Tb1428 2.660 . S
N1459 C1460 1.305 . S
N1459 C1464 1.360 . S
C1460 H1452 0.930 . S
C1460 N1459 1.305 . S
C1460 C1463 1.407 . S
C1461 H1455 0.930 . S
C1461 C1462 1.410 . S
C1461 C1463 1.345 1_655 S
C1462 C1461 1.410 . S
C1462 C1464 1.417 1_655 S
C1462 C1494 1.432 . S
C1463 H1449 0.930 . S
C1463 C1460 1.407 . S
C1463 C1461 1.345 1_455 S
C1464 N1459 1.360 . S
C1464 C1462 1.417 1_455 S
C1464 C1468 1.432 . S
H1465 C1470 0.930 . S
N1466 Tb1428 2.600 . S
N1466 C1468 1.359 . S
N1466 C1469 1.327 . S
C1467 H1453 0.931 . S
C1467 C1469 1.392 . S
C1467 C1470 1.370 . S
C1468 C1464 1.432 . S
C1468 N1466 1.359 . S
C1468 C1471 1.414 . S
C1469 H1451 0.930 . S
C1469 N1466 1.327 . S
C1469 C1467 1.392 . S
C1470 H1465 0.930 . S
C1470 C1467 1.370 . S
C1470 C1471 1.385 . S
C1471 C1468 1.414 . S
C1471 C1470 1.385 . S
C1471 C1493 1.444 1_455 S
O1472 Tb1428 2.546 . S
O1472 C1492 1.251 . S
O1473 Tb1428 2.610 . S
O1473 Tb1439 2.362 . S
O1473 C1484 1.283 . S
O1474 Tb1439 2.421 . S
O1474 C1491 1.262 . S
O1475 Tb1428 2.320 . S
O1475 C1491 1.260 . S
O1476 Tb1428 2.552 . S
O1476 C1484 1.243 . S
O1477 Tb1428 2.413 . S
O1477 C1492 1.256 . S
O1478 Tb1439 2.546 . S
O1478 C1503 1.251 . S
O1479 Tb1428 2.362 . S
O1479 Tb1439 2.610 . S
O1479 C1495 1.283 . S
O1480 Tb1428 2.421 . S
O1480 C1502 1.262 . S
O1481 Tb1439 2.320 . S
O1481 C1502 1.260 . S
O1482 Tb1439 2.552 . S
O1482 C1495 1.243 . S
O1483 Tb1439 2.413 . S
O1483 C1503 1.256 . S
C1484 O1473 1.283 . S
C1484 O1476 1.243 . S
C1485 C1487 1.382 . S
C1485 C1489 1.393 . S
C1485 C1492 1.500 1_655 S
C1486 C1487 1.400 . S
C1486 C1488 1.384 . S
C1487 C1485 1.382 . S
C1487 C1486 1.400 . S
C1487 H1504 0.930 . S
C1488 C1486 1.384 . S
C1488 C1490 1.392 . S
C1488 H1505 0.931 1_545 S
C1489 C1485 1.393 . S
C1489 C1490 1.401 . S
C1489 H1506 0.930 . S
C1490 C1488 1.392 . S
C1490 C1489 1.401 . S
C1490 H1507 0.930 . S
C1491 O1474 1.262 . S
C1491 O1475 1.260 . S
C1492 Tb1428 2.833 . S
C1492 O1472 1.251 . S
C1492 O1477 1.256 . S
C1492 C1485 1.500 1_455 S
C1493 H1458 0.929 . S
C1493 C1471 1.444 1_655 S
C1493 C1494 1.317 . S
C1494 H1456 0.930 . S
C1494 C1462 1.432 . S
C1494 C1493 1.317 . S
C1495 O1479 1.283 . S
C1495 O1482 1.243 . S
C1496 C1497 1.382 . S
C1496 C1500 1.393 . S
C1496 C1503 1.500 . S
C1497 C1496 1.382 . S
C1497 C1498 1.400 . S
C1497 H1508 0.930 . S
C1498 C1497 1.400 . S
C1498 C1499 1.384 . S
C1499 C1498 1.384 . S
C1499 C1501 1.392 . S
C1499 H1509 0.931 . S
C1500 C1496 1.393 . S
C1500 C1501 1.401 . S
C1500 H1510 0.930 . S
C1501 C1499 1.392 . S
C1501 C1500 1.401 . S
C1501 H1511 0.930 . S
C1502 O1480 1.262 . S
C1502 O1481 1.260 . S
C1503 Tb1439 2.833 . S
C1503 O1478 1.251 . S
C1503 O1483 1.256 . S
C1503 C1496 1.500 . S
H1504 C1487 0.930 . S
H1505 C1488 0.931 1_565 S
H1506 C1489 0.930 . S
H1507 C1490 0.930 . S
H1508 C1497 0.930 . S
H1509 C1499 0.931 . S
H1510 C1500 0.930 . S
H1511 C1501 0.930 . S
Tb1512 N1543 2.660 . S
Tb1512 N1550 2.600 . S
Tb1512 O1556 2.546 . S
Tb1512 O1557 2.610 . S
Tb1512 O1559 2.320 . S
Tb1512 O1560 2.552 . S
Tb1512 O1561 2.413 . S
Tb1512 O1563 2.362 . S
Tb1512 O1564 2.421 . S
Tb1512 C1576 2.833 . S
C1513 C1516 1.432 . S
C1513 C1517 1.414 . S
C1513 N1520 1.359 . S
C1514 C1516 1.417 . S
C1514 C1518 1.432 . S
C1514 C1526 1.410 . S
C1515 C1517 1.444 . S
C1515 C1518 1.317 . S
C1515 H1538 0.929 . S
C1516 C1513 1.432 . S
C1516 C1514 1.417 . S
C1516 N1524 1.360 . S
C1517 C1513 1.414 . S
C1517 C1515 1.444 . S
C1517 C1522 1.385 . S
C1518 C1514 1.432 . S
C1518 C1515 1.317 . S
C1518 H1530 0.930 . S
C1519 C1521 1.392 . S
C1519 C1522 1.370 . S
C1519 H1531 0.931 . S
N1520 C1513 1.359 . S
N1520 C1521 1.327 . S
N1520 Tb1523 2.600 . S
C1521 C1519 1.392 . S
C1521 N1520 1.327 . S
C1521 H1528 0.930 . S
C1522 C1517 1.385 . S
C1522 C1519 1.370 . S
C1522 H1541 0.930 . S
Tb1523 N1520 2.600 . S
Tb1523 N1524 2.660 . S
Tb1523 O1557 2.362 . S
Tb1523 O1558 2.421 . S
Tb1523 O1562 2.546 . S
Tb1523 O1563 2.610 . S
Tb1523 O1565 2.320 . S
Tb1523 O1566 2.552 . S
Tb1523 O1567 2.413 . S
Tb1523 C1587 2.833 . S
N1524 C1516 1.360 . S
N1524 Tb1523 2.660 . S
N1524 C1525 1.305 . S
C1525 N1524 1.305 . S
C1525 C1527 1.407 . S
C1525 H1532 0.930 . S
C1526 C1514 1.410 . S
C1526 C1527 1.345 . S
C1526 H1534 0.930 . S
C1527 C1525 1.407 . S
C1527 C1526 1.345 . S
C1527 H1529 0.930 . S
H1528 C1521 0.930 . S
H1529 C1527 0.930 . S
H1530 C1518 0.930 . S
H1531 C1519 0.931 . S
H1532 C1525 0.930 . S
H1533 C1547 0.930 . S
H1534 C1526 0.930 . S
H1535 C1553 0.930 . S
H1536 C1544 0.930 . S
H1537 C1551 0.931 . S
H1538 C1515 0.929 . S
H1539 C1545 0.930 . S
H1540 C1578 0.930 . S
H1541 C1522 0.930 . S
H1542 C1577 0.929 . S
N1543 Tb1512 2.660 . S
N1543 C1544 1.305 . S
N1543 C1548 1.360 . S
C1544 H1536 0.930 . S
C1544 N1543 1.305 . S
C1544 C1547 1.407 1_455 S
C1545 H1539 0.930 . S
C1545 C1546 1.410 . S
C1545 C1547 1.345 . S
C1546 C1545 1.410 . S
C1546 C1548 1.417 1_655 S
C1546 C1578 1.432 . S
C1547 H1533 0.930 . S
C1547 C1544 1.407 1_655 S
C1547 C1545 1.345 . S
C1548 N1543 1.360 . S
C1548 C1546 1.417 1_455 S
C1548 C1552 1.432 . S
H1549 C1554 0.930 . S
N1550 Tb1512 2.600 . S
N1550 C1552 1.359 . S
N1550 C1553 1.327 . S
C1551 H1537 0.931 . S
C1551 C1553 1.392 . S
C1551 C1554 1.370 . S
C1552 C1548 1.432 . S
C1552 N1550 1.359 . S
C1552 C1555 1.414 . S
C1553 H1535 0.930 . S
C1553 N1550 1.327 . S
C1553 C1551 1.392 . S
C1554 H1549 0.930 . S
C1554 C1551 1.370 . S
C1554 C1555 1.385 . S
C1555 C1552 1.414 . S
C1555 C1554 1.385 . S
C1555 C1577 1.444 1_455 S
O1556 Tb1512 2.546 . S
O1556 C1576 1.251 . S
O1557 Tb1512 2.610 . S
O1557 Tb1523 2.362 . S
O1557 C1568 1.283 . S
O1558 Tb1523 2.421 . S
O1558 C1575 1.262 . S
O1559 Tb1512 2.320 . S
O1559 C1575 1.260 . S
O1560 Tb1512 2.552 . S
O1560 C1568 1.243 . S
O1561 Tb1512 2.413 . S
O1561 C1576 1.256 . S
O1562 Tb1523 2.546 . S
O1562 C1587 1.251 . S
O1563 Tb1512 2.362 . S
O1563 Tb1523 2.610 . S
O1563 C1579 1.283 . S
O1564 Tb1512 2.421 . S
O1564 C1586 1.262 . S
O1565 Tb1523 2.320 . S
O1565 C1586 1.260 . S
O1566 Tb1523 2.552 . S
O1566 C1579 1.243 . S
O1567 Tb1523 2.413 . S
O1567 C1587 1.256 . S
C1568 O1557 1.283 . S
C1568 O1560 1.243 . S
C1569 C1571 1.382 . S
C1569 C1573 1.393 . S
C1569 C1576 1.500 . S
C1570 C1571 1.400 . S
C1570 C1572 1.384 . S
C1571 C1569 1.382 . S
C1571 C1570 1.400 . S
C1571 H1588 0.930 . S
C1572 C1570 1.384 . S
C1572 C1574 1.392 . S
C1572 H1589 0.931 . S
C1573 C1569 1.393 . S
C1573 C1574 1.401 . S
C1573 H1590 0.930 . S
C1574 C1572 1.392 . S
C1574 C1573 1.401 . S
C1574 H1591 0.930 . S
C1575 O1558 1.262 . S
C1575 O1559 1.260 . S
C1576 Tb1512 2.833 . S
C1576 O1556 1.251 . S
C1576 O1561 1.256 . S
C1576 C1569 1.500 . S
C1577 H1542 0.929 . S
C1577 C1555 1.444 1_655 S
C1577 C1578 1.317 . S
C1578 H1540 0.930 . S
C1578 C1546 1.432 . S
C1578 C1577 1.317 . S
C1579 O1563 1.283 . S
C1579 O1566 1.243 . S
C1580 C1581 1.382 . S
C1580 C1584 1.393 . S
C1580 C1587 1.500 . S
C1581 C1580 1.382 . S
C1581 C1582 1.400 . S
C1581 H1592 0.930 . S
C1582 C1581 1.400 . S
C1582 C1583 1.384 . S
C1583 C1582 1.384 . S
C1583 C1585 1.392 . S
C1583 H1593 0.931 1_545 S
C1584 C1580 1.393 . S
C1584 C1585 1.401 . S
C1584 H1594 0.930 . S
C1585 C1583 1.392 . S
C1585 C1584 1.401 . S
C1585 H1595 0.930 . S
C1586 O1564 1.262 . S
C1586 O1565 1.260 . S
C1587 Tb1523 2.833 . S
C1587 O1562 1.251 . S
C1587 O1567 1.256 . S
C1587 C1580 1.500 . S
H1588 C1571 0.930 . S
H1589 C1572 0.931 . S
H1590 C1573 0.930 . S
H1591 C1574 0.930 . S
H1592 C1581 0.930 . S
H1593 C1583 0.931 1_565 S
H1594 C1584 0.930 . S
H1595 C1585 0.930 . S
Tb1596 N1627 2.660 . S
Tb1596 N1634 2.600 . S
Tb1596 O1640 2.546 . S
Tb1596 O1641 2.610 . S
Tb1596 O1643 2.320 . S
Tb1596 O1644 2.552 . S
Tb1596 O1645 2.413 . S
Tb1596 O1647 2.362 . S
Tb1596 O1648 2.421 . S
Tb1596 C1660 2.833 . S
C1597 C1600 1.432 . S
C1597 C1601 1.414 . S
C1597 N1604 1.359 . S
C1598 C1600 1.417 . S
C1598 C1602 1.432 . S
C1598 C1610 1.410 . S
C1599 C1601 1.444 . S
C1599 C1602 1.317 . S
C1599 H1622 0.929 . S
C1600 C1597 1.432 . S
C1600 C1598 1.417 . S
C1600 N1608 1.360 . S
C1601 C1597 1.414 . S
C1601 C1599 1.444 . S
C1601 C1606 1.385 . S
C1602 C1598 1.432 . S
C1602 C1599 1.317 . S
C1602 H1614 0.930 . S
C1603 C1605 1.392 . S
C1603 C1606 1.370 . S
C1603 H1615 0.931 . S
N1604 C1597 1.359 . S
N1604 C1605 1.327 . S
N1604 Tb1607 2.600 . S
C1605 C1603 1.392 . S
C1605 N1604 1.327 . S
C1605 H1612 0.930 . S
C1606 C1601 1.385 . S
C1606 C1603 1.370 . S
C1606 H1625 0.930 . S
Tb1607 N1604 2.600 . S
Tb1607 N1608 2.660 . S
Tb1607 O1641 2.362 1_545 S
Tb1607 O1642 2.421 1_545 S
Tb1607 O1646 2.546 . S
Tb1607 O1647 2.610 1_545 S
Tb1607 O1649 2.320 . S
Tb1607 O1650 2.562 . S
Tb1607 O1651 2.413 . S
Tb1607 C1671 2.833 . S
N1608 C1600 1.360 . S
N1608 Tb1607 2.660 . S
N1608 C1609 1.305 . S
C1609 N1608 1.305 . S
C1609 C1611 1.407 . S
C1609 H1616 0.930 . S
C1610 C1598 1.410 . S
C1610 C1611 1.345 . S
C1610 H1618 0.930 . S
C1611 C1609 1.407 . S
C1611 C1610 1.345 . S
C1611 H1613 0.930 . S
H1612 C1605 0.930 . S
H1613 C1611 0.930 . S
H1614 C1602 0.930 . S
H1615 C1603 0.931 . S
H1616 C1609 0.930 . S
H1617 C1631 0.930 . S
H1618 C1610 0.930 . S
H1619 C1637 0.930 . S
H1620 C1628 0.930 . S
H1621 C1635 0.931 . S
H1622 C1599 0.929 . S
H1623 C1629 0.930 . S
H1624 C1662 0.930 . S
H1625 C1606 0.930 . S
H1626 C1661 0.929 . S
N1627 Tb1596 2.660 . S
N1627 C1628 1.305 . S
N1627 C1632 1.360 . S
C1628 H1620 0.930 . S
C1628 N1627 1.305 . S
C1628 C1631 1.407 . S
C1629 H1623 0.930 . S
C1629 C1630 1.410 . S
C1629 C1631 1.345 . S
C1630 C1629 1.410 . S
C1630 C1632 1.417 . S
C1630 C1662 1.432 . S
C1631 H1617 0.930 . S
C1631 C1628 1.407 . S
C1631 C1629 1.345 . S
C1632 N1627 1.360 . S
C1632 C1630 1.417 . S
C1632 C1636 1.432 . S
H1633 C1638 0.930 . S
N1634 Tb1596 2.600 . S
N1634 C1636 1.359 . S
N1634 C1637 1.327 . S
C1635 H1621 0.931 . S
C1635 C1637 1.392 . S
C1635 C1638 1.370 . S
C1636 C1632 1.432 . S
C1636 N1634 1.359 . S
C1636 C1639 1.414 . S
C1637 H1619 0.930 . S
C1637 N1634 1.327 . S
C1637 C1635 1.392 . S
C1638 H1633 0.930 . S
C1638 C1635 1.370 . S
C1638 C1639 1.385 . S
C1639 C1636 1.414 . S
C1639 C1638 1.385 . S
C1639 C1661 1.444 . S
O1640 Tb1596 2.546 . S
O1640 C1660 1.251 . S
O1641 Tb1596 2.610 . S
O1641 Tb1607 2.362 1_565 S
O1641 C1652 1.283 . S
O1642 Tb1607 2.421 1_565 S
O1642 C1659 1.262 . S
O1643 Tb1596 2.320 . S
O1643 C1659 1.260 . S
O1644 Tb1596 2.552 . S
O1644 C1652 1.243 . S
O1645 Tb1596 2.413 . S
O1645 C1660 1.256 . S
O1646 Tb1607 2.546 . S
O1646 C1671 1.251 . S
O1647 Tb1596 2.362 . S
O1647 Tb1607 2.610 1_565 S
O1647 C1663 1.283 . S
O1648 Tb1596 2.421 . S
O1648 C1670 1.262 . S
O1649 Tb1607 2.320 . S
O1649 C1670 1.260 1_545 S
O1650 Tb1607 2.562 . S
O1650 C1663 1.231 1_545 S
O1651 Tb1607 2.413 . S
O1651 C1671 1.256 . S
C1652 O1641 1.283 . S
C1652 O1644 1.243 . S
C1653 C1655 1.382 . S
C1653 C1657 1.393 . S
C1653 C1660 1.500 . S
C1654 C1655 1.400 . S
C1654 C1656 1.384 . S
C1655 C1653 1.382 . S
C1655 C1654 1.400 . S
C1655 H1672 0.930 . S
C1656 C1654 1.384 . S
C1656 C1658 1.392 . S
C1656 H1673 0.931 . S
C1657 C1653 1.393 . S
C1657 C1658 1.401 . S
C1657 H1674 0.930 . S
C1658 C1656 1.392 . S
C1658 C1657 1.401 . S
C1658 H1675 0.930 . S
C1659 O1642 1.262 . S
C1659 O1643 1.260 . S
C1660 Tb1596 2.833 . S
C1660 O1640 1.251 . S
C1660 O1645 1.256 . S
C1660 C1653 1.500 . S
C1661 H1626 0.929 . S
C1661 C1639 1.444 . S
C1661 C1662 1.317 . S
C1662 H1624 0.930 . S
C1662 C1630 1.432 . S
C1662 C1661 1.317 . S
C1663 O1647 1.283 . S
C1663 O1650 1.231 1_565 S
C1664 C1665 1.382 1_655 S
C1664 C1668 1.393 1_655 S
C1664 C1671 1.500 . S
C1665 C1664 1.382 1_455 S
C1665 C1666 1.400 . S
C1665 H1676 0.930 . S
C1666 C1665 1.400 . S
C1666 C1667 1.384 . S
C1667 C1666 1.384 . S
C1667 C1669 1.392 . S
C1667 H1677 0.931 . S
C1668 C1664 1.393 1_455 S
C1668 C1669 1.401 . S
C1668 H1678 0.930 1_455 S
C1669 C1667 1.392 . S
C1669 C1668 1.401 . S
C1669 H1679 0.930 . S
C1670 O1648 1.262 . S
C1670 O1649 1.260 1_565 S
C1671 Tb1607 2.833 . S
C1671 O1646 1.251 . S
C1671 O1651 1.256 . S
C1671 C1664 1.500 . S
H1672 C1655 0.930 . S
H1673 C1656 0.931 . S
H1674 C1657 0.930 . S
H1675 C1658 0.930 . S
H1676 C1665 0.930 . S
H1677 C1667 0.931 . S
H1678 C1668 0.930 1_655 S
H1679 C1669 0.930 . S
Tb1680 N1711 2.660 1_565 S
Tb1680 N1718 2.600 1_565 S
Tb1680 O1724 2.546 . S
Tb1680 O1725 2.610 . S
Tb1680 O1727 2.320 . S
Tb1680 O1728 2.552 . S
Tb1680 O1729 2.413 . S
Tb1680 O1731 2.362 . S
Tb1680 O1732 2.421 . S
Tb1680 C1744 2.833 . S
C1681 C1684 1.432 . S
C1681 C1685 1.414 . S
C1681 N1688 1.359 . S
C1682 C1684 1.417 1_655 S
C1682 C1686 1.432 . S
C1682 C1694 1.410 . S
C1683 C1685 1.444 1_655 S
C1683 C1686 1.317 . S
C1683 H1706 0.929 . S
C1684 C1681 1.432 . S
C1684 C1682 1.417 1_455 S
C1684 N1692 1.360 . S
C1685 C1681 1.414 . S
C1685 C1683 1.444 1_455 S
C1685 C1690 1.385 . S
C1686 C1682 1.432 . S
C1686 C1683 1.317 . S
C1686 H1698 0.930 . S
C1687 C1689 1.392 . S
C1687 C1690 1.370 . S
C1687 H1699 0.931 . S
N1688 C1681 1.359 . S
N1688 C1689 1.327 . S
N1688 Tb1691 2.600 . S
C1689 C1687 1.392 . S
C1689 N1688 1.327 . S
C1689 H1696 0.930 . S
C1690 C1685 1.385 . S
C1690 C1687 1.370 . S
C1690 H1709 0.930 . S
Tb1691 N1688 2.600 . S
Tb1691 N1692 2.660 . S
Tb1691 O1725 2.362 . S
Tb1691 O1726 2.421 . S
Tb1691 O1730 2.546 . S
Tb1691 O1731 2.610 . S
Tb1691 O1733 2.320 . S
Tb1691 O1734 2.552 . S
Tb1691 O1735 2.413 . S
Tb1691 C1755 2.833 . S
N1692 C1684 1.360 . S
N1692 Tb1691 2.660 . S
N1692 C1693 1.305 . S
C1693 N1692 1.305 . S
C1693 C1695 1.407 . S
C1693 H1700 0.930 . S
C1694 C1682 1.410 . S
C1694 C1695 1.345 1_655 S
C1694 H1702 0.930 . S
C1695 C1693 1.407 . S
C1695 C1694 1.345 1_455 S
C1695 H1697 0.930 . S
H1696 C1689 0.930 . S
H1697 C1695 0.930 . S
H1698 C1686 0.930 . S
H1699 C1687 0.931 . S
H1700 C1693 0.930 . S
H1701 C1715 0.930 . S
H1702 C1694 0.930 . S
H1703 C1721 0.930 . S
H1704 C1712 0.930 . S
H1705 C1719 0.931 . S
H1706 C1683 0.929 . S
H1707 C1713 0.930 . S
H1708 C1746 0.930 . S
H1709 C1690 0.930 . S
H1710 C1745 0.929 . S
N1711 Tb1680 2.660 1_545 S
N1711 C1712 1.305 . S
N1711 C1716 1.360 . S
C1712 H1704 0.930 . S
C1712 N1711 1.305 . S
C1712 C1715 1.407 . S
C1713 H1707 0.930 . S
C1713 C1714 1.410 . S
C1713 C1715 1.345 . S
C1714 C1713 1.410 . S
C1714 C1716 1.417 . S
C1714 C1746 1.432 . S
C1715 H1701 0.930 . S
C1715 C1712 1.407 . S
C1715 C1713 1.345 . S
C1716 N1711 1.360 . S
C1716 C1714 1.417 . S
C1716 C1720 1.432 . S
H1717 C1722 0.930 . S
N1718 Tb1680 2.600 1_545 S
N1718 C1720 1.359 . S
N1718 C1721 1.327 1_545 S
C1719 H1705 0.931 . S
C1719 C1721 1.392 1_545 S
C1719 C1722 1.370 . S
C1720 C1716 1.432 . S
C1720 N1718 1.359 . S
C1720 C1723 1.414 . S
C1721 H1703 0.930 . S
C1721 N1718 1.327 1_565 S
C1721 C1719 1.392 1_565 S
C1722 H1717 0.930 . S
C1722 C1719 1.370 . S
C1722 C1723 1.385 . S
C1723 C1720 1.414 . S
C1723 C1722 1.385 . S
C1723 C1745 1.444 . S
O1724 Tb1680 2.546 . S
O1724 C1744 1.251 . S
O1725 Tb1680 2.610 . S
O1725 Tb1691 2.362 . S
O1725 C1736 1.283 . S
O1726 Tb1691 2.421 . S
O1726 C1743 1.262 . S
O1727 Tb1680 2.320 . S
O1727 C1743 1.260 . S
O1728 Tb1680 2.552 . S
O1728 C1736 1.243 . S
O1729 Tb1680 2.413 . S
O1729 C1744 1.256 . S
O1730 Tb1691 2.546 . S
O1730 C1755 1.251 . S
O1731 Tb1680 2.362 . S
O1731 Tb1691 2.610 . S
O1731 C1747 1.283 . S
O1732 Tb1680 2.421 . S
O1732 C1754 1.262 . S
O1733 Tb1691 2.320 . S
O1733 C1754 1.260 . S
O1734 Tb1691 2.552 . S
O1734 C1747 1.243 . S
O1735 Tb1691 2.413 . S
O1735 C1755 1.256 . S
C1736 O1725 1.283 . S
C1736 O1728 1.243 . S
C1737 C1739 1.382 . S
C1737 C1741 1.393 . S
C1737 C1744 1.500 . S
C1738 C1739 1.400 . S
C1738 C1740 1.384 . S
C1739 C1737 1.382 . S
C1739 C1738 1.400 . S
C1739 H1756 0.930 . S
C1740 C1738 1.384 . S
C1740 C1742 1.392 . S
C1740 H1757 0.931 . S
C1741 C1737 1.393 . S
C1741 C1742 1.401 . S
C1741 H1758 0.930 . S
C1742 C1740 1.392 . S
C1742 C1741 1.401 . S
C1742 H1759 0.930 . S
C1743 O1726 1.262 . S
C1743 O1727 1.260 . S
C1744 Tb1680 2.833 . S
C1744 O1724 1.251 . S
C1744 O1729 1.256 . S
C1744 C1737 1.500 . S
C1745 H1710 0.929 . S
C1745 C1723 1.444 . S
C1745 C1746 1.317 . S
C1746 H1708 0.930 . S
C1746 C1714 1.432 . S
C1746 C1745 1.317 . S
C1747 O1731 1.283 . S
C1747 O1734 1.243 . S
C1748 C1749 1.382 . S
C1748 C1752 1.393 . S
C1748 C1755 1.500 1_655 S
C1749 C1748 1.382 . S
C1749 C1750 1.400 . S
C1749 H1760 0.930 . S
C1750 C1749 1.400 . S
C1750 C1751 1.384 . S
C1751 C1750 1.384 . S
C1751 C1753 1.392 . S
C1751 H1761 0.931 . S
C1752 C1748 1.393 . S
C1752 C1753 1.401 . S
C1752 H1762 0.930 . S
C1753 C1751 1.392 . S
C1753 C1752 1.401 . S
C1753 H1763 0.930 . S
C1754 O1732 1.262 . S
C1754 O1733 1.260 . S
C1755 Tb1691 2.833 . S
C1755 O1730 1.251 . S
C1755 O1735 1.256 . S
C1755 C1748 1.500 1_455 S
H1756 C1739 0.930 . S
H1757 C1740 0.931 . S
H1758 C1741 0.930 . S
H1759 C1742 0.930 . S
H1760 C1749 0.930 . S
H1761 C1751 0.931 . S
H1762 C1752 0.930 . S
H1763 C1753 0.930 . S
Tb1764 N1795 2.660 . S
Tb1764 N1802 2.600 . S
Tb1764 O1808 2.546 . S
Tb1764 O1809 2.610 . S
Tb1764 O1811 2.320 . S
Tb1764 O1812 2.552 . S
Tb1764 O1813 2.413 . S
Tb1764 O1815 2.362 . S
Tb1764 O1816 2.421 . S
Tb1764 C1828 2.833 . S
C1765 C1768 1.432 . S
C1765 C1769 1.414 . S
C1765 N1772 1.359 . S
C1766 C1768 1.417 . S
C1766 C1770 1.432 . S
C1766 C1778 1.410 . S
C1767 C1769 1.444 . S
C1767 C1770 1.317 . S
C1767 H1790 0.929 . S
C1768 C1765 1.432 . S
C1768 C1766 1.417 . S
C1768 N1776 1.360 . S
C1769 C1765 1.414 . S
C1769 C1767 1.444 . S
C1769 C1774 1.385 . S
C1770 C1766 1.432 . S
C1770 C1767 1.317 . S
C1770 H1782 0.930 . S
C1771 C1773 1.392 . S
C1771 C1774 1.370 . S
C1771 H1783 0.931 . S
N1772 C1765 1.359 . S
N1772 C1773 1.327 . S
N1772 Tb1775 2.600 1_545 S
C1773 C1771 1.392 . S
C1773 N1772 1.327 . S
C1773 H1780 0.930 1_545 S
C1774 C1769 1.385 . S
C1774 C1771 1.370 . S
C1774 H1793 0.930 . S
Tb1775 N1772 2.600 1_565 S
Tb1775 N1776 2.660 1_565 S
Tb1775 O1809 2.362 . S
Tb1775 O1810 2.421 . S
Tb1775 O1814 2.546 . S
Tb1775 O1815 2.610 . S
Tb1775 O1817 2.320 . S
Tb1775 O1818 2.552 . S
Tb1775 O1819 2.413 . S
Tb1775 C1839 2.833 . S
N1776 C1768 1.360 . S
N1776 Tb1775 2.660 1_545 S
N1776 C1777 1.305 . S
C1777 N1776 1.305 . S
C1777 C1779 1.407 . S
C1777 H1784 0.930 . S
C1778 C1766 1.410 . S
C1778 C1779 1.345 . S
C1778 H1786 0.930 . S
C1779 C1777 1.407 . S
C1779 C1778 1.345 . S
C1779 H1781 0.930 . S
H1780 C1773 0.930 1_565 S
H1781 C1779 0.930 . S
H1782 C1770 0.930 . S
H1783 C1771 0.931 . S
H1784 C1777 0.930 . S
H1785 C1799 0.930 . S
H1786 C1778 0.930 . S
H1787 C1805 0.930 . S
H1788 C1796 0.930 . S
H1789 C1803 0.931 . S
H1790 C1767 0.929 . S
H1791 C1797 0.930 . S
H1792 C1830 0.930 . S
H1793 C1774 0.930 . S
H1794 C1829 0.929 . S
N1795 Tb1764 2.660 . S
N1795 C1796 1.305 . S
N1795 C1800 1.360 . S
C1796 H1788 0.930 . S
C1796 N1795 1.305 . S
C1796 C1799 1.407 . S
C1797 H1791 0.930 . S
C1797 C1798 1.410 . S
C1797 C1799 1.345 . S
C1798 C1797 1.410 . S
C1798 C1800 1.417 . S
C1798 C1830 1.432 . S
C1799 H1785 0.930 . S
C1799 C1796 1.407 . S
C1799 C1797 1.345 . S
C1800 N1795 1.360 . S
C1800 C1798 1.417 . S
C1800 C1804 1.432 . S
H1801 C1806 0.930 . S
N1802 Tb1764 2.600 . S
N1802 C1804 1.359 . S
N1802 C1805 1.327 . S
C1803 H1789 0.931 . S
C1803 C1805 1.392 . S
C1803 C1806 1.370 . S
C1804 C1800 1.432 . S
C1804 N1802 1.359 . S
C1804 C1807 1.414 . S
C1805 H1787 0.930 . S
C1805 N1802 1.327 . S
C1805 C1803 1.392 . S
C1806 H1801 0.930 . S
C1806 C1803 1.370 . S
C1806 C1807 1.385 . S
C1807 C1804 1.414 . S
C1807 C1806 1.385 . S
C1807 C1829 1.444 . S
O1808 Tb1764 2.546 . S
O1808 C1828 1.251 . S
O1809 Tb1764 2.610 . S
O1809 Tb1775 2.362 . S
O1809 C1820 1.283 1_565 S
O1810 Tb1775 2.421 . S
O1810 C1827 1.262 . S
O1811 Tb1764 2.320 . S
O1811 C1827 1.260 . S
O1812 Tb1764 2.552 . S
O1812 C1820 1.243 1_565 S
O1813 Tb1764 2.413 . S
O1813 C1828 1.256 . S
O1814 Tb1775 2.546 . S
O1814 C1839 1.251 . S
O1815 Tb1764 2.362 . S
O1815 Tb1775 2.610 . S
O1815 C1831 1.283 . S
O1816 Tb1764 2.421 . S
O1816 C1838 1.262 . S
O1817 Tb1775 2.320 . S
O1817 C1838 1.260 . S
O1818 Tb1775 2.552 . S
O1818 C1831 1.243 . S
O1819 Tb1775 2.413 . S
O1819 C1839 1.256 . S
C1820 O1809 1.283 1_545 S
C1820 O1812 1.243 1_545 S
C1821 C1823 1.389 . S
C1821 C1825 1.393 . S
C1821 C1828 1.500 . S
C1822 C1823 1.389 1_455 S
C1822 C1824 1.384 . S
C1823 C1821 1.389 . S
C1823 C1822 1.389 1_655 S
C1823 H1840 0.935 . S
C1824 C1822 1.384 . S
C1824 C1826 1.392 . S
C1824 H1841 0.931 . S
C1825 C1821 1.393 . S
C1825 C1826 1.401 1_655 S
C1825 H1842 0.930 . S
C1826 C1824 1.392 . S
C1826 C1825 1.401 1_455 S
C1826 H1843 0.930 . S
C1827 O1810 1.262 . S
C1827 O1811 1.260 . S
C1828 Tb1764 2.833 . S
C1828 O1808 1.251 . S
C1828 O1813 1.256 . S
C1828 C1821 1.500 . S
C1829 H1794 0.929 . S
C1829 C1807 1.444 . S
C1829 C1830 1.317 . S
C1830 H1792 0.930 . S
C1830 C1798 1.432 . S
C1830 C1829 1.317 . S
C1831 O1815 1.283 . S
C1831 O1818 1.243 . S
C1832 C1833 1.382 . S
C1832 C1836 1.393 . S
C1832 C1839 1.500 . S
C1833 C1832 1.382 . S
C1833 C1834 1.400 . S
C1833 H1844 0.930 . S
C1834 C1833 1.400 . S
C1834 C1835 1.384 . S
C1835 C1834 1.384 . S
C1835 C1837 1.392 . S
C1835 H1845 0.931 . S
C1836 C1832 1.393 . S
C1836 C1837 1.401 . S
C1836 H1846 0.930 . S
C1837 C1835 1.392 . S
C1837 C1836 1.401 . S
C1837 H1847 0.930 . S
C1838 O1816 1.262 . S
C1838 O1817 1.260 . S
C1839 Tb1775 2.833 . S
C1839 O1814 1.251 . S
C1839 O1819 1.256 . S
C1839 C1832 1.500 . S
H1840 C1823 0.935 . S
H1841 C1824 0.931 . S
H1842 C1825 0.930 . S
H1843 C1826 0.930 . S
H1844 C1833 0.930 . S
H1845 C1835 0.931 . S
H1846 C1836 0.930 . S
H1847 C1837 0.930 . S
Tb1848 N1879 2.660 1_565 S
Tb1848 N1886 2.600 1_565 S
Tb1848 O1892 2.546 1_565 S
Tb1848 O1893 2.610 . S
Tb1848 O1895 2.320 . S
Tb1848 O1896 2.552 . S
Tb1848 O1897 2.413 1_565 S
Tb1848 O1899 2.362 . S
Tb1848 O1900 2.421 . S
Tb1848 C1912 2.833 1_565 S
C1849 C1852 1.432 . S
C1849 C1853 1.404 1_455 S
C1849 N1856 1.359 . S
C1850 C1852 1.417 1_655 S
C1850 C1854 1.432 . S
C1850 C1862 1.410 . S
C1851 C1853 1.461 . S
C1851 C1854 1.317 . S
C1851 H1874 0.929 . S
C1852 C1849 1.432 . S
C1852 C1850 1.417 1_455 S
C1852 N1860 1.360 . S
C1853 C1849 1.404 1_655 S
C1853 C1851 1.461 . S
C1853 C1858 1.377 1_655 S
C1854 C1850 1.432 . S
C1854 C1851 1.317 . S
C1854 H1866 0.930 . S
C1855 C1857 1.392 . S
C1855 C1858 1.370 . S
C1855 H1867 0.931 . S
N1856 C1849 1.359 . S
N1856 C1857 1.327 . S
N1856 Tb1859 2.600 . S
C1857 C1855 1.392 . S
C1857 N1856 1.327 . S
C1857 H1864 0.930 . S
C1858 C1853 1.377 1_455 S
C1858 C1855 1.370 . S
C1858 H1877 0.930 1_455 S
Tb1859 N1856 2.600 . S
Tb1859 N1860 2.660 . S
Tb1859 O1893 2.362 . S
Tb1859 O1894 2.421 . S
Tb1859 O1898 2.546 . S
Tb1859 O1899 2.610 . S
Tb1859 O1901 2.320 . S
Tb1859 O1902 2.552 . S
Tb1859 O1903 2.413 . S
Tb1859 C1923 2.833 . S
N1860 C1852 1.360 . S
N1860 Tb1859 2.660 . S
N1860 C1861 1.305 . S
C1861 N1860 1.305 . S
C1861 C1863 1.407 1_455 S
C1861 H1868 0.930 . S
C1862 C1850 1.410 . S
C1862 C1863 1.345 . S
C1862 H1870 0.930 . S
C1863 C1861 1.407 1_655 S
C1863 C1862 1.345 . S
C1863 H1865 0.930 . S
H1864 C1857 0.930 . S
H1865 C1863 0.930 . S
H1866 C1854 0.930 . S
H1867 C1855 0.931 . S
H1868 C1861 0.930 . S
H1869 C1883 0.930 . S
H1870 C1862 0.930 . S
H1871 C1889 0.929 1_565 S
H1872 C1880 0.930 . S
H1873 C1887 0.931 . S
H1874 C1851 0.929 . S
H1875 C1881 0.930 . S
H1876 C1914 0.930 . S
H1877 C1858 0.930 1_655 S
H1878 C1913 0.929 . S
N1879 Tb1848 2.660 1_545 S
N1879 C1880 1.305 . S
N1879 C1884 1.360 . S
C1880 H1872 0.930 . S
C1880 N1879 1.305 . S
C1880 C1883 1.407 . S
C1881 H1875 0.930 . S
C1881 C1882 1.410 . S
C1881 C1883 1.345 . S
C1882 C1881 1.410 . S
C1882 C1884 1.417 . S
C1882 C1914 1.432 . S
C1883 H1869 0.930 . S
C1883 C1880 1.407 . S
C1883 C1881 1.345 . S
C1884 N1879 1.360 . S
C1884 C1882 1.417 . S
C1884 C1888 1.432 . S
H1885 C1890 0.930 . S
N1886 Tb1848 2.600 1_545 S
N1886 C1888 1.359 . S
N1886 C1889 1.327 . S
C1887 H1873 0.931 . S
C1887 C1889 1.393 . S
C1887 C1890 1.370 . S
C1888 C1884 1.432 . S
C1888 N1886 1.359 . S
C1888 C1891 1.414 . S
C1889 H1871 0.929 1_545 S
C1889 N1886 1.327 . S
C1889 C1887 1.393 . S
C1890 H1885 0.930 . S
C1890 C1887 1.370 . S
C1890 C1891 1.385 . S
C1891 C1888 1.414 . S
C1891 C1890 1.385 . S
C1891 C1913 1.444 . S
O1892 Tb1848 2.546 1_545 S
O1892 C1912 1.251 . S
O1893 Tb1848 2.610 . S
O1893 Tb1859 2.362 . S
O1893 C1904 1.283 . S
O1894 Tb1859 2.421 . S
O1894 C1911 1.262 . S
O1895 Tb1848 2.320 . S
O1895 C1911 1.260 . S
O1896 Tb1848 2.552 . S
O1896 C1904 1.243 . S
O1897 Tb1848 2.413 1_545 S
O1897 C1912 1.256 . S
O1898 Tb1859 2.546 . S
O1898 C1923 1.251 . S
O1899 Tb1848 2.362 . S
O1899 Tb1859 2.610 . S
O1899 C1915 1.283 . S
O1900 Tb1848 2.421 . S
O1900 C1922 1.262 . S
O1901 Tb1859 2.320 . S
O1901 C1922 1.260 . S
O1902 Tb1859 2.552 . S
O1902 C1915 1.243 . S
O1903 Tb1859 2.413 . S
O1903 C1923 1.256 . S
C1904 O1893 1.283 . S
C1904 O1896 1.243 . S
C1905 C1907 1.382 . S
C1905 C1909 1.393 . S
C1905 C1912 1.500 . S
C1906 C1907 1.400 . S
C1906 C1908 1.384 . S
C1907 C1905 1.382 . S
C1907 C1906 1.400 . S
C1907 H1924 0.930 . S
C1908 C1906 1.384 . S
C1908 C1910 1.392 . S
C1908 H1925 0.931 . S
C1909 C1905 1.393 . S
C1909 C1910 1.401 . S
C1909 H1926 0.930 . S
C1910 C1908 1.392 . S
C1910 C1909 1.401 . S
C1910 H1927 0.930 . S
C1911 O1894 1.262 . S
C1911 O1895 1.260 . S
C1912 Tb1848 2.833 1_545 S
C1912 O1892 1.251 . S
C1912 O1897 1.256 . S
C1912 C1905 1.500 . S
C1913 H1878 0.929 . S
C1913 C1891 1.444 . S
C1913 C1914 1.317 . S
C1914 H1876 0.930 . S
C1914 C1882 1.432 . S
C1914 C1913 1.317 . S
C1915 O1899 1.283 . S
C1915 O1902 1.243 . S
C1916 C1917 1.382 . S
C1916 C1920 1.393 . S
C1916 C1923 1.500 . S
C1917 C1916 1.382 . S
C1917 C1918 1.400 . S
C1917 H1928 0.930 . S
C1918 C1917 1.400 . S
C1918 C1919 1.384 . S
C1919 C1918 1.384 . S
C1919 C1921 1.392 . S
C1919 H1929 0.931 . S
C1920 C1916 1.393 . S
C1920 C1921 1.401 . S
C1920 H1930 0.930 . S
C1921 C1919 1.392 . S
C1921 C1920 1.401 . S
C1921 H1931 0.930 . S
C1922 O1900 1.262 . S
C1922 O1901 1.260 . S
C1923 Tb1859 2.833 . S
C1923 O1898 1.251 . S
C1923 O1903 1.256 . S
C1923 C1916 1.500 . S
H1924 C1907 0.930 . S
H1925 C1908 0.931 . S
H1926 C1909 0.930 . S
H1927 C1910 0.930 . S
H1928 C1917 0.930 . S
H1929 C1919 0.931 . S
H1930 C1920 0.930 . S
H1931 C1921 0.930 . S
Tb1932 N1963 2.660 . S
Tb1932 N1970 2.600 . S
Tb1932 O1976 2.546 . S
Tb1932 O1977 2.610 . S
Tb1932 O1979 2.320 . S
Tb1932 O1980 2.552 . S
Tb1932 O1981 2.413 . S
Tb1932 O1983 2.362 . S
Tb1932 O1984 2.421 . S
Tb1932 C1996 2.833 . S
C1933 C1936 1.432 . S
C1933 C1937 1.414 . S
C1933 N1940 1.359 . S
C1934 C1936 1.417 . S
C1934 C1938 1.432 . S
C1934 C1946 1.410 . S
C1935 C1937 1.444 . S
C1935 C1938 1.317 . S
C1935 H1958 0.929 . S
C1936 C1933 1.432 . S
C1936 C1934 1.417 . S
C1936 N1944 1.360 . S
C1937 C1933 1.414 . S
C1937 C1935 1.444 . S
C1937 C1942 1.385 . S
C1938 C1934 1.432 . S
C1938 C1935 1.317 . S
C1938 H1950 0.930 . S
C1939 C1941 1.392 . S
C1939 C1942 1.370 . S
C1939 H1951 0.931 . S
N1940 C1933 1.359 . S
N1940 C1941 1.327 . S
N1940 Tb1943 2.600 . S
C1941 C1939 1.392 . S
C1941 N1940 1.327 . S
C1941 H1948 0.930 . S
C1942 C1937 1.385 . S
C1942 C1939 1.370 . S
C1942 H1961 0.930 . S
Tb1943 N1940 2.600 . S
Tb1943 N1944 2.660 . S
Tb1943 O1977 2.362 . S
Tb1943 O1978 2.421 . S
Tb1943 O1982 2.546 . S
Tb1943 O1983 2.610 . S
Tb1943 O1985 2.320 . S
Tb1943 O1986 2.552 . S
Tb1943 O1987 2.413 . S
Tb1943 C2007 2.833 . S
N1944 C1936 1.360 . S
N1944 Tb1943 2.660 . S
N1944 C1945 1.305 . S
C1945 N1944 1.305 . S
C1945 C1947 1.407 . S
C1945 H1952 0.930 . S
C1946 C1934 1.410 . S
C1946 C1947 1.345 . S
C1946 H1954 0.930 . S
C1947 C1945 1.407 . S
C1947 C1946 1.345 . S
C1947 H1949 0.930 . S
H1948 C1941 0.930 . S
H1949 C1947 0.930 . S
H1950 C1938 0.930 . S
H1951 C1939 0.931 . S
H1952 C1945 0.930 . S
H1953 C1967 0.930 . S
H1954 C1946 0.930 . S
H1955 C1973 0.930 . S
H1956 C1964 0.930 . S
H1957 C1971 0.931 . S
H1958 C1935 0.929 . S
H1959 C1965 0.930 . S
H1960 C1998 0.930 1_655 S
H1961 C1942 0.930 . S
H1962 C1997 0.929 . S
N1963 Tb1932 2.660 . S
N1963 C1964 1.305 . S
N1963 C1968 1.360 . S
C1964 H1956 0.930 . S
C1964 N1963 1.305 . S
C1964 C1967 1.407 . S
C1965 H1959 0.930 . S
C1965 C1966 1.410 . S
C1965 C1967 1.345 . S
C1966 C1965 1.410 . S
C1966 C1968 1.417 . S
C1966 C1998 1.432 . S
C1967 H1953 0.930 . S
C1967 C1964 1.407 . S
C1967 C1965 1.345 . S
C1968 N1963 1.360 . S
C1968 C1966 1.417 . S
C1968 C1972 1.432 . S
H1969 C1974 0.930 . S
N1970 Tb1932 2.600 . S
N1970 C1972 1.359 . S
N1970 C1973 1.327 . S
C1971 H1957 0.931 . S
C1971 C1973 1.392 . S
C1971 C1974 1.370 . S
C1972 C1968 1.432 . S
C1972 N1970 1.359 . S
C1972 C1975 1.414 . S
C1973 H1955 0.930 . S
C1973 N1970 1.327 . S
C1973 C1971 1.392 . S
C1974 H1969 0.930 . S
C1974 C1971 1.370 . S
C1974 C1975 1.385 . S
C1975 C1972 1.414 . S
C1975 C1974 1.385 . S
C1975 C1997 1.444 . S
O1976 Tb1932 2.546 . S
O1976 C1996 1.251 . S
O1977 Tb1932 2.610 . S
O1977 Tb1943 2.362 . S
O1977 C1988 1.283 . S
O1978 Tb1943 2.421 . S
O1978 C1995 1.262 . S
O1979 Tb1932 2.320 . S
O1979 C1995 1.260 . S
O1980 Tb1932 2.552 . S
O1980 C1988 1.243 . S
O1981 Tb1932 2.413 . S
O1981 C1996 1.256 . S
O1982 Tb1943 2.546 . S
O1982 C2007 1.251 . S
O1983 Tb1932 2.362 . S
O1983 Tb1943 2.610 . S
O1983 C1999 1.283 . S
O1984 Tb1932 2.421 . S
O1984 C2006 1.262 . S
O1985 Tb1943 2.320 . S
O1985 C2006 1.260 . S
O1986 Tb1943 2.552 . S
O1986 C1999 1.243 . S
O1987 Tb1943 2.413 . S
O1987 C2007 1.256 . S
C1988 O1977 1.283 . S
C1988 O1980 1.243 . S
C1989 C1991 1.382 . S
C1989 C1993 1.393 . S
C1989 C1996 1.500 1_655 S
C1990 C1991 1.400 . S
C1990 C1992 1.384 . S
C1991 C1989 1.382 . S
C1991 C1990 1.400 . S
C1991 H2008 0.930 . S
C1992 C1990 1.384 . S
C1992 C1994 1.392 . S
C1992 H2009 0.931 . S
C1993 C1989 1.393 . S
C1993 C1994 1.401 . S
C1993 H2010 0.930 . S
C1994 C1992 1.392 . S
C1994 C1993 1.401 . S
C1994 H2011 0.930 . S
C1995 O1978 1.262 . S
C1995 O1979 1.260 . S
C1996 Tb1932 2.833 . S
C1996 O1976 1.251 . S
C1996 O1981 1.256 . S
C1996 C1989 1.500 1_455 S
C1997 H1962 0.929 . S
C1997 C1975 1.444 . S
C1997 C1998 1.317 . S
C1998 H1960 0.930 1_455 S
C1998 C1966 1.432 . S
C1998 C1997 1.317 . S
C1999 O1983 1.283 . S
C1999 O1986 1.243 . S
C2000 C2001 1.382 . S
C2000 C2004 1.393 . S
C2000 C2007 1.500 . S
C2001 C2000 1.382 . S
C2001 C2002 1.400 . S
C2001 H2012 0.930 . S
C2002 C2001 1.400 . S
C2002 C2003 1.384 . S
C2003 C2002 1.384 . S
C2003 C2005 1.392 . S
C2003 H2013 0.931 . S
C2004 C2000 1.393 . S
C2004 C2005 1.401 . S
C2004 H2014 0.930 . S
C2005 C2003 1.392 . S
C2005 C2004 1.401 . S
C2005 H2015 0.930 . S
C2006 O1984 1.262 . S
C2006 O1985 1.260 . S
C2007 Tb1943 2.833 . S
C2007 O1982 1.251 . S
C2007 O1987 1.256 . S
C2007 C2000 1.500 . S
H2008 C1991 0.930 . S
H2009 C1992 0.931 . S
H2010 C1993 0.930 . S
H2011 C1994 0.930 . S
H2012 C2001 0.930 . S
H2013 C2003 0.931 . S
H2014 C2004 0.930 . S
H2015 C2005 0.930 . S
Tb2016 N2047 2.660 . S
Tb2016 N2054 2.600 . S
Tb2016 O2060 2.546 . S
Tb2016 O2061 2.610 . S
Tb2016 O2063 2.320 . S
Tb2016 O2064 2.552 . S
Tb2016 O2065 2.413 . S
Tb2016 O2067 2.362 . S
Tb2016 O2068 2.421 . S
Tb2016 C2080 2.833 . S
C2017 C2020 1.432 . S
C2017 C2021 1.414 . S
C2017 N2024 1.359 . S
C2018 C2020 1.417 . S
C2018 C2022 1.432 . S
C2018 C2030 1.410 . S
C2019 C2021 1.444 . S
C2019 C2022 1.317 . S
C2019 H2042 0.929 . S
C2020 C2017 1.432 . S
C2020 C2018 1.417 . S
C2020 N2028 1.360 . S
C2021 C2017 1.414 . S
C2021 C2019 1.444 . S
C2021 C2026 1.385 . S
C2022 C2018 1.432 . S
C2022 C2019 1.317 . S
C2022 H2034 0.930 . S
C2023 C2025 1.392 1_455 S
C2023 C2026 1.370 . S
C2023 H2035 0.931 . S
N2024 C2017 1.359 . S
N2024 C2025 1.327 1_455 S
N2024 Tb2027 2.600 1_455 S
C2025 C2023 1.392 1_655 S
C2025 N2024 1.327 1_655 S
C2025 H2032 0.930 . S
C2026 C2021 1.385 . S
C2026 C2023 1.370 . S
C2026 H2045 0.930 . S
Tb2027 N2024 2.600 1_655 S
Tb2027 N2028 2.660 1_655 S
Tb2027 O2061 2.362 . S
Tb2027 O2062 2.421 . S
Tb2027 O2066 2.546 . S
Tb2027 O2067 2.610 . S
Tb2027 O2069 2.320 . S
Tb2027 O2070 2.552 . S
Tb2027 O2071 2.413 . S
Tb2027 C2091 2.833 . S
N2028 C2020 1.360 . S
N2028 Tb2027 2.660 1_455 S
N2028 C2029 1.305 . S
C2029 N2028 1.305 . S
C2029 C2031 1.407 . S
C2029 H2036 0.930 . S
C2030 C2018 1.410 . S
C2030 C2031 1.345 . S
C2030 H2038 0.930 . S
C2031 C2029 1.407 . S
C2031 C2030 1.345 . S
C2031 H2033 0.930 . S
H2032 C2025 0.930 . S
H2033 C2031 0.930 . S
H2034 C2022 0.930 . S
H2035 C2023 0.931 . S
H2036 C2029 0.930 . S
H2037 C2051 0.930 . S
H2038 C2030 0.930 . S
H2039 C2057 0.930 . S
H2040 C2048 0.930 . S
H2041 C2055 0.931 . S
H2042 C2019 0.929 . S
H2043 C2049 0.930 . S
H2044 C2082 0.930 . S
H2045 C2026 0.930 . S
H2046 C2081 0.929 . S
N2047 Tb2016 2.660 . S
N2047 C2048 1.305 . S
N2047 C2052 1.360 . S
C2048 H2040 0.930 . S
C2048 N2047 1.305 . S
C2048 C2051 1.407 . S
C2049 H2043 0.930 . S
C2049 C2050 1.410 . S
C2049 C2051 1.345 . S
C2050 C2049 1.410 . S
C2050 C2052 1.417 . S
C2050 C2082 1.432 . S
C2051 H2037 0.930 . S
C2051 C2048 1.407 . S
C2051 C2049 1.345 . S
C2052 N2047 1.360 . S
C2052 C2050 1.417 . S
C2052 C2056 1.432 . S
H2053 C2058 0.930 . S
N2054 Tb2016 2.600 . S
N2054 C2056 1.359 . S
N2054 C2057 1.327 . S
C2055 H2041 0.931 . S
C2055 C2057 1.392 . S
C2055 C2058 1.370 . S
C2056 C2052 1.432 . S
C2056 N2054 1.359 . S
C2056 C2059 1.414 . S
C2057 H2039 0.930 . S
C2057 N2054 1.327 . S
C2057 C2055 1.392 . S
C2058 H2053 0.930 . S
C2058 C2055 1.370 . S
C2058 C2059 1.385 . S
C2059 C2056 1.414 . S
C2059 C2058 1.385 . S
C2059 C2081 1.444 . S
O2060 Tb2016 2.546 . S
O2060 C2080 1.251 . S
O2061 Tb2016 2.610 . S
O2061 Tb2027 2.362 . S
O2061 C2072 1.283 . S
O2062 Tb2027 2.421 . S
O2062 C2079 1.262 . S
O2063 Tb2016 2.320 . S
O2063 C2079 1.260 . S
O2064 Tb2016 2.552 . S
O2064 C2072 1.243 . S
O2065 Tb2016 2.413 . S
O2065 C2080 1.256 . S
O2066 Tb2027 2.546 . S
O2066 C2091 1.251 . S
O2067 Tb2016 2.362 . S
O2067 Tb2027 2.610 . S
O2067 C2083 1.283 . S
O2068 Tb2016 2.421 . S
O2068 C2090 1.262 . S
O2069 Tb2027 2.320 . S
O2069 C2090 1.260 . S
O2070 Tb2027 2.552 . S
O2070 C2083 1.243 . S
O2071 Tb2027 2.413 . S
O2071 C2091 1.256 . S
C2072 O2061 1.283 . S
C2072 O2064 1.243 . S
C2073 C2075 1.382 1_565 S
C2073 C2077 1.393 1_565 S
C2073 C2080 1.500 . S
C2074 C2075 1.400 . S
C2074 C2076 1.384 . S
C2075 C2073 1.382 1_545 S
C2075 C2074 1.400 . S
C2075 H2092 0.930 . S
C2076 C2074 1.384 . S
C2076 C2078 1.392 . S
C2076 H2093 0.931 . S
C2077 C2073 1.393 1_545 S
C2077 C2078 1.401 . S
C2077 H2094 0.930 1_545 S
C2078 C2076 1.392 . S
C2078 C2077 1.401 . S
C2078 H2095 0.930 . S
C2079 O2062 1.262 . S
C2079 O2063 1.260 . S
C2080 Tb2016 2.833 . S
C2080 O2060 1.251 . S
C2080 O2065 1.256 . S
C2080 C2073 1.500 . S
C2081 H2046 0.929 . S
C2081 C2059 1.444 . S
C2081 C2082 1.317 . S
C2082 H2044 0.930 . S
C2082 C2050 1.432 . S
C2082 C2081 1.317 . S
C2083 O2067 1.283 . S
C2083 O2070 1.243 . S
C2084 C2085 1.382 . S
C2084 C2088 1.393 . S
C2084 C2091 1.500 . S
C2085 C2084 1.382 . S
C2085 C2086 1.400 . S
C2085 H2096 0.930 . S
C2086 C2085 1.400 . S
C2086 C2087 1.384 . S
C2087 C2086 1.384 . S
C2087 C2089 1.392 . S
C2087 H2097 0.931 . S
C2088 C2084 1.393 . S
C2088 C2089 1.401 . S
C2088 H2098 0.930 . S
C2089 C2087 1.392 . S
C2089 C2088 1.401 . S
C2089 H2099 0.930 . S
C2090 O2068 1.262 . S
C2090 O2069 1.260 . S
C2091 Tb2027 2.833 . S
C2091 O2066 1.251 . S
C2091 O2071 1.256 . S
C2091 C2084 1.500 . S
H2092 C2075 0.930 . S
H2093 C2076 0.931 . S
H2094 C2077 0.930 1_565 S
H2095 C2078 0.930 . S
H2096 C2085 0.930 . S
H2097 C2087 0.931 . S
H2098 C2088 0.930 . S
H2099 C2089 0.930 . S
Tb2100 N2131 2.660 . S
Tb2100 N2138 2.600 . S
Tb2100 O2144 2.546 . S
Tb2100 O2145 2.610 . S
Tb2100 O2147 2.320 . S
Tb2100 O2148 2.552 . S
Tb2100 O2149 2.413 . S
Tb2100 O2151 2.362 . S
Tb2100 O2152 2.421 . S
Tb2100 C2164 2.833 . S
C2101 C2104 1.432 . S
C2101 C2105 1.414 . S
C2101 N2108 1.359 . S
C2102 C2104 1.417 . S
C2102 C2106 1.432 . S
C2102 C2114 1.410 . S
C2103 C2105 1.444 . S
C2103 C2106 1.317 . S
C2103 H2126 0.929 . S
C2104 C2101 1.432 . S
C2104 C2102 1.417 . S
C2104 N2112 1.360 . S
C2105 C2101 1.414 . S
C2105 C2103 1.444 . S
C2105 C2110 1.385 . S
C2106 C2102 1.432 . S
C2106 C2103 1.317 . S
C2106 H2118 0.930 . S
C2107 C2109 1.392 . S
C2107 C2110 1.370 . S
C2107 H2119 0.931 . S
N2108 C2101 1.359 . S
N2108 C2109 1.327 . S
N2108 Tb2111 2.600 . S
C2109 C2107 1.392 . S
C2109 N2108 1.327 . S
C2109 H2116 0.930 . S
C2110 C2105 1.385 . S
C2110 C2107 1.370 . S
C2110 H2129 0.930 . S
Tb2111 N2108 2.600 . S
Tb2111 N2112 2.660 . S
Tb2111 O2145 2.362 . S
Tb2111 O2146 2.421 . S
Tb2111 O2150 2.546 . S
Tb2111 O2151 2.610 . S
Tb2111 O2153 2.320 . S
Tb2111 O2154 2.552 . S
Tb2111 O2155 2.413 . S
Tb2111 C2175 2.833 . S
N2112 C2104 1.360 . S
N2112 Tb2111 2.660 . S
N2112 C2113 1.305 . S
C2113 N2112 1.305 . S
C2113 C2115 1.407 . S
C2113 H2120 0.930 . S
C2114 C2102 1.410 . S
C2114 C2115 1.345 . S
C2114 H2122 0.930 . S
C2115 C2113 1.407 . S
C2115 C2114 1.345 . S
C2115 H2117 0.930 . S
H2116 C2109 0.930 . S
H2117 C2115 0.930 . S
H2118 C2106 0.930 . S
H2119 C2107 0.931 . S
H2120 C2113 0.930 . S
H2121 C2135 0.930 . S
H2122 C2114 0.930 . S
H2123 C2141 0.930 . S
H2124 C2132 0.930 . S
H2125 C2139 0.931 . S
H2126 C2103 0.929 . S
H2127 C2133 0.930 . S
H2128 C2166 0.930 . S
H2129 C2110 0.930 . S
H2130 C2165 0.929 . S
N2131 Tb2100 2.660 . S
N2131 C2132 1.305 . S
N2131 C2136 1.360 . S
C2132 H2124 0.930 . S
C2132 N2131 1.305 . S
C2132 C2135 1.407 . S
C2133 H2127 0.930 . S
C2133 C2134 1.410 . S
C2133 C2135 1.345 1_565 S
C2134 C2133 1.410 . S
C2134 C2136 1.417 1_565 S
C2134 C2166 1.432 . S
C2135 H2121 0.930 . S
C2135 C2132 1.407 . S
C2135 C2133 1.345 1_545 S
C2136 N2131 1.360 . S
C2136 C2134 1.417 1_545 S
C2136 C2140 1.432 . S
H2137 C2142 0.930 . S
N2138 Tb2100 2.600 . S
N2138 C2140 1.359 . S
N2138 C2141 1.327 . S
C2139 H2125 0.931 . S
C2139 C2141 1.392 . S
C2139 C2142 1.370 . S
C2140 C2136 1.432 . S
C2140 N2138 1.359 . S
C2140 C2143 1.414 . S
C2141 H2123 0.930 . S
C2141 N2138 1.327 . S
C2141 C2139 1.392 . S
C2142 H2137 0.930 . S
C2142 C2139 1.370 . S
C2142 C2143 1.385 . S
C2143 C2140 1.414 . S
C2143 C2142 1.385 . S
C2143 C2165 1.444 1_545 S
O2144 Tb2100 2.546 . S
O2144 C2164 1.251 . S
O2145 Tb2100 2.610 . S
O2145 Tb2111 2.362 . S
O2145 C2156 1.283 . S
O2146 Tb2111 2.421 . S
O2146 C2163 1.262 . S
O2147 Tb2100 2.320 . S
O2147 C2163 1.260 . S
O2148 Tb2100 2.552 . S
O2148 C2156 1.243 . S
O2149 Tb2100 2.413 . S
O2149 C2164 1.256 . S
O2150 Tb2111 2.546 . S
O2150 C2175 1.251 . S
O2151 Tb2100 2.362 . S
O2151 Tb2111 2.610 . S
O2151 C2167 1.283 . S
O2152 Tb2100 2.421 . S
O2152 C2174 1.262 . S
O2153 Tb2111 2.320 . S
O2153 C2174 1.260 . S
O2154 Tb2111 2.552 . S
O2154 C2167 1.243 . S
O2155 Tb2111 2.413 . S
O2155 C2175 1.256 . S
C2156 O2145 1.283 . S
C2156 O2148 1.243 . S
C2157 C2159 1.382 . S
C2157 C2161 1.393 . S
C2157 C2164 1.500 1_565 S
C2158 C2159 1.400 . S
C2158 C2160 1.384 . S
C2159 C2157 1.382 . S
C2159 C2158 1.400 . S
C2159 H2176 0.930 . S
C2160 C2158 1.384 . S
C2160 C2162 1.392 . S
C2160 H2177 0.931 1_455 S
C2161 C2157 1.393 . S
C2161 C2162 1.401 . S
C2161 H2178 0.930 . S
C2162 C2160 1.392 . S
C2162 C2161 1.401 . S
C2162 H2179 0.930 . S
C2163 O2146 1.262 . S
C2163 O2147 1.260 . S
C2164 Tb2100 2.833 . S
C2164 O2144 1.251 . S
C2164 O2149 1.256 . S
C2164 C2157 1.500 1_545 S
C2165 H2130 0.929 . S
C2165 C2143 1.444 1_565 S
C2165 C2166 1.317 . S
C2166 H2128 0.930 . S
C2166 C2134 1.432 . S
C2166 C2165 1.317 . S
C2167 O2151 1.283 . S
C2167 O2154 1.243 . S
C2168 C2169 1.382 . S
C2168 C2172 1.393 . S
C2168 C2175 1.500 . S
C2169 C2168 1.382 . S
C2169 C2170 1.400 . S
C2169 H2180 0.930 . S
C2170 C2169 1.400 . S
C2170 C2171 1.384 . S
C2171 C2170 1.384 . S
C2171 C2173 1.392 . S
C2171 H2181 0.931 . S
C2172 C2168 1.393 . S
C2172 C2173 1.401 . S
C2172 H2182 0.930 . S
C2173 C2171 1.392 . S
C2173 C2172 1.401 . S
C2173 H2183 0.930 . S
C2174 O2152 1.262 . S
C2174 O2153 1.260 . S
C2175 Tb2111 2.833 . S
C2175 O2150 1.251 . S
C2175 O2155 1.256 . S
C2175 C2168 1.500 . S
H2176 C2159 0.930 . S
H2177 C2160 0.931 1_655 S
H2178 C2161 0.930 . S
H2179 C2162 0.930 . S
H2180 C2169 0.930 . S
H2181 C2171 0.931 . S
H2182 C2172 0.930 . S
H2183 C2173 0.930 . S
Tb2184 N2215 2.660 . S
Tb2184 N2222 2.600 . S
Tb2184 O2228 2.546 . S
Tb2184 O2229 2.610 1_455 S
Tb2184 O2231 2.320 . S
Tb2184 O2232 2.546 . S
Tb2184 O2233 2.413 . S
Tb2184 O2235 2.362 1_455 S
Tb2184 O2236 2.421 1_455 S
Tb2184 C2248 2.833 . S
C2185 C2188 1.432 . S
C2185 C2189 1.414 . S
C2185 N2192 1.359 . S
C2186 C2188 1.417 1_565 S
C2186 C2190 1.432 . S
C2186 C2198 1.410 . S
C2187 C2189 1.444 1_565 S
C2187 C2190 1.317 . S
C2187 H2210 0.929 . S
C2188 C2185 1.432 . S
C2188 C2186 1.417 1_545 S
C2188 N2196 1.360 . S
C2189 C2185 1.414 . S
C2189 C2187 1.444 1_545 S
C2189 C2194 1.385 . S
C2190 C2186 1.432 . S
C2190 C2187 1.317 . S
C2190 H2202 0.930 . S
C2191 C2193 1.392 . S
C2191 C2194 1.370 . S
C2191 H2203 0.931 . S
N2192 C2185 1.359 . S
N2192 C2193 1.327 . S
N2192 Tb2195 2.600 . S
C2193 C2191 1.392 . S
C2193 N2192 1.327 . S
C2193 H2200 0.930 . S
C2194 C2189 1.385 . S
C2194 C2191 1.370 . S
C2194 H2213 0.930 . S
Tb2195 N2192 2.600 . S
Tb2195 N2196 2.660 . S
Tb2195 O2229 2.362 . S
Tb2195 O2230 2.421 . S
Tb2195 O2234 2.546 . S
Tb2195 O2235 2.610 . S
Tb2195 O2237 2.320 . S
Tb2195 O2238 2.552 . S
Tb2195 O2239 2.413 . S
Tb2195 C2259 2.833 . S
N2196 C2188 1.360 . S
N2196 Tb2195 2.660 . S
N2196 C2197 1.305 . S
C2197 N2196 1.305 . S
C2197 C2199 1.407 1_545 S
C2197 H2204 0.930 . S
C2198 C2186 1.410 . S
C2198 C2199 1.345 . S
C2198 H2206 0.930 . S
C2199 C2197 1.407 1_565 S
C2199 C2198 1.345 . S
C2199 H2201 0.930 . S
H2200 C2193 0.930 . S
H2201 C2199 0.930 . S
H2202 C2190 0.930 . S
H2203 C2191 0.931 . S
H2204 C2197 0.930 . S
H2205 C2219 0.930 . S
H2206 C2198 0.930 . S
H2207 C2225 0.930 . S
H2208 C2216 0.930 . S
H2209 C2223 0.931 . S
H2210 C2187 0.929 . S
H2211 C2217 0.930 . S
H2212 C2250 0.930 . S
H2213 C2194 0.930 . S
H2214 C2249 0.929 . S
N2215 Tb2184 2.660 . S
N2215 C2216 1.305 . S
N2215 C2220 1.360 . S
C2216 H2208 0.930 . S
C2216 N2215 1.305 . S
C2216 C2219 1.407 . S
C2217 H2211 0.930 . S
C2217 C2218 1.410 . S
C2217 C2219 1.345 . S
C2218 C2217 1.410 . S
C2218 C2220 1.417 . S
C2218 C2250 1.432 . S
C2219 H2205 0.930 . S
C2219 C2216 1.407 . S
C2219 C2217 1.345 . S
C2220 N2215 1.360 . S
C2220 C2218 1.417 . S
C2220 C2224 1.432 . S
H2221 C2226 0.930 . S
N2222 Tb2184 2.600 . S
N2222 C2224 1.359 . S
N2222 C2225 1.327 . S
C2223 H2209 0.931 . S
C2223 C2225 1.392 . S
C2223 C2226 1.370 . S
C2224 C2220 1.432 . S
C2224 N2222 1.359 . S
C2224 C2227 1.414 . S
C2225 H2207 0.930 . S
C2225 N2222 1.327 . S
C2225 C2223 1.392 . S
C2226 H2221 0.930 . S
C2226 C2223 1.370 . S
C2226 C2227 1.385 . S
C2227 C2224 1.414 . S
C2227 C2226 1.385 . S
C2227 C2249 1.444 . S
O2228 Tb2184 2.546 . S
O2228 C2248 1.251 . S
O2229 Tb2184 2.610 1_655 S
O2229 Tb2195 2.362 . S
O2229 C2240 1.283 . S
O2230 Tb2195 2.421 . S
O2230 C2247 1.262 . S
O2231 Tb2184 2.320 . S
O2231 C2247 1.260 1_455 S
O2232 Tb2184 2.546 . S
O2232 C2240 1.231 1_455 S
O2233 Tb2184 2.413 . S
O2233 C2248 1.256 . S
O2234 Tb2195 2.546 . S
O2234 C2259 1.251 . S
O2235 Tb2184 2.362 1_655 S
O2235 Tb2195 2.610 . S
O2235 C2251 1.283 . S
O2236 Tb2184 2.421 1_655 S
O2236 C2258 1.262 . S
O2237 Tb2195 2.320 . S
O2237 C2258 1.260 . S
O2238 Tb2195 2.552 . S
O2238 C2251 1.243 . S
O2239 Tb2195 2.413 . S
O2239 C2259 1.256 . S
C2240 O2229 1.283 . S
C2240 O2232 1.231 1_655 S
C2241 C2243 1.382 . S
C2241 C2245 1.393 . S
C2241 C2248 1.500 . S
C2242 C2243 1.400 . S
C2242 C2244 1.384 . S
C2243 C2241 1.382 . S
C2243 C2242 1.400 . S
C2243 H2260 0.930 . S
C2244 C2242 1.384 . S
C2244 C2246 1.392 . S
C2244 H2261 0.931 . S
C2245 C2241 1.393 . S
C2245 C2246 1.401 . S
C2245 H2262 0.930 . S
C2246 C2244 1.392 . S
C2246 C2245 1.401 . S
C2246 H2263 0.930 . S
C2247 O2230 1.262 . S
C2247 O2231 1.260 1_655 S
C2248 Tb2184 2.833 . S
C2248 O2228 1.251 . S
C2248 O2233 1.256 . S
C2248 C2241 1.500 . S
C2249 H2214 0.929 . S
C2249 C2227 1.444 . S
C2249 C2250 1.317 . S
C2250 H2212 0.930 . S
C2250 C2218 1.432 . S
C2250 C2249 1.317 . S
C2251 O2235 1.283 . S
C2251 O2238 1.243 . S
C2252 C2253 1.382 . S
C2252 C2256 1.393 . S
C2252 C2259 1.500 . S
C2253 C2252 1.382 . S
C2253 C2254 1.400 . S
C2253 H2264 0.930 . S
C2254 C2253 1.400 . S
C2254 C2255 1.384 . S
C2255 C2254 1.384 . S
C2255 C2257 1.392 . S
C2255 H2265 0.931 . S
C2256 C2252 1.393 . S
C2256 C2257 1.401 . S
C2256 H2266 0.930 . S
C2257 C2255 1.392 . S
C2257 C2256 1.401 . S
C2257 H2267 0.930 . S
C2258 O2236 1.262 . S
C2258 O2237 1.260 . S
C2259 Tb2195 2.833 . S
C2259 O2234 1.251 . S
C2259 O2239 1.256 . S
C2259 C2252 1.500 . S
H2260 C2243 0.930 . S
H2261 C2244 0.931 . S
H2262 C2245 0.930 . S
H2263 C2246 0.930 . S
H2264 C2253 0.930 . S
H2265 C2255 0.931 . S
H2266 C2256 0.930 . S
H2267 C2257 0.930 . S
Tb2268 N2299 2.660 . S
Tb2268 N2306 2.600 . S
Tb2268 O2312 2.546 . S
Tb2268 O2313 2.610 . S
Tb2268 O2315 2.320 . S
Tb2268 O2316 2.552 . S
Tb2268 O2317 2.413 . S
Tb2268 O2319 2.362 . S
Tb2268 O2320 2.421 . S
Tb2268 C2332 2.833 . S
C2269 C2272 1.432 . S
C2269 C2273 1.414 . S
C2269 N2276 1.359 . S
C2270 C2272 1.417 . S
C2270 C2274 1.432 . S
C2270 C2282 1.410 . S
C2271 C2273 1.444 . S
C2271 C2274 1.317 . S
C2271 H2294 0.929 . S
C2272 C2269 1.432 . S
C2272 C2270 1.417 . S
C2272 N2280 1.360 . S
C2273 C2269 1.414 . S
C2273 C2271 1.444 . S
C2273 C2278 1.385 . S
C2274 C2270 1.432 . S
C2274 C2271 1.317 . S
C2274 H2286 0.930 . S
C2275 C2277 1.392 . S
C2275 C2278 1.370 . S
C2275 H2287 0.931 . S
N2276 C2269 1.359 . S
N2276 C2277 1.327 . S
N2276 Tb2279 2.600 . S
C2277 C2275 1.392 . S
C2277 N2276 1.327 . S
C2277 H2284 0.930 . S
C2278 C2273 1.385 . S
C2278 C2275 1.370 . S
C2278 H2297 0.930 . S
Tb2279 N2276 2.600 . S
Tb2279 N2280 2.660 . S
Tb2279 O2313 2.362 . S
Tb2279 O2314 2.421 . S
Tb2279 O2318 2.546 . S
Tb2279 O2319 2.610 . S
Tb2279 O2321 2.320 . S
Tb2279 O2322 2.552 . S
Tb2279 O2323 2.413 . S
Tb2279 C2343 2.833 . S
N2280 C2272 1.360 . S
N2280 Tb2279 2.660 . S
N2280 C2281 1.305 . S
C2281 N2280 1.305 . S
C2281 C2283 1.407 . S
C2281 H2288 0.930 . S
C2282 C2270 1.410 . S
C2282 C2283 1.345 . S
C2282 H2290 0.930 . S
C2283 C2281 1.407 . S
C2283 C2282 1.345 . S
C2283 H2285 0.930 . S
H2284 C2277 0.930 . S
H2285 C2283 0.930 . S
H2286 C2274 0.930 . S
H2287 C2275 0.931 . S
H2288 C2281 0.930 . S
H2289 C2303 0.930 . S
H2290 C2282 0.930 . S
H2291 C2309 0.930 . S
H2292 C2300 0.930 . S
H2293 C2307 0.931 . S
H2294 C2271 0.929 . S
H2295 C2301 0.930 . S
H2296 C2334 0.930 . S
H2297 C2278 0.930 . S
H2298 C2333 0.929 . S
N2299 Tb2268 2.660 . S
N2299 C2300 1.305 . S
N2299 C2304 1.360 . S
C2300 H2292 0.930 . S
C2300 N2299 1.305 . S
C2300 C2303 1.407 1_545 S
C2301 H2295 0.930 . S
C2301 C2302 1.410 . S
C2301 C2303 1.345 . S
C2302 C2301 1.410 . S
C2302 C2304 1.417 1_565 S
C2302 C2334 1.432 . S
C2303 H2289 0.930 . S
C2303 C2300 1.407 1_565 S
C2303 C2301 1.345 . S
C2304 N2299 1.360 . S
C2304 C2302 1.417 1_545 S
C2304 C2308 1.432 . S
H2305 C2310 0.930 1_565 S
N2306 Tb2268 2.600 . S
N2306 C2308 1.359 . S
N2306 C2309 1.327 . S
C2307 H2293 0.931 . S
C2307 C2309 1.392 . S
C2307 C2310 1.370 . S
C2308 C2304 1.432 . S
C2308 N2306 1.359 . S
C2308 C2311 1.403 1_545 S
C2309 H2291 0.930 . S
C2309 N2306 1.327 . S
C2309 C2307 1.392 . S
C2310 H2305 0.930 1_545 S
C2310 C2307 1.370 . S
C2310 C2311 1.379 1_545 S
C2311 C2308 1.403 1_565 S
C2311 C2310 1.379 1_565 S
C2311 C2333 1.460 . S
O2312 Tb2268 2.546 . S
O2312 C2332 1.251 . S
O2313 Tb2268 2.610 . S
O2313 Tb2279 2.362 . S
O2313 C2324 1.283 . S
O2314 Tb2279 2.421 . S
O2314 C2331 1.262 . S
O2315 Tb2268 2.320 . S
O2315 C2331 1.260 . S
O2316 Tb2268 2.552 . S
O2316 C2324 1.243 . S
O2317 Tb2268 2.413 . S
O2317 C2332 1.256 . S
O2318 Tb2279 2.546 . S
O2318 C2343 1.251 . S
O2319 Tb2268 2.362 . S
O2319 Tb2279 2.610 . S
O2319 C2335 1.283 . S
O2320 Tb2268 2.421 . S
O2320 C2342 1.262 . S
O2321 Tb2279 2.320 . S
O2321 C2342 1.260 . S
O2322 Tb2279 2.552 . S
O2322 C2335 1.243 . S
O2323 Tb2279 2.413 . S
O2323 C2343 1.256 . S
C2324 O2313 1.283 . S
C2324 O2316 1.243 . S
C2325 C2327 1.382 . S
C2325 C2329 1.393 . S
C2325 C2332 1.500 . S
C2326 C2327 1.400 . S
C2326 C2328 1.384 . S
C2327 C2325 1.382 . S
C2327 C2326 1.400 . S
C2327 H2344 0.930 . S
C2328 C2326 1.384 . S
C2328 C2330 1.392 . S
C2328 H2345 0.931 . S
C2329 C2325 1.393 . S
C2329 C2330 1.401 . S
C2329 H2346 0.930 . S
C2330 C2328 1.392 . S
C2330 C2329 1.401 . S
C2330 H2347 0.930 . S
C2331 O2314 1.262 . S
C2331 O2315 1.260 . S
C2332 Tb2268 2.833 . S
C2332 O2312 1.251 . S
C2332 O2317 1.256 . S
C2332 C2325 1.500 . S
C2333 H2298 0.929 . S
C2333 C2311 1.460 . S
C2333 C2334 1.317 . S
C2334 H2296 0.930 . S
C2334 C2302 1.432 . S
C2334 C2333 1.317 . S
C2335 O2319 1.283 . S
C2335 O2322 1.243 . S
C2336 C2337 1.382 . S
C2336 C2340 1.393 . S
C2336 C2343 1.500 . S
C2337 C2336 1.382 . S
C2337 C2338 1.400 . S
C2337 H2348 0.930 . S
C2338 C2337 1.400 . S
C2338 C2339 1.384 . S
C2339 C2338 1.384 . S
C2339 C2341 1.392 . S
C2339 H2349 0.931 . S
C2340 C2336 1.393 . S
C2340 C2341 1.401 . S
C2340 H2350 0.930 . S
C2341 C2339 1.392 . S
C2341 C2340 1.401 . S
C2341 H2351 0.930 . S
C2342 O2320 1.262 . S
C2342 O2321 1.260 . S
C2343 Tb2279 2.833 . S
C2343 O2318 1.251 . S
C2343 O2323 1.256 . S
C2343 C2336 1.500 . S
H2344 C2327 0.930 . S
H2345 C2328 0.931 . S
H2346 C2329 0.930 . S
H2347 C2330 0.930 . S
H2348 C2337 0.930 . S
H2349 C2339 0.931 . S
H2350 C2340 0.930 . S
H2351 C2341 0.930 . S
Tb2352 N2383 2.660 1_655 S
Tb2352 N2390 2.600 1_655 S
Tb2352 O2396 2.546 . S
Tb2352 O2397 2.610 . S
Tb2352 O2399 2.320 . S
Tb2352 O2400 2.552 . S
Tb2352 O2401 2.413 . S
Tb2352 O2403 2.362 . S
Tb2352 O2404 2.421 . S
Tb2352 C2416 2.833 . S
C2353 C2356 1.432 . S
C2353 C2357 1.414 . S
C2353 N2360 1.359 . S
C2354 C2356 1.417 . S
C2354 C2358 1.432 . S
C2354 C2366 1.410 . S
C2355 C2357 1.444 . S
C2355 C2358 1.317 . S
C2355 H2378 0.929 . S
C2356 C2353 1.432 . S
C2356 C2354 1.417 . S
C2356 N2364 1.360 . S
C2357 C2353 1.414 . S
C2357 C2355 1.444 . S
C2357 C2362 1.385 . S
C2358 C2354 1.432 . S
C2358 C2355 1.317 . S
C2358 H2370 0.930 1_545 S
C2359 C2361 1.392 . S
C2359 C2362 1.370 . S
C2359 H2371 0.931 . S
N2360 C2353 1.359 . S
N2360 C2361 1.327 . S
N2360 Tb2363 2.600 . S
C2361 C2359 1.392 . S
C2361 N2360 1.327 . S
C2361 H2368 0.930 . S
C2362 C2357 1.385 . S
C2362 C2359 1.370 . S
C2362 H2381 0.930 . S
Tb2363 N2360 2.600 . S
Tb2363 N2364 2.660 . S
Tb2363 O2397 2.362 . S
Tb2363 O2398 2.421 . S
Tb2363 O2402 2.546 . S
Tb2363 O2403 2.610 . S
Tb2363 O2405 2.320 . S
Tb2363 O2406 2.552 . S
Tb2363 O2407 2.413 . S
Tb2363 C2427 2.833 . S
N2364 C2356 1.360 . S
N2364 Tb2363 2.660 . S
N2364 C2365 1.305 . S
C2365 N2364 1.305 . S
C2365 C2367 1.407 . S
C2365 H2372 0.930 . S
C2366 C2354 1.410 . S
C2366 C2367 1.345 . S
C2366 H2374 0.930 . S
C2367 C2365 1.407 . S
C2367 C2366 1.345 . S
C2367 H2369 0.930 . S
H2368 C2361 0.930 . S
H2369 C2367 0.930 . S
H2370 C2358 0.930 1_565 S
H2371 C2359 0.931 . S
H2372 C2365 0.930 . S
H2373 C2387 0.930 . S
H2374 C2366 0.930 . S
H2375 C2393 0.930 1_655 S
H2376 C2384 0.930 . S
H2377 C2391 0.931 . S
H2378 C2355 0.929 . S
H2379 C2385 0.930 . S
H2380 C2418 0.930 . S
H2381 C2362 0.930 . S
H2382 C2417 0.929 . S
N2383 Tb2352 2.660 1_455 S
N2383 C2384 1.305 . S
N2383 C2388 1.360 . S
C2384 H2376 0.930 . S
C2384 N2383 1.305 . S
C2384 C2387 1.407 . S
C2385 H2379 0.930 . S
C2385 C2386 1.410 . S
C2385 C2387 1.345 . S
C2386 C2385 1.410 . S
C2386 C2388 1.417 . S
C2386 C2418 1.432 . S
C2387 H2373 0.930 . S
C2387 C2384 1.407 . S
C2387 C2385 1.345 . S
C2388 N2383 1.360 . S
C2388 C2386 1.417 . S
C2388 C2392 1.432 . S
H2389 C2394 0.930 . S
N2390 Tb2352 2.600 1_455 S
N2390 C2392 1.359 . S
N2390 C2393 1.327 . S
C2391 H2377 0.931 . S
C2391 C2393 1.392 . S
C2391 C2394 1.370 . S
C2392 C2388 1.432 . S
C2392 N2390 1.359 . S
C2392 C2395 1.414 . S
C2393 H2375 0.930 1_455 S
C2393 N2390 1.327 . S
C2393 C2391 1.392 . S
C2394 H2389 0.930 . S
C2394 C2391 1.370 . S
C2394 C2395 1.385 . S
C2395 C2392 1.414 . S
C2395 C2394 1.385 . S
C2395 C2417 1.444 . S
O2396 Tb2352 2.546 . S
O2396 C2416 1.251 . S
O2397 Tb2352 2.610 . S
O2397 Tb2363 2.362 . S
O2397 C2408 1.283 . S
O2398 Tb2363 2.421 . S
O2398 C2415 1.262 . S
O2399 Tb2352 2.320 . S
O2399 C2415 1.260 . S
O2400 Tb2352 2.552 . S
O2400 C2408 1.243 . S
O2401 Tb2352 2.413 . S
O2401 C2416 1.256 . S
O2402 Tb2363 2.546 . S
O2402 C2427 1.251 . S
O2403 Tb2352 2.362 . S
O2403 Tb2363 2.610 . S
O2403 C2419 1.283 1_655 S
O2404 Tb2352 2.421 . S
O2404 C2426 1.262 . S
O2405 Tb2363 2.320 . S
O2405 C2426 1.260 . S
O2406 Tb2363 2.552 . S
O2406 C2419 1.243 1_655 S
O2407 Tb2363 2.413 . S
O2407 C2427 1.256 . S
C2408 O2397 1.283 . S
C2408 O2400 1.243 . S
C2409 C2411 1.382 . S
C2409 C2413 1.393 . S
C2409 C2416 1.500 . S
C2410 C2411 1.400 . S
C2410 C2412 1.384 . S
C2411 C2409 1.382 . S
C2411 C2410 1.400 . S
C2411 H2428 0.930 . S
C2412 C2410 1.384 . S
C2412 C2414 1.392 . S
C2412 H2429 0.931 . S
C2413 C2409 1.393 . S
C2413 C2414 1.401 . S
C2413 H2430 0.930 . S
C2414 C2412 1.392 . S
C2414 C2413 1.401 . S
C2414 H2431 0.930 . S
C2415 O2398 1.262 . S
C2415 O2399 1.260 . S
C2416 Tb2352 2.833 . S
C2416 O2396 1.251 . S
C2416 O2401 1.256 . S
C2416 C2409 1.500 . S
C2417 H2382 0.929 . S
C2417 C2395 1.444 . S
C2417 C2418 1.317 . S
C2418 H2380 0.930 . S
C2418 C2386 1.432 . S
C2418 C2417 1.317 . S
C2419 O2403 1.283 1_455 S
C2419 O2406 1.243 1_455 S
C2420 C2421 1.382 . S
C2420 C2424 1.393 . S
C2420 C2427 1.500 1_565 S
C2421 C2420 1.382 . S
C2421 C2422 1.400 . S
C2421 H2432 0.930 . S
C2422 C2421 1.400 . S
C2422 C2423 1.384 . S
C2423 C2422 1.384 . S
C2423 C2425 1.392 . S
C2423 H2433 0.931 . S
C2424 C2420 1.393 . S
C2424 C2425 1.401 . S
C2424 H2434 0.930 . S
C2425 C2423 1.392 . S
C2425 C2424 1.401 . S
C2425 H2435 0.930 . S
C2426 O2404 1.262 . S
C2426 O2405 1.260 . S
C2427 Tb2363 2.833 . S
C2427 O2402 1.251 . S
C2427 O2407 1.256 . S
C2427 C2420 1.500 1_545 S
H2428 C2411 0.930 . S
H2429 C2412 0.931 . S
H2430 C2413 0.930 . S
H2431 C2414 0.930 . S
H2432 C2421 0.930 . S
H2433 C2423 0.931 . S
H2434 C2424 0.930 . S
H2435 C2425 0.930 . S
Tb2436 N2467 2.660 . S
Tb2436 N2474 2.600 . S
Tb2436 O2480 2.546 . S
Tb2436 O2481 2.610 . S
Tb2436 O2483 2.320 . S
Tb2436 O2484 2.552 . S
Tb2436 O2485 2.413 . S
Tb2436 O2487 2.362 . S
Tb2436 O2488 2.421 . S
Tb2436 C2500 2.833 . S
C2437 C2440 1.432 . S
C2437 C2441 1.414 . S
C2437 N2444 1.359 . S
C2438 C2440 1.417 . S
C2438 C2442 1.432 . S
C2438 C2450 1.410 . S
C2439 C2441 1.444 . S
C2439 C2442 1.317 . S
C2439 H2462 0.929 . S
C2440 C2437 1.432 . S
C2440 C2438 1.417 . S
C2440 N2448 1.360 . S
C2441 C2437 1.414 . S
C2441 C2439 1.444 . S
C2441 C2446 1.385 . S
C2442 C2438 1.432 . S
C2442 C2439 1.317 . S
C2442 H2454 0.930 . S
C2443 C2445 1.395 . S
C2443 C2446 1.370 . S
C2443 H2455 0.931 . S
N2444 C2437 1.359 . S
N2444 C2445 1.329 . S
N2444 Tb2447 2.600 1_455 S
C2445 C2443 1.395 . S
C2445 N2444 1.329 . S
C2445 H2452 0.925 1_455 S
C2446 C2441 1.385 . S
C2446 C2443 1.370 . S
C2446 H2465 0.930 . S
Tb2447 N2444 2.600 1_655 S
Tb2447 N2448 2.660 1_655 S
Tb2447 O2481 2.362 . S
Tb2447 O2482 2.421 . S
Tb2447 O2486 2.546 1_655 S
Tb2447 O2487 2.610 . S
Tb2447 O2489 2.320 . S
Tb2447 O2490 2.552 . S
Tb2447 O2491 2.413 1_655 S
Tb2447 C2511 2.833 1_655 S
N2448 C2440 1.360 . S
N2448 Tb2447 2.660 1_455 S
N2448 C2449 1.305 . S
C2449 N2448 1.305 . S
C2449 C2451 1.407 . S
C2449 H2456 0.930 . S
C2450 C2438 1.410 . S
C2450 C2451 1.345 . S
C2450 H2458 0.930 . S
C2451 C2449 1.407 . S
C2451 C2450 1.345 . S
C2451 H2453 0.930 . S
H2452 C2445 0.925 1_655 S
H2453 C2451 0.930 . S
H2454 C2442 0.930 . S
H2455 C2443 0.931 . S
H2456 C2449 0.930 . S
H2457 C2471 0.930 . S
H2458 C2450 0.930 . S
H2459 C2477 0.930 . S
H2460 C2468 0.930 . S
H2461 C2475 0.931 . S
H2462 C2439 0.929 . S
H2463 C2469 0.930 . S
H2464 C2502 0.930 . S
H2465 C2446 0.930 . S
H2466 C2501 0.929 . S
N2467 Tb2436 2.660 . S
N2467 C2468 1.305 . S
N2467 C2472 1.360 . S
C2468 H2460 0.930 . S
C2468 N2467 1.305 . S
C2468 C2471 1.407 . S
C2469 H2463 0.930 . S
C2469 C2470 1.410 . S
C2469 C2471 1.345 . S
C2470 C2469 1.410 . S
C2470 C2472 1.417 . S
C2470 C2502 1.432 . S
C2471 H2457 0.930 . S
C2471 C2468 1.407 . S
C2471 C2469 1.345 . S
C2472 N2467 1.360 . S
C2472 C2470 1.417 . S
C2472 C2476 1.432 . S
H2473 C2478 0.930 . S
N2474 Tb2436 2.600 . S
N2474 C2476 1.359 . S
N2474 C2477 1.327 . S
C2475 H2461 0.931 . S
C2475 C2477 1.392 . S
C2475 C2478 1.370 . S
C2476 C2472 1.432 . S
C2476 N2474 1.359 . S
C2476 C2479 1.414 . S
C2477 H2459 0.930 . S
C2477 N2474 1.327 . S
C2477 C2475 1.392 . S
C2478 H2473 0.930 . S
C2478 C2475 1.370 . S
C2478 C2479 1.385 . S
C2479 C2476 1.414 . S
C2479 C2478 1.385 . S
C2479 C2501 1.444 . S
O2480 Tb2436 2.546 . S
O2480 C2500 1.251 . S
O2481 Tb2436 2.610 . S
O2481 Tb2447 2.362 . S
O2481 C2492 1.283 . S
O2482 Tb2447 2.421 . S
O2482 C2499 1.262 . S
O2483 Tb2436 2.320 . S
O2483 C2499 1.260 . S
O2484 Tb2436 2.552 . S
O2484 C2492 1.243 . S
O2485 Tb2436 2.413 . S
O2485 C2500 1.256 . S
O2486 Tb2447 2.546 1_455 S
O2486 C2511 1.251 . S
O2487 Tb2436 2.362 . S
O2487 Tb2447 2.610 . S
O2487 C2503 1.283 . S
O2488 Tb2436 2.421 . S
O2488 C2510 1.262 . S
O2489 Tb2447 2.320 . S
O2489 C2510 1.260 . S
O2490 Tb2447 2.552 . S
O2490 C2503 1.243 . S
O2491 Tb2447 2.413 1_455 S
O2491 C2511 1.256 . S
C2492 O2481 1.283 . S
C2492 O2484 1.243 . S
C2493 C2495 1.382 . S
C2493 C2497 1.393 . S
C2493 C2500 1.500 . S
C2494 C2495 1.400 . S
C2494 C2496 1.384 . S
C2495 C2493 1.382 . S
C2495 C2494 1.400 . S
C2495 H2512 0.930 . S
C2496 C2494 1.384 . S
C2496 C2498 1.392 . S
C2496 H2513 0.931 . S
C2497 C2493 1.393 . S
C2497 C2498 1.401 . S
C2497 H2514 0.930 . S
C2498 C2496 1.392 . S
C2498 C2497 1.401 . S
C2498 H2515 0.930 . S
C2499 O2482 1.262 . S
C2499 O2483 1.260 . S
C2500 Tb2436 2.833 . S
C2500 O2480 1.251 . S
C2500 O2485 1.256 . S
C2500 C2493 1.500 . S
C2501 H2466 0.929 . S
C2501 C2479 1.444 . S
C2501 C2502 1.317 . S
C2502 H2464 0.930 . S
C2502 C2470 1.432 . S
C2502 C2501 1.317 . S
C2503 O2487 1.283 . S
C2503 O2490 1.243 . S
C2504 C2505 1.387 . S
C2504 C2508 1.393 . S
C2504 C2511 1.500 . S
C2505 C2504 1.387 . S
C2505 C2506 1.394 1_565 S
C2505 H2516 0.931 . S
C2506 C2505 1.394 1_545 S
C2506 C2507 1.384 . S
C2507 C2506 1.384 . S
C2507 C2509 1.392 . S
C2507 H2517 0.931 . S
C2508 C2504 1.393 . S
C2508 C2509 1.401 1_565 S
C2508 H2518 0.930 . S
C2509 C2507 1.392 . S
C2509 C2508 1.401 1_545 S
C2509 H2519 0.930 . S
C2510 O2488 1.262 . S
C2510 O2489 1.260 . S
C2511 Tb2447 2.833 1_455 S
C2511 O2486 1.251 . S
C2511 O2491 1.256 . S
C2511 C2504 1.500 . S
H2512 C2495 0.930 . S
H2513 C2496 0.931 . S
H2514 C2497 0.930 . S
H2515 C2498 0.930 . S
H2516 C2505 0.931 . S
H2517 C2507 0.931 . S
H2518 C2508 0.930 . S
H2519 C2509 0.930 . S
Tb2520 N2551 2.660 . S
Tb2520 N2558 2.600 . S
Tb2520 O2564 2.546 . S
Tb2520 O2565 2.610 . S
Tb2520 O2567 2.320 . S
Tb2520 O2568 2.552 . S
Tb2520 O2569 2.413 . S
Tb2520 O2571 2.362 . S
Tb2520 O2572 2.421 . S
Tb2520 C2584 2.833 . S
C2521 C2524 1.432 . S
C2521 C2525 1.414 . S
C2521 N2528 1.359 . S
C2522 C2524 1.417 . S
C2522 C2526 1.432 . S
C2522 C2534 1.410 . S
C2523 C2525 1.444 . S
C2523 C2526 1.317 . S
C2523 H2546 0.929 . S
C2524 C2521 1.432 . S
C2524 C2522 1.417 . S
C2524 N2532 1.360 . S
C2525 C2521 1.414 . S
C2525 C2523 1.444 . S
C2525 C2530 1.385 . S
C2526 C2522 1.432 . S
C2526 C2523 1.317 . S
C2526 H2538 0.930 . S
C2527 C2529 1.392 . S
C2527 C2530 1.370 . S
C2527 H2539 0.931 . S
N2528 C2521 1.359 . S
N2528 C2529 1.327 . S
N2528 Tb2531 2.600 1_455 S
C2529 C2527 1.392 . S
C2529 N2528 1.327 . S
C2529 H2536 0.930 1_455 S
C2530 C2525 1.385 . S
C2530 C2527 1.370 . S
C2530 H2549 0.930 . S
Tb2531 N2528 2.600 1_655 S
Tb2531 N2532 2.660 1_655 S
Tb2531 O2565 2.362 . S
Tb2531 O2566 2.421 . S
Tb2531 O2570 2.546 . S
Tb2531 O2571 2.610 . S
Tb2531 O2573 2.320 . S
Tb2531 O2574 2.552 . S
Tb2531 O2575 2.413 . S
Tb2531 C2595 2.833 . S
N2532 C2524 1.360 . S
N2532 Tb2531 2.660 1_455 S
N2532 C2533 1.305 . S
C2533 N2532 1.305 . S
C2533 C2535 1.407 . S
C2533 H2540 0.930 . S
C2534 C2522 1.410 . S
C2534 C2535 1.345 . S
C2534 H2542 0.930 . S
C2535 C2533 1.407 . S
C2535 C2534 1.345 . S
C2535 H2537 0.930 . S
H2536 C2529 0.930 1_655 S
H2537 C2535 0.930 . S
H2538 C2526 0.930 . S
H2539 C2527 0.931 . S
H2540 C2533 0.930 . S
H2541 C2555 0.930 . S
H2542 C2534 0.930 . S
H2543 C2561 0.930 . S
H2544 C2552 0.930 . S
H2545 C2559 0.931 . S
H2546 C2523 0.929 . S
H2547 C2553 0.930 . S
H2548 C2586 0.930 . S
H2549 C2530 0.930 . S
H2550 C2585 0.929 . S
N2551 Tb2520 2.660 . S
N2551 C2552 1.305 . S
N2551 C2556 1.360 . S
C2552 H2544 0.930 . S
C2552 N2551 1.305 . S
C2552 C2555 1.407 . S
C2553 H2547 0.930 . S
C2553 C2554 1.410 . S
C2553 C2555 1.345 . S
C2554 C2553 1.410 . S
C2554 C2556 1.417 . S
C2554 C2586 1.432 . S
C2555 H2541 0.930 . S
C2555 C2552 1.407 . S
C2555 C2553 1.345 . S
C2556 N2551 1.360 . S
C2556 C2554 1.417 . S
C2556 C2560 1.432 . S
H2557 C2562 0.930 . S
N2558 Tb2520 2.600 . S
N2558 C2560 1.359 . S
N2558 C2561 1.327 . S
C2559 H2545 0.931 . S
C2559 C2561 1.392 . S
C2559 C2562 1.370 . S
C2560 C2556 1.432 . S
C2560 N2558 1.359 . S
C2560 C2563 1.414 . S
C2561 H2543 0.930 . S
C2561 N2558 1.327 . S
C2561 C2559 1.392 . S
C2562 H2557 0.930 . S
C2562 C2559 1.370 . S
C2562 C2563 1.385 . S
C2563 C2560 1.414 . S
C2563 C2562 1.385 . S
C2563 C2585 1.444 . S
O2564 Tb2520 2.546 . S
O2564 C2584 1.251 . S
O2565 Tb2520 2.610 . S
O2565 Tb2531 2.362 . S
O2565 C2576 1.283 1_655 S
O2566 Tb2531 2.421 . S
O2566 C2583 1.262 . S
O2567 Tb2520 2.320 . S
O2567 C2583 1.260 . S
O2568 Tb2520 2.552 . S
O2568 C2576 1.243 1_655 S
O2569 Tb2520 2.413 . S
O2569 C2584 1.256 . S
O2570 Tb2531 2.546 . S
O2570 C2595 1.251 . S
O2571 Tb2520 2.362 . S
O2571 Tb2531 2.610 . S
O2571 C2587 1.283 . S
O2572 Tb2520 2.421 . S
O2572 C2594 1.262 . S
O2573 Tb2531 2.320 . S
O2573 C2594 1.260 . S
O2574 Tb2531 2.552 . S
O2574 C2587 1.243 . S
O2575 Tb2531 2.413 . S
O2575 C2595 1.256 . S
C2576 O2565 1.283 1_455 S
C2576 O2568 1.243 1_455 S
C2577 C2579 1.389 . S
C2577 C2581 1.393 . S
C2577 C2584 1.500 . S
C2578 C2579 1.389 1_545 S
C2578 C2580 1.384 . S
C2579 C2577 1.389 . S
C2579 C2578 1.389 1_565 S
C2579 H2596 0.935 . S
C2580 C2578 1.384 . S
C2580 C2582 1.392 . S
C2580 H2597 0.931 . S
C2581 C2577 1.393 . S
C2581 C2582 1.401 1_565 S
C2581 H2598 0.930 . S
C2582 C2580 1.392 . S
C2582 C2581 1.401 1_545 S
C2582 H2599 0.930 . S
C2583 O2566 1.262 . S
C2583 O2567 1.260 . S
C2584 Tb2520 2.833 . S
C2584 O2564 1.251 . S
C2584 O2569 1.256 . S
C2584 C2577 1.500 . S
C2585 H2550 0.929 . S
C2585 C2563 1.444 . S
C2585 C2586 1.317 . S
C2586 H2548 0.930 . S
C2586 C2554 1.432 . S
C2586 C2585 1.317 . S
C2587 O2571 1.283 . S
C2587 O2574 1.243 . S
C2588 C2589 1.382 . S
C2588 C2592 1.393 . S
C2588 C2595 1.500 . S
C2589 C2588 1.382 . S
C2589 C2590 1.400 . S
C2589 H2600 0.930 . S
C2590 C2589 1.400 . S
C2590 C2591 1.384 . S
C2591 C2590 1.384 . S
C2591 C2593 1.392 . S
C2591 H2601 0.931 . S
C2592 C2588 1.393 . S
C2592 C2593 1.401 . S
C2592 H2602 0.930 . S
C2593 C2591 1.392 . S
C2593 C2592 1.401 . S
C2593 H2603 0.930 . S
C2594 O2572 1.262 . S
C2594 O2573 1.260 . S
C2595 Tb2531 2.833 . S
C2595 O2570 1.251 . S
C2595 O2575 1.256 . S
C2595 C2588 1.500 . S
H2596 C2579 0.935 . S
H2597 C2580 0.931 . S
H2598 C2581 0.930 . S
H2599 C2582 0.930 . S
H2600 C2589 0.930 . S
H2601 C2591 0.931 . S
H2602 C2592 0.930 . S
H2603 C2593 0.930 . S
Tb2604 N2635 2.660 . S
Tb2604 N2642 2.600 . S
Tb2604 O2648 2.546 . S
Tb2604 O2649 2.610 . S
Tb2604 O2651 2.320 . S
Tb2604 O2652 2.552 . S
Tb2604 O2653 2.413 . S
Tb2604 O2655 2.362 . S
Tb2604 O2656 2.421 . S
Tb2604 C2668 2.833 . S
C2605 C2608 1.432 . S
C2605 C2609 1.414 . S
C2605 N2612 1.359 . S
C2606 C2608 1.417 . S
C2606 C2610 1.432 . S
C2606 C2618 1.410 . S
C2607 C2609 1.444 . S
C2607 C2610 1.317 . S
C2607 H2630 0.929 . S
C2608 C2605 1.432 . S
C2608 C2606 1.417 . S
C2608 N2616 1.360 . S
C2609 C2605 1.414 . S
C2609 C2607 1.444 . S
C2609 C2614 1.385 . S
C2610 C2606 1.432 . S
C2610 C2607 1.317 . S
C2610 H2622 0.930 . S
C2611 C2613 1.392 . S
C2611 C2614 1.370 . S
C2611 H2623 0.931 . S
N2612 C2605 1.359 . S
N2612 C2613 1.327 . S
N2612 Tb2615 2.600 . S
C2613 C2611 1.392 . S
C2613 N2612 1.327 . S
C2613 H2620 0.930 . S
C2614 C2609 1.385 . S
C2614 C2611 1.370 . S
C2614 H2633 0.930 . S
Tb2615 N2612 2.600 . S
Tb2615 N2616 2.660 . S
Tb2615 O2649 2.362 . S
Tb2615 O2650 2.421 . S
Tb2615 O2654 2.546 . S
Tb2615 O2655 2.610 . S
Tb2615 O2657 2.320 . S
Tb2615 O2658 2.552 . S
Tb2615 O2659 2.413 . S
Tb2615 C2679 2.833 . S
N2616 C2608 1.360 . S
N2616 Tb2615 2.660 . S
N2616 C2617 1.305 . S
C2617 N2616 1.305 . S
C2617 C2619 1.407 . S
C2617 H2624 0.930 . S
C2618 C2606 1.410 . S
C2618 C2619 1.345 . S
C2618 H2626 0.930 . S
C2619 C2617 1.407 . S
C2619 C2618 1.345 . S
C2619 H2621 0.930 . S
H2620 C2613 0.930 . S
H2621 C2619 0.930 . S
H2622 C2610 0.930 . S
H2623 C2611 0.931 . S
H2624 C2617 0.930 . S
H2625 C2639 0.930 . S
H2626 C2618 0.930 . S
H2627 C2645 0.930 . S
H2628 C2636 0.930 . S
H2629 C2643 0.931 . S
H2630 C2607 0.929 . S
H2631 C2637 0.930 . S
H2632 C2670 0.930 1_565 S
H2633 C2614 0.930 . S
H2634 C2669 0.929 . S
N2635 Tb2604 2.660 . S
N2635 C2636 1.305 . S
N2635 C2640 1.360 . S
C2636 H2628 0.930 . S
C2636 N2635 1.305 . S
C2636 C2639 1.407 . S
C2637 H2631 0.930 . S
C2637 C2638 1.410 . S
C2637 C2639 1.345 . S
C2638 C2637 1.410 . S
C2638 C2640 1.417 . S
C2638 C2670 1.432 . S
C2639 H2625 0.930 . S
C2639 C2636 1.407 . S
C2639 C2637 1.345 . S
C2640 N2635 1.360 . S
C2640 C2638 1.417 . S
C2640 C2644 1.432 . S
H2641 C2646 0.930 . S
N2642 Tb2604 2.600 . S
N2642 C2644 1.359 . S
N2642 C2645 1.327 . S
C2643 H2629 0.931 . S
C2643 C2645 1.392 . S
C2643 C2646 1.370 . S
C2644 C2640 1.432 . S
C2644 N2642 1.359 . S
C2644 C2647 1.414 . S
C2645 H2627 0.930 . S
C2645 N2642 1.327 . S
C2645 C2643 1.392 . S
C2646 H2641 0.930 . S
C2646 C2643 1.370 . S
C2646 C2647 1.385 . S
C2647 C2644 1.414 . S
C2647 C2646 1.385 . S
C2647 C2669 1.444 . S
O2648 Tb2604 2.546 . S
O2648 C2668 1.251 . S
O2649 Tb2604 2.610 . S
O2649 Tb2615 2.362 . S
O2649 C2660 1.283 . S
O2650 Tb2615 2.421 . S
O2650 C2667 1.262 . S
O2651 Tb2604 2.320 . S
O2651 C2667 1.260 . S
O2652 Tb2604 2.552 . S
O2652 C2660 1.243 . S
O2653 Tb2604 2.413 . S
O2653 C2668 1.256 . S
O2654 Tb2615 2.546 . S
O2654 C2679 1.251 . S
O2655 Tb2604 2.362 . S
O2655 Tb2615 2.610 . S
O2655 C2671 1.283 . S
O2656 Tb2604 2.421 . S
O2656 C2678 1.262 . S
O2657 Tb2615 2.320 . S
O2657 C2678 1.260 . S
O2658 Tb2615 2.552 . S
O2658 C2671 1.243 . S
O2659 Tb2615 2.413 . S
O2659 C2679 1.256 . S
C2660 O2649 1.283 . S
C2660 O2652 1.243 . S
C2661 C2663 1.382 . S
C2661 C2665 1.393 . S
C2661 C2668 1.500 1_565 S
C2662 C2663 1.400 . S
C2662 C2664 1.384 . S
C2663 C2661 1.382 . S
C2663 C2662 1.400 . S
C2663 H2680 0.930 . S
C2664 C2662 1.384 . S
C2664 C2666 1.392 . S
C2664 H2681 0.931 . S
C2665 C2661 1.393 . S
C2665 C2666 1.401 . S
C2665 H2682 0.930 . S
C2666 C2664 1.392 . S
C2666 C2665 1.401 . S
C2666 H2683 0.930 . S
C2667 O2650 1.262 . S
C2667 O2651 1.260 . S
C2668 Tb2604 2.833 . S
C2668 O2648 1.251 . S
C2668 O2653 1.256 . S
C2668 C2661 1.500 1_545 S
C2669 H2634 0.929 . S
C2669 C2647 1.444 . S
C2669 C2670 1.317 . S
C2670 H2632 0.930 1_545 S
C2670 C2638 1.432 . S
C2670 C2669 1.317 . S
C2671 O2655 1.283 . S
C2671 O2658 1.243 . S
C2672 C2673 1.382 . S
C2672 C2676 1.393 . S
C2672 C2679 1.500 . S
C2673 C2672 1.382 . S
C2673 C2674 1.400 . S
C2673 H2684 0.930 . S
C2674 C2673 1.400 . S
C2674 C2675 1.384 . S
C2675 C2674 1.384 . S
C2675 C2677 1.392 . S
C2675 H2685 0.931 . S
C2676 C2672 1.393 . S
C2676 C2677 1.401 . S
C2676 H2686 0.930 . S
C2677 C2675 1.392 . S
C2677 C2676 1.401 . S
C2677 H2687 0.930 . S
C2678 O2656 1.262 . S
C2678 O2657 1.260 . S
C2679 Tb2615 2.833 . S
C2679 O2654 1.251 . S
C2679 O2659 1.256 . S
C2679 C2672 1.500 . S
H2680 C2663 0.930 . S
H2681 C2664 0.931 . S
H2682 C2665 0.930 . S
H2683 C2666 0.930 . S
H2684 C2673 0.930 . S
H2685 C2675 0.931 . S
H2686 C2676 0.930 . S
H2687 C2677 0.930 . S
Tb2688 N2719 2.660 1_655 S
Tb2688 N2726 2.600 1_655 S
Tb2688 O2732 2.546 1_655 S
Tb2688 O2733 2.610 . S
Tb2688 O2735 2.320 . S
Tb2688 O2736 2.552 . S
Tb2688 O2737 2.413 1_655 S
Tb2688 O2739 2.362 . S
Tb2688 O2740 2.421 . S
Tb2688 C2752 2.833 1_655 S
C2689 C2692 1.432 . S
C2689 C2693 1.404 1_545 S
C2689 N2696 1.359 . S
C2690 C2692 1.417 1_565 S
C2690 C2694 1.432 . S
C2690 C2702 1.410 . S
C2691 C2693 1.461 . S
C2691 C2694 1.317 . S
C2691 H2714 0.929 . S
C2692 C2689 1.432 . S
C2692 C2690 1.417 1_545 S
C2692 N2700 1.360 . S
C2693 C2689 1.404 1_565 S
C2693 C2691 1.461 . S
C2693 C2698 1.377 1_565 S
C2694 C2690 1.432 . S
C2694 C2691 1.317 . S
C2694 H2706 0.930 . S
C2695 C2697 1.392 . S
C2695 C2698 1.370 . S
C2695 H2707 0.931 . S
N2696 C2689 1.359 . S
N2696 C2697 1.327 . S
N2696 Tb2699 2.600 . S
C2697 C2695 1.392 . S
C2697 N2696 1.327 . S
C2697 H2704 0.930 . S
C2698 C2693 1.377 1_545 S
C2698 C2695 1.370 . S
C2698 H2717 0.930 1_545 S
Tb2699 N2696 2.600 . S
Tb2699 N2700 2.660 . S
Tb2699 O2733 2.362 . S
Tb2699 O2734 2.421 . S
Tb2699 O2738 2.546 . S
Tb2699 O2739 2.610 . S
Tb2699 O2741 2.320 . S
Tb2699 O2742 2.552 . S
Tb2699 O2743 2.413 . S
Tb2699 C2763 2.833 . S
N2700 C2692 1.360 . S
N2700 Tb2699 2.660 . S
N2700 C2701 1.305 . S
C2701 N2700 1.305 . S
C2701 C2703 1.407 1_545 S
C2701 H2708 0.930 . S
C2702 C2690 1.410 . S
C2702 C2703 1.345 . S
C2702 H2710 0.930 . S
C2703 C2701 1.407 1_565 S
C2703 C2702 1.345 . S
C2703 H2705 0.930 . S
H2704 C2697 0.930 . S
H2705 C2703 0.930 . S
H2706 C2694 0.930 . S
H2707 C2695 0.931 . S
H2708 C2701 0.930 . S
H2709 C2723 0.930 . S
H2710 C2702 0.930 . S
H2711 C2729 0.929 1_655 S
H2712 C2720 0.930 . S
H2713 C2727 0.931 . S
H2714 C2691 0.929 . S
H2715 C2721 0.930 . S
H2716 C2754 0.930 . S
H2717 C2698 0.930 1_565 S
H2718 C2753 0.929 . S
N2719 Tb2688 2.660 1_455 S
N2719 C2720 1.305 . S
N2719 C2724 1.360 . S
C2720 H2712 0.930 . S
C2720 N2719 1.305 . S
C2720 C2723 1.407 . S
C2721 H2715 0.930 . S
C2721 C2722 1.410 . S
C2721 C2723 1.345 . S
C2722 C2721 1.410 . S
C2722 C2724 1.417 . S
C2722 C2754 1.432 . S
C2723 H2709 0.930 . S
C2723 C2720 1.407 . S
C2723 C2721 1.345 . S
C2724 N2719 1.360 . S
C2724 C2722 1.417 . S
C2724 C2728 1.432 . S
H2725 C2730 0.930 . S
N2726 Tb2688 2.600 1_455 S
N2726 C2728 1.359 . S
N2726 C2729 1.327 . S
C2727 H2713 0.931 . S
C2727 C2729 1.393 . S
C2727 C2730 1.370 . S
C2728 C2724 1.432 . S
C2728 N2726 1.359 . S
C2728 C2731 1.414 . S
C2729 H2711 0.929 1_455 S
C2729 N2726 1.327 . S
C2729 C2727 1.393 . S
C2730 H2725 0.930 . S
C2730 C2727 1.370 . S
C2730 C2731 1.385 . S
C2731 C2728 1.414 . S
C2731 C2730 1.385 . S
C2731 C2753 1.444 . S
O2732 Tb2688 2.546 1_455 S
O2732 C2752 1.251 . S
O2733 Tb2688 2.610 . S
O2733 Tb2699 2.362 . S
O2733 C2744 1.283 . S
O2734 Tb2699 2.421 . S
O2734 C2751 1.262 . S
O2735 Tb2688 2.320 . S
O2735 C2751 1.260 . S
O2736 Tb2688 2.552 . S
O2736 C2744 1.243 . S
O2737 Tb2688 2.413 1_455 S
O2737 C2752 1.256 . S
O2738 Tb2699 2.546 . S
O2738 C2763 1.251 . S
O2739 Tb2688 2.362 . S
O2739 Tb2699 2.610 . S
O2739 C2755 1.283 . S
O2740 Tb2688 2.421 . S
O2740 C2762 1.262 . S
O2741 Tb2699 2.320 . S
O2741 C2762 1.260 . S
O2742 Tb2699 2.552 . S
O2742 C2755 1.243 . S
O2743 Tb2699 2.413 . S
O2743 C2763 1.256 . S
C2744 O2733 1.283 . S
C2744 O2736 1.243 . S
C2745 C2747 1.382 . S
C2745 C2749 1.393 . S
C2745 C2752 1.500 . S
C2746 C2747 1.400 . S
C2746 C2748 1.384 . S
C2747 C2745 1.382 . S
C2747 C2746 1.400 . S
C2747 H2764 0.930 . S
C2748 C2746 1.384 . S
C2748 C2750 1.392 . S
C2748 H2765 0.931 . S
C2749 C2745 1.393 . S
C2749 C2750 1.401 . S
C2749 H2766 0.930 . S
C2750 C2748 1.392 . S
C2750 C2749 1.401 . S
C2750 H2767 0.930 . S
C2751 O2734 1.262 . S
C2751 O2735 1.260 . S
C2752 Tb2688 2.833 1_455 S
C2752 O2732 1.251 . S
C2752 O2737 1.256 . S
C2752 C2745 1.500 . S
C2753 H2718 0.929 . S
C2753 C2731 1.444 . S
C2753 C2754 1.317 . S
C2754 H2716 0.930 . S
C2754 C2722 1.432 . S
C2754 C2753 1.317 . S
C2755 O2739 1.283 . S
C2755 O2742 1.243 . S
C2756 C2757 1.382 . S
C2756 C2760 1.393 . S
C2756 C2763 1.500 . S
C2757 C2756 1.382 . S
C2757 C2758 1.400 . S
C2757 H2768 0.930 . S
C2758 C2757 1.400 . S
C2758 C2759 1.384 . S
C2759 C2758 1.384 . S
C2759 C2761 1.392 . S
C2759 H2769 0.931 . S
C2760 C2756 1.393 . S
C2760 C2761 1.401 . S
C2760 H2770 0.930 . S
C2761 C2759 1.392 . S
C2761 C2760 1.401 . S
C2761 H2771 0.930 . S
C2762 O2740 1.262 . S
C2762 O2741 1.260 . S
C2763 Tb2699 2.833 . S
C2763 O2738 1.251 . S
C2763 O2743 1.256 . S
C2763 C2756 1.500 . S
H2764 C2747 0.930 . S
H2765 C2748 0.931 . S
H2766 C2749 0.930 . S
H2767 C2750 0.930 . S
H2768 C2757 0.930 . S
H2769 C2759 0.931 . S
H2770 C2760 0.930 . S
H2771 C2761 0.930 . S
Tb2772 N2803 2.660 . S
Tb2772 N2810 2.600 . S
Tb2772 O2816 2.546 . S
Tb2772 O2817 2.610 . S
Tb2772 O2819 2.320 . S
Tb2772 O2820 2.552 . S
Tb2772 O2821 2.413 . S
Tb2772 O2823 2.362 . S
Tb2772 O2824 2.421 . S
Tb2772 C2836 2.833 . S
C2773 C2776 1.432 . S
C2773 C2777 1.414 . S
C2773 N2780 1.359 . S
C2774 C2776 1.417 . S
C2774 C2778 1.432 . S
C2774 C2786 1.410 . S
C2775 C2777 1.444 . S
C2775 C2778 1.317 . S
C2775 H2798 0.929 . S
C2776 C2773 1.432 . S
C2776 C2774 1.417 . S
C2776 N2784 1.360 . S
C2777 C2773 1.414 . S
C2777 C2775 1.444 . S
C2777 C2782 1.385 . S
C2778 C2774 1.432 . S
C2778 C2775 1.317 . S
C2778 H2790 0.930 . S
C2779 C2781 1.392 . S
C2779 C2782 1.370 . S
C2779 H2791 0.931 . S
N2780 C2773 1.359 . S
N2780 C2781 1.327 . S
N2780 Tb2783 2.600 . S
C2781 C2779 1.392 . S
C2781 N2780 1.327 . S
C2781 H2788 0.930 . S
C2782 C2777 1.385 . S
C2782 C2779 1.370 . S
C2782 H2801 0.930 . S
Tb2783 N2780 2.600 . S
Tb2783 N2784 2.660 . S
Tb2783 O2817 2.362 . S
Tb2783 O2818 2.421 . S
Tb2783 O2822 2.546 . S
Tb2783 O2823 2.610 . S
Tb2783 O2825 2.320 . S
Tb2783 O2826 2.552 . S
Tb2783 O2827 2.413 . S
Tb2783 C2847 2.833 . S
N2784 C2776 1.360 . S
N2784 Tb2783 2.660 . S
N2784 C2785 1.305 . S
C2785 N2784 1.305 . S
C2785 C2787 1.407 . S
C2785 H2792 0.930 . S
C2786 C2774 1.410 . S
C2786 C2787 1.345 . S
C2786 H2794 0.930 . S
C2787 C2785 1.407 . S
C2787 C2786 1.345 . S
C2787 H2789 0.930 . S
H2788 C2781 0.930 . S
H2789 C2787 0.930 . S
H2790 C2778 0.930 . S
H2791 C2779 0.931 . S
H2792 C2785 0.930 . S
H2793 C2807 0.930 . S
H2794 C2786 0.930 . S
H2795 C2813 0.930 . S
H2796 C2804 0.930 . S
H2797 C2811 0.931 . S
H2798 C2775 0.929 . S
H2799 C2805 0.930 . S
H2800 C2838 0.930 . S
H2801 C2782 0.930 . S
H2802 C2837 0.929 . S
N2803 Tb2772 2.660 . S
N2803 C2804 1.305 . S
N2803 C2808 1.360 . S
C2804 H2796 0.930 . S
C2804 N2803 1.305 . S
C2804 C2807 1.407 1_545 S
C2805 H2799 0.930 . S
C2805 C2806 1.410 . S
C2805 C2807 1.345 . S
C2806 C2805 1.410 . S
C2806 C2808 1.417 1_565 S
C2806 C2838 1.432 . S
C2807 H2793 0.930 . S
C2807 C2804 1.407 1_565 S
C2807 C2805 1.345 . S
C2808 N2803 1.360 . S
C2808 C2806 1.417 1_545 S
C2808 C2812 1.432 . S
H2809 C2814 0.930 . S
N2810 Tb2772 2.600 . S
N2810 C2812 1.359 . S
N2810 C2813 1.327 . S
C2811 H2797 0.931 . S
C2811 C2813 1.392 . S
C2811 C2814 1.370 . S
C2812 C2808 1.432 . S
C2812 N2810 1.359 . S
C2812 C2815 1.414 . S
C2813 H2795 0.930 . S
C2813 N2810 1.327 . S
C2813 C2811 1.392 . S
C2814 H2809 0.930 . S
C2814 C2811 1.370 . S
C2814 C2815 1.385 . S
C2815 C2812 1.414 . S
C2815 C2814 1.385 . S
C2815 C2837 1.444 1_545 S
O2816 Tb2772 2.546 . S
O2816 C2836 1.251 . S
O2817 Tb2772 2.610 . S
O2817 Tb2783 2.362 . S
O2817 C2828 1.283 . S
O2818 Tb2783 2.421 . S
O2818 C2835 1.262 . S
O2819 Tb2772 2.320 . S
O2819 C2835 1.260 . S
O2820 Tb2772 2.552 . S
O2820 C2828 1.243 . S
O2821 Tb2772 2.413 . S
O2821 C2836 1.256 . S
O2822 Tb2783 2.546 . S
O2822 C2847 1.251 . S
O2823 Tb2772 2.362 . S
O2823 Tb2783 2.610 . S
O2823 C2839 1.283 . S
O2824 Tb2772 2.421 . S
O2824 C2846 1.262 . S
O2825 Tb2783 2.320 . S
O2825 C2846 1.260 . S
O2826 Tb2783 2.552 . S
O2826 C2839 1.243 . S
O2827 Tb2783 2.413 . S
O2827 C2847 1.256 . S
C2828 O2817 1.283 . S
C2828 O2820 1.243 . S
C2829 C2831 1.382 . S
C2829 C2833 1.393 . S
C2829 C2836 1.500 . S
C2830 C2831 1.400 . S
C2830 C2832 1.384 . S
C2831 C2829 1.382 . S
C2831 C2830 1.400 . S
C2831 H2848 0.930 . S
C2832 C2830 1.384 . S
C2832 C2834 1.392 . S
C2832 H2849 0.931 . S
C2833 C2829 1.393 . S
C2833 C2834 1.401 . S
C2833 H2850 0.930 . S
C2834 C2832 1.392 . S
C2834 C2833 1.401 . S
C2834 H2851 0.930 . S
C2835 O2818 1.262 . S
C2835 O2819 1.260 . S
C2836 Tb2772 2.833 . S
C2836 O2816 1.251 . S
C2836 O2821 1.256 . S
C2836 C2829 1.500 . S
C2837 H2802 0.929 . S
C2837 C2815 1.444 1_565 S
C2837 C2838 1.317 . S
C2838 H2800 0.930 . S
C2838 C2806 1.432 . S
C2838 C2837 1.317 . S
C2839 O2823 1.283 . S
C2839 O2826 1.243 . S
C2840 C2841 1.382 . S
C2840 C2844 1.393 . S
C2840 C2847 1.500 . S
C2841 C2840 1.382 . S
C2841 C2842 1.400 . S
C2841 H2852 0.930 . S
C2842 C2841 1.400 . S
C2842 C2843 1.384 . S
C2843 C2842 1.384 . S
C2843 C2845 1.392 . S
C2843 H2853 0.931 1_455 S
C2844 C2840 1.393 . S
C2844 C2845 1.401 . S
C2844 H2854 0.930 . S
C2845 C2843 1.392 . S
C2845 C2844 1.401 . S
C2845 H2855 0.930 . S
C2846 O2824 1.262 . S
C2846 O2825 1.260 . S
C2847 Tb2783 2.833 . S
C2847 O2822 1.251 . S
C2847 O2827 1.256 . S
C2847 C2840 1.500 . S
H2848 C2831 0.930 . S
H2849 C2832 0.931 . S
H2850 C2833 0.930 . S
H2851 C2834 0.930 . S
H2852 C2841 0.930 . S
H2853 C2843 0.931 1_655 S
H2854 C2844 0.930 . S
H2855 C2845 0.930 . S
Tb2856 N2887 2.660 1_655 S
Tb2856 N2894 2.600 1_655 S
Tb2856 O2900 2.546 . S
Tb2856 O2901 2.610 . S
Tb2856 O2903 2.320 . S
Tb2856 O2904 2.552 . S
Tb2856 O2905 2.413 . S
Tb2856 O2907 2.362 . S
Tb2856 O2908 2.421 . S
Tb2856 C2920 2.833 . S
C2857 C2860 1.432 . S
C2857 C2861 1.414 . S
C2857 N2864 1.359 . S
C2858 C2860 1.417 1_565 S
C2858 C2862 1.432 . S
C2858 C2870 1.410 . S
C2859 C2861 1.444 1_565 S
C2859 C2862 1.317 . S
C2859 H2882 0.929 . S
C2860 C2857 1.432 . S
C2860 C2858 1.417 1_545 S
C2860 N2868 1.360 . S
C2861 C2857 1.414 . S
C2861 C2859 1.444 1_545 S
C2861 C2866 1.385 . S
C2862 C2858 1.432 . S
C2862 C2859 1.317 . S
C2862 H2874 0.930 . S
C2863 C2865 1.392 . S
C2863 C2866 1.370 . S
C2863 H2875 0.931 . S
N2864 C2857 1.359 . S
N2864 C2865 1.327 . S
N2864 Tb2867 2.600 . S
C2865 C2863 1.392 . S
C2865 N2864 1.327 . S
C2865 H2872 0.930 . S
C2866 C2861 1.385 . S
C2866 C2863 1.370 . S
C2866 H2885 0.930 . S
Tb2867 N2864 2.600 . S
Tb2867 N2868 2.660 . S
Tb2867 O2901 2.362 . S
Tb2867 O2902 2.421 . S
Tb2867 O2906 2.546 . S
Tb2867 O2907 2.610 . S
Tb2867 O2909 2.320 . S
Tb2867 O2910 2.552 . S
Tb2867 O2911 2.413 . S
Tb2867 C2931 2.833 . S
N2868 C2860 1.360 . S
N2868 Tb2867 2.660 . S
N2868 C2869 1.305 . S
C2869 N2868 1.305 . S
C2869 C2871 1.407 . S
C2869 H2876 0.930 . S
C2870 C2858 1.410 . S
C2870 C2871 1.345 1_565 S
C2870 H2878 0.930 . S
C2871 C2869 1.407 . S
C2871 C2870 1.345 1_545 S
C2871 H2873 0.930 . S
H2872 C2865 0.930 . S
H2873 C2871 0.930 . S
H2874 C2862 0.930 . S
H2875 C2863 0.931 . S
H2876 C2869 0.930 . S
H2877 C2891 0.930 . S
H2878 C2870 0.930 . S
H2879 C2897 0.930 . S
H2880 C2888 0.930 . S
H2881 C2895 0.931 . S
H2882 C2859 0.929 . S
H2883 C2889 0.930 . S
H2884 C2922 0.930 . S
H2885 C2866 0.930 . S
H2886 C2921 0.929 . S
N2887 Tb2856 2.660 1_455 S
N2887 C2888 1.305 . S
N2887 C2892 1.360 . S
C2888 H2880 0.930 . S
C2888 N2887 1.305 . S
C2888 C2891 1.407 . S
C2889 H2883 0.930 . S
C2889 C2890 1.410 . S
C2889 C2891 1.345 . S
C2890 C2889 1.410 . S
C2890 C2892 1.417 . S
C2890 C2922 1.432 . S
C2891 H2877 0.930 . S
C2891 C2888 1.407 . S
C2891 C2889 1.345 . S
C2892 N2887 1.360 . S
C2892 C2890 1.417 . S
C2892 C2896 1.432 . S
H2893 C2898 0.930 . S
N2894 Tb2856 2.600 1_455 S
N2894 C2896 1.359 . S
N2894 C2897 1.327 1_455 S
C2895 H2881 0.931 . S
C2895 C2897 1.392 1_455 S
C2895 C2898 1.370 . S
C2896 C2892 1.432 . S
C2896 N2894 1.359 . S
C2896 C2899 1.414 . S
C2897 H2879 0.930 . S
C2897 N2894 1.327 1_655 S
C2897 C2895 1.392 1_655 S
C2898 H2893 0.930 . S
C2898 C2895 1.370 . S
C2898 C2899 1.385 . S
C2899 C2896 1.414 . S
C2899 C2898 1.385 . S
C2899 C2921 1.444 . S
O2900 Tb2856 2.546 . S
O2900 C2920 1.251 . S
O2901 Tb2856 2.610 . S
O2901 Tb2867 2.362 . S
O2901 C2912 1.283 . S
O2902 Tb2867 2.421 . S
O2902 C2919 1.262 . S
O2903 Tb2856 2.320 . S
O2903 C2919 1.260 . S
O2904 Tb2856 2.552 . S
O2904 C2912 1.243 . S
O2905 Tb2856 2.413 . S
O2905 C2920 1.256 . S
O2906 Tb2867 2.546 . S
O2906 C2931 1.251 . S
O2907 Tb2856 2.362 . S
O2907 Tb2867 2.610 . S
O2907 C2923 1.283 . S
O2908 Tb2856 2.421 . S
O2908 C2930 1.262 . S
O2909 Tb2867 2.320 . S
O2909 C2930 1.260 . S
O2910 Tb2867 2.552 . S
O2910 C2923 1.243 . S
O2911 Tb2867 2.413 . S
O2911 C2931 1.256 . S
C2912 O2901 1.283 . S
C2912 O2904 1.243 . S
C2913 C2915 1.382 . S
C2913 C2917 1.393 . S
C2913 C2920 1.500 . S
C2914 C2915 1.400 . S
C2914 C2916 1.384 . S
C2915 C2913 1.382 . S
C2915 C2914 1.400 . S
C2915 H2932 0.930 . S
C2916 C2914 1.384 . S
C2916 C2918 1.392 . S
C2916 H2933 0.931 . S
C2917 C2913 1.393 . S
C2917 C2918 1.401 . S
C2917 H2934 0.930 . S
C2918 C2916 1.392 . S
C2918 C2917 1.401 . S
C2918 H2935 0.930 . S
C2919 O2902 1.262 . S
C2919 O2903 1.260 . S
C2920 Tb2856 2.833 . S
C2920 O2900 1.251 . S
C2920 O2905 1.256 . S
C2920 C2913 1.500 . S
C2921 H2886 0.929 . S
C2921 C2899 1.444 . S
C2921 C2922 1.317 . S
C2922 H2884 0.930 . S
C2922 C2890 1.432 . S
C2922 C2921 1.317 . S
C2923 O2907 1.283 . S
C2923 O2910 1.243 . S
C2924 C2925 1.382 . S
C2924 C2928 1.393 . S
C2924 C2931 1.500 1_565 S
C2925 C2924 1.382 . S
C2925 C2926 1.400 . S
C2925 H2936 0.930 . S
C2926 C2925 1.400 . S
C2926 C2927 1.384 . S
C2927 C2926 1.384 . S
C2927 C2929 1.392 . S
C2927 H2937 0.931 . S
C2928 C2924 1.393 . S
C2928 C2929 1.401 . S
C2928 H2938 0.930 . S
C2929 C2927 1.392 . S
C2929 C2928 1.401 . S
C2929 H2939 0.930 . S
C2930 O2908 1.262 . S
C2930 O2909 1.260 . S
C2931 Tb2867 2.833 . S
C2931 O2906 1.251 . S
C2931 O2911 1.256 . S
C2931 C2924 1.500 1_545 S
H2932 C2915 0.930 . S
H2933 C2916 0.931 . S
H2934 C2917 0.930 . S
H2935 C2918 0.930 . S
H2936 C2925 0.930 . S
H2937 C2927 0.931 . S
H2938 C2928 0.930 . S
H2939 C2929 0.930 . S
Tb2940 N2971 2.660 . S
Tb2940 N2978 2.600 . S
Tb2940 O2984 2.546 . S
Tb2940 O2985 2.610 . S
Tb2940 O2987 2.320 . S
Tb2940 O2988 2.552 . S
Tb2940 O2989 2.413 . S
Tb2940 O2991 2.362 . S
Tb2940 O2992 2.421 . S
Tb2940 C3004 2.833 . S
C2941 C2944 1.432 . S
C2941 C2945 1.414 . S
C2941 N2948 1.359 . S
C2942 C2944 1.417 . S
C2942 C2946 1.432 . S
C2942 C2954 1.410 . S
C2943 C2945 1.444 . S
C2943 C2946 1.317 . S
C2943 H2966 0.929 . S
C2944 C2941 1.432 . S
C2944 C2942 1.417 . S
C2944 N2952 1.360 . S
C2945 C2941 1.414 . S
C2945 C2943 1.444 . S
C2945 C2950 1.385 . S
C2946 C2942 1.432 . S
C2946 C2943 1.317 . S
C2946 H2958 0.930 . S
C2947 C2949 1.392 . S
C2947 C2950 1.370 . S
C2947 H2959 0.931 . S
N2948 C2941 1.359 . S
N2948 C2949 1.327 . S
N2948 Tb2951 2.600 . S
C2949 C2947 1.392 . S
C2949 N2948 1.327 . S
C2949 H2956 0.930 . S
C2950 C2945 1.385 . S
C2950 C2947 1.370 . S
C2950 H2969 0.930 . S
Tb2951 N2948 2.600 . S
Tb2951 N2952 2.660 . S
Tb2951 O2985 2.362 1_455 S
Tb2951 O2986 2.421 1_455 S
Tb2951 O2990 2.546 . S
Tb2951 O2991 2.610 1_455 S
Tb2951 O2993 2.320 . S
Tb2951 O2994 2.562 . S
Tb2951 O2995 2.413 . S
Tb2951 C3015 2.833 . S
N2952 C2944 1.360 . S
N2952 Tb2951 2.660 . S
N2952 C2953 1.305 . S
C2953 N2952 1.305 . S
C2953 C2955 1.407 . S
C2953 H2960 0.930 . S
C2954 C2942 1.410 . S
C2954 C2955 1.345 . S
C2954 H2962 0.930 . S
C2955 C2953 1.407 . S
C2955 C2954 1.345 . S
C2955 H2957 0.930 . S
H2956 C2949 0.930 . S
H2957 C2955 0.930 . S
H2958 C2946 0.930 . S
H2959 C2947 0.931 . S
H2960 C2953 0.930 . S
H2961 C2975 0.930 . S
H2962 C2954 0.930 . S
H2963 C2981 0.930 . S
H2964 C2972 0.930 . S
H2965 C2979 0.931 . S
H2966 C2943 0.929 . S
H2967 C2973 0.930 . S
H2968 C3006 0.930 . S
H2969 C2950 0.930 . S
H2970 C3005 0.929 . S
N2971 Tb2940 2.660 . S
N2971 C2972 1.305 . S
N2971 C2976 1.360 . S
C2972 H2964 0.930 . S
C2972 N2971 1.305 . S
C2972 C2975 1.407 . S
C2973 H2967 0.930 . S
C2973 C2974 1.410 . S
C2973 C2975 1.345 . S
C2974 C2973 1.410 . S
C2974 C2976 1.417 . S
C2974 C3006 1.432 . S
C2975 H2961 0.930 . S
C2975 C2972 1.407 . S
C2975 C2973 1.345 . S
C2976 N2971 1.360 . S
C2976 C2974 1.417 . S
C2976 C2980 1.432 . S
H2977 C2982 0.930 . S
N2978 Tb2940 2.600 . S
N2978 C2980 1.359 . S
N2978 C2981 1.327 . S
C2979 H2965 0.931 . S
C2979 C2981 1.392 . S
C2979 C2982 1.370 . S
C2980 C2976 1.432 . S
C2980 N2978 1.359 . S
C2980 C2983 1.414 . S
C2981 H2963 0.930 . S
C2981 N2978 1.327 . S
C2981 C2979 1.392 . S
C2982 H2977 0.930 . S
C2982 C2979 1.370 . S
C2982 C2983 1.385 . S
C2983 C2980 1.414 . S
C2983 C2982 1.385 . S
C2983 C3005 1.444 . S
O2984 Tb2940 2.546 . S
O2984 C3004 1.251 . S
O2985 Tb2940 2.610 . S
O2985 Tb2951 2.362 1_655 S
O2985 C2996 1.283 . S
O2986 Tb2951 2.421 1_655 S
O2986 C3003 1.262 . S
O2987 Tb2940 2.320 . S
O2987 C3003 1.260 . S
O2988 Tb2940 2.552 . S
O2988 C2996 1.243 . S
O2989 Tb2940 2.413 . S
O2989 C3004 1.256 . S
O2990 Tb2951 2.546 . S
O2990 C3015 1.251 . S
O2991 Tb2940 2.362 . S
O2991 Tb2951 2.610 1_655 S
O2991 C3007 1.283 . S
O2992 Tb2940 2.421 . S
O2992 C3014 1.262 . S
O2993 Tb2951 2.320 . S
O2993 C3014 1.260 1_455 S
O2994 Tb2951 2.562 . S
O2994 C3007 1.231 1_455 S
O2995 Tb2951 2.413 . S
O2995 C3015 1.256 . S
C2996 O2985 1.283 . S
C2996 O2988 1.243 . S
C2997 C2999 1.382 . S
C2997 C3001 1.393 . S
C2997 C3004 1.500 . S
C2998 C2999 1.400 . S
C2998 C3000 1.384 . S
C2999 C2997 1.382 . S
C2999 C2998 1.400 . S
C2999 H3016 0.930 . S
C3000 C2998 1.384 . S
C3000 C3002 1.392 . S
C3000 H3017 0.931 . S
C3001 C2997 1.393 . S
C3001 C3002 1.401 . S
C3001 H3018 0.930 . S
C3002 C3000 1.392 . S
C3002 C3001 1.401 . S
C3002 H3019 0.930 . S
C3003 O2986 1.262 . S
C3003 O2987 1.260 . S
C3004 Tb2940 2.833 . S
C3004 O2984 1.251 . S
C3004 O2989 1.256 . S
C3004 C2997 1.500 . S
C3005 H2970 0.929 . S
C3005 C2983 1.444 . S
C3005 C3006 1.317 . S
C3006 H2968 0.930 . S
C3006 C2974 1.432 . S
C3006 C3005 1.317 . S
C3007 O2991 1.283 . S
C3007 O2994 1.231 1_655 S
C3008 C3009 1.382 1_565 S
C3008 C3012 1.393 1_565 S
C3008 C3015 1.500 . S
C3009 C3008 1.382 1_545 S
C3009 C3010 1.400 . S
C3009 H3020 0.930 . S
C3010 C3009 1.400 . S
C3010 C3011 1.384 . S
C3011 C3010 1.384 . S
C3011 C3013 1.392 . S
C3011 H3021 0.931 . S
C3012 C3008 1.393 1_545 S
C3012 C3013 1.401 . S
C3012 H3022 0.930 1_545 S
C3013 C3011 1.392 . S
C3013 C3012 1.401 . S
C3013 H3023 0.930 . S
C3014 O2992 1.262 . S
C3014 O2993 1.260 1_655 S
C3015 Tb2951 2.833 . S
C3015 O2990 1.251 . S
C3015 O2995 1.256 . S
C3015 C3008 1.500 . S
H3016 C2999 0.930 . S
H3017 C3000 0.931 . S
H3018 C3001 0.930 . S
H3019 C3002 0.930 . S
H3020 C3009 0.930 . S
H3021 C3011 0.931 . S
H3022 C3012 0.930 1_565 S
H3023 C3013 0.930 . S
C2331 C63 3.302 . S
C2415 C147 3.301 1_655 S
C231 C2499 3.301 . S
C315 C1071 3.302 . S
C399 C1155 3.301 . S
C1239 C483 3.301 1_565 S
C578 C1838 3.302 1_545 S
C1922 C662 3.301 . S
C746 C2006 3.301 . S
C2594 C830 3.302 1_655 S
C914 C2678 3.301 . S
C2762 C998 3.301 . S
C2079 C1323 3.302 . S
C1407 C2163 3.301 1_565 S
C2247 C1491 3.301 1_655 S
C1586 C2846 3.302 . S
C1670 C2930 3.301 1_565 S
C3014 C1754 3.301 1_655 S
C74 C567 2.502 1_554 S
C651 C158 2.502 1_556 S
C242 C735 2.502 1_554 S
C819 C326 2.502 . S
C410 C903 2.502 . S
C987 C494 2.502 . S
C1575 C1082 2.502 . S
C1166 C1659 2.502 . S
C1743 C1250 2.502 . S
C1334 C1827 2.502 . S
C1911 C1418 2.502 . S
C1502 C1995 2.502 . S
C2090 C2583 2.502 . S
C2667 C2174 2.502 . S
C2751 C2258 2.502 . S
C2835 C2342 2.502 . S
C2426 C2919 2.502 . S
C2510 C3003 2.502 . S
C70 C235 1.787 . S
C154 C67 1.786 . S
C151 C238 1.787 . S
C322 C403 1.787 . S
C487 C406 1.787 . S
C319 C490 1.786 . S
C728 C562 1.787 . S
C646 C560 1.786 . S
C730 C644 1.786 . S
C896 C814 1.787 . S
C898 C980 1.786 . S
C982 C812 1.786 . S
C1243 C1078 1.787 . S
C1075 C1162 1.786 . S
C1159 C1246 1.786 . S
C1411 C1330 1.787 . S
C1414 C1495 1.786 . S
C1327 C1498 1.786 . S
C1570 C1736 1.787 . S
C1568 C1654 1.786 . S
C1738 C1652 1.786 . S
C1904 C1822 1.787 . S
C1988 C1906 1.786 . S
C1820 C1990 1.786 . S
C2251 C2086 1.787 . S
C2170 C2083 1.786 . S
C2167 C2254 1.786 . S
C2338 C2419 1.787 . S
C2422 C2503 1.786 . S
C2335 C2506 1.786 . S
C2578 C2744 1.787 . S
C2662 C2576 1.786 . S
C2660 C2746 1.786 . S
C2830 C2912 1.787 . S
C2996 C2914 1.786 . S
C2828 C2998 1.786 . S
C224 C58 1.838 . S
C142 C56 1.837 . S
C140 C226 1.838 . S
C392 C310 1.838 . S
C394 C476 1.838 . S
C478 C308 1.837 . S
C739 C574 1.838 . S
C658 C571 1.837 . S
C655 C742 1.837 . S
C907 C826 1.838 . S
C991 C910 1.837 . S
C823 C994 1.837 . S
C1066 C1232 1.838 . S
C1150 C1064 1.838 . S
C1234 C1148 1.837 . S
C1400 C1318 1.838 . S
C1402 C1484 1.837 . S
C1486 C1316 1.837 1_545 S
C1747 C1582 1.838 1_565 S
C1579 C1666 1.838 . S
C1750 C1663 1.837 . S
C1915 C1834 1.838 . S
C1918 C1999 1.838 . S
C2002 C1831 1.838 . S
C2074 C2240 1.838 . S
C2072 C2158 1.837 1_655 S
C2156 C2242 1.837 . S
C2408 C2326 1.838 . S
C2410 C2492 1.837 . S
C2494 C2324 1.838 . S
C2755 C2590 1.838 . S
C2587 C2674 1.838 . S
C2758 C2671 1.838 . S
C2923 C2842 1.838 1_655 S
C2926 C3007 1.837 . S
C3010 C2839 1.838 . S
