# Generated by pormake.
# Topology oof, (8)-cn, num edge types: 1
# Building blocks:
#     Node 0, Type 0, BuildingBlock: EBIMEJ_clean_sbu_0, # of connection points: 8
#     Node 1, Type 0, BuildingBlock: EBIMEJ_clean_sbu_0, # of connection points: 8
#     Node 2, Type 0, BuildingBlock: EBIMEJ_clean_sbu_0, # of connection points: 8
#     Node 3, Type 0, BuildingBlock: EBIMEJ_clean_sbu_0, # of connection points: 8
#     Edge 4, Type (0, 0), BuildingBlock: AJUNOK_clean_linker_0, # of connection points: 2
#     Edge 5, Type (0, 0), BuildingBlock: AJUNOK_clean_linker_0, # of connection points: 2
#     Edge 6, Type (0, 0), BuildingBlock: AJUNOK_clean_linker_0, # of connection points: 2
#     Edge 7, Type (0, 0), BuildingBlock: AJUNOK_clean_linker_0, # of connection points: 2
#     Edge 8, Type (0, 0), BuildingBlock: AJUNOK_clean_linker_0, # of connection points: 2
#     Edge 9, Type (0, 0), BuildingBlock: AJUNOK_clean_linker_0, # of connection points: 2
#     Edge 10, Type (0, 0), BuildingBlock: AJUNOK_clean_linker_0, # of connection points: 2
#     Edge 11, Type (0, 0), BuildingBlock: AJUNOK_clean_linker_0, # of connection points: 2
#     Edge 12, Type (0, 0), BuildingBlock: AJUNOK_clean_linker_0, # of connection points: 2
#     Edge 13, Type (0, 0), BuildingBlock: AJUNOK_clean_linker_0, # of connection points: 2
#     Edge 14, Type (0, 0), BuildingBlock: AJUNOK_clean_linker_0, # of connection points: 2
#     Edge 15, Type (0, 0), BuildingBlock: AJUNOK_clean_linker_0, # of connection points: 2
#     Edge 16, Type (0, 0), BuildingBlock: AJUNOK_clean_linker_0, # of connection points: 2
#     Edge 17, Type (0, 0), BuildingBlock: AJUNOK_clean_linker_0, # of connection points: 2
#     Edge 18, Type (0, 0), BuildingBlock: AJUNOK_clean_linker_0, # of connection points: 2
#     Edge 19, Type (0, 0), BuildingBlock: AJUNOK_clean_linker_0, # of connection points: 2
# Relax obj value: 0.049
# Max RMSD: 0.147
# Mean RMSD: 0.147
data_MOF--net-oof--node1-EBIMEJ_clean_sbu_0--edge1-AJUNOK_clean_linker_0
_symmetry_space_group_name_H-M    P1
_symmetry_Int_Tables_number       1
_symmetry_cell_setting            triclinic
loop_
_symmetry_equiv_pos_as_xyz
'x, y, z'
_cell_length_a     11.706053
_cell_length_b     52.841704
_cell_length_c     13.602847
_cell_angle_alpha  78.654308
_cell_angle_beta   121.31988
_cell_angle_gamma 94.863937
loop_
_atom_site_label
_atom_site_type_symbol
_atom_site_fract_x
_atom_site_fract_y
_atom_site_fract_z
_atom_type_partial_charge
Co0 Co 0.94278 0.19997 0.34332 0.0
Co1 Co 0.92154 0.17285 0.13759 0.0
Co2 Co 0.96518 0.13927 0.36311 0.0
H3 H 0.97077 0.16952 0.3368 0.0
O4 O 0.01738 0.17488 0.30512 0.0
H5 H 0.9434 0.14233 0.17225 0.0
O6 O 0.89321 0.13552 0.1989 0.0
Co7 Co 0.00742 0.11357 0.18233 0.0
O8 O 0.96702 0.13072 0.02095 0.0
O9 O 0.85122 0.1676 0.97263 0.0
O10 O 0.02695 0.0859 0.31722 0.0
O11 O 0.9402 0.10157 0.4079 0.0
O12 O 0.00072 0.22745 0.44783 0.0
O13 O 0.10138 0.22337 0.36367 0.0
O14 O 0.171 0.13259 0.27865 0.0
O15 O 0.1023 0.17079 0.16216 0.0
C16 C 0.98058 0.16319 0.55392 0.0
C17 C 0.83569 0.22528 0.10267 0.0
C18 C 0.01254 0.07393 0.10917 0.0
C19 C 0.70662 0.16762 0.2768 0.0
C20 C 0.89827 0.15036 0.94681 0.0
C21 C 0.98611 0.08283 0.38948 0.0
C22 C 0.09337 0.23561 0.43018 0.0
C23 C 0.19485 0.15441 0.23527 0.0
O24 O 0.94122 0.18526 0.48899 0.0
O25 O 0.01806 0.14485 0.52572 0.0
O26 O 0.91117 0.21199 0.0874 0.0
O27 O 0.80619 0.21654 0.18034 0.0
O28 O 0.07273 0.09433 0.10084 0.0
O29 O 0.94916 0.07615 0.15841 0.0
O30 O 0.7536 0.19006 0.27384 0.0
O31 O 0.77726 0.14704 0.3123 0.0
Co32 Co 0.00925 0.94518 0.83624 0.0
Co33 Co 0.04672 0.91951 0.65159 0.0
Co34 Co 0.08894 0.88591 0.87709 0.0
H35 H 0.07048 0.9164 0.8437 0.0
O36 O 0.12032 0.92313 0.81655 0.0
H37 H 0.04431 0.88905 0.67888 0.0
O38 O -0.00302 0.88372 0.70991 0.0
Co39 Co 0.07314 0.85854 0.67243 0.0
O40 O 0.05891 0.8731 0.52016 0.0
O41 O 0.99096 0.91407 0.48792 0.0
O42 O 0.20944 0.84461 0.84014 0.0
O43 O 0.09444 0.847 0.92529 0.0
O44 O 0.95335 0.96273 0.9284 0.0
O45 O 0.06933 0.98242 0.86564 0.0
O46 O 0.25013 0.87041 0.69847 0.0
O47 O 0.2353 0.91241 0.70146 0.0
C48 C 0.10867 0.90794 0.06785 0.0
C49 C 0.01957 0.97588 0.62361 0.0
C50 C 0.92842 0.8207 0.60627 0.0
C51 C 0.81636 0.90525 0.77224 0.0
C52 C 0.01895 0.8952 0.45566 0.0
C53 C 0.17016 0.83407 0.90931 0.0
C54 C 0.01183 0.98342 0.92118 0.0
C55 C 0.29899 0.8927 0.71164 0.0
O56 O 0.0435 0.92797 0.99522 0.0
O57 O 0.15647 0.89089 0.04187 0.0
O58 O 0.06735 0.95746 0.60494 0.0
O59 O 0.98486 0.9726 0.69993 0.0
O60 O 0.05374 0.81992 0.65995 0.0
O61 O 0.88523 0.84296 0.59042 0.0
O62 O 0.84393 0.92724 0.73363 0.0
O63 O 0.90627 0.88869 0.84817 0.0
Co64 Co 0.42285 0.70037 0.32888 0.0
Co65 Co 0.40838 0.67251 0.12881 0.0
Co66 Co 0.4631 0.63988 0.36068 0.0
H67 H 0.45981 0.6701 0.32819 0.0
O68 O 0.50456 0.67578 0.29496 0.0
H69 H 0.43298 0.64218 0.16646 0.0
O70 O 0.3864 0.63525 0.19672 0.0
Co71 Co 0.49568 0.61348 0.17476 0.0
O72 O 0.46543 0.6309 0.01706 0.0
O73 O 0.3385 0.66629 0.96514 0.0
O74 O 0.50921 0.58537 0.30547 0.0
O75 O 0.44886 0.60194 0.41323 0.0
O76 O 0.45338 0.73831 0.35287 0.0
O77 O 0.61457 0.71293 0.43015 0.0
O78 O 0.66068 0.63285 0.26685 0.0
O79 O 0.58924 0.6712 0.15226 0.0
C80 C 0.47413 0.66491 0.54632 0.0
C81 C 0.31419 0.72436 0.08728 0.0
C82 C 0.48586 0.57436 0.09316 0.0
C83 C 0.19732 0.66544 0.27032 0.0
C84 C 0.39361 0.65007 0.94161 0.0
C85 C 0.48182 0.5828 0.38631 0.0
C86 C 0.57807 0.73562 0.41657 0.0
C87 C 0.68273 0.65472 0.22207 0.0
O88 O 0.42313 0.68589 0.47508 0.0
O89 O 0.51843 0.64677 0.52235 0.0
O90 O 0.39211 0.71147 0.07332 0.0
O91 O 0.28373 0.71506 0.16384 0.0
O92 O 0.57827 0.57872 0.19111 0.0
O93 O 0.39875 0.59214 0.04212 0.0
O94 O 0.23533 0.6885 0.25946 0.0
O95 O 0.2752 0.64572 0.31455 0.0
Co96 Co 0.50356 0.44537 0.83405 0.0
Co97 Co 0.54755 0.41934 0.65456 0.0
Co98 Co 0.59237 0.38643 0.88197 0.0
H99 H 0.56929 0.41678 0.84511 0.0
O100 O 0.61852 0.42374 0.81768 0.0
H101 H 0.54717 0.38908 0.68552 0.0
O102 O 0.49919 0.38365 0.71581 0.0
Co103 Co 0.58441 0.35857 0.68779 0.0
O104 O 0.58902 0.37304 0.54385 0.0
O105 O 0.4971 0.41254 0.49439 0.0
O106 O 0.72098 0.34357 0.85309 0.0
O107 O 0.60387 0.34738 0.93543 0.0
O108 O 0.40904 0.4796 0.80677 0.0
O109 O 0.57847 0.46664 0.96628 0.0
O110 O 0.77209 0.36977 0.7582 0.0
O111 O 0.73679 0.41256 0.70743 0.0
C112 C 0.60815 0.40892 0.06879 0.0
C113 C 0.53904 0.47649 0.63434 0.0
C114 C 0.43506 0.32195 0.61217 0.0
C115 C 0.31893 0.40474 0.78149 0.0
C116 C 0.54179 0.39412 0.47238 0.0
C117 C 0.68374 0.33421 0.9249 0.0
C118 C 0.48959 0.48403 0.90788 0.0
C119 C 0.81337 0.39265 0.75075 0.0
O120 O 0.53661 0.42809 0.99293 0.0
O121 O 0.66174 0.39242 0.04532 0.0
O122 O 0.56852 0.45728 0.60517 0.0
O123 O 0.50576 0.47374 0.71143 0.0
O124 O 0.52862 0.32894 0.59408 0.0
O125 O 0.42558 0.33591 0.67231 0.0
O126 O 0.34448 0.42578 0.73421 0.0
O127 O 0.41065 0.38835 0.85596 0.0
C128 C 0.93436 0.17807 0.79403 0.0
C129 C 0.89705 0.15429 0.83525 0.0
C130 C 0.96744 0.18034 0.70706 0.0
C131 C 0.96531 0.15891 0.65798 0.0
H132 H 0.9439 0.19477 0.83278 0.0
H133 H -0.00458 0.19914 0.67813 0.0
S134 S 0.86402 0.09283 0.73005 0.0
N135 N 0.85334 0.10916 0.81678 0.0
N136 N 0.91467 0.11351 0.65314 0.0
C137 C 0.92566 0.13516 0.69704 0.0
C138 C 0.89137 0.13288 0.78517 0.0
C139 C 0.07636 0.92232 0.3144 0.0
C140 C 0.02811 0.89911 0.34878 0.0
C141 C 0.11195 0.92436 0.2291 0.0
C142 C 0.10254 0.90323 0.17593 0.0
H143 H 0.09022 0.93879 0.35577 0.0
H144 H 0.14527 0.94284 0.20296 0.0
S145 S 0.96994 0.83898 0.22693 0.0
N146 N 0.96455 0.85502 0.31716 0.0
N147 N 0.03246 0.85902 0.15806 0.0
C148 C 0.05278 0.88008 0.20831 0.0
C149 C 0.01497 0.87804 0.29395 0.0
C150 C 0.41498 0.6334 0.79208 0.0
C151 C 0.39693 0.6547 0.83181 0.0
C152 C 0.44674 0.63659 0.70404 0.0
C153 C 0.46312 0.66128 0.65251 0.0
H154 H 0.40686 0.61392 0.83109 0.0
H155 H 0.45579 0.61963 0.67473 0.0
S156 S 0.43527 0.72344 0.72978 0.0
N157 N 0.40228 0.70125 0.81507 0.0
N158 N 0.46392 0.70757 0.65136 0.0
C159 C 0.44684 0.68279 0.69244 0.0
C160 C 0.41272 0.67947 0.78101 0.0
C161 C 0.57374 0.42567 0.21144 0.0
C162 C 0.60824 0.40476 0.1801 0.0
C163 C 0.54778 0.4221 0.3029 0.0
C164 C 0.55512 0.39744 0.36738 0.0
H165 H 0.5641 0.44509 0.16334 0.0
H166 H 0.52326 0.43885 0.3238 0.0
S167 S 0.64087 0.33609 0.32064 0.0
N168 N 0.64865 0.35857 0.2214 0.0
N169 N 0.59963 0.35146 0.39261 0.0
C170 C 0.5907 0.3763 0.3375 0.0
C171 C 0.61794 0.38006 0.2447 0.0
C172 C 0.5157 0.14068 0.25742 0.0
C173 C 0.57052 0.16532 0.25516 0.0
C174 C 0.39532 0.13725 0.25465 0.0
C175 C 0.32558 0.15839 0.24841 0.0
H176 H 0.56697 0.12378 0.26354 0.0
H177 H 0.35564 0.11797 0.25541 0.0
S178 S 0.42261 0.22691 0.23756 0.0
N179 N 0.54373 0.21143 0.24417 0.0
N180 N 0.31531 0.20459 0.23789 0.0
C181 C 0.37667 0.18318 0.24337 0.0
C182 C 0.49969 0.18677 0.24662 0.0
C183 C 0.58611 0.89037 0.66676 0.0
C184 C 0.68551 0.90221 0.75717 0.0
C185 C 0.45965 0.88727 0.65295 0.0
C186 C 0.43112 0.89621 0.72872 0.0
H187 H 0.60638 0.88353 0.60714 0.0
H188 H 0.38332 0.87813 0.58206 0.0
S189 S 0.66232 0.9273 0.98202 0.0
N190 N 0.75193 0.92192 0.926 0.0
N191 N 0.51147 0.91656 0.89822 0.0
C192 C 0.53015 0.90803 0.81946 0.0
C193 C 0.65898 0.91087 0.83436 0.0
C194 C 0.92469 0.64502 0.33135 0.0
C195 C 0.81349 0.65878 0.23384 0.0
C196 C 0.04848 0.64652 0.33988 0.0
C197 C 0.06411 0.66188 0.25131 0.0
H198 H 0.91604 0.63301 0.4015 0.0
H199 H 0.13322 0.63617 0.4177 0.0
S200 S 0.80332 0.69997 0.97423 0.0
N201 N 0.72515 0.68709 0.04349 0.0
N202 N 0.96087 0.6901 0.06176 0.0
C203 C 0.9544 0.67554 0.15293 0.0
C204 C 0.82791 0.67397 0.14365 0.0
C205 C 0.01805 0.37451 0.77915 0.0
C206 C 0.94952 0.39588 0.77374 0.0
C207 C 0.1373 0.37767 0.77974 0.0
C208 C 0.19083 0.40222 0.77431 0.0
H209 H 0.97738 0.35531 0.77861 0.0
H210 H 0.18681 0.36087 0.78255 0.0
S211 S 0.06331 0.46356 0.77978 0.0
N212 N 0.95243 0.44185 0.77769 0.0
N213 N 0.17761 0.44775 0.77788 0.0
C214 C 0.12762 0.42355 0.77502 0.0
C215 C 0.00669 0.42035 0.77547 0.0
C216 C 0.35847 0.28696 0.4922 0.0
C217 C 0.34741 0.2999 0.5681 0.0
C218 C 0.2765 0.26613 0.44862 0.0
C219 C 0.18043 0.25736 0.47944 0.0
H220 H 0.43057 0.29306 0.46554 0.0
H221 H 0.2882 0.25692 0.38981 0.0
S222 S 0.11355 0.2842 0.6778 0.0
N223 N 0.23393 0.30217 0.67363 0.0
N224 N 0.08053 0.26301 0.59235 0.0
C225 C 0.16903 0.26999 0.55606 0.0
C226 C 0.25228 0.29125 0.6002 0.0
C227 C 0.84631 0.29735 1.00351 0.0
C228 C 0.72241 0.30661 0.97902 0.0
C229 C 0.87981 0.27084 0.03548 0.0
C230 C 0.79024 0.2524 0.04348 0.0
H231 H 0.91832 0.31083 0.99725 0.0
H232 H 0.97805 0.26486 0.05796 0.0
S233 S 0.44909 0.26597 0.97949 0.0
N234 N 0.50761 0.29484 0.95905 0.0
N235 N 0.56946 0.24511 0.01929 0.0
C236 C 0.66504 0.26133 0.01721 0.0
C237 C 0.63148 0.28834 0.98535 0.0
C238 C 0.61832 0.78182 0.44279 0.0
C239 C 0.66994 0.7567 0.46859 0.0
C240 C 0.70241 0.80225 0.48894 0.0
C241 C 0.84172 0.79845 0.56262 0.0
H242 H 0.51192 0.78583 0.38568 0.0
H243 H 0.65776 0.82126 0.46547 0.0
S244 S 0.02732 0.73616 0.66204 0.0
N245 N 0.8696 0.72903 0.57609 0.0
N246 N 0.02722 0.76738 0.66263 0.0
C247 C 0.89467 0.77335 0.59068 0.0
C248 C 0.80898 0.75252 0.54373 0.0
C249 C 0.34548 0.76876 0.99609 0.0
C250 C 0.26786 0.75158 0.02851 0.0
C251 C 0.31453 0.79539 0.96127 0.0
C252 C 0.20491 0.80606 0.95757 0.0
H253 H 0.43334 0.76179 1.00155 0.0
H254 H 0.37833 0.80781 0.93772 0.0
S255 S 0.96244 0.769 0.0233 0.0
N256 N 0.07005 0.747 0.04672 0.0
N257 N 0.01424 0.79689 0.98243 0.0
C258 C 0.12468 0.78902 0.98693 0.0
C259 C 0.15526 0.7619 0.02151 0.0
C260 C 0.07163 0.05103 0.99565 0.0
C261 C 0.0143 0.05041 0.06498 0.0
C262 C 0.07049 1.02932 0.94961 0.0
C263 C 0.01323 1.00602 0.97209 0.0
H264 H 0.11633 0.06854 0.97538 0.0
H265 H 0.11411 0.0309 0.89532 0.0
S266 S 0.85966 0.99359 0.15651 0.0
N267 N 0.90444 1.02405 0.15858 0.0
N268 N 0.90364 0.98332 0.07353 0.0
C269 C 0.95833 1.00496 0.04357 0.0
C270 C 0.95873 1.0271 0.08977 0.0
C271 C 0.07674 0.0373 0.45541 0.0
C272 C -0.00738 0.05582 0.45082 0.0
C273 C 0.08265 1.01137 0.508 0.0
C274 C 0.00487 1.0028 0.55858 0.0
H275 H 0.13986 0.04286 0.41857 0.0
H276 H 0.15063 0.99813 0.51104 0.0
S277 S 0.75691 0.04264 0.55856 0.0
N278 N 0.82306 0.06313 0.49436 0.0
N279 N 0.83259 1.01461 0.59252 0.0
C280 C 0.91749 1.02097 0.55181 0.0
C281 C 0.91202 0.04738 0.49856 0.0
C282 C 0.57736 0.53128 0.11359 0.0
C283 C 0.48167 0.55134 0.04397 0.0
C284 C 0.5781 0.50954 0.06898 0.0
C285 C 0.4834 0.50699 0.95281 0.0
H286 H 0.65273 0.53236 0.20346 0.0
H287 H 0.65416 0.49466 0.1261 0.0
S288 S 0.21144 0.55411 0.73374 0.0
N289 N 0.28883 0.56717 0.85275 0.0
N290 N 0.29087 0.52642 0.76887 0.0
C291 C 0.38639 0.5268 0.88234 0.0
C292 C 0.38542 0.54894 0.92788 0.0
C293 C 0.50268 0.50915 0.45794 0.0
C294 C 0.53543 0.50362 0.575 0.0
C295 C 0.48261 0.53476 0.39753 0.0
C296 C 0.49398 0.55597 0.45134 0.0
H297 H 0.48892 0.4936 0.4116 0.0
H298 H 0.45685 0.53792 0.3071 0.0
S299 S 0.59099 0.55216 0.76011 0.0
N300 N 0.58834 0.5218 0.74535 0.0
N301 N 0.54803 0.5696 0.63066 0.0
C302 C 0.52902 0.55074 0.56882 0.0
C303 C 0.55077 0.52472 0.63084 0.0
loop_
_geom_bond_atom_site_label_1
_geom_bond_atom_site_label_2
_geom_bond_distance
_geom_bond_site_symmetry_2
_ccdc_geom_bond_type
Co0 H3 2.400 1_655 S
Co0 O4 2.009 1_655 S
Co0 O12 2.115 . S
Co0 O13 2.315 1_655 S
Co0 O24 2.053 . S
Co0 O27 2.094 . S
Co0 O30 2.122 . S
Co1 O4 2.126 1_655 S
Co1 H5 2.388 . S
Co1 O6 2.053 . S
Co1 O9 2.047 1_554 S
Co1 O15 2.113 1_655 S
Co1 O26 2.063 1_655 S
Co2 H3 2.388 . S
Co2 O4 2.053 . S
Co2 O6 2.126 1_455 S
Co2 O11 2.063 1_455 S
Co2 O25 2.047 . S
Co2 O31 2.113 1_455 S
H3 Co0 2.400 1_455 S
H3 Co2 2.388 . S
H3 O4 0.760 . S
O4 Co0 2.009 1_455 S
O4 Co1 2.126 1_455 S
O4 Co2 2.053 . S
O4 H3 0.760 . S
H5 Co1 2.388 . S
H5 O6 0.760 . S
H5 Co7 2.400 1_655 S
O6 Co1 2.053 . S
O6 Co2 2.126 1_655 S
O6 H5 0.760 . S
O6 Co7 2.009 1_655 S
Co7 H5 2.400 1_455 S
Co7 O6 2.009 1_455 S
Co7 O8 2.052 . S
Co7 O10 2.094 . S
Co7 O14 2.122 . S
Co7 O28 2.115 . S
Co7 O29 2.315 1_455 S
O8 Co7 2.052 . S
O8 C20 1.259 1_454 S
O9 Co1 2.047 1_556 S
O9 C20 1.257 . S
O10 Co7 2.094 . S
O10 C21 1.253 . S
O11 Co2 2.063 1_655 S
O11 C21 1.268 1_655 S
O12 Co0 2.115 . S
O12 C22 1.281 1_655 S
O13 Co0 2.315 1_455 S
O13 C22 1.252 . S
O14 Co7 2.122 . S
O14 C23 1.272 . S
O15 Co1 2.113 1_455 S
O15 C23 1.245 . S
C16 O24 1.259 1_455 S
C16 O25 1.257 . S
C17 O26 1.268 1_655 S
C17 O27 1.253 . S
C18 O28 1.281 1_655 S
C18 O29 1.252 . S
C19 O30 1.272 . S
C19 O31 1.245 . S
C20 O8 1.259 1_656 S
C20 O9 1.257 . S
C21 O10 1.253 . S
C21 O11 1.268 1_455 S
C22 O12 1.281 1_455 S
C22 O13 1.252 . S
C23 O14 1.272 . S
C23 O15 1.245 . S
O24 Co0 2.053 . S
O24 C16 1.259 1_655 S
O25 Co2 2.047 . S
O25 C16 1.257 . S
O26 Co1 2.063 1_455 S
O26 C17 1.268 1_455 S
O27 Co0 2.094 . S
O27 C17 1.253 . S
O28 Co7 2.115 . S
O28 C18 1.281 1_455 S
O29 Co7 2.315 1_655 S
O29 C18 1.252 . S
O30 Co0 2.122 . S
O30 C19 1.272 . S
O31 Co2 2.113 1_655 S
O31 C19 1.245 . S
Co32 H35 2.400 1_655 S
Co32 O36 2.009 1_655 S
Co32 O44 2.115 . S
Co32 O45 2.315 1_655 S
Co32 O56 2.054 1_655 S
Co32 O59 2.094 . S
Co32 O62 2.122 . S
Co33 O36 2.126 . S
Co33 H37 2.388 1_455 S
Co33 O38 2.053 1_455 S
Co33 O41 2.047 1_455 S
Co33 O47 2.113 . S
Co33 O58 2.063 . S
Co34 H35 2.388 . S
Co34 O36 2.053 . S
Co34 O38 2.126 1_455 S
Co34 O43 2.063 . S
Co34 O57 2.047 1_556 S
Co34 O63 2.113 1_455 S
H35 Co32 2.400 1_455 S
H35 Co34 2.388 . S
H35 O36 0.760 . S
O36 Co32 2.009 1_455 S
O36 Co33 2.126 . S
O36 Co34 2.053 . S
O36 H35 0.760 . S
H37 Co33 2.388 1_655 S
H37 O38 0.760 . S
H37 Co39 2.400 1_655 S
O38 Co33 2.053 1_655 S
O38 Co34 2.126 1_655 S
O38 H37 0.760 . S
O38 Co39 2.009 1_655 S
Co39 H37 2.400 1_455 S
Co39 O38 2.009 1_455 S
Co39 O40 2.053 . S
Co39 O42 2.094 . S
Co39 O46 2.122 . S
Co39 O60 2.115 . S
Co39 O61 2.315 1_455 S
O40 Co39 2.053 . S
O40 C52 1.259 1_455 S
O41 Co33 2.047 1_655 S
O41 C52 1.257 . S
O42 Co39 2.094 . S
O42 C53 1.253 . S
O43 Co34 2.063 . S
O43 C53 1.268 . S
O44 Co32 2.115 . S
O44 C54 1.281 1_655 S
O45 Co32 2.315 1_455 S
O45 C54 1.252 . S
O46 Co39 2.122 . S
O46 C55 1.272 . S
O47 Co33 2.113 . S
O47 C55 1.245 . S
C48 O56 1.259 1_554 S
C48 O57 1.257 . S
C49 O58 1.268 1_655 S
C49 O59 1.253 . S
C50 O60 1.281 1_655 S
C50 O61 1.252 . S
C51 O62 1.272 . S
C51 O63 1.245 . S
C52 O40 1.259 1_655 S
C52 O41 1.257 . S
C53 O42 1.253 . S
C53 O43 1.268 . S
C54 O44 1.281 1_455 S
C54 O45 1.252 . S
C55 O46 1.272 . S
C55 O47 1.245 . S
O56 Co32 2.054 1_455 S
O56 C48 1.259 1_556 S
O57 Co34 2.047 1_554 S
O57 C48 1.257 . S
O58 Co33 2.063 . S
O58 C49 1.268 1_455 S
O59 Co32 2.094 . S
O59 C49 1.253 . S
O60 Co39 2.115 . S
O60 C50 1.281 1_455 S
O61 Co39 2.315 1_655 S
O61 C50 1.252 . S
O62 Co32 2.122 . S
O62 C51 1.272 . S
O63 Co34 2.113 1_655 S
O63 C51 1.245 . S
Co64 H67 2.400 . S
Co64 O68 2.009 . S
Co64 O76 2.115 . S
Co64 O77 2.315 . S
Co64 O88 2.053 . S
Co64 O91 2.094 . S
Co64 O94 2.122 . S
Co65 O68 2.126 . S
Co65 H69 2.388 . S
Co65 O70 2.053 . S
Co65 O73 2.047 1_554 S
Co65 O79 2.113 . S
Co65 O90 2.063 . S
Co66 H67 2.388 . S
Co66 O68 2.053 . S
Co66 O70 2.126 . S
Co66 O75 2.063 . S
Co66 O89 2.047 . S
Co66 O95 2.113 . S
H67 Co64 2.400 . S
H67 Co66 2.388 . S
H67 O68 0.760 . S
O68 Co64 2.009 . S
O68 Co65 2.126 . S
O68 Co66 2.053 . S
O68 H67 0.760 . S
H69 Co65 2.388 . S
H69 O70 0.760 . S
H69 Co71 2.400 . S
O70 Co65 2.053 . S
O70 Co66 2.126 . S
O70 H69 0.760 . S
O70 Co71 2.009 . S
Co71 H69 2.400 . S
Co71 O70 2.009 . S
Co71 O72 2.053 . S
Co71 O74 2.094 . S
Co71 O78 2.122 . S
Co71 O92 2.115 . S
Co71 O93 2.315 . S
O72 Co71 2.053 . S
O72 C84 1.259 1_554 S
O73 Co65 2.047 1_556 S
O73 C84 1.257 . S
O74 Co71 2.094 . S
O74 C85 1.253 . S
O75 Co66 2.063 . S
O75 C85 1.268 . S
O76 Co64 2.115 . S
O76 C86 1.281 . S
O77 Co64 2.315 . S
O77 C86 1.252 . S
O78 Co71 2.122 . S
O78 C87 1.272 . S
O79 Co65 2.113 . S
O79 C87 1.245 . S
C80 O88 1.259 . S
C80 O89 1.257 . S
C81 O90 1.268 . S
C81 O91 1.253 . S
C82 O92 1.281 . S
C82 O93 1.252 . S
C83 O94 1.272 . S
C83 O95 1.245 . S
C84 O72 1.259 1_556 S
C84 O73 1.257 . S
C85 O74 1.253 . S
C85 O75 1.268 . S
C86 O76 1.281 . S
C86 O77 1.252 . S
C87 O78 1.272 . S
C87 O79 1.245 . S
O88 Co64 2.053 . S
O88 C80 1.259 . S
O89 Co66 2.047 . S
O89 C80 1.257 . S
O90 Co65 2.063 . S
O90 C81 1.268 . S
O91 Co64 2.094 . S
O91 C81 1.253 . S
O92 Co71 2.115 . S
O92 C82 1.281 . S
O93 Co71 2.315 . S
O93 C82 1.252 . S
O94 Co64 2.122 . S
O94 C83 1.272 . S
O95 Co66 2.113 . S
O95 C83 1.245 . S
Co96 H99 2.400 . S
Co96 O100 2.009 . S
Co96 O108 2.115 . S
Co96 O109 2.315 . S
Co96 O120 2.053 1_556 S
Co96 O123 2.094 . S
Co96 O126 2.122 . S
Co97 O100 2.126 . S
Co97 H101 2.388 . S
Co97 O102 2.053 . S
Co97 O105 2.047 . S
Co97 O111 2.113 . S
Co97 O122 2.063 . S
Co98 H99 2.388 . S
Co98 O100 2.053 . S
Co98 O102 2.126 . S
Co98 O107 2.063 . S
Co98 O121 2.047 1_556 S
Co98 O127 2.113 . S
H99 Co96 2.400 . S
H99 Co98 2.388 . S
H99 O100 0.760 . S
O100 Co96 2.009 . S
O100 Co97 2.126 . S
O100 Co98 2.053 . S
O100 H99 0.760 . S
H101 Co97 2.388 . S
H101 O102 0.760 . S
H101 Co103 2.400 . S
O102 Co97 2.053 . S
O102 Co98 2.126 . S
O102 H101 0.760 . S
O102 Co103 2.009 . S
Co103 H101 2.400 . S
Co103 O102 2.009 . S
Co103 O104 2.053 . S
Co103 O106 2.094 . S
Co103 O110 2.122 . S
Co103 O124 2.115 . S
Co103 O125 2.315 . S
O104 Co103 2.053 . S
O104 C116 1.259 . S
O105 Co97 2.047 . S
O105 C116 1.257 . S
O106 Co103 2.094 . S
O106 C117 1.253 . S
O107 Co98 2.063 . S
O107 C117 1.268 . S
O108 Co96 2.115 . S
O108 C118 1.281 . S
O109 Co96 2.315 . S
O109 C118 1.252 . S
O110 Co103 2.122 . S
O110 C119 1.272 . S
O111 Co97 2.113 . S
O111 C119 1.245 . S
C112 O120 1.259 . S
C112 O121 1.257 . S
C113 O122 1.268 . S
C113 O123 1.253 . S
C114 O124 1.281 . S
C114 O125 1.252 . S
C115 O126 1.272 . S
C115 O127 1.245 . S
C116 O104 1.259 . S
C116 O105 1.257 . S
C117 O106 1.253 . S
C117 O107 1.268 . S
C118 O108 1.281 . S
C118 O109 1.252 . S
C119 O110 1.272 . S
C119 O111 1.245 . S
O120 Co96 2.053 1_554 S
O120 C112 1.259 . S
O121 Co98 2.047 1_554 S
O121 C112 1.257 . S
O122 Co97 2.063 . S
O122 C113 1.268 . S
O123 Co96 2.094 . S
O123 C113 1.253 . S
O124 Co103 2.115 . S
O124 C114 1.281 . S
O125 Co103 2.315 . S
O125 C114 1.252 . S
O126 Co96 2.122 . S
O126 C115 1.272 . S
O127 Co98 2.113 . S
O127 C115 1.245 . S
C128 C129 1.369 1_455 S
C128 C130 1.419 . S
C128 H132 0.930 . S
C129 C128 1.369 1_655 S
C129 C138 1.429 . S
C130 C128 1.419 . S
C130 C131 1.363 . S
C130 H133 0.929 . S
C131 C130 1.363 . S
C131 C137 1.428 1_455 S
H132 C128 0.930 . S
H133 C130 0.929 . S
S134 N135 1.613 . S
S134 N136 1.610 . S
N135 S134 1.613 . S
N135 C138 1.350 . S
N136 S134 1.610 . S
N136 C137 1.351 . S
C137 C131 1.428 1_655 S
C137 N136 1.351 . S
C137 C138 1.434 . S
C138 C129 1.429 . S
C138 N135 1.350 . S
C138 C137 1.434 . S
C139 C140 1.369 1_455 S
C139 C141 1.419 . S
C139 H143 0.930 . S
C140 C139 1.369 1_655 S
C140 C149 1.429 . S
C141 C139 1.419 . S
C141 C142 1.363 . S
C141 H144 0.929 . S
C142 C141 1.363 . S
C142 C148 1.428 1_455 S
H143 C139 0.930 . S
H144 C141 0.929 . S
S145 N146 1.613 . S
S145 N147 1.610 . S
N146 S145 1.613 . S
N146 C149 1.350 . S
N147 S145 1.610 . S
N147 C148 1.351 . S
C148 C142 1.428 1_655 S
C148 N147 1.351 . S
C148 C149 1.434 . S
C149 C140 1.429 . S
C149 N146 1.350 . S
C149 C148 1.434 . S
C150 C151 1.369 . S
C150 C152 1.419 . S
C150 H154 0.930 . S
C151 C150 1.369 . S
C151 C160 1.429 . S
C152 C150 1.419 . S
C152 C153 1.363 . S
C152 H155 0.929 . S
C153 C152 1.363 . S
C153 C159 1.428 . S
H154 C150 0.930 . S
H155 C152 0.929 . S
S156 N157 1.613 . S
S156 N158 1.610 . S
N157 S156 1.613 . S
N157 C160 1.350 . S
N158 S156 1.610 . S
N158 C159 1.351 . S
C159 C153 1.428 . S
C159 N158 1.351 . S
C159 C160 1.434 . S
C160 C151 1.429 . S
C160 N157 1.350 . S
C160 C159 1.434 . S
C161 C162 1.369 . S
C161 C163 1.419 . S
C161 H165 0.930 . S
C162 C161 1.369 . S
C162 C171 1.429 . S
C163 C161 1.419 . S
C163 C164 1.363 . S
C163 H166 0.929 . S
C164 C163 1.363 . S
C164 C170 1.428 . S
H165 C161 0.930 . S
H166 C163 0.929 . S
S167 N168 1.613 . S
S167 N169 1.610 . S
N168 S167 1.613 . S
N168 C171 1.350 . S
N169 S167 1.610 . S
N169 C170 1.351 . S
C170 C164 1.428 . S
C170 N169 1.351 . S
C170 C171 1.434 . S
C171 C162 1.429 . S
C171 N168 1.350 . S
C171 C170 1.434 . S
C172 C173 1.369 . S
C172 C174 1.419 . S
C172 H176 0.930 . S
C173 C172 1.369 . S
C173 C182 1.429 . S
C174 C172 1.419 . S
C174 C175 1.363 . S
C174 H177 0.929 . S
C175 C174 1.363 . S
C175 C181 1.428 . S
H176 C172 0.930 . S
H177 C174 0.929 . S
S178 N179 1.613 . S
S178 N180 1.610 . S
N179 S178 1.613 . S
N179 C182 1.350 . S
N180 S178 1.610 . S
N180 C181 1.351 . S
C181 C175 1.428 . S
C181 N180 1.351 . S
C181 C182 1.434 . S
C182 C173 1.429 . S
C182 N179 1.350 . S
C182 C181 1.434 . S
C183 C184 1.369 . S
C183 C185 1.419 . S
C183 H187 0.930 . S
C184 C183 1.369 . S
C184 C193 1.429 . S
C185 C183 1.419 . S
C185 C186 1.363 . S
C185 H188 0.929 . S
C186 C185 1.363 . S
C186 C192 1.428 . S
H187 C183 0.930 . S
H188 C185 0.929 . S
S189 N190 1.613 1_554 S
S189 N191 1.610 1_554 S
N190 S189 1.613 1_556 S
N190 C193 1.350 . S
N191 S189 1.610 1_556 S
N191 C192 1.351 . S
C192 C186 1.428 . S
C192 N191 1.351 . S
C192 C193 1.434 . S
C193 C184 1.429 . S
C193 N190 1.350 . S
C193 C192 1.434 . S
C194 C195 1.369 1_455 S
C194 C196 1.419 . S
C194 H198 0.930 . S
C195 C194 1.369 1_655 S
C195 C204 1.429 . S
C196 C194 1.419 . S
C196 C197 1.363 . S
C196 H199 0.929 . S
C197 C196 1.363 . S
C197 C203 1.428 1_455 S
H198 C194 0.930 . S
H199 C196 0.929 . S
S200 N201 1.613 1_556 S
S200 N202 1.610 1_556 S
N201 S200 1.613 1_554 S
N201 C204 1.350 . S
N202 S200 1.610 1_554 S
N202 C203 1.351 . S
C203 C197 1.428 1_655 S
C203 N202 1.351 . S
C203 C204 1.434 . S
C204 C195 1.429 . S
C204 N201 1.350 . S
C204 C203 1.434 . S
C205 C206 1.369 . S
C205 C207 1.419 1_655 S
C205 H209 0.930 . S
C206 C205 1.369 . S
C206 C215 1.429 . S
C207 C205 1.419 1_455 S
C207 C208 1.363 . S
C207 H210 0.929 . S
C208 C207 1.363 . S
C208 C214 1.428 . S
H209 C205 0.930 . S
H210 C207 0.929 . S
S211 N212 1.613 . S
S211 N213 1.610 1_655 S
N212 S211 1.613 . S
N212 C215 1.350 . S
N213 S211 1.610 1_455 S
N213 C214 1.351 . S
C214 C208 1.428 . S
C214 N213 1.351 . S
C214 C215 1.434 1_455 S
C215 C206 1.429 . S
C215 N212 1.350 . S
C215 C214 1.434 1_655 S
C216 C217 1.369 . S
C216 C218 1.419 . S
C216 H220 0.930 . S
C217 C216 1.369 . S
C217 C226 1.429 . S
C218 C216 1.419 . S
C218 C219 1.363 . S
C218 H221 0.929 . S
C219 C218 1.363 . S
C219 C225 1.428 . S
H220 C216 0.930 . S
H221 C218 0.929 . S
S222 N223 1.613 . S
S222 N224 1.610 . S
N223 S222 1.613 . S
N223 C226 1.350 . S
N224 S222 1.610 . S
N224 C225 1.351 . S
C225 C219 1.428 . S
C225 N224 1.351 . S
C225 C226 1.434 . S
C226 C217 1.429 . S
C226 N223 1.350 . S
C226 C225 1.434 . S
C227 C228 1.369 . S
C227 C229 1.419 1_556 S
C227 H231 0.930 . S
C228 C227 1.369 . S
C228 C237 1.429 . S
C229 C227 1.419 1_554 S
C229 C230 1.363 . S
C229 H232 0.929 . S
C230 C229 1.363 . S
C230 C236 1.428 . S
H231 C227 0.930 . S
H232 C229 0.929 . S
S233 N234 1.613 . S
S233 N235 1.610 1_556 S
N234 S233 1.613 . S
N234 C237 1.350 . S
N235 S233 1.610 1_554 S
N235 C236 1.351 . S
C236 C230 1.428 . S
C236 N235 1.351 . S
C236 C237 1.434 1_554 S
C237 C228 1.429 . S
C237 N234 1.350 . S
C237 C236 1.434 1_556 S
C238 C239 1.369 . S
C238 C240 1.419 . S
C238 H242 0.930 . S
C239 C238 1.369 . S
C239 C248 1.429 . S
C240 C238 1.419 . S
C240 C241 1.363 . S
C240 H243 0.929 . S
C241 C240 1.363 . S
C241 C247 1.428 . S
H242 C238 0.930 . S
H243 C240 0.929 . S
S244 N245 1.612 1_455 S
S244 N246 1.610 . S
N245 S244 1.612 1_655 S
N245 C248 1.350 . S
N246 S244 1.610 . S
N246 C247 1.351 1_455 S
C247 C241 1.428 . S
C247 N246 1.351 1_655 S
C247 C248 1.434 . S
C248 C239 1.429 . S
C248 N245 1.350 . S
C248 C247 1.434 . S
C249 C250 1.369 1_556 S
C249 C251 1.419 . S
C249 H253 0.930 . S
C250 C249 1.369 1_554 S
C250 C259 1.429 . S
C251 C249 1.419 . S
C251 C252 1.363 . S
C251 H254 0.929 . S
C252 C251 1.363 . S
C252 C258 1.428 1_556 S
H253 C249 0.930 . S
H254 C251 0.929 . S
S255 N256 1.613 . S
S255 N257 1.610 . S
N256 S255 1.613 . S
N256 C259 1.350 . S
N257 S255 1.610 . S
N257 C258 1.351 . S
C258 C252 1.428 1_554 S
C258 N257 1.351 . S
C258 C259 1.434 . S
C259 C250 1.429 . S
C259 N256 1.350 . S
C259 C258 1.434 . S
C260 C261 1.369 1_456 S
C260 C262 1.419 . S
C260 H264 0.930 . S
C261 C260 1.369 1_654 S
C261 C270 1.429 1_545 S
C262 C260 1.419 . S
C262 C263 1.363 1_545 S
C262 H265 0.929 . S
C263 C262 1.363 1_565 S
C263 C269 1.428 1_456 S
H264 C260 0.930 . S
H265 C262 0.929 . S
S266 N267 1.613 . S
S266 N268 1.610 . S
N267 S266 1.613 . S
N267 C270 1.350 . S
N268 S266 1.610 . S
N268 C269 1.351 . S
C269 C263 1.428 1_654 S
C269 N268 1.351 . S
C269 C270 1.434 . S
C270 C261 1.429 1_565 S
C270 N267 1.350 . S
C270 C269 1.434 . S
C271 C272 1.369 . S
C271 C273 1.419 1_545 S
C271 H275 0.930 . S
C272 C271 1.369 . S
C272 C281 1.429 1_455 S
C273 C271 1.419 1_565 S
C273 C274 1.363 1_455 S
C273 H276 0.929 . S
C274 C273 1.363 1_655 S
C274 C280 1.428 . S
H275 C271 0.930 . S
H276 C273 0.929 . S
S277 N278 1.613 . S
S277 N279 1.571 1_545 S
N278 S277 1.613 . S
N278 C281 1.350 . S
N279 S277 1.571 1_565 S
N279 C280 1.361 . S
C280 C274 1.428 . S
C280 N279 1.361 . S
C280 C281 1.434 1_565 S
C281 C272 1.429 1_655 S
C281 N278 1.350 . S
C281 C280 1.434 1_545 S
C282 C283 1.369 . S
C282 C284 1.419 . S
C282 H286 0.930 . S
C283 C282 1.369 . S
C283 C292 1.429 1_554 S
C284 C282 1.419 . S
C284 C285 1.363 1_554 S
C284 H287 0.929 . S
C285 C284 1.363 1_556 S
C285 C291 1.428 . S
H286 C282 0.930 . S
H287 C284 0.929 . S
S288 N289 1.613 . S
S288 N290 1.610 . S
N289 S288 1.613 . S
N289 C292 1.350 . S
N290 S288 1.610 . S
N290 C291 1.351 . S
C291 C285 1.428 . S
C291 N290 1.351 . S
C291 C292 1.434 . S
C292 C283 1.429 1_556 S
C292 N289 1.350 . S
C292 C291 1.434 . S
C293 C294 1.369 . S
C293 C295 1.419 . S
C293 H297 0.930 . S
C294 C293 1.369 . S
C294 C303 1.429 . S
C295 C293 1.419 . S
C295 C296 1.363 . S
C295 H298 0.929 . S
C296 C295 1.363 . S
C296 C302 1.428 . S
H297 C293 0.930 . S
H298 C295 0.929 . S
S299 N300 1.613 . S
S299 N301 1.610 . S
N300 S299 1.613 . S
N300 C303 1.350 . S
N301 S299 1.610 . S
N301 C302 1.351 . S
C302 C296 1.428 . S
C302 N301 1.351 . S
C302 C303 1.434 . S
C303 C294 1.429 . S
C303 N300 1.350 . S
C303 C302 1.434 . S
C129 C20 1.558 . S
C131 C16 1.562 . S
C140 C52 1.558 . S
C142 C48 1.561 . S
C151 C84 1.563 . S
C153 C80 1.558 . S
C162 C112 1.562 . S
C164 C116 1.558 . S
C173 C19 0.811 . S
C175 C23 0.821 . S
C184 C51 0.814 . S
C186 C55 0.820 . S
C195 C87 0.811 . S
C197 C83 0.822 . S
C206 C119 0.818 . S
C208 C115 0.816 . S
C217 C114 1.925 . S
C219 C22 1.924 . S
C228 C117 2.081 . S
C230 C17 2.073 . S
C239 C86 1.919 . S
C241 C50 1.926 . S
C250 C81 2.073 . S
C252 C53 2.081 . S
C261 C18 1.703 . S
C263 C54 1.696 . S
C272 C21 1.792 . S
C274 C49 1.794 . S
C283 C82 1.698 . S
C285 C118 1.700 . S
C294 C113 1.794 . S
C296 C85 1.793 . S
