# Generated by pormake.
# Topology ukv, (4)-cn, num edge types: 1
# Building blocks:
#     Node 0, Type 0, BuildingBlock: NAHDIM_clean_sbu_0, # of connection points: 4
#     Node 1, Type 0, BuildingBlock: NAHDIM_clean_sbu_0, # of connection points: 4
#     Node 2, Type 0, BuildingBlock: NAHDIM_clean_sbu_0, # of connection points: 4
#     Node 3, Type 0, BuildingBlock: NAHDIM_clean_sbu_0, # of connection points: 4
#     Node 4, Type 0, BuildingBlock: NAHDIM_clean_sbu_0, # of connection points: 4
#     Node 5, Type 0, BuildingBlock: NAHDIM_clean_sbu_0, # of connection points: 4
#     Node 6, Type 0, BuildingBlock: NAHDIM_clean_sbu_0, # of connection points: 4
#     Node 7, Type 0, BuildingBlock: NAHDIM_clean_sbu_0, # of connection points: 4
#     Node 8, Type 0, BuildingBlock: NAHDIM_clean_sbu_0, # of connection points: 4
#     Node 9, Type 0, BuildingBlock: NAHDIM_clean_sbu_0, # of connection points: 4
#     Node 10, Type 0, BuildingBlock: NAHDIM_clean_sbu_0, # of connection points: 4
#     Node 11, Type 0, BuildingBlock: NAHDIM_clean_sbu_0, # of connection points: 4
#     Node 12, Type 0, BuildingBlock: NAHDIM_clean_sbu_0, # of connection points: 4
#     Node 13, Type 0, BuildingBlock: NAHDIM_clean_sbu_0, # of connection points: 4
#     Node 14, Type 0, BuildingBlock: NAHDIM_clean_sbu_0, # of connection points: 4
#     Node 15, Type 0, BuildingBlock: NAHDIM_clean_sbu_0, # of connection points: 4
#     Node 16, Type 0, BuildingBlock: NAHDIM_clean_sbu_0, # of connection points: 4
#     Node 17, Type 0, BuildingBlock: NAHDIM_clean_sbu_0, # of connection points: 4
#     Node 18, Type 0, BuildingBlock: NAHDIM_clean_sbu_0, # of connection points: 4
#     Node 19, Type 0, BuildingBlock: NAHDIM_clean_sbu_0, # of connection points: 4
#     Node 20, Type 0, BuildingBlock: NAHDIM_clean_sbu_0, # of connection points: 4
#     Node 21, Type 0, BuildingBlock: NAHDIM_clean_sbu_0, # of connection points: 4
#     Node 22, Type 0, BuildingBlock: NAHDIM_clean_sbu_0, # of connection points: 4
#     Node 23, Type 0, BuildingBlock: NAHDIM_clean_sbu_0, # of connection points: 4
#     Node 24, Type 0, BuildingBlock: NAHDIM_clean_sbu_0, # of connection points: 4
#     Node 25, Type 0, BuildingBlock: NAHDIM_clean_sbu_0, # of connection points: 4
#     Node 26, Type 0, BuildingBlock: NAHDIM_clean_sbu_0, # of connection points: 4
#     Node 27, Type 0, BuildingBlock: NAHDIM_clean_sbu_0, # of connection points: 4
#     Node 28, Type 0, BuildingBlock: NAHDIM_clean_sbu_0, # of connection points: 4
#     Node 29, Type 0, BuildingBlock: NAHDIM_clean_sbu_0, # of connection points: 4
#     Node 30, Type 0, BuildingBlock: NAHDIM_clean_sbu_0, # of connection points: 4
#     Node 31, Type 0, BuildingBlock: NAHDIM_clean_sbu_0, # of connection points: 4
#     Node 32, Type 0, BuildingBlock: NAHDIM_clean_sbu_0, # of connection points: 4
#     Node 33, Type 0, BuildingBlock: NAHDIM_clean_sbu_0, # of connection points: 4
#     Node 34, Type 0, BuildingBlock: NAHDIM_clean_sbu_0, # of connection points: 4
#     Node 35, Type 0, BuildingBlock: NAHDIM_clean_sbu_0, # of connection points: 4
#     Edge 36, Type (0, 0), BuildingBlock: KIFKEQ_clean_linker_1, # of connection points: 2
#     Edge 37, Type (0, 0), BuildingBlock: KIFKEQ_clean_linker_1, # of connection points: 2
#     Edge 38, Type (0, 0), BuildingBlock: KIFKEQ_clean_linker_1, # of connection points: 2
#     Edge 39, Type (0, 0), BuildingBlock: KIFKEQ_clean_linker_1, # of connection points: 2
#     Edge 40, Type (0, 0), BuildingBlock: KIFKEQ_clean_linker_1, # of connection points: 2
#     Edge 41, Type (0, 0), BuildingBlock: KIFKEQ_clean_linker_1, # of connection points: 2
#     Edge 42, Type (0, 0), BuildingBlock: KIFKEQ_clean_linker_1, # of connection points: 2
#     Edge 43, Type (0, 0), BuildingBlock: KIFKEQ_clean_linker_1, # of connection points: 2
#     Edge 44, Type (0, 0), BuildingBlock: KIFKEQ_clean_linker_1, # of connection points: 2
#     Edge 45, Type (0, 0), BuildingBlock: KIFKEQ_clean_linker_1, # of connection points: 2
#     Edge 46, Type (0, 0), BuildingBlock: KIFKEQ_clean_linker_1, # of connection points: 2
#     Edge 47, Type (0, 0), BuildingBlock: KIFKEQ_clean_linker_1, # of connection points: 2
#     Edge 48, Type (0, 0), BuildingBlock: KIFKEQ_clean_linker_1, # of connection points: 2
#     Edge 49, Type (0, 0), BuildingBlock: KIFKEQ_clean_linker_1, # of connection points: 2
#     Edge 50, Type (0, 0), BuildingBlock: KIFKEQ_clean_linker_1, # of connection points: 2
#     Edge 51, Type (0, 0), BuildingBlock: KIFKEQ_clean_linker_1, # of connection points: 2
#     Edge 52, Type (0, 0), BuildingBlock: KIFKEQ_clean_linker_1, # of connection points: 2
#     Edge 53, Type (0, 0), BuildingBlock: KIFKEQ_clean_linker_1, # of connection points: 2
#     Edge 54, Type (0, 0), BuildingBlock: KIFKEQ_clean_linker_1, # of connection points: 2
#     Edge 55, Type (0, 0), BuildingBlock: KIFKEQ_clean_linker_1, # of connection points: 2
#     Edge 56, Type (0, 0), BuildingBlock: KIFKEQ_clean_linker_1, # of connection points: 2
#     Edge 57, Type (0, 0), BuildingBlock: KIFKEQ_clean_linker_1, # of connection points: 2
#     Edge 58, Type (0, 0), BuildingBlock: KIFKEQ_clean_linker_1, # of connection points: 2
#     Edge 59, Type (0, 0), BuildingBlock: KIFKEQ_clean_linker_1, # of connection points: 2
#     Edge 60, Type (0, 0), BuildingBlock: KIFKEQ_clean_linker_1, # of connection points: 2
#     Edge 61, Type (0, 0), BuildingBlock: KIFKEQ_clean_linker_1, # of connection points: 2
#     Edge 62, Type (0, 0), BuildingBlock: KIFKEQ_clean_linker_1, # of connection points: 2
#     Edge 63, Type (0, 0), BuildingBlock: KIFKEQ_clean_linker_1, # of connection points: 2
#     Edge 64, Type (0, 0), BuildingBlock: KIFKEQ_clean_linker_1, # of connection points: 2
#     Edge 65, Type (0, 0), BuildingBlock: KIFKEQ_clean_linker_1, # of connection points: 2
#     Edge 66, Type (0, 0), BuildingBlock: KIFKEQ_clean_linker_1, # of connection points: 2
#     Edge 67, Type (0, 0), BuildingBlock: KIFKEQ_clean_linker_1, # of connection points: 2
#     Edge 68, Type (0, 0), BuildingBlock: KIFKEQ_clean_linker_1, # of connection points: 2
#     Edge 69, Type (0, 0), BuildingBlock: KIFKEQ_clean_linker_1, # of connection points: 2
#     Edge 70, Type (0, 0), BuildingBlock: KIFKEQ_clean_linker_1, # of connection points: 2
#     Edge 71, Type (0, 0), BuildingBlock: KIFKEQ_clean_linker_1, # of connection points: 2
#     Edge 72, Type (0, 0), BuildingBlock: KIFKEQ_clean_linker_1, # of connection points: 2
#     Edge 73, Type (0, 0), BuildingBlock: KIFKEQ_clean_linker_1, # of connection points: 2
#     Edge 74, Type (0, 0), BuildingBlock: KIFKEQ_clean_linker_1, # of connection points: 2
#     Edge 75, Type (0, 0), BuildingBlock: KIFKEQ_clean_linker_1, # of connection points: 2
#     Edge 76, Type (0, 0), BuildingBlock: KIFKEQ_clean_linker_1, # of connection points: 2
#     Edge 77, Type (0, 0), BuildingBlock: KIFKEQ_clean_linker_1, # of connection points: 2
#     Edge 78, Type (0, 0), BuildingBlock: KIFKEQ_clean_linker_1, # of connection points: 2
#     Edge 79, Type (0, 0), BuildingBlock: KIFKEQ_clean_linker_1, # of connection points: 2
#     Edge 80, Type (0, 0), BuildingBlock: KIFKEQ_clean_linker_1, # of connection points: 2
#     Edge 81, Type (0, 0), BuildingBlock: KIFKEQ_clean_linker_1, # of connection points: 2
#     Edge 82, Type (0, 0), BuildingBlock: KIFKEQ_clean_linker_1, # of connection points: 2
#     Edge 83, Type (0, 0), BuildingBlock: KIFKEQ_clean_linker_1, # of connection points: 2
#     Edge 84, Type (0, 0), BuildingBlock: KIFKEQ_clean_linker_1, # of connection points: 2
#     Edge 85, Type (0, 0), BuildingBlock: KIFKEQ_clean_linker_1, # of connection points: 2
#     Edge 86, Type (0, 0), BuildingBlock: KIFKEQ_clean_linker_1, # of connection points: 2
#     Edge 87, Type (0, 0), BuildingBlock: KIFKEQ_clean_linker_1, # of connection points: 2
#     Edge 88, Type (0, 0), BuildingBlock: KIFKEQ_clean_linker_1, # of connection points: 2
#     Edge 89, Type (0, 0), BuildingBlock: KIFKEQ_clean_linker_1, # of connection points: 2
#     Edge 90, Type (0, 0), BuildingBlock: KIFKEQ_clean_linker_1, # of connection points: 2
#     Edge 91, Type (0, 0), BuildingBlock: KIFKEQ_clean_linker_1, # of connection points: 2
#     Edge 92, Type (0, 0), BuildingBlock: KIFKEQ_clean_linker_1, # of connection points: 2
#     Edge 93, Type (0, 0), BuildingBlock: KIFKEQ_clean_linker_1, # of connection points: 2
#     Edge 94, Type (0, 0), BuildingBlock: KIFKEQ_clean_linker_1, # of connection points: 2
#     Edge 95, Type (0, 0), BuildingBlock: KIFKEQ_clean_linker_1, # of connection points: 2
#     Edge 96, Type (0, 0), BuildingBlock: KIFKEQ_clean_linker_1, # of connection points: 2
#     Edge 97, Type (0, 0), BuildingBlock: KIFKEQ_clean_linker_1, # of connection points: 2
#     Edge 98, Type (0, 0), BuildingBlock: KIFKEQ_clean_linker_1, # of connection points: 2
#     Edge 99, Type (0, 0), BuildingBlock: KIFKEQ_clean_linker_1, # of connection points: 2
#     Edge 100, Type (0, 0), BuildingBlock: KIFKEQ_clean_linker_1, # of connection points: 2
#     Edge 101, Type (0, 0), BuildingBlock: KIFKEQ_clean_linker_1, # of connection points: 2
#     Edge 102, Type (0, 0), BuildingBlock: KIFKEQ_clean_linker_1, # of connection points: 2
#     Edge 103, Type (0, 0), BuildingBlock: KIFKEQ_clean_linker_1, # of connection points: 2
#     Edge 104, Type (0, 0), BuildingBlock: KIFKEQ_clean_linker_1, # of connection points: 2
#     Edge 105, Type (0, 0), BuildingBlock: KIFKEQ_clean_linker_1, # of connection points: 2
#     Edge 106, Type (0, 0), BuildingBlock: KIFKEQ_clean_linker_1, # of connection points: 2
#     Edge 107, Type (0, 0), BuildingBlock: KIFKEQ_clean_linker_1, # of connection points: 2
# Relax obj value: 0.250
# Max RMSD: 0.179
# Mean RMSD: 0.179
data_MOF--net-ukv--node1-NAHDIM_clean_sbu_0--edge1-KIFKEQ_clean_linker_1
_symmetry_space_group_name_H-M    P1
_symmetry_Int_Tables_number       1
_symmetry_cell_setting            triclinic
loop_
_symmetry_equiv_pos_as_xyz
'x, y, z'
_cell_length_a     97.764583
_cell_length_b     97.762197
_cell_length_c     20.602579
_cell_angle_alpha  89.988332
_cell_angle_beta   89.982789
_cell_angle_gamma 119.99915
loop_
_atom_site_label
_atom_site_type_symbol
_atom_site_fract_x
_atom_site_fract_y
_atom_site_fract_z
_atom_type_partial_charge
C0 C 0.23897 0.04794 0.10746 0.0
O1 O 0.24919 0.06168 0.13255 0.0
O2 O 0.26836 0.07788 0.99708 0.0
Zn3 Zn 0.24481 0.06845 0.0034 0.0
O4 O 0.24019 0.08309 0.05507 0.0
C5 C 0.22493 0.06992 0.90529 0.0
O6 O 0.21663 0.06951 0.95619 0.0
O7 O 0.23492 0.0474 0.04845 0.0
C8 C 0.24777 0.09784 0.04375 0.0
O9 O 0.25908 0.10344 8e-05 0.0
C10 C 0.27425 0.07432 0.9495 0.0
O11 O 0.26474 0.06377 0.9073 0.0
O12 O 0.2367 0.06793 0.91338 0.0
C13 C 0.95928 0.19155 0.04768 0.0
O14 O 0.96107 0.18667 0.99057 0.0
O15 O 0.91407 0.1862 0.99616 0.0
Zn16 Zn 0.92529 0.17428 0.01836 0.0
O17 O 0.91124 0.1559 0.0755 0.0
C18 C 0.92898 0.17132 0.88072 0.0
O19 O 0.93184 0.18595 0.87854 0.0
O20 O 0.94552 0.18789 0.06684 0.0
C21 C 0.89977 0.14349 0.05133 0.0
O22 O 0.89685 0.14305 0.98889 0.0
C23 C 0.92095 0.20113 0.99042 0.0
O24 O 0.93615 0.20962 0.0026 0.0
O25 O 0.92778 0.1649 0.93562 0.0
C26 C 0.81136 0.76368 0.10729 0.0
O27 O 0.81892 0.75726 0.13481 0.0
O28 O 0.80908 0.73237 0.97949 0.0
Zn29 Zn 0.82306 0.75568 0.99661 0.0
O30 O 0.84178 0.75916 0.05056 0.0
C31 C 0.82487 0.76047 0.85724 0.0
O32 O 0.81004 0.74909 0.85802 0.0
O33 O 0.81115 0.76438 0.04562 0.0
C34 C 0.85526 0.76301 0.02683 0.0
O35 O 0.85736 0.76455 0.96373 0.0
C36 C 0.81524 0.72548 0.94895 0.0
O37 O 0.83024 0.73363 0.93305 0.0
O38 O 0.8318 0.76629 0.91079 0.0
C39 C 0.05197 0.24564 0.35338 0.0
O40 O 0.06585 0.25639 0.33129 0.0
O41 O 0.0796 0.27349 0.48316 0.0
Zn42 Zn 0.07129 0.25052 0.46191 0.0
O43 O 0.08732 0.24845 0.40845 0.0
C44 C 0.06986 0.24476 0.60035 0.0
O45 O 0.0672 0.25664 0.60432 0.0
O46 O 0.05087 0.24103 0.41187 0.0
C47 C 0.08577 0.23485 0.40049 0.0
O48 O 0.07338 0.22246 0.4252 0.0
C49 C 0.09064 0.28453 0.4506 0.0
O50 O 0.09609 0.28096 0.39888 0.0
O51 O 0.07017 0.23926 0.54483 0.0
C52 C 0.76146 0.81135 0.38969 0.0
O53 O 0.7549 0.81879 0.36234 0.0
O54 O 0.73049 0.80879 0.52313 0.0
Zn55 Zn 0.75342 0.82293 0.50062 0.0
O56 O 0.75666 0.84154 0.44735 0.0
C57 C 0.75892 0.82658 0.63877 0.0
O58 O 0.74714 0.81196 0.64116 0.0
O59 O 0.7622 0.81113 0.45134 0.0
C60 C 0.7499 0.84947 0.45942 0.0
O61 O 0.73949 0.84499 0.50658 0.0
C62 C 0.71868 0.8056 0.48741 0.0
O63 O 0.721 0.81129 0.42813 0.0
O64 O 0.76467 0.83269 0.58389 0.0
C65 C 0.18886 0.95024 0.38844 0.0
O66 O 0.18642 0.93671 0.36487 0.0
O67 O 0.18524 0.92009 0.51116 0.0
Zn68 Zn 0.17143 0.92922 0.48794 0.0
O69 O 0.15427 0.91456 0.42739 0.0
C70 C 0.16516 0.92971 0.62532 0.0
O71 O 0.18009 0.93388 0.63283 0.0
O72 O 0.18365 0.95046 0.44477 0.0
C73 C 0.14723 0.89973 0.43652 0.0
O74 O 0.15198 0.89399 0.48346 0.0
C75 C 0.20005 0.92806 0.52098 0.0
O76 O 0.20753 0.94343 0.51226 0.0
O77 O 0.15981 0.92894 0.56844 0.0
C78 C 0.76262 0.95885 0.9394 0.0
O79 O 0.74882 0.95455 0.96575 0.0
O80 O 0.73625 0.92319 0.02288 0.0
Zn81 Zn 0.75892 0.93037 0.00081 0.0
O82 O 0.76045 0.91424 0.94595 0.0
C83 C 0.76426 0.9317 0.13866 0.0
O84 O 0.7535 0.936 0.14057 0.0
O85 O 0.76933 0.95083 0.95099 0.0
C86 C 0.75287 0.89957 0.95897 0.0
O87 O 0.74285 0.89445 0.00765 0.0
C88 C 0.72439 0.91528 0.98637 0.0
O89 O 0.72658 0.91173 0.9272 0.0
O90 O 0.76968 0.93065 0.08397 0.0
C91 C 0.04183 0.80642 0.88593 0.0
O92 O 0.05496 0.80765 0.86309 0.0
O93 O 0.07047 0.80691 0.00306 0.0
Zn94 Zn 0.06331 0.82268 0.98479 0.0
O95 O 0.07843 0.84034 0.92664 0.0
C96 C 0.0645 0.82764 0.12335 0.0
O97 O 0.06101 0.81281 0.12637 0.0
O98 O 0.04203 0.81202 0.94184 0.0
C99 C 0.09216 0.85035 0.94668 0.0
O100 O 0.09685 0.84849 0.00409 0.0
C101 C 0.08292 0.80772 0.98011 0.0
O102 O 0.09145 0.81879 0.93779 0.0
O103 O 0.06418 0.83348 0.06867 0.0
C104 C 0.18659 0.23657 0.86407 0.0
O105 O 0.18257 0.24637 0.83848 0.0
O106 O 0.18517 0.26348 0.99709 0.0
Zn107 Zn 0.17073 0.24091 0.96956 0.0
O108 O 0.15343 0.23927 0.91181 0.0
C109 C 0.16539 0.23378 0.10557 0.0
O110 O 0.1801 0.24532 0.11019 0.0
O111 O 0.18282 0.23221 0.92267 0.0
C112 C 0.14591 0.24635 0.92612 0.0
O113 O 0.15007 0.25552 0.9775 0.0
C114 C 0.18894 0.27579 0.96363 0.0
O115 O 0.18372 0.27431 0.90383 0.0
O116 O 0.15959 0.22875 0.04962 0.0
C117 C 0.94464 0.76082 0.60264 0.0
O118 O 0.9306 0.75181 0.62805 0.0
O119 O 0.91741 0.73257 0.46687 0.0
Zn120 Zn 0.92538 0.75526 0.49219 0.0
O121 O 0.90944 0.75756 0.54577 0.0
C122 C 0.92879 0.7624 0.35523 0.0
O123 O 0.93136 0.75045 0.35186 0.0
O124 O 0.94571 0.7641 0.54245 0.0
C125 C 0.89467 0.74975 0.53503 0.0
O126 O 0.88916 0.73894 0.48931 0.0
C127 C 0.90928 0.72048 0.50203 0.0
O128 O 0.90571 0.72231 0.56167 0.0
O129 O 0.9275 0.76734 0.41065 0.0
C130 C 0.24084 0.19179 0.59235 0.0
O131 O 0.25168 0.18933 0.61853 0.0
O132 O 0.26797 0.18775 0.47348 0.0
Zn133 Zn 0.24483 0.17395 0.49522 0.0
O134 O 0.2418 0.15709 0.55956 0.0
C135 C 0.23773 0.16907 0.35775 0.0
O136 O 0.24804 0.18423 0.35324 0.0
O137 O 0.23594 0.18657 0.53552 0.0
C138 C 0.23842 0.14326 0.54227 0.0
O139 O 0.23748 0.13984 0.48021 0.0
C140 C 0.27453 0.18153 0.44105 0.0
O141 O 0.26623 0.16648 0.42603 0.0
O142 O 0.23355 0.16285 0.41364 0.0
C143 C 0.80333 0.04083 0.58293 0.0
O144 O 0.79397 0.04551 0.55824 0.0
O145 O 0.8131 0.07564 0.49046 0.0
Zn146 Zn 0.82813 0.06792 0.51369 0.0
O147 O 0.84645 0.08433 0.56503 0.0
C148 C 0.8306 0.0644 0.37661 0.0
O149 O 0.81582 0.06109 0.37715 0.0
O150 O 0.81788 0.0481 0.56774 0.0
C151 C 0.85345 0.09897 0.5515 0.0
O152 O 0.84821 0.10399 0.5037 0.0
C153 C 0.80951 0.08405 0.52567 0.0
O154 O 0.81531 0.08784 0.58465 0.0
O155 O 0.83758 0.06587 0.43036 0.0
C156 C 0.90945 0.38303 0.44535 0.0
O157 O 0.92116 0.39692 0.46255 0.0
O158 O 0.93506 0.41067 0.31764 0.0
Zn159 Zn 0.91198 0.40188 0.33902 0.0
O160 O 0.90859 0.4171 0.39239 0.0
C161 C 0.90672 0.39993 0.20084 0.0
O162 O 0.91863 0.39728 0.19929 0.0
O163 O 0.90317 0.38158 0.38986 0.0
C164 C 0.91393 0.4314 0.37575 0.0
O165 O 0.92294 0.43695 0.32406 0.0
C166 C 0.94671 0.42138 0.34885 0.0
O167 O 0.94416 0.42715 0.4021 0.0
O168 O 0.9008 0.40025 0.25536 0.0
C169 C 0.61627 0.52416 0.43889 0.0
O170 O 0.60332 0.52273 0.46465 0.0
O171 O 0.58835 0.52666 0.32253 0.0
Zn172 Zn 0.59457 0.51009 0.33777 0.0
O173 O 0.57856 0.49277 0.39446 0.0
C174 C 0.59311 0.50585 0.19855 0.0
O175 O 0.59676 0.52073 0.19728 0.0
O176 O 0.61582 0.51953 0.38085 0.0
C177 C 0.579 0.48008 0.40134 0.0
O178 O 0.59046 0.47886 0.37374 0.0
C179 C 0.5753 0.52493 0.34281 0.0
O180 O 0.56605 0.51253 0.3783 0.0
O181 O 0.59319 0.49959 0.25249 0.0
C182 C 0.47097 0.08997 0.40297 0.0
O183 O 0.46308 0.07483 0.38911 0.0
O184 O 0.4823 0.06597 0.31228 0.0
Zn185 Zn 0.49634 0.08907 0.33321 0.0
O186 O 0.51461 0.09221 0.38828 0.0
C187 C 0.49928 0.09379 0.19543 0.0
O188 O 0.48463 0.08205 0.19615 0.0
O189 O 0.48495 0.09838 0.38142 0.0
C190 C 0.5226 0.08558 0.37471 0.0
O191 O 0.5184 0.07582 0.32524 0.0
C192 C 0.47955 0.05435 0.34849 0.0
O193 O 0.48547 0.05699 0.4074 0.0
O194 O 0.506 0.09994 0.24897 0.0
C195 C 0.71631 0.57129 0.70521 0.0
O196 O 0.72988 0.58094 0.67747 0.0
O197 O 0.74435 0.60203 0.82962 0.0
Zn198 Zn 0.73705 0.57913 0.81164 0.0
O199 O 0.75336 0.57786 0.75685 0.0
C200 C 0.73656 0.57459 0.95065 0.0
O201 O 0.7329 0.58581 0.95298 0.0
O202 O 0.71608 0.56842 0.76553 0.0
C203 C 0.75319 0.56484 0.7507 0.0
O204 O 0.7418 0.55208 0.77814 0.0
C205 C 0.75375 0.61298 0.79178 0.0
O206 O 0.75809 0.60924 0.73733 0.0
O207 O 0.73722 0.56898 0.89589 0.0
C208 C 0.42701 0.133 0.73864 0.0
O209 O 0.41544 0.12321 0.77668 0.0
O210 O 0.39743 0.13998 0.81018 0.0
Zn211 Zn 0.41997 0.15642 0.79108 0.0
O212 O 0.41989 0.17367 0.73867 0.0
C213 C 0.42595 0.1603 0.9301 0.0
O214 O 0.41549 0.14517 0.93336 0.0
O215 O 0.43123 0.14758 0.73932 0.0
C216 C 0.4325 0.18699 0.73483 0.0
O217 O 0.44538 0.18888 0.76312 0.0
C218 C 0.38906 0.14489 0.83778 0.0
O219 O 0.39546 0.16003 0.85066 0.0
O220 O 0.4306 0.16673 0.87479 0.0
C221 C 0.86523 0.29386 0.77059 0.0
O222 O 0.87403 0.28802 0.79048 0.0
O223 O 0.85585 0.25813 0.84836 0.0
Zn224 Zn 0.84028 0.26544 0.82943 0.0
O225 O 0.82292 0.24996 0.77169 0.0
C226 C 0.83534 0.2645 0.96779 0.0
O227 O 0.85036 0.26873 0.97081 0.0
O228 O 0.85061 0.28666 0.7848 0.0
C229 C 0.81487 0.23549 0.78768 0.0
O230 O 0.81865 0.23054 0.8403 0.0
C231 C 0.85827 0.24901 0.81229 0.0
O232 O 0.8507 0.24419 0.75687 0.0
O233 O 0.8293 0.26438 0.91303 0.0
C234 C 0.42197 0.28746 0.2269 0.0
O235 O 0.40743 0.28163 0.24798 0.0
O236 O 0.39742 0.25155 0.31326 0.0
Zn237 Zn 0.42061 0.26058 0.29429 0.0
O238 O 0.4239 0.24518 0.24175 0.0
C239 C 0.42524 0.26202 0.43264 0.0
O240 O 0.41241 0.26315 0.43318 0.0
O241 O 0.42983 0.28087 0.24334 0.0
C242 C 0.41698 0.23053 0.25515 0.0
O243 O 0.40671 0.225 0.30293 0.0
C244 C 0.38635 0.24322 0.27385 0.0
O245 O 0.38988 0.24067 0.21522 0.0
O246 O 0.43172 0.26247 0.37858 0.0
C247 C 0.71649 0.13891 0.22908 0.0
O248 O 0.73017 0.14202 0.20467 0.0
O249 O 0.74537 0.14046 0.35688 0.0
Zn250 Zn 0.73711 0.15496 0.33195 0.0
O251 O 0.75205 0.17235 0.27266 0.0
C252 C 0.73639 0.16079 0.46904 0.0
O253 O 0.73285 0.146 0.47528 0.0
O254 O 0.71603 0.14313 0.28706 0.0
C255 C 0.76656 0.18115 0.28663 0.0
O256 O 0.77232 0.17816 0.33886 0.0
C257 C 0.75507 0.13817 0.32421 0.0
O258 O 0.75992 0.14506 0.26746 0.0
O259 O 0.73693 0.16628 0.41263 0.0
C260 C 0.86418 0.57534 0.23608 0.0
O261 O 0.8719 0.59073 0.24401 0.0
O262 O 0.85541 0.59966 0.34001 0.0
Zn263 Zn 0.84058 0.57683 0.31644 0.0
O264 O 0.82263 0.57481 0.26231 0.0
C265 C 0.83588 0.57075 0.45376 0.0
O266 O 0.85012 0.58315 0.45742 0.0
O267 O 0.85109 0.56707 0.26521 0.0
C268 C 0.81477 0.58149 0.27725 0.0
O269 O 0.81897 0.59091 0.32786 0.0
C270 C 0.85786 0.61145 0.30548 0.0
O271 O 0.85116 0.60904 0.24815 0.0
O272 O 0.83024 0.56505 0.3983 0.0
C273 C 0.61972 0.09112 0.94277 0.0
O274 O 0.60599 0.08041 0.96628 0.0
O275 O 0.59184 0.0638 0.81356 0.0
Zn276 Zn 0.59956 0.08647 0.8377 0.0
O277 O 0.58388 0.08804 0.89581 0.0
C278 C 0.60119 0.09299 0.70038 0.0
O279 O 0.60503 0.08192 0.69613 0.0
O280 O 0.62037 0.0959 0.88479 0.0
C281 C 0.5715 0.08732 0.87235 0.0
O282 O 0.56863 0.08472 0.80993 0.0
C283 C 0.58137 0.052 0.84493 0.0
O284 O 0.57551 0.05438 0.89835 0.0
O285 O 0.60015 0.09797 0.75611 0.0
C286 C 0.9001 0.52753 0.888 0.0
O287 O 0.91172 0.53683 0.84908 0.0
O288 O 0.92831 0.51873 0.8182 0.0
Zn289 Zn 0.90561 0.5029 0.83762 0.0
O290 O 0.90406 0.4851 0.89156 0.0
C291 C 0.90057 0.49923 0.69919 0.0
O292 O 0.91153 0.51422 0.69743 0.0
O293 O 0.89519 0.51279 0.88796 0.0
C294 C 0.91228 0.47861 0.88029 0.0
O295 O 0.92297 0.48422 0.83403 0.0
C296 C 0.93953 0.52339 0.85885 0.0
O297 O 0.93643 0.51799 0.91862 0.0
O298 O 0.89507 0.49275 0.75378 0.0
C299 C 0.46454 0.37291 0.88434 0.0
O300 O 0.45488 0.3756 0.8495 0.0
O301 O 0.47482 0.41003 0.80244 0.0
Zn302 Zn 0.48984 0.40255 0.82908 0.0
O303 O 0.50706 0.41875 0.88521 0.0
C304 C 0.49575 0.40153 0.69286 0.0
O305 O 0.48134 0.39917 0.68713 0.0
O306 O 0.47934 0.38231 0.88021 0.0
C307 C 0.5128 0.43354 0.87834 0.0
O308 O 0.50673 0.43883 0.83495 0.0
C309 C 0.46649 0.41329 0.83964 0.0
O310 O 0.46694 0.41145 0.90263 0.0
O311 O 0.50107 0.40158 0.74917 0.0
C312 C 0.56977 0.71758 0.78589 0.0
O313 O 0.57977 0.73197 0.80568 0.0
O314 O 0.59764 0.74339 0.65102 0.0
Zn315 Zn 0.5747 0.73527 0.67244 0.0
O316 O 0.57199 0.75135 0.7227 0.0
C317 C 0.56956 0.73288 0.5345 0.0
O318 O 0.58195 0.73098 0.53435 0.0
O319 O 0.5656 0.71543 0.72655 0.0
C320 C 0.57838 0.76578 0.7062 0.0
O321 O 0.5879 0.77089 0.65586 0.0
C322 C 0.60949 0.75351 0.68316 0.0
O323 O 0.60723 0.75903 0.73777 0.0
O324 O 0.56331 0.73299 0.58847 0.0
C325 C 0.29492 0.87362 0.77459 0.0
O326 O 0.28742 0.88156 0.78066 0.0
O327 O 0.26024 0.86867 0.69896 0.0
Zn328 Zn 0.26508 0.8515 0.72406 0.0
O329 O 0.25266 0.8396 0.80265 0.0
C330 C 0.24184 0.82906 0.64909 0.0
O331 O 0.23474 0.83381 0.68988 0.0
O332 O 0.28798 0.86023 0.74672 0.0
C333 C 0.25166 0.8264 0.81525 0.0
O334 O 0.25949 0.82157 0.77906 0.0
C335 C 0.25018 0.87076 0.72985 0.0
O336 O 0.24356 0.86232 0.78212 0.0
O337 O 0.25682 0.83554 0.65143 0.0
C338 C 0.14485 0.42859 0.7794 0.0
O339 O 0.14718 0.41736 0.80216 0.0
O340 O 0.14764 0.40182 0.66031 0.0
Zn341 Zn 0.16194 0.42505 0.67817 0.0
O342 O 0.17975 0.42796 0.73677 0.0
C343 C 0.16427 0.42956 0.53966 0.0
O344 O 0.14933 0.41845 0.54121 0.0
O345 O 0.15002 0.43412 0.72315 0.0
C346 C 0.19351 0.43207 0.71556 0.0
O347 O 0.19638 0.43439 0.65305 0.0
C348 C 0.15385 0.3946 0.63284 0.0
O349 O 0.16911 0.40233 0.62117 0.0
O350 O 0.17138 0.43545 0.59282 0.0
C351 C 0.38975 0.90897 0.06302 0.0
O352 O 0.4036 0.92089 0.04686 0.0
O353 O 0.41798 0.93298 0.18839 0.0
Zn354 Zn 0.40866 0.90984 0.16669 0.0
O355 O 0.42354 0.90602 0.11288 0.0
C356 C 0.40577 0.90466 0.30431 0.0
O357 O 0.40347 0.9168 0.30338 0.0
O358 O 0.38843 0.90182 0.11628 0.0
C359 C 0.43781 0.91113 0.12928 0.0
O360 O 0.44346 0.91996 0.18137 0.0
C361 C 0.42893 0.94467 0.15827 0.0
O362 O 0.43491 0.94223 0.10537 0.0
O363 O 0.40639 0.89853 0.25078 0.0
C364 C 0.09646 0.47703 0.06517 0.0
O365 O 0.08697 0.48152 0.04011 0.0
O366 O 0.06825 0.47715 0.19459 0.0
Zn367 Zn 0.09131 0.49148 0.17353 0.0
O368 O 0.09434 0.50998 0.12014 0.0
C369 C 0.09634 0.49403 0.31116 0.0
O370 O 0.08431 0.47953 0.3104 0.0
O371 O 0.10022 0.47985 0.12475 0.0
C372 C 0.08761 0.51778 0.13539 0.0
O373 O 0.07793 0.51324 0.18524 0.0
C374 C 0.05654 0.47463 0.15941 0.0
O375 O 0.05904 0.48118 0.10172 0.0
O376 O 0.10241 0.5008 0.2576 0.0
C377 C 0.51764 0.62888 0.11109 0.0
O378 O 0.51006 0.63026 0.16102 0.0
O379 O 0.51553 0.58397 0.163 0.0
Zn380 Zn 0.50354 0.59553 0.14924 0.0
O381 O 0.48419 0.58176 0.09671 0.0
C382 C 0.50227 0.59775 0.28867 0.0
O383 O 0.51657 0.59973 0.28603 0.0
O384 O 0.51671 0.61567 0.09977 0.0
C385 C 0.47582 0.56719 0.11056 0.0
O386 O 0.48031 0.56129 0.15779 0.0
C387 C 0.5304 0.59082 0.17071 0.0
O388 O 0.53879 0.60629 0.16639 0.0
O389 O 0.49544 0.59772 0.23612 0.0
C390 C 0.10176 0.61504 0.58417 0.0
O391 O 0.11075 0.6086 0.58367 0.0
O392 O 0.05991 0.5793 0.69867 0.0
Zn393 Zn 0.08267 0.58915 0.67142 0.0
O394 O 0.08484 0.57322 0.61717 0.0
C395 C 0.09049 0.59343 0.80805 0.0
O396 O 0.07874 0.59629 0.81211 0.0
O397 O 0.08951 0.60909 0.61989 0.0
C398 C 0.09719 0.572 0.62055 0.0
O399 O 0.10893 0.58173 0.65799 0.0
C400 C 0.05109 0.58527 0.69075 0.0
O401 O 0.05667 0.59887 0.66057 0.0
O402 O 0.09523 0.59203 0.75236 0.0
C403 C 0.37118 0.46549 0.60419 0.0
O404 O 0.37394 0.4566 0.6437 0.0
O405 O 0.40941 0.47721 0.68058 0.0
Zn406 Zn 0.40149 0.4916 0.65026 0.0
O407 O 0.41752 0.50827 0.59118 0.0
C408 C 0.39793 0.49722 0.78489 0.0
O409 O 0.3932 0.48212 0.79113 0.0
O410 O 0.38091 0.48023 0.60163 0.0
C411 C 0.42985 0.52 0.61453 0.0
O412 O 0.43242 0.52063 0.67734 0.0
C413 C 0.411 0.46731 0.64615 0.0
O414 O 0.40702 0.46566 0.58455 0.0
O415 O 0.40039 0.50319 0.72839 0.0
C416 C 0.53606 0.90633 0.59353 0.0
O417 O 0.54464 0.92116 0.61137 0.0
O418 O 0.52596 0.93063 0.6888 0.0
Zn419 Zn 0.51109 0.90808 0.66277 0.0
O420 O 0.49402 0.90712 0.60543 0.0
C421 C 0.50624 0.90079 0.79933 0.0
O422 O 0.5213 0.91144 0.80351 0.0
O423 O 0.52183 0.89836 0.61285 0.0
C424 C 0.4825 0.90803 0.62915 0.0
O425 O 0.48221 0.91045 0.69174 0.0
C426 C 0.52861 0.94247 0.65427 0.0
O427 O 0.52206 0.94015 0.59665 0.0
O428 O 0.50006 0.89627 0.74357 0.0
C429 C 0.28025 0.41913 0.28725 0.0
O430 O 0.26624 0.40792 0.30616 0.0
O431 O 0.25312 0.39476 0.15103 0.0
Zn432 Zn 0.26148 0.41723 0.18052 0.0
O433 O 0.24572 0.41882 0.238 0.0
C434 C 0.26436 0.42572 0.04511 0.0
O435 O 0.26647 0.41355 0.03812 0.0
O436 O 0.28164 0.42521 0.23132 0.0
C437 C 0.23387 0.41912 0.21427 0.0
O438 O 0.23146 0.41753 0.15131 0.0
C439 C 0.24169 0.38283 0.17803 0.0
O440 O 0.2352 0.38484 0.23029 0.0
O441 O 0.26367 0.43036 0.102 0.0
C442 C 0.57674 0.86498 0.23745 0.0
O443 O 0.58929 0.8749 0.20418 0.0
O444 O 0.60328 0.85685 0.1472 0.0
Zn445 Zn 0.58102 0.84088 0.17274 0.0
O446 O 0.58098 0.82323 0.22281 0.0
C447 C 0.57356 0.83707 0.03563 0.0
O448 O 0.58469 0.85196 0.03188 0.0
O449 O 0.57096 0.85022 0.22923 0.0
C450 C 0.56782 0.81056 0.22988 0.0
O451 O 0.555 0.80978 0.20581 0.0
C452 C 0.61529 0.85951 0.18054 0.0
O453 O 0.61325 0.85221 0.23631 0.0
O454 O 0.56904 0.83073 0.09118 0.0
C455 C 0.12958 0.70947 0.29982 0.0
O456 O 0.127 0.72049 0.32314 0.0
O457 O 0.13138 0.74091 0.19529 0.0
Zn458 Zn 0.14791 0.73543 0.22362 0.0
O459 O 0.15963 0.74801 0.30222 0.0
C460 C 0.17195 0.75791 0.15055 0.0
O461 O 0.16805 0.76569 0.19147 0.0
O462 O 0.13827 0.71261 0.24974 0.0
C463 C 0.17222 0.74818 0.31905 0.0
O464 O 0.17662 0.73939 0.28719 0.0
C465 C 0.13127 0.75287 0.21894 0.0
O466 O 0.14095 0.76069 0.26668 0.0
O467 O 0.16429 0.74287 0.15207 0.0
H468 H 0.20039 0.95315 0.26552 0.0
H469 H 0.19541 0.98012 0.4206 0.0
H470 H 0.21283 0.97672 0.19786 0.0
H471 H 0.20766 0.00368 0.35232 0.0
H472 H 0.24481 0.04571 0.23536 0.0
H473 H 0.23317 0.02221 0.30352 0.0
H474 H 0.20559 0.99414 0.14071 0.0
H475 H 0.21743 0.01764 0.07203 0.0
C476 C 0.20195 0.96411 0.28524 0.0
C477 C 0.19689 0.96475 0.34848 0.0
C478 C 0.20899 0.97759 0.24622 0.0
C479 C 0.21117 0.99205 0.26957 0.0
C480 C 0.20629 0.99275 0.33313 0.0
C481 C 0.19921 0.97923 0.37216 0.0
C482 C 0.23629 0.03453 0.21395 0.0
C483 C 0.23205 0.03355 0.1482 0.0
C484 C 0.22955 0.02107 0.25321 0.0
C485 C 0.21843 0.00632 0.22761 0.0
C486 C 0.21426 0.00531 0.16171 0.0
C487 C 0.22098 0.01879 0.12243 0.0
H488 H 0.9904 0.20134 0.02373 0.0
H489 H 0.95911 0.20186 0.17077 0.0
H490 H 0.01265 0.21487 0.09809 0.0
H491 H 0.98137 0.21555 0.24455 0.0
H492 H 0.02172 0.22238 0.381 0.0
H493 H 0.99938 0.20987 0.30641 0.0
H494 H 0.0286 0.24041 0.15195 0.0
H495 H 0.05097 0.25274 0.22602 0.0
C496 C 0.98828 0.20443 0.07168 0.0
C497 C 0.97297 0.20047 0.09131 0.0
C498 C 0.00104 0.21225 0.1142 0.0
C499 C 0.99877 0.21624 0.17732 0.0
C500 C 0.98349 0.21245 0.1966 0.0
C501 C 0.97074 0.20468 0.15408 0.0
C502 C 0.02336 0.22647 0.33121 0.0
C503 C 0.03814 0.23852 0.30945 0.0
C504 C 0.01054 0.21935 0.28854 0.0
C505 C 0.01224 0.22412 0.22318 0.0
C506 C 0.02697 0.23631 0.20173 0.0
C507 C 0.03976 0.24344 0.24437 0.0
H508 H 0.76867 0.81637 0.26118 0.0
H509 H 0.76965 0.7894 0.42534 0.0
H510 H 0.78047 0.80473 0.19332 0.0
H511 H 0.78077 0.77707 0.35665 0.0
H512 H 0.81623 0.77096 0.23573 0.0
H513 H 0.80401 0.78219 0.3035 0.0
H514 H 0.77607 0.78176 0.13993 0.0
H515 H 0.78896 0.77122 0.07134 0.0
C516 C 0.77124 0.80779 0.28261 0.0
C517 C 0.76827 0.80383 0.34868 0.0
C518 C 0.77791 0.801 0.24349 0.0
C519 C 0.78158 0.78989 0.26919 0.0
C520 C 0.77839 0.78578 0.33528 0.0
C521 C 0.77192 0.79277 0.37469 0.0
C522 C 0.80747 0.77326 0.21423 0.0
C523 C 0.80358 0.77024 0.14813 0.0
C524 C 0.80035 0.7796 0.2533 0.0
C525 C 0.78897 0.78288 0.22752 0.0
C526 C 0.78497 0.77967 0.16137 0.0
C527 C 0.79229 0.77354 0.12201 0.0
H528 H 0.75276 0.97978 0.90859 0.0
H529 H 0.78763 0.96671 0.85861 0.0
H530 H 0.76278 0.99959 0.82268 0.0
H531 H 0.79725 0.98604 0.7714 0.0
H532 H 0.82063 0.03244 0.66025 0.0
H533 H 0.81125 0.0134 0.74854 0.0
H534 H 0.76323 0.00163 0.70724 0.0
H535 H 0.77272 0.02116 0.62027 0.0
C536 C 0.76258 0.98115 0.87935 0.0
C537 C 0.7694 0.97167 0.89053 0.0
C538 C 0.76823 0.99241 0.82965 0.0
C539 C 0.78076 0.99436 0.78964 0.0
C540 C 0.78773 0.98503 0.80166 0.0
C541 C 0.78217 0.97389 0.85166 0.0
C542 C 0.80806 0.02573 0.6697 0.0
C543 C 0.79742 0.02833 0.63319 0.0
C544 C 0.80266 0.01475 0.72032 0.0
C545 C 0.78647 0.00598 0.73533 0.0
C546 C 0.77581 0.00838 0.69793 0.0
C547 C 0.78123 0.01947 0.64762 0.0
H548 H 0.03804 0.7937 0.76496 0.0
H549 H 0.01292 0.80292 0.91561 0.0
H550 H 0.01454 0.78246 0.69701 0.0
H551 H 0.98945 0.7919 0.84692 0.0
H552 H 0.94604 0.75606 0.73242 0.0
H553 H 0.96937 0.76672 0.80129 0.0
H554 H 0.9988 0.79106 0.63612 0.0
H555 H 0.97547 0.78016 0.56681 0.0
C556 C 0.0275 0.79334 0.78361 0.0
C557 C 0.02735 0.79922 0.84573 0.0
C558 C 0.01406 0.78699 0.74442 0.0
C559 C 0.00015 0.78634 0.76641 0.0
C560 C -6e-05 0.79208 0.82881 0.0
C561 C 0.01341 0.79845 0.86807 0.0
C562 C 0.95748 0.76366 0.71069 0.0
C563 C 0.95889 0.76725 0.64407 0.0
C564 C 0.97085 0.76985 0.75032 0.0
C565 C 0.98594 0.77976 0.72424 0.0
C566 C 0.98736 0.78331 0.65755 0.0
C567 C 0.97398 0.77713 0.61789 0.0
H568 H 0.21727 0.19756 0.55556 0.0
H569 H 0.24817 0.20322 0.71594 0.0
H570 H 0.20448 0.20869 0.62148 0.0
H571 H 0.23556 0.21458 0.7813 0.0
H572 H 0.1966 0.21607 0.90077 0.0
H573 H 0.21011 0.20583 0.83416 0.0
H574 H 0.20954 0.23345 0.67155 0.0
H575 H 0.19583 0.24348 0.73762 0.0
C576 C 0.22143 0.20131 0.60463 0.0
C577 C 0.2337 0.19946 0.63053 0.0
C578 C 0.21415 0.20775 0.64233 0.0
C579 C 0.21896 0.21245 0.70675 0.0
C580 C 0.23141 0.21084 0.7322 0.0
C581 C 0.23871 0.20443 0.69453 0.0
C582 C 0.19938 0.21998 0.85085 0.0
C583 C 0.19511 0.23057 0.8245 0.0
C584 C 0.2072 0.21417 0.81277 0.0
C585 C 0.21089 0.21882 0.74753 0.0
C586 C 0.20669 0.22948 0.72137 0.0
C587 C 0.1989 0.2353 0.75942 0.0
H588 H 0.89606 0.31256 0.73489 0.0
H589 H 0.84943 0.30608 0.70476 0.0
H590 H 0.90677 0.33386 0.65529 0.0
H591 H 0.86023 0.32752 0.62546 0.0
H592 H 0.88273 0.35395 0.43455 0.0
H593 H 0.87207 0.33262 0.51464 0.0
H594 H 0.91137 0.3609 0.6418 0.0
H595 H 0.92208 0.38209 0.56194 0.0
C596 C 0.88811 0.31576 0.71174 0.0
C597 C 0.87189 0.30761 0.7262 0.0
C598 C 0.89427 0.328 0.66621 0.0
C599 C 0.88433 0.3323 0.63385 0.0
C600 C 0.86814 0.32431 0.64895 0.0
C601 C 0.86199 0.31214 0.69482 0.0
C602 C 0.88913 0.35556 0.47943 0.0
C603 C 0.90325 0.36971 0.49186 0.0
C604 C 0.88297 0.3434 0.52549 0.0
C605 C 0.89086 0.34511 0.58461 0.0
C606 C 0.90508 0.35917 0.5965 0.0
C607 C 0.91118 0.37134 0.55076 0.0
H608 H 0.64498 0.52809 0.40247 0.0
H609 H 0.62081 0.53529 0.56302 0.0
H610 H 0.66906 0.53889 0.4673 0.0
H611 H 0.64491 0.54635 0.62714 0.0
H612 H 0.68622 0.55047 0.74595 0.0
H613 H 0.66208 0.53859 0.68124 0.0
H614 H 0.68902 0.564 0.51232 0.0
H615 H 0.71314 0.5756 0.57647 0.0
C616 C 0.64482 0.53203 0.45145 0.0
C617 C 0.63098 0.53084 0.47754 0.0
C618 C 0.65863 0.53828 0.48851 0.0
C619 C 0.6589 0.54347 0.55243 0.0
C620 C 0.64505 0.54225 0.57844 0.0
C621 C 0.63125 0.536 0.54144 0.0
C622 C 0.68699 0.55349 0.69499 0.0
C623 C 0.7016 0.56399 0.66641 0.0
C624 C 0.67315 0.54675 0.65797 0.0
C625 C 0.67363 0.55036 0.5916 0.0
C626 C 0.68826 0.5608 0.56307 0.0
C627 C 0.70208 0.56753 0.60002 0.0
H628 H 0.44767 0.14936 0.64086 0.0
H629 H 0.42224 0.10302 0.72815 0.0
H630 H 0.45791 0.13917 0.55792 0.0
H631 H 0.43293 0.09291 0.64629 0.0
H632 H 0.441 0.07597 0.45225 0.0
H633 H 0.43059 0.08656 0.53314 0.0
H634 H 0.47577 0.12968 0.54074 0.0
H635 H 0.48599 0.1193 0.45841 0.0
C636 C 0.44442 0.13703 0.64286 0.0
C637 C 0.43411 0.12699 0.69111 0.0
C638 C 0.45035 0.13119 0.59534 0.0
C639 C 0.44621 0.11519 0.59515 0.0
C640 C 0.43613 0.10522 0.64419 0.0
C641 C 0.4301 0.11105 0.6915 0.0
C642 C 0.44867 0.08776 0.4708 0.0
C643 C 0.46432 0.09679 0.44882 0.0
C644 C 0.44275 0.09379 0.51766 0.0
C645 C 0.45237 0.10894 0.54394 0.0
C646 C 0.46796 0.11805 0.5211 0.0
C647 C 0.47384 0.11207 0.47395 0.0
H648 H 0.40929 0.30539 0.18591 0.0
H649 H 0.44956 0.29896 0.15906 0.0
H650 H 0.41961 0.32595 0.10293 0.0
H651 H 0.45958 0.31907 0.07486 0.0
H652 H 0.48126 0.3668 0.9744 0.0
H653 H 0.47111 0.34672 0.05856 0.0
H654 H 0.42363 0.32934 0.98766 0.0
H655 H 0.43379 0.34986 0.90445 0.0
C656 C 0.42035 0.30836 0.16234 0.0
C657 C 0.42862 0.30056 0.17924 0.0
C658 C 0.42619 0.32005 0.11433 0.0
C659 C 0.44039 0.32413 0.08188 0.0
C660 C 0.44872 0.31641 0.09938 0.0
C661 C 0.44294 0.30482 0.14761 0.0
C662 C 0.46865 0.35866 0.97644 0.0
C663 C 0.45833 0.35995 0.93262 0.0
C664 C 0.46283 0.34708 0.02467 0.0
C665 C 0.44654 0.33639 0.03007 0.0
C666 C 0.43622 0.33753 0.98562 0.0
C667 C 0.44205 0.34921 0.93752 0.0
H668 H 0.71414 0.12927 0.10335 0.0
H669 H 0.68636 0.13143 0.26203 0.0
H670 H 0.69081 0.11748 0.03443 0.0
H671 H 0.66301 0.11983 0.19248 0.0
H672 H 0.6217 0.08378 0.06889 0.0
H673 H 0.64495 0.09495 0.1383 0.0
H674 H 0.67322 0.12497 0.9808 0.0
H675 H 0.64997 0.11361 0.91082 0.0
C676 C 0.70305 0.12723 0.12359 0.0
C677 C 0.70212 0.1313 0.18824 0.0
C678 C 0.6897 0.12057 0.08386 0.0
C679 C 0.67507 0.11778 0.10784 0.0
C680 C 0.67408 0.12169 0.17273 0.0
C681 C 0.68747 0.12839 0.21251 0.0
C682 C 0.63287 0.09273 0.04891 0.0
C683 C 0.63398 0.0978 0.98425 0.0
C684 C 0.64618 0.09921 0.08891 0.0
C685 C 0.66093 0.11087 0.06516 0.0
C686 C 0.66206 0.11587 0.00036 0.0
C687 C 0.64873 0.10942 0.96033 0.0
H688 H 0.89283 0.58862 0.17507 0.0
H689 H 0.84788 0.54539 0.18737 0.0
H690 H 0.90126 0.57693 0.09084 0.0
H691 H 0.85601 0.53392 0.10153 0.0
H692 H 0.88112 0.51251 0.99178 0.0
H693 H 0.8729 0.52393 0.07736 0.0
H694 H 0.89678 0.56916 0.98002 0.0
H695 H 0.90556 0.55782 0.89554 0.0
C696 C 0.88475 0.57662 0.15979 0.0
C697 C 0.86971 0.56793 0.18803 0.0
C698 C 0.88952 0.56996 0.11101 0.0
C699 C 0.87929 0.5545 0.08889 0.0
C700 C 0.8643 0.54577 0.11784 0.0
C701 C 0.85961 0.55237 0.16704 0.0
C702 C 0.88454 0.52487 0.98833 0.0
C703 C 0.89401 0.53426 0.93682 0.0
C704 C 0.87977 0.53142 0.03742 0.0
C705 C 0.8842 0.5475 0.0359 0.0
C706 C 0.8934 0.55681 0.98352 0.0
C707 C 0.89832 0.55028 0.93471 0.0
H708 H 0.54909 0.68621 0.76266 0.0
H709 H 0.57486 0.71922 0.91647 0.0
H710 H 0.53703 0.66488 0.84236 0.0
H711 H 0.56292 0.69792 0.99567 0.0
H712 H 0.52333 0.65922 0.12171 0.0
H713 H 0.53638 0.68059 0.04282 0.0
H714 H 0.5445 0.64989 0.91784 0.0
H715 H 0.5314 0.62852 0.99618 0.0
C716 C 0.55225 0.6889 0.81332 0.0
C717 C 0.56291 0.70442 0.83318 0.0
C718 C 0.5454 0.67668 0.85892 0.0
C719 C 0.54899 0.67975 0.92531 0.0
C720 C 0.55977 0.69523 0.94499 0.0
C721 C 0.56667 0.70741 0.89946 0.0
C722 C 0.52796 0.65705 0.07757 0.0
C723 C 0.52629 0.64216 0.06524 0.0
C724 C 0.53549 0.66931 0.0325 0.0
C725 C 0.54141 0.66689 0.974 0.0
C726 C 0.53989 0.65205 0.96206 0.0
C727 C 0.53247 0.63984 0.00724 0.0
H728 H 0.38783 0.92452 0.95683 0.0
H729 H 0.36107 0.88167 0.06812 0.0
H730 H 0.36575 0.91597 0.88184 0.0
H731 H 0.33895 0.87313 0.9927 0.0
H732 H 0.30924 0.85656 0.80603 0.0
H733 H 0.33266 0.86507 0.87384 0.0
H734 H 0.33811 0.9116 0.88851 0.0
H735 H 0.31475 0.90315 0.82104 0.0
C736 C 0.37723 0.91327 0.96531 0.0
C737 C 0.37617 0.90378 0.01854 0.0
C738 C 0.36459 0.90841 0.9224 0.0
C739 C 0.35067 0.89388 0.93136 0.0
C740 C 0.34962 0.88431 0.98427 0.0
C741 C 0.36222 0.88926 0.0277 0.0
C742 C 0.31558 0.86867 0.82293 0.0
C743 C 0.31014 0.87918 0.80832 0.0
C744 C 0.32888 0.87348 0.8622 0.0
C745 C 0.33711 0.88895 0.88676 0.0
C746 C 0.33204 0.89962 0.86999 0.0
C747 C 0.31864 0.89477 0.83147 0.0
H748 H 0.13904 0.45253 0.74961 0.0
H749 H 0.13298 0.41947 0.90163 0.0
H750 H 0.1271 0.46392 0.81908 0.0
H751 H 0.1208 0.43067 0.97046 0.0
H752 H 0.11703 0.46696 0.09977 0.0
H753 H 0.12836 0.45501 0.03 0.0
H754 H 0.10179 0.45747 0.86738 0.0
H755 H 0.09069 0.46966 0.93665 0.0
C756 C 0.13506 0.44761 0.79763 0.0
C757 C 0.137 0.43512 0.82012 0.0
C758 C 0.12815 0.45409 0.83733 0.0
C759 C 0.12304 0.44822 0.90038 0.0
C760 C 0.12482 0.43561 0.92252 0.0
C761 C 0.13171 0.42913 0.88285 0.0
C762 C 0.11358 0.46492 0.04918 0.0
C763 C 0.10299 0.4693 0.02376 0.0
C764 C 0.12001 0.45799 0.00926 0.0
C765 C 0.11599 0.45531 0.94309 0.0
C766 C 0.1053 0.45958 0.9179 0.0
C767 C 0.09886 0.46648 0.95777 0.0
H768 H 0.12809 0.63209 0.5095 0.0
H769 H 0.08342 0.62831 0.56 0.0
H770 H 0.13385 0.65408 0.4373 0.0
H771 H 0.08895 0.64995 0.48634 0.0
H772 H 0.11281 0.70083 0.41246 0.0
H773 H 0.1058 0.67777 0.47889 0.0
H774 H 0.12639 0.66097 0.33634 0.0
H775 H 0.1339 0.68447 0.2704 0.0
C776 C 0.11946 0.6359 0.50498 0.0
C777 C 0.10535 0.62852 0.54085 0.0
C778 C 0.1227 0.64842 0.46308 0.0
C779 C 0.11186 0.65379 0.45583 0.0
C780 C 0.09768 0.64629 0.4914 0.0
C781 C 0.09449 0.63385 0.53357 0.0
C782 C 0.11575 0.69218 0.39484 0.0
C783 C 0.12398 0.69454 0.33617 0.0
C784 C 0.11164 0.67887 0.43291 0.0
C785 C 0.11556 0.6675 0.41316 0.0
C786 C 0.12341 0.66962 0.35351 0.0
C787 C 0.12759 0.68302 0.31543 0.0
H788 H 0.36218 0.48071 0.51791 0.0
H789 H 0.34933 0.43416 0.58852 0.0
H790 H 0.3404 0.46907 0.44102 0.0
H791 H 0.32769 0.42248 0.51045 0.0
H792 H 0.28049 0.40937 0.41115 0.0
H793 H 0.30231 0.42033 0.48803 0.0
H794 H 0.33266 0.45342 0.34234 0.0
H795 H 0.3107 0.44267 0.26568 0.0
C796 C 0.35471 0.46798 0.51704 0.0
C797 C 0.3575 0.45836 0.55943 0.0
C798 C 0.3423 0.4613 0.47252 0.0
C799 C 0.33237 0.44484 0.46921 0.0
C800 C 0.33504 0.43522 0.51212 0.0
C801 C 0.34747 0.44191 0.55676 0.0
C802 C 0.29183 0.41894 0.39532 0.0
C803 C 0.29384 0.4252 0.33231 0.0
C804 C 0.30437 0.42517 0.43938 0.0
C805 C 0.31921 0.4378 0.42147 0.0
C806 C 0.3213 0.44385 0.35802 0.0
C807 C 0.30875 0.43763 0.31392 0.0
H808 H 0.56636 0.91904 0.54899 0.0
H809 H 0.51966 0.87844 0.52787 0.0
H810 H 0.57607 0.90883 0.46365 0.0
H811 H 0.5292 0.86851 0.4411 0.0
H812 H 0.55461 0.84765 0.32925 0.0
H813 H 0.54522 0.85728 0.41766 0.0
H814 H 0.57453 0.90513 0.3489 0.0
H815 H 0.58436 0.8955 0.26171 0.0
C816 C 0.55817 0.90792 0.52621 0.0
C817 C 0.54224 0.89956 0.54526 0.0
C818 C 0.5637 0.90213 0.47682 0.0
C819 C 0.5534 0.8879 0.44496 0.0
C820 C 0.53753 0.87941 0.46497 0.0
C821 C 0.53203 0.88513 0.5147 0.0
C822 C 0.559 0.86022 0.33276 0.0
C823 C 0.57024 0.87081 0.28841 0.0
C824 C 0.55356 0.86575 0.38343 0.0
C825 C 0.55914 0.88201 0.3907 0.0
C826 C 0.5702 0.89257 0.3456 0.0
C827 C 0.57573 0.88704 0.2952 0.0
H828 H 0.23474 0.14499 0.67277 0.0
H829 H 0.23409 0.11365 0.52326 0.0
H830 H 0.22886 0.12471 0.75412 0.0
H831 H 0.22814 0.0933 0.60508 0.0
H832 H 0.241 0.07369 0.79183 0.0
H833 H 0.24253 0.08996 0.69932 0.0
H834 H 0.20697 0.09796 0.7865 0.0
H835 H 0.20545 0.08178 0.87925 0.0
C836 C 0.23332 0.13376 0.65722 0.0
C837 C 0.23494 0.13095 0.59158 0.0
C838 C 0.22979 0.12209 0.70376 0.0
C839 C 0.22791 0.10738 0.68582 0.0
C840 C 0.22955 0.10454 0.62023 0.0
C841 C 0.23294 0.11619 0.57348 0.0
C842 C 0.23324 0.07861 0.79061 0.0
C843 C 0.22327 0.07662 0.84336 0.0
C844 C 0.2341 0.08791 0.73752 0.0
C845 C 0.22507 0.09544 0.73633 0.0
C846 C 0.21428 0.09252 0.7868 0.0
C847 C 0.21333 0.08314 0.83967 0.0
H848 H 0.8736 0.09272 0.61908 0.0
H849 H 0.86465 0.13045 0.5698 0.0
H850 H 0.89566 0.1107 0.68712 0.0
H851 H 0.88609 0.1483 0.64089 0.0
H852 H 0.91497 0.13923 0.87522 0.0
H853 H 0.899 0.12228 0.78799 0.0
H854 H 0.91305 0.16316 0.66563 0.0
H855 H 0.92846 0.18028 0.75506 0.0
C856 C 0.87634 0.10488 0.62309 0.0
C857 C 0.86731 0.11016 0.58985 0.0
C858 C 0.88896 0.1152 0.66228 0.0
C859 C 0.89262 0.13097 0.67041 0.0
C860 C 0.88385 0.13634 0.63527 0.0
C861 C 0.87142 0.12608 0.59493 0.0
C862 C 0.91494 0.14464 0.82935 0.0
C863 C 0.92278 0.16115 0.82256 0.0
C864 C 0.90579 0.13486 0.77884 0.0
C865 C 0.90445 0.1413 0.71972 0.0
C866 C 0.91342 0.15778 0.71105 0.0
C867 C 0.92242 0.16761 0.76208 0.0
H868 H 0.90158 0.77736 0.59394 0.0
H869 H 0.86347 0.72984 0.56093 0.0
H870 H 0.88419 0.7829 0.65922 0.0
H871 H 0.84624 0.73492 0.62974 0.0
H872 H 0.81502 0.74782 0.73585 0.0
H873 H 0.83151 0.74732 0.64818 0.0
H874 H 0.87324 0.77737 0.76123 0.0
H875 H 0.85689 0.77866 0.84608 0.0
C876 C 0.88947 0.76806 0.60113 0.0
C877 C 0.8839 0.75312 0.57302 0.0
C878 C 0.87948 0.7712 0.63879 0.0
C879 C 0.86377 0.75934 0.65066 0.0
C880 C 0.85814 0.74448 0.62103 0.0
C881 C 0.86806 0.74147 0.58207 0.0
C882 C 0.82774 0.75468 0.74102 0.0
C883 C 0.83461 0.76305 0.7985 0.0
C884 C 0.83722 0.75423 0.69108 0.0
C885 C 0.85376 0.76199 0.69791 0.0
C886 C 0.8606 0.7713 0.75351 0.0
C887 C 0.85116 0.77196 0.80276 0.0
H888 H 0.13427 0.26635 0.91219 0.0
H889 H 0.12714 0.2211 0.84981 0.0
H890 H 0.11315 0.26332 0.84051 0.0
H891 H 0.10532 0.21748 0.78121 0.0
H892 H 0.08505 0.22779 0.59927 0.0
H893 H 0.10151 0.22657 0.68379 0.0
H894 H 0.08642 0.2511 0.81453 0.0
H895 H 0.07056 0.25314 0.72776 0.0
C896 C 0.12797 0.25563 0.88387 0.0
C897 C 0.13248 0.24408 0.88574 0.0
C898 C 0.11572 0.25378 0.8432 0.0
C899 C 0.10747 0.24016 0.80451 0.0
C900 C 0.1116 0.2283 0.80887 0.0
C901 C 0.12408 0.23033 0.84838 0.0
C902 C 0.08497 0.23267 0.64638 0.0
C903 C 0.07667 0.24078 0.65644 0.0
C904 C 0.09441 0.2319 0.69532 0.0
C905 C 0.09557 0.23895 0.75613 0.0
C906 C 0.08621 0.24593 0.76781 0.0
C907 C 0.07696 0.24695 0.71831 0.0
H908 H 0.74895 0.81827 0.76437 0.0
H909 H 0.77603 0.85875 0.64074 0.0
H910 H 0.74974 0.83573 0.85067 0.0
H911 H 0.77608 0.876 0.72475 0.0
H912 H 0.73295 0.86799 0.94124 0.0
H913 H 0.73704 0.85017 0.87186 0.0
H914 H 0.78385 0.88827 0.82439 0.0
H915 H 0.77927 0.90619 0.89058 0.0
C916 C 0.75528 0.8309 0.75596 0.0
C917 C 0.76227 0.83709 0.69544 0.0
C918 C 0.75557 0.84091 0.80515 0.0
C919 C 0.76269 0.8573 0.79453 0.0
C920 C 0.7706 0.86351 0.7354 0.0
C921 C 0.77051 0.85355 0.68676 0.0
C922 C 0.74411 0.87249 0.91604 0.0
C923 C 0.75568 0.8885 0.92038 0.0
C924 C 0.74656 0.86225 0.87673 0.0
C925 C 0.76077 0.86774 0.84194 0.0
C926 C 0.77261 0.88366 0.84898 0.0
C927 C 0.77002 0.89395 0.8871 0.0
H928 H 0.17148 0.93068 0.7554 0.0
H929 H 0.13333 0.91048 0.61634 0.0
H930 H 0.15346 0.91379 0.83996 0.0
H931 H 0.11572 0.89301 0.69863 0.0
H932 H 0.08364 0.86549 0.859 0.0
H933 H 0.10084 0.8878 0.79029 0.0
H934 H 0.14159 0.88761 0.87145 0.0
H935 H 0.12431 0.86607 0.9434 0.0
C936 C 0.15921 0.92277 0.7431 0.0
C937 C 0.15388 0.92186 0.67912 0.0
C938 C 0.1489 0.91293 0.79136 0.0
C939 C 0.13311 0.90174 0.77631 0.0
C940 C 0.12766 0.90153 0.7129 0.0
C941 C 0.13785 0.91157 0.66522 0.0
C942 C 0.0963 0.87034 0.86226 0.0
C943 C 0.10267 0.864 0.90589 0.0
C944 C 0.1062 0.8831 0.82267 0.0
C945 C 0.1227 0.88951 0.82436 0.0
C946 C 0.12902 0.88327 0.86923 0.0
C947 C 0.11912 0.87078 0.9101 0.0
H948 H 0.75429 0.93089 0.26367 0.0
H949 H 0.779 0.91429 0.14199 0.0
H950 H 0.75314 0.91335 0.35036 0.0
H951 H 0.77715 0.8963 0.22644 0.0
H952 H 0.77714 0.86781 0.39319 0.0
H953 H 0.78385 0.89093 0.32702 0.0
H954 H 0.73836 0.88613 0.37089 0.0
H955 H 0.73214 0.86355 0.44022 0.0
C956 C 0.7597 0.92369 0.25578 0.0
C957 C 0.76658 0.92387 0.19567 0.0
C958 C 0.75888 0.91349 0.3052 0.0
C959 C 0.76476 0.90312 0.29523 0.0
C960 C 0.7726 0.90415 0.23656 0.0
C961 C 0.77361 0.91448 0.18768 0.0
C962 C 0.76864 0.87179 0.38899 0.0
C963 C 0.75405 0.86379 0.4212 0.0
C964 C 0.77246 0.88503 0.35086 0.0
C965 C 0.76161 0.89038 0.34279 0.0
C966 C 0.74715 0.88257 0.37658 0.0
C967 C 0.74348 0.86951 0.41587 0.0
H968 H 0.08145 0.85981 0.12077 0.0
H969 H 0.06697 0.81988 0.24885 0.0
H970 H 0.09997 0.87708 0.20153 0.0
H971 H 0.08502 0.8374 0.3318 0.0
H972 H 0.13466 0.86807 0.41752 0.0
H973 H 0.11239 0.85078 0.34883 0.0
H974 H 0.10561 0.89007 0.30047 0.0
H975 H 0.12844 0.90745 0.36629 0.0
C976 C 0.08185 0.85477 0.16709 0.0
C977 C 0.07286 0.83841 0.17805 0.0
C978 C 0.09249 0.86474 0.21379 0.0
C979 C 0.09423 0.85866 0.27315 0.0
C980 C 0.08433 0.84245 0.28599 0.0
C981 C 0.07383 0.83242 0.23875 0.0
C982 C 0.12838 0.87298 0.39217 0.0
C983 C 0.13341 0.88913 0.39654 0.0
C984 C 0.11548 0.86303 0.35328 0.0
C985 C 0.10712 0.86898 0.31881 0.0
C986 C 0.11191 0.88509 0.32507 0.0
C987 C 0.12499 0.89508 0.36296 0.0
H988 H 0.13394 0.21178 0.11116 0.0
H989 H 0.17221 0.24742 0.22582 0.0
H990 H 0.11504 0.21043 0.19152 0.0
H991 H 0.15326 0.24591 0.30648 0.0
H992 H 0.11423 0.25823 0.35619 0.0
H993 H 0.13406 0.2554 0.29579 0.0
H994 H 0.10487 0.20462 0.30483 0.0
H995 H 0.08487 0.20742 0.36517 0.0
C996 C 0.13837 0.219 0.15438 0.0
C997 C 0.15457 0.22993 0.16146 0.0
C998 C 0.12752 0.21819 0.20054 0.0
C999 C 0.13266 0.2283 0.25459 0.0
C1000 C 0.14895 0.23821 0.26455 0.0
C1001 C 0.15981 0.23898 0.21854 0.0
C1002 C 0.11205 0.24645 0.34562 0.0
C1003 C 0.09793 0.23306 0.3651 0.0
C1004 C 0.12349 0.24483 0.31161 0.0
C1005 C 0.12106 0.22977 0.29599 0.0
C1006 C 0.10703 0.21636 0.31608 0.0
C1007 C 0.0956 0.21798 0.3506 0.0
H1008 H 0.85621 0.76521 0.15875 0.0
H1009 H 0.88404 0.76685 0.9927 0.0
H1010 H 0.87741 0.76861 0.23069 0.0
H1011 H 0.90537 0.77033 0.06522 0.0
H1012 H 0.92406 0.75009 0.23257 0.0
H1013 H 0.90849 0.75304 0.1471 0.0
H1014 H 0.90505 0.78819 0.26158 0.0
H1015 H 0.92048 0.78519 0.34737 0.0
C1016 C 0.8669 0.76641 0.13756 0.0
C1017 C 0.86841 0.76567 0.07007 0.0
C1018 C 0.87912 0.76852 0.17877 0.0
C1019 C 0.89309 0.76985 0.1535 0.0
C1020 C 0.89471 0.76931 0.08595 0.0
C1021 C 0.88252 0.76734 0.04456 0.0
C1022 C 0.92037 0.75877 0.23882 0.0
C1023 C 0.92321 0.76715 0.29737 0.0
C1024 C 0.91146 0.76048 0.18973 0.0
C1025 C 0.90528 0.7706 0.19839 0.0
C1026 C 0.90939 0.78005 0.2543 0.0
C1027 C 0.91831 0.77838 0.30325 0.0
H1028 H 0.26643 0.12959 0.06103 0.0
H1029 H 0.22037 0.09024 0.10689 0.0
H1030 H 0.26094 0.14685 0.12754 0.0
H1031 H 0.21446 0.10762 0.17071 0.0
H1032 H 0.22127 0.13687 0.35567 0.0
H1033 H 0.22173 0.11992 0.27148 0.0
H1034 H 0.24702 0.16037 0.14545 0.0
H1035 H 0.24726 0.17755 0.23175 0.0
C1036 C 0.25501 0.12471 0.08445 0.0
C1037 C 0.24393 0.10854 0.07972 0.0
C1038 C 0.25177 0.13463 0.12211 0.0
C1039 C 0.23725 0.12865 0.15499 0.0
C1040 C 0.22589 0.11259 0.14738 0.0
C1041 C 0.22925 0.10262 0.11069 0.0
C1042 C 0.22668 0.14217 0.30963 0.0
C1043 C 0.23452 0.15863 0.30098 0.0
C1044 C 0.22686 0.13238 0.26088 0.0
C1045 C 0.23467 0.13876 0.20178 0.0
C1046 C 0.24128 0.15509 0.19101 0.0
C1047 C 0.24127 0.16493 0.24023 0.0
H1048 H 0.82135 0.07033 0.25974 0.0
H1049 H 0.86177 0.0736 0.35953 0.0
H1050 H 0.8386 0.08745 0.17429 0.0
H1051 H 0.87897 0.09046 0.27322 0.0
H1052 H 0.90343 0.14023 0.18064 0.0
H1053 H 0.88687 0.11791 0.25021 0.0
H1054 H 0.85745 0.09288 0.08605 0.0
H1055 H 0.87395 0.11542 0.0162 0.0
C1056 C 0.83385 0.07428 0.26248 0.0
C1057 C 0.84022 0.07088 0.31717 0.0
C1058 C 0.84375 0.08409 0.21332 0.0
C1059 C 0.86019 0.0906 0.2178 0.0
C1060 C 0.86638 0.08594 0.2693 0.0
C1061 C 0.8565 0.07617 0.3185 0.0
C1062 C 0.89349 0.12995 0.15918 0.0
C1063 C 0.88995 0.12966 0.09297 0.0
C1064 C 0.88408 0.11707 0.19897 0.0
C1065 C 0.8709 0.10356 0.17356 0.0
C1066 C 0.86749 0.10314 0.10709 0.0
C1067 C 0.87694 0.11605 0.06714 0.0
H1068 H 0.91739 0.40201 0.0762 0.0
H1069 H 0.88885 0.41418 0.19663 0.0
H1070 H 0.91655 0.41854 0.98938 0.0
H1071 H 0.88868 0.43121 0.11202 0.0
H1072 H 0.88556 0.45795 0.94493 0.0
H1073 H 0.88118 0.43547 0.01087 0.0
H1074 H 0.92883 0.44582 0.9698 0.0
H1075 H 0.93278 0.46774 0.9008 0.0
C1076 C 0.91073 0.40801 0.08377 0.0
C1077 C 0.90335 0.40692 0.14361 0.0
C1078 C 0.9104 0.41764 0.03428 0.0
C1079 C 0.90283 0.42651 0.0439 0.0
C1080 C 0.89453 0.4245 0.10221 0.0
C1081 C 0.89467 0.41473 0.15117 0.0
C1082 C 0.89505 0.45532 0.94972 0.0
C1083 C 0.90958 0.46469 0.91841 0.0
C1084 C 0.89256 0.44245 0.98768 0.0
C1085 C 0.90469 0.43884 0.99645 0.0
C1086 C 0.9191 0.44802 0.96354 0.0
C1087 C 0.92146 0.46071 0.92445 0.0
H1088 H 0.57796 0.47368 0.19434 0.0
H1089 H 0.58987 0.51461 0.07572 0.0
H1090 H 0.56019 0.45668 0.11092 0.0
H1091 H 0.57253 0.49744 0.99023 0.0
H1092 H 0.52311 0.46464 0.90349 0.0
H1093 H 0.54497 0.48239 0.97329 0.0
H1094 H 0.55596 0.44531 0.00824 0.0
H1095 H 0.53364 0.42743 0.94128 0.0
C1096 C 0.57715 0.47904 0.14957 0.0
C1097 C 0.58519 0.49554 0.14209 0.0
C1098 C 0.56695 0.46924 0.10134 0.0
C1099 C 0.56471 0.47566 0.04391 0.0
C1100 C 0.57365 0.49211 0.03449 0.0
C1101 C 0.58373 0.50195 0.0832 0.0
C1102 C 0.53025 0.46034 0.92602 0.0
C1103 C 0.52653 0.4446 0.91775 0.0
C1104 C 0.5429 0.47055 0.96556 0.0
C1105 C 0.55225 0.4653 0.99682 0.0
C1106 C 0.54884 0.44969 0.98625 0.0
C1107 C 0.53605 0.43943 0.94769 0.0
H1108 H 0.5444 0.08721 0.83775 0.0
H1109 H 0.57448 0.09359 0.00221 0.0
H1110 H 0.52692 0.09181 0.90773 0.0
H1111 H 0.55694 0.09791 0.07194 0.0
H1112 H 0.53033 0.11614 0.17866 0.0
H1113 H 0.54793 0.11664 0.09384 0.0
H1114 H 0.50832 0.07807 0.99627 0.0
H1115 H 0.49065 0.07777 0.08024 0.0
C1116 C 0.54728 0.08958 0.88878 0.0
C1117 C 0.56081 0.08998 0.91448 0.0
C1118 C 0.53726 0.09221 0.9288 0.0
C1119 C 0.5406 0.09535 0.99525 0.0
C1120 C 0.55419 0.09585 0.0207 0.0
C1121 C 0.56417 0.0932 0.98082 0.0
C1122 C 0.5253 0.10803 0.13828 0.0
C1123 C 0.50913 0.09673 0.13683 0.0
C1124 C 0.53542 0.10824 0.08996 0.0
C1125 C 0.52957 0.09715 0.03922 0.0
C1126 C 0.5132 0.08677 0.03472 0.0
C1127 C 0.50307 0.08659 0.083 0.0
H1128 H 0.73734 0.58409 0.07646 0.0
H1129 H 0.75267 0.55854 0.95326 0.0
H1130 H 0.75373 0.58342 0.1643 0.0
H1131 H 0.7696 0.55865 0.03877 0.0
H1132 H 0.79591 0.5553 0.20626 0.0
H1133 H 0.77363 0.5505 0.13818 0.0
H1134 H 0.78064 0.5965 0.18944 0.0
H1135 H 0.80229 0.60075 0.2608 0.0
C1136 C 0.74404 0.57815 0.06842 0.0
C1137 C 0.74382 0.57152 0.00768 0.0
C1138 C 0.75358 0.57792 0.11852 0.0
C1139 C 0.76327 0.57124 0.10858 0.0
C1140 C 0.76223 0.56376 0.04897 0.0
C1141 C 0.75253 0.56376 -0.00055 0.0
C1142 C 0.79257 0.56431 0.20325 0.0
C1143 C 0.80091 0.57847 0.23811 0.0
C1144 C 0.77982 0.5616 0.16403 0.0
C1145 C 0.77537 0.57317 0.15737 0.0
C1146 C 0.78351 0.58718 0.19389 0.0
C1147 C 0.79604 0.58973 0.23437 0.0
H1148 H 0.41655 0.15138 0.05598 0.0
H1149 H 0.44178 0.19248 0.9335 0.0
H1150 H 0.41683 0.16821 0.14399 0.0
H1151 H 0.44134 0.20907 0.01932 0.0
H1152 H 0.44372 0.2383 0.18691 0.0
H1153 H 0.44916 0.22112 0.11965 0.0
H1154 H 0.40317 0.18167 0.16753 0.0
H1155 H 0.39822 0.19876 0.23782 0.0
C1156 C 0.42236 0.16402 0.04814 0.0
C1157 C 0.42896 0.17054 0.98745 0.0
C1158 C 0.42238 0.17366 0.09835 0.0
C1159 C 0.42884 0.19001 0.08865 0.0
C1160 C 0.43637 0.1966 0.02926 0.0
C1161 C 0.43655 0.18701 0.97957 0.0
C1162 C 0.43485 0.22592 0.18339 0.0
C1163 C 0.42047 0.21988 0.2169 0.0
C1164 C 0.43793 0.21605 0.14466 0.0
C1165 C 0.42655 0.19998 0.13727 0.0
C1166 C 0.41234 0.19389 0.17259 0.0
C1167 C 0.40941 0.20371 0.21246 0.0
H1168 H 0.84337 0.26356 0.09443 0.0
H1169 H 0.8034 0.2453 0.96441 0.0
H1170 H 0.82654 0.24532 0.17855 0.0
H1171 H 0.7869 0.22658 0.04613 0.0
H1172 H 0.75715 0.19761 0.21035 0.0
H1173 H 0.77348 0.2205 0.14298 0.0
H1174 H 0.81493 0.21846 0.20161 0.0
H1175 H 0.79858 0.19618 0.2723 0.0
C1176 C 0.83095 0.2558 0.08412 0.0
C1177 C 0.82476 0.25583 0.02266 0.0
C1178 C 0.82132 0.24519 0.13204 0.0
C1179 C 0.80536 0.23421 0.11911 0.0
C1180 C 0.79903 0.23491 0.05866 0.0
C1181 C 0.80856 0.24568 0.01135 0.0
C1182 C 0.76977 0.20213 0.20893 0.0
C1183 C 0.7766 0.19504 0.24598 0.0
C1184 C 0.77916 0.21524 0.1701 0.0
C1185 C 0.79559 0.22135 0.16604 0.0
C1186 C 0.80241 0.21434 0.20411 0.0
C1187 C 0.79303 0.20143 0.24417 0.0
H1188 H 0.40969 0.25294 0.5488 0.0
H1189 H 0.45016 0.25693 0.44664 0.0
H1190 H 0.4128 0.23698 0.63206 0.0
H1191 H 0.45313 0.24085 0.52954 0.0
H1192 H 0.45799 0.21586 0.70628 0.0
H1193 H 0.45819 0.23736 0.6449 0.0
H1194 H 0.40756 0.20946 0.62238 0.0
H1195 H 0.4073 0.18807 0.68387 0.0
C1196 C 0.41948 0.25076 0.54486 0.0
C1197 C 0.4295 0.25597 0.49045 0.0
C1198 C 0.42118 0.24152 0.59234 0.0
C1199 C 0.43301 0.23741 0.58658 0.0
C1200 C 0.4439 0.24382 0.53534 0.0
C1201 C 0.44216 0.253 0.48769 0.0
C1202 C 0.44689 0.21437 0.68858 0.0
C1203 C 0.43264 0.20022 0.69948 0.0
C1204 C 0.44703 0.22668 0.65346 0.0
C1205 C 0.43289 0.22512 0.62913 0.0
C1206 C 0.41862 0.21112 0.64142 0.0
C1207 C 0.41849 0.19879 0.67606 0.0
H1208 H 0.80191 0.20357 0.77791 0.0
H1209 H 0.79693 0.24254 0.70886 0.0
H1210 H 0.78034 0.18561 0.70761 0.0
H1211 H 0.77471 0.22454 0.64159 0.0
H1212 H 0.7532 0.19292 0.46338 0.0
H1213 H 0.77035 0.21078 0.54594 0.0
H1214 H 0.75347 0.17202 0.68237 0.0
H1215 H 0.73686 0.15388 0.59766 0.0
C1216 C 0.796 0.20823 0.74839 0.0
C1217 C 0.80122 0.22446 0.74799 0.0
C1218 C 0.7835 0.19791 0.70852 0.0
C1219 C 0.77573 0.20357 0.66838 0.0
C1220 C 0.7806 0.21976 0.67044 0.0
C1221 C 0.79332 0.23011 0.70916 0.0
C1222 C 0.75288 0.18821 0.51131 0.0
C1223 C 0.7438 0.17192 0.52366 0.0
C1224 C 0.76272 0.19852 0.55909 0.0
C1225 C 0.76354 0.19288 0.62097 0.0
C1226 C 0.7535 0.17675 0.6348 0.0
C1227 C 0.74382 0.16635 0.58649 0.0
H1228 H 0.78026 0.58962 0.70287 0.0
H1229 H 0.75502 0.53868 0.71744 0.0
H1230 H 0.80112 0.58873 0.64199 0.0
H1231 H 0.77605 0.53783 0.65643 0.0
H1232 H 0.80522 0.54675 0.46125 0.0
H1233 H 0.78574 0.54384 0.54198 0.0
H1234 H 0.82234 0.58189 0.65376 0.0
H1235 H 0.84186 0.58496 0.57277 0.0
C1236 C 0.7792 0.57823 0.69338 0.0
C1237 C 0.76594 0.56421 0.71466 0.0
C1238 C 0.79124 0.57773 0.65908 0.0
C1239 C 0.79027 0.56321 0.64491 0.0
C1240 C 0.77709 0.54918 0.66662 0.0
C1241 C 0.76507 0.54968 0.70149 0.0
C1242 C 0.8092 0.55423 0.50385 0.0
C1243 C 0.82505 0.56629 0.50994 0.0
C1244 C 0.79803 0.55252 0.55023 0.0
C1245 C 0.80249 0.56285 0.60346 0.0
C1246 C 0.81854 0.57398 0.61245 0.0
C1247 C 0.82973 0.57565 0.56626 0.0
H1248 H 0.58434 0.10834 0.70069 0.0
H1249 H 0.6012 0.08487 0.57311 0.0
H1250 H 0.5673 0.10829 0.6157 0.0
H1251 H 0.58469 0.08561 0.48601 0.0
H1252 H 0.53603 0.06713 0.38955 0.0
H1253 H 0.55776 0.07175 0.46095 0.0
H1254 H 0.56294 0.11675 0.51718 0.0
H1255 H 0.54059 0.11158 0.44868 0.0
C1256 C 0.5848 0.10361 0.65372 0.0
C1257 C 0.59396 0.09638 0.64405 0.0
C1258 C 0.57502 0.10365 0.60452 0.0
C1259 C 0.57436 0.09671 0.5439 0.0
C1260 C 0.58453 0.09065 0.53259 0.0
C1261 C 0.59415 0.09039 0.58229 0.0
C1262 C 0.54189 0.07803 0.41703 0.0
C1263 C 0.53649 0.08888 0.41437 0.0
C1264 C 0.55448 0.08079 0.45756 0.0
C1265 C 0.56215 0.09462 0.49538 0.0
C1266 C 0.55713 0.10579 0.49015 0.0
C1267 C 0.54434 0.10287 0.45069 0.0
H1268 H 0.93111 0.46337 0.39086 0.0
H1269 H 0.88721 0.42222 0.44584 0.0
H1270 H 0.92504 0.47971 0.46094 0.0
H1271 H 0.88051 0.43857 0.51238 0.0
H1272 H 0.88608 0.46712 0.69629 0.0
H1273 H 0.88757 0.45098 0.61115 0.0
H1274 H 0.91043 0.49189 0.48569 0.0
H1275 H 0.90976 0.50832 0.57335 0.0
C1276 C 0.92002 0.4579 0.41709 0.0
C1277 C 0.90976 0.44153 0.41396 0.0
C1278 C 0.91642 0.46727 0.45682 0.0
C1279 C 0.9023 0.4605 0.49307 0.0
C1280 C 0.89168 0.44419 0.48683 0.0
C1281 C 0.89548 0.43479 0.44847 0.0
C1282 C 0.89115 0.47267 0.65017 0.0
C1283 C 0.89802 0.48907 0.64201 0.0
C1284 C 0.89194 0.46334 0.60082 0.0
C1285 C 0.89935 0.4701 0.54139 0.0
C1286 C 0.90504 0.48632 0.53137 0.0
C1287 C 0.9045 0.49573 0.58135 0.0
H1288 H 0.55157 0.4772 0.44778 0.0
H1289 H 0.57787 0.45253 0.43662 0.0
H1290 H 0.53081 0.45521 0.50808 0.0
H1291 H 0.55694 0.43041 0.49707 0.0
H1292 H 0.52677 0.40922 0.68946 0.0
H1293 H 0.54659 0.4264 0.61093 0.0
H1294 H 0.51014 0.42689 0.49433 0.0
H1295 H 0.49028 0.4098 0.573 0.0
C1296 C 0.5529 0.46706 0.45799 0.0
C1297 C 0.5664 0.46664 0.4377 0.0
C1298 C 0.54091 0.45438 0.49194 0.0
C1299 C 0.5422 0.44103 0.50678 0.0
C1300 C 0.55566 0.44056 0.48633 0.0
C1301 C 0.56762 0.45321 0.45176 0.0
C1302 C 0.52291 0.41265 0.64626 0.0
C1303 C 0.50698 0.40837 0.6381 0.0
C1304 C 0.53428 0.42247 0.60118 0.0
C1305 C 0.52993 0.42823 0.54722 0.0
C1306 C 0.51385 0.42287 0.53623 0.0
C1307 C 0.50247 0.41298 0.5811 0.0
H1308 H 0.59216 0.80757 0.27885 0.0
H1309 H 0.54131 0.78269 0.26039 0.0
H1310 H 0.59048 0.78561 0.34121 0.0
H1311 H 0.53967 0.76063 0.32235 0.0
H1312 H 0.54607 0.74009 0.52011 0.0
H1313 H 0.54446 0.75688 0.43683 0.0
H1314 H 0.58334 0.75755 0.33439 0.0
H1315 H 0.58511 0.74088 0.41813 0.0
C1316 C 0.58063 0.79736 0.2876 0.0
C1317 C 0.56686 0.79693 0.26513 0.0
C1318 C 0.57968 0.7847 0.32279 0.0
C1319 C 0.56494 0.77136 0.33649 0.0
C1320 C 0.55118 0.77079 0.31286 0.0
C1321 C 0.55214 0.78343 0.27735 0.0
C1322 C 0.55402 0.74346 0.47901 0.0
C1323 C 0.5659 0.73937 0.47641 0.0
C1324 C 0.55307 0.75307 0.43113 0.0
C1325 C 0.56398 0.75878 0.37974 0.0
C1326 C 0.57499 0.75358 0.3742 0.0
C1327 C 0.5759 0.74392 0.42195 0.0
H1328 H 0.25177 0.81933 0.5427 0.0
H1329 H 0.21011 0.80988 0.65129 0.0
H1330 H 0.23506 0.79913 0.46347 0.0
H1331 H 0.19364 0.78963 0.57394 0.0
H1332 H 0.16793 0.76997 0.38438 0.0
H1333 H 0.18536 0.7891 0.4638 0.0
H1334 H 0.21717 0.77059 0.44855 0.0
H1335 H 0.19984 0.75159 0.3674 0.0
C1336 C 0.2391 0.81286 0.54994 0.0
C1337 C 0.23224 0.81633 0.60267 0.0
C1338 C 0.22955 0.80126 0.50485 0.0
C1339 C 0.21301 0.79292 0.51206 0.0
C1340 C 0.20629 0.79609 0.56609 0.0
C1341 C 0.21577 0.80767 0.61063 0.0
C1342 C 0.17859 0.7699 0.39813 0.0
C1343 C 0.18247 0.75921 0.3698 0.0
C1344 C 0.18857 0.78084 0.44388 0.0
C1345 C 0.20262 0.78131 0.46275 0.0
C1346 C 0.2065 0.77061 0.43454 0.0
C1347 C 0.19652 0.75966 0.38848 0.0
H1348 H 0.15466 0.41308 0.42562 0.0
H1349 H 0.19557 0.45074 0.52094 0.0
H1350 H 0.17162 0.41218 0.34108 0.0
H1351 H 0.21245 0.44998 0.4358 0.0
H1352 H 0.23682 0.42473 0.34459 0.0
H1353 H 0.2199 0.42983 0.41491 0.0
H1354 H 0.19044 0.42553 0.25107 0.0
H1355 H 0.20734 0.42022 0.18032 0.0
C1356 C 0.1672 0.42149 0.42757 0.0
C1357 C 0.17379 0.4318 0.48064 0.0
C1358 C 0.17693 0.42097 0.37902 0.0
C1359 C 0.1934 0.43078 0.3826 0.0
C1360 C 0.19983 0.44201 0.43263 0.0
C1361 C 0.19013 0.44253 0.48113 0.0
C1362 C 0.22676 0.42489 0.32339 0.0
C1363 C 0.22341 0.42203 0.25686 0.0
C1364 C 0.21715 0.42798 0.36362 0.0
C1365 C 0.20393 0.42826 0.3384 0.0
C1366 C 0.20053 0.42536 0.27189 0.0
C1367 C 0.21021 0.42233 0.23144 0.0
H1368 H 0.4791 0.90183 0.49929 0.0
H1369 H 0.45592 0.90897 0.66376 0.0
H1370 H 0.45751 0.89817 0.4295 0.0
H1371 H 0.43409 0.90506 0.59363 0.0
H1372 H 0.4132 0.92047 0.42004 0.0
H1373 H 0.42992 0.91932 0.50486 0.0
H1374 H 0.42961 0.88004 0.40742 0.0
H1375 H 0.41315 0.88137 0.32177 0.0
C1376 C 0.46935 0.90253 0.52068 0.0
C1377 C 0.46928 0.90577 0.58704 0.0
C1378 C 0.45687 0.90026 0.48075 0.0
C1379 C 0.444 0.90117 0.50615 0.0
C1380 C 0.44386 0.90433 0.57262 0.0
C1381 C 0.45636 0.90657 0.61272 0.0
C1382 C 0.41634 0.91131 0.4175 0.0
C1383 C 0.41211 0.90122 0.36344 0.0
C1384 C 0.42593 0.91064 0.46627 0.0
C1385 C 0.43138 0.89982 0.46202 0.0
C1386 C 0.42591 0.88878 0.41112 0.0
C1387 C 0.41637 0.88946 0.36232 0.0
H1388 H 0.12341 0.56943 0.59892 0.0
H1389 H 0.07338 0.54663 0.5585 0.0
H1390 H 0.12518 0.54925 0.53523 0.0
H1391 H 0.07519 0.52654 0.4953 0.0
H1392 H 0.07962 0.48611 0.42457 0.0
H1393 H 0.08111 0.50426 0.50908 0.0
H1394 H 0.12185 0.54235 0.41511 0.0
H1395 H 0.12042 0.52425 0.33047 0.0
C1396 C 0.11279 0.56007 0.57683 0.0
C1397 C 0.09827 0.55966 0.58337 0.0
C1398 C 0.11382 0.54855 0.54046 0.0
C1399 C 0.10031 0.53629 0.51083 0.0
C1400 C 0.08575 0.53572 0.5185 0.0
C1401 C 0.08475 0.54732 0.55412 0.0
C1402 C 0.08917 0.49824 0.42281 0.0
C1403 C 0.09974 0.50381 0.37019 0.0
C1404 C 0.08994 0.50865 0.471 0.0
C1405 C 0.10141 0.52474 0.46788 0.0
C1406 C 0.11288 0.53 0.41868 0.0
C1407 C 0.11203 0.51963 0.37014 0.0
H1408 H 0.42686 0.52322 0.48455 0.0
H1409 H 0.45738 0.54666 0.64816 0.0
H1410 H 0.44459 0.54488 0.41429 0.0
H1411 H 0.47507 0.56851 0.57759 0.0
H1412 H 0.511 0.59 0.40287 0.0
H1413 H 0.4934 0.57284 0.48754 0.0
H1414 H 0.45397 0.5729 0.3933 0.0
H1415 H 0.47149 0.58985 0.30793 0.0
C1416 C 0.43732 0.53303 0.50562 0.0
C1417 C 0.44073 0.53317 0.57192 0.0
C1418 C 0.4474 0.54554 0.46544 0.0
C1419 C 0.46116 0.5585 0.49051 0.0
C1420 C 0.46458 0.55868 0.55685 0.0
C1421 C 0.45444 0.54616 0.5972 0.0
C1422 C 0.49865 0.5867 0.401 0.0
C1423 C 0.49261 0.59105 0.34792 0.0
C1424 C 0.48856 0.57686 0.44967 0.0
C1425 C 0.47224 0.57123 0.44626 0.0
C1426 C 0.46644 0.57674 0.39633 0.0
C1427 C 0.47652 0.58656 0.3477 0.0
H1428 H 0.08266 0.5939 0.93549 0.0
H1429 H 0.10791 0.5787 0.80983 0.0
H1430 H 0.08481 0.57857 0.02423 0.0
H1431 H 0.10925 0.56277 0.89638 0.0
H1432 H 0.11355 0.53672 0.06265 0.0
H1433 H 0.11796 0.55895 0.99483 0.0
H1434 H 0.07216 0.55182 0.05081 0.0
H1435 H 0.06834 0.53028 0.12167 0.0
C1436 C 0.08889 0.58749 0.92709 0.0
C1437 C 0.0949 0.58734 0.86533 0.0
C1438 C 0.08996 0.57854 0.97775 0.0
C1439 C 0.09687 0.56907 0.96739 0.0
C1440 C 0.10394 0.56994 0.90686 0.0
C1441 C 0.1031 0.57907 0.85673 0.0
C1442 C 0.10452 0.54005 0.0608 0.0
C1443 C 0.09053 0.53169 0.09677 0.0
C1444 C 0.107 0.55276 0.02174 0.0
C1445 C 0.09536 0.55717 0.01644 0.0
C1446 C 0.08155 0.54903 0.0542 0.0
C1447 C 0.07924 0.53654 0.09442 0.0
H1448 H 0.46083 0.53516 0.09892 0.0
H1449 H 0.45839 0.57608 0.03704 0.0
H1450 H 0.43874 0.51851 0.02855 0.0
H1451 H 0.43567 0.55935 0.9692 0.0
H1452 H 0.41514 0.52939 0.78413 0.0
H1453 H 0.43148 0.54629 0.87082 0.0
H1454 H 0.41186 0.50637 0.00195 0.0
H1455 H 0.39602 0.4892 0.91341 0.0
C1456 C 0.45534 0.54054 0.07118 0.0
C1457 C 0.46148 0.55694 0.07259 0.0
C1458 C 0.44253 0.53097 0.03122 0.0
C1459 C 0.43539 0.53755 0.99262 0.0
C1460 C 0.44106 0.55389 0.99697 0.0
C1461 C 0.45406 0.56349 0.036 0.0
C1462 C 0.41402 0.52423 0.83174 0.0
C1463 C 0.4045 0.50787 0.84148 0.0
C1464 C 0.42338 0.53399 0.88189 0.0
C1465 C 0.42327 0.52769 0.94342 0.0
C1466 C 0.41261 0.51156 0.95471 0.0
C1467 C 0.40339 0.50173 0.90414 0.0
H1468 H 0.47414 0.88675 0.79995 0.0
H1469 H 0.51472 0.90796 0.92694 0.0
H1470 H 0.45774 0.88733 0.88627 0.0
H1471 H 0.49801 0.90768 0.01546 0.0
H1472 H 0.46986 0.92795 0.11658 0.0
H1473 H 0.48619 0.92242 0.04415 0.0
H1474 H 0.44481 0.87905 0.98401 0.0
H1475 H 0.42847 0.88522 0.0533 0.0
C1476 C 0.47948 0.89108 0.84706 0.0
C1477 C 0.49581 0.89756 0.8562 0.0
C1478 C 0.47 0.89134 0.89706 0.0
C1479 C 0.47653 0.89779 0.95802 0.0
C1480 C 0.49264 0.90304 0.96871 0.0
C1481 C 0.5022 0.90303 0.91818 0.0
C1482 C 0.46432 0.91721 0.08802 0.0
C1483 C 0.4479 0.90715 0.08966 0.0
C1484 C 0.47369 0.91392 0.04688 0.0
C1485 C 0.46687 0.9003 0.00753 0.0
C1486 C 0.45048 0.88985 0.01208 0.0
C1487 C 0.44109 0.89334 0.05201 0.0
H1488 H 0.22284 0.43684 0.68535 0.0
H1489 H 0.19258 0.43143 0.84796 0.0
H1490 H 0.24311 0.43877 0.76027 0.0
H1491 H 0.21274 0.43326 0.92241 0.0
H1492 H 0.25475 0.44761 0.04647 0.0
H1493 H 0.23973 0.45188 0.96256 0.0
H1494 H 0.24545 0.42 0.83526 0.0
H1495 H 0.26061 0.41581 0.91884 0.0
C1496 C 0.22055 0.43617 0.73702 0.0
C1497 C 0.20607 0.4339 0.76074 0.0
C1498 C 0.23215 0.43724 0.77983 0.0
C1499 C 0.22955 0.43623 0.84715 0.0
C1500 C 0.21521 0.43433 0.87081 0.0
C1501 C 0.20358 0.43314 0.8281 0.0
C1502 C 0.25315 0.4418 5e-05 0.0
C1503 C 0.25866 0.43116 0.98974 0.0
C1504 C 0.24445 0.44417 0.95217 0.0
C1505 C 0.24116 0.43604 0.89288 0.0
C1506 C 0.2478 0.42644 0.88048 0.0
C1507 C 0.25646 0.42402 0.92849 0.0
H1508 H 0.59725 0.79764 0.71997 0.0
H1509 H 0.55222 0.75839 0.77769 0.0
H1510 H 0.59303 0.81505 0.79135 0.0
H1511 H 0.54743 0.77587 0.84592 0.0
H1512 H 0.55694 0.80489 0.03251 0.0
H1513 H 0.55612 0.78807 0.94511 0.0
H1514 H 0.57995 0.82875 0.81904 0.0
H1515 H 0.58154 0.84581 0.90859 0.0
C1516 C 0.5863 0.79283 0.74698 0.0
C1517 C 0.57519 0.77665 0.74426 0.0
C1518 C 0.58377 0.80283 0.78751 0.0
C1519 C 0.56991 0.7969 0.82515 0.0
C1520 C 0.55842 0.78083 0.81919 0.0
C1521 C 0.56112 0.77079 0.77987 0.0
C1522 C 0.56173 0.81027 0.98584 0.0
C1523 C 0.56957 0.82675 0.97793 0.0
C1524 C 0.56119 0.80055 0.93522 0.0
C1525 C 0.5682 0.80702 0.87489 0.0
C1526 C 0.57482 0.82339 0.86531 0.0
C1527 C 0.57558 0.83317 0.91644 0.0
H1528 H 0.24633 0.79729 0.85332 0.0
H1529 H 0.23232 0.83202 0.89218 0.0
H1530 H 0.2278 0.77997 0.93593 0.0
H1531 H 0.21368 0.81465 0.97327 0.0
H1532 H 0.19425 0.78874 0.15894 0.0
H1533 H 0.21429 0.80474 0.07995 0.0
H1534 H 0.19904 0.76383 0.95708 0.0
H1535 H 0.17897 0.74754 0.03781 0.0
C1536 C 0.23933 0.80124 0.87953 0.0
C1537 C 0.24087 0.81608 0.86654 0.0
C1538 C 0.22864 0.79127 0.92645 0.0
C1539 C 0.21934 0.79597 0.96132 0.0
C1540 C 0.22088 0.81079 0.94808 0.0
C1541 C 0.23154 0.82074 0.90139 0.0
C1542 C 0.19517 0.78308 0.11526 0.0
C1543 C 0.18489 0.76691 0.10411 0.0
C1544 C 0.20664 0.7923 0.06984 0.0
C1545 C 0.20806 0.78563 0.01174 0.0
C1546 C 0.19823 0.76929 0.00154 0.0
C1547 C 0.18673 0.75998 0.04754 0.0
H1548 H 0.37233 0.11274 0.8223 0.0
H1549 H 0.36835 0.152 0.89594 0.0
H1550 H 0.34499 0.09463 0.85388 0.0
H1551 H 0.34105 0.13401 0.92609 0.0
H1552 H 0.29715 0.09704 0.02624 0.0
H1553 H 0.32523 0.1132 0.00246 0.0
H1554 H 0.31842 0.08806 0.82205 0.0
H1555 H 0.2904 0.07165 0.84648 0.0
C1556 C 0.36562 0.11751 0.84505 0.0
C1557 C 0.37251 0.13381 0.85651 0.0
C1558 C 0.34995 0.10714 0.86294 0.0
C1559 C 0.34085 0.11287 0.8927 0.0
C1560 C 0.34779 0.12917 0.9043 0.0
C1561 C 0.36343 0.1395 0.88649 0.0
C1562 C 0.30166 0.09484 0.98183 0.0
C1563 C 0.29151 0.08313 0.93805 0.0
C1564 C 0.31775 0.10418 0.968 0.0
C1565 C 0.32404 0.10204 0.91003 0.0
C1566 C 0.31398 0.08994 0.86737 0.0
C1567 C 0.29789 0.08058 0.88125 0.0
H1568 H 0.93106 0.23271 0.98043 0.0
H1569 H 0.8909 0.18652 0.94262 0.0
H1570 H 0.9167 0.24496 0.9347 0.0
H1571 H 0.8766 0.19877 0.89739 0.0
H1572 H 0.86248 0.22584 0.758 0.0
H1573 H 0.87821 0.21478 0.80038 0.0
H1574 H 0.89304 0.24738 0.96137 0.0
H1575 H 0.87742 0.25853 0.91899 0.0
C1576 C 0.91917 0.22518 0.96263 0.0
C1577 C 0.91213 0.20865 0.96524 0.0
C1578 C 0.91094 0.23219 0.93661 0.0
C1579 C 0.89557 0.22281 0.91214 0.0
C1580 C 0.88852 0.2063 0.91502 0.0
C1581 C 0.89667 0.19929 0.94147 0.0
C1582 C 0.86919 0.23074 0.80212 0.0
C1583 C 0.86864 0.24302 0.83524 0.0
C1584 C 0.87812 0.22434 0.8266 0.0
C1585 C 0.88677 0.23016 0.88439 0.0
C1586 C 0.88658 0.24273 0.9165 0.0
C1587 C 0.87757 0.24906 0.89233 0.0
H1588 H 0.74961 0.62461 0.90638 0.0
H1589 H 0.77466 0.63915 0.72376 0.0
H1590 H 0.76385 0.65189 0.94429 0.0
H1591 H 0.78865 0.66643 0.76127 0.0
H1592 H 0.82501 0.70811 0.88038 0.0
H1593 H 0.80915 0.68118 0.84125 0.0
H1594 H 0.76756 0.6784 0.92758 0.0
H1595 H 0.78354 0.70539 0.96794 0.0
C1596 C 0.75799 0.63365 0.87397 0.0
C1597 C 0.7611 0.62969 0.81222 0.0
C1598 C 0.7661 0.64929 0.89564 0.0
C1599 C 0.7775 0.66129 0.85605 0.0
C1600 C 0.78016 0.6574 0.79342 0.0
C1601 C 0.77206 0.64178 0.77176 0.0
C1602 C 0.81249 0.70177 0.89127 0.0
C1603 C 0.80554 0.70891 0.92732 0.0
C1604 C 0.80337 0.68636 0.86831 0.0
C1605 C 0.78707 0.67769 0.88078 0.0
C1606 C 0.78011 0.68474 0.91749 0.0
C1607 C 0.78926 0.70021 0.94047 0.0
H1608 H 0.16375 0.37645 0.57107 0.0
H1609 H 0.12164 0.37582 0.63951 0.0
H1610 H 0.14765 0.35011 0.52629 0.0
H1611 H 0.10545 0.34946 0.59343 0.0
H1612 H 0.08455 0.29548 0.56299 0.0
H1613 H 0.09934 0.32208 0.60784 0.0
H1614 H 0.12916 0.3374 0.43764 0.0
H1615 H 0.11461 0.31078 0.39336 0.0
C1616 C 0.15104 0.37069 0.57663 0.0
C1617 C 0.14398 0.37825 0.60883 0.0
C1618 C 0.1418 0.35563 0.55043 0.0
C1619 C 0.12526 0.34775 0.55568 0.0
C1620 C 0.11818 0.35518 0.58889 0.0
C1621 C 0.12745 0.3703 0.61516 0.0
C1622 C 0.09417 0.30456 0.53484 0.0
C1623 C 0.09848 0.30098 0.47478 0.0
C1624 C 0.10261 0.31982 0.56049 0.0
C1625 C 0.11553 0.33182 0.52663 0.0
C1626 C 0.11946 0.32835 0.46554 0.0
C1627 C 0.11105 0.31311 0.43994 0.0
H1628 H 0.69054 0.79701 0.42703 0.0
H1629 H 0.71031 0.79389 0.61037 0.0
H1630 H 0.66418 0.78362 0.47512 0.0
H1631 H 0.68399 0.78037 0.65792 0.0
H1632 H 0.63757 0.77536 0.73759 0.0
H1633 H 0.66385 0.78709 0.68954 0.0
H1634 H 0.64413 0.75791 0.51935 0.0
H1635 H 0.61783 0.74631 0.56686 0.0
C1636 C 0.68926 0.79335 0.47734 0.0
C1637 C 0.70254 0.79658 0.51484 0.0
C1638 C 0.67415 0.78562 0.50483 0.0
C1639 C 0.67201 0.781 0.57044 0.0
C1640 C 0.68527 0.78398 0.60753 0.0
C1641 C 0.70035 0.79165 0.58006 0.0
C1642 C 0.63884 0.77137 0.69012 0.0
C1643 C 0.62559 0.75992 0.65608 0.0
C1644 C 0.65392 0.77804 0.66268 0.0
C1645 C 0.65607 0.77346 0.60053 0.0
C1646 C 0.64284 0.76184 0.56694 0.0
C1647 C 0.62778 0.75512 0.59444 0.0
H1648 H 0.23185 0.94064 0.54108 0.0
H1649 H 0.18693 0.89771 0.56408 0.0
H1650 H 0.24509 0.9279 0.59347 0.0
H1651 H 0.20013 0.88512 0.61609 0.0
H1652 H 0.22561 0.87407 0.773 0.0
H1653 H 0.21436 0.88868 0.72181 0.0
H1654 H 0.25034 0.90516 0.57341 0.0
H1655 H 0.2617 0.89053 0.62466 0.0
C1656 C 0.22482 0.92849 0.55692 0.0
C1657 C 0.20834 0.92021 0.54857 0.0
C1658 C 0.2324 0.92121 0.58675 0.0
C1659 C 0.22361 0.90559 0.60943 0.0
C1660 C 0.20718 0.89726 0.60004 0.0
C1661 C 0.19964 0.90445 0.56975 0.0
C1662 C 0.23126 0.88093 0.72987 0.0
C1663 C 0.24449 0.88104 0.70265 0.0
C1664 C 0.22474 0.88922 0.70034 0.0
C1665 C 0.23137 0.8979 0.64324 0.0
C1666 C 0.24501 0.89859 0.61748 0.0
C1667 C 0.25147 0.89017 0.64675 0.0
H1668 H 0.69615 0.89607 0.92611 0.0
H1669 H 0.71614 0.92014 0.1072 0.0
H1670 H 0.66979 0.88394 0.97375 0.0
H1671 H 0.68981 0.90823 0.15428 0.0
H1672 H 0.64353 0.86704 0.23677 0.0
H1673 H 0.66977 0.88179 0.18883 0.0
H1674 H 0.64967 0.88961 0.01576 0.0
H1675 H 0.62337 0.87464 0.06323 0.0
C1676 C 0.69492 0.89893 0.97575 0.0
C1677 C 0.70826 0.90899 0.01292 0.0
C1678 C 0.6798 0.89204 0.00299 0.0
C1679 C 0.67772 0.89505 0.06795 0.0
C1680 C 0.69104 0.90547 0.10444 0.0
C1681 C 0.70613 0.91237 0.07726 0.0
C1682 C 0.64471 0.87201 0.18873 0.0
C1683 C 0.63135 0.86959 0.15377 0.0
C1684 C 0.65977 0.88054 0.16134 0.0
C1685 C 0.6618 0.88683 0.09836 0.0
C1686 C 0.64847 0.88473 0.06401 0.0
C1687 C 0.63342 0.87624 0.09145 0.0
H1688 H 0.13634 0.78279 0.2287 0.0
H1689 H 0.10644 0.73805 0.13416 0.0
H1690 H 0.12385 0.79476 0.16625 0.0
H1691 H 0.09367 0.75012 0.07257 0.0
H1692 H 0.06634 0.7801 0.04788 0.0
H1693 H 0.07702 0.76546 0.10491 0.0
H1694 H 0.12369 0.79868 0.03514 0.0
H1695 H 0.11309 0.81313 0.97701 0.0
C1696 C 0.12693 0.77544 0.19535 0.0
C1697 C 0.12239 0.75947 0.18624 0.0
C1698 C 0.11989 0.78234 0.15935 0.0
C1699 C 0.10795 0.77336 0.11441 0.0
C1700 C 0.10289 0.75725 0.10698 0.0
C1701 C 0.11019 0.75039 0.14214 0.0
C1702 C 0.07883 0.78412 0.0439 0.0
C1703 C 0.08889 0.79778 0.00814 0.0
C1704 C 0.0849 0.77573 0.07636 0.0
C1705 C 0.10115 0.78107 0.07462 0.0
C1706 C 0.11112 0.79443 0.03741 0.0
C1707 C 0.10503 0.80262 0.00393 0.0
H1708 H 0.2182 0.35463 0.22501 0.0
H1709 H 0.25019 0.37525 0.06289 0.0
H1710 H 0.20638 0.32883 0.17264 0.0
H1711 H 0.23844 0.3494 0.01096 0.0
H1712 H 0.19936 0.30473 0.90733 0.0
H1713 H 0.21294 0.33056 0.95991 0.0
H1714 H 0.21278 0.30833 0.14134 0.0
H1715 H 0.19908 0.28254 0.08922 0.0
C1716 C 0.2228 0.35364 0.17848 0.0
C1717 C 0.23512 0.367 0.14813 0.0
C1718 C 0.21607 0.33884 0.14861 0.0
C1719 C 0.22146 0.33709 0.08759 0.0
C1720 C 0.23392 0.35041 0.05762 0.0
C1721 C 0.2407 0.3652 0.08763 0.0
C1722 C 0.20231 0.30536 0.95831 0.0
C1723 C 0.19808 0.29156 0.99406 0.0
C1724 C 0.21015 0.32016 0.98837 0.0
C1725 C 0.21387 0.32147 0.05485 0.0
C1726 C 0.20989 0.30769 0.09026 0.0
C1727 C 0.20213 0.29292 0.06021 0.0
H1728 H 0.87238 0.62024 0.42378 0.0
H1729 H 0.86399 0.63924 0.24852 0.0
H1730 H 0.88594 0.6466 0.47114 0.0
H1731 H 0.8773 0.66556 0.29644 0.0
H1732 H 0.91411 0.71284 0.37985 0.0
H1733 H 0.903 0.68665 0.33194 0.0
H1734 H 0.87902 0.66574 0.51218 0.0
H1735 H 0.89037 0.69194 0.56062 0.0
C1736 C 0.87349 0.63005 0.39519 0.0
C1737 C 0.86706 0.62762 0.33235 0.0
C1738 C 0.88117 0.64514 0.42258 0.0
C1739 C 0.88263 0.65817 0.38777 0.0
C1740 C 0.87653 0.6558 0.32434 0.0
C1741 C 0.86883 0.64069 0.29694 0.0
C1742 C 0.90655 0.70266 0.40948 0.0
C1743 C 0.9031 0.70449 0.4741 0.0
C1744 C 0.90011 0.68764 0.38181 0.0
C1745 C 0.89007 0.6741 0.41809 0.0
C1746 C 0.88685 0.67592 0.4831 0.0
C1747 C 0.89329 0.69094 0.5108 0.0
H1748 H 0.29523 0.21301 0.46198 0.0
H1749 H 0.2909 0.17182 0.36506 0.0
H1750 H 0.32201 0.22882 0.41911 0.0
H1751 H 0.31763 0.18752 0.32327 0.0
H1752 H 0.35979 0.22288 0.20598 0.0
H1753 H 0.33264 0.20871 0.24548 0.0
H1754 H 0.34819 0.23153 0.43194 0.0
H1755 H 0.37528 0.24589 0.39228 0.0
C1756 C 0.3 0.20732 0.43182 0.0
C1757 C 0.29093 0.19115 0.41702 0.0
C1758 C 0.31535 0.21636 0.40741 0.0
C1759 C 0.32192 0.20944 0.36751 0.0
C1760 C 0.31283 0.19327 0.35295 0.0
C1761 C 0.29754 0.18424 0.37743 0.0
C1762 C 0.35741 0.22499 0.2552 0.0
C1763 C 0.36972 0.23546 0.29602 0.0
C1764 C 0.34186 0.21679 0.27798 0.0
C1765 C 0.33827 0.21891 0.34202 0.0
C1766 C 0.35053 0.22972 0.38222 0.0
C1767 C 0.36608 0.2379 0.35951 0.0
H1768 H 0.80075 0.10371 0.58378 0.0
H1769 H 0.79676 0.07915 0.40411 0.0
H1770 H 0.78669 0.11585 0.53457 0.0
H1771 H 0.78253 0.09109 0.35547 0.0
H1772 H 0.77646 0.13131 0.2696 0.0
H1773 H 0.78861 0.11734 0.31924 0.0
H1774 H 0.76081 0.10979 0.4925 0.0
H1775 H 0.74883 0.12397 0.44338 0.0
C1776 C 0.79673 0.10077 0.53408 0.0
C1777 C 0.79995 0.09052 0.49786 0.0
C1778 C 0.78861 0.10767 0.50594 0.0
C1779 C 0.78356 0.10449 0.44096 0.0
C1780 C 0.78647 0.09397 0.40529 0.0
C1781 C 0.79455 0.08705 0.4334 0.0
C1782 C 0.77286 0.12659 0.3181 0.0
C1783 C 0.7617 0.1288 0.35251 0.0
C1784 C 0.77977 0.11851 0.34647 0.0
C1785 C 0.7757 0.11248 0.40992 0.0
C1786 C 0.76435 0.11447 0.4439 0.0
C1787 C 0.75741 0.12251 0.4155 0.0
H1788 H 0.95554 0.41453 0.23291 0.0
H1789 H 0.97449 0.44339 0.40461 0.0
H1790 H 0.98202 0.42644 0.18687 0.0
H1791 H 0.00096 0.45538 0.35813 0.0
H1792 H 0.02862 0.4663 0.09788 0.0
H1793 H 0.00209 0.45262 0.14437 0.0
H1794 H 0.02129 0.44857 0.32742 0.0
H1795 H 0.04779 0.46234 0.28141 0.0
C1796 C 0.96535 0.42336 0.26102 0.0
C1797 C 0.96289 0.42802 0.32248 0.0
C1798 C 0.98051 0.43024 0.23438 0.0
C1799 C 0.99357 0.44187 0.26876 0.0
C1800 C 0.99115 0.44633 0.33071 0.0
C1801 C 0.97598 0.43951 0.35722 0.0
C1802 C 0.02717 0.4624 0.1479 0.0
C1803 C 0.04033 0.46545 0.18592 0.0
C1804 C 0.01196 0.4545 0.17445 0.0
C1805 C 0.00961 0.44958 0.23965 0.0
C1806 C 0.02275 0.4524 0.2773 0.0
C1807 C 0.03792 0.4602 0.25071 0.0
H1808 H 0.51602 0.55895 0.18891 0.0
H1809 H 0.56143 0.60169 0.2015 0.0
H1810 H 0.5276 0.54383 0.23149 0.0
H1811 H 0.57298 0.58651 0.24526 0.0
H1812 H 0.58995 0.54984 0.25855 0.0
H1813 H 0.57962 0.56614 0.21534 0.0
H1814 H 0.53802 0.54099 0.33505 0.0
H1815 H 0.54817 0.52454 0.37739 0.0
C1816 C 0.5285 0.56513 0.20055 0.0
C1817 C 0.53779 0.58155 0.19199 0.0
C1818 C 0.5351 0.55646 0.2255 0.0
C1819 C 0.55116 0.56399 0.2425 0.0
C1820 C 0.56058 0.58035 0.23235 0.0
C1821 C 0.55395 0.58905 0.20741 0.0
C1822 C 0.57866 0.54788 0.27607 0.0
C1823 C 0.56983 0.53582 0.32112 0.0
C1824 C 0.57277 0.55725 0.25141 0.0
C1825 C 0.55793 0.55474 0.27124 0.0
C1826 C 0.54935 0.54301 0.31781 0.0
C1827 C 0.55522 0.53365 0.34244 0.0
H1828 H 0.42136 0.95322 0.2732 0.0
H1829 H 0.45132 0.9726 0.10455 0.0
H1830 H 0.43272 0.97962 0.31951 0.0
H1831 H 0.46278 0.999 0.15136 0.0
H1832 H 0.47123 0.02654 0.41115 0.0
H1833 H 0.45838 1e-05 0.36466 0.0
H1834 H 0.4553 0.01896 0.17935 0.0
H1835 H 0.46825 0.04544 0.22535 0.0
C1836 C 0.43033 0.96311 0.24586 0.0
C1837 C 0.43544 0.9608 0.1851 0.0
C1838 C 0.43691 0.97822 0.27267 0.0
C1839 C 0.44866 0.99138 0.23919 0.0
C1840 C 0.45362 0.98911 0.17805 0.0
C1841 C 0.44711 0.97397 0.15136 0.0
C1842 C 0.46772 0.02503 0.36063 0.0
C1843 C 0.47082 0.03811 0.32199 0.0
C1844 C 0.4603 0.00982 0.33405 0.0
C1845 C 0.4559 0.00741 0.26823 0.0
C1846 C 0.45875 0.02046 0.22996 0.0
C1847 C 0.46608 0.03563 0.25654 0.0
H1848 H 0.58857 0.04344 0.72917 0.0
H1849 H 0.55977 0.02405 0.90087 0.0
H1850 H 0.57705 0.01699 0.68304 0.0
H1851 H 0.54815 0.99763 0.85428 0.0
H1852 H 0.54112 0.95097 0.77607 0.0
H1853 H 0.55503 0.97741 0.82267 0.0
H1854 H 0.55095 0.99695 0.6405 0.0
H1855 H 0.53716 0.97051 0.59349 0.0
C1856 C 0.57985 0.03353 0.75727 0.0
C1857 C 0.57506 0.03586 0.8187 0.0
C1858 C 0.57319 0.0184 0.7306 0.0
C1859 C 0.56166 0.00524 0.7649 0.0
C1860 C 0.55713 0.00752 0.82693 0.0
C1861 C 0.56373 0.02267 0.85348 0.0
C1862 C 0.54329 0.96091 0.74571 0.0
C1863 C 0.53798 0.95862 0.68106 0.0
C1864 C 0.55118 0.97605 0.77261 0.0
C1865 C 0.55402 0.98925 0.73538 0.0
C1866 C 0.54907 0.98702 0.67025 0.0
C1867 C 0.5411 0.97186 0.64341 0.0
H1868 H 0.02787 0.59284 0.67333 0.0
H1869 H 0.03756 0.55916 0.7683 0.0
H1870 H 0.00104 0.57908 0.7172 0.0
H1871 H 0.0108 0.5454 0.81137 0.0
H1872 H 0.96673 0.53315 0.92827 0.0
H1873 H 0.99387 0.54918 0.88983 0.0
H1874 H 0.97664 0.55329 0.70199 0.0
H1875 H 0.94956 0.53746 0.7404 0.0
C1876 C 0.02429 0.58252 0.70352 0.0
C1877 C 0.03483 0.57706 0.71712 0.0
C1878 C 0.00892 0.57462 0.72845 0.0
C1879 C 0.00383 0.56119 0.76788 0.0
C1880 C 0.01443 0.55584 0.7819 0.0
C1881 C 0.02973 0.56366 0.7567 0.0
C1882 C 0.96873 0.53759 0.87896 0.0
C1883 C 0.95598 0.53396 0.83733 0.0
C1884 C 0.98427 0.5467 0.85685 0.0
C1885 C 0.98738 0.55243 0.79279 0.0
C1886 C 0.97464 0.54917 0.75177 0.0
C1887 C 0.95911 0.54001 0.77374 0.0
H1888 H 0.41386 0.44335 0.59116 0.0
H1889 H 0.42344 0.47055 0.76755 0.0
H1890 H 0.42573 0.42888 0.63884 0.0
H1891 H 0.43572 0.4565 0.81431 0.0
H1892 H 0.44585 0.42008 0.90233 0.0
H1893 H 0.431 0.4317 0.85608 0.0
H1894 H 0.45127 0.43333 0.66779 0.0
H1895 H 0.46566 0.42131 0.71343 0.0
C1896 C 0.41851 0.44626 0.64002 0.0
C1897 C 0.41775 0.45814 0.67539 0.0
C1898 C 0.42539 0.43802 0.66731 0.0
C1899 C 0.43175 0.44155 0.73042 0.0
C1900 C 0.43075 0.45329 0.76602 0.0
C1901 C 0.4238 0.46144 0.73893 0.0
C1902 C 0.44704 0.42283 0.85101 0.0
C1903 C 0.45697 0.4198 0.81169 0.0
C1904 C 0.43859 0.42957 0.8245 0.0
C1905 C 0.43996 0.43351 0.75816 0.0
C1906 C 0.44972 0.43024 0.71879 0.0
C1907 C 0.45808 0.42343 0.74517 0.0
loop_
_geom_bond_atom_site_label_1
_geom_bond_atom_site_label_2
_geom_bond_distance
_geom_bond_site_symmetry_2
_ccdc_geom_bond_type
C0 O1 1.160 . S
C0 O7 1.185 . S
O1 C0 1.160 . S
O2 Zn3 1.899 . S
O2 C10 1.284 . S
Zn3 O2 1.899 . S
Zn3 O4 2.032 . S
Zn3 O7 2.086 . S
Zn3 O12 1.977 1_554 S
O4 Zn3 2.032 . S
O4 C8 1.278 . S
C5 O6 1.203 . S
C5 O12 1.267 . S
O6 C5 1.203 . S
O7 C0 1.185 . S
O7 Zn3 2.086 . S
C8 O4 1.278 . S
C8 O9 1.211 . S
O9 C8 1.211 . S
C10 O2 1.284 . S
C10 O11 1.273 . S
O11 C10 1.273 . S
O12 Zn3 1.977 1_556 S
O12 C5 1.267 . S
C13 O14 1.160 . S
C13 O20 1.185 . S
O14 C13 1.160 . S
O15 Zn16 1.899 . S
O15 C23 1.284 . S
Zn16 O15 1.899 . S
Zn16 O17 2.032 . S
Zn16 O20 2.086 . S
Zn16 O25 1.977 1_554 S
O17 Zn16 2.032 . S
O17 C21 1.278 . S
C18 O19 1.203 . S
C18 O25 1.267 . S
O19 C18 1.203 . S
O20 C13 1.185 . S
O20 Zn16 2.086 . S
C21 O17 1.278 . S
C21 O22 1.211 . S
O22 C21 1.211 . S
C23 O15 1.284 . S
C23 O24 1.273 . S
O24 C23 1.273 . S
O25 Zn16 1.977 1_556 S
O25 C18 1.267 . S
C26 O27 1.160 . S
C26 O33 1.185 . S
O27 C26 1.160 . S
O28 Zn29 1.899 . S
O28 C36 1.284 . S
Zn29 O28 1.899 . S
Zn29 O30 2.032 . S
Zn29 O33 2.086 . S
Zn29 O38 1.977 1_554 S
O30 Zn29 2.032 . S
O30 C34 1.278 . S
C31 O32 1.203 . S
C31 O38 1.267 . S
O32 C31 1.203 . S
O33 C26 1.185 . S
O33 Zn29 2.086 . S
C34 O30 1.278 . S
C34 O35 1.211 . S
O35 C34 1.211 . S
C36 O28 1.284 . S
C36 O37 1.273 . S
O37 C36 1.273 . S
O38 Zn29 1.977 1_556 S
O38 C31 1.267 . S
C39 O40 1.160 . S
C39 O46 1.185 . S
O40 C39 1.160 . S
O41 Zn42 1.899 . S
O41 C49 1.284 . S
Zn42 O41 1.899 . S
Zn42 O43 2.032 . S
Zn42 O46 2.086 . S
Zn42 O51 1.977 . S
O43 Zn42 2.032 . S
O43 C47 1.278 . S
C44 O45 1.203 . S
C44 O51 1.267 . S
O45 C44 1.203 . S
O46 C39 1.185 . S
O46 Zn42 2.086 . S
C47 O43 1.278 . S
C47 O48 1.211 . S
O48 C47 1.211 . S
C49 O41 1.284 . S
C49 O50 1.273 . S
O50 C49 1.273 . S
O51 Zn42 1.977 . S
O51 C44 1.267 . S
C52 O53 1.160 . S
C52 O59 1.185 . S
O53 C52 1.160 . S
O54 Zn55 1.899 . S
O54 C62 1.284 . S
Zn55 O54 1.899 . S
Zn55 O56 2.032 . S
Zn55 O59 2.086 . S
Zn55 O64 1.977 . S
O56 Zn55 2.032 . S
O56 C60 1.278 . S
C57 O58 1.203 . S
C57 O64 1.267 . S
O58 C57 1.203 . S
O59 C52 1.185 . S
O59 Zn55 2.086 . S
C60 O56 1.278 . S
C60 O61 1.211 . S
O61 C60 1.211 . S
C62 O54 1.284 . S
C62 O63 1.273 . S
O63 C62 1.273 . S
O64 Zn55 1.977 . S
O64 C57 1.267 . S
C65 O66 1.160 . S
C65 O72 1.185 . S
O66 C65 1.160 . S
O67 Zn68 1.899 . S
O67 C75 1.284 . S
Zn68 O67 1.899 . S
Zn68 O69 2.032 . S
Zn68 O72 2.086 . S
Zn68 O77 1.977 . S
O69 Zn68 2.032 . S
O69 C73 1.278 . S
C70 O71 1.203 . S
C70 O77 1.267 . S
O71 C70 1.203 . S
O72 C65 1.185 . S
O72 Zn68 2.086 . S
C73 O69 1.278 . S
C73 O74 1.211 . S
O74 C73 1.211 . S
C75 O67 1.284 . S
C75 O76 1.273 . S
O76 C75 1.273 . S
O77 Zn68 1.977 . S
O77 C70 1.267 . S
C78 O79 1.160 . S
C78 O85 1.185 . S
O79 C78 1.160 . S
O80 Zn81 1.899 . S
O80 C88 1.284 . S
Zn81 O80 1.899 . S
Zn81 O82 2.032 . S
Zn81 O85 2.086 . S
Zn81 O90 1.977 1_556 S
O82 Zn81 2.032 . S
O82 C86 1.278 . S
C83 O84 1.203 . S
C83 O90 1.267 . S
O84 C83 1.203 . S
O85 C78 1.185 . S
O85 Zn81 2.086 . S
C86 O82 1.278 . S
C86 O87 1.211 . S
O87 C86 1.211 . S
C88 O80 1.284 . S
C88 O89 1.273 . S
O89 C88 1.273 . S
O90 Zn81 1.977 1_554 S
O90 C83 1.267 . S
C91 O92 1.160 . S
C91 O98 1.185 . S
O92 C91 1.160 . S
O93 Zn94 1.899 . S
O93 C101 1.284 . S
Zn94 O93 1.899 . S
Zn94 O95 2.032 . S
Zn94 O98 2.086 . S
Zn94 O103 1.977 1_556 S
O95 Zn94 2.032 . S
O95 C99 1.278 . S
C96 O97 1.203 . S
C96 O103 1.267 . S
O97 C96 1.203 . S
O98 C91 1.185 . S
O98 Zn94 2.086 . S
C99 O95 1.278 . S
C99 O100 1.211 . S
O100 C99 1.211 . S
C101 O93 1.284 . S
C101 O102 1.273 . S
O102 C101 1.273 . S
O103 Zn94 1.977 1_554 S
O103 C96 1.267 . S
C104 O105 1.160 . S
C104 O111 1.185 . S
O105 C104 1.160 . S
O106 Zn107 1.899 . S
O106 C114 1.284 . S
Zn107 O106 1.899 . S
Zn107 O108 2.032 . S
Zn107 O111 2.086 . S
Zn107 O116 1.977 1_556 S
O108 Zn107 2.032 . S
O108 C112 1.278 . S
C109 O110 1.203 . S
C109 O116 1.267 . S
O110 C109 1.203 . S
O111 C104 1.185 . S
O111 Zn107 2.086 . S
C112 O108 1.278 . S
C112 O113 1.211 . S
O113 C112 1.211 . S
C114 O106 1.284 . S
C114 O115 1.273 . S
O115 C114 1.273 . S
O116 Zn107 1.977 1_554 S
O116 C109 1.267 . S
C117 O118 1.160 . S
C117 O124 1.185 . S
O118 C117 1.160 . S
O119 Zn120 1.899 . S
O119 C127 1.284 . S
Zn120 O119 1.899 . S
Zn120 O121 2.032 . S
Zn120 O124 2.086 . S
Zn120 O129 1.977 . S
O121 Zn120 2.032 . S
O121 C125 1.278 . S
C122 O123 1.203 . S
C122 O129 1.267 . S
O123 C122 1.203 . S
O124 C117 1.185 . S
O124 Zn120 2.086 . S
C125 O121 1.278 . S
C125 O126 1.211 . S
O126 C125 1.211 . S
C127 O119 1.284 . S
C127 O128 1.273 . S
O128 C127 1.273 . S
O129 Zn120 1.977 . S
O129 C122 1.267 . S
C130 O131 1.160 . S
C130 O137 1.185 . S
O131 C130 1.160 . S
O132 Zn133 1.899 . S
O132 C140 1.284 . S
Zn133 O132 1.899 . S
Zn133 O134 2.032 . S
Zn133 O137 2.086 . S
Zn133 O142 1.977 . S
O134 Zn133 2.032 . S
O134 C138 1.278 . S
C135 O136 1.203 . S
C135 O142 1.267 . S
O136 C135 1.203 . S
O137 C130 1.185 . S
O137 Zn133 2.086 . S
C138 O134 1.278 . S
C138 O139 1.211 . S
O139 C138 1.211 . S
C140 O132 1.284 . S
C140 O141 1.273 . S
O141 C140 1.273 . S
O142 Zn133 1.977 . S
O142 C135 1.267 . S
C143 O144 1.160 . S
C143 O150 1.185 . S
O144 C143 1.160 . S
O145 Zn146 1.899 . S
O145 C153 1.284 . S
Zn146 O145 1.899 . S
Zn146 O147 2.032 . S
Zn146 O150 2.086 . S
Zn146 O155 1.977 . S
O147 Zn146 2.032 . S
O147 C151 1.278 . S
C148 O149 1.203 . S
C148 O155 1.267 . S
O149 C148 1.203 . S
O150 C143 1.185 . S
O150 Zn146 2.086 . S
C151 O147 1.278 . S
C151 O152 1.211 . S
O152 C151 1.211 . S
C153 O145 1.284 . S
C153 O154 1.273 . S
O154 C153 1.273 . S
O155 Zn146 1.977 . S
O155 C148 1.267 . S
C156 O157 1.160 . S
C156 O163 1.185 . S
O157 C156 1.160 . S
O158 Zn159 1.899 . S
O158 C166 1.284 . S
Zn159 O158 1.899 . S
Zn159 O160 2.032 . S
Zn159 O163 2.086 . S
Zn159 O168 1.977 . S
O160 Zn159 2.032 . S
O160 C164 1.278 . S
C161 O162 1.203 . S
C161 O168 1.267 . S
O162 C161 1.203 . S
O163 C156 1.185 . S
O163 Zn159 2.086 . S
C164 O160 1.278 . S
C164 O165 1.211 . S
O165 C164 1.211 . S
C166 O158 1.284 . S
C166 O167 1.273 . S
O167 C166 1.273 . S
O168 Zn159 1.977 . S
O168 C161 1.267 . S
C169 O170 1.160 . S
C169 O176 1.185 . S
O170 C169 1.160 . S
O171 Zn172 1.899 . S
O171 C179 1.284 . S
Zn172 O171 1.899 . S
Zn172 O173 2.032 . S
Zn172 O176 2.086 . S
Zn172 O181 1.977 . S
O173 Zn172 2.032 . S
O173 C177 1.278 . S
C174 O175 1.203 . S
C174 O181 1.267 . S
O175 C174 1.203 . S
O176 C169 1.185 . S
O176 Zn172 2.086 . S
C177 O173 1.278 . S
C177 O178 1.211 . S
O178 C177 1.211 . S
C179 O171 1.284 . S
C179 O180 1.273 . S
O180 C179 1.273 . S
O181 Zn172 1.977 . S
O181 C174 1.267 . S
C182 O183 1.160 . S
C182 O189 1.185 . S
O183 C182 1.160 . S
O184 Zn185 1.899 . S
O184 C192 1.284 . S
Zn185 O184 1.899 . S
Zn185 O186 2.032 . S
Zn185 O189 2.086 . S
Zn185 O194 1.977 . S
O186 Zn185 2.032 . S
O186 C190 1.278 . S
C187 O188 1.203 . S
C187 O194 1.267 . S
O188 C187 1.203 . S
O189 C182 1.185 . S
O189 Zn185 2.086 . S
C190 O186 1.278 . S
C190 O191 1.211 . S
O191 C190 1.211 . S
C192 O184 1.284 . S
C192 O193 1.273 . S
O193 C192 1.273 . S
O194 Zn185 1.977 . S
O194 C187 1.267 . S
C195 O196 1.160 . S
C195 O202 1.185 . S
O196 C195 1.160 . S
O197 Zn198 1.899 . S
O197 C205 1.284 . S
Zn198 O197 1.899 . S
Zn198 O199 2.032 . S
Zn198 O202 2.086 . S
Zn198 O207 1.977 . S
O199 Zn198 2.032 . S
O199 C203 1.278 . S
C200 O201 1.203 . S
C200 O207 1.267 . S
O201 C200 1.203 . S
O202 C195 1.185 . S
O202 Zn198 2.086 . S
C203 O199 1.278 . S
C203 O204 1.211 . S
O204 C203 1.211 . S
C205 O197 1.284 . S
C205 O206 1.273 . S
O206 C205 1.273 . S
O207 Zn198 1.977 . S
O207 C200 1.267 . S
C208 O209 1.160 . S
C208 O215 1.185 . S
O209 C208 1.160 . S
O210 Zn211 1.899 . S
O210 C218 1.284 . S
Zn211 O210 1.899 . S
Zn211 O212 2.032 . S
Zn211 O215 2.086 . S
Zn211 O220 1.977 . S
O212 Zn211 2.032 . S
O212 C216 1.278 . S
C213 O214 1.203 . S
C213 O220 1.267 . S
O214 C213 1.203 . S
O215 C208 1.185 . S
O215 Zn211 2.086 . S
C216 O212 1.278 . S
C216 O217 1.211 . S
O217 C216 1.211 . S
C218 O210 1.284 . S
C218 O219 1.273 . S
O219 C218 1.273 . S
O220 Zn211 1.977 . S
O220 C213 1.267 . S
C221 O222 1.160 . S
C221 O228 1.185 . S
O222 C221 1.160 . S
O223 Zn224 1.899 . S
O223 C231 1.284 . S
Zn224 O223 1.899 . S
Zn224 O225 2.032 . S
Zn224 O228 2.086 . S
Zn224 O233 1.977 . S
O225 Zn224 2.032 . S
O225 C229 1.278 . S
C226 O227 1.203 . S
C226 O233 1.267 . S
O227 C226 1.203 . S
O228 C221 1.185 . S
O228 Zn224 2.086 . S
C229 O225 1.278 . S
C229 O230 1.211 . S
O230 C229 1.211 . S
C231 O223 1.284 . S
C231 O232 1.273 . S
O232 C231 1.273 . S
O233 Zn224 1.977 . S
O233 C226 1.267 . S
C234 O235 1.160 . S
C234 O241 1.185 . S
O235 C234 1.160 . S
O236 Zn237 1.899 . S
O236 C244 1.284 . S
Zn237 O236 1.899 . S
Zn237 O238 2.032 . S
Zn237 O241 2.086 . S
Zn237 O246 1.977 . S
O238 Zn237 2.032 . S
O238 C242 1.278 . S
C239 O240 1.203 . S
C239 O246 1.267 . S
O240 C239 1.203 . S
O241 C234 1.185 . S
O241 Zn237 2.086 . S
C242 O238 1.278 . S
C242 O243 1.211 . S
O243 C242 1.211 . S
C244 O236 1.284 . S
C244 O245 1.273 . S
O245 C244 1.273 . S
O246 Zn237 1.977 . S
O246 C239 1.267 . S
C247 O248 1.160 . S
C247 O254 1.185 . S
O248 C247 1.160 . S
O249 Zn250 1.899 . S
O249 C257 1.284 . S
Zn250 O249 1.899 . S
Zn250 O251 2.032 . S
Zn250 O254 2.086 . S
Zn250 O259 1.977 . S
O251 Zn250 2.032 . S
O251 C255 1.278 . S
C252 O253 1.203 . S
C252 O259 1.267 . S
O253 C252 1.203 . S
O254 C247 1.185 . S
O254 Zn250 2.086 . S
C255 O251 1.278 . S
C255 O256 1.211 . S
O256 C255 1.211 . S
C257 O249 1.284 . S
C257 O258 1.273 . S
O258 C257 1.273 . S
O259 Zn250 1.977 . S
O259 C252 1.267 . S
C260 O261 1.160 . S
C260 O267 1.185 . S
O261 C260 1.160 . S
O262 Zn263 1.899 . S
O262 C270 1.284 . S
Zn263 O262 1.899 . S
Zn263 O264 2.032 . S
Zn263 O267 2.086 . S
Zn263 O272 1.977 . S
O264 Zn263 2.032 . S
O264 C268 1.278 . S
C265 O266 1.203 . S
C265 O272 1.267 . S
O266 C265 1.203 . S
O267 C260 1.185 . S
O267 Zn263 2.086 . S
C268 O264 1.278 . S
C268 O269 1.211 . S
O269 C268 1.211 . S
C270 O262 1.284 . S
C270 O271 1.273 . S
O271 C270 1.273 . S
O272 Zn263 1.977 . S
O272 C265 1.267 . S
C273 O274 1.160 . S
C273 O280 1.185 . S
O274 C273 1.160 . S
O275 Zn276 1.899 . S
O275 C283 1.284 . S
Zn276 O275 1.899 . S
Zn276 O277 2.032 . S
Zn276 O280 2.086 . S
Zn276 O285 1.977 . S
O277 Zn276 2.032 . S
O277 C281 1.278 . S
C278 O279 1.203 . S
C278 O285 1.267 . S
O279 C278 1.203 . S
O280 C273 1.185 . S
O280 Zn276 2.086 . S
C281 O277 1.278 . S
C281 O282 1.211 . S
O282 C281 1.211 . S
C283 O275 1.284 . S
C283 O284 1.273 . S
O284 C283 1.273 . S
O285 Zn276 1.977 . S
O285 C278 1.267 . S
C286 O287 1.160 . S
C286 O293 1.185 . S
O287 C286 1.160 . S
O288 Zn289 1.899 . S
O288 C296 1.284 . S
Zn289 O288 1.899 . S
Zn289 O290 2.032 . S
Zn289 O293 2.086 . S
Zn289 O298 1.977 . S
O290 Zn289 2.032 . S
O290 C294 1.278 . S
C291 O292 1.203 . S
C291 O298 1.267 . S
O292 C291 1.203 . S
O293 C286 1.185 . S
O293 Zn289 2.086 . S
C294 O290 1.278 . S
C294 O295 1.211 . S
O295 C294 1.211 . S
C296 O288 1.284 . S
C296 O297 1.273 . S
O297 C296 1.273 . S
O298 Zn289 1.977 . S
O298 C291 1.267 . S
C299 O300 1.160 . S
C299 O306 1.185 . S
O300 C299 1.160 . S
O301 Zn302 1.899 . S
O301 C309 1.284 . S
Zn302 O301 1.899 . S
Zn302 O303 2.032 . S
Zn302 O306 2.086 . S
Zn302 O311 1.977 . S
O303 Zn302 2.032 . S
O303 C307 1.278 . S
C304 O305 1.203 . S
C304 O311 1.267 . S
O305 C304 1.203 . S
O306 C299 1.185 . S
O306 Zn302 2.086 . S
C307 O303 1.278 . S
C307 O308 1.211 . S
O308 C307 1.211 . S
C309 O301 1.284 . S
C309 O310 1.273 . S
O310 C309 1.273 . S
O311 Zn302 1.977 . S
O311 C304 1.267 . S
C312 O313 1.160 . S
C312 O319 1.185 . S
O313 C312 1.160 . S
O314 Zn315 1.899 . S
O314 C322 1.284 . S
Zn315 O314 1.899 . S
Zn315 O316 2.032 . S
Zn315 O319 2.086 . S
Zn315 O324 1.977 . S
O316 Zn315 2.032 . S
O316 C320 1.278 . S
C317 O318 1.203 . S
C317 O324 1.267 . S
O318 C317 1.203 . S
O319 C312 1.185 . S
O319 Zn315 2.086 . S
C320 O316 1.278 . S
C320 O321 1.211 . S
O321 C320 1.211 . S
C322 O314 1.284 . S
C322 O323 1.273 . S
O323 C322 1.273 . S
O324 Zn315 1.977 . S
O324 C317 1.267 . S
C325 O326 1.160 . S
C325 O332 1.185 . S
O326 C325 1.160 . S
O327 Zn328 1.899 . S
O327 C335 1.284 . S
Zn328 O327 1.899 . S
Zn328 O329 2.032 . S
Zn328 O332 2.086 . S
Zn328 O337 1.977 . S
O329 Zn328 2.032 . S
O329 C333 1.278 . S
C330 O331 1.203 . S
C330 O337 1.267 . S
O331 C330 1.203 . S
O332 C325 1.185 . S
O332 Zn328 2.086 . S
C333 O329 1.278 . S
C333 O334 1.211 . S
O334 C333 1.211 . S
C335 O327 1.284 . S
C335 O336 1.273 . S
O336 C335 1.273 . S
O337 Zn328 1.977 . S
O337 C330 1.267 . S
C338 O339 1.160 . S
C338 O345 1.185 . S
O339 C338 1.160 . S
O340 Zn341 1.899 . S
O340 C348 1.284 . S
Zn341 O340 1.899 . S
Zn341 O342 2.032 . S
Zn341 O345 2.086 . S
Zn341 O350 1.977 . S
O342 Zn341 2.032 . S
O342 C346 1.278 . S
C343 O344 1.203 . S
C343 O350 1.267 . S
O344 C343 1.203 . S
O345 C338 1.185 . S
O345 Zn341 2.086 . S
C346 O342 1.278 . S
C346 O347 1.211 . S
O347 C346 1.211 . S
C348 O340 1.284 . S
C348 O349 1.273 . S
O349 C348 1.273 . S
O350 Zn341 1.977 . S
O350 C343 1.267 . S
C351 O352 1.160 . S
C351 O358 1.185 . S
O352 C351 1.160 . S
O353 Zn354 1.899 . S
O353 C361 1.284 . S
Zn354 O353 1.899 . S
Zn354 O355 2.032 . S
Zn354 O358 2.086 . S
Zn354 O363 1.977 . S
O355 Zn354 2.032 . S
O355 C359 1.278 . S
C356 O357 1.203 . S
C356 O363 1.267 . S
O357 C356 1.203 . S
O358 C351 1.185 . S
O358 Zn354 2.086 . S
C359 O355 1.278 . S
C359 O360 1.211 . S
O360 C359 1.211 . S
C361 O353 1.284 . S
C361 O362 1.273 . S
O362 C361 1.273 . S
O363 Zn354 1.977 . S
O363 C356 1.267 . S
C364 O365 1.160 . S
C364 O371 1.185 . S
O365 C364 1.160 . S
O366 Zn367 1.899 . S
O366 C374 1.284 . S
Zn367 O366 1.899 . S
Zn367 O368 2.032 . S
Zn367 O371 2.086 . S
Zn367 O376 1.977 . S
O368 Zn367 2.032 . S
O368 C372 1.278 . S
C369 O370 1.203 . S
C369 O376 1.267 . S
O370 C369 1.203 . S
O371 C364 1.185 . S
O371 Zn367 2.086 . S
C372 O368 1.278 . S
C372 O373 1.211 . S
O373 C372 1.211 . S
C374 O366 1.284 . S
C374 O375 1.273 . S
O375 C374 1.273 . S
O376 Zn367 1.977 . S
O376 C369 1.267 . S
C377 O378 1.160 . S
C377 O384 1.185 . S
O378 C377 1.160 . S
O379 Zn380 1.899 . S
O379 C387 1.284 . S
Zn380 O379 1.899 . S
Zn380 O381 2.032 . S
Zn380 O384 2.086 . S
Zn380 O389 1.977 . S
O381 Zn380 2.032 . S
O381 C385 1.278 . S
C382 O383 1.203 . S
C382 O389 1.267 . S
O383 C382 1.203 . S
O384 C377 1.185 . S
O384 Zn380 2.086 . S
C385 O381 1.278 . S
C385 O386 1.211 . S
O386 C385 1.211 . S
C387 O379 1.284 . S
C387 O388 1.273 . S
O388 C387 1.273 . S
O389 Zn380 1.977 . S
O389 C382 1.267 . S
C390 O391 1.160 . S
C390 O397 1.185 . S
O391 C390 1.160 . S
O392 Zn393 1.899 . S
O392 C400 1.284 . S
Zn393 O392 1.899 . S
Zn393 O394 2.032 . S
Zn393 O397 2.086 . S
Zn393 O402 1.977 . S
O394 Zn393 2.032 . S
O394 C398 1.278 . S
C395 O396 1.203 . S
C395 O402 1.267 . S
O396 C395 1.203 . S
O397 C390 1.185 . S
O397 Zn393 2.086 . S
C398 O394 1.278 . S
C398 O399 1.211 . S
O399 C398 1.211 . S
C400 O392 1.284 . S
C400 O401 1.273 . S
O401 C400 1.273 . S
O402 Zn393 1.977 . S
O402 C395 1.267 . S
C403 O404 1.160 . S
C403 O410 1.185 . S
O404 C403 1.160 . S
O405 Zn406 1.899 . S
O405 C413 1.284 . S
Zn406 O405 1.899 . S
Zn406 O407 2.032 . S
Zn406 O410 2.086 . S
Zn406 O415 1.977 . S
O407 Zn406 2.032 . S
O407 C411 1.278 . S
C408 O409 1.203 . S
C408 O415 1.267 . S
O409 C408 1.203 . S
O410 C403 1.185 . S
O410 Zn406 2.086 . S
C411 O407 1.278 . S
C411 O412 1.211 . S
O412 C411 1.211 . S
C413 O405 1.284 . S
C413 O414 1.273 . S
O414 C413 1.273 . S
O415 Zn406 1.977 . S
O415 C408 1.267 . S
C416 O417 1.160 . S
C416 O423 1.185 . S
O417 C416 1.160 . S
O418 Zn419 1.899 . S
O418 C426 1.284 . S
Zn419 O418 1.899 . S
Zn419 O420 2.032 . S
Zn419 O423 2.086 . S
Zn419 O428 1.977 . S
O420 Zn419 2.032 . S
O420 C424 1.278 . S
C421 O422 1.203 . S
C421 O428 1.267 . S
O422 C421 1.203 . S
O423 C416 1.185 . S
O423 Zn419 2.086 . S
C424 O420 1.278 . S
C424 O425 1.211 . S
O425 C424 1.211 . S
C426 O418 1.284 . S
C426 O427 1.273 . S
O427 C426 1.273 . S
O428 Zn419 1.977 . S
O428 C421 1.267 . S
C429 O430 1.160 . S
C429 O436 1.185 . S
O430 C429 1.160 . S
O431 Zn432 1.899 . S
O431 C439 1.284 . S
Zn432 O431 1.899 . S
Zn432 O433 2.032 . S
Zn432 O436 2.086 . S
Zn432 O441 1.977 . S
O433 Zn432 2.032 . S
O433 C437 1.278 . S
C434 O435 1.203 . S
C434 O441 1.267 . S
O435 C434 1.203 . S
O436 C429 1.185 . S
O436 Zn432 2.086 . S
C437 O433 1.278 . S
C437 O438 1.211 . S
O438 C437 1.211 . S
C439 O431 1.284 . S
C439 O440 1.273 . S
O440 C439 1.273 . S
O441 Zn432 1.977 . S
O441 C434 1.267 . S
C442 O443 1.160 . S
C442 O449 1.185 . S
O443 C442 1.160 . S
O444 Zn445 1.899 . S
O444 C452 1.284 . S
Zn445 O444 1.899 . S
Zn445 O446 2.032 . S
Zn445 O449 2.086 . S
Zn445 O454 1.977 . S
O446 Zn445 2.032 . S
O446 C450 1.278 . S
C447 O448 1.203 . S
C447 O454 1.267 . S
O448 C447 1.203 . S
O449 C442 1.185 . S
O449 Zn445 2.086 . S
C450 O446 1.278 . S
C450 O451 1.211 . S
O451 C450 1.211 . S
C452 O444 1.284 . S
C452 O453 1.273 . S
O453 C452 1.273 . S
O454 Zn445 1.977 . S
O454 C447 1.267 . S
C455 O456 1.160 . S
C455 O462 1.185 . S
O456 C455 1.160 . S
O457 Zn458 1.899 . S
O457 C465 1.284 . S
Zn458 O457 1.899 . S
Zn458 O459 2.032 . S
Zn458 O462 2.086 . S
Zn458 O467 1.977 . S
O459 Zn458 2.032 . S
O459 C463 1.278 . S
C460 O461 1.203 . S
C460 O467 1.267 . S
O461 C460 1.203 . S
O462 C455 1.185 . S
O462 Zn458 2.086 . S
C463 O459 1.278 . S
C463 O464 1.211 . S
O464 C463 1.211 . S
C465 O457 1.284 . S
C465 O466 1.273 . S
O466 C465 1.273 . S
O467 Zn458 1.977 . S
O467 C460 1.267 . S
H468 C476 0.950 . S
H469 C481 0.950 . S
H470 C478 0.950 . S
H471 C480 0.950 1_545 S
H472 C482 0.950 . S
H473 C484 0.950 . S
H474 C486 0.950 1_565 S
H475 C487 0.950 . S
C476 H468 0.950 . S
C476 C477 1.386 . S
C476 C478 1.391 . S
C477 C476 1.386 . S
C477 C481 1.393 . S
C478 H470 0.950 . S
C478 C476 1.391 . S
C478 C479 1.400 . S
C479 C478 1.400 . S
C479 C480 1.398 . S
C479 C485 1.491 1_565 S
C480 H471 0.950 1_565 S
C480 C479 1.398 . S
C480 C481 1.391 . S
C481 H469 0.950 . S
C481 C477 1.393 . S
C481 C480 1.391 . S
C482 H472 0.950 . S
C482 C483 1.386 . S
C482 C484 1.391 . S
C483 C482 1.386 . S
C483 C487 1.393 . S
C484 H473 0.950 . S
C484 C482 1.391 . S
C484 C485 1.400 . S
C485 C479 1.491 1_545 S
C485 C484 1.400 . S
C485 C486 1.398 . S
C486 H474 0.950 1_545 S
C486 C485 1.398 . S
C486 C487 1.391 . S
C487 H475 0.950 . S
C487 C483 1.393 . S
C487 C486 1.391 . S
H488 C496 0.950 . S
H489 C501 0.950 . S
H490 C498 0.950 . S
H491 C500 0.950 . S
H492 C502 0.950 . S
H493 C504 0.950 . S
H494 C506 0.950 . S
H495 C507 0.950 . S
C496 H488 0.950 . S
C496 C497 1.386 . S
C496 C498 1.391 . S
C497 C496 1.386 . S
C497 C501 1.393 . S
C498 H490 0.950 . S
C498 C496 1.391 . S
C498 C499 1.400 . S
C499 C498 1.400 . S
C499 C500 1.398 . S
C499 C505 1.491 1_655 S
C500 H491 0.950 . S
C500 C499 1.398 . S
C500 C501 1.391 . S
C501 H489 0.950 . S
C501 C497 1.393 . S
C501 C500 1.391 . S
C502 H492 0.950 . S
C502 C503 1.386 . S
C502 C504 1.391 . S
C503 C502 1.386 . S
C503 C507 1.393 . S
C504 H493 0.950 . S
C504 C502 1.391 . S
C504 C505 1.400 . S
C505 C499 1.491 1_455 S
C505 C504 1.400 . S
C505 C506 1.398 . S
C506 H494 0.950 . S
C506 C505 1.398 . S
C506 C507 1.391 . S
C507 H495 0.950 . S
C507 C503 1.393 . S
C507 C506 1.391 . S
H508 C516 0.950 . S
H509 C521 0.950 . S
H510 C518 0.950 . S
H511 C520 0.950 . S
H512 C522 0.950 . S
H513 C524 0.950 . S
H514 C526 0.950 . S
H515 C527 0.950 . S
C516 H508 0.950 . S
C516 C517 1.386 . S
C516 C518 1.391 . S
C517 C516 1.386 . S
C517 C521 1.393 . S
C518 H510 0.950 . S
C518 C516 1.391 . S
C518 C519 1.400 . S
C519 C518 1.400 . S
C519 C520 1.398 . S
C519 C525 1.491 . S
C520 H511 0.950 . S
C520 C519 1.398 . S
C520 C521 1.391 . S
C521 H509 0.950 . S
C521 C517 1.393 . S
C521 C520 1.391 . S
C522 H512 0.950 . S
C522 C523 1.386 . S
C522 C524 1.391 . S
C523 C522 1.386 . S
C523 C527 1.393 . S
C524 H513 0.950 . S
C524 C522 1.391 . S
C524 C525 1.400 . S
C525 C519 1.491 . S
C525 C524 1.400 . S
C525 C526 1.398 . S
C526 H514 0.950 . S
C526 C525 1.398 . S
C526 C527 1.391 . S
C527 H515 0.950 . S
C527 C523 1.393 . S
C527 C526 1.391 . S
H528 C536 0.950 . S
H529 C541 0.950 . S
H530 C538 0.995 . S
H531 C540 0.950 . S
H532 C542 0.950 . S
H533 C544 0.995 . S
H534 C546 0.950 . S
H535 C547 0.950 . S
C536 H528 0.950 . S
C536 C537 1.386 . S
C536 C538 1.391 . S
C537 C536 1.386 . S
C537 C541 1.393 . S
C538 H530 0.995 . S
C538 C536 1.391 . S
C538 C539 1.400 . S
C539 C538 1.400 . S
C539 C540 1.398 . S
C539 C545 1.491 1_565 S
C540 H531 0.950 . S
C540 C539 1.398 . S
C540 C541 1.391 . S
C541 H529 0.950 . S
C541 C537 1.393 . S
C541 C540 1.391 . S
C542 H532 0.950 . S
C542 C543 1.386 . S
C542 C544 1.391 . S
C543 C542 1.386 . S
C543 C547 1.393 . S
C544 H533 0.995 . S
C544 C542 1.391 . S
C544 C545 1.400 . S
C545 C539 1.491 1_545 S
C545 C544 1.400 . S
C545 C546 1.398 . S
C546 H534 0.950 . S
C546 C545 1.398 . S
C546 C547 1.391 . S
C547 H535 0.950 . S
C547 C543 1.393 . S
C547 C546 1.391 . S
H548 C556 0.950 . S
H549 C561 0.950 . S
H550 C558 0.950 . S
H551 C560 0.950 1_655 S
H552 C562 0.950 . S
H553 C564 0.950 . S
H554 C566 0.950 1_455 S
H555 C567 0.950 . S
C556 H548 0.950 . S
C556 C557 1.386 . S
C556 C558 1.391 . S
C557 C556 1.386 . S
C557 C561 1.393 . S
C558 H550 0.950 . S
C558 C556 1.391 . S
C558 C559 1.400 . S
C559 C558 1.400 . S
C559 C560 1.398 . S
C559 C565 1.491 1_455 S
C560 H551 0.950 1_455 S
C560 C559 1.398 . S
C560 C561 1.391 . S
C561 H549 0.950 . S
C561 C557 1.393 . S
C561 C560 1.391 . S
C562 H552 0.950 . S
C562 C563 1.386 . S
C562 C564 1.391 . S
C563 C562 1.386 . S
C563 C567 1.393 . S
C564 H553 0.950 . S
C564 C562 1.391 . S
C564 C565 1.400 . S
C565 C559 1.491 1_655 S
C565 C564 1.400 . S
C565 C566 1.398 . S
C566 H554 0.950 1_655 S
C566 C565 1.398 . S
C566 C567 1.391 . S
C567 H555 0.950 . S
C567 C563 1.393 . S
C567 C566 1.391 . S
H568 C576 0.950 . S
H569 C581 0.950 . S
H570 C578 0.950 . S
H571 C580 0.950 . S
H572 C582 0.950 . S
H573 C584 0.950 . S
H574 C586 0.950 . S
H575 C587 0.950 . S
C576 H568 0.950 . S
C576 C577 1.386 . S
C576 C578 1.391 . S
C577 C576 1.386 . S
C577 C581 1.393 . S
C578 H570 0.950 . S
C578 C576 1.391 . S
C578 C579 1.400 . S
C579 C578 1.400 . S
C579 C580 1.398 . S
C579 C585 1.491 . S
C580 H571 0.950 . S
C580 C579 1.398 . S
C580 C581 1.391 . S
C581 H569 0.950 . S
C581 C577 1.393 . S
C581 C580 1.391 . S
C582 H572 0.950 . S
C582 C583 1.386 . S
C582 C584 1.391 . S
C583 C582 1.386 . S
C583 C587 1.393 . S
C584 H573 0.950 . S
C584 C582 1.391 . S
C584 C585 1.400 . S
C585 C579 1.491 . S
C585 C584 1.400 . S
C585 C586 1.398 . S
C586 H574 0.950 . S
C586 C585 1.398 . S
C586 C587 1.391 . S
C587 H575 0.950 . S
C587 C583 1.393 . S
C587 C586 1.391 . S
H588 C596 0.950 . S
H589 C601 0.950 . S
H590 C598 0.950 . S
H591 C600 0.950 . S
H592 C602 0.950 . S
H593 C604 0.950 . S
H594 C606 0.950 . S
H595 C607 0.950 . S
C596 H588 0.950 . S
C596 C597 1.386 . S
C596 C598 1.391 . S
C597 C596 1.386 . S
C597 C601 1.393 . S
C598 H590 0.950 . S
C598 C596 1.391 . S
C598 C599 1.400 . S
C599 C598 1.400 . S
C599 C600 1.398 . S
C599 C605 1.491 . S
C600 H591 0.950 . S
C600 C599 1.398 . S
C600 C601 1.391 . S
C601 H589 0.950 . S
C601 C597 1.393 . S
C601 C600 1.391 . S
C602 H592 0.950 . S
C602 C603 1.386 . S
C602 C604 1.391 . S
C603 C602 1.386 . S
C603 C607 1.393 . S
C604 H593 0.950 . S
C604 C602 1.391 . S
C604 C605 1.400 . S
C605 C599 1.491 . S
C605 C604 1.400 . S
C605 C606 1.398 . S
C606 H594 0.950 . S
C606 C605 1.398 . S
C606 C607 1.391 . S
C607 H595 0.950 . S
C607 C603 1.393 . S
C607 C606 1.391 . S
H608 C616 0.950 . S
H609 C621 0.950 . S
H610 C618 0.950 . S
H611 C620 0.950 . S
H612 C622 0.950 . S
H613 C624 0.950 . S
H614 C626 0.950 . S
H615 C627 0.950 . S
C616 H608 0.950 . S
C616 C617 1.386 . S
C616 C618 1.391 . S
C617 C616 1.386 . S
C617 C621 1.393 . S
C618 H610 0.950 . S
C618 C616 1.391 . S
C618 C619 1.400 . S
C619 C618 1.400 . S
C619 C620 1.398 . S
C619 C625 1.491 . S
C620 H611 0.950 . S
C620 C619 1.398 . S
C620 C621 1.391 . S
C621 H609 0.950 . S
C621 C617 1.393 . S
C621 C620 1.391 . S
C622 H612 0.950 . S
C622 C623 1.386 . S
C622 C624 1.391 . S
C623 C622 1.386 . S
C623 C627 1.393 . S
C624 H613 0.950 . S
C624 C622 1.391 . S
C624 C625 1.400 . S
C625 C619 1.491 . S
C625 C624 1.400 . S
C625 C626 1.398 . S
C626 H614 0.950 . S
C626 C625 1.398 . S
C626 C627 1.391 . S
C627 H615 0.950 . S
C627 C623 1.393 . S
C627 C626 1.391 . S
H628 C636 0.950 . S
H629 C641 0.950 . S
H630 C638 0.950 . S
H631 C640 0.950 . S
H632 C642 0.950 . S
H633 C644 0.950 . S
H634 C646 0.950 . S
H635 C647 0.950 . S
C636 H628 0.950 . S
C636 C637 1.386 . S
C636 C638 1.391 . S
C637 C636 1.386 . S
C637 C641 1.393 . S
C638 H630 0.950 . S
C638 C636 1.391 . S
C638 C639 1.400 . S
C639 C638 1.400 . S
C639 C640 1.398 . S
C639 C645 1.491 . S
C640 H631 0.950 . S
C640 C639 1.398 . S
C640 C641 1.391 . S
C641 H629 0.950 . S
C641 C637 1.393 . S
C641 C640 1.391 . S
C642 H632 0.950 . S
C642 C643 1.386 . S
C642 C644 1.391 . S
C643 C642 1.386 . S
C643 C647 1.393 . S
C644 H633 0.950 . S
C644 C642 1.391 . S
C644 C645 1.400 . S
C645 C639 1.491 . S
C645 C644 1.400 . S
C645 C646 1.398 . S
C646 H634 0.950 . S
C646 C645 1.398 . S
C646 C647 1.391 . S
C647 H635 0.950 . S
C647 C643 1.393 . S
C647 C646 1.391 . S
H648 C656 0.950 . S
H649 C661 0.950 . S
H650 C658 0.950 . S
H651 C660 0.950 . S
H652 C662 0.950 . S
H653 C664 0.950 . S
H654 C666 0.950 . S
H655 C667 0.950 . S
C656 H648 0.950 . S
C656 C657 1.386 . S
C656 C658 1.391 . S
C657 C656 1.386 . S
C657 C661 1.393 . S
C658 H650 0.950 . S
C658 C656 1.391 . S
C658 C659 1.400 . S
C659 C658 1.400 . S
C659 C660 1.398 . S
C659 C665 1.491 . S
C660 H651 0.950 . S
C660 C659 1.398 . S
C660 C661 1.391 . S
C661 H649 0.950 . S
C661 C657 1.393 . S
C661 C660 1.391 . S
C662 H652 0.950 . S
C662 C663 1.386 . S
C662 C664 1.391 1_556 S
C663 C662 1.386 . S
C663 C667 1.393 . S
C664 H653 0.950 . S
C664 C662 1.391 1_554 S
C664 C665 1.400 . S
C665 C659 1.491 . S
C665 C664 1.400 . S
C665 C666 1.398 . S
C666 H654 0.950 . S
C666 C665 1.398 . S
C666 C667 1.391 1_554 S
C667 H655 0.950 . S
C667 C663 1.393 . S
C667 C666 1.391 1_556 S
H668 C676 0.950 . S
H669 C681 0.950 . S
H670 C678 0.950 . S
H671 C680 0.950 . S
H672 C682 0.950 . S
H673 C684 0.950 . S
H674 C686 0.950 . S
H675 C687 0.950 . S
C676 H668 0.950 . S
C676 C677 1.386 . S
C676 C678 1.391 . S
C677 C676 1.386 . S
C677 C681 1.393 . S
C678 H670 0.950 . S
C678 C676 1.391 . S
C678 C679 1.400 . S
C679 C678 1.400 . S
C679 C680 1.398 . S
C679 C685 1.491 . S
C680 H671 0.950 . S
C680 C679 1.398 . S
C680 C681 1.391 . S
C681 H669 0.950 . S
C681 C677 1.393 . S
C681 C680 1.391 . S
C682 H672 0.950 . S
C682 C683 1.386 1_554 S
C682 C684 1.391 . S
C683 C682 1.386 1_556 S
C683 C687 1.393 . S
C684 H673 0.950 . S
C684 C682 1.391 . S
C684 C685 1.400 . S
C685 C679 1.491 . S
C685 C684 1.400 . S
C685 C686 1.398 1_554 S
C686 H674 0.950 . S
C686 C685 1.398 1_556 S
C686 C687 1.391 . S
C687 H675 0.950 . S
C687 C683 1.393 . S
C687 C686 1.391 . S
H688 C696 0.950 . S
H689 C701 0.950 . S
H690 C698 0.950 . S
H691 C700 0.950 . S
H692 C702 0.949 1_556 S
H693 C704 0.950 . S
H694 C706 0.950 . S
H695 C707 0.950 . S
C696 H688 0.950 . S
C696 C697 1.386 . S
C696 C698 1.391 . S
C697 C696 1.386 . S
C697 C701 1.393 . S
C698 H690 0.950 . S
C698 C696 1.391 . S
C698 C699 1.400 . S
C699 C698 1.400 . S
C699 C700 1.398 . S
C699 C705 1.491 . S
C700 H691 0.950 . S
C700 C699 1.398 . S
C700 C701 1.391 . S
C701 H689 0.950 . S
C701 C697 1.393 . S
C701 C700 1.391 . S
C702 H692 0.949 1_554 S
C702 C703 1.377 1_554 S
C702 C704 1.401 . S
C703 C702 1.377 1_556 S
C703 C707 1.393 . S
C704 H693 0.950 . S
C704 C702 1.401 . S
C704 C705 1.400 . S
C705 C699 1.491 . S
C705 C704 1.400 . S
C705 C706 1.398 . S
C706 H694 0.950 . S
C706 C705 1.398 . S
C706 C707 1.391 1_554 S
C707 H695 0.950 . S
C707 C703 1.393 . S
C707 C706 1.391 1_556 S
H708 C716 0.950 . S
H709 C721 0.950 . S
H710 C718 0.950 . S
H711 C720 0.950 . S
H712 C722 0.950 . S
H713 C724 0.950 . S
H714 C726 0.950 1_554 S
H715 C727 0.950 . S
C716 H708 0.950 . S
C716 C717 1.386 . S
C716 C718 1.391 . S
C717 C716 1.386 . S
C717 C721 1.393 . S
C718 H710 0.950 . S
C718 C716 1.391 . S
C718 C719 1.400 . S
C719 C718 1.400 . S
C719 C720 1.398 . S
C719 C725 1.491 . S
C720 H711 0.950 . S
C720 C719 1.398 . S
C720 C721 1.391 . S
C721 H709 0.950 . S
C721 C717 1.393 . S
C721 C720 1.391 . S
C722 H712 0.950 . S
C722 C723 1.386 1_556 S
C722 C724 1.391 . S
C723 C722 1.386 1_554 S
C723 C727 1.393 . S
C724 H713 0.950 . S
C724 C722 1.391 . S
C724 C725 1.400 . S
C725 C719 1.491 . S
C725 C724 1.400 . S
C725 C726 1.398 . S
C726 H714 0.950 1_556 S
C726 C725 1.398 . S
C726 C727 1.391 1_556 S
C727 H715 0.950 . S
C727 C723 1.393 . S
C727 C726 1.391 1_554 S
H728 C736 0.950 . S
H729 C741 0.950 . S
H730 C738 0.950 1_554 S
H731 C740 0.950 . S
H732 C742 0.950 . S
H733 C744 0.950 . S
H734 C746 0.950 . S
H735 C747 0.950 . S
C736 H728 0.950 . S
C736 C737 1.386 . S
C736 C738 1.391 1_554 S
C737 C736 1.386 . S
C737 C741 1.393 1_554 S
C738 H730 0.950 1_556 S
C738 C736 1.391 1_556 S
C738 C739 1.400 . S
C739 C738 1.400 . S
C739 C740 1.398 . S
C739 C745 1.491 . S
C740 H731 0.950 . S
C740 C739 1.398 . S
C740 C741 1.391 . S
C741 H729 0.950 . S
C741 C737 1.393 1_556 S
C741 C740 1.391 . S
C742 H732 0.950 . S
C742 C743 1.386 . S
C742 C744 1.391 . S
C743 C742 1.386 . S
C743 C747 1.393 . S
C744 H733 0.950 . S
C744 C742 1.391 . S
C744 C745 1.400 . S
C745 C739 1.491 . S
C745 C744 1.400 . S
C745 C746 1.398 . S
C746 H734 0.950 . S
C746 C745 1.398 . S
C746 C747 1.391 . S
C747 H735 0.950 . S
C747 C743 1.393 . S
C747 C746 1.391 . S
H748 C756 0.950 . S
H749 C761 0.950 . S
H750 C758 0.950 . S
H751 C760 0.950 . S
H752 C762 0.950 . S
H753 C764 0.950 . S
H754 C766 0.950 . S
H755 C767 0.950 . S
C756 H748 0.950 . S
C756 C757 1.386 . S
C756 C758 1.391 . S
C757 C756 1.386 . S
C757 C761 1.393 . S
C758 H750 0.950 . S
C758 C756 1.391 . S
C758 C759 1.400 . S
C759 C758 1.400 . S
C759 C760 1.398 . S
C759 C765 1.491 . S
C760 H751 0.950 . S
C760 C759 1.398 . S
C760 C761 1.391 . S
C761 H749 0.950 . S
C761 C757 1.393 . S
C761 C760 1.391 . S
C762 H752 0.950 . S
C762 C763 1.386 . S
C762 C764 1.391 . S
C763 C762 1.386 . S
C763 C767 1.393 1_554 S
C764 H753 0.950 . S
C764 C762 1.391 . S
C764 C765 1.400 1_554 S
C765 C759 1.491 . S
C765 C764 1.400 1_556 S
C765 C766 1.398 . S
C766 H754 0.950 . S
C766 C765 1.398 . S
C766 C767 1.391 . S
C767 H755 0.950 . S
C767 C763 1.393 1_556 S
C767 C766 1.391 . S
H768 C776 0.950 . S
H769 C781 0.950 . S
H770 C778 0.950 . S
H771 C780 0.950 . S
H772 C782 0.950 . S
H773 C784 0.950 . S
H774 C786 0.950 . S
H775 C787 0.950 . S
C776 H768 0.950 . S
C776 C777 1.386 . S
C776 C778 1.391 . S
C777 C776 1.386 . S
C777 C781 1.393 . S
C778 H770 0.950 . S
C778 C776 1.391 . S
C778 C779 1.400 . S
C779 C778 1.400 . S
C779 C780 1.398 . S
C779 C785 1.491 . S
C780 H771 0.950 . S
C780 C779 1.398 . S
C780 C781 1.391 . S
C781 H769 0.950 . S
C781 C777 1.393 . S
C781 C780 1.391 . S
C782 H772 0.950 . S
C782 C783 1.386 . S
C782 C784 1.391 . S
C783 C782 1.386 . S
C783 C787 1.393 . S
C784 H773 0.950 . S
C784 C782 1.391 . S
C784 C785 1.400 . S
C785 C779 1.491 . S
C785 C784 1.400 . S
C785 C786 1.398 . S
C786 H774 0.950 . S
C786 C785 1.398 . S
C786 C787 1.391 . S
C787 H775 0.950 . S
C787 C783 1.393 . S
C787 C786 1.391 . S
H788 C796 0.950 . S
H789 C801 0.950 . S
H790 C798 0.950 . S
H791 C800 0.950 . S
H792 C802 0.950 . S
H793 C804 0.950 . S
H794 C806 0.950 . S
H795 C807 0.950 . S
C796 H788 0.950 . S
C796 C797 1.386 . S
C796 C798 1.391 . S
C797 C796 1.386 . S
C797 C801 1.393 . S
C798 H790 0.950 . S
C798 C796 1.391 . S
C798 C799 1.400 . S
C799 C798 1.400 . S
C799 C800 1.398 . S
C799 C805 1.491 . S
C800 H791 0.950 . S
C800 C799 1.398 . S
C800 C801 1.391 . S
C801 H789 0.950 . S
C801 C797 1.393 . S
C801 C800 1.391 . S
C802 H792 0.950 . S
C802 C803 1.386 . S
C802 C804 1.391 . S
C803 C802 1.386 . S
C803 C807 1.393 . S
C804 H793 0.950 . S
C804 C802 1.391 . S
C804 C805 1.400 . S
C805 C799 1.491 . S
C805 C804 1.400 . S
C805 C806 1.398 . S
C806 H794 0.950 . S
C806 C805 1.398 . S
C806 C807 1.391 . S
C807 H795 0.950 . S
C807 C803 1.393 . S
C807 C806 1.391 . S
H808 C816 0.950 . S
H809 C821 0.950 . S
H810 C818 0.950 . S
H811 C820 0.950 . S
H812 C822 0.950 . S
H813 C824 0.950 . S
H814 C826 0.950 . S
H815 C827 0.950 . S
C816 H808 0.950 . S
C816 C817 1.386 . S
C816 C818 1.391 . S
C817 C816 1.386 . S
C817 C821 1.393 . S
C818 H810 0.950 . S
C818 C816 1.391 . S
C818 C819 1.400 . S
C819 C818 1.400 . S
C819 C820 1.398 . S
C819 C825 1.491 . S
C820 H811 0.950 . S
C820 C819 1.398 . S
C820 C821 1.391 . S
C821 H809 0.950 . S
C821 C817 1.393 . S
C821 C820 1.391 . S
C822 H812 0.950 . S
C822 C823 1.386 . S
C822 C824 1.391 . S
C823 C822 1.386 . S
C823 C827 1.393 . S
C824 H813 0.950 . S
C824 C822 1.391 . S
C824 C825 1.400 . S
C825 C819 1.491 . S
C825 C824 1.400 . S
C825 C826 1.398 . S
C826 H814 0.950 . S
C826 C825 1.398 . S
C826 C827 1.391 . S
C827 H815 0.950 . S
C827 C823 1.393 . S
C827 C826 1.391 . S
H828 C836 0.950 . S
H829 C841 0.950 . S
H830 C838 0.950 . S
H831 C840 0.950 . S
H832 C842 0.950 . S
H833 C844 0.950 . S
H834 C846 0.950 . S
H835 C847 0.950 . S
C836 H828 0.950 . S
C836 C837 1.386 . S
C836 C838 1.391 . S
C837 C836 1.386 . S
C837 C841 1.393 . S
C838 H830 0.950 . S
C838 C836 1.391 . S
C838 C839 1.400 . S
C839 C838 1.400 . S
C839 C840 1.398 . S
C839 C845 1.491 . S
C840 H831 0.950 . S
C840 C839 1.398 . S
C840 C841 1.391 . S
C841 H829 0.950 . S
C841 C837 1.393 . S
C841 C840 1.391 . S
C842 H832 0.950 . S
C842 C843 1.386 . S
C842 C844 1.391 . S
C843 C842 1.386 . S
C843 C847 1.393 . S
C844 H833 0.950 . S
C844 C842 1.391 . S
C844 C845 1.400 . S
C845 C839 1.491 . S
C845 C844 1.400 . S
C845 C846 1.398 . S
C846 H834 0.950 . S
C846 C845 1.398 . S
C846 C847 1.391 . S
C847 H835 0.950 . S
C847 C843 1.393 . S
C847 C846 1.391 . S
H848 C856 0.950 . S
H849 C861 0.950 . S
H850 C858 0.950 . S
H851 C860 0.950 . S
H852 C862 0.950 . S
H853 C864 0.950 . S
H854 C866 0.950 . S
H855 C867 0.950 . S
C856 H848 0.950 . S
C856 C857 1.386 . S
C856 C858 1.391 . S
C857 C856 1.386 . S
C857 C861 1.393 . S
C858 H850 0.950 . S
C858 C856 1.391 . S
C858 C859 1.400 . S
C859 C858 1.400 . S
C859 C860 1.398 . S
C859 C865 1.491 . S
C860 H851 0.950 . S
C860 C859 1.398 . S
C860 C861 1.391 . S
C861 H849 0.950 . S
C861 C857 1.393 . S
C861 C860 1.391 . S
C862 H852 0.950 . S
C862 C863 1.386 . S
C862 C864 1.391 . S
C863 C862 1.386 . S
C863 C867 1.393 . S
C864 H853 0.950 . S
C864 C862 1.391 . S
C864 C865 1.400 . S
C865 C859 1.491 . S
C865 C864 1.400 . S
C865 C866 1.398 . S
C866 H854 0.950 . S
C866 C865 1.398 . S
C866 C867 1.391 . S
C867 H855 0.950 . S
C867 C863 1.393 . S
C867 C866 1.391 . S
H868 C876 0.950 . S
H869 C881 0.950 . S
H870 C878 0.950 . S
H871 C880 0.950 . S
H872 C882 0.950 . S
H873 C884 0.950 . S
H874 C886 0.950 . S
H875 C887 0.950 . S
C876 H868 0.950 . S
C876 C877 1.386 . S
C876 C878 1.391 . S
C877 C876 1.386 . S
C877 C881 1.393 . S
C878 H870 0.950 . S
C878 C876 1.391 . S
C878 C879 1.400 . S
C879 C878 1.400 . S
C879 C880 1.398 . S
C879 C885 1.491 . S
C880 H871 0.950 . S
C880 C879 1.398 . S
C880 C881 1.391 . S
C881 H869 0.950 . S
C881 C877 1.393 . S
C881 C880 1.391 . S
C882 H872 0.950 . S
C882 C883 1.386 . S
C882 C884 1.391 . S
C883 C882 1.386 . S
C883 C887 1.393 . S
C884 H873 0.950 . S
C884 C882 1.391 . S
C884 C885 1.400 . S
C885 C879 1.491 . S
C885 C884 1.400 . S
C885 C886 1.398 . S
C886 H874 0.950 . S
C886 C885 1.398 . S
C886 C887 1.391 . S
C887 H875 0.950 . S
C887 C883 1.393 . S
C887 C886 1.391 . S
H888 C896 0.950 . S
H889 C901 0.950 . S
H890 C898 0.950 . S
H891 C900 0.950 . S
H892 C902 0.950 . S
H893 C904 0.950 . S
H894 C906 0.950 . S
H895 C907 0.950 . S
C896 H888 0.950 . S
C896 C897 1.386 . S
C896 C898 1.391 . S
C897 C896 1.386 . S
C897 C901 1.393 . S
C898 H890 0.950 . S
C898 C896 1.391 . S
C898 C899 1.400 . S
C899 C898 1.400 . S
C899 C900 1.398 . S
C899 C905 1.491 . S
C900 H891 0.950 . S
C900 C899 1.398 . S
C900 C901 1.391 . S
C901 H889 0.950 . S
C901 C897 1.393 . S
C901 C900 1.391 . S
C902 H892 0.950 . S
C902 C903 1.386 . S
C902 C904 1.391 . S
C903 C902 1.386 . S
C903 C907 1.393 . S
C904 H893 0.950 . S
C904 C902 1.391 . S
C904 C905 1.400 . S
C905 C899 1.491 . S
C905 C904 1.400 . S
C905 C906 1.398 . S
C906 H894 0.950 . S
C906 C905 1.398 . S
C906 C907 1.391 . S
C907 H895 0.950 . S
C907 C903 1.393 . S
C907 C906 1.391 . S
H908 C916 0.950 . S
H909 C921 0.950 . S
H910 C918 0.950 . S
H911 C920 0.950 . S
H912 C922 0.950 . S
H913 C924 0.950 . S
H914 C926 0.950 . S
H915 C927 0.950 . S
C916 H908 0.950 . S
C916 C917 1.386 . S
C916 C918 1.391 . S
C917 C916 1.386 . S
C917 C921 1.393 . S
C918 H910 0.950 . S
C918 C916 1.391 . S
C918 C919 1.400 . S
C919 C918 1.400 . S
C919 C920 1.398 . S
C919 C925 1.491 . S
C920 H911 0.950 . S
C920 C919 1.398 . S
C920 C921 1.391 . S
C921 H909 0.950 . S
C921 C917 1.393 . S
C921 C920 1.391 . S
C922 H912 0.950 . S
C922 C923 1.386 . S
C922 C924 1.391 . S
C923 C922 1.386 . S
C923 C927 1.393 . S
C924 H913 0.950 . S
C924 C922 1.391 . S
C924 C925 1.400 . S
C925 C919 1.491 . S
C925 C924 1.400 . S
C925 C926 1.398 . S
C926 H914 0.950 . S
C926 C925 1.398 . S
C926 C927 1.391 . S
C927 H915 0.950 . S
C927 C923 1.393 . S
C927 C926 1.391 . S
H928 C936 0.950 . S
H929 C941 0.950 . S
H930 C938 0.950 . S
H931 C940 0.950 . S
H932 C942 0.950 . S
H933 C944 0.950 . S
H934 C946 0.950 . S
H935 C947 0.950 . S
C936 H928 0.950 . S
C936 C937 1.386 . S
C936 C938 1.391 . S
C937 C936 1.386 . S
C937 C941 1.393 . S
C938 H930 0.950 . S
C938 C936 1.391 . S
C938 C939 1.400 . S
C939 C938 1.400 . S
C939 C940 1.398 . S
C939 C945 1.491 . S
C940 H931 0.950 . S
C940 C939 1.398 . S
C940 C941 1.391 . S
C941 H929 0.950 . S
C941 C937 1.393 . S
C941 C940 1.391 . S
C942 H932 0.950 . S
C942 C943 1.386 . S
C942 C944 1.391 . S
C943 C942 1.386 . S
C943 C947 1.393 . S
C944 H933 0.950 . S
C944 C942 1.391 . S
C944 C945 1.400 . S
C945 C939 1.491 . S
C945 C944 1.400 . S
C945 C946 1.398 . S
C946 H934 0.950 . S
C946 C945 1.398 . S
C946 C947 1.391 . S
C947 H935 0.950 . S
C947 C943 1.393 . S
C947 C946 1.391 . S
H948 C956 0.950 . S
H949 C961 0.950 . S
H950 C958 0.950 . S
H951 C960 0.950 . S
H952 C962 0.950 . S
H953 C964 0.950 . S
H954 C966 0.950 . S
H955 C967 0.950 . S
C956 H948 0.950 . S
C956 C957 1.386 . S
C956 C958 1.391 . S
C957 C956 1.386 . S
C957 C961 1.393 . S
C958 H950 0.950 . S
C958 C956 1.391 . S
C958 C959 1.400 . S
C959 C958 1.400 . S
C959 C960 1.398 . S
C959 C965 1.491 . S
C960 H951 0.950 . S
C960 C959 1.398 . S
C960 C961 1.391 . S
C961 H949 0.950 . S
C961 C957 1.393 . S
C961 C960 1.391 . S
C962 H952 0.950 . S
C962 C963 1.386 . S
C962 C964 1.391 . S
C963 C962 1.386 . S
C963 C967 1.393 . S
C964 H953 0.950 . S
C964 C962 1.391 . S
C964 C965 1.400 . S
C965 C959 1.491 . S
C965 C964 1.400 . S
C965 C966 1.398 . S
C966 H954 0.950 . S
C966 C965 1.398 . S
C966 C967 1.391 . S
C967 H955 0.950 . S
C967 C963 1.393 . S
C967 C966 1.391 . S
H968 C976 0.950 . S
H969 C981 0.950 . S
H970 C978 0.950 . S
H971 C980 0.950 . S
H972 C982 0.950 . S
H973 C984 0.950 . S
H974 C986 0.950 . S
H975 C987 0.950 . S
C976 H968 0.950 . S
C976 C977 1.386 . S
C976 C978 1.391 . S
C977 C976 1.386 . S
C977 C981 1.393 . S
C978 H970 0.950 . S
C978 C976 1.391 . S
C978 C979 1.400 . S
C979 C978 1.400 . S
C979 C980 1.398 . S
C979 C985 1.491 . S
C980 H971 0.950 . S
C980 C979 1.398 . S
C980 C981 1.391 . S
C981 H969 0.950 . S
C981 C977 1.393 . S
C981 C980 1.391 . S
C982 H972 0.950 . S
C982 C983 1.386 . S
C982 C984 1.391 . S
C983 C982 1.386 . S
C983 C987 1.393 . S
C984 H973 0.950 . S
C984 C982 1.391 . S
C984 C985 1.400 . S
C985 C979 1.491 . S
C985 C984 1.400 . S
C985 C986 1.398 . S
C986 H974 0.950 . S
C986 C985 1.398 . S
C986 C987 1.391 . S
C987 H975 0.950 . S
C987 C983 1.393 . S
C987 C986 1.391 . S
H988 C996 0.950 . S
H989 C1001 0.950 . S
H990 C998 0.950 . S
H991 C1000 0.950 . S
H992 C1002 0.950 . S
H993 C1004 0.950 . S
H994 C1006 0.950 . S
H995 C1007 0.950 . S
C996 H988 0.950 . S
C996 C997 1.386 . S
C996 C998 1.391 . S
C997 C996 1.386 . S
C997 C1001 1.393 . S
C998 H990 0.950 . S
C998 C996 1.391 . S
C998 C999 1.400 . S
C999 C998 1.400 . S
C999 C1000 1.398 . S
C999 C1005 1.491 . S
C1000 H991 0.950 . S
C1000 C999 1.398 . S
C1000 C1001 1.391 . S
C1001 H989 0.950 . S
C1001 C997 1.393 . S
C1001 C1000 1.391 . S
C1002 H992 0.950 . S
C1002 C1003 1.386 . S
C1002 C1004 1.391 . S
C1003 C1002 1.386 . S
C1003 C1007 1.393 . S
C1004 H993 0.950 . S
C1004 C1002 1.391 . S
C1004 C1005 1.400 . S
C1005 C999 1.491 . S
C1005 C1004 1.400 . S
C1005 C1006 1.398 . S
C1006 H994 0.950 . S
C1006 C1005 1.398 . S
C1006 C1007 1.391 . S
C1007 H995 0.950 . S
C1007 C1003 1.393 . S
C1007 C1006 1.391 . S
H1008 C1016 0.950 . S
H1009 C1021 0.950 . S
H1010 C1018 0.950 . S
H1011 C1020 0.950 . S
H1012 C1022 0.950 . S
H1013 C1024 0.950 . S
H1014 C1026 0.950 . S
H1015 C1027 0.950 . S
C1016 H1008 0.950 . S
C1016 C1017 1.386 . S
C1016 C1018 1.391 . S
C1017 C1016 1.386 . S
C1017 C1021 1.393 . S
C1018 H1010 0.950 . S
C1018 C1016 1.391 . S
C1018 C1019 1.400 . S
C1019 C1018 1.400 . S
C1019 C1020 1.398 . S
C1019 C1025 1.491 . S
C1020 H1011 0.950 . S
C1020 C1019 1.398 . S
C1020 C1021 1.391 . S
C1021 H1009 0.950 . S
C1021 C1017 1.393 . S
C1021 C1020 1.391 . S
C1022 H1012 0.950 . S
C1022 C1023 1.386 . S
C1022 C1024 1.391 . S
C1023 C1022 1.386 . S
C1023 C1027 1.393 . S
C1024 H1013 0.950 . S
C1024 C1022 1.391 . S
C1024 C1025 1.400 . S
C1025 C1019 1.491 . S
C1025 C1024 1.400 . S
C1025 C1026 1.398 . S
C1026 H1014 0.950 . S
C1026 C1025 1.398 . S
C1026 C1027 1.391 . S
C1027 H1015 0.950 . S
C1027 C1023 1.393 . S
C1027 C1026 1.391 . S
H1028 C1036 0.950 . S
H1029 C1041 0.950 . S
H1030 C1038 0.950 . S
H1031 C1040 0.950 . S
H1032 C1042 0.950 . S
H1033 C1044 0.950 . S
H1034 C1046 0.950 . S
H1035 C1047 0.950 . S
C1036 H1028 0.950 . S
C1036 C1037 1.386 . S
C1036 C1038 1.391 . S
C1037 C1036 1.386 . S
C1037 C1041 1.393 . S
C1038 H1030 0.950 . S
C1038 C1036 1.391 . S
C1038 C1039 1.400 . S
C1039 C1038 1.400 . S
C1039 C1040 1.398 . S
C1039 C1045 1.491 . S
C1040 H1031 0.950 . S
C1040 C1039 1.398 . S
C1040 C1041 1.391 . S
C1041 H1029 0.950 . S
C1041 C1037 1.393 . S
C1041 C1040 1.391 . S
C1042 H1032 0.950 . S
C1042 C1043 1.386 . S
C1042 C1044 1.391 . S
C1043 C1042 1.386 . S
C1043 C1047 1.393 . S
C1044 H1033 0.950 . S
C1044 C1042 1.391 . S
C1044 C1045 1.400 . S
C1045 C1039 1.491 . S
C1045 C1044 1.400 . S
C1045 C1046 1.398 . S
C1046 H1034 0.950 . S
C1046 C1045 1.398 . S
C1046 C1047 1.391 . S
C1047 H1035 0.950 . S
C1047 C1043 1.393 . S
C1047 C1046 1.391 . S
H1048 C1056 0.950 . S
H1049 C1061 0.950 . S
H1050 C1058 0.950 . S
H1051 C1060 0.950 . S
H1052 C1062 0.950 . S
H1053 C1064 0.950 . S
H1054 C1066 0.950 . S
H1055 C1067 0.950 . S
C1056 H1048 0.950 . S
C1056 C1057 1.386 . S
C1056 C1058 1.391 . S
C1057 C1056 1.386 . S
C1057 C1061 1.393 . S
C1058 H1050 0.950 . S
C1058 C1056 1.391 . S
C1058 C1059 1.400 . S
C1059 C1058 1.400 . S
C1059 C1060 1.398 . S
C1059 C1065 1.491 . S
C1060 H1051 0.950 . S
C1060 C1059 1.398 . S
C1060 C1061 1.391 . S
C1061 H1049 0.950 . S
C1061 C1057 1.393 . S
C1061 C1060 1.391 . S
C1062 H1052 0.950 . S
C1062 C1063 1.386 . S
C1062 C1064 1.391 . S
C1063 C1062 1.386 . S
C1063 C1067 1.393 . S
C1064 H1053 0.950 . S
C1064 C1062 1.391 . S
C1064 C1065 1.400 . S
C1065 C1059 1.491 . S
C1065 C1064 1.400 . S
C1065 C1066 1.398 . S
C1066 H1054 0.950 . S
C1066 C1065 1.398 . S
C1066 C1067 1.391 . S
C1067 H1055 0.950 . S
C1067 C1063 1.393 . S
C1067 C1066 1.391 . S
H1068 C1076 0.950 . S
H1069 C1081 0.950 . S
H1070 C1078 0.950 . S
H1071 C1080 0.950 . S
H1072 C1082 0.950 . S
H1073 C1084 0.950 . S
H1074 C1086 0.950 . S
H1075 C1087 0.940 1_556 S
C1076 H1068 0.950 . S
C1076 C1077 1.386 . S
C1076 C1078 1.391 . S
C1077 C1076 1.386 . S
C1077 C1081 1.393 . S
C1078 H1070 0.950 . S
C1078 C1076 1.391 . S
C1078 C1079 1.400 . S
C1079 C1078 1.400 . S
C1079 C1080 1.398 . S
C1079 C1085 1.491 . S
C1080 H1071 0.950 . S
C1080 C1079 1.398 . S
C1080 C1081 1.391 . S
C1081 H1069 0.950 . S
C1081 C1077 1.393 . S
C1081 C1080 1.391 . S
C1082 H1072 0.950 . S
C1082 C1083 1.386 . S
C1082 C1084 1.391 . S
C1083 C1082 1.386 . S
C1083 C1087 1.395 . S
C1084 H1073 0.950 . S
C1084 C1082 1.391 . S
C1084 C1085 1.400 . S
C1085 C1079 1.491 . S
C1085 C1084 1.400 . S
C1085 C1086 1.398 . S
C1086 H1074 0.950 . S
C1086 C1085 1.398 . S
C1086 C1087 1.398 . S
C1087 H1075 0.940 1_554 S
C1087 C1083 1.395 . S
C1087 C1086 1.398 . S
H1088 C1096 0.950 . S
H1089 C1101 0.950 . S
H1090 C1098 0.950 . S
H1091 C1100 0.950 . S
H1092 C1102 0.950 . S
H1093 C1104 0.950 . S
H1094 C1106 0.950 . S
H1095 C1107 0.950 . S
C1096 H1088 0.950 . S
C1096 C1097 1.386 . S
C1096 C1098 1.391 . S
C1097 C1096 1.386 . S
C1097 C1101 1.393 . S
C1098 H1090 0.950 . S
C1098 C1096 1.391 . S
C1098 C1099 1.400 . S
C1099 C1098 1.400 . S
C1099 C1100 1.398 . S
C1099 C1105 1.491 . S
C1100 H1091 0.950 . S
C1100 C1099 1.398 . S
C1100 C1101 1.391 . S
C1101 H1089 0.950 . S
C1101 C1097 1.393 . S
C1101 C1100 1.391 . S
C1102 H1092 0.950 . S
C1102 C1103 1.386 . S
C1102 C1104 1.391 . S
C1103 C1102 1.386 . S
C1103 C1107 1.393 . S
C1104 H1093 0.950 . S
C1104 C1102 1.391 . S
C1104 C1105 1.400 . S
C1105 C1099 1.491 . S
C1105 C1104 1.400 . S
C1105 C1106 1.398 . S
C1106 H1094 0.950 . S
C1106 C1105 1.398 . S
C1106 C1107 1.391 . S
C1107 H1095 0.950 . S
C1107 C1103 1.393 . S
C1107 C1106 1.391 . S
H1108 C1116 0.950 . S
H1109 C1121 0.950 1_556 S
H1110 C1118 0.950 . S
H1111 C1120 0.950 . S
H1112 C1122 0.950 . S
H1113 C1124 0.950 . S
H1114 C1126 0.950 . S
H1115 C1127 0.950 . S
C1116 H1108 0.950 . S
C1116 C1117 1.386 . S
C1116 C1118 1.391 . S
C1117 C1116 1.386 . S
C1117 C1121 1.393 . S
C1118 H1110 0.950 . S
C1118 C1116 1.391 . S
C1118 C1119 1.400 . S
C1119 C1118 1.400 . S
C1119 C1120 1.398 . S
C1119 C1125 1.491 . S
C1120 H1111 0.950 . S
C1120 C1119 1.398 . S
C1120 C1121 1.391 . S
C1121 H1109 0.950 1_554 S
C1121 C1117 1.393 . S
C1121 C1120 1.391 . S
C1122 H1112 0.950 . S
C1122 C1123 1.386 . S
C1122 C1124 1.391 . S
C1123 C1122 1.386 . S
C1123 C1127 1.393 . S
C1124 H1113 0.950 . S
C1124 C1122 1.391 . S
C1124 C1125 1.400 . S
C1125 C1119 1.491 . S
C1125 C1124 1.400 . S
C1125 C1126 1.398 . S
C1126 H1114 0.950 . S
C1126 C1125 1.398 . S
C1126 C1127 1.391 . S
C1127 H1115 0.950 . S
C1127 C1123 1.393 . S
C1127 C1126 1.391 . S
H1128 C1136 0.950 . S
H1129 C1141 0.950 . S
H1130 C1138 0.950 1_554 S
H1131 C1140 0.950 . S
H1132 C1142 0.950 . S
H1133 C1144 0.950 . S
H1134 C1146 0.950 . S
H1135 C1147 0.950 . S
C1136 H1128 0.950 . S
C1136 C1137 1.386 . S
C1136 C1138 1.391 . S
C1137 C1136 1.386 . S
C1137 C1141 1.393 . S
C1138 H1130 0.950 1_556 S
C1138 C1136 1.391 . S
C1138 C1139 1.400 1_556 S
C1139 C1138 1.400 1_554 S
C1139 C1140 1.398 . S
C1139 C1145 1.491 . S
C1140 H1131 0.950 . S
C1140 C1139 1.398 . S
C1140 C1141 1.391 1_554 S
C1141 H1129 0.950 . S
C1141 C1137 1.393 . S
C1141 C1140 1.391 1_556 S
C1142 H1132 0.950 . S
C1142 C1143 1.386 . S
C1142 C1144 1.391 . S
C1143 C1142 1.386 . S
C1143 C1147 1.393 . S
C1144 H1133 0.950 . S
C1144 C1142 1.391 . S
C1144 C1145 1.400 . S
C1145 C1139 1.491 . S
C1145 C1144 1.400 . S
C1145 C1146 1.398 . S
C1146 H1134 0.950 . S
C1146 C1145 1.398 . S
C1146 C1147 1.391 . S
C1147 H1135 0.950 . S
C1147 C1143 1.393 . S
C1147 C1146 1.391 . S
H1148 C1156 0.950 . S
H1149 C1161 0.950 . S
H1150 C1158 0.950 . S
H1151 C1160 0.950 1_554 S
H1152 C1162 0.950 . S
H1153 C1164 0.950 . S
H1154 C1166 0.950 . S
H1155 C1167 0.950 . S
C1156 H1148 0.950 . S
C1156 C1157 1.386 . S
C1156 C1158 1.391 1_556 S
C1157 C1156 1.386 . S
C1157 C1161 1.393 . S
C1158 H1150 0.950 . S
C1158 C1156 1.391 1_554 S
C1158 C1159 1.400 . S
C1159 C1158 1.400 . S
C1159 C1160 1.398 1_554 S
C1159 C1165 1.491 . S
C1160 H1151 0.950 1_556 S
C1160 C1159 1.398 1_556 S
C1160 C1161 1.391 . S
C1161 H1149 0.950 . S
C1161 C1157 1.393 . S
C1161 C1160 1.391 . S
C1162 H1152 0.950 . S
C1162 C1163 1.386 . S
C1162 C1164 1.391 . S
C1163 C1162 1.386 . S
C1163 C1167 1.393 . S
C1164 H1153 0.950 . S
C1164 C1162 1.391 . S
C1164 C1165 1.400 . S
C1165 C1159 1.491 . S
C1165 C1164 1.400 . S
C1165 C1166 1.398 . S
C1166 H1154 0.950 . S
C1166 C1165 1.398 . S
C1166 C1167 1.391 . S
C1167 H1155 0.950 . S
C1167 C1163 1.393 . S
C1167 C1166 1.391 . S
H1168 C1176 0.950 . S
H1169 C1181 0.950 . S
H1170 C1178 0.950 . S
H1171 C1180 0.950 . S
H1172 C1182 0.950 . S
H1173 C1184 0.950 . S
H1174 C1186 0.950 . S
H1175 C1187 0.950 . S
C1176 H1168 0.950 . S
C1176 C1177 1.386 . S
C1176 C1178 1.391 1_556 S
C1177 C1176 1.386 . S
C1177 C1181 1.393 . S
C1178 H1170 0.950 . S
C1178 C1176 1.391 1_554 S
C1178 C1179 1.400 . S
C1179 C1178 1.400 . S
C1179 C1180 1.398 1_554 S
C1179 C1185 1.491 . S
C1180 H1171 0.950 . S
C1180 C1179 1.398 1_556 S
C1180 C1181 1.391 . S
C1181 H1169 0.950 . S
C1181 C1177 1.393 . S
C1181 C1180 1.391 . S
C1182 H1172 0.950 . S
C1182 C1183 1.386 . S
C1182 C1184 1.391 . S
C1183 C1182 1.386 . S
C1183 C1187 1.393 . S
C1184 H1173 0.950 . S
C1184 C1182 1.391 . S
C1184 C1185 1.400 . S
C1185 C1179 1.491 . S
C1185 C1184 1.400 . S
C1185 C1186 1.398 . S
C1186 H1174 0.950 . S
C1186 C1185 1.398 . S
C1186 C1187 1.391 . S
C1187 H1175 0.950 . S
C1187 C1183 1.393 . S
C1187 C1186 1.391 . S
H1188 C1196 0.950 . S
H1189 C1201 0.950 . S
H1190 C1198 0.950 . S
H1191 C1200 0.950 . S
H1192 C1202 0.950 . S
H1193 C1204 0.950 . S
H1194 C1206 0.950 . S
H1195 C1207 0.950 . S
C1196 H1188 0.950 . S
C1196 C1197 1.386 . S
C1196 C1198 1.391 . S
C1197 C1196 1.386 . S
C1197 C1201 1.393 . S
C1198 H1190 0.950 . S
C1198 C1196 1.391 . S
C1198 C1199 1.400 . S
C1199 C1198 1.400 . S
C1199 C1200 1.398 . S
C1199 C1205 1.491 . S
C1200 H1191 0.950 . S
C1200 C1199 1.398 . S
C1200 C1201 1.391 . S
C1201 H1189 0.950 . S
C1201 C1197 1.393 . S
C1201 C1200 1.391 . S
C1202 H1192 0.950 . S
C1202 C1203 1.386 . S
C1202 C1204 1.391 . S
C1203 C1202 1.386 . S
C1203 C1207 1.393 . S
C1204 H1193 0.950 . S
C1204 C1202 1.391 . S
C1204 C1205 1.400 . S
C1205 C1199 1.491 . S
C1205 C1204 1.400 . S
C1205 C1206 1.398 . S
C1206 H1194 0.950 . S
C1206 C1205 1.398 . S
C1206 C1207 1.391 . S
C1207 H1195 0.950 . S
C1207 C1203 1.393 . S
C1207 C1206 1.391 . S
H1208 C1216 0.950 . S
H1209 C1221 0.950 . S
H1210 C1218 0.950 . S
H1211 C1220 0.950 . S
H1212 C1222 0.950 . S
H1213 C1224 0.950 . S
H1214 C1226 0.950 . S
H1215 C1227 0.950 . S
C1216 H1208 0.950 . S
C1216 C1217 1.386 . S
C1216 C1218 1.391 . S
C1217 C1216 1.386 . S
C1217 C1221 1.393 . S
C1218 H1210 0.950 . S
C1218 C1216 1.391 . S
C1218 C1219 1.400 . S
C1219 C1218 1.400 . S
C1219 C1220 1.398 . S
C1219 C1225 1.491 . S
C1220 H1211 0.950 . S
C1220 C1219 1.398 . S
C1220 C1221 1.391 . S
C1221 H1209 0.950 . S
C1221 C1217 1.393 . S
C1221 C1220 1.391 . S
C1222 H1212 0.950 . S
C1222 C1223 1.386 . S
C1222 C1224 1.391 . S
C1223 C1222 1.386 . S
C1223 C1227 1.393 . S
C1224 H1213 0.950 . S
C1224 C1222 1.391 . S
C1224 C1225 1.400 . S
C1225 C1219 1.491 . S
C1225 C1224 1.400 . S
C1225 C1226 1.398 . S
C1226 H1214 0.950 . S
C1226 C1225 1.398 . S
C1226 C1227 1.391 . S
C1227 H1215 0.950 . S
C1227 C1223 1.393 . S
C1227 C1226 1.391 . S
H1228 C1236 0.950 . S
H1229 C1241 0.950 . S
H1230 C1238 0.950 . S
H1231 C1240 0.950 . S
H1232 C1242 0.950 . S
H1233 C1244 0.950 . S
H1234 C1246 0.950 . S
H1235 C1247 0.950 . S
C1236 H1228 0.950 . S
C1236 C1237 1.386 . S
C1236 C1238 1.391 . S
C1237 C1236 1.386 . S
C1237 C1241 1.393 . S
C1238 H1230 0.950 . S
C1238 C1236 1.391 . S
C1238 C1239 1.400 . S
C1239 C1238 1.400 . S
C1239 C1240 1.398 . S
C1239 C1245 1.491 . S
C1240 H1231 0.950 . S
C1240 C1239 1.398 . S
C1240 C1241 1.391 . S
C1241 H1229 0.950 . S
C1241 C1237 1.393 . S
C1241 C1240 1.391 . S
C1242 H1232 0.950 . S
C1242 C1243 1.386 . S
C1242 C1244 1.391 . S
C1243 C1242 1.386 . S
C1243 C1247 1.393 . S
C1244 H1233 0.950 . S
C1244 C1242 1.391 . S
C1244 C1245 1.400 . S
C1245 C1239 1.491 . S
C1245 C1244 1.400 . S
C1245 C1246 1.398 . S
C1246 H1234 0.950 . S
C1246 C1245 1.398 . S
C1246 C1247 1.391 . S
C1247 H1235 0.950 . S
C1247 C1243 1.393 . S
C1247 C1246 1.391 . S
H1248 C1256 0.950 . S
H1249 C1261 0.950 . S
H1250 C1258 0.950 . S
H1251 C1260 0.950 . S
H1252 C1262 0.950 . S
H1253 C1264 0.950 . S
H1254 C1266 0.950 . S
H1255 C1267 0.950 . S
C1256 H1248 0.950 . S
C1256 C1257 1.386 . S
C1256 C1258 1.391 . S
C1257 C1256 1.386 . S
C1257 C1261 1.393 . S
C1258 H1250 0.950 . S
C1258 C1256 1.391 . S
C1258 C1259 1.400 . S
C1259 C1258 1.400 . S
C1259 C1260 1.398 . S
C1259 C1265 1.491 . S
C1260 H1251 0.950 . S
C1260 C1259 1.398 . S
C1260 C1261 1.391 . S
C1261 H1249 0.950 . S
C1261 C1257 1.393 . S
C1261 C1260 1.391 . S
C1262 H1252 0.950 . S
C1262 C1263 1.386 . S
C1262 C1264 1.391 . S
C1263 C1262 1.386 . S
C1263 C1267 1.393 . S
C1264 H1253 0.950 . S
C1264 C1262 1.391 . S
C1264 C1265 1.400 . S
C1265 C1259 1.491 . S
C1265 C1264 1.400 . S
C1265 C1266 1.398 . S
C1266 H1254 0.950 . S
C1266 C1265 1.398 . S
C1266 C1267 1.391 . S
C1267 H1255 0.950 . S
C1267 C1263 1.393 . S
C1267 C1266 1.391 . S
H1268 C1276 0.950 . S
H1269 C1281 0.950 . S
H1270 C1278 0.950 . S
H1271 C1280 0.950 . S
H1272 C1282 0.950 . S
H1273 C1284 0.950 . S
H1274 C1286 0.950 . S
H1275 C1287 0.950 . S
C1276 H1268 0.950 . S
C1276 C1277 1.386 . S
C1276 C1278 1.391 . S
C1277 C1276 1.386 . S
C1277 C1281 1.393 . S
C1278 H1270 0.950 . S
C1278 C1276 1.391 . S
C1278 C1279 1.400 . S
C1279 C1278 1.400 . S
C1279 C1280 1.398 . S
C1279 C1285 1.491 . S
C1280 H1271 0.950 . S
C1280 C1279 1.398 . S
C1280 C1281 1.391 . S
C1281 H1269 0.950 . S
C1281 C1277 1.393 . S
C1281 C1280 1.391 . S
C1282 H1272 0.950 . S
C1282 C1283 1.386 . S
C1282 C1284 1.391 . S
C1283 C1282 1.386 . S
C1283 C1287 1.393 . S
C1284 H1273 0.950 . S
C1284 C1282 1.391 . S
C1284 C1285 1.400 . S
C1285 C1279 1.491 . S
C1285 C1284 1.400 . S
C1285 C1286 1.398 . S
C1286 H1274 0.950 . S
C1286 C1285 1.398 . S
C1286 C1287 1.391 . S
C1287 H1275 0.950 . S
C1287 C1283 1.393 . S
C1287 C1286 1.391 . S
H1288 C1296 0.950 . S
H1289 C1301 0.950 . S
H1290 C1298 0.950 . S
H1291 C1300 0.950 . S
H1292 C1302 0.950 . S
H1293 C1304 0.950 . S
H1294 C1306 0.950 . S
H1295 C1307 0.950 . S
C1296 H1288 0.950 . S
C1296 C1297 1.386 . S
C1296 C1298 1.391 . S
C1297 C1296 1.386 . S
C1297 C1301 1.393 . S
C1298 H1290 0.950 . S
C1298 C1296 1.391 . S
C1298 C1299 1.400 . S
C1299 C1298 1.400 . S
C1299 C1300 1.398 . S
C1299 C1305 1.491 . S
C1300 H1291 0.950 . S
C1300 C1299 1.398 . S
C1300 C1301 1.391 . S
C1301 H1289 0.950 . S
C1301 C1297 1.393 . S
C1301 C1300 1.391 . S
C1302 H1292 0.950 . S
C1302 C1303 1.386 . S
C1302 C1304 1.391 . S
C1303 C1302 1.386 . S
C1303 C1307 1.393 . S
C1304 H1293 0.950 . S
C1304 C1302 1.391 . S
C1304 C1305 1.400 . S
C1305 C1299 1.491 . S
C1305 C1304 1.400 . S
C1305 C1306 1.398 . S
C1306 H1294 0.950 . S
C1306 C1305 1.398 . S
C1306 C1307 1.391 . S
C1307 H1295 0.950 . S
C1307 C1303 1.393 . S
C1307 C1306 1.391 . S
H1308 C1316 0.950 . S
H1309 C1321 0.950 . S
H1310 C1318 0.950 . S
H1311 C1320 0.950 . S
H1312 C1322 0.950 . S
H1313 C1324 0.950 . S
H1314 C1326 0.950 . S
H1315 C1327 0.950 . S
C1316 H1308 0.950 . S
C1316 C1317 1.386 . S
C1316 C1318 1.391 . S
C1317 C1316 1.386 . S
C1317 C1321 1.393 . S
C1318 H1310 0.950 . S
C1318 C1316 1.391 . S
C1318 C1319 1.400 . S
C1319 C1318 1.400 . S
C1319 C1320 1.398 . S
C1319 C1325 1.491 . S
C1320 H1311 0.950 . S
C1320 C1319 1.398 . S
C1320 C1321 1.391 . S
C1321 H1309 0.950 . S
C1321 C1317 1.393 . S
C1321 C1320 1.391 . S
C1322 H1312 0.950 . S
C1322 C1323 1.386 . S
C1322 C1324 1.391 . S
C1323 C1322 1.386 . S
C1323 C1327 1.393 . S
C1324 H1313 0.950 . S
C1324 C1322 1.391 . S
C1324 C1325 1.400 . S
C1325 C1319 1.491 . S
C1325 C1324 1.400 . S
C1325 C1326 1.398 . S
C1326 H1314 0.950 . S
C1326 C1325 1.398 . S
C1326 C1327 1.391 . S
C1327 H1315 0.950 . S
C1327 C1323 1.393 . S
C1327 C1326 1.391 . S
H1328 C1336 0.950 . S
H1329 C1341 0.950 . S
H1330 C1338 0.950 . S
H1331 C1340 0.950 . S
H1332 C1342 0.950 . S
H1333 C1344 0.950 . S
H1334 C1346 0.950 . S
H1335 C1347 0.950 . S
C1336 H1328 0.950 . S
C1336 C1337 1.386 . S
C1336 C1338 1.391 . S
C1337 C1336 1.386 . S
C1337 C1341 1.393 . S
C1338 H1330 0.950 . S
C1338 C1336 1.391 . S
C1338 C1339 1.400 . S
C1339 C1338 1.400 . S
C1339 C1340 1.398 . S
C1339 C1345 1.491 . S
C1340 H1331 0.950 . S
C1340 C1339 1.398 . S
C1340 C1341 1.391 . S
C1341 H1329 0.950 . S
C1341 C1337 1.393 . S
C1341 C1340 1.391 . S
C1342 H1332 0.950 . S
C1342 C1343 1.386 . S
C1342 C1344 1.391 . S
C1343 C1342 1.386 . S
C1343 C1347 1.393 . S
C1344 H1333 0.950 . S
C1344 C1342 1.391 . S
C1344 C1345 1.400 . S
C1345 C1339 1.491 . S
C1345 C1344 1.400 . S
C1345 C1346 1.398 . S
C1346 H1334 0.950 . S
C1346 C1345 1.398 . S
C1346 C1347 1.391 . S
C1347 H1335 0.950 . S
C1347 C1343 1.393 . S
C1347 C1346 1.391 . S
H1348 C1356 0.950 . S
H1349 C1361 0.950 . S
H1350 C1358 0.950 . S
H1351 C1360 0.950 . S
H1352 C1362 0.950 . S
H1353 C1364 0.950 . S
H1354 C1366 0.950 . S
H1355 C1367 0.950 . S
C1356 H1348 0.950 . S
C1356 C1357 1.386 . S
C1356 C1358 1.391 . S
C1357 C1356 1.386 . S
C1357 C1361 1.393 . S
C1358 H1350 0.950 . S
C1358 C1356 1.391 . S
C1358 C1359 1.400 . S
C1359 C1358 1.400 . S
C1359 C1360 1.398 . S
C1359 C1365 1.491 . S
C1360 H1351 0.950 . S
C1360 C1359 1.398 . S
C1360 C1361 1.391 . S
C1361 H1349 0.950 . S
C1361 C1357 1.393 . S
C1361 C1360 1.391 . S
C1362 H1352 0.950 . S
C1362 C1363 1.386 . S
C1362 C1364 1.391 . S
C1363 C1362 1.386 . S
C1363 C1367 1.393 . S
C1364 H1353 0.950 . S
C1364 C1362 1.391 . S
C1364 C1365 1.400 . S
C1365 C1359 1.491 . S
C1365 C1364 1.400 . S
C1365 C1366 1.398 . S
C1366 H1354 0.950 . S
C1366 C1365 1.398 . S
C1366 C1367 1.391 . S
C1367 H1355 0.950 . S
C1367 C1363 1.393 . S
C1367 C1366 1.391 . S
H1368 C1376 0.950 . S
H1369 C1381 0.950 . S
H1370 C1378 0.950 . S
H1371 C1380 0.950 . S
H1372 C1382 0.950 . S
H1373 C1384 0.950 . S
H1374 C1386 0.950 . S
H1375 C1387 0.950 . S
C1376 H1368 0.950 . S
C1376 C1377 1.386 . S
C1376 C1378 1.391 . S
C1377 C1376 1.386 . S
C1377 C1381 1.393 . S
C1378 H1370 0.950 . S
C1378 C1376 1.391 . S
C1378 C1379 1.400 . S
C1379 C1378 1.400 . S
C1379 C1380 1.398 . S
C1379 C1385 1.491 . S
C1380 H1371 0.950 . S
C1380 C1379 1.398 . S
C1380 C1381 1.391 . S
C1381 H1369 0.950 . S
C1381 C1377 1.393 . S
C1381 C1380 1.391 . S
C1382 H1372 0.950 . S
C1382 C1383 1.386 . S
C1382 C1384 1.391 . S
C1383 C1382 1.386 . S
C1383 C1387 1.393 . S
C1384 H1373 0.950 . S
C1384 C1382 1.391 . S
C1384 C1385 1.400 . S
C1385 C1379 1.491 . S
C1385 C1384 1.400 . S
C1385 C1386 1.398 . S
C1386 H1374 0.950 . S
C1386 C1385 1.398 . S
C1386 C1387 1.391 . S
C1387 H1375 0.950 . S
C1387 C1383 1.393 . S
C1387 C1386 1.391 . S
H1388 C1396 0.950 . S
H1389 C1401 0.950 . S
H1390 C1398 0.950 . S
H1391 C1400 0.950 . S
H1392 C1402 0.950 . S
H1393 C1404 0.950 . S
H1394 C1406 0.950 . S
H1395 C1407 0.950 . S
C1396 H1388 0.950 . S
C1396 C1397 1.386 . S
C1396 C1398 1.391 . S
C1397 C1396 1.386 . S
C1397 C1401 1.393 . S
C1398 H1390 0.950 . S
C1398 C1396 1.391 . S
C1398 C1399 1.400 . S
C1399 C1398 1.400 . S
C1399 C1400 1.398 . S
C1399 C1405 1.491 . S
C1400 H1391 0.950 . S
C1400 C1399 1.398 . S
C1400 C1401 1.391 . S
C1401 H1389 0.950 . S
C1401 C1397 1.393 . S
C1401 C1400 1.391 . S
C1402 H1392 0.950 . S
C1402 C1403 1.386 . S
C1402 C1404 1.391 . S
C1403 C1402 1.386 . S
C1403 C1407 1.393 . S
C1404 H1393 0.950 . S
C1404 C1402 1.391 . S
C1404 C1405 1.400 . S
C1405 C1399 1.491 . S
C1405 C1404 1.400 . S
C1405 C1406 1.398 . S
C1406 H1394 0.950 . S
C1406 C1405 1.398 . S
C1406 C1407 1.391 . S
C1407 H1395 0.950 . S
C1407 C1403 1.393 . S
C1407 C1406 1.391 . S
H1408 C1416 0.950 . S
H1409 C1421 0.950 . S
H1410 C1418 0.950 . S
H1411 C1420 0.950 . S
H1412 C1422 0.950 . S
H1413 C1424 0.950 . S
H1414 C1426 0.950 . S
H1415 C1427 0.950 . S
C1416 H1408 0.950 . S
C1416 C1417 1.386 . S
C1416 C1418 1.391 . S
C1417 C1416 1.386 . S
C1417 C1421 1.393 . S
C1418 H1410 0.950 . S
C1418 C1416 1.391 . S
C1418 C1419 1.400 . S
C1419 C1418 1.400 . S
C1419 C1420 1.398 . S
C1419 C1425 1.491 . S
C1420 H1411 0.950 . S
C1420 C1419 1.398 . S
C1420 C1421 1.391 . S
C1421 H1409 0.950 . S
C1421 C1417 1.393 . S
C1421 C1420 1.391 . S
C1422 H1412 0.950 . S
C1422 C1423 1.386 . S
C1422 C1424 1.391 . S
C1423 C1422 1.386 . S
C1423 C1427 1.393 . S
C1424 H1413 0.950 . S
C1424 C1422 1.391 . S
C1424 C1425 1.400 . S
C1425 C1419 1.491 . S
C1425 C1424 1.400 . S
C1425 C1426 1.398 . S
C1426 H1414 0.950 . S
C1426 C1425 1.398 . S
C1426 C1427 1.391 . S
C1427 H1415 0.950 . S
C1427 C1423 1.393 . S
C1427 C1426 1.391 . S
H1428 C1436 0.950 . S
H1429 C1441 0.950 . S
H1430 C1438 0.950 . S
H1431 C1440 0.950 . S
H1432 C1442 0.950 . S
H1433 C1444 0.950 . S
H1434 C1446 0.950 . S
H1435 C1447 0.950 . S
C1436 H1428 0.950 . S
C1436 C1437 1.386 . S
C1436 C1438 1.391 . S
C1437 C1436 1.386 . S
C1437 C1441 1.393 . S
C1438 H1430 0.950 . S
C1438 C1436 1.391 . S
C1438 C1439 1.400 . S
C1439 C1438 1.400 . S
C1439 C1440 1.398 . S
C1439 C1445 1.491 . S
C1440 H1431 0.950 . S
C1440 C1439 1.398 . S
C1440 C1441 1.391 . S
C1441 H1429 0.950 . S
C1441 C1437 1.393 . S
C1441 C1440 1.391 . S
C1442 H1432 0.950 . S
C1442 C1443 1.386 . S
C1442 C1444 1.391 . S
C1443 C1442 1.386 . S
C1443 C1447 1.393 . S
C1444 H1433 0.950 . S
C1444 C1442 1.391 . S
C1444 C1445 1.400 . S
C1445 C1439 1.491 . S
C1445 C1444 1.400 . S
C1445 C1446 1.398 . S
C1446 H1434 0.950 . S
C1446 C1445 1.398 . S
C1446 C1447 1.391 . S
C1447 H1435 0.950 . S
C1447 C1443 1.393 . S
C1447 C1446 1.391 . S
H1448 C1456 0.950 . S
H1449 C1461 0.950 . S
H1450 C1458 0.950 . S
H1451 C1460 0.950 . S
H1452 C1462 0.950 . S
H1453 C1464 0.950 . S
H1454 C1466 0.950 . S
H1455 C1467 0.950 . S
C1456 H1448 0.950 . S
C1456 C1457 1.386 . S
C1456 C1458 1.391 . S
C1457 C1456 1.386 . S
C1457 C1461 1.393 . S
C1458 H1450 0.950 . S
C1458 C1456 1.391 . S
C1458 C1459 1.400 . S
C1459 C1458 1.400 . S
C1459 C1460 1.398 . S
C1459 C1465 1.491 . S
C1460 H1451 0.950 . S
C1460 C1459 1.398 . S
C1460 C1461 1.391 . S
C1461 H1449 0.950 . S
C1461 C1457 1.393 . S
C1461 C1460 1.391 . S
C1462 H1452 0.950 . S
C1462 C1463 1.386 . S
C1462 C1464 1.391 . S
C1463 C1462 1.386 . S
C1463 C1467 1.393 . S
C1464 H1453 0.950 . S
C1464 C1462 1.391 . S
C1464 C1465 1.400 . S
C1465 C1459 1.491 . S
C1465 C1464 1.400 . S
C1465 C1466 1.398 . S
C1466 H1454 0.950 . S
C1466 C1465 1.398 . S
C1466 C1467 1.391 . S
C1467 H1455 0.950 . S
C1467 C1463 1.393 . S
C1467 C1466 1.391 . S
H1468 C1476 0.950 . S
H1469 C1481 0.950 . S
H1470 C1478 0.950 . S
H1471 C1480 0.950 . S
H1472 C1482 0.950 . S
H1473 C1484 0.950 . S
H1474 C1486 0.950 . S
H1475 C1487 0.950 . S
C1476 H1468 0.950 . S
C1476 C1477 1.386 . S
C1476 C1478 1.391 . S
C1477 C1476 1.386 . S
C1477 C1481 1.393 . S
C1478 H1470 0.950 . S
C1478 C1476 1.391 . S
C1478 C1479 1.400 . S
C1479 C1478 1.400 . S
C1479 C1480 1.398 . S
C1479 C1485 1.491 . S
C1480 H1471 0.950 . S
C1480 C1479 1.398 . S
C1480 C1481 1.391 . S
C1481 H1469 0.950 . S
C1481 C1477 1.393 . S
C1481 C1480 1.391 . S
C1482 H1472 0.950 . S
C1482 C1483 1.386 . S
C1482 C1484 1.391 . S
C1483 C1482 1.386 . S
C1483 C1487 1.393 . S
C1484 H1473 0.950 . S
C1484 C1482 1.391 . S
C1484 C1485 1.400 . S
C1485 C1479 1.491 . S
C1485 C1484 1.400 . S
C1485 C1486 1.398 . S
C1486 H1474 0.950 . S
C1486 C1485 1.398 . S
C1486 C1487 1.391 . S
C1487 H1475 0.950 . S
C1487 C1483 1.393 . S
C1487 C1486 1.391 . S
H1488 C1496 0.950 . S
H1489 C1501 0.950 . S
H1490 C1498 0.950 . S
H1491 C1500 0.950 . S
H1492 C1502 0.950 . S
H1493 C1504 0.950 . S
H1494 C1506 0.950 . S
H1495 C1507 0.950 . S
C1496 H1488 0.950 . S
C1496 C1497 1.386 . S
C1496 C1498 1.391 . S
C1497 C1496 1.386 . S
C1497 C1501 1.393 . S
C1498 H1490 0.950 . S
C1498 C1496 1.391 . S
C1498 C1499 1.400 . S
C1499 C1498 1.400 . S
C1499 C1500 1.398 . S
C1499 C1505 1.491 . S
C1500 H1491 0.950 . S
C1500 C1499 1.398 . S
C1500 C1501 1.391 . S
C1501 H1489 0.950 . S
C1501 C1497 1.393 . S
C1501 C1500 1.391 . S
C1502 H1492 0.950 . S
C1502 C1503 1.386 . S
C1502 C1504 1.391 . S
C1503 C1502 1.386 . S
C1503 C1507 1.393 . S
C1504 H1493 0.950 . S
C1504 C1502 1.391 . S
C1504 C1505 1.400 1_554 S
C1505 C1499 1.491 . S
C1505 C1504 1.400 1_556 S
C1505 C1506 1.398 . S
C1506 H1494 0.950 . S
C1506 C1505 1.398 . S
C1506 C1507 1.391 1_556 S
C1507 H1495 0.950 . S
C1507 C1503 1.393 . S
C1507 C1506 1.391 1_554 S
H1508 C1516 0.950 . S
H1509 C1521 0.950 . S
H1510 C1518 0.950 . S
H1511 C1520 0.950 . S
H1512 C1522 0.950 . S
H1513 C1524 0.950 . S
H1514 C1526 0.950 1_556 S
H1515 C1527 0.950 . S
C1516 H1508 0.950 . S
C1516 C1517 1.386 . S
C1516 C1518 1.391 . S
C1517 C1516 1.386 . S
C1517 C1521 1.393 . S
C1518 H1510 0.950 . S
C1518 C1516 1.391 . S
C1518 C1519 1.400 . S
C1519 C1518 1.400 . S
C1519 C1520 1.398 . S
C1519 C1525 1.491 . S
C1520 H1511 0.950 . S
C1520 C1519 1.398 . S
C1520 C1521 1.391 . S
C1521 H1509 0.950 . S
C1521 C1517 1.393 . S
C1521 C1520 1.391 . S
C1522 H1512 0.950 . S
C1522 C1523 1.386 . S
C1522 C1524 1.391 1_554 S
C1523 C1522 1.386 . S
C1523 C1527 1.393 . S
C1524 H1513 0.950 . S
C1524 C1522 1.391 1_556 S
C1524 C1525 1.400 . S
C1525 C1519 1.491 . S
C1525 C1524 1.400 . S
C1525 C1526 1.398 1_556 S
C1526 H1514 0.950 1_554 S
C1526 C1525 1.398 1_554 S
C1526 C1527 1.391 . S
C1527 H1515 0.950 . S
C1527 C1523 1.393 . S
C1527 C1526 1.391 . S
H1528 C1536 0.950 . S
H1529 C1541 0.950 . S
H1530 C1538 0.950 . S
H1531 C1540 0.950 . S
H1532 C1542 0.950 . S
H1533 C1544 0.950 . S
H1534 C1546 0.950 . S
H1535 C1547 0.951 . S
C1536 H1528 0.950 . S
C1536 C1537 1.386 . S
C1536 C1538 1.391 . S
C1537 C1536 1.386 . S
C1537 C1541 1.393 . S
C1538 H1530 0.950 . S
C1538 C1536 1.391 . S
C1538 C1539 1.400 . S
C1539 C1538 1.400 . S
C1539 C1540 1.398 . S
C1539 C1545 1.491 . S
C1540 H1531 0.950 . S
C1540 C1539 1.398 . S
C1540 C1541 1.391 . S
C1541 H1529 0.950 . S
C1541 C1537 1.393 . S
C1541 C1540 1.391 . S
C1542 H1532 0.950 . S
C1542 C1543 1.386 . S
C1542 C1544 1.391 . S
C1543 C1542 1.386 . S
C1543 C1547 1.393 . S
C1544 H1533 0.950 . S
C1544 C1542 1.391 . S
C1544 C1545 1.400 1_554 S
C1545 C1539 1.491 . S
C1545 C1544 1.400 1_556 S
C1545 C1546 1.398 . S
C1546 H1534 0.950 . S
C1546 C1545 1.398 . S
C1546 C1547 1.391 1_556 S
C1547 H1535 0.951 . S
C1547 C1543 1.393 . S
C1547 C1546 1.391 1_554 S
H1548 C1556 0.950 . S
H1549 C1561 0.950 . S
H1550 C1558 0.950 . S
H1551 C1560 0.950 . S
H1552 C1562 0.950 . S
H1553 C1564 0.950 . S
H1554 C1566 0.950 . S
H1555 C1567 0.950 . S
C1556 H1548 0.950 . S
C1556 C1557 1.386 . S
C1556 C1558 1.391 . S
C1557 C1556 1.386 . S
C1557 C1561 1.393 . S
C1558 H1550 0.950 . S
C1558 C1556 1.391 . S
C1558 C1559 1.400 . S
C1559 C1558 1.400 . S
C1559 C1560 1.398 . S
C1559 C1565 1.491 . S
C1560 H1551 0.950 . S
C1560 C1559 1.398 . S
C1560 C1561 1.391 . S
C1561 H1549 0.950 . S
C1561 C1557 1.393 . S
C1561 C1560 1.391 . S
C1562 H1552 0.950 . S
C1562 C1563 1.386 . S
C1562 C1564 1.391 . S
C1563 C1562 1.386 . S
C1563 C1567 1.393 1_556 S
C1564 H1553 0.950 . S
C1564 C1562 1.391 . S
C1564 C1565 1.400 . S
C1565 C1559 1.491 . S
C1565 C1564 1.400 . S
C1565 C1566 1.398 . S
C1566 H1554 0.950 . S
C1566 C1565 1.398 . S
C1566 C1567 1.391 1_556 S
C1567 H1555 0.950 . S
C1567 C1563 1.393 1_554 S
C1567 C1566 1.391 1_554 S
H1568 C1576 0.950 . S
H1569 C1581 0.950 . S
H1570 C1578 0.950 . S
H1571 C1580 0.950 . S
H1572 C1582 0.950 . S
H1573 C1584 0.950 . S
H1574 C1586 0.950 . S
H1575 C1587 0.950 . S
C1576 H1568 0.950 . S
C1576 C1577 1.386 1_554 S
C1576 C1578 1.391 1_554 S
C1577 C1576 1.386 1_556 S
C1577 C1581 1.393 . S
C1578 H1570 0.950 . S
C1578 C1576 1.391 1_556 S
C1578 C1579 1.400 . S
C1579 C1578 1.400 . S
C1579 C1580 1.398 . S
C1579 C1585 1.491 . S
C1580 H1571 0.950 . S
C1580 C1579 1.398 . S
C1580 C1581 1.391 . S
C1581 H1569 0.950 . S
C1581 C1577 1.393 . S
C1581 C1580 1.391 . S
C1582 H1572 0.950 . S
C1582 C1583 1.386 . S
C1582 C1584 1.391 . S
C1583 C1582 1.386 . S
C1583 C1587 1.393 . S
C1584 H1573 0.950 . S
C1584 C1582 1.391 . S
C1584 C1585 1.400 . S
C1585 C1579 1.491 . S
C1585 C1584 1.400 . S
C1585 C1586 1.398 . S
C1586 H1574 0.950 . S
C1586 C1585 1.398 . S
C1586 C1587 1.391 . S
C1587 H1575 0.950 . S
C1587 C1583 1.393 . S
C1587 C1586 1.391 . S
H1588 C1596 0.950 . S
H1589 C1601 0.950 . S
H1590 C1598 0.950 . S
H1591 C1600 0.950 . S
H1592 C1602 0.950 . S
H1593 C1604 0.950 . S
H1594 C1606 0.950 . S
H1595 C1607 0.950 1_554 S
C1596 H1588 0.950 . S
C1596 C1597 1.386 . S
C1596 C1598 1.391 . S
C1597 C1596 1.386 . S
C1597 C1601 1.393 . S
C1598 H1590 0.950 . S
C1598 C1596 1.391 . S
C1598 C1599 1.400 . S
C1599 C1598 1.400 . S
C1599 C1600 1.398 . S
C1599 C1605 1.491 . S
C1600 H1591 0.950 . S
C1600 C1599 1.398 . S
C1600 C1601 1.391 . S
C1601 H1589 0.950 . S
C1601 C1597 1.393 . S
C1601 C1600 1.391 . S
C1602 H1592 0.950 . S
C1602 C1603 1.386 . S
C1602 C1604 1.391 . S
C1603 C1602 1.386 . S
C1603 C1607 1.393 . S
C1604 H1593 0.950 . S
C1604 C1602 1.391 . S
C1604 C1605 1.400 . S
C1605 C1599 1.491 . S
C1605 C1604 1.400 . S
C1605 C1606 1.398 . S
C1606 H1594 0.950 . S
C1606 C1605 1.398 . S
C1606 C1607 1.391 . S
C1607 H1595 0.950 1_556 S
C1607 C1603 1.393 . S
C1607 C1606 1.391 . S
H1608 C1616 0.950 . S
H1609 C1621 0.950 . S
H1610 C1618 0.950 . S
H1611 C1620 0.950 . S
H1612 C1622 0.950 . S
H1613 C1624 0.950 . S
H1614 C1626 0.950 . S
H1615 C1627 0.950 . S
C1616 H1608 0.950 . S
C1616 C1617 1.386 . S
C1616 C1618 1.391 . S
C1617 C1616 1.386 . S
C1617 C1621 1.393 . S
C1618 H1610 0.950 . S
C1618 C1616 1.391 . S
C1618 C1619 1.400 . S
C1619 C1618 1.400 . S
C1619 C1620 1.398 . S
C1619 C1625 1.491 . S
C1620 H1611 0.950 . S
C1620 C1619 1.398 . S
C1620 C1621 1.391 . S
C1621 H1609 0.950 . S
C1621 C1617 1.393 . S
C1621 C1620 1.391 . S
C1622 H1612 0.950 . S
C1622 C1623 1.386 . S
C1622 C1624 1.391 . S
C1623 C1622 1.386 . S
C1623 C1627 1.393 . S
C1624 H1613 0.950 . S
C1624 C1622 1.391 . S
C1624 C1625 1.400 . S
C1625 C1619 1.491 . S
C1625 C1624 1.400 . S
C1625 C1626 1.398 . S
C1626 H1614 0.950 . S
C1626 C1625 1.398 . S
C1626 C1627 1.391 . S
C1627 H1615 0.950 . S
C1627 C1623 1.393 . S
C1627 C1626 1.391 . S
H1628 C1636 0.950 . S
H1629 C1641 0.950 . S
H1630 C1638 0.950 . S
H1631 C1640 0.950 . S
H1632 C1642 0.950 . S
H1633 C1644 0.950 . S
H1634 C1646 0.950 . S
H1635 C1647 0.950 . S
C1636 H1628 0.950 . S
C1636 C1637 1.386 . S
C1636 C1638 1.391 . S
C1637 C1636 1.386 . S
C1637 C1641 1.393 . S
C1638 H1630 0.950 . S
C1638 C1636 1.391 . S
C1638 C1639 1.400 . S
C1639 C1638 1.400 . S
C1639 C1640 1.398 . S
C1639 C1645 1.491 . S
C1640 H1631 0.950 . S
C1640 C1639 1.398 . S
C1640 C1641 1.391 . S
C1641 H1629 0.950 . S
C1641 C1637 1.393 . S
C1641 C1640 1.391 . S
C1642 H1632 0.950 . S
C1642 C1643 1.386 . S
C1642 C1644 1.391 . S
C1643 C1642 1.386 . S
C1643 C1647 1.393 . S
C1644 H1633 0.950 . S
C1644 C1642 1.391 . S
C1644 C1645 1.400 . S
C1645 C1639 1.491 . S
C1645 C1644 1.400 . S
C1645 C1646 1.398 . S
C1646 H1634 0.950 . S
C1646 C1645 1.398 . S
C1646 C1647 1.391 . S
C1647 H1635 0.950 . S
C1647 C1643 1.393 . S
C1647 C1646 1.391 . S
H1648 C1656 0.950 . S
H1649 C1661 0.950 . S
H1650 C1658 0.950 . S
H1651 C1660 0.950 . S
H1652 C1662 0.950 . S
H1653 C1664 0.950 . S
H1654 C1666 0.950 . S
H1655 C1667 0.950 . S
C1656 H1648 0.950 . S
C1656 C1657 1.386 . S
C1656 C1658 1.391 . S
C1657 C1656 1.386 . S
C1657 C1661 1.393 . S
C1658 H1650 0.950 . S
C1658 C1656 1.391 . S
C1658 C1659 1.400 . S
C1659 C1658 1.400 . S
C1659 C1660 1.398 . S
C1659 C1665 1.491 . S
C1660 H1651 0.950 . S
C1660 C1659 1.398 . S
C1660 C1661 1.391 . S
C1661 H1649 0.950 . S
C1661 C1657 1.393 . S
C1661 C1660 1.391 . S
C1662 H1652 0.950 . S
C1662 C1663 1.386 . S
C1662 C1664 1.391 . S
C1663 C1662 1.386 . S
C1663 C1667 1.393 . S
C1664 H1653 0.950 . S
C1664 C1662 1.391 . S
C1664 C1665 1.400 . S
C1665 C1659 1.491 . S
C1665 C1664 1.400 . S
C1665 C1666 1.398 . S
C1666 H1654 0.950 . S
C1666 C1665 1.398 . S
C1666 C1667 1.391 . S
C1667 H1655 0.950 . S
C1667 C1663 1.393 . S
C1667 C1666 1.391 . S
H1668 C1676 0.950 . S
H1669 C1681 0.950 . S
H1670 C1678 0.950 1_556 S
H1671 C1680 0.950 . S
H1672 C1682 0.950 . S
H1673 C1684 0.950 . S
H1674 C1686 0.950 . S
H1675 C1687 0.950 . S
C1676 H1668 0.950 . S
C1676 C1677 1.386 1_556 S
C1676 C1678 1.391 1_556 S
C1677 C1676 1.386 1_554 S
C1677 C1681 1.393 . S
C1678 H1670 0.950 1_554 S
C1678 C1676 1.391 1_554 S
C1678 C1679 1.400 . S
C1679 C1678 1.400 . S
C1679 C1680 1.398 . S
C1679 C1685 1.491 . S
C1680 H1671 0.950 . S
C1680 C1679 1.398 . S
C1680 C1681 1.391 . S
C1681 H1669 0.950 . S
C1681 C1677 1.393 . S
C1681 C1680 1.391 . S
C1682 H1672 0.950 . S
C1682 C1683 1.386 . S
C1682 C1684 1.391 . S
C1683 C1682 1.386 . S
C1683 C1687 1.393 . S
C1684 H1673 0.950 . S
C1684 C1682 1.391 . S
C1684 C1685 1.400 . S
C1685 C1679 1.491 . S
C1685 C1684 1.400 . S
C1685 C1686 1.398 . S
C1686 H1674 0.950 . S
C1686 C1685 1.398 . S
C1686 C1687 1.391 . S
C1687 H1675 0.950 . S
C1687 C1683 1.393 . S
C1687 C1686 1.391 . S
H1688 C1696 0.950 . S
H1689 C1701 0.950 . S
H1690 C1698 0.950 . S
H1691 C1700 0.950 . S
H1692 C1702 0.950 1_556 S
H1693 C1704 0.950 . S
H1694 C1706 0.950 . S
H1695 C1707 0.950 . S
C1696 H1688 0.950 . S
C1696 C1697 1.386 . S
C1696 C1698 1.391 . S
C1697 C1696 1.386 . S
C1697 C1701 1.393 . S
C1698 H1690 0.950 . S
C1698 C1696 1.391 . S
C1698 C1699 1.400 . S
C1699 C1698 1.400 . S
C1699 C1700 1.398 . S
C1699 C1705 1.491 . S
C1700 H1691 0.950 . S
C1700 C1699 1.398 . S
C1700 C1701 1.391 . S
C1701 H1689 0.950 . S
C1701 C1697 1.393 . S
C1701 C1700 1.391 . S
C1702 H1692 0.950 1_554 S
C1702 C1703 1.386 . S
C1702 C1704 1.391 . S
C1703 C1702 1.386 . S
C1703 C1707 1.393 . S
C1704 H1693 0.950 . S
C1704 C1702 1.391 . S
C1704 C1705 1.400 . S
C1705 C1699 1.491 . S
C1705 C1704 1.400 . S
C1705 C1706 1.398 . S
C1706 H1694 0.950 . S
C1706 C1705 1.398 . S
C1706 C1707 1.391 . S
C1707 H1695 0.950 . S
C1707 C1703 1.393 . S
C1707 C1706 1.391 . S
H1708 C1716 0.950 . S
H1709 C1721 0.950 . S
H1710 C1718 0.950 . S
H1711 C1720 0.950 . S
H1712 C1722 0.950 . S
H1713 C1724 0.950 1_556 S
H1714 C1726 0.950 . S
H1715 C1727 0.950 . S
C1716 H1708 0.950 . S
C1716 C1717 1.386 . S
C1716 C1718 1.391 . S
C1717 C1716 1.386 . S
C1717 C1721 1.393 . S
C1718 H1710 0.950 . S
C1718 C1716 1.391 . S
C1718 C1719 1.400 . S
C1719 C1718 1.400 . S
C1719 C1720 1.398 . S
C1719 C1725 1.491 . S
C1720 H1711 0.950 . S
C1720 C1719 1.398 . S
C1720 C1721 1.391 . S
C1721 H1709 0.950 . S
C1721 C1717 1.393 . S
C1721 C1720 1.391 . S
C1722 H1712 0.950 . S
C1722 C1723 1.386 1_556 S
C1722 C1724 1.391 1_556 S
C1723 C1722 1.386 1_554 S
C1723 C1727 1.393 . S
C1724 H1713 0.950 1_554 S
C1724 C1722 1.391 1_554 S
C1724 C1725 1.400 . S
C1725 C1719 1.491 . S
C1725 C1724 1.400 . S
C1725 C1726 1.398 . S
C1726 H1714 0.950 . S
C1726 C1725 1.398 . S
C1726 C1727 1.391 . S
C1727 H1715 0.950 . S
C1727 C1723 1.393 . S
C1727 C1726 1.391 . S
H1728 C1736 0.950 . S
H1729 C1741 0.950 . S
H1730 C1738 0.950 . S
H1731 C1740 0.950 . S
H1732 C1742 0.950 . S
H1733 C1744 0.950 . S
H1734 C1746 0.950 . S
H1735 C1747 0.950 . S
C1736 H1728 0.950 . S
C1736 C1737 1.386 . S
C1736 C1738 1.391 . S
C1737 C1736 1.386 . S
C1737 C1741 1.393 . S
C1738 H1730 0.950 . S
C1738 C1736 1.391 . S
C1738 C1739 1.400 . S
C1739 C1738 1.400 . S
C1739 C1740 1.398 . S
C1739 C1745 1.491 . S
C1740 H1731 0.950 . S
C1740 C1739 1.398 . S
C1740 C1741 1.391 . S
C1741 H1729 0.950 . S
C1741 C1737 1.393 . S
C1741 C1740 1.391 . S
C1742 H1732 0.950 . S
C1742 C1743 1.386 . S
C1742 C1744 1.391 . S
C1743 C1742 1.386 . S
C1743 C1747 1.393 . S
C1744 H1733 0.950 . S
C1744 C1742 1.391 . S
C1744 C1745 1.400 . S
C1745 C1739 1.491 . S
C1745 C1744 1.400 . S
C1745 C1746 1.398 . S
C1746 H1734 0.950 . S
C1746 C1745 1.398 . S
C1746 C1747 1.391 . S
C1747 H1735 0.950 . S
C1747 C1743 1.393 . S
C1747 C1746 1.391 . S
H1748 C1756 0.950 . S
H1749 C1761 0.950 . S
H1750 C1758 0.950 . S
H1751 C1760 0.950 . S
H1752 C1762 0.950 . S
H1753 C1764 0.950 . S
H1754 C1766 0.950 . S
H1755 C1767 0.950 . S
C1756 H1748 0.950 . S
C1756 C1757 1.386 . S
C1756 C1758 1.391 . S
C1757 C1756 1.386 . S
C1757 C1761 1.393 . S
C1758 H1750 0.950 . S
C1758 C1756 1.391 . S
C1758 C1759 1.400 . S
C1759 C1758 1.400 . S
C1759 C1760 1.398 . S
C1759 C1765 1.491 . S
C1760 H1751 0.950 . S
C1760 C1759 1.398 . S
C1760 C1761 1.391 . S
C1761 H1749 0.950 . S
C1761 C1757 1.393 . S
C1761 C1760 1.391 . S
C1762 H1752 0.950 . S
C1762 C1763 1.386 . S
C1762 C1764 1.391 . S
C1763 C1762 1.386 . S
C1763 C1767 1.393 . S
C1764 H1753 0.950 . S
C1764 C1762 1.391 . S
C1764 C1765 1.400 . S
C1765 C1759 1.491 . S
C1765 C1764 1.400 . S
C1765 C1766 1.398 . S
C1766 H1754 0.950 . S
C1766 C1765 1.398 . S
C1766 C1767 1.391 . S
C1767 H1755 0.950 . S
C1767 C1763 1.393 . S
C1767 C1766 1.391 . S
H1768 C1776 0.950 . S
H1769 C1781 0.950 . S
H1770 C1778 0.950 . S
H1771 C1780 0.950 . S
H1772 C1782 0.950 . S
H1773 C1784 0.950 . S
H1774 C1786 0.950 . S
H1775 C1787 0.950 . S
C1776 H1768 0.950 . S
C1776 C1777 1.386 . S
C1776 C1778 1.391 . S
C1777 C1776 1.386 . S
C1777 C1781 1.393 . S
C1778 H1770 0.950 . S
C1778 C1776 1.391 . S
C1778 C1779 1.400 . S
C1779 C1778 1.400 . S
C1779 C1780 1.398 . S
C1779 C1785 1.491 . S
C1780 H1771 0.950 . S
C1780 C1779 1.398 . S
C1780 C1781 1.391 . S
C1781 H1769 0.950 . S
C1781 C1777 1.393 . S
C1781 C1780 1.391 . S
C1782 H1772 0.950 . S
C1782 C1783 1.386 . S
C1782 C1784 1.391 . S
C1783 C1782 1.386 . S
C1783 C1787 1.393 . S
C1784 H1773 0.950 . S
C1784 C1782 1.391 . S
C1784 C1785 1.400 . S
C1785 C1779 1.491 . S
C1785 C1784 1.400 . S
C1785 C1786 1.398 . S
C1786 H1774 0.950 . S
C1786 C1785 1.398 . S
C1786 C1787 1.391 . S
C1787 H1775 0.950 . S
C1787 C1783 1.393 . S
C1787 C1786 1.391 . S
H1788 C1796 0.950 . S
H1789 C1801 0.950 . S
H1790 C1798 0.950 . S
H1791 C1800 0.950 . S
H1792 C1802 0.950 . S
H1793 C1804 0.950 . S
H1794 C1806 0.950 . S
H1795 C1807 0.950 . S
C1796 H1788 0.950 . S
C1796 C1797 1.386 . S
C1796 C1798 1.391 . S
C1797 C1796 1.386 . S
C1797 C1801 1.393 . S
C1798 H1790 0.950 . S
C1798 C1796 1.391 . S
C1798 C1799 1.400 . S
C1799 C1798 1.400 . S
C1799 C1800 1.398 . S
C1799 C1805 1.491 1_655 S
C1800 H1791 0.950 . S
C1800 C1799 1.398 . S
C1800 C1801 1.391 . S
C1801 H1789 0.950 . S
C1801 C1797 1.393 . S
C1801 C1800 1.391 . S
C1802 H1792 0.950 . S
C1802 C1803 1.386 . S
C1802 C1804 1.391 . S
C1803 C1802 1.386 . S
C1803 C1807 1.393 . S
C1804 H1793 0.950 . S
C1804 C1802 1.391 . S
C1804 C1805 1.400 . S
C1805 C1799 1.491 1_455 S
C1805 C1804 1.400 . S
C1805 C1806 1.398 . S
C1806 H1794 0.950 . S
C1806 C1805 1.398 . S
C1806 C1807 1.391 . S
C1807 H1795 0.950 . S
C1807 C1803 1.393 . S
C1807 C1806 1.391 . S
H1808 C1816 0.950 . S
H1809 C1821 0.950 . S
H1810 C1818 0.950 . S
H1811 C1820 0.950 . S
H1812 C1822 0.950 . S
H1813 C1824 0.950 . S
H1814 C1826 0.950 . S
H1815 C1827 0.950 . S
C1816 H1808 0.950 . S
C1816 C1817 1.386 . S
C1816 C1818 1.391 . S
C1817 C1816 1.386 . S
C1817 C1821 1.393 . S
C1818 H1810 0.950 . S
C1818 C1816 1.391 . S
C1818 C1819 1.400 . S
C1819 C1818 1.400 . S
C1819 C1820 1.398 . S
C1819 C1825 1.491 . S
C1820 H1811 0.950 . S
C1820 C1819 1.398 . S
C1820 C1821 1.391 . S
C1821 H1809 0.950 . S
C1821 C1817 1.393 . S
C1821 C1820 1.391 . S
C1822 H1812 0.950 . S
C1822 C1823 1.386 . S
C1822 C1824 1.391 . S
C1823 C1822 1.386 . S
C1823 C1827 1.393 . S
C1824 H1813 0.950 . S
C1824 C1822 1.391 . S
C1824 C1825 1.400 . S
C1825 C1819 1.491 . S
C1825 C1824 1.400 . S
C1825 C1826 1.398 . S
C1826 H1814 0.950 . S
C1826 C1825 1.398 . S
C1826 C1827 1.391 . S
C1827 H1815 0.950 . S
C1827 C1823 1.393 . S
C1827 C1826 1.391 . S
H1828 C1836 0.950 . S
H1829 C1841 0.950 . S
H1830 C1838 0.950 . S
H1831 C1840 0.950 . S
H1832 C1842 0.950 . S
H1833 C1844 0.950 . S
H1834 C1846 0.950 . S
H1835 C1847 0.950 . S
C1836 H1828 0.950 . S
C1836 C1837 1.386 . S
C1836 C1838 1.391 . S
C1837 C1836 1.386 . S
C1837 C1841 1.393 . S
C1838 H1830 0.950 . S
C1838 C1836 1.391 . S
C1838 C1839 1.400 . S
C1839 C1838 1.400 . S
C1839 C1840 1.398 . S
C1839 C1845 1.491 1_565 S
C1840 H1831 0.950 . S
C1840 C1839 1.398 . S
C1840 C1841 1.391 . S
C1841 H1829 0.950 . S
C1841 C1837 1.393 . S
C1841 C1840 1.391 . S
C1842 H1832 0.950 . S
C1842 C1843 1.386 . S
C1842 C1844 1.391 . S
C1843 C1842 1.386 . S
C1843 C1847 1.393 . S
C1844 H1833 0.950 . S
C1844 C1842 1.391 . S
C1844 C1845 1.400 . S
C1845 C1839 1.491 1_545 S
C1845 C1844 1.400 . S
C1845 C1846 1.398 . S
C1846 H1834 0.950 . S
C1846 C1845 1.398 . S
C1846 C1847 1.391 . S
C1847 H1835 0.950 . S
C1847 C1843 1.393 . S
C1847 C1846 1.391 . S
H1848 C1856 0.950 . S
H1849 C1861 0.950 . S
H1850 C1858 0.950 . S
H1851 C1860 0.950 . S
H1852 C1862 0.950 . S
H1853 C1864 0.950 . S
H1854 C1866 0.950 . S
H1855 C1867 0.950 . S
C1856 H1848 0.950 . S
C1856 C1857 1.386 . S
C1856 C1858 1.391 . S
C1857 C1856 1.386 . S
C1857 C1861 1.393 . S
C1858 H1850 0.950 . S
C1858 C1856 1.391 . S
C1858 C1859 1.400 . S
C1859 C1858 1.400 . S
C1859 C1860 1.398 . S
C1859 C1865 1.491 1_545 S
C1860 H1851 0.950 . S
C1860 C1859 1.398 . S
C1860 C1861 1.391 . S
C1861 H1849 0.950 . S
C1861 C1857 1.393 . S
C1861 C1860 1.391 . S
C1862 H1852 0.950 . S
C1862 C1863 1.386 . S
C1862 C1864 1.391 . S
C1863 C1862 1.386 . S
C1863 C1867 1.393 . S
C1864 H1853 0.950 . S
C1864 C1862 1.391 . S
C1864 C1865 1.400 . S
C1865 C1859 1.491 1_565 S
C1865 C1864 1.400 . S
C1865 C1866 1.398 . S
C1866 H1854 0.950 . S
C1866 C1865 1.398 . S
C1866 C1867 1.391 . S
C1867 H1855 0.950 . S
C1867 C1863 1.393 . S
C1867 C1866 1.391 . S
H1868 C1876 0.950 . S
H1869 C1881 0.950 . S
H1870 C1878 0.950 . S
H1871 C1880 0.950 . S
H1872 C1882 0.950 . S
H1873 C1884 0.950 . S
H1874 C1886 0.950 . S
H1875 C1887 0.950 . S
C1876 H1868 0.950 . S
C1876 C1877 1.386 . S
C1876 C1878 1.391 . S
C1877 C1876 1.386 . S
C1877 C1881 1.393 . S
C1878 H1870 0.950 . S
C1878 C1876 1.391 . S
C1878 C1879 1.400 . S
C1879 C1878 1.400 . S
C1879 C1880 1.398 . S
C1879 C1885 1.491 1_455 S
C1880 H1871 0.950 . S
C1880 C1879 1.398 . S
C1880 C1881 1.391 . S
C1881 H1869 0.950 . S
C1881 C1877 1.393 . S
C1881 C1880 1.391 . S
C1882 H1872 0.950 . S
C1882 C1883 1.386 . S
C1882 C1884 1.391 . S
C1883 C1882 1.386 . S
C1883 C1887 1.393 . S
C1884 H1873 0.950 . S
C1884 C1882 1.391 . S
C1884 C1885 1.400 . S
C1885 C1879 1.491 1_655 S
C1885 C1884 1.400 . S
C1885 C1886 1.398 . S
C1886 H1874 0.950 . S
C1886 C1885 1.398 . S
C1886 C1887 1.391 . S
C1887 H1875 0.950 . S
C1887 C1883 1.393 . S
C1887 C1886 1.391 . S
H1888 C1896 0.950 . S
H1889 C1901 0.950 . S
H1890 C1898 0.950 . S
H1891 C1900 0.950 . S
H1892 C1902 0.950 . S
H1893 C1904 0.950 . S
H1894 C1906 0.950 . S
H1895 C1907 0.950 . S
C1896 H1888 0.950 . S
C1896 C1897 1.386 . S
C1896 C1898 1.391 . S
C1897 C1896 1.386 . S
C1897 C1901 1.393 . S
C1898 H1890 0.950 . S
C1898 C1896 1.391 . S
C1898 C1899 1.400 . S
C1899 C1898 1.400 . S
C1899 C1900 1.398 . S
C1899 C1905 1.491 . S
C1900 H1891 0.950 . S
C1900 C1899 1.398 . S
C1900 C1901 1.391 . S
C1901 H1889 0.950 . S
C1901 C1897 1.393 . S
C1901 C1900 1.391 . S
C1902 H1892 0.950 . S
C1902 C1903 1.386 . S
C1902 C1904 1.391 . S
C1903 C1902 1.386 . S
C1903 C1907 1.393 . S
C1904 H1893 0.950 . S
C1904 C1902 1.391 . S
C1904 C1905 1.400 . S
C1905 C1899 1.491 . S
C1905 C1904 1.400 . S
C1905 C1906 1.398 . S
C1906 H1894 0.950 . S
C1906 C1905 1.398 . S
C1906 C1907 1.391 . S
C1907 H1895 0.950 . S
C1907 C1903 1.393 . S
C1907 C1906 1.391 . S
C477 C65 1.337 . S
C483 C0 1.315 . S
C497 C13 1.315 . S
C503 C39 1.315 . S
C517 C52 1.335 . S
C523 C26 1.314 . S
C537 C78 1.340 . S
C543 C143 1.329 . S
C557 C91 1.314 . S
C563 C117 1.336 . S
C577 C130 1.337 . S
C583 C104 1.316 . S
C597 C221 1.312 . S
C603 C156 1.322 . S
C617 C169 1.313 . S
C623 C195 1.333 . S
C637 C208 1.338 . S
C643 C182 1.334 . S
C657 C234 1.339 . S
C663 C299 1.332 . S
C677 C247 1.323 . S
C683 C273 1.341 . S
C697 C260 1.331 . S
C703 C286 1.339 . S
C717 C312 1.341 . S
C723 C377 1.328 . S
C737 C351 1.311 . S
C743 C325 1.326 . S
C757 C338 1.317 . S
C763 C364 1.338 . S
C777 C390 1.314 . S
C783 C455 1.335 . S
C797 C403 1.311 . S
C803 C429 1.325 . S
C817 C416 1.341 . S
C823 C442 1.326 . S
C837 C138 1.007 . S
C843 C5 0.931 . S
C857 C151 1.005 . S
C863 C18 0.974 . S
C877 C125 0.996 . S
C883 C31 0.930 . S
C897 C112 1.033 . S
C903 C44 0.980 . S
C917 C57 0.965 . S
C923 C86 1.000 . S
C937 C70 0.976 . S
C943 C99 1.033 . S
C957 C83 0.954 . S
C963 C60 0.995 . S
C977 C96 0.979 . S
C983 C73 1.033 . S
C997 C109 0.966 . S
C1003 C47 1.030 . S
C1017 C34 1.002 . S
C1023 C122 0.969 . S
C1037 C8 0.993 . S
C1043 C135 0.946 . S
C1057 C148 0.939 . S
C1063 C21 1.015 . S
C1077 C161 0.990 . S
C1083 C294 1.028 1_554 S
C1097 C174 0.939 . S
C1103 C307 0.992 1_554 S
C1117 C281 1.026 1_554 S
C1123 C187 0.955 . S
C1137 C200 0.975 . S
C1143 C268 1.033 . S
C1157 C213 0.980 . S
C1163 C242 1.033 . S
C1177 C226 0.986 . S
C1183 C255 1.032 . S
C1197 C239 0.954 . S
C1203 C216 0.995 . S
C1217 C229 0.996 . S
C1223 C252 0.930 . S
C1237 C203 1.016 . S
C1243 C265 0.986 . S
C1257 C278 0.981 . S
C1263 C190 1.033 . S
C1277 C164 0.993 . S
C1283 C291 0.934 . S
C1297 C177 1.012 . S
C1303 C304 0.982 . S
C1317 C450 1.032 . S
C1323 C317 0.986 . S
C1337 C330 0.948 . S
C1343 C463 0.993 . S
C1357 C343 0.961 . S
C1363 C437 1.029 . S
C1377 C424 1.006 . S
C1383 C356 0.931 . S
C1397 C398 1.017 . S
C1403 C369 0.986 . S
C1417 C411 1.016 . S
C1423 C382 0.940 . S
C1437 C395 0.943 . S
C1443 C372 0.993 1_556 S
C1457 C385 0.992 1_556 S
C1463 C408 0.939 . S
C1477 C421 0.969 . S
C1483 C359 1.031 1_556 S
C1497 C346 1.027 . S
C1503 C434 0.957 . S
C1517 C320 0.992 . S
C1523 C447 0.943 . S
C1537 C333 1.026 . S
C1543 C460 0.954 . S
C1557 C218 1.402 . S
C1563 C10 1.416 1_556 S
C1577 C23 1.413 1_556 S
C1583 C231 1.405 . S
C1597 C205 1.404 . S
C1603 C36 1.414 1_556 S
C1617 C348 1.406 . S
C1623 C49 1.409 . S
C1637 C62 1.416 . S
C1643 C322 1.402 . S
C1657 C75 1.414 . S
C1663 C335 1.404 . S
C1677 C88 1.400 1_554 S
C1683 C452 1.417 . S
C1697 C465 1.406 . S
C1703 C101 1.412 1_554 S
C1717 C439 1.399 . S
C1723 C114 1.418 1_554 S
C1737 C270 1.416 . S
C1743 C127 1.399 . S
C1757 C140 1.410 . S
C1763 C244 1.406 . S
C1777 C153 1.399 . S
C1783 C257 1.418 . S
C1797 C166 1.408 . S
C1803 C374 1.411 . S
C1817 C387 1.404 . S
C1823 C179 1.411 . S
C1837 C361 1.407 . S
C1843 C192 1.411 . S
C1857 C283 1.418 . S
C1863 C426 1.399 . S
C1877 C400 1.404 . S
C1883 C296 1.415 . S
C1897 C413 1.401 . S
C1903 C309 1.415 . S
