# Generated by pormake.
# Topology snl, (6)-cn, num edge types: 1
# Building blocks:
#     Node 0, Type 0, BuildingBlock: BETDEL_clean_sbu_0, # of connection points: 6
#     Node 1, Type 0, BuildingBlock: BETDEL_clean_sbu_0, # of connection points: 6
#     Node 2, Type 0, BuildingBlock: BETDEL_clean_sbu_0, # of connection points: 6
#     Node 3, Type 0, BuildingBlock: BETDEL_clean_sbu_0, # of connection points: 6
#     Node 4, Type 0, BuildingBlock: BETDEL_clean_sbu_0, # of connection points: 6
#     Node 5, Type 0, BuildingBlock: BETDEL_clean_sbu_0, # of connection points: 6
#     Node 6, Type 0, BuildingBlock: BETDEL_clean_sbu_0, # of connection points: 6
#     Node 7, Type 0, BuildingBlock: BETDEL_clean_sbu_0, # of connection points: 6
#     Node 8, Type 0, BuildingBlock: BETDEL_clean_sbu_0, # of connection points: 6
#     Node 9, Type 0, BuildingBlock: BETDEL_clean_sbu_0, # of connection points: 6
#     Node 10, Type 0, BuildingBlock: BETDEL_clean_sbu_0, # of connection points: 6
#     Node 11, Type 0, BuildingBlock: BETDEL_clean_sbu_0, # of connection points: 6
#     Node 12, Type 0, BuildingBlock: BETDEL_clean_sbu_0, # of connection points: 6
#     Node 13, Type 0, BuildingBlock: BETDEL_clean_sbu_0, # of connection points: 6
#     Node 14, Type 0, BuildingBlock: BETDEL_clean_sbu_0, # of connection points: 6
#     Node 15, Type 0, BuildingBlock: BETDEL_clean_sbu_0, # of connection points: 6
#     Edge 16, Type (0, 0), BuildingBlock: TEMPAE_clean_linker_10, # of connection points: 2
#     Edge 17, Type (0, 0), BuildingBlock: TEMPAE_clean_linker_10, # of connection points: 2
#     Edge 18, Type (0, 0), BuildingBlock: TEMPAE_clean_linker_10, # of connection points: 2
#     Edge 19, Type (0, 0), BuildingBlock: TEMPAE_clean_linker_10, # of connection points: 2
#     Edge 20, Type (0, 0), BuildingBlock: TEMPAE_clean_linker_10, # of connection points: 2
#     Edge 21, Type (0, 0), BuildingBlock: TEMPAE_clean_linker_10, # of connection points: 2
#     Edge 22, Type (0, 0), BuildingBlock: TEMPAE_clean_linker_10, # of connection points: 2
#     Edge 23, Type (0, 0), BuildingBlock: TEMPAE_clean_linker_10, # of connection points: 2
#     Edge 24, Type (0, 0), BuildingBlock: TEMPAE_clean_linker_10, # of connection points: 2
#     Edge 25, Type (0, 0), BuildingBlock: TEMPAE_clean_linker_10, # of connection points: 2
#     Edge 26, Type (0, 0), BuildingBlock: TEMPAE_clean_linker_10, # of connection points: 2
#     Edge 27, Type (0, 0), BuildingBlock: TEMPAE_clean_linker_10, # of connection points: 2
#     Edge 28, Type (0, 0), BuildingBlock: TEMPAE_clean_linker_10, # of connection points: 2
#     Edge 29, Type (0, 0), BuildingBlock: TEMPAE_clean_linker_10, # of connection points: 2
#     Edge 30, Type (0, 0), BuildingBlock: TEMPAE_clean_linker_10, # of connection points: 2
#     Edge 31, Type (0, 0), BuildingBlock: TEMPAE_clean_linker_10, # of connection points: 2
#     Edge 32, Type (0, 0), BuildingBlock: TEMPAE_clean_linker_10, # of connection points: 2
#     Edge 33, Type (0, 0), BuildingBlock: TEMPAE_clean_linker_10, # of connection points: 2
#     Edge 34, Type (0, 0), BuildingBlock: TEMPAE_clean_linker_10, # of connection points: 2
#     Edge 35, Type (0, 0), BuildingBlock: TEMPAE_clean_linker_10, # of connection points: 2
#     Edge 36, Type (0, 0), BuildingBlock: TEMPAE_clean_linker_10, # of connection points: 2
#     Edge 37, Type (0, 0), BuildingBlock: TEMPAE_clean_linker_10, # of connection points: 2
#     Edge 38, Type (0, 0), BuildingBlock: TEMPAE_clean_linker_10, # of connection points: 2
#     Edge 39, Type (0, 0), BuildingBlock: TEMPAE_clean_linker_10, # of connection points: 2
#     Edge 40, Type (0, 0), BuildingBlock: TEMPAE_clean_linker_10, # of connection points: 2
#     Edge 41, Type (0, 0), BuildingBlock: TEMPAE_clean_linker_10, # of connection points: 2
#     Edge 42, Type (0, 0), BuildingBlock: TEMPAE_clean_linker_10, # of connection points: 2
#     Edge 43, Type (0, 0), BuildingBlock: TEMPAE_clean_linker_10, # of connection points: 2
#     Edge 44, Type (0, 0), BuildingBlock: TEMPAE_clean_linker_10, # of connection points: 2
#     Edge 45, Type (0, 0), BuildingBlock: TEMPAE_clean_linker_10, # of connection points: 2
#     Edge 46, Type (0, 0), BuildingBlock: TEMPAE_clean_linker_10, # of connection points: 2
#     Edge 47, Type (0, 0), BuildingBlock: TEMPAE_clean_linker_10, # of connection points: 2
#     Edge 48, Type (0, 0), BuildingBlock: TEMPAE_clean_linker_10, # of connection points: 2
#     Edge 49, Type (0, 0), BuildingBlock: TEMPAE_clean_linker_10, # of connection points: 2
#     Edge 50, Type (0, 0), BuildingBlock: TEMPAE_clean_linker_10, # of connection points: 2
#     Edge 51, Type (0, 0), BuildingBlock: TEMPAE_clean_linker_10, # of connection points: 2
#     Edge 52, Type (0, 0), BuildingBlock: TEMPAE_clean_linker_10, # of connection points: 2
#     Edge 53, Type (0, 0), BuildingBlock: TEMPAE_clean_linker_10, # of connection points: 2
#     Edge 54, Type (0, 0), BuildingBlock: TEMPAE_clean_linker_10, # of connection points: 2
#     Edge 55, Type (0, 0), BuildingBlock: TEMPAE_clean_linker_10, # of connection points: 2
#     Edge 56, Type (0, 0), BuildingBlock: TEMPAE_clean_linker_10, # of connection points: 2
#     Edge 57, Type (0, 0), BuildingBlock: TEMPAE_clean_linker_10, # of connection points: 2
#     Edge 58, Type (0, 0), BuildingBlock: TEMPAE_clean_linker_10, # of connection points: 2
#     Edge 59, Type (0, 0), BuildingBlock: TEMPAE_clean_linker_10, # of connection points: 2
#     Edge 60, Type (0, 0), BuildingBlock: TEMPAE_clean_linker_10, # of connection points: 2
#     Edge 61, Type (0, 0), BuildingBlock: TEMPAE_clean_linker_10, # of connection points: 2
#     Edge 62, Type (0, 0), BuildingBlock: TEMPAE_clean_linker_10, # of connection points: 2
#     Edge 63, Type (0, 0), BuildingBlock: TEMPAE_clean_linker_10, # of connection points: 2
# Relax obj value: 0.146
# Max RMSD: 0.204
# Mean RMSD: 0.175
data_MOF--net-snl--node1-BETDEL_clean_sbu_0--edge1-TEMPAE_clean_linker_10
_symmetry_space_group_name_H-M    P1
_symmetry_Int_Tables_number       1
_symmetry_cell_setting            triclinic
loop_
_symmetry_equiv_pos_as_xyz
'x, y, z'
_cell_length_a     58.964025
_cell_length_b     59.00624
_cell_length_c     18.368244
_cell_angle_alpha  100.34303
_cell_angle_beta   90.02561
_cell_angle_gamma 90.051553
loop_
_atom_site_label
_atom_site_type_symbol
_atom_site_fract_x
_atom_site_fract_y
_atom_site_fract_z
_atom_type_partial_charge
Dy0 Dy 0.14288 0.62908 0.06598 0.0
C1 C 0.1345 0.62792 0.37863 0.0
C2 C 0.1463 0.61698 0.91646 0.0
Dy3 Dy 0.13302 0.62924 0.23146 0.0
O4 O 0.12968 0.61117 0.95582 0.0
O5 O 0.16141 0.62861 0.95926 0.0
O6 O 0.1449 0.66683 0.06464 0.0
O7 O 0.13823 0.65551 0.16408 0.0
C8 C 0.14073 0.67306 0.1345 0.0
C9 C 0.12722 0.58893 0.13878 0.0
O10 O 0.09955 0.64156 0.19938 0.0
O11 O 0.10455 0.6274 0.07373 0.0
O12 O 0.14299 0.61266 0.32637 0.0
O13 O 0.12503 0.64443 0.35083 0.0
O14 O 0.11438 0.59593 0.19565 0.0
O15 O 0.14294 0.60321 0.13607 0.0
O16 O 0.17802 0.62315 0.10628 0.0
O17 O 0.17036 0.63543 0.23126 0.0
C18 C 0.09148 0.63581 0.1313 0.0
C19 C 0.18476 0.62914 0.17606 0.0
Dy20 Dy 0.63956 0.87635 0.44181 0.0
C21 C 0.6288 0.87282 0.13596 0.0
C22 C 0.63878 0.87747 0.59129 0.0
Dy23 Dy 0.63018 0.87774 0.28681 0.0
O24 O 0.63083 0.86112 0.54141 0.0
O25 O 0.64739 0.89356 0.55973 0.0
O26 O 0.65729 0.84291 0.40707 0.0
O27 O 0.62808 0.84944 0.34953 0.0
C28 C 0.64335 0.83472 0.3543 0.0
C29 C 0.62693 0.91939 0.37444 0.0
O30 O 0.59683 0.86496 0.31875 0.0
O31 O 0.60181 0.88317 0.43886 0.0
O32 O 0.61559 0.88601 0.18145 0.0
O33 O 0.64241 0.86177 0.17276 0.0
O34 O 0.61436 0.91271 0.31678 0.0
O35 O 0.6417 0.90433 0.37938 0.0
O36 O 0.67549 0.8831 0.4118 0.0
O37 O 0.66818 0.87712 0.28598 0.0
C38 C 0.58833 0.87347 0.38437 0.0
C39 C 0.68251 0.88084 0.34235 0.0
Dy40 Dy 0.38354 0.39426 0.68419 0.0
C41 C 0.37567 0.37526 0.36872 0.0
C42 C 0.37762 0.39774 0.83429 0.0
Dy43 Dy 0.37767 0.37698 0.51917 0.0
O44 O 0.39436 0.40671 0.80307 0.0
O45 O 0.36373 0.38784 0.78355 0.0
O46 O 0.41814 0.4075 0.6682 0.0
O47 O 0.40658 0.37798 0.5956 0.0
C48 C 0.42246 0.39266 0.60849 0.0
C49 C 0.33976 0.37876 0.60106 0.0
O50 O 0.38468 0.34244 0.54723 0.0
O51 O 0.3825 0.35554 0.6742 0.0
O52 O 0.36147 0.38573 0.41709 0.0
O53 O 0.39089 0.36483 0.40227 0.0
O54 O 0.34352 0.36294 0.54346 0.0
O55 O 0.35545 0.39347 0.60849 0.0
O56 O 0.37515 0.42767 0.64743 0.0
O57 O 0.38835 0.41377 0.52956 0.0
C58 C 0.38403 0.33856 0.61615 0.0
C59 C 0.38218 0.43114 0.5816 0.0
Dy60 Dy 0.88312 0.1158 0.83547 0.0
C61 C 0.87519 0.1355 0.15107 0.0
C62 C 0.8772 0.11225 0.68522 0.0
Dy63 Dy 0.87731 0.13369 1.00048 0.0
O64 O 0.89403 0.10348 0.7166 0.0
O65 O 0.86321 0.12196 0.73589 0.0
O66 O 0.91734 0.10184 0.85222 0.0
O67 O 0.90634 0.13173 0.92423 0.0
C68 C 0.92185 0.11665 0.91189 0.0
C69 C 0.83954 0.13236 0.91789 0.0
O70 O 0.88509 0.16796 0.97138 0.0
O71 O 0.88304 0.15449 0.84454 0.0
O72 O 0.86091 0.12515 0.10259 0.0
O73 O 0.89053 0.14581 0.11754 0.0
O74 O 0.84352 0.14828 0.97514 0.0
O75 O 0.85494 0.11737 0.91117 0.0
O76 O 0.87417 0.08264 0.8731 0.0
O77 O 0.88723 0.09674 0.99114 0.0
C78 C 0.88475 0.17161 0.90215 0.0
C79 C 0.88093 0.07932 0.93941 0.0
Dy80 Dy 0.14267 0.38331 0.92995 0.0
C81 C 0.13054 0.37823 0.62311 0.0
C82 C 0.14219 0.38415 0.07935 0.0
Dy83 Dy 0.13208 0.38378 0.77415 0.0
O84 O 0.13501 0.36749 0.02909 0.0
O85 O 0.14993 0.40075 0.04821 0.0
O86 O 0.16143 0.35052 0.89481 0.0
O87 O 0.1316 0.35595 0.83874 0.0
C88 C 0.14741 0.34177 0.84298 0.0
C89 C 0.12754 0.4253 0.861 0.0
O90 O 0.09951 0.36988 0.80848 0.0
O91 O 0.10466 0.38853 0.9282 0.0
O92 O 0.11693 0.39107 0.66822 0.0
O93 O 0.14457 0.36782 0.66044 0.0
O94 O 0.11503 0.41809 0.8036 0.0
O95 O 0.14301 0.41092 0.86578 0.0
O96 O 0.17813 0.39106 0.89771 0.0
O97 O 0.17007 0.38452 0.77222 0.0
C98 C 0.0912 0.37814 0.87464 0.0
C99 C 0.18468 0.38878 0.82773 0.0
Dy100 Dy 0.88146 0.88997 0.22182 0.0
C101 C 0.87426 0.87183 0.89978 0.0
C102 C 0.87068 0.89502 0.36831 0.0
Dy103 Dy 0.87725 0.87229 0.04851 0.0
O104 O 0.88493 0.90806 0.3404 0.0
O105 O 0.86159 0.88016 0.31556 0.0
O106 O 0.91945 0.88963 0.23217 0.0
O107 O 0.90417 0.8795 0.12954 0.0
C108 C 0.92304 0.88208 0.16224 0.0
C109 C 0.83933 0.87303 0.13017 0.0
O110 O 0.88697 0.83901 0.08087 0.0
O111 O 0.87903 0.85124 0.20644 0.0
O112 O 0.86035 0.88202 0.94971 0.0
O113 O 0.88989 0.86107 0.93082 0.0
O114 O 0.84324 0.85766 0.07148 0.0
O115 O 0.85495 0.88781 0.13909 0.0
O116 O 0.87653 0.92355 0.18173 0.0
O117 O 0.88815 0.90904 0.06125 0.0
C118 C 0.88388 0.83481 0.14891 0.0
C119 C 0.88298 0.92652 0.11459 0.0
Dy120 Dy 0.38359 0.62135 0.30447 0.0
C121 C 0.3754 0.63951 0.62653 0.0
C122 C 0.37306 0.61618 0.15778 0.0
Dy123 Dy 0.37852 0.63892 0.47782 0.0
O124 O 0.38759 0.60348 0.18584 0.0
O125 O 0.36362 0.63078 0.21041 0.0
O126 O 0.42169 0.62267 0.29644 0.0
O127 O 0.40571 0.63209 0.3981 0.0
C128 C 0.42477 0.63005 0.36677 0.0
C129 C 0.34097 0.6378 0.39426 0.0
O130 O 0.388 0.67236 0.44563 0.0
O131 O 0.38069 0.65999 0.31964 0.0
O132 O 0.36152 0.62923 0.57651 0.0
O133 O 0.39104 0.65029 0.59558 0.0
O134 O 0.34452 0.65316 0.4533 0.0
O135 O 0.35673 0.62319 0.38599 0.0
O136 O 0.37887 0.58765 0.34383 0.0
O137 O 0.38947 0.60218 0.46548 0.0
C138 C 0.38517 0.6765 0.37736 0.0
C139 C 0.38486 0.5847 0.41141 0.0
Dy140 Dy 0.64233 0.1267 0.58908 0.0
C141 C 0.63353 0.12482 0.89229 0.0
C142 C 0.64398 0.12195 0.43815 0.0
Dy143 Dy 0.63275 0.12419 0.74307 0.0
O144 O 0.65456 0.13752 0.48453 0.0
O145 O 0.63281 0.10852 0.47411 0.0
O146 O 0.65835 0.16101 0.62237 0.0
O147 O 0.63003 0.153 0.68166 0.0
C148 C 0.64467 0.16838 0.67653 0.0
C149 C 0.62898 0.08344 0.65138 0.0
O150 O 0.59706 0.13036 0.71528 0.0
O151 O 0.60378 0.12675 0.58938 0.0
O152 O 0.64308 0.10954 0.84246 0.0
O153 O 0.62328 0.14002 0.86079 0.0
O154 O 0.61586 0.09008 0.70769 0.0
O155 O 0.64433 0.0982 0.64883 0.0
O156 O 0.67704 0.11695 0.62349 0.0
O157 O 0.66978 0.13216 0.74533 0.0
C158 C 0.58972 0.12896 0.64673 0.0
C159 C 0.6842 0.12411 0.69211 0.0
Dy160 Dy 0.87703 0.38005 0.78223 0.0
C161 C 0.8675 0.38226 0.08771 0.0
C162 C 0.87571 0.37897 0.63299 0.0
Dy163 Dy 0.86885 0.37783 0.93704 0.0
O164 O 0.86609 0.39425 0.68266 0.0
O165 O 0.88619 0.36396 0.66461 0.0
O166 O 0.89362 0.41442 0.81508 0.0
O167 O 0.86587 0.40609 0.87685 0.0
C168 C 0.88088 0.42103 0.87233 0.0
C169 C 0.86613 0.33608 0.85025 0.0
O170 O 0.83389 0.38758 0.90549 0.0
O171 O 0.84004 0.37202 0.78321 0.0
O172 O 0.85716 0.36655 0.04123 0.0
O173 O 0.87838 0.39597 0.05205 0.0
O174 O 0.8527 0.34358 0.90489 0.0
O175 O 0.88072 0.35141 0.84402 0.0
O176 O 0.91296 0.37432 0.80766 0.0
O177 O 0.90736 0.37882 0.93426 0.0
C178 C 0.82611 0.38017 0.8378 0.0
C179 C 0.92094 0.37644 0.87566 0.0
Dy180 Dy 0.37656 0.13065 0.73477 0.0
C181 C 0.36549 0.12517 0.42788 0.0
C182 C 0.37501 0.13156 0.8842 0.0
Dy183 Dy 0.36749 0.13064 0.57896 0.0
O184 O 0.3651 0.11664 0.83413 0.0
O185 O 0.38593 0.14641 0.85289 0.0
O186 O 0.39396 0.09648 0.70354 0.0
O187 O 0.36539 0.10349 0.6434 0.0
C188 C 0.38072 0.089 0.64813 0.0
C189 C 0.36461 0.17328 0.66111 0.0
O190 O 0.33365 0.11923 0.61542 0.0
O191 O 0.33966 0.13935 0.73252 0.0
O192 O 0.35354 0.13957 0.47383 0.0
O193 O 0.37823 0.11318 0.46436 0.0
O194 O 0.3512 0.16507 0.60705 0.0
O195 O 0.37934 0.1583 0.66856 0.0
O196 O 0.41176 0.13928 0.70708 0.0
O197 O 0.40597 0.12907 0.58085 0.0
C198 C 0.3257 0.12891 0.68101 0.0
C199 C 0.41964 0.13487 0.63869 0.0
Dy200 Dy 0.633 0.63254 0.49156 0.0
C201 C 0.6377 0.609 0.17152 0.0
C202 C 0.63589 0.634 0.641 0.0
Dy203 Dy 0.62763 0.61298 0.31856 0.0
O204 O 0.65083 0.62518 0.59229 0.0
O205 O 0.61938 0.64303 0.60836 0.0
O206 O 0.66625 0.64796 0.46489 0.0
O207 O 0.65486 0.61723 0.39945 0.0
C208 C 0.67002 0.63251 0.40618 0.0
C209 C 0.58667 0.61838 0.38388 0.0
O210 O 0.63496 0.57998 0.36009 0.0
O211 O 0.62548 0.59506 0.48248 0.0
O212 O 0.62399 0.59538 0.19916 0.0
O213 O 0.64659 0.62385 0.22468 0.0
O214 O 0.58953 0.60977 0.3142 0.0
O215 O 0.60586 0.6231 0.41282 0.0
O216 O 0.62158 0.66497 0.45746 0.0
O217 O 0.62762 0.65186 0.33109 0.0
C218 C 0.63073 0.57748 0.42954 0.0
C219 C 0.62337 0.66863 0.38839 0.0
Dy220 Dy 0.1303 0.87384 0.0142 0.0
C221 C 0.12462 0.89647 0.33089 0.0
C222 C 0.12561 0.87118 0.86367 0.0
Dy223 Dy 0.12462 0.89311 0.17932 0.0
O224 O 0.14113 0.86059 0.89535 0.0
O225 O 0.11218 0.88202 0.91405 0.0
O226 O 0.16513 0.86075 0.03529 0.0
O227 O 0.15275 0.89068 0.10246 0.0
C228 C 0.16862 0.87618 0.09425 0.0
C229 C 0.08644 0.89195 0.09923 0.0
O230 O 0.13147 0.92722 0.14437 0.0
O231 O 0.12852 0.91184 0.01899 0.0
O232 O 0.10784 0.88964 0.28671 0.0
O233 O 0.1414 0.90262 0.29249 0.0
O234 O 0.09138 0.908 0.1553 0.0
O235 O 0.10161 0.8765 0.09116 0.0
O236 O 0.11956 0.84134 0.04987 0.0
O237 O 0.13069 0.85491 0.17072 0.0
C238 C 0.13005 0.92966 0.07384 0.0
C239 C 0.12458 0.83775 0.11725 0.0
Dy240 Dy 0.87898 0.62512 0.24651 0.0
C241 C 0.86957 0.62711 0.94277 0.0
C242 C 0.87984 0.62976 0.39724 0.0
Dy243 Dy 0.86956 0.62792 0.09201 0.0
O244 O 0.89238 0.61576 0.35186 0.0
O245 O 0.86713 0.64167 0.36042 0.0
O246 O 0.89475 0.5903 0.21443 0.0
O247 O 0.86768 0.59931 0.15164 0.0
C248 C 0.88248 0.58419 0.15575 0.0
C249 C 0.86558 0.66876 0.1832 0.0
O250 O 0.83357 0.62118 0.12181 0.0
O251 O 0.84098 0.62527 0.24726 0.0
O252 O 0.87648 0.644 0.99273 0.0
O253 O 0.86239 0.61036 0.97413 0.0
O254 O 0.85159 0.66095 0.13016 0.0
O255 O 0.88101 0.65404 0.18619 0.0
O256 O 0.91308 0.63659 0.21762 0.0
O257 O 0.90767 0.62309 0.09319 0.0
C258 C 0.82659 0.62251 0.19103 0.0
C259 C 0.92126 0.6304 0.15014 0.0
Dy260 Dy 0.13125 0.13542 0.97182 0.0
C261 C 0.13023 0.12154 0.65086 0.0
C262 C 0.1281 0.1437 0.12187 0.0
Dy263 Dy 0.12606 0.12114 0.79771 0.0
O264 O 0.14479 0.15047 0.08466 0.0
O265 O 0.11267 0.13364 0.07683 0.0
O266 O 0.16649 0.11988 0.95943 0.0
O267 O 0.15266 0.13454 0.87454 0.0
C268 C 0.1693 0.12353 0.89239 0.0
C269 C 0.08484 0.12444 0.86171 0.0
O270 O 0.13252 0.08661 0.83121 0.0
O271 O 0.12232 0.0983 0.95512 0.0
O272 O 0.11691 0.13445 0.69647 0.0
O273 O 0.14131 0.10732 0.68492 0.0
O274 O 0.08814 0.11781 0.79133 0.0
O275 O 0.10387 0.12773 0.893 0.0
O276 O 0.12472 0.17022 0.94361 0.0
O277 O 0.13246 0.15922 0.81794 0.0
C278 C 0.12713 0.08207 0.89766 0.0
C279 C 0.12816 0.17524 0.87682 0.0
Dy280 Dy 0.63129 0.37252 0.54742 0.0
C281 C 0.63754 0.39393 0.86705 0.0
C282 C 0.63391 0.37133 0.39841 0.0
Dy283 Dy 0.62687 0.38949 0.72083 0.0
O284 O 0.64894 0.38008 0.44692 0.0
O285 O 0.61732 0.3624 0.43102 0.0
O286 O 0.66494 0.35723 0.5705 0.0
O287 O 0.65354 0.3874 0.63887 0.0
C288 C 0.66895 0.37244 0.62956 0.0
C289 C 0.58537 0.38238 0.66019 0.0
O290 O 0.63299 0.42324 0.68352 0.0
O291 O 0.62319 0.4101 0.55991 0.0
O292 O 0.62374 0.40746 0.83955 0.0
O293 O 0.6462 0.37884 0.81413 0.0
O294 O 0.58887 0.38959 0.73037 0.0
O295 O 0.60426 0.3798 0.62776 0.0
O296 O 0.62126 0.33908 0.57846 0.0
O297 O 0.62897 0.35075 0.70439 0.0
C298 C 0.62797 0.42688 0.61596 0.0
C299 C 0.62414 0.33454 0.6462 0.0
Dy300 Dy 0.37532 0.88561 0.27066 0.0
C301 C 0.36399 0.88776 0.57584 0.0
C302 C 0.37465 0.88496 0.12151 0.0
Dy303 Dy 0.3656 0.88307 0.42499 0.0
O304 O 0.36531 0.90041 0.17131 0.0
O305 O 0.38464 0.8696 0.15299 0.0
O306 O 0.39236 0.91964 0.306 0.0
O307 O 0.36392 0.91149 0.36521 0.0
C308 C 0.37933 0.92618 0.36261 0.0
C309 C 0.36323 0.84149 0.33676 0.0
O310 O 0.33095 0.89297 0.39044 0.0
O311 O 0.33823 0.87793 0.2684 0.0
O312 O 0.3534 0.87219 0.52946 0.0
O313 O 0.37513 0.90121 0.53993 0.0
O314 O 0.34948 0.84882 0.39076 0.0
O315 O 0.37791 0.85686 0.3324 0.0
O316 O 0.4109 0.879 0.29866 0.0
O317 O 0.40415 0.88302 0.42464 0.0
C318 C 0.32382 0.88595 0.32171 0.0
C319 C 0.41825 0.88056 0.36729 0.0
C320 C 0.16299 0.6255 0.80019 0.0
C321 C 0.14562 0.6155 0.83568 0.0
C322 C 0.1611 0.62741 0.72548 0.0
C323 C 0.14137 0.61904 0.68555 0.0
C324 C 0.12409 0.60824 0.72056 0.0
C325 C 0.12644 0.60658 0.79542 0.0
C326 C 0.17996 0.63887 0.68978 0.0
C327 C 0.10292 0.59894 0.67942 0.0
C328 C 0.1272 0.64329 0.5127 0.0
C329 C 0.13571 0.626 0.45733 0.0
C330 C 0.12877 0.64121 0.58759 0.0
C331 C 0.139 0.62135 0.60681 0.0
C332 C 0.14743 0.60381 0.55081 0.0
C333 C 0.14571 0.60637 0.47678 0.0
C334 C 0.11967 0.66029 0.64613 0.0
C335 C 0.15841 0.58238 0.56907 0.0
H336 H 0.1778 0.63249 0.83143 0.0
H337 H 0.11294 0.59894 0.82301 0.0
H338 H 0.18643 0.62702 0.64039 0.0
H339 H 0.17336 0.65439 0.6706 0.0
H340 H 0.19434 0.6441 0.72824 0.0
H341 H 0.09133 0.59055 0.71423 0.0
H342 H 0.09366 0.61315 0.66029 0.0
H343 H 0.10749 0.58621 0.62951 0.0
H344 H 0.11947 0.65845 0.49757 0.0
H345 H 0.15229 0.59292 0.43395 0.0
H346 H 0.13357 0.66757 0.68399 0.0
H347 H 0.10672 0.65334 0.68003 0.0
H348 H 0.11193 0.67443 0.62197 0.0
H349 H 0.17357 0.58715 0.6043 0.0
H350 H 0.16369 0.57014 0.51874 0.0
H351 H 0.14648 0.57343 0.60109 0.0
C352 C 0.614 0.88505 0.02204 0.0
C353 C 0.63 0.87274 0.05572 0.0
C354 C 0.61563 0.88636 0.9467 0.0
C355 C 0.63382 0.87524 0.90432 0.0
C356 C 0.65002 0.86275 0.93816 0.0
C357 C 0.64785 0.86156 0.01352 0.0
C358 C 0.59787 0.8996 0.91241 0.0
C359 C 0.66969 0.85075 0.89484 0.0
C360 C 0.6261 0.85947 0.69649 0.0
C361 C 0.63777 0.8773 0.67143 0.0
C362 C 0.6247 0.85864 0.77208 0.0
C363 C 0.63539 0.87598 0.82395 0.0
C364 C 0.64731 0.89401 0.79898 0.0
C365 C 0.64828 0.89452 0.72276 0.0
C366 C 0.61167 0.83923 0.79641 0.0
C367 C 0.65903 0.91272 0.85275 0.0
H368 H 0.60022 0.89377 0.05473 0.0
H369 H 0.66034 0.8522 0.0397 0.0
H370 H 0.60601 0.91353 0.88839 0.0
H371 H 0.58922 0.88799 0.86653 0.0
H372 H 0.58489 0.90739 0.95312 0.0
H373 H 0.68112 0.84224 0.92978 0.0
H374 H 0.66328 0.83754 0.8487 0.0
H375 H 0.67971 0.86334 0.86995 0.0
H376 H 0.61791 0.84614 0.65686 0.0
H377 H 0.65733 0.90829 0.70336 0.0
H378 H 0.59774 0.84634 0.83427 0.0
H379 H 0.62299 0.82939 0.82758 0.0
H380 H 0.60428 0.82714 0.74898 0.0
H381 H 0.64649 0.92207 0.89204 0.0
H382 H 0.66784 0.92534 0.82439 0.0
H383 H 0.67164 0.90498 0.88588 0.0
C384 C 0.39001 0.36441 0.2378 0.0
C385 C 0.37565 0.37762 0.28955 0.0
C386 C 0.39031 0.36745 0.16332 0.0
C387 C 0.37624 0.3844 0.14048 0.0
C388 C 0.36181 0.39782 0.19288 0.0
C389 C 0.36155 0.39412 0.26634 0.0
C390 C 0.40567 0.35253 0.10903 0.0
C391 C 0.34681 0.41631 0.17158 0.0
C392 C 0.39188 0.40729 0.96509 0.0
C393 C 0.37647 0.39556 0.91349 0.0
C394 C 0.39193 0.40393 0.03914 0.0
C395 C 0.37646 0.38814 0.06191 0.0
C396 C 0.36082 0.37633 1.00988 0.0
C397 C 0.3609 0.38031 0.93661 0.0
C398 C 0.40858 0.41724 0.09302 0.0
C399 C 0.34418 0.35921 0.03133 0.0
H400 H 0.40096 0.35168 0.25548 0.0
H401 H 0.35053 0.40454 0.30618 0.0
H402 H 0.39554 0.34315 0.06218 0.0
H403 H 0.41804 0.36345 0.08565 0.0
H404 H 0.41515 0.33978 0.13495 0.0
H405 H 0.33686 0.42553 0.21917 0.0
H406 H 0.3573 0.42907 0.14905 0.0
H407 H 0.33485 0.40861 0.12736 0.0
H408 H 0.404 0.41902 0.94745 0.0
H409 H 0.34907 0.37103 0.89683 0.0
H410 H 0.41988 0.40514 0.11551 0.0
H411 H 0.39934 0.42742 0.14052 0.0
H412 H 0.41922 0.42914 0.06705 0.0
H413 H 0.35347 0.34541 0.0527 0.0
H414 H 0.33339 0.35115 0.98411 0.0
H415 H 0.33302 0.36784 0.07648 0.0
C416 C 0.86029 0.12953 0.58275 0.0
C417 C 0.87605 0.1145 0.60598 0.0
C418 C 0.86019 0.1336 0.50954 0.0
C419 C 0.87601 0.12209 0.45764 0.0
C420 C 0.89167 0.10652 0.48052 0.0
C421 C 0.89163 0.10307 0.55451 0.0
C422 C 0.84334 0.15048 0.48802 0.0
C423 C 0.90852 0.09353 0.42681 0.0
C424 C 0.86127 0.11625 0.25291 0.0
C425 C 0.87518 0.133 0.23019 0.0
C426 C 0.86156 0.11241 0.32626 0.0
C427 C 0.8758 0.12595 0.37911 0.0
C428 C 0.88967 0.14316 0.35675 0.0
C429 C 0.88938 0.14631 0.28235 0.0
C430 C 0.84679 0.09362 0.34694 0.0
C431 C 0.90481 0.15824 0.41149 0.0
H432 H 0.84832 0.13858 0.62239 0.0
H433 H 0.9039 0.0915 0.5722 0.0
H434 H 0.85245 0.16448 0.46709 0.0
H435 H 0.83233 0.14173 0.44254 0.0
H436 H 0.8324 0.1583 0.53511 0.0
H437 H 0.91928 0.08173 0.45278 0.0
H438 H 0.89945 0.08328 0.37901 0.0
H439 H 0.91969 0.10584 0.40476 0.0
H440 H 0.85039 0.10572 0.21277 0.0
H441 H 0.90019 0.15924 0.26508 0.0
H442 H 0.83468 0.10106 0.39096 0.0
H443 H 0.85743 0.081 0.3695 0.0
H444 H 0.83702 0.08429 0.29903 0.0
H445 H 0.89454 0.1674 0.45827 0.0
H446 H 0.91415 0.17119 0.38597 0.0
H447 H 0.9173 0.14747 0.43491 0.0
C448 C 0.13005 0.36537 0.18344 0.0
C449 C 0.141 0.38381 0.15941 0.0
C450 C 0.12836 0.36435 0.25885 0.0
C451 C 0.13804 0.38213 0.31168 0.0
C452 C 0.14925 0.40077 0.28778 0.0
C453 C 0.15051 0.40145 0.21168 0.0
C454 C 0.1161 0.34429 0.28194 0.0
C455 C 0.15991 0.41995 0.3426 0.0
C456 C 0.1155 0.3898 0.50836 0.0
C457 C 0.13189 0.37819 0.54288 0.0
C458 C 0.11735 0.39132 0.43319 0.0
C459 C 0.13617 0.38116 0.39188 0.0
C460 C 0.15276 0.36935 0.42656 0.0
C461 C 0.15035 0.36791 0.50167 0.0
C462 C 0.09916 0.40377 0.39797 0.0
C463 C 0.1731 0.35837 0.38444 0.0
H464 H 0.12262 0.35171 0.14313 0.0
H465 H 0.159 0.41569 0.19311 0.0
H466 H 0.12771 0.33493 0.3137 0.0
H467 H 0.10172 0.35067 0.3189 0.0
H468 H 0.10944 0.33193 0.23386 0.0
H469 H 0.16827 0.43302 0.31506 0.0
H470 H 0.14679 0.42863 0.38106 0.0
H471 H 0.17269 0.41275 0.3765 0.0
H472 H 0.10125 0.39784 0.54028 0.0
H473 H 0.16315 0.3591 0.52849 0.0
H474 H 0.09123 0.39185 0.35128 0.0
H475 H 0.10676 0.41816 0.37486 0.0
H476 H 0.08567 0.41083 0.43785 0.0
H477 H 0.16747 0.34495 0.33767 0.0
H478 H 0.18475 0.35034 0.41998 0.0
H479 H 0.18266 0.37148 0.3605 0.0
C480 C 0.85659 0.88887 0.79907 0.0
C481 C 0.87317 0.87445 0.82115 0.0
C482 C 0.85558 0.89287 0.72613 0.0
C483 C 0.87146 0.88204 0.67345 0.0
C484 C 0.88814 0.86724 0.69514 0.0
C485 C 0.88886 0.86368 0.76897 0.0
C486 C 0.83763 0.90887 0.70565 0.0
C487 C 0.90526 0.85526 0.64041 0.0
C488 C 0.85616 0.87587 0.46946 0.0
C489 C 0.86901 0.89352 0.4477 0.0
C490 C 0.85677 0.87197 0.54267 0.0
C491 C 0.87045 0.88618 0.59566 0.0
C492 C 0.88292 0.9045 0.57447 0.0
C493 C 0.8821 0.9079 0.50063 0.0
C494 C 0.84318 0.85231 0.56289 0.0
C495 C 0.89747 0.92023 0.62949 0.0
H496 H 0.84446 0.89736 0.83927 0.0
H497 H 0.90175 0.85261 0.7859 0.0
H498 H 0.84576 0.92341 0.68475 0.0
H499 H 0.82683 0.8996 0.66043 0.0
H500 H 0.82659 0.916 0.75324 0.0
H501 H 0.91695 0.84409 0.66567 0.0
H502 H 0.89641 0.84452 0.59308 0.0
H503 H 0.91546 0.86821 0.61785 0.0
H504 H 0.8461 0.86461 0.42865 0.0
H505 H 0.89216 0.92148 0.48393 0.0
H506 H 0.83137 0.85884 0.60886 0.0
H507 H 0.85472 0.83985 0.58263 0.0
H508 H 0.83318 0.84303 0.51543 0.0
H509 H 0.88705 0.92837 0.67736 0.0
H510 H 0.90565 0.93402 0.60474 0.0
H511 H 0.9109 0.91007 0.65118 0.0
C512 C 0.35808 0.62208 0.72701 0.0
C513 C 0.3744 0.63682 0.70509 0.0
C514 C 0.35725 0.61799 0.79987 0.0
C515 C 0.37301 0.62907 0.85262 0.0
C516 C 0.3894 0.64422 0.83109 0.0
C517 C 0.38997 0.64784 0.75734 0.0
C518 C 0.33962 0.60161 0.82019 0.0
C519 C 0.40638 0.6565 0.88591 0.0
C520 C 0.35796 0.63495 0.0566 0.0
C521 C 0.37123 0.61761 0.07838 0.0
C522 C 0.35833 0.63881 0.98336 0.0
C523 C 0.37218 0.62488 0.93034 0.0
C524 C 0.38506 0.60685 0.95153 0.0
C525 C 0.38449 0.60348 0.02544 0.0
C526 C 0.34431 0.65818 0.96316 0.0
C527 C 0.39978 0.5914 0.89645 0.0
H528 H 0.34606 0.61339 0.68674 0.0
H529 H 0.40265 0.65917 0.74051 0.0
H530 H 0.34804 0.58721 0.84101 0.0
H531 H 0.3287 0.61063 0.86543 0.0
H532 H 0.32865 0.59428 0.77254 0.0
H533 H 0.41783 0.66792 0.86077 0.0
H534 H 0.39739 0.66703 0.9333 0.0
H535 H 0.41684 0.64373 0.90837 0.0
H536 H 0.34776 0.64601 0.09743 0.0
H537 H 0.39485 0.59013 0.04215 0.0
H538 H 0.33258 0.65141 0.91714 0.0
H539 H 0.35558 0.6709 0.94349 0.0
H540 H 0.3342 0.66723 0.0106 0.0
H541 H 0.38943 0.58308 0.84856 0.0
H542 H 0.40822 0.57774 0.92114 0.0
H543 H 0.41301 0.6018 0.8748 0.0
C544 C 0.62142 0.1396 0.02285 0.0
C545 C 0.63469 0.12462 0.97239 0.0
C546 C 0.62245 0.13904 0.09902 0.0
C547 C 0.63731 0.12335 0.12494 0.0
C548 C 0.65084 0.10834 0.07398 0.0
C549 C 0.64926 0.10907 0.99831 0.0
C550 C 0.60765 0.1552 0.15172 0.0
C551 C 0.66712 0.09159 0.0994 0.0
C552 C 0.65655 0.13639 0.32544 0.0
C553 C 0.64293 0.1214 0.35763 0.0
C554 C 0.65489 0.13719 0.24975 0.0
C555 C 0.63906 0.12281 0.20543 0.0
C556 C 0.62531 0.10757 0.23769 0.0
C557 C 0.6275 0.10696 0.31349 0.0
C558 C 0.67007 0.15344 0.21725 0.0
C559 C 0.60816 0.09207 0.19226 0.0
H560 H 0.61012 0.15158 1.00276 0.0
H561 H 0.65962 0.09753 0.95934 0.0
H562 H 0.59669 0.14519 0.18354 0.0
H563 H 0.61837 0.16668 0.19226 0.0
H564 H 0.59669 0.16601 0.12261 0.0
H565 H 0.67651 0.08117 0.05264 0.0
H566 H 0.67958 0.10109 0.1388 0.0
H567 H 0.65776 0.07974 0.12919 0.0
H568 H 0.66848 0.1476 0.35958 0.0
H569 H 0.61684 0.09548 0.33847 0.0
H570 H 0.65963 0.16577 0.19265 0.0
H571 H 0.6805 0.14362 0.17209 0.0
H572 H 0.68158 0.16337 0.2592 0.0
H573 H 0.59597 0.10258 0.16645 0.0
H574 H 0.59853 0.08147 0.22592 0.0
H575 H 0.61682 0.08038 0.14671 0.0
C576 C 0.88354 0.39735 0.21287 0.0
C577 C 0.86833 0.38282 0.16815 0.0
C578 C 0.88541 0.39677 0.28875 0.0
C579 C 0.87154 0.38147 0.32036 0.0
C580 C 0.85591 0.36702 0.27542 0.0
C581 C 0.85458 0.36779 0.19972 0.0
C582 C 0.90235 0.41233 0.33496 0.0
C583 C 0.84061 0.35072 0.30726 0.0
C584 C 0.88833 0.36441 0.50304 0.0
C585 C 0.87478 0.37923 0.553 0.0
C586 C 0.8877 0.36515 0.42701 0.0
C587 C 0.87297 0.38087 0.40076 0.0
C588 C 0.85916 0.39574 0.45119 0.0
C589 C 0.86033 0.39482 0.52677 0.0
C590 C 0.90277 0.34914 0.3748 0.0
C591 C 0.84303 0.41252 0.42528 0.0
H592 H 0.89427 0.40887 0.1883 0.0
H593 H 0.84281 0.35653 0.16509 0.0
H594 H 0.89349 0.42396 0.3802 0.0
H595 H 0.91447 0.40187 0.36118 0.0
H596 H 0.91207 0.423 0.30176 0.0
H597 H 0.82927 0.34077 0.26484 0.0
H598 H 0.85096 0.33842 0.33226 0.0
H599 H 0.83 0.36051 0.352 0.0
H600 H 0.89956 0.35242 0.52345 0.0
H601 H 0.84978 0.40626 0.56541 0.0
H602 H 0.91383 0.35926 0.34365 0.0
H603 H 0.89226 0.33764 0.33365 0.0
H604 H 0.91365 0.33833 0.40424 0.0
H605 H 0.85252 0.42442 0.39602 0.0
H606 H 0.83346 0.4229 0.47173 0.0
H607 H 0.8307 0.40305 0.38529 0.0
C608 C 0.35204 0.13927 0.31565 0.0
C609 C 0.36646 0.1249 0.34748 0.0
C610 C 0.35371 0.14065 0.24041 0.0
C611 C 0.37027 0.1274 0.19604 0.0
C612 C 0.38478 0.11269 0.22783 0.0
C613 C 0.38265 0.11157 0.30331 0.0
C614 C 0.33778 0.15637 0.20847 0.0
C615 C 0.40263 0.09828 0.18222 0.0
C616 C 0.36016 0.11455 0.98883 0.0
C617 C 0.374 0.13094 0.96408 0.0
C618 C 0.3589 0.11316 0.06407 0.0
C619 C 0.37192 0.12847 0.11589 0.0
C620 C 0.38602 0.14505 0.09122 0.0
C621 C 0.38684 0.14614 0.01538 0.0
C622 C 0.34353 0.09537 0.08811 0.0
C623 C 0.40018 0.16161 0.14495 0.0
H624 H 0.33954 0.14966 0.34981 0.0
H625 H 0.39392 0.10056 0.32802 0.0
H626 H 0.34764 0.16932 0.18477 0.0
H627 H 0.32775 0.14625 0.16274 0.0
H628 H 0.32588 0.16556 0.25052 0.0
H629 H 0.41272 0.08792 0.21544 0.0
H630 H 0.39452 0.08642 0.13578 0.0
H631 H 0.41433 0.10957 0.15764 0.0
H632 H 0.35019 0.10277 0.94924 0.0
H633 H 0.3976 0.15877 0.99622 0.0
H634 H 0.33061 0.10401 0.12743 0.0
H635 H 0.3535 0.08388 0.11756 0.0
H636 H 0.33466 0.08464 0.04069 0.0
H637 H 0.38902 0.17236 0.18593 0.0
H638 H 0.41058 0.17316 0.11678 0.0
H639 H 0.41164 0.15191 0.17616 0.0
C640 C 0.65185 0.62886 0.07145 0.0
C641 C 0.63934 0.61082 0.09225 0.0
C642 C 0.65143 0.63288 0.99834 0.0
C643 C 0.63833 0.6184 0.94431 0.0
C644 C 0.62617 0.59973 0.96455 0.0
C645 C 0.62675 0.59622 0.03839 0.0
C646 C 0.66467 0.65295 0.9793 0.0
C647 C 0.61224 0.5837 0.90845 0.0
C648 C 0.62035 0.64109 0.77073 0.0
C649 C 0.63664 0.63106 0.71945 0.0
C650 C 0.6207 0.63719 0.84424 0.0
C651 C 0.63758 0.6227 0.86655 0.0
C652 C 0.654 0.61252 0.81468 0.0
C653 C 0.6534 0.61692 0.74209 0.0
C654 C 0.60301 0.64852 0.89803 0.0
C655 C 0.67213 0.5968 0.83567 0.0
H656 H 0.66152 0.6403 0.11292 0.0
H657 H 0.61695 0.58233 0.05428 0.0
H658 H 0.67691 0.64678 0.93427 0.0
H659 H 0.65296 0.6651 0.95871 0.0
H660 H 0.67415 0.66249 0.02755 0.0
H661 H 0.6043 0.56962 0.93242 0.0
H662 H 0.59865 0.59354 0.88624 0.0
H663 H 0.62304 0.57595 0.86105 0.0
H664 H 0.60732 0.65192 0.75335 0.0
H665 H 0.66593 0.60891 0.70253 0.0
H666 H 0.61135 0.65941 0.94614 0.0
H667 H 0.59305 0.63519 0.91955 0.0
H668 H 0.59116 0.65942 0.87232 0.0
H669 H 0.68258 0.60619 0.88164 0.0
H670 H 0.68349 0.59002 0.78856 0.0
H671 H 0.66417 0.58202 0.8557 0.0
C672 C 0.10844 0.88071 0.43714 0.0
C673 C 0.12523 0.8939 0.41005 0.0
C674 C 0.10905 0.8766 0.5102 0.0
C675 C 0.12663 0.88631 0.55855 0.0
C676 C 0.1435 0.89994 0.53183 0.0
C677 C 0.14276 0.90334 0.45764 0.0
C678 C 0.09093 0.86164 0.53543 0.0
C679 C 0.16227 0.91102 0.58177 0.0
C680 C 0.11357 0.89275 0.7649 0.0
C681 C 0.12554 0.87427 0.78503 0.0
C682 C 0.11431 0.89721 0.6922 0.0
C683 C 0.1269 0.88251 0.63727 0.0
C684 C 0.13888 0.86366 0.65718 0.0
C685 C 0.13829 0.85994 0.73099 0.0
C686 C 0.10167 0.91778 0.67429 0.0
C687 C 0.15211 0.84726 0.60027 0.0
H688 H 0.09496 0.87313 0.40055 0.0
H689 H 0.15583 0.91347 0.437 0.0
H690 H 0.09888 0.84699 0.55619 0.0
H691 H 0.08119 0.8717 0.58191 0.0
H692 H 0.0789 0.85468 0.49036 0.0
H693 H 0.17388 0.92139 0.55316 0.0
H694 H 0.15493 0.92237 0.6308 0.0
H695 H 0.17232 0.8976 0.60238 0.0
H696 H 0.10395 0.90414 0.80661 0.0
H697 H 0.14768 0.84573 0.74632 0.0
H698 H 0.08823 0.91195 0.63288 0.0
H699 H 0.11342 0.92896 0.64944 0.0
H700 H 0.09368 0.92823 0.724 0.0
H701 H 0.14062 0.83914 0.55515 0.0
H702 H 0.16049 0.83345 0.62439 0.0
H703 H 0.16527 0.8568 0.5749 0.0
C704 C 0.88217 0.64496 0.83719 0.0
C705 C 0.87053 0.62719 0.86264 0.0
C706 C 0.88367 0.64555 0.76145 0.0
C707 C 0.87298 0.6281 0.70995 0.0
C708 C 0.86101 0.61018 0.73538 0.0
C709 C 0.86006 0.60985 0.81167 0.0
C710 C 0.89686 0.66475 0.73654 0.0
C711 C 0.84919 0.59144 0.68203 0.0
C712 C 0.86086 0.64179 0.51934 0.0
C713 C 0.87855 0.63015 0.47756 0.0
C714 C 0.85863 0.641 0.59493 0.0
C715 C 0.87467 0.62852 0.62945 0.0
C716 C 0.89274 0.61699 0.58752 0.0
C717 C 0.89437 0.61782 0.51186 0.0
C718 C 0.83905 0.65336 0.63774 0.0
C719 C 0.91037 0.60382 0.62261 0.0
H720 H 0.89036 0.65836 0.87659 0.0
H721 H 0.85101 0.59614 0.83144 0.0
H722 H 0.91078 0.65743 0.69895 0.0
H723 H 0.88566 0.67456 0.70492 0.0
H724 H 0.9043 0.67691 0.78373 0.0
H725 H 0.84017 0.57905 0.7108 0.0
H726 H 0.83675 0.59916 0.64829 0.0
H727 H 0.86171 0.58182 0.64326 0.0
H728 H 0.84851 0.65118 0.49263 0.0
H729 H 0.90804 0.60879 0.47947 0.0
H730 H 0.84554 0.66668 0.68339 0.0
H731 H 0.82889 0.64101 0.66325 0.0
H732 H 0.82773 0.66179 0.60226 0.0
H733 H 0.919 0.61552 0.66831 0.0
H734 H 0.92338 0.59586 0.58229 0.0
H735 H 0.90212 0.59003 0.64702 0.0
C736 C 0.14362 0.10837 0.52004 0.0
C737 C 0.13268 0.12458 0.57342 0.0
C738 C 0.14444 0.11142 0.44575 0.0
C739 C 0.13431 0.13121 0.42549 0.0
C740 C 0.12401 0.14793 0.48006 0.0
C741 C 0.12325 0.14435 0.55309 0.0
C742 C 0.15553 0.09323 0.38868 0.0
C743 C 0.11319 0.16936 0.46108 0.0
C744 C 0.148 0.15037 0.2438 0.0
C745 C 0.12904 0.14221 0.20099 0.0
C746 C 0.15025 0.14648 0.31668 0.0
C747 C 0.13316 0.13406 0.34691 0.0
C748 C 0.11393 0.12591 0.30385 0.0
C749 C 0.11206 0.13018 0.2315 0.0
C750 C 0.17082 0.1557 0.36139 0.0
C751 C 0.0953 0.11269 0.33425 0.0
H752 H 0.15099 0.09315 0.53592 0.0
H753 H 0.11502 0.15712 0.59449 0.0
H754 H 0.14262 0.08508 0.34831 0.0
H755 H 0.16845 0.10119 0.35729 0.0
H756 H 0.16377 0.07959 0.41396 0.0
H757 H 0.10716 0.18135 0.51095 0.0
H758 H 0.12545 0.17865 0.43125 0.0
H759 H 0.09851 0.16448 0.4237 0.0
H760 H 0.16125 0.15948 0.21995 0.0
H761 H 0.09749 0.12364 0.1982 0.0
H762 H 0.17976 0.14146 0.38146 0.0
H763 H 0.16549 0.16822 0.41088 0.0
H764 H 0.18293 0.16436 0.32897 0.0
H765 H 0.10252 0.09756 0.35428 0.0
H766 H 0.08203 0.10658 0.29235 0.0
H767 H 0.08716 0.12378 0.38229 0.0
C768 C 0.6181 0.36455 0.26924 0.0
C769 C 0.63493 0.3738 0.31976 0.0
C770 C 0.61878 0.36805 0.19542 0.0
C771 C 0.63659 0.38129 0.17214 0.0
C772 C 0.6536 0.3906 0.22315 0.0
C773 C 0.65262 0.38665 0.2961 0.0
C774 C 0.60044 0.35768 0.14238 0.0
C775 C 0.67277 0.40494 0.20088 0.0
C776 C 0.65063 0.37367 0.9672 0.0
C777 C 0.6392 0.39232 0.94626 0.0
C778 C 0.64989 0.36987 0.04044 0.0
C779 C 0.63763 0.38526 0.09431 0.0
C780 C 0.62666 0.40457 0.07393 0.0
C781 C 0.62748 0.4078 0.99995 0.0
C782 C 0.66178 0.34908 0.05977 0.0
C783 C 0.61376 0.42158 0.13003 0.0
H784 H 0.60436 0.3547 0.28748 0.0
H785 H 0.66563 0.39397 0.33508 0.0
H786 H 0.59131 0.3715 0.1207 0.0
H787 H 0.60811 0.34618 0.09427 0.0
H788 H 0.58794 0.34761 0.1688 0.0
H789 H 0.68456 0.4111 0.24744 0.0
H790 H 0.68257 0.39471 0.15485 0.0
H791 H 0.66583 0.42011 0.18047 0.0
H792 H 0.6596 0.36157 0.92575 0.0
H793 H 0.61855 0.42217 0.98383 0.0
H794 H 0.6493 0.3378 0.08111 0.0
H795 H 0.67438 0.35457 0.10433 0.0
H796 H 0.67064 0.33883 0.01147 0.0
H797 H 0.5996 0.41269 0.15311 0.0
H798 H 0.60669 0.43601 0.10577 0.0
H799 H 0.62503 0.42881 0.17685 0.0
C800 C 0.3591 0.90083 0.01554 0.0
C801 C 0.37349 0.88512 0.04142 0.0
C802 C 0.35749 0.90153 0.93987 0.0
C803 C 0.37082 0.88631 0.88888 0.0
C804 C 0.38551 0.87046 0.91475 0.0
C805 C 0.38656 0.86995 0.99093 0.0
C806 C 0.3414 0.91844 0.91448 0.0
C807 C 0.40011 0.85411 0.86199 0.0
C808 C 0.35135 0.87343 0.68865 0.0
C809 C 0.36509 0.88827 0.65631 0.0
C810 C 0.35305 0.87262 0.76432 0.0
C811 C 0.36906 0.88682 0.8084 0.0
C812 C 0.38295 0.90191 0.77597 0.0
C813 C 0.3807 0.90255 0.70022 0.0
C814 C 0.33772 0.85655 0.79706 0.0
C815 C 0.4003 0.91721 0.82115 0.0
H816 H 0.34888 0.91252 0.05455 0.0
H817 H 0.39772 0.85785 0.01101 0.0
H818 H 0.35089 0.93017 0.88454 0.0
H819 H 0.32882 0.90907 0.87523 0.0
H820 H 0.33213 0.929 0.96128 0.0
H821 H 0.41096 0.84319 0.89108 0.0
H822 H 0.38926 0.84273 0.82163 0.0
H823 H 0.41117 0.86396 0.82997 0.0
H824 H 0.33929 0.86234 0.65466 0.0
H825 H 0.39145 0.91392 0.67509 0.0
H826 H 0.3274 0.86651 0.84229 0.0
H827 H 0.34804 0.84413 0.82163 0.0
H828 H 0.32609 0.84674 0.75527 0.0
H829 H 0.39179 0.92904 0.86672 0.0
H830 H 0.41005 0.92766 0.78731 0.0
H831 H 0.41236 0.90657 0.84691 0.0
C832 C 0.15679 0.71198 0.16082 0.0
C833 C 0.13863 0.69738 0.16891 0.0
C834 C 0.15351 0.73571 0.16566 0.0
C835 C 0.13139 0.74496 0.17754 0.0
C836 C 0.11332 0.73052 0.19216 0.0
C837 C 0.11719 0.70676 0.18767 0.0
C838 C 0.17334 0.75044 0.15072 0.0
C839 C 0.08954 0.73969 0.20557 0.0
C840 C 0.12805 0.8103 0.20628 0.0
C841 C 0.12427 0.81401 0.13372 0.0
C842 C 0.12933 0.78793 0.22228 0.0
C843 C 0.12692 0.76876 0.16434 0.0
C844 C 0.12227 0.77238 0.09152 0.0
C845 C 0.12096 0.79494 0.07714 0.0
C846 C 0.13412 0.78483 0.30064 0.0
C847 C 0.11958 0.75239 0.02804 0.0
H848 H 0.17328 0.70455 0.14497 0.0
H849 H 0.10304 0.69531 0.192 0.0
H850 H 0.17134 0.75516 0.09525 0.0
H851 H 0.17391 0.76666 0.19191 0.0
H852 H 0.18978 0.74134 0.15209 0.0
H853 H 0.07842 0.72747 0.22846 0.0
H854 H 0.0896 0.75647 0.24416 0.0
H855 H 0.08213 0.74262 0.15248 0.0
H856 H 0.13041 0.82489 0.25072 0.0
H857 H 0.11793 0.79759 0.02108 0.0
H858 H 0.15148 0.77784 0.30392 0.0
H859 H 0.12215 0.77222 0.31753 0.0
H860 H 0.13285 0.8013 0.34069 0.0
H861 H 0.13584 0.74286 0.01845 0.0
H862 H 0.11453 0.75806 0.97586 0.0
H863 H 0.10663 0.74017 0.04173 0.0
C864 C 0.55258 0.891 0.44236 0.0
C865 C 0.56349 0.87306 0.39497 0.0
C866 C 0.52876 0.89217 0.44569 0.0
C867 C 0.51564 0.87466 0.40205 0.0
C868 C 0.52669 0.8558 0.35753 0.0
C869 C 0.55047 0.85541 0.3537 0.0
C870 C 0.51768 0.91282 0.49258 0.0
C871 C 0.5134 0.83647 0.31156 0.0
C872 C 0.45213 0.87024 0.4376 0.0
C873 C 0.44303 0.8798 0.37942 0.0
C874 C 0.47578 0.86851 0.44621 0.0
C875 C 0.49054 0.87715 0.39669 0.0
C876 C 0.48132 0.88751 0.33946 0.0
C877 C 0.45773 0.88842 0.33098 0.0
C878 C 0.48495 0.85687 0.50677 0.0
C879 C 0.49639 0.89743 0.28648 0.0
H880 H 0.56263 0.90474 0.474 0.0
H881 H 0.5589 0.84137 0.31762 0.0
H882 H 0.50916 0.9233 0.45613 0.0
H883 H 0.50445 0.90727 0.52852 0.0
H884 H 0.53011 0.92391 0.52795 0.0
H885 H 0.52443 0.82178 0.28735 0.0
H886 H 0.50011 0.83011 0.34565 0.0
H887 H 0.50473 0.84292 0.26573 0.0
H888 H 0.44079 0.86346 0.47491 0.0
H889 H 0.45074 0.89609 0.28647 0.0
H890 H 0.49694 0.86846 0.5422 0.0
H891 H 0.49457 0.84123 0.48191 0.0
H892 H 0.47128 0.85177 0.5422 0.0
H893 H 0.50854 0.90991 0.3177 0.0
H894 H 0.48654 0.90629 0.24831 0.0
H895 H 0.50647 0.88347 0.25291 0.0
C896 C 0.38526 0.29571 0.5716 0.0
C897 C 0.38437 0.31452 0.63025 0.0
C898 C 0.38385 0.27298 0.58462 0.0
C899 C 0.38143 0.26893 0.65803 0.0
C900 C 0.38132 0.2878 0.71762 0.0
C901 C 0.3828 0.31031 0.70306 0.0
C902 C 0.38414 0.2533 0.51951 0.0
C903 C 0.37874 0.28426 0.79661 0.0
C904 C 0.35077 0.21331 0.67112 0.0
C905 C 0.36882 0.19834 0.67707 0.0
C906 C 0.35461 0.23661 0.66864 0.0
C907 C 0.37711 0.24512 0.67149 0.0
C908 C 0.39534 0.2304 0.68216 0.0
C909 C 0.39096 0.20712 0.6852 0.0
C910 C 0.33464 0.25177 0.65853 0.0
C911 C 0.41955 0.23882 0.68569 0.0
H912 H 0.38657 0.29871 0.51525 0.0
H913 H 0.38218 0.32466 0.74905 0.0
H914 H 0.39711 0.24042 0.52806 0.0
H915 H 0.36745 0.24446 0.51469 0.0
H916 H 0.38778 0.25919 0.46654 0.0
H917 H 0.38093 0.30053 0.83706 0.0
H918 H 0.36164 0.27722 0.8044 0.0
H919 H 0.3913 0.27151 0.80916 0.0
H920 H 0.33365 0.2065 0.66486 0.0
H921 H 0.40499 0.19553 0.68912 0.0
H922 H 0.33545 0.2566 0.60293 0.0
H923 H 0.3352 0.26794 0.69998 0.0
H924 H 0.31815 0.24307 0.66377 0.0
H925 H 0.42474 0.24213 0.63048 0.0
H926 H 0.43146 0.2261 0.70244 0.0
H927 H 0.42115 0.25532 0.72525 0.0
C928 C 0.95964 0.10029 0.9296 0.0
C929 C 0.94515 0.11939 0.94173 0.0
C930 C 0.98312 0.10292 0.93947 0.0
C931 C 0.99235 0.12527 0.96151 0.0
C932 C 0.97752 0.14423 0.98256 0.0
C933 C 0.95396 0.14108 0.97229 0.0
C934 C 0.99814 0.0821 0.9176 0.0
C935 C 0.98662 0.1682 1.00852 0.0
C936 C 0.05717 0.12636 0.96788 0.0
C937 C 0.06198 0.12809 0.89439 0.0
C938 C 0.0345 0.12688 0.99304 0.0
C939 C 0.01654 0.12917 0.94329 0.0
C940 C 0.02167 0.13242 0.87058 0.0
C941 C 0.04423 0.13177 0.84727 0.0
C942 C 0.02983 0.12371 0.07126 0.0
C943 C 1.00327 0.13513 0.81539 0.0
H944 H 0.95276 0.0834 0.90746 0.0
H945 H 0.94275 0.15586 0.98269 0.0
H946 H 0.00588 0.0826 0.86283 0.0
H947 H 0.01211 0.08214 0.95803 0.0
H948 H 0.9885 0.06574 0.91356 0.0
H949 H 0.97356 0.1797 0.03915 0.0
H950 H 1.00167 0.16788 0.04462 0.0
H951 H 0.99199 0.17563 0.95987 0.0
H952 H 0.07091 0.12354 1.00442 0.0
H953 H 0.04795 0.13349 0.79068 0.0
H954 H 0.02596 0.10532 0.07144 0.0
H955 H 0.01499 0.13403 0.0948 0.0
H956 H 0.04477 0.12859 0.10763 0.0
H957 H 0.99317 0.11903 0.80254 0.0
H958 H 0.01023 0.13897 0.76272 0.0
H959 H 0.99155 0.14924 0.83896 0.0
C960 C 0.122 0.30731 0.81804 0.0
C961 C 0.14392 0.3166 0.82795 0.0
C962 C 0.11799 0.28402 0.8211 0.0
C963 C 0.13639 0.26974 0.83346 0.0
C964 C 0.15871 0.27874 0.83857 0.0
C965 C 0.16218 0.3021 0.83603 0.0
C966 C 0.09396 0.27504 0.81522 0.0
C967 C 0.17883 0.264 0.85043 0.0
C968 C 0.12731 0.21784 0.92666 0.0
C969 C 0.1287 0.1996 0.86634 0.0
C970 C 0.12911 0.24084 0.91645 0.0
C971 C 0.13236 0.24566 0.84427 0.0
C972 C 0.13309 0.22737 0.78303 0.0
C973 C 0.13124 0.20462 0.79476 0.0
C974 C 0.12812 0.25995 0.98313 0.0
C975 C 0.13652 0.23176 0.70524 0.0
H976 H 0.10779 0.31852 0.81236 0.0
H977 H 0.17914 0.30928 0.84364 0.0
H978 H 0.09287 0.25891 0.77372 0.0
H979 H 0.08863 0.27085 0.86921 0.0
H980 H 0.08184 0.28776 0.79959 0.0
H981 H 0.1952 0.27319 0.84805 0.0
H982 H 0.17746 0.25874 0.9053 0.0
H983 H 0.17905 0.24804 0.80801 0.0
H984 H 0.12525 0.21418 0.98202 0.0
H985 H 0.13213 0.19073 0.74744 0.0
H986 H 0.11505 0.27276 0.97483 0.0
H987 H 0.14465 0.26908 0.9902 0.0
H988 H 0.12419 0.25345 0.03484 0.0
H989 H 0.12385 0.24435 0.69231 0.0
H990 H 0.13512 0.21576 0.66312 0.0
H991 H 0.15355 0.23939 0.70052 0.0
C992 C 0.05411 0.86614 0.04829 0.0
C993 C 0.06275 0.88832 0.07323 0.0
C994 C 0.03053 0.86237 0.04202 0.0
C995 C 0.01546 0.8812 0.06128 0.0
C996 C 0.02434 0.90385 0.07817 0.0
C997 C 0.04787 0.90711 0.08409 0.0
C998 C 0.0218 0.83802 0.02192 0.0
C999 C 0.00902 0.92452 0.09817 0.0
C1000 C 0.95068 0.87848 0.0558 0.0
C1001 C 0.94598 0.87805 0.13032 0.0
C1002 C 0.97332 0.8781 0.03046 0.0
C1003 C 0.9914 0.87724 0.08101 0.0
C1004 C 0.98644 0.87528 0.15504 0.0
C1005 C 0.96388 0.87577 0.17858 0.0
C1006 C 0.97783 0.87992 0.95094 0.0
C1007 C 0.00501 0.87411 0.21107 0.0
H1008 H 0.06559 0.85156 0.03908 0.0
H1009 H 0.05456 0.92433 0.10213 0.0
H1010 H 0.01699 0.83169 0.07315 0.0
H1011 H 0.00646 0.83727 0.98656 0.0
H1012 H 0.03487 0.82624 0.99256 0.0
H1013 H 0.01826 0.94097 0.09859 0.0
H1014 H 0.99465 0.92355 0.05876 0.0
H1015 H 1.00182 0.92478 0.15415 0.0
H1016 H 0.93682 0.88023 0.01838 0.0
H1017 H 0.96027 0.87513 0.23607 0.0
H1018 H 0.99239 0.86897 0.92846 0.0
H1019 H 0.98217 0.89801 0.94766 0.0
H1020 H 0.96273 0.87488 0.9155 0.0
H1021 H 0.01714 0.86015 0.18972 0.0
H1022 H 0.99825 0.87101 0.26489 0.0
H1023 H 0.01462 0.89057 0.22108 0.0
C1024 C 0.38631 0.71929 0.42307 0.0
C1025 C 0.38562 0.7006 0.36401 0.0
C1026 C 0.38459 0.74206 0.41058 0.0
C1027 C 0.38218 0.74623 0.3373 0.0
C1028 C 0.38245 0.7275 0.27732 0.0
C1029 C 0.38414 0.70496 0.29135 0.0
C1030 C 0.38443 0.7616 0.47609 0.0
C1031 C 0.38 0.73119 0.19843 0.0
C1032 C 0.35029 0.80105 0.32379 0.0
C1033 C 0.36801 0.81655 0.31924 0.0
C1034 C 0.35465 0.77785 0.32614 0.0
C1035 C 0.37736 0.76997 0.32426 0.0
C1036 C 0.39527 0.78521 0.31469 0.0
C1037 C 0.39037 0.80838 0.31202 0.0
C1038 C 0.33502 0.76213 0.33526 0.0
C1039 C 0.41967 0.77743 0.31202 0.0
H1040 H 0.38751 0.71616 0.4793 0.0
H1041 H 0.3838 0.6907 0.24504 0.0
H1042 H 0.39711 0.77484 0.4682 0.0
H1043 H 0.36754 0.77002 0.48072 0.0
H1044 H 0.38816 0.75566 0.52891 0.0
H1045 H 0.38267 0.71506 0.15771 0.0
H1046 H 0.36275 0.73778 0.19004 0.0
H1047 H 0.39229 0.74433 0.18681 0.0
H1048 H 0.333 0.80739 0.32943 0.0
H1049 H 0.40415 0.82038 0.30923 0.0
H1050 H 0.3359 0.75715 0.39065 0.0
H1051 H 0.33598 0.74607 0.29343 0.0
H1052 H 0.31835 0.77044 0.32984 0.0
H1053 H 0.42484 0.77424 0.3674 0.0
H1054 H 0.43131 0.79047 0.29576 0.0
H1055 H 0.42172 0.76099 0.27247 0.0
C1056 C 0.55062 0.11799 0.67671 0.0
C1057 C 0.56497 0.1295 0.63468 0.0
C1058 C 0.52698 0.11883 0.66914 0.0
C1059 C 0.51739 0.13217 0.62007 0.0
C1060 C 0.53185 0.1437 0.57691 0.0
C1061 C 0.55555 0.14191 0.58387 0.0
C1062 C 0.51228 0.10573 0.71473 0.0
C1063 C 0.5223 0.1586 0.52558 0.0
C1064 C 0.45516 0.1203 0.57175 0.0
C1065 C 0.44442 0.13595 0.62749 0.0
C1066 C 0.47897 0.11934 0.56681 0.0
C1067 C 0.49225 0.13484 0.61755 0.0
C1068 C 0.48135 0.15159 0.67102 0.0
C1069 C 0.45759 0.15169 0.67606 0.0
C1070 C 0.48989 0.10089 0.51016 0.0
C1071 C 0.49479 0.16883 0.72492 0.0
H1072 H 0.55793 0.10817 0.71546 0.0
H1073 H 0.56668 0.15093 0.55173 0.0
H1074 H 0.50236 0.11802 0.75534 0.0
H1075 H 0.49998 0.09474 0.67858 0.0
H1076 H 0.5224 0.09464 0.74539 0.0
H1077 H 0.53574 0.16556 0.4934 0.0
H1078 H 0.51007 0.14864 0.48641 0.0
H1079 H 0.51287 0.17325 0.55826 0.0
H1080 H 0.44499 0.10801 0.53443 0.0
H1081 H 0.44929 0.16399 0.7187 0.0
H1082 H 0.49856 0.08829 0.5388 0.0
H1083 H 0.50298 0.10848 0.47839 0.0
H1084 H 0.47733 0.09151 0.47075 0.0
H1085 H 0.50373 0.15987 0.7647 0.0
H1086 H 0.48383 0.18243 0.75668 0.0
H1087 H 0.50788 0.17717 0.69522 0.0
C1088 C 0.88525 0.1994 0.81366 0.0
C1089 C 0.88556 0.19553 0.88703 0.0
C1090 C 0.88407 0.22177 0.79775 0.0
C1091 C 0.88316 0.24085 0.85651 0.0
C1092 C 0.88434 0.23717 0.93063 0.0
C1093 C 0.88552 0.21457 0.94501 0.0
C1094 C 0.88288 0.22491 0.71803 0.0
C1095 C 0.88348 0.25708 0.99494 0.0
C1096 C 0.89294 0.30265 0.82931 0.0
C1097 C 0.87068 0.31109 0.83318 0.0
C1098 C 0.89734 0.27946 0.83348 0.0
C1099 C 0.87901 0.26448 0.84111 0.0
C1100 C 0.85647 0.27262 0.83934 0.0
C1101 C 0.8526 0.29583 0.83569 0.0
C1102 C 0.9216 0.27143 0.83477 0.0
C1103 C 0.8364 0.2572 0.84617 0.0
H1104 H 0.8854 0.18488 0.76817 0.0
H1105 H 0.88582 0.21184 1.00179 0.0
H1106 H 0.8659 0.23158 0.70658 0.0
H1107 H 0.89557 0.23781 0.70732 0.0
H1108 H 0.88585 0.20855 0.67873 0.0
H1109 H 0.88622 0.25149 0.0489 0.0
H1110 H 0.89654 0.27009 0.9882 0.0
H1111 H 0.86671 0.26566 0.99624 0.0
H1112 H 0.90698 0.31448 0.82826 0.0
H1113 H 0.83538 0.30239 0.83888 0.0
H1114 H 0.92389 0.25476 0.79657 0.0
H1115 H 0.9259 0.26861 0.89127 0.0
H1116 H 0.9337 0.28419 0.8192 0.0
H1117 H 0.83776 0.2409 0.80557 0.0
H1118 H 0.82001 0.26558 0.83726 0.0
H1119 H 0.83622 0.25264 0.90221 0.0
C1120 C 0.61746 0.80062 0.32322 0.0
C1121 C 0.63941 0.80957 0.33702 0.0
C1122 C 0.61291 0.77722 0.32366 0.0
C1123 C 0.63076 0.76249 0.33765 0.0
C1124 C 0.65318 0.77119 0.34642 0.0
C1125 C 0.6572 0.79461 0.34618 0.0
C1126 C 0.5888 0.76861 0.3137 0.0
C1127 C 0.67278 0.75607 0.36047 0.0
C1128 C 0.62009 0.71135 0.433 0.0
C1129 C 0.62251 0.69269 0.37434 0.0
C1130 C 0.62178 0.73418 0.42118 0.0
C1131 C 0.62598 0.73852 0.34893 0.0
C1132 C 0.62743 0.71982 0.289 0.0
C1133 C 0.62567 0.69717 0.30236 0.0
C1134 C 0.62003 0.75365 0.48664 0.0
C1135 C 0.63182 0.72367 0.21116 0.0
H1136 H 0.60361 0.81214 0.31651 0.0
H1137 H 0.67419 0.80149 0.35664 0.0
H1138 H 0.58805 0.75229 0.27296 0.0
H1139 H 0.58232 0.76492 0.36705 0.0
H1140 H 0.57738 0.7814 0.29495 0.0
H1141 H 0.68938 0.76495 0.35986 0.0
H1142 H 0.67063 0.75089 0.41522 0.0
H1143 H 0.6731 0.74009 0.31817 0.0
H1144 H 0.61755 0.70817 0.48873 0.0
H1145 H 0.62746 0.68295 0.25635 0.0
H1146 H 0.60742 0.76653 0.47534 0.0
H1147 H 0.63663 0.76258 0.49609 0.0
H1148 H 0.61506 0.74753 0.53815 0.0
H1149 H 0.61979 0.73656 0.19633 0.0
H1150 H 0.63029 0.70753 0.16973 0.0
H1151 H 0.64918 0.73068 0.20764 0.0
C1152 C 0.89142 0.70291 0.21172 0.0
C1153 C 0.8694 0.69388 0.20156 0.0
C1154 C 0.89562 0.72631 0.21047 0.0
C1155 C 0.87736 0.74091 0.19931 0.0
C1156 C 0.85493 0.73215 0.19451 0.0
C1157 C 0.85126 0.70874 0.19557 0.0
C1158 C 0.91974 0.73503 0.2163 0.0
C1159 C 0.83493 0.74717 0.18358 0.0
C1160 C 0.88231 0.80613 0.23421 0.0
C1161 C 0.88448 0.81068 0.16195 0.0
C1162 C 0.88088 0.78349 0.24758 0.0
C1163 C 0.8816 0.76487 0.18732 0.0
C1164 C 0.88465 0.76925 0.11455 0.0
C1165 C 0.88607 0.7921 0.10273 0.0
C1166 C 0.87775 0.77956 0.32597 0.0
C1167 C 0.88554 0.74982 0.04876 0.0
H1168 H 0.90553 0.69143 0.21584 0.0
H1169 H 0.83422 0.70177 0.18782 0.0
H1170 H 0.92532 0.73858 0.16176 0.0
H1171 H 0.92092 0.75145 0.25645 0.0
H1172 H 0.93161 0.72237 0.23359 0.0
H1173 H 0.81848 0.73823 0.18702 0.0
H1174 H 0.83507 0.76319 0.22573 0.0
H1175 H 0.83611 0.7523 0.12846 0.0
H1176 H 0.88124 0.8203 0.28065 0.0
H1177 H 0.88781 0.79537 0.0468 0.0
H1178 H 0.8903 0.76687 0.33893 0.0
H1179 H 0.86064 0.77229 0.332 0.0
H1180 H 0.87953 0.79572 0.36722 0.0
H1181 H 0.89853 0.73701 0.05772 0.0
H1182 H 0.8895 0.75599 0.99649 0.0
H1183 H 0.86895 0.74079 0.04224 0.0
C1184 C 0.6579 0.20875 0.69008 0.0
C1185 C 0.64008 0.19336 0.69474 0.0
C1186 C 0.65371 0.23209 0.68921 0.0
C1187 C 0.63109 0.24024 0.6927 0.0
C1188 C 0.6131 0.22507 0.70213 0.0
C1189 C 0.61782 0.20175 0.70329 0.0
C1190 C 0.67344 0.24769 0.6801 0.0
C1191 C 0.58877 0.23312 0.70643 0.0
C1192 C 0.62513 0.30541 0.7301 0.0
C1193 C 0.62342 0.31027 0.6581 0.0
C1194 C 0.62662 0.28266 0.74252 0.0
C1195 C 0.62643 0.26423 0.68155 0.0
C1196 C 0.62376 0.26893 0.60897 0.0
C1197 C 0.62226 0.29188 0.59812 0.0
C1198 C 0.62934 0.27842 0.82073 0.0
C1199 C 0.62346 0.24974 0.54242 0.0
H1200 H 0.67512 0.20226 0.68341 0.0
H1201 H 0.60397 0.18984 0.70613 0.0
H1202 H 0.67235 0.25308 0.62535 0.0
H1203 H 0.67283 0.26353 0.72294 0.0
H1204 H 0.69006 0.23913 0.68398 0.0
H1205 H 0.57708 0.22003 0.72218 0.0
H1206 H 0.58702 0.24936 0.7471 0.0
H1207 H 0.58344 0.23677 0.65177 0.0
H1208 H 0.62585 0.31942 0.77712 0.0
H1209 H 0.62087 0.29539 0.54236 0.0
H1210 H 0.64655 0.27154 0.82781 0.0
H1211 H 0.61696 0.26531 0.83202 0.0
H1212 H 0.62699 0.29438 0.86246 0.0
H1213 H 0.64025 0.24113 0.53633 0.0
H1214 H 0.61955 0.25609 0.49041 0.0
H1215 H 0.6107 0.23655 0.55006 0.0
C1216 C 0.95619 0.36778 0.94258 0.0
C1217 C 0.94584 0.37685 0.88538 0.0
C1218 C 0.98 0.36722 0.94862 0.0
C1219 C 0.99361 0.37653 0.89752 0.0
C1220 C 0.9831 0.38639 0.84132 0.0
C1221 C 0.9594 0.38614 0.8354 0.0
C1222 C 0.9906 0.35609 1.00818 0.0
C1223 C 0.99688 0.39701 0.78675 0.0
C1224 C 0.05524 0.39378 0.93611 0.0
C1225 C 0.06656 0.37646 0.88741 0.0
C1226 C 0.03147 0.39361 0.94229 0.0
C1227 C 0.01885 0.37536 0.90024 0.0
C1228 C 0.03041 0.35713 0.85438 0.0
C1229 C 0.05409 0.35808 0.84768 0.0
C1230 C 0.01981 0.41364 0.99047 0.0
C1231 C 0.01769 0.33706 0.81001 0.0
H1232 H 0.94572 0.3605 0.98108 0.0
H1233 H 0.95143 0.39345 0.79168 0.0
H1234 H 1.00075 0.34094 0.9823 0.0
H1235 H 1.00237 0.36828 0.04232 0.0
H1236 H 0.9777 0.35033 0.04503 0.0
H1237 H 0.98606 0.40533 0.74959 0.0
H1238 H 0.0087 0.41011 0.81665 0.0
H1239 H 0.0073 0.38357 0.75217 0.0
H1240 H 0.06486 0.40806 0.96664 0.0
H1241 H 0.06286 0.34451 0.81069 0.0
H1242 H 0.00743 0.40739 0.0278 0.0
H1243 H 0.01018 0.42364 0.95503 0.0
H1244 H 0.03203 0.42539 0.0245 0.0
H1245 H 0.00526 0.33007 0.84555 0.0
H1246 H 0.02925 0.32296 0.78477 0.0
H1247 H 0.00805 0.34297 0.76502 0.0
C1248 C 0.45335 0.62894 0.46787 0.0
C1249 C 0.44739 0.63504 0.40011 0.0
C1250 C 0.47635 0.62858 0.48919 0.0
C1251 C 0.49346 0.63459 0.44167 0.0
C1252 C 0.48707 0.64297 0.37702 0.0
C1253 C 0.46418 0.64288 0.35689 0.0
C1254 C 0.48232 0.61995 0.55919 0.0
C1255 C 0.50452 0.64994 0.32494 0.0
C1256 C 0.55726 0.64053 0.46618 0.0
C1257 C 0.56425 0.62025 0.41988 0.0
C1258 C 0.53401 0.64467 0.48139 0.0
C1259 C 0.5177 0.62808 0.4496 0.0
C1260 C 0.52517 0.60652 0.41018 0.0
C1261 C 0.5483 0.60301 0.39527 0.0
C1262 C 0.52685 0.66763 0.5252 0.0
C1263 C 0.50859 0.58808 0.3762 0.0
H1264 H 0.44033 0.62285 0.50132 0.0
H1265 H 0.45949 0.64785 0.30483 0.0
H1266 H 0.48642 0.60133 0.54542 0.0
H1267 H 0.49742 0.62903 0.58639 0.0
H1268 H 0.46794 0.62213 0.59888 0.0
H1269 H 0.49672 0.6586 0.28218 0.0
H1270 H 0.51725 0.66173 0.35599 0.0
H1271 H 0.51364 0.6344 0.29645 0.0
H1272 H 0.56963 0.65391 0.48509 0.0
H1273 H 0.55379 0.58722 0.35994 0.0
H1274 H 0.51177 0.66578 0.55976 0.0
H1275 H 0.52223 0.67932 0.48651 0.0
H1276 H 0.54079 0.67583 0.56141 0.0
H1277 H 0.49527 0.5856 0.41661 0.0
H1278 H 0.5171 0.5713 0.35669 0.0
H1279 H 0.5001 0.59347 0.32813 0.0
C1280 C 0.46096 0.40776 0.59312 0.0
C1281 C 0.44585 0.38916 0.5801 0.0
C1282 C 0.48438 0.40437 0.58439 0.0
C1283 C 0.49291 0.38174 0.56254 0.0
C1284 C 0.47754 0.36325 0.54104 0.0
C1285 C 0.45405 0.36717 0.55016 0.0
C1286 C 0.50002 0.42471 0.60681 0.0
C1287 C 0.4859 0.33899 0.51547 0.0
C1288 C 0.55758 0.37953 0.55444 0.0
C1289 C 0.56251 0.37804 0.62806 0.0
C1290 C 0.53487 0.37914 0.52974 0.0
C1291 C 0.517 0.37717 0.58002 0.0
C1292 C 0.52224 0.37391 0.65267 0.0
C1293 C 0.54485 0.37447 0.67563 0.0
C1294 C 0.53007 0.38227 0.45154 0.0
C1295 C 0.50389 0.37148 0.70829 0.0
H1296 H 0.45456 0.42487 0.61491 0.0
H1297 H 0.44236 0.35276 0.53922 0.0
H1298 H 0.5077 0.42382 0.66142 0.0
H1299 H 0.51402 0.42437 0.56638 0.0
H1300 H 0.49091 0.44138 0.61138 0.0
H1301 H 0.47257 0.3279 0.48449 0.0
H1302 H 0.50111 0.3388 0.47982 0.0
H1303 H 0.49078 0.33143 0.56433 0.0
H1304 H 0.57127 0.38222 0.51753 0.0
H1305 H 0.54868 0.37296 0.73232 0.0
H1306 H 0.52616 0.40064 0.45134 0.0
H1307 H 0.51519 0.3719 0.42829 0.0
H1308 H 0.54494 0.37739 0.41495 0.0
H1309 H 0.49428 0.38785 0.72207 0.0
H1310 H 0.51089 0.36726 0.76042 0.0
H1311 H 0.49173 0.35777 0.6847 0.0
C1312 C 0.05534 0.6178 0.07933 0.0
C1313 C 0.06668 0.63662 0.12108 0.0
C1314 C 0.0315 0.61682 0.07776 0.0
C1315 C 0.01879 0.63551 0.11682 0.0
C1316 C 0.03029 0.65517 0.15535 0.0
C1317 C 0.05411 0.65528 0.1583 0.0
C1318 C 0.02 0.59523 0.03808 0.0
C1319 C 0.01744 0.67577 0.19564 0.0
C1320 C 0.95536 0.63834 0.07714 0.0
C1321 C 0.94606 0.63112 0.13935 0.0
C1322 C 0.97903 0.64009 0.06914 0.0
C1323 C 0.99363 0.63364 0.12328 0.0
C1324 C 0.9842 0.62566 0.185 0.0
C1325 C 0.96056 0.62492 0.19292 0.0
C1326 C 0.98838 0.64939 1.00391 0.0
C1327 C 0.99908 0.6179 0.24283 0.0
H1328 H 0.0651 0.60324 0.0513 0.0
H1329 H 0.06293 0.66989 0.1903 0.0
H1330 H 0.0112 0.5866 0.07903 0.0
H1331 H 0.00694 0.59954 0.99933 0.0
H1332 H 0.0322 0.58288 1.00657 0.0
H1333 H 0.02876 0.69076 0.21426 0.0
H1334 H 1.00405 0.68094 0.15945 0.0
H1335 H 0.00893 0.67124 0.24493 0.0
H1336 H 0.94413 0.64331 0.036 0.0
H1337 H 0.95335 0.61912 0.24072 0.0
H1338 H 0.99997 0.63665 0.97137 0.0
H1339 H 0.99848 0.66517 0.02388 0.0
H1340 H 0.97478 0.65366 0.96672 0.0
H1341 H 0.01119 0.60459 0.21609 0.0
H1342 H 0.98908 0.6107 0.28462 0.0
H1343 H 0.0092 0.63264 0.2719 0.0
C1344 C 0.11166 0.54904 0.11476 0.0
C1345 C 0.12657 0.5654 0.09489 0.0
C1346 C 0.11176 0.52617 0.07691 0.0
C1347 C 0.12692 0.51961 0.01713 0.0
C1348 C 0.14167 0.53623 0.99575 0.0
C1349 C 0.14139 0.55895 0.03522 0.0
C1350 C 0.09584 0.50895 0.10156 0.0
C1351 C 0.15783 0.52997 0.93159 0.0
C1352 C 0.14188 0.45615 0.96192 0.0
C1353 C 0.1273 0.44925 0.9018 0.0
C1354 C 0.14195 0.47903 1.00007 0.0
C1355 C 0.12725 0.49536 0.97692 0.0
C1356 C 0.11253 0.48843 0.9161 0.0
C1357 C 0.11263 0.46541 0.87959 0.0
C1358 C 0.15768 0.48572 0.06527 0.0
C1359 C 0.09671 0.50534 0.88946 0.0
H1360 H 0.10019 0.554 0.16095 0.0
H1361 H 0.15288 0.57163 0.01967 0.0
H1362 H 0.08459 0.50132 0.05517 0.0
H1363 H 0.10572 0.49464 0.11776 0.0
H1364 H 0.08513 0.51683 0.14914 0.0
H1365 H 0.16771 0.54505 0.92073 0.0
H1366 H 0.16984 0.51657 0.943 0.0
H1367 H 0.1483 0.52258 0.88073 0.0
H1368 H 0.15319 0.44365 0.97925 0.0
H1369 H 0.10134 0.46012 0.83303 0.0
H1370 H 0.14773 0.49269 0.11555 0.0
H1371 H 0.16936 0.49955 0.05495 0.0
H1372 H 0.16794 0.47094 0.07652 0.0
H1373 H 0.08482 0.51263 0.93435 0.0
H1374 H 0.08667 0.49728 0.84039 0.0
H1375 H 0.10656 0.51992 0.87487 0.0
C1376 C 0.7238 0.87555 0.37021 0.0
C1377 C 0.70694 0.88242 0.32489 0.0
C1378 C 0.74674 0.87454 0.34814 0.0
C1379 C 0.75287 0.88091 0.2799 0.0
C1380 C 0.73598 0.88896 0.23606 0.0
C1381 C 0.71328 0.88943 0.25877 0.0
C1382 C 0.76422 0.86567 0.39606 0.0
C1383 C 0.74174 0.89633 0.1636 0.0
C1384 C 0.81327 0.89396 0.2271 0.0
C1385 C 0.81847 0.87415 0.17535 0.0
C1386 C 0.79239 0.89601 0.26477 0.0
C1387 C 0.7765 0.87771 0.25078 0.0
C1388 C 0.7823 0.85717 0.20167 0.0
C1389 C 0.80315 0.85571 0.16422 0.0
C1390 C 0.78687 0.91823 0.31631 0.0
C1391 C 0.76603 0.83711 0.18591 0.0
H1392 H 0.71896 0.87001 0.4212 0.0
H1393 H 0.70036 0.89503 0.2239 0.0
H1394 H 0.77053 0.84868 0.3675 0.0
H1395 H 0.77901 0.87747 0.40515 0.0
H1396 H 0.75721 0.86366 0.45067 0.0
H1397 H 0.72693 0.90384 0.13902 0.0
H1398 H 0.75561 0.90925 0.17175 0.0
H1399 H 0.74784 0.88125 0.12339 0.0
H1400 H 0.82516 0.90822 0.23614 0.0
H1401 H 0.80724 0.84026 0.12487 0.0
H1402 H 0.77996 0.91471 0.36932 0.0
H1403 H 0.77362 0.92763 0.29082 0.0
H1404 H 0.80195 0.9296 0.32826 0.0
H1405 H 0.75952 0.83277 0.23839 0.0
H1406 H 0.77404 0.82152 0.1531 0.0
H1407 H 0.75124 0.84189 0.15451 0.0
C1408 C 0.39842 0.45823 0.50639 0.0
C1409 C 0.38349 0.45448 0.56262 0.0
C1410 C 0.39873 0.47917 0.48056 0.0
C1411 C 0.3836 0.49689 0.51116 0.0
C1412 C 0.36871 0.49344 0.56896 0.0
C1413 C 0.36894 0.47227 0.59445 0.0
C1414 C 0.41521 0.48222 0.42007 0.0
C1415 C 0.35229 0.51196 0.60282 0.0
C1416 C 0.39917 0.55794 0.49137 0.0
C1417 C 0.38578 0.56141 0.43106 0.0
C1418 C 0.39854 0.53712 0.51794 0.0
C1419 C 0.384 0.51924 0.48388 0.0
C1420 C 0.37069 0.52243 0.42209 0.0
C1421 C 0.37185 0.54347 0.39604 0.0
C1422 C 0.41337 0.53432 0.58283 0.0
C1423 C 0.35496 0.50375 0.38441 0.0
H1424 H 0.40989 0.44462 0.48189 0.0
H1425 H 0.35724 0.46938 0.63736 0.0
H1426 H 0.40582 0.4857 0.37092 0.0
H1427 H 0.42633 0.4973 0.43918 0.0
H1428 H 0.42607 0.46682 0.40284 0.0
H1429 H 0.34174 0.50657 0.64684 0.0
H1430 H 0.36167 0.52785 0.6269 0.0
H1431 H 0.34092 0.5164 0.55931 0.0
H1432 H 0.4101 0.57168 0.51856 0.0
H1433 H 0.36127 0.54615 0.35007 0.0
H1434 H 0.42485 0.51936 0.567 0.0
H1435 H 0.40273 0.53078 0.6293 0.0
H1436 H 0.42384 0.54986 0.6028 0.0
H1437 H 0.36476 0.48794 0.36278 0.0
H1438 H 0.34549 0.50902 0.33786 0.0
H1439 H 0.34259 0.49924 0.42504 0.0
C1440 C 0.81293 0.11021 0.82511 0.0
C1441 C 0.81878 0.13085 0.87199 0.0
C1442 C 0.79226 0.10805 0.78616 0.0
C1443 C 0.7773 0.12712 0.79337 0.0
C1444 C 0.78381 0.14837 0.83743 0.0
C1445 C 0.80437 0.14991 0.87675 0.0
C1446 C 0.78589 0.08503 0.74061 0.0
C1447 C 0.76861 0.16925 0.84564 0.0
C1448 C 0.72595 0.12715 0.66609 0.0
C1449 C 0.70835 0.12264 0.71274 0.0
C1450 C 0.74867 0.12824 0.69072 0.0
C1451 C 0.75379 0.1242 0.76283 0.0
C1452 C 0.73607 0.11853 0.80838 0.0
C1453 C 0.71363 0.11809 0.78313 0.0
C1454 C 0.76703 0.13469 0.64098 0.0
C1455 C 0.74071 0.11358 0.88492 0.0
H1456 H 0.82412 0.09547 0.821 0.0
H1457 H 0.809 0.16598 0.91219 0.0
H1458 H 0.77167 0.07747 0.7678 0.0
H1459 H 0.77996 0.08712 0.6849 0.0
H1460 H 0.80029 0.07269 0.73416 0.0
H1461 H 0.77725 0.18509 0.8744 0.0
H1462 H 0.76279 0.17212 0.79057 0.0
H1463 H 0.75331 0.16634 0.87791 0.0
H1464 H 0.72187 0.13081 0.61183 0.0
H1465 H 0.70007 0.11433 0.81906 0.0
H1466 H 0.78122 0.1222 0.63654 0.0
H1467 H 0.77403 0.15184 0.66535 0.0
H1468 H 0.76063 0.13538 0.58453 0.0
H1469 H 0.75396 0.10012 0.88243 0.0
H1470 H 0.72529 0.10772 0.91098 0.0
H1471 H 0.7472 0.12935 0.92108 0.0
C1472 C 0.86696 0.55438 0.05349 0.0
C1473 C 0.88191 0.56044 0.11315 0.0
C1474 C 0.86612 0.53168 0.01383 0.0
C1475 C 0.88046 0.51468 0.03482 0.0
C1476 C 0.89554 0.52077 0.09515 0.0
C1477 C 0.89616 0.5436 0.1333 0.0
C1478 C 0.84999 0.5259 0.94932 0.0
C1479 C 0.91106 0.50316 0.11941 0.0
C1480 C 0.86585 0.45121 0.97422 0.0
C1481 C 0.88071 0.44482 0.91461 0.0
C1482 C 0.86546 0.47395 0.01372 0.0
C1483 C 0.88019 0.49064 0.99264 0.0
C1484 C 0.89518 0.48421 0.93231 0.0
C1485 C 0.89534 0.46136 0.89431 0.0
C1486 C 0.84941 0.48009 0.07823 0.0
C1487 C 0.9111 0.50148 0.90794 0.0
H1488 H 0.85594 0.56739 0.03777 0.0
H1489 H 0.90775 0.54822 0.17943 0.0
H1490 H 0.8596 0.51917 0.89808 0.0
H1491 H 0.83812 0.51214 0.9589 0.0
H1492 H 0.83996 0.54107 0.94017 0.0
H1493 H 0.9214 0.51058 0.16851 0.0
H1494 H 0.90094 0.48862 0.13301 0.0
H1495 H 0.92267 0.49597 0.07358 0.0
H1496 H 0.85456 0.43842 0.99012 0.0
H1497 H 0.90686 0.45648 0.84819 0.0
H1498 H 0.83794 0.49418 0.0688 0.0
H1499 H 0.85915 0.48651 0.12951 0.0
H1500 H 0.83895 0.46517 0.0872 0.0
H1501 H 0.90133 0.51624 0.89439 0.0
H1502 H 0.92129 0.49384 0.85879 0.0
H1503 H 0.92287 0.50842 0.9537 0.0
C1504 C 0.20939 0.10959 0.87667 0.0
C1505 C 0.19084 0.12058 0.8505 0.0
C1506 C 0.2306 0.10895 0.84137 0.0
C1507 C 0.23334 0.11979 0.77898 0.0
C1508 C 0.21433 0.12996 0.75038 0.0
C1509 C 0.19329 0.13012 0.78627 0.0
C1510 C 0.25033 0.09759 0.87291 0.0
C1511 C 0.21647 0.14185 0.68446 0.0
C1512 C 0.29216 0.14381 0.75689 0.0
C1513 C 0.30139 0.12742 0.69991 0.0
C1514 C 0.26985 0.14182 0.78138 0.0
C1515 C 0.25648 0.1227 0.74906 0.0
C1516 C 0.2655 0.10632 0.69026 0.0
C1517 C 0.28784 0.10899 0.66586 0.0
C1518 C 0.26079 0.15996 0.8431 0.0
C1519 C 0.25186 0.08558 0.65498 0.0
H1520 H 0.20749 0.10203 0.92593 0.0
H1521 H 0.17895 0.13855 0.76558 0.0
H1522 H 0.25928 0.08576 0.82835 0.0
H1523 H 0.26269 0.11092 0.89801 0.0
H1524 H 0.2449 0.08771 0.916 0.0
H1525 H 0.19969 0.1465 0.66389 0.0
H1526 H 0.2266 0.15785 0.70023 0.0
H1527 H 0.22555 0.13073 0.6386 0.0
H1528 H 0.3025 0.1582 0.78302 0.0
H1529 H 0.29498 0.09617 0.62219 0.0
H1530 H 0.25712 0.15212 0.89239 0.0
H1531 H 0.24462 0.16706 0.82591 0.0
H1532 H 0.27292 0.1744 0.85943 0.0
H1533 H 0.24837 0.07452 0.69659 0.0
H1534 H 0.26081 0.07513 0.60726 0.0
H1535 H 0.23524 0.09105 0.6358 0.0
C1536 C 0.62906 0.53387 0.40403 0.0
C1537 C 0.63229 0.55471 0.45311 0.0
C1538 C 0.6289 0.51274 0.43003 0.0
C1539 C 0.63227 0.51256 0.50654 0.0
C1540 C 0.63627 0.53353 0.55556 0.0
C1541 C 0.63622 0.55421 0.52835 0.0
C1542 C 0.62464 0.49068 0.37606 0.0
C1543 C 0.64019 0.53422 0.63728 0.0
C1544 C 0.60968 0.46279 0.59222 0.0
C1545 C 0.62944 0.45015 0.59816 0.0
C1546 C 0.61034 0.48312 0.56233 0.0
C1547 C 0.63121 0.49065 0.53643 0.0
C1548 C 0.65122 0.47785 0.54264 0.0
C1549 C 0.65008 0.45774 0.57352 0.0
C1550 C 0.58868 0.4964 0.55766 0.0
C1551 C 0.67376 0.48518 0.5155 0.0
H1552 H 0.62602 0.53412 0.34598 0.0
H1553 H 0.63917 0.57017 0.56677 0.0
H1554 H 0.63858 0.47827 0.37914 0.0
H1555 H 0.60873 0.48257 0.39099 0.0
H1556 H 0.6232 0.49358 0.31813 0.0
H1557 H 0.64366 0.55193 0.66767 0.0
H1558 H 0.62507 0.52742 0.66216 0.0
H1559 H 0.65474 0.52306 0.6456 0.0
H1560 H 0.59364 0.45646 0.60948 0.0
H1561 H 0.6652 0.44747 0.57615 0.0
H1562 H 0.58517 0.49772 0.49923 0.0
H1563 H 0.59055 0.51421 0.58908 0.0
H1564 H 0.57387 0.48822 0.57996 0.0
H1565 H 0.67264 0.48595 0.45569 0.0
H1566 H 0.6877 0.47325 0.52383 0.0
H1567 H 0.67817 0.50274 0.54494 0.0
C1568 C 0.2821 0.88229 0.34671 0.0
C1569 C 0.29968 0.88746 0.30106 0.0
C1570 C 0.25943 0.88102 0.32159 0.0
C1571 C 0.25433 0.88556 0.25004 0.0
C1572 C 0.27201 0.89196 0.20566 0.0
C1573 C 0.29442 0.89255 0.23133 0.0
C1574 C 0.24113 0.87379 0.37006 0.0
C1575 C 0.26739 0.89749 0.12983 0.0
C1576 C 0.20442 0.85933 0.13358 0.0
C1577 C 0.18948 0.87801 0.13978 0.0
C1578 C 0.22497 0.86114 0.17302 0.0
C1579 C 0.23093 0.88231 0.21866 0.0
C1580 C 0.21549 0.90099 0.2271 0.0
C1581 C 0.19483 0.89854 0.18803 0.0
C1582 C 0.24069 0.84064 0.16349 0.0
C1583 C 0.22127 0.92393 0.27428 0.0
H1584 H 0.28618 0.8782 0.40043 0.0
H1585 H 0.30798 0.8968 0.19619 0.0
H1586 H 0.22668 0.88599 0.37502 0.0
H1587 H 0.23452 0.8566 0.3443 0.0
H1588 H 0.24746 0.87282 0.4264 0.0
H1589 H 0.28272 0.90399 0.105 0.0
H1590 H 0.26136 0.88179 0.09224 0.0
H1591 H 0.25381 0.91063 0.13302 0.0
H1592 H 0.20018 0.84333 0.09708 0.0
H1593 H 0.18324 0.913 0.19321 0.0
H1594 H 0.24649 0.83744 0.21821 0.0
H1595 H 0.25597 0.84424 0.13217 0.0
H1596 H 0.23249 0.82475 0.13321 0.0
H1597 H 0.22719 0.92158 0.32976 0.0
H1598 H 0.20659 0.93592 0.28121 0.0
H1599 H 0.23535 0.93205 0.24815 0.0
C1600 C 0.64259 0.94979 0.47464 0.0
C1601 C 0.62774 0.94342 0.41488 0.0
C1602 C 0.64355 0.97268 0.51269 0.0
C1603 C 0.62947 0.98958 0.48993 0.0
C1604 C 0.61457 0.9832 0.42923 0.0
C1605 C 0.61379 0.96018 0.39276 0.0
C1606 C 0.65946 0.97875 0.57769 0.0
C1607 C 0.59935 1.00069 0.40301 0.0
C1608 C 0.61421 0.04324 0.62853 0.0
C1609 C 0.62913 0.05965 0.60895 0.0
C1610 C 0.61435 0.02036 0.59077 0.0
C1611 C 0.62961 0.01375 0.5313 0.0
C1612 C 0.64459 0.03033 0.51074 0.0
C1613 C 0.64424 0.0531 0.55009 0.0
C1614 C 0.59817 1.00323 0.61468 0.0
C1615 C 0.6609 0.02401 0.44705 0.0
H1616 H 0.65337 0.93685 0.49189 0.0
H1617 H 0.6023 0.95532 0.34649 0.0
H1618 H 0.67134 0.9925 0.56807 0.0
H1619 H 0.64966 0.98559 0.62841 0.0
H1620 H 0.66949 0.96368 0.58779 0.0
H1621 H 0.58935 0.99311 0.3533 0.0
H1622 H 0.58742 0.00803 0.44773 0.0
H1623 H 0.60964 0.01516 0.38966 0.0
H1624 H 0.60248 0.04822 0.67403 0.0
H1625 H 0.65574 0.06579 0.53471 0.0
H1626 H 0.60778 0.98853 0.62942 0.0
H1627 H 0.58667 0.99616 0.56832 0.0
H1628 H 0.5877 0.01102 0.66299 0.0
H1629 H 0.67234 0.01003 0.45758 0.0
H1630 H 0.67139 0.0389 0.43796 0.0
H1631 H 0.65139 0.01737 0.39549 0.0
C1632 C 0.21461 0.39746 0.74146 0.0
C1633 C 0.20893 0.39055 0.80834 0.0
C1634 C 0.23704 0.39665 0.71601 0.0
C1635 C 0.25434 0.3884 0.75788 0.0
C1636 C 0.24891 0.38223 0.827 0.0
C1637 C 0.22623 0.38353 0.85176 0.0
C1638 C 0.24204 0.40378 0.64265 0.0
C1639 C 0.26685 0.37319 0.87296 0.0
C1640 C 0.30336 0.36228 0.63739 0.0
C1641 C 0.31896 0.38049 0.64678 0.0
C1642 C 0.28282 0.36416 0.67668 0.0
C1643 C 0.27762 0.38486 0.72595 0.0
C1644 C 0.29376 0.40296 0.73783 0.0
C1645 C 0.3143 0.40051 0.69831 0.0
C1646 C 0.26625 0.34431 0.66304 0.0
C1647 C 0.28887 0.42533 0.78948 0.0
H1648 H 0.20134 0.40313 0.70798 0.0
H1649 H 0.2219 0.37803 0.90325 0.0
H1650 H 0.25609 0.4165 0.6488 0.0
H1651 H 0.24757 0.38856 0.60197 0.0
H1652 H 0.22703 0.41146 0.61974 0.0
H1653 H 0.26044 0.37143 0.92854 0.0
H1654 H 0.27266 0.35605 0.84402 0.0
H1655 H 0.28185 0.38474 0.87987 0.0
H1656 H 0.30704 0.34667 0.59825 0.0
H1657 H 0.32642 0.41457 0.70607 0.0
H1658 H 0.25113 0.34929 0.63357 0.0
H1659 H 0.26034 0.34007 0.71634 0.0
H1660 H 0.27377 0.32861 0.62927 0.0
H1661 H 0.2752 0.43468 0.76571 0.0
H1662 H 0.30404 0.43667 0.79883 0.0
H1663 H 0.28275 0.42199 0.84367 0.0
C1664 C 0.86973 0.96764 0.12849 0.0
C1665 C 0.88383 0.94974 0.0944 0.0
C1666 C 0.86856 0.98857 0.10175 0.0
C1667 C 0.88199 0.99167 0.04015 0.0
C1668 C 0.89666 0.97384 1.00699 0.0
C1669 C 0.89735 0.95316 0.03432 0.0
C1670 C 0.85271 0.00722 0.13856 0.0
C1671 C 0.91162 0.97655 0.9423 0.0
C1672 C 0.86739 0.03826 0.92759 0.0
C1673 C 0.88199 0.05608 0.95926 0.0
C1674 C 0.86697 0.01722 0.95387 0.0
C1675 C 0.88167 0.01393 0.01235 0.0
C1676 C 0.89681 0.03169 0.04288 0.0
C1677 C 0.89673 0.05248 0.01619 0.0
C1678 C 0.85057 0.99864 0.91999 0.0
C1679 C 0.9131 0.02881 0.10411 0.0
H1680 H 0.85906 0.96501 0.17428 0.0
H1681 H 0.90842 0.93946 1.00783 0.0
H1682 H 0.86244 0.02311 0.16017 0.0
H1683 H 0.84044 0.01158 0.0974 0.0
H1684 H 0.84314 1.00202 0.18499 0.0
H1685 H 0.92209 0.961 0.92276 0.0
H1686 H 0.90106 0.98 0.89551 0.0
H1687 H 0.92311 0.99152 0.95814 0.0
H1688 H 0.85584 0.04103 0.88412 0.0
H1689 H 0.90824 0.06609 0.04058 0.0
H1690 H 0.83911 0.99429 0.96338 0.0
H1691 H 0.85996 0.98274 0.89642 0.0
H1692 H 0.84011 1.00393 0.87556 0.0
H1693 H 0.90356 0.02535 0.15299 0.0
H1694 H 0.92389 0.04428 0.12156 0.0
H1695 H 0.92431 0.01378 0.08563 0.0
C1696 C 0.22622 0.63377 0.14877 0.0
C1697 C 0.20908 0.62825 0.19555 0.0
C1698 C 0.2491 0.63493 0.17166 0.0
C1699 C 0.25489 0.62995 0.2421 0.0
C1700 C 0.23767 0.6233 0.28772 0.0
C1701 C 0.21504 0.62279 0.26426 0.0
C1702 C 0.26691 0.64242 0.12194 0.0
C1703 C 0.24305 0.61733 0.36247 0.0
C1704 C 0.31474 0.61631 0.29873 0.0
C1705 C 0.32033 0.63656 0.34793 0.0
C1706 C 0.29392 0.61423 0.26059 0.0
C1707 C 0.27855 0.63299 0.27117 0.0
C1708 C 0.28483 0.65395 0.31732 0.0
C1709 C 0.30554 0.65541 0.35565 0.0
C1710 C 0.28784 0.59152 0.21255 0.0
C1711 C 0.26919 0.67453 0.32914 0.0
H1712 H 0.22164 0.63807 0.09573 0.0
H1713 H 0.20188 0.61819 0.30021 0.0
H1714 H 0.27373 0.65949 0.14795 0.0
H1715 H 0.28133 0.63017 0.11482 0.0
H1716 H 0.26004 0.64373 0.06653 0.0
H1717 H 0.22798 0.61079 0.38856 0.0
H1718 H 0.25657 0.60406 0.35708 0.0
H1719 H 0.2495 0.63283 0.40011 0.0
H1720 H 0.32622 0.60174 0.29238 0.0
H1721 H 0.30996 0.6712 0.39295 0.0
H1722 H 0.28118 0.59425 0.15832 0.0
H1723 H 0.27424 0.58306 0.23976 0.0
H1724 H 0.30259 0.57966 0.20284 0.0
H1725 H 0.26284 0.67796 0.2753 0.0
H1726 H 0.27767 0.69031 0.35906 0.0
H1727 H 0.25424 0.67088 0.36188 0.0
C1728 C 0.39461 0.96617 0.38827 0.0
C1729 C 0.37967 0.94966 0.4071 0.0
C1730 C 0.39479 0.98882 0.42792 0.0
C1731 C 0.37985 0.99504 0.4885 0.0
C1732 C 0.36498 0.97831 0.50858 0.0
C1733 C 0.36498 0.9558 0.46733 0.0
C1734 C 0.41081 0.00616 0.40443 0.0
C1735 C 0.34901 0.98422 0.5734 0.0
C1736 C 0.39509 0.04858 0.62817 0.0
C1737 C 0.38063 0.06508 0.60699 0.0
C1738 C 0.39475 0.02562 0.59086 0.0
C1739 C 0.37979 0.01912 0.53037 0.0
C1740 C 0.36525 0.03579 0.5085 0.0
C1741 C 0.36577 0.05857 0.54733 0.0
C1742 C 0.41042 0.00833 0.61611 0.0
C1743 C 0.34926 0.0296 0.44372 0.0
H1744 H 0.40602 0.96147 0.34175 0.0
H1745 H 0.3535 0.94301 0.48217 0.0
H1746 H 0.40104 0.0208 0.38998 0.0
H1747 H 0.42226 0.01328 0.45089 0.0
H1748 H 0.42132 0.99855 0.35603 0.0
H1749 H 0.33894 0.96911 0.58296 0.0
H1750 H 0.35873 0.99101 0.62441 0.0
H1751 H 0.33716 0.99797 0.56374 0.0
H1752 H 0.40656 0.05356 0.67442 0.0
H1753 H 0.35462 0.07133 0.53076 0.0
H1754 H 0.42223 1.0012 0.57079 0.0
H1755 H 0.40045 0.99369 0.62973 0.0
H1756 H 0.42054 0.01601 0.66544 0.0
H1757 H 0.35904 0.02298 0.39274 0.0
H1758 H 0.33897 0.04455 0.43409 0.0
H1759 H 0.33762 0.01565 0.45332 0.0
C1760 C 0.79559 0.61414 0.27429 0.0
C1761 C 0.80211 0.6213 0.20854 0.0
C1762 C 0.77291 0.61515 0.29747 0.0
C1763 C 0.75621 0.62384 0.25443 0.0
C1764 C 0.76249 0.63034 0.1865 0.0
C1765 C 0.7854 0.62884 0.16403 0.0
C1766 C 0.767 0.60766 0.36962 0.0
C1767 C 0.74521 0.63982 0.13932 0.0
C1768 C 0.69564 0.6116 0.30778 0.0
C1769 C 0.69076 0.63134 0.36027 0.0
C1770 C 0.71642 0.60937 0.26955 0.0
C1771 C 0.73262 0.62739 0.28389 0.0
C1772 C 0.72715 0.64789 0.33374 0.0
C1773 C 0.70635 0.64957 0.37155 0.0
C1774 C 0.72153 0.58723 0.217 0.0
C1775 C 0.74376 0.66765 0.34999 0.0
H1776 H 0.80837 0.60805 0.30862 0.0
H1777 H 0.79035 0.63451 0.11338 0.0
H1778 H 0.76113 0.62274 0.41026 0.0
H1779 H 0.75291 0.59498 0.36115 0.0
H1780 H 0.78166 0.5998 0.39383 0.0
H1781 H 0.75226 0.64187 0.08479 0.0
H1782 H 0.73014 0.6284 0.13006 0.0
H1783 H 0.73931 0.6569 0.16856 0.0
H1784 H 0.68356 0.59751 0.29851 0.0
H1785 H 0.70253 0.66497 0.41148 0.0
H1786 H 0.7346 0.57743 0.24182 0.0
H1787 H 0.7285 0.59088 0.16424 0.0
H1788 H 0.70623 0.57619 0.20472 0.0
H1789 H 0.75848 0.66248 0.38092 0.0
H1790 H 0.73602 0.68329 0.38343 0.0
H1791 H 0.75032 0.67208 0.2977 0.0
C1792 C 0.14416 0.04274 0.89017 0.0
C1793 C 0.1265 0.05827 0.91247 0.0
C1794 C 0.14569 0.02196 0.91774 0.0
C1795 C 0.12901 0.01662 0.96785 0.0
C1796 C 0.11074 0.03196 0.98812 0.0
C1797 C 0.10981 0.0526 0.96058 0.0
C1798 C 0.16543 0.00602 0.89493 0.0
C1799 C 0.09229 0.02676 0.03978 0.0
C1800 C 0.11883 0.95429 0.9837 0.0
C1801 C 0.12933 0.95259 0.0513 0.0
C1802 C 0.11892 0.97484 0.95582 0.0
C1803 C 0.12982 0.99446 0.99626 0.0
C1804 C 0.14028 0.99308 0.06507 0.0
C1805 C 0.1398 0.97213 0.09215 0.0
C1806 C 0.10715 0.97554 0.8831 0.0
C1807 C 0.15211 0.01368 0.10964 0.0
H1808 H 0.15732 0.04733 0.85425 0.0
H1809 H 0.09617 0.06467 0.97813 0.0
H1810 H 0.17523 1.00366 0.94462 0.0
H1811 H 0.15917 0.9888 0.8682 0.0
H1812 H 0.17702 0.01268 0.85595 0.0
H1813 H 0.07913 0.04043 0.04947 0.0
H1814 H 0.08396 0.01016 0.0166 0.0
H1815 H 0.09974 0.02493 0.09387 0.0
H1816 H 0.11039 0.93938 0.95199 0.0
H1817 H 0.14805 0.97091 0.14404 0.0
H1818 H 0.11926 0.98094 0.84328 0.0
H1819 H 0.09329 0.98844 0.89168 0.0
H1820 H 0.09984 0.95858 0.85778 0.0
H1821 H 0.16548 0.01995 0.0756 0.0
H1822 H 0.16 0.00968 0.16078 0.0
H1823 H 0.13984 0.02796 0.12535 0.0
C1824 C 0.70426 0.35439 0.66731 0.0
C1825 C 0.68983 0.37349 0.67451 0.0
C1826 C 0.72516 0.35575 0.70454 0.0
C1827 C 0.73197 0.37687 0.74872 0.0
C1828 C 0.71696 0.39592 0.75872 0.0
C1829 C 0.69594 0.39392 0.722 0.0
C1830 C 0.74042 0.33488 0.69365 0.0
C1831 C 0.72366 0.41882 0.80438 0.0
C1832 C 0.78486 0.37675 0.8688 0.0
C1833 C 0.80177 0.38147 0.82005 0.0
C1834 C 0.76188 0.37556 0.84716 0.0
C1835 C 0.75581 0.37976 0.77603 0.0
C1836 C 0.77283 0.38565 0.72836 0.0
C1837 C 0.79556 0.38613 0.75059 0.0
C1838 C 0.74427 0.36884 0.89895 0.0
C1839 C 0.76713 0.39084 0.65283 0.0
H1840 H 0.69941 0.33849 0.63135 0.0
H1841 H 0.68473 0.40869 0.72789 0.0
H1842 H 0.75519 0.33787 0.65918 0.0
H1843 H 0.74706 0.3319 0.74766 0.0
H1844 H 0.73149 0.31907 0.66592 0.0
H1845 H 0.70917 0.43102 0.81384 0.0
H1846 H 0.73055 0.4165 0.85875 0.0
H1847 H 0.73727 0.42668 0.77536 0.0
H1848 H 0.78969 0.373 0.92234 0.0
H1849 H 0.80862 0.39005 0.71312 0.0
H1850 H 0.73715 0.3517 0.87492 0.0
H1851 H 0.73 0.38127 0.90575 0.0
H1852 H 0.75141 0.36797 0.95436 0.0
H1853 H 0.76037 0.37512 0.61706 0.0
H1854 H 0.78212 0.39688 0.62502 0.0
H1855 H 0.75375 0.40424 0.65753 0.0
loop_
_geom_bond_atom_site_label_1
_geom_bond_atom_site_label_2
_geom_bond_distance
_geom_bond_site_symmetry_2
_ccdc_geom_bond_type
Dy0 O4 2.398 1_554 S
Dy0 O5 2.491 1_554 S
Dy0 O6 2.403 . S
Dy0 O7 2.664 . S
Dy0 O11 2.326 . S
Dy0 O15 2.310 . S
Dy0 O16 2.351 . S
C1 O12 1.185 . S
C1 O13 1.355 . S
C2 O4 1.185 . S
C2 O5 1.355 . S
Dy3 O7 2.310 . S
Dy3 O10 2.351 . S
Dy3 O12 2.398 . S
Dy3 O13 2.491 . S
Dy3 O14 2.403 . S
Dy3 O15 2.664 . S
Dy3 O17 2.326 . S
O4 Dy0 2.398 1_556 S
O4 C2 1.185 . S
O5 Dy0 2.491 1_556 S
O5 C2 1.355 . S
O6 Dy0 2.403 . S
O6 C8 1.254 . S
O7 Dy0 2.664 . S
O7 Dy3 2.310 . S
O7 C8 1.268 . S
C8 O6 1.254 . S
C8 O7 1.268 . S
C9 O14 1.254 . S
C9 O15 1.268 . S
O10 Dy3 2.351 . S
O10 C18 1.249 . S
O11 Dy0 2.326 . S
O11 C18 1.267 . S
O12 C1 1.185 . S
O12 Dy3 2.398 . S
O13 C1 1.355 . S
O13 Dy3 2.491 . S
O14 Dy3 2.403 . S
O14 C9 1.254 . S
O15 Dy0 2.310 . S
O15 Dy3 2.664 . S
O15 C9 1.268 . S
O16 Dy0 2.351 . S
O16 C19 1.249 . S
O17 Dy3 2.326 . S
O17 C19 1.267 . S
C18 O10 1.249 . S
C18 O11 1.267 . S
C19 O16 1.249 . S
C19 O17 1.267 . S
Dy20 O24 2.398 . S
Dy20 O25 2.491 . S
Dy20 O26 2.403 . S
Dy20 O27 2.664 . S
Dy20 O31 2.326 . S
Dy20 O35 2.310 . S
Dy20 O36 2.351 . S
C21 O32 1.185 . S
C21 O33 1.355 . S
C22 O24 1.185 . S
C22 O25 1.355 . S
Dy23 O27 2.310 . S
Dy23 O30 2.351 . S
Dy23 O32 2.398 . S
Dy23 O33 2.491 . S
Dy23 O34 2.403 . S
Dy23 O35 2.664 . S
Dy23 O37 2.326 . S
O24 Dy20 2.398 . S
O24 C22 1.185 . S
O25 Dy20 2.491 . S
O25 C22 1.355 . S
O26 Dy20 2.403 . S
O26 C28 1.254 . S
O27 Dy20 2.664 . S
O27 Dy23 2.310 . S
O27 C28 1.268 . S
C28 O26 1.254 . S
C28 O27 1.268 . S
C29 O34 1.254 . S
C29 O35 1.268 . S
O30 Dy23 2.351 . S
O30 C38 1.249 . S
O31 Dy20 2.326 . S
O31 C38 1.267 . S
O32 C21 1.185 . S
O32 Dy23 2.398 . S
O33 C21 1.355 . S
O33 Dy23 2.491 . S
O34 Dy23 2.403 . S
O34 C29 1.254 . S
O35 Dy20 2.310 . S
O35 Dy23 2.664 . S
O35 C29 1.268 . S
O36 Dy20 2.351 . S
O36 C39 1.249 . S
O37 Dy23 2.326 . S
O37 C39 1.267 . S
C38 O30 1.249 . S
C38 O31 1.267 . S
C39 O36 1.249 . S
C39 O37 1.267 . S
Dy40 O44 2.398 . S
Dy40 O45 2.491 . S
Dy40 O46 2.403 . S
Dy40 O47 2.664 . S
Dy40 O51 2.326 . S
Dy40 O55 2.310 . S
Dy40 O56 2.351 . S
C41 O52 1.185 . S
C41 O53 1.355 . S
C42 O44 1.185 . S
C42 O45 1.355 . S
Dy43 O47 2.310 . S
Dy43 O50 2.351 . S
Dy43 O52 2.398 . S
Dy43 O53 2.491 . S
Dy43 O54 2.403 . S
Dy43 O55 2.664 . S
Dy43 O57 2.326 . S
O44 Dy40 2.398 . S
O44 C42 1.185 . S
O45 Dy40 2.491 . S
O45 C42 1.355 . S
O46 Dy40 2.403 . S
O46 C48 1.254 . S
O47 Dy40 2.664 . S
O47 Dy43 2.310 . S
O47 C48 1.268 . S
C48 O46 1.254 . S
C48 O47 1.268 . S
C49 O54 1.254 . S
C49 O55 1.268 . S
O50 Dy43 2.351 . S
O50 C58 1.249 . S
O51 Dy40 2.326 . S
O51 C58 1.267 . S
O52 C41 1.185 . S
O52 Dy43 2.398 . S
O53 C41 1.355 . S
O53 Dy43 2.491 . S
O54 Dy43 2.403 . S
O54 C49 1.254 . S
O55 Dy40 2.310 . S
O55 Dy43 2.664 . S
O55 C49 1.268 . S
O56 Dy40 2.351 . S
O56 C59 1.249 . S
O57 Dy43 2.326 . S
O57 C59 1.267 . S
C58 O50 1.249 . S
C58 O51 1.267 . S
C59 O56 1.249 . S
C59 O57 1.267 . S
Dy60 O64 2.398 . S
Dy60 O65 2.491 . S
Dy60 O66 2.403 . S
Dy60 O67 2.664 . S
Dy60 O71 2.326 . S
Dy60 O75 2.310 . S
Dy60 O76 2.351 . S
C61 O72 1.185 . S
C61 O73 1.355 . S
C62 O64 1.185 . S
C62 O65 1.355 . S
Dy63 O67 2.310 . S
Dy63 O70 2.351 . S
Dy63 O72 2.398 1_556 S
Dy63 O73 2.491 1_556 S
Dy63 O74 2.403 . S
Dy63 O75 2.664 . S
Dy63 O77 2.326 . S
O64 Dy60 2.398 . S
O64 C62 1.185 . S
O65 Dy60 2.491 . S
O65 C62 1.355 . S
O66 Dy60 2.403 . S
O66 C68 1.254 . S
O67 Dy60 2.664 . S
O67 Dy63 2.310 . S
O67 C68 1.268 . S
C68 O66 1.254 . S
C68 O67 1.268 . S
C69 O74 1.254 . S
C69 O75 1.268 . S
O70 Dy63 2.351 . S
O70 C78 1.249 . S
O71 Dy60 2.326 . S
O71 C78 1.267 . S
O72 C61 1.185 . S
O72 Dy63 2.398 1_554 S
O73 C61 1.355 . S
O73 Dy63 2.491 1_554 S
O74 Dy63 2.403 . S
O74 C69 1.254 . S
O75 Dy60 2.310 . S
O75 Dy63 2.664 . S
O75 C69 1.268 . S
O76 Dy60 2.351 . S
O76 C79 1.249 . S
O77 Dy63 2.326 . S
O77 C79 1.267 . S
C78 O70 1.249 . S
C78 O71 1.267 . S
C79 O76 1.249 . S
C79 O77 1.267 . S
Dy80 O84 2.398 1_556 S
Dy80 O85 2.491 1_556 S
Dy80 O86 2.403 . S
Dy80 O87 2.664 . S
Dy80 O91 2.326 . S
Dy80 O95 2.310 . S
Dy80 O96 2.351 . S
C81 O92 1.185 . S
C81 O93 1.355 . S
C82 O84 1.185 . S
C82 O85 1.355 . S
Dy83 O87 2.310 . S
Dy83 O90 2.351 . S
Dy83 O92 2.398 . S
Dy83 O93 2.491 . S
Dy83 O94 2.403 . S
Dy83 O95 2.664 . S
Dy83 O97 2.326 . S
O84 Dy80 2.398 1_554 S
O84 C82 1.185 . S
O85 Dy80 2.491 1_554 S
O85 C82 1.355 . S
O86 Dy80 2.403 . S
O86 C88 1.254 . S
O87 Dy80 2.664 . S
O87 Dy83 2.310 . S
O87 C88 1.268 . S
C88 O86 1.254 . S
C88 O87 1.268 . S
C89 O94 1.254 . S
C89 O95 1.268 . S
O90 Dy83 2.351 . S
O90 C98 1.249 . S
O91 Dy80 2.326 . S
O91 C98 1.267 . S
O92 C81 1.185 . S
O92 Dy83 2.398 . S
O93 C81 1.355 . S
O93 Dy83 2.491 . S
O94 Dy83 2.403 . S
O94 C89 1.254 . S
O95 Dy80 2.310 . S
O95 Dy83 2.664 . S
O95 C89 1.268 . S
O96 Dy80 2.351 . S
O96 C99 1.249 . S
O97 Dy83 2.326 . S
O97 C99 1.267 . S
C98 O90 1.249 . S
C98 O91 1.267 . S
C99 O96 1.249 . S
C99 O97 1.267 . S
Dy100 O104 2.398 . S
Dy100 O105 2.491 . S
Dy100 O106 2.403 . S
Dy100 O107 2.664 . S
Dy100 O111 2.326 . S
Dy100 O115 2.310 . S
Dy100 O116 2.351 . S
C101 O112 1.185 . S
C101 O113 1.355 . S
C102 O104 1.185 . S
C102 O105 1.355 . S
Dy103 O107 2.310 . S
Dy103 O110 2.351 . S
Dy103 O112 2.398 1_554 S
Dy103 O113 2.491 1_554 S
Dy103 O114 2.403 . S
Dy103 O115 2.664 . S
Dy103 O117 2.326 . S
O104 Dy100 2.398 . S
O104 C102 1.185 . S
O105 Dy100 2.491 . S
O105 C102 1.355 . S
O106 Dy100 2.403 . S
O106 C108 1.254 . S
O107 Dy100 2.664 . S
O107 Dy103 2.310 . S
O107 C108 1.268 . S
C108 O106 1.254 . S
C108 O107 1.268 . S
C109 O114 1.254 . S
C109 O115 1.268 . S
O110 Dy103 2.351 . S
O110 C118 1.249 . S
O111 Dy100 2.326 . S
O111 C118 1.267 . S
O112 C101 1.185 . S
O112 Dy103 2.398 1_556 S
O113 C101 1.355 . S
O113 Dy103 2.491 1_556 S
O114 Dy103 2.403 . S
O114 C109 1.254 . S
O115 Dy100 2.310 . S
O115 Dy103 2.664 . S
O115 C109 1.268 . S
O116 Dy100 2.351 . S
O116 C119 1.249 . S
O117 Dy103 2.326 . S
O117 C119 1.267 . S
C118 O110 1.249 . S
C118 O111 1.267 . S
C119 O116 1.249 . S
C119 O117 1.267 . S
Dy120 O124 2.398 . S
Dy120 O125 2.491 . S
Dy120 O126 2.403 . S
Dy120 O127 2.664 . S
Dy120 O131 2.326 . S
Dy120 O135 2.310 . S
Dy120 O136 2.351 . S
C121 O132 1.185 . S
C121 O133 1.355 . S
C122 O124 1.185 . S
C122 O125 1.355 . S
Dy123 O127 2.310 . S
Dy123 O130 2.351 . S
Dy123 O132 2.398 . S
Dy123 O133 2.491 . S
Dy123 O134 2.403 . S
Dy123 O135 2.664 . S
Dy123 O137 2.326 . S
O124 Dy120 2.398 . S
O124 C122 1.185 . S
O125 Dy120 2.491 . S
O125 C122 1.355 . S
O126 Dy120 2.403 . S
O126 C128 1.254 . S
O127 Dy120 2.664 . S
O127 Dy123 2.310 . S
O127 C128 1.268 . S
C128 O126 1.254 . S
C128 O127 1.268 . S
C129 O134 1.254 . S
C129 O135 1.268 . S
O130 Dy123 2.351 . S
O130 C138 1.249 . S
O131 Dy120 2.326 . S
O131 C138 1.267 . S
O132 C121 1.185 . S
O132 Dy123 2.398 . S
O133 C121 1.355 . S
O133 Dy123 2.491 . S
O134 Dy123 2.403 . S
O134 C129 1.254 . S
O135 Dy120 2.310 . S
O135 Dy123 2.664 . S
O135 C129 1.268 . S
O136 Dy120 2.351 . S
O136 C139 1.249 . S
O137 Dy123 2.326 . S
O137 C139 1.267 . S
C138 O130 1.249 . S
C138 O131 1.267 . S
C139 O136 1.249 . S
C139 O137 1.267 . S
Dy140 O144 2.398 . S
Dy140 O145 2.491 . S
Dy140 O146 2.403 . S
Dy140 O147 2.664 . S
Dy140 O151 2.326 . S
Dy140 O155 2.310 . S
Dy140 O156 2.351 . S
C141 O152 1.185 . S
C141 O153 1.355 . S
C142 O144 1.185 . S
C142 O145 1.355 . S
Dy143 O147 2.310 . S
Dy143 O150 2.351 . S
Dy143 O152 2.398 . S
Dy143 O153 2.491 . S
Dy143 O154 2.403 . S
Dy143 O155 2.664 . S
Dy143 O157 2.326 . S
O144 Dy140 2.398 . S
O144 C142 1.185 . S
O145 Dy140 2.491 . S
O145 C142 1.355 . S
O146 Dy140 2.403 . S
O146 C148 1.254 . S
O147 Dy140 2.664 . S
O147 Dy143 2.310 . S
O147 C148 1.268 . S
C148 O146 1.254 . S
C148 O147 1.268 . S
C149 O154 1.254 . S
C149 O155 1.268 . S
O150 Dy143 2.351 . S
O150 C158 1.249 . S
O151 Dy140 2.326 . S
O151 C158 1.267 . S
O152 C141 1.185 . S
O152 Dy143 2.398 . S
O153 C141 1.355 . S
O153 Dy143 2.491 . S
O154 Dy143 2.403 . S
O154 C149 1.254 . S
O155 Dy140 2.310 . S
O155 Dy143 2.664 . S
O155 C149 1.268 . S
O156 Dy140 2.351 . S
O156 C159 1.249 . S
O157 Dy143 2.326 . S
O157 C159 1.267 . S
C158 O150 1.249 . S
C158 O151 1.267 . S
C159 O156 1.249 . S
C159 O157 1.267 . S
Dy160 O164 2.398 . S
Dy160 O165 2.491 . S
Dy160 O166 2.403 . S
Dy160 O167 2.664 . S
Dy160 O171 2.326 . S
Dy160 O175 2.310 . S
Dy160 O176 2.351 . S
C161 O172 1.185 . S
C161 O173 1.355 . S
C162 O164 1.185 . S
C162 O165 1.355 . S
Dy163 O167 2.310 . S
Dy163 O170 2.351 . S
Dy163 O172 2.398 1_556 S
Dy163 O173 2.491 1_556 S
Dy163 O174 2.403 . S
Dy163 O175 2.664 . S
Dy163 O177 2.326 . S
O164 Dy160 2.398 . S
O164 C162 1.185 . S
O165 Dy160 2.491 . S
O165 C162 1.355 . S
O166 Dy160 2.403 . S
O166 C168 1.254 . S
O167 Dy160 2.664 . S
O167 Dy163 2.310 . S
O167 C168 1.268 . S
C168 O166 1.254 . S
C168 O167 1.268 . S
C169 O174 1.254 . S
C169 O175 1.268 . S
O170 Dy163 2.351 . S
O170 C178 1.249 . S
O171 Dy160 2.326 . S
O171 C178 1.267 . S
O172 C161 1.185 . S
O172 Dy163 2.398 1_554 S
O173 C161 1.355 . S
O173 Dy163 2.491 1_554 S
O174 Dy163 2.403 . S
O174 C169 1.254 . S
O175 Dy160 2.310 . S
O175 Dy163 2.664 . S
O175 C169 1.268 . S
O176 Dy160 2.351 . S
O176 C179 1.249 . S
O177 Dy163 2.326 . S
O177 C179 1.267 . S
C178 O170 1.249 . S
C178 O171 1.267 . S
C179 O176 1.249 . S
C179 O177 1.267 . S
Dy180 O184 2.398 . S
Dy180 O185 2.491 . S
Dy180 O186 2.403 . S
Dy180 O187 2.664 . S
Dy180 O191 2.326 . S
Dy180 O195 2.310 . S
Dy180 O196 2.351 . S
C181 O192 1.185 . S
C181 O193 1.355 . S
C182 O184 1.185 . S
C182 O185 1.355 . S
Dy183 O187 2.310 . S
Dy183 O190 2.351 . S
Dy183 O192 2.398 . S
Dy183 O193 2.491 . S
Dy183 O194 2.403 . S
Dy183 O195 2.664 . S
Dy183 O197 2.326 . S
O184 Dy180 2.398 . S
O184 C182 1.185 . S
O185 Dy180 2.491 . S
O185 C182 1.355 . S
O186 Dy180 2.403 . S
O186 C188 1.254 . S
O187 Dy180 2.664 . S
O187 Dy183 2.310 . S
O187 C188 1.268 . S
C188 O186 1.254 . S
C188 O187 1.268 . S
C189 O194 1.254 . S
C189 O195 1.268 . S
O190 Dy183 2.351 . S
O190 C198 1.249 . S
O191 Dy180 2.326 . S
O191 C198 1.267 . S
O192 C181 1.185 . S
O192 Dy183 2.398 . S
O193 C181 1.355 . S
O193 Dy183 2.491 . S
O194 Dy183 2.403 . S
O194 C189 1.254 . S
O195 Dy180 2.310 . S
O195 Dy183 2.664 . S
O195 C189 1.268 . S
O196 Dy180 2.351 . S
O196 C199 1.249 . S
O197 Dy183 2.326 . S
O197 C199 1.267 . S
C198 O190 1.249 . S
C198 O191 1.267 . S
C199 O196 1.249 . S
C199 O197 1.267 . S
Dy200 O204 2.398 . S
Dy200 O205 2.491 . S
Dy200 O206 2.403 . S
Dy200 O207 2.664 . S
Dy200 O211 2.326 . S
Dy200 O215 2.310 . S
Dy200 O216 2.351 . S
C201 O212 1.185 . S
C201 O213 1.355 . S
C202 O204 1.185 . S
C202 O205 1.355 . S
Dy203 O207 2.310 . S
Dy203 O210 2.351 . S
Dy203 O212 2.398 . S
Dy203 O213 2.491 . S
Dy203 O214 2.403 . S
Dy203 O215 2.664 . S
Dy203 O217 2.326 . S
O204 Dy200 2.398 . S
O204 C202 1.185 . S
O205 Dy200 2.491 . S
O205 C202 1.355 . S
O206 Dy200 2.403 . S
O206 C208 1.254 . S
O207 Dy200 2.664 . S
O207 Dy203 2.310 . S
O207 C208 1.268 . S
C208 O206 1.254 . S
C208 O207 1.268 . S
C209 O214 1.254 . S
C209 O215 1.268 . S
O210 Dy203 2.351 . S
O210 C218 1.249 . S
O211 Dy200 2.326 . S
O211 C218 1.267 . S
O212 C201 1.185 . S
O212 Dy203 2.398 . S
O213 C201 1.355 . S
O213 Dy203 2.491 . S
O214 Dy203 2.403 . S
O214 C209 1.254 . S
O215 Dy200 2.310 . S
O215 Dy203 2.664 . S
O215 C209 1.268 . S
O216 Dy200 2.351 . S
O216 C219 1.249 . S
O217 Dy203 2.326 . S
O217 C219 1.267 . S
C218 O210 1.249 . S
C218 O211 1.267 . S
C219 O216 1.249 . S
C219 O217 1.267 . S
Dy220 O224 2.398 1_554 S
Dy220 O225 2.491 1_554 S
Dy220 O226 2.403 . S
Dy220 O227 2.664 . S
Dy220 O231 2.326 . S
Dy220 O235 2.310 . S
Dy220 O236 2.351 . S
C221 O232 1.185 . S
C221 O233 1.355 . S
C222 O224 1.185 . S
C222 O225 1.355 . S
Dy223 O227 2.310 . S
Dy223 O230 2.351 . S
Dy223 O232 2.398 . S
Dy223 O233 2.491 . S
Dy223 O234 2.403 . S
Dy223 O235 2.664 . S
Dy223 O237 2.326 . S
O224 Dy220 2.398 1_556 S
O224 C222 1.185 . S
O225 Dy220 2.491 1_556 S
O225 C222 1.355 . S
O226 Dy220 2.403 . S
O226 C228 1.254 . S
O227 Dy220 2.664 . S
O227 Dy223 2.310 . S
O227 C228 1.268 . S
C228 O226 1.254 . S
C228 O227 1.268 . S
C229 O234 1.254 . S
C229 O235 1.268 . S
O230 Dy223 2.351 . S
O230 C238 1.249 . S
O231 Dy220 2.326 . S
O231 C238 1.267 . S
O232 C221 1.185 . S
O232 Dy223 2.398 . S
O233 C221 1.355 . S
O233 Dy223 2.491 . S
O234 Dy223 2.403 . S
O234 C229 1.254 . S
O235 Dy220 2.310 . S
O235 Dy223 2.664 . S
O235 C229 1.268 . S
O236 Dy220 2.351 . S
O236 C239 1.249 . S
O237 Dy223 2.326 . S
O237 C239 1.267 . S
C238 O230 1.249 . S
C238 O231 1.267 . S
C239 O236 1.249 . S
C239 O237 1.267 . S
Dy240 O244 2.398 . S
Dy240 O245 2.491 . S
Dy240 O246 2.403 . S
Dy240 O247 2.664 . S
Dy240 O251 2.326 . S
Dy240 O255 2.310 . S
Dy240 O256 2.351 . S
C241 O252 1.185 . S
C241 O253 1.355 . S
C242 O244 1.185 . S
C242 O245 1.355 . S
Dy243 O247 2.310 . S
Dy243 O250 2.351 . S
Dy243 O252 2.398 1_554 S
Dy243 O253 2.491 1_554 S
Dy243 O254 2.403 . S
Dy243 O255 2.664 . S
Dy243 O257 2.326 . S
O244 Dy240 2.398 . S
O244 C242 1.185 . S
O245 Dy240 2.491 . S
O245 C242 1.355 . S
O246 Dy240 2.403 . S
O246 C248 1.254 . S
O247 Dy240 2.664 . S
O247 Dy243 2.310 . S
O247 C248 1.268 . S
C248 O246 1.254 . S
C248 O247 1.268 . S
C249 O254 1.254 . S
C249 O255 1.268 . S
O250 Dy243 2.351 . S
O250 C258 1.249 . S
O251 Dy240 2.326 . S
O251 C258 1.267 . S
O252 C241 1.185 . S
O252 Dy243 2.398 1_556 S
O253 C241 1.355 . S
O253 Dy243 2.491 1_556 S
O254 Dy243 2.403 . S
O254 C249 1.254 . S
O255 Dy240 2.310 . S
O255 Dy243 2.664 . S
O255 C249 1.268 . S
O256 Dy240 2.351 . S
O256 C259 1.249 . S
O257 Dy243 2.326 . S
O257 C259 1.267 . S
C258 O250 1.249 . S
C258 O251 1.267 . S
C259 O256 1.249 . S
C259 O257 1.267 . S
Dy260 O264 2.398 1_556 S
Dy260 O265 2.491 1_556 S
Dy260 O266 2.403 . S
Dy260 O267 2.664 . S
Dy260 O271 2.326 . S
Dy260 O275 2.310 . S
Dy260 O276 2.351 . S
C261 O272 1.185 . S
C261 O273 1.355 . S
C262 O264 1.185 . S
C262 O265 1.355 . S
Dy263 O267 2.310 . S
Dy263 O270 2.351 . S
Dy263 O272 2.398 . S
Dy263 O273 2.491 . S
Dy263 O274 2.403 . S
Dy263 O275 2.664 . S
Dy263 O277 2.326 . S
O264 Dy260 2.398 1_554 S
O264 C262 1.185 . S
O265 Dy260 2.491 1_554 S
O265 C262 1.355 . S
O266 Dy260 2.403 . S
O266 C268 1.254 . S
O267 Dy260 2.664 . S
O267 Dy263 2.310 . S
O267 C268 1.268 . S
C268 O266 1.254 . S
C268 O267 1.268 . S
C269 O274 1.254 . S
C269 O275 1.268 . S
O270 Dy263 2.351 . S
O270 C278 1.249 . S
O271 Dy260 2.326 . S
O271 C278 1.267 . S
O272 C261 1.185 . S
O272 Dy263 2.398 . S
O273 C261 1.355 . S
O273 Dy263 2.491 . S
O274 Dy263 2.403 . S
O274 C269 1.254 . S
O275 Dy260 2.310 . S
O275 Dy263 2.664 . S
O275 C269 1.268 . S
O276 Dy260 2.351 . S
O276 C279 1.249 . S
O277 Dy263 2.326 . S
O277 C279 1.267 . S
C278 O270 1.249 . S
C278 O271 1.267 . S
C279 O276 1.249 . S
C279 O277 1.267 . S
Dy280 O284 2.398 . S
Dy280 O285 2.491 . S
Dy280 O286 2.403 . S
Dy280 O287 2.664 . S
Dy280 O291 2.326 . S
Dy280 O295 2.310 . S
Dy280 O296 2.351 . S
C281 O292 1.185 . S
C281 O293 1.355 . S
C282 O284 1.185 . S
C282 O285 1.355 . S
Dy283 O287 2.310 . S
Dy283 O290 2.351 . S
Dy283 O292 2.398 . S
Dy283 O293 2.491 . S
Dy283 O294 2.403 . S
Dy283 O295 2.664 . S
Dy283 O297 2.326 . S
O284 Dy280 2.398 . S
O284 C282 1.185 . S
O285 Dy280 2.491 . S
O285 C282 1.355 . S
O286 Dy280 2.403 . S
O286 C288 1.254 . S
O287 Dy280 2.664 . S
O287 Dy283 2.310 . S
O287 C288 1.268 . S
C288 O286 1.254 . S
C288 O287 1.268 . S
C289 O294 1.254 . S
C289 O295 1.268 . S
O290 Dy283 2.351 . S
O290 C298 1.249 . S
O291 Dy280 2.326 . S
O291 C298 1.267 . S
O292 C281 1.185 . S
O292 Dy283 2.398 . S
O293 C281 1.355 . S
O293 Dy283 2.491 . S
O294 Dy283 2.403 . S
O294 C289 1.254 . S
O295 Dy280 2.310 . S
O295 Dy283 2.664 . S
O295 C289 1.268 . S
O296 Dy280 2.351 . S
O296 C299 1.249 . S
O297 Dy283 2.326 . S
O297 C299 1.267 . S
C298 O290 1.249 . S
C298 O291 1.267 . S
C299 O296 1.249 . S
C299 O297 1.267 . S
Dy300 O304 2.398 . S
Dy300 O305 2.491 . S
Dy300 O306 2.403 . S
Dy300 O307 2.664 . S
Dy300 O311 2.326 . S
Dy300 O315 2.310 . S
Dy300 O316 2.351 . S
C301 O312 1.185 . S
C301 O313 1.355 . S
C302 O304 1.185 . S
C302 O305 1.355 . S
Dy303 O307 2.310 . S
Dy303 O310 2.351 . S
Dy303 O312 2.398 . S
Dy303 O313 2.491 . S
Dy303 O314 2.403 . S
Dy303 O315 2.664 . S
Dy303 O317 2.326 . S
O304 Dy300 2.398 . S
O304 C302 1.185 . S
O305 Dy300 2.491 . S
O305 C302 1.355 . S
O306 Dy300 2.403 . S
O306 C308 1.254 . S
O307 Dy300 2.664 . S
O307 Dy303 2.310 . S
O307 C308 1.268 . S
C308 O306 1.254 . S
C308 O307 1.268 . S
C309 O314 1.254 . S
C309 O315 1.268 . S
O310 Dy303 2.351 . S
O310 C318 1.249 . S
O311 Dy300 2.326 . S
O311 C318 1.267 . S
O312 C301 1.185 . S
O312 Dy303 2.398 . S
O313 C301 1.355 . S
O313 Dy303 2.491 . S
O314 Dy303 2.403 . S
O314 C309 1.254 . S
O315 Dy300 2.310 . S
O315 Dy303 2.664 . S
O315 C309 1.268 . S
O316 Dy300 2.351 . S
O316 C319 1.249 . S
O317 Dy303 2.326 . S
O317 C319 1.267 . S
C318 O310 1.249 . S
C318 O311 1.267 . S
C319 O316 1.249 . S
C319 O317 1.267 . S
C320 C321 1.391 . S
C320 C322 1.394 . S
C320 H336 0.931 . S
C321 C320 1.391 . S
C321 C325 1.376 . S
C322 C320 1.394 . S
C322 C323 1.369 . S
C322 C326 1.531 . S
C323 C322 1.369 . S
C323 C324 1.410 . S
C323 C331 1.503 . S
C324 C323 1.410 . S
C324 C325 1.392 . S
C324 C327 1.511 . S
C325 C321 1.376 . S
C325 C324 1.392 . S
C325 H337 0.929 . S
C326 C322 1.531 . S
C326 H338 0.960 . S
C326 H339 0.962 . S
C326 H340 0.960 . S
C327 C324 1.511 . S
C327 H341 0.961 . S
C327 H342 0.961 . S
C327 H343 0.961 . S
C328 C329 1.370 . S
C328 C330 1.363 . S
C328 H344 0.931 . S
C329 C328 1.370 . S
C329 C333 1.408 . S
C330 C328 1.363 . S
C330 C331 1.370 . S
C330 C334 1.524 . S
C331 C323 1.503 . S
C331 C330 1.370 . S
C331 C332 1.403 . S
C332 C331 1.403 . S
C332 C333 1.404 . S
C332 C335 1.539 . S
C333 C329 1.408 . S
C333 C332 1.404 . S
C333 H345 0.930 . S
C334 C330 1.524 . S
C334 H346 0.956 . S
C334 H347 0.961 . S
C334 H348 0.961 . S
C335 C332 1.539 . S
C335 H349 0.958 . S
C335 H350 0.961 . S
C335 H351 0.960 . S
H336 C320 0.931 . S
H337 C325 0.929 . S
H338 C326 0.960 . S
H339 C326 0.962 . S
H340 C326 0.960 . S
H341 C327 0.961 . S
H342 C327 0.961 . S
H343 C327 0.961 . S
H344 C328 0.931 . S
H345 C333 0.930 . S
H346 C334 0.956 . S
H347 C334 0.961 . S
H348 C334 0.961 . S
H349 C335 0.958 . S
H350 C335 0.961 . S
H351 C335 0.960 . S
C352 C353 1.391 . S
C352 C354 1.394 1_554 S
C352 H368 0.931 . S
C353 C352 1.391 . S
C353 C357 1.375 . S
C354 C352 1.394 1_556 S
C354 C355 1.369 . S
C354 C358 1.531 . S
C355 C354 1.369 . S
C355 C356 1.410 . S
C355 C363 1.503 . S
C356 C355 1.410 . S
C356 C357 1.394 1_556 S
C356 C359 1.511 . S
C357 C353 1.375 . S
C357 C356 1.394 1_554 S
C357 H369 0.928 . S
C358 C354 1.531 . S
C358 H370 0.960 . S
C358 H371 0.962 . S
C358 H372 0.960 . S
C359 C356 1.511 . S
C359 H373 0.961 . S
C359 H374 0.961 . S
C359 H375 0.961 . S
C360 C361 1.370 . S
C360 C362 1.363 . S
C360 H376 0.931 . S
C361 C360 1.370 . S
C361 C365 1.408 . S
C362 C360 1.363 . S
C362 C363 1.370 . S
C362 C366 1.524 . S
C363 C355 1.503 . S
C363 C362 1.370 . S
C363 C364 1.403 . S
C364 C363 1.403 . S
C364 C365 1.404 . S
C364 C367 1.539 . S
C365 C361 1.408 . S
C365 C364 1.404 . S
C365 H377 0.930 . S
C366 C362 1.524 . S
C366 H378 0.956 . S
C366 H379 0.961 . S
C366 H380 0.961 . S
C367 C364 1.539 . S
C367 H381 0.958 . S
C367 H382 0.961 . S
C367 H383 0.960 . S
H368 C352 0.931 . S
H369 C357 0.928 . S
H370 C358 0.960 . S
H371 C358 0.962 . S
H372 C358 0.960 . S
H373 C359 0.961 . S
H374 C359 0.961 . S
H375 C359 0.961 . S
H376 C360 0.931 . S
H377 C365 0.930 . S
H378 C366 0.956 . S
H379 C366 0.961 . S
H380 C366 0.961 . S
H381 C367 0.958 . S
H382 C367 0.961 . S
H383 C367 0.960 . S
C384 C385 1.391 . S
C384 C386 1.394 . S
C384 H400 0.931 . S
C385 C384 1.391 . S
C385 C389 1.376 . S
C386 C384 1.394 . S
C386 C387 1.369 . S
C386 C390 1.531 . S
C387 C386 1.369 . S
C387 C388 1.410 . S
C387 C395 1.503 . S
C388 C387 1.410 . S
C388 C389 1.392 . S
C388 C391 1.511 . S
C389 C385 1.376 . S
C389 C388 1.392 . S
C389 H401 0.929 . S
C390 C386 1.531 . S
C390 H402 0.960 . S
C390 H403 0.962 . S
C390 H404 0.960 . S
C391 C388 1.511 . S
C391 H405 0.961 . S
C391 H406 0.961 . S
C391 H407 0.961 . S
C392 C393 1.370 . S
C392 C394 1.363 1_556 S
C392 H408 0.931 . S
C393 C392 1.370 . S
C393 C397 1.408 . S
C394 C392 1.363 1_554 S
C394 C395 1.370 . S
C394 C398 1.524 . S
C395 C387 1.503 . S
C395 C394 1.370 . S
C395 C396 1.403 . S
C396 C395 1.403 . S
C396 C397 1.404 1_554 S
C396 C399 1.539 . S
C397 C393 1.408 . S
C397 C396 1.404 1_556 S
C397 H409 0.930 . S
C398 C394 1.524 . S
C398 H410 0.956 . S
C398 H411 0.961 . S
C398 H412 0.961 . S
C399 C396 1.539 . S
C399 H413 0.958 . S
C399 H414 0.961 . S
C399 H415 0.960 . S
H400 C384 0.931 . S
H401 C389 0.929 . S
H402 C390 0.960 . S
H403 C390 0.962 . S
H404 C390 0.960 . S
H405 C391 0.961 . S
H406 C391 0.961 . S
H407 C391 0.961 . S
H408 C392 0.931 . S
H409 C397 0.930 . S
H410 C398 0.956 . S
H411 C398 0.961 . S
H412 C398 0.961 . S
H413 C399 0.958 . S
H414 C399 0.961 . S
H415 C399 0.960 . S
C416 C417 1.391 . S
C416 C418 1.394 . S
C416 H432 0.931 . S
C417 C416 1.391 . S
C417 C421 1.376 . S
C418 C416 1.394 . S
C418 C419 1.369 . S
C418 C422 1.531 . S
C419 C418 1.369 . S
C419 C420 1.410 . S
C419 C427 1.503 . S
C420 C419 1.410 . S
C420 C421 1.392 . S
C420 C423 1.511 . S
C421 C417 1.376 . S
C421 C420 1.392 . S
C421 H433 0.929 . S
C422 C418 1.531 . S
C422 H434 0.960 . S
C422 H435 0.962 . S
C422 H436 0.960 . S
C423 C420 1.511 . S
C423 H437 0.961 . S
C423 H438 0.961 . S
C423 H439 0.961 . S
C424 C425 1.370 . S
C424 C426 1.363 . S
C424 H440 0.931 . S
C425 C424 1.370 . S
C425 C429 1.408 . S
C426 C424 1.363 . S
C426 C427 1.370 . S
C426 C430 1.524 . S
C427 C419 1.503 . S
C427 C426 1.370 . S
C427 C428 1.403 . S
C428 C427 1.403 . S
C428 C429 1.404 . S
C428 C431 1.539 . S
C429 C425 1.408 . S
C429 C428 1.404 . S
C429 H441 0.930 . S
C430 C426 1.524 . S
C430 H442 0.956 . S
C430 H443 0.961 . S
C430 H444 0.961 . S
C431 C428 1.539 . S
C431 H445 0.958 . S
C431 H446 0.961 . S
C431 H447 0.960 . S
H432 C416 0.931 . S
H433 C421 0.929 . S
H434 C422 0.960 . S
H435 C422 0.962 . S
H436 C422 0.960 . S
H437 C423 0.961 . S
H438 C423 0.961 . S
H439 C423 0.961 . S
H440 C424 0.931 . S
H441 C429 0.930 . S
H442 C430 0.956 . S
H443 C430 0.961 . S
H444 C430 0.961 . S
H445 C431 0.958 . S
H446 C431 0.961 . S
H447 C431 0.960 . S
C448 C449 1.391 . S
C448 C450 1.394 . S
C448 H464 0.931 . S
C449 C448 1.391 . S
C449 C453 1.376 . S
C450 C448 1.394 . S
C450 C451 1.369 . S
C450 C454 1.531 . S
C451 C450 1.369 . S
C451 C452 1.410 . S
C451 C459 1.503 . S
C452 C451 1.410 . S
C452 C453 1.392 . S
C452 C455 1.511 . S
C453 C449 1.376 . S
C453 C452 1.392 . S
C453 H465 0.929 . S
C454 C450 1.531 . S
C454 H466 0.960 . S
C454 H467 0.962 . S
C454 H468 0.960 . S
C455 C452 1.511 . S
C455 H469 0.961 . S
C455 H470 0.961 . S
C455 H471 0.961 . S
C456 C457 1.370 . S
C456 C458 1.363 . S
C456 H472 0.931 . S
C457 C456 1.370 . S
C457 C461 1.408 . S
C458 C456 1.363 . S
C458 C459 1.370 . S
C458 C462 1.524 . S
C459 C451 1.503 . S
C459 C458 1.370 . S
C459 C460 1.403 . S
C460 C459 1.403 . S
C460 C461 1.404 . S
C460 C463 1.539 . S
C461 C457 1.408 . S
C461 C460 1.404 . S
C461 H473 0.930 . S
C462 C458 1.524 . S
C462 H474 0.956 . S
C462 H475 0.961 . S
C462 H476 0.961 . S
C463 C460 1.539 . S
C463 H477 0.958 . S
C463 H478 0.961 . S
C463 H479 0.960 . S
H464 C448 0.931 . S
H465 C453 0.929 . S
H466 C454 0.960 . S
H467 C454 0.962 . S
H468 C454 0.960 . S
H469 C455 0.961 . S
H470 C455 0.961 . S
H471 C455 0.961 . S
H472 C456 0.931 . S
H473 C461 0.930 . S
H474 C462 0.956 . S
H475 C462 0.961 . S
H476 C462 0.961 . S
H477 C463 0.958 . S
H478 C463 0.961 . S
H479 C463 0.960 . S
C480 C481 1.391 . S
C480 C482 1.394 . S
C480 H496 0.931 . S
C481 C480 1.391 . S
C481 C485 1.376 . S
C482 C480 1.394 . S
C482 C483 1.369 . S
C482 C486 1.531 . S
C483 C482 1.369 . S
C483 C484 1.410 . S
C483 C491 1.503 . S
C484 C483 1.410 . S
C484 C485 1.392 . S
C484 C487 1.511 . S
C485 C481 1.376 . S
C485 C484 1.392 . S
C485 H497 0.929 . S
C486 C482 1.531 . S
C486 H498 0.960 . S
C486 H499 0.962 . S
C486 H500 0.960 . S
C487 C484 1.511 . S
C487 H501 0.961 . S
C487 H502 0.961 . S
C487 H503 0.961 . S
C488 C489 1.370 . S
C488 C490 1.363 . S
C488 H504 0.931 . S
C489 C488 1.370 . S
C489 C493 1.408 . S
C490 C488 1.363 . S
C490 C491 1.370 . S
C490 C494 1.524 . S
C491 C483 1.503 . S
C491 C490 1.370 . S
C491 C492 1.403 . S
C492 C491 1.403 . S
C492 C493 1.404 . S
C492 C495 1.539 . S
C493 C489 1.408 . S
C493 C492 1.404 . S
C493 H505 0.930 . S
C494 C490 1.524 . S
C494 H506 0.956 . S
C494 H507 0.961 . S
C494 H508 0.961 . S
C495 C492 1.539 . S
C495 H509 0.958 . S
C495 H510 0.961 . S
C495 H511 0.960 . S
H496 C480 0.931 . S
H497 C485 0.929 . S
H498 C486 0.960 . S
H499 C486 0.962 . S
H500 C486 0.960 . S
H501 C487 0.961 . S
H502 C487 0.961 . S
H503 C487 0.961 . S
H504 C488 0.931 . S
H505 C493 0.930 . S
H506 C494 0.956 . S
H507 C494 0.961 . S
H508 C494 0.961 . S
H509 C495 0.958 . S
H510 C495 0.961 . S
H511 C495 0.960 . S
C512 C513 1.391 . S
C512 C514 1.394 . S
C512 H528 0.931 . S
C513 C512 1.391 . S
C513 C517 1.376 . S
C514 C512 1.394 . S
C514 C515 1.369 . S
C514 C518 1.531 . S
C515 C514 1.369 . S
C515 C516 1.410 . S
C515 C523 1.503 . S
C516 C515 1.410 . S
C516 C517 1.392 . S
C516 C519 1.511 . S
C517 C513 1.376 . S
C517 C516 1.392 . S
C517 H529 0.929 . S
C518 C514 1.531 . S
C518 H530 0.960 . S
C518 H531 0.962 . S
C518 H532 0.960 . S
C519 C516 1.511 . S
C519 H533 0.961 . S
C519 H534 0.961 . S
C519 H535 0.961 . S
C520 C521 1.370 . S
C520 C522 1.363 1_554 S
C520 H536 0.931 . S
C521 C520 1.370 . S
C521 C525 1.408 . S
C522 C520 1.363 1_556 S
C522 C523 1.370 . S
C522 C526 1.524 . S
C523 C515 1.503 . S
C523 C522 1.370 . S
C523 C524 1.403 . S
C524 C523 1.403 . S
C524 C525 1.404 1_556 S
C524 C527 1.539 . S
C525 C521 1.408 . S
C525 C524 1.404 1_554 S
C525 H537 0.930 . S
C526 C522 1.524 . S
C526 H538 0.956 . S
C526 H539 0.961 . S
C526 H540 0.961 . S
C527 C524 1.539 . S
C527 H541 0.958 . S
C527 H542 0.961 . S
C527 H543 0.960 . S
H528 C512 0.931 . S
H529 C517 0.929 . S
H530 C518 0.960 . S
H531 C518 0.962 . S
H532 C518 0.960 . S
H533 C519 0.961 . S
H534 C519 0.961 . S
H535 C519 0.961 . S
H536 C520 0.931 . S
H537 C525 0.930 . S
H538 C526 0.956 . S
H539 C526 0.961 . S
H540 C526 0.961 . S
H541 C527 0.958 . S
H542 C527 0.961 . S
H543 C527 0.960 . S
C544 C545 1.391 . S
C544 C546 1.394 1_556 S
C544 H560 0.931 . S
C545 C544 1.391 . S
C545 C549 1.376 . S
C546 C544 1.394 1_554 S
C546 C547 1.369 . S
C546 C550 1.531 . S
C547 C546 1.369 . S
C547 C548 1.410 . S
C547 C555 1.503 . S
C548 C547 1.410 . S
C548 C549 1.392 1_554 S
C548 C551 1.511 . S
C549 C545 1.376 . S
C549 C548 1.392 1_556 S
C549 H561 0.929 . S
C550 C546 1.531 . S
C550 H562 0.960 . S
C550 H563 0.962 . S
C550 H564 0.960 . S
C551 C548 1.511 . S
C551 H565 0.961 . S
C551 H566 0.961 . S
C551 H567 0.961 . S
C552 C553 1.370 . S
C552 C554 1.363 . S
C552 H568 0.931 . S
C553 C552 1.370 . S
C553 C557 1.408 . S
C554 C552 1.363 . S
C554 C555 1.370 . S
C554 C558 1.524 . S
C555 C547 1.503 . S
C555 C554 1.370 . S
C555 C556 1.403 . S
C556 C555 1.403 . S
C556 C557 1.404 . S
C556 C559 1.539 . S
C557 C553 1.408 . S
C557 C556 1.404 . S
C557 H569 0.930 . S
C558 C554 1.524 . S
C558 H570 0.956 . S
C558 H571 0.961 . S
C558 H572 0.961 . S
C559 C556 1.539 . S
C559 H573 0.958 . S
C559 H574 0.961 . S
C559 H575 0.960 . S
H560 C544 0.931 . S
H561 C549 0.929 . S
H562 C550 0.960 . S
H563 C550 0.962 . S
H564 C550 0.960 . S
H565 C551 0.961 . S
H566 C551 0.961 . S
H567 C551 0.961 . S
H568 C552 0.931 . S
H569 C557 0.930 . S
H570 C558 0.956 . S
H571 C558 0.961 . S
H572 C558 0.961 . S
H573 C559 0.958 . S
H574 C559 0.961 . S
H575 C559 0.960 . S
C576 C577 1.391 . S
C576 C578 1.394 . S
C576 H592 0.931 . S
C577 C576 1.391 . S
C577 C581 1.376 . S
C578 C576 1.394 . S
C578 C579 1.369 . S
C578 C582 1.531 . S
C579 C578 1.369 . S
C579 C580 1.410 . S
C579 C587 1.503 . S
C580 C579 1.410 . S
C580 C581 1.392 . S
C580 C583 1.511 . S
C581 C577 1.376 . S
C581 C580 1.392 . S
C581 H593 0.929 . S
C582 C578 1.531 . S
C582 H594 0.960 . S
C582 H595 0.962 . S
C582 H596 0.960 . S
C583 C580 1.511 . S
C583 H597 0.961 . S
C583 H598 0.961 . S
C583 H599 0.961 . S
C584 C585 1.370 . S
C584 C586 1.363 . S
C584 H600 0.931 . S
C585 C584 1.370 . S
C585 C589 1.408 . S
C586 C584 1.363 . S
C586 C587 1.370 . S
C586 C590 1.524 . S
C587 C579 1.503 . S
C587 C586 1.370 . S
C587 C588 1.403 . S
C588 C587 1.403 . S
C588 C589 1.404 . S
C588 C591 1.539 . S
C589 C585 1.408 . S
C589 C588 1.404 . S
C589 H601 0.930 . S
C590 C586 1.524 . S
C590 H602 0.956 . S
C590 H603 0.961 . S
C590 H604 0.961 . S
C591 C588 1.539 . S
C591 H605 0.958 . S
C591 H606 0.961 . S
C591 H607 0.960 . S
H592 C576 0.931 . S
H593 C581 0.929 . S
H594 C582 0.960 . S
H595 C582 0.962 . S
H596 C582 0.960 . S
H597 C583 0.961 . S
H598 C583 0.961 . S
H599 C583 0.961 . S
H600 C584 0.931 . S
H601 C589 0.930 . S
H602 C590 0.956 . S
H603 C590 0.961 . S
H604 C590 0.961 . S
H605 C591 0.958 . S
H606 C591 0.961 . S
H607 C591 0.960 . S
C608 C609 1.391 . S
C608 C610 1.394 . S
C608 H624 0.931 . S
C609 C608 1.391 . S
C609 C613 1.376 . S
C610 C608 1.394 . S
C610 C611 1.369 . S
C610 C614 1.531 . S
C611 C610 1.369 . S
C611 C612 1.410 . S
C611 C619 1.503 . S
C612 C611 1.410 . S
C612 C613 1.392 . S
C612 C615 1.511 . S
C613 C609 1.376 . S
C613 C612 1.392 . S
C613 H625 0.929 . S
C614 C610 1.531 . S
C614 H626 0.960 . S
C614 H627 0.962 . S
C614 H628 0.960 . S
C615 C612 1.511 . S
C615 H629 0.961 . S
C615 H630 0.961 . S
C615 H631 0.961 . S
C616 C617 1.370 . S
C616 C618 1.363 1_556 S
C616 H632 0.931 . S
C617 C616 1.370 . S
C617 C621 1.408 . S
C618 C616 1.363 1_554 S
C618 C619 1.370 . S
C618 C622 1.524 . S
C619 C611 1.503 . S
C619 C618 1.370 . S
C619 C620 1.403 . S
C620 C619 1.403 . S
C620 C621 1.404 1_554 S
C620 C623 1.539 . S
C621 C617 1.408 . S
C621 C620 1.404 1_556 S
C621 H633 0.930 . S
C622 C618 1.524 . S
C622 H634 0.956 . S
C622 H635 0.961 . S
C622 H636 0.961 . S
C623 C620 1.539 . S
C623 H637 0.958 . S
C623 H638 0.961 . S
C623 H639 0.960 . S
H624 C608 0.931 . S
H625 C613 0.929 . S
H626 C614 0.960 . S
H627 C614 0.962 . S
H628 C614 0.960 . S
H629 C615 0.961 . S
H630 C615 0.961 . S
H631 C615 0.961 . S
H632 C616 0.931 . S
H633 C621 0.930 . S
H634 C622 0.956 . S
H635 C622 0.961 . S
H636 C622 0.961 . S
H637 C623 0.958 . S
H638 C623 0.961 . S
H639 C623 0.960 . S
C640 C641 1.391 . S
C640 C642 1.394 1_554 S
C640 H656 0.931 . S
C641 C640 1.391 . S
C641 C645 1.376 . S
C642 C640 1.394 1_556 S
C642 C643 1.369 . S
C642 C646 1.531 . S
C643 C642 1.369 . S
C643 C644 1.410 . S
C643 C651 1.503 . S
C644 C643 1.410 . S
C644 C645 1.392 1_556 S
C644 C647 1.511 . S
C645 C641 1.376 . S
C645 C644 1.392 1_554 S
C645 H657 0.929 . S
C646 C642 1.531 . S
C646 H658 0.960 . S
C646 H659 0.962 . S
C646 H660 0.960 . S
C647 C644 1.511 . S
C647 H661 0.961 . S
C647 H662 0.961 . S
C647 H663 0.961 . S
C648 C649 1.370 . S
C648 C650 1.363 . S
C648 H664 0.931 . S
C649 C648 1.370 . S
C649 C653 1.408 . S
C650 C648 1.363 . S
C650 C651 1.370 . S
C650 C654 1.524 . S
C651 C643 1.503 . S
C651 C650 1.370 . S
C651 C652 1.403 . S
C652 C651 1.403 . S
C652 C653 1.404 . S
C652 C655 1.539 . S
C653 C649 1.408 . S
C653 C652 1.404 . S
C653 H665 0.930 . S
C654 C650 1.524 . S
C654 H666 0.956 . S
C654 H667 0.961 . S
C654 H668 0.961 . S
C655 C652 1.539 . S
C655 H669 0.958 . S
C655 H670 0.961 . S
C655 H671 0.960 . S
H656 C640 0.931 . S
H657 C645 0.929 . S
H658 C646 0.960 . S
H659 C646 0.962 . S
H660 C646 0.960 . S
H661 C647 0.961 . S
H662 C647 0.961 . S
H663 C647 0.961 . S
H664 C648 0.931 . S
H665 C653 0.930 . S
H666 C654 0.956 . S
H667 C654 0.961 . S
H668 C654 0.961 . S
H669 C655 0.958 . S
H670 C655 0.961 . S
H671 C655 0.960 . S
C672 C673 1.391 . S
C672 C674 1.394 . S
C672 H688 0.931 . S
C673 C672 1.391 . S
C673 C677 1.376 . S
C674 C672 1.394 . S
C674 C675 1.369 . S
C674 C678 1.531 . S
C675 C674 1.369 . S
C675 C676 1.410 . S
C675 C683 1.503 . S
C676 C675 1.410 . S
C676 C677 1.392 . S
C676 C679 1.511 . S
C677 C673 1.376 . S
C677 C676 1.392 . S
C677 H689 0.929 . S
C678 C674 1.531 . S
C678 H690 0.960 . S
C678 H691 0.962 . S
C678 H692 0.960 . S
C679 C676 1.511 . S
C679 H693 0.961 . S
C679 H694 0.961 . S
C679 H695 0.961 . S
C680 C681 1.370 . S
C680 C682 1.363 . S
C680 H696 0.931 . S
C681 C680 1.370 . S
C681 C685 1.408 . S
C682 C680 1.363 . S
C682 C683 1.370 . S
C682 C686 1.524 . S
C683 C675 1.503 . S
C683 C682 1.370 . S
C683 C684 1.403 . S
C684 C683 1.403 . S
C684 C685 1.404 . S
C684 C687 1.539 . S
C685 C681 1.408 . S
C685 C684 1.404 . S
C685 H697 0.930 . S
C686 C682 1.524 . S
C686 H698 0.956 . S
C686 H699 0.961 . S
C686 H700 0.961 . S
C687 C684 1.539 . S
C687 H701 0.958 . S
C687 H702 0.961 . S
C687 H703 0.960 . S
H688 C672 0.931 . S
H689 C677 0.929 . S
H690 C678 0.960 . S
H691 C678 0.962 . S
H692 C678 0.960 . S
H693 C679 0.961 . S
H694 C679 0.961 . S
H695 C679 0.961 . S
H696 C680 0.931 . S
H697 C685 0.930 . S
H698 C686 0.956 . S
H699 C686 0.961 . S
H700 C686 0.961 . S
H701 C687 0.958 . S
H702 C687 0.961 . S
H703 C687 0.960 . S
C704 C705 1.391 . S
C704 C706 1.394 . S
C704 H720 0.931 . S
C705 C704 1.391 . S
C705 C709 1.376 . S
C706 C704 1.394 . S
C706 C707 1.369 . S
C706 C710 1.531 . S
C707 C706 1.369 . S
C707 C708 1.410 . S
C707 C715 1.503 . S
C708 C707 1.410 . S
C708 C709 1.392 . S
C708 C711 1.511 . S
C709 C705 1.376 . S
C709 C708 1.392 . S
C709 H721 0.929 . S
C710 C706 1.531 . S
C710 H722 0.960 . S
C710 H723 0.962 . S
C710 H724 0.960 . S
C711 C708 1.511 . S
C711 H725 0.961 . S
C711 H726 0.961 . S
C711 H727 0.961 . S
C712 C713 1.370 . S
C712 C714 1.363 . S
C712 H728 0.931 . S
C713 C712 1.370 . S
C713 C717 1.408 . S
C714 C712 1.363 . S
C714 C715 1.370 . S
C714 C718 1.524 . S
C715 C707 1.503 . S
C715 C714 1.370 . S
C715 C716 1.403 . S
C716 C715 1.403 . S
C716 C717 1.404 . S
C716 C719 1.539 . S
C717 C713 1.408 . S
C717 C716 1.404 . S
C717 H729 0.930 . S
C718 C714 1.524 . S
C718 H730 0.956 . S
C718 H731 0.961 . S
C718 H732 0.961 . S
C719 C716 1.539 . S
C719 H733 0.958 . S
C719 H734 0.961 . S
C719 H735 0.960 . S
H720 C704 0.931 . S
H721 C709 0.929 . S
H722 C710 0.960 . S
H723 C710 0.962 . S
H724 C710 0.960 . S
H725 C711 0.961 . S
H726 C711 0.961 . S
H727 C711 0.961 . S
H728 C712 0.931 . S
H729 C717 0.930 . S
H730 C718 0.956 . S
H731 C718 0.961 . S
H732 C718 0.961 . S
H733 C719 0.958 . S
H734 C719 0.961 . S
H735 C719 0.960 . S
C736 C737 1.391 . S
C736 C738 1.394 . S
C736 H752 0.931 . S
C737 C736 1.391 . S
C737 C741 1.376 . S
C738 C736 1.394 . S
C738 C739 1.369 . S
C738 C742 1.531 . S
C739 C738 1.369 . S
C739 C740 1.410 . S
C739 C747 1.503 . S
C740 C739 1.410 . S
C740 C741 1.392 . S
C740 C743 1.511 . S
C741 C737 1.376 . S
C741 C740 1.392 . S
C741 H753 0.929 . S
C742 C738 1.531 . S
C742 H754 0.960 . S
C742 H755 0.962 . S
C742 H756 0.960 . S
C743 C740 1.511 . S
C743 H757 0.961 . S
C743 H758 0.961 . S
C743 H759 0.961 . S
C744 C745 1.370 . S
C744 C746 1.363 . S
C744 H760 0.931 . S
C745 C744 1.370 . S
C745 C749 1.408 . S
C746 C744 1.363 . S
C746 C747 1.370 . S
C746 C750 1.524 . S
C747 C739 1.503 . S
C747 C746 1.370 . S
C747 C748 1.403 . S
C748 C747 1.403 . S
C748 C749 1.404 . S
C748 C751 1.539 . S
C749 C745 1.408 . S
C749 C748 1.404 . S
C749 H761 0.930 . S
C750 C746 1.524 . S
C750 H762 0.956 . S
C750 H763 0.961 . S
C750 H764 0.961 . S
C751 C748 1.539 . S
C751 H765 0.958 . S
C751 H766 0.961 . S
C751 H767 0.960 . S
H752 C736 0.931 . S
H753 C741 0.929 . S
H754 C742 0.960 . S
H755 C742 0.962 . S
H756 C742 0.960 . S
H757 C743 0.961 . S
H758 C743 0.961 . S
H759 C743 0.961 . S
H760 C744 0.931 . S
H761 C749 0.930 . S
H762 C750 0.956 . S
H763 C750 0.961 . S
H764 C750 0.961 . S
H765 C751 0.958 . S
H766 C751 0.961 . S
H767 C751 0.960 . S
C768 C769 1.391 . S
C768 C770 1.394 . S
C768 H784 0.931 . S
C769 C768 1.391 . S
C769 C773 1.376 . S
C770 C768 1.394 . S
C770 C771 1.369 . S
C770 C774 1.531 . S
C771 C770 1.369 . S
C771 C772 1.410 . S
C771 C779 1.503 . S
C772 C771 1.410 . S
C772 C773 1.392 . S
C772 C775 1.511 . S
C773 C769 1.376 . S
C773 C772 1.392 . S
C773 H785 0.929 . S
C774 C770 1.531 . S
C774 H786 0.960 . S
C774 H787 0.962 . S
C774 H788 0.960 . S
C775 C772 1.511 . S
C775 H789 0.961 . S
C775 H790 0.961 . S
C775 H791 0.961 . S
C776 C777 1.370 . S
C776 C778 1.363 1_556 S
C776 H792 0.931 . S
C777 C776 1.370 . S
C777 C781 1.408 . S
C778 C776 1.363 1_554 S
C778 C779 1.370 . S
C778 C782 1.524 . S
C779 C771 1.503 . S
C779 C778 1.370 . S
C779 C780 1.403 . S
C780 C779 1.403 . S
C780 C781 1.404 1_554 S
C780 C783 1.539 . S
C781 C777 1.408 . S
C781 C780 1.404 1_556 S
C781 H793 0.930 . S
C782 C778 1.524 . S
C782 H794 0.956 . S
C782 H795 0.961 . S
C782 H796 0.961 . S
C783 C780 1.539 . S
C783 H797 0.958 . S
C783 H798 0.961 . S
C783 H799 0.960 . S
H784 C768 0.931 . S
H785 C773 0.929 . S
H786 C774 0.960 . S
H787 C774 0.962 . S
H788 C774 0.960 . S
H789 C775 0.961 . S
H790 C775 0.961 . S
H791 C775 0.961 . S
H792 C776 0.931 . S
H793 C781 0.930 . S
H794 C782 0.956 . S
H795 C782 0.961 . S
H796 C782 0.961 . S
H797 C783 0.958 . S
H798 C783 0.961 . S
H799 C783 0.960 . S
C800 C801 1.391 . S
C800 C802 1.394 1_554 S
C800 H816 0.931 . S
C801 C800 1.391 . S
C801 C805 1.376 . S
C802 C800 1.394 1_556 S
C802 C803 1.369 . S
C802 C806 1.531 . S
C803 C802 1.369 . S
C803 C804 1.410 . S
C803 C811 1.503 . S
C804 C803 1.410 . S
C804 C805 1.392 1_556 S
C804 C807 1.511 . S
C805 C801 1.376 . S
C805 C804 1.392 1_554 S
C805 H817 0.929 . S
C806 C802 1.531 . S
C806 H818 0.960 . S
C806 H819 0.962 . S
C806 H820 0.960 . S
C807 C804 1.511 . S
C807 H821 0.961 . S
C807 H822 0.961 . S
C807 H823 0.961 . S
C808 C809 1.370 . S
C808 C810 1.363 . S
C808 H824 0.931 . S
C809 C808 1.370 . S
C809 C813 1.408 . S
C810 C808 1.363 . S
C810 C811 1.370 . S
C810 C814 1.524 . S
C811 C803 1.503 . S
C811 C810 1.370 . S
C811 C812 1.403 . S
C812 C811 1.403 . S
C812 C813 1.404 . S
C812 C815 1.539 . S
C813 C809 1.408 . S
C813 C812 1.404 . S
C813 H825 0.930 . S
C814 C810 1.524 . S
C814 H826 0.956 . S
C814 H827 0.961 . S
C814 H828 0.961 . S
C815 C812 1.539 . S
C815 H829 0.958 . S
C815 H830 0.961 . S
C815 H831 0.960 . S
H816 C800 0.931 . S
H817 C805 0.929 . S
H818 C806 0.960 . S
H819 C806 0.962 . S
H820 C806 0.960 . S
H821 C807 0.961 . S
H822 C807 0.961 . S
H823 C807 0.961 . S
H824 C808 0.931 . S
H825 C813 0.930 . S
H826 C814 0.956 . S
H827 C814 0.961 . S
H828 C814 0.961 . S
H829 C815 0.958 . S
H830 C815 0.961 . S
H831 C815 0.960 . S
C832 C833 1.391 . S
C832 C834 1.394 . S
C832 H848 0.931 . S
C833 C832 1.391 . S
C833 C837 1.376 . S
C834 C832 1.394 . S
C834 C835 1.369 . S
C834 C838 1.531 . S
C835 C834 1.369 . S
C835 C836 1.410 . S
C835 C843 1.503 . S
C836 C835 1.410 . S
C836 C837 1.392 . S
C836 C839 1.511 . S
C837 C833 1.376 . S
C837 C836 1.392 . S
C837 H849 0.929 . S
C838 C834 1.531 . S
C838 H850 0.960 . S
C838 H851 0.962 . S
C838 H852 0.960 1_554 S
C839 C836 1.511 . S
C839 H853 0.961 . S
C839 H854 0.961 . S
C839 H855 0.961 . S
C840 C841 1.370 . S
C840 C842 1.363 . S
C840 H856 0.931 . S
C841 C840 1.370 . S
C841 C845 1.408 . S
C842 C840 1.363 . S
C842 C843 1.370 . S
C842 C846 1.524 . S
C843 C835 1.503 . S
C843 C842 1.370 . S
C843 C844 1.403 . S
C844 C843 1.403 . S
C844 C845 1.404 . S
C844 C847 1.539 . S
C845 C841 1.408 . S
C845 C844 1.404 . S
C845 H857 0.930 . S
C846 C842 1.524 . S
C846 H858 0.956 . S
C846 H859 0.961 . S
C846 H860 0.961 . S
C847 C844 1.539 . S
C847 H861 0.958 . S
C847 H862 0.961 . S
C847 H863 0.960 . S
H848 C832 0.931 . S
H849 C837 0.929 . S
H850 C838 0.960 . S
H851 C838 0.962 . S
H852 C838 0.960 1_556 S
H853 C839 0.961 . S
H854 C839 0.961 . S
H855 C839 0.961 . S
H856 C840 0.931 . S
H857 C845 0.930 . S
H858 C846 0.956 . S
H859 C846 0.961 . S
H860 C846 0.961 . S
H861 C847 0.958 . S
H862 C847 0.961 . S
H863 C847 0.960 . S
C864 C865 1.391 . S
C864 C866 1.394 . S
C864 H880 0.931 . S
C865 C864 1.391 . S
C865 C869 1.376 . S
C866 C864 1.394 . S
C866 C867 1.369 . S
C866 C870 1.531 . S
C867 C866 1.369 . S
C867 C868 1.410 . S
C867 C875 1.503 . S
C868 C867 1.410 . S
C868 C869 1.392 . S
C868 C871 1.511 . S
C869 C865 1.376 . S
C869 C868 1.392 . S
C869 H881 0.929 . S
C870 C866 1.531 . S
C870 H882 0.960 . S
C870 H883 0.962 . S
C870 H884 0.960 . S
C871 C868 1.511 . S
C871 H885 0.961 . S
C871 H886 0.961 . S
C871 H887 0.961 . S
C872 C873 1.370 . S
C872 C874 1.363 . S
C872 H888 0.931 . S
C873 C872 1.370 . S
C873 C877 1.408 . S
C874 C872 1.363 . S
C874 C875 1.370 . S
C874 C878 1.524 . S
C875 C867 1.503 . S
C875 C874 1.370 . S
C875 C876 1.403 . S
C876 C875 1.403 . S
C876 C877 1.404 . S
C876 C879 1.539 . S
C877 C873 1.408 . S
C877 C876 1.404 . S
C877 H889 0.930 . S
C878 C874 1.524 . S
C878 H890 0.956 . S
C878 H891 0.961 . S
C878 H892 0.961 . S
C879 C876 1.539 . S
C879 H893 0.958 . S
C879 H894 0.961 . S
C879 H895 0.960 . S
H880 C864 0.931 . S
H881 C869 0.929 . S
H882 C870 0.960 . S
H883 C870 0.962 . S
H884 C870 0.960 . S
H885 C871 0.961 . S
H886 C871 0.961 . S
H887 C871 0.961 . S
H888 C872 0.931 . S
H889 C877 0.930 . S
H890 C878 0.956 . S
H891 C878 0.961 . S
H892 C878 0.961 . S
H893 C879 0.958 . S
H894 C879 0.961 . S
H895 C879 0.960 . S
C896 C897 1.391 . S
C896 C898 1.394 . S
C896 H912 0.931 . S
C897 C896 1.391 . S
C897 C901 1.376 . S
C898 C896 1.394 . S
C898 C899 1.369 . S
C898 C902 1.531 . S
C899 C898 1.369 . S
C899 C900 1.410 . S
C899 C907 1.503 . S
C900 C899 1.410 . S
C900 C901 1.392 . S
C900 C903 1.511 . S
C901 C897 1.376 . S
C901 C900 1.392 . S
C901 H913 0.929 . S
C902 C898 1.531 . S
C902 H914 0.960 . S
C902 H915 0.962 . S
C902 H916 0.960 . S
C903 C900 1.511 . S
C903 H917 0.961 . S
C903 H918 0.961 . S
C903 H919 0.961 . S
C904 C905 1.370 . S
C904 C906 1.363 . S
C904 H920 0.931 . S
C905 C904 1.370 . S
C905 C909 1.408 . S
C906 C904 1.363 . S
C906 C907 1.370 . S
C906 C910 1.524 . S
C907 C899 1.503 . S
C907 C906 1.370 . S
C907 C908 1.403 . S
C908 C907 1.403 . S
C908 C909 1.404 . S
C908 C911 1.539 . S
C909 C905 1.408 . S
C909 C908 1.404 . S
C909 H921 0.930 . S
C910 C906 1.524 . S
C910 H922 0.956 . S
C910 H923 0.961 . S
C910 H924 0.961 . S
C911 C908 1.539 . S
C911 H925 0.958 . S
C911 H926 0.961 . S
C911 H927 0.960 . S
H912 C896 0.931 . S
H913 C901 0.929 . S
H914 C902 0.960 . S
H915 C902 0.962 . S
H916 C902 0.960 . S
H917 C903 0.961 . S
H918 C903 0.961 . S
H919 C903 0.961 . S
H920 C904 0.931 . S
H921 C909 0.930 . S
H922 C910 0.956 . S
H923 C910 0.961 . S
H924 C910 0.961 . S
H925 C911 0.958 . S
H926 C911 0.961 . S
H927 C911 0.960 . S
C928 C929 1.391 . S
C928 C930 1.394 . S
C928 H944 0.931 . S
C929 C928 1.391 . S
C929 C933 1.376 . S
C930 C928 1.394 . S
C930 C931 1.369 . S
C930 C934 1.531 . S
C931 C930 1.369 . S
C931 C932 1.410 . S
C931 C939 1.503 1_655 S
C932 C931 1.410 . S
C932 C933 1.392 . S
C932 C935 1.511 . S
C933 C929 1.376 . S
C933 C932 1.392 . S
C933 H945 0.929 . S
C934 C930 1.531 . S
C934 H946 0.960 1_655 S
C934 H947 0.962 . S
C934 H948 0.960 . S
C935 C932 1.511 . S
C935 H949 0.961 . S
C935 H950 0.961 1_655 S
C935 H951 0.961 . S
C936 C937 1.370 . S
C936 C938 1.363 . S
C936 H952 0.931 . S
C937 C936 1.370 . S
C937 C941 1.408 . S
C938 C936 1.363 . S
C938 C939 1.370 . S
C938 C942 1.524 1_556 S
C939 C931 1.503 1_455 S
C939 C938 1.370 . S
C939 C940 1.403 . S
C940 C939 1.403 . S
C940 C941 1.404 . S
C940 C943 1.539 . S
C941 C937 1.408 . S
C941 C940 1.404 . S
C941 H953 0.930 . S
C942 C938 1.524 1_554 S
C942 H954 0.984 1_554 S
C942 H955 0.961 1_455 S
C942 H956 0.961 . S
C943 C940 1.539 . S
C943 H957 0.958 . S
C943 H958 0.961 . S
C943 H959 0.970 . S
H944 C928 0.931 . S
H945 C933 0.929 . S
H946 C934 0.960 1_455 S
H947 C934 0.962 . S
H948 C934 0.960 . S
H949 C935 0.961 . S
H950 C935 0.961 1_455 S
H951 C935 0.961 . S
H952 C936 0.931 . S
H953 C941 0.930 . S
H954 C942 0.984 1_556 S
H955 C942 0.961 1_655 S
H956 C942 0.961 . S
H957 C943 0.958 . S
H958 C943 0.961 . S
H959 C943 0.970 . S
C960 C961 1.391 . S
C960 C962 1.394 . S
C960 H976 0.931 . S
C961 C960 1.391 . S
C961 C965 1.376 . S
C962 C960 1.394 . S
C962 C963 1.369 . S
C962 C966 1.531 . S
C963 C962 1.369 . S
C963 C964 1.410 . S
C963 C971 1.503 . S
C964 C963 1.410 . S
C964 C965 1.392 . S
C964 C967 1.511 . S
C965 C961 1.376 . S
C965 C964 1.392 . S
C965 H977 0.929 . S
C966 C962 1.531 . S
C966 H978 0.960 . S
C966 H979 0.962 . S
C966 H980 0.960 . S
C967 C964 1.511 . S
C967 H981 0.961 . S
C967 H982 0.961 . S
C967 H983 0.961 . S
C968 C969 1.370 . S
C968 C970 1.363 . S
C968 H984 0.931 . S
C969 C968 1.370 . S
C969 C973 1.408 . S
C970 C968 1.363 . S
C970 C971 1.370 . S
C970 C974 1.524 . S
C971 C963 1.503 . S
C971 C970 1.370 . S
C971 C972 1.403 . S
C972 C971 1.403 . S
C972 C973 1.404 . S
C972 C975 1.539 . S
C973 C969 1.408 . S
C973 C972 1.404 . S
C973 H985 0.930 . S
C974 C970 1.524 . S
C974 H986 0.956 . S
C974 H987 0.961 . S
C974 H988 0.961 . S
C975 C972 1.539 . S
C975 H989 0.958 . S
C975 H990 0.961 . S
C975 H991 0.960 . S
H976 C960 0.931 . S
H977 C965 0.929 . S
H978 C966 0.960 . S
H979 C966 0.962 . S
H980 C966 0.960 . S
H981 C967 0.961 . S
H982 C967 0.961 . S
H983 C967 0.961 . S
H984 C968 0.931 . S
H985 C973 0.930 . S
H986 C974 0.956 . S
H987 C974 0.961 . S
H988 C974 0.961 . S
H989 C975 0.958 . S
H990 C975 0.961 . S
H991 C975 0.960 . S
C992 C993 1.391 . S
C992 C994 1.394 . S
C992 H1008 0.931 . S
C993 C992 1.391 . S
C993 C997 1.376 . S
C994 C992 1.394 . S
C994 C995 1.369 . S
C994 C998 1.531 . S
C995 C994 1.369 . S
C995 C996 1.410 . S
C995 C1003 1.503 1_455 S
C996 C995 1.410 . S
C996 C997 1.392 . S
C996 C999 1.511 . S
C997 C993 1.376 . S
C997 C996 1.392 . S
C997 H1009 0.929 . S
C998 C994 1.531 . S
C998 H1010 0.960 1_455 S
C998 H1011 0.962 . S
C998 H1012 0.960 . S
C999 C996 1.511 . S
C999 H1013 0.961 . S
C999 H1014 0.961 1_455 S
C999 H1015 0.961 . S
C1000 C1001 1.370 . S
C1000 C1002 1.363 . S
C1000 H1016 0.931 . S
C1001 C1000 1.370 . S
C1001 C1005 1.408 . S
C1002 C1000 1.363 . S
C1002 C1003 1.370 . S
C1002 C1006 1.524 1_554 S
C1003 C995 1.503 1_655 S
C1003 C1002 1.370 . S
C1003 C1004 1.403 . S
C1004 C1003 1.403 . S
C1004 C1005 1.404 . S
C1004 C1007 1.539 . S
C1005 C1001 1.408 . S
C1005 C1004 1.404 . S
C1005 H1017 0.930 . S
C1006 C1002 1.524 1_556 S
C1006 H1018 0.984 . S
C1006 H1019 0.961 1_655 S
C1006 H1020 0.961 . S
C1007 C1004 1.539 . S
C1007 H1021 0.958 . S
C1007 H1022 0.961 . S
C1007 H1023 0.970 . S
H1008 C992 0.931 . S
H1009 C997 0.929 . S
H1010 C998 0.960 1_655 S
H1011 C998 0.962 . S
H1012 C998 0.960 . S
H1013 C999 0.961 . S
H1014 C999 0.961 1_655 S
H1015 C999 0.961 . S
H1016 C1000 0.931 . S
H1017 C1005 0.930 . S
H1018 C1006 0.984 . S
H1019 C1006 0.961 1_455 S
H1020 C1006 0.961 . S
H1021 C1007 0.958 . S
H1022 C1007 0.961 . S
H1023 C1007 0.970 . S
C1024 C1025 1.391 . S
C1024 C1026 1.394 . S
C1024 H1040 0.931 . S
C1025 C1024 1.391 . S
C1025 C1029 1.376 . S
C1026 C1024 1.394 . S
C1026 C1027 1.369 . S
C1026 C1030 1.531 . S
C1027 C1026 1.369 . S
C1027 C1028 1.410 . S
C1027 C1035 1.503 . S
C1028 C1027 1.410 . S
C1028 C1029 1.392 . S
C1028 C1031 1.511 . S
C1029 C1025 1.376 . S
C1029 C1028 1.392 . S
C1029 H1041 0.929 . S
C1030 C1026 1.531 . S
C1030 H1042 0.960 . S
C1030 H1043 0.962 . S
C1030 H1044 0.960 . S
C1031 C1028 1.511 . S
C1031 H1045 0.961 . S
C1031 H1046 0.961 . S
C1031 H1047 0.961 . S
C1032 C1033 1.370 . S
C1032 C1034 1.363 . S
C1032 H1048 0.931 . S
C1033 C1032 1.370 . S
C1033 C1037 1.408 . S
C1034 C1032 1.363 . S
C1034 C1035 1.370 . S
C1034 C1038 1.524 . S
C1035 C1027 1.503 . S
C1035 C1034 1.370 . S
C1035 C1036 1.403 . S
C1036 C1035 1.403 . S
C1036 C1037 1.404 . S
C1036 C1039 1.539 . S
C1037 C1033 1.408 . S
C1037 C1036 1.404 . S
C1037 H1049 0.930 . S
C1038 C1034 1.524 . S
C1038 H1050 0.956 . S
C1038 H1051 0.961 . S
C1038 H1052 0.961 . S
C1039 C1036 1.539 . S
C1039 H1053 0.958 . S
C1039 H1054 0.961 . S
C1039 H1055 0.960 . S
H1040 C1024 0.931 . S
H1041 C1029 0.929 . S
H1042 C1030 0.960 . S
H1043 C1030 0.962 . S
H1044 C1030 0.960 . S
H1045 C1031 0.961 . S
H1046 C1031 0.961 . S
H1047 C1031 0.961 . S
H1048 C1032 0.931 . S
H1049 C1037 0.930 . S
H1050 C1038 0.956 . S
H1051 C1038 0.961 . S
H1052 C1038 0.961 . S
H1053 C1039 0.958 . S
H1054 C1039 0.961 . S
H1055 C1039 0.960 . S
C1056 C1057 1.391 . S
C1056 C1058 1.394 . S
C1056 H1072 0.931 . S
C1057 C1056 1.391 . S
C1057 C1061 1.376 . S
C1058 C1056 1.394 . S
C1058 C1059 1.369 . S
C1058 C1062 1.531 . S
C1059 C1058 1.369 . S
C1059 C1060 1.410 . S
C1059 C1067 1.503 . S
C1060 C1059 1.410 . S
C1060 C1061 1.392 . S
C1060 C1063 1.511 . S
C1061 C1057 1.376 . S
C1061 C1060 1.392 . S
C1061 H1073 0.929 . S
C1062 C1058 1.531 . S
C1062 H1074 0.960 . S
C1062 H1075 0.962 . S
C1062 H1076 0.960 . S
C1063 C1060 1.511 . S
C1063 H1077 0.961 . S
C1063 H1078 0.961 . S
C1063 H1079 0.961 . S
C1064 C1065 1.370 . S
C1064 C1066 1.363 . S
C1064 H1080 0.931 . S
C1065 C1064 1.370 . S
C1065 C1069 1.408 . S
C1066 C1064 1.363 . S
C1066 C1067 1.370 . S
C1066 C1070 1.524 . S
C1067 C1059 1.503 . S
C1067 C1066 1.370 . S
C1067 C1068 1.403 . S
C1068 C1067 1.403 . S
C1068 C1069 1.404 . S
C1068 C1071 1.539 . S
C1069 C1065 1.408 . S
C1069 C1068 1.404 . S
C1069 H1081 0.930 . S
C1070 C1066 1.524 . S
C1070 H1082 0.956 . S
C1070 H1083 0.961 . S
C1070 H1084 0.961 . S
C1071 C1068 1.539 . S
C1071 H1085 0.958 . S
C1071 H1086 0.961 . S
C1071 H1087 0.960 . S
H1072 C1056 0.931 . S
H1073 C1061 0.929 . S
H1074 C1062 0.960 . S
H1075 C1062 0.962 . S
H1076 C1062 0.960 . S
H1077 C1063 0.961 . S
H1078 C1063 0.961 . S
H1079 C1063 0.961 . S
H1080 C1064 0.931 . S
H1081 C1069 0.930 . S
H1082 C1070 0.956 . S
H1083 C1070 0.961 . S
H1084 C1070 0.961 . S
H1085 C1071 0.958 . S
H1086 C1071 0.961 . S
H1087 C1071 0.960 . S
C1088 C1089 1.391 . S
C1088 C1090 1.394 . S
C1088 H1104 0.931 . S
C1089 C1088 1.391 . S
C1089 C1093 1.376 . S
C1090 C1088 1.394 . S
C1090 C1091 1.369 . S
C1090 C1094 1.531 . S
C1091 C1090 1.369 . S
C1091 C1092 1.410 . S
C1091 C1099 1.503 . S
C1092 C1091 1.410 . S
C1092 C1093 1.392 . S
C1092 C1095 1.511 . S
C1093 C1089 1.376 . S
C1093 C1092 1.392 . S
C1093 H1105 0.929 . S
C1094 C1090 1.531 . S
C1094 H1106 0.960 . S
C1094 H1107 0.962 . S
C1094 H1108 0.960 . S
C1095 C1092 1.511 . S
C1095 H1109 0.961 . S
C1095 H1110 0.961 . S
C1095 H1111 0.961 . S
C1096 C1097 1.370 . S
C1096 C1098 1.363 . S
C1096 H1112 0.931 . S
C1097 C1096 1.370 . S
C1097 C1101 1.408 . S
C1098 C1096 1.363 . S
C1098 C1099 1.370 . S
C1098 C1102 1.524 . S
C1099 C1091 1.503 . S
C1099 C1098 1.370 . S
C1099 C1100 1.403 . S
C1100 C1099 1.403 . S
C1100 C1101 1.404 . S
C1100 C1103 1.539 . S
C1101 C1097 1.408 . S
C1101 C1100 1.404 . S
C1101 H1113 0.930 . S
C1102 C1098 1.524 . S
C1102 H1114 0.956 . S
C1102 H1115 0.961 . S
C1102 H1116 0.961 . S
C1103 C1100 1.539 . S
C1103 H1117 0.958 . S
C1103 H1118 0.961 . S
C1103 H1119 0.960 . S
H1104 C1088 0.931 . S
H1105 C1093 0.929 . S
H1106 C1094 0.960 . S
H1107 C1094 0.962 . S
H1108 C1094 0.960 . S
H1109 C1095 0.961 . S
H1110 C1095 0.961 . S
H1111 C1095 0.961 . S
H1112 C1096 0.931 . S
H1113 C1101 0.930 . S
H1114 C1102 0.956 . S
H1115 C1102 0.961 . S
H1116 C1102 0.961 . S
H1117 C1103 0.958 . S
H1118 C1103 0.961 . S
H1119 C1103 0.960 . S
C1120 C1121 1.391 . S
C1120 C1122 1.394 . S
C1120 H1136 0.931 . S
C1121 C1120 1.391 . S
C1121 C1125 1.376 . S
C1122 C1120 1.394 . S
C1122 C1123 1.369 . S
C1122 C1126 1.531 . S
C1123 C1122 1.369 . S
C1123 C1124 1.410 . S
C1123 C1131 1.503 . S
C1124 C1123 1.410 . S
C1124 C1125 1.392 . S
C1124 C1127 1.511 . S
C1125 C1121 1.376 . S
C1125 C1124 1.392 . S
C1125 H1137 0.929 . S
C1126 C1122 1.531 . S
C1126 H1138 0.960 . S
C1126 H1139 0.962 . S
C1126 H1140 0.960 . S
C1127 C1124 1.511 . S
C1127 H1141 0.961 . S
C1127 H1142 0.961 . S
C1127 H1143 0.961 . S
C1128 C1129 1.370 . S
C1128 C1130 1.363 . S
C1128 H1144 0.931 . S
C1129 C1128 1.370 . S
C1129 C1133 1.408 . S
C1130 C1128 1.363 . S
C1130 C1131 1.370 . S
C1130 C1134 1.524 . S
C1131 C1123 1.503 . S
C1131 C1130 1.370 . S
C1131 C1132 1.403 . S
C1132 C1131 1.403 . S
C1132 C1133 1.404 . S
C1132 C1135 1.539 . S
C1133 C1129 1.408 . S
C1133 C1132 1.404 . S
C1133 H1145 0.930 . S
C1134 C1130 1.524 . S
C1134 H1146 0.956 . S
C1134 H1147 0.961 . S
C1134 H1148 0.961 . S
C1135 C1132 1.539 . S
C1135 H1149 0.958 . S
C1135 H1150 0.961 . S
C1135 H1151 0.960 . S
H1136 C1120 0.931 . S
H1137 C1125 0.929 . S
H1138 C1126 0.960 . S
H1139 C1126 0.962 . S
H1140 C1126 0.960 . S
H1141 C1127 0.961 . S
H1142 C1127 0.961 . S
H1143 C1127 0.961 . S
H1144 C1128 0.931 . S
H1145 C1133 0.930 . S
H1146 C1134 0.956 . S
H1147 C1134 0.961 . S
H1148 C1134 0.961 . S
H1149 C1135 0.958 . S
H1150 C1135 0.961 . S
H1151 C1135 0.960 . S
C1152 C1153 1.391 . S
C1152 C1154 1.394 . S
C1152 H1168 0.931 . S
C1153 C1152 1.391 . S
C1153 C1157 1.376 . S
C1154 C1152 1.394 . S
C1154 C1155 1.369 . S
C1154 C1158 1.531 . S
C1155 C1154 1.369 . S
C1155 C1156 1.410 . S
C1155 C1163 1.503 . S
C1156 C1155 1.410 . S
C1156 C1157 1.392 . S
C1156 C1159 1.511 . S
C1157 C1153 1.376 . S
C1157 C1156 1.392 . S
C1157 H1169 0.929 . S
C1158 C1154 1.531 . S
C1158 H1170 0.960 . S
C1158 H1171 0.962 . S
C1158 H1172 0.960 1_554 S
C1159 C1156 1.511 . S
C1159 H1173 0.961 . S
C1159 H1174 0.961 . S
C1159 H1175 0.961 . S
C1160 C1161 1.370 . S
C1160 C1162 1.363 . S
C1160 H1176 0.931 . S
C1161 C1160 1.370 . S
C1161 C1165 1.408 . S
C1162 C1160 1.363 . S
C1162 C1163 1.370 . S
C1162 C1166 1.524 . S
C1163 C1155 1.503 . S
C1163 C1162 1.370 . S
C1163 C1164 1.403 . S
C1164 C1163 1.403 . S
C1164 C1165 1.404 . S
C1164 C1167 1.539 . S
C1165 C1161 1.408 . S
C1165 C1164 1.404 . S
C1165 H1177 0.930 . S
C1166 C1162 1.524 . S
C1166 H1178 0.956 . S
C1166 H1179 0.961 . S
C1166 H1180 0.961 . S
C1167 C1164 1.539 . S
C1167 H1181 0.958 . S
C1167 H1182 0.961 . S
C1167 H1183 0.960 . S
H1168 C1152 0.931 . S
H1169 C1157 0.929 . S
H1170 C1158 0.960 . S
H1171 C1158 0.962 . S
H1172 C1158 0.960 1_556 S
H1173 C1159 0.961 . S
H1174 C1159 0.961 . S
H1175 C1159 0.961 . S
H1176 C1160 0.931 . S
H1177 C1165 0.930 . S
H1178 C1166 0.956 . S
H1179 C1166 0.961 . S
H1180 C1166 0.961 . S
H1181 C1167 0.958 . S
H1182 C1167 0.961 . S
H1183 C1167 0.960 . S
C1184 C1185 1.391 . S
C1184 C1186 1.394 . S
C1184 H1200 0.931 . S
C1185 C1184 1.391 . S
C1185 C1189 1.376 . S
C1186 C1184 1.394 . S
C1186 C1187 1.369 . S
C1186 C1190 1.531 . S
C1187 C1186 1.369 . S
C1187 C1188 1.410 . S
C1187 C1195 1.503 . S
C1188 C1187 1.410 . S
C1188 C1189 1.392 . S
C1188 C1191 1.511 . S
C1189 C1185 1.376 . S
C1189 C1188 1.392 . S
C1189 H1201 0.929 . S
C1190 C1186 1.531 . S
C1190 H1202 0.960 . S
C1190 H1203 0.962 . S
C1190 H1204 0.960 . S
C1191 C1188 1.511 . S
C1191 H1205 0.961 . S
C1191 H1206 0.961 . S
C1191 H1207 0.961 . S
C1192 C1193 1.370 . S
C1192 C1194 1.363 . S
C1192 H1208 0.931 . S
C1193 C1192 1.370 . S
C1193 C1197 1.408 . S
C1194 C1192 1.363 . S
C1194 C1195 1.370 . S
C1194 C1198 1.524 . S
C1195 C1187 1.503 . S
C1195 C1194 1.370 . S
C1195 C1196 1.403 . S
C1196 C1195 1.403 . S
C1196 C1197 1.404 . S
C1196 C1199 1.539 . S
C1197 C1193 1.408 . S
C1197 C1196 1.404 . S
C1197 H1209 0.930 . S
C1198 C1194 1.524 . S
C1198 H1210 0.956 . S
C1198 H1211 0.961 . S
C1198 H1212 0.961 . S
C1199 C1196 1.539 . S
C1199 H1213 0.958 . S
C1199 H1214 0.961 . S
C1199 H1215 0.960 . S
H1200 C1184 0.931 . S
H1201 C1189 0.929 . S
H1202 C1190 0.960 . S
H1203 C1190 0.962 . S
H1204 C1190 0.960 . S
H1205 C1191 0.961 . S
H1206 C1191 0.961 . S
H1207 C1191 0.961 . S
H1208 C1192 0.931 . S
H1209 C1197 0.930 . S
H1210 C1198 0.956 . S
H1211 C1198 0.961 . S
H1212 C1198 0.961 . S
H1213 C1199 0.958 . S
H1214 C1199 0.961 . S
H1215 C1199 0.960 . S
C1216 C1217 1.383 1_554 S
C1216 C1218 1.394 1_554 S
C1216 H1232 0.938 . S
C1217 C1216 1.383 1_556 S
C1217 C1221 1.376 . S
C1218 C1216 1.394 1_556 S
C1218 C1219 1.370 . S
C1218 C1222 1.529 1_556 S
C1219 C1218 1.370 . S
C1219 C1220 1.410 . S
C1219 C1227 1.503 1_655 S
C1220 C1219 1.410 . S
C1220 C1221 1.392 . S
C1220 C1223 1.511 . S
C1221 C1217 1.376 . S
C1221 C1220 1.392 . S
C1221 H1233 0.929 . S
C1222 C1218 1.529 1_554 S
C1222 H1234 0.960 1_655 S
C1222 H1235 0.962 . S
C1222 H1236 0.960 . S
C1223 C1220 1.511 . S
C1223 H1237 0.961 . S
C1223 H1238 0.961 1_655 S
C1223 H1239 0.961 . S
C1224 C1225 1.370 . S
C1224 C1226 1.363 . S
C1224 H1240 0.931 . S
C1225 C1224 1.370 . S
C1225 C1229 1.408 . S
C1226 C1224 1.363 . S
C1226 C1227 1.370 . S
C1226 C1230 1.524 . S
C1227 C1219 1.503 1_455 S
C1227 C1226 1.370 . S
C1227 C1228 1.403 . S
C1228 C1227 1.403 . S
C1228 C1229 1.404 . S
C1228 C1231 1.539 . S
C1229 C1225 1.408 . S
C1229 C1228 1.404 . S
C1229 H1241 0.930 . S
C1230 C1226 1.524 . S
C1230 H1242 0.984 . S
C1230 H1243 0.961 1_455 S
C1230 H1244 0.961 . S
C1231 C1228 1.539 . S
C1231 H1245 0.958 . S
C1231 H1246 0.961 . S
C1231 H1247 0.970 . S
H1232 C1216 0.938 . S
H1233 C1221 0.929 . S
H1234 C1222 0.960 1_455 S
H1235 C1222 0.962 . S
H1236 C1222 0.960 . S
H1237 C1223 0.961 . S
H1238 C1223 0.961 1_455 S
H1239 C1223 0.961 . S
H1240 C1224 0.931 . S
H1241 C1229 0.930 . S
H1242 C1230 0.984 . S
H1243 C1230 0.961 1_655 S
H1244 C1230 0.961 . S
H1245 C1231 0.958 . S
H1246 C1231 0.961 . S
H1247 C1231 0.970 . S
C1248 C1249 1.391 . S
C1248 C1250 1.394 . S
C1248 H1264 0.931 . S
C1249 C1248 1.391 . S
C1249 C1253 1.376 . S
C1250 C1248 1.394 . S
C1250 C1251 1.369 . S
C1250 C1254 1.531 . S
C1251 C1250 1.369 . S
C1251 C1252 1.410 . S
C1251 C1259 1.503 . S
C1252 C1251 1.410 . S
C1252 C1253 1.392 . S
C1252 C1255 1.511 . S
C1253 C1249 1.376 . S
C1253 C1252 1.392 . S
C1253 H1265 0.929 . S
C1254 C1250 1.531 . S
C1254 H1266 0.960 . S
C1254 H1267 0.962 . S
C1254 H1268 0.960 . S
C1255 C1252 1.511 . S
C1255 H1269 0.961 . S
C1255 H1270 0.961 . S
C1255 H1271 0.961 . S
C1256 C1257 1.370 . S
C1256 C1258 1.363 . S
C1256 H1272 0.931 . S
C1257 C1256 1.370 . S
C1257 C1261 1.408 . S
C1258 C1256 1.363 . S
C1258 C1259 1.370 . S
C1258 C1262 1.524 . S
C1259 C1251 1.503 . S
C1259 C1258 1.370 . S
C1259 C1260 1.403 . S
C1260 C1259 1.403 . S
C1260 C1261 1.404 . S
C1260 C1263 1.539 . S
C1261 C1257 1.408 . S
C1261 C1260 1.404 . S
C1261 H1273 0.930 . S
C1262 C1258 1.524 . S
C1262 H1274 0.956 . S
C1262 H1275 0.961 . S
C1262 H1276 0.961 . S
C1263 C1260 1.539 . S
C1263 H1277 0.958 . S
C1263 H1278 0.961 . S
C1263 H1279 0.960 . S
H1264 C1248 0.931 . S
H1265 C1253 0.929 . S
H1266 C1254 0.960 . S
H1267 C1254 0.962 . S
H1268 C1254 0.960 . S
H1269 C1255 0.961 . S
H1270 C1255 0.961 . S
H1271 C1255 0.961 . S
H1272 C1256 0.931 . S
H1273 C1261 0.930 . S
H1274 C1262 0.956 . S
H1275 C1262 0.961 . S
H1276 C1262 0.961 . S
H1277 C1263 0.958 . S
H1278 C1263 0.961 . S
H1279 C1263 0.960 . S
C1280 C1281 1.391 . S
C1280 C1282 1.394 . S
C1280 H1296 0.931 . S
C1281 C1280 1.391 . S
C1281 C1285 1.376 . S
C1282 C1280 1.394 . S
C1282 C1283 1.369 . S
C1282 C1286 1.531 . S
C1283 C1282 1.369 . S
C1283 C1284 1.410 . S
C1283 C1291 1.503 . S
C1284 C1283 1.410 . S
C1284 C1285 1.392 . S
C1284 C1287 1.511 . S
C1285 C1281 1.376 . S
C1285 C1284 1.392 . S
C1285 H1297 0.929 . S
C1286 C1282 1.531 . S
C1286 H1298 0.960 . S
C1286 H1299 0.962 . S
C1286 H1300 0.960 . S
C1287 C1284 1.511 . S
C1287 H1301 0.961 . S
C1287 H1302 0.961 . S
C1287 H1303 0.961 . S
C1288 C1289 1.370 . S
C1288 C1290 1.363 . S
C1288 H1304 0.931 . S
C1289 C1288 1.370 . S
C1289 C1293 1.408 . S
C1290 C1288 1.363 . S
C1290 C1291 1.370 . S
C1290 C1294 1.524 . S
C1291 C1283 1.503 . S
C1291 C1290 1.370 . S
C1291 C1292 1.403 . S
C1292 C1291 1.403 . S
C1292 C1293 1.404 . S
C1292 C1295 1.539 . S
C1293 C1289 1.408 . S
C1293 C1292 1.404 . S
C1293 H1305 0.930 . S
C1294 C1290 1.524 . S
C1294 H1306 0.956 . S
C1294 H1307 0.961 . S
C1294 H1308 0.961 . S
C1295 C1292 1.539 . S
C1295 H1309 0.958 . S
C1295 H1310 0.961 . S
C1295 H1311 0.960 . S
H1296 C1280 0.931 . S
H1297 C1285 0.929 . S
H1298 C1286 0.960 . S
H1299 C1286 0.962 . S
H1300 C1286 0.960 . S
H1301 C1287 0.961 . S
H1302 C1287 0.961 . S
H1303 C1287 0.961 . S
H1304 C1288 0.931 . S
H1305 C1293 0.930 . S
H1306 C1294 0.956 . S
H1307 C1294 0.961 . S
H1308 C1294 0.961 . S
H1309 C1295 0.958 . S
H1310 C1295 0.961 . S
H1311 C1295 0.960 . S
C1312 C1313 1.391 . S
C1312 C1314 1.394 . S
C1312 H1328 0.931 . S
C1313 C1312 1.391 . S
C1313 C1317 1.376 . S
C1314 C1312 1.394 . S
C1314 C1315 1.369 . S
C1314 C1318 1.531 . S
C1315 C1314 1.369 . S
C1315 C1316 1.410 . S
C1315 C1323 1.503 1_455 S
C1316 C1315 1.410 . S
C1316 C1317 1.392 . S
C1316 C1319 1.511 . S
C1317 C1313 1.376 . S
C1317 C1316 1.392 . S
C1317 H1329 0.929 . S
C1318 C1314 1.531 . S
C1318 H1330 0.960 1_455 S
C1318 H1331 0.962 1_554 S
C1318 H1332 0.960 . S
C1319 C1316 1.511 . S
C1319 H1333 0.961 . S
C1319 H1334 0.961 1_455 S
C1319 H1335 0.961 . S
C1320 C1321 1.370 . S
C1320 C1322 1.363 . S
C1320 H1336 0.931 1_554 S
C1321 C1320 1.370 . S
C1321 C1325 1.408 . S
C1322 C1320 1.363 . S
C1322 C1323 1.370 . S
C1322 C1326 1.524 1_554 S
C1323 C1315 1.503 1_655 S
C1323 C1322 1.370 . S
C1323 C1324 1.403 . S
C1324 C1323 1.403 . S
C1324 C1325 1.404 . S
C1324 C1327 1.539 . S
C1325 C1321 1.408 . S
C1325 C1324 1.404 . S
C1325 H1337 0.930 . S
C1326 C1322 1.524 1_556 S
C1326 H1338 0.984 . S
C1326 H1339 0.961 1_655 S
C1326 H1340 0.961 . S
C1327 C1324 1.539 . S
C1327 H1341 0.958 . S
C1327 H1342 0.961 . S
C1327 H1343 0.970 . S
H1328 C1312 0.931 . S
H1329 C1317 0.929 . S
H1330 C1318 0.960 1_655 S
H1331 C1318 0.962 1_556 S
H1332 C1318 0.960 . S
H1333 C1319 0.961 . S
H1334 C1319 0.961 1_655 S
H1335 C1319 0.961 . S
H1336 C1320 0.931 1_556 S
H1337 C1325 0.930 . S
H1338 C1326 0.984 . S
H1339 C1326 0.961 1_455 S
H1340 C1326 0.961 . S
H1341 C1327 0.958 . S
H1342 C1327 0.961 . S
H1343 C1327 0.970 . S
C1344 C1345 1.391 . S
C1344 C1346 1.394 1_554 S
C1344 H1360 0.931 . S
C1345 C1344 1.391 . S
C1345 C1349 1.376 . S
C1346 C1344 1.394 1_556 S
C1346 C1347 1.369 1_556 S
C1346 C1350 1.531 . S
C1347 C1346 1.369 1_554 S
C1347 C1348 1.410 . S
C1347 C1355 1.503 1_554 S
C1348 C1347 1.410 . S
C1348 C1349 1.392 . S
C1348 C1351 1.511 . S
C1349 C1345 1.376 . S
C1349 C1348 1.392 . S
C1349 H1361 0.929 . S
C1350 C1346 1.531 . S
C1350 H1362 0.960 . S
C1350 H1363 0.962 . S
C1350 H1364 0.960 . S
C1351 C1348 1.511 . S
C1351 H1365 0.961 . S
C1351 H1366 0.961 . S
C1351 H1367 0.961 . S
C1352 C1353 1.370 . S
C1352 C1354 1.363 1_556 S
C1352 H1368 0.931 1_556 S
C1353 C1352 1.370 . S
C1353 C1357 1.408 . S
C1354 C1352 1.363 1_554 S
C1354 C1355 1.370 1_554 S
C1354 C1358 1.524 . S
C1355 C1347 1.503 1_556 S
C1355 C1354 1.370 1_556 S
C1355 C1356 1.403 . S
C1356 C1355 1.403 . S
C1356 C1357 1.404 . S
C1356 C1359 1.539 . S
C1357 C1353 1.408 . S
C1357 C1356 1.404 . S
C1357 H1369 0.930 . S
C1358 C1354 1.524 . S
C1358 H1370 0.956 . S
C1358 H1371 0.961 . S
C1358 H1372 0.961 . S
C1359 C1356 1.539 . S
C1359 H1373 0.958 . S
C1359 H1374 0.961 . S
C1359 H1375 0.960 . S
H1360 C1344 0.931 . S
H1361 C1349 0.929 . S
H1362 C1350 0.960 . S
H1363 C1350 0.962 . S
H1364 C1350 0.960 . S
H1365 C1351 0.961 . S
H1366 C1351 0.961 . S
H1367 C1351 0.961 . S
H1368 C1352 0.931 1_554 S
H1369 C1357 0.930 . S
H1370 C1358 0.956 . S
H1371 C1358 0.961 . S
H1372 C1358 0.961 . S
H1373 C1359 0.958 . S
H1374 C1359 0.961 . S
H1375 C1359 0.960 . S
C1376 C1377 1.391 . S
C1376 C1378 1.394 . S
C1376 H1392 0.931 . S
C1377 C1376 1.391 . S
C1377 C1381 1.376 . S
C1378 C1376 1.394 . S
C1378 C1379 1.369 . S
C1378 C1382 1.531 . S
C1379 C1378 1.369 . S
C1379 C1380 1.410 . S
C1379 C1387 1.503 . S
C1380 C1379 1.410 . S
C1380 C1381 1.392 . S
C1380 C1383 1.511 . S
C1381 C1377 1.376 . S
C1381 C1380 1.392 . S
C1381 H1393 0.929 . S
C1382 C1378 1.531 . S
C1382 H1394 0.960 . S
C1382 H1395 0.962 . S
C1382 H1396 0.960 . S
C1383 C1380 1.511 . S
C1383 H1397 0.961 . S
C1383 H1398 0.961 . S
C1383 H1399 0.961 . S
C1384 C1385 1.370 . S
C1384 C1386 1.363 . S
C1384 H1400 0.931 . S
C1385 C1384 1.370 . S
C1385 C1389 1.408 . S
C1386 C1384 1.363 . S
C1386 C1387 1.370 . S
C1386 C1390 1.524 . S
C1387 C1379 1.503 . S
C1387 C1386 1.370 . S
C1387 C1388 1.403 . S
C1388 C1387 1.403 . S
C1388 C1389 1.404 . S
C1388 C1391 1.539 . S
C1389 C1385 1.408 . S
C1389 C1388 1.404 . S
C1389 H1401 0.930 . S
C1390 C1386 1.524 . S
C1390 H1402 0.956 . S
C1390 H1403 0.961 . S
C1390 H1404 0.961 . S
C1391 C1388 1.539 . S
C1391 H1405 0.958 . S
C1391 H1406 0.961 . S
C1391 H1407 0.960 . S
H1392 C1376 0.931 . S
H1393 C1381 0.929 . S
H1394 C1382 0.960 . S
H1395 C1382 0.962 . S
H1396 C1382 0.960 . S
H1397 C1383 0.961 . S
H1398 C1383 0.961 . S
H1399 C1383 0.961 . S
H1400 C1384 0.931 . S
H1401 C1389 0.930 . S
H1402 C1390 0.956 . S
H1403 C1390 0.961 . S
H1404 C1390 0.961 . S
H1405 C1391 0.958 . S
H1406 C1391 0.961 . S
H1407 C1391 0.960 . S
C1408 C1409 1.391 . S
C1408 C1410 1.394 . S
C1408 H1424 0.931 . S
C1409 C1408 1.391 . S
C1409 C1413 1.376 . S
C1410 C1408 1.394 . S
C1410 C1411 1.369 . S
C1410 C1414 1.531 . S
C1411 C1410 1.369 . S
C1411 C1412 1.410 . S
C1411 C1419 1.503 . S
C1412 C1411 1.410 . S
C1412 C1413 1.392 . S
C1412 C1415 1.511 . S
C1413 C1409 1.376 . S
C1413 C1412 1.392 . S
C1413 H1425 0.929 . S
C1414 C1410 1.531 . S
C1414 H1426 0.960 . S
C1414 H1427 0.962 . S
C1414 H1428 0.960 . S
C1415 C1412 1.511 . S
C1415 H1429 0.961 . S
C1415 H1430 0.961 . S
C1415 H1431 0.961 . S
C1416 C1417 1.370 . S
C1416 C1418 1.363 . S
C1416 H1432 0.931 . S
C1417 C1416 1.370 . S
C1417 C1421 1.408 . S
C1418 C1416 1.363 . S
C1418 C1419 1.370 . S
C1418 C1422 1.524 . S
C1419 C1411 1.503 . S
C1419 C1418 1.370 . S
C1419 C1420 1.403 . S
C1420 C1419 1.403 . S
C1420 C1421 1.404 . S
C1420 C1423 1.539 . S
C1421 C1417 1.408 . S
C1421 C1420 1.404 . S
C1421 H1433 0.930 . S
C1422 C1418 1.524 . S
C1422 H1434 0.956 . S
C1422 H1435 0.961 . S
C1422 H1436 0.961 . S
C1423 C1420 1.539 . S
C1423 H1437 0.958 . S
C1423 H1438 0.961 . S
C1423 H1439 0.960 . S
H1424 C1408 0.931 . S
H1425 C1413 0.929 . S
H1426 C1414 0.960 . S
H1427 C1414 0.962 . S
H1428 C1414 0.960 . S
H1429 C1415 0.961 . S
H1430 C1415 0.961 . S
H1431 C1415 0.961 . S
H1432 C1416 0.931 . S
H1433 C1421 0.930 . S
H1434 C1422 0.956 . S
H1435 C1422 0.961 . S
H1436 C1422 0.961 . S
H1437 C1423 0.958 . S
H1438 C1423 0.961 . S
H1439 C1423 0.960 . S
C1440 C1441 1.391 . S
C1440 C1442 1.394 . S
C1440 H1456 0.931 . S
C1441 C1440 1.391 . S
C1441 C1445 1.376 . S
C1442 C1440 1.394 . S
C1442 C1443 1.369 . S
C1442 C1446 1.531 . S
C1443 C1442 1.369 . S
C1443 C1444 1.410 . S
C1443 C1451 1.503 . S
C1444 C1443 1.410 . S
C1444 C1445 1.392 . S
C1444 C1447 1.511 . S
C1445 C1441 1.376 . S
C1445 C1444 1.392 . S
C1445 H1457 0.929 . S
C1446 C1442 1.531 . S
C1446 H1458 0.960 . S
C1446 H1459 0.962 . S
C1446 H1460 0.960 . S
C1447 C1444 1.511 . S
C1447 H1461 0.961 . S
C1447 H1462 0.961 . S
C1447 H1463 0.961 . S
C1448 C1449 1.370 . S
C1448 C1450 1.363 . S
C1448 H1464 0.931 . S
C1449 C1448 1.370 . S
C1449 C1453 1.408 . S
C1450 C1448 1.363 . S
C1450 C1451 1.370 . S
C1450 C1454 1.524 . S
C1451 C1443 1.503 . S
C1451 C1450 1.370 . S
C1451 C1452 1.403 . S
C1452 C1451 1.403 . S
C1452 C1453 1.404 . S
C1452 C1455 1.539 . S
C1453 C1449 1.408 . S
C1453 C1452 1.404 . S
C1453 H1465 0.930 . S
C1454 C1450 1.524 . S
C1454 H1466 0.956 . S
C1454 H1467 0.961 . S
C1454 H1468 0.961 . S
C1455 C1452 1.539 . S
C1455 H1469 0.958 . S
C1455 H1470 0.961 . S
C1455 H1471 0.960 . S
H1456 C1440 0.931 . S
H1457 C1445 0.929 . S
H1458 C1446 0.960 . S
H1459 C1446 0.962 . S
H1460 C1446 0.960 . S
H1461 C1447 0.961 . S
H1462 C1447 0.961 . S
H1463 C1447 0.961 . S
H1464 C1448 0.931 . S
H1465 C1453 0.930 . S
H1466 C1454 0.956 . S
H1467 C1454 0.961 . S
H1468 C1454 0.961 . S
H1469 C1455 0.958 . S
H1470 C1455 0.961 . S
H1471 C1455 0.960 . S
C1472 C1473 1.391 . S
C1472 C1474 1.394 1_554 S
C1472 H1488 0.931 1_554 S
C1473 C1472 1.391 . S
C1473 C1477 1.376 . S
C1474 C1472 1.394 1_556 S
C1474 C1475 1.369 1_556 S
C1474 C1478 1.531 . S
C1475 C1474 1.369 1_554 S
C1475 C1476 1.410 . S
C1475 C1483 1.503 1_554 S
C1476 C1475 1.410 . S
C1476 C1477 1.392 . S
C1476 C1479 1.511 . S
C1477 C1473 1.376 . S
C1477 C1476 1.392 . S
C1477 H1489 0.929 . S
C1478 C1474 1.531 . S
C1478 H1490 0.960 . S
C1478 H1491 0.962 . S
C1478 H1492 0.960 . S
C1479 C1476 1.511 . S
C1479 H1493 0.961 . S
C1479 H1494 0.961 . S
C1479 H1495 0.961 . S
C1480 C1481 1.370 . S
C1480 C1482 1.363 1_556 S
C1480 H1496 0.931 1_556 S
C1481 C1480 1.370 . S
C1481 C1485 1.408 . S
C1482 C1480 1.363 1_554 S
C1482 C1483 1.370 1_554 S
C1482 C1486 1.524 . S
C1483 C1475 1.503 1_556 S
C1483 C1482 1.370 1_556 S
C1483 C1484 1.403 . S
C1484 C1483 1.403 . S
C1484 C1485 1.404 . S
C1484 C1487 1.539 . S
C1485 C1481 1.408 . S
C1485 C1484 1.404 . S
C1485 H1497 0.930 . S
C1486 C1482 1.524 . S
C1486 H1498 0.956 . S
C1486 H1499 0.961 . S
C1486 H1500 0.961 . S
C1487 C1484 1.539 . S
C1487 H1501 0.958 . S
C1487 H1502 0.961 . S
C1487 H1503 0.960 . S
H1488 C1472 0.931 1_556 S
H1489 C1477 0.929 . S
H1490 C1478 0.960 . S
H1491 C1478 0.962 . S
H1492 C1478 0.960 . S
H1493 C1479 0.961 . S
H1494 C1479 0.961 . S
H1495 C1479 0.961 . S
H1496 C1480 0.931 1_554 S
H1497 C1485 0.930 . S
H1498 C1486 0.956 . S
H1499 C1486 0.961 . S
H1500 C1486 0.961 . S
H1501 C1487 0.958 . S
H1502 C1487 0.961 . S
H1503 C1487 0.960 . S
C1504 C1505 1.391 . S
C1504 C1506 1.394 . S
C1504 H1520 0.931 . S
C1505 C1504 1.391 . S
C1505 C1509 1.376 . S
C1506 C1504 1.394 . S
C1506 C1507 1.369 . S
C1506 C1510 1.531 . S
C1507 C1506 1.369 . S
C1507 C1508 1.410 . S
C1507 C1515 1.503 . S
C1508 C1507 1.410 . S
C1508 C1509 1.392 . S
C1508 C1511 1.511 . S
C1509 C1505 1.376 . S
C1509 C1508 1.392 . S
C1509 H1521 0.929 . S
C1510 C1506 1.531 . S
C1510 H1522 0.960 . S
C1510 H1523 0.962 . S
C1510 H1524 0.960 . S
C1511 C1508 1.511 . S
C1511 H1525 0.961 . S
C1511 H1526 0.961 . S
C1511 H1527 0.961 . S
C1512 C1513 1.370 . S
C1512 C1514 1.363 . S
C1512 H1528 0.931 . S
C1513 C1512 1.370 . S
C1513 C1517 1.408 . S
C1514 C1512 1.363 . S
C1514 C1515 1.370 . S
C1514 C1518 1.524 . S
C1515 C1507 1.503 . S
C1515 C1514 1.370 . S
C1515 C1516 1.403 . S
C1516 C1515 1.403 . S
C1516 C1517 1.404 . S
C1516 C1519 1.539 . S
C1517 C1513 1.408 . S
C1517 C1516 1.404 . S
C1517 H1529 0.930 . S
C1518 C1514 1.524 . S
C1518 H1530 0.956 . S
C1518 H1531 0.961 . S
C1518 H1532 0.961 . S
C1519 C1516 1.539 . S
C1519 H1533 0.958 . S
C1519 H1534 0.961 . S
C1519 H1535 0.960 . S
H1520 C1504 0.931 . S
H1521 C1509 0.929 . S
H1522 C1510 0.960 . S
H1523 C1510 0.962 . S
H1524 C1510 0.960 . S
H1525 C1511 0.961 . S
H1526 C1511 0.961 . S
H1527 C1511 0.961 . S
H1528 C1512 0.931 . S
H1529 C1517 0.930 . S
H1530 C1518 0.956 . S
H1531 C1518 0.961 . S
H1532 C1518 0.961 . S
H1533 C1519 0.958 . S
H1534 C1519 0.961 . S
H1535 C1519 0.960 . S
C1536 C1537 1.391 . S
C1536 C1538 1.394 . S
C1536 H1552 0.931 . S
C1537 C1536 1.391 . S
C1537 C1541 1.376 . S
C1538 C1536 1.394 . S
C1538 C1539 1.369 . S
C1538 C1542 1.531 . S
C1539 C1538 1.369 . S
C1539 C1540 1.410 . S
C1539 C1547 1.503 . S
C1540 C1539 1.410 . S
C1540 C1541 1.392 . S
C1540 C1543 1.511 . S
C1541 C1537 1.376 . S
C1541 C1540 1.392 . S
C1541 H1553 0.929 . S
C1542 C1538 1.531 . S
C1542 H1554 0.960 . S
C1542 H1555 0.962 . S
C1542 H1556 0.960 . S
C1543 C1540 1.511 . S
C1543 H1557 0.961 . S
C1543 H1558 0.961 . S
C1543 H1559 0.961 . S
C1544 C1545 1.370 . S
C1544 C1546 1.363 . S
C1544 H1560 0.931 . S
C1545 C1544 1.370 . S
C1545 C1549 1.408 . S
C1546 C1544 1.363 . S
C1546 C1547 1.370 . S
C1546 C1550 1.524 . S
C1547 C1539 1.503 . S
C1547 C1546 1.370 . S
C1547 C1548 1.403 . S
C1548 C1547 1.403 . S
C1548 C1549 1.404 . S
C1548 C1551 1.539 . S
C1549 C1545 1.408 . S
C1549 C1548 1.404 . S
C1549 H1561 0.930 . S
C1550 C1546 1.524 . S
C1550 H1562 0.956 . S
C1550 H1563 0.961 . S
C1550 H1564 0.961 . S
C1551 C1548 1.539 . S
C1551 H1565 0.958 . S
C1551 H1566 0.961 . S
C1551 H1567 0.960 . S
H1552 C1536 0.931 . S
H1553 C1541 0.929 . S
H1554 C1542 0.960 . S
H1555 C1542 0.962 . S
H1556 C1542 0.960 . S
H1557 C1543 0.961 . S
H1558 C1543 0.961 . S
H1559 C1543 0.961 . S
H1560 C1544 0.931 . S
H1561 C1549 0.930 . S
H1562 C1550 0.956 . S
H1563 C1550 0.961 . S
H1564 C1550 0.961 . S
H1565 C1551 0.958 . S
H1566 C1551 0.961 . S
H1567 C1551 0.960 . S
C1568 C1569 1.391 . S
C1568 C1570 1.394 . S
C1568 H1584 0.931 . S
C1569 C1568 1.391 . S
C1569 C1573 1.376 . S
C1570 C1568 1.394 . S
C1570 C1571 1.369 . S
C1570 C1574 1.531 . S
C1571 C1570 1.369 . S
C1571 C1572 1.410 . S
C1571 C1579 1.503 . S
C1572 C1571 1.410 . S
C1572 C1573 1.392 . S
C1572 C1575 1.511 . S
C1573 C1569 1.376 . S
C1573 C1572 1.392 . S
C1573 H1585 0.929 . S
C1574 C1570 1.531 . S
C1574 H1586 0.960 . S
C1574 H1587 0.962 . S
C1574 H1588 0.960 . S
C1575 C1572 1.511 . S
C1575 H1589 0.961 . S
C1575 H1590 0.961 . S
C1575 H1591 0.961 . S
C1576 C1577 1.370 . S
C1576 C1578 1.363 . S
C1576 H1592 0.931 . S
C1577 C1576 1.370 . S
C1577 C1581 1.408 . S
C1578 C1576 1.363 . S
C1578 C1579 1.370 . S
C1578 C1582 1.524 . S
C1579 C1571 1.503 . S
C1579 C1578 1.370 . S
C1579 C1580 1.403 . S
C1580 C1579 1.403 . S
C1580 C1581 1.404 . S
C1580 C1583 1.539 . S
C1581 C1577 1.408 . S
C1581 C1580 1.404 . S
C1581 H1593 0.930 . S
C1582 C1578 1.524 . S
C1582 H1594 0.956 . S
C1582 H1595 0.961 . S
C1582 H1596 0.961 . S
C1583 C1580 1.539 . S
C1583 H1597 0.958 . S
C1583 H1598 0.961 . S
C1583 H1599 0.960 . S
H1584 C1568 0.931 . S
H1585 C1573 0.929 . S
H1586 C1574 0.960 . S
H1587 C1574 0.962 . S
H1588 C1574 0.960 . S
H1589 C1575 0.961 . S
H1590 C1575 0.961 . S
H1591 C1575 0.961 . S
H1592 C1576 0.931 . S
H1593 C1581 0.930 . S
H1594 C1582 0.956 . S
H1595 C1582 0.961 . S
H1596 C1582 0.961 . S
H1597 C1583 0.958 . S
H1598 C1583 0.961 . S
H1599 C1583 0.960 . S
C1600 C1601 1.391 . S
C1600 C1602 1.394 . S
C1600 H1616 0.931 . S
C1601 C1600 1.391 . S
C1601 C1605 1.376 . S
C1602 C1600 1.394 . S
C1602 C1603 1.369 . S
C1602 C1606 1.531 . S
C1603 C1602 1.369 . S
C1603 C1604 1.410 . S
C1603 C1611 1.503 1_565 S
C1604 C1603 1.410 . S
C1604 C1605 1.392 . S
C1604 C1607 1.511 . S
C1605 C1601 1.376 . S
C1605 C1604 1.392 . S
C1605 H1617 0.929 . S
C1606 C1602 1.531 . S
C1606 H1618 0.960 1_565 S
C1606 H1619 0.962 . S
C1606 H1620 0.960 . S
C1607 C1604 1.511 . S
C1607 H1621 0.961 . S
C1607 H1622 0.961 . S
C1607 H1623 0.961 . S
C1608 C1609 1.370 . S
C1608 C1610 1.363 . S
C1608 H1624 0.931 . S
C1609 C1608 1.370 . S
C1609 C1613 1.408 . S
C1610 C1608 1.363 . S
C1610 C1611 1.370 . S
C1610 C1614 1.524 . S
C1611 C1603 1.503 1_545 S
C1611 C1610 1.370 . S
C1611 C1612 1.403 . S
C1612 C1611 1.403 . S
C1612 C1613 1.404 . S
C1612 C1615 1.539 . S
C1613 C1609 1.408 . S
C1613 C1612 1.404 . S
C1613 H1625 0.930 . S
C1614 C1610 1.524 . S
C1614 H1626 0.956 1_545 S
C1614 H1627 0.961 1_545 S
C1614 H1628 0.961 . S
C1615 C1612 1.539 . S
C1615 H1629 0.958 . S
C1615 H1630 0.961 . S
C1615 H1631 0.960 . S
H1616 C1600 0.931 . S
H1617 C1605 0.929 . S
H1618 C1606 0.960 1_545 S
H1619 C1606 0.962 . S
H1620 C1606 0.960 . S
H1621 C1607 0.961 . S
H1622 C1607 0.961 . S
H1623 C1607 0.961 . S
H1624 C1608 0.931 . S
H1625 C1613 0.930 . S
H1626 C1614 0.956 1_565 S
H1627 C1614 0.961 1_565 S
H1628 C1614 0.961 . S
H1629 C1615 0.958 . S
H1630 C1615 0.961 . S
H1631 C1615 0.960 . S
C1632 C1633 1.391 . S
C1632 C1634 1.394 . S
C1632 H1648 0.931 . S
C1633 C1632 1.391 . S
C1633 C1637 1.376 . S
C1634 C1632 1.394 . S
C1634 C1635 1.369 . S
C1634 C1638 1.531 . S
C1635 C1634 1.369 . S
C1635 C1636 1.410 . S
C1635 C1643 1.503 . S
C1636 C1635 1.410 . S
C1636 C1637 1.392 . S
C1636 C1639 1.511 . S
C1637 C1633 1.376 . S
C1637 C1636 1.392 . S
C1637 H1649 0.929 . S
C1638 C1634 1.531 . S
C1638 H1650 0.960 . S
C1638 H1651 0.962 . S
C1638 H1652 0.960 . S
C1639 C1636 1.511 . S
C1639 H1653 0.961 . S
C1639 H1654 0.961 . S
C1639 H1655 0.961 . S
C1640 C1641 1.370 . S
C1640 C1642 1.363 . S
C1640 H1656 0.931 . S
C1641 C1640 1.370 . S
C1641 C1645 1.408 . S
C1642 C1640 1.363 . S
C1642 C1643 1.370 . S
C1642 C1646 1.524 . S
C1643 C1635 1.503 . S
C1643 C1642 1.370 . S
C1643 C1644 1.403 . S
C1644 C1643 1.403 . S
C1644 C1645 1.404 . S
C1644 C1647 1.539 . S
C1645 C1641 1.408 . S
C1645 C1644 1.404 . S
C1645 H1657 0.930 . S
C1646 C1642 1.524 . S
C1646 H1658 0.956 . S
C1646 H1659 0.961 . S
C1646 H1660 0.961 . S
C1647 C1644 1.539 . S
C1647 H1661 0.958 . S
C1647 H1662 0.961 . S
C1647 H1663 0.960 . S
H1648 C1632 0.931 . S
H1649 C1637 0.929 . S
H1650 C1638 0.960 . S
H1651 C1638 0.962 . S
H1652 C1638 0.960 . S
H1653 C1639 0.961 . S
H1654 C1639 0.961 . S
H1655 C1639 0.961 . S
H1656 C1640 0.931 . S
H1657 C1645 0.930 . S
H1658 C1646 0.956 . S
H1659 C1646 0.961 . S
H1660 C1646 0.961 . S
H1661 C1647 0.958 . S
H1662 C1647 0.961 . S
H1663 C1647 0.960 . S
C1664 C1665 1.391 . S
C1664 C1666 1.394 . S
C1664 H1680 0.931 . S
C1665 C1664 1.391 . S
C1665 C1669 1.376 . S
C1666 C1664 1.394 . S
C1666 C1667 1.369 . S
C1666 C1670 1.531 1_565 S
C1667 C1666 1.369 . S
C1667 C1668 1.410 1_554 S
C1667 C1675 1.503 1_564 S
C1668 C1667 1.410 1_556 S
C1668 C1669 1.392 1_556 S
C1668 C1671 1.511 . S
C1669 C1665 1.376 . S
C1669 C1668 1.392 1_554 S
C1669 H1681 0.929 1_554 S
C1670 C1666 1.531 1_545 S
C1670 H1682 0.960 . S
C1670 H1683 0.962 . S
C1670 H1684 0.960 . S
C1671 C1668 1.511 . S
C1671 H1685 0.961 . S
C1671 H1686 0.961 . S
C1671 H1687 0.961 . S
C1672 C1673 1.370 . S
C1672 C1674 1.363 . S
C1672 H1688 0.931 . S
C1673 C1672 1.370 . S
C1673 C1677 1.408 . S
C1674 C1672 1.363 . S
C1674 C1675 1.370 . S
C1674 C1678 1.524 1_545 S
C1675 C1667 1.503 1_546 S
C1675 C1674 1.370 . S
C1675 C1676 1.403 1_556 S
C1676 C1675 1.403 1_554 S
C1676 C1677 1.404 1_554 S
C1676 C1679 1.539 . S
C1677 C1673 1.408 . S
C1677 C1676 1.404 1_556 S
C1677 H1689 0.930 . S
C1678 C1674 1.524 1_565 S
C1678 H1690 0.956 . S
C1678 H1691 0.961 . S
C1678 H1692 0.959 . S
C1679 C1676 1.539 . S
C1679 H1693 0.958 . S
C1679 H1694 0.961 . S
C1679 H1695 0.960 . S
H1680 C1664 0.931 . S
H1681 C1669 0.929 1_556 S
H1682 C1670 0.960 . S
H1683 C1670 0.962 . S
H1684 C1670 0.960 . S
H1685 C1671 0.961 . S
H1686 C1671 0.961 . S
H1687 C1671 0.961 . S
H1688 C1672 0.931 . S
H1689 C1677 0.930 . S
H1690 C1678 0.956 . S
H1691 C1678 0.961 . S
H1692 C1678 0.959 . S
H1693 C1679 0.958 . S
H1694 C1679 0.961 . S
H1695 C1679 0.960 . S
C1696 C1697 1.391 . S
C1696 C1698 1.394 . S
C1696 H1712 0.931 . S
C1697 C1696 1.391 . S
C1697 C1701 1.376 . S
C1698 C1696 1.394 . S
C1698 C1699 1.369 . S
C1698 C1702 1.531 . S
C1699 C1698 1.369 . S
C1699 C1700 1.410 . S
C1699 C1707 1.503 . S
C1700 C1699 1.410 . S
C1700 C1701 1.392 . S
C1700 C1703 1.511 . S
C1701 C1697 1.376 . S
C1701 C1700 1.392 . S
C1701 H1713 0.929 . S
C1702 C1698 1.531 . S
C1702 H1714 0.960 . S
C1702 H1715 0.962 . S
C1702 H1716 0.960 . S
C1703 C1700 1.511 . S
C1703 H1717 0.961 . S
C1703 H1718 0.961 . S
C1703 H1719 0.961 . S
C1704 C1705 1.370 . S
C1704 C1706 1.363 . S
C1704 H1720 0.931 . S
C1705 C1704 1.370 . S
C1705 C1709 1.408 . S
C1706 C1704 1.363 . S
C1706 C1707 1.370 . S
C1706 C1710 1.524 . S
C1707 C1699 1.503 . S
C1707 C1706 1.370 . S
C1707 C1708 1.403 . S
C1708 C1707 1.403 . S
C1708 C1709 1.404 . S
C1708 C1711 1.539 . S
C1709 C1705 1.408 . S
C1709 C1708 1.404 . S
C1709 H1721 0.930 . S
C1710 C1706 1.524 . S
C1710 H1722 0.956 . S
C1710 H1723 0.961 . S
C1710 H1724 0.961 . S
C1711 C1708 1.539 . S
C1711 H1725 0.958 . S
C1711 H1726 0.961 . S
C1711 H1727 0.960 . S
H1712 C1696 0.931 . S
H1713 C1701 0.929 . S
H1714 C1702 0.960 . S
H1715 C1702 0.962 . S
H1716 C1702 0.960 . S
H1717 C1703 0.961 . S
H1718 C1703 0.961 . S
H1719 C1703 0.961 . S
H1720 C1704 0.931 . S
H1721 C1709 0.930 . S
H1722 C1710 0.956 . S
H1723 C1710 0.961 . S
H1724 C1710 0.961 . S
H1725 C1711 0.958 . S
H1726 C1711 0.961 . S
H1727 C1711 0.960 . S
C1728 C1729 1.391 . S
C1728 C1730 1.394 . S
C1728 H1744 0.931 . S
C1729 C1728 1.391 . S
C1729 C1733 1.376 . S
C1730 C1728 1.394 . S
C1730 C1731 1.369 . S
C1730 C1734 1.531 . S
C1731 C1730 1.369 . S
C1731 C1732 1.410 . S
C1731 C1739 1.503 1_565 S
C1732 C1731 1.410 . S
C1732 C1733 1.392 . S
C1732 C1735 1.511 . S
C1733 C1729 1.376 . S
C1733 C1732 1.392 . S
C1733 H1745 0.929 . S
C1734 C1730 1.531 . S
C1734 H1746 0.960 1_565 S
C1734 H1747 0.962 . S
C1734 H1748 0.960 . S
C1735 C1732 1.511 . S
C1735 H1749 0.961 . S
C1735 H1750 0.961 . S
C1735 H1751 0.961 . S
C1736 C1737 1.370 . S
C1736 C1738 1.363 . S
C1736 H1752 0.931 . S
C1737 C1736 1.370 . S
C1737 C1741 1.408 . S
C1738 C1736 1.363 . S
C1738 C1739 1.370 . S
C1738 C1742 1.524 . S
C1739 C1731 1.503 1_545 S
C1739 C1738 1.370 . S
C1739 C1740 1.403 . S
C1740 C1739 1.403 . S
C1740 C1741 1.404 . S
C1740 C1743 1.539 . S
C1741 C1737 1.408 . S
C1741 C1740 1.404 . S
C1741 H1753 0.930 . S
C1742 C1738 1.524 . S
C1742 H1754 0.956 1_545 S
C1742 H1755 0.961 1_545 S
C1742 H1756 0.961 . S
C1743 C1740 1.539 . S
C1743 H1757 0.958 . S
C1743 H1758 0.961 . S
C1743 H1759 0.960 . S
H1744 C1728 0.931 . S
H1745 C1733 0.929 . S
H1746 C1734 0.960 1_545 S
H1747 C1734 0.962 . S
H1748 C1734 0.960 . S
H1749 C1735 0.961 . S
H1750 C1735 0.961 . S
H1751 C1735 0.961 . S
H1752 C1736 0.931 . S
H1753 C1741 0.930 . S
H1754 C1742 0.956 1_565 S
H1755 C1742 0.961 1_565 S
H1756 C1742 0.961 . S
H1757 C1743 0.958 . S
H1758 C1743 0.961 . S
H1759 C1743 0.960 . S
C1760 C1761 1.391 . S
C1760 C1762 1.394 . S
C1760 H1776 0.931 . S
C1761 C1760 1.391 . S
C1761 C1765 1.376 . S
C1762 C1760 1.394 . S
C1762 C1763 1.369 . S
C1762 C1766 1.531 . S
C1763 C1762 1.369 . S
C1763 C1764 1.410 . S
C1763 C1771 1.503 . S
C1764 C1763 1.410 . S
C1764 C1765 1.392 . S
C1764 C1767 1.511 . S
C1765 C1761 1.376 . S
C1765 C1764 1.392 . S
C1765 H1777 0.929 . S
C1766 C1762 1.531 . S
C1766 H1778 0.960 . S
C1766 H1779 0.962 . S
C1766 H1780 0.960 . S
C1767 C1764 1.511 . S
C1767 H1781 0.961 . S
C1767 H1782 0.961 . S
C1767 H1783 0.961 . S
C1768 C1769 1.370 . S
C1768 C1770 1.363 . S
C1768 H1784 0.931 . S
C1769 C1768 1.370 . S
C1769 C1773 1.408 . S
C1770 C1768 1.363 . S
C1770 C1771 1.370 . S
C1770 C1774 1.524 . S
C1771 C1763 1.503 . S
C1771 C1770 1.370 . S
C1771 C1772 1.403 . S
C1772 C1771 1.403 . S
C1772 C1773 1.404 . S
C1772 C1775 1.539 . S
C1773 C1769 1.408 . S
C1773 C1772 1.404 . S
C1773 H1785 0.930 . S
C1774 C1770 1.524 . S
C1774 H1786 0.956 . S
C1774 H1787 0.961 . S
C1774 H1788 0.961 . S
C1775 C1772 1.539 . S
C1775 H1789 0.958 . S
C1775 H1790 0.961 . S
C1775 H1791 0.960 . S
H1776 C1760 0.931 . S
H1777 C1765 0.929 . S
H1778 C1766 0.960 . S
H1779 C1766 0.962 . S
H1780 C1766 0.960 . S
H1781 C1767 0.961 . S
H1782 C1767 0.961 . S
H1783 C1767 0.961 . S
H1784 C1768 0.931 . S
H1785 C1773 0.930 . S
H1786 C1774 0.956 . S
H1787 C1774 0.961 . S
H1788 C1774 0.961 . S
H1789 C1775 0.958 . S
H1790 C1775 0.961 . S
H1791 C1775 0.960 . S
C1792 C1793 1.391 . S
C1792 C1794 1.394 . S
C1792 H1808 0.931 . S
C1793 C1792 1.391 . S
C1793 C1797 1.376 . S
C1794 C1792 1.394 . S
C1794 C1795 1.369 . S
C1794 C1798 1.531 1_545 S
C1795 C1794 1.369 . S
C1795 C1796 1.410 1_556 S
C1795 C1803 1.503 1_546 S
C1796 C1795 1.410 1_554 S
C1796 C1797 1.392 1_554 S
C1796 C1799 1.511 . S
C1797 C1793 1.376 . S
C1797 C1796 1.392 1_556 S
C1797 H1809 0.929 1_556 S
C1798 C1794 1.531 1_565 S
C1798 H1810 0.960 . S
C1798 H1811 0.962 . S
C1798 H1812 0.960 1_565 S
C1799 C1796 1.511 . S
C1799 H1813 0.961 . S
C1799 H1814 0.961 . S
C1799 H1815 0.961 . S
C1800 C1801 1.370 . S
C1800 C1802 1.363 1_554 S
C1800 H1816 0.931 1_554 S
C1801 C1800 1.370 . S
C1801 C1805 1.408 . S
C1802 C1800 1.363 1_556 S
C1802 C1803 1.370 1_556 S
C1802 C1806 1.524 . S
C1803 C1795 1.503 1_564 S
C1803 C1802 1.370 1_554 S
C1803 C1804 1.403 . S
C1804 C1803 1.403 . S
C1804 C1805 1.404 . S
C1804 C1807 1.539 1_565 S
C1805 C1801 1.408 . S
C1805 C1804 1.404 . S
C1805 H1817 0.930 . S
C1806 C1802 1.524 . S
C1806 H1818 0.956 . S
C1806 H1819 0.961 . S
C1806 H1820 0.961 . S
C1807 C1804 1.539 1_545 S
C1807 H1821 0.958 . S
C1807 H1822 0.961 . S
C1807 H1823 0.960 . S
H1808 C1792 0.931 . S
H1809 C1797 0.929 1_554 S
H1810 C1798 0.960 . S
H1811 C1798 0.962 . S
H1812 C1798 0.960 1_545 S
H1813 C1799 0.961 . S
H1814 C1799 0.961 . S
H1815 C1799 0.961 . S
H1816 C1800 0.931 1_556 S
H1817 C1805 0.930 . S
H1818 C1806 0.956 . S
H1819 C1806 0.961 . S
H1820 C1806 0.961 . S
H1821 C1807 0.958 . S
H1822 C1807 0.961 . S
H1823 C1807 0.960 . S
C1824 C1825 1.391 . S
C1824 C1826 1.394 . S
C1824 H1840 0.931 . S
C1825 C1824 1.391 . S
C1825 C1829 1.376 . S
C1826 C1824 1.394 . S
C1826 C1827 1.369 . S
C1826 C1830 1.531 . S
C1827 C1826 1.369 . S
C1827 C1828 1.410 . S
C1827 C1835 1.503 . S
C1828 C1827 1.410 . S
C1828 C1829 1.392 . S
C1828 C1831 1.511 . S
C1829 C1825 1.376 . S
C1829 C1828 1.392 . S
C1829 H1841 0.929 . S
C1830 C1826 1.531 . S
C1830 H1842 0.960 . S
C1830 H1843 0.962 . S
C1830 H1844 0.960 . S
C1831 C1828 1.511 . S
C1831 H1845 0.961 . S
C1831 H1846 0.961 . S
C1831 H1847 0.961 . S
C1832 C1833 1.370 . S
C1832 C1834 1.363 . S
C1832 H1848 0.931 . S
C1833 C1832 1.370 . S
C1833 C1837 1.408 . S
C1834 C1832 1.363 . S
C1834 C1835 1.370 . S
C1834 C1838 1.524 . S
C1835 C1827 1.503 . S
C1835 C1834 1.370 . S
C1835 C1836 1.403 . S
C1836 C1835 1.403 . S
C1836 C1837 1.404 . S
C1836 C1839 1.539 . S
C1837 C1833 1.408 . S
C1837 C1836 1.404 . S
C1837 H1849 0.930 . S
C1838 C1834 1.524 . S
C1838 H1850 0.956 . S
C1838 H1851 0.961 . S
C1838 H1852 0.961 . S
C1839 C1836 1.539 . S
C1839 H1853 0.958 . S
C1839 H1854 0.961 . S
C1839 H1855 0.960 . S
H1840 C1824 0.931 . S
H1841 C1829 0.929 . S
H1842 C1830 0.960 . S
H1843 C1830 0.962 . S
H1844 C1830 0.960 . S
H1845 C1831 0.961 . S
H1846 C1831 0.961 . S
H1847 C1831 0.961 . S
H1848 C1832 0.931 . S
H1849 C1837 0.930 . S
H1850 C1838 0.956 . S
H1851 C1838 0.961 . S
H1852 C1838 0.961 . S
H1853 C1839 0.958 . S
H1854 C1839 0.961 . S
H1855 C1839 0.960 . S
C321 C2 1.598 . S
C329 C1 1.550 . S
C353 C21 1.570 . S
C361 C22 1.560 . S
C385 C41 1.448 . S
C393 C42 1.482 . S
C417 C62 1.496 . S
C425 C61 1.464 . S
C449 C82 1.524 . S
C457 C81 1.581 . S
C481 C101 1.488 . S
C489 C102 1.468 . S
C513 C121 1.490 . S
C521 C122 1.467 . S
C545 C141 1.536 . S
C553 C142 1.574 . S
C577 C161 1.551 . S
C585 C162 1.573 . S
C609 C181 1.577 . S
C617 C182 1.557 . S
C641 C201 1.444 . S
C649 C202 1.485 . S
C673 C221 1.486 . S
C681 C222 1.469 . S
C705 C241 1.576 . S
C713 C242 1.562 . S
C737 C261 1.450 . S
C745 C262 1.481 . S
C769 C282 1.497 . S
C777 C281 1.463 . S
C801 C302 1.524 . S
C809 C301 1.581 . S
C833 C8 1.545 . S
C841 C239 1.608 . S
C865 C38 1.575 . S
C873 C319 1.588 . S
C897 C58 1.589 . S
C905 C189 1.549 . S
C929 C68 1.595 . S
C937 C269 1.615 . S
C961 C88 1.587 . S
C969 C279 1.621 . S
C993 C229 1.591 . S
C1001 C108 1.611 . S
C1025 C138 1.594 . S
C1033 C309 1.557 . S
C1057 C158 1.568 . S
C1065 C199 1.586 . S
C1089 C78 1.631 . S
C1097 C169 1.564 . S
C1121 C28 1.583 . S
C1129 C219 1.623 . S
C1153 C249 1.528 . S
C1161 C118 1.616 . S
C1185 C148 1.519 . S
C1193 C299 1.610 . S
C1217 C179 1.584 . S
C1225 C98 1.592 . S
C1249 C128 1.594 . S
C1257 C209 1.612 . S
C1281 C48 1.591 . S
C1289 C289 1.613 . S
C1313 C18 1.572 . S
C1321 C259 1.587 . S
C1345 C9 1.358 . S
C1353 C89 1.338 . S
C1377 C39 1.600 . S
C1385 C109 1.582 . S
C1409 C59 1.785 . S
C1417 C139 1.796 . S
C1441 C69 1.597 . S
C1449 C159 1.587 . S
C1473 C248 1.344 . S
C1481 C168 1.334 . S
C1505 C268 1.601 . S
C1513 C198 1.587 . S
C1537 C218 1.787 . S
C1545 C298 1.796 . S
C1569 C318 1.574 . S
C1577 C228 1.595 . S
C1601 C29 1.319 . S
C1609 C149 1.345 . S
C1633 C99 1.582 . S
C1641 C49 1.590 . S
C1665 C119 1.804 . S
C1673 C79 1.803 . S
C1697 C19 1.603 . S
C1705 C129 1.582 . S
C1729 C308 1.328 . S
C1737 C188 1.350 . S
C1761 C258 1.598 . S
C1769 C208 1.582 . S
C1793 C278 1.788 . S
C1801 C238 1.798 . S
C1825 C288 1.592 . S
C1833 C178 1.588 . S
