# Generated by pormake.
# Topology wmi, (6)-cn, num edge types: 1
# Building blocks:
#     Node 0, Type 0, BuildingBlock: UKALOJ_clean_sbu_0, # of connection points: 6
#     Node 1, Type 0, BuildingBlock: UKALOJ_clean_sbu_0, # of connection points: 6
#     Node 2, Type 0, BuildingBlock: UKALOJ_clean_sbu_0, # of connection points: 6
#     Node 3, Type 0, BuildingBlock: UKALOJ_clean_sbu_0, # of connection points: 6
#     Node 4, Type 0, BuildingBlock: UKALOJ_clean_sbu_0, # of connection points: 6
#     Node 5, Type 0, BuildingBlock: UKALOJ_clean_sbu_0, # of connection points: 6
#     Node 6, Type 0, BuildingBlock: UKALOJ_clean_sbu_0, # of connection points: 6
#     Node 7, Type 0, BuildingBlock: UKALOJ_clean_sbu_0, # of connection points: 6
#     Node 8, Type 0, BuildingBlock: UKALOJ_clean_sbu_0, # of connection points: 6
#     Node 9, Type 0, BuildingBlock: UKALOJ_clean_sbu_0, # of connection points: 6
#     Node 10, Type 0, BuildingBlock: UKALOJ_clean_sbu_0, # of connection points: 6
#     Node 11, Type 0, BuildingBlock: UKALOJ_clean_sbu_0, # of connection points: 6
#     Node 12, Type 0, BuildingBlock: UKALOJ_clean_sbu_0, # of connection points: 6
#     Node 13, Type 0, BuildingBlock: UKALOJ_clean_sbu_0, # of connection points: 6
#     Node 14, Type 0, BuildingBlock: UKALOJ_clean_sbu_0, # of connection points: 6
#     Node 15, Type 0, BuildingBlock: UKALOJ_clean_sbu_0, # of connection points: 6
#     Node 16, Type 0, BuildingBlock: UKALOJ_clean_sbu_0, # of connection points: 6
#     Node 17, Type 0, BuildingBlock: UKALOJ_clean_sbu_0, # of connection points: 6
#     Edge 18, Type (0, 0), BuildingBlock: XIVTED_clean_linker_0, # of connection points: 2
#     Edge 19, Type (0, 0), BuildingBlock: XIVTED_clean_linker_0, # of connection points: 2
#     Edge 20, Type (0, 0), BuildingBlock: XIVTED_clean_linker_0, # of connection points: 2
#     Edge 21, Type (0, 0), BuildingBlock: XIVTED_clean_linker_0, # of connection points: 2
#     Edge 22, Type (0, 0), BuildingBlock: XIVTED_clean_linker_0, # of connection points: 2
#     Edge 23, Type (0, 0), BuildingBlock: XIVTED_clean_linker_0, # of connection points: 2
#     Edge 24, Type (0, 0), BuildingBlock: XIVTED_clean_linker_0, # of connection points: 2
#     Edge 25, Type (0, 0), BuildingBlock: XIVTED_clean_linker_0, # of connection points: 2
#     Edge 26, Type (0, 0), BuildingBlock: XIVTED_clean_linker_0, # of connection points: 2
#     Edge 27, Type (0, 0), BuildingBlock: XIVTED_clean_linker_0, # of connection points: 2
#     Edge 28, Type (0, 0), BuildingBlock: XIVTED_clean_linker_0, # of connection points: 2
#     Edge 29, Type (0, 0), BuildingBlock: XIVTED_clean_linker_0, # of connection points: 2
#     Edge 30, Type (0, 0), BuildingBlock: XIVTED_clean_linker_0, # of connection points: 2
#     Edge 31, Type (0, 0), BuildingBlock: XIVTED_clean_linker_0, # of connection points: 2
#     Edge 32, Type (0, 0), BuildingBlock: XIVTED_clean_linker_0, # of connection points: 2
#     Edge 33, Type (0, 0), BuildingBlock: XIVTED_clean_linker_0, # of connection points: 2
#     Edge 34, Type (0, 0), BuildingBlock: XIVTED_clean_linker_0, # of connection points: 2
#     Edge 35, Type (0, 0), BuildingBlock: XIVTED_clean_linker_0, # of connection points: 2
#     Edge 36, Type (0, 0), BuildingBlock: XIVTED_clean_linker_0, # of connection points: 2
#     Edge 37, Type (0, 0), BuildingBlock: XIVTED_clean_linker_0, # of connection points: 2
#     Edge 38, Type (0, 0), BuildingBlock: XIVTED_clean_linker_0, # of connection points: 2
#     Edge 39, Type (0, 0), BuildingBlock: XIVTED_clean_linker_0, # of connection points: 2
#     Edge 40, Type (0, 0), BuildingBlock: XIVTED_clean_linker_0, # of connection points: 2
#     Edge 41, Type (0, 0), BuildingBlock: XIVTED_clean_linker_0, # of connection points: 2
#     Edge 42, Type (0, 0), BuildingBlock: XIVTED_clean_linker_0, # of connection points: 2
#     Edge 43, Type (0, 0), BuildingBlock: XIVTED_clean_linker_0, # of connection points: 2
#     Edge 44, Type (0, 0), BuildingBlock: XIVTED_clean_linker_0, # of connection points: 2
#     Edge 45, Type (0, 0), BuildingBlock: XIVTED_clean_linker_0, # of connection points: 2
#     Edge 46, Type (0, 0), BuildingBlock: XIVTED_clean_linker_0, # of connection points: 2
#     Edge 47, Type (0, 0), BuildingBlock: XIVTED_clean_linker_0, # of connection points: 2
#     Edge 48, Type (0, 0), BuildingBlock: XIVTED_clean_linker_0, # of connection points: 2
#     Edge 49, Type (0, 0), BuildingBlock: XIVTED_clean_linker_0, # of connection points: 2
#     Edge 50, Type (0, 0), BuildingBlock: XIVTED_clean_linker_0, # of connection points: 2
#     Edge 51, Type (0, 0), BuildingBlock: XIVTED_clean_linker_0, # of connection points: 2
#     Edge 52, Type (0, 0), BuildingBlock: XIVTED_clean_linker_0, # of connection points: 2
#     Edge 53, Type (0, 0), BuildingBlock: XIVTED_clean_linker_0, # of connection points: 2
#     Edge 54, Type (0, 0), BuildingBlock: XIVTED_clean_linker_0, # of connection points: 2
#     Edge 55, Type (0, 0), BuildingBlock: XIVTED_clean_linker_0, # of connection points: 2
#     Edge 56, Type (0, 0), BuildingBlock: XIVTED_clean_linker_0, # of connection points: 2
#     Edge 57, Type (0, 0), BuildingBlock: XIVTED_clean_linker_0, # of connection points: 2
#     Edge 58, Type (0, 0), BuildingBlock: XIVTED_clean_linker_0, # of connection points: 2
#     Edge 59, Type (0, 0), BuildingBlock: XIVTED_clean_linker_0, # of connection points: 2
#     Edge 60, Type (0, 0), BuildingBlock: XIVTED_clean_linker_0, # of connection points: 2
#     Edge 61, Type (0, 0), BuildingBlock: XIVTED_clean_linker_0, # of connection points: 2
#     Edge 62, Type (0, 0), BuildingBlock: XIVTED_clean_linker_0, # of connection points: 2
#     Edge 63, Type (0, 0), BuildingBlock: XIVTED_clean_linker_0, # of connection points: 2
#     Edge 64, Type (0, 0), BuildingBlock: XIVTED_clean_linker_0, # of connection points: 2
#     Edge 65, Type (0, 0), BuildingBlock: XIVTED_clean_linker_0, # of connection points: 2
#     Edge 66, Type (0, 0), BuildingBlock: XIVTED_clean_linker_0, # of connection points: 2
#     Edge 67, Type (0, 0), BuildingBlock: XIVTED_clean_linker_0, # of connection points: 2
#     Edge 68, Type (0, 0), BuildingBlock: XIVTED_clean_linker_0, # of connection points: 2
#     Edge 69, Type (0, 0), BuildingBlock: XIVTED_clean_linker_0, # of connection points: 2
#     Edge 70, Type (0, 0), BuildingBlock: XIVTED_clean_linker_0, # of connection points: 2
#     Edge 71, Type (0, 0), BuildingBlock: XIVTED_clean_linker_0, # of connection points: 2
# Relax obj value: 0.109
# Max RMSD: 0.177
# Mean RMSD: 0.177
data_MOF--net-wmi--node1-UKALOJ_clean_sbu_0--edge1-XIVTED_clean_linker_0
_symmetry_space_group_name_H-M    P1
_symmetry_Int_Tables_number       1
_symmetry_cell_setting            triclinic
loop_
_symmetry_equiv_pos_as_xyz
'x, y, z'
_cell_length_a     28.586834
_cell_length_b     28.586077
_cell_length_c     120.86869
_cell_angle_alpha  89.881357
_cell_angle_beta   90.093718
_cell_angle_gamma 120.04133
loop_
_atom_site_label
_atom_site_type_symbol
_atom_site_fract_x
_atom_site_fract_y
_atom_site_fract_z
_atom_type_partial_charge
Zn0 Zn 0.42753 0.01206 0.08726 0.0
O1 O 0.50958 0.06911 0.08531 0.0
C2 C 0.40478 0.09664 0.0938 0.0
Zn3 Zn 0.43216 0.02084 0.10567 0.0
C4 C 0.53734 0.09039 0.09398 0.0
O5 O 0.5144 0.07872 0.10341 0.0
C6 C 0.3235 0.93821 0.09887 0.0
O7 O 0.45567 0.96239 0.10772 0.0
O8 O 0.44997 0.95311 0.08965 0.0
N9 N 0.4391 0.03675 0.12239 0.0
C10 C 0.41346 0.00515 0.1312 0.0
C11 C 0.46241 0.08532 0.13723 0.0
N12 N 0.46975 0.08652 0.12619 0.0
N13 N 0.42692 0.03472 0.14057 0.0
C14 C 0.43697 0.0225 0.06129 0.0
C15 C 0.38342 0.94059 0.05672 0.0
N16 N 0.41791 -0.00623 0.07072 0.0
N17 N 0.38484 0.94295 0.06783 0.0
N18 N 0.41584 0.9899 0.05236 0.0
H19 H 0.5162 0.09127 0.06012 0.0
H20 H 0.46436 0.10014 0.05365 0.0
H21 H 0.4708 0.10179 0.06858 0.0
C22 C 0.47389 0.08248 0.0609 0.0
C23 C 0.37729 0.94512 0.13072 0.0
H24 H 0.3866 0.92772 0.12345 0.0
H25 H 0.38147 0.92604 0.13838 0.0
H26 H 0.33487 0.93588 0.13015 0.0
O27 O 0.35024 0.96131 0.10753 0.0
O28 O 0.34596 0.95364 0.08949 0.0
C29 C 0.46143 0.94102 0.099 0.0
O30 O 0.40746 0.07281 0.08516 0.0
O31 O 0.41118 0.08107 0.10326 0.0
Zn32 Zn 0.01774 0.44041 0.0878 0.0
O33 O 0.96323 0.46922 0.08647 0.0
C34 C 0.93155 0.33384 0.09409 0.0
Zn35 Zn 0.0096 0.43532 0.10622 0.0
C36 C 0.94189 0.47468 0.09522 0.0
O37 O 0.9525 0.4611 0.10452 0.0
C38 C 0.09001 0.40687 0.09877 0.0
O39 O 0.06908 0.5168 0.10842 0.0
O40 O 0.07903 0.52026 0.09037 0.0
N41 N -0.00529 0.42474 0.12299 0.0
C42 C 0.02663 0.42956 0.13166 0.0
C43 C 0.94699 0.39894 0.13795 0.0
N44 N 0.94528 0.40598 0.12695 0.0
N45 N -0.00242 0.41309 0.14111 0.0
C46 C 0.00643 0.43769 0.06173 0.0
C47 C 0.08957 0.47528 0.0573 0.0
N48 N 0.03531 0.45034 0.07121 0.0
N49 N 0.08684 0.47359 0.0684 0.0
N50 N 0.0398 0.45296 0.05279 0.0
H51 H 0.93001 0.41543 0.0695 0.0
H52 H 0.9337 0.43112 0.05494 0.0
H53 H 0.92809 0.36836 0.05959 0.0
C54 C 0.94614 0.41204 0.06143 0.0
C55 C 0.08652 0.45276 0.13099 0.0
H56 H 0.10374 0.47996 0.12376 0.0
H57 H 0.1063 0.47534 0.13866 0.0
H58 H 0.09511 0.41924 0.13019 0.0
O59 O 0.06845 0.41163 0.10755 0.0
O60 O 0.07378 0.41391 0.08947 0.0
C61 C 0.09139 0.5437 0.09971 0.0
O62 O 0.9548 0.36116 0.08547 0.0
O63 O 0.94832 0.35458 0.1036 0.0
Zn64 Zn 0.59235 0.59593 0.10578 0.0
O65 O 0.51086 0.57378 0.10774 0.0
C66 C 0.62006 0.70526 0.09916 0.0
Zn67 Zn 0.5895 0.60161 0.08736 0.0
C68 C 0.48421 0.5681 0.09893 0.0
O69 O 0.5082 0.57937 0.08964 0.0
C70 C 0.69601 0.62297 0.09407 0.0
O71 O 0.56401 0.51926 0.08529 0.0
O72 O 0.56657 0.51345 0.10342 0.0
N73 N 0.5813 0.61201 0.07081 0.0
C74 C 0.59153 0.59371 0.06135 0.0
C75 C 0.56322 0.64739 0.05684 0.0
N76 N 0.56356 0.64514 0.06795 0.0
N77 N 0.58046 0.61542 0.05245 0.0
C78 C 0.59249 0.61032 0.13158 0.0
C79 C 0.63488 0.5705 0.13677 0.0
N80 N 0.60119 0.58826 0.12248 0.0
N81 N 0.62692 0.56301 0.12579 0.0
N82 N 0.6138 0.60016 0.14067 0.0
H83 H 0.55381 0.64868 0.123 0.0
H84 H 0.52817 0.62371 0.13642 0.0
H85 H 0.59287 0.68407 0.13516 0.0
C86 C 0.56566 0.64391 0.13144 0.0
C87 C 0.61472 0.55696 0.06092 0.0
H88 H 0.63641 0.55922 0.06868 0.0
H89 H 0.5813 0.51472 0.05992 0.0
H90 H 0.6426 0.56736 0.05379 0.0
O91 O 0.67039 0.62156 0.08536 0.0
O92 O 0.67322 0.61567 0.10344 0.0
C93 C 0.55608 0.49093 0.09395 0.0
O94 O 0.61644 0.67803 0.10774 0.0
O95 O 0.61287 0.68334 0.08972 0.0
Zn96 Zn 0.01711 0.44059 0.91786 0.0
O97 O 0.95708 0.46089 0.91527 0.0
C98 C 0.9371 0.33024 0.92466 0.0
Zn99 Zn 0.00644 0.43495 0.93623 0.0
C100 C 0.93376 0.46493 0.92384 0.0
O101 O 0.94519 0.45358 0.93328 0.0
C102 C 0.09416 0.41665 0.93036 0.0
O103 O 0.06037 0.5182 0.938 0.0
O104 O 0.0727 0.52381 0.91999 0.0
N105 N 0.98661 0.4255 0.95273 0.0
C106 C 0.01466 0.44094 0.96231 0.0
C107 C 0.93112 0.39527 0.96643 0.0
N108 N 0.93482 0.39712 0.95534 0.0
N109 N 0.98052 0.42226 0.97112 0.0
C110 C 0.00435 0.42471 0.8921 0.0
C111 C 0.08685 0.46369 0.88714 0.0
N112 N 0.03476 0.44688 0.90125 0.0
N113 N 0.08593 0.47157 0.89809 0.0
N114 N 0.03623 0.43432 0.88311 0.0
H115 H 0.9269 0.38527 0.90051 0.0
H116 H 0.92725 0.41335 0.88736 0.0
H117 H 0.93047 0.3522 0.888 0.0
C118 C 0.94385 0.39166 0.89208 0.0
C119 C 0.07495 0.47545 0.96285 0.0
H120 H 0.09193 0.49576 0.95487 0.0
H121 H 0.08693 0.50637 0.96944 0.0
H122 H 0.09268 0.44952 0.96468 0.0
O123 O 0.06949 0.41877 0.93892 0.0
O124 O 0.07877 0.42242 0.92084 0.0
C125 C 0.08225 0.54652 0.92942 0.0
O126 O 0.96029 0.35791 0.9161 0.0
O127 O 0.9509 0.35229 0.93411 0.0
Zn128 Zn 0.59387 0.59924 0.91787 0.0
O129 O 0.57188 0.51836 0.91506 0.0
C130 C 0.7023 0.62611 0.92522 0.0
Zn131 Zn 0.59719 0.59297 0.93628 0.0
C132 C 0.56543 0.49019 0.92366 0.0
O133 O 0.57554 0.51248 0.93312 0.0
C134 C 0.61984 0.70042 0.93057 0.0
O135 O 0.51473 0.5672 0.93771 0.0
O136 O 0.51112 0.57344 0.91962 0.0
N137 N 0.60255 0.57895 0.95276 0.0
C138 C 0.59045 0.59526 0.96227 0.0
C139 C 0.62009 0.54249 0.96662 0.0
N140 N 0.62099 0.54626 0.95552 0.0
N141 N 0.60126 0.57296 0.9711 0.0
C142 C 0.61185 0.60345 0.89214 0.0
C143 C 0.57601 0.64979 0.88706 0.0
N144 N 0.59007 0.61255 0.90123 0.0
N145 N 0.56739 0.64085 0.898 0.0
N146 N 0.60389 0.62686 0.88311 0.0
H147 H 0.64988 0.56436 0.9007 0.0
H148 H 0.619 0.53482 0.88784 0.0
H149 H 0.68186 0.59785 0.88785 0.0
C150 C 0.64277 0.57383 0.89222 0.0
C151 C 0.56551 0.63045 0.96279 0.0
H152 H 0.54274 0.62688 0.95512 0.0
H153 H 0.53811 0.61957 0.97002 0.0
H154 H 0.59804 0.67318 0.96366 0.0
O155 O 0.61661 0.67301 0.93912 0.0
O156 O 0.61371 0.67941 0.92103 0.0
C157 C 0.48753 0.56125 0.92897 0.0
O158 O 0.67604 0.62349 0.91655 0.0
O159 O 0.67917 0.61698 0.93457 0.0
Zn160 Zn 0.44044 0.02328 0.93601 0.0
O161 O 0.46474 0.96595 0.93779 0.0
C162 C 0.33225 0.93912 0.93009 0.0
Zn163 Zn 0.43477 0.01303 0.91762 0.0
C164 C 0.47033 0.94363 0.92922 0.0
O165 O 0.45854 0.95446 0.91975 0.0
C166 C 0.41031 0.097 0.92461 0.0
O167 O 0.51643 0.07037 0.91499 0.0
O168 O 0.52187 0.08136 0.93301 0.0
N169 N 0.42268 -0.00421 0.90096 0.0
C170 C 0.42744 0.02679 0.89212 0.0
C171 C 0.39499 0.94617 0.88628 0.0
N172 N 0.40277 0.94573 0.89728 0.0
N173 N 0.40981 -0.00344 0.88285 0.0
C174 C 0.43574 0.01439 0.962 0.0
C175 C 0.48905 0.09668 0.96634 0.0
N176 N 0.45332 0.04272 0.95248 0.0
N177 N 0.48635 0.09378 0.95523 0.0
N178 N 0.45755 0.04748 0.97083 0.0
H179 H 0.40373 0.93482 0.95497 0.0
H180 H 0.40956 0.9375 0.9699 0.0
H181 H 0.35717 0.94469 0.96319 0.0
C182 C 0.39977 0.9543 0.96254 0.0
C183 C 0.45155 0.08684 0.89245 0.0
H184 H 0.47953 0.10471 0.89954 0.0
H185 H 0.47354 0.10535 0.88465 0.0
H186 H 0.4185 0.09616 0.89325 0.0
O187 O 0.41321 0.07335 0.91598 0.0
O188 O 0.41792 0.08211 0.93402 0.0
C189 C 0.54453 0.09236 0.92358 0.0
O190 O 0.35957 0.96315 0.93866 0.0
O191 O 0.35366 0.9539 0.92057 0.0
Zn192 Zn 0.09987 0.35391 0.43968 0.0
O193 O 0.12356 0.29573 0.4418 0.0
C194 C -0.00883 0.27111 0.43292 0.0
Zn195 Zn 0.0952 0.34489 0.42129 0.0
C196 C 0.12939 0.27429 0.4331 0.0
O197 O 0.11778 0.28611 0.42374 0.0
C198 C 0.07222 0.42935 0.42773 0.0
O199 O 0.17734 0.40201 0.41931 0.0
O200 O 0.18204 0.41181 0.43739 0.0
N201 N 0.0856 0.32623 0.40478 0.0
C202 C 0.10477 0.35475 0.39532 0.0
C203 C 0.05133 0.27272 0.39081 0.0
N204 N 0.05259 0.27533 0.40192 0.0
N205 N 0.08379 0.32194 0.38643 0.0
C206 C 0.08108 0.33881 0.46518 0.0
C207 C 0.12974 0.41913 0.47116 0.0
N208 N 0.10686 0.37023 0.45637 0.0
N209 N 0.13736 0.4201 0.46013 0.0
N210 N 0.09425 0.36858 0.47452 0.0
H211 H 0.05454 0.2612 0.45755 0.0
H212 H 0.04878 0.25987 0.47247 0.0
H213 H 0.00254 0.26953 0.46407 0.0
C214 C 0.04492 0.27877 0.46475 0.0
C215 C 0.14163 0.41474 0.39489 0.0
H216 H 0.13822 0.43422 0.40251 0.0
H217 H 0.18399 0.42357 0.39421 0.0
H218 H 0.13233 0.43219 0.38757 0.0
O219 O 0.07495 0.40547 0.41911 0.0
O220 O 0.07873 0.41394 0.43719 0.0
C221 C 0.20506 0.42335 0.42798 0.0
O222 O 0.01794 0.29425 0.44157 0.0
O223 O 0.01362 0.28643 0.42353 0.0
Zn224 Zn 0.6834 0.77371 0.42042 0.0
O225 O 0.62643 0.79918 0.41904 0.0
C226 C 0.59906 0.66604 0.42637 0.0
Zn227 Zn 0.67477 0.76781 0.43885 0.0
C228 C 0.6052 0.8047 0.42781 0.0
O229 O 0.61683 0.79233 0.43713 0.0
C230 C 0.75713 0.74222 0.43138 0.0
O231 O 0.73311 0.84946 0.4414 0.0
O232 O 0.74224 0.85429 0.42334 0.0
N233 N 0.659 0.75569 0.45558 0.0
C234 C 0.69082 0.76087 0.4643 0.0
C235 C 0.61071 0.72858 0.47045 0.0
N236 N 0.60928 0.73586 0.45945 0.0
N237 N 0.66142 0.74364 0.47369 0.0
C238 C 0.67322 0.77021 0.39441 0.0
C239 C 0.75554 0.82292 0.38999 0.0
N240 N 0.7019 0.78697 0.4039 0.0
N241 N 0.75296 0.81962 0.40109 0.0
N242 N 0.70612 0.7922 0.38554 0.0
H243 H 0.59407 0.73862 0.40161 0.0
H244 H 0.59627 0.74542 0.38669 0.0
H245 H 0.60291 0.69214 0.39313 0.0
C246 C 0.61305 0.73486 0.39394 0.0
C247 C 0.75088 0.78522 0.46374 0.0
H248 H 0.768 0.81238 0.4565 0.0
H249 H 0.77002 0.80813 0.47142 0.0
H250 H 0.76042 0.7523 0.46304 0.0
O251 O 0.73429 0.74524 0.44014 0.0
O252 O 0.7417 0.75019 0.42207 0.0
C253 C 0.75453 0.87717 0.43273 0.0
O254 O 0.62271 0.69352 0.41779 0.0
O255 O 0.61469 0.687 0.4359 0.0
Zn256 Zn 0.25449 0.93367 0.42066 0.0
O257 O 0.22741 0.85048 0.41937 0.0
C258 C 0.36089 0.95453 0.4267 0.0
Zn259 Zn 0.25911 0.93024 0.43909 0.0
C260 C 0.2205 0.82343 0.42819 0.0
O261 O 0.23253 0.84739 0.43749 0.0
C262 C 0.28755 0.03914 0.43158 0.0
O263 O 0.17806 0.90909 0.44162 0.0
O264 O 0.17451 0.91346 0.42352 0.0
N265 N 0.27125 0.92627 0.45578 0.0
C266 C 0.2625 0.94854 0.46483 0.0
C267 C 0.30692 0.91085 0.47004 0.0
N268 N 0.29834 0.90244 0.45909 0.0
N269 N 0.28496 0.93976 0.47391 0.0
C270 C 0.25865 0.92679 0.39471 0.0
C271 C 0.20707 0.95742 0.39006 0.0
N272 N 0.24176 0.93906 0.40412 0.0
N273 N 0.2098 0.95809 0.40118 0.0
N274 N 0.23747 0.93812 0.38576 0.0
H275 H 0.28865 0.87814 0.40209 0.0
H276 H 0.2828 0.87389 0.38716 0.0
H277 H 0.33623 0.93335 0.39368 0.0
C278 C 0.29328 0.90118 0.3944 0.0
C279 C 0.23418 0.98072 0.46465 0.0
H280 H 0.22478 0.98757 0.45615 0.0
H281 H 0.19522 0.95807 0.46911 0.0
H282 H 0.25912 0.01995 0.46891 0.0
O283 O 0.28404 0.01274 0.44029 0.0
O284 O 0.27935 0.01608 0.42223 0.0
C285 C 0.15111 0.9034 0.43286 0.0
O286 O 0.33424 0.95187 0.41807 0.0
O287 O 0.3394 0.94894 0.43618 0.0
Zn288 Zn 0.68744 0.77239 0.25062 0.0
O289 O 0.62782 0.79371 0.24828 0.0
C290 C 0.60621 0.66308 0.25726 0.0
Zn291 Zn 0.67773 0.76741 0.26902 0.0
C292 C 0.60603 0.79944 0.25693 0.0
O293 O 0.61827 0.7888 0.26635 0.0
C294 C 0.76374 0.74658 0.26283 0.0
O295 O 0.73404 0.84996 0.27104 0.0
O296 O 0.74364 0.85516 0.25294 0.0
N297 N 0.65806 0.75741 0.28552 0.0
C298 C 0.68589 0.77632 0.29505 0.0
C299 C 0.60368 0.72226 0.29934 0.0
N300 N 0.60704 0.72404 0.28824 0.0
N301 N 0.65252 0.75476 0.30387 0.0
C302 C 0.67343 0.75778 0.22485 0.0
C303 C 0.75561 0.79596 0.21969 0.0
N304 N 0.70443 0.77936 0.23395 0.0
N305 N 0.7554 0.80356 0.23067 0.0
N306 N 0.70472 0.76726 0.21577 0.0
H307 H 0.59637 0.71889 0.23342 0.0
H308 H 0.59651 0.74768 0.22037 0.0
H309 H 0.59878 0.686 0.22079 0.0
C310 C 0.61289 0.7254 0.22496 0.0
C311 C 0.74577 0.81352 0.29565 0.0
H312 H 0.76582 0.81111 0.28802 0.0
H313 H 0.75421 0.85568 0.2965 0.0
H314 H 0.76296 0.80368 0.30293 0.0
O315 O 0.739 0.74831 0.27141 0.0
O316 O 0.74876 0.75333 0.25334 0.0
C317 C 0.75496 0.87801 0.26237 0.0
O318 O 0.63011 0.69014 0.2487 0.0
O319 O 0.6201 0.68542 0.26668 0.0
Zn320 Zn 0.26272 0.93307 0.25103 0.0
O321 O 0.23839 0.85107 0.24913 0.0
C322 C 0.37129 0.95836 0.25776 0.0
Zn323 Zn 0.26789 0.92939 0.26944 0.0
C324 C 0.23263 0.82403 0.25788 0.0
O325 O 0.24457 0.84774 0.2672 0.0
C326 C 0.29179 0.03689 0.26268 0.0
O327 O 0.18598 0.90509 0.27147 0.0
O328 O 0.1807 0.9095 0.25338 0.0
N329 N 0.27772 0.92104 0.286 0.0
C330 C 0.25884 0.93102 0.2954 0.0
C331 C 0.31185 0.90214 0.30007 0.0
N332 N 0.31047 0.90297 0.28895 0.0
N333 N 0.27972 0.9194 0.30436 0.0
C334 C 0.2808 0.93613 0.22547 0.0
C335 C 0.23147 0.96706 0.2195 0.0
N336 N 0.25527 0.94183 0.2343 0.0
N337 N 0.22437 0.96075 0.23054 0.0
N338 N 0.26704 0.95224 0.21611 0.0
H339 H 0.3134 0.88987 0.21821 0.0
H340 H 0.35951 0.94595 0.22658 0.0
H341 H 0.30768 0.88536 0.23313 0.0
C342 C 0.31718 0.91257 0.22591 0.0
C343 C 0.22236 0.95455 0.29572 0.0
H344 H 0.22589 0.97718 0.28803 0.0
H345 H 0.17989 0.92125 0.29645 0.0
H346 H 0.23194 0.9817 0.30295 0.0
O347 O 0.28895 0.01055 0.27138 0.0
O348 O 0.28473 0.01446 0.25327 0.0
C349 C 0.15802 0.89859 0.26282 0.0
O350 O 0.34435 0.95459 0.24911 0.0
O351 O 0.34922 0.9518 0.26716 0.0
Zn352 Zn 0.10917 0.35708 0.2701 0.0
O353 O 0.13497 0.30055 0.27142 0.0
C354 C 0.00152 0.2721 0.26423 0.0
Zn355 Zn 0.10309 0.34837 0.25169 0.0
C356 C 0.1407 0.27929 0.26268 0.0
O357 O 0.12816 0.29059 0.25334 0.0
C358 C 0.0772 0.43065 0.25929 0.0
O359 O 0.18447 0.40692 0.24902 0.0
O360 O 0.18982 0.41628 0.26707 0.0
N361 N 0.09045 0.33246 0.23498 0.0
C362 C 0.09469 0.364 0.22627 0.0
C363 C 0.06311 0.28396 0.22015 0.0
N364 N 0.07106 0.28278 0.23112 0.0
N365 N 0.07727 0.33445 0.2169 0.0
C366 C 0.10549 0.34658 0.29605 0.0
C367 C 0.15846 0.42874 0.30054 0.0
N368 N 0.12269 0.37543 0.28659 0.0
N369 N 0.15553 0.42639 0.28943 0.0
N370 N 0.12731 0.37926 0.30494 0.0
H371 H 0.07422 0.26748 0.28885 0.0
H372 H 0.0797 0.26943 0.30379 0.0
H373 H 0.02715 0.27647 0.29711 0.0
C374 C 0.06987 0.28643 0.29647 0.0
C375 C 0.11822 0.42394 0.22682 0.0
H376 H 0.1461 0.44145 0.23394 0.0
H377 H 0.14017 0.44325 0.21906 0.0
H378 H 0.08489 0.43276 0.22774 0.0
O379 O 0.08022 0.40797 0.25051 0.0
O380 O 0.08529 0.4151 0.26858 0.0
C381 C 0.21243 0.42848 0.25764 0.0
O382 O 0.02897 0.2959 0.2728 0.0
O383 O 0.0224 0.28792 0.2547 0.0
Zn384 Zn 0.76543 0.678 0.75429 0.0
O385 O 0.84773 0.73437 0.75225 0.0
C386 C 0.74433 0.76408 0.76029 0.0
Zn387 Zn 0.77039 0.68823 0.77268 0.0
C388 C 0.87591 0.7556 0.76088 0.0
O389 O 0.85324 0.74458 0.77033 0.0
C390 C 0.66111 0.60642 0.76605 0.0
O391 O 0.79189 0.62891 0.77522 0.0
O392 O 0.7873 0.61879 0.75716 0.0
N393 N 0.77738 0.70618 0.78931 0.0
C394 C 0.7558 0.67597 0.79851 0.0
C395 C 0.7946 0.75858 0.80337 0.0
N396 N 0.80197 0.75742 0.79241 0.0
N397 N 0.76566 0.70805 0.80747 0.0
C398 C 0.77459 0.6861 0.7283 0.0
C399 C 0.72115 0.60381 0.72398 0.0
N400 N 0.75581 0.65807 0.73782 0.0
N401 N 0.72282 0.607 0.73508 0.0
N402 N 0.75335 0.65281 0.71947 0.0
H403 H 0.80901 0.76594 0.73537 0.0
H404 H 0.85362 0.75491 0.72678 0.0
H405 H 0.80107 0.76317 0.72048 0.0
C406 C 0.81136 0.74607 0.72771 0.0
C407 C 0.72315 0.61545 0.79861 0.0
H408 H 0.71672 0.59833 0.7902 0.0
H409 H 0.74517 0.59922 0.80333 0.0
H410 H 0.68372 0.60189 0.80272 0.0
O411 O 0.68803 0.63054 0.77461 0.0
O412 O 0.68354 0.6202 0.75663 0.0
C413 C 0.79793 0.60696 0.76663 0.0
O414 O 0.74599 0.73908 0.75175 0.0
O415 O 0.75116 0.74934 0.76979 0.0
Zn416 Zn 0.35364 0.10912 0.7543 0.0
O417 O 0.29627 0.13385 0.75252 0.0
C418 C 0.2695 0.00075 0.76052 0.0
Zn419 Zn 0.34466 0.10291 0.77271 0.0
C420 C 0.27495 0.13936 0.76128 0.0
O421 O 0.28667 0.12719 0.77061 0.0
C422 C 0.42754 0.07807 0.76567 0.0
O423 O 0.40279 0.18463 0.77506 0.0
O424 O 0.41223 0.19055 0.75699 0.0
N425 N 0.32811 0.09205 0.78941 0.0
C426 C 0.35919 0.09671 0.79822 0.0
C427 C 0.27888 0.06553 0.80416 0.0
N428 N 0.27825 0.07295 0.79315 0.0
N429 N 0.32919 0.07979 0.80754 0.0
C430 C 0.34378 0.10937 0.72829 0.0
C431 C 0.42618 0.1401 0.72381 0.0
N432 N 0.37237 0.11959 0.73776 0.0
N433 N 0.4235 0.13886 0.73492 0.0
N434 N 0.37677 0.12193 0.71939 0.0
H435 H 0.2645 0.06311 0.73559 0.0
H436 H 0.27377 0.11746 0.72674 0.0
H437 H 0.26665 0.05667 0.72072 0.0
C438 C 0.28363 0.08481 0.72782 0.0
C439 C 0.41914 0.12009 0.79782 0.0
H440 H 0.43706 0.14793 0.7907 0.0
H441 H 0.43806 0.14207 0.8056 0.0
H442 H 0.42789 0.08667 0.797 0.0
O443 O 0.40426 0.08068 0.77439 0.0
O444 O 0.41236 0.08619 0.75635 0.0
C445 C 0.42411 0.21293 0.76645 0.0
O446 O 0.29323 0.02819 0.75195 0.0
O447 O 0.28484 0.02191 0.77003 0.0
Zn448 Zn 0.9298 0.26397 0.77303 0.0
O449 O 0.84864 0.24198 0.77538 0.0
C450 C 0.95721 0.37298 0.76632 0.0
Zn451 Zn 0.92484 0.26866 0.75465 0.0
C452 C 0.82104 0.23603 0.76671 0.0
O453 O 0.84394 0.24677 0.75731 0.0
C454 C 0.032 0.29045 0.76082 0.0
O455 O 0.89898 0.18609 0.75268 0.0
O456 O 0.9038 0.18142 0.77078 0.0
N457 N 0.91477 0.27825 0.73818 0.0
C458 C 0.92418 0.25964 0.72868 0.0
C459 C 0.8951 0.31286 0.72431 0.0
N460 N 0.89655 0.3111 0.73542 0.0
N461 N 0.9121 0.28086 0.71984 0.0
C462 C 0.93076 0.27839 0.79881 0.0
C463 C 0.97535 0.24071 0.80391 0.0
N464 N 0.94029 0.25717 0.78968 0.0
N465 N 0.96745 0.23329 0.79292 0.0
N466 N 0.95284 0.26897 0.80787 0.0
H467 H 0.89224 0.31708 0.79027 0.0
H468 H 0.86343 0.28755 0.80326 0.0
H469 H 0.92716 0.34959 0.80298 0.0
C470 C 0.90217 0.31032 0.79874 0.0
C471 C 0.94754 0.22305 0.72814 0.0
H472 H 0.96977 0.22546 0.73582 0.0
H473 H 0.91418 0.18074 0.72719 0.0
H474 H 0.97498 0.23346 0.72092 0.0
O475 O 0.00529 0.28842 0.75225 0.0
O476 O 0.01036 0.28363 0.77031 0.0
C477 C 0.8922 0.15832 0.76138 0.0
O478 O 0.95419 0.3461 0.77491 0.0
O479 O 0.94879 0.35053 0.75691 0.0
Zn480 Zn 0.3407 0.10215 0.60296 0.0
O481 O 0.39647 0.18534 0.60448 0.0
C482 C 0.42677 0.08219 0.597 0.0
Zn483 Zn 0.34953 0.1068 0.58453 0.0
C484 C 0.41694 0.21297 0.59574 0.0
O485 O 0.40549 0.1896 0.58638 0.0
C486 C 0.2691 -0.00271 0.59169 0.0
O487 O 0.28948 0.12772 0.58196 0.0
O488 O 0.28075 0.12206 0.60003 0.0
N489 N 0.36635 0.11192 0.56787 0.0
C490 C 0.33567 0.08977 0.55875 0.0
C491 C 0.41803 0.1284 0.5537 0.0
N492 N 0.41742 0.13635 0.56466 0.0
N493 N 0.36729 0.09921 0.54973 0.0
C494 C 0.35062 0.10841 0.62895 0.0
C495 C 0.26796 0.07628 0.63339 0.0
N496 N 0.3218 0.09565 0.61947 0.0
N497 N 0.27052 0.07565 0.62229 0.0
N498 N 0.31762 0.09649 0.63782 0.0
H499 H 0.42946 0.15767 0.62169 0.0
H500 H 0.42712 0.1628 0.63659 0.0
H501 H 0.42244 0.10343 0.63035 0.0
C502 C 0.41096 0.135 0.62941 0.0
C503 C 0.27516 0.05702 0.55881 0.0
H504 H 0.25853 0.05028 0.56727 0.0
H505 H 0.25863 0.07913 0.55421 0.0
H506 H 0.26142 0.01772 0.55462 0.0
O507 O 0.29231 0.02434 0.58307 0.0
O508 O 0.28349 0.01974 0.60111 0.0
C509 C 0.26772 0.13263 0.59071 0.0
O510 O 0.4024 0.08426 0.6056 0.0
O511 O 0.4112 0.08828 0.58751 0.0
Zn512 Zn 0.92705 0.26795 0.58508 0.0
O513 O 0.90341 0.1861 0.5827 0.0
C514 C 0.03532 0.29399 0.59252 0.0
Zn515 Zn 0.93044 0.2631 0.60349 0.0
C516 C 0.89759 0.15897 0.59144 0.0
O517 O 0.90867 0.18248 0.60076 0.0
C518 C 0.95378 0.3704 0.59731 0.0
O519 O 0.84789 0.23752 0.60488 0.0
O520 O 0.84475 0.24369 0.58679 0.0
N521 N 0.93608 0.25062 0.62001 0.0
C522 C 0.9237 0.26724 0.62943 0.0
C523 C 0.95405 0.21531 0.63401 0.0
N524 N 0.95498 0.21848 0.6229 0.0
N525 N 0.93474 0.24563 0.63835 0.0
C526 C 0.94943 0.27414 0.55969 0.0
C527 C 0.90198 0.30685 0.55351 0.0
N528 N 0.92293 0.27944 0.56838 0.0
N529 N 0.89323 0.29951 0.5645 0.0
N530 N 0.93743 0.29158 0.55029 0.0
H531 H 0.98095 0.22661 0.55259 0.0
H532 H 0.02746 0.28227 0.56098 0.0
H533 H 0.97473 0.22234 0.5675 0.0
C534 C 0.98489 0.24953 0.56027 0.0
C535 C 0.89834 0.3021 0.6298 0.0
H536 H 0.87604 0.29842 0.62205 0.0
H537 H 0.87047 0.29104 0.63695 0.0
H538 H 0.9306 0.34491 0.63071 0.0
O539 O 0.95007 0.34337 0.60595 0.0
O540 O 0.94811 0.3489 0.58784 0.0
C541 C 0.82093 0.23168 0.59611 0.0
O542 O 0.00909 0.29037 0.58377 0.0
O543 O 0.01228 0.28662 0.60184 0.0
Zn544 Zn 0.77141 0.69102 0.60303 0.0
O545 O 0.79691 0.63415 0.60441 0.0
C546 C 0.66395 0.60666 0.59698 0.0
Zn547 Zn 0.7662 0.68274 0.5846 0.0
C548 C 0.80288 0.61312 0.59566 0.0
O549 O 0.7908 0.62482 0.58632 0.0
C550 C 0.74036 0.76506 0.59207 0.0
O551 O 0.84797 0.74122 0.58211 0.0
O552 O 0.8521 0.74993 0.60018 0.0
N553 N 0.75431 0.66699 0.56787 0.0
C554 C 0.75891 0.6985 0.55913 0.0
C555 C 0.72749 0.61842 0.55304 0.0
N556 N 0.73503 0.61729 0.56404 0.0
N557 N 0.74183 0.66891 0.54976 0.0
C558 C 0.76751 0.67976 0.629 0.0
C559 C 0.81971 0.76194 0.63358 0.0
N560 N 0.7842 0.70896 0.61957 0.0
N561 N 0.81653 0.75994 0.62247 0.0
N562 N 0.78923 0.71222 0.63792 0.0
H563 H 0.73615 0.601 0.62161 0.0
H564 H 0.74342 0.6025 0.63651 0.0
H565 H 0.68972 0.60904 0.63027 0.0
C566 C 0.73249 0.61952 0.62936 0.0
C567 C 0.78254 0.75846 0.55966 0.0
H568 H 0.81014 0.77592 0.56682 0.0
H569 H 0.80481 0.7777 0.55192 0.0
H570 H 0.74925 0.7674 0.56048 0.0
O571 O 0.74365 0.74241 0.58332 0.0
O572 O 0.74795 0.74936 0.60139 0.0
C573 C 0.87537 0.7624 0.59082 0.0
O574 O 0.69114 0.63023 0.60558 0.0
O575 O 0.68523 0.62245 0.58747 0.0
H576 H 0.49088 0.90115 0.08161 0.0
H577 H 0.60725 0.75157 0.11793 0.0
H578 H 0.49524 0.90875 0.11732 0.0
H579 H 0.62772 0.77346 0.08256 0.0
H580 H 0.57444 0.81571 0.11836 0.0
H581 H 0.54405 0.8565 0.08214 0.0
C582 C 0.50258 0.89296 0.08959 0.0
C583 C 0.48826 0.90844 0.09944 0.0
C584 C 0.58718 0.80728 0.11054 0.0
C585 C 0.55011 0.85778 0.1001 0.0
C586 C 0.60639 0.771 0.1103 0.0
C587 C 0.61887 0.75605 0.10014 0.0
C588 C 0.58041 0.82839 0.10056 0.0
C589 C 0.61748 0.78295 0.09054 0.0
C590 C 0.53358 0.86798 0.08988 0.0
C591 C 0.5051 0.89716 0.10952 0.0
N592 N 0.59744 0.81699 0.09096 0.0
N593 N 0.53503 0.87224 0.1096 0.0
H594 H 0.2716 0.88067 0.11756 0.0
H595 H 0.13854 0.61171 0.08231 0.0
H596 H 0.26 0.87573 0.08193 0.0
H597 H 0.11785 0.61087 0.11773 0.0
H598 H 0.18191 0.70944 0.08235 0.0
H599 H 0.20899 0.78347 0.11816 0.0
C600 C 0.25496 0.85953 0.10988 0.0
C601 C 0.27266 0.88608 0.09967 0.0
C602 C 0.16786 0.68804 0.09013 0.0
C603 C 0.2017 0.77502 0.10028 0.0
C604 C 0.14364 0.63213 0.09014 0.0
C605 C 0.12466 0.60303 0.10005 0.0
C606 C 0.17377 0.7154 0.10011 0.0
C607 C 0.13221 0.6318 0.10991 0.0
C608 C 0.21939 0.8039 0.11023 0.0
C609 C 0.24859 0.85675 0.09 0.0
N610 N 0.15638 0.68661 0.1097 0.0
N611 N 0.21525 0.80255 0.09053 0.0
H612 H 0.14798 0.40989 0.11718 0.0
H613 H 0.41613 0.54254 0.08135 0.0
H614 H 0.15128 0.40654 0.08151 0.0
H615 H 0.4169 0.52964 0.11697 0.0
H616 H 0.31831 0.48783 0.08147 0.0
H617 H 0.24494 0.44336 0.11751 0.0
C618 C 0.16871 0.41489 0.10943 0.0
C619 C 0.14177 0.40728 0.0993 0.0
C620 C 0.33973 0.4968 0.08927 0.0
C621 C 0.25267 0.44616 0.0996 0.0
C622 C 0.39568 0.52866 0.08923 0.0
C623 C 0.42478 0.541 0.09918 0.0
C624 C 0.31235 0.47735 0.09935 0.0
C625 C 0.396 0.52143 0.10911 0.0
C626 C 0.22422 0.43435 0.10962 0.0
C627 C 0.17057 0.41312 0.08952 0.0
N628 N 0.34122 0.49062 0.10895 0.0
N629 N 0.22472 0.43336 0.08991 0.0
H630 H 0.90605 0.50207 0.90541 0.0
H631 H 0.76997 0.6339 0.94194 0.0
H632 H 0.88917 0.49043 0.94098 0.0
H633 H 0.75047 0.61619 0.90648 0.0
H634 H 0.83411 0.6016 0.94109 0.0
H635 H 0.86285 0.55763 0.90517 0.0
C636 C 0.89273 0.51063 0.91314 0.0
C637 C 0.90092 0.49134 0.92323 0.0
C638 C 0.81641 0.60555 0.93347 0.0
C639 C 0.85333 0.55592 0.92303 0.0
C640 C 0.78025 0.62459 0.93393 0.0
C641 C 0.7536 0.62609 0.92431 0.0
C642 C 0.82569 0.58774 0.92333 0.0
C643 C 0.76923 0.61448 0.91414 0.0
C644 C 0.8687 0.54278 0.913 0.0
C645 C 0.88344 0.50412 0.933 0.0
N646 N 0.80344 0.59451 0.91393 0.0
N647 N 0.86067 0.53574 0.93265 0.0
H648 H 0.40131 0.15587 0.94135 0.0
H649 H 0.53094 0.42585 0.90514 0.0
H650 H 0.42213 0.15693 0.90598 0.0
H651 H 0.53731 0.41948 0.9408 0.0
H652 H 0.4774 0.32684 0.90478 0.0
H653 H 0.43161 0.25198 0.94063 0.0
C654 C 0.41099 0.17597 0.93338 0.0
C655 C 0.4107 0.14862 0.92374 0.0
C656 C 0.49059 0.34735 0.91266 0.0
C657 C 0.44666 0.2588 0.9229 0.0
C658 C 0.52155 0.40369 0.91287 0.0
C659 C 0.53894 0.43091 0.92301 0.0
C660 C 0.47676 0.3184 0.92266 0.0
C661 C 0.52514 0.40029 0.93278 0.0
C662 C 0.42881 0.231 0.93299 0.0
C663 C 0.42278 0.17656 0.91363 0.0
N664 N 0.49481 0.34576 0.93235 0.0
N665 N 0.44144 0.23055 0.91349 0.0
H666 H 0.60879 0.12341 0.90503 0.0
H667 H 0.87912 0.25934 0.94111 0.0
H668 H 0.61563 0.13175 0.94073 0.0
H669 H 0.87806 0.28397 0.90587 0.0
H670 H 0.78315 0.19297 0.94028 0.0
H671 H 0.70777 0.16833 0.90457 0.0
C672 C 0.63105 0.13504 0.91275 0.0
C673 C 0.60395 0.12428 0.92293 0.0
C674 C 0.80407 0.21227 0.93269 0.0
C675 C 0.7165 0.17402 0.92246 0.0
C676 C 0.85904 0.24976 0.93314 0.0
C677 C 0.88626 0.27834 0.9236 0.0
C678 C 0.77618 0.20357 0.92265 0.0
C679 C 0.85838 0.26363 0.91347 0.0
C680 C 0.68739 0.16015 0.91248 0.0
C681 C 0.63472 0.13964 0.93268 0.0
N682 N 0.80439 0.22803 0.91329 0.0
N683 N 0.68925 0.16361 0.9322 0.0
H684 H 0.29436 0.10593 0.41472 0.0
H685 H 0.16516 0.24428 0.45143 0.0
H686 H 0.27829 0.08832 0.45023 0.0
H687 H 0.15815 0.2335 0.41576 0.0
H688 H 0.21956 0.19985 0.45156 0.0
H689 H 0.26327 0.17107 0.41551 0.0
C690 C 0.28563 0.11679 0.42272 0.0
C691 C 0.28744 0.09052 0.43238 0.0
C692 C 0.20606 0.20735 0.44373 0.0
C693 C 0.25046 0.16388 0.43331 0.0
C694 C 0.17461 0.23216 0.44365 0.0
C695 C 0.15671 0.2422 0.43357 0.0
C696 C 0.21989 0.19293 0.43366 0.0
C697 C 0.17065 0.22623 0.42373 0.0
C698 C 0.2673 0.15357 0.42316 0.0
C699 C 0.27645 0.10683 0.44254 0.0
N700 N 0.20143 0.20249 0.42403 0.0
N701 N 0.25722 0.14168 0.44273 0.0
H702 H 0.94053 0.21229 0.45156 0.0
H703 H 0.79809 0.94647 0.41541 0.0
H704 H 0.92568 0.21061 0.41601 0.0
H705 H 0.78345 0.94314 0.45101 0.0
H706 H 0.84237 0.04419 0.41581 0.0
H707 H 0.87601 0.11555 0.45195 0.0
C708 C 0.92276 0.19202 0.44386 0.0
C709 C 0.93998 0.2193 0.43371 0.0
C710 C 0.82943 0.02227 0.42355 0.0
C711 C 0.86684 0.10865 0.43408 0.0
C712 C 0.80464 0.96633 0.42335 0.0
C713 C 0.78726 0.93653 0.43321 0.0
C714 C 0.83756 0.049 0.4337 0.0
C715 C 0.79658 0.96462 0.44323 0.0
C716 C 0.88611 0.13661 0.44409 0.0
C717 C 0.91462 0.19101 0.42402 0.0
N718 N 0.82138 0.01949 0.44322 0.0
N719 N 0.88018 0.13698 0.42442 0.0
H720 H 0.0842 0.88536 0.41542 0.0
H721 H 0.81311 0.74326 0.44998 0.0
H722 H 0.08294 0.86011 0.45071 0.0
H723 H 0.82053 0.74452 0.41431 0.0
H724 H 0.91018 0.77739 0.45072 0.0
H725 H 0.98658 0.83098 0.41519 0.0
C726 C 0.06332 0.86881 0.42317 0.0
C727 C 0.09182 0.87742 0.43312 0.0
C728 C 0.89032 0.7692 0.44274 0.0
C729 C 0.97948 0.81413 0.43286 0.0
C730 C 0.83478 0.74943 0.44231 0.0
C731 C 0.80901 0.74302 0.43207 0.0
C732 C 0.91987 0.78248 0.43285 0.0
C733 C 0.83892 0.75022 0.4224 0.0
C734 C 0.00746 0.83712 0.423 0.0
C735 C 0.06247 0.85475 0.44287 0.0
N736 N 0.89303 0.77072 0.42303 0.0
N737 N 0.00766 0.8241 0.44251 0.0
H738 H 0.43835 0.96589 0.2746 0.0
H739 H 0.57555 0.83373 0.23846 0.0
H740 H 0.41962 0.94671 0.23918 0.0
H741 H 0.56431 0.82801 0.27414 0.0
H742 H 0.53093 0.88791 0.23812 0.0
H743 H 0.5029 0.93406 0.27398 0.0
C744 C 0.44875 0.95625 0.26664 0.0
C745 C 0.42223 0.95737 0.25695 0.0
C746 C 0.53834 0.87471 0.246 0.0
C747 C 0.49505 0.91969 0.25623 0.0
C748 C 0.56325 0.84337 0.2462 0.0
C749 C 0.57331 0.82601 0.25634 0.0
C750 C 0.52386 0.88894 0.25601 0.0
C751 C 0.55707 0.84014 0.26612 0.0
C752 C 0.48522 0.93752 0.26631 0.0
C753 C 0.43808 0.9453 0.24687 0.0
N754 N 0.53328 0.87085 0.2657 0.0
N755 N 0.47269 0.92579 0.24678 0.0
H756 H 0.19601 0.75798 0.23967 0.0
H757 H 0.073 0.49032 0.27646 0.0
H758 H 0.20479 0.75474 0.27533 0.0
H759 H 0.08327 0.48963 0.24085 0.0
H760 H 0.10316 0.5864 0.27583 0.0
H761 H 0.14222 0.65914 0.23966 0.0
C762 C 0.18705 0.73652 0.24748 0.0
C763 C 0.20532 0.76461 0.25751 0.0
C764 C 0.0981 0.56506 0.26813 0.0
C765 C 0.14289 0.65205 0.25756 0.0
C766 C 0.08033 0.51002 0.26847 0.0
C767 C 0.07724 0.4822 0.2587 0.0
C768 C 0.11302 0.59241 0.25795 0.0
C769 C 0.08634 0.50968 0.2486 0.0
C770 C 0.15594 0.68022 0.24747 0.0
C771 C 0.192 0.73483 0.26739 0.0
N772 N 0.105 0.56367 0.24848 0.0
N773 N 0.1616 0.68022 0.26716 0.0
H774 H 0.54727 0.61683 0.23844 0.0
H775 H 0.28264 0.4703 0.27486 0.0
H776 H 0.54648 0.59391 0.27378 0.0
H777 H 0.27755 0.45868 0.2392 0.0
H778 H 0.38031 0.514 0.27422 0.0
H779 H 0.45024 0.55258 0.23801 0.0
C780 C 0.5271 0.59709 0.24606 0.0
C781 C 0.55465 0.6119 0.25622 0.0
C782 C 0.35801 0.50184 0.26652 0.0
C783 C 0.44388 0.53947 0.25579 0.0
C784 C 0.3021 0.47742 0.26686 0.0
C785 C 0.27181 0.46103 0.25706 0.0
C786 C 0.38423 0.51064 0.25628 0.0
C787 C 0.29942 0.47103 0.24695 0.0
C788 C 0.47158 0.56075 0.24581 0.0
C789 C 0.5266 0.58458 0.2658 0.0
N790 N 0.35427 0.49549 0.24682 0.0
N791 N 0.4725 0.55053 0.26538 0.0
H792 H 0.82997 0.5754 0.78528 0.0
H793 H 0.96888 0.44296 0.74977 0.0
H794 H 0.82954 0.56705 0.74959 0.0
H795 H 0.94248 0.41837 0.78498 0.0
H796 H 0.93719 0.50764 0.75039 0.0
H797 H 0.88449 0.53112 0.78594 0.0
C798 C 0.84086 0.56382 0.7776 0.0
C799 C 0.82483 0.57454 0.76737 0.0
C800 C 0.93909 0.48872 0.75802 0.0
C801 C 0.88819 0.52555 0.76806 0.0
C802 C 0.95776 0.45222 0.75769 0.0
C803 C 0.95688 0.42415 0.76729 0.0
C804 C 0.91917 0.49693 0.768 0.0
C805 C 0.94285 0.43839 0.77735 0.0
C806 C 0.87237 0.5391 0.77798 0.0
C807 C 0.84055 0.55923 0.75768 0.0
N808 N 0.92333 0.47302 0.77741 0.0
N809 N 0.87142 0.53566 0.75827 0.0
H810 H 0.59039 0.54864 0.74959 0.0
H811 H 0.45688 0.27636 0.7851 0.0
H812 H 0.61613 0.54586 0.78474 0.0
H813 H 0.46255 0.28482 0.7494 0.0
H814 H 0.50211 0.37528 0.78577 0.0
H815 H 0.52483 0.4524 0.75025 0.0
C816 C 0.58122 0.52808 0.75751 0.0
C817 C 0.60978 0.55497 0.76707 0.0
C818 C 0.49331 0.35528 0.77781 0.0
C819 C 0.53596 0.44457 0.76783 0.0
C820 C 0.468 0.29896 0.77742 0.0
C821 C 0.45636 0.27232 0.76718 0.0
C822 C 0.50652 0.38488 0.76789 0.0
C823 C 0.47111 0.30354 0.75749 0.0
C824 C 0.5442 0.47297 0.75786 0.0
C825 C 0.59568 0.52648 0.77713 0.0
N826 N 0.49531 0.35807 0.75809 0.0
N827 N 0.56051 0.47237 0.77721 0.0
H828 H 0.48705 0.07224 0.74867 0.0
H829 H 0.756 0.2001 0.7851 0.0
H830 H 0.48705 0.0869 0.7842 0.0
H831 H 0.75095 0.2086 0.74946 0.0
H832 H 0.65712 0.14581 0.78532 0.0
H833 H 0.58335 0.10347 0.74931 0.0
C834 C 0.50697 0.08076 0.75665 0.0
C835 C 0.47926 0.07858 0.76638 0.0
C836 C 0.67785 0.15963 0.77747 0.0
C837 C 0.58967 0.1156 0.76713 0.0
C838 C 0.73414 0.19104 0.77735 0.0
C839 C 0.76171 0.20923 0.76726 0.0
C840 C 0.64926 0.14619 0.76743 0.0
C841 C 0.73146 0.19581 0.75744 0.0
C842 C 0.56211 0.09913 0.757 0.0
C843 C 0.50699 0.08917 0.77648 0.0
N844 N 0.67693 0.16505 0.75778 0.0
N845 N 0.56108 0.10842 0.77659 0.0
H846 H 0.09077 0.2943 0.57394 0.0
H847 H 0.21715 0.14828 0.60809 0.0
H848 H 0.09589 0.29032 0.60959 0.0
H849 H 0.24411 0.17776 0.57297 0.0
H850 H 0.17391 0.20259 0.60845 0.0
H851 H 0.15341 0.25984 0.57311 0.0
C852 C 0.10594 0.2874 0.58158 0.0
C853 C 0.08635 0.29312 0.59184 0.0
C854 C 0.1893 0.19739 0.60064 0.0
C855 C 0.15744 0.25339 0.59096 0.0
C856 C 0.21347 0.16575 0.6004 0.0
C857 C 0.23422 0.15837 0.59047 0.0
C858 C 0.1852 0.2216 0.59087 0.0
C859 C 0.22832 0.18216 0.58079 0.0
C860 C 0.14156 0.26749 0.5811 0.0
C861 C 0.10874 0.28515 0.60149 0.0
N862 N 0.20418 0.21276 0.58122 0.0
N863 N 0.14219 0.26453 0.60081 0.0
H864 H 0.74373 0.82242 0.57353 0.0
H865 H 0.87474 0.09113 0.60893 0.0
H866 H 0.73984 0.82687 0.60918 0.0
H867 H 0.85771 0.09153 0.57341 0.0
H868 H 0.82125 -0.00662 0.6089 0.0
H869 H 0.77598 0.91914 0.57301 0.0
C870 C 0.74834 0.84333 0.58123 0.0
C871 C 0.74088 0.81683 0.59142 0.0
C872 C 0.829 0.01466 0.60109 0.0
C873 C 0.77835 0.92743 0.5909 0.0
C874 C 0.86016 0.07061 0.60109 0.0
C875 C 0.87099 0.0996 0.59114 0.0
C876 C 0.80877 0.9871 0.59107 0.0
C877 C 0.85064 0.07069 0.58125 0.0
C878 C 0.76708 0.8987 0.58093 0.0
C879 C 0.74632 0.84585 0.60114 0.0
N880 N 0.82056 0.01583 0.58146 0.0
N881 N 0.76583 0.89984 0.60064 0.0
H882 H 0.21195 0.94876 0.57282 0.0
H883 H 0.94389 0.80519 0.60827 0.0
H884 H 0.20777 0.92993 0.60832 0.0
H885 H 0.9423 0.79152 0.57266 0.0
H886 H 0.04155 0.84877 0.60807 0.0
H887 H 0.11505 0.88436 0.57213 0.0
C888 C 0.19107 0.92992 0.58044 0.0
C889 C 0.21764 0.94596 0.59069 0.0
C890 C 0.02003 0.83619 0.60028 0.0
C891 C 0.10696 0.87328 0.58995 0.0
C892 C 0.96412 0.81182 0.60037 0.0
C893 C 0.9348 0.7949 0.59045 0.0
C894 C 0.04727 0.84441 0.59019 0.0
C895 C 0.9634 0.80432 0.58049 0.0
C896 C 0.13562 0.89347 0.58004 0.0
C897 C 0.18869 0.91968 0.60026 0.0
N898 N 0.01826 0.82873 0.5806 0.0
N899 N 0.13465 0.88548 0.59968 0.0
H900 H 0.5092 0.05656 0.04136 0.0
H901 H 0.36453 0.98116 0.98191 0.0
H902 H 0.3387 0.94782 0.03669 0.0
H903 H 0.53491 0.0908 0.98647 0.0
H904 H 0.35435 0.96756 1.00195 0.0
H905 H 0.5196 0.07078 0.02132 0.0
C906 C 0.4738 0.03661 0.03614 0.0
C907 C 0.42281 0.00186 0.0407 0.0
C908 C 0.3941 -0.00573 0.99858 0.0
C909 C 0.43452 0.01639 0.01773 0.0
C910 C 0.39998 0.00143 0.98712 0.0
C911 C 0.45088 0.03615 0.98252 0.0
C912 C 0.4394 0.02237 1.0055 0.0
C913 C 0.49507 0.06336 0.9897 0.0
C914 C 0.4798 0.04414 0.02468 0.0
C915 C 0.37864 0.97518 0.03349 0.0
N916 N 0.48837 0.05586 1.00082 0.0
N917 N 0.38547 0.983 0.02238 0.0
H918 H 0.9102 0.41618 0.98674 0.0
H919 H 0.10959 0.51609 0.03697 0.0
H920 H 0.07034 0.43838 0.98298 0.0
H921 H 0.94853 0.37987 0.04118 0.0
H922 H 0.09601 0.50835 0.01695 0.0
H923 H 0.92306 0.42236 1.0068 0.0
C924 C 0.94836 0.42309 0.99005 0.0
C925 C -0.01016 0.4285 0.98296 0.0
C926 C 0.06358 0.48073 0.02234 0.0
C927 C 0.00476 0.43648 1.00595 0.0
C928 C 0.07108 0.48502 0.03377 0.0
C929 C 0.02967 0.44963 0.04098 0.0
C930 C 0.01392 0.4415 0.01801 0.0
C931 C 0.98083 0.40997 0.03621 0.0
C932 C 0.95544 0.4265 1.0015 0.0
C933 C 0.03814 0.43688 0.98785 0.0
N934 N 0.97412 0.4074 0.02503 0.0
N935 N 0.04449 0.44129 0.99903 0.0
H936 H 0.566 0.49395 0.9864 0.0
H937 H 0.61695 0.69417 0.03711 0.0
H938 H 0.62581 0.66449 0.98252 0.0
H939 H 0.55478 0.52326 0.04109 0.0
H940 H 0.6211 0.68416 0.01711 0.0
H941 H 0.56189 0.50365 1.00644 0.0
C942 C 0.57771 0.53335 0.98979 0.0
C943 C 0.59516 0.57825 0.98278 0.0
C944 C 0.60695 0.64884 0.02234 0.0
C945 C 0.59135 0.58998 1.00572 0.0
C946 C 0.60467 0.65458 0.03375 0.0
C947 C 0.58648 0.60968 0.04078 0.0
C948 C 0.59043 0.5976 0.01787 0.0
C949 C 0.57061 0.55918 0.03602 0.0
C950 C 0.57546 0.53892 1.00122 0.0
C951 C 0.61047 0.62854 0.98758 0.0
N952 N 0.57288 0.55449 0.02485 0.0
N953 N 0.60827 0.63306 0.99874 0.0
H954 H 0.17744 0.38828 0.37549 0.0
H955 H 0.03422 0.3123 0.31592 0.0
H956 H 0.00705 0.2795 0.37068 0.0
H957 H 0.20443 0.42223 0.32062 0.0
H958 H 0.02363 0.29851 0.33595 0.0
H959 H 0.18837 0.40209 0.35545 0.0
C960 C 0.14218 0.36823 0.37024 0.0
C961 C 0.09105 0.33362 0.37476 0.0
C962 C 0.06344 0.32531 0.33261 0.0
C963 C 0.10338 0.34765 0.35179 0.0
C964 C 0.06955 0.33257 0.32115 0.0
C965 C 0.12051 0.36747 0.3166 0.0
C966 C 0.10856 0.3535 0.33957 0.0
C967 C 0.16455 0.39465 0.32382 0.0
C968 C 0.14848 0.37552 0.35878 0.0
C969 C 0.04708 0.30678 0.36751 0.0
N970 N 0.15762 0.38708 0.33493 0.0
N971 N 0.05419 0.31437 0.35641 0.0
H972 H 0.63864 0.70013 0.3743 0.0
H973 H 0.71824 0.84763 0.31512 0.0
H974 H 0.75011 0.87035 0.37007 0.0
H975 H 0.60893 0.67696 0.31941 0.0
H976 H 0.73087 0.85706 0.3352 0.0
H977 H 0.62556 0.69109 0.35423 0.0
C978 C 0.65941 0.7358 0.36916 0.0
C979 C 0.69457 0.78631 0.37386 0.0
C980 C 0.70443 0.81744 0.33175 0.0
C981 C 0.68138 0.77611 0.35085 0.0
C982 C 0.69782 0.81199 0.32026 0.0
C983 C 0.66342 0.76122 0.31558 0.0
C984 C 0.6761 0.77185 0.3386 0.0
C985 C 0.63607 0.71674 0.3227 0.0
C986 C 0.65254 0.73057 0.35769 0.0
C987 C 0.72234 0.8308 0.36676 0.0
N988 N 0.64301 0.72304 0.33383 0.0
N989 N 0.71514 0.82472 0.35563 0.0
H990 H 0.18641 0.89347 0.31527 0.0
H991 H 0.33003 0.96207 0.37482 0.0
H992 H 0.35652 0.95373 0.3201 0.0
H993 H 0.16041 0.9046 0.37007 0.0
H994 H 0.34029 0.95759 0.35482 0.0
H995 H 0.17579 0.89757 0.33529 0.0
C996 C 0.22169 0.90865 0.32052 0.0
C997 C 0.27265 0.92444 0.31601 0.0
C998 C 0.30067 0.94549 0.35815 0.0
C999 C 0.26065 0.92752 0.33896 0.0
C1000 C 0.29474 0.94736 0.36959 0.0
C1001 C 0.24404 0.93246 0.37412 0.0
C1002 C 0.25564 0.92897 0.35117 0.0
C1003 C 0.20008 0.91602 0.36688 0.0
C1004 C 0.21556 0.91034 0.33197 0.0
C1005 C 0.31663 0.94154 0.32327 0.0
N1006 N 0.20683 0.91463 0.35579 0.0
N1007 N 0.30967 0.94268 0.33436 0.0
H1008 H 0.84592 0.71935 0.70821 0.0
H1009 H 0.69746 0.64358 0.64915 0.0
H1010 H 0.67539 0.60934 0.70397 0.0
H1011 H 0.86755 0.75555 0.65336 0.0
H1012 H 0.68882 0.62879 0.66917 0.0
H1013 H 0.85496 0.73337 0.68816 0.0
C1014 C 0.81022 0.69903 0.70308 0.0
C1015 C 0.7596 0.66409 0.70777 0.0
C1016 C 0.72817 0.65626 0.66572 0.0
C1017 C 0.76978 0.67839 0.68478 0.0
C1018 C 0.73318 0.66412 0.65426 0.0
C1019 C 0.78354 0.69991 0.64958 0.0
C1020 C 0.77379 0.68472 0.67255 0.0
C1021 C 0.8281 0.72733 0.65667 0.0
C1022 C 0.81545 0.70646 0.69161 0.0
C1023 C 0.71506 0.63689 0.70067 0.0
N1024 N 0.82224 0.71916 0.66778 0.0
N1025 N 0.72113 0.64466 0.68955 0.0
H1026 H 0.38743 0.0754 0.64916 0.0
H1027 H 0.30793 0.14478 0.70809 0.0
H1028 H 0.27201 0.1291 0.65319 0.0
H1029 H 0.42136 0.08859 0.70397 0.0
H1030 H 0.29357 0.13892 0.68803 0.0
H1031 H 0.40171 0.08156 0.6692 0.0
C1032 C 0.366 0.08962 0.65424 0.0
C1033 C 0.32942 0.10298 0.6495 0.0
C1034 C 0.3213 0.12745 0.69152 0.0
C1035 C 0.34404 0.1084 0.67248 0.0
C1036 C 0.32893 0.13014 0.70299 0.0
C1037 C 0.36501 0.11602 0.70771 0.0
C1038 C 0.35029 0.11091 0.68472 0.0
C1039 C 0.39297 0.09954 0.70064 0.0
C1040 C 0.37357 0.09246 0.66571 0.0
C1041 C 0.30087 0.11885 0.65654 0.0
N1042 N 0.38501 0.09738 0.68953 0.0
N1043 N 0.3088 0.12121 0.66766 0.0
H1044 H 0.95804 0.33728 0.64957 0.0
H1045 H 0.88609 0.18843 0.70859 0.0
H1046 H 0.8999 0.16719 0.65376 0.0
H1047 H 0.94671 0.35898 0.70437 0.0
H1048 H 0.89089 0.17953 0.68854 0.0
H1049 H 0.95224 0.3458 0.6696 0.0
C1050 C 0.94293 0.30154 0.65468 0.0
C1051 C 0.92827 0.25122 0.65 0.0
C1052 C 0.90356 0.21902 0.692 0.0
C1053 C 0.92322 0.26081 0.67295 0.0
C1054 C 0.90147 0.22416 0.70347 0.0
C1055 C 0.91719 0.27473 0.70815 0.0
C1056 C 0.9211 0.26473 0.68518 0.0
C1057 C 0.93455 0.31934 0.70106 0.0
C1058 C 0.94028 0.30647 0.66614 0.0
C1059 C 0.9112 0.2066 0.65707 0.0
N1060 N 0.93613 0.31336 0.68995 0.0
N1061 N 0.90908 0.21239 0.66818 0.0
H1062 H 0.2123 0.92552 0.19681 0.0
H1063 H 0.48162 0.06198 0.15988 0.0
H1064 H 0.37278 -0.00142 0.21049 0.0
H1065 H 0.32119 0.9747 0.14618 0.0
H1066 H 0.44271 0.03896 0.17855 0.0
H1067 H 0.25121 0.94273 0.17813 0.0
C1068 C 0.25569 0.9446 0.19584 0.0
C1069 C 0.28931 0.95939 0.20516 0.0
C1070 C 0.416 0.02426 0.17146 0.0
C1071 C 0.33434 0.9801 0.18391 0.0
C1072 C 0.43824 0.03744 0.16084 0.0
C1073 C 0.40464 0.01902 0.15152 0.0
C1074 C 0.3596 -0.00683 0.17276 0.0
C1075 C 0.3486 0.98801 0.15315 0.0
C1076 C 0.27793 0.95442 0.18521 0.0
C1077 C 0.34536 0.98477 0.20352 0.0
N1078 N 0.32783 0.97617 0.16355 0.0
N1079 N 0.36612 -0.00556 0.19312 0.0
H1080 H 0.05767 0.36693 0.14634 0.0
H1081 H 0.03164 0.39505 0.21167 0.0
H1082 H 0.9711 0.43927 0.16064 0.0
H1083 H 0.10221 0.30684 0.19736 0.0
H1084 H 0.0157 0.41821 0.1931 0.0
H1085 H 0.08101 0.35119 0.16491 0.0
C1086 C 0.04465 0.38063 0.1534 0.0
C1087 C 0.01365 0.40576 0.15198 0.0
C1088 C 0.03514 0.39421 0.19399 0.0
C1089 C 0.03864 0.3863 0.17329 0.0
C1090 C 0.04488 0.38159 0.2046 0.0
C1091 C 0.06958 0.35019 0.20603 0.0
C1092 C 0.04994 0.37503 0.18471 0.0
C1093 C 0.08355 0.33158 0.19657 0.0
C1094 C 0.05735 0.37099 0.16401 0.0
C1095 C -0.00445 0.42029 0.16143 0.0
N1096 N 0.07371 0.3444 0.18631 0.0
N1097 N 0.00843 0.41051 0.17169 0.0
H1098 H 0.75749 0.72862 0.20392 0.0
H1099 H 0.54498 0.61459 0.15421 0.0
H1100 H 0.62082 0.75351 0.20243 0.0
H1101 H 0.70621 0.63883 0.15225 0.0
H1102 H 0.56665 0.65767 0.17247 0.0
H1103 H 0.73434 0.68786 0.18558 0.0
C1104 C 0.72243 0.72534 0.19974 0.0
C1105 C 0.69043 0.74351 0.20487 0.0
C1106 C 0.59735 0.65392 0.16797 0.0
C1107 C 0.66334 0.69646 0.18379 0.0
C1108 C 0.58521 0.6299 0.15748 0.0
C1109 C 0.62434 0.62438 0.15153 0.0
C1110 C 0.64862 0.67158 0.17262 0.0
C1111 C 0.67489 0.64238 0.15652 0.0
C1112 C 0.70915 0.70196 0.18927 0.0
C1113 C 0.64544 0.73823 0.19904 0.0
N1114 N 0.68553 0.66507 0.16673 0.0
N1115 N 0.63305 0.71494 0.18883 0.0
H1116 H 0.09043 0.39621 0.87161 0.0
H1117 H 0.88211 0.28143 0.8212 0.0
H1118 H 0.9529 0.41951 0.86949 0.0
H1119 H 0.04421 0.30761 0.81982 0.0
H1120 H 0.90176 0.32363 0.83952 0.0
H1121 H 0.06893 0.35536 0.85326 0.0
C1122 C 0.05552 0.39254 0.86729 0.0
C1123 C 0.0228 0.41031 0.87223 0.0
C1124 C 0.93308 0.32047 0.83515 0.0
C1125 C -0.00237 0.36321 0.85116 0.0
C1126 C 0.92209 0.29693 0.82461 0.0
C1127 C 0.96208 0.2923 0.8188 0.0
C1128 C 0.98405 0.33852 0.83997 0.0
C1129 C 0.01226 0.31052 0.82397 0.0
C1130 C 0.04319 0.36912 0.85682 0.0
C1131 C 0.97804 0.40455 0.86624 0.0
N1132 N 0.02178 0.33275 0.83422 0.0
N1133 N 0.96661 0.38127 0.85603 0.0
H1134 H 0.61611 0.55582 0.86982 0.0
H1135 H 0.72827 0.76258 0.81909 0.0
H1136 H 0.64287 0.71816 0.87111 0.0
H1137 H 0.75157 0.62502 0.82115 0.0
H1138 H 0.6887 0.74175 0.83756 0.0
H1139 H 0.65756 0.57494 0.85141 0.0
C1140 C 0.6316 0.59575 0.86637 0.0
C1141 C 0.62729 0.63594 0.87218 0.0
C1142 C 0.70217 0.71585 0.83396 0.0
C1143 C 0.67264 0.6573 0.85091 0.0
C1144 C 0.72486 0.72779 0.82342 0.0
C1145 C 0.74227 0.69488 0.81842 0.0
C1146 C 0.69662 0.67048 0.83964 0.0
C1147 C 0.73686 0.65031 0.82444 0.0
C1148 C 0.65471 0.60644 0.85579 0.0
C1149 C 0.64552 0.68605 0.86696 0.0
N1150 N 0.71428 0.63925 0.83472 0.0
N1151 N 0.6673 0.69525 0.85666 0.0
H1152 H 0.30136 0.10555 0.82694 0.0
H1153 H 0.43501 0.96814 0.86345 0.0
H1154 H 0.38833 0.0329 0.81299 0.0
H1155 H 0.36389 0.05656 0.87739 0.0
H1156 H 0.41786 0.99084 0.84483 0.0
H1157 H 0.32334 0.08762 0.84556 0.0
C1158 C 0.3256 0.08637 0.82784 0.0
C1159 C 0.34424 0.07192 0.81847 0.0
C1160 C 0.40653 0.00582 0.85196 0.0
C1161 C 0.36889 0.05041 0.83963 0.0
C1162 C 0.41629 -0.00719 0.86255 0.0
C1163 C 0.40209 0.01167 0.87192 0.0
C1164 C 0.38151 0.0372 0.85075 0.0
C1165 C 0.37721 0.04286 0.87038 0.0
C1166 C 0.33818 0.07614 0.83843 0.0
C1167 C 0.37484 0.04641 0.82001 0.0
N1168 N 0.36762 0.05456 0.86001 0.0
N1169 N 0.38611 0.03636 0.83038 0.0
H1170 H 0.04352 0.33632 0.54509 0.0
H1171 H 0.98815 0.30936 0.4798 0.0
H1172 H 0.88454 0.26646 0.53077 0.0
H1173 H 0.14755 0.39567 0.49402 0.0
H1174 H 0.94945 0.28657 0.49838 0.0
H1175 H 0.08238 0.35172 0.52652 0.0
C1176 C 0.01673 0.3231 0.53802 0.0
C1177 C 0.96064 0.29877 0.53943 0.0
C1178 C -0.00707 0.31006 0.49747 0.0
C1179 C 0.00483 0.31782 0.51814 0.0
C1180 C 0.01504 0.32244 0.48686 0.0
C1181 C 0.07119 0.35315 0.48541 0.0
C1182 C 0.0272 0.32884 0.50673 0.0
C1183 C 0.1041 0.37141 0.49484 0.0
C1184 C 0.03894 0.33254 0.52741 0.0
C1185 C 0.92792 0.28483 0.52998 0.0
N1186 N 0.08166 0.35884 0.50511 0.0
N1187 N 0.95045 0.29439 0.51973 0.0
H1188 H 0.72284 0.69918 0.4791 0.0
H1189 H 0.69648 0.72957 0.54434 0.0
H1190 H 0.63385 0.7695 0.49314 0.0
H1191 H 0.76709 0.64083 0.53031 0.0
H1192 H 0.68037 0.75183 0.5257 0.0
H1193 H 0.74657 0.68465 0.49774 0.0
C1194 C 0.70933 0.71266 0.48612 0.0
C1195 C 0.67753 0.73686 0.4846 0.0
C1196 C 0.69987 0.72792 0.52667 0.0
C1197 C 0.70304 0.71885 0.50599 0.0
C1198 C 0.70972 0.71583 0.53732 0.0
C1199 C 0.73443 0.68449 0.53885 0.0
C1200 C 0.71459 0.7083 0.51745 0.0
C1201 C 0.74842 0.66553 0.52945 0.0
C1202 C 0.72227 0.70373 0.49677 0.0
C1203 C 0.65889 0.7512 0.494 0.0
N1204 N 0.73847 0.67784 0.51915 0.0
N1205 N 0.67204 0.74215 0.5043 0.0
H1206 H 0.21463 0.95344 0.48715 0.0
H1207 H 0.42128 0.06182 0.53794 0.0
H1208 H 0.37589 0.97731 0.48596 0.0
H1209 H 0.28365 0.08512 0.53626 0.0
H1210 H 0.40013 0.02297 0.51942 0.0
H1211 H 0.23383 -0.00588 0.50563 0.0
C1212 C 0.25436 0.96816 0.49064 0.0
C1213 C 0.29421 0.96318 0.48484 0.0
C1214 C 0.37427 0.03627 0.52311 0.0
C1215 C 0.31564 0.00768 0.50618 0.0
C1216 C 0.38639 0.05854 0.53368 0.0
C1217 C 0.35362 0.0758 0.53879 0.0
C1218 C 0.32886 0.03104 0.5175 0.0
C1219 C 0.30889 0.07056 0.53287 0.0
C1220 C 0.26508 0.99082 0.50126 0.0
C1221 C 0.34405 0.98047 0.49009 0.0
N1222 N 0.29768 0.04845 0.52254 0.0
N1223 N 0.35329 0.00184 0.50042 0.0
H1224 H 0.52877 0.42791 0.07529 0.0
H1225 H 0.39171 0.15392 0.11032 0.0
H1226 H 0.52032 0.41862 0.11097 0.0
H1227 H 0.424 0.15937 0.07531 0.0
H1228 H 0.4213 0.24994 0.10983 0.0
H1229 H 0.47777 0.32895 0.07449 0.0
C1230 C 0.5165 0.40512 0.08294 0.0
C1231 C 0.52926 0.43155 0.09321 0.0
C1232 C 0.42118 0.23001 0.10222 0.0
C1233 C 0.47007 0.3188 0.09234 0.0
C1234 C 0.40379 0.17503 0.10247 0.0
C1235 C 0.40641 0.14886 0.09289 0.0
C1236 C 0.44163 0.25908 0.09233 0.0
C1237 C 0.42186 0.17811 0.08292 0.0
C1238 C 0.48709 0.34874 0.08248 0.0
C1239 C 0.51189 0.40006 0.10287 0.0
N1240 N 0.43991 0.23204 0.08294 0.0
N1241 N 0.48321 0.34543 0.10219 0.0
H1242 H 0.6007 0.12612 0.07538 0.0
H1243 H 0.87388 0.26312 0.11058 0.0
H1244 H 0.60906 0.1279 0.11108 0.0
H1245 H 0.86878 0.2914 0.0756 0.0
H1246 H 0.77782 0.19671 0.11006 0.0
H1247 H 0.69962 0.17437 0.07468 0.0
C1248 C 0.62329 0.13694 0.08306 0.0
C1249 C 0.59664 0.12341 0.09331 0.0
C1250 C 0.79786 0.21688 0.10246 0.0
C1251 C 0.70931 0.17728 0.09255 0.0
C1252 C 0.85283 0.25445 0.10273 0.0
C1253 C 0.87908 0.2836 0.09317 0.0
C1254 C 0.76895 0.20862 0.09257 0.0
C1255 C 0.84995 0.27024 0.0832 0.0
C1256 C 0.67964 0.16407 0.08265 0.0
C1257 C 0.62785 0.13794 0.103 0.0
N1258 N 0.79605 0.23432 0.08319 0.0
N1259 N 0.68248 0.16402 0.10237 0.0
H1260 H 0.74278 0.6085 0.07558 0.0
H1261 H 0.90454 0.50721 0.11261 0.0
H1262 H 0.76306 0.631 0.11094 0.0
H1263 H 0.90678 0.50505 0.07689 0.0
H1264 H 0.85618 0.55699 0.11188 0.0
H1265 H 0.80976 0.57918 0.07547 0.0
C1266 C 0.7624 0.60876 0.08327 0.0
C1267 C 0.74659 0.62123 0.09332 0.0
C1268 C 0.86734 0.54584 0.10419 0.0
C1269 C 0.82209 0.58661 0.09328 0.0
C1270 C 0.89452 0.51688 0.1046 0.0
C1271 C 0.90932 0.50153 0.09479 0.0
C1272 C 0.85435 0.55924 0.09389 0.0
C1273 C 0.89581 0.5158 0.08465 0.0
C1274 C 0.80028 0.59154 0.08322 0.0
C1275 C 0.77338 0.62091 0.10303 0.0
N1276 N 0.86877 0.54364 0.08446 0.0
N1277 N 0.80913 0.6029 0.10279 0.0
H1278 H 0.41643 0.52618 0.91176 0.0
H1279 H 0.15665 0.43681 0.94892 0.0
H1280 H 0.42364 0.53537 0.94744 0.0
H1281 H 0.15147 0.40288 0.914 0.0
H1282 H 0.2528 0.46527 0.94909 0.0
H1283 H 0.31833 0.47744 0.91275 0.0
C1284 C 0.39735 0.51828 0.91981 0.0
C1285 C 0.42825 0.53525 0.92953 0.0
C1286 C 0.23033 0.45059 0.94145 0.0
C1287 C 0.31568 0.47877 0.93074 0.0
C1288 C 0.17533 0.43387 0.94136 0.0
C1289 C 0.14635 0.41846 0.93138 0.0
C1290 C 0.25618 0.45204 0.93148 0.0
C1291 C 0.17254 0.41539 0.92184 0.0
C1292 C 0.34125 0.4899 0.92038 0.0
C1293 C 0.40129 0.52327 0.93974 0.0
N1294 N 0.2262 0.43297 0.92209 0.0
N1295 N 0.34641 0.49597 0.94008 0.0
H1296 H 0.4949 0.90693 0.94806 0.0
H1297 H 0.63864 0.77405 0.91435 0.0
H1298 H 0.50741 0.90731 0.91244 0.0
H1299 H 0.59668 0.74117 0.94892 0.0
H1300 H 0.60948 0.84079 0.91458 0.0
H1301 H 0.54598 0.85936 0.94929 0.0
C1302 C 0.50806 0.8967 0.9405 0.0
C1303 C 0.49648 0.91062 0.93012 0.0
C1304 C 0.60742 0.8196 0.92217 0.0
C1305 C 0.5558 0.85755 0.9315 0.0
C1306 C 0.62455 0.78186 0.92207 0.0
C1307 C 0.61897 0.75126 0.93157 0.0
C1308 C 0.58435 0.82653 0.93181 0.0
C1309 C 0.60112 0.76351 0.94137 0.0
C1310 C 0.53752 0.86996 0.94122 0.0
C1311 C 0.51489 0.89685 0.92061 0.0
N1312 N 0.58338 0.79959 0.9412 0.0
N1313 N 0.5437 0.87113 0.92154 0.0
H1314 H 0.25914 0.88438 0.91379 0.0
H1315 H 0.11811 0.6086 0.94818 0.0
H1316 H 0.28957 0.87562 0.94851 0.0
H1317 H 0.11835 0.61967 0.91253 0.0
H1318 H 0.16768 0.70749 0.94919 0.0
H1319 H 0.1903 0.78905 0.91418 0.0
C1320 C 0.25043 0.86271 0.92157 0.0
C1321 C 0.28083 0.88769 0.93108 0.0
C1322 C 0.15668 0.68814 0.94116 0.0
C1323 C 0.203 0.77826 0.93152 0.0
C1324 C 0.12871 0.63179 0.94057 0.0
C1325 C 0.1146 0.60589 0.93025 0.0
C1326 C 0.17012 0.71862 0.93137 0.0
C1327 C 0.12893 0.63787 0.92067 0.0
C1328 C 0.21144 0.80814 0.92176 0.0
C1329 C 0.26739 0.85781 0.94096 0.0
N1330 N 0.15589 0.69251 0.92147 0.0
N1331 N 0.23005 0.80425 0.94089 0.0
H1332 H 0.18621 0.75358 0.44563 0.0
H1333 H 0.0875 0.49013 0.40907 0.0
H1334 H 0.19161 0.75782 0.40991 0.0
H1335 H 0.06252 0.48837 0.44433 0.0
H1336 H 0.11666 0.58639 0.40874 0.0
H1337 H 0.13613 0.65545 0.44499 0.0
C1338 C 0.17719 0.73385 0.43764 0.0
C1339 C 0.19355 0.76397 0.42781 0.0
C1340 C 0.10378 0.56466 0.41651 0.0
C1341 C 0.13548 0.65122 0.42702 0.0
C1342 C 0.08664 0.50956 0.41669 0.0
C1343 C 0.07358 0.48145 0.42679 0.0
C1344 C 0.10802 0.59156 0.42649 0.0
C1345 C 0.0731 0.50867 0.43639 0.0
C1346 C 0.14805 0.6777 0.43728 0.0
C1347 C 0.18009 0.73612 0.41769 0.0
N1348 N 0.09106 0.56242 0.43603 0.0
N1349 N 0.15205 0.68119 0.41756 0.0
H1350 H 0.53685 0.62315 0.4078 0.0
H1351 H 0.27646 0.46023 0.44512 0.0
H1352 H 0.54135 0.59503 0.4428 0.0
H1353 H 0.26885 0.45922 0.40942 0.0
H1354 H 0.37444 0.50731 0.44409 0.0
H1355 H 0.4403 0.55694 0.40767 0.0
C1356 C 0.51795 0.60193 0.41539 0.0
C1357 C 0.5469 0.61545 0.42538 0.0
C1358 C 0.35146 0.49671 0.43646 0.0
C1359 C 0.43654 0.54086 0.42533 0.0
C1360 C 0.29542 0.47033 0.43705 0.0
C1361 C 0.26441 0.45615 0.42734 0.0
C1362 C 0.37695 0.5096 0.42609 0.0
C1363 C 0.29128 0.46975 0.41711 0.0
C1364 C 0.4627 0.56449 0.41532 0.0
C1365 C 0.52037 0.58657 0.43494 0.0
N1366 N 0.34616 0.49605 0.41675 0.0
N1367 N 0.46646 0.55138 0.43472 0.0
H1368 H 0.56806 0.83758 0.44516 0.0
H1369 H 0.40541 0.93748 0.40815 0.0
H1370 H 0.56889 0.83348 0.40944 0.0
H1371 H 0.42963 0.96437 0.44336 0.0
H1372 H 0.47173 0.90739 0.40799 0.0
H1373 H 0.52006 0.88768 0.44437 0.0
C1374 C 0.55775 0.84684 0.43714 0.0
C1375 C 0.57212 0.83095 0.42735 0.0
C1376 C 0.46326 0.92087 0.41571 0.0
C1377 C 0.51765 0.88906 0.42638 0.0
C1378 C 0.42574 0.93853 0.41579 0.0
C1379 C 0.41118 0.95238 0.42583 0.0
C1380 C 0.48593 0.91691 0.42573 0.0
C1381 C 0.43893 0.95312 0.43546 0.0
C1382 C 0.53082 0.87601 0.43669 0.0
C1383 C 0.55824 0.84467 0.41719 0.0
N1384 N 0.47427 0.93463 0.43521 0.0
N1385 N 0.53148 0.87277 0.41697 0.0
H1386 H 0.82124 0.73283 0.24648 0.0
H1387 H 0.09506 0.87143 0.28149 0.0
H1388 H 0.82639 0.76736 0.28137 0.0
H1389 H 0.08585 0.86408 0.24581 0.0
H1390 H -0.00389 0.82048 0.28229 0.0
H1391 H 0.91738 0.76303 0.24703 0.0
C1392 C 0.84234 0.74556 0.25432 0.0
C1393 C 0.81607 0.74861 0.26385 0.0
C1394 C 0.01592 0.83007 0.27431 0.0
C1395 C 0.92634 0.78451 0.26446 0.0
C1396 C 0.07228 0.85946 0.27384 0.0
C1397 C 0.09872 0.87242 0.26356 0.0
C1398 C 0.98603 0.81325 0.26444 0.0
C1399 C 0.06726 0.85547 0.25391 0.0
C1400 C 0.89736 0.76329 0.25461 0.0
C1401 C 0.84525 0.76485 0.27381 0.0
N1402 N 0.01264 0.82673 0.25459 0.0
N1403 N 0.89924 0.78322 0.27382 0.0
H1404 H 0.30365 0.10603 0.24592 0.0
H1405 H 0.16982 0.24433 0.28117 0.0
H1406 H 0.27551 0.08249 0.28111 0.0
H1407 H 0.17471 0.24223 0.24546 0.0
H1408 H 0.22136 0.19716 0.2818 0.0
H1409 H 0.27417 0.17253 0.24631 0.0
C1410 C 0.29255 0.11584 0.25378 0.0
C1411 C 0.29092 0.08786 0.26346 0.0
C1412 C 0.21116 0.20712 0.27384 0.0
C1413 C 0.25592 0.16292 0.2639 0.0
C1414 C 0.18142 0.23365 0.27346 0.0
C1415 C 0.16753 0.24677 0.26324 0.0
C1416 C 0.22733 0.19396 0.26392 0.0
C1417 C 0.18402 0.23243 0.25353 0.0
C1418 C 0.27522 0.15345 0.25398 0.0
C1419 C 0.2768 0.10267 0.27343 0.0
N1420 N 0.21306 0.20681 0.25411 0.0
N1421 N 0.2588 0.13854 0.27337 0.0
H1422 H 0.79062 0.94994 0.2453 0.0
H1423 H 0.95901 0.20911 0.28275 0.0
H1424 H 0.79218 0.9414 0.28097 0.0
H1425 H 0.93017 0.21485 0.24783 0.0
H1426 H 0.8919 0.11276 0.28283 0.0
H1427 H 0.8391 0.04794 0.24643 0.0
C1428 C 0.80151 0.96869 0.25339 0.0
C1429 C 0.78772 0.9374 0.26306 0.0
C1430 C 0.89952 0.13539 0.27521 0.0
C1431 C 0.84292 0.05003 0.26442 0.0
C1432 C 0.93749 0.19054 0.27517 0.0
C1433 C 0.95095 0.21981 0.26522 0.0
C1434 C 0.87527 0.10963 0.26521 0.0
C1435 C 0.92173 0.19365 0.25566 0.0
C1436 C 0.82875 0.02478 0.25403 0.0
C1437 C 0.80236 0.96403 0.2733 0.0
N1438 N 0.88597 0.13985 0.25585 0.0
N1439 N 0.82952 0.01895 0.27372 0.0
H1440 H 0.76371 0.82597 0.74163 0.0
H1441 H 0.85741 0.08717 0.77857 0.0
H1442 H 0.73178 0.82238 0.77662 0.0
H1443 H 0.865 0.09411 0.74287 0.0
H1444 H 0.80799 0.98918 0.77764 0.0
H1445 H 0.79326 0.92243 0.74135 0.0
C1446 C 0.76139 0.84505 0.74918 0.0
C1447 C 0.74622 0.81637 0.75921 0.0
C1448 C 0.82024 0.01197 0.76998 0.0
C1449 C 0.78106 0.92659 0.75898 0.0
C1450 C 0.84902 0.06807 0.77052 0.0
C1451 C 0.86577 0.09892 0.76078 0.0
C1452 C 0.80842 0.98623 0.75965 0.0
C1453 C 0.85313 0.07182 0.75058 0.0
C1454 C 0.77875 0.90023 0.74903 0.0
C1455 C 0.74401 0.84313 0.76874 0.0
N1456 N 0.82542 0.01687 0.75028 0.0
N1457 N 0.76216 0.89692 0.76842 0.0
H1458 H 0.21325 0.9284 0.77687 0.0
H1459 H 0.93851 0.79169 0.74217 0.0
H1460 H 0.20652 0.95844 0.74204 0.0
H1461 H 0.94855 0.79178 0.77783 0.0
H1462 H 0.03742 0.84004 0.74126 0.0
H1463 H 0.11743 0.86115 0.77641 0.0
C1464 C 0.19191 0.91991 0.76905 0.0
C1465 C 0.21762 0.94982 0.75953 0.0
C1466 C 0.01782 0.82932 0.74926 0.0
C1467 C 0.10767 0.87388 0.75901 0.0
C1468 C 0.96147 0.8021 0.7498 0.0
C1469 C 0.93527 0.78817 0.7601 0.0
C1470 C 0.04798 0.84218 0.7591 0.0
C1471 C 0.96696 0.80219 0.76971 0.0
C1472 C 0.13705 0.88186 0.76882 0.0
C1473 C 0.18812 0.93668 0.7496 0.0
N1474 N 0.02159 0.82838 0.76897 0.0
N1475 N 0.1343 0.9003 0.74964 0.0
H1476 H 0.23734 0.17134 0.77867 0.0
H1477 H 0.0758 0.27381 0.74211 0.0
H1478 H 0.23928 0.16926 0.74294 0.0
H1479 H 0.10163 0.30053 0.77729 0.0
H1480 H 0.14187 0.24336 0.74174 0.0
H1481 H 0.18996 0.22197 0.77799 0.0
C1482 C 0.22739 0.18114 0.77066 0.0
C1483 C 0.24194 0.16568 0.76084 0.0
C1484 C 0.13384 0.25693 0.7495 0.0
C1485 C 0.18813 0.22446 0.76001 0.0
C1486 C 0.09649 0.27481 0.7497 0.0
C1487 C 0.0824 0.28864 0.7598 0.0
C1488 C 0.15681 0.25276 0.75946 0.0
C1489 C 0.11056 0.28929 0.76936 0.0
C1490 C 0.20082 0.21064 0.77028 0.0
C1491 C 0.22848 0.1801 0.75071 0.0
N1492 N 0.14571 0.27059 0.76899 0.0
N1493 N 0.20202 0.20852 0.75055 0.0
H1494 H 0.4883 0.09958 0.61561 0.0
H1495 H 0.75073 0.19854 0.57875 0.0
H1496 H 0.48556 0.07192 0.58044 0.0
H1497 H 0.75599 0.2032 0.61447 0.0
H1498 H 0.65262 0.1485 0.57952 0.0
H1499 H 0.58474 0.12954 0.61585 0.0
C1500 C 0.50758 0.09833 0.608 0.0
C1501 C 0.47915 0.0843 0.59794 0.0
C1502 C 0.67512 0.16027 0.58721 0.0
C1503 C 0.58937 0.11961 0.59813 0.0
C1504 C 0.73123 0.18941 0.58677 0.0
C1505 C 0.7616 0.20545 0.59657 0.0
C1506 C 0.64896 0.1474 0.59751 0.0
C1507 C 0.73407 0.1919 0.60672 0.0
C1508 C 0.56276 0.11591 0.60813 0.0
C1509 C 0.50614 0.08331 0.58835 0.0
N1510 N 0.67917 0.16382 0.60693 0.0
N1511 N 0.55996 0.10172 0.58864 0.0
H1512 H 0.93667 0.41515 0.61581 0.0
H1513 H 0.83736 0.57695 0.5784 0.0
H1514 H 0.96546 0.43985 0.58065 0.0
H1515 H 0.83107 0.57689 0.61411 0.0
H1516 H 0.8884 0.52991 0.57936 0.0
H1517 H 0.90663 0.4815 0.61583 0.0
C1518 C 0.93819 0.43564 0.60815 0.0
C1519 C 0.95244 0.42111 0.59816 0.0
C1520 C 0.87604 0.54028 0.587 0.0
C1521 C 0.91699 0.49586 0.5981 0.0
C1522 C 0.84632 0.56662 0.58645 0.0
C1523 C 0.82954 0.58046 0.59619 0.0
C1524 C 0.88874 0.52716 0.59735 0.0
C1525 C 0.84293 0.56663 0.60639 0.0
C1526 C 0.92055 0.47316 0.60816 0.0
C1527 C 0.95384 0.4491 0.58851 0.0
N1528 N 0.87157 0.54045 0.60671 0.0
N1529 N 0.93529 0.4844 0.58868 0.0
H1530 H 0.45201 0.28392 0.5785 0.0
H1531 H 0.61965 0.54481 0.61556 0.0
H1532 H 0.45401 0.27737 0.61419 0.0
H1533 H 0.59372 0.54887 0.58045 0.0
H1534 H 0.55205 0.44867 0.61575 0.0
H1535 H 0.50029 0.38198 0.5794 0.0
C1536 C 0.46294 0.30313 0.58654 0.0
C1537 C 0.44939 0.27239 0.59629 0.0
C1538 C 0.56042 0.47088 0.60805 0.0
C1539 C 0.50434 0.38506 0.59738 0.0
C1540 C 0.59868 0.52592 0.60795 0.0
C1541 C 0.61312 0.55463 0.59792 0.0
C1542 C 0.53684 0.44466 0.59805 0.0
C1543 C 0.58453 0.52809 0.58833 0.0
C1544 C 0.49008 0.35924 0.58706 0.0
C1545 C 0.46404 0.29958 0.60647 0.0
N1546 N 0.54845 0.47438 0.5886 0.0
N1547 N 0.49109 0.3545 0.60676 0.0
loop_
_geom_bond_atom_site_label_1
_geom_bond_atom_site_label_2
_geom_bond_distance
_geom_bond_site_symmetry_2
_ccdc_geom_bond_type
Zn0 O1 2.055 . S
Zn0 O8 2.046 1_545 S
Zn0 N16 2.036 . S
Zn0 O28 2.053 1_545 S
Zn0 O30 2.066 . S
O1 Zn0 2.055 . S
O1 C4 1.259 . S
C2 O30 1.256 . S
C2 O31 1.244 . S
Zn3 O5 2.046 . S
Zn3 O7 2.055 1_545 S
Zn3 N9 2.036 . S
Zn3 O27 2.066 1_545 S
Zn3 O31 2.053 . S
C4 O1 1.259 . S
C4 O5 1.254 . S
O5 Zn3 2.046 . S
O5 C4 1.254 . S
C6 O27 1.256 . S
C6 O28 1.244 . S
O7 Zn3 2.055 1_565 S
O7 C29 1.259 . S
O8 Zn0 2.046 1_565 S
O8 C29 1.254 . S
N9 Zn3 2.036 . S
N9 C10 1.298 1_545 S
N9 N12 1.398 . S
C10 N9 1.298 1_565 S
C10 N13 1.367 . S
C10 C23 1.481 . S
C11 N12 1.299 . S
C11 N13 1.379 1_545 S
N12 N9 1.398 . S
N12 C11 1.299 . S
N13 C10 1.367 . S
N13 C11 1.379 1_565 S
C14 N16 1.298 . S
C14 N18 1.367 . S
C14 C22 1.481 . S
C15 N17 1.299 . S
C15 N18 1.379 1_565 S
N16 Zn0 2.036 . S
N16 C14 1.298 . S
N16 N17 1.398 1_545 S
N17 C15 1.299 . S
N17 N16 1.398 1_565 S
N18 C14 1.367 . S
N18 C15 1.379 1_545 S
H19 C22 0.980 . S
H20 C22 0.981 . S
H21 C22 0.981 . S
C22 C14 1.481 . S
C22 H19 0.980 . S
C22 H20 0.981 . S
C22 H21 0.981 . S
C23 C10 1.481 . S
C23 H24 0.980 . S
C23 H25 0.981 . S
C23 H26 0.981 . S
H24 C23 0.980 . S
H25 C23 0.981 . S
H26 C23 0.981 . S
O27 Zn3 2.066 1_565 S
O27 C6 1.256 . S
O28 Zn0 2.053 1_565 S
O28 C6 1.244 . S
C29 O7 1.259 . S
C29 O8 1.254 . S
O30 Zn0 2.066 . S
O30 C2 1.256 . S
O31 C2 1.244 . S
O31 Zn3 2.053 . S
Zn32 O33 2.055 1_455 S
Zn32 O40 2.046 . S
Zn32 N48 2.036 . S
Zn32 O60 2.053 . S
Zn32 O62 2.066 1_455 S
O33 Zn32 2.055 1_655 S
O33 C36 1.259 . S
C34 O62 1.256 . S
C34 O63 1.244 . S
Zn35 O37 2.046 1_455 S
Zn35 O39 2.055 . S
Zn35 N41 2.036 . S
Zn35 O59 2.066 . S
Zn35 O63 2.053 1_455 S
C36 O33 1.259 . S
C36 O37 1.254 . S
O37 Zn35 2.046 1_655 S
O37 C36 1.254 . S
C38 O59 1.256 . S
C38 O60 1.244 . S
O39 Zn35 2.055 . S
O39 C61 1.259 . S
O40 Zn32 2.046 . S
O40 C61 1.254 . S
N41 Zn35 2.036 . S
N41 C42 1.298 . S
N41 N44 1.398 1_455 S
C42 N41 1.298 . S
C42 N45 1.367 . S
C42 C55 1.481 . S
C43 N44 1.299 1_455 S
C43 N45 1.379 . S
N44 N41 1.398 1_655 S
N44 C43 1.299 1_655 S
N45 C42 1.367 . S
N45 C43 1.379 . S
C46 N48 1.298 . S
C46 N50 1.367 . S
C46 C54 1.481 1_455 S
C47 N49 1.299 . S
C47 N50 1.379 . S
N48 Zn32 2.036 . S
N48 C46 1.298 . S
N48 N49 1.398 . S
N49 C47 1.299 . S
N49 N48 1.398 . S
N50 C46 1.367 . S
N50 C47 1.379 . S
H51 C54 0.980 . S
H52 C54 0.981 . S
H53 C54 0.981 . S
C54 C46 1.481 1_655 S
C54 H51 0.980 . S
C54 H52 0.981 . S
C54 H53 0.981 . S
C55 C42 1.481 . S
C55 H56 0.980 . S
C55 H57 0.981 . S
C55 H58 0.981 . S
H56 C55 0.980 . S
H57 C55 0.981 . S
H58 C55 0.981 . S
O59 Zn35 2.066 . S
O59 C38 1.256 . S
O60 Zn32 2.053 . S
O60 C38 1.244 . S
C61 O39 1.259 . S
C61 O40 1.254 . S
O62 Zn32 2.066 1_655 S
O62 C34 1.256 . S
O63 C34 1.244 . S
O63 Zn35 2.053 1_655 S
Zn64 O65 2.055 . S
Zn64 O72 2.046 . S
Zn64 N80 2.036 . S
Zn64 O92 2.053 . S
Zn64 O94 2.066 . S
O65 Zn64 2.055 . S
O65 C68 1.259 . S
C66 O94 1.256 . S
C66 O95 1.244 . S
Zn67 O69 2.046 . S
Zn67 O71 2.055 . S
Zn67 N73 2.036 . S
Zn67 O91 2.066 . S
Zn67 O95 2.053 . S
C68 O65 1.259 . S
C68 O69 1.254 . S
O69 Zn67 2.046 . S
O69 C68 1.254 . S
C70 O91 1.256 . S
C70 O92 1.244 . S
O71 Zn67 2.055 . S
O71 C93 1.259 . S
O72 Zn64 2.046 . S
O72 C93 1.254 . S
N73 Zn67 2.036 . S
N73 C74 1.298 . S
N73 N76 1.398 . S
C74 N73 1.298 . S
C74 N77 1.367 . S
C74 C87 1.481 . S
C75 N76 1.299 . S
C75 N77 1.379 . S
N76 N73 1.398 . S
N76 C75 1.299 . S
N77 C74 1.367 . S
N77 C75 1.379 . S
C78 N80 1.298 . S
C78 N82 1.367 . S
C78 C86 1.481 . S
C79 N81 1.299 . S
C79 N82 1.379 . S
N80 Zn64 2.036 . S
N80 C78 1.298 . S
N80 N81 1.398 . S
N81 C79 1.299 . S
N81 N80 1.398 . S
N82 C78 1.367 . S
N82 C79 1.379 . S
H83 C86 0.980 . S
H84 C86 0.981 . S
H85 C86 0.981 . S
C86 C78 1.481 . S
C86 H83 0.980 . S
C86 H84 0.981 . S
C86 H85 0.981 . S
C87 C74 1.481 . S
C87 H88 0.980 . S
C87 H89 0.981 . S
C87 H90 0.981 . S
H88 C87 0.980 . S
H89 C87 0.981 . S
H90 C87 0.981 . S
O91 Zn67 2.066 . S
O91 C70 1.256 . S
O92 Zn64 2.053 . S
O92 C70 1.244 . S
C93 O71 1.259 . S
C93 O72 1.254 . S
O94 Zn64 2.066 . S
O94 C66 1.256 . S
O95 C66 1.244 . S
O95 Zn67 2.053 . S
Zn96 O97 2.055 1_455 S
Zn96 O104 2.046 . S
Zn96 N112 2.036 . S
Zn96 O124 2.053 . S
Zn96 O126 2.066 1_455 S
O97 Zn96 2.055 1_655 S
O97 C100 1.259 . S
C98 O126 1.256 . S
C98 O127 1.244 . S
Zn99 O101 2.046 1_455 S
Zn99 O103 2.055 . S
Zn99 N105 2.036 . S
Zn99 O123 2.066 . S
Zn99 O127 2.053 1_455 S
C100 O97 1.259 . S
C100 O101 1.254 . S
O101 Zn99 2.046 1_655 S
O101 C100 1.254 . S
C102 O123 1.256 . S
C102 O124 1.244 . S
O103 Zn99 2.055 . S
O103 C125 1.259 . S
O104 Zn96 2.046 . S
O104 C125 1.254 . S
N105 Zn99 2.036 . S
N105 C106 1.298 . S
N105 N108 1.398 1_455 S
C106 N105 1.298 . S
C106 N109 1.367 . S
C106 C119 1.481 . S
C107 N108 1.299 . S
C107 N109 1.379 1_655 S
N108 N105 1.398 1_655 S
N108 C107 1.299 . S
N109 C106 1.367 . S
N109 C107 1.379 1_455 S
C110 N112 1.298 1_655 S
C110 N114 1.367 . S
C110 C118 1.481 . S
C111 N113 1.299 . S
C111 N114 1.379 1_455 S
N112 Zn96 2.036 . S
N112 C110 1.298 1_455 S
N112 N113 1.398 . S
N113 C111 1.299 . S
N113 N112 1.398 . S
N114 C110 1.367 . S
N114 C111 1.379 1_655 S
H115 C118 0.980 . S
H116 C118 0.981 . S
H117 C118 0.981 . S
C118 C110 1.481 . S
C118 H115 0.980 . S
C118 H116 0.981 . S
C118 H117 0.981 . S
C119 C106 1.481 . S
C119 H120 0.980 . S
C119 H121 0.981 . S
C119 H122 0.981 . S
H120 C119 0.980 . S
H121 C119 0.981 . S
H122 C119 0.981 . S
O123 Zn99 2.066 . S
O123 C102 1.256 . S
O124 Zn96 2.053 . S
O124 C102 1.244 . S
C125 O103 1.259 . S
C125 O104 1.254 . S
O126 Zn96 2.066 1_655 S
O126 C98 1.256 . S
O127 C98 1.244 . S
O127 Zn99 2.053 1_655 S
Zn128 O129 2.055 . S
Zn128 O136 2.046 . S
Zn128 N144 2.036 . S
Zn128 O156 2.053 . S
Zn128 O158 2.066 . S
O129 Zn128 2.055 . S
O129 C132 1.259 . S
C130 O158 1.256 . S
C130 O159 1.244 . S
Zn131 O133 2.046 . S
Zn131 O135 2.055 . S
Zn131 N137 2.036 . S
Zn131 O155 2.066 . S
Zn131 O159 2.053 . S
C132 O129 1.259 . S
C132 O133 1.254 . S
O133 Zn131 2.046 . S
O133 C132 1.254 . S
C134 O155 1.256 . S
C134 O156 1.244 . S
O135 Zn131 2.055 . S
O135 C157 1.259 . S
O136 Zn128 2.046 . S
O136 C157 1.254 . S
N137 Zn131 2.036 . S
N137 C138 1.298 . S
N137 N140 1.398 . S
C138 N137 1.298 . S
C138 N141 1.367 . S
C138 C151 1.481 . S
C139 N140 1.299 . S
C139 N141 1.379 . S
N140 N137 1.398 . S
N140 C139 1.299 . S
N141 C138 1.367 . S
N141 C139 1.379 . S
C142 N144 1.298 . S
C142 N146 1.367 . S
C142 C150 1.481 . S
C143 N145 1.299 . S
C143 N146 1.379 . S
N144 Zn128 2.036 . S
N144 C142 1.298 . S
N144 N145 1.398 . S
N145 C143 1.299 . S
N145 N144 1.398 . S
N146 C142 1.367 . S
N146 C143 1.379 . S
H147 C150 0.980 . S
H148 C150 0.981 . S
H149 C150 0.981 . S
C150 C142 1.481 . S
C150 H147 0.980 . S
C150 H148 0.981 . S
C150 H149 0.981 . S
C151 C138 1.481 . S
C151 H152 0.980 . S
C151 H153 0.981 . S
C151 H154 0.981 . S
H152 C151 0.980 . S
H153 C151 0.981 . S
H154 C151 0.981 . S
O155 Zn131 2.066 . S
O155 C134 1.256 . S
O156 Zn128 2.053 . S
O156 C134 1.244 . S
C157 O135 1.259 . S
C157 O136 1.254 . S
O158 Zn128 2.066 . S
O158 C130 1.256 . S
O159 C130 1.244 . S
O159 Zn131 2.053 . S
Zn160 O161 2.055 1_545 S
Zn160 O168 2.046 . S
Zn160 N176 2.036 . S
Zn160 O188 2.053 . S
Zn160 O190 2.066 1_545 S
O161 Zn160 2.055 1_565 S
O161 C164 1.259 . S
C162 O190 1.256 . S
C162 O191 1.244 . S
Zn163 O165 2.046 1_545 S
Zn163 O167 2.055 . S
Zn163 N169 2.036 . S
Zn163 O187 2.066 . S
Zn163 O191 2.053 1_545 S
C164 O161 1.259 . S
C164 O165 1.254 . S
O165 Zn163 2.046 1_565 S
O165 C164 1.254 . S
C166 O187 1.256 . S
C166 O188 1.244 . S
O167 Zn163 2.055 . S
O167 C189 1.259 . S
O168 Zn160 2.046 . S
O168 C189 1.254 . S
N169 Zn163 2.036 . S
N169 C170 1.298 . S
N169 N172 1.398 1_545 S
C170 N169 1.298 . S
C170 N173 1.367 . S
C170 C183 1.481 . S
C171 N172 1.299 1_545 S
C171 N173 1.379 . S
N172 N169 1.398 1_565 S
N172 C171 1.299 1_565 S
N173 C170 1.367 . S
N173 C171 1.379 . S
C174 N176 1.298 . S
C174 N178 1.367 . S
C174 C182 1.481 1_545 S
C175 N177 1.299 . S
C175 N178 1.379 . S
N176 Zn160 2.036 . S
N176 C174 1.298 . S
N176 N177 1.398 . S
N177 C175 1.299 . S
N177 N176 1.398 . S
N178 C174 1.367 . S
N178 C175 1.379 . S
H179 C182 0.980 . S
H180 C182 0.981 . S
H181 C182 0.981 . S
C182 C174 1.481 1_565 S
C182 H179 0.980 . S
C182 H180 0.981 . S
C182 H181 0.981 . S
C183 C170 1.481 . S
C183 H184 0.980 . S
C183 H185 0.981 . S
C183 H186 0.981 . S
H184 C183 0.980 . S
H185 C183 0.981 . S
H186 C183 0.981 . S
O187 Zn163 2.066 . S
O187 C166 1.256 . S
O188 Zn160 2.053 . S
O188 C166 1.244 . S
C189 O167 1.259 . S
C189 O168 1.254 . S
O190 Zn160 2.066 1_565 S
O190 C162 1.256 . S
O191 C162 1.244 . S
O191 Zn163 2.053 1_565 S
Zn192 O193 2.055 . S
Zn192 O200 2.046 . S
Zn192 N208 2.036 . S
Zn192 O220 2.053 . S
Zn192 O222 2.066 . S
O193 Zn192 2.055 . S
O193 C196 1.259 . S
C194 O222 1.256 . S
C194 O223 1.244 . S
Zn195 O197 2.046 . S
Zn195 O199 2.055 . S
Zn195 N201 2.036 . S
Zn195 O219 2.066 . S
Zn195 O223 2.053 . S
C196 O193 1.259 . S
C196 O197 1.254 . S
O197 Zn195 2.046 . S
O197 C196 1.254 . S
C198 O219 1.256 . S
C198 O220 1.244 . S
O199 Zn195 2.055 . S
O199 C221 1.259 . S
O200 Zn192 2.046 . S
O200 C221 1.254 . S
N201 Zn195 2.036 . S
N201 C202 1.298 . S
N201 N204 1.398 . S
C202 N201 1.298 . S
C202 N205 1.367 . S
C202 C215 1.481 . S
C203 N204 1.299 . S
C203 N205 1.379 . S
N204 N201 1.398 . S
N204 C203 1.299 . S
N205 C202 1.367 . S
N205 C203 1.379 . S
C206 N208 1.298 . S
C206 N210 1.367 . S
C206 C214 1.481 . S
C207 N209 1.299 . S
C207 N210 1.379 . S
N208 Zn192 2.036 . S
N208 C206 1.298 . S
N208 N209 1.398 . S
N209 C207 1.299 . S
N209 N208 1.398 . S
N210 C206 1.367 . S
N210 C207 1.379 . S
H211 C214 0.980 . S
H212 C214 0.981 . S
H213 C214 0.981 . S
C214 C206 1.481 . S
C214 H211 0.980 . S
C214 H212 0.981 . S
C214 H213 0.981 . S
C215 C202 1.481 . S
C215 H216 0.980 . S
C215 H217 0.981 . S
C215 H218 0.981 . S
H216 C215 0.980 . S
H217 C215 0.981 . S
H218 C215 0.981 . S
O219 Zn195 2.066 . S
O219 C198 1.256 . S
O220 Zn192 2.053 . S
O220 C198 1.244 . S
C221 O199 1.259 . S
C221 O200 1.254 . S
O222 Zn192 2.066 . S
O222 C194 1.256 . S
O223 C194 1.244 . S
O223 Zn195 2.053 . S
Zn224 O225 2.055 . S
Zn224 O232 2.046 . S
Zn224 N240 2.036 . S
Zn224 O252 2.053 . S
Zn224 O254 2.066 . S
O225 Zn224 2.055 . S
O225 C228 1.259 . S
C226 O254 1.256 . S
C226 O255 1.244 . S
Zn227 O229 2.046 . S
Zn227 O231 2.055 . S
Zn227 N233 2.036 . S
Zn227 O251 2.066 . S
Zn227 O255 2.053 . S
C228 O225 1.259 . S
C228 O229 1.254 . S
O229 Zn227 2.046 . S
O229 C228 1.254 . S
C230 O251 1.256 . S
C230 O252 1.244 . S
O231 Zn227 2.055 . S
O231 C253 1.259 . S
O232 Zn224 2.046 . S
O232 C253 1.254 . S
N233 Zn227 2.036 . S
N233 C234 1.298 . S
N233 N236 1.398 . S
C234 N233 1.298 . S
C234 N237 1.367 . S
C234 C247 1.481 . S
C235 N236 1.299 . S
C235 N237 1.379 . S
N236 N233 1.398 . S
N236 C235 1.299 . S
N237 C234 1.367 . S
N237 C235 1.379 . S
C238 N240 1.298 . S
C238 N242 1.367 . S
C238 C246 1.481 . S
C239 N241 1.299 . S
C239 N242 1.379 . S
N240 Zn224 2.036 . S
N240 C238 1.298 . S
N240 N241 1.398 . S
N241 C239 1.299 . S
N241 N240 1.398 . S
N242 C238 1.367 . S
N242 C239 1.379 . S
H243 C246 0.980 . S
H244 C246 0.981 . S
H245 C246 0.981 . S
C246 C238 1.481 . S
C246 H243 0.980 . S
C246 H244 0.981 . S
C246 H245 0.981 . S
C247 C234 1.481 . S
C247 H248 0.980 . S
C247 H249 0.981 . S
C247 H250 0.981 . S
H248 C247 0.980 . S
H249 C247 0.981 . S
H250 C247 0.981 . S
O251 Zn227 2.066 . S
O251 C230 1.256 . S
O252 Zn224 2.053 . S
O252 C230 1.244 . S
C253 O231 1.259 . S
C253 O232 1.254 . S
O254 Zn224 2.066 . S
O254 C226 1.256 . S
O255 C226 1.244 . S
O255 Zn227 2.053 . S
Zn256 O257 2.055 . S
Zn256 O264 2.046 . S
Zn256 N272 2.036 . S
Zn256 O284 2.053 . S
Zn256 O286 2.066 . S
O257 Zn256 2.055 . S
O257 C260 1.259 . S
C258 O286 1.256 . S
C258 O287 1.244 . S
Zn259 O261 2.046 . S
Zn259 O263 2.055 . S
Zn259 N265 2.036 . S
Zn259 O283 2.066 . S
Zn259 O287 2.053 . S
C260 O257 1.259 . S
C260 O261 1.254 . S
O261 Zn259 2.046 . S
O261 C260 1.254 . S
C262 O283 1.256 . S
C262 O284 1.244 . S
O263 Zn259 2.055 . S
O263 C285 1.259 . S
O264 Zn256 2.046 . S
O264 C285 1.254 . S
N265 Zn259 2.036 . S
N265 C266 1.298 . S
N265 N268 1.398 . S
C266 N265 1.298 . S
C266 N269 1.367 . S
C266 C279 1.481 . S
C267 N268 1.299 . S
C267 N269 1.379 . S
N268 N265 1.398 . S
N268 C267 1.299 . S
N269 C266 1.367 . S
N269 C267 1.379 . S
C270 N272 1.298 . S
C270 N274 1.367 . S
C270 C278 1.481 . S
C271 N273 1.299 . S
C271 N274 1.379 . S
N272 Zn256 2.036 . S
N272 C270 1.298 . S
N272 N273 1.398 . S
N273 C271 1.299 . S
N273 N272 1.398 . S
N274 C270 1.367 . S
N274 C271 1.379 . S
H275 C278 0.980 . S
H276 C278 0.981 . S
H277 C278 0.981 . S
C278 C270 1.481 . S
C278 H275 0.980 . S
C278 H276 0.981 . S
C278 H277 0.981 . S
C279 C266 1.481 . S
C279 H280 0.980 . S
C279 H281 0.981 . S
C279 H282 0.981 . S
H280 C279 0.980 . S
H281 C279 0.981 . S
H282 C279 0.981 . S
O283 Zn259 2.066 . S
O283 C262 1.256 . S
O284 Zn256 2.053 . S
O284 C262 1.244 . S
C285 O263 1.259 . S
C285 O264 1.254 . S
O286 Zn256 2.066 . S
O286 C258 1.256 . S
O287 C258 1.244 . S
O287 Zn259 2.053 . S
Zn288 O289 2.055 . S
Zn288 O296 2.046 . S
Zn288 N304 2.036 . S
Zn288 O316 2.053 . S
Zn288 O318 2.066 . S
O289 Zn288 2.055 . S
O289 C292 1.259 . S
C290 O318 1.256 . S
C290 O319 1.244 . S
Zn291 O293 2.046 . S
Zn291 O295 2.055 . S
Zn291 N297 2.036 . S
Zn291 O315 2.066 . S
Zn291 O319 2.053 . S
C292 O289 1.259 . S
C292 O293 1.254 . S
O293 Zn291 2.046 . S
O293 C292 1.254 . S
C294 O315 1.256 . S
C294 O316 1.244 . S
O295 Zn291 2.055 . S
O295 C317 1.259 . S
O296 Zn288 2.046 . S
O296 C317 1.254 . S
N297 Zn291 2.036 . S
N297 C298 1.298 . S
N297 N300 1.398 . S
C298 N297 1.298 . S
C298 N301 1.367 . S
C298 C311 1.481 . S
C299 N300 1.299 . S
C299 N301 1.379 . S
N300 N297 1.398 . S
N300 C299 1.299 . S
N301 C298 1.367 . S
N301 C299 1.379 . S
C302 N304 1.298 . S
C302 N306 1.367 . S
C302 C310 1.481 . S
C303 N305 1.299 . S
C303 N306 1.379 . S
N304 Zn288 2.036 . S
N304 C302 1.298 . S
N304 N305 1.398 . S
N305 C303 1.299 . S
N305 N304 1.398 . S
N306 C302 1.367 . S
N306 C303 1.379 . S
H307 C310 0.980 . S
H308 C310 0.981 . S
H309 C310 0.981 . S
C310 C302 1.481 . S
C310 H307 0.980 . S
C310 H308 0.981 . S
C310 H309 0.981 . S
C311 C298 1.481 . S
C311 H312 0.980 . S
C311 H313 0.981 . S
C311 H314 0.981 . S
H312 C311 0.980 . S
H313 C311 0.981 . S
H314 C311 0.981 . S
O315 Zn291 2.066 . S
O315 C294 1.256 . S
O316 Zn288 2.053 . S
O316 C294 1.244 . S
C317 O295 1.259 . S
C317 O296 1.254 . S
O318 Zn288 2.066 . S
O318 C290 1.256 . S
O319 C290 1.244 . S
O319 Zn291 2.053 . S
Zn320 O321 2.055 . S
Zn320 O328 2.046 . S
Zn320 N336 2.036 . S
Zn320 O348 2.053 . S
Zn320 O350 2.066 . S
O321 Zn320 2.055 . S
O321 C324 1.259 . S
C322 O350 1.256 . S
C322 O351 1.244 . S
Zn323 O325 2.046 . S
Zn323 O327 2.055 . S
Zn323 N329 2.036 . S
Zn323 O347 2.066 . S
Zn323 O351 2.053 . S
C324 O321 1.259 . S
C324 O325 1.254 . S
O325 Zn323 2.046 . S
O325 C324 1.254 . S
C326 O347 1.256 . S
C326 O348 1.244 . S
O327 Zn323 2.055 . S
O327 C349 1.259 . S
O328 Zn320 2.046 . S
O328 C349 1.254 . S
N329 Zn323 2.036 . S
N329 C330 1.298 . S
N329 N332 1.398 . S
C330 N329 1.298 . S
C330 N333 1.367 . S
C330 C343 1.481 . S
C331 N332 1.299 . S
C331 N333 1.379 . S
N332 N329 1.398 . S
N332 C331 1.299 . S
N333 C330 1.367 . S
N333 C331 1.379 . S
C334 N336 1.298 . S
C334 N338 1.367 . S
C334 C342 1.481 . S
C335 N337 1.299 . S
C335 N338 1.379 . S
N336 Zn320 2.036 . S
N336 C334 1.298 . S
N336 N337 1.398 . S
N337 C335 1.299 . S
N337 N336 1.398 . S
N338 C334 1.367 . S
N338 C335 1.379 . S
H339 C342 0.980 . S
H340 C342 0.981 . S
H341 C342 0.981 . S
C342 C334 1.481 . S
C342 H339 0.980 . S
C342 H340 0.981 . S
C342 H341 0.981 . S
C343 C330 1.481 . S
C343 H344 0.980 . S
C343 H345 0.981 . S
C343 H346 0.981 . S
H344 C343 0.980 . S
H345 C343 0.981 . S
H346 C343 0.981 . S
O347 Zn323 2.066 . S
O347 C326 1.256 . S
O348 Zn320 2.053 . S
O348 C326 1.244 . S
C349 O327 1.259 . S
C349 O328 1.254 . S
O350 Zn320 2.066 . S
O350 C322 1.256 . S
O351 C322 1.244 . S
O351 Zn323 2.053 . S
Zn352 O353 2.055 . S
Zn352 O360 2.046 . S
Zn352 N368 2.036 . S
Zn352 O380 2.053 . S
Zn352 O382 2.066 . S
O353 Zn352 2.055 . S
O353 C356 1.259 . S
C354 O382 1.256 . S
C354 O383 1.244 . S
Zn355 O357 2.046 . S
Zn355 O359 2.055 . S
Zn355 N361 2.036 . S
Zn355 O379 2.066 . S
Zn355 O383 2.053 . S
C356 O353 1.259 . S
C356 O357 1.254 . S
O357 Zn355 2.046 . S
O357 C356 1.254 . S
C358 O379 1.256 . S
C358 O380 1.244 . S
O359 Zn355 2.055 . S
O359 C381 1.259 . S
O360 Zn352 2.046 . S
O360 C381 1.254 . S
N361 Zn355 2.036 . S
N361 C362 1.298 . S
N361 N364 1.398 . S
C362 N361 1.298 . S
C362 N365 1.367 . S
C362 C375 1.481 . S
C363 N364 1.299 . S
C363 N365 1.379 . S
N364 N361 1.398 . S
N364 C363 1.299 . S
N365 C362 1.367 . S
N365 C363 1.379 . S
C366 N368 1.298 . S
C366 N370 1.367 . S
C366 C374 1.481 . S
C367 N369 1.299 . S
C367 N370 1.379 . S
N368 Zn352 2.036 . S
N368 C366 1.298 . S
N368 N369 1.398 . S
N369 C367 1.299 . S
N369 N368 1.398 . S
N370 C366 1.367 . S
N370 C367 1.379 . S
H371 C374 0.980 . S
H372 C374 0.981 . S
H373 C374 0.981 . S
C374 C366 1.481 . S
C374 H371 0.980 . S
C374 H372 0.981 . S
C374 H373 0.981 . S
C375 C362 1.481 . S
C375 H376 0.980 . S
C375 H377 0.981 . S
C375 H378 0.981 . S
H376 C375 0.980 . S
H377 C375 0.981 . S
H378 C375 0.981 . S
O379 Zn355 2.066 . S
O379 C358 1.256 . S
O380 Zn352 2.053 . S
O380 C358 1.244 . S
C381 O359 1.259 . S
C381 O360 1.254 . S
O382 Zn352 2.066 . S
O382 C354 1.256 . S
O383 C354 1.244 . S
O383 Zn355 2.053 . S
Zn384 O385 2.055 . S
Zn384 O392 2.046 . S
Zn384 N400 2.036 . S
Zn384 O412 2.053 . S
Zn384 O414 2.066 . S
O385 Zn384 2.055 . S
O385 C388 1.259 . S
C386 O414 1.256 . S
C386 O415 1.244 . S
Zn387 O389 2.046 . S
Zn387 O391 2.055 . S
Zn387 N393 2.036 . S
Zn387 O411 2.066 . S
Zn387 O415 2.053 . S
C388 O385 1.259 . S
C388 O389 1.254 . S
O389 Zn387 2.046 . S
O389 C388 1.254 . S
C390 O411 1.256 . S
C390 O412 1.244 . S
O391 Zn387 2.055 . S
O391 C413 1.259 . S
O392 Zn384 2.046 . S
O392 C413 1.254 . S
N393 Zn387 2.036 . S
N393 C394 1.298 . S
N393 N396 1.398 . S
C394 N393 1.298 . S
C394 N397 1.367 . S
C394 C407 1.481 . S
C395 N396 1.299 . S
C395 N397 1.379 . S
N396 N393 1.398 . S
N396 C395 1.299 . S
N397 C394 1.367 . S
N397 C395 1.379 . S
C398 N400 1.298 . S
C398 N402 1.367 . S
C398 C406 1.481 . S
C399 N401 1.299 . S
C399 N402 1.379 . S
N400 Zn384 2.036 . S
N400 C398 1.298 . S
N400 N401 1.398 . S
N401 C399 1.299 . S
N401 N400 1.398 . S
N402 C398 1.367 . S
N402 C399 1.379 . S
H403 C406 0.980 . S
H404 C406 0.981 . S
H405 C406 0.981 . S
C406 C398 1.481 . S
C406 H403 0.980 . S
C406 H404 0.981 . S
C406 H405 0.981 . S
C407 C394 1.481 . S
C407 H408 0.980 . S
C407 H409 0.981 . S
C407 H410 0.981 . S
H408 C407 0.980 . S
H409 C407 0.981 . S
H410 C407 0.981 . S
O411 Zn387 2.066 . S
O411 C390 1.256 . S
O412 Zn384 2.053 . S
O412 C390 1.244 . S
C413 O391 1.259 . S
C413 O392 1.254 . S
O414 Zn384 2.066 . S
O414 C386 1.256 . S
O415 C386 1.244 . S
O415 Zn387 2.053 . S
Zn416 O417 2.055 . S
Zn416 O424 2.046 . S
Zn416 N432 2.036 . S
Zn416 O444 2.053 . S
Zn416 O446 2.066 . S
O417 Zn416 2.055 . S
O417 C420 1.259 . S
C418 O446 1.256 . S
C418 O447 1.244 . S
Zn419 O421 2.046 . S
Zn419 O423 2.055 . S
Zn419 N425 2.036 . S
Zn419 O443 2.066 . S
Zn419 O447 2.053 . S
C420 O417 1.259 . S
C420 O421 1.254 . S
O421 Zn419 2.046 . S
O421 C420 1.254 . S
C422 O443 1.256 . S
C422 O444 1.244 . S
O423 Zn419 2.055 . S
O423 C445 1.259 . S
O424 Zn416 2.046 . S
O424 C445 1.254 . S
N425 Zn419 2.036 . S
N425 C426 1.298 . S
N425 N428 1.398 . S
C426 N425 1.298 . S
C426 N429 1.367 . S
C426 C439 1.481 . S
C427 N428 1.299 . S
C427 N429 1.379 . S
N428 N425 1.398 . S
N428 C427 1.299 . S
N429 C426 1.367 . S
N429 C427 1.379 . S
C430 N432 1.298 . S
C430 N434 1.367 . S
C430 C438 1.481 . S
C431 N433 1.299 . S
C431 N434 1.379 . S
N432 Zn416 2.036 . S
N432 C430 1.298 . S
N432 N433 1.398 . S
N433 C431 1.299 . S
N433 N432 1.398 . S
N434 C430 1.367 . S
N434 C431 1.379 . S
H435 C438 0.980 . S
H436 C438 0.981 . S
H437 C438 0.981 . S
C438 C430 1.481 . S
C438 H435 0.980 . S
C438 H436 0.981 . S
C438 H437 0.981 . S
C439 C426 1.481 . S
C439 H440 0.980 . S
C439 H441 0.981 . S
C439 H442 0.981 . S
H440 C439 0.980 . S
H441 C439 0.981 . S
H442 C439 0.981 . S
O443 Zn419 2.066 . S
O443 C422 1.256 . S
O444 Zn416 2.053 . S
O444 C422 1.244 . S
C445 O423 1.259 . S
C445 O424 1.254 . S
O446 Zn416 2.066 . S
O446 C418 1.256 . S
O447 C418 1.244 . S
O447 Zn419 2.053 . S
Zn448 O449 2.055 . S
Zn448 O456 2.046 . S
Zn448 N464 2.036 . S
Zn448 O476 2.053 . S
Zn448 O478 2.066 . S
O449 Zn448 2.055 . S
O449 C452 1.259 . S
C450 O478 1.256 . S
C450 O479 1.244 . S
Zn451 O453 2.046 . S
Zn451 O455 2.055 . S
Zn451 N457 2.036 . S
Zn451 O475 2.066 . S
Zn451 O479 2.053 . S
C452 O449 1.259 . S
C452 O453 1.254 . S
O453 Zn451 2.046 . S
O453 C452 1.254 . S
C454 O475 1.256 . S
C454 O476 1.244 . S
O455 Zn451 2.055 . S
O455 C477 1.259 . S
O456 Zn448 2.046 . S
O456 C477 1.254 . S
N457 Zn451 2.036 . S
N457 C458 1.298 . S
N457 N460 1.398 . S
C458 N457 1.298 . S
C458 N461 1.367 . S
C458 C471 1.481 . S
C459 N460 1.299 . S
C459 N461 1.379 . S
N460 N457 1.398 . S
N460 C459 1.299 . S
N461 C458 1.367 . S
N461 C459 1.379 . S
C462 N464 1.298 . S
C462 N466 1.367 . S
C462 C470 1.481 . S
C463 N465 1.299 . S
C463 N466 1.379 . S
N464 Zn448 2.036 . S
N464 C462 1.298 . S
N464 N465 1.398 . S
N465 C463 1.299 . S
N465 N464 1.398 . S
N466 C462 1.367 . S
N466 C463 1.379 . S
H467 C470 0.980 . S
H468 C470 0.981 . S
H469 C470 0.981 . S
C470 C462 1.481 . S
C470 H467 0.980 . S
C470 H468 0.981 . S
C470 H469 0.981 . S
C471 C458 1.481 . S
C471 H472 0.980 . S
C471 H473 0.981 . S
C471 H474 0.981 . S
H472 C471 0.980 . S
H473 C471 0.981 . S
H474 C471 0.981 . S
O475 Zn451 2.066 . S
O475 C454 1.256 . S
O476 Zn448 2.053 . S
O476 C454 1.244 . S
C477 O455 1.259 . S
C477 O456 1.254 . S
O478 Zn448 2.066 . S
O478 C450 1.256 . S
O479 C450 1.244 . S
O479 Zn451 2.053 . S
Zn480 O481 2.055 . S
Zn480 O488 2.046 . S
Zn480 N496 2.036 . S
Zn480 O508 2.053 . S
Zn480 O510 2.066 . S
O481 Zn480 2.055 . S
O481 C484 1.259 . S
C482 O510 1.256 . S
C482 O511 1.244 . S
Zn483 O485 2.046 . S
Zn483 O487 2.055 . S
Zn483 N489 2.036 . S
Zn483 O507 2.066 . S
Zn483 O511 2.053 . S
C484 O481 1.259 . S
C484 O485 1.254 . S
O485 Zn483 2.046 . S
O485 C484 1.254 . S
C486 O507 1.256 . S
C486 O508 1.244 . S
O487 Zn483 2.055 . S
O487 C509 1.259 . S
O488 Zn480 2.046 . S
O488 C509 1.254 . S
N489 Zn483 2.036 . S
N489 C490 1.298 . S
N489 N492 1.398 . S
C490 N489 1.298 . S
C490 N493 1.367 . S
C490 C503 1.481 . S
C491 N492 1.299 . S
C491 N493 1.379 . S
N492 N489 1.398 . S
N492 C491 1.299 . S
N493 C490 1.367 . S
N493 C491 1.379 . S
C494 N496 1.298 . S
C494 N498 1.367 . S
C494 C502 1.481 . S
C495 N497 1.299 . S
C495 N498 1.379 . S
N496 Zn480 2.036 . S
N496 C494 1.298 . S
N496 N497 1.398 . S
N497 C495 1.299 . S
N497 N496 1.398 . S
N498 C494 1.367 . S
N498 C495 1.379 . S
H499 C502 0.980 . S
H500 C502 0.981 . S
H501 C502 0.981 . S
C502 C494 1.481 . S
C502 H499 0.980 . S
C502 H500 0.981 . S
C502 H501 0.981 . S
C503 C490 1.481 . S
C503 H504 0.980 . S
C503 H505 0.981 . S
C503 H506 0.981 . S
H504 C503 0.980 . S
H505 C503 0.981 . S
H506 C503 0.981 . S
O507 Zn483 2.066 . S
O507 C486 1.256 . S
O508 Zn480 2.053 . S
O508 C486 1.244 . S
C509 O487 1.259 . S
C509 O488 1.254 . S
O510 Zn480 2.066 . S
O510 C482 1.256 . S
O511 C482 1.244 . S
O511 Zn483 2.053 . S
Zn512 O513 2.055 . S
Zn512 O520 2.046 . S
Zn512 N528 2.036 . S
Zn512 O540 2.053 . S
Zn512 O542 2.066 . S
O513 Zn512 2.055 . S
O513 C516 1.259 . S
C514 O542 1.256 . S
C514 O543 1.244 . S
Zn515 O517 2.046 . S
Zn515 O519 2.055 . S
Zn515 N521 2.036 . S
Zn515 O539 2.066 . S
Zn515 O543 2.053 . S
C516 O513 1.259 . S
C516 O517 1.254 . S
O517 Zn515 2.046 . S
O517 C516 1.254 . S
C518 O539 1.256 . S
C518 O540 1.244 . S
O519 Zn515 2.055 . S
O519 C541 1.259 . S
O520 Zn512 2.046 . S
O520 C541 1.254 . S
N521 Zn515 2.036 . S
N521 C522 1.298 . S
N521 N524 1.398 . S
C522 N521 1.298 . S
C522 N525 1.367 . S
C522 C535 1.481 . S
C523 N524 1.299 . S
C523 N525 1.379 . S
N524 N521 1.398 . S
N524 C523 1.299 . S
N525 C522 1.367 . S
N525 C523 1.379 . S
C526 N528 1.298 . S
C526 N530 1.367 . S
C526 C534 1.481 . S
C527 N529 1.299 . S
C527 N530 1.379 . S
N528 Zn512 2.036 . S
N528 C526 1.298 . S
N528 N529 1.398 . S
N529 C527 1.299 . S
N529 N528 1.398 . S
N530 C526 1.367 . S
N530 C527 1.379 . S
H531 C534 0.980 . S
H532 C534 0.981 . S
H533 C534 0.981 . S
C534 C526 1.481 . S
C534 H531 0.980 . S
C534 H532 0.981 . S
C534 H533 0.981 . S
C535 C522 1.481 . S
C535 H536 0.980 . S
C535 H537 0.981 . S
C535 H538 0.981 . S
H536 C535 0.980 . S
H537 C535 0.981 . S
H538 C535 0.981 . S
O539 Zn515 2.066 . S
O539 C518 1.256 . S
O540 Zn512 2.053 . S
O540 C518 1.244 . S
C541 O519 1.259 . S
C541 O520 1.254 . S
O542 Zn512 2.066 . S
O542 C514 1.256 . S
O543 C514 1.244 . S
O543 Zn515 2.053 . S
Zn544 O545 2.055 . S
Zn544 O552 2.046 . S
Zn544 N560 2.036 . S
Zn544 O572 2.053 . S
Zn544 O574 2.066 . S
O545 Zn544 2.055 . S
O545 C548 1.259 . S
C546 O574 1.256 . S
C546 O575 1.244 . S
Zn547 O549 2.046 . S
Zn547 O551 2.055 . S
Zn547 N553 2.036 . S
Zn547 O571 2.066 . S
Zn547 O575 2.053 . S
C548 O545 1.259 . S
C548 O549 1.254 . S
O549 Zn547 2.046 . S
O549 C548 1.254 . S
C550 O571 1.256 . S
C550 O572 1.244 . S
O551 Zn547 2.055 . S
O551 C573 1.259 . S
O552 Zn544 2.046 . S
O552 C573 1.254 . S
N553 Zn547 2.036 . S
N553 C554 1.298 . S
N553 N556 1.398 . S
C554 N553 1.298 . S
C554 N557 1.367 . S
C554 C567 1.481 . S
C555 N556 1.299 . S
C555 N557 1.379 . S
N556 N553 1.398 . S
N556 C555 1.299 . S
N557 C554 1.367 . S
N557 C555 1.379 . S
C558 N560 1.298 . S
C558 N562 1.367 . S
C558 C566 1.481 . S
C559 N561 1.299 . S
C559 N562 1.379 . S
N560 Zn544 2.036 . S
N560 C558 1.298 . S
N560 N561 1.398 . S
N561 C559 1.299 . S
N561 N560 1.398 . S
N562 C558 1.367 . S
N562 C559 1.379 . S
H563 C566 0.980 . S
H564 C566 0.981 . S
H565 C566 0.981 . S
C566 C558 1.481 . S
C566 H563 0.980 . S
C566 H564 0.981 . S
C566 H565 0.981 . S
C567 C554 1.481 . S
C567 H568 0.980 . S
C567 H569 0.981 . S
C567 H570 0.981 . S
H568 C567 0.980 . S
H569 C567 0.981 . S
H570 C567 0.981 . S
O571 Zn547 2.066 . S
O571 C550 1.256 . S
O572 Zn544 2.053 . S
O572 C550 1.244 . S
C573 O551 1.259 . S
C573 O552 1.254 . S
O574 Zn544 2.066 . S
O574 C546 1.256 . S
O575 C546 1.244 . S
O575 Zn547 2.053 . S
H576 C582 0.930 . S
H577 C586 0.930 . S
H578 C591 0.929 . S
H579 C589 0.929 . S
H580 C584 0.929 . S
H581 C590 0.929 . S
C582 H576 0.930 . S
C582 C583 1.367 . S
C582 C590 1.378 . S
C583 C582 1.367 . S
C583 C591 1.433 . S
C584 H580 0.929 . S
C584 C586 1.378 . S
C584 C588 1.350 . S
C585 C588 1.463 . S
C585 C590 1.350 . S
C585 N593 1.427 . S
C586 H577 0.930 . S
C586 C584 1.378 . S
C586 C587 1.367 . S
C587 C586 1.367 . S
C587 C589 1.433 . S
C588 C584 1.350 . S
C588 C585 1.463 . S
C588 N592 1.427 . S
C589 H579 0.929 . S
C589 C587 1.433 . S
C589 N592 1.384 . S
C590 H581 0.929 . S
C590 C582 1.378 . S
C590 C585 1.350 . S
C591 H578 0.929 . S
C591 C583 1.433 . S
C591 N593 1.384 . S
N592 C588 1.427 . S
N592 C589 1.384 . S
N593 C585 1.427 . S
N593 C591 1.384 . S
H594 C600 0.930 . S
H595 C604 0.930 . S
H596 C609 0.929 . S
H597 C607 0.929 . S
H598 C602 0.929 . S
H599 C608 0.929 . S
C600 H594 0.930 . S
C600 C601 1.367 . S
C600 C608 1.378 . S
C601 C600 1.367 . S
C601 C609 1.433 . S
C602 H598 0.929 . S
C602 C604 1.378 . S
C602 C606 1.350 . S
C603 C606 1.463 . S
C603 C608 1.350 . S
C603 N611 1.427 . S
C604 H595 0.930 . S
C604 C602 1.378 . S
C604 C605 1.367 . S
C605 C604 1.367 . S
C605 C607 1.433 . S
C606 C602 1.350 . S
C606 C603 1.463 . S
C606 N610 1.427 . S
C607 H597 0.929 . S
C607 C605 1.433 . S
C607 N610 1.384 . S
C608 H599 0.929 . S
C608 C600 1.378 . S
C608 C603 1.350 . S
C609 H596 0.929 . S
C609 C601 1.433 . S
C609 N611 1.384 . S
N610 C606 1.427 . S
N610 C607 1.384 . S
N611 C603 1.427 . S
N611 C609 1.384 . S
H612 C618 0.930 . S
H613 C622 0.930 . S
H614 C627 0.929 . S
H615 C625 0.929 . S
H616 C620 0.929 . S
H617 C626 0.929 . S
C618 H612 0.930 . S
C618 C619 1.367 . S
C618 C626 1.378 . S
C619 C618 1.367 . S
C619 C627 1.433 . S
C620 H616 0.929 . S
C620 C622 1.378 . S
C620 C624 1.350 . S
C621 C624 1.463 . S
C621 C626 1.350 . S
C621 N629 1.427 . S
C622 H613 0.930 . S
C622 C620 1.378 . S
C622 C623 1.367 . S
C623 C622 1.367 . S
C623 C625 1.433 . S
C624 C620 1.350 . S
C624 C621 1.463 . S
C624 N628 1.427 . S
C625 H615 0.929 . S
C625 C623 1.433 . S
C625 N628 1.384 . S
C626 H617 0.929 . S
C626 C618 1.378 . S
C626 C621 1.350 . S
C627 H614 0.929 . S
C627 C619 1.433 . S
C627 N629 1.384 . S
N628 C624 1.427 . S
N628 C625 1.384 . S
N629 C621 1.427 . S
N629 C627 1.384 . S
H630 C636 0.930 . S
H631 C640 0.930 . S
H632 C645 0.929 . S
H633 C643 0.929 . S
H634 C638 0.929 . S
H635 C644 0.929 . S
C636 H630 0.930 . S
C636 C637 1.367 . S
C636 C644 1.378 . S
C637 C636 1.367 . S
C637 C645 1.433 . S
C638 H634 0.929 . S
C638 C640 1.378 . S
C638 C642 1.350 . S
C639 C642 1.463 . S
C639 C644 1.350 . S
C639 N647 1.427 . S
C640 H631 0.930 . S
C640 C638 1.378 . S
C640 C641 1.367 . S
C641 C640 1.367 . S
C641 C643 1.433 . S
C642 C638 1.350 . S
C642 C639 1.463 . S
C642 N646 1.427 . S
C643 H633 0.929 . S
C643 C641 1.433 . S
C643 N646 1.384 . S
C644 H635 0.929 . S
C644 C636 1.378 . S
C644 C639 1.350 . S
C645 H632 0.929 . S
C645 C637 1.433 . S
C645 N647 1.384 . S
N646 C642 1.427 . S
N646 C643 1.384 . S
N647 C639 1.427 . S
N647 C645 1.384 . S
H648 C654 0.930 . S
H649 C658 0.930 . S
H650 C663 0.929 . S
H651 C661 0.929 . S
H652 C656 0.929 . S
H653 C662 0.929 . S
C654 H648 0.930 . S
C654 C655 1.367 . S
C654 C662 1.378 . S
C655 C654 1.367 . S
C655 C663 1.433 . S
C656 H652 0.929 . S
C656 C658 1.378 . S
C656 C660 1.350 . S
C657 C660 1.463 . S
C657 C662 1.350 . S
C657 N665 1.427 . S
C658 H649 0.930 . S
C658 C656 1.378 . S
C658 C659 1.367 . S
C659 C658 1.367 . S
C659 C661 1.433 . S
C660 C656 1.350 . S
C660 C657 1.463 . S
C660 N664 1.427 . S
C661 H651 0.929 . S
C661 C659 1.433 . S
C661 N664 1.384 . S
C662 H653 0.929 . S
C662 C654 1.378 . S
C662 C657 1.350 . S
C663 H650 0.929 . S
C663 C655 1.433 . S
C663 N665 1.384 . S
N664 C660 1.427 . S
N664 C661 1.384 . S
N665 C657 1.427 . S
N665 C663 1.384 . S
H666 C672 0.930 . S
H667 C676 0.930 . S
H668 C681 0.929 . S
H669 C679 0.929 . S
H670 C674 0.929 . S
H671 C680 0.929 . S
C672 H666 0.930 . S
C672 C673 1.367 . S
C672 C680 1.378 . S
C673 C672 1.367 . S
C673 C681 1.433 . S
C674 H670 0.929 . S
C674 C676 1.378 . S
C674 C678 1.350 . S
C675 C678 1.463 . S
C675 C680 1.350 . S
C675 N683 1.427 . S
C676 H667 0.930 . S
C676 C674 1.378 . S
C676 C677 1.367 . S
C677 C676 1.367 . S
C677 C679 1.433 . S
C678 C674 1.350 . S
C678 C675 1.463 . S
C678 N682 1.427 . S
C679 H669 0.929 . S
C679 C677 1.433 . S
C679 N682 1.384 . S
C680 H671 0.929 . S
C680 C672 1.378 . S
C680 C675 1.350 . S
C681 H668 0.929 . S
C681 C673 1.433 . S
C681 N683 1.384 . S
N682 C678 1.427 . S
N682 C679 1.384 . S
N683 C675 1.427 . S
N683 C681 1.384 . S
H684 C690 0.930 . S
H685 C694 0.930 . S
H686 C699 0.929 . S
H687 C697 0.929 . S
H688 C692 0.929 . S
H689 C698 0.929 . S
C690 H684 0.930 . S
C690 C691 1.367 . S
C690 C698 1.378 . S
C691 C690 1.367 . S
C691 C699 1.433 . S
C692 H688 0.929 . S
C692 C694 1.378 . S
C692 C696 1.350 . S
C693 C696 1.463 . S
C693 C698 1.350 . S
C693 N701 1.427 . S
C694 H685 0.930 . S
C694 C692 1.378 . S
C694 C695 1.367 . S
C695 C694 1.367 . S
C695 C697 1.433 . S
C696 C692 1.350 . S
C696 C693 1.463 . S
C696 N700 1.427 . S
C697 H687 0.929 . S
C697 C695 1.433 . S
C697 N700 1.384 . S
C698 H689 0.929 . S
C698 C690 1.378 . S
C698 C693 1.350 . S
C699 H686 0.929 . S
C699 C691 1.433 . S
C699 N701 1.384 . S
N700 C696 1.427 . S
N700 C697 1.384 . S
N701 C693 1.427 . S
N701 C699 1.384 . S
H702 C708 0.930 . S
H703 C712 0.930 1_565 S
H704 C717 0.929 . S
H705 C715 0.929 1_565 S
H706 C710 0.929 . S
H707 C716 0.929 . S
C708 H702 0.930 . S
C708 C709 1.367 . S
C708 C716 1.378 1_455 S
C709 C708 1.367 . S
C709 C717 1.433 . S
C710 H706 0.929 . S
C710 C712 1.378 . S
C710 C714 1.350 . S
C711 C714 1.463 . S
C711 C716 1.350 . S
C711 N719 1.427 . S
C712 H703 0.930 1_545 S
C712 C710 1.378 . S
C712 C713 1.367 1_545 S
C713 C712 1.367 1_565 S
C713 C715 1.433 1_565 S
C714 C710 1.350 . S
C714 C711 1.463 . S
C714 N718 1.427 . S
C715 H705 0.929 1_545 S
C715 C713 1.433 1_545 S
C715 N718 1.384 . S
C716 H707 0.929 . S
C716 C708 1.378 1_655 S
C716 C711 1.350 . S
C717 H704 0.929 . S
C717 C709 1.433 . S
C717 N719 1.384 1_455 S
N718 C714 1.427 . S
N718 C715 1.384 . S
N719 C711 1.427 . S
N719 C717 1.384 1_655 S
H720 C726 0.930 . S
H721 C730 0.930 . S
H722 C735 0.929 . S
H723 C733 0.929 . S
H724 C728 0.929 . S
H725 C734 0.941 . S
C726 H720 0.930 . S
C726 C727 1.367 . S
C726 C734 1.354 1_455 S
C727 C726 1.367 . S
C727 C735 1.433 . S
C728 H724 0.929 . S
C728 C730 1.378 . S
C728 C732 1.350 . S
C729 C732 1.463 . S
C729 C734 1.361 . S
C729 N737 1.427 . S
C730 H721 0.930 . S
C730 C728 1.378 . S
C730 C731 1.367 . S
C731 C730 1.367 . S
C731 C733 1.433 . S
C732 C728 1.350 . S
C732 C729 1.463 . S
C732 N736 1.427 . S
C733 H723 0.929 . S
C733 C731 1.433 . S
C733 N736 1.384 . S
C734 H725 0.941 . S
C734 C726 1.354 1_655 S
C734 C729 1.361 . S
C735 H722 0.929 . S
C735 C727 1.433 . S
C735 N737 1.384 1_455 S
N736 C732 1.427 . S
N736 C733 1.384 . S
N737 C729 1.427 . S
N737 C735 1.384 1_655 S
H738 C744 0.930 . S
H739 C748 0.930 . S
H740 C753 0.929 . S
H741 C751 0.929 . S
H742 C746 0.929 . S
H743 C752 0.929 . S
C744 H738 0.930 . S
C744 C745 1.367 . S
C744 C752 1.378 . S
C745 C744 1.367 . S
C745 C753 1.433 . S
C746 H742 0.929 . S
C746 C748 1.378 . S
C746 C750 1.350 . S
C747 C750 1.463 . S
C747 C752 1.350 . S
C747 N755 1.427 . S
C748 H739 0.930 . S
C748 C746 1.378 . S
C748 C749 1.367 . S
C749 C748 1.367 . S
C749 C751 1.433 . S
C750 C746 1.350 . S
C750 C747 1.463 . S
C750 N754 1.427 . S
C751 H741 0.929 . S
C751 C749 1.433 . S
C751 N754 1.384 . S
C752 H743 0.929 . S
C752 C744 1.378 . S
C752 C747 1.350 . S
C753 H740 0.929 . S
C753 C745 1.433 . S
C753 N755 1.384 . S
N754 C750 1.427 . S
N754 C751 1.384 . S
N755 C747 1.427 . S
N755 C753 1.384 . S
H756 C762 0.930 . S
H757 C766 0.930 . S
H758 C771 0.929 . S
H759 C769 0.929 . S
H760 C764 0.929 . S
H761 C770 0.929 . S
C762 H756 0.930 . S
C762 C763 1.367 . S
C762 C770 1.378 . S
C763 C762 1.367 . S
C763 C771 1.433 . S
C764 H760 0.929 . S
C764 C766 1.378 . S
C764 C768 1.350 . S
C765 C768 1.463 . S
C765 C770 1.350 . S
C765 N773 1.427 . S
C766 H757 0.930 . S
C766 C764 1.378 . S
C766 C767 1.367 . S
C767 C766 1.367 . S
C767 C769 1.433 . S
C768 C764 1.350 . S
C768 C765 1.463 . S
C768 N772 1.427 . S
C769 H759 0.929 . S
C769 C767 1.433 . S
C769 N772 1.384 . S
C770 H761 0.929 . S
C770 C762 1.378 . S
C770 C765 1.350 . S
C771 H758 0.929 . S
C771 C763 1.433 . S
C771 N773 1.384 . S
N772 C768 1.427 . S
N772 C769 1.384 . S
N773 C765 1.427 . S
N773 C771 1.384 . S
H774 C780 0.930 . S
H775 C784 0.930 . S
H776 C789 0.929 . S
H777 C787 0.929 . S
H778 C782 0.929 . S
H779 C788 0.929 . S
C780 H774 0.930 . S
C780 C781 1.367 . S
C780 C788 1.378 . S
C781 C780 1.367 . S
C781 C789 1.433 . S
C782 H778 0.929 . S
C782 C784 1.378 . S
C782 C786 1.350 . S
C783 C786 1.463 . S
C783 C788 1.350 . S
C783 N791 1.427 . S
C784 H775 0.930 . S
C784 C782 1.378 . S
C784 C785 1.367 . S
C785 C784 1.367 . S
C785 C787 1.433 . S
C786 C782 1.350 . S
C786 C783 1.463 . S
C786 N790 1.427 . S
C787 H777 0.929 . S
C787 C785 1.433 . S
C787 N790 1.384 . S
C788 H779 0.929 . S
C788 C780 1.378 . S
C788 C783 1.350 . S
C789 H776 0.929 . S
C789 C781 1.433 . S
C789 N791 1.384 . S
N790 C786 1.427 . S
N790 C787 1.384 . S
N791 C783 1.427 . S
N791 C789 1.384 . S
H792 C798 0.930 . S
H793 C802 0.930 . S
H794 C807 0.929 . S
H795 C805 0.929 . S
H796 C800 0.929 . S
H797 C806 0.929 . S
C798 H792 0.930 . S
C798 C799 1.367 . S
C798 C806 1.378 . S
C799 C798 1.367 . S
C799 C807 1.433 . S
C800 H796 0.929 . S
C800 C802 1.378 . S
C800 C804 1.350 . S
C801 C804 1.463 . S
C801 C806 1.350 . S
C801 N809 1.427 . S
C802 H793 0.930 . S
C802 C800 1.378 . S
C802 C803 1.367 . S
C803 C802 1.367 . S
C803 C805 1.433 . S
C804 C800 1.350 . S
C804 C801 1.463 . S
C804 N808 1.427 . S
C805 H795 0.929 . S
C805 C803 1.433 . S
C805 N808 1.384 . S
C806 H797 0.929 . S
C806 C798 1.378 . S
C806 C801 1.350 . S
C807 H794 0.929 . S
C807 C799 1.433 . S
C807 N809 1.384 . S
N808 C804 1.427 . S
N808 C805 1.384 . S
N809 C801 1.427 . S
N809 C807 1.384 . S
H810 C816 0.930 . S
H811 C820 0.930 . S
H812 C825 0.929 . S
H813 C823 0.929 . S
H814 C818 0.929 . S
H815 C824 0.929 . S
C816 H810 0.930 . S
C816 C817 1.367 . S
C816 C824 1.378 . S
C817 C816 1.367 . S
C817 C825 1.433 . S
C818 H814 0.929 . S
C818 C820 1.378 . S
C818 C822 1.350 . S
C819 C822 1.463 . S
C819 C824 1.350 . S
C819 N827 1.427 . S
C820 H811 0.930 . S
C820 C818 1.378 . S
C820 C821 1.367 . S
C821 C820 1.367 . S
C821 C823 1.433 . S
C822 C818 1.350 . S
C822 C819 1.463 . S
C822 N826 1.427 . S
C823 H813 0.929 . S
C823 C821 1.433 . S
C823 N826 1.384 . S
C824 H815 0.929 . S
C824 C816 1.378 . S
C824 C819 1.350 . S
C825 H812 0.929 . S
C825 C817 1.433 . S
C825 N827 1.384 . S
N826 C822 1.427 . S
N826 C823 1.384 . S
N827 C819 1.427 . S
N827 C825 1.384 . S
H828 C834 0.930 . S
H829 C838 0.930 . S
H830 C843 0.929 . S
H831 C841 0.929 . S
H832 C836 0.929 . S
H833 C842 0.929 . S
C834 H828 0.930 . S
C834 C835 1.367 . S
C834 C842 1.378 . S
C835 C834 1.367 . S
C835 C843 1.433 . S
C836 H832 0.929 . S
C836 C838 1.378 . S
C836 C840 1.350 . S
C837 C840 1.463 . S
C837 C842 1.350 . S
C837 N845 1.427 . S
C838 H829 0.930 . S
C838 C836 1.378 . S
C838 C839 1.367 . S
C839 C838 1.367 . S
C839 C841 1.433 . S
C840 C836 1.350 . S
C840 C837 1.463 . S
C840 N844 1.427 . S
C841 H831 0.929 . S
C841 C839 1.433 . S
C841 N844 1.384 . S
C842 H833 0.929 . S
C842 C834 1.378 . S
C842 C837 1.350 . S
C843 H830 0.929 . S
C843 C835 1.433 . S
C843 N845 1.384 . S
N844 C840 1.427 . S
N844 C841 1.384 . S
N845 C837 1.427 . S
N845 C843 1.384 . S
H846 C852 0.930 . S
H847 C856 0.930 . S
H848 C861 0.929 . S
H849 C859 0.929 . S
H850 C854 0.929 . S
H851 C860 0.929 . S
C852 H846 0.930 . S
C852 C853 1.367 . S
C852 C860 1.378 . S
C853 C852 1.367 . S
C853 C861 1.433 . S
C854 H850 0.929 . S
C854 C856 1.378 . S
C854 C858 1.350 . S
C855 C858 1.463 . S
C855 C860 1.350 . S
C855 N863 1.427 . S
C856 H847 0.930 . S
C856 C854 1.378 . S
C856 C857 1.367 . S
C857 C856 1.367 . S
C857 C859 1.433 . S
C858 C854 1.350 . S
C858 C855 1.463 . S
C858 N862 1.427 . S
C859 H849 0.929 . S
C859 C857 1.433 . S
C859 N862 1.384 . S
C860 H851 0.929 . S
C860 C852 1.378 . S
C860 C855 1.350 . S
C861 H848 0.929 . S
C861 C853 1.433 . S
C861 N863 1.384 . S
N862 C858 1.427 . S
N862 C859 1.384 . S
N863 C855 1.427 . S
N863 C861 1.384 . S
H864 C870 0.930 . S
H865 C874 0.930 . S
H866 C879 0.929 . S
H867 C877 0.929 . S
H868 C872 0.929 1_565 S
H869 C878 0.929 . S
C870 H864 0.930 . S
C870 C871 1.367 . S
C870 C878 1.378 . S
C871 C870 1.367 . S
C871 C879 1.433 . S
C872 H868 0.929 1_545 S
C872 C874 1.378 . S
C872 C876 1.350 1_545 S
C873 C876 1.463 . S
C873 C878 1.350 . S
C873 N881 1.427 . S
C874 H865 0.930 . S
C874 C872 1.378 . S
C874 C875 1.367 . S
C875 C874 1.367 . S
C875 C877 1.433 . S
C876 C872 1.350 1_565 S
C876 C873 1.463 . S
C876 N880 1.427 . S
C877 H867 0.929 . S
C877 C875 1.433 . S
C877 N880 1.384 1_545 S
C878 H869 0.929 . S
C878 C870 1.378 . S
C878 C873 1.350 . S
C879 H866 0.929 . S
C879 C871 1.433 . S
C879 N881 1.384 . S
N880 C876 1.427 . S
N880 C877 1.384 1_565 S
N881 C873 1.427 . S
N881 C879 1.384 . S
H882 C888 0.930 . S
H883 C892 0.930 1_655 S
H884 C897 0.929 . S
H885 C895 0.929 . S
H886 C890 0.929 . S
H887 C896 0.929 . S
C888 H882 0.930 . S
C888 C889 1.367 . S
C888 C896 1.378 1_545 S
C889 C888 1.367 . S
C889 C897 1.433 . S
C890 H886 0.929 . S
C890 C892 1.378 . S
C890 C894 1.350 . S
C891 C894 1.463 . S
C891 C896 1.350 . S
C891 N899 1.427 . S
C892 H883 0.930 1_455 S
C892 C890 1.378 . S
C892 C893 1.367 1_455 S
C893 C892 1.367 1_655 S
C893 C895 1.433 . S
C894 C890 1.350 . S
C894 C891 1.463 . S
C894 N898 1.427 . S
C895 H885 0.929 . S
C895 C893 1.433 . S
C895 N898 1.384 1_655 S
C896 H887 0.929 . S
C896 C888 1.378 1_565 S
C896 C891 1.350 . S
C897 H884 0.929 . S
C897 C889 1.433 . S
C897 N899 1.384 1_545 S
N898 C894 1.427 . S
N898 C895 1.384 1_455 S
N899 C891 1.427 . S
N899 C897 1.384 1_565 S
H900 C906 0.930 . S
H901 C910 0.930 . S
H902 C915 0.929 1_565 S
H903 C913 0.929 . S
H904 C908 0.929 . S
H905 C914 0.929 . S
C906 H900 0.930 . S
C906 C907 1.367 . S
C906 C914 1.378 . S
C907 C906 1.367 . S
C907 C915 1.433 . S
C908 H904 0.929 . S
C908 C910 1.378 . S
C908 C912 1.350 1_565 S
C909 C912 1.463 1_554 S
C909 C914 1.350 . S
C909 N917 1.427 1_545 S
C910 H901 0.930 . S
C910 C908 1.378 . S
C910 C911 1.367 1_565 S
C911 C910 1.367 1_545 S
C911 C913 1.433 . S
C912 C908 1.350 1_545 S
C912 C909 1.463 1_556 S
C912 N916 1.427 . S
C913 H903 0.929 . S
C913 C911 1.433 . S
C913 N916 1.384 . S
C914 H905 0.929 . S
C914 C906 1.378 . S
C914 C909 1.350 . S
C915 H902 0.929 1_545 S
C915 C907 1.433 . S
C915 N917 1.384 1_545 S
N916 C912 1.427 . S
N916 C913 1.384 . S
N917 C909 1.427 1_565 S
N917 C915 1.384 1_565 S
H918 C924 0.930 . S
H919 C928 0.930 . S
H920 C933 0.929 . S
H921 C931 0.929 . S
H922 C926 0.929 . S
H923 C932 0.929 . S
C924 H918 0.930 . S
C924 C925 1.367 1_655 S
C924 C932 1.378 . S
C925 C924 1.367 1_455 S
C925 C933 1.433 . S
C926 H922 0.929 . S
C926 C928 1.378 . S
C926 C930 1.350 . S
C927 C930 1.463 1_556 S
C927 C932 1.350 1_455 S
C927 N935 1.427 . S
C928 H919 0.930 . S
C928 C926 1.378 . S
C928 C929 1.367 . S
C929 C928 1.367 . S
C929 C931 1.433 1_455 S
C930 C926 1.350 . S
C930 C927 1.463 1_554 S
C930 N934 1.427 1_455 S
C931 H921 0.929 . S
C931 C929 1.433 1_655 S
C931 N934 1.384 . S
C932 H923 0.929 . S
C932 C924 1.378 . S
C932 C927 1.350 1_655 S
C933 H920 0.929 . S
C933 C925 1.433 . S
C933 N935 1.384 . S
N934 C930 1.427 1_655 S
N934 C931 1.384 . S
N935 C927 1.427 . S
N935 C933 1.384 . S
H936 C942 0.930 . S
H937 C946 0.930 . S
H938 C951 0.929 . S
H939 C949 0.929 . S
H940 C944 0.929 . S
H941 C950 0.929 . S
C942 H936 0.930 . S
C942 C943 1.367 . S
C942 C950 1.378 . S
C943 C942 1.367 . S
C943 C951 1.433 . S
C944 H940 0.929 . S
C944 C946 1.378 . S
C944 C948 1.350 . S
C945 C948 1.463 1_556 S
C945 C950 1.350 . S
C945 N953 1.427 . S
C946 H937 0.930 . S
C946 C944 1.378 . S
C946 C947 1.367 . S
C947 C946 1.367 . S
C947 C949 1.433 . S
C948 C944 1.350 . S
C948 C945 1.463 1_554 S
C948 N952 1.427 . S
C949 H939 0.929 . S
C949 C947 1.433 . S
C949 N952 1.384 . S
C950 H941 0.929 . S
C950 C942 1.378 . S
C950 C945 1.350 . S
C951 H938 0.929 . S
C951 C943 1.433 . S
C951 N953 1.384 . S
N952 C948 1.427 . S
N952 C949 1.384 . S
N953 C945 1.427 . S
N953 C951 1.384 . S
H954 C960 0.930 . S
H955 C964 0.930 . S
H956 C969 0.929 . S
H957 C967 0.929 . S
H958 C962 0.929 . S
H959 C968 0.929 . S
C960 H954 0.930 . S
C960 C961 1.367 . S
C960 C968 1.378 . S
C961 C960 1.367 . S
C961 C969 1.433 . S
C962 H958 0.929 . S
C962 C964 1.378 . S
C962 C966 1.350 . S
C963 C966 1.463 . S
C963 C968 1.350 . S
C963 N971 1.427 . S
C964 H955 0.930 . S
C964 C962 1.378 . S
C964 C965 1.367 . S
C965 C964 1.367 . S
C965 C967 1.433 . S
C966 C962 1.350 . S
C966 C963 1.463 . S
C966 N970 1.427 . S
C967 H957 0.929 . S
C967 C965 1.433 . S
C967 N970 1.384 . S
C968 H959 0.929 . S
C968 C960 1.378 . S
C968 C963 1.350 . S
C969 H956 0.929 . S
C969 C961 1.433 . S
C969 N971 1.384 . S
N970 C966 1.427 . S
N970 C967 1.384 . S
N971 C963 1.427 . S
N971 C969 1.384 . S
H972 C978 0.930 . S
H973 C982 0.930 . S
H974 C987 0.929 . S
H975 C985 0.929 . S
H976 C980 0.929 . S
H977 C986 0.929 . S
C978 H972 0.930 . S
C978 C979 1.367 . S
C978 C986 1.378 . S
C979 C978 1.367 . S
C979 C987 1.433 . S
C980 H976 0.929 . S
C980 C982 1.378 . S
C980 C984 1.350 . S
C981 C984 1.463 . S
C981 C986 1.350 . S
C981 N989 1.427 . S
C982 H973 0.930 . S
C982 C980 1.378 . S
C982 C983 1.367 . S
C983 C982 1.367 . S
C983 C985 1.433 . S
C984 C980 1.350 . S
C984 C981 1.463 . S
C984 N988 1.427 . S
C985 H975 0.929 . S
C985 C983 1.433 . S
C985 N988 1.384 . S
C986 H977 0.929 . S
C986 C978 1.378 . S
C986 C981 1.350 . S
C987 H974 0.929 . S
C987 C979 1.433 . S
C987 N989 1.384 . S
N988 C984 1.427 . S
N988 C985 1.384 . S
N989 C981 1.427 . S
N989 C987 1.384 . S
H990 C996 0.930 . S
H991 C1000 0.930 . S
H992 C1005 0.929 . S
H993 C1003 0.929 . S
H994 C998 0.929 . S
H995 C1004 0.929 . S
C996 H990 0.930 . S
C996 C997 1.367 . S
C996 C1004 1.378 . S
C997 C996 1.367 . S
C997 C1005 1.433 . S
C998 H994 0.929 . S
C998 C1000 1.378 . S
C998 C1002 1.350 . S
C999 C1002 1.463 . S
C999 C1004 1.350 . S
C999 N1007 1.427 . S
C1000 H991 0.930 . S
C1000 C998 1.378 . S
C1000 C1001 1.367 . S
C1001 C1000 1.367 . S
C1001 C1003 1.433 . S
C1002 C998 1.350 . S
C1002 C999 1.463 . S
C1002 N1006 1.427 . S
C1003 H993 0.929 . S
C1003 C1001 1.433 . S
C1003 N1006 1.384 . S
C1004 H995 0.929 . S
C1004 C996 1.378 . S
C1004 C999 1.350 . S
C1005 H992 0.929 . S
C1005 C997 1.433 . S
C1005 N1007 1.384 . S
N1006 C1002 1.427 . S
N1006 C1003 1.384 . S
N1007 C999 1.427 . S
N1007 C1005 1.384 . S
H1008 C1014 0.930 . S
H1009 C1018 0.930 . S
H1010 C1023 0.929 . S
H1011 C1021 0.929 . S
H1012 C1016 0.929 . S
H1013 C1022 0.929 . S
C1014 H1008 0.930 . S
C1014 C1015 1.367 . S
C1014 C1022 1.378 . S
C1015 C1014 1.367 . S
C1015 C1023 1.433 . S
C1016 H1012 0.929 . S
C1016 C1018 1.378 . S
C1016 C1020 1.350 . S
C1017 C1020 1.463 . S
C1017 C1022 1.350 . S
C1017 N1025 1.427 . S
C1018 H1009 0.930 . S
C1018 C1016 1.378 . S
C1018 C1019 1.367 . S
C1019 C1018 1.367 . S
C1019 C1021 1.433 . S
C1020 C1016 1.350 . S
C1020 C1017 1.463 . S
C1020 N1024 1.427 . S
C1021 H1011 0.929 . S
C1021 C1019 1.433 . S
C1021 N1024 1.384 . S
C1022 H1013 0.929 . S
C1022 C1014 1.378 . S
C1022 C1017 1.350 . S
C1023 H1010 0.929 . S
C1023 C1015 1.433 . S
C1023 N1025 1.384 . S
N1024 C1020 1.427 . S
N1024 C1021 1.384 . S
N1025 C1017 1.427 . S
N1025 C1023 1.384 . S
H1026 C1032 0.930 . S
H1027 C1036 0.930 . S
H1028 C1041 0.929 . S
H1029 C1039 0.929 . S
H1030 C1034 0.929 . S
H1031 C1040 0.929 . S
C1032 H1026 0.930 . S
C1032 C1033 1.367 . S
C1032 C1040 1.378 . S
C1033 C1032 1.367 . S
C1033 C1041 1.433 . S
C1034 H1030 0.929 . S
C1034 C1036 1.378 . S
C1034 C1038 1.350 . S
C1035 C1038 1.463 . S
C1035 C1040 1.350 . S
C1035 N1043 1.427 . S
C1036 H1027 0.930 . S
C1036 C1034 1.378 . S
C1036 C1037 1.367 . S
C1037 C1036 1.367 . S
C1037 C1039 1.433 . S
C1038 C1034 1.350 . S
C1038 C1035 1.463 . S
C1038 N1042 1.427 . S
C1039 H1029 0.929 . S
C1039 C1037 1.433 . S
C1039 N1042 1.384 . S
C1040 H1031 0.929 . S
C1040 C1032 1.378 . S
C1040 C1035 1.350 . S
C1041 H1028 0.929 . S
C1041 C1033 1.433 . S
C1041 N1043 1.384 . S
N1042 C1038 1.427 . S
N1042 C1039 1.384 . S
N1043 C1035 1.427 . S
N1043 C1041 1.384 . S
H1044 C1050 0.930 . S
H1045 C1054 0.930 . S
H1046 C1059 0.929 . S
H1047 C1057 0.929 . S
H1048 C1052 0.929 . S
H1049 C1058 0.929 . S
C1050 H1044 0.930 . S
C1050 C1051 1.367 . S
C1050 C1058 1.378 . S
C1051 C1050 1.367 . S
C1051 C1059 1.433 . S
C1052 H1048 0.929 . S
C1052 C1054 1.378 . S
C1052 C1056 1.350 . S
C1053 C1056 1.463 . S
C1053 C1058 1.350 . S
C1053 N1061 1.427 . S
C1054 H1045 0.930 . S
C1054 C1052 1.378 . S
C1054 C1055 1.367 . S
C1055 C1054 1.367 . S
C1055 C1057 1.433 . S
C1056 C1052 1.350 . S
C1056 C1053 1.463 . S
C1056 N1060 1.427 . S
C1057 H1047 0.929 . S
C1057 C1055 1.433 . S
C1057 N1060 1.384 . S
C1058 H1049 0.929 . S
C1058 C1050 1.378 . S
C1058 C1053 1.350 . S
C1059 H1046 0.929 . S
C1059 C1051 1.433 . S
C1059 N1061 1.384 . S
N1060 C1056 1.427 . S
N1060 C1057 1.384 . S
N1061 C1053 1.427 . S
N1061 C1059 1.384 . S
H1062 C1068 0.930 . S
H1063 C1072 0.930 . S
H1064 C1077 0.929 . S
H1065 C1075 0.929 . S
H1066 C1070 0.929 1_545 S
H1067 C1076 0.929 . S
C1068 H1062 0.930 . S
C1068 C1069 1.367 . S
C1068 C1076 1.378 . S
C1069 C1068 1.367 . S
C1069 C1077 1.433 . S
C1070 H1066 0.929 1_565 S
C1070 C1072 1.378 1_565 S
C1070 C1074 1.350 . S
C1071 C1074 1.463 . S
C1071 C1076 1.350 . S
C1071 N1079 1.427 . S
C1072 H1063 0.930 . S
C1072 C1070 1.378 1_545 S
C1072 C1073 1.367 1_545 S
C1073 C1072 1.367 1_565 S
C1073 C1075 1.433 . S
C1074 C1070 1.350 . S
C1074 C1071 1.463 . S
C1074 N1078 1.427 . S
C1075 H1065 0.929 . S
C1075 C1073 1.433 . S
C1075 N1078 1.384 . S
C1076 H1067 0.929 . S
C1076 C1068 1.378 . S
C1076 C1071 1.350 . S
C1077 H1064 0.929 . S
C1077 C1069 1.433 . S
C1077 N1079 1.384 . S
N1078 C1074 1.427 . S
N1078 C1075 1.384 . S
N1079 C1071 1.427 . S
N1079 C1077 1.384 . S
H1080 C1086 0.930 . S
H1081 C1090 0.930 . S
H1082 C1095 0.929 . S
H1083 C1093 0.929 . S
H1084 C1088 0.929 . S
H1085 C1094 0.929 . S
C1086 H1080 0.930 . S
C1086 C1087 1.367 . S
C1086 C1094 1.378 . S
C1087 C1086 1.367 . S
C1087 C1095 1.433 . S
C1088 H1084 0.929 . S
C1088 C1090 1.378 . S
C1088 C1092 1.350 . S
C1089 C1092 1.463 . S
C1089 C1094 1.350 . S
C1089 N1097 1.427 . S
C1090 H1081 0.930 . S
C1090 C1088 1.378 . S
C1090 C1091 1.367 . S
C1091 C1090 1.367 . S
C1091 C1093 1.433 . S
C1092 C1088 1.350 . S
C1092 C1089 1.463 . S
C1092 N1096 1.427 . S
C1093 H1083 0.929 . S
C1093 C1091 1.433 . S
C1093 N1096 1.384 . S
C1094 H1085 0.929 . S
C1094 C1086 1.378 . S
C1094 C1089 1.350 . S
C1095 H1082 0.929 . S
C1095 C1087 1.433 . S
C1095 N1097 1.384 . S
N1096 C1092 1.427 . S
N1096 C1093 1.384 . S
N1097 C1089 1.427 . S
N1097 C1095 1.384 . S
H1098 C1104 0.930 . S
H1099 C1108 0.930 . S
H1100 C1113 0.929 . S
H1101 C1111 0.929 . S
H1102 C1106 0.929 . S
H1103 C1112 0.929 . S
C1104 H1098 0.930 . S
C1104 C1105 1.367 . S
C1104 C1112 1.378 . S
C1105 C1104 1.367 . S
C1105 C1113 1.433 . S
C1106 H1102 0.929 . S
C1106 C1108 1.378 . S
C1106 C1110 1.350 . S
C1107 C1110 1.463 . S
C1107 C1112 1.350 . S
C1107 N1115 1.427 . S
C1108 H1099 0.930 . S
C1108 C1106 1.378 . S
C1108 C1109 1.367 . S
C1109 C1108 1.367 . S
C1109 C1111 1.433 . S
C1110 C1106 1.350 . S
C1110 C1107 1.463 . S
C1110 N1114 1.427 . S
C1111 H1101 0.929 . S
C1111 C1109 1.433 . S
C1111 N1114 1.384 . S
C1112 H1103 0.929 . S
C1112 C1104 1.378 . S
C1112 C1107 1.350 . S
C1113 H1100 0.929 . S
C1113 C1105 1.433 . S
C1113 N1115 1.384 . S
N1114 C1110 1.427 . S
N1114 C1111 1.384 . S
N1115 C1107 1.427 . S
N1115 C1113 1.384 . S
H1116 C1122 0.930 . S
H1117 C1126 0.930 . S
H1118 C1131 0.929 . S
H1119 C1129 0.929 . S
H1120 C1124 0.929 . S
H1121 C1130 0.929 1_455 S
C1122 H1116 0.930 . S
C1122 C1123 1.367 1_455 S
C1122 C1130 1.378 1_455 S
C1123 C1122 1.367 1_655 S
C1123 C1131 1.433 . S
C1124 H1120 0.929 . S
C1124 C1126 1.378 . S
C1124 C1128 1.350 . S
C1125 C1128 1.463 . S
C1125 C1130 1.350 . S
C1125 N1133 1.427 . S
C1126 H1117 0.930 . S
C1126 C1124 1.378 . S
C1126 C1127 1.367 . S
C1127 C1126 1.367 . S
C1127 C1129 1.433 . S
C1128 C1124 1.350 . S
C1128 C1125 1.463 . S
C1128 N1132 1.427 . S
C1129 H1119 0.929 . S
C1129 C1127 1.433 . S
C1129 N1132 1.384 . S
C1130 H1121 0.929 1_655 S
C1130 C1122 1.378 1_655 S
C1130 C1125 1.350 . S
C1131 H1118 0.929 . S
C1131 C1123 1.433 . S
C1131 N1133 1.384 . S
N1132 C1128 1.427 . S
N1132 C1129 1.384 . S
N1133 C1125 1.427 . S
N1133 C1131 1.384 . S
H1134 C1140 0.930 . S
H1135 C1144 0.930 . S
H1136 C1149 0.929 . S
H1137 C1147 0.929 . S
H1138 C1142 0.929 . S
H1139 C1148 0.929 . S
C1140 H1134 0.930 . S
C1140 C1141 1.367 . S
C1140 C1148 1.378 . S
C1141 C1140 1.367 . S
C1141 C1149 1.433 . S
C1142 H1138 0.929 . S
C1142 C1144 1.378 . S
C1142 C1146 1.350 . S
C1143 C1146 1.463 . S
C1143 C1148 1.350 . S
C1143 N1151 1.427 . S
C1144 H1135 0.930 . S
C1144 C1142 1.378 . S
C1144 C1145 1.367 . S
C1145 C1144 1.367 . S
C1145 C1147 1.433 . S
C1146 C1142 1.350 . S
C1146 C1143 1.463 . S
C1146 N1150 1.427 . S
C1147 H1137 0.929 . S
C1147 C1145 1.433 . S
C1147 N1150 1.384 . S
C1148 H1139 0.929 . S
C1148 C1140 1.378 . S
C1148 C1143 1.350 . S
C1149 H1136 0.929 . S
C1149 C1141 1.433 . S
C1149 N1151 1.384 . S
N1150 C1146 1.427 . S
N1150 C1147 1.384 . S
N1151 C1143 1.427 . S
N1151 C1149 1.384 . S
H1152 C1158 0.930 . S
H1153 C1162 0.930 . S
H1154 C1167 0.929 . S
H1155 C1165 0.929 . S
H1156 C1160 0.929 . S
H1157 C1166 0.929 . S
C1158 H1152 0.930 . S
C1158 C1159 1.367 . S
C1158 C1166 1.378 . S
C1159 C1158 1.367 . S
C1159 C1167 1.433 . S
C1160 H1156 0.929 . S
C1160 C1162 1.378 . S
C1160 C1164 1.350 . S
C1161 C1164 1.463 . S
C1161 C1166 1.350 . S
C1161 N1169 1.427 . S
C1162 H1153 0.930 . S
C1162 C1160 1.378 . S
C1162 C1163 1.367 . S
C1163 C1162 1.367 . S
C1163 C1165 1.433 . S
C1164 C1160 1.350 . S
C1164 C1161 1.463 . S
C1164 N1168 1.427 . S
C1165 H1155 0.929 . S
C1165 C1163 1.433 . S
C1165 N1168 1.384 . S
C1166 H1157 0.929 . S
C1166 C1158 1.378 . S
C1166 C1161 1.350 . S
C1167 H1154 0.929 . S
C1167 C1159 1.433 . S
C1167 N1169 1.384 . S
N1168 C1164 1.427 . S
N1168 C1165 1.384 . S
N1169 C1161 1.427 . S
N1169 C1167 1.384 . S
H1170 C1176 0.930 1_455 S
H1171 C1180 0.930 . S
H1172 C1185 0.929 . S
H1173 C1183 0.929 . S
H1174 C1178 0.929 . S
H1175 C1184 0.929 . S
C1176 H1170 0.930 1_655 S
C1176 C1177 1.367 . S
C1176 C1184 1.378 1_655 S
C1177 C1176 1.367 . S
C1177 C1185 1.433 . S
C1178 H1174 0.929 . S
C1178 C1180 1.378 . S
C1178 C1182 1.350 . S
C1179 C1182 1.463 . S
C1179 C1184 1.350 . S
C1179 N1187 1.427 1_455 S
C1180 H1171 0.930 . S
C1180 C1178 1.378 . S
C1180 C1181 1.367 . S
C1181 C1180 1.367 . S
C1181 C1183 1.433 . S
C1182 C1178 1.350 . S
C1182 C1179 1.463 . S
C1182 N1186 1.427 . S
C1183 H1173 0.929 . S
C1183 C1181 1.433 . S
C1183 N1186 1.384 . S
C1184 H1175 0.929 . S
C1184 C1176 1.378 1_455 S
C1184 C1179 1.350 . S
C1185 H1172 0.929 . S
C1185 C1177 1.433 . S
C1185 N1187 1.384 . S
N1186 C1182 1.427 . S
N1186 C1183 1.384 . S
N1187 C1179 1.427 1_655 S
N1187 C1185 1.384 . S
H1188 C1194 0.930 . S
H1189 C1198 0.930 . S
H1190 C1203 0.929 . S
H1191 C1201 0.929 . S
H1192 C1196 0.929 . S
H1193 C1202 0.929 . S
C1194 H1188 0.930 . S
C1194 C1195 1.367 . S
C1194 C1202 1.378 . S
C1195 C1194 1.367 . S
C1195 C1203 1.433 . S
C1196 H1192 0.929 . S
C1196 C1198 1.378 . S
C1196 C1200 1.350 . S
C1197 C1200 1.463 . S
C1197 C1202 1.350 . S
C1197 N1205 1.427 . S
C1198 H1189 0.930 . S
C1198 C1196 1.378 . S
C1198 C1199 1.367 . S
C1199 C1198 1.367 . S
C1199 C1201 1.433 . S
C1200 C1196 1.350 . S
C1200 C1197 1.463 . S
C1200 N1204 1.427 . S
C1201 H1191 0.929 . S
C1201 C1199 1.433 . S
C1201 N1204 1.384 . S
C1202 H1193 0.929 . S
C1202 C1194 1.378 . S
C1202 C1197 1.350 . S
C1203 H1190 0.929 . S
C1203 C1195 1.433 . S
C1203 N1205 1.384 . S
N1204 C1200 1.427 . S
N1204 C1201 1.384 . S
N1205 C1197 1.427 . S
N1205 C1203 1.384 . S
H1206 C1212 0.930 . S
H1207 C1216 0.930 . S
H1208 C1221 0.929 . S
H1209 C1219 0.929 . S
H1210 C1214 0.929 . S
H1211 C1220 0.929 . S
C1212 H1206 0.930 . S
C1212 C1213 1.367 . S
C1212 C1220 1.378 . S
C1213 C1212 1.367 . S
C1213 C1221 1.433 . S
C1214 H1210 0.929 . S
C1214 C1216 1.378 . S
C1214 C1218 1.350 . S
C1215 C1218 1.463 . S
C1215 C1220 1.350 1_545 S
C1215 N1223 1.427 . S
C1216 H1207 0.930 . S
C1216 C1214 1.378 . S
C1216 C1217 1.367 . S
C1217 C1216 1.367 . S
C1217 C1219 1.433 . S
C1218 C1214 1.350 . S
C1218 C1215 1.463 . S
C1218 N1222 1.427 . S
C1219 H1209 0.929 . S
C1219 C1217 1.433 . S
C1219 N1222 1.384 . S
C1220 H1211 0.929 . S
C1220 C1212 1.378 . S
C1220 C1215 1.350 1_565 S
C1221 H1208 0.929 . S
C1221 C1213 1.433 . S
C1221 N1223 1.384 1_565 S
N1222 C1218 1.427 . S
N1222 C1219 1.384 . S
N1223 C1215 1.427 . S
N1223 C1221 1.384 1_545 S
H1224 C1230 0.930 . S
H1225 C1234 0.930 . S
H1226 C1239 0.929 . S
H1227 C1237 0.929 . S
H1228 C1232 0.929 . S
H1229 C1238 0.929 . S
C1230 H1224 0.930 . S
C1230 C1231 1.367 . S
C1230 C1238 1.378 . S
C1231 C1230 1.367 . S
C1231 C1239 1.433 . S
C1232 H1228 0.929 . S
C1232 C1234 1.378 . S
C1232 C1236 1.350 . S
C1233 C1236 1.463 . S
C1233 C1238 1.350 . S
C1233 N1241 1.427 . S
C1234 H1225 0.930 . S
C1234 C1232 1.378 . S
C1234 C1235 1.367 . S
C1235 C1234 1.367 . S
C1235 C1237 1.433 . S
C1236 C1232 1.350 . S
C1236 C1233 1.463 . S
C1236 N1240 1.427 . S
C1237 H1227 0.929 . S
C1237 C1235 1.433 . S
C1237 N1240 1.384 . S
C1238 H1229 0.929 . S
C1238 C1230 1.378 . S
C1238 C1233 1.350 . S
C1239 H1226 0.929 . S
C1239 C1231 1.433 . S
C1239 N1241 1.384 . S
N1240 C1236 1.427 . S
N1240 C1237 1.384 . S
N1241 C1233 1.427 . S
N1241 C1239 1.384 . S
H1242 C1248 0.930 . S
H1243 C1252 0.930 . S
H1244 C1257 0.929 . S
H1245 C1255 0.929 . S
H1246 C1250 0.929 . S
H1247 C1256 0.929 . S
C1248 H1242 0.930 . S
C1248 C1249 1.367 . S
C1248 C1256 1.378 . S
C1249 C1248 1.367 . S
C1249 C1257 1.433 . S
C1250 H1246 0.929 . S
C1250 C1252 1.378 . S
C1250 C1254 1.350 . S
C1251 C1254 1.463 . S
C1251 C1256 1.350 . S
C1251 N1259 1.427 . S
C1252 H1243 0.930 . S
C1252 C1250 1.378 . S
C1252 C1253 1.367 . S
C1253 C1252 1.367 . S
C1253 C1255 1.433 . S
C1254 C1250 1.350 . S
C1254 C1251 1.463 . S
C1254 N1258 1.427 . S
C1255 H1245 0.929 . S
C1255 C1253 1.433 . S
C1255 N1258 1.384 . S
C1256 H1247 0.929 . S
C1256 C1248 1.378 . S
C1256 C1251 1.350 . S
C1257 H1244 0.929 . S
C1257 C1249 1.433 . S
C1257 N1259 1.384 . S
N1258 C1254 1.427 . S
N1258 C1255 1.384 . S
N1259 C1251 1.427 . S
N1259 C1257 1.384 . S
H1260 C1266 0.930 . S
H1261 C1270 0.930 . S
H1262 C1275 0.929 . S
H1263 C1273 0.929 . S
H1264 C1268 0.929 . S
H1265 C1274 0.929 . S
C1266 H1260 0.930 . S
C1266 C1267 1.367 . S
C1266 C1274 1.378 . S
C1267 C1266 1.367 . S
C1267 C1275 1.433 . S
C1268 H1264 0.929 . S
C1268 C1270 1.378 . S
C1268 C1272 1.350 . S
C1269 C1272 1.463 . S
C1269 C1274 1.350 . S
C1269 N1277 1.427 . S
C1270 H1261 0.930 . S
C1270 C1268 1.378 . S
C1270 C1271 1.367 . S
C1271 C1270 1.367 . S
C1271 C1273 1.433 . S
C1272 C1268 1.350 . S
C1272 C1269 1.463 . S
C1272 N1276 1.427 . S
C1273 H1263 0.929 . S
C1273 C1271 1.433 . S
C1273 N1276 1.384 . S
C1274 H1265 0.929 . S
C1274 C1266 1.378 . S
C1274 C1269 1.350 . S
C1275 H1262 0.929 . S
C1275 C1267 1.433 . S
C1275 N1277 1.384 . S
N1276 C1272 1.427 . S
N1276 C1273 1.384 . S
N1277 C1269 1.427 . S
N1277 C1275 1.384 . S
H1278 C1284 0.930 . S
H1279 C1288 0.930 . S
H1280 C1293 0.929 . S
H1281 C1291 0.929 . S
H1282 C1286 0.929 . S
H1283 C1292 0.929 . S
C1284 H1278 0.930 . S
C1284 C1285 1.367 . S
C1284 C1292 1.378 . S
C1285 C1284 1.367 . S
C1285 C1293 1.433 . S
C1286 H1282 0.929 . S
C1286 C1288 1.378 . S
C1286 C1290 1.350 . S
C1287 C1290 1.463 . S
C1287 C1292 1.350 . S
C1287 N1295 1.427 . S
C1288 H1279 0.930 . S
C1288 C1286 1.378 . S
C1288 C1289 1.367 . S
C1289 C1288 1.367 . S
C1289 C1291 1.433 . S
C1290 C1286 1.350 . S
C1290 C1287 1.463 . S
C1290 N1294 1.427 . S
C1291 H1281 0.929 . S
C1291 C1289 1.433 . S
C1291 N1294 1.384 . S
C1292 H1283 0.929 . S
C1292 C1284 1.378 . S
C1292 C1287 1.350 . S
C1293 H1280 0.929 . S
C1293 C1285 1.433 . S
C1293 N1295 1.384 . S
N1294 C1290 1.427 . S
N1294 C1291 1.384 . S
N1295 C1287 1.427 . S
N1295 C1293 1.384 . S
H1296 C1302 0.930 . S
H1297 C1306 0.930 . S
H1298 C1311 0.929 . S
H1299 C1309 0.929 . S
H1300 C1304 0.929 . S
H1301 C1310 0.929 . S
C1302 H1296 0.930 . S
C1302 C1303 1.367 . S
C1302 C1310 1.378 . S
C1303 C1302 1.367 . S
C1303 C1311 1.433 . S
C1304 H1300 0.929 . S
C1304 C1306 1.378 . S
C1304 C1308 1.350 . S
C1305 C1308 1.463 . S
C1305 C1310 1.350 . S
C1305 N1313 1.427 . S
C1306 H1297 0.930 . S
C1306 C1304 1.378 . S
C1306 C1307 1.367 . S
C1307 C1306 1.367 . S
C1307 C1309 1.433 . S
C1308 C1304 1.350 . S
C1308 C1305 1.463 . S
C1308 N1312 1.427 . S
C1309 H1299 0.929 . S
C1309 C1307 1.433 . S
C1309 N1312 1.384 . S
C1310 H1301 0.929 . S
C1310 C1302 1.378 . S
C1310 C1305 1.350 . S
C1311 H1298 0.929 . S
C1311 C1303 1.433 . S
C1311 N1313 1.384 . S
N1312 C1308 1.427 . S
N1312 C1309 1.384 . S
N1313 C1305 1.427 . S
N1313 C1311 1.384 . S
H1314 C1320 0.930 . S
H1315 C1324 0.930 . S
H1316 C1329 0.929 . S
H1317 C1327 0.929 . S
H1318 C1322 0.929 . S
H1319 C1328 0.929 . S
C1320 H1314 0.930 . S
C1320 C1321 1.367 . S
C1320 C1328 1.378 . S
C1321 C1320 1.367 . S
C1321 C1329 1.433 . S
C1322 H1318 0.929 . S
C1322 C1324 1.378 . S
C1322 C1326 1.350 . S
C1323 C1326 1.463 . S
C1323 C1328 1.350 . S
C1323 N1331 1.427 . S
C1324 H1315 0.930 . S
C1324 C1322 1.378 . S
C1324 C1325 1.367 . S
C1325 C1324 1.367 . S
C1325 C1327 1.433 . S
C1326 C1322 1.350 . S
C1326 C1323 1.463 . S
C1326 N1330 1.427 . S
C1327 H1317 0.929 . S
C1327 C1325 1.433 . S
C1327 N1330 1.384 . S
C1328 H1319 0.929 . S
C1328 C1320 1.378 . S
C1328 C1323 1.350 . S
C1329 H1316 0.929 . S
C1329 C1321 1.433 . S
C1329 N1331 1.384 . S
N1330 C1326 1.427 . S
N1330 C1327 1.384 . S
N1331 C1323 1.427 . S
N1331 C1329 1.384 . S
H1332 C1338 0.930 . S
H1333 C1342 0.930 . S
H1334 C1347 0.929 . S
H1335 C1345 0.929 . S
H1336 C1340 0.929 . S
H1337 C1346 0.929 . S
C1338 H1332 0.930 . S
C1338 C1339 1.367 . S
C1338 C1346 1.378 . S
C1339 C1338 1.367 . S
C1339 C1347 1.433 . S
C1340 H1336 0.929 . S
C1340 C1342 1.378 . S
C1340 C1344 1.350 . S
C1341 C1344 1.463 . S
C1341 C1346 1.350 . S
C1341 N1349 1.427 . S
C1342 H1333 0.930 . S
C1342 C1340 1.378 . S
C1342 C1343 1.367 . S
C1343 C1342 1.367 . S
C1343 C1345 1.433 . S
C1344 C1340 1.350 . S
C1344 C1341 1.463 . S
C1344 N1348 1.427 . S
C1345 H1335 0.929 . S
C1345 C1343 1.433 . S
C1345 N1348 1.384 . S
C1346 H1337 0.929 . S
C1346 C1338 1.378 . S
C1346 C1341 1.350 . S
C1347 H1334 0.929 . S
C1347 C1339 1.433 . S
C1347 N1349 1.384 . S
N1348 C1344 1.427 . S
N1348 C1345 1.384 . S
N1349 C1341 1.427 . S
N1349 C1347 1.384 . S
H1350 C1356 0.930 . S
H1351 C1360 0.930 . S
H1352 C1365 0.929 . S
H1353 C1363 0.929 . S
H1354 C1358 0.929 . S
H1355 C1364 0.929 . S
C1356 H1350 0.930 . S
C1356 C1357 1.367 . S
C1356 C1364 1.378 . S
C1357 C1356 1.367 . S
C1357 C1365 1.433 . S
C1358 H1354 0.929 . S
C1358 C1360 1.378 . S
C1358 C1362 1.350 . S
C1359 C1362 1.463 . S
C1359 C1364 1.350 . S
C1359 N1367 1.427 . S
C1360 H1351 0.930 . S
C1360 C1358 1.378 . S
C1360 C1361 1.367 . S
C1361 C1360 1.367 . S
C1361 C1363 1.433 . S
C1362 C1358 1.350 . S
C1362 C1359 1.463 . S
C1362 N1366 1.427 . S
C1363 H1353 0.929 . S
C1363 C1361 1.433 . S
C1363 N1366 1.384 . S
C1364 H1355 0.929 . S
C1364 C1356 1.378 . S
C1364 C1359 1.350 . S
C1365 H1352 0.929 . S
C1365 C1357 1.433 . S
C1365 N1367 1.384 . S
N1366 C1362 1.427 . S
N1366 C1363 1.384 . S
N1367 C1359 1.427 . S
N1367 C1365 1.384 . S
H1368 C1374 0.930 . S
H1369 C1378 0.930 . S
H1370 C1383 0.929 . S
H1371 C1381 0.929 . S
H1372 C1376 0.929 . S
H1373 C1382 0.929 . S
C1374 H1368 0.930 . S
C1374 C1375 1.367 . S
C1374 C1382 1.378 . S
C1375 C1374 1.367 . S
C1375 C1383 1.433 . S
C1376 H1372 0.929 . S
C1376 C1378 1.378 . S
C1376 C1380 1.350 . S
C1377 C1380 1.463 . S
C1377 C1382 1.350 . S
C1377 N1385 1.427 . S
C1378 H1369 0.930 . S
C1378 C1376 1.378 . S
C1378 C1379 1.367 . S
C1379 C1378 1.367 . S
C1379 C1381 1.433 . S
C1380 C1376 1.350 . S
C1380 C1377 1.463 . S
C1380 N1384 1.427 . S
C1381 H1371 0.929 . S
C1381 C1379 1.433 . S
C1381 N1384 1.384 . S
C1382 H1373 0.929 . S
C1382 C1374 1.378 . S
C1382 C1377 1.350 . S
C1383 H1370 0.929 . S
C1383 C1375 1.433 . S
C1383 N1385 1.384 . S
N1384 C1380 1.427 . S
N1384 C1381 1.384 . S
N1385 C1377 1.427 . S
N1385 C1383 1.384 . S
H1386 C1392 0.930 . S
H1387 C1396 0.930 . S
H1388 C1401 0.929 . S
H1389 C1399 0.929 . S
H1390 C1394 0.929 . S
H1391 C1400 0.929 . S
C1392 H1386 0.930 . S
C1392 C1393 1.367 . S
C1392 C1400 1.378 . S
C1393 C1392 1.367 . S
C1393 C1401 1.433 . S
C1394 H1390 0.929 . S
C1394 C1396 1.378 1_655 S
C1394 C1398 1.350 . S
C1395 C1398 1.463 . S
C1395 C1400 1.350 . S
C1395 N1403 1.427 . S
C1396 H1387 0.930 . S
C1396 C1394 1.378 1_455 S
C1396 C1397 1.367 . S
C1397 C1396 1.367 . S
C1397 C1399 1.433 . S
C1398 C1394 1.350 . S
C1398 C1395 1.463 . S
C1398 N1402 1.427 . S
C1399 H1389 0.929 . S
C1399 C1397 1.433 . S
C1399 N1402 1.384 1_455 S
C1400 H1391 0.929 . S
C1400 C1392 1.378 . S
C1400 C1395 1.350 . S
C1401 H1388 0.929 . S
C1401 C1393 1.433 . S
C1401 N1403 1.384 . S
N1402 C1398 1.427 . S
N1402 C1399 1.384 1_655 S
N1403 C1395 1.427 . S
N1403 C1401 1.384 . S
H1404 C1410 0.930 . S
H1405 C1414 0.930 . S
H1406 C1419 0.929 1_565 S
H1407 C1417 0.929 . S
H1408 C1412 0.929 . S
H1409 C1418 0.929 . S
C1410 H1404 0.930 . S
C1410 C1411 1.367 . S
C1410 C1418 1.378 . S
C1411 C1410 1.367 . S
C1411 C1419 1.433 . S
C1412 H1408 0.929 . S
C1412 C1414 1.378 . S
C1412 C1416 1.350 . S
C1413 C1416 1.463 . S
C1413 C1418 1.350 . S
C1413 N1421 1.427 . S
C1414 H1405 0.930 . S
C1414 C1412 1.378 . S
C1414 C1415 1.367 . S
C1415 C1414 1.367 . S
C1415 C1417 1.433 . S
C1416 C1412 1.350 . S
C1416 C1413 1.463 . S
C1416 N1420 1.427 . S
C1417 H1407 0.929 . S
C1417 C1415 1.433 . S
C1417 N1420 1.384 . S
C1418 H1409 0.929 . S
C1418 C1410 1.378 . S
C1418 C1413 1.350 . S
C1419 H1406 0.929 1_545 S
C1419 C1411 1.433 . S
C1419 N1421 1.384 . S
N1420 C1416 1.427 . S
N1420 C1417 1.384 . S
N1421 C1413 1.427 . S
N1421 C1419 1.384 . S
H1422 C1428 0.930 . S
H1423 C1432 0.930 . S
H1424 C1437 0.929 . S
H1425 C1435 0.929 . S
H1426 C1430 0.929 . S
H1427 C1436 0.929 . S
C1428 H1422 0.930 . S
C1428 C1429 1.367 1_545 S
C1428 C1436 1.378 . S
C1429 C1428 1.367 1_565 S
C1429 C1437 1.433 . S
C1430 H1426 0.929 . S
C1430 C1432 1.378 1_655 S
C1430 C1434 1.350 . S
C1431 C1434 1.463 . S
C1431 C1436 1.350 . S
C1431 N1439 1.427 . S
C1432 H1423 0.930 . S
C1432 C1430 1.378 1_455 S
C1432 C1433 1.367 . S
C1433 C1432 1.367 . S
C1433 C1435 1.433 1_455 S
C1434 C1430 1.350 . S
C1434 C1431 1.463 . S
C1434 N1438 1.427 . S
C1435 H1425 0.929 . S
C1435 C1433 1.433 1_655 S
C1435 N1438 1.384 . S
C1436 H1427 0.929 . S
C1436 C1428 1.378 . S
C1436 C1431 1.350 . S
C1437 H1424 0.929 . S
C1437 C1429 1.433 . S
C1437 N1439 1.384 1_565 S
N1438 C1434 1.427 . S
N1438 C1435 1.384 . S
N1439 C1431 1.427 . S
N1439 C1437 1.384 1_545 S
H1440 C1446 0.930 . S
H1441 C1450 0.930 . S
H1442 C1455 0.929 . S
H1443 C1453 0.929 . S
H1444 C1448 0.929 . S
H1445 C1454 0.929 . S
C1446 H1440 0.930 . S
C1446 C1447 1.367 . S
C1446 C1454 1.378 . S
C1447 C1446 1.367 . S
C1447 C1455 1.433 . S
C1448 H1444 0.929 . S
C1448 C1450 1.378 1_565 S
C1448 C1452 1.350 . S
C1449 C1452 1.463 . S
C1449 C1454 1.350 . S
C1449 N1457 1.427 . S
C1450 H1441 0.930 . S
C1450 C1448 1.378 1_545 S
C1450 C1451 1.367 . S
C1451 C1450 1.367 . S
C1451 C1453 1.433 . S
C1452 C1448 1.350 . S
C1452 C1449 1.463 . S
C1452 N1456 1.427 . S
C1453 H1443 0.929 . S
C1453 C1451 1.433 . S
C1453 N1456 1.384 1_545 S
C1454 H1445 0.929 . S
C1454 C1446 1.378 . S
C1454 C1449 1.350 . S
C1455 H1442 0.929 . S
C1455 C1447 1.433 . S
C1455 N1457 1.384 . S
N1456 C1452 1.427 . S
N1456 C1453 1.384 1_565 S
N1457 C1449 1.427 . S
N1457 C1455 1.384 . S
H1458 C1464 0.930 . S
H1459 C1468 0.930 . S
H1460 C1473 0.929 . S
H1461 C1471 0.929 . S
H1462 C1466 0.929 . S
H1463 C1472 0.929 . S
C1464 H1458 0.930 . S
C1464 C1465 1.367 1_565 S
C1464 C1472 1.378 . S
C1465 C1464 1.367 1_545 S
C1465 C1473 1.433 . S
C1466 H1462 0.929 . S
C1466 C1468 1.378 1_455 S
C1466 C1470 1.350 . S
C1467 C1470 1.463 . S
C1467 C1472 1.350 . S
C1467 N1475 1.427 . S
C1468 H1459 0.930 . S
C1468 C1466 1.378 1_655 S
C1468 C1469 1.367 . S
C1469 C1468 1.367 . S
C1469 C1471 1.433 1_655 S
C1470 C1466 1.350 . S
C1470 C1467 1.463 . S
C1470 N1474 1.427 . S
C1471 H1461 0.929 . S
C1471 C1469 1.433 1_455 S
C1471 N1474 1.384 . S
C1472 H1463 0.929 . S
C1472 C1464 1.378 . S
C1472 C1467 1.350 . S
C1473 H1460 0.929 . S
C1473 C1465 1.433 . S
C1473 N1475 1.384 1_545 S
N1474 C1470 1.427 . S
N1474 C1471 1.384 . S
N1475 C1467 1.427 . S
N1475 C1473 1.384 1_565 S
H1476 C1482 0.930 . S
H1477 C1486 0.930 . S
H1478 C1491 0.929 . S
H1479 C1489 0.929 1_655 S
H1480 C1484 0.929 . S
H1481 C1490 0.929 . S
C1482 H1476 0.930 . S
C1482 C1483 1.367 . S
C1482 C1490 1.378 . S
C1483 C1482 1.367 . S
C1483 C1491 1.433 . S
C1484 H1480 0.929 . S
C1484 C1486 1.378 . S
C1484 C1488 1.350 . S
C1485 C1488 1.463 . S
C1485 C1490 1.350 . S
C1485 N1493 1.427 . S
C1486 H1477 0.930 . S
C1486 C1484 1.378 . S
C1486 C1487 1.367 . S
C1487 C1486 1.367 . S
C1487 C1489 1.433 . S
C1488 C1484 1.350 . S
C1488 C1485 1.463 . S
C1488 N1492 1.427 . S
C1489 H1479 0.929 1_455 S
C1489 C1487 1.433 . S
C1489 N1492 1.384 . S
C1490 H1481 0.929 . S
C1490 C1482 1.378 . S
C1490 C1485 1.350 . S
C1491 H1478 0.929 . S
C1491 C1483 1.433 . S
C1491 N1493 1.384 . S
N1492 C1488 1.427 . S
N1492 C1489 1.384 . S
N1493 C1485 1.427 . S
N1493 C1491 1.384 . S
H1494 C1500 0.930 . S
H1495 C1504 0.930 . S
H1496 C1509 0.929 . S
H1497 C1507 0.929 . S
H1498 C1502 0.929 . S
H1499 C1508 0.929 . S
C1500 H1494 0.930 . S
C1500 C1501 1.367 . S
C1500 C1508 1.378 . S
C1501 C1500 1.367 . S
C1501 C1509 1.433 . S
C1502 H1498 0.929 . S
C1502 C1504 1.378 . S
C1502 C1506 1.350 . S
C1503 C1506 1.463 . S
C1503 C1508 1.350 . S
C1503 N1511 1.427 . S
C1504 H1495 0.930 . S
C1504 C1502 1.378 . S
C1504 C1505 1.367 . S
C1505 C1504 1.367 . S
C1505 C1507 1.433 . S
C1506 C1502 1.350 . S
C1506 C1503 1.463 . S
C1506 N1510 1.427 . S
C1507 H1497 0.929 . S
C1507 C1505 1.433 . S
C1507 N1510 1.384 . S
C1508 H1499 0.929 . S
C1508 C1500 1.378 . S
C1508 C1503 1.350 . S
C1509 H1496 0.929 . S
C1509 C1501 1.433 . S
C1509 N1511 1.384 . S
N1510 C1506 1.427 . S
N1510 C1507 1.384 . S
N1511 C1503 1.427 . S
N1511 C1509 1.384 . S
H1512 C1518 0.930 . S
H1513 C1522 0.930 . S
H1514 C1527 0.929 . S
H1515 C1525 0.929 . S
H1516 C1520 0.929 . S
H1517 C1526 0.929 . S
C1518 H1512 0.930 . S
C1518 C1519 1.367 . S
C1518 C1526 1.378 . S
C1519 C1518 1.367 . S
C1519 C1527 1.433 . S
C1520 H1516 0.929 . S
C1520 C1522 1.378 . S
C1520 C1524 1.350 . S
C1521 C1524 1.463 . S
C1521 C1526 1.350 . S
C1521 N1529 1.427 . S
C1522 H1513 0.930 . S
C1522 C1520 1.378 . S
C1522 C1523 1.367 . S
C1523 C1522 1.367 . S
C1523 C1525 1.433 . S
C1524 C1520 1.350 . S
C1524 C1521 1.463 . S
C1524 N1528 1.427 . S
C1525 H1515 0.929 . S
C1525 C1523 1.433 . S
C1525 N1528 1.384 . S
C1526 H1517 0.929 . S
C1526 C1518 1.378 . S
C1526 C1521 1.350 . S
C1527 H1514 0.929 . S
C1527 C1519 1.433 . S
C1527 N1529 1.384 . S
N1528 C1524 1.427 . S
N1528 C1525 1.384 . S
N1529 C1521 1.427 . S
N1529 C1527 1.384 . S
H1530 C1536 0.930 . S
H1531 C1540 0.930 . S
H1532 C1545 0.929 . S
H1533 C1543 0.929 . S
H1534 C1538 0.929 . S
H1535 C1544 0.929 . S
C1536 H1530 0.930 . S
C1536 C1537 1.367 . S
C1536 C1544 1.378 . S
C1537 C1536 1.367 . S
C1537 C1545 1.433 . S
C1538 H1534 0.929 . S
C1538 C1540 1.378 . S
C1538 C1542 1.350 . S
C1539 C1542 1.463 . S
C1539 C1544 1.350 . S
C1539 N1547 1.427 . S
C1540 H1531 0.930 . S
C1540 C1538 1.378 . S
C1540 C1541 1.367 . S
C1541 C1540 1.367 . S
C1541 C1543 1.433 . S
C1542 C1538 1.350 . S
C1542 C1539 1.463 . S
C1542 N1546 1.427 . S
C1543 H1533 0.929 . S
C1543 C1541 1.433 . S
C1543 N1546 1.384 . S
C1544 H1535 0.929 . S
C1544 C1536 1.378 . S
C1544 C1539 1.350 . S
C1545 H1532 0.929 . S
C1545 C1537 1.433 . S
C1545 N1547 1.384 . S
N1546 C1542 1.427 . S
N1546 C1543 1.384 . S
N1547 C1539 1.427 . S
N1547 C1545 1.384 . S
C583 C29 0.839 . S
C587 C66 0.833 . S
C601 C6 0.842 . S
C605 C61 0.843 . S
C619 C38 0.836 . S
C623 C68 0.840 . S
C637 C100 0.845 . S
C641 C130 0.843 . S
C655 C166 0.837 . S
C659 C132 0.842 . S
C673 C189 0.845 . S
C677 C98 0.844 . S
C691 C262 0.840 1_545 S
C695 C196 0.844 . S
C709 C194 0.839 . S
C713 C253 0.841 . S
C727 C285 0.841 . S
C731 C230 0.839 . S
C745 C322 0.846 . S
C749 C292 0.845 . S
C763 C324 0.841 . S
C767 C358 0.835 . S
C781 C290 0.845 . S
C785 C381 0.844 . S
C799 C413 0.844 . S
C803 C450 0.842 . S
C817 C390 0.839 . S
C821 C445 0.843 . S
C835 C422 0.836 . S
C839 C452 0.841 . S
C853 C514 0.839 1_455 S
C857 C509 0.841 . S
C871 C550 0.842 . S
C875 C516 0.842 . S
C889 C486 0.836 . S
C893 C573 0.840 . S
C907 N18 1.548 . S
C911 N178 1.549 . S
C925 N109 1.534 . S
C929 N50 1.534 . S
C943 N141 1.535 . S
C947 N77 1.536 . S
C961 N205 1.549 . S
C965 N370 1.550 . S
C979 N242 1.551 . S
C983 N301 1.550 . S
C997 N333 1.548 . S
C1001 N274 1.548 . S
C1015 N402 1.550 . S
C1019 N562 1.551 . S
C1033 N498 1.545 . S
C1037 N434 1.544 . S
C1051 N525 1.550 . S
C1055 N461 1.550 . S
C1069 N338 1.646 . S
C1073 N13 1.640 . S
C1087 N45 1.648 . S
C1091 N365 1.639 . S
C1105 N306 1.639 . S
C1109 N82 1.649 . S
C1123 N114 1.638 . S
C1127 N466 1.648 . S
C1141 N146 1.649 . S
C1145 N397 1.639 . S
C1159 N429 1.642 . S
C1163 N173 1.645 . S
C1177 N530 1.639 . S
C1181 N210 1.647 . S
C1195 N237 1.639 . S
C1199 N557 1.649 . S
C1213 N269 1.648 . S
C1217 N493 1.638 . S
C1231 C93 1.434 . S
C1235 C2 1.424 . S
C1249 C4 1.434 . S
C1253 C34 1.424 . S
C1267 C70 1.425 . S
C1271 C36 1.436 . S
C1285 C157 1.435 . S
C1289 C102 1.423 . S
C1303 C164 1.436 . S
C1307 C134 1.427 . S
C1321 C162 1.423 . S
C1325 C125 1.434 . S
C1339 C260 1.437 . S
C1343 C198 1.426 . S
C1357 C226 1.428 . S
C1361 C221 1.437 . S
C1375 C228 1.434 . S
C1379 C258 1.421 . S
C1393 C294 1.421 . S
C1397 C349 1.433 . S
C1411 C326 1.426 1_545 S
C1415 C356 1.435 . S
C1429 C317 1.434 . S
C1433 C354 1.421 . S
C1447 C386 1.427 . S
C1451 C477 1.437 . S
C1465 C418 1.428 . S
C1469 C388 1.436 . S
C1483 C420 1.437 . S
C1487 C454 1.428 1_455 S
C1501 C482 1.423 . S
C1505 C541 1.435 . S
C1519 C518 1.427 . S
C1523 C548 1.437 . S
C1537 C484 1.434 . S
C1541 C546 1.421 . S
