# Generated by pormake.
# Topology wmi, (6)-cn, num edge types: 1
# Building blocks:
#     Node 0, Type 0, BuildingBlock: KUMBUR_clean_sbu_1, # of connection points: 6
#     Node 1, Type 0, BuildingBlock: KUMBUR_clean_sbu_1, # of connection points: 6
#     Node 2, Type 0, BuildingBlock: KUMBUR_clean_sbu_1, # of connection points: 6
#     Node 3, Type 0, BuildingBlock: KUMBUR_clean_sbu_1, # of connection points: 6
#     Node 4, Type 0, BuildingBlock: KUMBUR_clean_sbu_1, # of connection points: 6
#     Node 5, Type 0, BuildingBlock: KUMBUR_clean_sbu_1, # of connection points: 6
#     Node 6, Type 0, BuildingBlock: KUMBUR_clean_sbu_1, # of connection points: 6
#     Node 7, Type 0, BuildingBlock: KUMBUR_clean_sbu_1, # of connection points: 6
#     Node 8, Type 0, BuildingBlock: KUMBUR_clean_sbu_1, # of connection points: 6
#     Node 9, Type 0, BuildingBlock: KUMBUR_clean_sbu_1, # of connection points: 6
#     Node 10, Type 0, BuildingBlock: KUMBUR_clean_sbu_1, # of connection points: 6
#     Node 11, Type 0, BuildingBlock: KUMBUR_clean_sbu_1, # of connection points: 6
#     Node 12, Type 0, BuildingBlock: KUMBUR_clean_sbu_1, # of connection points: 6
#     Node 13, Type 0, BuildingBlock: KUMBUR_clean_sbu_1, # of connection points: 6
#     Node 14, Type 0, BuildingBlock: KUMBUR_clean_sbu_1, # of connection points: 6
#     Node 15, Type 0, BuildingBlock: KUMBUR_clean_sbu_1, # of connection points: 6
#     Node 16, Type 0, BuildingBlock: KUMBUR_clean_sbu_1, # of connection points: 6
#     Node 17, Type 0, BuildingBlock: KUMBUR_clean_sbu_1, # of connection points: 6
#     Edge 18, Type (0, 0), BuildingBlock: KIFKEQ_clean_linker_1, # of connection points: 2
#     Edge 19, Type (0, 0), BuildingBlock: KIFKEQ_clean_linker_1, # of connection points: 2
#     Edge 20, Type (0, 0), BuildingBlock: KIFKEQ_clean_linker_1, # of connection points: 2
#     Edge 21, Type (0, 0), BuildingBlock: KIFKEQ_clean_linker_1, # of connection points: 2
#     Edge 22, Type (0, 0), BuildingBlock: KIFKEQ_clean_linker_1, # of connection points: 2
#     Edge 23, Type (0, 0), BuildingBlock: KIFKEQ_clean_linker_1, # of connection points: 2
#     Edge 24, Type (0, 0), BuildingBlock: KIFKEQ_clean_linker_1, # of connection points: 2
#     Edge 25, Type (0, 0), BuildingBlock: KIFKEQ_clean_linker_1, # of connection points: 2
#     Edge 26, Type (0, 0), BuildingBlock: KIFKEQ_clean_linker_1, # of connection points: 2
#     Edge 27, Type (0, 0), BuildingBlock: KIFKEQ_clean_linker_1, # of connection points: 2
#     Edge 28, Type (0, 0), BuildingBlock: KIFKEQ_clean_linker_1, # of connection points: 2
#     Edge 29, Type (0, 0), BuildingBlock: KIFKEQ_clean_linker_1, # of connection points: 2
#     Edge 30, Type (0, 0), BuildingBlock: KIFKEQ_clean_linker_1, # of connection points: 2
#     Edge 31, Type (0, 0), BuildingBlock: KIFKEQ_clean_linker_1, # of connection points: 2
#     Edge 32, Type (0, 0), BuildingBlock: KIFKEQ_clean_linker_1, # of connection points: 2
#     Edge 33, Type (0, 0), BuildingBlock: KIFKEQ_clean_linker_1, # of connection points: 2
#     Edge 34, Type (0, 0), BuildingBlock: KIFKEQ_clean_linker_1, # of connection points: 2
#     Edge 35, Type (0, 0), BuildingBlock: KIFKEQ_clean_linker_1, # of connection points: 2
#     Edge 36, Type (0, 0), BuildingBlock: KIFKEQ_clean_linker_1, # of connection points: 2
#     Edge 37, Type (0, 0), BuildingBlock: KIFKEQ_clean_linker_1, # of connection points: 2
#     Edge 38, Type (0, 0), BuildingBlock: KIFKEQ_clean_linker_1, # of connection points: 2
#     Edge 39, Type (0, 0), BuildingBlock: KIFKEQ_clean_linker_1, # of connection points: 2
#     Edge 40, Type (0, 0), BuildingBlock: KIFKEQ_clean_linker_1, # of connection points: 2
#     Edge 41, Type (0, 0), BuildingBlock: KIFKEQ_clean_linker_1, # of connection points: 2
#     Edge 42, Type (0, 0), BuildingBlock: KIFKEQ_clean_linker_1, # of connection points: 2
#     Edge 43, Type (0, 0), BuildingBlock: KIFKEQ_clean_linker_1, # of connection points: 2
#     Edge 44, Type (0, 0), BuildingBlock: KIFKEQ_clean_linker_1, # of connection points: 2
#     Edge 45, Type (0, 0), BuildingBlock: KIFKEQ_clean_linker_1, # of connection points: 2
#     Edge 46, Type (0, 0), BuildingBlock: KIFKEQ_clean_linker_1, # of connection points: 2
#     Edge 47, Type (0, 0), BuildingBlock: KIFKEQ_clean_linker_1, # of connection points: 2
#     Edge 48, Type (0, 0), BuildingBlock: KIFKEQ_clean_linker_1, # of connection points: 2
#     Edge 49, Type (0, 0), BuildingBlock: KIFKEQ_clean_linker_1, # of connection points: 2
#     Edge 50, Type (0, 0), BuildingBlock: KIFKEQ_clean_linker_1, # of connection points: 2
#     Edge 51, Type (0, 0), BuildingBlock: KIFKEQ_clean_linker_1, # of connection points: 2
#     Edge 52, Type (0, 0), BuildingBlock: KIFKEQ_clean_linker_1, # of connection points: 2
#     Edge 53, Type (0, 0), BuildingBlock: KIFKEQ_clean_linker_1, # of connection points: 2
#     Edge 54, Type (0, 0), BuildingBlock: KIFKEQ_clean_linker_1, # of connection points: 2
#     Edge 55, Type (0, 0), BuildingBlock: KIFKEQ_clean_linker_1, # of connection points: 2
#     Edge 56, Type (0, 0), BuildingBlock: KIFKEQ_clean_linker_1, # of connection points: 2
#     Edge 57, Type (0, 0), BuildingBlock: KIFKEQ_clean_linker_1, # of connection points: 2
#     Edge 58, Type (0, 0), BuildingBlock: KIFKEQ_clean_linker_1, # of connection points: 2
#     Edge 59, Type (0, 0), BuildingBlock: KIFKEQ_clean_linker_1, # of connection points: 2
#     Edge 60, Type (0, 0), BuildingBlock: KIFKEQ_clean_linker_1, # of connection points: 2
#     Edge 61, Type (0, 0), BuildingBlock: KIFKEQ_clean_linker_1, # of connection points: 2
#     Edge 62, Type (0, 0), BuildingBlock: KIFKEQ_clean_linker_1, # of connection points: 2
#     Edge 63, Type (0, 0), BuildingBlock: KIFKEQ_clean_linker_1, # of connection points: 2
#     Edge 64, Type (0, 0), BuildingBlock: KIFKEQ_clean_linker_1, # of connection points: 2
#     Edge 65, Type (0, 0), BuildingBlock: KIFKEQ_clean_linker_1, # of connection points: 2
#     Edge 66, Type (0, 0), BuildingBlock: KIFKEQ_clean_linker_1, # of connection points: 2
#     Edge 67, Type (0, 0), BuildingBlock: KIFKEQ_clean_linker_1, # of connection points: 2
#     Edge 68, Type (0, 0), BuildingBlock: KIFKEQ_clean_linker_1, # of connection points: 2
#     Edge 69, Type (0, 0), BuildingBlock: KIFKEQ_clean_linker_1, # of connection points: 2
#     Edge 70, Type (0, 0), BuildingBlock: KIFKEQ_clean_linker_1, # of connection points: 2
#     Edge 71, Type (0, 0), BuildingBlock: KIFKEQ_clean_linker_1, # of connection points: 2
# Relax obj value: 0.064
# Max RMSD: 0.178
# Mean RMSD: 0.178
data_MOF--net-wmi--node1-KUMBUR_clean_sbu_1--edge1-KIFKEQ_clean_linker_1
_symmetry_space_group_name_H-M    P1
_symmetry_Int_Tables_number       1
_symmetry_cell_setting            triclinic
loop_
_symmetry_equiv_pos_as_xyz
'x, y, z'
_cell_length_a     39.696185
_cell_length_b     39.730328
_cell_length_c     81.9354
_cell_angle_alpha  90.002365
_cell_angle_beta   90.020737
_cell_angle_gamma 119.98138
loop_
_atom_site_label
_atom_site_type_symbol
_atom_site_fract_x
_atom_site_fract_y
_atom_site_fract_z
_atom_type_partial_charge
Tb0 Tb 0.43853 0.99377 0.09231 0.0
C1 C 0.59124 0.02921 0.12784 0.0
N2 N 0.56665 0.04321 0.13032 0.0
C3 C 0.56976 0.03581 0.15925 0.0
C4 C 0.60524 0.01692 0.14102 0.0
C5 C 0.55652 0.04753 0.1458 0.0
C6 C 0.59402 0.02019 0.15686 0.0
C7 C 0.62741 0.01242 0.10891 0.0
C8 C 0.60203 0.02689 0.11196 0.0
C9 C 0.6411 0.9997 0.12198 0.0
C10 C 0.63008 1.00199 0.138 0.0
Tb11 Tb 0.5479 0.06239 0.1075 0.0
N12 N 0.5879 0.03914 0.09957 0.0
C13 C 0.6388 0.01173 0.09283 0.0
C14 C 0.60079 0.04052 0.08397 0.0
C15 C 0.62583 0.02632 0.08035 0.0
H16 H 0.53936 0.06122 0.14799 0.0
H17 H 0.63549 0.02708 0.06794 0.0
H18 H 0.45036 1.00246 0.05153 0.0
H19 H 0.34268 0.01626 0.13117 0.0
H20 H 0.59311 0.05352 0.07422 0.0
H21 H 0.65829 1.00086 0.08998 0.0
H22 H 0.38449 0.98899 0.1235 0.0
H23 H 0.56164 0.0393 0.17148 0.0
H24 H 0.66053 0.9884 0.11985 0.0
H25 H 0.64111 0.99235 0.14798 0.0
H26 H 0.44194 0.03994 0.02977 0.0
H27 H 0.60432 0.01124 0.16732 0.0
H28 H 0.33111 0.05648 0.11131 0.0
N29 N 0.4293 0.02398 0.07038 0.0
C30 C 0.40708 0.04052 0.07344 0.0
C31 C 0.43299 0.04137 0.04211 0.0
C32 C 0.39937 0.06059 0.06119 0.0
C33 C 0.43935 0.02141 0.05467 0.0
C34 C 0.41376 0.06192 0.04547 0.0
N35 N 0.39826 0.01579 0.10019 0.0
C36 C 0.38033 1.00734 0.11502 0.0
C37 C 0.3664 0.05131 0.09242 0.0
C38 C 0.39024 0.03551 0.08874 0.0
C39 C 0.34968 0.04483 0.10799 0.0
C40 C 0.35626 0.02229 0.11926 0.0
H41 H 0.40842 0.07696 0.03568 0.0
H42 H 0.37045 0.09324 0.05564 0.0
H43 H 0.34192 0.08544 0.08304 0.0
O44 O 0.39396 0.93953 0.10215 0.0
O45 O 0.45722 0.05316 0.10164 0.0
O46 O 0.5172 0.08102 0.09142 0.0
O47 O 0.39712 0.95489 0.0764 0.0
O48 O 0.45142 0.98886 0.11764 0.0
O49 O 0.49905 0.05094 0.12513 0.0
O50 O 0.60263 0.10813 0.10063 0.0
O51 O 0.52108 1.00003 0.11251 0.0
O52 O 0.478 0.97 0.09131 0.0
O53 O 0.57279 0.11488 0.12105 0.0
O54 O 0.53807 0.05892 0.08048 0.0
O55 O 0.48357 0.999 0.07539 0.0
C56 C 0.48854 0.08459 0.09684 0.0
C57 C 0.34321 0.89334 0.08336 0.0
C58 C 0.29627 0.82545 0.0878 0.0
C59 C 0.2779 0.82464 0.07306 0.0
C60 C 0.32431 0.8921 0.06865 0.0
C61 C 0.29187 0.85789 0.06355 0.0
C62 C 0.32901 0.85983 0.09305 0.0
C63 C 0.46693 0.01697 0.12845 0.0
C64 C 0.37881 0.92927 0.08763 0.0
C65 C 0.3764 0.07738 0.06487 0.0
C66 C 0.35999 0.07278 0.08045 0.0
C67 C 0.50231 0.9709 0.10244 0.0
C68 C 0.64283 0.1508 0.12087 0.0
C69 C 0.71216 0.19996 0.12062 0.0
C70 C 0.71635 0.18651 0.13588 0.0
C71 C 0.64794 0.13804 0.13614 0.0
C72 C 0.67524 0.18203 0.1131 0.0
C73 C 0.68445 0.15581 0.14357 0.0
C74 C 0.51645 0.02921 0.07067 0.0
C75 C 0.60475 0.13077 0.11243 0.0
H76 H 0.25268 0.79809 0.06891 0.0
H77 H 0.33478 0.91757 0.06096 0.0
H78 H 0.27767 0.85712 0.05217 0.0
H79 H 0.34351 0.86024 0.10433 0.0
H80 H 0.7444 0.20005 0.14191 0.0
H81 H 0.62385 0.11439 0.14237 0.0
H82 H 0.67183 0.19209 0.10124 0.0
H83 H 0.68805 0.14572 0.15536 0.0
Tb84 Tb 0.06759 0.47136 0.08926 0.0
C85 C 0.04973 0.59547 0.12976 0.0
N86 N 0.03098 0.55656 0.13248 0.0
C87 C 0.0386 0.5674 0.16136 0.0
C88 C 0.06387 0.62202 0.14283 0.0
C89 C 0.02509 0.54218 0.14801 0.0
C90 C 0.0581 0.60751 0.15877 0.0
C91 C 0.07503 0.64879 0.11044 0.0
C92 C 0.05565 0.6086 0.11373 0.0
C93 C 0.08907 0.67541 0.12343 0.0
C94 C 0.08356 0.66206 0.13957 0.0
Tb95 Tb 1.01004 0.51839 0.10985 0.0
N96 N 0.04255 0.58194 0.10143 0.0
C97 C 0.07924 0.66104 0.09421 0.0
C98 C 0.04372 0.59392 0.0857 0.0
C99 C 0.06293 0.63344 0.08181 0.0
H100 H 1.00877 0.51126 0.15013 0.0
H101 H 0.06423 0.64258 0.06927 0.0
H102 H 0.07434 0.48986 0.04935 0.0
H103 H 1.00493 0.3368 0.12327 0.0
H104 H 0.02844 0.57374 0.07611 0.0
H105 H 0.09384 0.69166 0.09116 0.0
H106 H 0.03911 0.40739 0.11996 0.0
H107 H 0.03368 0.55588 0.17365 0.0
H108 H 0.10412 0.7064 0.12111 0.0
H109 H 0.09462 0.68296 0.14946 0.0
H110 H 0.04944 0.45236 0.02391 0.0
H111 H 0.06852 0.62699 0.16915 0.0
H112 H 0.98095 0.2943 0.09896 0.0
N113 N 0.04788 0.44024 0.06477 0.0
C114 C 0.02889 0.40085 0.06552 0.0
C115 C 0.04302 0.43751 0.03555 0.0
C116 C 0.01539 0.37817 0.05127 0.0
C117 C 0.05611 0.45876 0.05001 0.0
C118 C 0.02218 0.39701 0.03623 0.0
N119 N 0.03511 0.40606 0.09419 0.0
C120 C 0.02929 0.38976 0.10931 0.0
C121 C 1.00273 0.34234 0.08194 0.0
C122 C 0.0228 0.38316 0.08067 0.0
C123 C 0.9963 0.32557 0.09746 0.0
C124 C 1.00971 0.34943 0.1112 0.0
H125 H 1.0118 0.38033 0.02512 0.0
H126 H 0.98507 0.31959 0.0416 0.0
H127 H 0.97388 0.28819 0.06849 0.0
O128 O 0.11808 0.47171 0.09924 0.0
O129 O 1.00243 0.43673 0.08967 0.0
O130 O 0.98575 0.45685 0.11303 0.0
O131 O 0.1103 0.47737 0.07332 0.0
O132 O 0.07645 0.48179 0.11541 0.0
O133 O 0.0222 0.48061 0.12692 0.0
O134 O 0.96135 0.5177 0.09871 0.0
O135 O 0.07286 0.54923 0.11332 0.0
O136 O 0.0932 0.53455 0.08979 0.0
O137 O 0.96779 0.52026 0.12469 0.0
O138 O 1.00309 0.5055 0.08275 0.0
O139 O 0.06314 0.5158 0.07604 0.0
C140 C 0.9771 0.43172 0.10126 0.0
C141 C 0.17002 0.48019 0.07989 0.0
C142 C 0.2371 0.49815 0.08543 0.0
C143 C 0.24289 0.49513 0.06873 0.0
C144 C 0.17648 0.47688 0.06321 0.0
C145 C 0.21267 0.48441 0.05771 0.0
C146 C 0.20055 0.49067 0.09113 0.0
C147 C 0.05366 0.47632 0.12796 0.0
C148 C 0.13277 0.477 0.0846 0.0
C149 C 0.99562 0.33749 0.05245 0.0
C150 C 0.98933 0.31961 0.06775 0.0
C151 C 0.10037 0.55595 0.10291 0.0
C152 C 0.90496 0.50311 0.11472 0.0
C153 C 0.8455 0.50756 0.11336 0.0
C154 C 0.82577 0.47245 0.12199 0.0
C155 C 0.88446 0.46816 0.12335 0.0
C156 C 0.88528 0.52286 0.10967 0.0
C157 C 0.84509 0.45287 0.12688 0.0
C158 C 0.02992 0.51194 0.07161 0.0
C159 C 0.94754 0.52155 0.11254 0.0
H160 H 0.27098 0.50095 0.06423 0.0
H161 H 0.15367 0.46913 0.05426 0.0
H162 H 0.21737 0.48218 0.04484 0.0
H163 H 0.19629 0.49381 0.10399 0.0
H164 H 0.79536 0.46037 0.12511 0.0
H165 H 0.89914 0.45325 0.12777 0.0
H166 H 0.90104 0.55044 0.10335 0.0
H167 H 0.82961 0.42603 0.13368 0.0
Tb168 Tb 0.58941 0.62041 0.08938 0.0
C169 C 0.46678 0.47742 0.12819 0.0
N170 N 0.50494 0.50025 0.13197 0.0
C171 C 0.48882 0.4992 0.16023 0.0
C172 C 0.43791 0.46489 0.14034 0.0
C173 C 0.51636 0.51104 0.14775 0.0
C174 C 0.44938 0.47609 0.15652 0.0
C175 C 0.41752 0.44304 0.10763 0.0
C176 C 0.45685 0.4672 0.112 0.0
C177 C 0.38851 0.43073 0.11964 0.0
C178 C 0.39868 0.44163 0.13596 0.0
Tb179 Tb 0.5477 0.51723 0.11089 0.0
N180 N 0.4858 0.47998 0.10068 0.0
C181 C 0.4086 0.43106 0.0914 0.0
C182 C 0.47725 0.46488 0.08523 0.0
C183 C 0.43868 0.44142 0.08023 0.0
H184 H 0.5468 0.52788 0.15078 0.0
H185 H 0.43227 0.43041 0.06786 0.0
H186 H 0.568 0.60671 0.04979 0.0
H187 H 0.72634 0.69549 0.12175 0.0
H188 H 0.49961 0.46881 0.0768 0.0
H189 H 0.37877 0.41247 0.08754 0.0
H190 H 0.65557 0.65707 0.11933 0.0
H191 H 0.49805 0.50766 0.17272 0.0
H192 H 0.35815 0.4123 0.11648 0.0
H193 H 0.37602 0.43166 0.14512 0.0
H194 H 0.60377 0.62083 0.02381 0.0
H195 H 0.42807 0.4669 0.16623 0.0
H196 H 0.76711 0.71554 0.09689 0.0
N197 N 0.6189 0.63239 0.0645 0.0
C198 C 0.6583 0.65411 0.06474 0.0
C199 C 0.61951 0.62995 0.03524 0.0
C200 C 0.67998 0.66394 0.05017 0.0
C201 C 0.5993 0.62105 0.05 0.0
C202 C 0.66008 0.65119 0.03533 0.0
N203 N 0.65509 0.65493 0.0935 0.0
C204 C 0.67242 0.66565 0.10844 0.0
C205 C 0.7179 0.68811 0.08045 0.0
C206 C 0.67701 0.66623 0.07968 0.0
C207 C 0.73574 0.69877 0.09577 0.0
C208 C 0.71286 0.68747 0.10983 0.0
H209 H 0.6758 0.65798 0.02391 0.0
H210 H 0.73788 0.69407 0.03978 0.0
H211 H 0.77109 0.7151 0.06631 0.0
O212 O 0.5885 0.67035 0.0993 0.0
O213 O 0.62643 0.59238 0.0891 0.0
O214 O 0.60912 0.55768 0.11287 0.0
O215 O 0.57984 0.65503 0.07359 0.0
O216 O 0.58073 0.62012 0.11564 0.0
O217 O 0.58416 0.56852 0.1274 0.0
O218 O 0.54992 0.46667 0.10279 0.0
O219 O 0.51516 0.54771 0.11469 0.0
O220 O 0.5265 0.58018 0.09054 0.0
O221 O 0.55458 0.48278 0.12824 0.0
O222 O 0.56052 0.52292 0.0838 0.0
O223 O 0.54553 0.56948 0.07694 0.0
C224 C 0.63297 0.57312 0.10066 0.0
C225 C 0.57646 0.71174 0.08001 0.0
C226 C 0.56098 0.76262 0.08579 0.0
C227 C 0.56055 0.76914 0.06899 0.0
C228 C 0.57628 0.71932 0.06322 0.0
C229 C 0.56828 0.74768 0.0578 0.0
C230 C 0.56897 0.7338 0.09143 0.0
C231 C 0.58737 0.60373 0.12822 0.0
C232 C 0.58128 0.67858 0.08476 0.0
C233 C 0.72072 0.68614 0.05086 0.0
C234 C 0.73963 0.69819 0.06596 0.0
C235 C 0.50575 0.56556 0.10381 0.0
C236 C 0.55671 0.42393 0.1232 0.0
C237 C 0.54704 0.35789 0.12062 0.0
C238 C 0.56312 0.36188 0.13624 0.0
C239 C 0.57281 0.4265 0.13875 0.0
C240 C 0.54357 0.38914 0.11401 0.0
C241 C 0.57586 0.3958 0.14518 0.0
C242 C 0.55104 0.54105 0.07266 0.0
C243 C 0.55242 0.4574 0.11778 0.0
H244 H 0.55438 0.79118 0.06452 0.0
H245 H 0.58183 0.70289 0.05412 0.0
H246 H 0.56791 0.75293 0.04486 0.0
H247 H 0.56873 0.72829 0.1044 0.0
H248 H 0.56595 0.33845 0.14158 0.0
H249 H 0.58303 0.45245 0.14612 0.0
H250 H 0.53092 0.3864 0.10202 0.0
H251 H 0.58821 0.39832 0.1572 0.0
Tb252 Tb 0.99506 0.43666 0.93094 0.0
C253 C 0.01958 0.58017 0.89271 0.0
N254 N 0.03553 0.55784 0.88904 0.0
C255 C 0.02164 0.55944 0.86067 0.0
C256 C 1.00327 0.59249 0.88046 0.0
C257 C 0.03713 0.54764 0.87327 0.0
C258 C 1.00448 0.58185 0.86428 0.0
C259 C 1.0024 0.61281 0.91322 0.0
C260 C 0.01881 0.58972 0.90891 0.0
C261 C 0.98574 0.62492 0.9011 0.0
C262 C 0.9862 0.61481 0.88475 0.0
Tb263 Tb 0.06013 0.5401 0.91034 0.0
N264 N 0.03464 0.57684 0.92036 0.0
C265 C 1.00393 0.62373 0.92953 0.0
C266 C 0.03958 0.59087 0.93595 0.0
C267 C 0.02329 0.61333 0.94088 0.0
H268 H 0.05115 0.53114 0.87034 0.0
H269 H 0.0266 0.62348 0.95335 0.0
H270 H 0.97701 0.44685 0.96952 0.0
H271 H 0.06026 0.36025 0.90242 0.0
H272 H 0.05751 0.58677 0.9446 0.0
H273 H 0.99165 0.64144 0.93335 0.0
H274 H 0.03195 0.40267 0.90303 0.0
H275 H 0.02309 0.55138 0.84818 0.0
H276 H 0.97282 0.64249 0.90422 0.0
H277 H 0.97344 0.62453 0.87552 0.0
H278 H 0.99086 0.42936 0.99664 0.0
H279 H 0.99241 0.59089 0.85449 0.0
H280 H 0.07119 0.33487 0.92824 0.0
N281 N 1.00377 0.4202 0.95651 0.0
C282 C 0.0204 0.3976 0.95737 0.0
C283 C 0.9995 0.42042 0.98568 0.0
C284 C 0.02744 0.38558 0.9725 0.0
C285 C 0.99248 0.43102 0.97035 0.0
C286 C 0.01727 0.39777 0.98673 0.0
N287 N 0.02483 0.40036 0.9287 0.0
C288 C 0.03519 0.391 0.91426 0.0
C289 C 0.04752 0.36285 0.94332 0.0
C290 C 0.03046 0.38655 0.94299 0.0
C291 C 0.05795 0.35299 0.92852 0.0
C292 C 0.05183 0.36724 0.91393 0.0
H293 H 0.02279 0.38949 0.99852 0.0
H294 H 0.04995 0.35228 0.98448 0.0
H295 H 0.06741 0.33222 0.9589 0.0
O296 O 0.94756 0.39262 0.91802 0.0
O297 O 0.05988 0.46164 0.93237 0.0
O298 O 0.08084 0.49928 0.90943 0.0
O299 O 0.94398 0.40006 0.94381 0.0
O300 O 0.991 0.43839 0.90442 0.0
O301 O 0.04752 0.48972 0.89362 0.0
O302 O 0.11182 0.59081 0.9189 0.0
O303 O 0.99734 0.50938 0.90566 0.0
O304 O 0.97565 0.47943 0.93011 0.0
O305 O 0.10306 0.57414 0.89341 0.0
O306 O 0.06603 0.53374 0.93754 0.0
O307 O 1.00388 0.48776 0.94385 0.0
C308 C 0.08796 0.48386 0.92203 0.0
C309 C 0.90333 0.33773 0.93325 0.0
C310 C 0.84147 0.27744 0.93089 0.0
C311 C 0.85799 0.25789 0.93894 0.0
C312 C 0.91939 0.31777 0.94118 0.0
C313 C 0.89668 0.278 0.94405 0.0
C314 C 0.86433 0.3176 0.92816 0.0
C315 C 0.01583 0.45439 0.89238 0.0
C316 C 0.92595 0.37982 0.93102 0.0
C317 C 0.04438 0.36189 0.97294 0.0
C318 C 0.05425 0.3504 0.95838 0.0
C319 C 0.97025 0.49426 0.91677 0.0
C320 C 0.16357 0.63272 0.8993 0.0
C321 C 0.21936 0.69853 0.90272 0.0
C322 C 0.23492 0.69388 0.88808 0.0
C323 C 0.1802 0.62932 0.88471 0.0
C324 C 0.18328 0.66777 0.9084 0.0
C325 C 0.21547 0.65963 0.87917 0.0
C326 C 0.03818 0.51495 0.94854 0.0
C327 C 0.12523 0.59955 0.90411 0.0
H328 H 0.84075 0.22709 0.9415 0.0
H329 H 0.94921 0.33297 0.94535 0.0
H330 H 0.90901 0.26273 0.95036 0.0
H331 H 0.85186 0.33312 0.9221 0.0
H332 H 0.26231 0.71711 0.88346 0.0
H333 H 0.16586 0.60301 0.87746 0.0
H334 H 0.17079 0.67113 0.91961 0.0
H335 H 0.22779 0.65655 0.86787 0.0
Tb336 Tb 0.62882 0.59111 0.93195 0.0
C337 C 0.48675 0.46557 0.89301 0.0
N338 N 0.50807 0.50414 0.88975 0.0
C339 C 0.50681 0.49061 0.86115 0.0
C340 C 0.47496 0.43782 0.88041 0.0
C341 C 0.51792 0.51702 0.87406 0.0
C342 C 0.48534 0.45081 0.86433 0.0
C343 C 0.45491 0.41417 0.91297 0.0
C344 C 0.47712 0.454 0.9091 0.0
C345 C 0.4433 0.38633 0.90048 0.0
C346 C 0.45327 0.39813 0.88424 0.0
Tb347 Tb 0.52393 0.54464 0.91164 0.0
N348 N 0.48922 0.4818 0.92089 0.0
C349 C 0.44443 0.40353 0.92923 0.0
C350 C 0.47603 0.47148 0.93651 0.0
C351 C 0.45452 0.43236 0.94101 0.0
H352 H 0.53315 0.54767 0.87138 0.0
H353 H 0.44489 0.42449 0.95349 0.0
H354 H 0.61962 0.56875 0.97161 0.0
H355 H 0.69923 0.72731 0.89944 0.0
H356 H 0.48024 0.49281 0.94552 0.0
H357 H 0.4274 0.37325 0.93272 0.0
H358 H 0.66266 0.65626 0.90182 0.0
H359 H 0.51451 0.50101 0.84875 0.0
H360 H 0.42628 0.3556 0.90324 0.0
H361 H 0.44393 0.37634 0.87472 0.0
H362 H 0.63266 0.60438 0.9976 0.0
H363 H 0.4767 0.4304 0.8543 0.0
H364 H 0.71784 0.76797 0.92434 0.0
N365 N 0.64057 0.6195 0.95691 0.0
C366 C 0.65983 0.65901 0.95658 0.0
C367 C 0.64009 0.62006 0.98615 0.0
C368 C 0.66959 0.68062 0.97114 0.0
C369 C 0.63181 0.59985 0.9714 0.0
C370 C 0.65878 0.66061 0.98601 0.0
N371 N 0.65934 0.65615 0.92763 0.0
C372 C 0.67011 0.67335 0.91269 0.0
C373 C 0.69147 0.71875 0.94077 0.0
C374 C 0.67056 0.67791 0.94153 0.0
C375 C 0.70167 0.73661 0.92543 0.0
C376 C 0.69109 0.71378 0.91135 0.0
H377 H 0.66543 0.67631 0.99744 0.0
H378 H 0.69805 0.73852 0.9815 0.0
H379 H 0.71731 0.77184 0.95496 0.0
O380 O 0.67299 0.58468 0.92037 0.0
O381 O 0.59823 0.62562 0.93178 0.0
O382 O 0.56109 0.60619 0.90873 0.0
O383 O 0.67738 0.60061 0.94553 0.0
O384 O 0.62569 0.57972 0.90587 0.0
O385 O 0.57363 0.58248 0.89456 0.0
O386 O 0.47448 0.54728 0.9213 0.0
O387 O 0.55675 0.51408 0.90917 0.0
O388 O 0.59271 0.52742 0.93279 0.0
O389 O 0.48451 0.54618 0.89541 0.0
O390 O 0.53077 0.55702 0.93884 0.0
O391 O 0.58148 0.54769 0.94624 0.0
C392 C 0.57634 0.63017 0.92087 0.0
C393 C 0.70662 0.56422 0.93818 0.0
C394 C 0.7525 0.54115 0.93434 0.0
C395 C 0.73845 0.51885 0.94861 0.0
C396 C 0.69243 0.54104 0.95228 0.0
C397 C 0.70859 0.51883 0.95751 0.0
C398 C 0.73679 0.56417 0.92919 0.0
C399 C 0.60919 0.58661 0.89347 0.0
C400 C 0.69283 0.59121 0.93379 0.0
C401 C 0.6902 0.72138 0.97041 0.0
C402 C 0.70126 0.74037 0.95529 0.0
C403 C 0.57268 0.5039 0.92071 0.0
C404 C 0.4271 0.54969 0.90179 0.0
C405 C 0.36072 0.5389 0.90538 0.0
C406 C 0.3631 0.55438 0.88976 0.0
C407 C 0.42804 0.56525 0.88626 0.0
C408 C 0.39299 0.5364 0.9115 0.0
C409 C 0.3964 0.56743 0.88034 0.0
C410 C 0.5504 0.5494 0.95005 0.0
C411 C 0.46153 0.54618 0.9066 0.0
H412 H 0.75101 0.50175 0.95296 0.0
H413 H 0.66945 0.54077 0.95951 0.0
H414 H 0.69819 0.50182 0.96858 0.0
H415 H 0.74826 0.58222 0.9184 0.0
H416 H 0.3389 0.55654 0.88483 0.0
H417 H 0.45343 0.57568 0.87851 0.0
H418 H 0.39147 0.52419 0.92349 0.0
H419 H 0.39769 0.57932 0.86832 0.0
Tb420 Tb 0.47102 0.06374 0.92931 0.0
C421 C 0.58759 0.03414 0.88927 0.0
N422 N 0.5487 0.01818 0.88689 0.0
C423 C 0.55843 0.02463 0.85793 0.0
C424 C 0.61361 0.04647 0.87601 0.0
C425 C 0.53375 0.01289 0.87148 0.0
C426 C 0.59854 0.04161 0.8602 0.0
C427 C 0.64131 0.05427 0.90814 0.0
C428 C 0.60118 0.03788 0.90511 0.0
C429 C 0.66748 0.067 0.89498 0.0
C430 C 0.65365 0.06302 0.87895 0.0
Tb431 Tb 0.51105 0.99898 0.90973 0.0
N432 N 0.57494 0.02571 0.91752 0.0
C433 C 0.65389 0.05712 0.92427 0.0
C434 C 0.58698 0.02586 0.93316 0.0
C435 C 0.62653 0.0424 0.93682 0.0
H436 H 0.50274 0.99878 0.86954 0.0
H437 H 0.6358 0.043 0.94929 0.0
H438 H 0.48627 0.06886 0.96939 0.0
H439 H 0.34078 0.01202 0.89318 0.0
H440 H 0.56656 0.01207 0.94288 0.0
H441 H 0.6845 0.06964 0.92713 0.0
H442 H 0.41124 0.04754 0.89803 0.0
H443 H 0.54646 0.02029 0.84574 0.0
H444 H 0.69844 0.07974 0.89708 0.0
H445 H 0.67415 0.07272 0.86892 0.0
H446 H 0.44631 0.0418 0.99414 0.0
H447 H 0.61756 0.05058 0.84966 0.0
H448 H 0.29559 0.98125 0.91636 0.0
N449 N 0.43786 0.04395 0.95323 0.0
C450 C 0.3985 0.02466 0.95177 0.0
C451 C 0.4325 0.03645 0.98229 0.0
C452 C 0.37449 1.00947 0.96557 0.0
C453 C 0.45512 0.05108 0.96822 0.0
C454 C 0.392 0.01522 0.98095 0.0
N455 N 0.40659 0.03352 0.92318 0.0
C456 C 0.39219 0.03256 0.908 0.0
C457 C 0.34172 0.99981 0.93423 0.0
C458 C 0.38232 0.01967 0.93628 0.0
C459 C 0.32668 0.99625 0.91847 0.0
C460 C 0.35207 0.01328 0.90533 0.0
H461 H 0.37453 1.00389 0.99187 0.0
H462 H 0.3149 0.97706 0.97403 0.0
H463 H 0.28624 0.96883 0.94663 0.0
O464 O 0.47182 0.11208 0.91831 0.0
O465 O 0.43614 0.99913 0.93121 0.0
O466 O 0.44941 0.97774 0.90757 0.0
O467 O 0.47319 0.10752 0.94435 0.0
O468 O 0.4842 0.07062 0.90319 0.0
O469 O 0.47379 0.01188 0.89305 0.0
O470 O 0.51077 0.95022 0.92054 0.0
O471 O 0.54703 0.06235 0.90668 0.0
O472 O 0.53434 0.08824 0.92945 0.0
O473 O 0.49888 0.95058 0.89517 0.0
O474 O 0.5003 0.99635 0.93688 0.0
O475 O 0.51355 0.05806 0.9437 0.0
C476 C 0.42702 0.97218 0.92004 0.0
C477 C 0.50997 0.16949 0.93307 0.0
C478 C 0.53835 0.23904 0.92913 0.0
C479 C 0.57473 0.24449 0.93392 0.0
C480 C 0.54631 0.17561 0.93824 0.0
C481 C 0.57859 0.21287 0.93852 0.0
C482 C 0.50589 0.20137 0.92868 0.0
C483 C 0.47422 0.04544 0.89122 0.0
C484 C 0.47663 0.12989 0.93219 0.0
C485 C 0.33392 0.98909 0.96357 0.0
C486 C 0.31759 0.98437 0.94796 0.0
C487 C 0.55754 0.0901 0.91756 0.0
C488 C 0.53224 0.91722 0.90264 0.0
C489 C 0.5546 0.86985 0.90581 0.0
C490 C 0.58257 0.88965 0.89364 0.0
C491 C 0.56034 0.93564 0.89037 0.0
C492 C 0.52912 0.88369 0.91029 0.0
C493 C 0.58536 0.92218 0.88603 0.0
C494 C 0.51017 0.02464 0.94774 0.0
C495 C 0.50545 0.93218 0.90671 0.0
H496 H 0.59998 0.27338 0.93448 0.0
H497 H 0.54952 0.15157 0.94228 0.0
H498 H 0.60654 0.2173 0.94247 0.0
H499 H 0.47778 0.19693 0.92487 0.0
H500 H 0.60199 0.87943 0.88974 0.0
H501 H 0.56254 0.95999 0.88373 0.0
H502 H 0.50725 0.86862 0.9196 0.0
H503 H 0.60671 0.93675 0.87651 0.0
Tb504 Tb 0.10537 0.32753 0.42469 0.0
C505 C 0.24884 0.34523 0.46122 0.0
N506 N 0.22671 0.36145 0.46494 0.0
C507 C 0.22611 0.34507 0.49315 0.0
C508 C 0.25984 0.32751 0.47336 0.0
C509 C 0.21554 0.36196 0.48068 0.0
C510 C 0.24824 0.32765 0.48948 0.0
C511 C 0.28099 0.3275 0.44063 0.0
C512 C 0.25892 0.34498 0.44501 0.0
C513 C 0.29203 0.30974 0.45267 0.0
C514 C 0.28151 0.30977 0.469 0.0
Tb515 Tb 0.21154 0.38834 0.44364 0.0
N516 N 0.24679 0.36153 0.43358 0.0
C517 C 0.29163 0.32872 0.42429 0.0
C518 C 0.2602 0.36579 0.41793 0.0
C519 C 0.28176 0.34854 0.41295 0.0
H520 H 0.19928 0.37617 0.48376 0.0
H521 H 0.2915 0.35131 0.40043 0.0
H522 H 0.11337 0.32529 0.38442 0.0
H523 H 0.02923 0.37758 0.46328 0.0
H524 H 0.25599 0.3836 0.40925 0.0
H525 H 0.30853 0.31558 0.42041 0.0
H526 H 0.06118 0.33988 0.45674 0.0
H527 H 0.21728 0.34562 0.50559 0.0
H528 H 0.30883 0.29602 0.4495 0.0
H529 H 0.29017 0.2959 0.47815 0.0
H530 H 0.10155 0.35599 0.3606 0.0
H531 H 0.2562 0.31439 0.49916 0.0
H532 H 0.01752 0.41346 0.44136 0.0
N533 N 0.09192 0.35014 0.40156 0.0
C534 C 0.07331 0.37064 0.40384 0.0
C535 C 0.09379 0.36065 0.37272 0.0
C536 C 0.06529 0.38811 0.39062 0.0
C537 C 0.10111 0.34386 0.38625 0.0
C538 C 0.07615 0.38322 0.37492 0.0
N539 N 0.07232 0.35823 0.43208 0.0
C540 C 0.05865 0.35734 0.44741 0.0
C541 C 0.04362 0.39558 0.42255 0.0
C542 C 0.06285 0.37455 0.4196 0.0
C543 C 0.03247 0.39764 0.43856 0.0
C544 C 0.03934 0.37775 0.45099 0.0
H545 H 0.07057 0.39625 0.36441 0.0
H546 H 0.04054 0.42371 0.38353 0.0
H547 H 0.02139 0.43007 0.41145 0.0
O548 O 0.05755 0.27947 0.43568 0.0
O549 O 0.13713 0.39264 0.42359 0.0
O550 O 0.17476 0.41367 0.44667 0.0
O551 O 0.06304 0.28412 0.40964 0.0
O552 O 0.11261 0.32019 0.45059 0.0
O553 O 0.16272 0.37825 0.46051 0.0
O554 O 0.26046 0.44166 0.4345 0.0
O555 O 0.18002 0.32506 0.44676 0.0
O556 O 0.143 0.30162 0.42364 0.0
O557 O 0.25172 0.42698 0.46015 0.0
O558 O 0.20317 0.3926 0.41653 0.0
O559 O 0.15219 0.33211 0.40969 0.0
C560 C 0.1556 0.41905 0.435 0.0
C561 C 0.03675 0.22163 0.42097 0.0
C562 C 0.99411 0.15201 0.42497 0.0
C563 C 0.02486 0.1459 0.42061 0.0
C564 C 0.06681 0.21467 0.41635 0.0
C565 C 0.06093 0.17706 0.41629 0.0
C566 C 1.00012 0.19007 0.42512 0.0
C567 C 0.12893 0.34546 0.46244 0.0
C568 C 0.04403 0.26176 0.42183 0.0
C569 C 0.0468 0.40984 0.39352 0.0
C570 C 0.03594 0.41351 0.40943 0.0
C571 C 0.1638 0.29858 0.43542 0.0
C572 C 0.30724 0.48924 0.45476 0.0
C573 C 0.37328 0.54549 0.45229 0.0
C574 C 0.36956 0.55717 0.46802 0.0
C575 C 0.30474 0.50238 0.47041 0.0
C576 C 0.34195 0.51106 0.44558 0.0
C577 C 0.33565 0.53583 0.47696 0.0
C578 C 0.18307 0.36484 0.40559 0.0
C579 C 0.27425 0.45132 0.44924 0.0
H580 H 0.02074 0.1168 0.4203 0.0
H581 H 0.0948 0.23819 0.41265 0.0
H582 H 0.08434 0.17204 0.41278 0.0
H583 H 0.97666 0.1951 0.42862 0.0
H584 H 0.39317 0.5832 0.47343 0.0
H585 H 0.27883 0.48642 0.47778 0.0
H586 H 0.34461 0.5014 0.43352 0.0
H587 H 0.33331 0.54527 0.48909 0.0
Tb588 Tb 0.73729 0.79901 0.42636 0.0
C589 C 0.7139 0.92375 0.46042 0.0
N590 N 0.69663 0.88512 0.46363 0.0
C591 C 0.70596 0.89821 0.49232 0.0
C592 C 0.72967 0.95134 0.47308 0.0
C593 C 0.69107 0.87195 0.47933 0.0
C594 C 0.72577 0.93809 0.48918 0.0
C595 C 0.73468 0.97543 0.44049 0.0
C596 C 0.71617 0.93553 0.44431 0.0
C597 C 0.75126 1.00311 0.45303 0.0
C598 C 0.74864 0.99109 0.46928 0.0
Tb599 Tb 0.6736 0.84507 0.44164 0.0
N600 N 0.7001 0.90787 0.43245 0.0
C601 C 0.73566 0.98635 0.42421 0.0
C602 C 0.69864 0.91854 0.41671 0.0
C603 C 0.71707 0.95777 0.41232 0.0
H604 H 0.67474 0.84126 0.48199 0.0
H605 H 0.71636 0.96594 0.39978 0.0
H606 H 0.74265 0.8095 0.38559 0.0
H607 H 0.6942 0.6713 0.46263 0.0
H608 H 0.68249 0.89741 0.40744 0.0
H609 H 0.74973 0.01671 0.42076 0.0
H610 H 0.72987 0.74192 0.45676 0.0
H611 H 0.70192 0.88766 0.50475 0.0
H612 H 0.7658 0.03389 0.4503 0.0
H613 H 0.7612 0.01277 0.47884 0.0
H614 H 0.70809 0.76894 0.36184 0.0
H615 H 0.73737 0.95837 0.49927 0.0
H616 H 0.65389 0.62479 0.44103 0.0
N617 N 0.71188 0.76431 0.4029 0.0
C618 C 0.68979 0.72526 0.40496 0.0
C619 C 0.70197 0.75638 0.37395 0.0
C620 C 0.67089 0.70041 0.39169 0.0
C621 C 0.72063 0.77962 0.38752 0.0
C622 C 0.67621 0.71669 0.37609 0.0
N623 N 0.70784 0.73495 0.43264 0.0
C624 C 0.71183 0.72168 0.44746 0.0
C625 C 0.66791 0.66962 0.42292 0.0
C626 C 0.6885 0.70993 0.42027 0.0
C627 C 0.66935 0.65566 0.43847 0.0
C628 C 0.69199 0.68181 0.45072 0.0
H629 H 0.66216 0.69862 0.36554 0.0
H630 H 0.63351 0.64053 0.38433 0.0
H631 H 0.63075 0.61359 0.41172 0.0
O632 O 0.78823 0.80891 0.43846 0.0
O633 O 0.67717 0.76193 0.43581 0.0
O634 O 0.64934 0.79487 0.42573 0.0
O635 O 0.77834 0.79093 0.41343 0.0
O636 O 0.74321 0.81617 0.45174 0.0
O637 O 0.68335 0.80716 0.45975 0.0
O638 O 0.63137 0.86291 0.43904 0.0
O639 O 0.73623 0.87535 0.44654 0.0
O640 O 0.76199 0.86213 0.42413 0.0
O641 O 0.62188 0.81524 0.45511 0.0
O642 O 0.67414 0.83668 0.41449 0.0
O643 O 0.73279 0.83898 0.40926 0.0
C644 C 0.6461 0.76227 0.43059 0.0
C645 C 0.84163 0.83731 0.42089 0.0
C646 C 0.91215 0.87033 0.42238 0.0
C647 C 0.91413 0.90128 0.41327 0.0
C648 C 0.84415 0.86841 0.41175 0.0
C649 C 0.88027 0.90028 0.40803 0.0
C650 C 0.87565 0.83827 0.42618 0.0
C651 C 0.71579 0.8056 0.46272 0.0
C652 C 0.80352 0.80447 0.42521 0.0
C653 C 0.64868 0.66012 0.39434 0.0
C654 C 0.64722 0.64475 0.40993 0.0
C655 C 0.76319 0.88638 0.43535 0.0
C656 C 0.56971 0.83102 0.45436 0.0
C657 C 0.51644 0.84571 0.45302 0.0
C658 C 0.49776 0.81915 0.46574 0.0
C659 C 0.54991 0.80468 0.46704 0.0
C660 C 0.55268 0.85166 0.44721 0.0
C661 C 0.51432 0.79884 0.47264 0.0
C662 C 0.70266 0.84182 0.40441 0.0
C663 C 0.6083 0.83678 0.4494 0.0
H664 H 0.94192 0.92598 0.40993 0.0
H665 H 0.81825 0.86798 0.40736 0.0
H666 H 0.88204 0.92412 0.40096 0.0
H667 H 0.87369 0.81437 0.43332 0.0
H668 H 0.47007 0.81413 0.4704 0.0
H669 H 0.56211 0.78865 0.47283 0.0
H670 H 0.56757 0.87237 0.43749 0.0
H671 H 0.49955 0.77855 0.48248 0.0
Tb672 Tb 0.2647 0.95798 0.42343 0.0
C673 C 0.13676 0.81516 0.46151 0.0
N674 N 0.17561 0.83524 0.46456 0.0
C675 C 0.16339 0.83227 0.49332 0.0
C676 C 0.10959 0.80297 0.47434 0.0
C677 C 0.18928 0.84361 0.48021 0.0
C678 C 0.12338 0.81193 0.49039 0.0
C679 C 0.0843 0.78562 0.44178 0.0
C680 C 0.12431 0.80703 0.4454 0.0
C681 C 0.05706 0.77348 0.45452 0.0
C682 C 0.06967 0.7822 0.47075 0.0
Tb683 Tb 0.21457 0.85141 0.44219 0.0
N684 N 0.15153 0.81997 0.43332 0.0
C685 C 0.07288 0.77635 0.42549 0.0
C686 C 0.1405 0.80833 0.41759 0.0
C687 C 0.10114 0.78721 0.41338 0.0
H688 H 0.22009 0.85801 0.48269 0.0
H689 H 0.09266 0.77866 0.40083 0.0
H690 H 0.25144 0.95183 0.38319 0.0
H691 H 0.39378 0.02425 0.46084 0.0
H692 H 0.1615 0.81364 0.40825 0.0
H693 H 0.0424 0.7598 0.4222 0.0
H694 H 0.32377 0.9943 0.45543 0.0
H695 H 0.17432 0.83887 0.5057 0.0
H696 H 0.02617 0.75704 0.45196 0.0
H697 H 0.04831 0.7725 0.48045 0.0
H698 H 0.29189 0.96314 0.35874 0.0
H699 H 0.1034 0.80303 0.50059 0.0
H700 H 0.43933 0.03732 0.43792 0.0
N701 N 0.29871 0.97054 0.39977 0.0
C702 C 0.33789 0.98765 0.40156 0.0
C703 C 0.30517 0.96982 0.37072 0.0
C704 C 0.36226 0.99549 0.38794 0.0
C705 C 0.2822 0.96272 0.38461 0.0
C706 C 0.34535 0.98594 0.37239 0.0
N707 N 0.32884 0.9877 0.43006 0.0
C708 C 0.34291 0.99859 0.44549 0.0
C709 C 0.39393 0.01459 0.41959 0.0
C710 C 0.35355 0.99711 0.41718 0.0
C711 C 0.40843 0.02382 0.43553 0.0
C712 C 0.38281 0.01625 0.44851 0.0
H713 H 0.3631 0.99142 0.36159 0.0
H714 H 0.42184 0.01866 0.37996 0.0
H715 H 0.44953 0.03538 0.40766 0.0
O716 O 0.26623 1.00597 0.43513 0.0
O717 O 0.29696 0.92495 0.42379 0.0
O718 O 0.27627 0.88557 0.44646 0.0
O719 O 0.26668 1.00277 0.40905 0.0
O720 O 0.24719 0.95014 0.44891 0.0
O721 O 0.25259 0.89944 0.45971 0.0
O722 O 0.21697 0.80484 0.43071 0.0
O723 O 0.18302 0.8832 0.44451 0.0
O724 O 0.20113 0.92213 0.42177 0.0
O725 O 0.20809 0.8045 0.45647 0.0
O726 O 0.22839 0.86012 0.41517 0.0
O727 O 0.2219 0.91269 0.40815 0.0
C728 C 0.30244 0.90485 0.4353 0.0
C729 C 0.23021 0.02844 0.42061 0.0
C730 C 0.20272 0.07046 0.4252 0.0
C731 C 0.16623 0.04024 0.42013 0.0
C732 C 0.19363 0.99907 0.41515 0.0
C733 C 0.16181 1.00483 0.4151 0.0
C734 C 0.23484 0.06449 0.42546 0.0
C735 C 0.25524 0.93418 0.46115 0.0
C736 C 0.26294 0.02087 0.42149 0.0
C737 C 0.40259 0.01257 0.39028 0.0
C738 C 0.41837 0.02213 0.40606 0.0
C739 C 0.1766 0.90329 0.43362 0.0
C740 C 0.22875 0.76151 0.44677 0.0
C741 C 0.22639 0.69854 0.44566 0.0
C742 C 0.26285 0.7158 0.45337 0.0
C743 C 0.26511 0.77787 0.45442 0.0
C744 C 0.20918 0.72159 0.44248 0.0
C745 C 0.28191 0.75503 0.45776 0.0
C746 C 0.2224 0.88112 0.40412 0.0
C747 C 0.20973 0.78491 0.44414 0.0
H748 H 0.14125 0.04437 0.41973 0.0
H749 H 0.18954 0.97175 0.41072 0.0
H750 H 0.13371 0.98188 0.41099 0.0
H751 H 0.263 0.08752 0.42953 0.0
H752 H 0.2765 0.6987 0.45613 0.0
H753 H 0.28026 0.80819 0.458 0.0
H754 H 0.18085 0.7086 0.43668 0.0
H755 H 0.30985 0.76776 0.46381 0.0
Tb756 Tb 0.66753 0.77287 0.26459 0.0
C757 C 0.69648 0.9169 0.22326 0.0
N758 N 0.7127 0.89432 0.22064 0.0
C759 C 0.70399 0.89645 0.1918 0.0
C760 C 0.68303 0.92999 0.21019 0.0
C761 C 0.71686 0.88413 0.20518 0.0
C762 C 0.68691 0.91941 0.1943 0.0
C763 C 0.67727 0.95059 0.24244 0.0
C764 C 0.69358 0.92691 0.23918 0.0
C765 C 0.66347 0.96351 0.22947 0.0
C766 C 0.66639 0.95327 0.21338 0.0
Tb767 Tb 0.73279 0.87572 0.24316 0.0
N768 N 0.70689 0.9134 0.25141 0.0
C769 C 0.67589 0.96109 0.2586 0.0
C770 C 0.70829 0.92619 0.26702 0.0
C771 C 0.69199 0.94928 0.2709 0.0
H772 H 0.73087 0.8672 0.20311 0.0
H773 H 0.6926 0.95863 0.28336 0.0
H774 H 0.66183 0.78475 0.30431 0.0
H775 H 0.72043 0.6927 0.23009 0.0
H776 H 0.7231 0.92027 0.27653 0.0
H777 H 0.66357 0.97925 0.26163 0.0
H778 H 0.68707 0.7299 0.2339 0.0
H779 H 0.70747 0.88842 0.17955 0.0
H780 H 0.65083 0.98173 0.23175 0.0
H781 H 0.65589 0.96367 0.20348 0.0
H782 H 0.68652 0.77113 0.32965 0.0
H783 H 0.67706 0.92899 0.1839 0.0
H784 H 0.74701 0.67566 0.25401 0.0
N785 N 0.68469 0.75799 0.2889 0.0
C786 C 0.70276 0.73669 0.28805 0.0
C787 C 0.6915 0.76147 0.31801 0.0
C788 C 0.71705 0.72788 0.30217 0.0
C789 C 0.67798 0.76957 0.30363 0.0
C790 C 0.71146 0.74084 0.31728 0.0
N791 N 0.69535 0.73556 0.25949 0.0
C792 C 0.69876 0.72339 0.24435 0.0
C793 C 0.72734 0.70334 0.27132 0.0
C794 C 0.70785 0.72462 0.27285 0.0
C795 C 0.73219 0.69207 0.25572 0.0
C796 C 0.71744 0.7018 0.24219 0.0
H797 H 0.72212 0.7348 0.32843 0.0
H798 H 0.74807 0.69991 0.31144 0.0
H799 H 0.75703 0.67837 0.28441 0.0
O800 O 0.61789 0.72339 0.25485 0.0
O801 O 0.73236 0.79951 0.26566 0.0
O802 O 0.74886 0.83158 0.24156 0.0
O803 O 0.61942 0.74274 0.27965 0.0
O804 O 0.65899 0.77568 0.2384 0.0
O805 O 0.71629 0.82392 0.22685 0.0
O806 O 0.78384 0.9229 0.25312 0.0
O807 O 0.66982 0.84864 0.2398 0.0
O808 O 0.64806 0.81572 0.26382 0.0
O809 O 0.78019 0.90984 0.2277 0.0
O810 O 0.73873 0.87035 0.27037 0.0
O811 O 0.67715 0.824 0.27762 0.0
C812 C 0.75842 0.81864 0.25423 0.0
C813 C 0.56914 0.67932 0.27361 0.0
C814 C 0.50215 0.62715 0.27141 0.0
C815 C 0.50542 0.61296 0.28664 0.0
C816 C 0.5723 0.66451 0.28874 0.0
C817 C 0.54044 0.63145 0.29521 0.0
C818 C 0.53404 0.66026 0.26485 0.0
C819 C 0.68248 0.79042 0.22584 0.0
C820 C 0.59859 0.71825 0.26836 0.0
C821 C 0.73667 0.7068 0.30073 0.0
C822 C 0.74175 0.69452 0.28534 0.0
C823 C 0.64277 0.83181 0.25085 0.0
C824 C 0.81591 0.97658 0.23505 0.0
C825 C 0.8641 0.04575 0.23851 0.0
C826 C 0.84344 0.05498 0.22718 0.0
C827 C 0.7965 0.98713 0.22359 0.0
C828 C 0.85029 1.00625 0.24245 0.0
C829 C 0.81 0.02591 0.21978 0.0
C830 C 0.71159 0.85199 0.28165 0.0
C831 C 0.80043 0.93481 0.23898 0.0
H832 H 0.48068 0.58775 0.29195 0.0
H833 H 0.59881 0.67934 0.29585 0.0
H834 H 0.54262 0.62062 0.30705 0.0
H835 H 0.53099 0.67212 0.25338 0.0
H836 H 0.85364 0.08494 0.22381 0.0
H837 H 0.77117 0.96549 0.21724 0.0
H838 H 0.86596 0.99876 0.25121 0.0
H839 H 0.79465 0.03344 0.21091 0.0
Tb840 Tb 0.29947 0.9255 0.26257 0.0
C841 C 0.15314 0.80674 0.22356 0.0
N842 N 0.17556 0.84555 0.22092 0.0
C843 C 0.17251 0.83463 0.19205 0.0
C844 C 0.1397 0.78019 0.21048 0.0
C845 C 0.18504 0.85986 0.20542 0.0
C846 C 0.14984 0.79461 0.19458 0.0
C847 C 0.11937 0.75389 0.24275 0.0
C848 C 0.14315 0.79385 0.23947 0.0
C849 C 0.1062 0.72718 0.22978 0.0
C850 C 0.11631 0.74031 0.21368 0.0
Tb851 Tb 0.19354 0.88413 0.2435 0.0
N852 N 0.15672 0.82062 0.25169 0.0
C853 C 0.10909 0.74206 0.25893 0.0
C854 C 0.14442 0.80932 0.26734 0.0
C855 C 0.12131 0.76996 0.27125 0.0
H856 H 0.20152 0.89078 0.20325 0.0
H857 H 0.11223 0.76125 0.28373 0.0
H858 H 0.28801 0.91368 0.30291 0.0
H859 H 0.38633 0.05084 0.22506 0.0
H860 H 0.15086 0.83022 0.27685 0.0
H861 H 0.09087 0.71162 0.26197 0.0
H862 H 0.34598 0.98116 0.23076 0.0
H863 H 0.18004 0.84611 0.17978 0.0
H864 H 0.08789 0.69635 0.23207 0.0
H865 H 0.10566 0.71941 0.20379 0.0
H866 H 0.30321 0.95603 0.32695 0.0
H867 H 0.14 0.77517 0.18418 0.0
H868 H 0.40396 0.09838 0.24754 0.0
N869 N 0.31334 0.96051 0.28599 0.0
C870 C 0.33581 0.99958 0.28399 0.0
C871 C 0.31213 0.96868 0.31492 0.0
C872 C 0.34661 0.02488 0.29744 0.0
C873 C 0.3026 0.94471 0.30122 0.0
C874 C 0.33394 1.00897 0.31301 0.0
N875 N 0.33591 0.98893 0.2555 0.0
C876 C 0.35086 1.00144 0.24031 0.0
C877 C 0.37221 0.05435 0.26581 0.0
C878 C 0.34803 0.01418 0.2683 0.0
C879 C 0.38516 0.06771 0.24997 0.0
C880 C 0.37495 0.04103 0.23721 0.0
H881 H 0.34155 0.02748 0.32368 0.0
H882 H 0.37854 0.08505 0.30513 0.0
H883 H 0.40126 0.11077 0.27751 0.0
O884 O 0.34477 0.91956 0.25194 0.0
O885 O 0.2715 0.96237 0.26406 0.0
O886 O 0.23431 0.94527 0.24116 0.0
O887 O 0.34297 0.92786 0.27772 0.0
O888 O 0.29228 0.91182 0.2365 0.0
O889 O 0.24317 0.92155 0.22663 0.0
O890 O 0.14568 0.88571 0.25427 0.0
O891 O 0.22209 0.84925 0.24067 0.0
O892 O 0.26104 0.86204 0.26339 0.0
O893 O 0.15649 0.89469 0.22869 0.0
O894 O 0.20245 0.89576 0.27058 0.0
O895 O 0.25192 0.88385 0.27746 0.0
C896 C 0.24994 0.96835 0.25354 0.0
C897 C 0.37025 0.89034 0.26945 0.0
C898 C 0.41457 0.86518 0.26642 0.0
C899 C 0.39254 0.83593 0.27782 0.0
C900 C 0.34814 0.86045 0.28063 0.0
C901 C 0.35954 0.83364 0.28487 0.0
C902 C 0.40354 0.89264 0.26235 0.0
C903 C 0.27643 0.92136 0.22462 0.0
C904 C 0.36043 0.9207 0.26603 0.0
C905 C 0.36994 0.06507 0.29494 0.0
C906 C 0.38287 0.07974 0.2792 0.0
C907 C 0.2385 0.83844 0.25181 0.0
C908 C 0.0902 0.86241 0.23682 0.0
C909 C 0.02074 0.84111 0.24017 0.0
C910 C 1.01173 0.81099 0.22899 0.0
C911 C 0.07972 0.83217 0.22551 0.0
C912 C 0.06032 0.86713 0.24407 0.0
C913 C 0.04096 0.80665 0.22174 0.0
C914 C 0.22129 0.88632 0.28143 0.0
C915 C 0.13218 0.88951 0.24034 0.0
H916 H 0.40121 0.81511 0.28141 0.0
H917 H 0.32247 0.85823 0.28632 0.0
H918 H 0.34291 0.81118 0.29373 0.0
H919 H 0.42083 0.91573 0.25378 0.0
H920 H 0.9818 0.79102 0.22562 0.0
H921 H 0.10146 0.82859 0.21921 0.0
H922 H 0.06772 0.89061 0.25263 0.0
H923 H 0.03355 0.78362 0.21296 0.0
Tb924 Tb 0.14056 0.39824 0.26449 0.0
C925 C 0.26664 0.38055 0.22546 0.0
N926 N 0.22804 0.36414 0.22226 0.0
C927 C 0.24135 0.37629 0.19366 0.0
C928 C 0.29429 0.39592 0.2128 0.0
C929 C 0.21502 0.36162 0.20662 0.0
C930 C 0.28117 0.39358 0.19676 0.0
C931 C 0.31826 0.40001 0.24537 0.0
C932 C 0.2784 0.38283 0.24157 0.0
C933 C 0.34598 0.41543 0.23281 0.0
C934 C 0.33402 0.41338 0.21657 0.0
Tb935 Tb 0.18788 0.34039 0.24426 0.0
N936 N 0.25075 0.36824 0.25346 0.0
C937 C 0.32907 0.40069 0.26165 0.0
C938 C 0.26117 0.36599 0.26915 0.0
C939 C 0.30034 0.38306 0.27355 0.0
H940 H 0.18429 0.34724 0.204 0.0
H941 H 0.30831 0.38173 0.28607 0.0
H942 H 0.15943 0.40834 0.30435 0.0
H943 H 1.00683 0.33026 0.23006 0.0
H944 H 0.23989 0.34974 0.2783 0.0
H945 H 0.35939 0.4136 0.26508 0.0
H946 H 0.0776 0.36954 0.23364 0.0
H947 H 0.23089 0.37401 0.18129 0.0
H948 H 0.37674 0.42883 0.23552 0.0
H949 H 0.35574 0.42539 0.20701 0.0
H950 H 0.12214 0.38225 0.32979 0.0
H951 H 0.30152 0.40497 0.18669 0.0
H952 H 0.96427 0.30257 0.25421 0.0
N953 N 0.10988 0.37912 0.28896 0.0
C954 C 0.07048 0.35762 0.2881 0.0
C955 C 0.10727 0.37479 0.31815 0.0
C956 C 0.04789 0.3429 0.30232 0.0
C957 C 0.12843 0.38888 0.3037 0.0
C958 C 0.06684 0.35141 0.31746 0.0
N959 N 0.07571 0.36295 0.25934 0.0
C960 C 0.05968 0.35724 0.24417 0.0
C961 C 1.01206 0.32732 0.27143 0.0
C962 C 0.05274 0.34993 0.27284 0.0
C963 C 0.99547 0.31988 0.25583 0.0
C964 C 0.0194 0.33525 0.24215 0.0
H965 H 0.05051 0.34054 0.32868 0.0
H966 H 0.98937 0.30847 0.31176 0.0
H967 H 0.95804 0.29484 0.28475 0.0
O968 O 0.13667 0.44367 0.25308 0.0
O969 O 0.10746 0.33307 0.26459 0.0
O970 O 0.12651 0.31701 0.24107 0.0
O971 O 0.1402 0.44158 0.27908 0.0
O972 O 0.15595 0.40849 0.23873 0.0
O973 O 0.15 0.35255 0.22744 0.0
O974 O 0.18315 0.28779 0.25428 0.0
O975 O 0.2204 0.40359 0.24184 0.0
O976 O 0.20442 0.42582 0.26488 0.0
O977 O 0.1877 0.29971 0.22834 0.0
O978 O 0.17551 0.33501 0.2714 0.0
O979 O 0.1845 0.39488 0.27871 0.0
C980 C 0.10264 0.30734 0.25329 0.0
C981 C 0.17358 0.50299 0.26682 0.0
C982 C 0.19926 0.57188 0.26158 0.0
C983 C 0.23646 0.57923 0.26611 0.0
C984 C 0.21081 0.51124 0.27175 0.0
C985 C 0.24211 0.54905 0.27124 0.0
C986 C 0.16768 0.53356 0.26191 0.0
C987 C 0.14751 0.38483 0.22633 0.0
C988 C 0.14148 0.46247 0.26667 0.0
C989 C 1.00726 0.32019 0.30097 0.0
C990 C 0.9894 0.31248 0.28558 0.0
C991 C 0.22854 0.4303 0.25292 0.0
C992 C 0.18039 0.23774 0.23507 0.0
C993 C 0.191 0.18226 0.23851 0.0
C994 C 0.17269 0.16766 0.22344 0.0
C995 C 0.16191 0.22182 0.22011 0.0
C996 C 0.19508 0.21771 0.2444 0.0
C997 C 0.15829 0.18725 0.21436 0.0
C998 C 0.18275 0.36213 0.28257 0.0
C999 C 0.18629 0.27648 0.23972 0.0
H1000 H 0.26103 0.60858 0.26607 0.0
H1001 H 0.21551 0.48843 0.27621 0.0
H1002 H 0.27072 0.55505 0.27501 0.0
H1003 H 0.13894 0.52762 0.2583 0.0
H1004 H 0.16942 0.14073 0.21868 0.0
H1005 H 0.15052 0.23643 0.21268 0.0
H1006 H 0.20962 0.22958 0.25592 0.0
H1007 H 0.14427 0.17559 0.20275 0.0
Tb1008 Tb 0.77741 0.66363 0.75608 0.0
C1009 C 0.91787 0.68064 0.79549 0.0
N1010 N 0.89645 0.69772 0.79899 0.0
C1011 C 0.89631 0.68296 0.82737 0.0
C1012 C 0.92879 0.66331 0.80783 0.0
C1013 C 0.88574 0.69931 0.81469 0.0
C1014 C 0.91783 0.66476 0.82393 0.0
C1015 C 0.94905 0.6612 0.77515 0.0
C1016 C 0.92757 0.67942 0.77934 0.0
C1017 C 0.95991 0.64369 0.78738 0.0
C1018 C 0.94986 0.64481 0.80368 0.0
Tb1019 Tb 0.88086 0.72366 0.77748 0.0
N1020 N 0.91578 0.69598 0.76777 0.0
C1021 C 0.95944 0.66155 0.75883 0.0
C1022 C 0.92925 0.69961 0.75215 0.0
C1023 C 0.95009 0.68147 0.74734 0.0
H1024 H 0.86983 0.71403 0.81753 0.0
H1025 H 0.95979 0.68373 0.73484 0.0
H1026 H 0.79092 0.65822 0.71629 0.0
H1027 H 0.6996 0.72023 0.78982 0.0
H1028 H 0.92588 0.71775 0.7434 0.0
H1029 H 0.97586 0.64779 0.7551 0.0
H1030 H 0.73683 0.68677 0.78652 0.0
H1031 H 0.88793 0.68449 0.8398 0.0
H1032 H 0.9763 0.62943 0.78437 0.0
H1033 H 0.95848 0.63125 0.81299 0.0
H1034 H 0.77774 0.6824 0.6908 0.0
H1035 H 0.92582 0.65193 0.83378 0.0
H1036 H 0.68262 0.74584 0.76557 0.0
N1037 N 0.76576 0.68301 0.73157 0.0
C1038 C 0.74467 0.70133 0.73224 0.0
C1039 C 0.76868 0.68837 0.70238 0.0
C1040 C 0.73556 0.71482 0.71795 0.0
C1041 C 0.77695 0.6755 0.71688 0.0
C1042 C 0.74817 0.70843 0.70291 0.0
N1043 N 0.74265 0.69415 0.76089 0.0
C1044 C 0.73036 0.69805 0.77593 0.0
C1045 C 0.71079 0.72598 0.7486 0.0
C1046 C 0.73229 0.70668 0.74736 0.0
C1047 C 0.6992 0.73114 0.76409 0.0
C1048 C 0.70885 0.71688 0.7778 0.0
H1049 H 0.74172 0.71832 0.69164 0.0
H1050 H 0.70683 0.74471 0.70828 0.0
H1051 H 0.68524 0.75457 0.73512 0.0
O1052 O 0.72747 0.61281 0.76589 0.0
O1053 O 0.80589 0.72866 0.75629 0.0
O1054 O 0.84196 0.74651 0.77981 0.0
O1055 O 0.74196 0.62021 0.74005 0.0
O1056 O 0.77872 0.65431 0.78226 0.0
O1057 O 0.82967 0.70973 0.79394 0.0
O1058 O 0.9327 0.77509 0.76913 0.0
O1059 O 0.84903 0.66051 0.78061 0.0
O1060 O 0.81682 0.63998 0.75633 0.0
O1061 O 0.91658 0.76476 0.7946 0.0
O1062 O 0.8756 0.73186 0.75043 0.0
O1063 O 0.82786 0.67106 0.74308 0.0
C1064 C 0.82521 0.75432 0.76788 0.0
C1065 C 0.68403 0.56124 0.74644 0.0
C1066 C 0.63665 0.49294 0.75084 0.0
C1067 C 0.6249 0.48998 0.73449 0.0
C1068 C 0.67137 0.55746 0.73016 0.0
C1069 C 0.64203 0.5221 0.72427 0.0
C1070 C 0.6661 0.52887 0.75697 0.0
C1071 C 0.7946 0.67758 0.79481 0.0
C1072 C 0.71855 0.59801 0.75126 0.0
C1073 C 0.71409 0.73407 0.71913 0.0
C1074 C 0.70174 0.73964 0.73441 0.0
C1075 C 0.83323 0.63437 0.76914 0.0
C1076 C 0.97685 0.82434 0.78948 0.0
C1077 C 0.04355 0.87983 0.78675 0.0
C1078 C 0.04056 0.89156 0.80258 0.0
C1079 C 0.97539 0.83759 0.80524 0.0
C1080 C 1.01143 0.84576 0.78009 0.0
C1081 C 1.00687 0.87069 0.81169 0.0
C1082 C 0.8567 0.70502 0.73906 0.0
C1083 C 0.94236 0.78715 0.78408 0.0
H1084 H 0.60219 0.46259 0.72963 0.0
H1085 H 0.68468 0.58182 0.7218 0.0
H1086 H 0.63284 0.51948 0.71167 0.0
H1087 H 0.67587 0.53114 0.76949 0.0
H1088 H 0.0646 0.91736 0.80793 0.0
H1089 H 0.9497 0.82215 0.81278 0.0
H1090 H 1.01336 0.83616 0.76793 0.0
H1091 H 1.00513 0.88026 0.82386 0.0
Tb1092 Tb 0.40823 0.14438 0.7599 0.0
C1093 C 0.35391 0.24821 0.79701 0.0
N1094 N 0.34652 0.21103 0.79863 0.0
C1095 C 0.35166 0.21858 0.82777 0.0
C1096 C 0.36147 0.27231 0.81076 0.0
C1097 C 0.34423 0.1957 0.81382 0.0
C1098 C 0.36052 0.25709 0.82624 0.0
C1099 C 0.363 0.30107 0.77929 0.0
C1100 C 0.3546 0.26239 0.78144 0.0
C1101 C 0.37039 0.32506 0.79297 0.0
C1102 C 0.36963 0.31072 0.80865 0.0
Tb1103 Tb 0.33167 0.17635 0.77487 0.0
N1104 N 0.34878 0.23885 0.76838 0.0
C1105 C 0.36483 0.31486 0.76343 0.0
C1106 C 0.34981 0.25209 0.75288 0.0
C1107 C 0.35825 0.29027 0.75019 0.0
H1108 H 0.33492 0.16544 0.81554 0.0
H1109 H 0.3592 0.30057 0.73788 0.0
H1110 H 0.40903 0.15297 0.71904 0.0
H1111 H 0.38959 0.02409 0.79653 0.0
H1112 H 0.34313 0.23345 0.74245 0.0
H1113 H 0.37143 0.34445 0.76128 0.0
H1114 H 0.41338 0.0933 0.79028 0.0
H1115 H 0.34975 0.20621 0.83974 0.0
H1116 H 0.37706 0.35487 0.79154 0.0
H1117 H 0.37553 0.32963 0.81908 0.0
H1118 H 0.37879 0.10942 0.69564 0.0
H1119 H 0.36604 0.27465 0.8371 0.0
H1120 H 0.35546 0.97414 0.77518 0.0
N1121 N 0.38671 0.10751 0.73664 0.0
C1122 C 0.37162 0.06869 0.7388 0.0
C1123 C 0.3757 0.09747 0.70779 0.0
C1124 C 0.35568 0.04245 0.72569 0.0
C1125 C 0.39168 0.12224 0.7212 0.0
C1126 C 0.35675 0.0573 0.71009 0.0
N1127 N 0.39068 0.08204 0.76624 0.0
C1128 C 0.39772 0.07154 0.78113 0.0
C1129 C 0.36071 0.01587 0.7569 0.0
C1130 C 0.37443 0.05553 0.75407 0.0
C1131 C 0.36557 1.0044 0.77248 0.0
C1132 C 0.38471 0.03248 0.78458 0.0
H1133 H 0.3448 0.03815 0.69966 0.0
H1134 H 0.32782 0.98183 0.71859 0.0
H1135 H 0.33201 0.95852 0.74599 0.0
O1136 O 0.46012 0.15724 0.77212 0.0
O1137 O 0.3488 0.09856 0.76776 0.0
O1138 O 0.3187 0.12919 0.75825 0.0
O1139 O 0.45657 0.15564 0.74589 0.0
O1140 O 0.40836 0.16147 0.78509 0.0
O1141 O 0.34471 0.13936 0.79194 0.0
O1142 O 0.28333 0.18134 0.76796 0.0
O1143 O 0.39343 0.21919 0.77906 0.0
O1144 O 0.42488 0.20574 0.75862 0.0
O1145 O 0.2788 0.14396 0.78771 0.0
O1146 O 0.33662 0.17211 0.7477 0.0
O1147 O 0.3983 0.18106 0.74282 0.0
C1148 C 0.31647 0.0973 0.76331 0.0
C1149 C 0.50248 0.14278 0.75751 0.0
C1150 C 0.56612 0.14916 0.76028 0.0
C1151 C 0.55167 0.11224 0.75319 0.0
C1152 C 0.48815 0.10581 0.75058 0.0
C1153 C 0.51286 0.09074 0.74837 0.0
C1154 C 0.54149 0.16453 0.7623 0.0
C1155 C 0.37957 0.14373 0.79537 0.0
C1156 C 0.47839 0.16075 0.7585 0.0
C1157 C 0.34058 1.00253 0.72848 0.0
C1158 C 0.34309 0.98927 0.74407 0.0
C1159 C 0.42439 0.22844 0.77014 0.0
C1160 C 0.24065 0.17544 0.78903 0.0
C1161 C 0.1932 0.19784 0.79009 0.0
C1162 C 0.2038 0.20912 0.80637 0.0
C1163 C 0.25012 0.18656 0.80541 0.0
C1164 C 0.21169 0.18088 0.7814 0.0
C1165 C 0.23195 0.2034 0.81395 0.0
C1166 C 0.36672 0.18105 0.73789 0.0
C1167 C 0.26149 0.15943 0.77968 0.0
H1168 H 0.57056 0.10021 0.75128 0.0
H1169 H 0.45822 0.08905 0.74658 0.0
H1170 H 0.502 0.06247 0.74281 0.0
H1171 H 0.55262 0.19326 0.76753 0.0
H1172 H 0.18984 0.22199 0.8133 0.0
H1173 H 0.27145 0.18214 0.8117 0.0
H1174 H 0.204 0.17247 0.76876 0.0
H1175 H 0.23963 0.21195 0.82656 0.0
Tb1176 Tb 0.93249 0.29552 0.75837 0.0
C1177 C 0.81029 0.14259 0.79435 0.0
N1178 N 0.84851 0.16833 0.79711 0.0
C1179 C 0.83632 0.16608 0.82588 0.0
C1180 C 0.78326 0.1288 0.80728 0.0
C1181 C 0.86207 0.17874 0.8127 0.0
C1182 C 0.79666 0.14139 0.82315 0.0
C1183 C 0.75911 0.10209 0.77529 0.0
C1184 C 0.79838 0.1295 0.77851 0.0
C1185 C 0.73194 0.089 0.78808 0.0
C1186 C 0.74397 0.10234 0.80402 0.0
Tb1187 Tb 0.88747 0.18536 0.77469 0.0
N1188 N 0.82537 0.14314 0.76634 0.0
C1189 C 0.74835 0.08832 0.75934 0.0
C1190 C 0.81521 0.12848 0.75087 0.0
C1191 C 0.77659 0.10129 0.74713 0.0
H1192 H 0.89274 0.19593 0.81523 0.0
H1193 H 0.7687 0.09007 0.73484 0.0
H1194 H 0.919 0.28798 0.71776 0.0
H1195 H 0.06402 0.3818 0.79248 0.0
H1196 H 0.83663 0.13647 0.74139 0.0
H1197 H 0.71847 0.06723 0.75639 0.0
H1198 H 0.99292 0.34711 0.78774 0.0
H1199 H 0.84717 0.17486 0.83817 0.0
H1200 H 0.7016 0.06817 0.7858 0.0
H1201 H 0.72276 0.09155 0.8138 0.0
H1202 H 0.95728 0.29122 0.69361 0.0
H1203 H 0.77682 0.13138 0.83341 0.0
H1204 H 0.10822 0.38471 0.77047 0.0
N1205 N 0.96514 0.30188 0.73457 0.0
C1206 C 1.00429 0.31813 0.73614 0.0
C1207 C 0.97076 0.29804 0.70556 0.0
C1208 C 0.02793 0.32258 0.72258 0.0
C1209 C 0.94879 0.29502 0.71937 0.0
C1210 C 1.01039 0.31095 0.70722 0.0
N1211 N 0.99724 0.32941 0.76378 0.0
C1212 C 1.01213 0.3482 0.77822 0.0
C1213 C 0.0616 0.35262 0.7532 0.0
C1214 C 0.02104 0.33329 0.75115 0.0
C1215 C 0.07712 0.36952 0.76839 0.0
C1216 C 0.05228 0.36792 0.78086 0.0
H1217 H 0.02751 0.31383 0.69647 0.0
H1218 H 0.08704 0.34336 0.71444 0.0
H1219 H 0.1165 0.36949 0.7413 0.0
O1220 O 0.92836 0.34006 0.77039 0.0
O1221 O 0.9694 0.27336 0.76862 0.0
O1222 O 0.93682 0.21301 0.75848 0.0
O1223 O 0.93773 0.34259 0.74463 0.0
O1224 O 0.91087 0.2815 0.78314 0.0
O1225 O 0.9237 0.23455 0.79243 0.0
O1226 O 0.87349 0.12679 0.77148 0.0
O1227 O 0.85105 0.21215 0.77759 0.0
O1228 O 0.86913 0.25838 0.75699 0.0
O1229 O 0.91875 0.16503 0.78845 0.0
O1230 O 0.89472 0.19426 0.74761 0.0
O1231 O 0.8915 0.24998 0.74185 0.0
C1232 C 0.96909 0.24175 0.76386 0.0
C1233 C 0.89641 0.36412 0.75446 0.0
C1234 C 0.86672 0.40418 0.7582 0.0
C1235 C 0.83192 0.37444 0.7515 0.0
C1236 C 0.86169 0.33501 0.74744 0.0
C1237 C 0.82954 0.34009 0.74609 0.0
C1238 C 0.899 0.39889 0.7597 0.0
C1239 C 0.92362 0.26793 0.79462 0.0
C1240 C 0.92923 0.35755 0.75691 0.0
C1241 C 0.06839 0.3401 0.72468 0.0
C1242 C 0.08519 0.35512 0.73996 0.0
C1243 C 0.84395 0.23385 0.76763 0.0
C1244 C 0.90582 0.09775 0.78663 0.0
C1245 C 0.89066 0.02965 0.78505 0.0
C1246 C 0.91895 0.03783 0.79706 0.0
C1247 C 0.93392 0.10461 0.79855 0.0
C1248 C 0.88409 0.05988 0.77974 0.0
C1249 C 0.94038 0.07493 0.80369 0.0
C1250 C 0.88766 0.21628 0.73753 0.0
C1251 C 0.89901 0.1302 0.7822 0.0
H1252 H 0.80682 0.37815 0.75011 0.0
H1253 H 0.85932 0.30831 0.74299 0.0
H1254 H 0.80277 0.31743 0.7408 0.0
H1255 H 0.92579 0.4215 0.76507 0.0
H1256 H 0.92443 0.01522 0.80138 0.0
H1257 H 0.95083 0.13303 0.80409 0.0
H1258 H 0.86196 0.05379 0.77063 0.0
H1259 H 0.96201 0.08065 0.81296 0.0
Tb1260 Tb 0.33514 0.1015 0.59809 0.0
C1261 C 0.35849 0.24524 0.55698 0.0
N1262 N 0.37578 0.22368 0.55432 0.0
C1263 C 0.36887 0.22752 0.52544 0.0
C1264 C 0.34547 0.25876 0.5439 0.0
C1265 C 0.38159 0.21507 0.53883 0.0
C1266 C 0.35059 0.24935 0.52797 0.0
C1267 C 0.33898 0.27859 0.57619 0.0
C1268 C 0.35519 0.25482 0.5729 0.0
C1269 C 0.32525 0.29162 0.56323 0.0
C1270 C 0.32852 0.28174 0.54712 0.0
Tb1271 Tb 0.3959 0.20505 0.57681 0.0
N1272 N 0.36903 0.24176 0.58507 0.0
C1273 C 0.33814 0.2895 0.59233 0.0
C1274 C 0.37112 0.25509 0.60063 0.0
C1275 C 0.35485 0.27818 0.60456 0.0
H1276 H 0.3971 0.19961 0.53676 0.0
H1277 H 0.35603 0.28798 0.61698 0.0
H1278 H 0.32265 0.1127 0.63746 0.0
H1279 H 0.40468 0.03309 0.56661 0.0
H1280 H 0.38659 0.24967 0.61002 0.0
H1281 H 0.32598 0.30778 0.59538 0.0
H1282 H 0.36865 0.06825 0.56856 0.0
H1283 H 0.37362 0.22068 0.51317 0.0
H1284 H 0.3127 0.30992 0.56553 0.0
H1285 H 0.31836 0.29249 0.53722 0.0
H1286 H 0.34486 0.10045 0.66377 0.0
H1287 H 0.3411 0.25929 0.51757 0.0
H1288 H 0.42675 0.01542 0.59177 0.0
N1289 N 0.35128 0.08975 0.62322 0.0
C1290 C 0.37147 0.07043 0.62324 0.0
C1291 C 0.35282 0.09215 0.65246 0.0
C1292 C 0.38386 0.06187 0.63797 0.0
C1293 C 0.34097 0.0998 0.63753 0.0
C1294 C 0.37458 0.07332 0.65268 0.0
N1295 N 0.36933 0.07008 0.5944 0.0
C1296 C 0.37722 0.06013 0.57955 0.0
C1297 C 0.4015 0.04005 0.6079 0.0
C1298 C 0.3801 0.05954 0.60839 0.0
C1299 C 0.41032 0.0304 0.59267 0.0
C1300 C 0.39798 0.04037 0.57844 0.0
H1301 H 0.38367 0.06737 0.66428 0.0
H1302 H 0.41493 0.03548 0.64875 0.0
H1303 H 0.43039 0.01643 0.62243 0.0
O1304 O 0.28778 0.05412 0.58657 0.0
O1305 O 0.40028 0.13104 0.59824 0.0
O1306 O 0.41531 0.16378 0.57427 0.0
O1307 O 0.29078 0.05868 0.61261 0.0
O1308 O 0.32613 0.10274 0.57189 0.0
O1309 O 0.38066 0.15427 0.55996 0.0
O1310 O 0.44589 0.25286 0.58721 0.0
O1311 O 0.33261 0.17581 0.5738 0.0
O1312 O 0.31057 0.14043 0.59749 0.0
O1313 O 0.44359 0.2407 0.56176 0.0
O1314 O 0.40103 0.19858 0.604 0.0
O1315 O 0.33996 0.1506 0.6113 0.0
C1316 C 0.42548 0.15039 0.58657 0.0
C1317 C 0.22938 0.03407 0.60067 0.0
C1318 C 0.15978 0.99262 0.59643 0.0
C1319 C 0.15425 0.02376 0.60074 0.0
C1320 C 0.22313 0.06465 0.60518 0.0
C1321 C 0.18578 0.05953 0.60511 0.0
C1322 C 0.19753 0.99784 0.59643 0.0
C1323 C 0.34882 0.11897 0.55923 0.0
C1324 C 0.2691 0.04035 0.6002 0.0
C1325 C 0.40509 0.04228 0.63755 0.0
C1326 C 0.41384 0.03136 0.62256 0.0
C1327 C 0.30551 0.15769 0.58478 0.0
C1328 C 0.47833 0.30727 0.56938 0.0
C1329 C 0.52686 0.37656 0.57248 0.0
C1330 C 0.50598 0.38555 0.56116 0.0
C1331 C 0.45868 0.31767 0.55797 0.0
C1332 C 0.51303 0.33709 0.57657 0.0
C1333 C 0.47227 0.35636 0.55398 0.0
C1334 C 0.37348 0.1805 0.61517 0.0
C1335 C 0.46309 0.26544 0.57321 0.0
H1336 H 0.12535 0.02019 0.60099 0.0
H1337 H 0.24699 0.09245 0.60891 0.0
H1338 H 0.18125 0.08327 0.60855 0.0
H1339 H 0.2021 0.97406 0.593 0.0
H1340 H 0.51619 0.41541 0.55764 0.0
H1341 H 0.4331 0.29593 0.55179 0.0
H1342 H 0.52894 0.32973 0.58524 0.0
H1343 H 0.45676 0.36373 0.54512 0.0
Tb1344 Tb 0.96272 0.25543 0.59556 0.0
C1345 C 0.82074 0.1297 0.55768 0.0
N1346 N 0.84083 0.16848 0.55461 0.0
C1347 C 0.83843 0.15608 0.52588 0.0
C1348 C 0.80899 0.10246 0.5449 0.0
C1349 C 0.84945 0.18204 0.53896 0.0
C1350 C 0.81821 0.11612 0.52885 0.0
C1351 C 0.79137 0.07741 0.57746 0.0
C1352 C 0.81238 0.11738 0.57378 0.0
C1353 C 0.77969 0.0501 0.56476 0.0
C1354 C 0.78851 0.06259 0.54853 0.0
Tb1355 Tb 0.85652 0.20758 0.5769 0.0
N1356 N 0.82497 0.14465 0.58581 0.0
C1357 C 0.78232 0.06609 0.59377 0.0
C1358 C 0.81348 0.1337 0.60156 0.0
C1359 C 0.79291 0.0944 0.60583 0.0
H1360 H 0.86392 0.21281 0.53644 0.0
H1361 H 0.78452 0.08598 0.6184 0.0
H1362 H 0.95408 0.24466 0.63604 0.0
H1363 H 0.04202 0.38143 0.55744 0.0
H1364 H 0.81848 0.15473 0.61084 0.0
H1365 H 0.7662 0.03565 0.5971 0.0
H1366 H 1.00771 0.31157 0.56369 0.0
H1367 H 0.84526 0.16692 0.5135 0.0
H1368 H 0.76363 0.01924 0.56736 0.0
H1369 H 0.77922 0.04117 0.53886 0.0
H1370 H 0.96525 0.28709 0.65978 0.0
H1371 H 0.80965 0.09609 0.51868 0.0
H1372 H 0.05373 0.42891 0.57939 0.0
N1373 N 0.97463 0.29082 0.61879 0.0
C1374 C 0.99334 0.32994 0.6165 0.0
C1375 C 0.9729 0.29947 0.64765 0.0
C1376 C 1.00162 0.3554 0.62975 0.0
C1377 C 0.96577 0.27539 0.63414 0.0
C1378 C 0.99051 0.33964 0.64544 0.0
N1379 N 0.99542 0.31888 0.58819 0.0
C1380 C 1.01025 0.33165 0.57301 0.0
C1381 C 0.02511 0.38475 0.59795 0.0
C1382 C 1.00465 0.34446 0.60075 0.0
C1383 C 0.03766 0.3981 0.58206 0.0
C1384 C 0.03083 0.37141 0.56959 0.0
H1385 H 0.99622 0.35826 0.65595 0.0
H1386 H 0.02759 0.41575 0.63696 0.0
H1387 H 0.04844 0.44142 0.60918 0.0
O1388 O 1.00715 0.24786 0.58491 0.0
O1389 O 0.93094 0.28888 0.59546 0.0
O1390 O 0.88999 0.26955 0.57322 0.0
O1391 O 1.01041 0.26529 0.60987 0.0
O1392 O 0.95598 0.24189 0.56956 0.0
O1393 O 0.90388 0.24674 0.5596 0.0
O1394 O 0.80837 0.20651 0.58839 0.0
O1395 O 0.8899 0.17753 0.57439 0.0
O1396 O 0.92724 0.19196 0.59756 0.0
O1397 O 0.81099 0.20375 0.56233 0.0
O1398 O 0.86576 0.22244 0.60366 0.0
O1399 O 0.91687 0.21373 0.61111 0.0
C1400 C 0.91106 0.29544 0.58421 0.0
C1401 C 0.03883 0.22733 0.60376 0.0
C1402 C 0.08391 0.20267 0.60154 0.0
C1403 C 0.06724 0.17997 0.61553 0.0
C1404 C 0.0221 0.20373 0.61758 0.0
C1405 C 0.03656 0.18055 0.62349 0.0
C1406 C 0.06992 0.22674 0.59573 0.0
C1407 C 0.93858 0.24964 0.55774 0.0
C1408 C 0.02614 0.2548 0.5986 0.0
C1409 C 0.02106 0.39565 0.62694 0.0
C1410 C 0.0329 0.41028 0.6111 0.0
C1411 C 0.90645 0.16784 0.58583 0.0
C1412 C 0.76769 0.22295 0.57314 0.0
C1413 C 0.70533 0.2214 0.57487 0.0
C1414 C 0.72351 0.25964 0.56896 0.0
C1415 C 0.78527 0.26119 0.56733 0.0
C1416 C 0.72756 0.203 0.57691 0.0
C1417 C 0.76317 0.27934 0.56522 0.0
C1418 C 0.88556 0.2152 0.61482 0.0
C1419 C 0.79011 0.2027 0.57472 0.0
H1420 H 0.07831 0.16201 0.6204 0.0
H1421 H 0.99832 0.20378 0.62405 0.0
H1422 H 0.02411 0.16314 0.63433 0.0
H1423 H 0.08323 0.24498 0.58513 0.0
H1424 H 0.70687 0.27419 0.56715 0.0
H1425 H 0.81592 0.27681 0.56428 0.0
H1426 H 0.71369 0.1733 0.5813 0.0
H1427 H 0.77681 0.30877 0.5606 0.0
Tb1428 Tb 0.80654 0.72865 0.59625 0.0
C1429 C 0.93429 0.715 0.55865 0.0
N1430 N 0.89542 0.69542 0.55565 0.0
C1431 C 0.90733 0.70505 0.52688 0.0
C1432 C 0.96131 0.73088 0.5458 0.0
C1433 C 0.88159 0.68988 0.54002 0.0
C1434 C 0.94735 0.72574 0.52977 0.0
C1435 C 0.98697 0.74011 0.57834 0.0
C1436 C 0.94689 0.71982 0.57475 0.0
C1437 C 1.01405 0.75606 0.56557 0.0
C1438 C 1.00125 0.75149 0.54935 0.0
Tb1439 Tb 0.85664 0.67216 0.57807 0.0
N1440 N 0.9198 0.70503 0.58686 0.0
C1441 C 0.99865 0.74351 0.59464 0.0
C1442 C 0.93124 0.70555 0.60262 0.0
C1443 C 0.97065 0.72559 0.6068 0.0
H1444 H 0.8508 0.67292 0.53757 0.0
H1445 H 0.97942 0.7265 0.61938 0.0
H1446 H 0.81959 0.73555 0.63657 0.0
H1447 H 0.67773 0.67201 0.559 0.0
H1448 H 0.91063 0.68947 0.61202 0.0
H1449 H 0.02917 0.75891 0.59791 0.0
H1450 H 0.74788 0.71039 0.56453 0.0
H1451 H 0.89629 0.70055 0.51452 0.0
H1452 H 0.04497 0.7719 0.5681 0.0
H1453 H 0.0225 0.76397 0.53963 0.0
H1454 H 0.77894 0.7065 0.66096 0.0
H1455 H 0.96722 0.73748 0.51955 0.0
H1456 H 0.63184 0.63884 0.58176 0.0
N1457 N 0.77243 0.70738 0.61992 0.0
C1458 C 0.73322 0.68601 0.6181 0.0
C1459 C 0.76574 0.70012 0.64896 0.0
C1460 C 0.70868 0.66981 0.63169 0.0
C1461 C 0.78884 0.71583 0.63509 0.0
C1462 C 0.72549 0.67664 0.64725 0.0
N1463 N 0.74247 0.69566 0.58961 0.0
C1464 C 0.72857 0.6944 0.5743 0.0
C1465 C 0.67722 0.65895 0.60005 0.0
C1466 C 0.71767 0.68047 0.60247 0.0
C1467 C 0.66281 0.65508 0.58415 0.0
C1468 C 0.68861 0.67347 0.57125 0.0
H1469 H 0.70763 0.6646 0.65803 0.0
H1470 H 0.64889 0.63471 0.63962 0.0
H1471 H 0.62136 0.62536 0.61194 0.0
O1472 O 0.80806 0.77654 0.58446 0.0
O1473 O 0.77409 0.66348 0.59662 0.0
O1474 O 0.79466 0.64315 0.57442 0.0
O1475 O 0.80206 0.77017 0.61046 0.0
O1476 O 0.8207 0.73576 0.57031 0.0
O1477 O 0.81655 0.67917 0.56053 0.0
O1478 O 0.85638 0.62429 0.58961 0.0
O1479 O 0.88596 0.73531 0.57486 0.0
O1480 O 0.87019 0.75714 0.59783 0.0
O1481 O 0.86339 0.63191 0.56376 0.0
O1482 O 0.84357 0.66786 0.60519 0.0
O1483 O 0.8497 0.72697 0.61167 0.0
C1484 C 0.76886 0.6368 0.58568 0.0
C1485 C 0.84108 0.83307 0.60035 0.0
C1486 C 0.86941 0.90278 0.5968 0.0
C1487 C 0.90426 0.90852 0.60375 0.0
C1488 C 0.87595 0.83947 0.60755 0.0
C1489 C 0.90741 0.87698 0.60912 0.0
C1490 C 0.83772 0.86488 0.5951 0.0
C1491 C 0.81298 0.71063 0.55851 0.0
C1492 C 0.80859 0.79326 0.5982 0.0
C1493 C 0.66828 0.64759 0.62932 0.0
C1494 C 0.65259 0.64226 0.61355 0.0
C1495 C 0.89449 0.76189 0.586 0.0
C1496 C 0.84389 0.56879 0.57375 0.0
C1497 C 0.84652 0.50845 0.57492 0.0
C1498 C 0.80974 0.48882 0.56753 0.0
C1499 C 0.80737 0.54849 0.56625 0.0
C1500 C 0.86366 0.54866 0.57802 0.0
C1501 C 0.79037 0.50873 0.56322 0.0
C1502 C 0.84937 0.69518 0.61606 0.0
C1503 C 0.8629 0.61126 0.5761 0.0
H1504 H 0.92883 0.93755 0.60533 0.0
H1505 H 0.87884 0.81557 0.61216 0.0
H1506 H 0.93419 0.88164 0.61464 0.0
H1507 H 0.81082 0.8602 0.58964 0.0
H1508 H 0.79618 0.45802 0.56492 0.0
H1509 H 0.79239 0.56359 0.56249 0.0
H1510 H 0.89228 0.56421 0.58355 0.0
H1511 H 0.76221 0.49333 0.55736 0.0
H1512 H 0.54792 0.95865 0.08185 0.0
H1513 H 0.47456 0.91134 0.12415 0.0
H1514 H 0.56468 0.90726 0.08327 0.0
H1515 H 0.48937 0.85806 0.12507 0.0
H1516 H 0.49123 0.74974 0.09697 0.0
H1517 H 0.47697 0.80121 0.10421 0.0
H1518 H 0.59984 0.88478 0.10403 0.0
H1519 H 0.61389 0.83323 0.09698 0.0
C1520 C 0.53563 0.93724 0.09149 0.0
C1521 C 0.51059 0.93895 0.10303 0.0
C1522 C 0.54515 0.90793 0.09234 0.0
C1523 C 0.52868 0.87907 0.10444 0.0
C1524 C 0.50271 0.88023 0.11576 0.0
C1525 C 0.49419 0.91043 0.11521 0.0
C1526 C 0.51514 0.77869 0.09945 0.0
C1527 C 0.55366 0.78762 0.09672 0.0
C1528 C 0.50702 0.80817 0.10341 0.0
C1529 C 0.53734 0.84692 0.10446 0.0
C1530 C 0.576 0.85512 0.1032 0.0
C1531 C 0.58409 0.82563 0.09942 0.0
H1532 H 0.31642 0.77005 0.0855 0.0
H1533 H 0.23774 0.79921 0.10946 0.0
H1534 H 0.27392 0.7016 0.09247 0.0
H1535 H 0.19456 0.73098 0.11608 0.0
H1536 H 0.12624 0.6053 0.12889 0.0
H1537 H 0.18112 0.67123 0.12958 0.0
H1538 H 0.21115 0.65751 0.08026 0.0
H1539 H 0.156 0.59171 0.0795 0.0
C1540 C 0.2909 0.76186 0.09293 0.0
C1541 C 0.2802 0.7894 0.09715 0.0
C1542 C 0.26631 0.72279 0.09668 0.0
C1543 C 0.23069 0.71095 0.10457 0.0
C1544 C 0.22199 0.73923 0.11014 0.0
C1545 C 0.24668 0.77827 0.10644 0.0
C1546 C 0.14466 0.61631 0.11821 0.0
C1547 C 0.13641 0.59367 0.10401 0.0
C1548 C 0.17617 0.65399 0.11866 0.0
C1549 C 0.20045 0.66949 0.10501 0.0
C1550 C 0.19332 0.64613 0.09109 0.0
C1551 C 0.16158 0.60852 0.0906 0.0
H1552 H 0.25743 0.44892 0.09849 0.0
H1553 H 0.29286 0.57039 0.09463 0.0
H1554 H 0.32392 0.46619 0.10584 0.0
H1555 H 0.35943 0.58781 0.10232 0.0
H1556 H 0.4712 0.58818 0.1264 0.0
H1557 H 0.40276 0.57256 0.1267 0.0
H1558 H 0.38192 0.50632 0.08235 0.0
H1559 H 0.45042 0.52386 0.08156 0.0
C1560 C 0.27901 0.47927 0.10017 0.0
C1561 C 0.27021 0.50838 0.0963 0.0
C1562 C 0.31698 0.48911 0.10416 0.0
C1563 C 0.34643 0.52821 0.10453 0.0
C1564 C 0.33691 0.55748 0.10226 0.0
C1565 C 0.29892 0.54758 0.09804 0.0
C1566 C 0.45181 0.57059 0.11671 0.0
C1567 C 0.46556 0.55731 0.10391 0.0
C1568 C 0.41297 0.56161 0.11691 0.0
C1569 C 0.38738 0.538 0.10466 0.0
C1570 C 0.40122 0.52437 0.09198 0.0
C1571 C 0.44022 0.53452 0.09146 0.0
H1572 H 0.94957 0.52488 0.94168 0.0
H1573 H 0.92404 0.48916 0.89133 0.0
H1574 H 0.89923 0.5432 0.94158 0.0
H1575 H 0.8721 0.50589 0.89144 0.0
H1576 H 0.75034 0.48041 0.91859 0.0
H1577 H 0.80639 0.47372 0.91109 0.0
H1578 H 0.88355 0.59339 0.92441 0.0
H1579 H 0.82718 0.60026 0.93164 0.0
C1580 C 0.93289 0.52072 0.93064 0.0
C1581 C 0.93998 0.50512 0.91658 0.0
C1582 C 0.90455 0.53163 0.93052 0.0
C1583 C 0.88215 0.52609 0.91647 0.0
C1584 C 0.88933 0.51063 0.90236 0.0
C1585 C 0.91866 0.5009 0.90232 0.0
C1586 C 0.77924 0.50565 0.91924 0.0
C1587 C 0.78473 0.54083 0.92561 0.0
C1588 C 0.81119 0.50184 0.91498 0.0
C1589 C 0.84903 0.53303 0.91727 0.0
C1590 C 0.85448 0.56904 0.92257 0.0
C1591 C 0.82241 0.57303 0.92658 0.0
H1592 H 0.48975 0.2606 0.94306 0.0
H1593 H 0.58008 0.29486 0.90688 0.0
H1594 H 0.49307 0.32371 0.94014 0.0
H1595 H 0.58326 0.35756 0.90388 0.0
H1596 H 0.5575 0.45575 0.89479 0.0
H1597 H 0.54134 0.38777 0.8953 0.0
H1598 H 0.55084 0.39252 0.94785 0.0
H1599 H 0.56724 0.46055 0.94735 0.0
C1600 C 0.50951 0.28128 0.9342 0.0
C1601 C 0.53481 0.27328 0.92522 0.0
C1602 C 0.51162 0.3173 0.93263 0.0
C1603 C 0.53855 0.34532 0.92186 0.0
C1604 C 0.56208 0.33627 0.91217 0.0
C1605 C 0.56036 0.30059 0.91391 0.0
C1606 C 0.55604 0.44219 0.90644 0.0
C1607 C 0.5639 0.46334 0.92104 0.0
C1608 C 0.54673 0.40341 0.90672 0.0
C1609 C 0.54471 0.38508 0.92161 0.0
C1610 C 0.55179 0.40599 0.93623 0.0
C1611 C 0.56163 0.44494 0.93594 0.0
H1612 H 0.61017 0.11483 0.89254 0.0
H1613 H 0.59813 0.13636 0.94331 0.0
H1614 H 0.67914 0.16386 0.89368 0.0
H1615 H 0.66605 0.18724 0.94403 0.0
H1616 H 0.78414 0.29537 0.93647 0.0
H1617 H 0.71421 0.25341 0.9315 0.0
H1618 H 0.73638 0.16796 0.9091 0.0
H1619 H 0.80589 0.20981 0.91393 0.0
C1620 C 0.62203 0.13035 0.90386 0.0
C1621 C 0.5985 0.12189 0.91778 0.0
C1622 C 0.66141 0.15858 0.90447 0.0
C1623 C 0.67774 0.17967 0.91888 0.0
C1624 C 0.65402 0.17198 0.93266 0.0
C1625 C 0.61498 0.14299 0.93219 0.0
C1626 C 0.77403 0.26797 0.93019 0.0
C1627 C 0.80022 0.25548 0.92576 0.0
C1628 C 0.73412 0.24392 0.92745 0.0
C1629 C 0.72 0.20739 0.92002 0.0
C1630 C 0.7465 0.19606 0.91475 0.0
C1631 C 0.78619 0.21984 0.91762 0.0
H1632 H 0.16158 0.08339 0.4482 0.0
H1633 H 0.25034 0.14144 0.4116 0.0
H1634 H 0.15658 0.14178 0.45158 0.0
H1635 H 0.24535 0.20025 0.41494 0.0
H1636 H 0.17152 0.26275 0.40854 0.0
H1637 H 0.18845 0.21148 0.40768 0.0
H1638 H 0.19473 0.21277 0.46032 0.0
H1639 H 0.17768 0.26402 0.46115 0.0
C1640 C 0.18072 0.1091 0.4412 0.0
C1641 C 0.20631 0.10811 0.42966 0.0
C1642 C 0.1779 0.14247 0.44313 0.0
C1643 C 0.20038 0.17535 0.43344 0.0
C1644 C 0.22749 0.17509 0.42246 0.0
C1645 C 0.23065 0.14173 0.42068 0.0
C1646 C 0.17642 0.25198 0.4199 0.0
C1647 C 0.17304 0.26703 0.43491 0.0
C1648 C 0.18661 0.22306 0.41941 0.0
C1649 C 0.1931 0.20839 0.43394 0.0
C1650 C 0.18981 0.22357 0.44895 0.0
C1651 C 0.18007 0.2528 0.44942 0.0
H1652 H 0.97927 0.0977 0.4481 0.0
H1653 H 0.92397 0.12903 0.41044 0.0
H1654 H 0.91988 0.03505 0.45144 0.0
H1655 H 0.86421 0.0659 0.41371 0.0
H1656 H 0.80026 0.92874 0.40842 0.0
H1657 H 0.85206 0.99661 0.40726 0.0
H1658 H 0.84803 1.00439 0.45972 0.0
H1659 H 0.79598 0.9364 0.46084 0.0
C1660 C 0.95399 0.09139 0.44081 0.0
C1661 C 0.95603 0.11797 0.42902 0.0
C1662 C 0.92005 0.05566 0.44274 0.0
C1663 C 0.88761 0.04565 0.43278 0.0
C1664 C 0.88899 0.07294 0.42147 0.0
C1665 C 0.9229 0.10905 0.4197 0.0
C1666 C 0.81039 0.94499 0.41968 0.0
C1667 C 0.79432 0.92737 0.43471 0.0
C1668 C 0.83967 0.98391 0.419 0.0
C1669 C 0.85385 1.00573 0.4334 0.0
C1670 C 0.83759 0.98816 0.44845 0.0
C1671 C 0.80788 0.94937 0.44909 0.0
H1672 H 0.12564 0.87449 0.40856 0.0
H1673 H 0.14004 0.91883 0.45764 0.0
H1674 H 0.05854 0.86164 0.40825 0.0
H1675 H 0.07331 0.90743 0.4572 0.0
H1676 H 0.97627 0.93101 0.43589 0.0
H1677 H 0.03987 0.93687 0.43989 0.0
H1678 H 0.99373 0.81815 0.42408 0.0
H1679 H 0.92994 0.81236 0.4198 0.0
C1680 C 0.11442 0.88191 0.41916 0.0
C1681 C 0.1376 0.89805 0.43304 0.0
C1682 C 0.07609 0.87415 0.41909 0.0
C1683 C 0.06096 0.88345 0.43274 0.0
C1684 C 0.08445 0.89998 0.44657 0.0
C1685 C 0.1224 0.90665 0.4468 0.0
C1686 C 0.97963 0.90605 0.43344 0.0
C1687 C 0.94847 0.87145 0.42731 0.0
C1688 C 0.01585 0.90931 0.43584 0.0
C1689 C 0.02152 0.87805 0.43214 0.0
C1690 C 0.98995 0.84274 0.42683 0.0
C1691 C 0.95353 0.83936 0.42452 0.0
H1692 H 0.41862 0.80833 0.24996 0.0
H1693 H 0.4892 0.92561 0.26772 0.0
H1694 H 0.47728 0.80548 0.24359 0.0
H1695 H 0.5482 0.92258 0.26152 0.0
H1696 H 0.61978 0.85896 0.27629 0.0
H1697 H 0.56735 0.87437 0.2766 0.0
H1698 H 0.54283 0.84069 0.22596 0.0
H1699 H 0.59654 0.82667 0.22551 0.0
C1700 C 0.4468 0.8338 0.25209 0.0
C1701 C 0.44964 0.86704 0.25941 0.0
C1702 C 0.48025 0.83223 0.24841 0.0
C1703 C 0.51701 0.86374 0.25218 0.0
C1704 C 0.52 0.89793 0.25858 0.0
C1705 C 0.48644 0.89973 0.26203 0.0
C1706 C 0.60322 0.85502 0.26524 0.0
C1707 C 0.61148 0.84115 0.25094 0.0
C1708 C 0.57368 0.86428 0.26535 0.0
C1709 C 0.55138 0.85885 0.25127 0.0
C1710 C 0.55989 0.84527 0.23691 0.0
C1711 C 0.59027 0.83711 0.23668 0.0
H1712 H 0.21806 0.78821 0.2262 0.0
H1713 H 0.23466 0.79564 0.27844 0.0
H1714 H 0.19987 0.71962 0.22699 0.0
H1715 H 0.21623 0.72708 0.27924 0.0
H1716 H 0.15325 0.59539 0.27654 0.0
H1717 H 0.15724 0.65876 0.27332 0.0
H1718 H 0.23983 0.687 0.23413 0.0
H1719 H 0.23595 0.62407 0.23744 0.0
C1720 C 0.21761 0.77511 0.23785 0.0
C1721 C 0.22801 0.79724 0.25225 0.0
C1722 C 0.20717 0.73594 0.23829 0.0
C1723 C 0.20645 0.7181 0.25318 0.0
C1724 C 0.21607 0.74003 0.26763 0.0
C1725 C 0.22707 0.77934 0.26715 0.0
C1726 C 0.17126 0.61478 0.26693 0.0
C1727 C 0.1943 0.60513 0.25721 0.0
C1728 C 0.17385 0.65104 0.2652 0.0
C1729 C 0.19903 0.67774 0.25355 0.0
C1730 C 0.21997 0.66685 0.24311 0.0
C1731 C 0.21779 0.63094 0.24499 0.0
H1732 H 0.47626 0.56681 0.25046 0.0
H1733 H 0.44328 0.64244 0.27458 0.0
H1734 H 0.40823 0.52243 0.24325 0.0
H1735 H 0.37514 0.59841 0.26726 0.0
H1736 H 0.26712 0.47707 0.27873 0.0
H1737 H 0.33323 0.53157 0.27927 0.0
H1738 H 0.34758 0.51187 0.22855 0.0
H1739 H 0.28024 0.45877 0.22768 0.0
C1740 C 0.45449 0.57454 0.25361 0.0
C1741 C 0.46448 0.60763 0.26304 0.0
C1742 C 0.41568 0.54928 0.24952 0.0
C1743 C 0.38653 0.55684 0.25492 0.0
C1744 C 0.39713 0.59177 0.26316 0.0
C1745 C 0.43594 0.61704 0.26721 0.0
C1746 C 0.28379 0.48517 0.26753 0.0
C1747 C 0.2682 0.46408 0.25309 0.0
C1748 C 0.32176 0.51626 0.26786 0.0
C1749 C 0.34526 0.52624 0.25387 0.0
C1750 C 0.32991 0.50494 0.23946 0.0
C1751 C 0.29152 0.47443 0.23901 0.0
H1752 H 0.84096 0.5965 0.79517 0.0
H1753 H 0.84679 0.60221 0.74253 0.0
H1754 H 0.85583 0.54358 0.79466 0.0
H1755 H 0.86226 0.54996 0.74205 0.0
H1756 H 0.92066 0.47722 0.74867 0.0
H1757 H 0.91759 0.53681 0.75279 0.0
H1758 H 0.81463 0.47294 0.78233 0.0
H1759 H 0.81756 0.41355 0.77815 0.0
C1760 C 0.84554 0.58645 0.78354 0.0
C1761 C 0.84212 0.60275 0.76888 0.0
C1762 C 0.85415 0.55646 0.78326 0.0
C1763 C 0.86027 0.54305 0.76833 0.0
C1764 C 0.85798 0.56016 0.75371 0.0
C1765 C 0.84863 0.58959 0.75397 0.0
C1766 C 0.898 0.47629 0.75635 0.0
C1767 C 0.86913 0.44101 0.76301 0.0
C1768 C 0.89612 0.51014 0.75861 0.0
C1769 C 0.8658 0.50913 0.76781 0.0
C1770 C 0.83842 0.47437 0.7753 0.0
C1771 C 0.83997 0.44049 0.77285 0.0
H1772 H 0.58536 0.47711 0.77565 0.0
H1773 H 0.64169 0.42821 0.7472 0.0
H1774 H 0.53678 0.41205 0.78474 0.0
H1775 H 0.59254 0.36329 0.75535 0.0
H1776 H 0.50001 0.24666 0.77152 0.0
H1777 H 0.5576 0.3114 0.77251 0.0
H1778 H 0.48325 0.3622 0.77179 0.0
H1779 H 0.42698 0.29794 0.77145 0.0
C1780 C 0.58814 0.45246 0.7719 0.0
C1781 C 0.61714 0.45741 0.76082 0.0
C1782 C 0.5599 0.41508 0.77678 0.0
C1783 C 0.55997 0.38207 0.77048 0.0
C1784 C 0.59138 0.38766 0.76062 0.0
C1785 C 0.61974 0.42496 0.75592 0.0
C1786 C 0.49628 0.27187 0.7719 0.0
C1787 C 0.45892 0.26737 0.77179 0.0
C1788 C 0.52921 0.309 0.77238 0.0
C1789 C 0.52541 0.34243 0.77235 0.0
C1790 C 0.48775 0.33751 0.77241 0.0
C1791 C 0.45508 0.30046 0.77222 0.0
H1792 H 0.62228 0.22202 0.75079 0.0
H1793 H 0.60157 0.12487 0.78126 0.0
H1794 H 0.69283 0.25009 0.75456 0.0
H1795 H 0.67141 0.15276 0.78507 0.0
H1796 H 0.77986 0.17113 0.75679 0.0
H1797 H 0.71304 0.15679 0.75881 0.0
H1798 H 0.75292 0.2724 0.77741 0.0
H1799 H 0.82058 0.28518 0.77667 0.0
C1800 C 0.63285 0.20747 0.75872 0.0
C1801 C 0.607 0.17097 0.76549 0.0
C1802 C 0.67297 0.22352 0.7609 0.0
C1803 C 0.68712 0.20314 0.76991 0.0
C1804 C 0.66096 0.16869 0.77796 0.0
C1805 C 0.6212 0.15272 0.77574 0.0
C1806 C 0.77422 0.19266 0.76196 0.0
C1807 C 0.80467 0.22808 0.76744 0.0
C1808 C 0.73618 0.18492 0.76283 0.0
C1809 C 0.72802 0.21324 0.76867 0.0
C1810 C 0.75871 0.24998 0.77315 0.0
C1811 C 0.79707 0.25726 0.77268 0.0
H1812 H 0.15938 0.2609 0.59911 0.0
H1813 H 0.08197 0.14033 0.58738 0.0
H1814 H 0.21553 0.2529 0.5928 0.0
H1815 H 0.13772 0.13236 0.58092 0.0
H1816 H 0.25191 0.14256 0.56116 0.0
H1817 H 0.19877 0.15745 0.56176 0.0
H1818 H 0.23669 0.20942 0.60939 0.0
H1819 H 0.2884 0.19292 0.60902 0.0
C1820 C 0.15445 0.23314 0.59463 0.0
C1821 C 0.11659 0.20119 0.59369 0.0
C1822 C 0.18642 0.22847 0.59118 0.0
C1823 C 0.1808 0.19194 0.58651 0.0
C1824 C 0.14281 0.16085 0.58438 0.0
C1825 C 0.11098 0.16539 0.58805 0.0
C1826 C 0.24859 0.15704 0.57172 0.0
C1827 C 0.27363 0.16627 0.58512 0.0
C1828 C 0.21849 0.16569 0.57205 0.0
C1829 C 0.214 0.18494 0.58554 0.0
C1830 C 0.2398 0.19497 0.59877 0.0
C1831 C 0.26902 0.18518 0.59865 0.0
H1832 H 0.8154 0.92213 0.60632 0.0
H1833 H 0.91809 0.96075 0.57665 0.0
H1834 H 0.81926 0.98532 0.60242 0.0
H1835 H 0.92174 0.0234 0.57267 0.0
H1836 H 0.89685 0.12138 0.55998 0.0
H1837 H 0.88024 0.05318 0.56054 0.0
H1838 H 0.87684 0.05437 0.6132 0.0
H1839 H 0.89438 0.12287 0.61264 0.0
C1840 C 0.83808 0.94375 0.59862 0.0
C1841 C 0.86665 0.93697 0.59185 0.0
C1842 C 0.84043 0.97979 0.5965 0.0
C1843 C 0.87092 1.009 0.58734 0.0
C1844 C 0.89785 1.00117 0.57969 0.0
C1845 C 0.89585 0.9655 0.582 0.0
C1846 C 0.89273 0.10702 0.57165 0.0
C1847 C 0.89761 0.12732 0.58629 0.0
C1848 C 0.883 0.06812 0.57196 0.0
C1849 C 0.87716 0.04876 0.5869 0.0
C1850 C 0.88092 0.06874 0.60153 0.0
C1851 C 0.8915 0.10793 0.60123 0.0
H1852 H 0.1374 0.92166 0.60997 0.0
H1853 H 0.10455 0.97927 0.57395 0.0
H1854 H 0.07403 0.86224 0.60662 0.0
H1855 H 0.04165 0.92032 0.5706 0.0
H1856 H 0.94302 0.79715 0.56046 0.0
H1857 H 1.01097 0.84914 0.5615 0.0
H1858 H 1.00492 0.8505 0.6141 0.0
H1859 H 0.93692 0.79876 0.61304 0.0
C1860 C 0.117 0.92122 0.60107 0.0
C1861 C 0.12549 0.95489 0.59228 0.0
C1862 C 0.08079 0.88751 0.59926 0.0
C1863 C 0.05304 0.88699 0.58845 0.0
C1864 C 0.06264 0.91993 0.57894 0.0
C1865 C 0.09849 0.95362 0.58088 0.0
C1866 C 0.95625 0.80871 0.57223 0.0
C1867 C 0.93474 0.79437 0.58667 0.0
C1868 C 0.99504 0.83823 0.57281 0.0
C1869 C 1.01309 0.85354 0.58787 0.0
C1870 C 0.99174 0.8388 0.60234 0.0
C1871 C 0.95276 0.80965 0.60173 0.0
H1872 H 0.50399 0.9678 0.0519 0.0
H1873 H 0.54813 0.09121 0.04944 0.0
H1874 H 0.50634 0.96461 0.02233 0.0
H1875 H 0.54924 0.08821 0.01967 0.0
H1876 H 0.56816 0.07908 0.96626 0.0
H1877 H 0.57512 0.08069 0.99574 0.0
H1878 H 0.47508 0.96502 0.99863 0.0
H1879 H 0.46939 0.96328 0.96884 0.0
C1880 C 0.51494 0.99449 0.04499 0.0
C1881 C 0.52626 0.02986 0.05306 0.0
C1882 C 0.51565 0.99258 0.02793 0.0
C1883 C 0.52752 0.02597 0.01829 0.0
C1884 C 0.54041 0.06176 0.02648 0.0
C1885 C 0.54002 0.06369 0.04363 0.0
C1886 C 0.5483 0.05354 0.97319 0.0
C1887 C 0.51848 0.02083 0.96517 0.0
C1888 C 0.55185 0.0547 0.99021 0.0
C1889 C 0.52545 0.02327 0.99989 0.0
C1890 C 0.49648 0.98977 0.99176 0.0
C1891 C 0.4932 0.9885 0.97461 0.0
H1892 H 0.09827 0.5333 0.97046 0.0
H1893 H 0.9837 0.51943 0.96677 0.0
H1894 H 0.09457 0.53603 1.00039 0.0
H1895 H 0.97958 0.52132 0.99635 0.0
H1896 H 0.9686 0.47394 0.04988 0.0
H1897 H 0.97256 0.47952 0.01993 0.0
H1898 H 0.09101 0.57371 0.02368 0.0
H1899 H 0.08672 0.56857 0.05332 0.0
C1900 C 0.07287 0.53203 0.97597 0.0
C1901 C 0.04148 0.5264 0.96614 0.0
C1902 C 0.07043 0.53314 0.99316 0.0
C1903 C 0.03642 0.52832 1.00092 0.0
C1904 C 1.00591 0.52447 0.99096 0.0
C1905 C 1.00859 0.52396 0.97391 0.0
C1906 C 0.99486 0.49675 0.04431 0.0
C1907 C 0.02712 0.52095 0.05407 0.0
C1908 C 0.99744 0.49973 0.02711 0.0
C1909 C 0.03242 0.52679 0.01926 0.0
C1910 C 0.06388 0.55212 0.02914 0.0
C1911 C 0.06113 0.54952 0.04621 0.0
H1912 H 0.52711 0.58713 0.97193 0.0
H1913 H 0.54878 0.49148 0.96784 0.0
H1914 H 0.52392 0.5797 1.00183 0.0
H1915 H 0.54631 0.48441 0.99737 0.0
H1916 H 0.49197 0.53623 0.05449 0.0
H1917 H 0.48701 0.53581 0.02485 0.0
H1918 H 0.58723 0.52098 0.021 0.0
H1919 H 0.59266 0.5223 0.05094 0.0
C1920 C 0.52983 0.56373 0.97733 0.0
C1921 C 0.53776 0.53967 0.96743 0.0
C1922 C 0.52852 0.55968 0.9945 0.0
C1923 C 0.5354 0.53169 1.00212 0.0
C1924 C 0.54153 0.50665 0.99207 0.0
C1925 C 0.54236 0.51039 0.97506 0.0
C1926 C 0.51238 0.53177 0.04735 0.0
C1927 C 0.54259 0.52895 0.05516 0.0
C1928 C 0.50986 0.5322 0.0303 0.0
C1929 C 0.53692 0.52889 0.02041 0.0
C1930 C 0.5657 0.52345 0.0282 0.0
C1931 C 0.5686 0.52364 0.04539 0.0
H1932 H 0.17856 0.30698 0.38671 0.0
H1933 H 0.21023 0.42762 0.38446 0.0
H1934 H 0.18197 0.3045 0.35722 0.0
H1935 H 0.21318 0.42529 0.35457 0.0
H1936 H 0.23905 0.41765 0.30132 0.0
H1937 H 0.2442 0.41997 0.33093 0.0
H1938 H 0.14765 0.30234 0.33348 0.0
H1939 H 0.14317 0.30014 0.3036 0.0
C1940 C 0.18713 0.33337 0.37989 0.0
C1941 C 0.19448 0.36765 0.38804 0.0
C1942 C 0.18845 0.33175 0.36285 0.0
C1943 C 0.19733 0.36444 0.35325 0.0
C1944 C 0.20656 0.39944 0.36144 0.0
C1945 C 0.20521 0.40103 0.37864 0.0
C1946 C 0.2196 0.39184 0.3082 0.0
C1947 C 0.19099 0.35847 0.30006 0.0
C1948 C 0.22211 0.39343 0.32527 0.0
C1949 C 0.19613 0.36162 0.33486 0.0
C1950 C 0.1686 0.32743 0.32664 0.0
C1951 C 0.16612 0.32586 0.30945 0.0
H1952 H 0.76565 0.88919 0.38615 0.0
H1953 H 0.64123 0.8162 0.38272 0.0
H1954 H 0.77022 0.89813 0.35685 0.0
H1955 H 0.64562 0.82386 0.35296 0.0
H1956 H 0.66028 0.86088 0.3002 0.0
H1957 H 0.65737 0.86252 0.3298 0.0
H1958 H 0.7681 0.86662 0.33267 0.0
H1959 H 0.77108 0.86591 0.30284 0.0
C1960 C 0.73903 0.87555 0.37912 0.0
C1961 C 0.70301 0.85219 0.38687 0.0
C1962 C 0.74175 0.88014 0.36216 0.0
C1963 C 0.7085 0.86139 0.35224 0.0
C1964 C 0.67204 0.83923 0.36007 0.0
C1965 C 0.66933 0.83485 0.37719 0.0
C1966 C 0.68468 0.86348 0.30716 0.0
C1967 C 0.71633 0.864 0.29912 0.0
C1968 C 0.68263 0.86363 0.32422 0.0
C1969 C 0.71219 0.86425 0.3339 0.0
C1970 C 0.74487 0.86669 0.32579 0.0
C1971 C 0.74695 0.86669 0.30862 0.0
H1972 H 0.21932 0.82867 0.29964 0.0
H1973 H 0.19892 0.92526 0.30285 0.0
H1974 H 0.21537 0.82172 0.32914 0.0
H1975 H 0.19573 0.9191 0.33267 0.0
H1976 H 0.16907 0.88659 0.38561 0.0
H1977 H 0.16303 0.88399 0.35613 0.0
H1978 H 0.25146 0.85115 0.35293 0.0
H1979 H 0.25678 0.85313 0.3828 0.0
C1980 C 0.21308 0.84796 0.30669 0.0
C1981 C 0.20901 0.87729 0.29884 0.0
C1982 C 0.21147 0.84438 0.32371 0.0
C1983 C 0.20577 0.87007 0.33354 0.0
C1984 C 0.19977 0.89835 0.32562 0.0
C1985 C 0.20125 0.90183 0.30847 0.0
C1986 C 0.18647 0.87765 0.37866 0.0
C1987 C 0.21313 0.86958 0.38664 0.0
C1988 C 0.18348 0.87687 0.36164 0.0
C1989 C 0.20704 0.86791 0.35189 0.0
C1990 C 0.23243 0.85786 0.35991 0.0
C1991 C 0.23538 0.85863 0.37709 0.0
H1992 H 0.86301 0.65171 0.72084 0.0
H1993 H 0.87444 0.76516 0.71742 0.0
H1994 H 0.86431 0.64763 0.69126 0.0
H1995 H 0.87581 0.76134 0.68754 0.0
H1996 H 0.90201 0.75528 0.63426 0.0
H1997 H 0.9093 0.75999 0.66368 0.0
H1998 H 0.82424 0.63804 0.66787 0.0
H1999 H 0.81723 0.63349 0.63799 0.0
C2000 C 0.86701 0.67642 0.71373 0.0
C2001 C 0.86916 0.70906 0.72159 0.0
C2002 C 0.86703 0.67374 0.69667 0.0
C2003 C 0.86964 0.70382 0.68677 0.0
C2004 C 0.87408 0.73757 0.69465 0.0
C2005 C 0.8738 0.74014 0.71184 0.0
C2006 C 0.88547 0.72912 0.64137 0.0
C2007 C 0.85923 0.69386 0.63362 0.0
C2008 C 0.88924 0.73203 0.65838 0.0
C2009 C 0.86709 0.69967 0.6684 0.0
C2010 C 0.84213 0.66372 0.66065 0.0
C2011 C 0.83825 0.66086 0.64346 0.0
H2012 H 0.31948 0.18543 0.63339 0.0
H2013 H 0.43458 0.20053 0.63647 0.0
H2014 H 0.31696 0.18969 0.66289 0.0
H2015 H 0.43207 0.20408 0.6663 0.0
H2016 H 0.42738 0.23246 0.71943 0.0
H2017 H 0.43129 0.23798 0.68984 0.0
H2018 H 0.30902 0.15268 0.68649 0.0
H2019 H 0.30527 0.14781 0.71632 0.0
C2020 C 0.3448 0.19076 0.6404 0.0
C2021 C 0.37752 0.19325 0.63252 0.0
C2022 C 0.34305 0.19246 0.65742 0.0
C2023 C 0.37402 0.19676 0.66721 0.0
C2024 C 0.40768 0.20119 0.65927 0.0
C2025 C 0.40943 0.19954 0.64211 0.0
C2026 C 0.40107 0.21556 0.71238 0.0
C2027 C 0.36591 0.18986 0.72026 0.0
C2028 C 0.40346 0.21828 0.69533 0.0
C2029 C 0.37069 0.19553 0.68555 0.0
C2030 C 0.33495 0.17108 0.6935 0.0
C2031 C 0.33258 0.16837 0.71065 0.0
H2032 H 0.86475 0.25665 0.63535 0.0
H2033 H 0.88249 0.15827 0.63384 0.0
H2034 H 0.86166 0.25277 0.66517 0.0
H2035 H 0.87761 0.1528 0.66335 0.0
H2036 H 0.91716 0.18324 0.71663 0.0
H2037 H 0.91172 0.18001 0.6869 0.0
H2038 H 0.8313 0.22346 0.68923 0.0
H2039 H 0.83824 0.22795 0.71875 0.0
C2040 C 0.86639 0.23323 0.64137 0.0
C2041 C 0.87345 0.20756 0.63223 0.0
C2042 C 0.86487 0.23099 0.65854 0.0
C2043 C 0.8698 0.20261 0.66697 0.0
C2044 C 0.87467 0.1757 0.65758 0.0
C2045 C 0.87675 0.17835 0.64054 0.0
C2046 C 0.89759 0.19108 0.71076 0.0
C2047 C 0.87803 0.20565 0.72005 0.0
C2048 C 0.89446 0.18943 0.69363 0.0
C2049 C 0.87122 0.20182 0.68536 0.0
C2050 C 0.85019 0.21449 0.69489 0.0
C2051 C 0.85363 0.21645 0.71192 0.0
H2052 H 0.32246 0.89484 0.21288 0.0
H2053 H 0.28574 0.97757 0.20161 0.0
H2054 H 0.37086 0.92145 0.1917 0.0
H2055 H 0.33386 1.0037 0.17928 0.0
H2056 H 0.44911 0.06339 0.14839 0.0
H2057 H 0.40109 0.04073 0.1708 0.0
H2058 H 0.38264 0.92469 0.16471 0.0
H2059 H 0.43113 0.94757 0.14356 0.0
C2060 C 0.32392 0.91818 0.20551 0.0
C2061 C 0.29939 0.93343 0.20894 0.0
C2062 C 0.352 0.93363 0.19315 0.0
C2063 C 0.35679 0.9649 0.18334 0.0
C2064 C 0.33163 0.97986 0.1865 0.0
C2065 C 0.3033 0.96431 0.1991 0.0
C2066 C 0.43585 0.03346 0.15238 0.0
C2067 C 0.44501 1.00768 0.14434 0.0
C2068 C 0.40749 0.0201 0.165 0.0
C2069 C 0.3875 0.98058 0.16993 0.0
C2070 C 0.39751 0.95541 0.16191 0.0
C2071 C 0.42568 0.96868 0.14958 0.0
H2072 H 0.02629 0.46691 0.1605 0.0
H2073 H 0.10692 0.45195 0.13013 0.0
H2074 H 0.04716 0.44291 0.18398 0.0
H2075 H 0.12536 0.42662 0.15289 0.0
H2076 H 0.12416 0.34824 0.19566 0.0
H2077 H 0.09866 0.36825 0.1724 0.0
H2078 H 0.11092 0.4659 0.20013 0.0
H2079 H 0.13792 0.44796 0.22251 0.0
C2080 C 0.048 0.45845 0.15865 0.0
C2081 C 0.06447 0.46172 0.1431 0.0
C2082 C 0.05991 0.44444 0.17213 0.0
C2083 C 0.08755 0.43202 0.1703 0.0
C2084 C 0.10357 0.43504 0.15481 0.0
C2085 C 0.09291 0.45017 0.14166 0.0
C2086 C 0.12174 0.3741 0.19675 0.0
C2087 C 0.13318 0.396 0.21127 0.0
C2088 C 0.10682 0.38549 0.18345 0.0
C2089 C 0.10186 0.41837 0.18448 0.0
C2090 C 0.11328 0.44 0.19894 0.0
C2091 C 0.12913 0.42946 0.21188 0.0
H2092 H 0.71876 0.802 0.19528 0.0
H2093 H 0.61731 0.71903 0.2222 0.0
H2094 H 0.69749 0.75617 0.17217 0.0
H2095 H 0.59798 0.67358 0.19984 0.0
H2096 H 0.59729 0.58644 0.1607 0.0
H2097 H 0.62142 0.63159 0.18406 0.0
H2098 H 0.63793 0.7256 0.15265 0.0
H2099 H 0.61226 0.68141 0.12996 0.0
C2100 C 0.69216 0.77435 0.19638 0.0
C2101 C 0.67013 0.76482 0.21083 0.0
C2102 C 0.68007 0.74784 0.18317 0.0
C2103 C 0.64632 0.71069 0.18426 0.0
C2104 C 0.62445 0.70138 0.19863 0.0
C2105 C 0.63568 0.72804 0.21149 0.0
C2106 C 0.6057 0.61655 0.15877 0.0
C2107 C 0.60232 0.62952 0.14319 0.0
C2108 C 0.61982 0.6426 0.17216 0.0
C2109 C 0.6323 0.68256 0.17018 0.0
C2110 C 0.62931 0.6954 0.15465 0.0
C2111 C 0.61404 0.66944 0.14157 0.0
H2112 H 0.04142 0.4725 0.85969 0.0
H2113 H 0.96819 0.37553 0.89097 0.0
H2114 H 0.02135 0.42729 0.83633 0.0
H2115 H 0.95083 0.33141 0.86824 0.0
H2116 H 0.95965 0.26032 0.823 0.0
H2117 H 0.98563 0.30615 0.84625 0.0
H2118 H 0.94893 0.37979 0.82312 0.0
H2119 H 0.92067 0.33387 0.8011 0.0
C2120 C 0.0217 0.44192 0.86177 0.0
C2121 C 1.00679 0.42841 0.87751 0.0
C2122 C 1.01029 0.41585 0.84836 0.0
C2123 C 0.985 0.37541 0.85046 0.0
C2124 C 0.97085 0.36203 0.86616 0.0
C2125 C 0.98085 0.38792 0.87926 0.0
C2126 C 0.95688 0.28608 0.82293 0.0
C2127 C 0.93849 0.29315 0.80975 0.0
C2128 C 0.97209 0.31259 0.83619 0.0
C2129 C 0.97046 0.34742 0.83632 0.0
C2130 C 0.95182 0.35408 0.82328 0.0
C2131 C 0.93546 0.32722 0.81053 0.0
H2132 H 0.68635 0.60915 0.89118 0.0
H2133 H 0.59202 0.59844 0.8611 0.0
H2134 H 0.72998 0.63314 0.86838 0.0
H2135 H 0.63685 0.62186 0.83761 0.0
H2136 H 0.7197 0.61753 0.79783 0.0
H2137 H 0.67515 0.59924 0.82043 0.0
H2138 H 0.76432 0.69064 0.84958 0.0
H2139 H 0.80956 0.71084 0.82628 0.0
C2140 C 0.67435 0.61156 0.87971 0.0
C2141 C 0.63469 0.60127 0.87834 0.0
C2142 C 0.70011 0.62598 0.86652 0.0
C2143 C 0.6875 0.63005 0.85108 0.0
C2144 C 0.6478 0.61929 0.84937 0.0
C2145 C 0.62188 0.60564 0.86286 0.0
C2146 C 0.73045 0.63434 0.80893 0.0
C2147 C 0.769 0.66621 0.8099 0.0
C2148 C 0.70424 0.62375 0.82196 0.0
C2149 C 0.71553 0.64357 0.83687 0.0
C2150 C 0.75433 0.67474 0.83822 0.0
C2151 C 0.78052 0.68627 0.82486 0.0
H2152 H 0.44928 0.17583 0.81052 0.0
H2153 H 0.33331 0.07762 0.81452 0.0
H2154 H 0.47167 0.1495 0.83159 0.0
H2155 H 0.35562 0.0514 0.83675 0.0
H2156 H 0.41924 0.99908 0.8676 0.0
H2157 H 0.39349 0.02134 0.84519 0.0
H2158 H 0.47315 0.14032 0.85883 0.0
H2159 H 0.49929 0.11839 0.88018 0.0
C2160 C 0.42806 0.14888 0.81624 0.0
C2161 C 0.38913 0.12939 0.81081 0.0
C2162 C 0.44106 0.13361 0.82855 0.0
C2163 C 0.41573 0.09815 0.83633 0.0
C2164 C 0.37636 0.07865 0.83114 0.0
C2165 C 0.36323 0.09407 0.81858 0.0
C2166 C 0.43197 0.02995 0.8654 0.0
C2167 C 0.46199 0.05678 0.87565 0.0
C2168 C 0.41666 0.04285 0.85272 0.0
C2169 C 0.43105 0.08296 0.84986 0.0
C2170 C 0.46143 0.10933 0.86007 0.0
C2171 C 0.47657 0.09659 0.87254 0.0
H2172 H 0.95087 0.30852 0.53593 0.0
H2173 H 0.97947 0.21881 0.5448 0.0
H2174 H 0.99946 0.33441 0.51377 0.0
H2175 H 0.02814 0.24481 0.52358 0.0
H2176 H 0.08646 0.27318 0.4747 0.0
H2177 H 0.0378 0.25034 0.49589 0.0
H2178 H 0.069 0.36869 0.50707 0.0
H2179 H 0.11759 0.39168 0.4849 0.0
C2180 C 0.96658 0.29363 0.53283 0.0
C2181 C 0.96045 0.26094 0.54192 0.0
C2182 C 0.99518 0.30899 0.52039 0.0
C2183 C 0.01814 0.29187 0.51666 0.0
C2184 C 1.01096 0.25867 0.52562 0.0
C2185 C 0.98273 0.24354 0.53789 0.0
C2186 C 0.08372 0.29463 0.48186 0.0
C2187 C 0.10668 0.33443 0.47819 0.0
C2188 C 0.05551 0.28141 0.49414 0.0
C2189 C 0.04905 0.30741 0.50349 0.0
C2190 C 0.0727 0.34757 0.50014 0.0
C2191 C 0.10127 0.36093 0.48768 0.0
H2192 H 0.66941 0.74184 0.48295 0.0
H2193 H 0.78539 0.83914 0.47766 0.0
H2194 H 0.6925 0.71629 0.50515 0.0
H2195 H 0.80869 0.81337 0.49857 0.0
H2196 H 0.84043 0.78268 0.54627 0.0
H2197 H 0.81343 0.80464 0.52533 0.0
H2198 H 0.7291 0.68564 0.5136 0.0
H2199 H 0.75571 0.66352 0.53574 0.0
C2200 C 0.69946 0.75843 0.48683 0.0
C2201 C 0.72514 0.79331 0.47872 0.0
C2202 C 0.71309 0.74328 0.49932 0.0
C2203 C 0.75281 0.76254 0.50405 0.0
C2204 C 0.77785 0.79768 0.49597 0.0
C2205 C 0.76433 0.81272 0.48377 0.0
C2206 C 0.81662 0.76085 0.53906 0.0
C2207 C 0.80101 0.72111 0.54265 0.0
C2208 C 0.80089 0.77361 0.52683 0.0
C2209 C 0.76887 0.74729 0.5173 0.0
C2210 C 0.75355 0.70717 0.52058 0.0
C2211 C 0.76941 0.69427 0.53306 0.0
H2212 H 0.28424 0.92283 0.49072 0.0
H2213 H 0.25548 1.00207 0.46667 0.0
H2214 H 0.30981 0.96821 0.51404 0.0
H2215 H 0.28257 0.0471 0.48905 0.0
H2216 H 0.37005 0.13726 0.52622 0.0
H2217 H 0.3486 0.09206 0.50293 0.0
H2218 H 0.28269 0.9959 0.53546 0.0
H2219 H 0.30221 0.03999 0.55821 0.0
C2220 C 0.28323 0.94954 0.49031 0.0
C2221 C 0.26789 0.95837 0.47654 0.0
C2222 C 0.29823 0.97581 0.5036 0.0
C2223 C 0.29919 0.01194 0.50325 0.0
C2224 C 0.28337 0.02027 0.48964 0.0
C2225 C 0.26751 0.99386 0.47673 0.0
C2226 C 0.35112 0.10661 0.52844 0.0
C2227 C 0.33819 0.09298 0.54437 0.0
C2228 C 0.33878 0.08054 0.51507 0.0
C2229 C 0.31425 0.04004 0.51733 0.0
C2230 C 0.302 0.02657 0.5332 0.0
C2231 C 0.31317 0.05244 0.54634 0.0
H2232 H 0.59532 0.33325 0.11018 0.0
H2233 H 0.47371 0.29746 0.11329 0.0
H2234 H 0.5792 0.26729 0.10412 0.0
H2235 H 0.45674 0.23071 0.1062 0.0
H2236 H 0.44212 0.10767 0.113 0.0
H2237 H 0.45399 0.17406 0.11632 0.0
H2238 H 0.55751 0.21681 0.08666 0.0
H2239 H 0.54671 0.15164 0.08419 0.0
C2240 C 0.56495 0.31137 0.10879 0.0
C2241 C 0.53588 0.32084 0.11187 0.0
C2242 C 0.55549 0.27317 0.10534 0.0
C2243 C 0.51643 0.24291 0.10456 0.0
C2244 C 0.48714 0.2528 0.10686 0.0
C2245 C 0.49677 0.29128 0.11055 0.0
C2246 C 0.46735 0.1314 0.10721 0.0
C2247 C 0.49357 0.12424 0.09844 0.0
C2248 C 0.4741 0.16959 0.109 0.0
C2249 C 0.50708 0.20152 0.10191 0.0
C2250 C 0.53241 0.1937 0.09275 0.0
C2251 C 0.52599 0.15592 0.09118 0.0
H2252 H 0.77101 0.19883 0.10403 0.0
H2253 H 0.73247 0.27609 0.12168 0.0
H2254 H 0.83478 0.25468 0.09737 0.0
H2255 H 0.79579 0.33207 0.11491 0.0
H2256 H 0.92413 0.41177 0.12555 0.0
H2257 H 0.8589 0.35749 0.12714 0.0
H2258 H 0.87489 0.31419 0.08115 0.0
H2259 H 0.94109 0.37041 0.07923 0.0
C2260 C 0.77591 0.22791 0.10598 0.0
C2261 C 0.74682 0.2333 0.11317 0.0
C2262 C 0.81239 0.2599 0.10219 0.0
C2263 C 0.82067 0.29794 0.10572 0.0
C2264 C 0.79069 0.3032 0.1122 0.0
C2265 C 0.75422 0.27124 0.11589 0.0
C2266 C 0.91384 0.3913 0.11553 0.0
C2267 C 0.9379 0.39621 0.10205 0.0
C2268 C 0.8761 0.35992 0.11648 0.0
C2269 C 0.8611 0.33167 0.10414 0.0
C2270 C 0.88543 0.33558 0.09084 0.0
C2271 C 0.92339 0.36772 0.08974 0.0
H2272 H 0.68527 0.58449 0.07584 0.0
H2273 H 0.66319 0.55641 0.12707 0.0
H2274 H 0.74195 0.57501 0.07745 0.0
H2275 H 0.7183 0.54651 0.12859 0.0
H2276 H 0.83416 0.55676 0.13252 0.0
H2277 H 0.7873 0.57882 0.12836 0.0
H2278 H 0.75779 0.52283 0.08117 0.0
H2279 H 0.80562 0.50165 0.08534 0.0
C2280 C 0.69267 0.57675 0.08743 0.0
C2281 C 0.66954 0.57121 0.10128 0.0
C2282 C 0.72496 0.57102 0.08835 0.0
C2283 C 0.73509 0.56023 0.1032 0.0
C2284 C 0.71219 0.55554 0.11702 0.0
C2285 C 0.68011 0.56094 0.11608 0.0
C2286 C 0.81852 0.55029 0.12106 0.0
C2287 C 0.82388 0.52801 0.10915 0.0
C2288 C 0.79123 0.56245 0.11872 0.0
C2289 C 0.76824 0.5523 0.10447 0.0
C2290 C 0.77512 0.5316 0.0922 0.0
C2291 C 0.80255 0.51948 0.09456 0.0
H2292 H 0.29728 0.46587 0.90899 0.0
H2293 H 0.33986 0.58629 0.92038 0.0
H2294 H 0.23072 0.45084 0.9155 0.0
H2295 H 0.27397 0.57165 0.92696 0.0
H2296 H 0.15345 0.54469 0.90997 0.0
H2297 H 0.21896 0.55535 0.90936 0.0
H2298 H 0.18119 0.44841 0.93583 0.0
H2299 H 0.11454 0.43787 0.93658 0.0
C2300 C 0.29267 0.48876 0.91365 0.0
C2301 C 0.32404 0.52712 0.91459 0.0
C2302 C 0.25444 0.48026 0.91724 0.0
C2303 C 0.24669 0.51006 0.92161 0.0
C2304 C 0.27855 0.54795 0.92347 0.0
C2305 C 0.31655 0.55631 0.91999 0.0
C2306 C 0.15886 0.52341 0.91582 0.0
C2307 C 0.12834 0.49023 0.92329 0.0
C2308 C 0.19678 0.52973 0.91555 0.0
C2309 C 0.20579 0.50295 0.92264 0.0
C2310 C 0.17539 0.46967 0.93021 0.0
C2311 C 0.13717 0.46364 0.93073 0.0
H2312 H 0.49236 0.79529 0.90744 0.0
H2313 H 0.61402 0.86454 0.91946 0.0
H2314 H 0.49486 0.73606 0.91338 0.0
H2315 H 0.61716 0.806 0.92479 0.0
H2316 H 0.60914 0.6937 0.94159 0.0
H2317 H 0.60069 0.75048 0.94093 0.0
H2318 H 0.52055 0.70014 0.9006 0.0
H2319 H 0.52893 0.64384 0.9013 0.0
C2320 C 0.51933 0.79788 0.91178 0.0
C2321 C 0.55295 0.83459 0.91304 0.0
C2322 C 0.52104 0.76394 0.91492 0.0
C2323 C 0.55639 0.766 0.91941 0.0
C2324 C 0.58932 0.80295 0.92157 0.0
C2325 C 0.58757 0.83666 0.91846 0.0
C2326 C 0.58998 0.69488 0.93253 0.0
C2327 C 0.57054 0.66445 0.92128 0.0
C2328 C 0.58497 0.72746 0.93216 0.0
C2329 C 0.55989 0.73019 0.92068 0.0
C2330 C 0.53967 0.69914 0.90976 0.0
C2331 C 0.54491 0.66686 0.91006 0.0
H2332 H 0.40891 0.91603 0.9429 0.0
H2333 H 0.36607 0.9422 0.89922 0.0
H2334 H 0.35441 0.84891 0.94213 0.0
H2335 H 0.31145 0.87556 0.89838 0.0
H2336 H 0.20437 0.75852 0.90456 0.0
H2337 H 0.25148 0.82633 0.9113 0.0
H2338 H 0.33521 0.79214 0.92495 0.0
H2339 H 0.28794 0.72473 0.91843 0.0
C2340 C 0.38709 0.90759 0.93343 0.0
C2341 C 0.39104 0.93423 0.9213 0.0
C2342 C 0.35614 0.86911 0.93285 0.0
C2343 C 0.32826 0.85669 0.92024 0.0
C2344 C 0.33181 0.88407 0.90844 0.0
C2345 C 0.36308 0.92225 0.90888 0.0
C2346 C 0.23227 0.76541 0.90967 0.0
C2347 C 0.24221 0.73627 0.91133 0.0
C2348 C 0.25954 0.80432 0.91326 0.0
C2349 C 0.29734 0.81489 0.91861 0.0
C2350 C 0.30633 0.78521 0.92113 0.0
C2351 C 0.27917 0.74647 0.91747 0.0
H2352 H 0.25207 0.66509 0.42379 0.0
H2353 H 0.15961 0.6373 0.45813 0.0
H2354 H 0.22886 0.59585 0.41984 0.0
H2355 H 0.13635 0.56768 0.45434 0.0
H2356 H 0.15296 0.45915 0.4612 0.0
H2357 H 0.16405 0.52531 0.46207 0.0
H2358 H 0.17382 0.53198 0.40955 0.0
H2359 H 0.16199 0.465 0.40872 0.0
C2360 C 0.22615 0.64402 0.43019 0.0
C2361 C 0.20747 0.65659 0.44115 0.0
C2362 C 0.2128 0.60432 0.42792 0.0
C2363 C 0.18073 0.57606 0.43677 0.0
C2364 C 0.16123 0.58864 0.44737 0.0
C2365 C 0.17427 0.62846 0.44944 0.0
C2366 C 0.15674 0.47449 0.4498 0.0
C2367 C 0.1565 0.45687 0.43488 0.0
C2368 C 0.16295 0.5124 0.4503 0.0
C2369 C 0.16984 0.53412 0.43589 0.0
C2370 C 0.16869 0.51613 0.42089 0.0
C2371 C 0.1616 0.4777 0.42037 0.0
H2372 H 0.5799 0.75195 0.41622 0.0
H2373 H 0.6222 0.69395 0.4476 0.0
H2374 H 0.51466 0.697 0.41812 0.0
H2375 H 0.55608 0.6389 0.45015 0.0
H2376 H 0.43481 0.53383 0.44621 0.0
H2377 H 0.50148 0.5842 0.43945 0.0
H2378 H 0.46244 0.66779 0.43489 0.0
H2379 H 0.39648 0.6172 0.4407 0.0
C2380 C 0.57525 0.72736 0.42359 0.0
C2381 C 0.60649 0.72742 0.4317 0.0
C2382 C 0.53748 0.6957 0.42482 0.0
C2383 C 0.52934 0.66308 0.43443 0.0
C2384 C 0.56085 0.66295 0.44241 0.0
C2385 C 0.59893 0.69467 0.44102 0.0
C2386 C 0.44046 0.56264 0.44299 0.0
C2387 C 0.41025 0.57136 0.44354 0.0
C2388 C 0.47887 0.59186 0.43949 0.0
C2389 C 0.48802 0.6306 0.43665 0.0
C2390 C 0.45712 0.63852 0.43658 0.0
C2391 C 0.41895 0.60937 0.43988 0.0
H2392 H 0.50792 0.90066 0.46884 0.0
H2393 H 0.47752 0.83515 0.42405 0.0
H2394 H 0.45996 0.92043 0.46317 0.0
H2395 H 0.42888 0.85471 0.4183 0.0
H2396 H 0.35551 0.91687 0.41087 0.0
H2397 H 0.41319 0.90909 0.41295 0.0
H2398 H 0.3889 0.88134 0.46409 0.0
H2399 H 0.33234 0.88917 0.46206 0.0
C2400 C 0.49195 0.89173 0.45744 0.0
C2401 C 0.49695 0.86689 0.44677 0.0
C2402 C 0.46403 0.90257 0.45429 0.0
C2403 C 0.44012 0.88879 0.44037 0.0
C2404 C 0.44696 0.86611 0.42907 0.0
C2405 C 0.47501 0.85512 0.43228 0.0
C2406 C 0.36291 0.90957 0.42256 0.0
C2407 C 0.33926 0.90363 0.43628 0.0
C2408 C 0.39574 0.90484 0.42374 0.0
C2409 C 0.40594 0.89485 0.43872 0.0
C2410 C 0.38249 0.88966 0.45242 0.0
C2411 C 0.34974 0.89391 0.45121 0.0
H2412 H 0.81666 0.85924 0.2325 0.0
H2413 H 0.79161 0.79165 0.27672 0.0
H2414 H 0.88141 0.86819 0.23183 0.0
H2415 H 0.85772 0.80161 0.27632 0.0
H2416 H 0.95935 0.78608 0.25719 0.0
H2417 H 0.89734 0.78268 0.26224 0.0
H2418 H 0.94411 0.89902 0.24313 0.0
H2419 H 1.00598 0.90152 0.23757 0.0
C2420 C 0.825 0.8464 0.24222 0.0
C2421 C 0.79851 0.82437 0.25464 0.0
C2422 C 0.86265 0.85202 0.24192 0.0
C2423 C 0.8754 0.836 0.25408 0.0
C2424 C 0.84903 0.81421 0.26664 0.0
C2425 C 0.81106 0.80853 0.26693 0.0
C2426 C 0.95665 0.81133 0.25449 0.0
C2427 C 0.98764 0.84415 0.2471 0.0
C2428 C 0.921 0.80943 0.2574 0.0
C2429 C 0.91519 0.84038 0.253 0.0
C2430 C 0.94708 0.87425 0.24646 0.0
C2431 C 0.98288 0.87609 0.24352 0.0
H2432 H 0.18914 0.97292 0.24123 0.0
H2433 H 0.2946 0.03965 0.26893 0.0
H2434 H 0.17777 0.0274 0.24138 0.0
H2435 H 0.28378 0.09539 0.26865 0.0
H2436 H 0.26471 0.19301 0.24081 0.0
H2437 H 0.28095 0.14227 0.24719 0.0
H2438 H 0.1616 0.06484 0.26098 0.0
H2439 H 0.14572 0.11532 0.25462 0.0
C2440 C 0.21002 0.99926 0.24741 0.0
C2441 C 0.24306 1.00183 0.25496 0.0
C2442 C 0.20334 0.03057 0.24756 0.0
C2443 C 0.22976 0.06585 0.25508 0.0
C2444 C 0.26289 0.06864 0.26272 0.0
C2445 C 0.26912 0.03669 0.26289 0.0
C2446 C 0.2425 0.16576 0.24595 0.0
C2447 C 0.20409 0.15835 0.24754 0.0
C2448 C 0.25168 0.13657 0.24948 0.0
C2449 C 0.22247 0.09931 0.25443 0.0
C2450 C 0.18473 0.09303 0.25705 0.0
C2451 C 0.1757 0.12213 0.25365 0.0
H2452 H 0.93905 0.06034 0.23573 0.0
H2453 H 0.87024 0.10637 0.25601 0.0
H2454 H 0.99844 0.12204 0.24142 0.0
H2455 H 0.92887 0.16821 0.26123 0.0
H2456 H 0.0435 0.27278 0.27604 0.0
H2457 H 0.98766 0.20685 0.2754 0.0
H2458 H 0.02966 0.18507 0.23021 0.0
H2459 H 0.08516 0.25006 0.23099 0.0
C2460 C 0.93677 0.08328 0.24186 0.0
C2461 C 0.90011 0.07849 0.24557 0.0
C2462 C 0.9707 0.11893 0.24487 0.0
C2463 C 0.96865 0.15058 0.25164 0.0
C2464 C 0.93194 0.14469 0.25621 0.0
C2465 C 0.8982 0.10917 0.25321 0.0
C2466 C 0.04068 0.25394 0.26596 0.0
C2467 C 0.06864 0.26715 0.25348 0.0
C2468 C 1.00864 0.21601 0.26558 0.0
C2469 C 1.00393 0.19025 0.25277 0.0
C2470 C 0.03237 0.20348 0.24046 0.0
C2471 C 0.06418 0.24121 0.24082 0.0
H2472 H 0.84071 0.80012 0.79456 0.0
H2473 H 0.81369 0.79571 0.74326 0.0
H2474 H 0.84976 0.86474 0.79646 0.0
H2475 H 0.82257 0.86163 0.74526 0.0
H2476 H 0.8978 0.99971 0.75586 0.0
H2477 H 0.87613 0.93105 0.75018 0.0
H2478 H 0.81403 0.89894 0.79596 0.0
H2479 H 0.83619 0.96714 0.8016 0.0
C2480 C 0.83627 0.81279 0.78363 0.0
C2481 C 0.8265 0.79249 0.76871 0.0
C2482 C 0.84121 0.85003 0.78478 0.0
C2483 C 0.8366 0.8686 0.77107 0.0
C2484 C 0.82641 0.84828 0.75608 0.0
C2485 C 0.82104 0.81043 0.75495 0.0
C2486 C 0.87824 0.97771 0.76435 0.0
C2487 C 0.86825 0.98875 0.77908 0.0
C2488 C 0.86599 0.93835 0.76116 0.0
C2489 C 0.84374 0.90932 0.77271 0.0
C2490 C 0.83162 0.92039 0.78688 0.0
C2491 C 0.84383 0.95948 0.79004 0.0
H2492 H 0.29433 0.02793 0.77964 0.0
H2493 H 0.24901 0.0866 0.75036 0.0
H2494 H 0.2281 0.97285 0.78303 0.0
H2495 H 0.18426 0.03176 0.75279 0.0
H2496 H 0.06708 0.95173 0.77533 0.0
H2497 H 0.13296 1.00219 0.76952 0.0
H2498 H 0.17176 0.91831 0.77354 0.0
H2499 H 0.10508 0.86805 0.78042 0.0
C2500 C 0.27037 0.02889 0.77377 0.0
C2501 C 0.27714 0.06195 0.76486 0.0
C2502 C 0.23224 0.99713 0.77559 0.0
C2503 C 0.19997 0.99743 0.76836 0.0
C2504 C 0.20748 0.03025 0.75904 0.0
C2505 C 0.24512 0.06192 0.75747 0.0
C2506 C 0.08944 0.94377 0.77437 0.0
C2507 C 0.08052 0.90561 0.77789 0.0
C2508 C 0.12766 0.97291 0.77108 0.0
C2509 C 0.15857 0.96494 0.77093 0.0
C2510 C 0.14925 0.92611 0.77371 0.0
C2511 C 0.11077 0.8969 0.77726 0.0
H2512 H 0.12031 0.14308 0.78025 0.0
H2513 H 0.19658 0.2667 0.78446 0.0
H2514 H 0.06605 0.15338 0.77385 0.0
H2515 H 0.14342 0.2777 0.77708 0.0
H2516 H 0.03433 0.28603 0.78232 0.0
H2517 H 0.08854 0.27513 0.78725 0.0
H2518 H 0.03392 0.1729 0.75652 0.0
H2519 H 0.97922 0.18315 0.75228 0.0
C2520 C 0.12564 0.17253 0.77925 0.0
C2521 C 0.16259 0.2041 0.78274 0.0
C2522 C 0.09453 0.17861 0.77559 0.0
C2523 C 0.09983 0.21651 0.77508 0.0
C2524 C 0.13756 0.24805 0.77777 0.0
C2525 C 0.16835 0.24188 0.78172 0.0
C2526 C 0.03411 0.26143 0.77655 0.0
C2527 C 1.00262 0.23575 0.76679 0.0
C2528 C 0.06538 0.25514 0.77929 0.0
C2529 C 0.06625 0.22318 0.77219 0.0
C2530 C 0.03448 0.19752 0.76244 0.0
C2531 C 1.00307 0.20359 0.75987 0.0
H2532 H 0.46668 0.1389 0.61113 0.0
H2533 H 0.4733 0.17068 0.56032 0.0
H2534 H 0.5334 0.14999 0.60949 0.0
H2535 H 0.53887 0.18196 0.55877 0.0
H2536 H 0.64574 0.17256 0.55508 0.0
H2537 H 0.57638 0.14957 0.55882 0.0
H2538 H 0.60073 0.20493 0.60612 0.0
H2539 H 0.67007 0.2274 0.60231 0.0
C2540 C 0.48212 0.14786 0.59963 0.0
C2541 C 0.46457 0.15392 0.58591 0.0
C2542 C 0.52038 0.15444 0.59869 0.0
C2543 C 0.54155 0.16664 0.58394 0.0
C2544 C 0.52345 0.1719 0.57023 0.0
C2545 C 0.4857 0.16569 0.5712 0.0
C2546 C 0.63599 0.17883 0.56643 0.0
C2547 C 0.66305 0.20138 0.57847 0.0
C2548 C 0.59636 0.16606 0.56854 0.0
C2549 C 0.58285 0.1756 0.58275 0.0
C2550 C 0.6099 0.19665 0.59512 0.0
C2551 C 0.6496 0.20957 0.59295 0.0
H2552 H 0.92012 0.34453 0.60978 0.0
H2553 H 0.89881 0.3292 0.5579 0.0
H2554 H 0.91065 0.40116 0.609 0.0
H2555 H 0.88938 0.38505 0.55712 0.0
H2556 H 0.90175 0.5036 0.55701 0.0
H2557 H 0.92352 0.45607 0.56018 0.0
H2558 H 0.85481 0.41286 0.60407 0.0
H2559 H 0.83327 0.46055 0.6008 0.0
C2560 C 0.91408 0.35361 0.5982 0.0
C2561 C 0.91018 0.33237 0.58392 0.0
C2562 C 0.90834 0.38581 0.59776 0.0
C2563 C 0.8994 0.39783 0.58298 0.0
C2564 C 0.89679 0.37714 0.56867 0.0
C2565 C 0.90197 0.34487 0.56915 0.0
C2566 C 0.89233 0.4847 0.56758 0.0
C2567 C 0.86632 0.48606 0.5788 0.0
C2568 C 0.90439 0.45718 0.56932 0.0
C2569 C 0.89081 0.43046 0.58236 0.0
C2570 C 0.86626 0.43322 0.59401 0.0
C2571 C 0.85393 0.46054 0.59217 0.0
H2572 H 0.53374 0.4383 0.58939 0.0
H2573 H 0.60176 0.39065 0.56976 0.0
H2574 H 0.59277 0.50026 0.59417 0.0
H2575 H 0.66144 0.45268 0.57484 0.0
H2576 H 0.74531 0.58125 0.56214 0.0
H2577 H 0.68997 0.51605 0.56216 0.0
H2578 H 0.6535 0.53828 0.60863 0.0
H2579 H 0.71062 0.60364 0.60897 0.0
C2580 C 0.56158 0.44076 0.58663 0.0
C2581 C 0.56314 0.40954 0.57931 0.0
C2582 C 0.59549 0.47634 0.58936 0.0
C2583 C 0.632 0.48178 0.58479 0.0
C2584 C 0.63377 0.44974 0.57833 0.0
C2585 C 0.59969 0.41397 0.57565 0.0
C2586 C 0.72614 0.57215 0.5726 0.0
C2587 C 0.73305 0.59776 0.58571 0.0
C2588 C 0.69418 0.53452 0.57258 0.0
C2589 C 0.66735 0.52141 0.5855 0.0
C2590 C 0.67359 0.54728 0.59847 0.0
C2591 C 0.70624 0.58491 0.59864 0.0
loop_
_geom_bond_atom_site_label_1
_geom_bond_atom_site_label_2
_geom_bond_distance
_geom_bond_site_symmetry_2
_ccdc_geom_bond_type
Tb0 N29 2.617 . S
Tb0 N35 2.572 . S
Tb0 O44 2.465 . S
Tb0 O45 2.387 1_565 S
Tb0 O47 2.428 . S
Tb0 O48 2.308 . S
Tb0 O52 2.349 . S
Tb0 O55 2.393 . S
Tb0 C64 2.802 . S
C1 N2 1.379 . S
C1 C4 1.416 1_545 S
C1 C8 1.424 . S
N2 C1 1.379 . S
N2 C5 1.334 . S
N2 Tb11 2.617 . S
C3 C5 1.385 1_565 S
C3 C6 1.346 . S
C3 H23 0.928 . S
C4 C1 1.416 1_565 S
C4 C6 1.416 . S
C4 C10 1.448 . S
C5 N2 1.334 . S
C5 C3 1.385 1_545 S
C5 H16 0.930 . S
C6 C3 1.346 . S
C6 C4 1.416 . S
C6 H27 0.930 . S
C7 C8 1.413 1_565 S
C7 C9 1.427 . S
C7 C13 1.416 . S
C8 C1 1.424 . S
C8 C7 1.413 1_545 S
C8 N12 1.361 . S
C9 C7 1.427 . S
C9 C10 1.328 . S
C9 H24 0.929 . S
C10 C4 1.448 . S
C10 C9 1.328 . S
C10 H25 0.930 . S
Tb11 N2 2.617 . S
Tb11 N12 2.572 . S
Tb11 O46 2.349 . S
Tb11 O49 2.393 . S
Tb11 O50 2.465 . S
Tb11 O51 2.387 1_545 S
Tb11 O53 2.428 . S
Tb11 O54 2.308 . S
Tb11 C75 2.802 . S
N12 C8 1.361 . S
N12 Tb11 2.572 . S
N12 C14 1.340 . S
C13 C7 1.416 . S
C13 C15 1.332 1_565 S
C13 H21 0.931 . S
C14 N12 1.340 . S
C14 C15 1.407 . S
C14 H20 0.930 . S
C15 C13 1.332 1_545 S
C15 C14 1.407 . S
C15 H17 0.929 . S
H16 C5 0.930 . S
H17 C15 0.929 . S
H18 C33 0.930 . S
H19 C40 0.929 . S
H20 C14 0.930 . S
H21 C13 0.931 . S
H22 C36 0.930 . S
H23 C3 0.928 . S
H24 C9 0.929 . S
H25 C10 0.930 . S
H26 C31 0.930 . S
H27 C6 0.930 . S
H28 C39 0.931 . S
N29 Tb0 2.617 . S
N29 C30 1.379 1_565 S
N29 C33 1.334 . S
C30 N29 1.379 1_545 S
C30 C32 1.416 . S
C30 C38 1.424 . S
C31 H26 0.930 . S
C31 C33 1.390 1_545 S
C31 C34 1.339 . S
C32 C30 1.416 . S
C32 C34 1.416 . S
C32 C65 1.448 . S
C33 H18 0.930 . S
C33 N29 1.334 . S
C33 C31 1.390 1_565 S
C34 C31 1.339 . S
C34 C32 1.416 . S
C34 H41 0.930 . S
N35 Tb0 2.572 . S
N35 C36 1.340 . S
N35 C38 1.361 1_565 S
C36 H22 0.930 . S
C36 N35 1.340 . S
C36 C40 1.407 1_565 S
C37 C38 1.413 . S
C37 C39 1.416 . S
C37 C66 1.427 . S
C38 C30 1.424 . S
C38 N35 1.361 1_545 S
C38 C37 1.413 . S
C39 H28 0.931 . S
C39 C37 1.416 . S
C39 C40 1.332 . S
C40 H19 0.929 . S
C40 C36 1.407 1_545 S
C40 C39 1.332 . S
H41 C34 0.930 . S
H42 C65 0.930 . S
H43 C66 0.929 . S
O44 Tb0 2.465 . S
O44 C64 1.264 . S
O45 Tb0 2.387 1_545 S
O45 C56 1.264 . S
O46 Tb11 2.349 . S
O46 C56 1.243 . S
O47 Tb0 2.428 . S
O47 C64 1.256 . S
O48 Tb0 2.308 . S
O48 C63 1.266 . S
O49 Tb11 2.393 . S
O49 C63 1.248 1_545 S
O50 Tb11 2.465 . S
O50 C75 1.264 . S
O51 Tb11 2.387 1_565 S
O51 C67 1.264 . S
O52 Tb0 2.349 . S
O52 C67 1.243 . S
O53 Tb11 2.428 . S
O53 C75 1.256 . S
O54 Tb11 2.308 . S
O54 C74 1.266 . S
O55 Tb0 2.393 . S
O55 C74 1.248 1_565 S
C56 O45 1.264 . S
C56 O46 1.243 . S
C57 C60 1.399 . S
C57 C62 1.383 . S
C57 C64 1.496 . S
C58 C59 1.399 . S
C58 C62 1.389 . S
C59 C58 1.399 . S
C59 C61 1.380 . S
C59 H76 0.929 . S
C60 C57 1.399 . S
C60 C61 1.392 . S
C60 H77 0.929 . S
C61 C59 1.380 . S
C61 C60 1.392 . S
C61 H78 0.929 . S
C62 C57 1.383 . S
C62 C58 1.389 . S
C62 H79 0.931 . S
C63 O48 1.266 . S
C63 O49 1.248 1_565 S
C64 Tb0 2.802 . S
C64 O44 1.264 . S
C64 O47 1.256 . S
C64 C57 1.496 . S
C65 C32 1.448 . S
C65 H42 0.930 . S
C65 C66 1.328 . S
C66 C37 1.427 . S
C66 H43 0.929 . S
C66 C65 1.328 . S
C67 O51 1.264 . S
C67 O52 1.243 . S
C68 C71 1.399 . S
C68 C72 1.383 . S
C68 C75 1.496 . S
C69 C70 1.399 . S
C69 C72 1.389 . S
C70 C69 1.399 . S
C70 C73 1.380 . S
C70 H80 0.929 . S
C71 C68 1.399 . S
C71 C73 1.392 . S
C71 H81 0.929 . S
C72 C68 1.383 . S
C72 C69 1.389 . S
C72 H82 0.931 . S
C73 C70 1.380 . S
C73 C71 1.392 . S
C73 H83 0.929 . S
C74 O54 1.266 . S
C74 O55 1.248 1_545 S
C75 Tb11 2.802 . S
C75 O50 1.264 . S
C75 O53 1.256 . S
C75 C68 1.496 . S
H76 C59 0.929 . S
H77 C60 0.929 . S
H78 C61 0.929 . S
H79 C62 0.931 . S
H80 C70 0.929 . S
H81 C71 0.929 . S
H82 C72 0.931 . S
H83 C73 0.929 . S
Tb84 N113 2.617 . S
Tb84 N119 2.572 . S
Tb84 O128 2.465 . S
Tb84 O129 2.387 1_455 S
Tb84 O131 2.428 . S
Tb84 O132 2.308 . S
Tb84 O136 2.349 . S
Tb84 O139 2.393 . S
Tb84 C148 2.802 . S
C85 N86 1.379 . S
C85 C88 1.416 . S
C85 C92 1.424 . S
N86 C85 1.379 . S
N86 C89 1.334 . S
N86 Tb95 2.617 . S
C87 C89 1.390 . S
C87 C90 1.339 . S
C87 H107 0.930 . S
C88 C85 1.416 . S
C88 C90 1.416 . S
C88 C94 1.448 . S
C89 N86 1.334 . S
C89 C87 1.390 . S
C89 H100 0.930 . S
C90 C87 1.339 . S
C90 C88 1.416 . S
C90 H111 0.930 . S
C91 C92 1.413 . S
C91 C93 1.427 . S
C91 C97 1.416 . S
C92 C85 1.424 . S
C92 C91 1.413 . S
C92 N96 1.361 . S
C93 C91 1.427 . S
C93 C94 1.328 . S
C93 H108 0.929 . S
C94 C88 1.448 . S
C94 C93 1.328 . S
C94 H109 0.930 . S
Tb95 N86 2.617 . S
Tb95 N96 2.572 . S
Tb95 O130 2.349 1_455 S
Tb95 O133 2.393 . S
Tb95 O134 2.465 1_455 S
Tb95 O135 2.387 . S
Tb95 O137 2.428 1_455 S
Tb95 O138 2.308 . S
Tb95 C159 2.802 1_455 S
N96 C92 1.361 . S
N96 Tb95 2.572 . S
N96 C98 1.340 . S
C97 C91 1.416 . S
C97 C99 1.332 . S
C97 H105 0.931 . S
C98 N96 1.340 . S
C98 C99 1.407 . S
C98 H104 0.930 . S
C99 C97 1.332 . S
C99 C98 1.407 . S
C99 H101 0.929 . S
H100 C89 0.930 . S
H101 C99 0.929 . S
H102 C117 0.930 . S
H103 C124 0.929 . S
H104 C98 0.930 . S
H105 C97 0.931 . S
H106 C120 0.930 . S
H107 C87 0.930 . S
H108 C93 0.929 . S
H109 C94 0.930 . S
H110 C115 0.930 . S
H111 C90 0.930 . S
H112 C123 0.931 . S
N113 Tb84 2.617 . S
N113 C114 1.379 . S
N113 C117 1.334 . S
C114 N113 1.379 . S
C114 C116 1.416 . S
C114 C122 1.424 . S
C115 H110 0.930 . S
C115 C117 1.390 . S
C115 C118 1.339 . S
C116 C114 1.416 . S
C116 C118 1.416 . S
C116 C149 1.448 1_455 S
C117 H102 0.930 . S
C117 N113 1.334 . S
C117 C115 1.390 . S
C118 C115 1.339 . S
C118 C116 1.416 . S
C118 H125 0.930 1_455 S
N119 Tb84 2.572 . S
N119 C120 1.340 . S
N119 C122 1.361 . S
C120 H106 0.930 . S
C120 N119 1.340 . S
C120 C124 1.407 . S
C121 C122 1.413 . S
C121 C123 1.416 . S
C121 C150 1.427 1_455 S
C122 C114 1.424 . S
C122 N119 1.361 . S
C122 C121 1.413 . S
C123 H112 0.931 . S
C123 C121 1.416 . S
C123 C124 1.332 . S
C124 H103 0.929 . S
C124 C120 1.407 . S
C124 C123 1.332 . S
H125 C118 0.930 1_655 S
H126 C149 0.930 . S
H127 C150 0.929 . S
O128 Tb84 2.465 . S
O128 C148 1.264 . S
O129 Tb84 2.387 1_655 S
O129 C140 1.264 . S
O130 Tb95 2.349 1_655 S
O130 C140 1.243 . S
O131 Tb84 2.428 . S
O131 C148 1.256 . S
O132 Tb84 2.308 . S
O132 C147 1.266 . S
O133 Tb95 2.393 . S
O133 C147 1.248 . S
O134 Tb95 2.465 1_655 S
O134 C159 1.264 . S
O135 Tb95 2.387 . S
O135 C151 1.264 . S
O136 Tb84 2.349 . S
O136 C151 1.243 . S
O137 Tb95 2.428 1_655 S
O137 C159 1.256 . S
O138 Tb95 2.308 . S
O138 C158 1.266 . S
O139 Tb84 2.393 . S
O139 C158 1.248 . S
C140 O129 1.264 . S
C140 O130 1.243 . S
C141 C144 1.399 . S
C141 C146 1.383 . S
C141 C148 1.496 . S
C142 C143 1.399 . S
C142 C146 1.389 . S
C143 C142 1.399 . S
C143 C145 1.380 . S
C143 H160 0.929 . S
C144 C141 1.399 . S
C144 C145 1.392 . S
C144 H161 0.929 . S
C145 C143 1.380 . S
C145 C144 1.392 . S
C145 H162 0.929 . S
C146 C141 1.383 . S
C146 C142 1.389 . S
C146 H163 0.931 . S
C147 O132 1.266 . S
C147 O133 1.248 . S
C148 Tb84 2.802 . S
C148 O128 1.264 . S
C148 O131 1.256 . S
C148 C141 1.496 . S
C149 C116 1.448 1_655 S
C149 H126 0.930 . S
C149 C150 1.328 . S
C150 C121 1.427 1_655 S
C150 H127 0.929 . S
C150 C149 1.328 . S
C151 O135 1.264 . S
C151 O136 1.243 . S
C152 C155 1.399 . S
C152 C156 1.383 . S
C152 C159 1.496 . S
C153 C154 1.399 . S
C153 C156 1.389 . S
C154 C153 1.399 . S
C154 C157 1.380 . S
C154 H164 0.929 . S
C155 C152 1.399 . S
C155 C157 1.392 . S
C155 H165 0.929 . S
C156 C152 1.383 . S
C156 C153 1.389 . S
C156 H166 0.931 . S
C157 C154 1.380 . S
C157 C155 1.392 . S
C157 H167 0.929 . S
C158 O138 1.266 . S
C158 O139 1.248 . S
C159 Tb95 2.802 1_655 S
C159 O134 1.264 . S
C159 O137 1.256 . S
C159 C152 1.496 . S
H160 C143 0.929 . S
H161 C144 0.929 . S
H162 C145 0.929 . S
H163 C146 0.931 . S
H164 C154 0.929 . S
H165 C155 0.929 . S
H166 C156 0.931 . S
H167 C157 0.929 . S
Tb168 N197 2.617 . S
Tb168 N203 2.572 . S
Tb168 O212 2.465 . S
Tb168 O213 2.387 . S
Tb168 O215 2.428 . S
Tb168 O216 2.308 . S
Tb168 O220 2.349 . S
Tb168 O223 2.393 . S
Tb168 C232 2.802 . S
C169 N170 1.379 . S
C169 C172 1.416 . S
C169 C176 1.424 . S
N170 C169 1.379 . S
N170 C173 1.334 . S
N170 Tb179 2.617 . S
C171 C173 1.390 . S
C171 C174 1.339 . S
C171 H191 0.930 . S
C172 C169 1.416 . S
C172 C174 1.416 . S
C172 C178 1.448 . S
C173 N170 1.334 . S
C173 C171 1.390 . S
C173 H184 0.930 . S
C174 C171 1.339 . S
C174 C172 1.416 . S
C174 H195 0.930 . S
C175 C176 1.413 . S
C175 C177 1.427 . S
C175 C181 1.416 . S
C176 C169 1.424 . S
C176 C175 1.413 . S
C176 N180 1.361 . S
C177 C175 1.427 . S
C177 C178 1.328 . S
C177 H192 0.929 . S
C178 C172 1.448 . S
C178 C177 1.328 . S
C178 H193 0.930 . S
Tb179 N170 2.617 . S
Tb179 N180 2.572 . S
Tb179 O214 2.349 . S
Tb179 O217 2.393 . S
Tb179 O218 2.465 . S
Tb179 O219 2.387 . S
Tb179 O221 2.428 . S
Tb179 O222 2.308 . S
Tb179 C243 2.802 . S
N180 C176 1.361 . S
N180 Tb179 2.572 . S
N180 C182 1.340 . S
C181 C175 1.416 . S
C181 C183 1.332 . S
C181 H189 0.931 . S
C182 N180 1.340 . S
C182 C183 1.407 . S
C182 H188 0.930 . S
C183 C181 1.332 . S
C183 C182 1.407 . S
C183 H185 0.929 . S
H184 C173 0.930 . S
H185 C183 0.929 . S
H186 C201 0.930 . S
H187 C208 0.929 . S
H188 C182 0.930 . S
H189 C181 0.931 . S
H190 C204 0.930 . S
H191 C171 0.930 . S
H192 C177 0.929 . S
H193 C178 0.930 . S
H194 C199 0.930 . S
H195 C174 0.930 . S
H196 C207 0.931 . S
N197 Tb168 2.617 . S
N197 C198 1.379 . S
N197 C201 1.334 . S
C198 N197 1.379 . S
C198 C200 1.416 . S
C198 C206 1.424 . S
C199 H194 0.930 . S
C199 C201 1.390 . S
C199 C202 1.339 . S
C200 C198 1.416 . S
C200 C202 1.416 . S
C200 C233 1.448 . S
C201 H186 0.930 . S
C201 N197 1.334 . S
C201 C199 1.390 . S
C202 C199 1.339 . S
C202 C200 1.416 . S
C202 H209 0.930 . S
N203 Tb168 2.572 . S
N203 C204 1.340 . S
N203 C206 1.361 . S
C204 H190 0.930 . S
C204 N203 1.340 . S
C204 C208 1.407 . S
C205 C206 1.413 . S
C205 C207 1.416 . S
C205 C234 1.427 . S
C206 C198 1.424 . S
C206 N203 1.361 . S
C206 C205 1.413 . S
C207 H196 0.931 . S
C207 C205 1.416 . S
C207 C208 1.332 . S
C208 H187 0.929 . S
C208 C204 1.407 . S
C208 C207 1.332 . S
H209 C202 0.930 . S
H210 C233 0.930 . S
H211 C234 0.929 . S
O212 Tb168 2.465 . S
O212 C232 1.264 . S
O213 Tb168 2.387 . S
O213 C224 1.264 . S
O214 Tb179 2.349 . S
O214 C224 1.243 . S
O215 Tb168 2.428 . S
O215 C232 1.256 . S
O216 Tb168 2.308 . S
O216 C231 1.266 . S
O217 Tb179 2.393 . S
O217 C231 1.248 . S
O218 Tb179 2.465 . S
O218 C243 1.264 . S
O219 Tb179 2.387 . S
O219 C235 1.264 . S
O220 Tb168 2.349 . S
O220 C235 1.243 . S
O221 Tb179 2.428 . S
O221 C243 1.256 . S
O222 Tb179 2.308 . S
O222 C242 1.266 . S
O223 Tb168 2.393 . S
O223 C242 1.248 . S
C224 O213 1.264 . S
C224 O214 1.243 . S
C225 C228 1.399 . S
C225 C230 1.383 . S
C225 C232 1.496 . S
C226 C227 1.399 . S
C226 C230 1.389 . S
C227 C226 1.399 . S
C227 C229 1.380 . S
C227 H244 0.929 . S
C228 C225 1.399 . S
C228 C229 1.392 . S
C228 H245 0.929 . S
C229 C227 1.380 . S
C229 C228 1.392 . S
C229 H246 0.929 . S
C230 C225 1.383 . S
C230 C226 1.389 . S
C230 H247 0.931 . S
C231 O216 1.266 . S
C231 O217 1.248 . S
C232 Tb168 2.802 . S
C232 O212 1.264 . S
C232 O215 1.256 . S
C232 C225 1.496 . S
C233 C200 1.448 . S
C233 H210 0.930 . S
C233 C234 1.328 . S
C234 C205 1.427 . S
C234 H211 0.929 . S
C234 C233 1.328 . S
C235 O219 1.264 . S
C235 O220 1.243 . S
C236 C239 1.399 . S
C236 C240 1.383 . S
C236 C243 1.496 . S
C237 C238 1.399 . S
C237 C240 1.389 . S
C238 C237 1.399 . S
C238 C241 1.380 . S
C238 H248 0.929 . S
C239 C236 1.399 . S
C239 C241 1.392 . S
C239 H249 0.929 . S
C240 C236 1.383 . S
C240 C237 1.389 . S
C240 H250 0.931 . S
C241 C238 1.380 . S
C241 C239 1.392 . S
C241 H251 0.929 . S
C242 O222 1.266 . S
C242 O223 1.248 . S
C243 Tb179 2.802 . S
C243 O218 1.264 . S
C243 O221 1.256 . S
C243 C236 1.496 . S
H244 C227 0.929 . S
H245 C228 0.929 . S
H246 C229 0.929 . S
H247 C230 0.931 . S
H248 C238 0.929 . S
H249 C239 0.929 . S
H250 C240 0.931 . S
H251 C241 0.929 . S
Tb252 N281 2.617 . S
Tb252 N287 2.572 . S
Tb252 O296 2.465 . S
Tb252 O297 2.387 1_655 S
Tb252 O299 2.428 . S
Tb252 O300 2.308 . S
Tb252 O304 2.349 . S
Tb252 O307 2.393 . S
Tb252 C316 2.802 . S
C253 N254 1.379 . S
C253 C256 1.416 1_455 S
C253 C260 1.424 . S
N254 C253 1.379 . S
N254 C257 1.334 . S
N254 Tb263 2.617 . S
C255 C257 1.385 1_655 S
C255 C258 1.346 . S
C255 H275 0.928 . S
C256 C253 1.416 1_655 S
C256 C258 1.416 . S
C256 C262 1.448 . S
C257 N254 1.334 . S
C257 C255 1.385 1_455 S
C257 H268 0.930 . S
C258 C255 1.346 . S
C258 C256 1.416 . S
C258 H279 0.930 . S
C259 C260 1.413 1_655 S
C259 C261 1.427 . S
C259 C265 1.416 . S
C260 C253 1.424 . S
C260 C259 1.413 1_455 S
C260 N264 1.361 . S
C261 C259 1.427 . S
C261 C262 1.328 . S
C261 H276 0.929 . S
C262 C256 1.448 . S
C262 C261 1.328 . S
C262 H277 0.930 . S
Tb263 N254 2.617 . S
Tb263 N264 2.572 . S
Tb263 O298 2.349 . S
Tb263 O301 2.393 . S
Tb263 O302 2.465 . S
Tb263 O303 2.387 1_455 S
Tb263 O305 2.428 . S
Tb263 O306 2.308 . S
Tb263 C327 2.802 . S
N264 C260 1.361 . S
N264 Tb263 2.572 . S
N264 C266 1.340 . S
C265 C259 1.416 . S
C265 C267 1.332 1_655 S
C265 H273 0.931 . S
C266 N264 1.340 . S
C266 C267 1.407 . S
C266 H272 0.930 . S
C267 C265 1.332 1_455 S
C267 C266 1.407 . S
C267 H269 0.929 . S
H268 C257 0.930 . S
H269 C267 0.929 . S
H270 C285 0.930 . S
H271 C292 0.929 . S
H272 C266 0.930 . S
H273 C265 0.931 . S
H274 C288 0.930 . S
H275 C255 0.928 . S
H276 C261 0.929 . S
H277 C262 0.930 . S
H278 C283 0.930 . S
H279 C258 0.930 . S
H280 C291 0.931 . S
N281 Tb252 2.617 . S
N281 C282 1.379 1_655 S
N281 C285 1.334 . S
C282 N281 1.379 1_455 S
C282 C284 1.416 . S
C282 C290 1.424 . S
C283 H278 0.930 . S
C283 C285 1.390 1_455 S
C283 C286 1.339 . S
C284 C282 1.416 . S
C284 C286 1.416 . S
C284 C317 1.448 . S
C285 H270 0.930 . S
C285 N281 1.334 . S
C285 C283 1.390 1_655 S
C286 C283 1.339 . S
C286 C284 1.416 . S
C286 H293 0.930 . S
N287 Tb252 2.572 . S
N287 C288 1.340 . S
N287 C290 1.361 1_655 S
C288 H274 0.930 . S
C288 N287 1.340 . S
C288 C292 1.407 1_655 S
C289 C290 1.413 . S
C289 C291 1.416 . S
C289 C318 1.427 . S
C290 C282 1.424 . S
C290 N287 1.361 1_455 S
C290 C289 1.413 . S
C291 H280 0.931 . S
C291 C289 1.416 . S
C291 C292 1.332 . S
C292 H271 0.929 . S
C292 C288 1.407 1_455 S
C292 C291 1.332 . S
H293 C286 0.930 . S
H294 C317 0.930 . S
H295 C318 0.929 . S
O296 Tb252 2.465 . S
O296 C316 1.264 . S
O297 Tb252 2.387 1_455 S
O297 C308 1.264 . S
O298 Tb263 2.349 . S
O298 C308 1.243 . S
O299 Tb252 2.428 . S
O299 C316 1.256 . S
O300 Tb252 2.308 . S
O300 C315 1.266 . S
O301 Tb263 2.393 . S
O301 C315 1.248 1_455 S
O302 Tb263 2.465 . S
O302 C327 1.264 . S
O303 Tb263 2.387 1_655 S
O303 C319 1.264 . S
O304 Tb252 2.349 . S
O304 C319 1.243 . S
O305 Tb263 2.428 . S
O305 C327 1.256 . S
O306 Tb263 2.308 . S
O306 C326 1.266 . S
O307 Tb252 2.393 . S
O307 C326 1.248 1_655 S
C308 O297 1.264 . S
C308 O298 1.243 . S
C309 C312 1.399 . S
C309 C314 1.383 . S
C309 C316 1.496 . S
C310 C311 1.399 . S
C310 C314 1.389 . S
C311 C310 1.399 . S
C311 C313 1.380 . S
C311 H328 0.929 . S
C312 C309 1.399 . S
C312 C313 1.392 . S
C312 H329 0.929 . S
C313 C311 1.380 . S
C313 C312 1.392 . S
C313 H330 0.929 . S
C314 C309 1.383 . S
C314 C310 1.389 . S
C314 H331 0.931 . S
C315 O300 1.266 . S
C315 O301 1.248 1_655 S
C316 Tb252 2.802 . S
C316 O296 1.264 . S
C316 O299 1.256 . S
C316 C309 1.496 . S
C317 C284 1.448 . S
C317 H294 0.930 . S
C317 C318 1.328 . S
C318 C289 1.427 . S
C318 H295 0.929 . S
C318 C317 1.328 . S
C319 O303 1.264 . S
C319 O304 1.243 . S
C320 C323 1.399 . S
C320 C324 1.383 . S
C320 C327 1.496 . S
C321 C322 1.399 . S
C321 C324 1.389 . S
C322 C321 1.399 . S
C322 C325 1.380 . S
C322 H332 0.929 . S
C323 C320 1.399 . S
C323 C325 1.392 . S
C323 H333 0.929 . S
C324 C320 1.383 . S
C324 C321 1.389 . S
C324 H334 0.931 . S
C325 C322 1.380 . S
C325 C323 1.392 . S
C325 H335 0.929 . S
C326 O306 1.266 . S
C326 O307 1.248 1_455 S
C327 Tb263 2.802 . S
C327 O302 1.264 . S
C327 O305 1.256 . S
C327 C320 1.496 . S
H328 C311 0.929 . S
H329 C312 0.929 . S
H330 C313 0.929 . S
H331 C314 0.931 . S
H332 C322 0.929 . S
H333 C323 0.929 . S
H334 C324 0.931 . S
H335 C325 0.929 . S
Tb336 N365 2.617 . S
Tb336 N371 2.572 . S
Tb336 O380 2.465 . S
Tb336 O381 2.387 . S
Tb336 O383 2.428 . S
Tb336 O384 2.308 . S
Tb336 O388 2.349 . S
Tb336 O391 2.393 . S
Tb336 C400 2.802 . S
C337 N338 1.379 . S
C337 C340 1.416 . S
C337 C344 1.424 . S
N338 C337 1.379 . S
N338 C341 1.334 . S
N338 Tb347 2.617 . S
C339 C341 1.390 . S
C339 C342 1.339 . S
C339 H359 0.930 . S
C340 C337 1.416 . S
C340 C342 1.416 . S
C340 C346 1.448 . S
C341 N338 1.334 . S
C341 C339 1.390 . S
C341 H352 0.930 . S
C342 C339 1.339 . S
C342 C340 1.416 . S
C342 H363 0.930 . S
C343 C344 1.413 . S
C343 C345 1.427 . S
C343 C349 1.416 . S
C344 C337 1.424 . S
C344 C343 1.413 . S
C344 N348 1.361 . S
C345 C343 1.427 . S
C345 C346 1.328 . S
C345 H360 0.929 . S
C346 C340 1.448 . S
C346 C345 1.328 . S
C346 H361 0.930 . S
Tb347 N338 2.617 . S
Tb347 N348 2.572 . S
Tb347 O382 2.349 . S
Tb347 O385 2.393 . S
Tb347 O386 2.465 . S
Tb347 O387 2.387 . S
Tb347 O389 2.428 . S
Tb347 O390 2.308 . S
Tb347 C411 2.802 . S
N348 C344 1.361 . S
N348 Tb347 2.572 . S
N348 C350 1.340 . S
C349 C343 1.416 . S
C349 C351 1.332 . S
C349 H357 0.931 . S
C350 N348 1.340 . S
C350 C351 1.407 . S
C350 H356 0.930 . S
C351 C349 1.332 . S
C351 C350 1.407 . S
C351 H353 0.929 . S
H352 C341 0.930 . S
H353 C351 0.929 . S
H354 C369 0.930 . S
H355 C376 0.929 . S
H356 C350 0.930 . S
H357 C349 0.931 . S
H358 C372 0.930 . S
H359 C339 0.930 . S
H360 C345 0.929 . S
H361 C346 0.930 . S
H362 C367 0.930 . S
H363 C342 0.930 . S
H364 C375 0.931 . S
N365 Tb336 2.617 . S
N365 C366 1.379 . S
N365 C369 1.334 . S
C366 N365 1.379 . S
C366 C368 1.416 . S
C366 C374 1.424 . S
C367 H362 0.930 . S
C367 C369 1.390 . S
C367 C370 1.339 . S
C368 C366 1.416 . S
C368 C370 1.416 . S
C368 C401 1.448 . S
C369 H354 0.930 . S
C369 N365 1.334 . S
C369 C367 1.390 . S
C370 C367 1.339 . S
C370 C368 1.416 . S
C370 H377 0.930 . S
N371 Tb336 2.572 . S
N371 C372 1.340 . S
N371 C374 1.361 . S
C372 H358 0.930 . S
C372 N371 1.340 . S
C372 C376 1.407 . S
C373 C374 1.413 . S
C373 C375 1.416 . S
C373 C402 1.427 . S
C374 C366 1.424 . S
C374 N371 1.361 . S
C374 C373 1.413 . S
C375 H364 0.931 . S
C375 C373 1.416 . S
C375 C376 1.332 . S
C376 H355 0.929 . S
C376 C372 1.407 . S
C376 C375 1.332 . S
H377 C370 0.930 . S
H378 C401 0.930 . S
H379 C402 0.929 . S
O380 Tb336 2.465 . S
O380 C400 1.264 . S
O381 Tb336 2.387 . S
O381 C392 1.264 . S
O382 Tb347 2.349 . S
O382 C392 1.243 . S
O383 Tb336 2.428 . S
O383 C400 1.256 . S
O384 Tb336 2.308 . S
O384 C399 1.266 . S
O385 Tb347 2.393 . S
O385 C399 1.248 . S
O386 Tb347 2.465 . S
O386 C411 1.264 . S
O387 Tb347 2.387 . S
O387 C403 1.264 . S
O388 Tb336 2.349 . S
O388 C403 1.243 . S
O389 Tb347 2.428 . S
O389 C411 1.256 . S
O390 Tb347 2.308 . S
O390 C410 1.266 . S
O391 Tb336 2.393 . S
O391 C410 1.248 . S
C392 O381 1.264 . S
C392 O382 1.243 . S
C393 C396 1.399 . S
C393 C398 1.383 . S
C393 C400 1.496 . S
C394 C395 1.399 . S
C394 C398 1.389 . S
C395 C394 1.399 . S
C395 C397 1.380 . S
C395 H412 0.929 . S
C396 C393 1.399 . S
C396 C397 1.392 . S
C396 H413 0.929 . S
C397 C395 1.380 . S
C397 C396 1.392 . S
C397 H414 0.929 . S
C398 C393 1.383 . S
C398 C394 1.389 . S
C398 H415 0.931 . S
C399 O384 1.266 . S
C399 O385 1.248 . S
C400 Tb336 2.802 . S
C400 O380 1.264 . S
C400 O383 1.256 . S
C400 C393 1.496 . S
C401 C368 1.448 . S
C401 H378 0.930 . S
C401 C402 1.328 . S
C402 C373 1.427 . S
C402 H379 0.929 . S
C402 C401 1.328 . S
C403 O387 1.264 . S
C403 O388 1.243 . S
C404 C407 1.399 . S
C404 C408 1.383 . S
C404 C411 1.496 . S
C405 C406 1.399 . S
C405 C408 1.389 . S
C406 C405 1.399 . S
C406 C409 1.380 . S
C406 H416 0.929 . S
C407 C404 1.399 . S
C407 C409 1.392 . S
C407 H417 0.929 . S
C408 C404 1.383 . S
C408 C405 1.389 . S
C408 H418 0.931 . S
C409 C406 1.380 . S
C409 C407 1.392 . S
C409 H419 0.929 . S
C410 O390 1.266 . S
C410 O391 1.248 . S
C411 Tb347 2.802 . S
C411 O386 1.264 . S
C411 O389 1.256 . S
C411 C404 1.496 . S
H412 C395 0.929 . S
H413 C396 0.929 . S
H414 C397 0.929 . S
H415 C398 0.931 . S
H416 C406 0.929 . S
H417 C407 0.929 . S
H418 C408 0.931 . S
H419 C409 0.929 . S
Tb420 N449 2.617 . S
Tb420 N455 2.572 . S
Tb420 O464 2.465 . S
Tb420 O465 2.387 1_545 S
Tb420 O467 2.428 . S
Tb420 O468 2.308 . S
Tb420 O472 2.349 . S
Tb420 O475 2.393 . S
Tb420 C484 2.802 . S
C421 N422 1.379 . S
C421 C424 1.416 . S
C421 C428 1.424 . S
N422 C421 1.379 . S
N422 C425 1.334 . S
N422 Tb431 2.617 . S
C423 C425 1.390 . S
C423 C426 1.339 . S
C423 H443 0.930 . S
C424 C421 1.416 . S
C424 C426 1.416 . S
C424 C430 1.448 . S
C425 N422 1.334 . S
C425 C423 1.390 . S
C425 H436 0.930 . S
C426 C423 1.339 . S
C426 C424 1.416 . S
C426 H447 0.930 . S
C427 C428 1.413 . S
C427 C429 1.427 . S
C427 C433 1.416 . S
C428 C421 1.424 . S
C428 C427 1.413 . S
C428 N432 1.361 . S
C429 C427 1.427 . S
C429 C430 1.328 . S
C429 H444 0.929 . S
C430 C424 1.448 . S
C430 C429 1.328 . S
C430 H445 0.930 . S
Tb431 N422 2.617 . S
Tb431 N432 2.572 . S
Tb431 O466 2.349 1_545 S
Tb431 O469 2.393 . S
Tb431 O470 2.465 1_545 S
Tb431 O471 2.387 . S
Tb431 O473 2.428 1_545 S
Tb431 O474 2.308 . S
Tb431 C495 2.802 1_545 S
N432 C428 1.361 . S
N432 Tb431 2.572 . S
N432 C434 1.340 . S
C433 C427 1.416 . S
C433 C435 1.332 . S
C433 H441 0.931 . S
C434 N432 1.340 . S
C434 C435 1.407 . S
C434 H440 0.930 . S
C435 C433 1.332 . S
C435 C434 1.407 . S
C435 H437 0.929 . S
H436 C425 0.930 . S
H437 C435 0.929 . S
H438 C453 0.930 . S
H439 C460 0.929 . S
H440 C434 0.930 . S
H441 C433 0.931 . S
H442 C456 0.930 . S
H443 C423 0.930 . S
H444 C429 0.929 . S
H445 C430 0.930 . S
H446 C451 0.930 . S
H447 C426 0.930 . S
H448 C459 0.931 . S
N449 Tb420 2.617 . S
N449 C450 1.379 . S
N449 C453 1.334 . S
C450 N449 1.379 . S
C450 C452 1.416 . S
C450 C458 1.424 . S
C451 H446 0.930 . S
C451 C453 1.390 . S
C451 C454 1.339 . S
C452 C450 1.416 . S
C452 C454 1.416 . S
C452 C485 1.448 1_545 S
C453 H438 0.930 . S
C453 N449 1.334 . S
C453 C451 1.390 . S
C454 C451 1.339 . S
C454 C452 1.416 . S
C454 H461 0.930 1_545 S
N455 Tb420 2.572 . S
N455 C456 1.340 . S
N455 C458 1.361 . S
C456 H442 0.930 . S
C456 N455 1.340 . S
C456 C460 1.407 . S
C457 C458 1.413 . S
C457 C459 1.416 . S
C457 C486 1.427 1_545 S
C458 C450 1.424 . S
C458 N455 1.361 . S
C458 C457 1.413 . S
C459 H448 0.931 . S
C459 C457 1.416 . S
C459 C460 1.332 . S
C460 H439 0.929 . S
C460 C456 1.407 . S
C460 C459 1.332 . S
H461 C454 0.930 1_565 S
H462 C485 0.930 . S
H463 C486 0.929 . S
O464 Tb420 2.465 . S
O464 C484 1.264 . S
O465 Tb420 2.387 1_565 S
O465 C476 1.264 . S
O466 Tb431 2.349 1_565 S
O466 C476 1.243 . S
O467 Tb420 2.428 . S
O467 C484 1.256 . S
O468 Tb420 2.308 . S
O468 C483 1.266 . S
O469 Tb431 2.393 . S
O469 C483 1.248 . S
O470 Tb431 2.465 1_565 S
O470 C495 1.264 . S
O471 Tb431 2.387 . S
O471 C487 1.264 . S
O472 Tb420 2.349 . S
O472 C487 1.243 . S
O473 Tb431 2.428 1_565 S
O473 C495 1.256 . S
O474 Tb431 2.308 . S
O474 C494 1.266 . S
O475 Tb420 2.393 . S
O475 C494 1.248 . S
C476 O465 1.264 . S
C476 O466 1.243 . S
C477 C480 1.399 . S
C477 C482 1.383 . S
C477 C484 1.496 . S
C478 C479 1.399 . S
C478 C482 1.389 . S
C479 C478 1.399 . S
C479 C481 1.380 . S
C479 H496 0.929 . S
C480 C477 1.399 . S
C480 C481 1.392 . S
C480 H497 0.929 . S
C481 C479 1.380 . S
C481 C480 1.392 . S
C481 H498 0.929 . S
C482 C477 1.383 . S
C482 C478 1.389 . S
C482 H499 0.931 . S
C483 O468 1.266 . S
C483 O469 1.248 . S
C484 Tb420 2.802 . S
C484 O464 1.264 . S
C484 O467 1.256 . S
C484 C477 1.496 . S
C485 C452 1.448 1_565 S
C485 H462 0.930 . S
C485 C486 1.328 . S
C486 C457 1.427 1_565 S
C486 H463 0.929 . S
C486 C485 1.328 . S
C487 O471 1.264 . S
C487 O472 1.243 . S
C488 C491 1.399 . S
C488 C492 1.383 . S
C488 C495 1.496 . S
C489 C490 1.399 . S
C489 C492 1.389 . S
C490 C489 1.399 . S
C490 C493 1.380 . S
C490 H500 0.929 . S
C491 C488 1.399 . S
C491 C493 1.392 . S
C491 H501 0.929 . S
C492 C488 1.383 . S
C492 C489 1.389 . S
C492 H502 0.931 . S
C493 C490 1.380 . S
C493 C491 1.392 . S
C493 H503 0.929 . S
C494 O474 1.266 . S
C494 O475 1.248 . S
C495 Tb431 2.802 1_565 S
C495 O470 1.264 . S
C495 O473 1.256 . S
C495 C488 1.496 . S
H496 C479 0.929 . S
H497 C480 0.929 . S
H498 C481 0.929 . S
H499 C482 0.931 . S
H500 C490 0.929 . S
H501 C491 0.929 . S
H502 C492 0.931 . S
H503 C493 0.929 . S
Tb504 N533 2.617 . S
Tb504 N539 2.572 . S
Tb504 O548 2.465 . S
Tb504 O549 2.387 . S
Tb504 O551 2.428 . S
Tb504 O552 2.308 . S
Tb504 O556 2.349 . S
Tb504 O559 2.393 . S
Tb504 C568 2.802 . S
C505 N506 1.379 . S
C505 C508 1.416 . S
C505 C512 1.424 . S
N506 C505 1.379 . S
N506 C509 1.334 . S
N506 Tb515 2.617 . S
C507 C509 1.390 . S
C507 C510 1.339 . S
C507 H527 0.930 . S
C508 C505 1.416 . S
C508 C510 1.416 . S
C508 C514 1.448 . S
C509 N506 1.334 . S
C509 C507 1.390 . S
C509 H520 0.930 . S
C510 C507 1.339 . S
C510 C508 1.416 . S
C510 H531 0.930 . S
C511 C512 1.413 . S
C511 C513 1.427 . S
C511 C517 1.416 . S
C512 C505 1.424 . S
C512 C511 1.413 . S
C512 N516 1.361 . S
C513 C511 1.427 . S
C513 C514 1.328 . S
C513 H528 0.929 . S
C514 C508 1.448 . S
C514 C513 1.328 . S
C514 H529 0.930 . S
Tb515 N506 2.617 . S
Tb515 N516 2.572 . S
Tb515 O550 2.349 . S
Tb515 O553 2.393 . S
Tb515 O554 2.465 . S
Tb515 O555 2.387 . S
Tb515 O557 2.428 . S
Tb515 O558 2.308 . S
Tb515 C579 2.802 . S
N516 C512 1.361 . S
N516 Tb515 2.572 . S
N516 C518 1.340 . S
C517 C511 1.416 . S
C517 C519 1.332 . S
C517 H525 0.931 . S
C518 N516 1.340 . S
C518 C519 1.407 . S
C518 H524 0.930 . S
C519 C517 1.332 . S
C519 C518 1.407 . S
C519 H521 0.929 . S
H520 C509 0.930 . S
H521 C519 0.929 . S
H522 C537 0.930 . S
H523 C544 0.929 . S
H524 C518 0.930 . S
H525 C517 0.931 . S
H526 C540 0.930 . S
H527 C507 0.930 . S
H528 C513 0.929 . S
H529 C514 0.930 . S
H530 C535 0.930 . S
H531 C510 0.930 . S
H532 C543 0.931 1_655 S
N533 Tb504 2.617 . S
N533 C534 1.379 . S
N533 C537 1.334 . S
C534 N533 1.379 . S
C534 C536 1.416 . S
C534 C542 1.424 . S
C535 H530 0.930 . S
C535 C537 1.390 . S
C535 C538 1.339 . S
C536 C534 1.416 . S
C536 C538 1.416 . S
C536 C569 1.448 . S
C537 H522 0.930 . S
C537 N533 1.334 . S
C537 C535 1.390 . S
C538 C535 1.339 . S
C538 C536 1.416 . S
C538 H545 0.930 . S
N539 Tb504 2.572 . S
N539 C540 1.340 . S
N539 C542 1.361 . S
C540 H526 0.930 . S
C540 N539 1.340 . S
C540 C544 1.407 . S
C541 C542 1.413 . S
C541 C543 1.416 . S
C541 C570 1.427 . S
C542 C534 1.424 . S
C542 N539 1.361 . S
C542 C541 1.413 . S
C543 H532 0.931 1_455 S
C543 C541 1.416 . S
C543 C544 1.332 . S
C544 H523 0.929 . S
C544 C540 1.407 . S
C544 C543 1.332 . S
H545 C538 0.930 . S
H546 C569 0.930 . S
H547 C570 0.929 1_655 S
O548 Tb504 2.465 . S
O548 C568 1.264 . S
O549 Tb504 2.387 . S
O549 C560 1.264 . S
O550 Tb515 2.349 . S
O550 C560 1.243 . S
O551 Tb504 2.428 . S
O551 C568 1.256 . S
O552 Tb504 2.308 . S
O552 C567 1.266 . S
O553 Tb515 2.393 . S
O553 C567 1.248 . S
O554 Tb515 2.465 . S
O554 C579 1.264 . S
O555 Tb515 2.387 . S
O555 C571 1.264 . S
O556 Tb504 2.349 . S
O556 C571 1.243 . S
O557 Tb515 2.428 . S
O557 C579 1.256 . S
O558 Tb515 2.308 . S
O558 C578 1.266 . S
O559 Tb504 2.393 . S
O559 C578 1.248 . S
C560 O549 1.264 . S
C560 O550 1.243 . S
C561 C564 1.399 . S
C561 C566 1.383 1_455 S
C561 C568 1.496 . S
C562 C563 1.399 . S
C562 C566 1.389 . S
C563 C562 1.399 . S
C563 C565 1.380 . S
C563 H580 0.929 . S
C564 C561 1.399 . S
C564 C565 1.392 1_455 S
C564 H581 0.929 . S
C565 C563 1.380 . S
C565 C564 1.392 1_655 S
C565 H582 0.929 . S
C566 C561 1.383 1_655 S
C566 C562 1.389 . S
C566 H583 0.931 1_655 S
C567 O552 1.266 . S
C567 O553 1.248 . S
C568 Tb504 2.802 . S
C568 O548 1.264 . S
C568 O551 1.256 . S
C568 C561 1.496 . S
C569 C536 1.448 . S
C569 H546 0.930 . S
C569 C570 1.328 . S
C570 C541 1.427 . S
C570 H547 0.929 1_455 S
C570 C569 1.328 . S
C571 O555 1.264 . S
C571 O556 1.243 . S
C572 C575 1.399 . S
C572 C576 1.383 . S
C572 C579 1.496 . S
C573 C574 1.399 . S
C573 C576 1.389 . S
C574 C573 1.399 . S
C574 C577 1.380 . S
C574 H584 0.929 . S
C575 C572 1.399 . S
C575 C577 1.392 . S
C575 H585 0.929 . S
C576 C572 1.383 . S
C576 C573 1.389 . S
C576 H586 0.931 . S
C577 C574 1.380 . S
C577 C575 1.392 . S
C577 H587 0.929 . S
C578 O558 1.266 . S
C578 O559 1.248 . S
C579 Tb515 2.802 . S
C579 O554 1.264 . S
C579 O557 1.256 . S
C579 C572 1.496 . S
H580 C563 0.929 . S
H581 C564 0.929 . S
H582 C565 0.929 . S
H583 C566 0.931 1_455 S
H584 C574 0.929 . S
H585 C575 0.929 . S
H586 C576 0.931 . S
H587 C577 0.929 . S
Tb588 N617 2.617 . S
Tb588 N623 2.572 . S
Tb588 O632 2.465 . S
Tb588 O633 2.387 . S
Tb588 O635 2.428 . S
Tb588 O636 2.308 . S
Tb588 O640 2.349 . S
Tb588 O643 2.393 . S
Tb588 C652 2.802 . S
C589 N590 1.379 . S
C589 C592 1.416 . S
C589 C596 1.424 . S
N590 C589 1.379 . S
N590 C593 1.334 . S
N590 Tb599 2.617 . S
C591 C593 1.390 . S
C591 C594 1.339 . S
C591 H611 0.930 . S
C592 C589 1.416 . S
C592 C594 1.416 . S
C592 C598 1.448 1_565 S
C593 N590 1.334 . S
C593 C591 1.390 . S
C593 H604 0.930 . S
C594 C591 1.339 . S
C594 C592 1.416 . S
C594 H615 0.930 . S
C595 C596 1.413 1_545 S
C595 C597 1.427 . S
C595 C601 1.416 . S
C596 C589 1.424 . S
C596 C595 1.413 1_565 S
C596 N600 1.361 . S
C597 C595 1.427 . S
C597 C598 1.328 . S
C597 H612 0.929 . S
C598 C592 1.448 1_545 S
C598 C597 1.328 . S
C598 H613 0.930 . S
Tb599 N590 2.617 . S
Tb599 N600 2.572 . S
Tb599 O634 2.349 . S
Tb599 O637 2.393 . S
Tb599 O638 2.465 . S
Tb599 O639 2.387 . S
Tb599 O641 2.428 . S
Tb599 O642 2.308 . S
Tb599 C663 2.802 . S
N600 C596 1.361 . S
N600 Tb599 2.572 . S
N600 C602 1.340 . S
C601 C595 1.416 . S
C601 C603 1.332 1_545 S
C601 H609 0.931 . S
C602 N600 1.340 . S
C602 C603 1.407 . S
C602 H608 0.930 . S
C603 C601 1.332 1_565 S
C603 C602 1.407 . S
C603 H605 0.941 . S
H604 C593 0.930 . S
H605 C603 0.941 . S
H606 C621 0.930 . S
H607 C628 0.929 . S
H608 C602 0.930 . S
H609 C601 0.931 . S
H610 C624 0.930 . S
H611 C591 0.930 . S
H612 C597 0.929 . S
H613 C598 0.930 . S
H614 C619 0.930 . S
H615 C594 0.930 . S
H616 C627 0.931 . S
N617 Tb588 2.617 . S
N617 C618 1.379 . S
N617 C621 1.334 . S
C618 N617 1.379 . S
C618 C620 1.416 . S
C618 C626 1.424 . S
C619 H614 0.930 . S
C619 C621 1.390 . S
C619 C622 1.339 . S
C620 C618 1.416 . S
C620 C622 1.416 . S
C620 C653 1.448 . S
C621 H606 0.930 . S
C621 N617 1.334 . S
C621 C619 1.390 . S
C622 C619 1.339 . S
C622 C620 1.416 . S
C622 H629 0.930 . S
N623 Tb588 2.572 . S
N623 C624 1.340 . S
N623 C626 1.361 . S
C624 H610 0.930 . S
C624 N623 1.340 . S
C624 C628 1.407 . S
C625 C626 1.413 . S
C625 C627 1.416 . S
C625 C654 1.427 . S
C626 C618 1.424 . S
C626 N623 1.361 . S
C626 C625 1.413 . S
C627 H616 0.931 . S
C627 C625 1.416 . S
C627 C628 1.332 . S
C628 H607 0.929 . S
C628 C624 1.407 . S
C628 C627 1.332 . S
H629 C622 0.930 . S
H630 C653 0.930 . S
H631 C654 0.929 . S
O632 Tb588 2.465 . S
O632 C652 1.264 . S
O633 Tb588 2.387 . S
O633 C644 1.264 . S
O634 Tb599 2.349 . S
O634 C644 1.243 . S
O635 Tb588 2.428 . S
O635 C652 1.256 . S
O636 Tb588 2.308 . S
O636 C651 1.266 . S
O637 Tb599 2.393 . S
O637 C651 1.248 . S
O638 Tb599 2.465 . S
O638 C663 1.264 . S
O639 Tb599 2.387 . S
O639 C655 1.264 . S
O640 Tb588 2.349 . S
O640 C655 1.243 . S
O641 Tb599 2.428 . S
O641 C663 1.256 . S
O642 Tb599 2.308 . S
O642 C662 1.266 . S
O643 Tb588 2.393 . S
O643 C662 1.248 . S
C644 O633 1.264 . S
C644 O634 1.243 . S
C645 C648 1.399 . S
C645 C650 1.383 . S
C645 C652 1.496 . S
C646 C647 1.399 . S
C646 C650 1.389 . S
C647 C646 1.399 . S
C647 C649 1.380 . S
C647 H664 0.929 . S
C648 C645 1.399 . S
C648 C649 1.392 . S
C648 H665 0.929 . S
C649 C647 1.380 . S
C649 C648 1.392 . S
C649 H666 0.929 . S
C650 C645 1.383 . S
C650 C646 1.389 . S
C650 H667 0.931 . S
C651 O636 1.266 . S
C651 O637 1.248 . S
C652 Tb588 2.802 . S
C652 O632 1.264 . S
C652 O635 1.256 . S
C652 C645 1.496 . S
C653 C620 1.448 . S
C653 H630 0.930 . S
C653 C654 1.328 . S
C654 C625 1.427 . S
C654 H631 0.929 . S
C654 C653 1.328 . S
C655 O639 1.264 . S
C655 O640 1.243 . S
C656 C659 1.399 . S
C656 C660 1.383 . S
C656 C663 1.496 . S
C657 C658 1.399 . S
C657 C660 1.389 . S
C658 C657 1.399 . S
C658 C661 1.380 . S
C658 H668 0.929 . S
C659 C656 1.399 . S
C659 C661 1.392 . S
C659 H669 0.929 . S
C660 C656 1.383 . S
C660 C657 1.389 . S
C660 H670 0.931 . S
C661 C658 1.380 . S
C661 C659 1.392 . S
C661 H671 0.929 . S
C662 O642 1.266 . S
C662 O643 1.248 . S
C663 Tb599 2.802 . S
C663 O638 1.264 . S
C663 O641 1.256 . S
C663 C656 1.496 . S
H664 C647 0.929 . S
H665 C648 0.929 . S
H666 C649 0.929 . S
H667 C650 0.931 . S
H668 C658 0.929 . S
H669 C659 0.929 . S
H670 C660 0.931 . S
H671 C661 0.929 . S
Tb672 N701 2.617 . S
Tb672 N707 2.572 . S
Tb672 O716 2.465 . S
Tb672 O717 2.387 . S
Tb672 O719 2.428 . S
Tb672 O720 2.308 . S
Tb672 O724 2.349 . S
Tb672 O727 2.393 . S
Tb672 C736 2.802 . S
C673 N674 1.379 . S
C673 C676 1.416 . S
C673 C680 1.424 . S
N674 C673 1.379 . S
N674 C677 1.334 . S
N674 Tb683 2.617 . S
C675 C677 1.390 . S
C675 C678 1.339 . S
C675 H695 0.930 . S
C676 C673 1.416 . S
C676 C678 1.416 . S
C676 C682 1.448 . S
C677 N674 1.334 . S
C677 C675 1.390 . S
C677 H688 0.930 . S
C678 C675 1.339 . S
C678 C676 1.416 . S
C678 H699 0.930 . S
C679 C680 1.413 . S
C679 C681 1.427 . S
C679 C685 1.416 . S
C680 C673 1.424 . S
C680 C679 1.413 . S
C680 N684 1.361 . S
C681 C679 1.427 . S
C681 C682 1.328 . S
C681 H696 0.929 1_455 S
C682 C676 1.448 . S
C682 C681 1.328 . S
C682 H697 0.930 1_455 S
Tb683 N674 2.617 . S
Tb683 N684 2.572 . S
Tb683 O718 2.349 . S
Tb683 O721 2.393 . S
Tb683 O722 2.465 . S
Tb683 O723 2.387 . S
Tb683 O725 2.428 . S
Tb683 O726 2.308 . S
Tb683 C747 2.802 . S
N684 C680 1.361 . S
N684 Tb683 2.572 . S
N684 C686 1.340 . S
C685 C679 1.416 . S
C685 C687 1.332 . S
C685 H693 0.931 1_455 S
C686 N684 1.340 . S
C686 C687 1.407 . S
C686 H692 0.930 . S
C687 C685 1.332 . S
C687 C686 1.407 . S
C687 H689 0.929 . S
H688 C677 0.930 . S
H689 C687 0.929 . S
H690 C705 0.930 . S
H691 C712 0.929 . S
H692 C686 0.930 . S
H693 C685 0.931 1_655 S
H694 C708 0.930 . S
H695 C675 0.930 . S
H696 C681 0.929 1_655 S
H697 C682 0.930 1_655 S
H698 C703 0.930 . S
H699 C678 0.930 . S
H700 C711 0.931 . S
N701 Tb672 2.617 . S
N701 C702 1.379 . S
N701 C705 1.334 . S
C702 N701 1.379 . S
C702 C704 1.416 . S
C702 C710 1.424 . S
C703 H698 0.930 . S
C703 C705 1.390 . S
C703 C706 1.339 . S
C704 C702 1.416 . S
C704 C706 1.416 . S
C704 C737 1.448 1_565 S
C705 H690 0.930 . S
C705 N701 1.334 . S
C705 C703 1.390 . S
C706 C703 1.339 . S
C706 C704 1.416 . S
C706 H713 0.930 . S
N707 Tb672 2.572 . S
N707 C708 1.340 . S
N707 C710 1.361 . S
C708 H694 0.930 . S
C708 N707 1.340 . S
C708 C712 1.407 1_565 S
C709 C710 1.413 1_545 S
C709 C711 1.416 . S
C709 C738 1.427 . S
C710 C702 1.424 . S
C710 N707 1.361 . S
C710 C709 1.413 1_565 S
C711 H700 0.931 . S
C711 C709 1.416 . S
C711 C712 1.332 . S
C712 H691 0.929 . S
C712 C708 1.407 1_545 S
C712 C711 1.332 . S
H713 C706 0.930 . S
H714 C737 0.930 . S
H715 C738 0.929 . S
O716 Tb672 2.465 . S
O716 C736 1.264 . S
O717 Tb672 2.387 . S
O717 C728 1.264 . S
O718 Tb683 2.349 . S
O718 C728 1.243 . S
O719 Tb672 2.428 . S
O719 C736 1.256 . S
O720 Tb672 2.308 . S
O720 C735 1.266 . S
O721 Tb683 2.393 . S
O721 C735 1.248 . S
O722 Tb683 2.465 . S
O722 C747 1.264 . S
O723 Tb683 2.387 . S
O723 C739 1.264 . S
O724 Tb672 2.349 . S
O724 C739 1.243 . S
O725 Tb683 2.428 . S
O725 C747 1.256 . S
O726 Tb683 2.308 . S
O726 C746 1.266 . S
O727 Tb672 2.393 . S
O727 C746 1.248 . S
C728 O717 1.264 . S
C728 O718 1.243 . S
C729 C732 1.399 . S
C729 C734 1.383 . S
C729 C736 1.496 1_545 S
C730 C731 1.399 . S
C730 C734 1.389 . S
C731 C730 1.399 . S
C731 C733 1.380 . S
C731 H748 0.929 . S
C732 C729 1.399 . S
C732 C733 1.392 . S
C732 H749 0.929 . S
C733 C731 1.380 . S
C733 C732 1.392 . S
C733 H750 0.929 . S
C734 C729 1.383 . S
C734 C730 1.389 . S
C734 H751 0.931 . S
C735 O720 1.266 . S
C735 O721 1.248 . S
C736 Tb672 2.802 . S
C736 O716 1.264 . S
C736 O719 1.256 . S
C736 C729 1.496 1_565 S
C737 C704 1.448 1_545 S
C737 H714 0.930 . S
C737 C738 1.328 . S
C738 C709 1.427 . S
C738 H715 0.929 . S
C738 C737 1.328 . S
C739 O723 1.264 . S
C739 O724 1.243 . S
C740 C743 1.399 . S
C740 C744 1.383 . S
C740 C747 1.496 . S
C741 C742 1.399 . S
C741 C744 1.389 . S
C742 C741 1.399 . S
C742 C745 1.380 . S
C742 H752 0.929 . S
C743 C740 1.399 . S
C743 C745 1.392 . S
C743 H753 0.929 . S
C744 C740 1.383 . S
C744 C741 1.389 . S
C744 H754 0.931 . S
C745 C742 1.380 . S
C745 C743 1.392 . S
C745 H755 0.929 . S
C746 O726 1.266 . S
C746 O727 1.248 . S
C747 Tb683 2.802 . S
C747 O722 1.264 . S
C747 O725 1.256 . S
C747 C740 1.496 . S
H748 C731 0.929 . S
H749 C732 0.929 . S
H750 C733 0.929 . S
H751 C734 0.931 . S
H752 C742 0.929 . S
H753 C743 0.929 . S
H754 C744 0.931 . S
H755 C745 0.929 . S
Tb756 N785 2.617 . S
Tb756 N791 2.572 . S
Tb756 O800 2.465 . S
Tb756 O801 2.387 . S
Tb756 O803 2.428 . S
Tb756 O804 2.308 . S
Tb756 O808 2.349 . S
Tb756 O811 2.393 . S
Tb756 C820 2.802 . S
C757 N758 1.379 . S
C757 C760 1.416 . S
C757 C764 1.424 . S
N758 C757 1.379 . S
N758 C761 1.334 . S
N758 Tb767 2.617 . S
C759 C761 1.390 . S
C759 C762 1.339 . S
C759 H779 0.930 . S
C760 C757 1.416 . S
C760 C762 1.416 . S
C760 C766 1.448 . S
C761 N758 1.334 . S
C761 C759 1.390 . S
C761 H772 0.930 . S
C762 C759 1.339 . S
C762 C760 1.416 . S
C762 H783 0.930 . S
C763 C764 1.413 . S
C763 C765 1.427 . S
C763 C769 1.416 . S
C764 C757 1.424 . S
C764 C763 1.413 . S
C764 N768 1.361 . S
C765 C763 1.427 . S
C765 C766 1.328 . S
C765 H780 0.929 1_565 S
C766 C760 1.448 . S
C766 C765 1.328 . S
C766 H781 0.930 . S
Tb767 N758 2.617 . S
Tb767 N768 2.572 . S
Tb767 O802 2.349 . S
Tb767 O805 2.393 . S
Tb767 O806 2.465 . S
Tb767 O807 2.387 . S
Tb767 O809 2.428 . S
Tb767 O810 2.308 . S
Tb767 C831 2.802 . S
N768 C764 1.361 . S
N768 Tb767 2.572 . S
N768 C770 1.340 . S
C769 C763 1.416 . S
C769 C771 1.332 . S
C769 H777 0.931 1_565 S
C770 N768 1.340 . S
C770 C771 1.407 . S
C770 H776 0.930 . S
C771 C769 1.332 . S
C771 C770 1.407 . S
C771 H773 0.929 . S
H772 C761 0.930 . S
H773 C771 0.929 . S
H774 C789 0.930 . S
H775 C796 0.929 . S
H776 C770 0.930 . S
H777 C769 0.931 1_545 S
H778 C792 0.930 . S
H779 C759 0.930 . S
H780 C765 0.929 1_545 S
H781 C766 0.930 . S
H782 C787 0.930 . S
H783 C762 0.930 . S
H784 C795 0.931 . S
N785 Tb756 2.617 . S
N785 C786 1.379 . S
N785 C789 1.334 . S
C786 N785 1.379 . S
C786 C788 1.416 . S
C786 C794 1.424 . S
C787 H782 0.930 . S
C787 C789 1.390 . S
C787 C790 1.339 . S
C788 C786 1.416 . S
C788 C790 1.416 . S
C788 C821 1.448 . S
C789 H774 0.930 . S
C789 N785 1.334 . S
C789 C787 1.390 . S
C790 C787 1.339 . S
C790 C788 1.416 . S
C790 H797 0.930 . S
N791 Tb756 2.572 . S
N791 C792 1.340 . S
N791 C794 1.361 . S
C792 H778 0.930 . S
C792 N791 1.340 . S
C792 C796 1.407 . S
C793 C794 1.413 . S
C793 C795 1.416 . S
C793 C822 1.427 . S
C794 C786 1.424 . S
C794 N791 1.361 . S
C794 C793 1.413 . S
C795 H784 0.931 . S
C795 C793 1.416 . S
C795 C796 1.332 . S
C796 H775 0.929 . S
C796 C792 1.407 . S
C796 C795 1.332 . S
H797 C790 0.930 . S
H798 C821 0.930 . S
H799 C822 0.929 . S
O800 Tb756 2.465 . S
O800 C820 1.264 . S
O801 Tb756 2.387 . S
O801 C812 1.264 . S
O802 Tb767 2.349 . S
O802 C812 1.243 . S
O803 Tb756 2.428 . S
O803 C820 1.256 . S
O804 Tb756 2.308 . S
O804 C819 1.266 . S
O805 Tb767 2.393 . S
O805 C819 1.248 . S
O806 Tb767 2.465 . S
O806 C831 1.264 . S
O807 Tb767 2.387 . S
O807 C823 1.264 . S
O808 Tb756 2.349 . S
O808 C823 1.243 . S
O809 Tb767 2.428 . S
O809 C831 1.256 . S
O810 Tb767 2.308 . S
O810 C830 1.266 . S
O811 Tb756 2.393 . S
O811 C830 1.248 . S
C812 O801 1.264 . S
C812 O802 1.243 . S
C813 C816 1.399 . S
C813 C818 1.383 . S
C813 C820 1.496 . S
C814 C815 1.399 . S
C814 C818 1.389 . S
C815 C814 1.399 . S
C815 C817 1.380 . S
C815 H832 0.929 . S
C816 C813 1.399 . S
C816 C817 1.392 . S
C816 H833 0.929 . S
C817 C815 1.380 . S
C817 C816 1.392 . S
C817 H834 0.929 . S
C818 C813 1.383 . S
C818 C814 1.389 . S
C818 H835 0.931 . S
C819 O804 1.266 . S
C819 O805 1.248 . S
C820 Tb756 2.802 . S
C820 O800 1.264 . S
C820 O803 1.256 . S
C820 C813 1.496 . S
C821 C788 1.448 . S
C821 H798 0.930 . S
C821 C822 1.328 . S
C822 C793 1.427 . S
C822 H799 0.929 . S
C822 C821 1.328 . S
C823 O807 1.264 . S
C823 O808 1.243 . S
C824 C827 1.399 . S
C824 C828 1.383 1_565 S
C824 C831 1.496 . S
C825 C826 1.399 . S
C825 C828 1.389 . S
C826 C825 1.399 . S
C826 C829 1.380 . S
C826 H836 0.929 . S
C827 C824 1.399 . S
C827 C829 1.392 1_565 S
C827 H837 0.929 . S
C828 C824 1.383 1_545 S
C828 C825 1.389 . S
C828 H838 0.931 1_545 S
C829 C826 1.380 . S
C829 C827 1.392 1_545 S
C829 H839 0.929 . S
C830 O810 1.266 . S
C830 O811 1.248 . S
C831 Tb767 2.802 . S
C831 O806 1.264 . S
C831 O809 1.256 . S
C831 C824 1.496 . S
H832 C815 0.929 . S
H833 C816 0.929 . S
H834 C817 0.929 . S
H835 C818 0.931 . S
H836 C826 0.929 . S
H837 C827 0.929 . S
H838 C828 0.931 1_565 S
H839 C829 0.929 . S
Tb840 N869 2.617 . S
Tb840 N875 2.572 . S
Tb840 O884 2.465 . S
Tb840 O885 2.387 . S
Tb840 O887 2.428 . S
Tb840 O888 2.308 . S
Tb840 O892 2.349 . S
Tb840 O895 2.393 . S
Tb840 C904 2.802 . S
C841 N842 1.379 . S
C841 C844 1.416 . S
C841 C848 1.424 . S
N842 C841 1.379 . S
N842 C845 1.334 . S
N842 Tb851 2.617 . S
C843 C845 1.390 . S
C843 C846 1.339 . S
C843 H863 0.930 . S
C844 C841 1.416 . S
C844 C846 1.416 . S
C844 C850 1.448 . S
C845 N842 1.334 . S
C845 C843 1.390 . S
C845 H856 0.930 . S
C846 C843 1.339 . S
C846 C844 1.416 . S
C846 H867 0.930 . S
C847 C848 1.413 . S
C847 C849 1.427 . S
C847 C853 1.416 . S
C848 C841 1.424 . S
C848 C847 1.413 . S
C848 N852 1.361 . S
C849 C847 1.427 . S
C849 C850 1.328 . S
C849 H864 0.929 . S
C850 C844 1.448 . S
C850 C849 1.328 . S
C850 H865 0.930 . S
Tb851 N842 2.617 . S
Tb851 N852 2.572 . S
Tb851 O886 2.349 . S
Tb851 O889 2.393 . S
Tb851 O890 2.465 . S
Tb851 O891 2.387 . S
Tb851 O893 2.428 . S
Tb851 O894 2.308 . S
Tb851 C915 2.802 . S
N852 C848 1.361 . S
N852 Tb851 2.572 . S
N852 C854 1.340 . S
C853 C847 1.416 . S
C853 C855 1.332 . S
C853 H861 0.931 . S
C854 N852 1.340 . S
C854 C855 1.407 . S
C854 H860 0.930 . S
C855 C853 1.332 . S
C855 C854 1.407 . S
C855 H857 0.929 . S
H856 C845 0.930 . S
H857 C855 0.929 . S
H858 C873 0.930 . S
H859 C880 0.929 . S
H860 C854 0.930 . S
H861 C853 0.931 . S
H862 C876 0.930 . S
H863 C843 0.930 . S
H864 C849 0.929 . S
H865 C850 0.930 . S
H866 C871 0.930 . S
H867 C846 0.930 . S
H868 C879 0.931 . S
N869 Tb840 2.617 . S
N869 C870 1.379 . S
N869 C873 1.334 . S
C870 N869 1.379 . S
C870 C872 1.416 . S
C870 C878 1.424 . S
C871 H866 0.930 . S
C871 C873 1.390 . S
C871 C874 1.339 . S
C872 C870 1.416 . S
C872 C874 1.416 . S
C872 C905 1.448 1_565 S
C873 H858 0.930 . S
C873 N869 1.334 . S
C873 C871 1.390 . S
C874 C871 1.339 . S
C874 C872 1.416 . S
C874 H881 0.930 1_565 S
N875 Tb840 2.572 . S
N875 C876 1.340 . S
N875 C878 1.361 . S
C876 H862 0.930 . S
C876 N875 1.340 . S
C876 C880 1.407 1_565 S
C877 C878 1.413 1_545 S
C877 C879 1.416 . S
C877 C906 1.427 . S
C878 C870 1.424 . S
C878 N875 1.361 . S
C878 C877 1.413 1_565 S
C879 H868 0.931 . S
C879 C877 1.416 . S
C879 C880 1.332 . S
C880 H859 0.929 . S
C880 C876 1.407 1_545 S
C880 C879 1.332 . S
H881 C874 0.930 1_545 S
H882 C905 0.930 . S
H883 C906 0.929 . S
O884 Tb840 2.465 . S
O884 C904 1.264 . S
O885 Tb840 2.387 . S
O885 C896 1.264 . S
O886 Tb851 2.349 . S
O886 C896 1.243 . S
O887 Tb840 2.428 . S
O887 C904 1.256 . S
O888 Tb840 2.308 . S
O888 C903 1.266 . S
O889 Tb851 2.393 . S
O889 C903 1.248 . S
O890 Tb851 2.465 . S
O890 C915 1.264 . S
O891 Tb851 2.387 . S
O891 C907 1.264 . S
O892 Tb840 2.349 . S
O892 C907 1.243 . S
O893 Tb851 2.428 . S
O893 C915 1.256 . S
O894 Tb851 2.308 . S
O894 C914 1.266 . S
O895 Tb840 2.393 . S
O895 C914 1.248 . S
C896 O885 1.264 . S
C896 O886 1.243 . S
C897 C900 1.399 . S
C897 C902 1.383 . S
C897 C904 1.496 . S
C898 C899 1.399 . S
C898 C902 1.389 . S
C899 C898 1.399 . S
C899 C901 1.380 . S
C899 H916 0.929 . S
C900 C897 1.399 . S
C900 C901 1.392 . S
C900 H917 0.929 . S
C901 C899 1.380 . S
C901 C900 1.392 . S
C901 H918 0.929 . S
C902 C897 1.383 . S
C902 C898 1.389 . S
C902 H919 0.931 . S
C903 O888 1.266 . S
C903 O889 1.248 . S
C904 Tb840 2.802 . S
C904 O884 1.264 . S
C904 O887 1.256 . S
C904 C897 1.496 . S
C905 C872 1.448 1_545 S
C905 H882 0.930 . S
C905 C906 1.328 . S
C906 C877 1.427 . S
C906 H883 0.929 . S
C906 C905 1.328 . S
C907 O891 1.264 . S
C907 O892 1.243 . S
C908 C911 1.399 . S
C908 C912 1.383 . S
C908 C915 1.496 . S
C909 C910 1.393 1_455 S
C909 C912 1.403 . S
C910 C909 1.393 1_655 S
C910 C913 1.380 1_655 S
C910 H920 0.929 . S
C911 C908 1.399 . S
C911 C913 1.392 . S
C911 H921 0.929 . S
C912 C908 1.383 . S
C912 C909 1.403 . S
C912 H922 0.931 . S
C913 C910 1.380 1_455 S
C913 C911 1.392 . S
C913 H923 0.930 . S
C914 O894 1.266 . S
C914 O895 1.248 . S
C915 Tb851 2.802 . S
C915 O890 1.264 . S
C915 O893 1.256 . S
C915 C908 1.496 . S
H916 C899 0.929 . S
H917 C900 0.929 . S
H918 C901 0.929 . S
H919 C902 0.931 . S
H920 C910 0.929 . S
H921 C911 0.929 . S
H922 C912 0.931 . S
H923 C913 0.930 . S
Tb924 N953 2.617 . S
Tb924 N959 2.572 . S
Tb924 O968 2.465 . S
Tb924 O969 2.387 . S
Tb924 O971 2.428 . S
Tb924 O972 2.308 . S
Tb924 O976 2.349 . S
Tb924 O979 2.393 . S
Tb924 C988 2.802 . S
C925 N926 1.379 . S
C925 C928 1.416 . S
C925 C932 1.424 . S
N926 C925 1.379 . S
N926 C929 1.334 . S
N926 Tb935 2.617 . S
C927 C929 1.390 . S
C927 C930 1.339 . S
C927 H947 0.930 . S
C928 C925 1.416 . S
C928 C930 1.416 . S
C928 C934 1.448 . S
C929 N926 1.334 . S
C929 C927 1.390 . S
C929 H940 0.930 . S
C930 C927 1.339 . S
C930 C928 1.416 . S
C930 H951 0.930 . S
C931 C932 1.413 . S
C931 C933 1.427 . S
C931 C937 1.416 . S
C932 C925 1.424 . S
C932 C931 1.413 . S
C932 N936 1.361 . S
C933 C931 1.427 . S
C933 C934 1.328 . S
C933 H948 0.929 . S
C934 C928 1.448 . S
C934 C933 1.328 . S
C934 H949 0.930 . S
Tb935 N926 2.617 . S
Tb935 N936 2.572 . S
Tb935 O970 2.349 . S
Tb935 O973 2.393 . S
Tb935 O974 2.465 . S
Tb935 O975 2.387 . S
Tb935 O977 2.428 . S
Tb935 O978 2.308 . S
Tb935 C999 2.802 . S
N936 C932 1.361 . S
N936 Tb935 2.572 . S
N936 C938 1.340 . S
C937 C931 1.416 . S
C937 C939 1.332 . S
C937 H945 0.931 . S
C938 N936 1.340 . S
C938 C939 1.407 . S
C938 H944 0.930 . S
C939 C937 1.332 . S
C939 C938 1.407 . S
C939 H941 0.929 . S
H940 C929 0.930 . S
H941 C939 0.929 . S
H942 C957 0.930 . S
H943 C964 0.929 . S
H944 C938 0.930 . S
H945 C937 0.931 . S
H946 C960 0.930 . S
H947 C927 0.930 . S
H948 C933 0.929 . S
H949 C934 0.930 . S
H950 C955 0.930 . S
H951 C930 0.930 . S
H952 C963 0.931 1_655 S
N953 Tb924 2.617 . S
N953 C954 1.379 . S
N953 C957 1.334 . S
C954 N953 1.379 . S
C954 C956 1.416 . S
C954 C962 1.424 . S
C955 H950 0.930 . S
C955 C957 1.390 . S
C955 C958 1.339 . S
C956 C954 1.416 . S
C956 C958 1.416 . S
C956 C989 1.448 . S
C957 H942 0.930 . S
C957 N953 1.334 . S
C957 C955 1.390 . S
C958 C955 1.339 . S
C958 C956 1.416 . S
C958 H965 0.930 . S
N959 Tb924 2.572 . S
N959 C960 1.340 . S
N959 C962 1.361 . S
C960 H946 0.930 . S
C960 N959 1.340 . S
C960 C964 1.407 . S
C961 C962 1.413 . S
C961 C963 1.416 . S
C961 C990 1.427 1_455 S
C962 C954 1.424 . S
C962 N959 1.361 . S
C962 C961 1.413 . S
C963 H952 0.931 1_455 S
C963 C961 1.416 . S
C963 C964 1.332 . S
C964 H943 0.929 . S
C964 C960 1.407 . S
C964 C963 1.332 . S
H965 C958 0.930 . S
H966 C989 0.930 1_655 S
H967 C990 0.929 . S
O968 Tb924 2.465 . S
O968 C988 1.264 . S
O969 Tb924 2.387 . S
O969 C980 1.264 . S
O970 Tb935 2.349 . S
O970 C980 1.243 . S
O971 Tb924 2.428 . S
O971 C988 1.256 . S
O972 Tb924 2.308 . S
O972 C987 1.266 . S
O973 Tb935 2.393 . S
O973 C987 1.248 . S
O974 Tb935 2.465 . S
O974 C999 1.264 . S
O975 Tb935 2.387 . S
O975 C991 1.264 . S
O976 Tb924 2.349 . S
O976 C991 1.243 . S
O977 Tb935 2.428 . S
O977 C999 1.256 . S
O978 Tb935 2.308 . S
O978 C998 1.266 . S
O979 Tb924 2.393 . S
O979 C998 1.248 . S
C980 O969 1.264 . S
C980 O970 1.243 . S
C981 C984 1.399 . S
C981 C986 1.383 . S
C981 C988 1.496 . S
C982 C983 1.399 . S
C982 C986 1.389 . S
C983 C982 1.399 . S
C983 C985 1.380 . S
C983 H1000 0.929 . S
C984 C981 1.399 . S
C984 C985 1.392 . S
C984 H1001 0.929 . S
C985 C983 1.380 . S
C985 C984 1.392 . S
C985 H1002 0.929 . S
C986 C981 1.383 . S
C986 C982 1.389 . S
C986 H1003 0.931 . S
C987 O972 1.266 . S
C987 O973 1.248 . S
C988 Tb924 2.802 . S
C988 O968 1.264 . S
C988 O971 1.256 . S
C988 C981 1.496 . S
C989 C956 1.448 . S
C989 H966 0.930 1_455 S
C989 C990 1.328 1_455 S
C990 C961 1.427 1_655 S
C990 H967 0.929 . S
C990 C989 1.328 1_655 S
C991 O975 1.264 . S
C991 O976 1.243 . S
C992 C995 1.399 . S
C992 C996 1.383 . S
C992 C999 1.496 . S
C993 C994 1.399 . S
C993 C996 1.389 . S
C994 C993 1.399 . S
C994 C997 1.380 . S
C994 H1004 0.929 . S
C995 C992 1.399 . S
C995 C997 1.392 . S
C995 H1005 0.929 . S
C996 C992 1.383 . S
C996 C993 1.389 . S
C996 H1006 0.931 . S
C997 C994 1.380 . S
C997 C995 1.392 . S
C997 H1007 0.929 . S
C998 O978 1.266 . S
C998 O979 1.248 . S
C999 Tb935 2.802 . S
C999 O974 1.264 . S
C999 O977 1.256 . S
C999 C992 1.496 . S
H1000 C983 0.929 . S
H1001 C984 0.929 . S
H1002 C985 0.929 . S
H1003 C986 0.931 . S
H1004 C994 0.929 . S
H1005 C995 0.929 . S
H1006 C996 0.931 . S
H1007 C997 0.929 . S
Tb1008 N1037 2.617 . S
Tb1008 N1043 2.572 . S
Tb1008 O1052 2.465 . S
Tb1008 O1053 2.387 . S
Tb1008 O1055 2.428 . S
Tb1008 O1056 2.308 . S
Tb1008 O1060 2.349 . S
Tb1008 O1063 2.393 . S
Tb1008 C1072 2.802 . S
C1009 N1010 1.379 . S
C1009 C1012 1.416 . S
C1009 C1016 1.424 . S
N1010 C1009 1.379 . S
N1010 C1013 1.334 . S
N1010 Tb1019 2.617 . S
C1011 C1013 1.390 . S
C1011 C1014 1.339 . S
C1011 H1031 0.930 . S
C1012 C1009 1.416 . S
C1012 C1014 1.416 . S
C1012 C1018 1.448 . S
C1013 N1010 1.334 . S
C1013 C1011 1.390 . S
C1013 H1024 0.930 . S
C1014 C1011 1.339 . S
C1014 C1012 1.416 . S
C1014 H1035 0.930 . S
C1015 C1016 1.413 . S
C1015 C1017 1.427 . S
C1015 C1021 1.416 . S
C1016 C1009 1.424 . S
C1016 C1015 1.413 . S
C1016 N1020 1.361 . S
C1017 C1015 1.427 . S
C1017 C1018 1.328 . S
C1017 H1032 0.929 1_655 S
C1018 C1012 1.448 . S
C1018 C1017 1.328 . S
C1018 H1033 0.930 . S
Tb1019 N1010 2.617 . S
Tb1019 N1020 2.572 . S
Tb1019 O1054 2.349 . S
Tb1019 O1057 2.393 . S
Tb1019 O1058 2.465 . S
Tb1019 O1059 2.387 . S
Tb1019 O1061 2.428 . S
Tb1019 O1062 2.308 . S
Tb1019 C1083 2.802 . S
N1020 C1016 1.361 . S
N1020 Tb1019 2.572 . S
N1020 C1022 1.340 . S
C1021 C1015 1.416 . S
C1021 C1023 1.332 . S
C1021 H1029 0.931 1_655 S
C1022 N1020 1.340 . S
C1022 C1023 1.407 . S
C1022 H1028 0.930 . S
C1023 C1021 1.332 . S
C1023 C1022 1.407 . S
C1023 H1025 0.929 . S
H1024 C1013 0.930 . S
H1025 C1023 0.929 . S
H1026 C1041 0.930 . S
H1027 C1048 0.929 . S
H1028 C1022 0.930 . S
H1029 C1021 0.931 1_455 S
H1030 C1044 0.930 . S
H1031 C1011 0.930 . S
H1032 C1017 0.929 1_455 S
H1033 C1018 0.930 . S
H1034 C1039 0.930 . S
H1035 C1014 0.930 . S
H1036 C1047 0.931 . S
N1037 Tb1008 2.617 . S
N1037 C1038 1.379 . S
N1037 C1041 1.334 . S
C1038 N1037 1.379 . S
C1038 C1040 1.416 . S
C1038 C1046 1.424 . S
C1039 H1034 0.930 . S
C1039 C1041 1.390 . S
C1039 C1042 1.339 . S
C1040 C1038 1.416 . S
C1040 C1042 1.416 . S
C1040 C1073 1.448 . S
C1041 H1026 0.930 . S
C1041 N1037 1.334 . S
C1041 C1039 1.390 . S
C1042 C1039 1.339 . S
C1042 C1040 1.416 . S
C1042 H1049 0.930 . S
N1043 Tb1008 2.572 . S
N1043 C1044 1.340 . S
N1043 C1046 1.361 . S
C1044 H1030 0.930 . S
C1044 N1043 1.340 . S
C1044 C1048 1.407 . S
C1045 C1046 1.413 . S
C1045 C1047 1.416 . S
C1045 C1074 1.427 . S
C1046 C1038 1.424 . S
C1046 N1043 1.361 . S
C1046 C1045 1.413 . S
C1047 H1036 0.931 . S
C1047 C1045 1.416 . S
C1047 C1048 1.332 . S
C1048 H1027 0.929 . S
C1048 C1044 1.407 . S
C1048 C1047 1.332 . S
H1049 C1042 0.930 . S
H1050 C1073 0.930 . S
H1051 C1074 0.929 . S
O1052 Tb1008 2.465 . S
O1052 C1072 1.264 . S
O1053 Tb1008 2.387 . S
O1053 C1064 1.264 . S
O1054 Tb1019 2.349 . S
O1054 C1064 1.243 . S
O1055 Tb1008 2.428 . S
O1055 C1072 1.256 . S
O1056 Tb1008 2.308 . S
O1056 C1071 1.266 . S
O1057 Tb1019 2.393 . S
O1057 C1071 1.248 . S
O1058 Tb1019 2.465 . S
O1058 C1083 1.264 . S
O1059 Tb1019 2.387 . S
O1059 C1075 1.264 . S
O1060 Tb1008 2.349 . S
O1060 C1075 1.243 . S
O1061 Tb1019 2.428 . S
O1061 C1083 1.256 . S
O1062 Tb1019 2.308 . S
O1062 C1082 1.266 . S
O1063 Tb1008 2.393 . S
O1063 C1082 1.248 . S
C1064 O1053 1.264 . S
C1064 O1054 1.243 . S
C1065 C1068 1.399 . S
C1065 C1070 1.383 . S
C1065 C1072 1.496 . S
C1066 C1067 1.399 . S
C1066 C1070 1.389 . S
C1067 C1066 1.399 . S
C1067 C1069 1.380 . S
C1067 H1084 0.929 . S
C1068 C1065 1.399 . S
C1068 C1069 1.392 . S
C1068 H1085 0.929 . S
C1069 C1067 1.380 . S
C1069 C1068 1.392 . S
C1069 H1086 0.929 . S
C1070 C1065 1.383 . S
C1070 C1066 1.389 . S
C1070 H1087 0.931 . S
C1071 O1056 1.266 . S
C1071 O1057 1.248 . S
C1072 Tb1008 2.802 . S
C1072 O1052 1.264 . S
C1072 O1055 1.256 . S
C1072 C1065 1.496 . S
C1073 C1040 1.448 . S
C1073 H1050 0.930 . S
C1073 C1074 1.328 . S
C1074 C1045 1.427 . S
C1074 H1051 0.929 . S
C1074 C1073 1.328 . S
C1075 O1059 1.264 . S
C1075 O1060 1.243 . S
C1076 C1079 1.399 . S
C1076 C1080 1.383 1_655 S
C1076 C1083 1.496 . S
C1077 C1078 1.399 . S
C1077 C1080 1.389 . S
C1078 C1077 1.399 . S
C1078 C1081 1.380 . S
C1078 H1088 0.929 . S
C1079 C1076 1.399 . S
C1079 C1081 1.392 1_655 S
C1079 H1089 0.929 . S
C1080 C1076 1.383 1_455 S
C1080 C1077 1.389 . S
C1080 H1090 0.931 1_455 S
C1081 C1078 1.380 . S
C1081 C1079 1.392 1_455 S
C1081 H1091 0.929 . S
C1082 O1062 1.266 . S
C1082 O1063 1.248 . S
C1083 Tb1019 2.802 . S
C1083 O1058 1.264 . S
C1083 O1061 1.256 . S
C1083 C1076 1.496 . S
H1084 C1067 0.929 . S
H1085 C1068 0.929 . S
H1086 C1069 0.929 . S
H1087 C1070 0.931 . S
H1088 C1078 0.929 . S
H1089 C1079 0.929 . S
H1090 C1080 0.931 1_655 S
H1091 C1081 0.929 . S
Tb1092 N1121 2.617 . S
Tb1092 N1127 2.572 . S
Tb1092 O1136 2.465 . S
Tb1092 O1137 2.387 . S
Tb1092 O1139 2.428 . S
Tb1092 O1140 2.308 . S
Tb1092 O1144 2.349 . S
Tb1092 O1147 2.393 . S
Tb1092 C1156 2.802 . S
C1093 N1094 1.379 . S
C1093 C1096 1.416 . S
C1093 C1100 1.424 . S
N1094 C1093 1.379 . S
N1094 C1097 1.334 . S
N1094 Tb1103 2.617 . S
C1095 C1097 1.390 . S
C1095 C1098 1.339 . S
C1095 H1115 0.930 . S
C1096 C1093 1.416 . S
C1096 C1098 1.416 . S
C1096 C1102 1.448 . S
C1097 N1094 1.334 . S
C1097 C1095 1.390 . S
C1097 H1108 0.930 . S
C1098 C1095 1.339 . S
C1098 C1096 1.416 . S
C1098 H1119 0.930 . S
C1099 C1100 1.413 . S
C1099 C1101 1.427 . S
C1099 C1105 1.416 . S
C1100 C1093 1.424 . S
C1100 C1099 1.413 . S
C1100 N1104 1.361 . S
C1101 C1099 1.427 . S
C1101 C1102 1.328 . S
C1101 H1116 0.929 . S
C1102 C1096 1.448 . S
C1102 C1101 1.328 . S
C1102 H1117 0.930 . S
Tb1103 N1094 2.617 . S
Tb1103 N1104 2.572 . S
Tb1103 O1138 2.349 . S
Tb1103 O1141 2.393 . S
Tb1103 O1142 2.465 . S
Tb1103 O1143 2.387 . S
Tb1103 O1145 2.428 . S
Tb1103 O1146 2.308 . S
Tb1103 C1167 2.802 . S
N1104 C1100 1.361 . S
N1104 Tb1103 2.572 . S
N1104 C1106 1.340 . S
C1105 C1099 1.416 . S
C1105 C1107 1.332 . S
C1105 H1113 0.931 . S
C1106 N1104 1.340 . S
C1106 C1107 1.407 . S
C1106 H1112 0.930 . S
C1107 C1105 1.332 . S
C1107 C1106 1.407 . S
C1107 H1109 0.929 . S
H1108 C1097 0.930 . S
H1109 C1107 0.929 . S
H1110 C1125 0.930 . S
H1111 C1132 0.929 . S
H1112 C1106 0.930 . S
H1113 C1105 0.931 . S
H1114 C1128 0.930 . S
H1115 C1095 0.930 . S
H1116 C1101 0.929 . S
H1117 C1102 0.930 . S
H1118 C1123 0.930 . S
H1119 C1098 0.930 . S
H1120 C1131 0.931 1_565 S
N1121 Tb1092 2.617 . S
N1121 C1122 1.379 . S
N1121 C1125 1.334 . S
C1122 N1121 1.379 . S
C1122 C1124 1.416 . S
C1122 C1130 1.424 . S
C1123 H1118 0.930 . S
C1123 C1125 1.390 . S
C1123 C1126 1.339 . S
C1124 C1122 1.416 . S
C1124 C1126 1.416 . S
C1124 C1157 1.448 . S
C1125 H1110 0.930 . S
C1125 N1121 1.334 . S
C1125 C1123 1.390 . S
C1126 C1123 1.339 . S
C1126 C1124 1.416 . S
C1126 H1133 0.930 . S
N1127 Tb1092 2.572 . S
N1127 C1128 1.340 . S
N1127 C1130 1.361 . S
C1128 H1114 0.930 . S
C1128 N1127 1.340 . S
C1128 C1132 1.407 . S
C1129 C1130 1.413 . S
C1129 C1131 1.416 . S
C1129 C1158 1.427 1_545 S
C1130 C1122 1.424 . S
C1130 N1127 1.361 . S
C1130 C1129 1.413 . S
C1131 H1120 0.931 1_545 S
C1131 C1129 1.416 . S
C1131 C1132 1.332 . S
C1132 H1111 0.929 . S
C1132 C1128 1.407 . S
C1132 C1131 1.332 . S
H1133 C1126 0.930 . S
H1134 C1157 0.930 1_565 S
H1135 C1158 0.929 . S
O1136 Tb1092 2.465 . S
O1136 C1156 1.264 . S
O1137 Tb1092 2.387 . S
O1137 C1148 1.264 . S
O1138 Tb1103 2.349 . S
O1138 C1148 1.243 . S
O1139 Tb1092 2.428 . S
O1139 C1156 1.256 . S
O1140 Tb1092 2.308 . S
O1140 C1155 1.266 . S
O1141 Tb1103 2.393 . S
O1141 C1155 1.248 . S
O1142 Tb1103 2.465 . S
O1142 C1167 1.264 . S
O1143 Tb1103 2.387 . S
O1143 C1159 1.264 . S
O1144 Tb1092 2.349 . S
O1144 C1159 1.243 . S
O1145 Tb1103 2.428 . S
O1145 C1167 1.256 . S
O1146 Tb1103 2.308 . S
O1146 C1166 1.266 . S
O1147 Tb1092 2.393 . S
O1147 C1166 1.248 . S
C1148 O1137 1.264 . S
C1148 O1138 1.243 . S
C1149 C1152 1.399 . S
C1149 C1154 1.383 . S
C1149 C1156 1.496 . S
C1150 C1151 1.399 . S
C1150 C1154 1.389 . S
C1151 C1150 1.399 . S
C1151 C1153 1.380 . S
C1151 H1168 0.929 . S
C1152 C1149 1.399 . S
C1152 C1153 1.392 . S
C1152 H1169 0.929 . S
C1153 C1151 1.380 . S
C1153 C1152 1.392 . S
C1153 H1170 0.929 . S
C1154 C1149 1.383 . S
C1154 C1150 1.389 . S
C1154 H1171 0.931 . S
C1155 O1140 1.266 . S
C1155 O1141 1.248 . S
C1156 Tb1092 2.802 . S
C1156 O1136 1.264 . S
C1156 O1139 1.256 . S
C1156 C1149 1.496 . S
C1157 C1124 1.448 . S
C1157 H1134 0.930 1_545 S
C1157 C1158 1.328 1_545 S
C1158 C1129 1.427 1_565 S
C1158 H1135 0.929 . S
C1158 C1157 1.328 1_565 S
C1159 O1143 1.264 . S
C1159 O1144 1.243 . S
C1160 C1163 1.399 . S
C1160 C1164 1.383 . S
C1160 C1167 1.496 . S
C1161 C1162 1.399 . S
C1161 C1164 1.389 . S
C1162 C1161 1.399 . S
C1162 C1165 1.380 . S
C1162 H1172 0.929 . S
C1163 C1160 1.399 . S
C1163 C1165 1.392 . S
C1163 H1173 0.929 . S
C1164 C1160 1.383 . S
C1164 C1161 1.389 . S
C1164 H1174 0.931 . S
C1165 C1162 1.380 . S
C1165 C1163 1.392 . S
C1165 H1175 0.929 . S
C1166 O1146 1.266 . S
C1166 O1147 1.248 . S
C1167 Tb1103 2.802 . S
C1167 O1142 1.264 . S
C1167 O1145 1.256 . S
C1167 C1160 1.496 . S
H1168 C1151 0.929 . S
H1169 C1152 0.929 . S
H1170 C1153 0.929 . S
H1171 C1154 0.931 . S
H1172 C1162 0.929 . S
H1173 C1163 0.929 . S
H1174 C1164 0.931 . S
H1175 C1165 0.929 . S
Tb1176 N1205 2.617 . S
Tb1176 N1211 2.572 . S
Tb1176 O1220 2.465 . S
Tb1176 O1221 2.387 . S
Tb1176 O1223 2.428 . S
Tb1176 O1224 2.308 . S
Tb1176 O1228 2.349 . S
Tb1176 O1231 2.393 . S
Tb1176 C1240 2.802 . S
C1177 N1178 1.379 . S
C1177 C1180 1.416 . S
C1177 C1184 1.424 . S
N1178 C1177 1.379 . S
N1178 C1181 1.334 . S
N1178 Tb1187 2.617 . S
C1179 C1181 1.390 . S
C1179 C1182 1.339 . S
C1179 H1199 0.930 . S
C1180 C1177 1.416 . S
C1180 C1182 1.416 . S
C1180 C1186 1.448 . S
C1181 N1178 1.334 . S
C1181 C1179 1.390 . S
C1181 H1192 0.930 . S
C1182 C1179 1.339 . S
C1182 C1180 1.416 . S
C1182 H1203 0.930 . S
C1183 C1184 1.413 . S
C1183 C1185 1.427 . S
C1183 C1189 1.416 . S
C1184 C1177 1.424 . S
C1184 C1183 1.413 . S
C1184 N1188 1.361 . S
C1185 C1183 1.427 . S
C1185 C1186 1.328 . S
C1185 H1200 0.929 . S
C1186 C1180 1.448 . S
C1186 C1185 1.328 . S
C1186 H1201 0.930 . S
Tb1187 N1178 2.617 . S
Tb1187 N1188 2.572 . S
Tb1187 O1222 2.349 . S
Tb1187 O1225 2.393 . S
Tb1187 O1226 2.465 . S
Tb1187 O1227 2.387 . S
Tb1187 O1229 2.428 . S
Tb1187 O1230 2.308 . S
Tb1187 C1251 2.802 . S
N1188 C1184 1.361 . S
N1188 Tb1187 2.572 . S
N1188 C1190 1.340 . S
C1189 C1183 1.416 . S
C1189 C1191 1.332 . S
C1189 H1197 0.931 . S
C1190 N1188 1.340 . S
C1190 C1191 1.407 . S
C1190 H1196 0.930 . S
C1191 C1189 1.332 . S
C1191 C1190 1.407 . S
C1191 H1193 0.929 . S
H1192 C1181 0.930 . S
H1193 C1191 0.929 . S
H1194 C1209 0.930 . S
H1195 C1216 0.929 . S
H1196 C1190 0.930 . S
H1197 C1189 0.931 . S
H1198 C1212 0.930 . S
H1199 C1179 0.930 . S
H1200 C1185 0.929 . S
H1201 C1186 0.930 . S
H1202 C1207 0.930 . S
H1203 C1182 0.930 . S
H1204 C1215 0.931 . S
N1205 Tb1176 2.617 . S
N1205 C1206 1.379 . S
N1205 C1209 1.334 . S
C1206 N1205 1.379 . S
C1206 C1208 1.416 . S
C1206 C1214 1.424 . S
C1207 H1202 0.930 . S
C1207 C1209 1.390 . S
C1207 C1210 1.339 . S
C1208 C1206 1.416 . S
C1208 C1210 1.416 . S
C1208 C1241 1.448 1_655 S
C1209 H1194 0.930 . S
C1209 N1205 1.334 . S
C1209 C1207 1.390 . S
C1210 C1207 1.339 . S
C1210 C1208 1.416 . S
C1210 H1217 0.930 1_655 S
N1211 Tb1176 2.572 . S
N1211 C1212 1.340 . S
N1211 C1214 1.361 . S
C1212 H1198 0.930 . S
C1212 N1211 1.340 . S
C1212 C1216 1.407 1_655 S
C1213 C1214 1.413 1_455 S
C1213 C1215 1.416 . S
C1213 C1242 1.427 . S
C1214 C1206 1.424 . S
C1214 N1211 1.361 . S
C1214 C1213 1.413 1_655 S
C1215 H1204 0.931 . S
C1215 C1213 1.416 . S
C1215 C1216 1.332 . S
C1216 H1195 0.929 . S
C1216 C1212 1.407 1_455 S
C1216 C1215 1.332 . S
H1217 C1210 0.930 1_455 S
H1218 C1241 0.930 . S
H1219 C1242 0.929 . S
O1220 Tb1176 2.465 . S
O1220 C1240 1.264 . S
O1221 Tb1176 2.387 . S
O1221 C1232 1.264 . S
O1222 Tb1187 2.349 . S
O1222 C1232 1.243 . S
O1223 Tb1176 2.428 . S
O1223 C1240 1.256 . S
O1224 Tb1176 2.308 . S
O1224 C1239 1.266 . S
O1225 Tb1187 2.393 . S
O1225 C1239 1.248 . S
O1226 Tb1187 2.465 . S
O1226 C1251 1.264 . S
O1227 Tb1187 2.387 . S
O1227 C1243 1.264 . S
O1228 Tb1176 2.349 . S
O1228 C1243 1.243 . S
O1229 Tb1187 2.428 . S
O1229 C1251 1.256 . S
O1230 Tb1187 2.308 . S
O1230 C1250 1.266 . S
O1231 Tb1176 2.393 . S
O1231 C1250 1.248 . S
C1232 O1221 1.264 . S
C1232 O1222 1.243 . S
C1233 C1236 1.399 . S
C1233 C1238 1.383 . S
C1233 C1240 1.496 . S
C1234 C1235 1.399 . S
C1234 C1238 1.389 . S
C1235 C1234 1.399 . S
C1235 C1237 1.380 . S
C1235 H1252 0.929 . S
C1236 C1233 1.399 . S
C1236 C1237 1.392 . S
C1236 H1253 0.929 . S
C1237 C1235 1.380 . S
C1237 C1236 1.392 . S
C1237 H1254 0.929 . S
C1238 C1233 1.383 . S
C1238 C1234 1.389 . S
C1238 H1255 0.931 . S
C1239 O1224 1.266 . S
C1239 O1225 1.248 . S
C1240 Tb1176 2.802 . S
C1240 O1220 1.264 . S
C1240 O1223 1.256 . S
C1240 C1233 1.496 . S
C1241 C1208 1.448 1_455 S
C1241 H1218 0.930 . S
C1241 C1242 1.328 . S
C1242 C1213 1.427 . S
C1242 H1219 0.929 . S
C1242 C1241 1.328 . S
C1243 O1227 1.264 . S
C1243 O1228 1.243 . S
C1244 C1247 1.399 . S
C1244 C1248 1.383 . S
C1244 C1251 1.496 . S
C1245 C1246 1.393 1_545 S
C1245 C1248 1.403 . S
C1246 C1245 1.393 1_565 S
C1246 C1249 1.380 1_565 S
C1246 H1256 0.929 . S
C1247 C1244 1.399 . S
C1247 C1249 1.392 . S
C1247 H1257 0.929 . S
C1248 C1244 1.383 . S
C1248 C1245 1.403 . S
C1248 H1258 0.931 . S
C1249 C1246 1.380 1_545 S
C1249 C1247 1.392 . S
C1249 H1259 0.930 . S
C1250 O1230 1.266 . S
C1250 O1231 1.248 . S
C1251 Tb1187 2.802 . S
C1251 O1226 1.264 . S
C1251 O1229 1.256 . S
C1251 C1244 1.496 . S
H1252 C1235 0.929 . S
H1253 C1236 0.929 . S
H1254 C1237 0.929 . S
H1255 C1238 0.931 . S
H1256 C1246 0.929 . S
H1257 C1247 0.929 . S
H1258 C1248 0.931 . S
H1259 C1249 0.930 . S
Tb1260 N1289 2.617 . S
Tb1260 N1295 2.572 . S
Tb1260 O1304 2.465 . S
Tb1260 O1305 2.387 . S
Tb1260 O1307 2.428 . S
Tb1260 O1308 2.308 . S
Tb1260 O1312 2.349 . S
Tb1260 O1315 2.393 . S
Tb1260 C1324 2.802 . S
C1261 N1262 1.379 . S
C1261 C1264 1.416 . S
C1261 C1268 1.424 . S
N1262 C1261 1.379 . S
N1262 C1265 1.334 . S
N1262 Tb1271 2.617 . S
C1263 C1265 1.390 . S
C1263 C1266 1.339 . S
C1263 H1283 0.930 . S
C1264 C1261 1.416 . S
C1264 C1266 1.416 . S
C1264 C1270 1.448 . S
C1265 N1262 1.334 . S
C1265 C1263 1.390 . S
C1265 H1276 0.930 . S
C1266 C1263 1.339 . S
C1266 C1264 1.416 . S
C1266 H1287 0.930 . S
C1267 C1268 1.413 . S
C1267 C1269 1.427 . S
C1267 C1273 1.416 . S
C1268 C1261 1.424 . S
C1268 C1267 1.413 . S
C1268 N1272 1.361 . S
C1269 C1267 1.427 . S
C1269 C1270 1.328 . S
C1269 H1284 0.929 . S
C1270 C1264 1.448 . S
C1270 C1269 1.328 . S
C1270 H1285 0.930 . S
Tb1271 N1262 2.617 . S
Tb1271 N1272 2.572 . S
Tb1271 O1306 2.349 . S
Tb1271 O1309 2.393 . S
Tb1271 O1310 2.465 . S
Tb1271 O1311 2.387 . S
Tb1271 O1313 2.428 . S
Tb1271 O1314 2.308 . S
Tb1271 C1335 2.802 . S
N1272 C1268 1.361 . S
N1272 Tb1271 2.572 . S
N1272 C1274 1.340 . S
C1273 C1267 1.416 . S
C1273 C1275 1.332 . S
C1273 H1281 0.931 . S
C1274 N1272 1.340 . S
C1274 C1275 1.407 . S
C1274 H1280 0.930 . S
C1275 C1273 1.332 . S
C1275 C1274 1.407 . S
C1275 H1277 0.929 . S
H1276 C1265 0.930 . S
H1277 C1275 0.929 . S
H1278 C1293 0.930 . S
H1279 C1300 0.929 . S
H1280 C1274 0.930 . S
H1281 C1273 0.931 . S
H1282 C1296 0.930 . S
H1283 C1263 0.930 . S
H1284 C1269 0.929 . S
H1285 C1270 0.930 . S
H1286 C1291 0.930 . S
H1287 C1266 0.930 . S
H1288 C1299 0.931 1_565 S
N1289 Tb1260 2.617 . S
N1289 C1290 1.379 . S
N1289 C1293 1.334 . S
C1290 N1289 1.379 . S
C1290 C1292 1.416 . S
C1290 C1298 1.424 . S
C1291 H1286 0.930 . S
C1291 C1293 1.390 . S
C1291 C1294 1.339 . S
C1292 C1290 1.416 . S
C1292 C1294 1.416 . S
C1292 C1325 1.448 . S
C1293 H1278 0.930 . S
C1293 N1289 1.334 . S
C1293 C1291 1.390 . S
C1294 C1291 1.339 . S
C1294 C1292 1.416 . S
C1294 H1301 0.930 . S
N1295 Tb1260 2.572 . S
N1295 C1296 1.340 . S
N1295 C1298 1.361 . S
C1296 H1282 0.930 . S
C1296 N1295 1.340 . S
C1296 C1300 1.407 . S
C1297 C1298 1.413 . S
C1297 C1299 1.416 . S
C1297 C1326 1.427 . S
C1298 C1290 1.424 . S
C1298 N1295 1.361 . S
C1298 C1297 1.413 . S
C1299 H1288 0.931 1_545 S
C1299 C1297 1.416 . S
C1299 C1300 1.332 . S
C1300 H1279 0.929 . S
C1300 C1296 1.407 . S
C1300 C1299 1.332 . S
H1301 C1294 0.930 . S
H1302 C1325 0.930 . S
H1303 C1326 0.929 1_565 S
O1304 Tb1260 2.465 . S
O1304 C1324 1.264 . S
O1305 Tb1260 2.387 . S
O1305 C1316 1.264 . S
O1306 Tb1271 2.349 . S
O1306 C1316 1.243 . S
O1307 Tb1260 2.428 . S
O1307 C1324 1.256 . S
O1308 Tb1260 2.308 . S
O1308 C1323 1.266 . S
O1309 Tb1271 2.393 . S
O1309 C1323 1.248 . S
O1310 Tb1271 2.465 . S
O1310 C1335 1.264 . S
O1311 Tb1271 2.387 . S
O1311 C1327 1.264 . S
O1312 Tb1260 2.349 . S
O1312 C1327 1.243 . S
O1313 Tb1271 2.428 . S
O1313 C1335 1.256 . S
O1314 Tb1271 2.308 . S
O1314 C1334 1.266 . S
O1315 Tb1260 2.393 . S
O1315 C1334 1.248 . S
C1316 O1305 1.264 . S
C1316 O1306 1.243 . S
C1317 C1320 1.399 . S
C1317 C1322 1.383 1_545 S
C1317 C1324 1.496 . S
C1318 C1319 1.399 . S
C1318 C1322 1.389 . S
C1319 C1318 1.399 . S
C1319 C1321 1.380 . S
C1319 H1336 0.929 . S
C1320 C1317 1.399 . S
C1320 C1321 1.392 1_545 S
C1320 H1337 0.929 . S
C1321 C1319 1.380 . S
C1321 C1320 1.392 1_565 S
C1321 H1338 0.929 . S
C1322 C1317 1.383 1_565 S
C1322 C1318 1.389 . S
C1322 H1339 0.931 1_565 S
C1323 O1308 1.266 . S
C1323 O1309 1.248 . S
C1324 Tb1260 2.802 . S
C1324 O1304 1.264 . S
C1324 O1307 1.256 . S
C1324 C1317 1.496 . S
C1325 C1292 1.448 . S
C1325 H1302 0.930 . S
C1325 C1326 1.328 . S
C1326 C1297 1.427 . S
C1326 H1303 0.929 1_545 S
C1326 C1325 1.328 . S
C1327 O1311 1.264 . S
C1327 O1312 1.243 . S
C1328 C1331 1.399 . S
C1328 C1332 1.383 . S
C1328 C1335 1.496 . S
C1329 C1330 1.399 . S
C1329 C1332 1.389 . S
C1330 C1329 1.399 . S
C1330 C1333 1.380 . S
C1330 H1340 0.929 . S
C1331 C1328 1.399 . S
C1331 C1333 1.392 . S
C1331 H1341 0.929 . S
C1332 C1328 1.383 . S
C1332 C1329 1.389 . S
C1332 H1342 0.931 . S
C1333 C1330 1.380 . S
C1333 C1331 1.392 . S
C1333 H1343 0.929 . S
C1334 O1314 1.266 . S
C1334 O1315 1.248 . S
C1335 Tb1271 2.802 . S
C1335 O1310 1.264 . S
C1335 O1313 1.256 . S
C1335 C1328 1.496 . S
H1336 C1319 0.929 . S
H1337 C1320 0.929 . S
H1338 C1321 0.929 . S
H1339 C1322 0.931 1_545 S
H1340 C1330 0.929 . S
H1341 C1331 0.929 . S
H1342 C1332 0.931 . S
H1343 C1333 0.929 . S
Tb1344 N1373 2.617 . S
Tb1344 N1379 2.572 . S
Tb1344 O1388 2.465 . S
Tb1344 O1389 2.387 . S
Tb1344 O1391 2.428 . S
Tb1344 O1392 2.308 . S
Tb1344 O1396 2.349 . S
Tb1344 O1399 2.393 . S
Tb1344 C1408 2.802 . S
C1345 N1346 1.379 . S
C1345 C1348 1.416 . S
C1345 C1352 1.424 . S
N1346 C1345 1.379 . S
N1346 C1349 1.334 . S
N1346 Tb1355 2.617 . S
C1347 C1349 1.390 . S
C1347 C1350 1.339 . S
C1347 H1367 0.930 . S
C1348 C1345 1.416 . S
C1348 C1350 1.416 . S
C1348 C1354 1.448 . S
C1349 N1346 1.334 . S
C1349 C1347 1.390 . S
C1349 H1360 0.930 . S
C1350 C1347 1.339 . S
C1350 C1348 1.416 . S
C1350 H1371 0.930 . S
C1351 C1352 1.413 . S
C1351 C1353 1.427 . S
C1351 C1357 1.416 . S
C1352 C1345 1.424 . S
C1352 C1351 1.413 . S
C1352 N1356 1.361 . S
C1353 C1351 1.427 . S
C1353 C1354 1.328 . S
C1353 H1368 0.929 1_545 S
C1354 C1348 1.448 . S
C1354 C1353 1.328 . S
C1354 H1369 0.930 1_545 S
Tb1355 N1346 2.617 . S
Tb1355 N1356 2.572 . S
Tb1355 O1390 2.349 . S
Tb1355 O1393 2.393 . S
Tb1355 O1394 2.465 . S
Tb1355 O1395 2.387 . S
Tb1355 O1397 2.428 . S
Tb1355 O1398 2.308 . S
Tb1355 C1419 2.802 . S
N1356 C1352 1.361 . S
N1356 Tb1355 2.572 . S
N1356 C1358 1.340 . S
C1357 C1351 1.416 . S
C1357 C1359 1.332 . S
C1357 H1365 0.931 1_545 S
C1358 N1356 1.340 . S
C1358 C1359 1.407 . S
C1358 H1364 0.930 . S
C1359 C1357 1.332 . S
C1359 C1358 1.407 . S
C1359 H1361 0.929 . S
H1360 C1349 0.930 . S
H1361 C1359 0.929 . S
H1362 C1377 0.930 . S
H1363 C1384 0.929 . S
H1364 C1358 0.930 . S
H1365 C1357 0.931 1_565 S
H1366 C1380 0.930 . S
H1367 C1347 0.930 . S
H1368 C1353 0.929 1_565 S
H1369 C1354 0.930 1_565 S
H1370 C1375 0.930 . S
H1371 C1350 0.930 . S
H1372 C1383 0.931 . S
N1373 Tb1344 2.617 . S
N1373 C1374 1.379 . S
N1373 C1377 1.334 . S
C1374 N1373 1.379 . S
C1374 C1376 1.416 . S
C1374 C1382 1.424 . S
C1375 H1370 0.930 . S
C1375 C1377 1.390 . S
C1375 C1378 1.339 . S
C1376 C1374 1.416 . S
C1376 C1378 1.416 . S
C1376 C1409 1.448 1_655 S
C1377 H1362 0.930 . S
C1377 N1373 1.334 . S
C1377 C1375 1.390 . S
C1378 C1375 1.339 . S
C1378 C1376 1.416 . S
C1378 H1385 0.930 . S
N1379 Tb1344 2.572 . S
N1379 C1380 1.340 . S
N1379 C1382 1.361 . S
C1380 H1366 0.930 . S
C1380 N1379 1.340 . S
C1380 C1384 1.407 1_655 S
C1381 C1382 1.413 1_455 S
C1381 C1383 1.416 . S
C1381 C1410 1.427 . S
C1382 C1374 1.424 . S
C1382 N1379 1.361 . S
C1382 C1381 1.413 1_655 S
C1383 H1372 0.931 . S
C1383 C1381 1.416 . S
C1383 C1384 1.332 . S
C1384 H1363 0.929 . S
C1384 C1380 1.407 1_455 S
C1384 C1383 1.332 . S
H1385 C1378 0.930 . S
H1386 C1409 0.930 . S
H1387 C1410 0.929 . S
O1388 Tb1344 2.465 . S
O1388 C1408 1.264 . S
O1389 Tb1344 2.387 . S
O1389 C1400 1.264 . S
O1390 Tb1355 2.349 . S
O1390 C1400 1.243 . S
O1391 Tb1344 2.428 . S
O1391 C1408 1.256 . S
O1392 Tb1344 2.308 . S
O1392 C1407 1.266 . S
O1393 Tb1355 2.393 . S
O1393 C1407 1.248 . S
O1394 Tb1355 2.465 . S
O1394 C1419 1.264 . S
O1395 Tb1355 2.387 . S
O1395 C1411 1.264 . S
O1396 Tb1344 2.349 . S
O1396 C1411 1.243 . S
O1397 Tb1355 2.428 . S
O1397 C1419 1.256 . S
O1398 Tb1355 2.308 . S
O1398 C1418 1.266 . S
O1399 Tb1344 2.393 . S
O1399 C1418 1.248 . S
C1400 O1389 1.264 . S
C1400 O1390 1.243 . S
C1401 C1404 1.399 . S
C1401 C1406 1.383 . S
C1401 C1408 1.496 1_455 S
C1402 C1403 1.399 . S
C1402 C1406 1.389 . S
C1403 C1402 1.399 . S
C1403 C1405 1.380 . S
C1403 H1420 0.929 . S
C1404 C1401 1.399 . S
C1404 C1405 1.392 . S
C1404 H1421 0.929 . S
C1405 C1403 1.380 . S
C1405 C1404 1.392 . S
C1405 H1422 0.929 . S
C1406 C1401 1.383 . S
C1406 C1402 1.389 . S
C1406 H1423 0.931 . S
C1407 O1392 1.266 . S
C1407 O1393 1.248 . S
C1408 Tb1344 2.802 . S
C1408 O1388 1.264 . S
C1408 O1391 1.256 . S
C1408 C1401 1.496 1_655 S
C1409 C1376 1.448 1_455 S
C1409 H1386 0.930 . S
C1409 C1410 1.328 . S
C1410 C1381 1.427 . S
C1410 H1387 0.929 . S
C1410 C1409 1.328 . S
C1411 O1395 1.264 . S
C1411 O1396 1.243 . S
C1412 C1415 1.399 . S
C1412 C1416 1.383 . S
C1412 C1419 1.496 . S
C1413 C1414 1.399 . S
C1413 C1416 1.389 . S
C1414 C1413 1.399 . S
C1414 C1417 1.380 . S
C1414 H1424 0.929 . S
C1415 C1412 1.399 . S
C1415 C1417 1.392 . S
C1415 H1425 0.929 . S
C1416 C1412 1.383 . S
C1416 C1413 1.389 . S
C1416 H1426 0.931 . S
C1417 C1414 1.380 . S
C1417 C1415 1.392 . S
C1417 H1427 0.929 . S
C1418 O1398 1.266 . S
C1418 O1399 1.248 . S
C1419 Tb1355 2.802 . S
C1419 O1394 1.264 . S
C1419 O1397 1.256 . S
C1419 C1412 1.496 . S
H1420 C1403 0.929 . S
H1421 C1404 0.929 . S
H1422 C1405 0.929 . S
H1423 C1406 0.931 . S
H1424 C1414 0.929 . S
H1425 C1415 0.929 . S
H1426 C1416 0.931 . S
H1427 C1417 0.929 . S
Tb1428 N1457 2.617 . S
Tb1428 N1463 2.572 . S
Tb1428 O1472 2.465 . S
Tb1428 O1473 2.387 . S
Tb1428 O1475 2.428 . S
Tb1428 O1476 2.308 . S
Tb1428 O1480 2.349 . S
Tb1428 O1483 2.393 . S
Tb1428 C1492 2.802 . S
C1429 N1430 1.379 . S
C1429 C1432 1.416 . S
C1429 C1436 1.424 . S
N1430 C1429 1.379 . S
N1430 C1433 1.334 . S
N1430 Tb1439 2.617 . S
C1431 C1433 1.390 . S
C1431 C1434 1.339 . S
C1431 H1451 0.930 . S
C1432 C1429 1.416 . S
C1432 C1434 1.416 . S
C1432 C1438 1.448 1_655 S
C1433 N1430 1.334 . S
C1433 C1431 1.390 . S
C1433 H1444 0.930 . S
C1434 C1431 1.339 . S
C1434 C1432 1.416 . S
C1434 H1455 0.930 . S
C1435 C1436 1.413 1_455 S
C1435 C1437 1.427 . S
C1435 C1441 1.416 . S
C1436 C1429 1.424 . S
C1436 C1435 1.413 1_655 S
C1436 N1440 1.361 . S
C1437 C1435 1.427 . S
C1437 C1438 1.328 . S
C1437 H1452 0.929 . S
C1438 C1432 1.448 1_455 S
C1438 C1437 1.328 . S
C1438 H1453 0.930 . S
Tb1439 N1430 2.617 . S
Tb1439 N1440 2.572 . S
Tb1439 O1474 2.349 . S
Tb1439 O1477 2.393 . S
Tb1439 O1478 2.465 . S
Tb1439 O1479 2.387 . S
Tb1439 O1481 2.428 . S
Tb1439 O1482 2.308 . S
Tb1439 C1503 2.802 . S
N1440 C1436 1.361 . S
N1440 Tb1439 2.572 . S
N1440 C1442 1.340 . S
C1441 C1435 1.416 . S
C1441 C1443 1.332 1_455 S
C1441 H1449 0.931 . S
C1442 N1440 1.340 . S
C1442 C1443 1.407 . S
C1442 H1448 0.930 . S
C1443 C1441 1.332 1_655 S
C1443 C1442 1.407 . S
C1443 H1445 0.941 . S
H1444 C1433 0.930 . S
H1445 C1443 0.941 . S
H1446 C1461 0.930 . S
H1447 C1468 0.929 . S
H1448 C1442 0.930 . S
H1449 C1441 0.931 . S
H1450 C1464 0.930 . S
H1451 C1431 0.930 . S
H1452 C1437 0.929 . S
H1453 C1438 0.930 . S
H1454 C1459 0.930 . S
H1455 C1434 0.930 . S
H1456 C1467 0.931 . S
N1457 Tb1428 2.617 . S
N1457 C1458 1.379 . S
N1457 C1461 1.334 . S
C1458 N1457 1.379 . S
C1458 C1460 1.416 . S
C1458 C1466 1.424 . S
C1459 H1454 0.930 . S
C1459 C1461 1.390 . S
C1459 C1462 1.339 . S
C1460 C1458 1.416 . S
C1460 C1462 1.416 . S
C1460 C1493 1.448 . S
C1461 H1446 0.930 . S
C1461 N1457 1.334 . S
C1461 C1459 1.390 . S
C1462 C1459 1.339 . S
C1462 C1460 1.416 . S
C1462 H1469 0.930 . S
N1463 Tb1428 2.572 . S
N1463 C1464 1.340 . S
N1463 C1466 1.361 . S
C1464 H1450 0.930 . S
C1464 N1463 1.340 . S
C1464 C1468 1.407 . S
C1465 C1466 1.413 . S
C1465 C1467 1.416 . S
C1465 C1494 1.427 . S
C1466 C1458 1.424 . S
C1466 N1463 1.361 . S
C1466 C1465 1.413 . S
C1467 H1456 0.931 . S
C1467 C1465 1.416 . S
C1467 C1468 1.332 . S
C1468 H1447 0.929 . S
C1468 C1464 1.407 . S
C1468 C1467 1.332 . S
H1469 C1462 0.930 . S
H1470 C1493 0.930 . S
H1471 C1494 0.929 . S
O1472 Tb1428 2.465 . S
O1472 C1492 1.264 . S
O1473 Tb1428 2.387 . S
O1473 C1484 1.264 . S
O1474 Tb1439 2.349 . S
O1474 C1484 1.243 . S
O1475 Tb1428 2.428 . S
O1475 C1492 1.256 . S
O1476 Tb1428 2.308 . S
O1476 C1491 1.266 . S
O1477 Tb1439 2.393 . S
O1477 C1491 1.248 . S
O1478 Tb1439 2.465 . S
O1478 C1503 1.264 . S
O1479 Tb1439 2.387 . S
O1479 C1495 1.264 . S
O1480 Tb1428 2.349 . S
O1480 C1495 1.243 . S
O1481 Tb1439 2.428 . S
O1481 C1503 1.256 . S
O1482 Tb1439 2.308 . S
O1482 C1502 1.266 . S
O1483 Tb1428 2.393 . S
O1483 C1502 1.248 . S
C1484 O1473 1.264 . S
C1484 O1474 1.243 . S
C1485 C1488 1.399 . S
C1485 C1490 1.383 . S
C1485 C1492 1.496 . S
C1486 C1487 1.399 . S
C1486 C1490 1.389 . S
C1487 C1486 1.399 . S
C1487 C1489 1.380 . S
C1487 H1504 0.929 . S
C1488 C1485 1.399 . S
C1488 C1489 1.392 . S
C1488 H1505 0.929 . S
C1489 C1487 1.380 . S
C1489 C1488 1.392 . S
C1489 H1506 0.929 . S
C1490 C1485 1.383 . S
C1490 C1486 1.389 . S
C1490 H1507 0.931 . S
C1491 O1476 1.266 . S
C1491 O1477 1.248 . S
C1492 Tb1428 2.802 . S
C1492 O1472 1.264 . S
C1492 O1475 1.256 . S
C1492 C1485 1.496 . S
C1493 C1460 1.448 . S
C1493 H1470 0.930 . S
C1493 C1494 1.328 . S
C1494 C1465 1.427 . S
C1494 H1471 0.929 . S
C1494 C1493 1.328 . S
C1495 O1479 1.264 . S
C1495 O1480 1.243 . S
C1496 C1499 1.399 . S
C1496 C1500 1.383 . S
C1496 C1503 1.496 . S
C1497 C1498 1.399 . S
C1497 C1500 1.389 . S
C1498 C1497 1.399 . S
C1498 C1501 1.380 . S
C1498 H1508 0.929 . S
C1499 C1496 1.399 . S
C1499 C1501 1.392 . S
C1499 H1509 0.929 . S
C1500 C1496 1.383 . S
C1500 C1497 1.389 . S
C1500 H1510 0.931 . S
C1501 C1498 1.380 . S
C1501 C1499 1.392 . S
C1501 H1511 0.929 . S
C1502 O1482 1.266 . S
C1502 O1483 1.248 . S
C1503 Tb1439 2.802 . S
C1503 O1478 1.264 . S
C1503 O1481 1.256 . S
C1503 C1496 1.496 . S
H1504 C1487 0.929 . S
H1505 C1488 0.929 . S
H1506 C1489 0.929 . S
H1507 C1490 0.931 . S
H1508 C1498 0.929 . S
H1509 C1499 0.929 . S
H1510 C1500 0.931 . S
H1511 C1501 0.929 . S
H1512 C1520 0.950 . S
H1513 C1525 0.950 . S
H1514 C1522 0.950 . S
H1515 C1524 0.950 . S
H1516 C1526 0.950 . S
H1517 C1528 0.950 . S
H1518 C1530 0.950 . S
H1519 C1531 0.950 . S
C1520 H1512 0.950 . S
C1520 C1521 1.386 . S
C1520 C1522 1.391 . S
C1521 C1520 1.386 . S
C1521 C1525 1.393 . S
C1522 H1514 0.950 . S
C1522 C1520 1.391 . S
C1522 C1523 1.400 . S
C1523 C1522 1.400 . S
C1523 C1524 1.398 . S
C1523 C1529 1.491 . S
C1524 H1515 0.950 . S
C1524 C1523 1.398 . S
C1524 C1525 1.391 . S
C1525 H1513 0.950 . S
C1525 C1521 1.393 . S
C1525 C1524 1.391 . S
C1526 H1516 0.950 . S
C1526 C1527 1.386 . S
C1526 C1528 1.391 . S
C1527 C1526 1.386 . S
C1527 C1531 1.393 . S
C1528 H1517 0.950 . S
C1528 C1526 1.391 . S
C1528 C1529 1.400 . S
C1529 C1523 1.491 . S
C1529 C1528 1.400 . S
C1529 C1530 1.398 . S
C1530 H1518 0.950 . S
C1530 C1529 1.398 . S
C1530 C1531 1.391 . S
C1531 H1519 0.950 . S
C1531 C1527 1.393 . S
C1531 C1530 1.391 . S
H1532 C1540 0.950 . S
H1533 C1545 0.950 . S
H1534 C1542 0.950 . S
H1535 C1544 0.950 . S
H1536 C1546 0.950 . S
H1537 C1548 0.950 . S
H1538 C1550 0.950 . S
H1539 C1551 0.950 . S
C1540 H1532 0.950 . S
C1540 C1541 1.386 . S
C1540 C1542 1.391 . S
C1541 C1540 1.386 . S
C1541 C1545 1.393 . S
C1542 H1534 0.950 . S
C1542 C1540 1.391 . S
C1542 C1543 1.400 . S
C1543 C1542 1.400 . S
C1543 C1544 1.398 . S
C1543 C1549 1.491 . S
C1544 H1535 0.950 . S
C1544 C1543 1.398 . S
C1544 C1545 1.391 . S
C1545 H1533 0.950 . S
C1545 C1541 1.393 . S
C1545 C1544 1.391 . S
C1546 H1536 0.950 . S
C1546 C1547 1.386 . S
C1546 C1548 1.391 . S
C1547 C1546 1.386 . S
C1547 C1551 1.393 . S
C1548 H1537 0.950 . S
C1548 C1546 1.391 . S
C1548 C1549 1.400 . S
C1549 C1543 1.491 . S
C1549 C1548 1.400 . S
C1549 C1550 1.398 . S
C1550 H1538 0.950 . S
C1550 C1549 1.398 . S
C1550 C1551 1.391 . S
C1551 H1539 0.950 . S
C1551 C1547 1.393 . S
C1551 C1550 1.391 . S
H1552 C1560 0.950 . S
H1553 C1565 0.950 . S
H1554 C1562 0.950 . S
H1555 C1564 0.950 . S
H1556 C1566 0.950 . S
H1557 C1568 0.950 . S
H1558 C1570 0.950 . S
H1559 C1571 0.950 . S
C1560 H1552 0.950 . S
C1560 C1561 1.386 . S
C1560 C1562 1.391 . S
C1561 C1560 1.386 . S
C1561 C1565 1.393 . S
C1562 H1554 0.950 . S
C1562 C1560 1.391 . S
C1562 C1563 1.400 . S
C1563 C1562 1.400 . S
C1563 C1564 1.398 . S
C1563 C1569 1.491 . S
C1564 H1555 0.950 . S
C1564 C1563 1.398 . S
C1564 C1565 1.391 . S
C1565 H1553 0.950 . S
C1565 C1561 1.393 . S
C1565 C1564 1.391 . S
C1566 H1556 0.950 . S
C1566 C1567 1.386 . S
C1566 C1568 1.391 . S
C1567 C1566 1.386 . S
C1567 C1571 1.393 . S
C1568 H1557 0.950 . S
C1568 C1566 1.391 . S
C1568 C1569 1.400 . S
C1569 C1563 1.491 . S
C1569 C1568 1.400 . S
C1569 C1570 1.398 . S
C1570 H1558 0.950 . S
C1570 C1569 1.398 . S
C1570 C1571 1.391 . S
C1571 H1559 0.950 . S
C1571 C1567 1.393 . S
C1571 C1570 1.391 . S
H1572 C1580 0.950 . S
H1573 C1585 0.950 . S
H1574 C1582 0.950 . S
H1575 C1584 0.950 . S
H1576 C1586 0.950 . S
H1577 C1588 0.950 . S
H1578 C1590 0.950 . S
H1579 C1591 0.950 . S
C1580 H1572 0.950 . S
C1580 C1581 1.386 . S
C1580 C1582 1.391 . S
C1581 C1580 1.386 . S
C1581 C1585 1.393 . S
C1582 H1574 0.950 . S
C1582 C1580 1.391 . S
C1582 C1583 1.400 . S
C1583 C1582 1.400 . S
C1583 C1584 1.398 . S
C1583 C1589 1.491 . S
C1584 H1575 0.950 . S
C1584 C1583 1.398 . S
C1584 C1585 1.391 . S
C1585 H1573 0.950 . S
C1585 C1581 1.393 . S
C1585 C1584 1.391 . S
C1586 H1576 0.950 . S
C1586 C1587 1.386 . S
C1586 C1588 1.391 . S
C1587 C1586 1.386 . S
C1587 C1591 1.393 . S
C1588 H1577 0.950 . S
C1588 C1586 1.391 . S
C1588 C1589 1.400 . S
C1589 C1583 1.491 . S
C1589 C1588 1.400 . S
C1589 C1590 1.398 . S
C1590 H1578 0.950 . S
C1590 C1589 1.398 . S
C1590 C1591 1.391 . S
C1591 H1579 0.950 . S
C1591 C1587 1.393 . S
C1591 C1590 1.391 . S
H1592 C1600 0.950 . S
H1593 C1605 0.950 . S
H1594 C1602 0.950 . S
H1595 C1604 0.950 . S
H1596 C1606 0.950 . S
H1597 C1608 0.950 . S
H1598 C1610 0.950 . S
H1599 C1611 0.950 . S
C1600 H1592 0.950 . S
C1600 C1601 1.386 . S
C1600 C1602 1.391 . S
C1601 C1600 1.386 . S
C1601 C1605 1.393 . S
C1602 H1594 0.950 . S
C1602 C1600 1.391 . S
C1602 C1603 1.400 . S
C1603 C1602 1.400 . S
C1603 C1604 1.398 . S
C1603 C1609 1.491 . S
C1604 H1595 0.950 . S
C1604 C1603 1.398 . S
C1604 C1605 1.391 . S
C1605 H1593 0.950 . S
C1605 C1601 1.393 . S
C1605 C1604 1.391 . S
C1606 H1596 0.950 . S
C1606 C1607 1.386 . S
C1606 C1608 1.391 . S
C1607 C1606 1.386 . S
C1607 C1611 1.393 . S
C1608 H1597 0.950 . S
C1608 C1606 1.391 . S
C1608 C1609 1.400 . S
C1609 C1603 1.491 . S
C1609 C1608 1.400 . S
C1609 C1610 1.398 . S
C1610 H1598 0.950 . S
C1610 C1609 1.398 . S
C1610 C1611 1.391 . S
C1611 H1599 0.950 . S
C1611 C1607 1.393 . S
C1611 C1610 1.391 . S
H1612 C1620 0.950 . S
H1613 C1625 0.950 . S
H1614 C1622 0.950 . S
H1615 C1624 0.950 . S
H1616 C1626 0.950 . S
H1617 C1628 0.950 . S
H1618 C1630 0.950 . S
H1619 C1631 0.950 . S
C1620 H1612 0.950 . S
C1620 C1621 1.386 . S
C1620 C1622 1.391 . S
C1621 C1620 1.386 . S
C1621 C1625 1.393 . S
C1622 H1614 0.950 . S
C1622 C1620 1.391 . S
C1622 C1623 1.400 . S
C1623 C1622 1.400 . S
C1623 C1624 1.398 . S
C1623 C1629 1.491 . S
C1624 H1615 0.950 . S
C1624 C1623 1.398 . S
C1624 C1625 1.391 . S
C1625 H1613 0.950 . S
C1625 C1621 1.393 . S
C1625 C1624 1.391 . S
C1626 H1616 0.950 . S
C1626 C1627 1.386 . S
C1626 C1628 1.391 . S
C1627 C1626 1.386 . S
C1627 C1631 1.393 . S
C1628 H1617 0.950 . S
C1628 C1626 1.391 . S
C1628 C1629 1.400 . S
C1629 C1623 1.491 . S
C1629 C1628 1.400 . S
C1629 C1630 1.398 . S
C1630 H1618 0.950 . S
C1630 C1629 1.398 . S
C1630 C1631 1.391 . S
C1631 H1619 0.950 . S
C1631 C1627 1.393 . S
C1631 C1630 1.391 . S
H1632 C1640 0.950 . S
H1633 C1645 0.950 . S
H1634 C1642 0.950 . S
H1635 C1644 0.950 . S
H1636 C1646 0.950 . S
H1637 C1648 0.950 . S
H1638 C1650 0.950 . S
H1639 C1651 0.950 . S
C1640 H1632 0.950 . S
C1640 C1641 1.386 . S
C1640 C1642 1.391 . S
C1641 C1640 1.386 . S
C1641 C1645 1.393 . S
C1642 H1634 0.950 . S
C1642 C1640 1.391 . S
C1642 C1643 1.400 . S
C1643 C1642 1.400 . S
C1643 C1644 1.398 . S
C1643 C1649 1.491 . S
C1644 H1635 0.950 . S
C1644 C1643 1.398 . S
C1644 C1645 1.391 . S
C1645 H1633 0.950 . S
C1645 C1641 1.393 . S
C1645 C1644 1.391 . S
C1646 H1636 0.950 . S
C1646 C1647 1.386 . S
C1646 C1648 1.391 . S
C1647 C1646 1.386 . S
C1647 C1651 1.393 . S
C1648 H1637 0.950 . S
C1648 C1646 1.391 . S
C1648 C1649 1.400 . S
C1649 C1643 1.491 . S
C1649 C1648 1.400 . S
C1649 C1650 1.398 . S
C1650 H1638 0.950 . S
C1650 C1649 1.398 . S
C1650 C1651 1.391 . S
C1651 H1639 0.950 . S
C1651 C1647 1.393 . S
C1651 C1650 1.391 . S
H1652 C1660 0.950 . S
H1653 C1665 0.950 . S
H1654 C1662 0.950 . S
H1655 C1664 0.950 . S
H1656 C1666 0.950 . S
H1657 C1668 0.946 1_545 S
H1658 C1670 0.950 . S
H1659 C1671 0.950 . S
C1660 H1652 0.950 . S
C1660 C1661 1.386 . S
C1660 C1662 1.391 . S
C1661 C1660 1.386 . S
C1661 C1665 1.393 . S
C1662 H1654 0.950 . S
C1662 C1660 1.391 . S
C1662 C1663 1.400 . S
C1663 C1662 1.400 . S
C1663 C1664 1.398 . S
C1663 C1669 1.491 . S
C1664 H1655 0.950 . S
C1664 C1663 1.398 . S
C1664 C1665 1.391 . S
C1665 H1653 0.950 . S
C1665 C1661 1.393 . S
C1665 C1664 1.391 . S
C1666 H1656 0.950 . S
C1666 C1667 1.386 . S
C1666 C1668 1.395 . S
C1667 C1666 1.386 . S
C1667 C1671 1.393 . S
C1668 H1657 0.946 1_565 S
C1668 C1666 1.395 . S
C1668 C1669 1.400 1_565 S
C1669 C1663 1.491 . S
C1669 C1668 1.400 1_545 S
C1669 C1670 1.398 1_545 S
C1670 H1658 0.950 . S
C1670 C1669 1.398 1_565 S
C1670 C1671 1.391 . S
C1671 H1659 0.950 . S
C1671 C1667 1.393 . S
C1671 C1670 1.391 . S
H1672 C1680 0.950 . S
H1673 C1685 0.950 . S
H1674 C1682 0.950 . S
H1675 C1684 0.950 . S
H1676 C1686 0.950 . S
H1677 C1688 0.950 1_455 S
H1678 C1690 0.950 . S
H1679 C1691 0.950 . S
C1680 H1672 0.950 . S
C1680 C1681 1.386 . S
C1680 C1682 1.391 . S
C1681 C1680 1.386 . S
C1681 C1685 1.393 . S
C1682 H1674 0.950 . S
C1682 C1680 1.391 . S
C1682 C1683 1.400 . S
C1683 C1682 1.400 . S
C1683 C1684 1.398 . S
C1683 C1689 1.491 1_455 S
C1684 H1675 0.950 . S
C1684 C1683 1.398 . S
C1684 C1685 1.391 . S
C1685 H1673 0.950 . S
C1685 C1681 1.393 . S
C1685 C1684 1.391 . S
C1686 H1676 0.950 . S
C1686 C1687 1.386 . S
C1686 C1688 1.391 . S
C1687 C1686 1.386 . S
C1687 C1691 1.393 . S
C1688 H1677 0.950 1_655 S
C1688 C1686 1.391 . S
C1688 C1689 1.400 . S
C1689 C1683 1.491 1_655 S
C1689 C1688 1.400 . S
C1689 C1690 1.398 . S
C1690 H1678 0.950 . S
C1690 C1689 1.398 . S
C1690 C1691 1.391 . S
C1691 H1679 0.950 . S
C1691 C1687 1.393 . S
C1691 C1690 1.391 . S
H1692 C1700 0.950 . S
H1693 C1705 0.950 . S
H1694 C1702 0.950 . S
H1695 C1704 0.950 . S
H1696 C1706 0.950 . S
H1697 C1708 0.950 . S
H1698 C1710 0.950 . S
H1699 C1711 0.950 . S
C1700 H1692 0.950 . S
C1700 C1701 1.386 . S
C1700 C1702 1.391 . S
C1701 C1700 1.386 . S
C1701 C1705 1.393 . S
C1702 H1694 0.950 . S
C1702 C1700 1.391 . S
C1702 C1703 1.400 . S
C1703 C1702 1.400 . S
C1703 C1704 1.398 . S
C1703 C1709 1.491 . S
C1704 H1695 0.950 . S
C1704 C1703 1.398 . S
C1704 C1705 1.391 . S
C1705 H1693 0.950 . S
C1705 C1701 1.393 . S
C1705 C1704 1.391 . S
C1706 H1696 0.950 . S
C1706 C1707 1.386 . S
C1706 C1708 1.391 . S
C1707 C1706 1.386 . S
C1707 C1711 1.393 . S
C1708 H1697 0.950 . S
C1708 C1706 1.391 . S
C1708 C1709 1.400 . S
C1709 C1703 1.491 . S
C1709 C1708 1.400 . S
C1709 C1710 1.398 . S
C1710 H1698 0.950 . S
C1710 C1709 1.398 . S
C1710 C1711 1.391 . S
C1711 H1699 0.950 . S
C1711 C1707 1.393 . S
C1711 C1710 1.391 . S
H1712 C1720 0.950 . S
H1713 C1725 0.950 . S
H1714 C1722 0.950 . S
H1715 C1724 0.950 . S
H1716 C1726 0.950 . S
H1717 C1728 0.950 . S
H1718 C1730 0.950 . S
H1719 C1731 0.950 . S
C1720 H1712 0.950 . S
C1720 C1721 1.386 . S
C1720 C1722 1.391 . S
C1721 C1720 1.386 . S
C1721 C1725 1.393 . S
C1722 H1714 0.950 . S
C1722 C1720 1.391 . S
C1722 C1723 1.400 . S
C1723 C1722 1.400 . S
C1723 C1724 1.398 . S
C1723 C1729 1.491 . S
C1724 H1715 0.950 . S
C1724 C1723 1.398 . S
C1724 C1725 1.391 . S
C1725 H1713 0.950 . S
C1725 C1721 1.393 . S
C1725 C1724 1.391 . S
C1726 H1716 0.950 . S
C1726 C1727 1.386 . S
C1726 C1728 1.391 . S
C1727 C1726 1.386 . S
C1727 C1731 1.393 . S
C1728 H1717 0.950 . S
C1728 C1726 1.391 . S
C1728 C1729 1.400 . S
C1729 C1723 1.491 . S
C1729 C1728 1.400 . S
C1729 C1730 1.398 . S
C1730 H1718 0.950 . S
C1730 C1729 1.398 . S
C1730 C1731 1.391 . S
C1731 H1719 0.950 . S
C1731 C1727 1.393 . S
C1731 C1730 1.391 . S
H1732 C1740 0.950 . S
H1733 C1745 0.950 . S
H1734 C1742 0.950 . S
H1735 C1744 0.950 . S
H1736 C1746 0.950 . S
H1737 C1748 0.950 . S
H1738 C1750 0.950 . S
H1739 C1751 0.950 . S
C1740 H1732 0.950 . S
C1740 C1741 1.386 . S
C1740 C1742 1.391 . S
C1741 C1740 1.386 . S
C1741 C1745 1.393 . S
C1742 H1734 0.950 . S
C1742 C1740 1.391 . S
C1742 C1743 1.400 . S
C1743 C1742 1.400 . S
C1743 C1744 1.398 . S
C1743 C1749 1.491 . S
C1744 H1735 0.950 . S
C1744 C1743 1.398 . S
C1744 C1745 1.391 . S
C1745 H1733 0.950 . S
C1745 C1741 1.393 . S
C1745 C1744 1.391 . S
C1746 H1736 0.950 . S
C1746 C1747 1.386 . S
C1746 C1748 1.391 . S
C1747 C1746 1.386 . S
C1747 C1751 1.393 . S
C1748 H1737 0.950 . S
C1748 C1746 1.391 . S
C1748 C1749 1.400 . S
C1749 C1743 1.491 . S
C1749 C1748 1.400 . S
C1749 C1750 1.398 . S
C1750 H1738 0.950 . S
C1750 C1749 1.398 . S
C1750 C1751 1.391 . S
C1751 H1739 0.950 . S
C1751 C1747 1.393 . S
C1751 C1750 1.391 . S
H1752 C1760 0.950 . S
H1753 C1765 0.950 . S
H1754 C1762 0.950 . S
H1755 C1764 0.950 . S
H1756 C1766 0.950 . S
H1757 C1768 0.950 . S
H1758 C1770 0.950 . S
H1759 C1771 0.950 . S
C1760 H1752 0.950 . S
C1760 C1761 1.386 . S
C1760 C1762 1.391 . S
C1761 C1760 1.386 . S
C1761 C1765 1.393 . S
C1762 H1754 0.950 . S
C1762 C1760 1.391 . S
C1762 C1763 1.400 . S
C1763 C1762 1.400 . S
C1763 C1764 1.398 . S
C1763 C1769 1.491 . S
C1764 H1755 0.950 . S
C1764 C1763 1.398 . S
C1764 C1765 1.391 . S
C1765 H1753 0.950 . S
C1765 C1761 1.393 . S
C1765 C1764 1.391 . S
C1766 H1756 0.950 . S
C1766 C1767 1.386 . S
C1766 C1768 1.391 . S
C1767 C1766 1.386 . S
C1767 C1771 1.393 . S
C1768 H1757 0.950 . S
C1768 C1766 1.391 . S
C1768 C1769 1.400 . S
C1769 C1763 1.491 . S
C1769 C1768 1.400 . S
C1769 C1770 1.398 . S
C1770 H1758 0.950 . S
C1770 C1769 1.398 . S
C1770 C1771 1.391 . S
C1771 H1759 0.950 . S
C1771 C1767 1.393 . S
C1771 C1770 1.391 . S
H1772 C1780 0.950 . S
H1773 C1785 0.950 . S
H1774 C1782 0.950 . S
H1775 C1784 0.950 . S
H1776 C1786 0.950 . S
H1777 C1788 0.950 . S
H1778 C1790 0.950 . S
H1779 C1791 0.950 . S
C1780 H1772 0.950 . S
C1780 C1781 1.386 . S
C1780 C1782 1.391 . S
C1781 C1780 1.386 . S
C1781 C1785 1.393 . S
C1782 H1774 0.950 . S
C1782 C1780 1.391 . S
C1782 C1783 1.400 . S
C1783 C1782 1.400 . S
C1783 C1784 1.398 . S
C1783 C1789 1.491 . S
C1784 H1775 0.950 . S
C1784 C1783 1.398 . S
C1784 C1785 1.391 . S
C1785 H1773 0.950 . S
C1785 C1781 1.393 . S
C1785 C1784 1.391 . S
C1786 H1776 0.950 . S
C1786 C1787 1.386 . S
C1786 C1788 1.391 . S
C1787 C1786 1.386 . S
C1787 C1791 1.393 . S
C1788 H1777 0.950 . S
C1788 C1786 1.391 . S
C1788 C1789 1.400 . S
C1789 C1783 1.491 . S
C1789 C1788 1.400 . S
C1789 C1790 1.398 . S
C1790 H1778 0.950 . S
C1790 C1789 1.398 . S
C1790 C1791 1.391 . S
C1791 H1779 0.950 . S
C1791 C1787 1.393 . S
C1791 C1790 1.391 . S
H1792 C1800 0.950 . S
H1793 C1805 0.950 . S
H1794 C1802 0.950 . S
H1795 C1804 0.950 . S
H1796 C1806 0.950 . S
H1797 C1808 0.950 . S
H1798 C1810 0.950 . S
H1799 C1811 0.950 . S
C1800 H1792 0.950 . S
C1800 C1801 1.386 . S
C1800 C1802 1.391 . S
C1801 C1800 1.386 . S
C1801 C1805 1.393 . S
C1802 H1794 0.950 . S
C1802 C1800 1.391 . S
C1802 C1803 1.400 . S
C1803 C1802 1.400 . S
C1803 C1804 1.398 . S
C1803 C1809 1.491 . S
C1804 H1795 0.950 . S
C1804 C1803 1.398 . S
C1804 C1805 1.391 . S
C1805 H1793 0.950 . S
C1805 C1801 1.393 . S
C1805 C1804 1.391 . S
C1806 H1796 0.950 . S
C1806 C1807 1.386 . S
C1806 C1808 1.391 . S
C1807 C1806 1.386 . S
C1807 C1811 1.393 . S
C1808 H1797 0.950 . S
C1808 C1806 1.391 . S
C1808 C1809 1.400 . S
C1809 C1803 1.491 . S
C1809 C1808 1.400 . S
C1809 C1810 1.398 . S
C1810 H1798 0.950 . S
C1810 C1809 1.398 . S
C1810 C1811 1.391 . S
C1811 H1799 0.950 . S
C1811 C1807 1.393 . S
C1811 C1810 1.391 . S
H1812 C1820 0.950 . S
H1813 C1825 0.950 . S
H1814 C1822 0.950 . S
H1815 C1824 0.950 . S
H1816 C1826 0.950 . S
H1817 C1828 0.950 . S
H1818 C1830 0.950 . S
H1819 C1831 0.950 . S
C1820 H1812 0.950 . S
C1820 C1821 1.386 . S
C1820 C1822 1.391 . S
C1821 C1820 1.386 . S
C1821 C1825 1.393 . S
C1822 H1814 0.950 . S
C1822 C1820 1.391 . S
C1822 C1823 1.400 . S
C1823 C1822 1.400 . S
C1823 C1824 1.398 . S
C1823 C1829 1.491 . S
C1824 H1815 0.950 . S
C1824 C1823 1.398 . S
C1824 C1825 1.391 . S
C1825 H1813 0.950 . S
C1825 C1821 1.393 . S
C1825 C1824 1.391 . S
C1826 H1816 0.950 . S
C1826 C1827 1.386 . S
C1826 C1828 1.391 . S
C1827 C1826 1.386 . S
C1827 C1831 1.393 . S
C1828 H1817 0.950 . S
C1828 C1826 1.391 . S
C1828 C1829 1.400 . S
C1829 C1823 1.491 . S
C1829 C1828 1.400 . S
C1829 C1830 1.398 . S
C1830 H1818 0.950 . S
C1830 C1829 1.398 . S
C1830 C1831 1.391 . S
C1831 H1819 0.950 . S
C1831 C1827 1.393 . S
C1831 C1830 1.391 . S
H1832 C1840 0.950 . S
H1833 C1845 0.950 . S
H1834 C1842 0.950 . S
H1835 C1844 0.950 . S
H1836 C1846 0.950 . S
H1837 C1848 0.950 . S
H1838 C1850 0.950 . S
H1839 C1851 0.950 . S
C1840 H1832 0.950 . S
C1840 C1841 1.386 . S
C1840 C1842 1.391 . S
C1841 C1840 1.386 . S
C1841 C1845 1.393 . S
C1842 H1834 0.950 . S
C1842 C1840 1.391 . S
C1842 C1843 1.400 . S
C1843 C1842 1.400 . S
C1843 C1844 1.398 . S
C1843 C1849 1.491 1_565 S
C1844 H1835 0.950 . S
C1844 C1843 1.398 . S
C1844 C1845 1.391 . S
C1845 H1833 0.950 . S
C1845 C1841 1.393 . S
C1845 C1844 1.391 . S
C1846 H1836 0.950 . S
C1846 C1847 1.386 . S
C1846 C1848 1.391 . S
C1847 C1846 1.386 . S
C1847 C1851 1.393 . S
C1848 H1837 0.950 . S
C1848 C1846 1.391 . S
C1848 C1849 1.400 . S
C1849 C1843 1.491 1_545 S
C1849 C1848 1.400 . S
C1849 C1850 1.398 . S
C1850 H1838 0.950 . S
C1850 C1849 1.398 . S
C1850 C1851 1.391 . S
C1851 H1839 0.950 . S
C1851 C1847 1.393 . S
C1851 C1850 1.391 . S
H1852 C1860 0.950 . S
H1853 C1865 0.950 . S
H1854 C1862 0.950 . S
H1855 C1864 0.950 . S
H1856 C1866 0.950 . S
H1857 C1868 0.950 . S
H1858 C1870 0.950 . S
H1859 C1871 0.950 . S
C1860 H1852 0.950 . S
C1860 C1861 1.386 . S
C1860 C1862 1.391 . S
C1861 C1860 1.386 . S
C1861 C1865 1.393 . S
C1862 H1854 0.950 . S
C1862 C1860 1.391 . S
C1862 C1863 1.400 . S
C1863 C1862 1.400 . S
C1863 C1864 1.398 . S
C1863 C1869 1.491 . S
C1864 H1855 0.950 . S
C1864 C1863 1.398 . S
C1864 C1865 1.391 . S
C1865 H1853 0.950 . S
C1865 C1861 1.393 . S
C1865 C1864 1.391 . S
C1866 H1856 0.950 . S
C1866 C1867 1.386 . S
C1866 C1868 1.391 . S
C1867 C1866 1.386 . S
C1867 C1871 1.393 . S
C1868 H1857 0.950 . S
C1868 C1866 1.391 . S
C1868 C1869 1.400 1_655 S
C1869 C1863 1.491 . S
C1869 C1868 1.400 1_455 S
C1869 C1870 1.398 . S
C1870 H1858 0.950 . S
C1870 C1869 1.398 . S
C1870 C1871 1.391 1_455 S
C1871 H1859 0.950 . S
C1871 C1867 1.393 . S
C1871 C1870 1.391 1_655 S
H1872 C1880 0.950 1_565 S
H1873 C1885 0.950 . S
H1874 C1882 0.950 1_565 S
H1875 C1884 0.950 . S
H1876 C1886 0.950 . S
H1877 C1888 0.950 . S
H1878 C1890 0.950 . S
H1879 C1891 0.950 . S
C1880 H1872 0.950 1_545 S
C1880 C1881 1.386 . S
C1880 C1882 1.391 . S
C1881 C1880 1.386 . S
C1881 C1885 1.393 . S
C1882 H1874 0.950 1_545 S
C1882 C1880 1.391 . S
C1882 C1883 1.400 . S
C1883 C1882 1.400 . S
C1883 C1884 1.398 . S
C1883 C1889 1.491 1_554 S
C1884 H1875 0.950 . S
C1884 C1883 1.398 . S
C1884 C1885 1.391 . S
C1885 H1873 0.950 . S
C1885 C1881 1.393 . S
C1885 C1884 1.391 . S
C1886 H1876 0.950 . S
C1886 C1887 1.386 . S
C1886 C1888 1.391 . S
C1887 C1886 1.386 . S
C1887 C1891 1.393 1_545 S
C1888 H1877 0.950 . S
C1888 C1886 1.391 . S
C1888 C1889 1.400 . S
C1889 C1883 1.491 1_556 S
C1889 C1888 1.400 . S
C1889 C1890 1.398 1_545 S
C1890 H1878 0.950 . S
C1890 C1889 1.398 1_565 S
C1890 C1891 1.391 . S
C1891 H1879 0.950 . S
C1891 C1887 1.393 1_565 S
C1891 C1890 1.391 . S
H1892 C1900 0.950 . S
H1893 C1905 0.950 . S
H1894 C1902 0.950 . S
H1895 C1904 0.950 . S
H1896 C1906 0.950 . S
H1897 C1908 0.950 . S
H1898 C1910 0.950 . S
H1899 C1911 0.950 . S
C1900 H1892 0.950 . S
C1900 C1901 1.386 . S
C1900 C1902 1.391 . S
C1901 C1900 1.386 . S
C1901 C1905 1.393 1_455 S
C1902 H1894 0.950 . S
C1902 C1900 1.391 . S
C1902 C1903 1.400 . S
C1903 C1902 1.400 . S
C1903 C1904 1.398 1_455 S
C1903 C1909 1.491 1_556 S
C1904 H1895 0.950 . S
C1904 C1903 1.398 1_655 S
C1904 C1905 1.391 . S
C1905 H1893 0.950 . S
C1905 C1901 1.393 1_655 S
C1905 C1904 1.391 . S
C1906 H1896 0.950 . S
C1906 C1907 1.386 1_655 S
C1906 C1908 1.391 . S
C1907 C1906 1.386 1_455 S
C1907 C1911 1.393 . S
C1908 H1897 0.950 . S
C1908 C1906 1.391 . S
C1908 C1909 1.400 1_655 S
C1909 C1903 1.491 1_554 S
C1909 C1908 1.400 1_455 S
C1909 C1910 1.398 . S
C1910 H1898 0.950 . S
C1910 C1909 1.398 . S
C1910 C1911 1.391 . S
C1911 H1899 0.950 . S
C1911 C1907 1.393 . S
C1911 C1910 1.391 . S
H1912 C1920 0.950 . S
H1913 C1925 0.950 . S
H1914 C1922 0.950 . S
H1915 C1924 0.950 . S
H1916 C1926 0.950 . S
H1917 C1928 0.950 . S
H1918 C1930 0.950 . S
H1919 C1931 0.950 . S
C1920 H1912 0.950 . S
C1920 C1921 1.386 . S
C1920 C1922 1.391 . S
C1921 C1920 1.386 . S
C1921 C1925 1.393 . S
C1922 H1914 0.950 . S
C1922 C1920 1.391 . S
C1922 C1923 1.400 . S
C1923 C1922 1.400 . S
C1923 C1924 1.398 . S
C1923 C1929 1.491 1_556 S
C1924 H1915 0.950 . S
C1924 C1923 1.398 . S
C1924 C1925 1.391 . S
C1925 H1913 0.950 . S
C1925 C1921 1.393 . S
C1925 C1924 1.391 . S
C1926 H1916 0.950 . S
C1926 C1927 1.386 . S
C1926 C1928 1.391 . S
C1927 C1926 1.386 . S
C1927 C1931 1.393 . S
C1928 H1917 0.950 . S
C1928 C1926 1.391 . S
C1928 C1929 1.400 . S
C1929 C1923 1.491 1_554 S
C1929 C1928 1.400 . S
C1929 C1930 1.398 . S
C1930 H1918 0.950 . S
C1930 C1929 1.398 . S
C1930 C1931 1.391 . S
C1931 H1919 0.950 . S
C1931 C1927 1.393 . S
C1931 C1930 1.391 . S
H1932 C1940 0.950 . S
H1933 C1945 0.950 . S
H1934 C1942 0.950 . S
H1935 C1944 0.950 . S
H1936 C1946 0.950 . S
H1937 C1948 0.950 . S
H1938 C1950 0.950 . S
H1939 C1951 0.950 . S
C1940 H1932 0.950 . S
C1940 C1941 1.386 . S
C1940 C1942 1.391 . S
C1941 C1940 1.386 . S
C1941 C1945 1.393 . S
C1942 H1934 0.950 . S
C1942 C1940 1.391 . S
C1942 C1943 1.400 . S
C1943 C1942 1.400 . S
C1943 C1944 1.398 . S
C1943 C1949 1.491 . S
C1944 H1935 0.950 . S
C1944 C1943 1.398 . S
C1944 C1945 1.391 . S
C1945 H1933 0.950 . S
C1945 C1941 1.393 . S
C1945 C1944 1.391 . S
C1946 H1936 0.950 . S
C1946 C1947 1.386 . S
C1946 C1948 1.391 . S
C1947 C1946 1.386 . S
C1947 C1951 1.393 . S
C1948 H1937 0.950 . S
C1948 C1946 1.391 . S
C1948 C1949 1.400 . S
C1949 C1943 1.491 . S
C1949 C1948 1.400 . S
C1949 C1950 1.398 . S
C1950 H1938 0.950 . S
C1950 C1949 1.398 . S
C1950 C1951 1.391 . S
C1951 H1939 0.950 . S
C1951 C1947 1.393 . S
C1951 C1950 1.391 . S
H1952 C1960 0.950 . S
H1953 C1965 0.950 . S
H1954 C1962 0.950 . S
H1955 C1964 0.950 . S
H1956 C1966 0.950 . S
H1957 C1968 0.950 . S
H1958 C1970 0.950 . S
H1959 C1971 0.950 . S
C1960 H1952 0.950 . S
C1960 C1961 1.386 . S
C1960 C1962 1.391 . S
C1961 C1960 1.386 . S
C1961 C1965 1.393 . S
C1962 H1954 0.950 . S
C1962 C1960 1.391 . S
C1962 C1963 1.400 . S
C1963 C1962 1.400 . S
C1963 C1964 1.398 . S
C1963 C1969 1.491 . S
C1964 H1955 0.950 . S
C1964 C1963 1.398 . S
C1964 C1965 1.391 . S
C1965 H1953 0.950 . S
C1965 C1961 1.393 . S
C1965 C1964 1.391 . S
C1966 H1956 0.950 . S
C1966 C1967 1.386 . S
C1966 C1968 1.391 . S
C1967 C1966 1.386 . S
C1967 C1971 1.393 . S
C1968 H1957 0.950 . S
C1968 C1966 1.391 . S
C1968 C1969 1.400 . S
C1969 C1963 1.491 . S
C1969 C1968 1.400 . S
C1969 C1970 1.398 . S
C1970 H1958 0.950 . S
C1970 C1969 1.398 . S
C1970 C1971 1.391 . S
C1971 H1959 0.950 . S
C1971 C1967 1.393 . S
C1971 C1970 1.391 . S
H1972 C1980 0.950 . S
H1973 C1985 0.950 . S
H1974 C1982 0.950 . S
H1975 C1984 0.950 . S
H1976 C1986 0.950 . S
H1977 C1988 0.950 . S
H1978 C1990 0.950 . S
H1979 C1991 0.950 . S
C1980 H1972 0.950 . S
C1980 C1981 1.386 . S
C1980 C1982 1.391 . S
C1981 C1980 1.386 . S
C1981 C1985 1.393 . S
C1982 H1974 0.950 . S
C1982 C1980 1.391 . S
C1982 C1983 1.400 . S
C1983 C1982 1.400 . S
C1983 C1984 1.398 . S
C1983 C1989 1.491 . S
C1984 H1975 0.950 . S
C1984 C1983 1.398 . S
C1984 C1985 1.391 . S
C1985 H1973 0.950 . S
C1985 C1981 1.393 . S
C1985 C1984 1.391 . S
C1986 H1976 0.950 . S
C1986 C1987 1.386 . S
C1986 C1988 1.391 . S
C1987 C1986 1.386 . S
C1987 C1991 1.393 . S
C1988 H1977 0.950 . S
C1988 C1986 1.391 . S
C1988 C1989 1.400 . S
C1989 C1983 1.491 . S
C1989 C1988 1.400 . S
C1989 C1990 1.398 . S
C1990 H1978 0.950 . S
C1990 C1989 1.398 . S
C1990 C1991 1.391 . S
C1991 H1979 0.950 . S
C1991 C1987 1.393 . S
C1991 C1990 1.391 . S
H1992 C2000 0.950 . S
H1993 C2005 0.950 . S
H1994 C2002 0.950 . S
H1995 C2004 0.950 . S
H1996 C2006 0.950 . S
H1997 C2008 0.950 . S
H1998 C2010 0.950 . S
H1999 C2011 0.950 . S
C2000 H1992 0.950 . S
C2000 C2001 1.386 . S
C2000 C2002 1.391 . S
C2001 C2000 1.386 . S
C2001 C2005 1.393 . S
C2002 H1994 0.950 . S
C2002 C2000 1.391 . S
C2002 C2003 1.400 . S
C2003 C2002 1.400 . S
C2003 C2004 1.398 . S
C2003 C2009 1.491 . S
C2004 H1995 0.950 . S
C2004 C2003 1.398 . S
C2004 C2005 1.391 . S
C2005 H1993 0.950 . S
C2005 C2001 1.393 . S
C2005 C2004 1.391 . S
C2006 H1996 0.950 . S
C2006 C2007 1.386 . S
C2006 C2008 1.391 . S
C2007 C2006 1.386 . S
C2007 C2011 1.393 . S
C2008 H1997 0.950 . S
C2008 C2006 1.391 . S
C2008 C2009 1.400 . S
C2009 C2003 1.491 . S
C2009 C2008 1.400 . S
C2009 C2010 1.398 . S
C2010 H1998 0.950 . S
C2010 C2009 1.398 . S
C2010 C2011 1.391 . S
C2011 H1999 0.950 . S
C2011 C2007 1.393 . S
C2011 C2010 1.391 . S
H2012 C2020 0.950 . S
H2013 C2025 0.950 . S
H2014 C2022 0.950 . S
H2015 C2024 0.950 . S
H2016 C2026 0.950 . S
H2017 C2028 0.950 . S
H2018 C2030 0.950 . S
H2019 C2031 0.950 . S
C2020 H2012 0.950 . S
C2020 C2021 1.386 . S
C2020 C2022 1.391 . S
C2021 C2020 1.386 . S
C2021 C2025 1.393 . S
C2022 H2014 0.950 . S
C2022 C2020 1.391 . S
C2022 C2023 1.400 . S
C2023 C2022 1.400 . S
C2023 C2024 1.398 . S
C2023 C2029 1.491 . S
C2024 H2015 0.950 . S
C2024 C2023 1.398 . S
C2024 C2025 1.391 . S
C2025 H2013 0.950 . S
C2025 C2021 1.393 . S
C2025 C2024 1.391 . S
C2026 H2016 0.950 . S
C2026 C2027 1.386 . S
C2026 C2028 1.391 . S
C2027 C2026 1.386 . S
C2027 C2031 1.393 . S
C2028 H2017 0.950 . S
C2028 C2026 1.391 . S
C2028 C2029 1.400 . S
C2029 C2023 1.491 . S
C2029 C2028 1.400 . S
C2029 C2030 1.398 . S
C2030 H2018 0.950 . S
C2030 C2029 1.398 . S
C2030 C2031 1.391 . S
C2031 H2019 0.950 . S
C2031 C2027 1.393 . S
C2031 C2030 1.391 . S
H2032 C2040 0.950 . S
H2033 C2045 0.950 . S
H2034 C2042 0.950 . S
H2035 C2044 0.950 . S
H2036 C2046 0.950 . S
H2037 C2048 0.950 . S
H2038 C2050 0.950 . S
H2039 C2051 0.950 . S
C2040 H2032 0.950 . S
C2040 C2041 1.386 . S
C2040 C2042 1.391 . S
C2041 C2040 1.386 . S
C2041 C2045 1.393 . S
C2042 H2034 0.950 . S
C2042 C2040 1.391 . S
C2042 C2043 1.400 . S
C2043 C2042 1.400 . S
C2043 C2044 1.398 . S
C2043 C2049 1.491 . S
C2044 H2035 0.950 . S
C2044 C2043 1.398 . S
C2044 C2045 1.391 . S
C2045 H2033 0.950 . S
C2045 C2041 1.393 . S
C2045 C2044 1.391 . S
C2046 H2036 0.950 . S
C2046 C2047 1.386 . S
C2046 C2048 1.391 . S
C2047 C2046 1.386 . S
C2047 C2051 1.393 . S
C2048 H2037 0.950 . S
C2048 C2046 1.391 . S
C2048 C2049 1.400 . S
C2049 C2043 1.491 . S
C2049 C2048 1.400 . S
C2049 C2050 1.398 . S
C2050 H2038 0.950 . S
C2050 C2049 1.398 . S
C2050 C2051 1.391 . S
C2051 H2039 0.950 . S
C2051 C2047 1.393 . S
C2051 C2050 1.391 . S
H2052 C2060 0.950 . S
H2053 C2065 0.950 . S
H2054 C2062 0.950 . S
H2055 C2064 0.950 . S
H2056 C2066 0.950 1_545 S
H2057 C2068 0.950 . S
H2058 C2070 0.950 . S
H2059 C2071 0.950 . S
C2060 H2052 0.950 . S
C2060 C2061 1.386 . S
C2060 C2062 1.391 . S
C2061 C2060 1.386 . S
C2061 C2065 1.393 . S
C2062 H2054 0.950 . S
C2062 C2060 1.391 . S
C2062 C2063 1.400 . S
C2063 C2062 1.400 . S
C2063 C2064 1.398 . S
C2063 C2069 1.491 . S
C2064 H2055 0.950 . S
C2064 C2063 1.398 . S
C2064 C2065 1.391 . S
C2065 H2053 0.950 . S
C2065 C2061 1.393 . S
C2065 C2064 1.391 . S
C2066 H2056 0.950 1_565 S
C2066 C2067 1.386 . S
C2066 C2068 1.391 . S
C2067 C2066 1.386 . S
C2067 C2071 1.393 . S
C2068 H2057 0.950 . S
C2068 C2066 1.391 . S
C2068 C2069 1.400 . S
C2069 C2063 1.491 . S
C2069 C2068 1.400 . S
C2069 C2070 1.398 . S
C2070 H2058 0.950 . S
C2070 C2069 1.398 . S
C2070 C2071 1.391 . S
C2071 H2059 0.950 . S
C2071 C2067 1.393 . S
C2071 C2070 1.391 . S
H2072 C2080 0.950 . S
H2073 C2085 0.950 . S
H2074 C2082 0.950 . S
H2075 C2084 0.950 . S
H2076 C2086 0.950 . S
H2077 C2088 0.950 . S
H2078 C2090 0.950 . S
H2079 C2091 0.950 . S
C2080 H2072 0.950 . S
C2080 C2081 1.386 . S
C2080 C2082 1.391 . S
C2081 C2080 1.386 . S
C2081 C2085 1.393 . S
C2082 H2074 0.950 . S
C2082 C2080 1.391 . S
C2082 C2083 1.400 . S
C2083 C2082 1.400 . S
C2083 C2084 1.398 . S
C2083 C2089 1.491 . S
C2084 H2075 0.950 . S
C2084 C2083 1.398 . S
C2084 C2085 1.391 . S
C2085 H2073 0.950 . S
C2085 C2081 1.393 . S
C2085 C2084 1.391 . S
C2086 H2076 0.950 . S
C2086 C2087 1.386 . S
C2086 C2088 1.391 . S
C2087 C2086 1.386 . S
C2087 C2091 1.393 . S
C2088 H2077 0.950 . S
C2088 C2086 1.391 . S
C2088 C2089 1.400 . S
C2089 C2083 1.491 . S
C2089 C2088 1.400 . S
C2089 C2090 1.398 . S
C2090 H2078 0.950 . S
C2090 C2089 1.398 . S
C2090 C2091 1.391 . S
C2091 H2079 0.950 . S
C2091 C2087 1.393 . S
C2091 C2090 1.391 . S
H2092 C2100 0.950 . S
H2093 C2105 0.950 . S
H2094 C2102 0.950 . S
H2095 C2104 0.950 . S
H2096 C2106 0.950 . S
H2097 C2108 0.950 . S
H2098 C2110 0.950 . S
H2099 C2111 0.950 . S
C2100 H2092 0.950 . S
C2100 C2101 1.386 . S
C2100 C2102 1.391 . S
C2101 C2100 1.386 . S
C2101 C2105 1.393 . S
C2102 H2094 0.950 . S
C2102 C2100 1.391 . S
C2102 C2103 1.400 . S
C2103 C2102 1.400 . S
C2103 C2104 1.398 . S
C2103 C2109 1.491 . S
C2104 H2095 0.950 . S
C2104 C2103 1.398 . S
C2104 C2105 1.391 . S
C2105 H2093 0.950 . S
C2105 C2101 1.393 . S
C2105 C2104 1.391 . S
C2106 H2096 0.950 . S
C2106 C2107 1.386 . S
C2106 C2108 1.391 . S
C2107 C2106 1.386 . S
C2107 C2111 1.393 . S
C2108 H2097 0.950 . S
C2108 C2106 1.391 . S
C2108 C2109 1.400 . S
C2109 C2103 1.491 . S
C2109 C2108 1.400 . S
C2109 C2110 1.398 . S
C2110 H2098 0.950 . S
C2110 C2109 1.398 . S
C2110 C2111 1.391 . S
C2111 H2099 0.950 . S
C2111 C2107 1.393 . S
C2111 C2110 1.391 . S
H2112 C2120 0.950 . S
H2113 C2125 0.950 . S
H2114 C2122 0.950 . S
H2115 C2124 0.950 . S
H2116 C2126 0.950 . S
H2117 C2128 0.950 . S
H2118 C2130 0.950 . S
H2119 C2131 0.950 . S
C2120 H2112 0.950 . S
C2120 C2121 1.386 . S
C2120 C2122 1.391 . S
C2121 C2120 1.386 . S
C2121 C2125 1.393 . S
C2122 H2114 0.950 . S
C2122 C2120 1.391 . S
C2122 C2123 1.400 . S
C2123 C2122 1.400 . S
C2123 C2124 1.398 . S
C2123 C2129 1.491 . S
C2124 H2115 0.950 . S
C2124 C2123 1.398 . S
C2124 C2125 1.391 . S
C2125 H2113 0.950 . S
C2125 C2121 1.393 . S
C2125 C2124 1.391 . S
C2126 H2116 0.950 . S
C2126 C2127 1.386 . S
C2126 C2128 1.391 . S
C2127 C2126 1.386 . S
C2127 C2131 1.393 . S
C2128 H2117 0.950 . S
C2128 C2126 1.391 . S
C2128 C2129 1.400 . S
C2129 C2123 1.491 . S
C2129 C2128 1.400 . S
C2129 C2130 1.398 . S
C2130 H2118 0.950 . S
C2130 C2129 1.398 . S
C2130 C2131 1.391 . S
C2131 H2119 0.950 . S
C2131 C2127 1.393 . S
C2131 C2130 1.391 . S
H2132 C2140 0.950 . S
H2133 C2145 0.950 . S
H2134 C2142 0.950 . S
H2135 C2144 0.950 . S
H2136 C2146 0.950 . S
H2137 C2148 0.950 . S
H2138 C2150 0.950 . S
H2139 C2151 0.950 . S
C2140 H2132 0.950 . S
C2140 C2141 1.386 . S
C2140 C2142 1.391 . S
C2141 C2140 1.386 . S
C2141 C2145 1.393 . S
C2142 H2134 0.950 . S
C2142 C2140 1.391 . S
C2142 C2143 1.400 . S
C2143 C2142 1.400 . S
C2143 C2144 1.398 . S
C2143 C2149 1.491 . S
C2144 H2135 0.950 . S
C2144 C2143 1.398 . S
C2144 C2145 1.391 . S
C2145 H2133 0.950 . S
C2145 C2141 1.393 . S
C2145 C2144 1.391 . S
C2146 H2136 0.950 . S
C2146 C2147 1.386 . S
C2146 C2148 1.391 . S
C2147 C2146 1.386 . S
C2147 C2151 1.393 . S
C2148 H2137 0.950 . S
C2148 C2146 1.391 . S
C2148 C2149 1.400 . S
C2149 C2143 1.491 . S
C2149 C2148 1.400 . S
C2149 C2150 1.398 . S
C2150 H2138 0.950 . S
C2150 C2149 1.398 . S
C2150 C2151 1.391 . S
C2151 H2139 0.950 . S
C2151 C2147 1.393 . S
C2151 C2150 1.391 . S
H2152 C2160 0.950 . S
H2153 C2165 0.950 . S
H2154 C2162 0.950 . S
H2155 C2164 0.950 . S
H2156 C2166 0.950 . S
H2157 C2168 0.950 . S
H2158 C2170 0.950 . S
H2159 C2171 0.950 . S
C2160 H2152 0.950 . S
C2160 C2161 1.386 . S
C2160 C2162 1.391 . S
C2161 C2160 1.386 . S
C2161 C2165 1.393 . S
C2162 H2154 0.950 . S
C2162 C2160 1.391 . S
C2162 C2163 1.400 . S
C2163 C2162 1.400 . S
C2163 C2164 1.398 . S
C2163 C2169 1.491 . S
C2164 H2155 0.950 . S
C2164 C2163 1.398 . S
C2164 C2165 1.391 . S
C2165 H2153 0.950 . S
C2165 C2161 1.393 . S
C2165 C2164 1.391 . S
C2166 H2156 0.950 . S
C2166 C2167 1.386 . S
C2166 C2168 1.391 . S
C2167 C2166 1.386 . S
C2167 C2171 1.393 . S
C2168 H2157 0.950 . S
C2168 C2166 1.391 . S
C2168 C2169 1.400 . S
C2169 C2163 1.491 . S
C2169 C2168 1.400 . S
C2169 C2170 1.398 . S
C2170 H2158 0.950 . S
C2170 C2169 1.398 . S
C2170 C2171 1.391 . S
C2171 H2159 0.950 . S
C2171 C2167 1.393 . S
C2171 C2170 1.391 . S
H2172 C2180 0.950 . S
H2173 C2185 0.950 . S
H2174 C2182 0.949 . S
H2175 C2184 0.950 . S
H2176 C2186 0.950 . S
H2177 C2188 0.950 . S
H2178 C2190 0.950 . S
H2179 C2191 0.950 . S
C2180 H2172 0.950 . S
C2180 C2181 1.386 . S
C2180 C2182 1.391 . S
C2181 C2180 1.386 . S
C2181 C2185 1.393 . S
C2182 H2174 0.949 . S
C2182 C2180 1.391 . S
C2182 C2183 1.400 1_655 S
C2183 C2182 1.400 1_455 S
C2183 C2184 1.398 1_455 S
C2183 C2189 1.491 . S
C2184 H2175 0.950 . S
C2184 C2183 1.398 1_655 S
C2184 C2185 1.391 . S
C2185 H2173 0.950 . S
C2185 C2181 1.393 . S
C2185 C2184 1.391 . S
C2186 H2176 0.950 . S
C2186 C2187 1.386 . S
C2186 C2188 1.391 . S
C2187 C2186 1.386 . S
C2187 C2191 1.393 . S
C2188 H2177 0.950 . S
C2188 C2186 1.391 . S
C2188 C2189 1.400 . S
C2189 C2183 1.491 . S
C2189 C2188 1.400 . S
C2189 C2190 1.398 . S
C2190 H2178 0.950 . S
C2190 C2189 1.398 . S
C2190 C2191 1.391 . S
C2191 H2179 0.950 . S
C2191 C2187 1.393 . S
C2191 C2190 1.391 . S
H2192 C2200 0.950 . S
H2193 C2205 0.950 . S
H2194 C2202 0.950 . S
H2195 C2204 0.950 . S
H2196 C2206 0.950 . S
H2197 C2208 0.950 . S
H2198 C2210 0.950 . S
H2199 C2211 0.950 . S
C2200 H2192 0.950 . S
C2200 C2201 1.386 . S
C2200 C2202 1.391 . S
C2201 C2200 1.386 . S
C2201 C2205 1.393 . S
C2202 H2194 0.950 . S
C2202 C2200 1.391 . S
C2202 C2203 1.400 . S
C2203 C2202 1.400 . S
C2203 C2204 1.398 . S
C2203 C2209 1.491 . S
C2204 H2195 0.950 . S
C2204 C2203 1.398 . S
C2204 C2205 1.391 . S
C2205 H2193 0.950 . S
C2205 C2201 1.393 . S
C2205 C2204 1.391 . S
C2206 H2196 0.950 . S
C2206 C2207 1.386 . S
C2206 C2208 1.391 . S
C2207 C2206 1.386 . S
C2207 C2211 1.393 . S
C2208 H2197 0.950 . S
C2208 C2206 1.391 . S
C2208 C2209 1.400 . S
C2209 C2203 1.491 . S
C2209 C2208 1.400 . S
C2209 C2210 1.398 . S
C2210 H2198 0.950 . S
C2210 C2209 1.398 . S
C2210 C2211 1.391 . S
C2211 H2199 0.950 . S
C2211 C2207 1.393 . S
C2211 C2210 1.391 . S
H2212 C2220 0.950 . S
H2213 C2225 0.950 . S
H2214 C2222 0.950 . S
H2215 C2224 0.950 . S
H2216 C2226 0.950 . S
H2217 C2228 0.950 . S
H2218 C2230 0.950 . S
H2219 C2231 0.950 . S
C2220 H2212 0.950 . S
C2220 C2221 1.386 . S
C2220 C2222 1.391 . S
C2221 C2220 1.386 . S
C2221 C2225 1.393 . S
C2222 H2214 0.950 . S
C2222 C2220 1.391 . S
C2222 C2223 1.400 1_565 S
C2223 C2222 1.400 1_545 S
C2223 C2224 1.398 . S
C2223 C2229 1.491 . S
C2224 H2215 0.950 . S
C2224 C2223 1.398 . S
C2224 C2225 1.391 1_545 S
C2225 H2213 0.950 . S
C2225 C2221 1.393 . S
C2225 C2224 1.391 1_565 S
C2226 H2216 0.950 . S
C2226 C2227 1.386 . S
C2226 C2228 1.391 . S
C2227 C2226 1.386 . S
C2227 C2231 1.393 . S
C2228 H2217 0.950 . S
C2228 C2226 1.391 . S
C2228 C2229 1.400 . S
C2229 C2223 1.491 . S
C2229 C2228 1.400 . S
C2229 C2230 1.398 . S
C2230 H2218 0.950 . S
C2230 C2229 1.398 . S
C2230 C2231 1.391 . S
C2231 H2219 0.950 . S
C2231 C2227 1.393 . S
C2231 C2230 1.391 . S
H2232 C2240 0.950 . S
H2233 C2245 0.950 . S
H2234 C2242 0.950 . S
H2235 C2244 0.950 . S
H2236 C2246 0.950 . S
H2237 C2248 0.950 . S
H2238 C2250 0.950 . S
H2239 C2251 0.950 . S
C2240 H2232 0.950 . S
C2240 C2241 1.386 . S
C2240 C2242 1.391 . S
C2241 C2240 1.386 . S
C2241 C2245 1.393 . S
C2242 H2234 0.950 . S
C2242 C2240 1.391 . S
C2242 C2243 1.400 . S
C2243 C2242 1.400 . S
C2243 C2244 1.398 . S
C2243 C2249 1.491 . S
C2244 H2235 0.950 . S
C2244 C2243 1.398 . S
C2244 C2245 1.391 . S
C2245 H2233 0.950 . S
C2245 C2241 1.393 . S
C2245 C2244 1.391 . S
C2246 H2236 0.950 . S
C2246 C2247 1.386 . S
C2246 C2248 1.391 . S
C2247 C2246 1.386 . S
C2247 C2251 1.393 . S
C2248 H2237 0.950 . S
C2248 C2246 1.391 . S
C2248 C2249 1.400 . S
C2249 C2243 1.491 . S
C2249 C2248 1.400 . S
C2249 C2250 1.398 . S
C2250 H2238 0.950 . S
C2250 C2249 1.398 . S
C2250 C2251 1.391 . S
C2251 H2239 0.950 . S
C2251 C2247 1.393 . S
C2251 C2250 1.391 . S
H2252 C2260 0.950 . S
H2253 C2265 0.950 . S
H2254 C2262 0.950 . S
H2255 C2264 0.950 . S
H2256 C2266 0.950 . S
H2257 C2268 0.950 . S
H2258 C2270 0.950 . S
H2259 C2271 0.950 . S
C2260 H2252 0.950 . S
C2260 C2261 1.386 . S
C2260 C2262 1.391 . S
C2261 C2260 1.386 . S
C2261 C2265 1.393 . S
C2262 H2254 0.950 . S
C2262 C2260 1.391 . S
C2262 C2263 1.400 . S
C2263 C2262 1.400 . S
C2263 C2264 1.398 . S
C2263 C2269 1.491 . S
C2264 H2255 0.950 . S
C2264 C2263 1.398 . S
C2264 C2265 1.391 . S
C2265 H2253 0.950 . S
C2265 C2261 1.393 . S
C2265 C2264 1.391 . S
C2266 H2256 0.950 . S
C2266 C2267 1.386 . S
C2266 C2268 1.391 . S
C2267 C2266 1.386 . S
C2267 C2271 1.393 . S
C2268 H2257 0.950 . S
C2268 C2266 1.391 . S
C2268 C2269 1.400 . S
C2269 C2263 1.491 . S
C2269 C2268 1.400 . S
C2269 C2270 1.398 . S
C2270 H2258 0.950 . S
C2270 C2269 1.398 . S
C2270 C2271 1.391 . S
C2271 H2259 0.950 . S
C2271 C2267 1.393 . S
C2271 C2270 1.391 . S
H2272 C2280 0.950 . S
H2273 C2285 0.950 . S
H2274 C2282 0.950 . S
H2275 C2284 0.950 . S
H2276 C2286 0.950 . S
H2277 C2288 0.950 . S
H2278 C2290 0.950 . S
H2279 C2291 0.950 . S
C2280 H2272 0.950 . S
C2280 C2281 1.386 . S
C2280 C2282 1.391 . S
C2281 C2280 1.386 . S
C2281 C2285 1.393 . S
C2282 H2274 0.950 . S
C2282 C2280 1.391 . S
C2282 C2283 1.400 . S
C2283 C2282 1.400 . S
C2283 C2284 1.398 . S
C2283 C2289 1.491 . S
C2284 H2275 0.950 . S
C2284 C2283 1.398 . S
C2284 C2285 1.391 . S
C2285 H2273 0.950 . S
C2285 C2281 1.393 . S
C2285 C2284 1.391 . S
C2286 H2276 0.950 . S
C2286 C2287 1.386 . S
C2286 C2288 1.391 . S
C2287 C2286 1.386 . S
C2287 C2291 1.393 . S
C2288 H2277 0.950 . S
C2288 C2286 1.391 . S
C2288 C2289 1.400 . S
C2289 C2283 1.491 . S
C2289 C2288 1.400 . S
C2289 C2290 1.398 . S
C2290 H2278 0.950 . S
C2290 C2289 1.398 . S
C2290 C2291 1.391 . S
C2291 H2279 0.950 . S
C2291 C2287 1.393 . S
C2291 C2290 1.391 . S
H2292 C2300 0.950 . S
H2293 C2305 0.950 . S
H2294 C2302 0.950 . S
H2295 C2304 0.950 . S
H2296 C2306 0.950 . S
H2297 C2308 0.950 . S
H2298 C2310 0.950 . S
H2299 C2311 0.950 . S
C2300 H2292 0.950 . S
C2300 C2301 1.386 . S
C2300 C2302 1.391 . S
C2301 C2300 1.386 . S
C2301 C2305 1.393 . S
C2302 H2294 0.950 . S
C2302 C2300 1.391 . S
C2302 C2303 1.400 . S
C2303 C2302 1.400 . S
C2303 C2304 1.398 . S
C2303 C2309 1.491 . S
C2304 H2295 0.950 . S
C2304 C2303 1.398 . S
C2304 C2305 1.391 . S
C2305 H2293 0.950 . S
C2305 C2301 1.393 . S
C2305 C2304 1.391 . S
C2306 H2296 0.950 . S
C2306 C2307 1.386 . S
C2306 C2308 1.391 . S
C2307 C2306 1.386 . S
C2307 C2311 1.393 . S
C2308 H2297 0.950 . S
C2308 C2306 1.391 . S
C2308 C2309 1.400 . S
C2309 C2303 1.491 . S
C2309 C2308 1.400 . S
C2309 C2310 1.398 . S
C2310 H2298 0.950 . S
C2310 C2309 1.398 . S
C2310 C2311 1.391 . S
C2311 H2299 0.950 . S
C2311 C2307 1.393 . S
C2311 C2310 1.391 . S
H2312 C2320 0.950 . S
H2313 C2325 0.950 . S
H2314 C2322 0.950 . S
H2315 C2324 0.950 . S
H2316 C2326 0.950 . S
H2317 C2328 0.950 . S
H2318 C2330 0.950 . S
H2319 C2331 0.950 . S
C2320 H2312 0.950 . S
C2320 C2321 1.386 . S
C2320 C2322 1.391 . S
C2321 C2320 1.386 . S
C2321 C2325 1.393 . S
C2322 H2314 0.950 . S
C2322 C2320 1.391 . S
C2322 C2323 1.400 . S
C2323 C2322 1.400 . S
C2323 C2324 1.398 . S
C2323 C2329 1.491 . S
C2324 H2315 0.950 . S
C2324 C2323 1.398 . S
C2324 C2325 1.391 . S
C2325 H2313 0.950 . S
C2325 C2321 1.393 . S
C2325 C2324 1.391 . S
C2326 H2316 0.950 . S
C2326 C2327 1.386 . S
C2326 C2328 1.391 . S
C2327 C2326 1.386 . S
C2327 C2331 1.393 . S
C2328 H2317 0.950 . S
C2328 C2326 1.391 . S
C2328 C2329 1.400 . S
C2329 C2323 1.491 . S
C2329 C2328 1.400 . S
C2329 C2330 1.398 . S
C2330 H2318 0.950 . S
C2330 C2329 1.398 . S
C2330 C2331 1.391 . S
C2331 H2319 0.950 . S
C2331 C2327 1.393 . S
C2331 C2330 1.391 . S
H2332 C2340 0.950 . S
H2333 C2345 0.950 . S
H2334 C2342 0.950 . S
H2335 C2344 0.950 . S
H2336 C2346 0.950 . S
H2337 C2348 0.950 . S
H2338 C2350 0.950 . S
H2339 C2351 0.950 . S
C2340 H2332 0.950 . S
C2340 C2341 1.386 . S
C2340 C2342 1.391 . S
C2341 C2340 1.386 . S
C2341 C2345 1.393 . S
C2342 H2334 0.950 . S
C2342 C2340 1.391 . S
C2342 C2343 1.400 . S
C2343 C2342 1.400 . S
C2343 C2344 1.398 . S
C2343 C2349 1.491 . S
C2344 H2335 0.950 . S
C2344 C2343 1.398 . S
C2344 C2345 1.391 . S
C2345 H2333 0.950 . S
C2345 C2341 1.393 . S
C2345 C2344 1.391 . S
C2346 H2336 0.950 . S
C2346 C2347 1.386 . S
C2346 C2348 1.391 . S
C2347 C2346 1.386 . S
C2347 C2351 1.393 . S
C2348 H2337 0.950 . S
C2348 C2346 1.391 . S
C2348 C2349 1.400 . S
C2349 C2343 1.491 . S
C2349 C2348 1.400 . S
C2349 C2350 1.398 . S
C2350 H2338 0.950 . S
C2350 C2349 1.398 . S
C2350 C2351 1.391 . S
C2351 H2339 0.950 . S
C2351 C2347 1.393 . S
C2351 C2350 1.391 . S
H2352 C2360 0.950 . S
H2353 C2365 0.950 . S
H2354 C2362 0.950 . S
H2355 C2364 0.950 . S
H2356 C2366 0.950 . S
H2357 C2368 0.950 . S
H2358 C2370 0.950 . S
H2359 C2371 0.950 . S
C2360 H2352 0.950 . S
C2360 C2361 1.386 . S
C2360 C2362 1.391 . S
C2361 C2360 1.386 . S
C2361 C2365 1.393 . S
C2362 H2354 0.950 . S
C2362 C2360 1.391 . S
C2362 C2363 1.400 . S
C2363 C2362 1.400 . S
C2363 C2364 1.398 . S
C2363 C2369 1.491 . S
C2364 H2355 0.950 . S
C2364 C2363 1.398 . S
C2364 C2365 1.391 . S
C2365 H2353 0.950 . S
C2365 C2361 1.393 . S
C2365 C2364 1.391 . S
C2366 H2356 0.950 . S
C2366 C2367 1.386 . S
C2366 C2368 1.391 . S
C2367 C2366 1.386 . S
C2367 C2371 1.393 . S
C2368 H2357 0.950 . S
C2368 C2366 1.391 . S
C2368 C2369 1.400 . S
C2369 C2363 1.491 . S
C2369 C2368 1.400 . S
C2369 C2370 1.398 . S
C2370 H2358 0.950 . S
C2370 C2369 1.398 . S
C2370 C2371 1.391 . S
C2371 H2359 0.950 . S
C2371 C2367 1.393 . S
C2371 C2370 1.391 . S
H2372 C2380 0.950 . S
H2373 C2385 0.950 . S
H2374 C2382 0.950 . S
H2375 C2384 0.950 . S
H2376 C2386 0.950 . S
H2377 C2388 0.950 . S
H2378 C2390 0.950 . S
H2379 C2391 0.950 . S
C2380 H2372 0.950 . S
C2380 C2381 1.386 . S
C2380 C2382 1.391 . S
C2381 C2380 1.386 . S
C2381 C2385 1.393 . S
C2382 H2374 0.950 . S
C2382 C2380 1.391 . S
C2382 C2383 1.400 . S
C2383 C2382 1.400 . S
C2383 C2384 1.398 . S
C2383 C2389 1.491 . S
C2384 H2375 0.950 . S
C2384 C2383 1.398 . S
C2384 C2385 1.391 . S
C2385 H2373 0.950 . S
C2385 C2381 1.393 . S
C2385 C2384 1.391 . S
C2386 H2376 0.950 . S
C2386 C2387 1.386 . S
C2386 C2388 1.391 . S
C2387 C2386 1.386 . S
C2387 C2391 1.393 . S
C2388 H2377 0.950 . S
C2388 C2386 1.391 . S
C2388 C2389 1.400 . S
C2389 C2383 1.491 . S
C2389 C2388 1.400 . S
C2389 C2390 1.398 . S
C2390 H2378 0.950 . S
C2390 C2389 1.398 . S
C2390 C2391 1.391 . S
C2391 H2379 0.950 . S
C2391 C2387 1.393 . S
C2391 C2390 1.391 . S
H2392 C2400 0.950 . S
H2393 C2405 0.950 . S
H2394 C2402 0.950 . S
H2395 C2404 0.950 . S
H2396 C2406 0.950 . S
H2397 C2408 0.950 . S
H2398 C2410 0.950 . S
H2399 C2411 0.950 . S
C2400 H2392 0.950 . S
C2400 C2401 1.386 . S
C2400 C2402 1.391 . S
C2401 C2400 1.386 . S
C2401 C2405 1.393 . S
C2402 H2394 0.950 . S
C2402 C2400 1.391 . S
C2402 C2403 1.400 . S
C2403 C2402 1.400 . S
C2403 C2404 1.398 . S
C2403 C2409 1.491 . S
C2404 H2395 0.950 . S
C2404 C2403 1.398 . S
C2404 C2405 1.391 . S
C2405 H2393 0.950 . S
C2405 C2401 1.393 . S
C2405 C2404 1.391 . S
C2406 H2396 0.950 . S
C2406 C2407 1.386 . S
C2406 C2408 1.391 . S
C2407 C2406 1.386 . S
C2407 C2411 1.393 . S
C2408 H2397 0.950 . S
C2408 C2406 1.391 . S
C2408 C2409 1.400 . S
C2409 C2403 1.491 . S
C2409 C2408 1.400 . S
C2409 C2410 1.398 . S
C2410 H2398 0.950 . S
C2410 C2409 1.398 . S
C2410 C2411 1.391 . S
C2411 H2399 0.950 . S
C2411 C2407 1.393 . S
C2411 C2410 1.391 . S
H2412 C2420 0.950 . S
H2413 C2425 0.950 . S
H2414 C2422 0.950 . S
H2415 C2424 0.950 . S
H2416 C2426 0.950 . S
H2417 C2428 0.950 . S
H2418 C2430 0.950 . S
H2419 C2431 0.950 . S
C2420 H2412 0.950 . S
C2420 C2421 1.386 . S
C2420 C2422 1.391 . S
C2421 C2420 1.386 . S
C2421 C2425 1.393 . S
C2422 H2414 0.950 . S
C2422 C2420 1.391 . S
C2422 C2423 1.400 . S
C2423 C2422 1.400 . S
C2423 C2424 1.398 . S
C2423 C2429 1.491 . S
C2424 H2415 0.950 . S
C2424 C2423 1.398 . S
C2424 C2425 1.391 . S
C2425 H2413 0.950 . S
C2425 C2421 1.393 . S
C2425 C2424 1.391 . S
C2426 H2416 0.950 . S
C2426 C2427 1.386 . S
C2426 C2428 1.391 . S
C2427 C2426 1.386 . S
C2427 C2431 1.393 . S
C2428 H2417 0.950 . S
C2428 C2426 1.391 . S
C2428 C2429 1.400 . S
C2429 C2423 1.491 . S
C2429 C2428 1.400 . S
C2429 C2430 1.398 . S
C2430 H2418 0.950 . S
C2430 C2429 1.398 . S
C2430 C2431 1.391 . S
C2431 H2419 0.950 . S
C2431 C2427 1.393 . S
C2431 C2430 1.391 . S
H2432 C2440 0.950 . S
H2433 C2445 0.950 . S
H2434 C2442 0.950 . S
H2435 C2444 0.950 . S
H2436 C2446 0.950 . S
H2437 C2448 0.950 . S
H2438 C2450 0.950 . S
H2439 C2451 0.950 . S
C2440 H2432 0.950 . S
C2440 C2441 1.386 . S
C2440 C2442 1.391 . S
C2441 C2440 1.386 . S
C2441 C2445 1.393 1_565 S
C2442 H2434 0.950 . S
C2442 C2440 1.391 . S
C2442 C2443 1.400 1_565 S
C2443 C2442 1.400 1_545 S
C2443 C2444 1.398 . S
C2443 C2449 1.491 . S
C2444 H2435 0.950 . S
C2444 C2443 1.398 . S
C2444 C2445 1.391 . S
C2445 H2433 0.950 . S
C2445 C2441 1.393 1_545 S
C2445 C2444 1.391 . S
C2446 H2436 0.950 . S
C2446 C2447 1.386 . S
C2446 C2448 1.391 . S
C2447 C2446 1.386 . S
C2447 C2451 1.393 . S
C2448 H2437 0.950 . S
C2448 C2446 1.391 . S
C2448 C2449 1.400 . S
C2449 C2443 1.491 . S
C2449 C2448 1.400 . S
C2449 C2450 1.398 . S
C2450 H2438 0.950 . S
C2450 C2449 1.398 . S
C2450 C2451 1.391 . S
C2451 H2439 0.950 . S
C2451 C2447 1.393 . S
C2451 C2450 1.391 . S
H2452 C2460 0.950 . S
H2453 C2465 0.950 . S
H2454 C2462 0.950 . S
H2455 C2464 0.950 . S
H2456 C2466 0.950 . S
H2457 C2468 0.950 . S
H2458 C2470 0.950 . S
H2459 C2471 0.950 . S
C2460 H2452 0.950 . S
C2460 C2461 1.386 . S
C2460 C2462 1.391 . S
C2461 C2460 1.386 . S
C2461 C2465 1.393 . S
C2462 H2454 0.950 . S
C2462 C2460 1.391 . S
C2462 C2463 1.400 . S
C2463 C2462 1.400 . S
C2463 C2464 1.398 . S
C2463 C2469 1.491 1_655 S
C2464 H2455 0.950 . S
C2464 C2463 1.398 . S
C2464 C2465 1.391 . S
C2465 H2453 0.950 . S
C2465 C2461 1.393 . S
C2465 C2464 1.391 . S
C2466 H2456 0.950 . S
C2466 C2467 1.386 . S
C2466 C2468 1.391 . S
C2467 C2466 1.386 . S
C2467 C2471 1.393 . S
C2468 H2457 0.950 . S
C2468 C2466 1.391 . S
C2468 C2469 1.400 . S
C2469 C2463 1.491 1_455 S
C2469 C2468 1.400 . S
C2469 C2470 1.398 . S
C2470 H2458 0.950 . S
C2470 C2469 1.398 . S
C2470 C2471 1.391 . S
C2471 H2459 0.950 . S
C2471 C2467 1.393 . S
C2471 C2470 1.391 . S
H2472 C2480 0.950 . S
H2473 C2485 0.950 . S
H2474 C2482 0.950 . S
H2475 C2484 0.950 . S
H2476 C2486 0.950 . S
H2477 C2488 0.950 . S
H2478 C2490 0.950 . S
H2479 C2491 0.950 . S
C2480 H2472 0.950 . S
C2480 C2481 1.386 . S
C2480 C2482 1.391 . S
C2481 C2480 1.386 . S
C2481 C2485 1.393 . S
C2482 H2474 0.950 . S
C2482 C2480 1.391 . S
C2482 C2483 1.400 . S
C2483 C2482 1.400 . S
C2483 C2484 1.398 . S
C2483 C2489 1.491 . S
C2484 H2475 0.950 . S
C2484 C2483 1.398 . S
C2484 C2485 1.391 . S
C2485 H2473 0.950 . S
C2485 C2481 1.393 . S
C2485 C2484 1.391 . S
C2486 H2476 0.950 . S
C2486 C2487 1.386 . S
C2486 C2488 1.391 . S
C2487 C2486 1.386 . S
C2487 C2491 1.393 . S
C2488 H2477 0.950 . S
C2488 C2486 1.391 . S
C2488 C2489 1.400 . S
C2489 C2483 1.491 . S
C2489 C2488 1.400 . S
C2489 C2490 1.398 . S
C2490 H2478 0.950 . S
C2490 C2489 1.398 . S
C2490 C2491 1.391 . S
C2491 H2479 0.950 . S
C2491 C2487 1.393 . S
C2491 C2490 1.391 . S
H2492 C2500 0.950 . S
H2493 C2505 0.950 . S
H2494 C2502 0.950 1_565 S
H2495 C2504 0.950 . S
H2496 C2506 0.950 . S
H2497 C2508 0.950 . S
H2498 C2510 0.950 . S
H2499 C2511 0.950 . S
C2500 H2492 0.950 . S
C2500 C2501 1.386 . S
C2500 C2502 1.391 . S
C2501 C2500 1.386 . S
C2501 C2505 1.393 . S
C2502 H2494 0.950 1_545 S
C2502 C2500 1.391 . S
C2502 C2503 1.400 . S
C2503 C2502 1.400 . S
C2503 C2504 1.398 . S
C2503 C2509 1.491 1_545 S
C2504 H2495 0.950 . S
C2504 C2503 1.398 . S
C2504 C2505 1.391 . S
C2505 H2493 0.950 . S
C2505 C2501 1.393 . S
C2505 C2504 1.391 . S
C2506 H2496 0.950 . S
C2506 C2507 1.386 . S
C2506 C2508 1.391 . S
C2507 C2506 1.386 . S
C2507 C2511 1.393 . S
C2508 H2497 0.950 . S
C2508 C2506 1.391 . S
C2508 C2509 1.400 . S
C2509 C2503 1.491 1_565 S
C2509 C2508 1.400 . S
C2509 C2510 1.398 . S
C2510 H2498 0.950 . S
C2510 C2509 1.398 . S
C2510 C2511 1.391 . S
C2511 H2499 0.950 . S
C2511 C2507 1.393 . S
C2511 C2510 1.391 . S
H2512 C2520 0.950 . S
H2513 C2525 0.950 . S
H2514 C2522 0.950 . S
H2515 C2524 0.950 . S
H2516 C2526 0.950 . S
H2517 C2528 0.950 . S
H2518 C2530 0.950 . S
H2519 C2531 0.950 . S
C2520 H2512 0.950 . S
C2520 C2521 1.386 . S
C2520 C2522 1.391 . S
C2521 C2520 1.386 . S
C2521 C2525 1.393 . S
C2522 H2514 0.950 . S
C2522 C2520 1.391 . S
C2522 C2523 1.400 . S
C2523 C2522 1.400 . S
C2523 C2524 1.398 . S
C2523 C2529 1.491 . S
C2524 H2515 0.950 . S
C2524 C2523 1.398 . S
C2524 C2525 1.391 . S
C2525 H2513 0.950 . S
C2525 C2521 1.393 . S
C2525 C2524 1.391 . S
C2526 H2516 0.950 . S
C2526 C2527 1.386 1_455 S
C2526 C2528 1.391 . S
C2527 C2526 1.386 1_655 S
C2527 C2531 1.393 . S
C2528 H2517 0.950 . S
C2528 C2526 1.391 . S
C2528 C2529 1.400 . S
C2529 C2523 1.491 . S
C2529 C2528 1.400 . S
C2529 C2530 1.398 1_455 S
C2530 H2518 0.950 . S
C2530 C2529 1.398 1_655 S
C2530 C2531 1.391 . S
C2531 H2519 0.950 . S
C2531 C2527 1.393 . S
C2531 C2530 1.391 . S
H2532 C2540 0.950 . S
H2533 C2545 0.950 . S
H2534 C2542 0.950 . S
H2535 C2544 0.950 . S
H2536 C2546 0.950 . S
H2537 C2548 0.950 . S
H2538 C2550 0.950 . S
H2539 C2551 0.950 . S
C2540 H2532 0.950 . S
C2540 C2541 1.386 . S
C2540 C2542 1.391 . S
C2541 C2540 1.386 . S
C2541 C2545 1.393 . S
C2542 H2534 0.950 . S
C2542 C2540 1.391 . S
C2542 C2543 1.400 . S
C2543 C2542 1.400 . S
C2543 C2544 1.398 . S
C2543 C2549 1.491 . S
C2544 H2535 0.950 . S
C2544 C2543 1.398 . S
C2544 C2545 1.391 . S
C2545 H2533 0.950 . S
C2545 C2541 1.393 . S
C2545 C2544 1.391 . S
C2546 H2536 0.950 . S
C2546 C2547 1.386 . S
C2546 C2548 1.391 . S
C2547 C2546 1.386 . S
C2547 C2551 1.393 . S
C2548 H2537 0.950 . S
C2548 C2546 1.391 . S
C2548 C2549 1.400 . S
C2549 C2543 1.491 . S
C2549 C2548 1.400 . S
C2549 C2550 1.398 . S
C2550 H2538 0.950 . S
C2550 C2549 1.398 . S
C2550 C2551 1.391 . S
C2551 H2539 0.950 . S
C2551 C2547 1.393 . S
C2551 C2550 1.391 . S
H2552 C2560 0.950 . S
H2553 C2565 0.950 . S
H2554 C2562 0.950 . S
H2555 C2564 0.950 . S
H2556 C2566 0.950 . S
H2557 C2568 0.950 . S
H2558 C2570 0.950 . S
H2559 C2571 0.950 . S
C2560 H2552 0.950 . S
C2560 C2561 1.386 . S
C2560 C2562 1.391 . S
C2561 C2560 1.386 . S
C2561 C2565 1.393 . S
C2562 H2554 0.950 . S
C2562 C2560 1.391 . S
C2562 C2563 1.400 . S
C2563 C2562 1.400 . S
C2563 C2564 1.398 . S
C2563 C2569 1.491 . S
C2564 H2555 0.950 . S
C2564 C2563 1.398 . S
C2564 C2565 1.391 . S
C2565 H2553 0.950 . S
C2565 C2561 1.393 . S
C2565 C2564 1.391 . S
C2566 H2556 0.950 . S
C2566 C2567 1.386 . S
C2566 C2568 1.391 . S
C2567 C2566 1.386 . S
C2567 C2571 1.393 . S
C2568 H2557 0.950 . S
C2568 C2566 1.391 . S
C2568 C2569 1.400 . S
C2569 C2563 1.491 . S
C2569 C2568 1.400 . S
C2569 C2570 1.398 . S
C2570 H2558 0.950 . S
C2570 C2569 1.398 . S
C2570 C2571 1.391 . S
C2571 H2559 0.950 . S
C2571 C2567 1.393 . S
C2571 C2570 1.391 . S
H2572 C2580 0.950 . S
H2573 C2585 0.950 . S
H2574 C2582 0.950 . S
H2575 C2584 0.950 . S
H2576 C2586 0.950 . S
H2577 C2588 0.950 . S
H2578 C2590 0.950 . S
H2579 C2591 0.950 . S
C2580 H2572 0.950 . S
C2580 C2581 1.386 . S
C2580 C2582 1.391 . S
C2581 C2580 1.386 . S
C2581 C2585 1.393 . S
C2582 H2574 0.950 . S
C2582 C2580 1.391 . S
C2582 C2583 1.400 . S
C2583 C2582 1.400 . S
C2583 C2584 1.398 . S
C2583 C2589 1.491 . S
C2584 H2575 0.950 . S
C2584 C2583 1.398 . S
C2584 C2585 1.391 . S
C2585 H2573 0.950 . S
C2585 C2581 1.393 . S
C2585 C2584 1.391 . S
C2586 H2576 0.950 . S
C2586 C2587 1.386 . S
C2586 C2588 1.391 . S
C2587 C2586 1.386 . S
C2587 C2591 1.393 . S
C2588 H2577 0.950 . S
C2588 C2586 1.391 . S
C2588 C2589 1.400 . S
C2589 C2583 1.491 . S
C2589 C2588 1.400 . S
C2589 C2590 1.398 . S
C2590 H2578 0.950 . S
C2590 C2589 1.398 . S
C2590 C2591 1.391 . S
C2591 H2579 0.950 . S
C2591 C2587 1.393 . S
C2591 C2590 1.391 . S
C1521 C67 0.961 . S
C1527 C226 0.855 . S
C1541 C58 0.893 . S
C1547 C151 0.970 . S
C1561 C142 0.855 . S
C1567 C235 0.961 . S
C1581 C319 0.961 . S
C1587 C394 0.855 . S
C1601 C478 0.890 . S
C1607 C403 0.969 . S
C1621 C487 0.967 . S
C1627 C310 0.879 . S
C1641 C730 0.907 . S
C1647 C571 0.973 . S
C1661 C562 0.902 . S
C1667 C655 0.972 . S
C1681 C739 0.961 . S
C1687 C646 0.855 . S
C1701 C898 0.920 . S
C1707 C823 0.976 . S
C1721 C907 0.972 . S
C1727 C982 0.902 . S
C1741 C814 0.872 . S
C1747 C991 0.965 . S
C1761 C1075 0.976 . S
C1767 C1234 0.918 . S
C1781 C1066 0.856 . S
C1787 C1159 0.961 . S
C1801 C1150 0.924 . S
C1807 C1243 0.977 . S
C1821 C1402 0.858 . S
C1827 C1327 0.962 . S
C1841 C1486 0.866 . S
C1847 C1411 0.964 . S
C1861 C1318 0.870 . S
C1867 C1495 0.964 . S
C1881 C74 1.885 . S
C1887 C494 1.892 . S
C1901 C326 1.884 . S
C1907 C158 1.870 . S
C1921 C410 1.891 . S
C1927 C242 1.890 . S
C1941 C578 1.884 . S
C1947 C998 1.893 . S
C1961 C662 1.882 . S
C1967 C830 1.892 . S
C1981 C914 1.866 . S
C1987 C746 1.877 . S
C2001 C1082 1.883 . S
C2007 C1502 1.892 . S
C2021 C1334 1.868 . S
C2027 C1166 1.881 . S
C2041 C1418 1.888 . S
C2047 C1250 1.874 . S
C2061 C903 2.093 . S
C2067 C63 2.098 . S
C2081 C147 2.088 . S
C2087 C987 2.097 . S
C2101 C819 2.085 . S
C2107 C231 2.093 . S
C2121 C315 2.087 . S
C2127 C1239 2.097 . S
C2141 C399 2.097 . S
C2147 C1071 2.088 . S
C2161 C1155 2.098 . S
C2167 C483 2.094 . S
C2181 C1407 2.088 . S
C2187 C567 2.087 . S
C2201 C651 2.086 . S
C2207 C1491 2.090 . S
C2221 C735 2.086 . S
C2227 C1323 2.094 . S
C2241 C237 1.504 . S
C2247 C56 1.705 . S
C2261 C69 1.526 . S
C2267 C140 1.713 . S
C2281 C224 1.714 . S
C2287 C153 1.528 . S
C2301 C405 1.544 . S
C2307 C308 1.714 . S
C2321 C489 1.511 . S
C2327 C392 1.704 . S
C2341 C476 1.709 . S
C2347 C321 1.509 . S
C2361 C741 1.511 . S
C2367 C560 1.710 . S
C2381 C644 1.708 . S
C2387 C573 1.507 . S
C2401 C657 1.529 . S
C2407 C728 1.707 . S
C2421 C812 1.705 . S
C2427 C909 1.504 1_655 S
C2441 C896 1.707 . S
C2447 C993 1.506 . S
C2461 C825 1.522 . S
C2467 C980 1.705 . S
C2481 C1064 1.705 . S
C2487 C1245 1.507 1_565 S
C2501 C1148 1.712 . S
C2507 C1077 1.542 . S
C2521 C1161 1.506 . S
C2527 C1232 1.707 . S
C2541 C1316 1.714 . S
C2547 C1413 1.527 . S
C2561 C1400 1.713 . S
C2567 C1497 1.524 . S
C2581 C1329 1.534 . S
C2587 C1484 1.715 . S
