# Generated by pormake.
# Topology snz, (6)-cn, num edge types: 1
# Building blocks:
#     Node 0, Type 0, BuildingBlock: FUNLAD_clean_sbu_0, # of connection points: 6
#     Node 1, Type 0, BuildingBlock: FUNLAD_clean_sbu_0, # of connection points: 6
#     Node 2, Type 0, BuildingBlock: FUNLAD_clean_sbu_0, # of connection points: 6
#     Node 3, Type 0, BuildingBlock: FUNLAD_clean_sbu_0, # of connection points: 6
#     Node 4, Type 0, BuildingBlock: FUNLAD_clean_sbu_0, # of connection points: 6
#     Node 5, Type 0, BuildingBlock: FUNLAD_clean_sbu_0, # of connection points: 6
#     Node 6, Type 0, BuildingBlock: FUNLAD_clean_sbu_0, # of connection points: 6
#     Node 7, Type 0, BuildingBlock: FUNLAD_clean_sbu_0, # of connection points: 6
#     Node 8, Type 0, BuildingBlock: FUNLAD_clean_sbu_0, # of connection points: 6
#     Edge 9, Type (0, 0), BuildingBlock: XIVTED_clean_linker_0, # of connection points: 2
#     Edge 10, Type (0, 0), BuildingBlock: XIVTED_clean_linker_0, # of connection points: 2
#     Edge 11, Type (0, 0), BuildingBlock: XIVTED_clean_linker_0, # of connection points: 2
#     Edge 12, Type (0, 0), BuildingBlock: XIVTED_clean_linker_0, # of connection points: 2
#     Edge 13, Type (0, 0), BuildingBlock: XIVTED_clean_linker_0, # of connection points: 2
#     Edge 14, Type (0, 0), BuildingBlock: XIVTED_clean_linker_0, # of connection points: 2
#     Edge 15, Type (0, 0), BuildingBlock: XIVTED_clean_linker_0, # of connection points: 2
#     Edge 16, Type (0, 0), BuildingBlock: XIVTED_clean_linker_0, # of connection points: 2
#     Edge 17, Type (0, 0), BuildingBlock: XIVTED_clean_linker_0, # of connection points: 2
#     Edge 18, Type (0, 0), BuildingBlock: XIVTED_clean_linker_0, # of connection points: 2
#     Edge 19, Type (0, 0), BuildingBlock: XIVTED_clean_linker_0, # of connection points: 2
#     Edge 20, Type (0, 0), BuildingBlock: XIVTED_clean_linker_0, # of connection points: 2
#     Edge 21, Type (0, 0), BuildingBlock: XIVTED_clean_linker_0, # of connection points: 2
#     Edge 22, Type (0, 0), BuildingBlock: XIVTED_clean_linker_0, # of connection points: 2
#     Edge 23, Type (0, 0), BuildingBlock: XIVTED_clean_linker_0, # of connection points: 2
#     Edge 24, Type (0, 0), BuildingBlock: XIVTED_clean_linker_0, # of connection points: 2
#     Edge 25, Type (0, 0), BuildingBlock: XIVTED_clean_linker_0, # of connection points: 2
#     Edge 26, Type (0, 0), BuildingBlock: XIVTED_clean_linker_0, # of connection points: 2
#     Edge 27, Type (0, 0), BuildingBlock: XIVTED_clean_linker_0, # of connection points: 2
#     Edge 28, Type (0, 0), BuildingBlock: XIVTED_clean_linker_0, # of connection points: 2
#     Edge 29, Type (0, 0), BuildingBlock: XIVTED_clean_linker_0, # of connection points: 2
#     Edge 30, Type (0, 0), BuildingBlock: XIVTED_clean_linker_0, # of connection points: 2
#     Edge 31, Type (0, 0), BuildingBlock: XIVTED_clean_linker_0, # of connection points: 2
#     Edge 32, Type (0, 0), BuildingBlock: XIVTED_clean_linker_0, # of connection points: 2
#     Edge 33, Type (0, 0), BuildingBlock: XIVTED_clean_linker_0, # of connection points: 2
#     Edge 34, Type (0, 0), BuildingBlock: XIVTED_clean_linker_0, # of connection points: 2
#     Edge 35, Type (0, 0), BuildingBlock: XIVTED_clean_linker_0, # of connection points: 2
# Relax obj value: 0.656
# Max RMSD: 0.282
# Mean RMSD: 0.259
data_MOF--net-snz--node1-FUNLAD_clean_sbu_0--edge1-XIVTED_clean_linker_0
_symmetry_space_group_name_H-M    P1
_symmetry_Int_Tables_number       1
_symmetry_cell_setting            triclinic
loop_
_symmetry_equiv_pos_as_xyz
'x, y, z'
_cell_length_a     48.639109
_cell_length_b     53.949739
_cell_length_c     16.937137
_cell_angle_alpha  89.500196
_cell_angle_beta   89.548548
_cell_angle_gamma 120.03465
loop_
_atom_site_label
_atom_site_type_symbol
_atom_site_fract_x
_atom_site_fract_y
_atom_site_fract_z
_atom_type_partial_charge
C0 C -0.00155 0.52097 0.99764 0.0
N1 N 0.08059 0.52358 0.91165 0.0
C2 C 0.08262 0.54851 0.88661 0.0
C3 C 0.0691 0.54905 0.81475 0.0
C4 C 0.05577 0.52432 0.76892 0.0
C5 C 0.06309 0.50278 0.78647 0.0
C6 C 0.07668 0.50329 0.85893 0.0
Zn7 Zn 0.05093 0.50668 1.00806 0.0
C8 C 0.07076 0.54775 0.13977 0.0
N9 N -0.01454 0.47408 0.20155 0.0
C10 C 0.9549 0.46836 0.19442 0.0
C11 C -0.00259 0.47302 0.27285 0.0
C12 C 0.9792 0.46785 0.34095 0.0
C13 C 0.94884 0.4647 0.33587 0.0
C14 C 0.9362 0.46423 0.26175 0.0
Zn15 Zn 0.01623 0.48975 0.10803 0.0
O16 O 0.02283 0.52384 0.96161 0.0
C17 C -0.00595 0.45 0.97465 0.0
O18 O -0.00887 0.50865 0.06458 0.0
H19 H 0.02181 0.47812 0.27778 0.0
H20 H 0.08718 0.56506 0.92865 0.0
H21 H 0.9456 0.46881 0.13702 0.0
O22 O 0.02087 0.46849 0.94602 0.0
O23 O -0.01363 0.4531 0.04407 0.0
H24 H 0.07676 0.48424 0.87911 0.0
O25 O 0.04185 0.47057 0.15 0.0
O26 O 0.07735 0.48806 0.05353 0.0
O27 O 0.04577 0.52738 0.17139 0.0
O28 O 0.07911 0.54475 0.07089 0.0
C29 C 0.06672 0.47322 0.11684 0.0
H30 H 0.06469 0.56645 0.80199 0.0
H31 H 0.05423 0.48386 0.75046 0.0
H32 H -0.01012 0.469 0.39774 0.0
H33 H 0.91303 0.46227 0.2563 0.0
C34 C 0.42392 0.46775 0.1222 0.0
N35 N 0.51703 0.48588 0.15923 0.0
C36 C 0.50172 0.46087 0.20089 0.0
C37 C 0.51049 0.45989 0.27828 0.0
C38 C 0.53476 0.48517 0.31154 0.0
C39 C 0.5554 0.50741 0.25992 0.0
C40 C 0.54521 0.50791 0.18367 0.0
Zn41 Zn 0.49218 0.49393 0.07793 0.0
C42 C 0.46889 0.45261 0.95152 0.0
N43 N 0.44112 0.51346 0.91208 0.0
C44 C 0.4133 0.49116 0.88684 0.0
C45 C 0.45662 0.5383 0.86976 0.0
C46 C 0.44862 0.5388 0.79136 0.0
C47 C 0.42499 0.5132 0.758 0.0
C48 C 0.40393 0.49112 0.80941 0.0
Zn49 Zn 0.46591 0.50554 0.99366 0.0
O50 O 0.4496 0.46937 0.14443 0.0
C51 C 0.49025 0.54766 0.11823 0.0
O52 O 0.42385 0.48108 0.06027 0.0
H53 H 0.47807 0.55617 0.89236 0.0
H54 H 0.48003 0.44316 0.17876 0.0
H55 H 0.40091 0.47174 0.92209 0.0
O56 O 0.5013 0.5318 0.14035 0.0
O57 O 0.4738 0.54155 0.05621 0.0
H58 H 0.55751 0.52742 0.14878 0.0
O59 O 0.5094 0.53047 0.92648 0.0
O60 O 0.53321 0.51696 1.01153 0.0
O61 O 0.45814 0.46867 0.92927 0.0
O62 O 0.48375 0.45772 1.01597 0.0
C63 C 0.53418 0.53028 0.94879 0.0
H64 H 0.49462 0.44148 0.3144 0.0
H65 H 0.57553 0.52664 0.28225 0.0
H66 H 0.46476 0.55705 0.75508 0.0
H67 H 0.38432 0.47161 0.78667 0.0
C68 C 0.52568 0.0124 0.90716 0.0
N69 N 0.44619 0.93803 0.82669 0.0
C70 C 0.47175 0.93741 0.79587 0.0
C71 C 0.48558 0.95255 0.72601 0.0
C72 C 0.47111 0.9661 0.68742 0.0
C73 C 0.43974 0.9582 0.70876 0.0
C74 C 0.42704 0.9429 0.77899 0.0
Zn75 Zn 0.45887 0.96297 0.92527 0.0
C76 C 0.48732 0.9426 0.04548 0.0
N77 N 0.49007 0.01782 0.12229 0.0
C78 C 0.50903 0.04663 0.11026 0.0
C79 C 0.48251 0.00612 0.196 0.0
C80 C 0.49507 0.02346 0.26124 0.0
C81 C 0.51583 0.05297 0.25026 0.0
C82 C 0.52262 0.06479 0.17417 0.0
Zn83 Zn 0.4753 -0.00847 1.02861 0.0
O84 O 0.50451 -0.00937 0.87193 0.0
C85 C 0.44729 0.01221 0.90851 0.0
O86 O 0.52018 0.01718 0.97679 0.0
H87 H 0.46757 0.98322 0.20401 0.0
H88 H 0.48577 0.93175 0.83316 0.0
H89 H 0.5145 0.05549 0.05094 0.0
O90 O 0.44283 -0.01033 0.87446 0.0
O91 O 0.46019 0.01815 0.97567 0.0
H92 H 0.40551 0.94131 0.80294 0.0
O93 O 0.42969 0.96548 0.08015 0.0
O94 O 0.41389 0.93673 0.97841 0.0
O95 O 0.4906 0.96442 0.08199 0.0
O96 O 0.47519 0.9373 0.97735 0.0
C97 C 0.4083 0.94329 0.04626 0.0
H98 H 0.50926 0.95711 0.70998 0.0
H99 H 0.42697 0.96685 0.67755 0.0
H100 H 0.48972 0.0138 0.31984 0.0
H101 H 0.53872 0.08746 0.16432 0.0
C102 C 0.55123 0.81118 0.29627 0.0
N103 N 0.63739 0.81448 0.23964 0.0
C104 C 0.62357 0.80134 0.1714 0.0
C105 C 0.64195 0.80583 0.10426 0.0
C106 C 0.6749 0.82432 0.10666 0.0
C107 C 0.68881 0.83817 0.177 0.0
C108 C 0.66938 0.8326 0.244 0.0
Zn109 Zn 0.60762 0.80431 0.33375 0.0
C110 C 0.62332 0.85194 0.43502 0.0
N111 N 0.5422 0.77824 0.52726 0.0
C112 C 0.54614 0.80126 0.56849 0.0
C113 C 0.54114 0.75553 0.56561 0.0
C114 C 0.55589 0.75987 0.63837 0.0
C115 C 0.56947 0.78718 0.67201 0.0
C116 C 0.56099 0.80672 0.6415 0.0
Zn117 Zn 0.57138 0.78962 0.42939 0.0
O118 O 0.57606 0.8125 0.26649 0.0
C119 C 0.55891 0.74116 0.33114 0.0
O120 O 0.54269 0.80165 0.36644 0.0
H121 H 0.53624 0.73661 0.53322 0.0
H122 H 0.59814 0.78736 0.16892 0.0
H123 H 0.54473 0.81836 0.53837 0.0
O124 O 0.58457 0.76095 0.30084 0.0
O125 O 0.54533 0.74705 0.3862 0.0
H126 H 0.67978 0.84279 0.29919 0.0
O127 O 0.60217 0.77943 0.49404 0.0
O128 O 0.63901 0.7978 0.40183 0.0
O129 O 0.59918 0.83235 0.47146 0.0
O130 O 0.63135 0.84664 0.36877 0.0
C131 C 0.63016 0.78704 0.47048 0.0
H132 H 0.63037 0.79547 0.05001 0.0
H133 H 0.7141 0.85303 0.17989 0.0
H134 H 0.56068 0.74358 0.66078 0.0
H135 H 0.56919 0.82737 0.66829 0.0
C136 C 0.0889 0.7672 0.496 0.0
N137 N 0.18113 0.78599 0.55823 0.0
C138 C 0.20361 0.81241 0.58247 0.0
C139 C 0.1987 0.82267 0.65339 0.0
C140 C 0.17171 0.8045 0.69898 0.0
C141 C 0.15524 0.77506 0.68288 0.0
C142 C 0.16116 0.76594 0.61142 0.0
Zn143 Zn 0.15749 0.78851 0.46174 0.0
C144 C 0.13367 0.73895 0.35823 0.0
N145 N 0.10919 0.79867 0.26739 0.0
C146 C 0.09348 0.81355 0.27596 0.0
C147 C 0.11238 0.78918 0.19587 0.0
C148 C 0.10129 0.7961 0.12873 0.0
C149 C 0.0876 0.81356 0.13518 0.0
C150 C 0.08298 0.82184 0.20971 0.0
Zn151 Zn 0.13252 0.79425 0.36027 0.0
O152 O 0.11332 0.76838 0.52622 0.0
C153 C 0.15499 0.84304 0.4667 0.0
O154 O 0.09024 0.77563 0.4253 0.0
H155 H 0.12521 0.77771 0.19016 0.0
H156 H 0.22036 0.82772 0.54003 0.0
H157 H 0.09067 0.82046 0.33366 0.0
O158 O 0.16446 0.82821 0.50335 0.0
O159 O 0.14183 0.83457 0.40054 0.0
H160 H 0.14454 0.74456 0.5919 0.0
O161 O 0.17554 0.81398 0.29486 0.0
O162 O 0.20068 0.80959 0.39633 0.0
O163 O 0.12344 0.75337 0.3216 0.0
O164 O 0.1493 0.74867 0.42123 0.0
C165 C 0.20119 0.81819 0.32593 0.0
H166 H 0.21255 0.84536 0.66529 0.0
H167 H 0.13502 0.7602 0.71885 0.0
H168 H 0.10583 0.78994 0.07148 0.0
H169 H 0.07291 0.83565 0.21615 0.0
C170 C 0.21599 0.34401 0.39417 0.0
N171 N 0.13671 0.27235 0.30603 0.0
C172 C 0.1619 0.26962 0.28255 0.0
C173 C 0.1776 0.28267 0.21184 0.0
C174 C 0.16532 0.29634 0.16526 0.0
C175 C 0.13434 0.29088 0.18089 0.0
C176 C 0.11974 0.27773 0.25228 0.0
Zn177 Zn 0.14738 0.29787 0.40292 0.0
C178 C 0.16995 0.27709 0.53419 0.0
N179 N 0.17569 0.35468 0.59605 0.0
C180 C 0.19849 0.38274 0.58575 0.0
C181 C 0.16463 0.34326 0.66901 0.0
C182 C 0.17808 0.35966 0.73545 0.0
C183 C 0.2036 0.38775 0.72649 0.0
C184 C 0.2134 0.3997 0.65096 0.0
Zn185 Zn 0.16217 0.32796 0.50297 0.0
O186 O 0.1952 0.32172 0.3603 0.0
C187 C 0.13999 0.34948 0.37279 0.0
O188 O 0.20861 0.35195 0.45691 0.0
H189 H 0.14681 0.32091 0.6759 0.0
H190 H 0.17433 0.26401 0.32537 0.0
H191 H 0.20657 0.39154 0.52702 0.0
O192 O 0.13687 0.32708 0.34028 0.0
O193 O 0.14976 0.35483 0.44313 0.0
H194 H 0.09875 0.27829 0.27112 0.0
O195 O 0.11493 0.30345 0.54758 0.0
O196 O 0.10053 0.27461 0.44609 0.0
O197 O 0.17505 0.30056 0.564 0.0
O198 O 0.15789 0.27027 0.46617 0.0
C199 C 0.09367 0.28187 0.5113 0.0
H200 H 0.20109 0.28581 0.20045 0.0
H201 H 0.12362 0.3002 0.14416 0.0
H202 H 0.17043 0.34975 0.79346 0.0
H203 H 0.23328 0.4212 0.64257 0.0
C204 C 0.31505 0.1481 0.88581 0.0
N205 N 0.37255 0.21283 0.70698 0.0
C206 C 0.36762 0.22843 0.76207 0.0
C207 C 0.38765 0.25778 0.76562 0.0
C208 C 0.41302 0.27135 0.71198 0.0
C209 C 0.41838 0.25504 0.65656 0.0
C210 C 0.3975 0.22537 0.65496 0.0
Zn211 Zn 0.33781 0.17108 0.70361 0.0
C212 C 0.35866 0.12978 0.70571 0.0
N213 N 0.26007 0.08679 0.6985 0.0
C214 C 0.23419 0.0743 0.74766 0.0
C215 C 0.26422 0.07181 0.64006 0.0
C216 C 0.24164 0.04347 0.62764 0.0
C217 C 0.2147 0.03006 0.67666 0.0
C218 C 0.21104 0.04546 0.73817 0.0
Zn219 Zn 0.29523 0.12832 0.70384 0.0
O220 O 0.33612 0.16931 0.84397 0.0
C221 C 0.27416 0.16936 0.70302 0.0
O222 O 0.29415 0.12706 0.84487 0.0
H223 H 0.28525 0.0818 0.60287 0.0
H224 H 0.34741 0.21824 0.80195 0.0
H225 H 0.23154 0.08666 0.79399 0.0
O226 O 0.30416 0.18512 0.70247 0.0
O227 O 0.26192 0.14235 0.70347 0.0
H228 H 0.40074 0.21252 0.61124 0.0
O229 O 0.29669 0.1304 0.56336 0.0
O230 O 0.33919 0.17217 0.56253 0.0
O231 O 0.32865 0.1142 0.7041 0.0
O232 O 0.37118 0.15685 0.70599 0.0
C233 C 0.31804 0.15138 0.52152 0.0
H234 H 0.383 0.26994 0.80899 0.0
H235 H 0.4379 0.26513 0.6144 0.0
H236 H 0.24545 0.03191 0.58076 0.0
H237 H 0.19056 0.03543 0.7775 0.0
C238 C 0.80255 0.16049 0.49743 0.0
N239 N 0.78687 0.09615 0.67712 0.0
C240 C 0.76461 0.08081 0.62244 0.0
C241 C 0.7522 0.05153 0.61752 0.0
C242 C 0.76267 0.03784 0.66941 0.0
C243 C 0.78583 0.05384 0.7251 0.0
C244 C 0.79779 0.08344 0.72801 0.0
Zn245 Zn 0.79973 0.13801 0.6801 0.0
C246 C 0.86622 0.17733 0.6745 0.0
N247 N 0.81857 0.22306 0.6827 0.0
C248 C 0.80819 0.23666 0.63336 0.0
C249 C 0.84112 0.23767 0.73745 0.0
C250 C 0.85437 0.26697 0.74414 0.0
C251 C 0.84452 0.28161 0.69394 0.0
C252 C 0.82103 0.2664 0.6381 0.0
Zn253 Zn 0.80524 0.18092 0.67887 0.0
O254 O 0.80025 0.13952 0.53969 0.0
C255 C 0.73866 0.14103 0.68369 0.0
O256 O 0.80489 0.18163 0.53795 0.0
H257 H 0.84955 0.2267 0.77514 0.0
H258 H 0.75589 0.09118 0.58341 0.0
H259 H 0.79042 0.22457 0.58982 0.0
O260 O 0.75121 0.12535 0.68233 0.0
O261 O 0.7563 0.16808 0.68352 0.0
H262 H 0.81535 0.09615 0.7713 0.0
O263 O 0.80505 0.17949 0.81937 0.0
O264 O 0.79963 0.13713 0.8211 0.0
O265 O 0.85426 0.19352 0.67475 0.0
O266 O 0.84803 0.1504 0.67703 0.0
C267 C 0.80235 0.15839 0.86165 0.0
H268 H 0.73426 0.03956 0.57402 0.0
H269 H 0.79426 0.04359 0.76579 0.0
H270 H 0.87255 0.27826 0.7877 0.0
H271 H 0.81306 0.27735 0.5986 0.0
C272 C 0.82079 0.67413 0.94647 0.0
N273 N 0.83443 0.62219 0.77083 0.0
C274 C 0.85515 0.62548 0.82872 0.0
C275 C 0.86677 0.60678 0.83531 0.0
C276 C 0.8574 0.58468 0.78122 0.0
C277 C 0.83603 0.58143 0.72173 0.0
C278 C 0.82455 0.60063 0.71777 0.0
Zn279 Zn 0.82325 0.65376 0.7654 0.0
C280 C 0.75704 0.63547 0.76662 0.0
N281 N 0.80811 0.72413 0.7584 0.0
C282 C 0.81804 0.74591 0.81086 0.0
C283 C 0.78653 0.72007 0.70212 0.0
C284 C 0.77366 0.73781 0.69741 0.0
C285 C 0.78274 0.75988 0.7515 0.0
C286 C 0.80546 0.76432 0.80843 0.0
Zn287 Zn 0.81941 0.69264 0.76338 0.0
O288 O 0.82207 0.65459 0.90604 0.0
C289 C 0.8856 0.71047 0.76095 0.0
O290 O 0.81955 0.69356 0.9041 0.0
H291 H 0.7782 0.70225 0.66246 0.0
H292 H 0.86355 0.6432 0.86876 0.0
H293 H 0.83492 0.74846 0.85576 0.0
O294 O 0.87211 0.68339 0.76429 0.0
O295 O 0.86877 0.72242 0.75914 0.0
H296 H 0.80836 0.59869 0.67165 0.0
O297 O 0.81981 0.69142 0.62274 0.0
O298 O 0.82394 0.65326 0.62465 0.0
O299 O 0.76995 0.66256 0.7666 0.0
O300 O 0.77446 0.62414 0.76621 0.0
C301 C 0.8219 0.67228 0.58229 0.0
H302 H 0.88353 0.60992 0.88134 0.0
H303 H 0.82856 0.5645 0.679 0.0
H304 H 0.75602 0.73386 0.65305 0.0
H305 H 0.81278 0.78126 0.85104 0.0
H306 H 0.04981 0.55807 0.6551 0.0
H307 H 0.92146 0.42747 0.45993 0.0
H308 H -0.00189 0.47635 0.77537 0.0
H309 H 0.94837 0.51248 0.37851 0.0
H310 H 0.93473 0.4451 0.59382 0.0
H311 H 0.00394 0.54422 0.57011 0.0
C312 C 0.02877 0.53726 0.66354 0.0
C313 C 0.02831 0.51761 0.71877 0.0
C314 C 0.93653 0.45986 0.54758 0.0
C315 C 0.97569 0.5018 0.62381 0.0
C316 C 0.92832 0.44955 0.47122 0.0
C317 C 0.93513 0.46887 0.40843 0.0
C318 C 0.95255 0.48963 0.55929 0.0
C319 C 0.94375 0.49717 0.42577 0.0
C320 C 0.00241 0.52946 0.61598 0.0
C321 C 8e-05 0.49137 0.72992 0.0
N322 N 0.95387 0.50717 0.4993 0.0
N323 N 0.97514 0.48399 0.68181 0.0
H324 H 0.42016 0.4623 0.71551 0.0
H325 H 0.54237 0.53652 0.36058 0.0
H326 H 0.44825 0.54679 0.62287 0.0
H327 H 0.51175 0.45055 0.44529 0.0
H328 H 0.51196 0.54192 0.4647 0.0
H329 H 0.4517 0.45689 0.61412 0.0
C330 C 0.43198 0.47948 0.67237 0.0
C331 C 0.43208 0.50553 0.67956 0.0
C332 C 0.51213 0.52196 0.46117 0.0
C333 C 0.46955 0.49959 0.5646 0.0
C334 C 0.53024 0.51895 0.40245 0.0
C335 C 0.52892 0.4925 0.39188 0.0
C336 C 0.49265 0.49849 0.51006 0.0
C337 C 0.51263 0.47094 0.44929 0.0
C338 C 0.45069 0.47649 0.61526 0.0
C339 C 0.44813 0.52669 0.62111 0.0
N340 N 0.49446 0.47415 0.50495 0.0
N341 N 0.4668 0.5235 0.56696 0.0
H342 H 0.47011 0.01617 0.69068 0.0
H343 H 0.57255 0.0637 0.3055 0.0
H344 H 0.51841 0.9766 0.57934 0.0
H345 H 0.49447 0.07755 0.35543 0.0
H346 H 0.57723 0.05711 0.44636 0.0
H347 H 0.50042 0.05853 0.60679 0.0
C348 C 0.48697 0.0163 0.6483 0.0
C349 C 0.4905 -0.00784 0.63878 0.0
C350 C 0.56021 0.06319 0.42704 0.0
C351 C 0.52636 0.04119 0.54616 0.0
C352 C 0.55783 0.06737 0.3467 0.0
C353 C 0.53209 0.06971 0.31964 0.0
C354 C 0.53653 0.06132 0.47869 0.0
C355 C 0.51392 0.07471 0.3747 0.0
C356 C 0.5048 0.04078 0.6021 0.0
C357 C 0.51419 -0.00567 0.58687 0.0
N358 N 0.51557 0.06916 0.45218 0.0
N359 N 0.53082 0.01823 0.54135 0.0
H360 H 0.62337 0.84004 0.6741 0.0
H361 H 0.68939 0.78928 1.02407 0.0
H362 H 0.58008 0.75641 0.78647 0.0
H363 H 0.69757 0.8724 1.01549 0.0
H364 H 0.67544 0.78313 0.88477 0.0
H365 H 0.6701 0.85527 0.75598 0.0
C366 C 0.62341 0.8249 0.71632 0.0
C367 C 0.5971 0.79704 0.72496 0.0
C368 C 0.68194 0.80337 0.91228 0.0
C369 C 0.6516 0.81395 0.81408 0.0
C370 C 0.69054 0.80715 0.99138 0.0
C371 C 0.6926 0.83061 1.0316 0.0
C372 C 0.67614 0.82354 0.87468 0.0
C373 C 0.69465 0.8534 0.98667 0.0
C374 C 0.65049 0.83349 0.76131 0.0
C375 C 0.59949 0.77809 0.7779 0.0
N376 N 0.68473 0.84879 0.91078 0.0
N377 N 0.62616 0.78697 0.82076 0.0
H378 H 0.11089 0.79251 0.68796 0.0
H379 H 0.12692 0.86815 0.08897 0.0
H380 H 0.19745 0.8462 0.81207 0.0
H381 H 0.04545 0.78985 1.01528 0.0
H382 H 0.14543 0.87894 0.95196 0.0
H383 H 0.08289 0.80932 0.77236 0.0
C384 C 0.12393 0.80776 0.73347 0.0
C385 C 0.15599 0.81667 0.74676 0.0
C386 C 0.12262 0.86016 0.96513 0.0
C387 C 0.1245 0.83688 0.84087 0.0
C388 C 0.11178 0.85419 0.04317 0.0
C389 C 0.0854 0.82753 0.06287 0.0
C390 C 0.10662 0.83928 0.90795 0.0
C391 C 0.06646 0.81026 1.00196 0.0
C392 C 0.10812 0.81782 0.7802 0.0
C393 C 0.17239 0.83795 0.80241 0.0
N394 N 0.07803 0.81591 0.92689 0.0
N395 N 0.15624 0.84688 0.84896 0.0
H396 H 0.19106 0.41364 0.84746 0.0
H397 H 0.20776 0.30017 0.0507 0.0
H398 H 0.25806 0.38935 0.76551 0.0
H399 H 0.17392 0.34978 0.17241 0.0
H400 H 0.23924 0.34119 0.96221 0.0
H401 H 0.20025 0.40441 0.98263 0.0
C402 C 0.20919 0.40801 0.85855 0.0
C403 C 0.22292 0.4011 0.796 0.0
C404 C 0.22542 0.34335 1.00929 0.0
C405 C 0.23176 0.38838 0.94866 0.0
C406 C 0.20717 0.31978 0.05889 0.0
C407 C 0.18683 0.32117 0.11526 0.0
C408 C 0.2229 0.36816 1.01613 0.0
C409 C 0.18781 0.34736 0.12609 0.0
C410 C 0.21415 0.40225 0.93576 0.0
C411 C 0.24637 0.39408 0.81289 0.0
N412 N 0.20493 0.36962 0.07581 0.0
N413 N 0.24896 0.38643 0.88773 0.0
H414 H 0.35987 0.193 0.40742 0.0
H415 H 0.27346 0.10634 0.99994 0.0
H416 H 0.27622 0.10964 0.41198 0.0
H417 H 0.35669 0.18998 0.99533 0.0
H418 H 0.27411 0.10706 0.14616 0.0
H419 H 0.35923 0.19229 0.26119 0.0
C420 C 0.34118 0.17437 0.37885 0.0
C421 C 0.31806 0.15137 0.4269 0.0
C422 C 0.29239 0.12541 0.11388 0.0
C423 C 0.31718 0.15038 0.25096 0.0
C424 C 0.29206 0.12504 1.02849 0.0
C425 C 0.31505 0.14811 0.98043 0.0
C426 C 0.31595 0.1491 0.15637 0.0
C427 C 0.33815 0.17135 1.02611 0.0
C428 C 0.34085 0.174 0.29346 0.0
C429 C 0.29485 0.1282 0.38121 0.0
N430 N 0.33793 0.17116 0.10868 0.0
N431 N 0.29509 0.1284 0.29864 0.0
H432 H 0.79729 0.11795 0.3902 0.0
H433 H 0.80787 0.20101 0.96889 0.0
H434 H 0.80763 0.20182 0.38108 0.0
H435 H 0.79699 0.11695 0.97801 0.0
H436 H 0.80791 0.2017 0.11495 0.0
H437 H 0.79722 0.11725 0.24415 0.0
C438 C 0.79958 0.13643 0.3586 0.0
C439 C 0.80248 0.16002 0.40285 0.0
C440 C 0.80549 0.18295 0.08579 0.0
C441 C 0.80241 0.15928 0.22691 0.0
C442 C 0.80546 0.18248 1.00049 0.0
C443 C 0.80241 0.15885 0.95623 0.0
C444 C 0.80247 0.15958 0.13218 0.0
C445 C 0.79944 0.13593 1.00569 0.0
C446 C 0.79952 0.13596 0.2733 0.0
C447 C 0.80529 0.18287 0.3534 0.0
N448 N 0.79955 0.13695 0.08822 0.0
N449 N 0.80519 0.18186 0.27087 0.0
H450 H 0.82565 0.63425 0.47172 0.0
H451 H 0.81762 0.71246 0.05702 0.0
H452 H 0.81794 0.71017 0.46928 0.0
H453 H 0.82422 0.63597 0.0595 0.0
H454 H 0.81788 0.71211 0.20326 0.0
H455 H 0.82537 0.63459 0.32548 0.0
C456 C 0.8239 0.65117 0.44159 0.0
C457 C 0.82184 0.67222 0.4877 0.0
C458 C 0.81928 0.69526 0.17255 0.0
C459 C 0.8215 0.67274 0.31172 0.0
C460 C 0.81913 0.69542 0.08716 0.0
C461 C 0.82087 0.6742 0.04107 0.0
C462 C 0.82123 0.67369 0.21705 0.0
C463 C 0.82278 0.65305 0.0887 0.0
C464 C 0.82373 0.65132 0.3562 0.0
C465 C 0.81963 0.69322 0.44008 0.0
N466 N 0.82291 0.65341 0.17125 0.0
N467 N 0.81954 0.69287 0.35752 0.0
H468 H 0.12472 0.34906 0.21624 0.0
H469 H 0.06922 0.46268 0.27219 0.0
H470 H 0.13742 0.39488 0.43315 0.0
H471 H 0.09863 0.44972 0.04266 0.0
H472 H 0.09003 0.43424 0.33179 0.0
H473 H 0.11105 0.38211 0.14995 0.0
C474 C 0.1248 0.3661 0.24976 0.0
C475 C 0.13218 0.36918 0.3304 0.0
C476 C 0.09225 0.43781 0.26846 0.0
C477 C 0.11625 0.40658 0.25545 0.0
C478 C 0.08033 0.45398 0.23443 0.0
C479 C 0.08228 0.45851 0.15251 0.0
C480 C 0.10561 0.42548 0.22015 0.0
C481 C 0.09692 0.44682 0.1062 0.0
C482 C 0.11713 0.38496 0.21186 0.0
C483 C 0.13183 0.39159 0.37102 0.0
N484 N 0.10769 0.43042 0.14061 0.0
N485 N 0.12371 0.40922 0.33332 0.0
H486 H 0.45553 0.57465 0.12296 0.0
H487 H 0.59414 0.71882 0.27632 0.0
H488 H 0.54117 0.5799 0.21188 0.0
H489 H 0.49744 0.69591 0.33172 0.0
H490 H 0.57564 0.66966 0.23617 0.0
H491 H 0.47032 0.62049 0.18511 0.0
C492 C 0.47732 0.58537 0.15608 0.0
C493 C 0.49733 0.57367 0.1619 0.0
C494 C 0.5585 0.67536 0.25748 0.0
C495 C 0.51446 0.62603 0.23148 0.0
C496 C 0.56894 0.70342 0.27967 0.0
C497 C 0.54719 0.71141 0.30679 0.0
C498 C 0.52598 0.65527 0.26047 0.0
C499 C 0.51489 0.69054 0.31095 0.0
C500 C 0.4856 0.61136 0.19173 0.0
C501 C 0.52514 0.58825 0.20592 0.0
N502 N 0.50511 0.66338 0.2868 0.0
N503 N 0.5332 0.61399 0.23789 0.0
H504 H 0.39434 0.9423 0.203 0.0
H505 H 0.2103 0.82963 0.16716 0.0
H506 H 0.3527 0.90197 0.98242 0.0
H507 H 0.26112 0.84429 0.38542 0.0
H508 H 0.26089 0.85961 0.0975 0.0
H509 H 0.34394 0.91049 0.27048 0.0
C510 C 0.37454 0.92684 0.16869 0.0
C511 C 0.37767 0.92475 0.08698 0.0
C512 C 0.26092 0.85606 0.16053 0.0
C513 C 0.32002 0.8884 0.16381 0.0
C514 C 0.23211 0.83903 0.20031 0.0
C515 C 0.23156 0.83449 0.28217 0.0
C516 C 0.28924 0.86903 0.20321 0.0
C517 C 0.26049 0.84713 0.32224 0.0
C518 C 0.34588 0.90859 0.20734 0.0
C519 C 0.35129 0.90421 0.04556 0.0
N520 N 0.28816 0.86407 0.28245 0.0
N521 N 0.32346 0.88691 0.0844 0.0
H522 H 0.46231 0.06611 0.95294 0.0
H523 H 0.34429 0.07696 0.65615 0.0
H524 H 0.41246 0.00291 0.77462 0.0
H525 H 0.41571 0.1503 0.77983 0.0
H526 H 0.37021 0.05008 0.69495 0.0
H527 H 0.44627 0.09763 0.8893 0.0
C528 C 0.44799 0.05886 0.90038 0.0
C529 C 0.43831 0.03167 0.86965 0.0
C530 C 0.38058 0.07219 0.71254 0.0
C531 C 0.42001 0.06768 0.79649 0.0
C532 C 0.36582 0.08755 0.69036 0.0
C533 C 0.37781 0.11579 0.71539 0.0
C534 C 0.40714 0.08497 0.76156 0.0
C535 C 0.40577 0.12856 0.75931 0.0
C536 C 0.43908 0.07697 0.86374 0.0
C537 C 0.42017 0.02357 0.80079 0.0
N538 N 0.41921 0.11285 0.78234 0.0
N539 N 0.41132 0.04138 0.76701 0.0
H540 H 0.89925 0.32189 0.62421 0.0
H541 H 0.93064 0.41636 1.00411 0.0
H542 H 0.82636 0.31052 0.79065 0.0
H543 H 0.0032 0.43296 0.82933 0.0
H544 H 0.89083 0.3815 0.91691 0.0
H545 H 0.93548 0.36808 0.68324 0.0
C546 C 0.89047 0.3299 0.6707 0.0
C547 C 0.85991 0.31271 0.70265 0.0
C548 C 0.91542 0.3928 0.89731 0.0
C549 C 0.90139 0.36443 0.77306 0.0
C550 C 0.93826 0.41247 0.94759 0.0
C551 C 0.97037 0.42728 0.92443 0.0
C552 C 0.9247 0.38761 0.82345 0.0
C553 C 0.97873 0.42177 0.84984 0.0
C554 C 0.91126 0.35599 0.70531 0.0
C555 C 0.84973 0.32345 0.76415 0.0
N556 N 0.95603 0.4022 0.80215 0.0
N557 N 0.87067 0.34841 0.79859 0.0
H558 H 0.72117 0.57734 0.78653 0.0
H559 H 0.55813 0.57783 0.85058 0.0
H560 H 0.71341 0.65323 0.75794 0.0
H561 H 0.57729 0.51294 0.94008 0.0
H562 H 0.61095 0.60185 0.78584 0.0
H563 H 0.66394 0.54941 0.81097 0.0
C564 C 0.70739 0.58807 0.78451 0.0
C565 C 0.72213 0.61771 0.77174 0.0
C566 C 0.60329 0.58216 0.81899 0.0
C567 C 0.65675 0.58596 0.79981 0.0
C568 C 0.57326 0.5685 0.85561 0.0
C569 C 0.56379 0.54378 0.90175 0.0
C570 C 0.62339 0.57058 0.82789 0.0
C571 C 0.58404 0.53234 0.90631 0.0
C572 C 0.67475 0.57214 0.79856 0.0
C573 C 0.70305 0.63046 0.76892 0.0
N574 N 0.6129 0.54589 0.87025 0.0
N575 N 0.67133 0.61455 0.78374 0.0
H576 H 0.90739 0.58831 0.69849 0.0
H577 H 0.9424 0.51305 0.05626 0.0
H578 H 0.84057 0.54141 0.8862 0.0
H579 H 0.00372 0.54484 0.84993 0.0
H580 H 0.90395 0.52159 0.98943 0.0
H581 H 0.94098 0.56904 0.74332 0.0
C582 C 0.89925 0.57297 0.7471 0.0
C583 C 0.87124 0.5661 0.7886 0.0
C584 C 0.92574 0.52667 0.95842 0.0
C585 C 0.90978 0.54512 0.84208 0.0
C586 C 0.94793 0.52207 0.99696 0.0
C587 C 0.97653 0.52855 0.95899 0.0
C588 C 0.93217 0.53812 0.88136 0.0
C589 C -0.01786 0.53987 0.88173 0.0
C590 C 0.91854 0.5623 0.77331 0.0
C591 C 0.86192 0.54687 0.85246 0.0
N592 N 0.96019 0.54448 0.8455 0.0
N593 N 0.8814 0.53737 0.87803 0.0
H594 H 0.43726 0.43417 0.8116 0.0
H595 H 0.46801 0.3024 0.79057 0.0
H596 H 0.49427 0.41817 0.97588 0.0
H597 H 0.39994 0.31022 0.64728 0.0
H598 H 0.4885 0.35159 0.83495 0.0
H599 H 0.4323 0.39475 0.73084 0.0
C600 C 0.44874 0.4224 0.83064 0.0
C601 C 0.4657 0.42911 0.90134 0.0
C602 C 0.46967 0.34288 0.79208 0.0
C603 C 0.46052 0.38436 0.80885 0.0
C604 C 0.45836 0.31501 0.76601 0.0
C605 C 0.43253 0.30262 0.71512 0.0
C606 C 0.45458 0.35806 0.76783 0.0
C607 C 0.42014 0.31936 0.68615 0.0
C608 C 0.44607 0.40004 0.7843 0.0
C609 C 0.48052 0.41345 0.92253 0.0
N610 N 0.43093 0.34615 0.71398 0.0
N611 N 0.47739 0.39171 0.87678 0.0
H612 H 0.69466 0.09095 0.62048 0.0
H613 H 0.57055 0.06503 0.95814 0.0
H614 H 0.70447 0.1582 0.77387 0.0
H615 H 0.54784 0.00791 0.76142 0.0
H616 H 0.61893 0.09995 0.889 0.0
H617 H 0.63955 0.06139 0.66469 0.0
C618 C 0.68485 0.09973 0.66207 0.0
C619 C 0.70402 0.12692 0.69406 0.0
C620 C 0.60327 0.07987 0.86066 0.0
C621 C 0.64145 0.09293 0.74683 0.0
C622 C 0.57578 0.05976 0.90045 0.0
C623 C 0.55535 0.03327 0.86602 0.0
C624 C 0.61065 0.07338 0.78623 0.0
C625 C 0.56311 0.02788 0.79058 0.0
C626 C 0.65346 0.08283 0.68751 0.0
C627 C 0.69034 0.13736 0.74772 0.0
N628 N 0.59034 0.04765 0.75352 0.0
N629 N 0.65998 0.12006 0.77382 0.0
H630 H 0.49595 0.93618 0.2025 0.0
H631 H 0.5549 0.82461 0.13881 0.0
H632 H 0.49798 0.90322 0.97256 0.0
H633 H 0.51413 0.83093 0.35973 0.0
H634 H 0.53764 0.85556 0.0764 0.0
H635 H 0.50757 0.90091 0.2622 0.0
C636 C 0.49906 0.92168 0.1646 0.0
C637 C 0.49607 0.92265 0.0825 0.0
C638 C 0.53211 0.84983 0.13827 0.0
C639 C 0.50928 0.88235 0.15019 0.0
C640 C 0.54184 0.8321 0.17383 0.0
C641 C 0.53593 0.82517 0.25455 0.0
C642 C 0.51698 0.86119 0.18417 0.0
C643 C 0.51904 0.83559 0.29723 0.0
C644 C 0.50539 0.90141 0.19869 0.0
C645 C 0.50005 0.90317 1.03616 0.0
N646 N 0.51058 0.85344 0.2618 0.0
N647 N 0.50666 0.88394 0.07059 0.0
H648 H 0.12204 0.72103 0.20592 0.0
H649 H 0.0685 0.55999 0.29553 0.0
H650 H 0.13228 0.69426 0.43943 0.0
H651 H 0.10891 0.59979 0.06954 0.0
H652 H 0.08794 0.60763 0.35137 0.0
H653 H 0.11216 0.675 0.15499 0.0
C654 C 0.12216 0.70543 0.24643 0.0
C655 C 0.12786 0.71134 0.32698 0.0
C656 C 0.09296 0.60586 0.28992 0.0
C657 C 0.11639 0.65875 0.26932 0.0
C658 C 0.08192 0.57875 0.25807 0.0
C659 C 0.08702 0.57597 0.17776 0.0
C660 C 0.10844 0.63018 0.24056 0.0
C661 C 0.10451 0.60095 0.13178 0.0
C662 C 0.11679 0.67931 0.21727 0.0
C663 C 0.12801 0.69049 0.37687 0.0
N664 N 0.11409 0.62701 0.1635 0.0
N665 N 0.12194 0.6649 0.34739 0.0
H666 H 0.37514 0.47808 0.14373 0.0
H667 H 0.24808 0.32646 0.29752 0.0
H668 H 0.40528 0.41724 0.20014 0.0
H669 H 0.25561 0.4013 0.40849 0.0
H670 H 0.30046 0.35692 0.23467 0.0
H671 H 0.32487 0.44752 0.21489 0.0
C672 C 0.3711 0.45828 0.17113 0.0
C673 C 0.39422 0.45009 0.16667 0.0
C674 C 0.29056 0.36646 0.2733 0.0
C675 C 0.33698 0.41507 0.24551 0.0
C676 C 0.26082 0.34924 0.30878 0.0
C677 C 0.24778 0.36147 0.35848 0.0
C678 C 0.30662 0.39606 0.28584 0.0
C679 C 0.26505 0.39107 0.37109 0.0
C680 C 0.34262 0.44102 0.21168 0.0
C681 C 0.38801 0.4243 0.20303 0.0
N682 N 0.29348 0.40749 0.33403 0.0
N683 N 0.35966 0.40738 0.24022 0.0
H684 H 0.80128 0.8084 0.66596 0.0
H685 H 0.61959 0.76308 0.61927 0.0
H686 H 0.72657 0.74725 0.81926 0.0
H687 H 0.69421 0.81253 0.44878 0.0
H688 H 0.65967 0.76632 0.71186 0.0
H689 H 0.76424 0.82181 0.61028 0.0
C690 C 0.77744 0.79888 0.69056 0.0
C691 C 0.76677 0.77678 0.74694 0.0
C692 C 0.66721 0.77659 0.65432 0.0
C693 C 0.72394 0.79065 0.68102 0.0
C694 C 0.64434 0.77454 0.60126 0.0
C695 C 0.6535 0.78707 0.52566 0.0
C696 C 0.69942 0.79139 0.63159 0.0
C697 C 0.68596 0.80201 0.5058 0.0
C698 C 0.75612 0.8061 0.6579 0.0
C699 C 0.73554 0.76453 0.77595 0.0
N700 N 0.70768 0.80362 0.55826 0.0
N701 N 0.71489 0.77113 0.74129 0.0
H702 H 0.20232 0.98466 0.77171 0.0
H703 H 0.13897 0.88078 0.40283 0.0
H704 H 0.17804 0.00702 0.54855 0.0
H705 H 0.1747 0.86289 0.61548 0.0
H706 H 0.14245 0.92283 0.46557 0.0
H707 H 0.17963 0.9351 0.72768 0.0
C708 C 0.19103 0.97878 0.7147 0.0
C709 C 0.19199 -0.00033 0.66335 0.0
C710 C 0.14938 0.90961 0.49865 0.0
C711 C 0.1672 0.94375 0.61161 0.0
C712 C 0.14761 0.88573 0.46265 0.0
C713 C 0.15723 0.86867 0.50338 0.0
C714 C 0.16083 0.91648 0.57593 0.0
C715 C 0.16767 0.87578 0.5813 0.0
C716 C 0.1785 0.95067 0.6891 0.0
C717 C 0.17765 -0.00868 0.58955 0.0
N718 N 0.16942 0.89927 0.61485 0.0
N719 N 0.16628 0.96406 0.56527 0.0
H720 H 0.89936 0.15221 0.61903 0.0
H721 H 0.06728 0.29689 0.63146 0.0
H722 H 0.91171 0.23181 0.70833 0.0
H723 H 0.0465 0.22882 0.46834 0.0
H724 H 0.01291 0.26944 0.68354 0.0
H725 H 0.95641 0.17633 0.58804 0.0
C726 C 0.91416 0.17461 0.63329 0.0
C727 C 0.90086 0.19016 0.66553 0.0
C728 C 0.02036 0.26051 0.63659 0.0
C729 C 0.96573 0.21768 0.6305 0.0
C730 C 0.05134 0.27613 0.60687 0.0
C731 C 0.06127 0.26523 0.54491 0.0
C732 C -0.00065 0.23369 0.60478 0.0
C733 C 0.03968 0.23815 0.51551 0.0
C734 C 0.94659 0.18836 0.61517 0.0
C735 C 0.92102 0.21914 0.68268 0.0
N736 N 0.00968 0.22329 0.5457 0.0
N737 N 0.95245 0.23201 0.6647 0.0
H738 H 0.29069 0.22388 0.7417 0.0
H739 H 0.15098 0.22127 0.50406 0.0
H740 H 0.21276 0.14564 0.65296 0.0
H741 H 0.21063 0.29056 0.65815 0.0
H742 H 0.17167 0.19246 0.5622 0.0
H743 H 0.26052 0.24808 0.71695 0.0
C744 C 0.26703 0.21172 0.71781 0.0
C745 C 0.2543 0.18282 0.69838 0.0
C746 C 0.1799 0.2138 0.58415 0.0
C747 C 0.21984 0.21046 0.6691 0.0
C748 C 0.16822 0.23032 0.55075 0.0
C749 C 0.17944 0.25848 0.57567 0.0
C750 C 0.20339 0.22571 0.64189 0.0
C751 C 0.2015 0.26901 0.6369 0.0
C752 C 0.24979 0.22552 0.70399 0.0
C753 C 0.22347 0.16799 0.6684 0.0
N754 N 0.21315 0.25276 0.6671 0.0
N755 N 0.20745 0.18212 0.65336 0.0
H756 H 0.68256 0.89299 0.3871 0.0
H757 H 0.70932 -0.00314 0.74265 0.0
H758 H 0.61334 0.87166 0.57483 0.0
H759 H 0.78227 0.00965 0.57445 0.0
H760 H 0.67569 0.94839 0.69287 0.0
H761 H 0.72025 0.93462 0.46031 0.0
C762 C 0.67514 0.89725 0.44341 0.0
C763 C 0.64466 0.87896 0.47465 0.0
C764 C 0.6994 0.96143 0.66836 0.0
C765 C 0.68801 0.92641 0.55964 0.0
C766 C 0.71869 0.98885 0.69758 0.0
C767 C 0.7485 0.00682 0.66278 0.0
C768 C 0.70998 0.95244 0.60306 0.0
C769 C 0.75948 -0.00391 0.60312 0.0
C770 C 0.69686 0.92084 0.48574 0.0
C771 C 0.63656 0.88533 0.54842 0.0
N772 N 0.73996 0.96969 0.57409 0.0
N773 N 0.65811 0.90864 0.58839 0.0
H774 H 0.92039 0.76084 0.67883 0.0
H775 H 0.07148 0.73968 0.64067 0.0
H776 H 0.92887 0.69591 0.80885 0.0
H777 H 0.04316 0.7805 0.46439 0.0
H778 H 0.0262 0.73215 0.72379 0.0
H779 H 0.97405 0.77878 0.6248 0.0
C780 C 0.93394 0.75099 0.69797 0.0
C781 C 0.92015 0.72665 0.74723 0.0
C782 C 0.03006 0.74279 0.66689 0.0
C783 C 0.98091 0.74656 0.68496 0.0
C784 C 0.05565 0.74686 0.61933 0.0
C785 C 0.06074 0.76029 0.54509 0.0
C786 C 0.0098 0.75254 0.64015 0.0
C787 C 0.03983 0.76958 0.52062 0.0
C788 C 0.96435 0.76097 0.66647 0.0
C789 C 0.93861 0.71452 0.76997 0.0
N790 N 0.01532 0.76555 0.56803 0.0
N791 N 0.96795 0.72435 0.73777 0.0
loop_
_geom_bond_atom_site_label_1
_geom_bond_atom_site_label_2
_geom_bond_distance
_geom_bond_site_symmetry_2
_ccdc_geom_bond_type
C0 O16 1.251 1_554 S
C0 O18 1.254 . S
N1 C2 1.333 . S
N1 C6 1.307 . S
N1 Zn7 2.020 . S
C2 N1 1.333 . S
C2 C3 1.379 . S
C2 H20 0.952 . S
C3 C2 1.379 . S
C3 C4 1.390 . S
C3 H30 0.949 . S
C4 C3 1.390 . S
C4 C5 1.357 . S
C5 C4 1.357 . S
C5 C6 1.370 . S
C5 H31 0.950 . S
C6 N1 1.307 . S
C6 C5 1.370 . S
C6 H24 0.948 . S
Zn7 N1 2.020 . S
Zn7 O16 2.039 . S
Zn7 O22 2.034 . S
Zn7 O26 2.025 1_556 S
Zn7 O28 2.024 1_556 S
C8 O27 1.246 . S
C8 O28 1.249 . S
N9 C10 1.307 1_455 S
N9 C11 1.333 . S
N9 Zn15 2.020 . S
C10 N9 1.307 1_655 S
C10 C14 1.370 . S
C10 H21 0.948 . S
C11 N9 1.333 . S
C11 C12 1.379 . S
C11 H19 0.952 . S
C12 C11 1.379 . S
C12 C13 1.390 1_455 S
C12 H32 0.949 . S
C13 C12 1.390 1_655 S
C13 C14 1.357 . S
C14 C10 1.370 . S
C14 C13 1.357 . S
C14 H33 0.950 . S
Zn15 N9 2.020 . S
Zn15 O18 2.025 . S
Zn15 O23 2.027 . S
Zn15 O25 2.039 . S
Zn15 O27 2.034 . S
O16 C0 1.251 1_556 S
O16 Zn7 2.039 . S
C17 O22 1.246 1_554 S
C17 O23 1.252 . S
O18 C0 1.254 . S
O18 Zn15 2.025 . S
H19 C11 0.952 . S
H20 C2 0.952 . S
H21 C10 0.948 . S
O22 Zn7 2.034 . S
O22 C17 1.246 1_556 S
O23 Zn15 2.027 . S
O23 C17 1.252 . S
H24 C6 0.948 . S
O25 Zn15 2.039 . S
O25 C29 1.251 . S
O26 Zn7 2.025 1_554 S
O26 C29 1.254 . S
O27 C8 1.246 . S
O27 Zn15 2.034 . S
O28 Zn7 2.024 1_554 S
O28 C8 1.249 . S
C29 O25 1.251 . S
C29 O26 1.254 . S
H30 C3 0.949 . S
H31 C5 0.950 . S
H32 C12 0.949 . S
H33 C14 0.950 . S
C34 O50 1.251 . S
C34 O52 1.239 1_554 S
N35 C36 1.333 . S
N35 C40 1.307 . S
N35 Zn41 2.020 . S
C36 N35 1.333 . S
C36 C37 1.379 . S
C36 H54 0.952 . S
C37 C36 1.379 . S
C37 C38 1.390 . S
C37 H64 0.949 . S
C38 C37 1.390 . S
C38 C39 1.357 . S
C39 C38 1.357 . S
C39 C40 1.370 . S
C39 H65 0.950 . S
C40 N35 1.307 . S
C40 C39 1.370 . S
C40 H58 0.948 . S
Zn41 N35 2.020 . S
Zn41 O50 2.039 . S
Zn41 O56 2.034 . S
Zn41 O60 2.025 . S
Zn41 O62 2.024 . S
C42 O61 1.234 1_554 S
C42 O62 1.264 . S
N43 C44 1.307 . S
N43 C45 1.333 . S
N43 Zn49 2.020 . S
C44 N43 1.307 . S
C44 C48 1.370 . S
C44 H55 0.948 . S
C45 N43 1.333 . S
C45 C46 1.379 . S
C45 H53 0.952 . S
C46 C45 1.379 . S
C46 C47 1.390 . S
C46 H66 0.949 . S
C47 C46 1.390 . S
C47 C48 1.357 . S
C48 C44 1.370 . S
C48 C47 1.357 . S
C48 H67 0.950 . S
Zn49 N43 2.020 . S
Zn49 O52 2.032 . S
Zn49 O57 2.024 . S
Zn49 O59 2.039 . S
Zn49 O61 2.034 . S
O50 C34 1.251 . S
O50 Zn41 2.039 . S
C51 O56 1.246 . S
C51 O57 1.249 1_554 S
O52 C34 1.239 1_556 S
O52 Zn49 2.032 . S
H53 C45 0.952 . S
H54 C36 0.952 . S
H55 C44 0.948 . S
O56 Zn41 2.034 . S
O56 C51 1.246 . S
O57 Zn49 2.024 . S
O57 C51 1.249 1_556 S
H58 C40 0.948 . S
O59 Zn49 2.039 . S
O59 C63 1.251 . S
O60 Zn41 2.025 . S
O60 C63 1.254 1_554 S
O61 C42 1.234 1_556 S
O61 Zn49 2.034 . S
O62 Zn41 2.024 . S
O62 C42 1.264 . S
C63 O59 1.251 . S
C63 O60 1.254 1_556 S
H64 C37 0.949 . S
H65 C39 0.950 . S
H66 C46 0.949 . S
H67 C48 0.950 . S
C68 O84 1.251 . S
C68 O86 1.254 1_556 S
N69 C70 1.333 1_565 S
N69 C74 1.307 . S
N69 Zn75 2.012 1_565 S
C70 N69 1.333 1_545 S
C70 C71 1.379 . S
C70 H88 0.952 . S
C71 C70 1.379 . S
C71 C72 1.390 1_545 S
C71 H98 0.949 . S
C72 C71 1.390 1_565 S
C72 C73 1.357 . S
C73 C72 1.357 . S
C73 C74 1.370 . S
C73 H99 0.950 . S
C74 N69 1.307 . S
C74 C73 1.370 . S
C74 H92 0.948 . S
Zn75 N69 2.012 1_545 S
Zn75 O84 2.048 . S
Zn75 O90 2.069 . S
Zn75 O94 2.020 1_545 S
Zn75 O96 1.993 1_545 S
C76 O95 1.246 . S
C76 O96 1.249 1_554 S
N77 C78 1.307 . S
N77 C79 1.333 . S
N77 Zn83 2.020 . S
C78 N77 1.307 . S
C78 C82 1.370 . S
C78 H89 0.948 . S
C79 N77 1.333 . S
C79 C80 1.379 . S
C79 H87 0.952 1_545 S
C80 C79 1.379 . S
C80 C81 1.390 . S
C80 H100 0.949 . S
C81 C80 1.390 . S
C81 C82 1.357 . S
C82 C78 1.370 . S
C82 C81 1.357 . S
C82 H101 0.950 . S
Zn83 N77 2.020 . S
Zn83 O86 2.025 . S
Zn83 O91 2.024 . S
Zn83 O93 2.039 1_545 S
Zn83 O95 2.034 1_545 S
O84 C68 1.251 . S
O84 Zn75 2.048 . S
C85 O90 1.246 . S
C85 O91 1.249 1_556 S
O86 C68 1.254 1_554 S
O86 Zn83 2.025 . S
H87 C79 0.952 1_565 S
H88 C70 0.952 . S
H89 C78 0.948 . S
O90 Zn75 2.069 . S
O90 C85 1.246 . S
O91 Zn83 2.024 . S
O91 C85 1.249 1_554 S
H92 C74 0.948 . S
O93 Zn83 2.039 1_565 S
O93 C97 1.251 . S
O94 Zn75 2.020 1_565 S
O94 C97 1.254 1_556 S
O95 C76 1.246 . S
O95 Zn83 2.034 1_565 S
O96 Zn75 1.993 1_565 S
O96 C76 1.249 1_556 S
C97 O93 1.251 . S
C97 O94 1.254 1_554 S
H98 C71 0.949 . S
H99 C73 0.950 . S
H100 C80 0.949 . S
H101 C82 0.950 . S
C102 O118 1.251 . S
C102 O120 1.254 . S
N103 C104 1.333 . S
N103 C108 1.307 . S
N103 Zn109 2.020 . S
C104 N103 1.333 . S
C104 C105 1.379 1_554 S
C104 H122 0.952 . S
C105 C104 1.379 1_556 S
C105 C106 1.390 . S
C105 H132 0.949 . S
C106 C105 1.390 . S
C106 C107 1.357 1_556 S
C107 C106 1.357 1_554 S
C107 C108 1.370 . S
C107 H133 0.950 . S
C108 N103 1.307 . S
C108 C107 1.370 . S
C108 H126 0.948 . S
Zn109 N103 2.020 . S
Zn109 O118 2.039 . S
Zn109 O124 2.034 . S
Zn109 O128 2.025 . S
Zn109 O130 2.024 . S
C110 O129 1.246 . S
C110 O130 1.249 . S
N111 C112 1.307 . S
N111 C113 1.333 . S
N111 Zn117 2.020 . S
C112 N111 1.307 . S
C112 C116 1.370 . S
C112 H123 0.948 . S
C113 N111 1.333 . S
C113 C114 1.379 . S
C113 H121 0.952 . S
C114 C113 1.379 . S
C114 C115 1.390 . S
C114 H134 0.949 . S
C115 C114 1.390 . S
C115 C116 1.357 . S
C116 C112 1.370 . S
C116 C115 1.357 . S
C116 H135 0.950 . S
Zn117 N111 2.020 . S
Zn117 O120 2.025 . S
Zn117 O125 2.024 . S
Zn117 O127 2.039 . S
Zn117 O129 2.034 . S
O118 C102 1.251 . S
O118 Zn109 2.039 . S
C119 O124 1.246 . S
C119 O125 1.249 . S
O120 C102 1.254 . S
O120 Zn117 2.025 . S
H121 C113 0.952 . S
H122 C104 0.952 . S
H123 C112 0.948 . S
O124 Zn109 2.034 . S
O124 C119 1.246 . S
O125 Zn117 2.024 . S
O125 C119 1.249 . S
H126 C108 0.948 . S
O127 Zn117 2.039 . S
O127 C131 1.251 . S
O128 Zn109 2.025 . S
O128 C131 1.254 . S
O129 C110 1.246 . S
O129 Zn117 2.034 . S
O130 Zn109 2.024 . S
O130 C110 1.249 . S
C131 O127 1.251 . S
C131 O128 1.254 . S
H132 C105 0.949 . S
H133 C107 0.950 . S
H134 C114 0.949 . S
H135 C116 0.950 . S
C136 O152 1.251 . S
C136 O154 1.254 . S
N137 C138 1.333 . S
N137 C142 1.307 . S
N137 Zn143 2.020 . S
C138 N137 1.333 . S
C138 C139 1.379 . S
C138 H156 0.952 . S
C139 C138 1.379 . S
C139 C140 1.390 . S
C139 H166 0.949 . S
C140 C139 1.390 . S
C140 C141 1.357 . S
C141 C140 1.357 . S
C141 C142 1.370 . S
C141 H167 0.950 . S
C142 N137 1.307 . S
C142 C141 1.370 . S
C142 H160 0.948 . S
Zn143 N137 2.020 . S
Zn143 O152 2.039 . S
Zn143 O158 2.034 . S
Zn143 O162 2.025 . S
Zn143 O164 2.024 . S
C144 O163 1.246 . S
C144 O164 1.249 . S
N145 C146 1.307 . S
N145 C147 1.333 . S
N145 Zn151 2.020 . S
C146 N145 1.307 . S
C146 C150 1.370 . S
C146 H157 0.948 . S
C147 N145 1.333 . S
C147 C148 1.379 . S
C147 H155 0.952 . S
C148 C147 1.379 . S
C148 C149 1.387 1_554 S
C148 H168 0.949 1_554 S
C149 C148 1.387 1_556 S
C149 C150 1.351 1_556 S
C150 C146 1.370 . S
C150 C149 1.351 1_554 S
C150 H169 0.950 . S
Zn151 N145 2.020 . S
Zn151 O154 2.025 . S
Zn151 O159 2.024 . S
Zn151 O161 2.039 . S
Zn151 O163 2.034 . S
O152 C136 1.251 . S
O152 Zn143 2.039 . S
C153 O158 1.246 . S
C153 O159 1.249 . S
O154 C136 1.254 . S
O154 Zn151 2.025 . S
H155 C147 0.952 . S
H156 C138 0.952 . S
H157 C146 0.948 . S
O158 Zn143 2.034 . S
O158 C153 1.246 . S
O159 Zn151 2.024 . S
O159 C153 1.249 . S
H160 C142 0.948 . S
O161 Zn151 2.039 . S
O161 C165 1.251 . S
O162 Zn143 2.025 . S
O162 C165 1.254 . S
O163 C144 1.246 . S
O163 Zn151 2.034 . S
O164 Zn143 2.024 . S
O164 C144 1.249 . S
C165 O161 1.251 . S
C165 O162 1.254 . S
H166 C139 0.949 . S
H167 C141 0.950 . S
H168 C148 0.949 1_556 S
H169 C150 0.950 . S
C170 O186 1.251 . S
C170 O188 1.254 . S
N171 C172 1.333 . S
N171 C176 1.307 . S
N171 Zn177 2.020 . S
C172 N171 1.333 . S
C172 C173 1.379 . S
C172 H190 0.952 . S
C173 C172 1.379 . S
C173 C174 1.390 . S
C173 H200 0.949 . S
C174 C173 1.390 . S
C174 C175 1.357 . S
C175 C174 1.357 . S
C175 C176 1.370 . S
C175 H201 0.950 . S
C176 N171 1.307 . S
C176 C175 1.370 . S
C176 H194 0.948 . S
Zn177 N171 2.020 . S
Zn177 O186 2.039 . S
Zn177 O192 2.034 . S
Zn177 O196 2.025 . S
Zn177 O198 2.024 . S
C178 O197 1.246 . S
C178 O198 1.249 . S
N179 C180 1.307 . S
N179 C181 1.333 . S
N179 Zn185 2.020 . S
C180 N179 1.307 . S
C180 C184 1.370 . S
C180 H191 0.948 . S
C181 N179 1.333 . S
C181 C182 1.379 . S
C181 H189 0.952 . S
C182 C181 1.379 . S
C182 C183 1.390 . S
C182 H202 0.949 . S
C183 C182 1.390 . S
C183 C184 1.357 . S
C184 C180 1.370 . S
C184 C183 1.357 . S
C184 H203 0.950 . S
Zn185 N179 2.020 . S
Zn185 O188 2.025 . S
Zn185 O193 2.024 . S
Zn185 O195 2.039 . S
Zn185 O197 2.034 . S
O186 C170 1.251 . S
O186 Zn177 2.039 . S
C187 O192 1.246 . S
C187 O193 1.249 . S
O188 C170 1.254 . S
O188 Zn185 2.025 . S
H189 C181 0.952 . S
H190 C172 0.952 . S
H191 C180 0.948 . S
O192 Zn177 2.034 . S
O192 C187 1.246 . S
O193 Zn185 2.024 . S
O193 C187 1.249 . S
H194 C176 0.948 . S
O195 Zn185 2.039 . S
O195 C199 1.251 . S
O196 Zn177 2.025 . S
O196 C199 1.254 . S
O197 C178 1.246 . S
O197 Zn185 2.034 . S
O198 Zn177 2.024 . S
O198 C178 1.249 . S
C199 O195 1.251 . S
C199 O196 1.254 . S
H200 C173 0.949 . S
H201 C175 0.950 . S
H202 C182 0.949 . S
H203 C184 0.950 . S
C204 O220 1.251 . S
C204 O222 1.254 . S
N205 C206 1.333 . S
N205 C210 1.307 . S
N205 Zn211 2.020 . S
C206 N205 1.333 . S
C206 C207 1.379 . S
C206 H224 0.952 . S
C207 C206 1.379 . S
C207 C208 1.390 . S
C207 H234 0.949 . S
C208 C207 1.390 . S
C208 C209 1.357 . S
C209 C208 1.357 . S
C209 C210 1.370 . S
C209 H235 0.950 . S
C210 N205 1.307 . S
C210 C209 1.370 . S
C210 H228 0.948 . S
Zn211 N205 2.020 . S
Zn211 O220 2.039 . S
Zn211 O226 2.034 . S
Zn211 O230 2.025 . S
Zn211 O232 2.024 . S
C212 O231 1.246 . S
C212 O232 1.249 . S
N213 C214 1.307 . S
N213 C215 1.333 . S
N213 Zn219 2.020 . S
C214 N213 1.307 . S
C214 C218 1.370 . S
C214 H225 0.948 . S
C215 N213 1.333 . S
C215 C216 1.379 . S
C215 H223 0.952 . S
C216 C215 1.379 . S
C216 C217 1.390 . S
C216 H236 0.949 . S
C217 C216 1.390 . S
C217 C218 1.357 . S
C218 C214 1.370 . S
C218 C217 1.357 . S
C218 H237 0.950 . S
Zn219 N213 2.020 . S
Zn219 O222 2.025 . S
Zn219 O227 2.024 . S
Zn219 O229 2.039 . S
Zn219 O231 2.034 . S
O220 C204 1.251 . S
O220 Zn211 2.039 . S
C221 O226 1.246 . S
C221 O227 1.249 . S
O222 C204 1.254 . S
O222 Zn219 2.025 . S
H223 C215 0.952 . S
H224 C206 0.952 . S
H225 C214 0.948 . S
O226 Zn211 2.034 . S
O226 C221 1.246 . S
O227 Zn219 2.024 . S
O227 C221 1.249 . S
H228 C210 0.948 . S
O229 Zn219 2.039 . S
O229 C233 1.251 . S
O230 Zn211 2.025 . S
O230 C233 1.254 . S
O231 C212 1.246 . S
O231 Zn219 2.034 . S
O232 Zn211 2.024 . S
O232 C212 1.249 . S
C233 O229 1.251 . S
C233 O230 1.254 . S
H234 C207 0.949 . S
H235 C209 0.950 . S
H236 C216 0.949 . S
H237 C218 0.950 . S
C238 O254 1.251 . S
C238 O256 1.254 . S
N239 C240 1.333 . S
N239 C244 1.307 . S
N239 Zn245 2.020 . S
C240 N239 1.333 . S
C240 C241 1.379 . S
C240 H258 0.952 . S
C241 C240 1.379 . S
C241 C242 1.390 . S
C241 H268 0.949 . S
C242 C241 1.390 . S
C242 C243 1.357 . S
C243 C242 1.357 . S
C243 C244 1.370 . S
C243 H269 0.950 . S
C244 N239 1.307 . S
C244 C243 1.370 . S
C244 H262 0.948 . S
Zn245 N239 2.020 . S
Zn245 O254 2.039 . S
Zn245 O260 2.034 . S
Zn245 O264 2.025 . S
Zn245 O266 2.024 . S
C246 O265 1.246 . S
C246 O266 1.249 . S
N247 C248 1.307 . S
N247 C249 1.333 . S
N247 Zn253 2.020 . S
C248 N247 1.307 . S
C248 C252 1.370 . S
C248 H259 0.948 . S
C249 N247 1.333 . S
C249 C250 1.379 . S
C249 H257 0.952 . S
C250 C249 1.379 . S
C250 C251 1.390 . S
C250 H270 0.949 . S
C251 C250 1.390 . S
C251 C252 1.357 . S
C252 C248 1.370 . S
C252 C251 1.357 . S
C252 H271 0.950 . S
Zn253 N247 2.020 . S
Zn253 O256 2.025 . S
Zn253 O261 2.024 . S
Zn253 O263 2.039 . S
Zn253 O265 2.034 . S
O254 C238 1.251 . S
O254 Zn245 2.039 . S
C255 O260 1.246 . S
C255 O261 1.249 . S
O256 C238 1.254 . S
O256 Zn253 2.025 . S
H257 C249 0.952 . S
H258 C240 0.952 . S
H259 C248 0.948 . S
O260 Zn245 2.034 . S
O260 C255 1.246 . S
O261 Zn253 2.024 . S
O261 C255 1.249 . S
H262 C244 0.948 . S
O263 Zn253 2.039 . S
O263 C267 1.251 . S
O264 Zn245 2.025 . S
O264 C267 1.254 . S
O265 C246 1.246 . S
O265 Zn253 2.034 . S
O266 Zn245 2.024 . S
O266 C246 1.249 . S
C267 O263 1.251 . S
C267 O264 1.254 . S
H268 C241 0.949 . S
H269 C243 0.950 . S
H270 C250 0.949 . S
H271 C252 0.950 . S
C272 O288 1.251 . S
C272 O290 1.254 . S
N273 C274 1.333 . S
N273 C278 1.307 . S
N273 Zn279 2.020 . S
C274 N273 1.333 . S
C274 C275 1.379 . S
C274 H292 0.952 . S
C275 C274 1.379 . S
C275 C276 1.390 . S
C275 H302 0.949 . S
C276 C275 1.390 . S
C276 C277 1.357 . S
C277 C276 1.357 . S
C277 C278 1.370 . S
C277 H303 0.950 . S
C278 N273 1.307 . S
C278 C277 1.370 . S
C278 H296 0.948 . S
Zn279 N273 2.020 . S
Zn279 O288 2.039 . S
Zn279 O294 2.034 . S
Zn279 O298 2.025 . S
Zn279 O300 2.024 . S
C280 O299 1.246 . S
C280 O300 1.249 . S
N281 C282 1.307 . S
N281 C283 1.333 . S
N281 Zn287 2.020 . S
C282 N281 1.307 . S
C282 C286 1.370 . S
C282 H293 0.948 . S
C283 N281 1.333 . S
C283 C284 1.379 . S
C283 H291 0.952 . S
C284 C283 1.379 . S
C284 C285 1.390 . S
C284 H304 0.949 . S
C285 C284 1.390 . S
C285 C286 1.357 . S
C286 C282 1.370 . S
C286 C285 1.357 . S
C286 H305 0.950 . S
Zn287 N281 2.020 . S
Zn287 O290 2.025 . S
Zn287 O295 2.024 . S
Zn287 O297 2.039 . S
Zn287 O299 2.034 . S
O288 C272 1.251 . S
O288 Zn279 2.039 . S
C289 O294 1.246 . S
C289 O295 1.249 . S
O290 C272 1.254 . S
O290 Zn287 2.025 . S
H291 C283 0.952 . S
H292 C274 0.952 . S
H293 C282 0.948 . S
O294 Zn279 2.034 . S
O294 C289 1.246 . S
O295 Zn287 2.024 . S
O295 C289 1.249 . S
H296 C278 0.948 . S
O297 Zn287 2.039 . S
O297 C301 1.251 . S
O298 Zn279 2.025 . S
O298 C301 1.254 . S
O299 C280 1.246 . S
O299 Zn287 2.034 . S
O300 Zn279 2.024 . S
O300 C280 1.249 . S
C301 O297 1.251 . S
C301 O298 1.254 . S
H302 C275 0.949 . S
H303 C277 0.950 . S
H304 C284 0.949 . S
H305 C286 0.950 . S
H306 C312 0.930 . S
H307 C316 0.930 . S
H308 C321 0.929 . S
H309 C319 0.929 . S
H310 C314 0.929 . S
H311 C320 0.929 . S
C312 H306 0.930 . S
C312 C313 1.367 . S
C312 C320 1.378 . S
C313 C312 1.367 . S
C313 C321 1.433 . S
C314 H310 0.929 . S
C314 C316 1.378 1_455 S
C314 C318 1.350 . S
C315 C318 1.463 . S
C315 C320 1.350 . S
C315 N323 1.427 . S
C316 H307 0.930 . S
C316 C314 1.378 1_655 S
C316 C317 1.367 . S
C317 C316 1.367 . S
C317 C319 1.433 1_655 S
C318 C314 1.350 . S
C318 C315 1.463 . S
C318 N322 1.427 . S
C319 H309 0.929 . S
C319 C317 1.433 1_455 S
C319 N322 1.384 . S
C320 H311 0.929 . S
C320 C312 1.378 . S
C320 C315 1.350 . S
C321 H308 0.929 . S
C321 C313 1.433 . S
C321 N323 1.384 . S
N322 C318 1.427 . S
N322 C319 1.384 . S
N323 C315 1.427 . S
N323 C321 1.384 . S
H324 C330 0.930 . S
H325 C334 0.930 . S
H326 C339 0.929 . S
H327 C337 0.929 . S
H328 C332 0.929 . S
H329 C338 0.929 . S
C330 H324 0.930 . S
C330 C331 1.367 . S
C330 C338 1.378 . S
C331 C330 1.367 . S
C331 C339 1.433 . S
C332 H328 0.929 . S
C332 C334 1.378 . S
C332 C336 1.350 . S
C333 C336 1.463 . S
C333 C338 1.350 . S
C333 N341 1.427 . S
C334 H325 0.930 . S
C334 C332 1.378 . S
C334 C335 1.367 . S
C335 C334 1.367 . S
C335 C337 1.433 . S
C336 C332 1.350 . S
C336 C333 1.463 . S
C336 N340 1.427 . S
C337 H327 0.929 . S
C337 C335 1.433 . S
C337 N340 1.384 . S
C338 H329 0.929 . S
C338 C330 1.378 . S
C338 C333 1.350 . S
C339 H326 0.929 . S
C339 C331 1.433 . S
C339 N341 1.384 . S
N340 C336 1.427 . S
N340 C337 1.384 . S
N341 C333 1.427 . S
N341 C339 1.384 . S
H342 C348 0.930 . S
H343 C352 0.930 . S
H344 C357 0.929 . S
H345 C355 0.929 . S
H346 C350 0.929 . S
H347 C356 0.929 . S
C348 H342 0.930 . S
C348 C349 1.367 . S
C348 C356 1.378 . S
C349 C348 1.367 . S
C349 C357 1.433 . S
C350 H346 0.929 . S
C350 C352 1.378 . S
C350 C354 1.350 . S
C351 C354 1.463 . S
C351 C356 1.350 1_545 S
C351 N359 1.427 . S
C352 H343 0.930 . S
C352 C350 1.378 . S
C352 C353 1.367 . S
C353 C352 1.367 . S
C353 C355 1.433 . S
C354 C350 1.350 . S
C354 C351 1.463 . S
C354 N358 1.427 . S
C355 H345 0.929 . S
C355 C353 1.433 . S
C355 N358 1.384 . S
C356 H347 0.929 . S
C356 C348 1.378 . S
C356 C351 1.350 1_565 S
C357 H344 0.929 . S
C357 C349 1.433 . S
C357 N359 1.384 1_565 S
N358 C354 1.427 . S
N358 C355 1.384 . S
N359 C351 1.427 . S
N359 C357 1.384 1_545 S
H360 C366 0.930 . S
H361 C370 0.930 . S
H362 C375 0.929 . S
H363 C373 0.929 . S
H364 C368 0.929 . S
H365 C374 0.929 . S
C366 H360 0.930 . S
C366 C367 1.367 . S
C366 C374 1.378 . S
C367 C366 1.367 . S
C367 C375 1.433 . S
C368 H364 0.929 . S
C368 C370 1.378 . S
C368 C372 1.350 . S
C369 C372 1.463 . S
C369 C374 1.350 . S
C369 N377 1.427 . S
C370 H361 0.930 . S
C370 C368 1.378 . S
C370 C371 1.367 . S
C371 C370 1.367 . S
C371 C373 1.433 . S
C372 C368 1.350 . S
C372 C369 1.463 . S
C372 N376 1.427 . S
C373 H363 0.929 . S
C373 C371 1.433 . S
C373 N376 1.384 . S
C374 H365 0.929 . S
C374 C366 1.378 . S
C374 C369 1.350 . S
C375 H362 0.929 . S
C375 C367 1.433 . S
C375 N377 1.384 . S
N376 C372 1.427 . S
N376 C373 1.384 . S
N377 C369 1.427 . S
N377 C375 1.384 . S
H378 C384 0.930 . S
H379 C388 0.930 . S
H380 C393 0.929 . S
H381 C391 0.929 . S
H382 C386 0.929 . S
H383 C392 0.929 . S
C384 H378 0.930 . S
C384 C385 1.367 . S
C384 C392 1.378 . S
C385 C384 1.367 . S
C385 C393 1.433 . S
C386 H382 0.929 . S
C386 C388 1.378 . S
C386 C390 1.350 . S
C387 C390 1.463 . S
C387 C392 1.350 . S
C387 N395 1.427 . S
C388 H379 0.930 . S
C388 C386 1.378 . S
C388 C389 1.367 . S
C389 C388 1.367 . S
C389 C391 1.433 . S
C390 C386 1.350 . S
C390 C387 1.463 . S
C390 N394 1.427 . S
C391 H381 0.929 . S
C391 C389 1.433 . S
C391 N394 1.384 . S
C392 H383 0.929 . S
C392 C384 1.378 . S
C392 C387 1.350 . S
C393 H380 0.929 . S
C393 C385 1.433 . S
C393 N395 1.384 . S
N394 C390 1.427 . S
N394 C391 1.384 . S
N395 C387 1.427 . S
N395 C393 1.384 . S
H396 C402 0.930 . S
H397 C406 0.930 . S
H398 C411 0.929 . S
H399 C409 0.929 . S
H400 C404 0.929 . S
H401 C410 0.929 . S
C402 H396 0.930 . S
C402 C403 1.367 . S
C402 C410 1.378 . S
C403 C402 1.367 . S
C403 C411 1.433 . S
C404 H400 0.929 . S
C404 C406 1.378 . S
C404 C408 1.350 . S
C405 C408 1.463 . S
C405 C410 1.350 . S
C405 N413 1.427 . S
C406 H397 0.930 . S
C406 C404 1.378 . S
C406 C407 1.367 1_556 S
C407 C406 1.367 1_554 S
C407 C409 1.433 . S
C408 C404 1.350 . S
C408 C405 1.463 . S
C408 N412 1.427 . S
C409 H399 0.929 . S
C409 C407 1.433 . S
C409 N412 1.384 1_554 S
C410 H401 0.929 . S
C410 C402 1.378 . S
C410 C405 1.350 . S
C411 H398 0.929 . S
C411 C403 1.433 . S
C411 N413 1.384 . S
N412 C408 1.427 . S
N412 C409 1.384 1_556 S
N413 C405 1.427 . S
N413 C411 1.384 . S
H414 C420 0.930 . S
H415 C424 0.930 . S
H416 C429 0.929 . S
H417 C427 0.929 1_556 S
H418 C422 0.929 . S
H419 C428 0.929 . S
C420 H414 0.930 . S
C420 C421 1.367 . S
C420 C428 1.378 . S
C421 C420 1.367 . S
C421 C429 1.433 . S
C422 H418 0.929 . S
C422 C424 1.378 . S
C422 C426 1.350 . S
C423 C426 1.463 . S
C423 C428 1.350 . S
C423 N431 1.427 . S
C424 H415 0.930 . S
C424 C422 1.378 . S
C424 C425 1.367 1_554 S
C425 C424 1.367 1_556 S
C425 C427 1.433 1_556 S
C426 C422 1.350 . S
C426 C423 1.463 . S
C426 N430 1.427 . S
C427 H417 0.929 1_554 S
C427 C425 1.433 1_554 S
C427 N430 1.384 . S
C428 H419 0.929 . S
C428 C420 1.378 . S
C428 C423 1.350 . S
C429 H416 0.929 . S
C429 C421 1.433 . S
C429 N431 1.384 . S
N430 C426 1.427 . S
N430 C427 1.384 . S
N431 C423 1.427 . S
N431 C429 1.384 . S
H432 C438 0.930 . S
H433 C442 0.930 1_556 S
H434 C447 0.929 . S
H435 C445 0.929 . S
H436 C440 0.929 . S
H437 C446 0.929 . S
C438 H432 0.930 . S
C438 C439 1.367 . S
C438 C446 1.378 . S
C439 C438 1.367 . S
C439 C447 1.433 . S
C440 H436 0.929 . S
C440 C442 1.378 . S
C440 C444 1.350 . S
C441 C444 1.463 . S
C441 C446 1.350 . S
C441 N449 1.427 . S
C442 H433 0.930 1_554 S
C442 C440 1.378 . S
C442 C443 1.367 1_554 S
C443 C442 1.367 1_556 S
C443 C445 1.433 1_556 S
C444 C440 1.350 . S
C444 C441 1.463 . S
C444 N448 1.427 . S
C445 H435 0.929 . S
C445 C443 1.433 1_554 S
C445 N448 1.384 . S
C446 H437 0.929 . S
C446 C438 1.378 . S
C446 C441 1.350 . S
C447 H434 0.929 . S
C447 C439 1.433 . S
C447 N449 1.384 . S
N448 C444 1.427 . S
N448 C445 1.384 . S
N449 C441 1.427 . S
N449 C447 1.384 . S
H450 C456 0.930 . S
H451 C460 0.930 . S
H452 C465 0.929 . S
H453 C463 0.929 1_556 S
H454 C458 0.929 . S
H455 C464 0.929 . S
C456 H450 0.930 . S
C456 C457 1.367 . S
C456 C464 1.378 . S
C457 C456 1.367 . S
C457 C465 1.433 . S
C458 H454 0.929 . S
C458 C460 1.378 . S
C458 C462 1.350 . S
C459 C462 1.463 . S
C459 C464 1.350 . S
C459 N467 1.427 . S
C460 H451 0.930 . S
C460 C458 1.378 . S
C460 C461 1.367 1_554 S
C461 C460 1.367 1_556 S
C461 C463 1.433 1_556 S
C462 C458 1.350 . S
C462 C459 1.463 . S
C462 N466 1.427 . S
C463 H453 0.929 1_554 S
C463 C461 1.433 1_554 S
C463 N466 1.384 . S
C464 H455 0.929 . S
C464 C456 1.378 . S
C464 C459 1.350 . S
C465 H452 0.929 . S
C465 C457 1.433 . S
C465 N467 1.384 . S
N466 C462 1.427 . S
N466 C463 1.384 . S
N467 C459 1.427 . S
N467 C465 1.384 . S
H468 C474 0.930 . S
H469 C478 0.930 . S
H470 C483 0.929 . S
H471 C481 0.929 . S
H472 C476 0.929 . S
H473 C482 0.929 . S
C474 H468 0.930 . S
C474 C475 1.367 . S
C474 C482 1.378 . S
C475 C474 1.367 . S
C475 C483 1.433 . S
C476 H472 0.929 . S
C476 C478 1.378 . S
C476 C480 1.350 . S
C477 C480 1.463 . S
C477 C482 1.350 . S
C477 N485 1.427 . S
C478 H469 0.930 . S
C478 C476 1.378 . S
C478 C479 1.367 . S
C479 C478 1.367 . S
C479 C481 1.433 . S
C480 C476 1.350 . S
C480 C477 1.463 . S
C480 N484 1.427 . S
C481 H471 0.929 . S
C481 C479 1.433 . S
C481 N484 1.384 . S
C482 H473 0.929 . S
C482 C474 1.378 . S
C482 C477 1.350 . S
C483 H470 0.929 . S
C483 C475 1.433 . S
C483 N485 1.384 . S
N484 C480 1.427 . S
N484 C481 1.384 . S
N485 C477 1.427 . S
N485 C483 1.384 . S
H486 C492 0.930 . S
H487 C496 0.930 . S
H488 C501 0.929 . S
H489 C499 0.929 . S
H490 C494 0.929 . S
H491 C500 0.929 . S
C492 H486 0.930 . S
C492 C493 1.367 . S
C492 C500 1.378 . S
C493 C492 1.367 . S
C493 C501 1.433 . S
C494 H490 0.929 . S
C494 C496 1.378 . S
C494 C498 1.350 . S
C495 C498 1.463 . S
C495 C500 1.350 . S
C495 N503 1.427 . S
C496 H487 0.930 . S
C496 C494 1.378 . S
C496 C497 1.367 . S
C497 C496 1.367 . S
C497 C499 1.433 . S
C498 C494 1.350 . S
C498 C495 1.463 . S
C498 N502 1.427 . S
C499 H489 0.929 . S
C499 C497 1.433 . S
C499 N502 1.384 . S
C500 H491 0.929 . S
C500 C492 1.378 . S
C500 C495 1.350 . S
C501 H488 0.929 . S
C501 C493 1.433 . S
C501 N503 1.384 . S
N502 C498 1.427 . S
N502 C499 1.384 . S
N503 C495 1.427 . S
N503 C501 1.384 . S
H504 C510 0.930 . S
H505 C514 0.930 . S
H506 C519 0.929 1_556 S
H507 C517 0.929 . S
H508 C512 0.929 . S
H509 C518 0.929 . S
C510 H504 0.930 . S
C510 C511 1.367 . S
C510 C518 1.378 . S
C511 C510 1.367 . S
C511 C519 1.433 . S
C512 H508 0.929 . S
C512 C514 1.378 . S
C512 C516 1.350 . S
C513 C516 1.463 . S
C513 C518 1.350 . S
C513 N521 1.427 . S
C514 H505 0.930 . S
C514 C512 1.378 . S
C514 C515 1.367 . S
C515 C514 1.367 . S
C515 C517 1.433 . S
C516 C512 1.350 . S
C516 C513 1.463 . S
C516 N520 1.427 . S
C517 H507 0.929 . S
C517 C515 1.433 . S
C517 N520 1.384 . S
C518 H509 0.929 . S
C518 C510 1.378 . S
C518 C513 1.350 . S
C519 H506 0.929 1_554 S
C519 C511 1.433 . S
C519 N521 1.384 . S
N520 C516 1.427 . S
N520 C517 1.384 . S
N521 C513 1.427 . S
N521 C519 1.384 . S
H522 C528 0.930 1_554 S
H523 C532 0.930 . S
H524 C537 0.929 . S
H525 C535 0.929 . S
H526 C530 0.929 . S
H527 C536 0.929 . S
C528 H522 0.930 1_556 S
C528 C529 1.367 . S
C528 C536 1.378 . S
C529 C528 1.367 . S
C529 C537 1.433 . S
C530 H526 0.929 . S
C530 C532 1.378 . S
C530 C534 1.350 . S
C531 C534 1.463 . S
C531 C536 1.350 . S
C531 N539 1.427 . S
C532 H523 0.930 . S
C532 C530 1.378 . S
C532 C533 1.367 . S
C533 C532 1.367 . S
C533 C535 1.433 . S
C534 C530 1.350 . S
C534 C531 1.463 . S
C534 N538 1.427 . S
C535 H525 0.929 . S
C535 C533 1.433 . S
C535 N538 1.384 . S
C536 H527 0.929 . S
C536 C528 1.378 . S
C536 C531 1.350 . S
C537 H524 0.929 . S
C537 C529 1.433 . S
C537 N539 1.384 . S
N538 C534 1.427 . S
N538 C535 1.384 . S
N539 C531 1.427 . S
N539 C537 1.384 . S
H540 C546 0.930 . S
H541 C550 0.930 . S
H542 C555 0.929 . S
H543 C553 0.929 1_455 S
H544 C548 0.929 1_554 S
H545 C554 0.929 . S
C546 H540 0.930 . S
C546 C547 1.367 . S
C546 C554 1.378 . S
C547 C546 1.367 . S
C547 C555 1.433 . S
C548 H544 0.929 1_556 S
C548 C550 1.378 1_556 S
C548 C552 1.350 . S
C549 C552 1.463 . S
C549 C554 1.350 . S
C549 N557 1.427 . S
C550 H541 0.930 . S
C550 C548 1.378 1_554 S
C550 C551 1.367 . S
C551 C550 1.367 . S
C551 C553 1.433 1_554 S
C552 C548 1.350 . S
C552 C549 1.463 . S
C552 N556 1.427 . S
C553 H543 0.929 1_655 S
C553 C551 1.433 1_556 S
C553 N556 1.384 . S
C554 H545 0.929 . S
C554 C546 1.378 . S
C554 C549 1.350 . S
C555 H542 0.929 . S
C555 C547 1.433 . S
C555 N557 1.384 . S
N556 C552 1.427 . S
N556 C553 1.384 . S
N557 C549 1.427 . S
N557 C555 1.384 . S
H558 C564 0.930 . S
H559 C568 0.930 . S
H560 C573 0.929 . S
H561 C571 0.929 1_554 S
H562 C566 0.929 . S
H563 C572 0.929 . S
C564 H558 0.930 . S
C564 C565 1.367 . S
C564 C572 1.378 . S
C565 C564 1.367 . S
C565 C573 1.433 . S
C566 H562 0.929 . S
C566 C568 1.378 . S
C566 C570 1.350 . S
C567 C570 1.463 . S
C567 C572 1.350 . S
C567 N575 1.427 . S
C568 H559 0.930 . S
C568 C566 1.378 . S
C568 C569 1.367 . S
C569 C568 1.367 . S
C569 C571 1.433 . S
C570 C566 1.350 . S
C570 C567 1.463 . S
C570 N574 1.427 . S
C571 H561 0.929 1_556 S
C571 C569 1.433 . S
C571 N574 1.384 . S
C572 H563 0.929 . S
C572 C564 1.378 . S
C572 C567 1.350 . S
C573 H560 0.929 . S
C573 C565 1.433 . S
C573 N575 1.384 . S
N574 C570 1.427 . S
N574 C571 1.384 . S
N575 C567 1.427 . S
N575 C573 1.384 . S
H576 C582 0.930 . S
H577 C586 0.930 . S
H578 C591 0.929 . S
H579 C589 0.929 1_455 S
H580 C584 0.929 . S
H581 C590 0.929 . S
C582 H576 0.930 . S
C582 C583 1.367 . S
C582 C590 1.378 . S
C583 C582 1.367 . S
C583 C591 1.433 . S
C584 H580 0.929 . S
C584 C586 1.378 . S
C584 C588 1.350 . S
C585 C588 1.463 . S
C585 C590 1.350 . S
C585 N593 1.427 . S
C586 H577 0.930 . S
C586 C584 1.378 . S
C586 C587 1.363 1_556 S
C587 C586 1.363 1_554 S
C587 C589 1.434 . S
C588 C584 1.350 . S
C588 C585 1.463 . S
C588 N592 1.427 . S
C589 H579 0.929 1_655 S
C589 C587 1.434 . S
C589 N592 1.384 1_554 S
C590 H581 0.929 . S
C590 C582 1.378 . S
C590 C585 1.350 . S
C591 H578 0.929 . S
C591 C583 1.433 . S
C591 N593 1.384 . S
N592 C588 1.427 . S
N592 C589 1.384 1_556 S
N593 C585 1.427 . S
N593 C591 1.384 . S
H594 C600 0.930 . S
H595 C604 0.930 . S
H596 C609 0.929 . S
H597 C607 0.929 . S
H598 C602 0.929 . S
H599 C608 0.929 . S
C600 H594 0.930 . S
C600 C601 1.367 . S
C600 C608 1.378 . S
C601 C600 1.367 . S
C601 C609 1.433 1_556 S
C602 H598 0.929 . S
C602 C604 1.378 . S
C602 C606 1.350 . S
C603 C606 1.463 . S
C603 C608 1.350 . S
C603 N611 1.427 . S
C604 H595 0.930 . S
C604 C602 1.378 . S
C604 C605 1.367 . S
C605 C604 1.367 . S
C605 C607 1.433 . S
C606 C602 1.350 . S
C606 C603 1.463 . S
C606 N610 1.427 . S
C607 H597 0.929 . S
C607 C605 1.433 . S
C607 N610 1.384 . S
C608 H599 0.929 . S
C608 C600 1.378 . S
C608 C603 1.350 . S
C609 H596 0.929 . S
C609 C601 1.433 1_554 S
C609 N611 1.384 1_554 S
N610 C606 1.427 . S
N610 C607 1.384 . S
N611 C603 1.427 . S
N611 C609 1.384 1_556 S
H612 C618 0.930 . S
H613 C622 0.930 . S
H614 C627 0.929 . S
H615 C625 0.929 . S
H616 C620 0.929 . S
H617 C626 0.929 . S
C618 H612 0.930 . S
C618 C619 1.367 . S
C618 C626 1.378 . S
C619 C618 1.367 . S
C619 C627 1.433 . S
C620 H616 0.929 . S
C620 C622 1.378 . S
C620 C624 1.350 . S
C621 C624 1.463 . S
C621 C626 1.350 . S
C621 N629 1.427 . S
C622 H613 0.930 . S
C622 C620 1.378 . S
C622 C623 1.367 . S
C623 C622 1.367 . S
C623 C625 1.433 . S
C624 C620 1.350 . S
C624 C621 1.463 . S
C624 N628 1.427 . S
C625 H615 0.929 . S
C625 C623 1.433 . S
C625 N628 1.384 . S
C626 H617 0.929 . S
C626 C618 1.378 . S
C626 C621 1.350 . S
C627 H614 0.929 . S
C627 C619 1.433 . S
C627 N629 1.384 . S
N628 C624 1.427 . S
N628 C625 1.384 . S
N629 C621 1.427 . S
N629 C627 1.384 . S
H630 C636 0.930 . S
H631 C640 0.930 . S
H632 C645 0.929 1_556 S
H633 C643 0.929 . S
H634 C638 0.929 . S
H635 C644 0.929 . S
C636 H630 0.930 . S
C636 C637 1.367 . S
C636 C644 1.378 . S
C637 C636 1.367 . S
C637 C645 1.433 . S
C638 H634 0.929 . S
C638 C640 1.378 . S
C638 C642 1.350 . S
C639 C642 1.463 . S
C639 C644 1.350 . S
C639 N647 1.427 . S
C640 H631 0.930 . S
C640 C638 1.378 . S
C640 C641 1.367 . S
C641 C640 1.367 . S
C641 C643 1.433 . S
C642 C638 1.350 . S
C642 C639 1.463 . S
C642 N646 1.427 . S
C643 H633 0.929 . S
C643 C641 1.433 . S
C643 N646 1.384 . S
C644 H635 0.929 . S
C644 C636 1.378 . S
C644 C639 1.350 . S
C645 H632 0.929 1_554 S
C645 C637 1.433 . S
C645 N647 1.384 . S
N646 C642 1.427 . S
N646 C643 1.384 . S
N647 C639 1.427 . S
N647 C645 1.384 . S
H648 C654 0.930 . S
H649 C658 0.930 . S
H650 C663 0.929 . S
H651 C661 0.929 . S
H652 C656 0.929 . S
H653 C662 0.929 . S
C654 H648 0.930 . S
C654 C655 1.367 . S
C654 C662 1.378 . S
C655 C654 1.367 . S
C655 C663 1.433 . S
C656 H652 0.929 . S
C656 C658 1.378 . S
C656 C660 1.350 . S
C657 C660 1.463 . S
C657 C662 1.350 . S
C657 N665 1.427 . S
C658 H649 0.930 . S
C658 C656 1.378 . S
C658 C659 1.367 . S
C659 C658 1.367 . S
C659 C661 1.433 . S
C660 C656 1.350 . S
C660 C657 1.463 . S
C660 N664 1.427 . S
C661 H651 0.929 . S
C661 C659 1.433 . S
C661 N664 1.384 . S
C662 H653 0.929 . S
C662 C654 1.378 . S
C662 C657 1.350 . S
C663 H650 0.929 . S
C663 C655 1.433 . S
C663 N665 1.384 . S
N664 C660 1.427 . S
N664 C661 1.384 . S
N665 C657 1.427 . S
N665 C663 1.384 . S
H666 C672 0.930 . S
H667 C676 0.930 . S
H668 C681 0.929 . S
H669 C679 0.929 . S
H670 C674 0.929 . S
H671 C680 0.929 . S
C672 H666 0.930 . S
C672 C673 1.367 . S
C672 C680 1.378 . S
C673 C672 1.367 . S
C673 C681 1.433 . S
C674 H670 0.929 . S
C674 C676 1.378 . S
C674 C678 1.350 . S
C675 C678 1.463 . S
C675 C680 1.350 . S
C675 N683 1.427 . S
C676 H667 0.930 . S
C676 C674 1.378 . S
C676 C677 1.367 . S
C677 C676 1.367 . S
C677 C679 1.433 . S
C678 C674 1.350 . S
C678 C675 1.463 . S
C678 N682 1.427 . S
C679 H669 0.929 . S
C679 C677 1.433 . S
C679 N682 1.384 . S
C680 H671 0.929 . S
C680 C672 1.378 . S
C680 C675 1.350 . S
C681 H668 0.929 . S
C681 C673 1.433 . S
C681 N683 1.384 . S
N682 C678 1.427 . S
N682 C679 1.384 . S
N683 C675 1.427 . S
N683 C681 1.384 . S
H684 C690 0.930 . S
H685 C694 0.930 . S
H686 C699 0.929 . S
H687 C697 0.929 . S
H688 C692 0.929 . S
H689 C698 0.929 . S
C690 H684 0.930 . S
C690 C691 1.367 . S
C690 C698 1.378 . S
C691 C690 1.367 . S
C691 C699 1.433 . S
C692 H688 0.929 . S
C692 C694 1.378 . S
C692 C696 1.350 . S
C693 C696 1.463 . S
C693 C698 1.350 . S
C693 N701 1.427 . S
C694 H685 0.930 . S
C694 C692 1.378 . S
C694 C695 1.367 . S
C695 C694 1.367 . S
C695 C697 1.433 . S
C696 C692 1.350 . S
C696 C693 1.463 . S
C696 N700 1.427 . S
C697 H687 0.929 . S
C697 C695 1.433 . S
C697 N700 1.384 . S
C698 H689 0.929 . S
C698 C690 1.378 . S
C698 C693 1.350 . S
C699 H686 0.929 . S
C699 C691 1.433 . S
C699 N701 1.384 . S
N700 C696 1.427 . S
N700 C697 1.384 . S
N701 C693 1.427 . S
N701 C699 1.384 . S
H702 C708 0.930 . S
H703 C712 0.930 . S
H704 C717 0.929 1_545 S
H705 C715 0.929 . S
H706 C710 0.929 . S
H707 C716 0.929 . S
C708 H702 0.930 . S
C708 C709 1.367 . S
C708 C716 1.378 1_545 S
C709 C708 1.367 . S
C709 C717 1.433 1_545 S
C710 H706 0.929 . S
C710 C712 1.378 . S
C710 C714 1.350 . S
C711 C714 1.463 . S
C711 C716 1.350 . S
C711 N719 1.427 . S
C712 H703 0.930 . S
C712 C710 1.378 . S
C712 C713 1.367 . S
C713 C712 1.367 . S
C713 C715 1.433 . S
C714 C710 1.350 . S
C714 C711 1.463 . S
C714 N718 1.427 . S
C715 H705 0.929 . S
C715 C713 1.433 . S
C715 N718 1.384 . S
C716 H707 0.929 . S
C716 C708 1.378 1_565 S
C716 C711 1.350 . S
C717 H704 0.929 1_565 S
C717 C709 1.433 1_565 S
C717 N719 1.384 . S
N718 C714 1.427 . S
N718 C715 1.384 . S
N719 C711 1.427 . S
N719 C717 1.384 . S
H720 C726 0.930 . S
H721 C730 0.930 . S
H722 C735 0.929 . S
H723 C733 0.929 . S
H724 C728 0.929 . S
H725 C734 0.929 . S
C726 H720 0.930 . S
C726 C727 1.367 . S
C726 C734 1.378 . S
C727 C726 1.367 . S
C727 C735 1.433 . S
C728 H724 0.929 . S
C728 C730 1.378 . S
C728 C732 1.350 . S
C729 C732 1.463 1_655 S
C729 C734 1.350 . S
C729 N737 1.427 . S
C730 H721 0.930 . S
C730 C728 1.378 . S
C730 C731 1.367 . S
C731 C730 1.367 . S
C731 C733 1.433 . S
C732 C728 1.350 . S
C732 C729 1.463 1_455 S
C732 N736 1.427 . S
C733 H723 0.929 . S
C733 C731 1.433 . S
C733 N736 1.384 . S
C734 H725 0.929 . S
C734 C726 1.378 . S
C734 C729 1.350 . S
C735 H722 0.929 . S
C735 C727 1.433 . S
C735 N737 1.384 . S
N736 C732 1.427 . S
N736 C733 1.384 . S
N737 C729 1.427 . S
N737 C735 1.384 . S
H738 C744 0.930 . S
H739 C748 0.930 . S
H740 C753 0.929 . S
H741 C751 0.929 . S
H742 C746 0.929 . S
H743 C752 0.929 . S
C744 H738 0.930 . S
C744 C745 1.367 . S
C744 C752 1.378 . S
C745 C744 1.367 . S
C745 C753 1.433 . S
C746 H742 0.929 . S
C746 C748 1.378 . S
C746 C750 1.350 . S
C747 C750 1.463 . S
C747 C752 1.350 . S
C747 N755 1.427 . S
C748 H739 0.930 . S
C748 C746 1.378 . S
C748 C749 1.367 . S
C749 C748 1.367 . S
C749 C751 1.433 . S
C750 C746 1.350 . S
C750 C747 1.463 . S
C750 N754 1.427 . S
C751 H741 0.929 . S
C751 C749 1.433 . S
C751 N754 1.384 . S
C752 H743 0.929 . S
C752 C744 1.378 . S
C752 C747 1.350 . S
C753 H740 0.929 . S
C753 C745 1.433 . S
C753 N755 1.384 . S
N754 C750 1.427 . S
N754 C751 1.384 . S
N755 C747 1.427 . S
N755 C753 1.384 . S
H756 C762 0.930 . S
H757 C766 0.930 . S
H758 C771 0.929 . S
H759 C769 0.929 . S
H760 C764 0.929 . S
H761 C770 0.929 . S
C762 H756 0.930 . S
C762 C763 1.367 . S
C762 C770 1.378 . S
C763 C762 1.367 . S
C763 C771 1.433 . S
C764 H760 0.929 . S
C764 C766 1.378 1_565 S
C764 C768 1.350 . S
C765 C768 1.463 . S
C765 C770 1.350 . S
C765 N773 1.427 . S
C766 H757 0.930 . S
C766 C764 1.378 1_545 S
C766 C767 1.367 . S
C767 C766 1.367 . S
C767 C769 1.433 1_545 S
C768 C764 1.350 . S
C768 C765 1.463 . S
C768 N772 1.427 . S
C769 H759 0.929 . S
C769 C767 1.433 1_565 S
C769 N772 1.384 . S
C770 H761 0.929 . S
C770 C762 1.378 . S
C770 C765 1.350 . S
C771 H758 0.929 . S
C771 C763 1.433 . S
C771 N773 1.384 . S
N772 C768 1.427 . S
N772 C769 1.384 . S
N773 C765 1.427 . S
N773 C771 1.384 . S
H774 C780 0.930 . S
H775 C784 0.930 . S
H776 C789 0.929 . S
H777 C787 0.929 . S
H778 C782 0.929 . S
H779 C788 0.929 . S
C780 H774 0.930 . S
C780 C781 1.367 . S
C780 C788 1.378 . S
C781 C780 1.367 . S
C781 C789 1.433 . S
C782 H778 0.929 . S
C782 C784 1.378 . S
C782 C786 1.350 . S
C783 C786 1.463 1_655 S
C783 C788 1.350 . S
C783 N791 1.427 . S
C784 H775 0.930 . S
C784 C782 1.378 . S
C784 C785 1.367 . S
C785 C784 1.367 . S
C785 C787 1.433 . S
C786 C782 1.350 . S
C786 C783 1.463 1_455 S
C786 N790 1.427 . S
C787 H777 0.929 . S
C787 C785 1.433 . S
C787 N790 1.384 . S
C788 H779 0.929 . S
C788 C780 1.378 . S
C788 C783 1.350 . S
C789 H776 0.929 . S
C789 C781 1.433 . S
C789 N791 1.384 . S
N790 C786 1.427 . S
N790 C787 1.384 . S
N791 C783 1.427 . S
N791 C789 1.384 . S
C313 C4 0.655 . S
C317 C13 0.655 . S
C331 C47 0.573 . S
C335 C38 0.573 . S
C349 C72 0.577 . S
C353 C81 0.577 . S
C367 C115 0.624 . S
C371 C106 0.624 . S
C385 C140 0.591 . S
C389 C149 0.597 . S
C403 C183 0.592 . S
C407 C174 0.592 . S
C421 C233 3.297 . S
C425 C204 3.297 . S
C439 C238 3.301 . S
C443 C267 3.301 . S
C457 C301 3.312 . S
C461 C272 3.312 . S
C475 C187 1.669 . S
C479 C29 1.648 . S
C493 C51 1.674 . S
C497 C119 1.655 . S
C511 C97 1.689 . S
C515 C165 1.674 . S
C529 C85 1.648 . S
C533 C212 1.652 . S
C547 C251 1.100 . S
C551 C17 1.106 1_655 S
C565 C280 1.404 . S
C569 C63 1.396 . S
C583 C276 1.031 . S
C587 C0 1.043 1_655 S
C601 C42 1.188 1_556 S
C605 C208 1.189 . S
C619 C255 1.584 . S
C623 C68 1.581 . S
C637 C76 1.664 . S
C641 C102 1.641 . S
C655 C144 1.672 . S
C659 C8 1.654 . S
C673 C34 1.680 . S
C677 C170 1.692 . S
C691 C285 1.045 . S
C695 C131 1.044 . S
C709 C217 1.189 . S
C713 C153 1.200 . S
C727 C246 1.586 . S
C731 C199 1.574 . S
C745 C221 1.651 . S
C749 C178 1.647 . S
C763 C110 1.095 . S
C767 C242 1.090 . S
C781 C289 1.404 . S
C785 C136 1.396 . S
