# Generated by pormake.
# Topology neb, (4)-cn, num edge types: 1
# Building blocks:
#     Node 0, Type 0, BuildingBlock: QUQFOY_clean_sbu_1, # of connection points: 4
#     Node 1, Type 0, BuildingBlock: QUQFOY_clean_sbu_1, # of connection points: 4
#     Node 2, Type 0, BuildingBlock: QUQFOY_clean_sbu_1, # of connection points: 4
#     Node 3, Type 0, BuildingBlock: QUQFOY_clean_sbu_1, # of connection points: 4
#     Node 4, Type 0, BuildingBlock: QUQFOY_clean_sbu_1, # of connection points: 4
#     Node 5, Type 0, BuildingBlock: QUQFOY_clean_sbu_1, # of connection points: 4
#     Node 6, Type 0, BuildingBlock: QUQFOY_clean_sbu_1, # of connection points: 4
#     Node 7, Type 0, BuildingBlock: QUQFOY_clean_sbu_1, # of connection points: 4
#     Node 8, Type 0, BuildingBlock: QUQFOY_clean_sbu_1, # of connection points: 4
#     Node 9, Type 0, BuildingBlock: QUQFOY_clean_sbu_1, # of connection points: 4
#     Node 10, Type 0, BuildingBlock: QUQFOY_clean_sbu_1, # of connection points: 4
#     Node 11, Type 0, BuildingBlock: QUQFOY_clean_sbu_1, # of connection points: 4
#     Node 12, Type 0, BuildingBlock: QUQFOY_clean_sbu_1, # of connection points: 4
#     Node 13, Type 0, BuildingBlock: QUQFOY_clean_sbu_1, # of connection points: 4
#     Node 14, Type 0, BuildingBlock: QUQFOY_clean_sbu_1, # of connection points: 4
#     Node 15, Type 0, BuildingBlock: QUQFOY_clean_sbu_1, # of connection points: 4
#     Edge 16, Type (0, 0), BuildingBlock: XUDNAN_clean_linker_2, # of connection points: 2
#     Edge 17, Type (0, 0), BuildingBlock: XUDNAN_clean_linker_2, # of connection points: 2
#     Edge 18, Type (0, 0), BuildingBlock: XUDNAN_clean_linker_2, # of connection points: 2
#     Edge 19, Type (0, 0), BuildingBlock: XUDNAN_clean_linker_2, # of connection points: 2
#     Edge 20, Type (0, 0), BuildingBlock: XUDNAN_clean_linker_2, # of connection points: 2
#     Edge 21, Type (0, 0), BuildingBlock: XUDNAN_clean_linker_2, # of connection points: 2
#     Edge 22, Type (0, 0), BuildingBlock: XUDNAN_clean_linker_2, # of connection points: 2
#     Edge 23, Type (0, 0), BuildingBlock: XUDNAN_clean_linker_2, # of connection points: 2
#     Edge 24, Type (0, 0), BuildingBlock: XUDNAN_clean_linker_2, # of connection points: 2
#     Edge 25, Type (0, 0), BuildingBlock: XUDNAN_clean_linker_2, # of connection points: 2
#     Edge 26, Type (0, 0), BuildingBlock: XUDNAN_clean_linker_2, # of connection points: 2
#     Edge 27, Type (0, 0), BuildingBlock: XUDNAN_clean_linker_2, # of connection points: 2
#     Edge 28, Type (0, 0), BuildingBlock: XUDNAN_clean_linker_2, # of connection points: 2
#     Edge 29, Type (0, 0), BuildingBlock: XUDNAN_clean_linker_2, # of connection points: 2
#     Edge 30, Type (0, 0), BuildingBlock: XUDNAN_clean_linker_2, # of connection points: 2
#     Edge 31, Type (0, 0), BuildingBlock: XUDNAN_clean_linker_2, # of connection points: 2
#     Edge 32, Type (0, 0), BuildingBlock: XUDNAN_clean_linker_2, # of connection points: 2
#     Edge 33, Type (0, 0), BuildingBlock: XUDNAN_clean_linker_2, # of connection points: 2
#     Edge 34, Type (0, 0), BuildingBlock: XUDNAN_clean_linker_2, # of connection points: 2
#     Edge 35, Type (0, 0), BuildingBlock: XUDNAN_clean_linker_2, # of connection points: 2
#     Edge 36, Type (0, 0), BuildingBlock: XUDNAN_clean_linker_2, # of connection points: 2
#     Edge 37, Type (0, 0), BuildingBlock: XUDNAN_clean_linker_2, # of connection points: 2
#     Edge 38, Type (0, 0), BuildingBlock: XUDNAN_clean_linker_2, # of connection points: 2
#     Edge 39, Type (0, 0), BuildingBlock: XUDNAN_clean_linker_2, # of connection points: 2
#     Edge 40, Type (0, 0), BuildingBlock: XUDNAN_clean_linker_2, # of connection points: 2
#     Edge 41, Type (0, 0), BuildingBlock: XUDNAN_clean_linker_2, # of connection points: 2
#     Edge 42, Type (0, 0), BuildingBlock: XUDNAN_clean_linker_2, # of connection points: 2
#     Edge 43, Type (0, 0), BuildingBlock: XUDNAN_clean_linker_2, # of connection points: 2
#     Edge 44, Type (0, 0), BuildingBlock: XUDNAN_clean_linker_2, # of connection points: 2
#     Edge 45, Type (0, 0), BuildingBlock: XUDNAN_clean_linker_2, # of connection points: 2
#     Edge 46, Type (0, 0), BuildingBlock: XUDNAN_clean_linker_2, # of connection points: 2
#     Edge 47, Type (0, 0), BuildingBlock: XUDNAN_clean_linker_2, # of connection points: 2
# Relax obj value: 0.019
# Max RMSD: 0.098
# Mean RMSD: 0.098
data_MOF--net-neb--node1-QUQFOY_clean_sbu_1--edge1-XUDNAN_clean_linker_2
_symmetry_space_group_name_H-M    P1
_symmetry_Int_Tables_number       1
_symmetry_cell_setting            triclinic
loop_
_symmetry_equiv_pos_as_xyz
'x, y, z'
_cell_length_a     49.33318
_cell_length_b     22.129416
_cell_length_c     77.589734
_cell_angle_alpha  90.07055
_cell_angle_beta   90.141239
_cell_angle_gamma 90.055768
loop_
_atom_site_label
_atom_site_type_symbol
_atom_site_fract_x
_atom_site_fract_y
_atom_site_fract_z
_atom_type_partial_charge
O0 O 0.13927 0.02996 0.44389 0.0
Cd1 Cd 0.12236 0.10759 0.45371 0.0
Cd2 Cd 0.18135 0.13625 0.44919 0.0
O3 O 0.18302 0.04829 0.44029 0.0
O4 O 0.08353 0.08191 0.45351 0.0
O5 O 0.10511 0.10399 0.47754 0.0
C6 C 0.08324 0.08567 0.47002 0.0
C7 C 0.21622 0.176 0.46649 0.0
C8 C 0.16271 0.01313 0.43914 0.0
C9 C 0.13889 0.20962 0.4298 0.0
O10 O 0.1636 0.19722 0.43278 0.0
O11 O 0.11995 0.18143 0.43745 0.0
O12 O 0.21971 0.16484 0.45035 0.0
O13 O 0.19298 0.16251 0.47311 0.0
O14 O 0.15852 0.02933 0.83784 0.0
Cd15 Cd 0.17469 0.10419 0.8258 0.0
Cd16 Cd 0.11711 0.12437 0.82332 0.0
O17 O 0.11523 0.03531 0.83073 0.0
O18 O 0.21405 0.08305 0.82502 0.0
O19 O 0.18946 0.09552 0.80154 0.0
C20 C 0.21243 0.08165 0.80848 0.0
C21 C 0.08091 0.16254 0.80664 0.0
C22 C 0.13468 0.00741 0.83795 0.0
C23 C 0.15253 0.20087 0.84762 0.0
O24 O 0.12952 0.18113 0.84282 0.0
O25 O 0.17418 0.18198 0.84062 0.0
O26 O 0.07784 0.14624 0.8224 0.0
O27 O 0.10465 0.15605 0.79996 0.0
O28 O 0.90439 0.9637 0.58896 0.0
Cd29 Cd 0.92034 0.89632 0.57377 0.0
Cd30 Cd 0.8678 0.86158 0.57363 0.0
O31 O 0.8609 0.94214 0.58631 0.0
O32 O 0.9563 0.92743 0.56597 0.0
O33 O 0.92251 0.90686 0.5481 0.0
C34 C 0.94694 0.92649 0.55044 0.0
C35 C 0.84216 0.83254 0.54966 0.0
C36 C 0.87973 0.97538 0.59232 0.0
C37 C 0.90836 0.78172 0.59196 0.0
O38 O 0.88367 0.7935 0.58864 0.0
O39 O 0.92713 0.81523 0.58609 0.0
O40 O 0.83217 0.8308 0.565 0.0
O41 O 0.86663 0.85247 0.54788 0.0
O42 O 0.88374 0.96404 0.18822 0.0
Cd43 Cd 0.86565 0.8981 0.20298 0.0
Cd44 Cd 0.92045 0.86218 0.20358 0.0
O45 O 0.9272 0.9419 0.19059 0.0
O46 O 0.8276 0.92861 0.20355 0.0
O47 O 0.85203 0.91703 0.22711 0.0
C48 C 0.82955 0.93363 0.22001 0.0
C49 C 0.94726 0.83521 0.22721 0.0
C50 C 0.9084 0.9753 0.18472 0.0
C51 C 0.87983 0.78125 0.18555 0.0
O52 O 0.9045 0.79312 0.18893 0.0
O53 O 0.86099 0.81524 0.19108 0.0
O54 O 0.95652 0.83261 0.2117 0.0
O55 O 0.92275 0.85448 0.22934 0.0
O56 O 0.13323 0.51924 0.94227 0.0
Cd57 Cd 0.11658 0.59741 0.952 0.0
Cd58 Cd 0.17288 0.62559 0.94938 0.0
O59 O 0.17685 0.53976 0.93936 0.0
O60 O 0.07762 0.57297 0.9523 0.0
O61 O 0.10009 0.59518 0.97602 0.0
C62 C 0.07788 0.5773 0.96881 0.0
C63 C 0.19715 0.65763 0.9735 0.0
C64 C 0.15696 0.50373 0.93774 0.0
C65 C 0.13396 0.70126 0.92889 0.0
O66 O 0.15849 0.68981 0.9327 0.0
O67 O 0.11472 0.67143 0.93571 0.0
O68 O 0.20845 0.65441 0.95853 0.0
O69 O 0.17206 0.64121 0.9748 0.0
O70 O 0.16039 0.53704 0.33863 0.0
Cd71 Cd 0.17675 0.61273 0.32712 0.0
Cd72 Cd 0.1187 0.63343 0.32482 0.0
O73 O 0.11686 0.54446 0.33227 0.0
O74 O 0.21605 0.59094 0.32675 0.0
O75 O 0.19245 0.60611 0.30301 0.0
C76 C 0.21511 0.59115 0.31018 0.0
C77 C 0.08214 0.67075 0.30828 0.0
C78 C 0.13646 0.51566 0.33901 0.0
C79 C 0.15444 0.70939 0.34916 0.0
O80 O 0.13136 0.69057 0.34418 0.0
O81 O 0.17609 0.6896 0.34234 0.0
O82 O 0.07938 0.65504 0.32411 0.0
O83 O 0.1058 0.66438 0.30147 0.0
O84 O 0.90228 0.46305 0.09065 0.0
Cd85 Cd 0.91764 0.39547 0.07528 0.0
Cd86 Cd 0.86497 0.36094 0.07559 0.0
O87 O 0.85876 0.44104 0.08862 0.0
O88 O 0.9534 0.42598 0.06694 0.0
O89 O 0.91892 0.40563 0.04958 0.0
C90 C 0.94349 0.42487 0.05154 0.0
C91 C 0.83841 0.33444 0.05176 0.0
C92 C 0.87773 0.47442 0.09438 0.0
C93 C 0.90589 0.28035 0.09335 0.0
O94 O 0.88114 0.29195 0.09015 0.0
O95 O 0.92454 0.31426 0.08752 0.0
O96 O 0.8289 0.33162 0.06721 0.0
O97 O 0.86298 0.35362 0.04982 0.0
O98 O 0.88467 0.46423 0.68661 0.0
Cd99 Cd 0.86886 0.39668 0.70179 0.0
Cd100 Cd 0.92155 0.36198 0.70173 0.0
O101 O 0.92814 0.44232 0.68896 0.0
O102 O 0.83303 0.42759 0.70987 0.0
O103 O 0.86711 0.40704 0.72749 0.0
C104 C 0.84265 0.42661 0.72534 0.0
C105 C 0.94812 0.33417 0.72539 0.0
C106 C 0.9093 0.47572 0.68311 0.0
C107 C 0.88071 0.28175 0.6836 0.0
O108 O 0.90543 0.29341 0.68693 0.0
O109 O 0.86201 0.31553 0.68941 0.0
O110 O 0.95756 0.33205 0.70992 0.0
O111 O 0.92363 0.35353 0.72747 0.0
O112 O 0.62756 0.03825 0.93783 0.0
Cd113 Cd 0.61123 0.11389 0.9494 0.0
Cd114 Cd 0.66905 0.13465 0.95203 0.0
O115 O 0.67097 0.04562 0.94454 0.0
O116 O 0.57192 0.09212 0.94973 0.0
O117 O 0.59551 0.10716 0.97349 0.0
C118 C 0.57285 0.09224 0.96629 0.0
C119 C 0.70517 0.17206 0.96901 0.0
C120 C 0.65147 0.01685 0.93762 0.0
C121 C 0.63375 0.21055 0.92753 0.0
O122 O 0.65677 0.19169 0.93257 0.0
O123 O 0.61203 0.19083 0.93427 0.0
O124 O 0.70834 0.15647 0.95319 0.0
O125 O 0.68133 0.16555 0.97555 0.0
O126 O 0.65549 0.02446 0.34 0.0
Cd127 Cd 0.66929 0.10137 0.32787 0.0
Cd128 Cd 0.61595 0.11807 0.32449 0.0
O129 O 0.61216 0.03061 0.33317 0.0
O130 O 0.70671 0.08302 0.31953 0.0
O131 O 0.67213 0.10244 0.30215 0.0
C132 C 0.69728 0.08748 0.30404 0.0
C133 C 0.5918 0.15342 0.30056 0.0
C134 C 0.63162 0.00271 0.34039 0.0
C135 C 0.64726 0.19798 0.3494 0.0
O136 O 0.6246 0.17865 0.34383 0.0
O137 O 0.66934 0.17783 0.34324 0.0
O138 O 0.57993 0.14363 0.31508 0.0
O139 O 0.6174 0.14174 0.29951 0.0
O140 O 0.40056 0.96866 0.08878 0.0
Cd141 Cd 0.41524 0.90097 0.07317 0.0
Cd142 Cd 0.36084 0.86508 0.07531 0.0
O143 O 0.35688 0.94715 0.08774 0.0
O144 O 0.45079 0.93174 0.06452 0.0
O145 O 0.41601 0.91157 0.04742 0.0
C146 C 0.44059 0.93096 0.04921 0.0
C147 C 0.32462 0.83114 0.05802 0.0
C148 C 0.37623 0.98051 0.09294 0.0
C149 C 0.40463 0.78672 0.09193 0.0
O150 O 0.3797 0.79834 0.08942 0.0
O151 O 0.4229 0.82015 0.08544 0.0
O152 O 0.3227 0.83491 0.07452 0.0
O153 O 0.34715 0.84799 0.05108 0.0
O154 O 0.37046 0.91441 0.68303 0.0
Cd155 Cd 0.36318 0.85707 0.70314 0.0
Cd156 Cd 0.41939 0.84851 0.70153 0.0
O157 O 0.41515 0.91981 0.68425 0.0
O158 O 0.32737 0.88111 0.71288 0.0
O159 O 0.36586 0.8867 0.72755 0.0
C160 C 0.33999 0.89596 0.72685 0.0
C161 C 0.45811 0.83939 0.7191 0.0
C162 C 0.39273 0.93558 0.67748 0.0
C163 C 0.3837 0.73968 0.69173 0.0
O164 O 0.40676 0.76508 0.69279 0.0
O165 O 0.36227 0.76737 0.69615 0.0
O166 O 0.45945 0.83572 0.70258 0.0
O167 O 0.43485 0.8521 0.72579 0.0
O168 O 0.63151 0.51976 0.44515 0.0
Cd169 Cd 0.61678 0.59783 0.45602 0.0
Cd170 Cd 0.67571 0.62185 0.45041 0.0
O171 O 0.67542 0.53447 0.44109 0.0
O172 O 0.5775 0.57604 0.45707 0.0
O173 O 0.60175 0.59275 0.48043 0.0
C174 C 0.57888 0.57743 0.47359 0.0
C175 C 0.71236 0.6563 0.46707 0.0
C176 C 0.65447 0.50127 0.43996 0.0
C177 C 0.63364 0.70014 0.4323 0.0
O178 O 0.65827 0.68546 0.43468 0.0
O179 O 0.61465 0.67311 0.44024 0.0
O180 O 0.71467 0.64616 0.45079 0.0
O181 O 0.68921 0.64518 0.47415 0.0
O182 O 0.65203 0.52858 0.83304 0.0
Cd183 Cd 0.66889 0.60657 0.82338 0.0
Cd184 Cd 0.61223 0.63469 0.82612 0.0
O185 O 0.60823 0.54782 0.83547 0.0
O186 O 0.7078 0.58172 0.82337 0.0
O187 O 0.68582 0.60364 0.79947 0.0
C188 C 0.70784 0.58557 0.80685 0.0
C189 C 0.5879 0.67073 0.80245 0.0
C190 C 0.62826 0.51232 0.83727 0.0
C191 C 0.65147 0.70918 0.84695 0.0
O192 O 0.62691 0.69711 0.84333 0.0
O193 O 0.67072 0.68052 0.83976 0.0
O194 O 0.57663 0.66496 0.81736 0.0
O195 O 0.61292 0.65411 0.80088 0.0
O196 O 0.41561 0.41351 0.59774 0.0
Cd197 Cd 0.42491 0.35675 0.57775 0.0
Cd198 Cd 0.37019 0.35236 0.57613 0.0
O199 O 0.37139 0.42269 0.59394 0.0
O200 O 0.46137 0.38059 0.56875 0.0
O201 O 0.42348 0.38687 0.55348 0.0
C202 C 0.44933 0.39578 0.5546 0.0
C203 C 0.34226 0.3482 0.55176 0.0
C204 C 0.39298 0.43608 0.60214 0.0
C205 C 0.40147 0.24071 0.58787 0.0
O206 O 0.37906 0.2681 0.58582 0.0
O207 O 0.42378 0.26661 0.58433 0.0
O208 O 0.33238 0.34261 0.56706 0.0
O209 O 0.36775 0.36073 0.5504 0.0
O210 O 0.3872 0.46936 0.18738 0.0
Cd211 Cd 0.37259 0.4015 0.20293 0.0
Cd212 Cd 0.42706 0.36573 0.20067 0.0
O213 O 0.43087 0.44785 0.18832 0.0
O214 O 0.33704 0.432 0.21165 0.0
O215 O 0.37188 0.41202 0.22869 0.0
C216 C 0.34728 0.43123 0.22696 0.0
C217 C 0.46358 0.33225 0.21771 0.0
C218 C 0.41152 0.48123 0.18318 0.0
C219 C 0.38319 0.28711 0.18412 0.0
O220 O 0.40814 0.2988 0.1866 0.0
O221 O 0.36495 0.32059 0.19062 0.0
O222 O 0.46529 0.33628 0.20122 0.0
O223 O 0.44107 0.34846 0.22479 0.0
H224 H 0.28975 0.30673 0.5508 0.0
H225 H 0.35737 0.35544 0.51789 0.0
H226 H 0.33183 0.31916 0.4925 0.0
H227 H 0.27319 0.1711 0.52975 0.0
H228 H 0.23701 0.17878 0.53206 0.0
H229 H 0.25938 0.21351 0.54754 0.0
H230 H 0.23732 0.31776 0.54179 0.0
H231 H 0.21462 0.28322 0.52644 0.0
H232 H 0.23553 0.34612 0.52005 0.0
H233 H 0.30063 0.27032 0.47108 0.0
H234 H 0.26474 0.21816 0.45468 0.0
H235 H 0.21698 0.2012 0.50138 0.0
C236 C 0.29899 0.311 0.53821 0.0
C237 C 0.32556 0.3343 0.53634 0.0
C238 C 0.33702 0.33816 0.51965 0.0
C239 C 0.32269 0.3175 0.50515 0.0
C240 C 0.29686 0.2933 0.50752 0.0
C241 C 0.28497 0.29053 0.52359 0.0
C242 C 0.25737 0.26033 0.52268 0.0
C243 C 0.25672 0.2025 0.53366 0.0
C244 C 0.23488 0.30451 0.52806 0.0
C245 C 0.25577 0.24575 0.50361 0.0
C246 C 0.27877 0.26524 0.49512 0.0
C247 C 0.28242 0.25538 0.47756 0.0
C248 C 0.26192 0.22541 0.46837 0.0
C249 C 0.23797 0.20558 0.47671 0.0
C250 C 0.23497 0.21593 0.4946 0.0
H251 H 0.99897 0.97054 0.55161 0.0
H252 H 0.93236 0.93385 0.51641 0.0
H253 H 0.95951 0.97435 0.49234 0.0
H254 H 0.0205 0.11035 0.5322 0.0
H255 H 0.0561 0.09611 0.53556 0.0
H256 H 0.03146 0.06455 0.5501 0.0
H257 H 0.05035 0.95719 0.54438 0.0
H258 H 0.07515 0.98844 0.52991 0.0
H259 H 0.05253 0.92979 0.52253 0.0
H260 H 0.99379 0.01802 0.47214 0.0
H261 H 0.03348 0.0585 0.45681 0.0
H262 H 0.07808 0.0675 0.50506 0.0
C263 C 0.99007 0.97092 0.53884 0.0
C264 C 0.9635 0.94899 0.53589 0.0
C265 C 0.95266 0.95031 0.51898 0.0
C266 C 0.9679 0.97339 0.50523 0.0
C267 C 0.99393 -0.00499 0.50861 0.0
C268 C 1.005 -0.00621 0.52497 0.0
C269 C 0.03361 0.01902 0.52505 0.0
C270 C 0.03552 0.07589 0.5364 0.0
C271 C 0.05412 0.97072 0.5308 0.0
C272 C 0.03695 0.03441 0.50615 0.0
C273 C 1.01375 0.02036 0.49693 0.0
C274 C 1.01203 0.02932 0.47922 0.0
C275 C 0.03472 0.05242 0.47063 0.0
C276 C 0.05891 0.06637 0.47973 0.0
C277 C 0.05984 0.05782 0.49777 0.0
H278 H 0.28683 0.9324 0.72757 0.0
H279 H 0.35989 0.92546 0.75881 0.0
H280 H 0.33563 0.97618 0.7826 0.0
H281 H 0.2646 0.07948 0.74187 0.0
H282 H 0.22916 0.0596 0.7417 0.0
H283 H 0.25222 0.02283 0.72709 0.0
H284 H 0.23751 0.91825 0.73882 0.0
H285 H 0.21428 0.95466 0.75336 0.0
H286 H 0.2396 0.90361 0.76164 0.0
H287 H 0.3032 0.02571 0.80315 0.0
H288 H 0.26478 0.06889 0.81927 0.0
H289 H 0.21295 0.04589 0.77445 0.0
C290 C 0.29774 0.94136 0.73943 0.0
C291 C 0.32529 0.92475 0.74134 0.0
C292 C 0.33881 0.93764 0.75704 0.0
C293 C 0.32521 0.96657 0.77062 0.0
C294 C 0.29814 0.98265 0.76825 0.0
C295 C 0.28453 0.9705 0.75306 0.0
C296 C 0.2554 -0.00784 0.75386 0.0
C297 C 0.25004 0.04145 0.74033 0.0
C298 C 0.23553 0.939 0.7518 0.0
C299 C 0.25464 0.01788 0.77196 0.0
C300 C 0.27954 0.01204 0.78001 0.0
C301 C 0.28366 0.0308 0.79695 0.0
C302 C 0.26169 0.05533 0.806 0.0
C303 C 0.23588 0.06114 0.7981 0.0
C304 C 0.2325 0.04281 0.78077 0.0
H305 H 0.07838 0.19304 0.77213 0.0
H306 H 0.03127 0.19262 0.81934 0.0
H307 H 0.99286 0.23869 0.8039 0.0
H308 H 0.05361 0.33525 0.75566 0.0
H309 H 0.05255 0.31021 0.73356 0.0
H310 H 0.07673 0.27773 0.74831 0.0
H311 H 0.05844 0.17063 0.74132 0.0
H312 H 0.03429 0.20277 0.72651 0.0
H313 H 0.02279 0.15503 0.74382 0.0
H314 H 0.95947 0.28528 0.78355 0.0
H315 H 0.9327 0.32533 0.75918 0.0
H316 H 1.00085 0.29429 0.72499 0.0
C317 C 0.05999 0.20269 0.7792 0.0
C318 C 0.0579 0.18923 0.79696 0.0
C319 C 0.03341 0.20236 0.80573 0.0
C320 C 1.01145 0.22872 0.79709 0.0
C321 C 1.01416 0.24158 0.77963 0.0
C322 C 0.03772 0.22876 0.77073 0.0
C323 C 0.03503 0.24611 0.75191 0.0
C324 C 0.05571 0.29525 0.74708 0.0
C325 C 0.0378 0.19031 0.7402 0.0
C326 C 1.00632 0.27061 0.75166 0.0
C327 C 0.99471 0.26784 0.76782 0.0
C328 C 0.96833 0.28767 0.77083 0.0
C329 C 0.95329 0.31046 0.75691 0.0
C330 C 0.96463 0.313 0.74017 0.0
C331 C 0.99158 0.29304 0.73762 0.0
H332 H 0.79002 0.78897 0.54956 0.0
H333 H 0.85849 0.82455 0.51599 0.0
H334 H 0.83279 0.78252 0.49137 0.0
H335 H 0.77043 0.64827 0.53054 0.0
H336 H 0.73457 0.66141 0.53283 0.0
H337 H 0.75806 0.69539 0.54778 0.0
H338 H 0.73873 0.80136 0.54071 0.0
H339 H 0.71507 0.76768 0.52581 0.0
H340 H 0.73766 0.82649 0.51863 0.0
H341 H 0.80014 0.7345 0.47059 0.0
H342 H 0.76221 0.68767 0.45474 0.0
H343 H 0.71464 0.68384 0.50175 0.0
C344 C 0.79959 0.78827 0.53701 0.0
C345 C 0.8263 0.81013 0.53471 0.0
C346 C 0.83806 0.80823 0.51808 0.0
C347 C 0.82364 0.78431 0.50402 0.0
C348 C 0.79747 0.76261 0.50679 0.0
C349 C 0.78548 0.76467 0.52284 0.0
C350 C 0.75709 0.73832 0.52234 0.0
C351 C 0.75492 0.68253 0.53407 0.0
C352 C 0.73589 0.78633 0.52716 0.0
C353 C 0.755 0.72093 0.50349 0.0
C354 C 0.77856 0.73522 0.49478 0.0
C355 C 0.78158 0.72325 0.47727 0.0
C356 C 0.75989 0.69648 0.46839 0.0
C357 C 0.7354 0.682 0.47698 0.0
C358 C 0.73307 0.69426 0.4948 0.0
H359 H 0.74954 0.04435 0.30405 0.0
H360 H 0.68341 0.09475 0.26994 0.0
H361 H 0.71043 0.062 0.24489 0.0
H362 H 0.80457 0.09029 0.27553 0.0
H363 H 0.82592 0.02771 0.28156 0.0
H364 H 0.80189 0.05782 0.29676 0.0
H365 H 0.7808 0.95133 0.30034 0.0
H366 H 0.80461 0.92098 0.28506 0.0
H367 H 0.76873 0.91128 0.28158 0.0
H368 H 0.74352 0.0199 0.22374 0.0
H369 H 0.78125 0.97461 0.20756 0.0
H370 H 0.82631 0.9511 0.25524 0.0
C371 C 0.74085 0.04924 0.29129 0.0
C372 C 0.71435 0.07235 0.28896 0.0
C373 C 0.70367 0.0774 0.27206 0.0
C374 C 0.71885 0.05883 0.25775 0.0
C375 C 0.74469 0.03538 0.26053 0.0
C376 C 0.75572 0.03083 0.27685 0.0
C377 C 0.78375 0.00271 0.27628 0.0
C378 C 0.80531 0.04731 0.28293 0.0
C379 C 0.7845 0.94303 0.28642 0.0
C380 C 0.78667 -0.00825 0.25709 0.0
C381 C 0.76388 0.01099 0.24827 0.0
C382 C 0.76153 0.00495 0.23048 0.0
C383 C 0.78309 0.97897 0.22141 0.0
C384 C 0.80681 0.95926 0.23011 0.0
C385 C 0.8085 0.96572 0.24821 0.0
H386 H 1.00012 0.79642 0.22663 0.0
H387 H 0.9323 0.82708 0.26111 0.0
H388 H 0.95963 0.78871 0.28546 0.0
H389 H 0.02296 0.65871 0.24575 0.0
H390 H 0.05847 0.67506 0.24291 0.0
H391 H 0.03387 0.70618 0.22821 0.0
H392 H 0.05155 0.81411 0.23472 0.0
H393 H 0.0763 0.78332 0.24939 0.0
H394 H 0.05292 0.84032 0.25672 0.0
H395 H 0.99361 0.74416 0.30579 0.0
H396 H 0.03254 0.70008 0.32117 0.0
H397 H 0.07892 0.69958 0.27367 0.0
C398 C 0.99103 0.7954 0.23931 0.0
C399 C 0.96402 0.81481 0.24196 0.0
C400 C 0.95293 0.81262 0.25877 0.0
C401 C 0.96829 0.7908 0.27267 0.0
C402 C 0.99474 0.77157 0.26958 0.0
C403 C 1.00611 0.77396 0.25335 0.0
C404 C 0.03496 0.75027 0.25352 0.0
C405 C 0.03771 0.69422 0.24191 0.0
C406 C 0.05512 0.79998 0.24828 0.0
C407 C 0.03802 0.73392 0.27239 0.0
C408 C 1.01452 0.74645 0.28138 0.0
C409 C 1.01215 0.73442 0.2989 0.0
C410 C 0.03441 0.70921 0.30751 0.0
C411 C 0.05885 0.69641 0.29865 0.0
C412 C 0.06059 0.70901 0.28082 0.0
H413 H 0.32321 0.80614 0.02315 0.0
H414 H 0.27444 0.79954 0.06963 0.0
H415 H 0.23679 0.75444 0.05314 0.0
H416 H 0.26829 0.84343 0.99385 0.0
H417 H 0.28116 0.79704 0.97661 0.0
H418 H 0.30422 0.83011 0.992 0.0
H419 H 0.32342 0.72392 0.99894 0.0
H420 H 0.30033 0.6905 0.98363 0.0
H421 H 0.30064 0.66475 1.00566 0.0
H422 H 0.20451 0.70869 0.03182 0.0
H423 H 0.17958 0.66684 1.00687 0.0
H424 H 0.24917 0.70211 0.97421 0.0
C425 C 0.30455 0.79559 0.02983 0.0
C426 C 0.30181 0.80653 0.0477 0.0
C427 C 0.27708 0.79168 0.05596 0.0
C428 C 0.25553 0.76597 0.0467 0.0
C429 C 0.25895 0.75525 0.02917 0.0
C430 C 0.28278 0.76969 0.02078 0.0
C431 C 0.2812 0.75285 1.00185 0.0
C432 C 0.28387 0.80922 0.9904 0.0
C433 C 0.30267 0.70517 0.99726 0.0
C434 C 0.25281 0.72662 1.00097 0.0
C435 C 0.24034 0.7285 0.01687 0.0
C436 C 0.21405 0.70699 0.01929 0.0
C437 C 0.20006 0.68323 1.00504 0.0
C438 C 0.21239 0.68105 0.98858 0.0
C439 C 0.23918 0.70292 0.98662 0.0
H440 H 0.0737 0.56118 1.00398 0.0
H441 H 0.0276 0.55059 0.95632 0.0
H442 H 0.9882 0.5119 0.97232 0.0
H443 H 0.04834 0.42542 0.02227 0.0
H444 H 0.04699 0.45387 0.04403 0.0
H445 H 0.07131 0.48425 0.02909 0.0
H446 H 0.05283 0.59219 0.03446 0.0
H447 H 0.02859 0.56218 0.04953 0.0
H448 H 1.01718 0.60698 0.03154 0.0
H449 H 0.95436 0.47005 0.99312 0.0
H450 H 0.92784 0.43113 0.01769 0.0
H451 H 0.99567 0.46826 0.05189 0.0
C452 C 0.05519 0.55155 0.99696 0.0
C453 C 0.05375 0.55911 0.9789 0.0
C454 C 0.02924 0.54526 0.97016 0.0
C455 C 1.0067 0.52319 0.97913 0.0
C456 C 1.00891 0.51519 0.99686 0.0
C457 C 0.03244 0.52923 1.00573 0.0
C458 C 0.0296 0.51486 0.02474 0.0
C459 C 0.05029 0.46673 0.03035 0.0
C460 C 0.0322 0.57249 0.03572 0.0
C461 C 1.00092 0.49016 0.0251 0.0
C462 C 0.98935 0.49084 1.00888 0.0
C463 C 0.96315 0.46955 1.00591 0.0
C464 C 0.94826 0.44737 0.01994 0.0
C465 C 0.95963 0.44662 0.03672 0.0
C466 C 0.98636 0.46823 0.03924 0.0
H467 H 0.29496 0.47347 0.22703 0.0
H468 H 0.36382 0.44007 0.26063 0.0
H469 H 0.33792 0.48061 0.28528 0.0
H470 H 0.27394 0.61321 0.24655 0.0
H471 H 0.23824 0.59789 0.24411 0.0
H472 H 0.26211 0.56628 0.22907 0.0
H473 H 0.24409 0.45872 0.23558 0.0
H474 H 0.22004 0.49002 0.25055 0.0
H475 H 0.24334 0.43231 0.25755 0.0
H476 H 0.30463 0.52469 0.30622 0.0
H477 H 0.26574 0.56547 0.32234 0.0
H478 H 0.2183 0.57054 0.27515 0.0
C479 C 0.30461 0.47453 0.23957 0.0
C480 C 0.33147 0.45355 0.24189 0.0
C481 C 0.3433 0.45577 0.25853 0.0
C482 C 0.32876 0.47888 0.2726 0.0
C483 C 0.30243 0.4996 0.26983 0.0
C484 C 0.2904 0.49741 0.25375 0.0
C485 C 0.2617 0.5219 0.25429 0.0
C486 C 0.25884 0.57817 0.24282 0.0
C487 C 0.24108 0.4728 0.2492 0.0
C488 C 0.25942 0.5381 0.27322 0.0
C489 C 0.28319 0.52503 0.28192 0.0
C490 C 0.28594 0.53517 0.29954 0.0
C491 C 0.2637 0.55847 0.30858 0.0
C492 C 0.23895 0.57143 0.30002 0.0
C493 C 0.23698 0.56159 0.28205 0.0
H494 H 0.7076 0.19991 1.00374 0.0
H495 H 0.75501 0.20225 0.95666 0.0
H496 H 0.79359 0.24602 0.97253 0.0
H497 H 0.73315 0.34007 0.02135 0.0
H498 H 0.73393 0.31313 0.04326 0.0
H499 H 0.70964 0.28256 0.02821 0.0
H500 H 0.72723 0.17445 0.03442 0.0
H501 H 0.7515 0.20468 0.04952 0.0
H502 H 0.76279 0.15811 0.03187 0.0
H503 H 0.82713 0.28994 0.99328 0.0
H504 H 0.85398 0.32748 0.01797 0.0
H505 H 0.78548 0.29541 0.05181 0.0
C506 C 0.72609 0.20972 0.99678 0.0
C507 C 0.72821 0.19769 0.97893 0.0
C508 C 0.75284 0.21093 0.97032 0.0
C509 C 0.7749 0.23598 0.97921 0.0
C510 C 0.77216 0.2474 0.99676 0.0
C511 C 0.74847 0.23448 1.0055 0.0
C512 C 0.75116 0.25016 0.02447 0.0
C513 C 0.73076 0.29942 0.02962 0.0
C514 C 0.74799 0.19347 0.03573 0.0
C515 C 0.78002 0.27388 0.02496 0.0
C516 C 0.7917 0.27212 1.00881 0.0
C517 C 0.81822 0.29153 1.006 0.0
C518 C 0.8333 0.31288 0.0201 0.0
C519 C 0.82188 0.31444 0.03683 0.0
C520 C 0.79482 0.29487 0.03919 0.0
H521 H 0.71246 0.56787 0.77175 0.0
H522 H 0.75779 0.55831 0.8197 0.0
H523 H 0.79719 0.51784 0.80406 0.0
H524 H 0.73726 0.43062 0.75402 0.0
H525 H 0.7391 0.45803 0.73218 0.0
H526 H 0.71476 0.48973 0.74688 0.0
H527 H 0.73396 0.59693 0.74131 0.0
H528 H 0.75823 0.56561 0.72646 0.0
H529 H 0.76966 0.61093 0.74439 0.0
H530 H 0.83107 0.47412 0.78359 0.0
H531 H 0.85775 0.43361 0.75929 0.0
H532 H 0.79066 0.47094 0.72457 0.0
C533 C 0.73081 0.55811 0.7789 0.0
C534 C 0.73203 0.56647 0.79696 0.0
C535 C 0.75633 0.55239 0.80587 0.0
C536 C 0.77886 0.52931 0.79711 0.0
C537 C 0.77685 0.52051 0.77939 0.0
C538 C 0.75354 0.53478 0.77034 0.0
C539 C 0.75658 0.51946 0.75139 0.0
C540 C 0.73568 0.47161 0.7458 0.0
C541 C 0.75449 0.57665 0.74023 0.0
C542 C 0.78511 0.49401 0.75128 0.0
C543 C 0.79644 0.49509 0.76756 0.0
C544 C 0.82248 0.47328 0.77074 0.0
C545 C 0.83745 0.4502 0.75687 0.0
C546 C 0.82635 0.44906 0.74002 0.0
C547 C 0.79977 0.47115 0.73728 0.0
H548 H 0.56965 0.07122 1.00129 0.0
H549 H 0.5222 0.06671 0.9541 0.0
H550 H 0.4833 0.02564 0.97014 0.0
H551 H 0.54475 0.93302 0.01854 0.0
H552 H 0.54409 0.95897 0.04056 0.0
H553 H 0.56799 0.99094 0.02562 0.0
H554 H 0.54981 0.09829 0.03223 0.0
H555 H 0.526 0.06668 0.04731 0.0
H556 H 0.51411 0.11358 0.02989 0.0
H557 H 0.45 0.98115 0.99098 0.0
H558 H 0.42408 0.94015 0.01555 0.0
H559 H 0.49295 0.97331 0.04923 0.0
C560 C 0.55097 0.06235 0.99438 0.0
C561 C 0.549 0.07241 0.97643 0.0
C562 C 0.52424 0.05953 0.96784 0.0
C563 C 0.50199 0.03609 0.97684 0.0
C564 C 0.50473 0.02573 0.99445 0.0
C565 C 0.5285 0.03876 1.00317 0.0
C566 C 0.5262 0.02222 0.02207 0.0
C567 C 0.54699 0.97338 0.02698 0.0
C568 C 0.5292 0.07855 0.03355 0.0
C569 C 0.49751 -0.00238 0.02255 0.0
C570 C 0.48549 3e-05 1.00648 0.0
C571 C 0.45915 0.97926 1.00366 0.0
C572 C 0.44461 0.95588 0.01768 0.0
C573 C 0.45643 0.95348 0.03432 0.0
C574 C 0.48329 0.9745 0.03668 0.0
H575 H 0.46461 0.30075 0.25211 0.0
H576 H 0.51461 0.30815 0.20618 0.0
H577 H 0.55269 0.26358 0.22234 0.0
H578 H 0.518 0.33672 0.28277 0.0
H579 H 0.5055 0.28545 0.29895 0.0
H580 H 0.4823 0.31973 0.2839 0.0
H581 H 0.46525 0.21361 0.27476 0.0
H582 H 0.48848 0.17901 0.28971 0.0
H583 H 0.48926 0.15821 0.26725 0.0
H584 H 0.5853 0.21696 0.24325 0.0
H585 H 0.61024 0.172 0.26772 0.0
H586 H 0.53906 0.19303 0.29998 0.0
C587 C 0.48364 0.29347 0.2455 0.0
C588 C 0.48662 0.30814 0.22788 0.0
C589 C 0.5118 0.29735 0.21967 0.0
C590 C 0.53359 0.27201 0.22873 0.0
C591 C 0.52993 0.25749 0.24602 0.0
C592 C 0.50563 0.26784 0.25435 0.0
C593 C 0.50698 0.247 0.27294 0.0
C594 C 0.50296 0.30042 0.28537 0.0
C595 C 0.48626 0.19645 0.27636 0.0
C596 C 0.53578 0.22327 0.27371 0.0
C597 C 0.54868 0.22989 0.25805 0.0
C598 C 0.57542 0.21152 0.25559 0.0
C599 C 0.58942 0.18598 0.26956 0.0
C600 C 0.57663 0.17882 0.28575 0.0
C601 C 0.5494 0.19761 0.28775 0.0
H602 H 0.45977 0.81368 0.75385 0.0
H603 H 0.51041 0.82727 0.70835 0.0
H604 H 0.54933 0.78824 0.72491 0.0
H605 H 0.51273 0.8547 0.78549 0.0
H606 H 0.50049 0.80154 0.80125 0.0
H607 H 0.47722 0.83559 0.7862 0.0
H608 H 0.46158 0.72911 0.77642 0.0
H609 H 0.48503 0.69474 0.79127 0.0
H610 H 0.48636 0.67579 0.76869 0.0
H611 H 0.58197 0.74087 0.74571 0.0
H612 H 0.60665 0.69319 0.76986 0.0
H613 H 0.53497 0.70956 0.80188 0.0
C614 C 0.4792 0.80977 0.74749 0.0
C615 C 0.48205 0.82393 0.72981 0.0
C616 C 0.50772 0.81698 0.72188 0.0
C617 C 0.52998 0.79474 0.73117 0.0
C618 C 0.52632 0.77963 0.74843 0.0
C619 C 0.50167 0.78732 0.75657 0.0
C620 C 0.50294 0.76513 0.77505 0.0
C621 C 0.49806 0.81736 0.78775 0.0
C622 C 0.48278 0.71311 0.77802 0.0
C623 C 0.53202 0.74308 0.77591 0.0
C624 C 0.54516 0.75202 0.76042 0.0
C625 C 0.57196 0.73406 0.75795 0.0
C626 C 0.58578 0.70678 0.77173 0.0
C627 C 0.57281 0.6976 0.78778 0.0
C628 C 0.54552 0.71597 0.7898 0.0
H629 H 0.50274 0.43171 0.55441 0.0
H630 H 0.43028 0.4254 0.52256 0.0
H631 H 0.4551 0.47581 0.49902 0.0
H632 H 0.52582 0.5787 0.54018 0.0
H633 H 0.56118 0.55832 0.54057 0.0
H634 H 0.53777 0.52212 0.55506 0.0
H635 H 0.55226 0.41714 0.5435 0.0
H636 H 0.57584 0.45298 0.52907 0.0
H637 H 0.55045 0.40216 0.52068 0.0
H638 H 0.48782 0.52449 0.47876 0.0
H639 H 0.52661 0.56622 0.46273 0.0
H640 H 0.57792 0.54335 0.50779 0.0
C641 C 0.49209 0.4408 0.54247 0.0
C642 C 0.46454 0.42445 0.54032 0.0
C643 C 0.45135 0.43742 0.52452 0.0
C644 C 0.46527 0.46619 0.51108 0.0
C645 C 0.49232 0.48205 0.51367 0.0
C646 C 0.50564 0.46981 0.52895 0.0
C647 C 0.53488 0.49105 0.5283 0.0
C648 C 0.54021 0.54049 0.54183 0.0
C649 C 0.55451 0.43764 0.53051 0.0
C650 C 0.53601 0.51649 0.51018 0.0
C651 C 0.51118 0.51098 0.50202 0.0
C652 C 0.50731 0.52935 0.48504 0.0
C653 C 0.5295 0.55305 0.47605 0.0
C654 C 0.55527 0.5584 0.48403 0.0
C655 C 0.55839 0.54064 0.50142 0.0
H656 H 0.18877 0.80467 0.35739 0.0
H657 H 0.12265 0.69508 0.37692 0.0
H658 H 0.1235 0.75175 0.40416 0.0
H659 H 0.22437 0.82893 0.39912 0.0
H660 H 0.23222 0.90677 0.39446 0.0
H661 H 0.22942 0.85268 0.37714 0.0
H662 H 0.19317 0.9194 0.36223 0.0
H663 H 0.19616 0.97387 0.37936 0.0
H664 H 0.16351 0.94198 0.37414 0.0
H665 H 0.12847 0.82246 0.42807 0.0
H666 H 0.13347 0.91287 0.44628 0.0
H667 H 0.19532 0.98188 0.41183 0.0
C668 C 0.1748 0.79238 0.36754 0.0
C669 C 0.15569 0.7455 0.36512 0.0
C670 C 0.13733 0.73115 0.3785 0.0
C671 C 0.13785 0.76257 0.3941 0.0
C672 C 0.15673 0.80871 0.39613 0.0
C673 C 0.17464 0.82442 0.3832 0.0
C674 C 0.19058 0.88059 0.38817 0.0
C675 C 0.22096 0.86636 0.38982 0.0
C676 C 0.18554 0.93199 0.37521 0.0
C677 C 0.17821 0.89461 0.40564 0.0
C678 C 0.1592 0.85148 0.41007 0.0
C679 C 0.14354 0.85621 0.4249 0.0
C680 C 0.14654 0.90767 0.43517 0.0
C681 C 0.16495 0.95389 0.43055 0.0
C682 C 0.18164 0.94638 0.4159 0.0
H683 H 0.17456 0.27722 0.41102 0.0
H684 H 0.08855 0.2423 0.41758 0.0
H685 H 0.07844 0.31128 0.39334 0.0
H686 H 0.16859 0.43414 0.40105 0.0
H687 H 0.19583 0.43272 0.38562 0.0
H688 H 0.19575 0.38028 0.40332 0.0
H689 H 0.19929 0.29124 0.38168 0.0
H690 H 0.19891 0.34344 0.36388 0.0
H691 H 0.17421 0.28349 0.36488 0.0
H692 H 0.07805 0.38521 0.36832 0.0
H693 H 0.08714 0.46367 0.34642 0.0
H694 H 0.17348 0.44701 0.3564 0.0
C695 C 0.15353 0.28407 0.40745 0.0
C696 C 0.13234 0.25426 0.41622 0.0
C697 C 0.10514 0.26474 0.4111 0.0
C698 C 0.09921 0.30354 0.39727 0.0
C699 C 0.1207 0.33128 0.38872 0.0
C700 C 0.14729 0.32231 0.39373 0.0
C701 C 0.16672 0.35841 0.38279 0.0
C702 C 0.18265 0.4041 0.39386 0.0
C703 C 0.18591 0.31663 0.37271 0.0
C704 C 0.14693 0.38968 0.3709 0.0
C705 C 0.12049 0.37323 0.37439 0.0
C706 C 0.0987 0.39818 0.36542 0.0
C707 C 0.10408 0.44251 0.35294 0.0
C708 C 0.13103 0.46149 0.34963 0.0
C709 C 0.15265 0.43333 0.35847 0.0
H710 H 0.18511 0.29944 0.85552 0.0
H711 H 0.12247 0.18186 0.87588 0.0
H712 H 0.123 0.23808 0.90319 0.0
H713 H 0.22164 0.32748 0.89686 0.0
H714 H 0.2274 0.40618 0.89214 0.0
H715 H 0.22536 0.35189 0.87483 0.0
H716 H 0.18706 0.41421 0.86045 0.0
H717 H 0.18924 0.46885 0.87758 0.0
H718 H 0.15727 0.43303 0.87276 0.0
H719 H 0.12671 0.30958 0.92695 0.0
H720 H 0.12997 0.40067 0.94508 0.0
H721 H 0.18935 0.47648 0.91006 0.0
C722 C 0.17188 0.28529 0.86588 0.0
C723 C 0.15379 0.23636 0.86367 0.0
C724 C 0.13634 0.21955 0.87731 0.0
C725 C 0.13671 0.25071 0.89294 0.0
C726 C 0.15451 0.29902 0.89475 0.0
C727 C 0.17157 0.31697 0.88159 0.0
C728 C 0.18627 0.37497 0.88639 0.0
C729 C 0.217 0.36448 0.88763 0.0
C730 C 0.17954 0.42575 0.87353 0.0
C731 C 0.17415 0.38735 0.90403 0.0
C732 C 0.15634 0.34201 0.90867 0.0
C733 C 0.1409 0.34501 0.92364 0.0
C734 C 0.14289 0.39684 0.93385 0.0
C735 C 0.16014 0.44499 0.92905 0.0
C736 C 0.17662 0.43943 0.91425 0.0
H737 H 0.17027 0.77175 0.91143 0.0
H738 H 0.08426 0.73212 0.91541 0.0
H739 H 0.07513 0.80136 0.89111 0.0
H740 H 0.16314 0.92924 0.90144 0.0
H741 H 0.19147 0.92951 0.88683 0.0
H742 H 0.19075 0.87701 0.90451 0.0
H743 H 0.19694 0.78832 0.883 0.0
H744 H 0.19722 0.84054 0.86521 0.0
H745 H 0.17319 0.77913 0.86549 0.0
H746 H 0.07567 0.87518 0.86613 0.0
H747 H 0.08544 0.95337 0.84428 0.0
H748 H 0.17115 0.9419 0.85677 0.0
C749 C 0.14945 0.77774 0.9073 0.0
C750 C 0.12798 0.7464 0.91535 0.0
C751 C 0.10106 0.75571 0.90949 0.0
C752 C 0.09569 0.79468 0.89563 0.0
C753 C 0.11744 0.82388 0.88778 0.0
C754 C 0.14374 0.81621 0.89353 0.0
C755 C 0.16352 0.8535 0.88315 0.0
C756 C 0.17806 0.90008 0.89467 0.0
C757 C 0.18391 0.81293 0.87365 0.0
C758 C 0.14424 0.88365 0.87069 0.0
C759 C 0.11776 0.86584 0.87346 0.0
C760 C 0.09635 0.8893 0.86381 0.0
C761 C 0.10212 0.93347 0.85136 0.0
C762 C 0.12907 0.95374 0.84874 0.0
C763 C 0.15035 0.92719 0.85831 0.0
H764 H 0.91643 0.21263 0.66543 0.0
H765 H 0.83031 0.24099 0.67349 0.0
H766 H 0.82016 0.16652 0.65052 0.0
H767 H 0.91345 0.2031 0.62011 0.0
H768 H 0.93932 0.14594 0.61848 0.0
H769 H 0.93968 0.19822 0.63627 0.0
H770 H 0.93929 0.10912 0.65795 0.0
H771 H 0.93939 0.05654 0.64023 0.0
H772 H 0.91318 0.05231 0.65633 0.0
H773 H 0.81988 0.09014 0.62582 0.0
H774 H 0.82953 0.01619 0.60266 0.0
H775 H 0.91583 0.04316 0.61073 0.0
C776 C 0.89538 0.2027 0.66261 0.0
C777 C 0.87416 0.23249 0.67135 0.0
C778 C 0.84692 0.2185 0.66704 0.0
C779 C 0.84096 0.17645 0.65397 0.0
C780 C 0.86246 0.14909 0.64533 0.0
C781 C 0.88911 0.16152 0.64958 0.0
C782 C 0.90863 0.12757 0.63815 0.0
C783 C 0.9263 0.17133 0.62763 0.0
C784 C 0.92615 0.08378 0.6488 0.0
C785 C 0.88886 0.09401 0.62675 0.0
C786 C 0.8623 0.10673 0.63104 0.0
C787 C 0.84061 0.07994 0.62235 0.0
C788 C 0.84628 0.0382 0.60917 0.0
C789 C 0.87343 0.02403 0.60479 0.0
C790 C 0.89484 0.05321 0.6136 0.0
H791 H 0.87316 0.54431 0.66505 0.0
H792 H 0.95947 0.5158 0.67253 0.0
H793 H 0.96909 0.58973 0.64941 0.0
H794 H 0.875 0.55343 0.61962 0.0
H795 H 0.84914 0.61069 0.6182 0.0
H796 H 0.84919 0.55842 0.63596 0.0
H797 H 0.85019 0.64755 0.65769 0.0
H798 H 0.8497 0.70011 0.64001 0.0
H799 H 0.87631 0.70423 0.65592 0.0
H800 H 0.96882 0.66588 0.62476 0.0
H801 H 0.9587 0.74021 0.60182 0.0
H802 H 0.87255 0.71377 0.61042 0.0
C803 C 0.89415 0.55404 0.66205 0.0
C804 C 0.91557 0.52441 0.67068 0.0
C805 C 0.94271 0.53817 0.66615 0.0
C806 C 0.94837 0.5799 0.653 0.0
C807 C 0.92666 0.60716 0.64449 0.0
C808 C 0.90011 0.59492 0.64893 0.0
C809 C 0.88033 0.62895 0.63767 0.0
C810 C 0.86237 0.58525 0.62725 0.0
C811 C 0.86313 0.67282 0.64847 0.0
C812 C 0.89986 0.6624 0.62615 0.0
C813 C 0.9265 0.64947 0.63023 0.0
C814 C 0.94801 0.67623 0.62145 0.0
C815 C 0.94207 0.71819 0.60839 0.0
C816 C 0.91484 0.73266 0.60424 0.0
C817 C 0.8936 0.70346 0.61312 0.0
H818 H 0.91421 0.54267 0.1124 0.0
H819 H 0.82778 0.51443 0.1053 0.0
H820 H 0.81854 0.58808 0.12858 0.0
H821 H 0.91293 0.55178 0.15794 0.0
H822 H 0.93885 0.60906 0.15926 0.0
H823 H 0.93856 0.55672 0.14147 0.0
H824 H 0.93739 0.64577 0.11979 0.0
H825 H 0.93813 0.69839 0.13749 0.0
H826 H 0.91134 0.70246 0.1217 0.0
H827 H 0.81915 0.664 0.15324 0.0
H828 H 0.82949 0.7388 0.17605 0.0
H829 H 0.91556 0.71271 0.16713 0.0
C830 C 0.89328 0.55239 0.11553 0.0
C831 C 0.87171 0.52292 0.10695 0.0
C832 C 0.84465 0.53666 0.11163 0.0
C833 C 0.83921 0.57822 0.12489 0.0
C834 C 0.86104 0.60533 0.13334 0.0
C835 C 0.88752 0.59314 0.12875 0.0
C836 C 0.90746 0.62723 0.13994 0.0
C837 C 0.9255 0.58358 0.15026 0.0
C838 C 0.92458 0.67107 0.12908 0.0
C839 C 0.88809 0.66074 0.15158 0.0
C840 C 0.8614 0.64766 0.14761 0.0
C841 C 0.83999 0.67446 0.15647 0.0
C842 C 0.84607 0.71671 0.16945 0.0
C843 C 0.87334 0.73146 0.17346 0.0
C844 C 0.8945 0.70213 0.16454 0.0
H845 H 0.87213 0.04455 0.16704 0.0
H846 H 0.9585 0.01428 0.17356 0.0
H847 H 0.96775 0.08776 0.15024 0.0
H848 H 0.87267 0.05269 0.12162 0.0
H849 H 0.84697 0.11039 0.12043 0.0
H850 H 0.84737 0.05845 0.13827 0.0
H851 H 0.84934 0.14794 0.15985 0.0
H852 H 0.84849 0.20019 0.14209 0.0
H853 H 0.87559 0.20414 0.15768 0.0
H854 H 0.96699 0.16385 0.12549 0.0
H855 H 0.9564 0.23811 0.1026 0.0
H856 H 0.87047 0.21293 0.11224 0.0
C857 C 0.89307 0.05377 0.16379 0.0
C858 C 0.9146 0.02379 0.17221 0.0
C859 C 0.94166 0.03694 0.16736 0.0
C860 C 0.9471 0.0784 0.15409 0.0
C861 C 0.92526 0.10597 0.14579 0.0
C862 C 0.8988 0.09431 0.15056 0.0
C863 C 0.87881 0.12846 0.13949 0.0
C864 C 0.86038 0.08488 0.12935 0.0
C865 C 0.86208 0.17282 0.15043 0.0
C866 C 0.89809 0.16135 0.12768 0.0
C867 C 0.92481 0.14807 0.13147 0.0
C868 C 0.94613 0.17443 0.12241 0.0
C869 C 0.93991 0.21636 0.10939 0.0
C870 C 0.9126 0.23115 0.10554 0.0
C871 C 0.89156 0.20232 0.11469 0.0
H872 H 0.61518 0.77767 0.86506 0.0
H873 H 0.7013 0.74122 0.86007 0.0
H874 H 0.71065 0.81051 0.88439 0.0
H875 H 0.62151 0.93489 0.87495 0.0
H876 H 0.59362 0.93448 0.88991 0.0
H877 H 0.59416 0.88157 0.87228 0.0
H878 H 0.58923 0.79318 0.89398 0.0
H879 H 0.58913 0.84585 0.9117 0.0
H880 H 0.61355 0.78534 0.91121 0.0
H881 H 0.71036 0.88483 0.90928 0.0
H882 H 0.70079 0.96383 0.93097 0.0
H883 H 0.61481 0.94897 0.91954 0.0
C884 C 0.63606 0.78427 0.869 0.0
C885 C 0.6575 0.75391 0.86064 0.0
C886 C 0.68452 0.76404 0.86624 0.0
C887 C 0.69002 0.80305 0.8801 0.0
C888 C 0.6683 0.83139 0.88823 0.0
C889 C 0.64189 0.82279 0.88277 0.0
C890 C 0.62219 0.85961 0.89334 0.0
C891 C 0.60699 0.90535 0.88194 0.0
C892 C 0.60236 0.81852 0.90314 0.0
C893 C 0.64164 0.89079 0.90553 0.0
C894 C 0.66813 0.87369 0.9025 0.0
C895 C 0.68967 0.89834 0.91182 0.0
C896 C 0.68402 0.94298 0.92418 0.0
C897 C 0.65704 0.96259 0.92702 0.0
C898 C 0.63564 0.9348 0.91783 0.0
H899 H 0.60048 0.30751 0.91936 0.0
H900 H 0.66484 0.19347 0.8996 0.0
H901 H 0.66429 0.24936 0.87226 0.0
H902 H 0.56454 0.33291 0.8778 0.0
H903 H 0.55782 0.41133 0.8824 0.0
H904 H 0.56016 0.35752 0.89977 0.0
H905 H 0.59752 0.42231 0.91437 0.0
H906 H 0.59501 0.4765 0.89718 0.0
H907 H 0.62728 0.44271 0.90224 0.0
H908 H 0.65998 0.31986 0.84832 0.0
H909 H 0.65603 0.41029 0.83007 0.0
H910 H 0.59549 0.48371 0.86469 0.0
C911 C 0.61411 0.29409 0.90914 0.0
C912 C 0.63266 0.24618 0.91152 0.0
C913 C 0.65061 0.23034 0.89805 0.0
C914 C 0.65024 0.26132 0.88239 0.0
C915 C 0.63193 0.30852 0.88041 0.0
C916 C 0.61443 0.32566 0.89342 0.0
C917 C 0.59918 0.38269 0.88847 0.0
C918 C 0.5686 0.37035 0.88702 0.0
C919 C 0.60512 0.43408 0.90132 0.0
C920 C 0.61146 0.39549 0.8709 0.0
C921 C 0.62983 0.35109 0.86642 0.0
C922 C 0.6454 0.35457 0.85152 0.0
C923 C 0.64299 0.40602 0.84122 0.0
C924 C 0.62523 0.45341 0.84588 0.0
C925 C 0.60861 0.44724 0.8606 0.0
H926 H 0.68247 0.29035 0.35873 0.0
H927 H 0.6121 0.18877 0.37568 0.0
H928 H 0.6114 0.24627 0.40276 0.0
H929 H 0.71432 0.31134 0.40158 0.0
H930 H 0.72442 0.38814 0.39727 0.0
H931 H 0.72196 0.3344 0.37985 0.0
H932 H 0.68878 0.40521 0.36364 0.0
H933 H 0.69144 0.45932 0.38089 0.0
H934 H 0.65864 0.43129 0.37442 0.0
H935 H 0.61589 0.31614 0.42688 0.0
H936 H 0.62175 0.40507 0.44556 0.0
H937 H 0.68812 0.46692 0.41344 0.0
C938 C 0.66717 0.28007 0.36827 0.0
C939 C 0.64736 0.23515 0.36517 0.0
C940 C 0.62733 0.22337 0.37776 0.0
C941 C 0.62694 0.25525 0.39328 0.0
C942 C 0.64658 0.29929 0.396 0.0
C943 C 0.6661 0.31264 0.38382 0.0
C944 C 0.68287 0.36686 0.38941 0.0
C945 C 0.71266 0.3491 0.39219 0.0
C946 C 0.68026 0.41873 0.37631 0.0
C947 C 0.66923 0.38237 0.40638 0.0
C948 C 0.64876 0.34172 0.41003 0.0
C949 C 0.63201 0.34805 0.42431 0.0
C950 C 0.6355 0.39868 0.43484 0.0
C951 C 0.65547 0.44255 0.43099 0.0
C952 C 0.67312 0.43332 0.41689 0.0
H953 H 0.66938 0.76827 0.4137 0.0
H954 H 0.58333 0.73401 0.42031 0.0
H955 H 0.5733 0.80288 0.39604 0.0
H956 H 0.66346 0.92578 0.40331 0.0
H957 H 0.69075 0.92353 0.38792 0.0
H958 H 0.69059 0.87199 0.40584 0.0
H959 H 0.69421 0.7819 0.38455 0.0
H960 H 0.69387 0.83318 0.36655 0.0
H961 H 0.66916 0.7733 0.36777 0.0
H962 H 0.57302 0.8753 0.37064 0.0
H963 H 0.58224 0.95176 0.34819 0.0
H964 H 0.66852 0.93574 0.35842 0.0
C965 C 0.64836 0.77538 0.41017 0.0
C966 C 0.62714 0.74562 0.41893 0.0
C967 C 0.59995 0.75643 0.41385 0.0
C968 C 0.59406 0.79516 0.4 0.0
C969 C 0.61558 0.82264 0.39141 0.0
C970 C 0.64215 0.81363 0.39644 0.0
C971 C 0.66163 0.84913 0.38536 0.0
C972 C 0.67753 0.89535 0.39625 0.0
C973 C 0.68084 0.80684 0.37547 0.0
C974 C 0.64189 0.87985 0.37331 0.0
C975 C 0.61542 0.86382 0.37689 0.0
C976 C 0.59368 0.88804 0.3677 0.0
C977 C 0.59913 0.93118 0.3549 0.0
C978 C 0.62611 0.94973 0.35148 0.0
C979 C 0.64768 0.92238 0.36058 0.0
H980 H 0.41765 0.21632 0.16548 0.0
H981 H 0.33208 0.24822 0.1748 0.0
H982 H 0.32051 0.17408 0.152 0.0
H983 H 0.41306 0.20678 0.12025 0.0
H984 H 0.43836 0.14848 0.11826 0.0
H985 H 0.43979 0.20073 0.13604 0.0
H986 H 0.43933 0.11167 0.15773 0.0
H987 H 0.43837 0.0591 0.14001 0.0
H988 H 0.41268 0.05602 0.15647 0.0
H989 H 0.31873 0.09789 0.12732 0.0
H990 H 0.32688 0.02363 0.10402 0.0
H991 H 0.41368 0.04671 0.1108 0.0
C992 C 0.39642 0.20727 0.16297 0.0
C993 C 0.37577 0.23799 0.172 0.0
C994 C 0.34827 0.22503 0.16811 0.0
C995 C 0.34151 0.18318 0.15515 0.0
C996 C 0.36247 0.15495 0.14619 0.0
C997 C 0.38936 0.16628 0.15005 0.0
C998 C 0.40819 0.13147 0.13836 0.0
C999 C 0.42588 0.17445 0.12759 0.0
C1000 C 0.42566 0.08691 0.14877 0.0
C1001 C 0.38774 0.09878 0.12723 0.0
C1002 C 0.36146 0.11262 0.13191 0.0
C1003 C 0.33924 0.0868 0.12354 0.0
C1004 C 0.34407 0.04487 0.11028 0.0
C1005 C 0.37092 0.02953 0.10549 0.0
C1006 C 0.3929 0.05774 0.11398 0.0
H1007 H 0.37409 0.54822 0.16564 0.0
H1008 H 0.46088 0.52364 0.17189 0.0
H1009 H 0.46903 0.59769 0.1486 0.0
H1010 H 0.37432 0.55695 0.12017 0.0
H1011 H 0.34791 0.61304 0.11905 0.0
H1012 H 0.34902 0.56101 0.13686 0.0
H1013 H 0.34996 0.65042 0.15849 0.0
H1014 H 0.34839 0.70273 0.14076 0.0
H1015 H 0.37549 0.70824 0.15631 0.0
H1016 H 0.46725 0.67349 0.12388 0.0
H1017 H 0.45569 0.74722 0.10104 0.0
H1018 H 0.37012 0.71713 0.11089 0.0
C1019 C 0.39487 0.55891 0.16234 0.0
C1020 C 0.41685 0.53029 0.17068 0.0
C1021 C 0.4437 0.5452 0.16575 0.0
C1022 C 0.44852 0.58702 0.15249 0.0
C1023 C 0.4263 0.61323 0.14427 0.0
C1024 C 0.40002 0.5999 0.1491 0.0
C1025 C 0.37958 0.63292 0.13808 0.0
C1026 C 0.36166 0.5883 0.12794 0.0
C1027 C 0.36235 0.67615 0.14906 0.0
C1028 C 0.39841 0.66709 0.12625 0.0
C1029 C 0.42529 0.65535 0.12997 0.0
C1030 C 0.44625 0.68292 0.12085 0.0
C1031 C 0.4395 0.72453 0.10785 0.0
C1032 C 0.41201 0.73785 0.10409 0.0
C1033 C 0.39135 0.70778 0.1133 0.0
H1034 H 0.34953 0.70241 0.66603 0.0
H1035 H 0.41676 0.6452 0.69813 0.0
H1036 H 0.42253 0.55437 0.6801 0.0
H1037 H 0.32387 0.54531 0.65416 0.0
H1038 H 0.31638 0.56859 0.63241 0.0
H1039 H 0.31352 0.62197 0.64989 0.0
H1040 H 0.34619 0.69423 0.63392 0.0
H1041 H 0.34963 0.64079 0.61658 0.0
H1042 H 0.37934 0.66766 0.6278 0.0
H1043 H 0.4267 0.48229 0.65646 0.0
H1044 H 0.42695 0.42549 0.62929 0.0
H1045 H 0.35691 0.52662 0.61145 0.0
C1046 C 0.36453 0.66906 0.66968 0.0
C1047 C 0.38237 0.6797 0.68364 0.0
C1048 C 0.40268 0.63698 0.68764 0.0
C1049 C 0.4061 0.58543 0.67746 0.0
C1050 C 0.38909 0.57748 0.66329 0.0
C1051 C 0.36844 0.61749 0.65945 0.0
C1052 C 0.35524 0.60173 0.64229 0.0
C1053 C 0.32548 0.58328 0.64485 0.0
C1054 C 0.35777 0.65423 0.6294 0.0
C1055 C 0.3724 0.54814 0.63685 0.0
C1056 C 0.39162 0.53495 0.64929 0.0
C1057 C 0.41141 0.49122 0.64678 0.0
C1058 C 0.41153 0.45966 0.63119 0.0
C1059 C 0.39193 0.47162 0.61826 0.0
C1060 C 0.3719 0.51608 0.62121 0.0
H1061 H 0.43703 0.19602 0.61188 0.0
H1062 H 0.36337 0.15392 0.58368 0.0
H1063 H 0.35589 0.06527 0.60225 0.0
H1064 H 0.45693 0.03438 0.62205 0.0
H1065 H 0.46871 0.05504 0.64326 0.0
H1066 H 0.47124 0.10826 0.62576 0.0
H1067 H 0.44455 0.18654 0.6438 0.0
H1068 H 0.44142 0.13335 0.66119 0.0
H1069 H 0.41149 0.16696 0.65193 0.0
H1070 H 0.35186 -0.00593 0.62617 0.0
H1071 H 0.35367 0.93523 0.65294 0.0
H1072 H 0.43032 0.0201 0.66634 0.0
C1073 C 0.42004 0.16644 0.60917 0.0
C1074 C 0.40094 0.18105 0.59622 0.0
C1075 C 0.37832 0.14295 0.59344 0.0
C1076 C 0.37391 0.09261 0.60392 0.0
C1077 C 0.39233 0.08099 0.61712 0.0
C1078 C 0.4152 0.11604 0.61968 0.0
C1079 C 0.4302 0.09679 0.6359 0.0
C1080 C 0.45845 0.07213 0.63147 0.0
C1081 C 0.432 0.14903 0.64897 0.0
C1082 C 0.41164 0.04696 0.6423 0.0
C1083 C 0.39003 0.03871 0.63117 0.0
C1084 C 0.36895 -0.0009 0.63483 0.0
C1085 C 0.37005 0.96636 0.65018 0.0
C1086 C 0.39216 0.97302 0.66173 0.0
C1087 C 0.41335 0.01363 0.65766 0.0
loop_
_geom_bond_atom_site_label_1
_geom_bond_atom_site_label_2
_geom_bond_distance
_geom_bond_site_symmetry_2
_ccdc_geom_bond_type
O0 Cd1 2.223 . S
O0 C8 1.315 . S
Cd1 O0 2.223 . S
Cd1 O4 2.297 . S
Cd1 O5 2.439 . S
Cd1 O11 2.240 . S
Cd2 O3 2.240 . S
Cd2 O10 2.223 . S
Cd2 O12 2.297 . S
Cd2 O13 2.439 . S
O3 Cd2 2.240 . S
O3 C8 1.279 . S
O4 Cd1 2.297 . S
O4 C6 1.247 . S
O5 Cd1 2.439 . S
O5 C6 1.208 . S
C6 O4 1.247 . S
C6 O5 1.208 . S
C7 O12 1.247 . S
C7 O13 1.208 . S
C8 O0 1.315 . S
C8 O3 1.279 . S
C9 O10 1.315 . S
C9 O11 1.279 . S
O10 Cd2 2.223 . S
O10 C9 1.315 . S
O11 Cd1 2.240 . S
O11 C9 1.279 . S
O12 Cd2 2.297 . S
O12 C7 1.247 . S
O13 Cd2 2.439 . S
O13 C7 1.208 . S
O14 Cd15 2.223 . S
O14 C22 1.315 . S
Cd15 O14 2.223 . S
Cd15 O18 2.297 . S
Cd15 O19 2.439 . S
Cd15 O25 2.240 . S
Cd16 O17 2.240 . S
Cd16 O24 2.223 . S
Cd16 O26 2.297 . S
Cd16 O27 2.439 . S
O17 Cd16 2.240 . S
O17 C22 1.279 . S
O18 Cd15 2.297 . S
O18 C20 1.247 . S
O19 Cd15 2.439 . S
O19 C20 1.208 . S
C20 O18 1.247 . S
C20 O19 1.208 . S
C21 O26 1.247 . S
C21 O27 1.208 . S
C22 O14 1.315 . S
C22 O17 1.279 . S
C23 O24 1.315 . S
C23 O25 1.279 . S
O24 Cd16 2.223 . S
O24 C23 1.315 . S
O25 Cd15 2.240 . S
O25 C23 1.279 . S
O26 Cd16 2.297 . S
O26 C21 1.247 . S
O27 Cd16 2.439 . S
O27 C21 1.208 . S
O28 Cd29 2.223 . S
O28 C36 1.315 . S
Cd29 O28 2.223 . S
Cd29 O32 2.297 . S
Cd29 O33 2.439 . S
Cd29 O39 2.240 . S
Cd30 O31 2.240 . S
Cd30 O38 2.223 . S
Cd30 O40 2.297 . S
Cd30 O41 2.439 . S
O31 Cd30 2.240 . S
O31 C36 1.279 . S
O32 Cd29 2.297 . S
O32 C34 1.247 . S
O33 Cd29 2.439 . S
O33 C34 1.208 . S
C34 O32 1.247 . S
C34 O33 1.208 . S
C35 O40 1.247 . S
C35 O41 1.208 . S
C36 O28 1.315 . S
C36 O31 1.279 . S
C37 O38 1.315 . S
C37 O39 1.279 . S
O38 Cd30 2.223 . S
O38 C37 1.315 . S
O39 Cd29 2.240 . S
O39 C37 1.279 . S
O40 Cd30 2.297 . S
O40 C35 1.247 . S
O41 Cd30 2.439 . S
O41 C35 1.208 . S
O42 Cd43 2.223 . S
O42 C50 1.315 . S
Cd43 O42 2.223 . S
Cd43 O46 2.297 . S
Cd43 O47 2.439 . S
Cd43 O53 2.240 . S
Cd44 O45 2.240 . S
Cd44 O52 2.223 . S
Cd44 O54 2.297 . S
Cd44 O55 2.439 . S
O45 Cd44 2.240 . S
O45 C50 1.279 . S
O46 Cd43 2.297 . S
O46 C48 1.247 . S
O47 Cd43 2.439 . S
O47 C48 1.208 . S
C48 O46 1.247 . S
C48 O47 1.208 . S
C49 O54 1.247 . S
C49 O55 1.208 . S
C50 O42 1.315 . S
C50 O45 1.279 . S
C51 O52 1.315 . S
C51 O53 1.279 . S
O52 Cd44 2.223 . S
O52 C51 1.315 . S
O53 Cd43 2.240 . S
O53 C51 1.279 . S
O54 Cd44 2.297 . S
O54 C49 1.247 . S
O55 Cd44 2.439 . S
O55 C49 1.208 . S
O56 Cd57 2.223 . S
O56 C64 1.315 . S
Cd57 O56 2.223 . S
Cd57 O60 2.297 . S
Cd57 O61 2.439 . S
Cd57 O67 2.240 . S
Cd58 O59 2.240 . S
Cd58 O66 2.223 . S
Cd58 O68 2.297 . S
Cd58 O69 2.439 . S
O59 Cd58 2.240 . S
O59 C64 1.279 . S
O60 Cd57 2.297 . S
O60 C62 1.247 . S
O61 Cd57 2.439 . S
O61 C62 1.208 . S
C62 O60 1.247 . S
C62 O61 1.208 . S
C63 O68 1.247 . S
C63 O69 1.208 . S
C64 O56 1.315 . S
C64 O59 1.279 . S
C65 O66 1.315 . S
C65 O67 1.279 . S
O66 Cd58 2.223 . S
O66 C65 1.315 . S
O67 Cd57 2.240 . S
O67 C65 1.279 . S
O68 Cd58 2.297 . S
O68 C63 1.247 . S
O69 Cd58 2.439 . S
O69 C63 1.208 . S
O70 Cd71 2.223 . S
O70 C78 1.315 . S
Cd71 O70 2.223 . S
Cd71 O74 2.297 . S
Cd71 O75 2.439 . S
Cd71 O81 2.240 . S
Cd72 O73 2.240 . S
Cd72 O80 2.223 . S
Cd72 O82 2.297 . S
Cd72 O83 2.439 . S
O73 Cd72 2.240 . S
O73 C78 1.279 . S
O74 Cd71 2.297 . S
O74 C76 1.247 . S
O75 Cd71 2.439 . S
O75 C76 1.208 . S
C76 O74 1.247 . S
C76 O75 1.208 . S
C77 O82 1.247 . S
C77 O83 1.208 . S
C78 O70 1.315 . S
C78 O73 1.279 . S
C79 O80 1.315 . S
C79 O81 1.279 . S
O80 Cd72 2.223 . S
O80 C79 1.315 . S
O81 Cd71 2.240 . S
O81 C79 1.279 . S
O82 Cd72 2.297 . S
O82 C77 1.247 . S
O83 Cd72 2.439 . S
O83 C77 1.208 . S
O84 Cd85 2.223 . S
O84 C92 1.315 . S
Cd85 O84 2.223 . S
Cd85 O88 2.297 . S
Cd85 O89 2.439 . S
Cd85 O95 2.240 . S
Cd86 O87 2.240 . S
Cd86 O94 2.223 . S
Cd86 O96 2.297 . S
Cd86 O97 2.439 . S
O87 Cd86 2.240 . S
O87 C92 1.279 . S
O88 Cd85 2.297 . S
O88 C90 1.247 . S
O89 Cd85 2.439 . S
O89 C90 1.208 . S
C90 O88 1.247 . S
C90 O89 1.208 . S
C91 O96 1.247 . S
C91 O97 1.208 . S
C92 O84 1.315 . S
C92 O87 1.279 . S
C93 O94 1.315 . S
C93 O95 1.279 . S
O94 Cd86 2.223 . S
O94 C93 1.315 . S
O95 Cd85 2.240 . S
O95 C93 1.279 . S
O96 Cd86 2.297 . S
O96 C91 1.247 . S
O97 Cd86 2.439 . S
O97 C91 1.208 . S
O98 Cd99 2.223 . S
O98 C106 1.315 . S
Cd99 O98 2.223 . S
Cd99 O102 2.297 . S
Cd99 O103 2.439 . S
Cd99 O109 2.240 . S
Cd100 O101 2.240 . S
Cd100 O108 2.223 . S
Cd100 O110 2.297 . S
Cd100 O111 2.439 . S
O101 Cd100 2.240 . S
O101 C106 1.279 . S
O102 Cd99 2.297 . S
O102 C104 1.247 . S
O103 Cd99 2.439 . S
O103 C104 1.208 . S
C104 O102 1.247 . S
C104 O103 1.208 . S
C105 O110 1.247 . S
C105 O111 1.208 . S
C106 O98 1.315 . S
C106 O101 1.279 . S
C107 O108 1.315 . S
C107 O109 1.279 . S
O108 Cd100 2.223 . S
O108 C107 1.315 . S
O109 Cd99 2.240 . S
O109 C107 1.279 . S
O110 Cd100 2.297 . S
O110 C105 1.247 . S
O111 Cd100 2.439 . S
O111 C105 1.208 . S
O112 Cd113 2.223 . S
O112 C120 1.315 . S
Cd113 O112 2.223 . S
Cd113 O116 2.297 . S
Cd113 O117 2.439 . S
Cd113 O123 2.240 . S
Cd114 O115 2.240 . S
Cd114 O122 2.223 . S
Cd114 O124 2.297 . S
Cd114 O125 2.439 . S
O115 Cd114 2.240 . S
O115 C120 1.279 . S
O116 Cd113 2.297 . S
O116 C118 1.247 . S
O117 Cd113 2.439 . S
O117 C118 1.208 . S
C118 O116 1.247 . S
C118 O117 1.208 . S
C119 O124 1.247 . S
C119 O125 1.208 . S
C120 O112 1.315 . S
C120 O115 1.279 . S
C121 O122 1.315 . S
C121 O123 1.279 . S
O122 Cd114 2.223 . S
O122 C121 1.315 . S
O123 Cd113 2.240 . S
O123 C121 1.279 . S
O124 Cd114 2.297 . S
O124 C119 1.247 . S
O125 Cd114 2.439 . S
O125 C119 1.208 . S
O126 Cd127 2.223 . S
O126 C134 1.315 . S
Cd127 O126 2.223 . S
Cd127 O130 2.297 . S
Cd127 O131 2.439 . S
Cd127 O137 2.240 . S
Cd128 O129 2.240 . S
Cd128 O136 2.223 . S
Cd128 O138 2.297 . S
Cd128 O139 2.439 . S
O129 Cd128 2.240 . S
O129 C134 1.279 . S
O130 Cd127 2.297 . S
O130 C132 1.247 . S
O131 Cd127 2.439 . S
O131 C132 1.208 . S
C132 O130 1.247 . S
C132 O131 1.208 . S
C133 O138 1.247 . S
C133 O139 1.208 . S
C134 O126 1.315 . S
C134 O129 1.279 . S
C135 O136 1.315 . S
C135 O137 1.279 . S
O136 Cd128 2.223 . S
O136 C135 1.315 . S
O137 Cd127 2.240 . S
O137 C135 1.279 . S
O138 Cd128 2.297 . S
O138 C133 1.247 . S
O139 Cd128 2.439 . S
O139 C133 1.208 . S
O140 Cd141 2.223 . S
O140 C148 1.315 . S
Cd141 O140 2.223 . S
Cd141 O144 2.297 . S
Cd141 O145 2.439 . S
Cd141 O151 2.240 . S
Cd142 O143 2.240 . S
Cd142 O150 2.223 . S
Cd142 O152 2.297 . S
Cd142 O153 2.439 . S
O143 Cd142 2.240 . S
O143 C148 1.279 . S
O144 Cd141 2.297 . S
O144 C146 1.247 . S
O145 Cd141 2.439 . S
O145 C146 1.208 . S
C146 O144 1.247 . S
C146 O145 1.208 . S
C147 O152 1.247 . S
C147 O153 1.208 . S
C148 O140 1.315 . S
C148 O143 1.279 . S
C149 O150 1.315 . S
C149 O151 1.279 . S
O150 Cd142 2.223 . S
O150 C149 1.315 . S
O151 Cd141 2.240 . S
O151 C149 1.279 . S
O152 Cd142 2.297 . S
O152 C147 1.247 . S
O153 Cd142 2.439 . S
O153 C147 1.208 . S
O154 Cd155 2.223 . S
O154 C162 1.315 . S
Cd155 O154 2.223 . S
Cd155 O158 2.297 . S
Cd155 O159 2.439 . S
Cd155 O165 2.240 . S
Cd156 O157 2.240 . S
Cd156 O164 2.223 . S
Cd156 O166 2.297 . S
Cd156 O167 2.439 . S
O157 Cd156 2.240 . S
O157 C162 1.279 . S
O158 Cd155 2.297 . S
O158 C160 1.247 . S
O159 Cd155 2.439 . S
O159 C160 1.208 . S
C160 O158 1.247 . S
C160 O159 1.208 . S
C161 O166 1.247 . S
C161 O167 1.208 . S
C162 O154 1.315 . S
C162 O157 1.279 . S
C163 O164 1.315 . S
C163 O165 1.279 . S
O164 Cd156 2.223 . S
O164 C163 1.315 . S
O165 Cd155 2.240 . S
O165 C163 1.279 . S
O166 Cd156 2.297 . S
O166 C161 1.247 . S
O167 Cd156 2.439 . S
O167 C161 1.208 . S
O168 Cd169 2.223 . S
O168 C176 1.315 . S
Cd169 O168 2.223 . S
Cd169 O172 2.297 . S
Cd169 O173 2.439 . S
Cd169 O179 2.240 . S
Cd170 O171 2.240 . S
Cd170 O178 2.223 . S
Cd170 O180 2.297 . S
Cd170 O181 2.439 . S
O171 Cd170 2.240 . S
O171 C176 1.279 . S
O172 Cd169 2.297 . S
O172 C174 1.247 . S
O173 Cd169 2.439 . S
O173 C174 1.208 . S
C174 O172 1.247 . S
C174 O173 1.208 . S
C175 O180 1.247 . S
C175 O181 1.208 . S
C176 O168 1.315 . S
C176 O171 1.279 . S
C177 O178 1.315 . S
C177 O179 1.279 . S
O178 Cd170 2.223 . S
O178 C177 1.315 . S
O179 Cd169 2.240 . S
O179 C177 1.279 . S
O180 Cd170 2.297 . S
O180 C175 1.247 . S
O181 Cd170 2.439 . S
O181 C175 1.208 . S
O182 Cd183 2.223 . S
O182 C190 1.315 . S
Cd183 O182 2.223 . S
Cd183 O186 2.297 . S
Cd183 O187 2.439 . S
Cd183 O193 2.240 . S
Cd184 O185 2.240 . S
Cd184 O192 2.223 . S
Cd184 O194 2.297 . S
Cd184 O195 2.439 . S
O185 Cd184 2.240 . S
O185 C190 1.279 . S
O186 Cd183 2.297 . S
O186 C188 1.247 . S
O187 Cd183 2.439 . S
O187 C188 1.208 . S
C188 O186 1.247 . S
C188 O187 1.208 . S
C189 O194 1.247 . S
C189 O195 1.208 . S
C190 O182 1.315 . S
C190 O185 1.279 . S
C191 O192 1.315 . S
C191 O193 1.279 . S
O192 Cd184 2.223 . S
O192 C191 1.315 . S
O193 Cd183 2.240 . S
O193 C191 1.279 . S
O194 Cd184 2.297 . S
O194 C189 1.247 . S
O195 Cd184 2.439 . S
O195 C189 1.208 . S
O196 Cd197 2.223 . S
O196 C204 1.315 . S
Cd197 O196 2.223 . S
Cd197 O200 2.297 . S
Cd197 O201 2.439 . S
Cd197 O207 2.240 . S
Cd198 O199 2.240 . S
Cd198 O206 2.223 . S
Cd198 O208 2.297 . S
Cd198 O209 2.439 . S
O199 Cd198 2.240 . S
O199 C204 1.279 . S
O200 Cd197 2.297 . S
O200 C202 1.247 . S
O201 Cd197 2.439 . S
O201 C202 1.208 . S
C202 O200 1.247 . S
C202 O201 1.208 . S
C203 O208 1.247 . S
C203 O209 1.208 . S
C204 O196 1.315 . S
C204 O199 1.279 . S
C205 O206 1.315 . S
C205 O207 1.279 . S
O206 Cd198 2.223 . S
O206 C205 1.315 . S
O207 Cd197 2.240 . S
O207 C205 1.279 . S
O208 Cd198 2.297 . S
O208 C203 1.247 . S
O209 Cd198 2.439 . S
O209 C203 1.208 . S
O210 Cd211 2.223 . S
O210 C218 1.315 . S
Cd211 O210 2.223 . S
Cd211 O214 2.297 . S
Cd211 O215 2.439 . S
Cd211 O221 2.240 . S
Cd212 O213 2.240 . S
Cd212 O220 2.223 . S
Cd212 O222 2.297 . S
Cd212 O223 2.439 . S
O213 Cd212 2.240 . S
O213 C218 1.279 . S
O214 Cd211 2.297 . S
O214 C216 1.247 . S
O215 Cd211 2.439 . S
O215 C216 1.208 . S
C216 O214 1.247 . S
C216 O215 1.208 . S
C217 O222 1.247 . S
C217 O223 1.208 . S
C218 O210 1.315 . S
C218 O213 1.279 . S
C219 O220 1.315 . S
C219 O221 1.279 . S
O220 Cd212 2.223 . S
O220 C219 1.315 . S
O221 Cd211 2.240 . S
O221 C219 1.279 . S
O222 Cd212 2.297 . S
O222 C217 1.247 . S
O223 Cd212 2.439 . S
O223 C217 1.208 . S
H224 C236 0.930 . S
H225 C238 0.930 . S
H226 C239 0.930 . S
H227 C243 0.959 . S
H228 C243 0.959 . S
H229 C243 0.961 . S
H230 C244 0.960 . S
H231 C244 0.961 . S
H232 C244 0.959 . S
H233 C247 0.929 . S
H234 C248 0.931 . S
H235 C250 0.930 . S
C236 H224 0.930 . S
C236 C237 1.399 . S
C236 C241 1.399 . S
C237 C236 1.399 . S
C237 C238 1.376 . S
C238 H225 0.930 . S
C238 C237 1.376 . S
C238 C239 1.388 . S
C239 H226 0.930 . S
C239 C238 1.388 . S
C239 C240 1.390 . S
C240 C239 1.390 . S
C240 C241 1.394 . S
C240 C246 1.465 . S
C241 C236 1.399 . S
C241 C240 1.394 . S
C241 C242 1.516 . S
C242 C241 1.516 . S
C242 C243 1.502 . S
C242 C244 1.561 . S
C242 C245 1.526 . S
C243 H227 0.959 . S
C243 H228 0.959 . S
C243 H229 0.961 . S
C243 C242 1.502 . S
C244 H230 0.960 . S
C244 H231 0.961 . S
C244 H232 0.959 . S
C244 C242 1.561 . S
C245 C242 1.526 . S
C245 C246 1.396 . S
C245 C250 1.390 . S
C246 C240 1.465 . S
C246 C245 1.396 . S
C246 C247 1.399 . S
C247 H233 0.929 . S
C247 C246 1.399 . S
C247 C248 1.385 . S
C248 H234 0.931 . S
C248 C247 1.385 . S
C248 C249 1.389 . S
C249 C248 1.389 . S
C249 C250 1.387 . S
C250 H235 0.930 . S
C250 C245 1.390 . S
C250 C249 1.387 . S
H251 C263 0.930 1_545 S
H252 C265 0.930 . S
H253 C266 0.930 . S
H254 C270 0.959 . S
H255 C270 0.959 . S
H256 C270 0.961 . S
H257 C271 0.960 . S
H258 C271 0.961 1_545 S
H259 C271 0.959 . S
H260 C274 0.942 . S
H261 C275 0.931 1_565 S
H262 C277 0.930 . S
C263 H251 0.930 1_565 S
C263 C264 1.399 . S
C263 C268 1.399 . S
C264 C263 1.399 . S
C264 C265 1.376 . S
C265 H252 0.930 . S
C265 C264 1.376 . S
C265 C266 1.388 . S
C266 H253 0.930 . S
C266 C265 1.388 . S
C266 C267 1.390 . S
C267 C266 1.390 . S
C267 C268 1.394 . S
C267 C273 1.465 1_655 S
C268 C263 1.399 . S
C268 C267 1.394 . S
C268 C269 1.516 1_665 S
C269 C268 1.516 1_445 S
C269 C270 1.502 . S
C269 C271 1.561 1_545 S
C269 C272 1.526 . S
C270 H254 0.959 . S
C270 H255 0.959 . S
C270 H256 0.961 . S
C270 C269 1.502 . S
C271 H257 0.960 . S
C271 H258 0.961 1_565 S
C271 H259 0.959 . S
C271 C269 1.561 1_565 S
C272 C269 1.526 . S
C272 C273 1.396 1_545 S
C272 C277 1.390 . S
C273 C267 1.465 1_455 S
C273 C272 1.396 1_565 S
C273 C274 1.399 . S
C274 H260 0.942 . S
C274 C273 1.399 . S
C274 C275 1.385 1_565 S
C275 H261 0.931 1_545 S
C275 C274 1.385 1_545 S
C275 C276 1.389 . S
C276 C275 1.389 . S
C276 C277 1.387 . S
C277 H262 0.930 . S
C277 C272 1.390 . S
C277 C276 1.387 . S
H278 C290 0.930 . S
H279 C292 0.932 . S
H280 C293 0.930 . S
H281 C297 0.971 . S
H282 C297 0.959 . S
H283 C297 0.961 . S
H284 C298 0.960 . S
H285 C298 0.961 . S
H286 C298 0.959 . S
H287 C301 0.929 . S
H288 C302 0.931 . S
H289 C304 0.930 1_565 S
C290 H278 0.930 . S
C290 C291 1.399 . S
C290 C295 1.399 . S
C291 C290 1.399 . S
C291 C292 1.372 1_565 S
C292 H279 0.932 . S
C292 C291 1.372 1_545 S
C292 C293 1.391 . S
C293 H280 0.930 . S
C293 C292 1.391 . S
C293 C294 1.390 . S
C294 C293 1.390 . S
C294 C295 1.394 1_545 S
C294 C300 1.465 . S
C295 C290 1.399 . S
C295 C294 1.394 1_565 S
C295 C296 1.516 . S
C296 C295 1.516 . S
C296 C297 1.502 . S
C296 C298 1.561 . S
C296 C299 1.526 . S
C297 H281 0.971 . S
C297 H282 0.959 . S
C297 H283 0.961 . S
C297 C296 1.502 . S
C298 H284 0.960 . S
C298 H285 0.961 . S
C298 H286 0.959 . S
C298 C296 1.561 . S
C299 C296 1.526 . S
C299 C300 1.396 1_565 S
C299 C304 1.390 1_565 S
C300 C294 1.465 . S
C300 C299 1.396 1_545 S
C300 C301 1.399 . S
C301 H287 0.929 . S
C301 C300 1.399 . S
C301 C302 1.385 . S
C302 H288 0.931 . S
C302 C301 1.385 . S
C302 C303 1.389 . S
C303 C302 1.389 . S
C303 C304 1.387 . S
C304 H289 0.930 1_545 S
C304 C299 1.390 1_545 S
C304 C303 1.387 . S
H305 C317 0.930 . S
H306 C319 0.930 . S
H307 C320 0.930 . S
H308 C324 0.959 . S
H309 C324 0.959 . S
H310 C324 0.961 . S
H311 C325 0.960 . S
H312 C325 0.961 . S
H313 C325 0.959 . S
H314 C328 0.929 . S
H315 C329 0.931 . S
H316 C331 0.930 . S
C317 H305 0.930 . S
C317 C318 1.399 . S
C317 C322 1.399 . S
C318 C317 1.399 . S
C318 C319 1.376 . S
C319 H306 0.930 . S
C319 C318 1.376 . S
C319 C320 1.388 . S
C320 H307 0.930 . S
C320 C319 1.388 . S
C320 C321 1.390 . S
C321 C320 1.390 . S
C321 C322 1.394 . S
C321 C327 1.465 1_455 S
C322 C317 1.399 . S
C322 C321 1.394 . S
C322 C323 1.516 . S
C323 C322 1.516 . S
C323 C324 1.502 . S
C323 C325 1.561 1_455 S
C323 C326 1.526 1_455 S
C324 H308 0.959 . S
C324 H309 0.959 . S
C324 H310 0.961 . S
C324 C323 1.502 . S
C325 H311 0.960 . S
C325 H312 0.961 . S
C325 H313 0.959 . S
C325 C323 1.561 1_655 S
C326 C323 1.526 1_655 S
C326 C327 1.396 . S
C326 C331 1.390 . S
C327 C321 1.465 1_655 S
C327 C326 1.396 . S
C327 C328 1.399 . S
C328 H314 0.929 . S
C328 C327 1.399 . S
C328 C329 1.385 . S
C329 H315 0.931 . S
C329 C328 1.385 . S
C329 C330 1.389 . S
C330 C329 1.389 . S
C330 C331 1.387 . S
C331 H316 0.930 . S
C331 C326 1.390 . S
C331 C330 1.387 . S
H332 C344 0.930 . S
H333 C346 0.930 . S
H334 C347 0.930 . S
H335 C351 0.959 . S
H336 C351 0.959 . S
H337 C351 0.961 . S
H338 C352 0.960 . S
H339 C352 0.961 . S
H340 C352 0.959 . S
H341 C355 0.929 . S
H342 C356 0.931 . S
H343 C358 0.930 . S
C344 H332 0.930 . S
C344 C345 1.399 . S
C344 C349 1.399 . S
C345 C344 1.399 . S
C345 C346 1.376 . S
C346 H333 0.930 . S
C346 C345 1.376 . S
C346 C347 1.388 . S
C347 H334 0.930 . S
C347 C346 1.388 . S
C347 C348 1.390 . S
C348 C347 1.390 . S
C348 C349 1.394 . S
C348 C354 1.465 . S
C349 C344 1.399 . S
C349 C348 1.394 . S
C349 C350 1.516 . S
C350 C349 1.516 . S
C350 C351 1.502 . S
C350 C352 1.561 . S
C350 C353 1.526 . S
C351 H335 0.959 . S
C351 H336 0.959 . S
C351 H337 0.961 . S
C351 C350 1.502 . S
C352 H338 0.960 . S
C352 H339 0.961 . S
C352 H340 0.959 . S
C352 C350 1.561 . S
C353 C350 1.526 . S
C353 C354 1.396 . S
C353 C358 1.390 . S
C354 C348 1.465 . S
C354 C353 1.396 . S
C354 C355 1.399 . S
C355 H341 0.929 . S
C355 C354 1.399 . S
C355 C356 1.385 . S
C356 H342 0.931 . S
C356 C355 1.385 . S
C356 C357 1.389 . S
C357 C356 1.389 . S
C357 C358 1.387 . S
C358 H343 0.930 . S
C358 C353 1.390 . S
C358 C357 1.387 . S
H359 C371 0.930 . S
H360 C373 0.930 . S
H361 C374 0.930 . S
H362 C378 0.959 . S
H363 C378 0.959 . S
H364 C378 0.961 . S
H365 C379 0.960 . S
H366 C379 0.961 . S
H367 C379 0.959 . S
H368 C382 0.929 . S
H369 C383 0.931 . S
H370 C385 0.930 . S
C371 H359 0.930 . S
C371 C372 1.399 1_565 S
C371 C376 1.399 . S
C372 C371 1.399 1_545 S
C372 C373 1.376 . S
C373 H360 0.930 . S
C373 C372 1.376 . S
C373 C374 1.388 . S
C374 H361 0.930 . S
C374 C373 1.388 . S
C374 C375 1.390 . S
C375 C374 1.390 . S
C375 C376 1.394 1_545 S
C375 C381 1.465 . S
C376 C371 1.399 . S
C376 C375 1.394 1_565 S
C376 C377 1.516 . S
C377 C376 1.516 . S
C377 C378 1.502 . S
C377 C379 1.561 . S
C377 C380 1.526 . S
C378 H362 0.959 . S
C378 H363 0.959 . S
C378 H364 0.961 . S
C378 C377 1.502 . S
C379 H365 0.960 . S
C379 H366 0.961 . S
C379 H367 0.959 . S
C379 C377 1.561 . S
C380 C377 1.526 . S
C380 C381 1.396 1_565 S
C380 C385 1.390 . S
C381 C375 1.465 . S
C381 C380 1.396 1_545 S
C381 C382 1.399 . S
C382 H368 0.929 . S
C382 C381 1.399 . S
C382 C383 1.385 . S
C383 H369 0.931 . S
C383 C382 1.385 . S
C383 C384 1.389 1_545 S
C384 C383 1.389 1_565 S
C384 C385 1.387 . S
C385 H370 0.930 . S
C385 C380 1.390 . S
C385 C384 1.387 . S
H386 C398 0.930 . S
H387 C400 0.930 . S
H388 C401 0.930 . S
H389 C405 0.959 . S
H390 C405 0.959 1_455 S
H391 C405 0.961 . S
H392 C406 0.960 . S
H393 C406 0.961 . S
H394 C406 0.959 . S
H395 C409 0.929 . S
H396 C410 0.931 . S
H397 C412 0.930 . S
C398 H386 0.930 . S
C398 C399 1.399 . S
C398 C403 1.399 . S
C399 C398 1.399 . S
C399 C400 1.376 . S
C400 H387 0.930 . S
C400 C399 1.376 . S
C400 C401 1.388 . S
C401 H388 0.930 . S
C401 C400 1.388 . S
C401 C402 1.390 . S
C402 C401 1.390 . S
C402 C403 1.394 . S
C402 C408 1.465 1_655 S
C403 C398 1.399 . S
C403 C402 1.394 . S
C403 C404 1.516 1_655 S
C404 C403 1.516 1_455 S
C404 C405 1.502 1_455 S
C404 C406 1.561 . S
C404 C407 1.526 . S
C405 H389 0.959 . S
C405 H390 0.959 1_655 S
C405 H391 0.961 . S
C405 C404 1.502 1_655 S
C406 H392 0.960 . S
C406 H393 0.961 . S
C406 H394 0.959 . S
C406 C404 1.561 . S
C407 C404 1.526 . S
C407 C408 1.396 . S
C407 C412 1.390 . S
C408 C402 1.465 1_455 S
C408 C407 1.396 . S
C408 C409 1.399 . S
C409 H395 0.929 . S
C409 C408 1.399 . S
C409 C410 1.385 . S
C410 H396 0.931 . S
C410 C409 1.385 . S
C410 C411 1.389 . S
C411 C410 1.389 . S
C411 C412 1.387 . S
C412 H397 0.930 . S
C412 C407 1.390 . S
C412 C411 1.387 . S
H413 C425 0.930 . S
H414 C427 0.930 . S
H415 C428 0.930 . S
H416 C432 0.959 . S
H417 C432 0.959 1_556 S
H418 C432 0.961 . S
H419 C433 0.960 . S
H420 C433 0.961 . S
H421 C433 0.959 . S
H422 C436 0.929 . S
H423 C437 0.931 . S
H424 C439 0.930 . S
C425 H413 0.930 . S
C425 C426 1.399 . S
C425 C430 1.399 . S
C426 C425 1.399 . S
C426 C427 1.376 . S
C427 H414 0.930 . S
C427 C426 1.376 . S
C427 C428 1.388 . S
C428 H415 0.930 . S
C428 C427 1.388 . S
C428 C429 1.390 . S
C429 C428 1.390 . S
C429 C430 1.394 . S
C429 C435 1.465 1_554 S
C430 C425 1.399 . S
C430 C429 1.394 . S
C430 C431 1.516 1_554 S
C431 C430 1.516 1_556 S
C431 C432 1.502 1_556 S
C431 C433 1.561 . S
C431 C434 1.526 . S
C432 H416 0.959 . S
C432 H417 0.959 1_554 S
C432 H418 0.961 . S
C432 C431 1.502 1_554 S
C433 H419 0.960 . S
C433 H420 0.961 . S
C433 H421 0.959 . S
C433 C431 1.561 . S
C434 C431 1.526 . S
C434 C435 1.396 . S
C434 C439 1.390 . S
C435 C429 1.465 1_556 S
C435 C434 1.396 . S
C435 C436 1.399 . S
C436 H422 0.929 . S
C436 C435 1.399 . S
C436 C437 1.385 . S
C437 H423 0.931 . S
C437 C436 1.385 . S
C437 C438 1.389 . S
C438 C437 1.389 . S
C438 C439 1.387 . S
C439 H424 0.930 . S
C439 C434 1.390 . S
C439 C438 1.387 . S
H440 C452 0.930 . S
H441 C454 0.930 . S
H442 C455 0.930 1_655 S
H443 C459 0.959 . S
H444 C459 0.959 . S
H445 C459 0.961 . S
H446 C460 0.960 . S
H447 C460 0.961 . S
H448 C460 0.959 1_655 S
H449 C463 0.929 . S
H450 C464 0.931 . S
H451 C466 0.930 . S
C452 H440 0.930 . S
C452 C453 1.399 . S
C452 C457 1.399 . S
C453 C452 1.399 . S
C453 C454 1.376 . S
C454 H441 0.930 . S
C454 C453 1.376 . S
C454 C455 1.388 . S
C455 H442 0.930 1_455 S
C455 C454 1.388 . S
C455 C456 1.390 . S
C456 C455 1.390 . S
C456 C457 1.394 . S
C456 C462 1.465 1_455 S
C457 C452 1.399 . S
C457 C456 1.394 . S
C457 C458 1.516 1_556 S
C458 C457 1.516 1_554 S
C458 C459 1.502 . S
C458 C460 1.561 . S
C458 C461 1.526 1_455 S
C459 H443 0.959 . S
C459 H444 0.959 . S
C459 H445 0.961 . S
C459 C458 1.502 . S
C460 H446 0.960 . S
C460 H447 0.961 . S
C460 H448 0.959 1_455 S
C460 C458 1.561 . S
C461 C458 1.526 1_655 S
C461 C462 1.396 1_554 S
C461 C466 1.390 . S
C462 C456 1.465 1_655 S
C462 C461 1.396 1_556 S
C462 C463 1.399 . S
C463 H449 0.929 . S
C463 C462 1.399 . S
C463 C464 1.385 1_556 S
C464 H450 0.931 . S
C464 C463 1.385 1_554 S
C464 C465 1.389 . S
C465 C464 1.389 . S
C465 C466 1.387 . S
C466 H451 0.930 . S
C466 C461 1.390 . S
C466 C465 1.387 . S
H467 C479 0.930 . S
H468 C481 0.930 . S
H469 C482 0.930 . S
H470 C486 0.959 . S
H471 C486 0.959 . S
H472 C486 0.961 . S
H473 C487 0.960 . S
H474 C487 0.961 . S
H475 C487 0.959 . S
H476 C490 0.929 . S
H477 C491 0.931 . S
H478 C493 0.930 . S
C479 H467 0.930 . S
C479 C480 1.399 . S
C479 C484 1.399 . S
C480 C479 1.399 . S
C480 C481 1.376 . S
C481 H468 0.930 . S
C481 C480 1.376 . S
C481 C482 1.388 . S
C482 H469 0.930 . S
C482 C481 1.388 . S
C482 C483 1.390 . S
C483 C482 1.390 . S
C483 C484 1.394 . S
C483 C489 1.465 . S
C484 C479 1.399 . S
C484 C483 1.394 . S
C484 C485 1.516 . S
C485 C484 1.516 . S
C485 C486 1.502 . S
C485 C487 1.561 . S
C485 C488 1.526 . S
C486 H470 0.959 . S
C486 H471 0.959 . S
C486 H472 0.961 . S
C486 C485 1.502 . S
C487 H473 0.960 . S
C487 H474 0.961 . S
C487 H475 0.959 . S
C487 C485 1.561 . S
C488 C485 1.526 . S
C488 C489 1.396 . S
C488 C493 1.390 . S
C489 C483 1.465 . S
C489 C488 1.396 . S
C489 C490 1.399 . S
C490 H476 0.929 . S
C490 C489 1.399 . S
C490 C491 1.385 . S
C491 H477 0.931 . S
C491 C490 1.385 . S
C491 C492 1.389 . S
C492 C491 1.389 . S
C492 C493 1.387 . S
C493 H478 0.930 . S
C493 C488 1.390 . S
C493 C492 1.387 . S
H494 C506 0.930 . S
H495 C508 0.930 . S
H496 C509 0.930 . S
H497 C513 0.959 . S
H498 C513 0.959 . S
H499 C513 0.961 . S
H500 C514 0.960 . S
H501 C514 0.961 . S
H502 C514 0.959 1_556 S
H503 C517 0.929 . S
H504 C518 0.931 . S
H505 C520 0.930 . S
C506 H494 0.930 . S
C506 C507 1.399 . S
C506 C511 1.399 . S
C507 C506 1.399 . S
C507 C508 1.376 . S
C508 H495 0.930 . S
C508 C507 1.376 . S
C508 C509 1.388 . S
C509 H496 0.930 . S
C509 C508 1.388 . S
C509 C510 1.390 . S
C510 C509 1.390 . S
C510 C511 1.394 . S
C510 C516 1.491 . S
C511 C506 1.399 . S
C511 C510 1.394 . S
C511 C512 1.516 1_556 S
C512 C511 1.516 1_554 S
C512 C513 1.502 . S
C512 C514 1.561 . S
C512 C515 1.526 . S
C513 H497 0.959 . S
C513 H498 0.959 . S
C513 H499 0.961 . S
C513 C512 1.502 . S
C514 H500 0.960 . S
C514 H501 0.961 . S
C514 H502 0.959 1_554 S
C514 C512 1.561 . S
C515 C512 1.526 . S
C515 C516 1.364 1_554 S
C515 C520 1.390 . S
C516 C510 1.491 . S
C516 C515 1.364 1_556 S
C516 C517 1.402 . S
C517 H503 0.929 . S
C517 C516 1.402 . S
C517 C518 1.385 1_556 S
C518 H504 0.931 . S
C518 C517 1.385 1_554 S
C518 C519 1.389 . S
C519 C518 1.389 . S
C519 C520 1.387 . S
C520 H505 0.930 . S
C520 C515 1.390 . S
C520 C519 1.387 . S
H521 C533 0.930 . S
H522 C535 0.930 . S
H523 C536 0.930 . S
H524 C540 0.959 . S
H525 C540 0.959 . S
H526 C540 0.961 . S
H527 C541 0.960 . S
H528 C541 0.961 . S
H529 C541 0.959 . S
H530 C544 0.929 . S
H531 C545 0.931 . S
H532 C547 0.930 . S
C533 H521 0.930 . S
C533 C534 1.399 . S
C533 C538 1.399 . S
C534 C533 1.399 . S
C534 C535 1.376 . S
C535 H522 0.930 . S
C535 C534 1.376 . S
C535 C536 1.388 . S
C536 H523 0.930 . S
C536 C535 1.388 . S
C536 C537 1.390 . S
C537 C536 1.390 . S
C537 C538 1.394 . S
C537 C543 1.465 . S
C538 C533 1.399 . S
C538 C537 1.394 . S
C538 C539 1.516 . S
C539 C538 1.516 . S
C539 C540 1.502 . S
C539 C541 1.561 . S
C539 C542 1.526 . S
C540 H524 0.959 . S
C540 H525 0.959 . S
C540 H526 0.961 . S
C540 C539 1.502 . S
C541 H527 0.960 . S
C541 H528 0.961 . S
C541 H529 0.959 . S
C541 C539 1.561 . S
C542 C539 1.526 . S
C542 C543 1.396 . S
C542 C547 1.390 . S
C543 C537 1.465 . S
C543 C542 1.396 . S
C543 C544 1.399 . S
C544 H530 0.929 . S
C544 C543 1.399 . S
C544 C545 1.385 . S
C545 H531 0.931 . S
C545 C544 1.385 . S
C545 C546 1.389 . S
C546 C545 1.389 . S
C546 C547 1.387 . S
C547 H532 0.930 . S
C547 C542 1.390 . S
C547 C546 1.387 . S
H548 C560 0.930 . S
H549 C562 0.930 . S
H550 C563 0.930 1_565 S
H551 C567 0.977 . S
H552 C567 0.958 1_545 S
H553 C567 0.954 1_545 S
H554 C568 0.960 . S
H555 C568 0.961 . S
H556 C568 0.959 . S
H557 C571 0.929 . S
H558 C572 0.931 . S
H559 C574 0.930 . S
C560 H548 0.930 . S
C560 C561 1.399 . S
C560 C565 1.399 . S
C561 C560 1.399 . S
C561 C562 1.376 . S
C562 H549 0.930 . S
C562 C561 1.376 . S
C562 C563 1.388 . S
C563 H550 0.930 1_545 S
C563 C562 1.388 . S
C563 C564 1.390 . S
C564 C563 1.390 . S
C564 C565 1.394 . S
C564 C570 1.465 1_545 S
C565 C560 1.399 . S
C565 C564 1.394 . S
C565 C566 1.516 1_556 S
C566 C565 1.516 1_554 S
C566 C567 1.494 1_545 S
C566 C568 1.561 . S
C566 C569 1.524 1_545 S
C567 H551 0.977 . S
C567 H552 0.958 1_565 S
C567 H553 0.954 1_565 S
C567 C566 1.494 1_565 S
C568 H554 0.960 . S
C568 H555 0.961 . S
C568 H556 0.959 . S
C568 C566 1.561 . S
C569 C566 1.524 1_565 S
C569 C570 1.397 1_554 S
C569 C574 1.391 . S
C570 C564 1.465 1_565 S
C570 C569 1.397 1_556 S
C570 C571 1.399 . S
C571 H557 0.929 . S
C571 C570 1.399 . S
C571 C572 1.385 1_556 S
C572 H558 0.931 . S
C572 C571 1.385 1_554 S
C572 C573 1.389 . S
C573 C572 1.389 . S
C573 C574 1.387 . S
C574 H559 0.930 . S
C574 C569 1.391 . S
C574 C573 1.387 . S
H575 C587 0.930 . S
H576 C589 0.930 . S
H577 C590 0.930 . S
H578 C594 0.959 . S
H579 C594 0.959 . S
H580 C594 0.961 . S
H581 C595 0.960 . S
H582 C595 0.961 . S
H583 C595 0.959 . S
H584 C598 0.929 . S
H585 C599 0.931 . S
H586 C601 0.930 . S
C587 H575 0.930 . S
C587 C588 1.399 . S
C587 C592 1.399 . S
C588 C587 1.399 . S
C588 C589 1.376 . S
C589 H576 0.930 . S
C589 C588 1.376 . S
C589 C590 1.388 . S
C590 H577 0.930 . S
C590 C589 1.388 . S
C590 C591 1.390 . S
C591 C590 1.390 . S
C591 C592 1.394 . S
C591 C597 1.465 . S
C592 C587 1.399 . S
C592 C591 1.394 . S
C592 C593 1.516 . S
C593 C592 1.516 . S
C593 C594 1.502 . S
C593 C595 1.561 . S
C593 C596 1.526 . S
C594 H578 0.959 . S
C594 H579 0.959 . S
C594 H580 0.961 . S
C594 C593 1.502 . S
C595 H581 0.960 . S
C595 H582 0.961 . S
C595 H583 0.959 . S
C595 C593 1.561 . S
C596 C593 1.526 . S
C596 C597 1.396 . S
C596 C601 1.390 . S
C597 C591 1.465 . S
C597 C596 1.396 . S
C597 C598 1.399 . S
C598 H584 0.929 . S
C598 C597 1.399 . S
C598 C599 1.385 . S
C599 H585 0.931 . S
C599 C598 1.385 . S
C599 C600 1.389 . S
C600 C599 1.389 . S
C600 C601 1.387 . S
C601 H586 0.930 . S
C601 C596 1.390 . S
C601 C600 1.387 . S
H602 C614 0.930 . S
H603 C616 0.930 . S
H604 C617 0.930 . S
H605 C621 0.959 . S
H606 C621 0.959 . S
H607 C621 0.961 . S
H608 C622 0.960 . S
H609 C622 0.961 . S
H610 C622 0.959 . S
H611 C625 0.929 . S
H612 C626 0.931 . S
H613 C628 0.930 . S
C614 H602 0.930 . S
C614 C615 1.399 . S
C614 C619 1.399 . S
C615 C614 1.399 . S
C615 C616 1.376 . S
C616 H603 0.930 . S
C616 C615 1.376 . S
C616 C617 1.388 . S
C617 H604 0.930 . S
C617 C616 1.388 . S
C617 C618 1.390 . S
C618 C617 1.390 . S
C618 C619 1.394 . S
C618 C624 1.465 . S
C619 C614 1.399 . S
C619 C618 1.394 . S
C619 C620 1.516 . S
C620 C619 1.516 . S
C620 C621 1.502 . S
C620 C622 1.561 . S
C620 C623 1.526 . S
C621 H605 0.959 . S
C621 H606 0.959 . S
C621 H607 0.961 . S
C621 C620 1.502 . S
C622 H608 0.960 . S
C622 H609 0.961 . S
C622 H610 0.959 . S
C622 C620 1.561 . S
C623 C620 1.526 . S
C623 C624 1.396 . S
C623 C628 1.390 . S
C624 C618 1.465 . S
C624 C623 1.396 . S
C624 C625 1.399 . S
C625 H611 0.929 . S
C625 C624 1.399 . S
C625 C626 1.385 . S
C626 H612 0.931 . S
C626 C625 1.385 . S
C626 C627 1.389 . S
C627 C626 1.389 . S
C627 C628 1.387 . S
C628 H613 0.930 . S
C628 C623 1.390 . S
C628 C627 1.387 . S
H629 C641 0.930 . S
H630 C643 0.930 . S
H631 C644 0.930 . S
H632 C648 0.959 . S
H633 C648 0.959 . S
H634 C648 0.961 . S
H635 C649 0.960 . S
H636 C649 0.961 . S
H637 C649 0.959 . S
H638 C652 0.929 . S
H639 C653 0.931 . S
H640 C655 0.930 . S
C641 H629 0.930 . S
C641 C642 1.399 . S
C641 C646 1.399 . S
C642 C641 1.399 . S
C642 C643 1.376 . S
C643 H630 0.930 . S
C643 C642 1.376 . S
C643 C644 1.388 . S
C644 H631 0.930 . S
C644 C643 1.388 . S
C644 C645 1.390 . S
C645 C644 1.390 . S
C645 C646 1.394 . S
C645 C651 1.465 . S
C646 C641 1.399 . S
C646 C645 1.394 . S
C646 C647 1.516 . S
C647 C646 1.516 . S
C647 C648 1.502 . S
C647 C649 1.561 . S
C647 C650 1.526 . S
C648 H632 0.959 . S
C648 H633 0.959 . S
C648 H634 0.961 . S
C648 C647 1.502 . S
C649 H635 0.960 . S
C649 H636 0.961 . S
C649 H637 0.959 . S
C649 C647 1.561 . S
C650 C647 1.526 . S
C650 C651 1.396 . S
C650 C655 1.390 . S
C651 C645 1.465 . S
C651 C650 1.396 . S
C651 C652 1.399 . S
C652 H638 0.929 . S
C652 C651 1.399 . S
C652 C653 1.385 . S
C653 H639 0.931 . S
C653 C652 1.385 . S
C653 C654 1.389 . S
C654 C653 1.389 . S
C654 C655 1.387 . S
C655 H640 0.930 . S
C655 C650 1.390 . S
C655 C654 1.387 . S
H656 C668 0.930 . S
H657 C670 0.930 . S
H658 C671 0.930 . S
H659 C675 0.959 . S
H660 C675 0.959 . S
H661 C675 0.961 . S
H662 C676 0.960 . S
H663 C676 0.961 . S
H664 C676 0.959 . S
H665 C679 0.929 . S
H666 C680 0.931 . S
H667 C682 0.930 1_545 S
C668 H656 0.930 . S
C668 C669 1.399 . S
C668 C673 1.399 . S
C669 C668 1.399 . S
C669 C670 1.376 . S
C670 H657 0.930 . S
C670 C669 1.376 . S
C670 C671 1.388 . S
C671 H658 0.930 . S
C671 C670 1.388 . S
C671 C672 1.390 . S
C672 C671 1.390 . S
C672 C673 1.394 . S
C672 C678 1.465 . S
C673 C668 1.399 . S
C673 C672 1.394 . S
C673 C674 1.516 . S
C674 C673 1.516 . S
C674 C675 1.502 . S
C674 C676 1.561 . S
C674 C677 1.526 . S
C675 H659 0.959 . S
C675 H660 0.959 . S
C675 H661 0.961 . S
C675 C674 1.502 . S
C676 H662 0.960 . S
C676 H663 0.961 . S
C676 H664 0.959 . S
C676 C674 1.561 . S
C677 C674 1.526 . S
C677 C678 1.396 . S
C677 C682 1.390 . S
C678 C672 1.465 . S
C678 C677 1.396 . S
C678 C679 1.399 . S
C679 H665 0.929 . S
C679 C678 1.399 . S
C679 C680 1.385 . S
C680 H666 0.931 . S
C680 C679 1.385 . S
C680 C681 1.389 . S
C681 C680 1.389 . S
C681 C682 1.387 . S
C682 H667 0.930 1_565 S
C682 C677 1.390 . S
C682 C681 1.387 . S
H683 C695 0.930 . S
H684 C697 0.930 . S
H685 C698 0.930 . S
H686 C702 0.959 . S
H687 C702 0.959 . S
H688 C702 0.961 . S
H689 C703 0.960 . S
H690 C703 0.961 . S
H691 C703 0.959 . S
H692 C706 0.929 . S
H693 C707 0.931 . S
H694 C709 0.930 . S
C695 H683 0.930 . S
C695 C696 1.399 . S
C695 C700 1.399 . S
C696 C695 1.399 . S
C696 C697 1.376 . S
C697 H684 0.930 . S
C697 C696 1.376 . S
C697 C698 1.388 . S
C698 H685 0.930 . S
C698 C697 1.388 . S
C698 C699 1.390 . S
C699 C698 1.390 . S
C699 C700 1.394 . S
C699 C705 1.465 . S
C700 C695 1.399 . S
C700 C699 1.394 . S
C700 C701 1.516 . S
C701 C700 1.516 . S
C701 C702 1.502 . S
C701 C703 1.561 . S
C701 C704 1.526 . S
C702 H686 0.959 . S
C702 H687 0.959 . S
C702 H688 0.961 . S
C702 C701 1.502 . S
C703 H689 0.960 . S
C703 H690 0.961 . S
C703 H691 0.959 . S
C703 C701 1.561 . S
C704 C701 1.526 . S
C704 C705 1.396 . S
C704 C709 1.390 . S
C705 C699 1.465 . S
C705 C704 1.396 . S
C705 C706 1.399 . S
C706 H692 0.929 . S
C706 C705 1.399 . S
C706 C707 1.385 . S
C707 H693 0.931 . S
C707 C706 1.385 . S
C707 C708 1.389 . S
C708 C707 1.389 . S
C708 C709 1.387 . S
C709 H694 0.930 . S
C709 C704 1.390 . S
C709 C708 1.387 . S
H710 C722 0.930 . S
H711 C724 0.930 . S
H712 C725 0.930 . S
H713 C729 0.959 . S
H714 C729 0.959 . S
H715 C729 0.961 . S
H716 C730 0.960 . S
H717 C730 0.961 . S
H718 C730 0.959 . S
H719 C733 0.929 . S
H720 C734 0.931 . S
H721 C736 0.930 . S
C722 H710 0.930 . S
C722 C723 1.399 . S
C722 C727 1.399 . S
C723 C722 1.399 . S
C723 C724 1.376 . S
C724 H711 0.930 . S
C724 C723 1.376 . S
C724 C725 1.388 . S
C725 H712 0.930 . S
C725 C724 1.388 . S
C725 C726 1.390 . S
C726 C725 1.390 . S
C726 C727 1.394 . S
C726 C732 1.465 . S
C727 C722 1.399 . S
C727 C726 1.394 . S
C727 C728 1.516 . S
C728 C727 1.516 . S
C728 C729 1.502 . S
C728 C730 1.561 . S
C728 C731 1.526 . S
C729 H713 0.959 . S
C729 H714 0.959 . S
C729 H715 0.961 . S
C729 C728 1.502 . S
C730 H716 0.960 . S
C730 H717 0.961 . S
C730 H718 0.959 . S
C730 C728 1.561 . S
C731 C728 1.526 . S
C731 C732 1.396 . S
C731 C736 1.390 . S
C732 C726 1.465 . S
C732 C731 1.396 . S
C732 C733 1.399 . S
C733 H719 0.929 . S
C733 C732 1.399 . S
C733 C734 1.385 . S
C734 H720 0.931 . S
C734 C733 1.385 . S
C734 C735 1.389 . S
C735 C734 1.389 . S
C735 C736 1.387 . S
C736 H721 0.930 . S
C736 C731 1.390 . S
C736 C735 1.387 . S
H737 C749 0.930 . S
H738 C751 0.930 . S
H739 C752 0.930 . S
H740 C756 0.959 . S
H741 C756 0.959 1_545 S
H742 C756 0.961 . S
H743 C757 0.960 . S
H744 C757 0.961 . S
H745 C757 0.959 . S
H746 C760 0.929 . S
H747 C761 0.931 . S
H748 C763 0.930 1_545 S
C749 H737 0.930 . S
C749 C750 1.399 . S
C749 C754 1.399 . S
C750 C749 1.399 . S
C750 C751 1.376 . S
C751 H738 0.930 . S
C751 C750 1.376 . S
C751 C752 1.388 . S
C752 H739 0.930 . S
C752 C751 1.388 . S
C752 C753 1.390 . S
C753 C752 1.390 . S
C753 C754 1.394 . S
C753 C759 1.465 . S
C754 C749 1.399 . S
C754 C753 1.394 . S
C754 C755 1.516 . S
C755 C754 1.516 . S
C755 C756 1.502 . S
C755 C757 1.561 . S
C755 C758 1.526 . S
C756 H740 0.959 . S
C756 H741 0.959 1_565 S
C756 H742 0.961 . S
C756 C755 1.502 . S
C757 H743 0.960 . S
C757 H744 0.961 . S
C757 H745 0.959 . S
C757 C755 1.561 . S
C758 C755 1.526 . S
C758 C759 1.396 . S
C758 C763 1.390 . S
C759 C753 1.465 . S
C759 C758 1.396 . S
C759 C760 1.399 . S
C760 H746 0.929 . S
C760 C759 1.399 . S
C760 C761 1.385 . S
C761 H747 0.931 . S
C761 C760 1.385 . S
C761 C762 1.389 . S
C762 C761 1.389 . S
C762 C763 1.387 . S
C763 H748 0.930 1_565 S
C763 C758 1.390 . S
C763 C762 1.387 . S
H764 C776 0.930 . S
H765 C778 0.930 . S
H766 C779 0.930 . S
H767 C783 0.959 . S
H768 C783 0.959 . S
H769 C783 0.961 . S
H770 C784 0.960 . S
H771 C784 0.961 . S
H772 C784 0.959 . S
H773 C787 0.929 . S
H774 C788 0.931 . S
H775 C790 0.930 . S
C776 H764 0.930 . S
C776 C777 1.399 . S
C776 C781 1.399 . S
C777 C776 1.399 . S
C777 C778 1.376 . S
C778 H765 0.930 . S
C778 C777 1.376 . S
C778 C779 1.388 . S
C779 H766 0.930 . S
C779 C778 1.388 . S
C779 C780 1.390 . S
C780 C779 1.390 . S
C780 C781 1.394 . S
C780 C786 1.465 . S
C781 C776 1.399 . S
C781 C780 1.394 . S
C781 C782 1.516 . S
C782 C781 1.516 . S
C782 C783 1.502 . S
C782 C784 1.561 . S
C782 C785 1.526 . S
C783 H767 0.959 . S
C783 H768 0.959 . S
C783 H769 0.961 . S
C783 C782 1.502 . S
C784 H770 0.960 . S
C784 H771 0.961 . S
C784 H772 0.959 . S
C784 C782 1.561 . S
C785 C782 1.526 . S
C785 C786 1.396 . S
C785 C790 1.390 . S
C786 C780 1.465 . S
C786 C785 1.396 . S
C786 C787 1.399 . S
C787 H773 0.929 . S
C787 C786 1.399 . S
C787 C788 1.385 1_545 S
C788 H774 0.931 . S
C788 C787 1.385 1_565 S
C788 C789 1.389 1_565 S
C789 C788 1.389 1_545 S
C789 C790 1.387 . S
C790 H775 0.930 . S
C790 C785 1.390 . S
C790 C789 1.387 . S
H791 C803 0.930 . S
H792 C805 0.930 . S
H793 C806 0.930 . S
H794 C810 0.959 . S
H795 C810 0.959 . S
H796 C810 0.961 . S
H797 C811 0.960 . S
H798 C811 0.961 . S
H799 C811 0.959 . S
H800 C814 0.929 . S
H801 C815 0.931 . S
H802 C817 0.930 . S
C803 H791 0.930 . S
C803 C804 1.399 . S
C803 C808 1.399 . S
C804 C803 1.399 . S
C804 C805 1.376 . S
C805 H792 0.930 . S
C805 C804 1.376 . S
C805 C806 1.388 . S
C806 H793 0.930 . S
C806 C805 1.388 . S
C806 C807 1.390 . S
C807 C806 1.390 . S
C807 C808 1.394 . S
C807 C813 1.465 . S
C808 C803 1.399 . S
C808 C807 1.394 . S
C808 C809 1.516 . S
C809 C808 1.516 . S
C809 C810 1.502 . S
C809 C811 1.561 . S
C809 C812 1.526 . S
C810 H794 0.959 . S
C810 H795 0.959 . S
C810 H796 0.961 . S
C810 C809 1.502 . S
C811 H797 0.960 . S
C811 H798 0.961 . S
C811 H799 0.959 . S
C811 C809 1.561 . S
C812 C809 1.526 . S
C812 C813 1.396 . S
C812 C817 1.390 . S
C813 C807 1.465 . S
C813 C812 1.396 . S
C813 C814 1.399 . S
C814 H800 0.929 . S
C814 C813 1.399 . S
C814 C815 1.385 . S
C815 H801 0.931 . S
C815 C814 1.385 . S
C815 C816 1.389 . S
C816 C815 1.389 . S
C816 C817 1.387 . S
C817 H802 0.930 . S
C817 C812 1.390 . S
C817 C816 1.387 . S
H818 C830 0.930 . S
H819 C832 0.930 . S
H820 C833 0.930 . S
H821 C837 0.959 . S
H822 C837 0.959 . S
H823 C837 0.961 . S
H824 C838 0.960 . S
H825 C838 0.961 . S
H826 C838 0.959 . S
H827 C841 0.929 . S
H828 C842 0.931 . S
H829 C844 0.930 . S
C830 H818 0.930 . S
C830 C831 1.399 . S
C830 C835 1.399 . S
C831 C830 1.399 . S
C831 C832 1.376 . S
C832 H819 0.930 . S
C832 C831 1.376 . S
C832 C833 1.388 . S
C833 H820 0.930 . S
C833 C832 1.388 . S
C833 C834 1.390 . S
C834 C833 1.390 . S
C834 C835 1.394 . S
C834 C840 1.465 . S
C835 C830 1.399 . S
C835 C834 1.394 . S
C835 C836 1.516 . S
C836 C835 1.516 . S
C836 C837 1.502 . S
C836 C838 1.561 . S
C836 C839 1.526 . S
C837 H821 0.959 . S
C837 H822 0.959 . S
C837 H823 0.961 . S
C837 C836 1.502 . S
C838 H824 0.960 . S
C838 H825 0.961 . S
C838 H826 0.959 . S
C838 C836 1.561 . S
C839 C836 1.526 . S
C839 C840 1.396 . S
C839 C844 1.390 . S
C840 C834 1.465 . S
C840 C839 1.396 . S
C840 C841 1.399 . S
C841 H827 0.929 . S
C841 C840 1.399 . S
C841 C842 1.385 . S
C842 H828 0.931 . S
C842 C841 1.385 . S
C842 C843 1.389 . S
C843 C842 1.389 . S
C843 C844 1.387 . S
C844 H829 0.930 . S
C844 C839 1.390 . S
C844 C843 1.387 . S
H845 C857 0.930 . S
H846 C859 0.930 . S
H847 C860 0.930 1_565 S
H848 C864 0.959 . S
H849 C864 0.959 . S
H850 C864 0.961 . S
H851 C865 0.960 . S
H852 C865 0.961 . S
H853 C865 0.959 . S
H854 C868 0.929 . S
H855 C869 0.931 . S
H856 C871 0.930 . S
C857 H845 0.930 . S
C857 C858 1.399 . S
C857 C862 1.399 . S
C858 C857 1.399 . S
C858 C859 1.376 1_545 S
C859 H846 0.930 . S
C859 C858 1.376 1_565 S
C859 C860 1.388 1_565 S
C860 H847 0.930 1_545 S
C860 C859 1.388 1_545 S
C860 C861 1.390 . S
C861 C860 1.390 . S
C861 C862 1.394 . S
C861 C867 1.465 . S
C862 C857 1.399 . S
C862 C861 1.394 . S
C862 C863 1.516 . S
C863 C862 1.516 . S
C863 C864 1.502 . S
C863 C865 1.561 . S
C863 C866 1.526 . S
C864 H848 0.959 . S
C864 H849 0.959 . S
C864 H850 0.961 . S
C864 C863 1.502 . S
C865 H851 0.960 . S
C865 H852 0.961 . S
C865 H853 0.959 . S
C865 C863 1.561 . S
C866 C863 1.526 . S
C866 C867 1.396 . S
C866 C871 1.390 . S
C867 C861 1.465 . S
C867 C866 1.396 . S
C867 C868 1.399 . S
C868 H854 0.929 . S
C868 C867 1.399 . S
C868 C869 1.385 . S
C869 H855 0.931 . S
C869 C868 1.385 . S
C869 C870 1.389 . S
C870 C869 1.389 . S
C870 C871 1.387 . S
C871 H856 0.930 . S
C871 C866 1.390 . S
C871 C870 1.387 . S
H872 C884 0.930 . S
H873 C886 0.930 . S
H874 C887 0.930 . S
H875 C891 0.959 . S
H876 C891 0.959 1_545 S
H877 C891 0.961 . S
H878 C892 0.960 . S
H879 C892 0.961 . S
H880 C892 0.959 . S
H881 C895 0.929 . S
H882 C896 0.931 . S
H883 C898 0.930 1_545 S
C884 H872 0.930 . S
C884 C885 1.399 . S
C884 C889 1.399 . S
C885 C884 1.399 . S
C885 C886 1.376 . S
C886 H873 0.930 . S
C886 C885 1.376 . S
C886 C887 1.388 . S
C887 H874 0.930 . S
C887 C886 1.388 . S
C887 C888 1.390 . S
C888 C887 1.390 . S
C888 C889 1.394 . S
C888 C894 1.465 . S
C889 C884 1.399 . S
C889 C888 1.394 . S
C889 C890 1.516 . S
C890 C889 1.516 . S
C890 C891 1.502 . S
C890 C892 1.561 . S
C890 C893 1.526 . S
C891 H875 0.959 . S
C891 H876 0.959 1_565 S
C891 H877 0.961 . S
C891 C890 1.502 . S
C892 H878 0.960 . S
C892 H879 0.961 . S
C892 H880 0.959 . S
C892 C890 1.561 . S
C893 C890 1.526 . S
C893 C894 1.396 . S
C893 C898 1.390 . S
C894 C888 1.465 . S
C894 C893 1.396 . S
C894 C895 1.399 . S
C895 H881 0.929 . S
C895 C894 1.399 . S
C895 C896 1.385 . S
C896 H882 0.931 . S
C896 C895 1.385 . S
C896 C897 1.389 . S
C897 C896 1.389 . S
C897 C898 1.387 . S
C898 H883 0.930 1_565 S
C898 C893 1.390 . S
C898 C897 1.387 . S
H899 C911 0.930 . S
H900 C913 0.930 . S
H901 C914 0.930 . S
H902 C918 0.959 . S
H903 C918 0.959 . S
H904 C918 0.961 . S
H905 C919 0.960 . S
H906 C919 0.961 . S
H907 C919 0.959 . S
H908 C922 0.929 . S
H909 C923 0.931 . S
H910 C925 0.930 . S
C911 H899 0.930 . S
C911 C912 1.399 . S
C911 C916 1.399 . S
C912 C911 1.399 . S
C912 C913 1.376 . S
C913 H900 0.930 . S
C913 C912 1.376 . S
C913 C914 1.388 . S
C914 H901 0.930 . S
C914 C913 1.388 . S
C914 C915 1.390 . S
C915 C914 1.390 . S
C915 C916 1.394 . S
C915 C921 1.465 . S
C916 C911 1.399 . S
C916 C915 1.394 . S
C916 C917 1.516 . S
C917 C916 1.516 . S
C917 C918 1.502 . S
C917 C919 1.561 . S
C917 C920 1.526 . S
C918 H902 0.959 . S
C918 H903 0.959 . S
C918 H904 0.961 . S
C918 C917 1.502 . S
C919 H905 0.960 . S
C919 H906 0.961 . S
C919 H907 0.959 . S
C919 C917 1.561 . S
C920 C917 1.526 . S
C920 C921 1.396 . S
C920 C925 1.390 . S
C921 C915 1.465 . S
C921 C920 1.396 . S
C921 C922 1.399 . S
C922 H908 0.929 . S
C922 C921 1.399 . S
C922 C923 1.385 . S
C923 H909 0.931 . S
C923 C922 1.385 . S
C923 C924 1.389 . S
C924 C923 1.389 . S
C924 C925 1.387 . S
C925 H910 0.930 . S
C925 C920 1.390 . S
C925 C924 1.387 . S
H926 C938 0.930 . S
H927 C940 0.930 . S
H928 C941 0.930 . S
H929 C945 0.959 . S
H930 C945 0.959 . S
H931 C945 0.961 . S
H932 C946 0.960 . S
H933 C946 0.961 . S
H934 C946 0.959 . S
H935 C949 0.929 . S
H936 C950 0.931 . S
H937 C952 0.930 . S
C938 H926 0.930 . S
C938 C939 1.399 . S
C938 C943 1.399 . S
C939 C938 1.399 . S
C939 C940 1.376 . S
C940 H927 0.930 . S
C940 C939 1.376 . S
C940 C941 1.388 . S
C941 H928 0.930 . S
C941 C940 1.388 . S
C941 C942 1.390 . S
C942 C941 1.390 . S
C942 C943 1.394 . S
C942 C948 1.465 . S
C943 C938 1.399 . S
C943 C942 1.394 . S
C943 C944 1.516 . S
C944 C943 1.516 . S
C944 C945 1.502 . S
C944 C946 1.561 . S
C944 C947 1.526 . S
C945 H929 0.959 . S
C945 H930 0.959 . S
C945 H931 0.961 . S
C945 C944 1.502 . S
C946 H932 0.960 . S
C946 H933 0.961 . S
C946 H934 0.959 . S
C946 C944 1.561 . S
C947 C944 1.526 . S
C947 C948 1.396 . S
C947 C952 1.390 . S
C948 C942 1.465 . S
C948 C947 1.396 . S
C948 C949 1.399 . S
C949 H935 0.929 . S
C949 C948 1.399 . S
C949 C950 1.385 . S
C950 H936 0.931 . S
C950 C949 1.385 . S
C950 C951 1.389 . S
C951 C950 1.389 . S
C951 C952 1.387 . S
C952 H937 0.930 . S
C952 C947 1.390 . S
C952 C951 1.387 . S
H953 C965 0.930 . S
H954 C967 0.930 . S
H955 C968 0.930 . S
H956 C972 0.959 . S
H957 C972 0.959 . S
H958 C972 0.961 . S
H959 C973 0.960 . S
H960 C973 0.961 . S
H961 C973 0.959 . S
H962 C976 0.929 . S
H963 C977 0.931 . S
H964 C979 0.930 1_545 S
C965 H953 0.930 . S
C965 C966 1.399 . S
C965 C970 1.399 . S
C966 C965 1.399 . S
C966 C967 1.376 . S
C967 H954 0.930 . S
C967 C966 1.376 . S
C967 C968 1.388 . S
C968 H955 0.930 . S
C968 C967 1.388 . S
C968 C969 1.390 . S
C969 C968 1.390 . S
C969 C970 1.394 . S
C969 C975 1.465 . S
C970 C965 1.399 . S
C970 C969 1.394 . S
C970 C971 1.516 . S
C971 C970 1.516 . S
C971 C972 1.502 . S
C971 C973 1.561 . S
C971 C974 1.526 . S
C972 H956 0.959 . S
C972 H957 0.959 . S
C972 H958 0.961 . S
C972 C971 1.502 . S
C973 H959 0.960 . S
C973 H960 0.961 . S
C973 H961 0.959 . S
C973 C971 1.561 . S
C974 C971 1.526 . S
C974 C975 1.396 . S
C974 C979 1.390 . S
C975 C969 1.465 . S
C975 C974 1.396 . S
C975 C976 1.399 . S
C976 H962 0.929 . S
C976 C975 1.399 . S
C976 C977 1.385 . S
C977 H963 0.931 . S
C977 C976 1.385 . S
C977 C978 1.389 . S
C978 C977 1.389 . S
C978 C979 1.387 . S
C979 H964 0.930 1_565 S
C979 C974 1.390 . S
C979 C978 1.387 . S
H980 C992 0.930 . S
H981 C994 0.930 . S
H982 C995 0.930 . S
H983 C999 0.959 . S
H984 C999 0.959 . S
H985 C999 0.961 . S
H986 C1000 0.960 . S
H987 C1000 0.961 1_565 S
H988 C1000 0.959 . S
H989 C1003 0.929 . S
H990 C1004 0.931 . S
H991 C1006 0.930 1_565 S
C992 H980 0.930 . S
C992 C993 1.399 . S
C992 C997 1.399 . S
C993 C992 1.399 . S
C993 C994 1.376 . S
C994 H981 0.930 . S
C994 C993 1.376 . S
C994 C995 1.388 . S
C995 H982 0.930 . S
C995 C994 1.388 . S
C995 C996 1.390 . S
C996 C995 1.390 . S
C996 C997 1.394 . S
C996 C1002 1.465 . S
C997 C992 1.399 . S
C997 C996 1.394 . S
C997 C998 1.516 . S
C998 C997 1.516 . S
C998 C999 1.502 . S
C998 C1000 1.561 . S
C998 C1001 1.526 . S
C999 H983 0.959 . S
C999 H984 0.959 . S
C999 H985 0.961 . S
C999 C998 1.502 . S
C1000 H986 0.960 . S
C1000 H987 0.961 1_545 S
C1000 H988 0.959 . S
C1000 C998 1.561 . S
C1001 C998 1.526 . S
C1001 C1002 1.396 . S
C1001 C1006 1.390 . S
C1002 C996 1.465 . S
C1002 C1001 1.396 . S
C1002 C1003 1.399 . S
C1003 H989 0.929 . S
C1003 C1002 1.399 . S
C1003 C1004 1.385 . S
C1004 H990 0.931 . S
C1004 C1003 1.385 . S
C1004 C1005 1.389 . S
C1005 C1004 1.389 . S
C1005 C1006 1.387 . S
C1006 H991 0.930 1_545 S
C1006 C1001 1.390 . S
C1006 C1005 1.387 . S
H1007 C1019 0.930 . S
H1008 C1021 0.930 . S
H1009 C1022 0.930 . S
H1010 C1026 0.959 . S
H1011 C1026 0.959 . S
H1012 C1026 0.961 . S
H1013 C1027 0.960 . S
H1014 C1027 0.961 . S
H1015 C1027 0.959 . S
H1016 C1030 0.929 . S
H1017 C1031 0.931 . S
H1018 C1033 0.930 . S
C1019 H1007 0.930 . S
C1019 C1020 1.399 . S
C1019 C1024 1.399 . S
C1020 C1019 1.399 . S
C1020 C1021 1.376 . S
C1021 H1008 0.930 . S
C1021 C1020 1.376 . S
C1021 C1022 1.388 . S
C1022 H1009 0.930 . S
C1022 C1021 1.388 . S
C1022 C1023 1.390 . S
C1023 C1022 1.390 . S
C1023 C1024 1.394 . S
C1023 C1029 1.465 . S
C1024 C1019 1.399 . S
C1024 C1023 1.394 . S
C1024 C1025 1.516 . S
C1025 C1024 1.516 . S
C1025 C1026 1.502 . S
C1025 C1027 1.561 . S
C1025 C1028 1.526 . S
C1026 H1010 0.959 . S
C1026 H1011 0.959 . S
C1026 H1012 0.961 . S
C1026 C1025 1.502 . S
C1027 H1013 0.960 . S
C1027 H1014 0.961 . S
C1027 H1015 0.959 . S
C1027 C1025 1.561 . S
C1028 C1025 1.526 . S
C1028 C1029 1.396 . S
C1028 C1033 1.390 . S
C1029 C1023 1.465 . S
C1029 C1028 1.396 . S
C1029 C1030 1.399 . S
C1030 H1016 0.929 . S
C1030 C1029 1.399 . S
C1030 C1031 1.385 . S
C1031 H1017 0.931 . S
C1031 C1030 1.385 . S
C1031 C1032 1.389 . S
C1032 C1031 1.389 . S
C1032 C1033 1.387 . S
C1033 H1018 0.930 . S
C1033 C1028 1.390 . S
C1033 C1032 1.387 . S
H1034 C1046 0.930 . S
H1035 C1048 0.930 . S
H1036 C1049 0.930 . S
H1037 C1053 0.959 . S
H1038 C1053 0.959 . S
H1039 C1053 0.961 . S
H1040 C1054 0.960 . S
H1041 C1054 0.961 . S
H1042 C1054 0.959 . S
H1043 C1057 0.929 . S
H1044 C1058 0.931 . S
H1045 C1060 0.930 . S
C1046 H1034 0.930 . S
C1046 C1047 1.399 . S
C1046 C1051 1.399 . S
C1047 C1046 1.399 . S
C1047 C1048 1.376 . S
C1048 H1035 0.930 . S
C1048 C1047 1.376 . S
C1048 C1049 1.388 . S
C1049 H1036 0.930 . S
C1049 C1048 1.388 . S
C1049 C1050 1.390 . S
C1050 C1049 1.390 . S
C1050 C1051 1.394 . S
C1050 C1056 1.465 . S
C1051 C1046 1.399 . S
C1051 C1050 1.394 . S
C1051 C1052 1.516 . S
C1052 C1051 1.516 . S
C1052 C1053 1.502 . S
C1052 C1054 1.561 . S
C1052 C1055 1.526 . S
C1053 H1037 0.959 . S
C1053 H1038 0.959 . S
C1053 H1039 0.961 . S
C1053 C1052 1.502 . S
C1054 H1040 0.960 . S
C1054 H1041 0.961 . S
C1054 H1042 0.959 . S
C1054 C1052 1.561 . S
C1055 C1052 1.526 . S
C1055 C1056 1.396 . S
C1055 C1060 1.390 . S
C1056 C1050 1.465 . S
C1056 C1055 1.396 . S
C1056 C1057 1.399 . S
C1057 H1043 0.929 . S
C1057 C1056 1.399 . S
C1057 C1058 1.385 . S
C1058 H1044 0.931 . S
C1058 C1057 1.385 . S
C1058 C1059 1.389 . S
C1059 C1058 1.389 . S
C1059 C1060 1.387 . S
C1060 H1045 0.930 . S
C1060 C1055 1.390 . S
C1060 C1059 1.387 . S
H1061 C1073 0.930 . S
H1062 C1075 0.930 . S
H1063 C1076 0.930 . S
H1064 C1080 0.959 . S
H1065 C1080 0.959 . S
H1066 C1080 0.961 . S
H1067 C1081 0.960 . S
H1068 C1081 0.961 . S
H1069 C1081 0.959 . S
H1070 C1084 0.929 . S
H1071 C1085 0.931 . S
H1072 C1087 0.930 . S
C1073 H1061 0.930 . S
C1073 C1074 1.399 . S
C1073 C1078 1.399 . S
C1074 C1073 1.399 . S
C1074 C1075 1.376 . S
C1075 H1062 0.930 . S
C1075 C1074 1.376 . S
C1075 C1076 1.388 . S
C1076 H1063 0.930 . S
C1076 C1075 1.388 . S
C1076 C1077 1.390 . S
C1077 C1076 1.390 . S
C1077 C1078 1.394 . S
C1077 C1083 1.465 . S
C1078 C1073 1.399 . S
C1078 C1077 1.394 . S
C1078 C1079 1.516 . S
C1079 C1078 1.516 . S
C1079 C1080 1.502 . S
C1079 C1081 1.561 . S
C1079 C1082 1.526 . S
C1080 H1064 0.959 . S
C1080 H1065 0.959 . S
C1080 H1066 0.961 . S
C1080 C1079 1.502 . S
C1081 H1067 0.960 . S
C1081 H1068 0.961 . S
C1081 H1069 0.959 . S
C1081 C1079 1.561 . S
C1082 C1079 1.526 . S
C1082 C1083 1.396 . S
C1082 C1087 1.390 . S
C1083 C1077 1.465 . S
C1083 C1082 1.396 . S
C1083 C1084 1.399 . S
C1084 H1070 0.929 . S
C1084 C1083 1.399 . S
C1084 C1085 1.385 1_545 S
C1085 H1071 0.931 . S
C1085 C1084 1.385 1_565 S
C1085 C1086 1.389 1_565 S
C1086 C1085 1.389 1_545 S
C1086 C1087 1.387 . S
C1087 H1072 0.930 . S
C1087 C1082 1.390 . S
C1087 C1086 1.387 . S
C237 C203 1.513 . S
C249 C7 1.460 . S
C264 C34 1.485 . S
C276 C6 1.472 . S
C291 C160 1.515 . S
C303 C20 1.450 . S
C318 C21 1.472 . S
C330 C105 1.484 . S
C345 C35 1.516 . S
C357 C175 1.454 . S
C372 C132 1.502 . S
C384 C48 1.475 . S
C399 C49 1.465 . S
C411 C77 1.492 . S
C426 C147 1.513 . S
C438 C63 1.461 . S
C453 C62 1.454 . S
C465 C90 1.505 . S
C480 C216 1.459 . S
C492 C76 1.499 . S
C507 C119 1.471 . S
C519 C91 1.486 . S
C534 C188 1.484 . S
C546 C104 1.473 . S
C561 C118 1.453 . S
C573 C146 1.506 . S
C588 C217 1.449 . S
C600 C133 1.515 . S
C615 C161 1.451 . S
C627 C189 1.510 . S
C642 C202 1.453 . S
C654 C174 1.506 . S
C669 C79 1.663 . S
C681 C8 1.663 1_565 S
C696 C9 1.697 . S
C708 C78 1.698 . S
C723 C23 1.671 . S
C735 C64 1.669 . S
C750 C65 1.683 . S
C762 C22 1.681 1_565 S
C777 C107 1.684 . S
C789 C36 1.696 1_545 S
C804 C106 1.697 . S
C816 C37 1.686 . S
C831 C92 1.698 . S
C843 C51 1.687 . S
C858 C50 1.694 1_545 S
C870 C93 1.681 . S
C885 C191 1.681 . S
C897 C120 1.679 1_565 S
C912 C121 1.668 . S
C924 C190 1.667 . S
C939 C135 1.669 . S
C951 C176 1.667 . S
C966 C177 1.688 . S
C978 C134 1.686 1_565 S
C993 C219 1.699 . S
C1005 C148 1.690 1_545 S
C1020 C218 1.698 . S
C1032 C149 1.687 . S
C1047 C163 1.664 . S
C1059 C204 1.674 . S
C1074 C205 1.665 . S
C1086 C162 1.676 1_545 S
