# Generated by pormake.
# Topology wkf, (6)-cn, num edge types: 1
# Building blocks:
#     Node 0, Type 0, BuildingBlock: IZENUY_clean_sbu_0, # of connection points: 6
#     Node 1, Type 0, BuildingBlock: IZENUY_clean_sbu_0, # of connection points: 6
#     Node 2, Type 0, BuildingBlock: IZENUY_clean_sbu_0, # of connection points: 6
#     Node 3, Type 0, BuildingBlock: IZENUY_clean_sbu_0, # of connection points: 6
#     Node 4, Type 0, BuildingBlock: IZENUY_clean_sbu_0, # of connection points: 6
#     Node 5, Type 0, BuildingBlock: IZENUY_clean_sbu_0, # of connection points: 6
#     Node 6, Type 0, BuildingBlock: IZENUY_clean_sbu_0, # of connection points: 6
#     Node 7, Type 0, BuildingBlock: IZENUY_clean_sbu_0, # of connection points: 6
#     Node 8, Type 0, BuildingBlock: IZENUY_clean_sbu_0, # of connection points: 6
#     Node 9, Type 0, BuildingBlock: IZENUY_clean_sbu_0, # of connection points: 6
#     Node 10, Type 0, BuildingBlock: IZENUY_clean_sbu_0, # of connection points: 6
#     Node 11, Type 0, BuildingBlock: IZENUY_clean_sbu_0, # of connection points: 6
#     Edge 12, Type (0, 0), BuildingBlock: OJICUG_clean_linker_0, # of connection points: 2
#     Edge 13, Type (0, 0), BuildingBlock: OJICUG_clean_linker_0, # of connection points: 2
#     Edge 14, Type (0, 0), BuildingBlock: OJICUG_clean_linker_0, # of connection points: 2
#     Edge 15, Type (0, 0), BuildingBlock: OJICUG_clean_linker_0, # of connection points: 2
#     Edge 16, Type (0, 0), BuildingBlock: OJICUG_clean_linker_0, # of connection points: 2
#     Edge 17, Type (0, 0), BuildingBlock: OJICUG_clean_linker_0, # of connection points: 2
#     Edge 18, Type (0, 0), BuildingBlock: OJICUG_clean_linker_0, # of connection points: 2
#     Edge 19, Type (0, 0), BuildingBlock: OJICUG_clean_linker_0, # of connection points: 2
#     Edge 20, Type (0, 0), BuildingBlock: OJICUG_clean_linker_0, # of connection points: 2
#     Edge 21, Type (0, 0), BuildingBlock: OJICUG_clean_linker_0, # of connection points: 2
#     Edge 22, Type (0, 0), BuildingBlock: OJICUG_clean_linker_0, # of connection points: 2
#     Edge 23, Type (0, 0), BuildingBlock: OJICUG_clean_linker_0, # of connection points: 2
#     Edge 24, Type (0, 0), BuildingBlock: OJICUG_clean_linker_0, # of connection points: 2
#     Edge 25, Type (0, 0), BuildingBlock: OJICUG_clean_linker_0, # of connection points: 2
#     Edge 26, Type (0, 0), BuildingBlock: OJICUG_clean_linker_0, # of connection points: 2
#     Edge 27, Type (0, 0), BuildingBlock: OJICUG_clean_linker_0, # of connection points: 2
#     Edge 28, Type (0, 0), BuildingBlock: OJICUG_clean_linker_0, # of connection points: 2
#     Edge 29, Type (0, 0), BuildingBlock: OJICUG_clean_linker_0, # of connection points: 2
#     Edge 30, Type (0, 0), BuildingBlock: OJICUG_clean_linker_0, # of connection points: 2
#     Edge 31, Type (0, 0), BuildingBlock: OJICUG_clean_linker_0, # of connection points: 2
#     Edge 32, Type (0, 0), BuildingBlock: OJICUG_clean_linker_0, # of connection points: 2
#     Edge 33, Type (0, 0), BuildingBlock: OJICUG_clean_linker_0, # of connection points: 2
#     Edge 34, Type (0, 0), BuildingBlock: OJICUG_clean_linker_0, # of connection points: 2
#     Edge 35, Type (0, 0), BuildingBlock: OJICUG_clean_linker_0, # of connection points: 2
#     Edge 36, Type (0, 0), BuildingBlock: OJICUG_clean_linker_0, # of connection points: 2
#     Edge 37, Type (0, 0), BuildingBlock: OJICUG_clean_linker_0, # of connection points: 2
#     Edge 38, Type (0, 0), BuildingBlock: OJICUG_clean_linker_0, # of connection points: 2
#     Edge 39, Type (0, 0), BuildingBlock: OJICUG_clean_linker_0, # of connection points: 2
#     Edge 40, Type (0, 0), BuildingBlock: OJICUG_clean_linker_0, # of connection points: 2
#     Edge 41, Type (0, 0), BuildingBlock: OJICUG_clean_linker_0, # of connection points: 2
#     Edge 42, Type (0, 0), BuildingBlock: OJICUG_clean_linker_0, # of connection points: 2
#     Edge 43, Type (0, 0), BuildingBlock: OJICUG_clean_linker_0, # of connection points: 2
#     Edge 44, Type (0, 0), BuildingBlock: OJICUG_clean_linker_0, # of connection points: 2
#     Edge 45, Type (0, 0), BuildingBlock: OJICUG_clean_linker_0, # of connection points: 2
#     Edge 46, Type (0, 0), BuildingBlock: OJICUG_clean_linker_0, # of connection points: 2
#     Edge 47, Type (0, 0), BuildingBlock: OJICUG_clean_linker_0, # of connection points: 2
# Relax obj value: 0.283
# Max RMSD: 0.255
# Mean RMSD: 0.255
data_MOF--net-wkf--node1-IZENUY_clean_sbu_0--edge1-OJICUG_clean_linker_0
_symmetry_space_group_name_H-M    P1
_symmetry_Int_Tables_number       1
_symmetry_cell_setting            triclinic
loop_
_symmetry_equiv_pos_as_xyz
'x, y, z'
_cell_length_a     20.355094
_cell_length_b     20.340179
_cell_length_c     54.219051
_cell_angle_alpha  90.022266
_cell_angle_beta   90.005542
_cell_angle_gamma 119.97783
loop_
_atom_site_label
_atom_site_type_symbol
_atom_site_fract_x
_atom_site_fract_y
_atom_site_fract_z
_atom_type_partial_charge
Fe0 Fe 0.45565 0.14114 0.36011 0.0
Fe1 Fe 0.30191 0.12116 0.37613 0.0
O2 O 0.38385 0.11452 0.38268 0.0
Fe3 Fe 0.39187 0.07985 0.41176 0.0
O4 O 0.47747 0.16553 0.41876 0.0
O5 O 0.53448 0.18189 0.3828 0.0
O6 O 0.46887 0.2351 0.35749 0.0
C7 C 0.41821 0.24951 0.3511 0.0
C8 C 0.45561 0.01703 0.37908 0.0
O9 O 0.34884 0.20069 0.35406 0.0
C10 C 0.24246 0.98652 0.40476 0.0
O11 O 0.38753 0.10341 0.33398 0.0
O12 O 0.27529 0.05152 0.35197 0.0
O13 O 0.44462 0.03344 0.40064 0.0
O14 O 0.44952 0.05015 0.36052 0.0
C15 C 0.33136 0.17662 0.42274 0.0
O16 O 0.23786 0.04267 0.3968 0.0
O17 O 0.30606 0.99097 0.40661 0.0
C18 C 0.31691 0.05461 0.33423 0.0
O19 O 0.32518 0.19077 0.40043 0.0
O20 O 0.34195 0.12177 0.42835 0.0
C21 C 0.53618 0.19679 0.40569 0.0
Fe22 Fe 0.30554 0.39549 0.57849 0.0
Fe23 Fe 0.30957 0.45983 0.52705 0.0
O24 O 0.26312 0.3882 0.54945 0.0
Fe25 Fe 0.174 0.30749 0.5427 0.0
O26 O 0.12854 0.33125 0.56716 0.0
O27 O 0.21362 0.34584 0.59504 0.0
O28 O 0.30603 0.48127 0.58557 0.0
C29 C 0.33521 0.5402 0.57261 0.0
C30 C 0.24809 0.24599 0.57099 0.0
O31 O 0.35026 0.5385 0.54988 0.0
C32 C 0.25472 0.32178 0.50078 0.0
O33 O 0.40492 0.44793 0.56734 0.0
O34 O 0.39177 0.44912 0.52719 0.0
O35 O 0.1875 0.24218 0.56317 0.0
O36 O 0.30756 0.30927 0.5731 0.0
C37 C 0.16508 0.42695 0.51863 0.0
O38 O 0.27684 0.39247 0.50068 0.0
O39 O 0.216 0.28014 0.51845 0.0
C40 C 0.43105 0.45495 0.54569 0.0
O41 O 0.23076 0.47604 0.52506 0.0
O42 O 0.14315 0.35685 0.52079 0.0
C43 C 0.14857 0.33629 0.58946 0.0
Fe44 Fe 0.90035 0.30768 0.74464 0.0
Fe45 Fe 0.83858 0.3099 0.69303 0.0
O46 O 0.8655 0.26486 0.71557 0.0
Fe47 Fe 0.85909 0.1763 0.70904 0.0
O48 O 0.78971 0.12999 0.73339 0.0
O49 O 0.85892 0.21589 0.76124 0.0
O50 O 0.81464 0.30728 0.75171 0.0
C51 C 0.78281 0.33422 0.73867 0.0
C52 C -0.00605 0.25204 0.73749 0.0
O53 O 0.79746 0.34752 0.71576 0.0
C54 C 0.92562 0.25818 0.66719 0.0
O55 O 0.94627 0.40681 0.73356 0.0
O56 O 0.92925 0.395 0.69346 0.0
O57 O 0.93777 0.19109 0.72967 0.0
O58 O -0.01072 0.31109 0.73937 0.0
C59 C 0.73062 0.16393 0.684 0.0
O60 O 0.87667 0.27985 0.66691 0.0
O61 O 0.92852 0.21932 0.68487 0.0
C62 C 0.96239 0.43423 0.71201 0.0
O63 O 0.74488 0.22901 0.69034 0.0
O64 O 0.77948 0.14342 0.687 0.0
C65 C 0.80402 0.15045 0.75568 0.0
Fe66 Fe 0.52003 0.8431 0.86001 0.0
Fe67 Fe 0.67407 0.86347 0.87586 0.0
O68 O 0.59214 0.87004 0.88249 0.0
Fe69 Fe 0.5845 0.90501 0.91157 0.0
O70 O 0.49917 0.81937 0.9187 0.0
O71 O 0.44153 0.80231 0.88281 0.0
O72 O 0.50702 0.74923 0.85736 0.0
C73 C 0.55769 0.7349 0.85093 0.0
C74 C 0.51997 0.96721 0.87898 0.0
O75 O 0.62705 0.78382 0.85383 0.0
C76 C 0.73367 -0.00152 0.90432 0.0
O77 O 0.58788 0.88091 0.83381 0.0
O78 O 0.70034 0.93291 0.85169 0.0
O79 O 0.53143 0.95114 0.90052 0.0
O80 O 0.52586 0.93395 0.86042 0.0
C81 C 0.64504 0.80826 0.92249 0.0
O82 O 0.73825 0.94218 0.89647 0.0
O83 O 0.67006 -0.00609 0.90626 0.0
C84 C 0.65851 0.92977 0.83401 0.0
O85 O 0.6511 0.79401 0.90018 0.0
O86 O 0.63478 0.86334 0.9281 0.0
C87 C 0.44027 0.78779 0.90573 0.0
Fe88 Fe 0.66694 0.52422 0.02703 0.0
Fe89 Fe 0.80207 0.67769 0.04238 0.0
O90 O 0.71313 0.59671 0.04926 0.0
Fe91 Fe 0.67111 0.59012 0.07833 0.0
O92 O 0.67087 0.50457 0.08568 0.0
O93 O 0.62803 0.44623 0.05003 0.0
O94 O 0.74666 0.50953 0.02495 0.0
C95 C 0.81199 0.55883 0.01837 0.0
C96 C 0.54431 0.52684 0.04581 0.0
O97 O 0.83333 0.62876 0.02045 0.0
C98 C 0.72789 0.73927 0.07056 0.0
O99 O 0.69808 0.59132 1.00057 0.0
O100 O 0.75942 0.70416 0.01814 0.0
O101 O 0.57177 0.53732 0.06736 0.0
O102 O 0.58313 0.53213 0.02723 0.0
C103 C 0.82823 0.64983 0.08916 0.0
O104 O 0.78852 0.74312 0.06278 0.0
O105 O 0.66859 0.67593 0.07268 0.0
C106 C 0.72026 0.66209 1.00059 0.0
O107 O 0.8481 0.65463 0.06684 0.0
O108 O 0.76322 0.64036 0.09474 0.0
C109 C 0.64265 0.44534 0.07283 0.0
Fe110 Fe 0.11655 0.80845 0.2091 0.0
Fe111 Fe 0.0754 0.67703 0.24463 0.0
O112 O 0.11027 0.71995 0.21558 0.0
Fe113 Fe 0.13738 0.67506 0.19303 0.0
O114 O 0.231 0.75606 0.19039 0.0
O115 O 0.19628 0.84156 0.18712 0.0
O116 O 0.18578 0.85475 0.2335 0.0
C117 C 0.1714 0.83422 0.25578 0.0
C118 C 0.05036 0.7268 0.16715 0.0
O119 O 0.11655 0.76875 0.26129 0.0
C120 C 0.01382 0.55052 0.21194 0.0
O121 O 0.03771 0.79342 0.22968 0.0
O122 O 0.98637 0.67342 0.23932 0.0
O123 O 0.09924 0.70503 0.1669 0.0
O124 O 0.04728 0.76549 0.18486 0.0
C125 C 0.19316 0.65082 0.23868 0.0
O126 O 0.02974 0.57796 0.2335 0.0
O127 O 0.04684 0.58985 0.19341 0.0
C128 C 0.98159 0.7324 0.23746 0.0
O129 O 0.16121 0.67764 0.25172 0.0
O130 O 0.17859 0.63756 0.21576 0.0
C131 C 0.24517 0.82112 0.1841 0.0
Fe132 Fe 0.84182 0.52447 0.50007 0.0
Fe133 Fe 0.85853 0.67684 0.48437 0.0
O134 O 0.86693 0.59605 0.47765 0.0
Fe135 Fe 0.90198 0.58862 0.4486 0.0
O136 O 0.81672 0.50286 0.44155 0.0
O137 O 0.80386 0.44572 0.47726 0.0
O138 O 0.74687 0.50834 0.50205 0.0
C139 C 0.73024 0.55746 0.50846 0.0
C140 C 0.96814 0.52927 0.48142 0.0
O141 O 0.77835 0.62756 0.50629 0.0
C142 C -0.00597 0.73815 0.45606 0.0
O143 O 0.87644 0.59189 0.52642 0.0
O144 O 0.92787 0.70418 0.50863 0.0
O145 O 0.94891 0.53613 0.45977 0.0
O146 O 0.9347 0.53513 0.49992 0.0
C147 C 0.80425 0.64791 0.43761 0.0
O148 O 0.9373 0.74207 0.46389 0.0
O149 O -0.00982 0.67481 0.45396 0.0
C150 C 0.92497 0.66256 0.52631 0.0
O151 O 0.78933 0.65311 0.45992 0.0
O152 O 0.85972 0.6383 0.43205 0.0
C153 C 0.78702 0.44396 0.45453 0.0
Fe154 Fe 0.306 0.84262 0.66712 0.0
Fe155 Fe 0.17242 0.86291 0.65103 0.0
O156 O 0.26094 0.86938 0.64453 0.0
Fe157 Fe 0.30371 0.90407 0.61546 0.0
O158 O 0.3036 0.81834 0.60847 0.0
O159 O 0.34405 0.80177 0.64445 0.0
O160 O 0.22526 0.74873 0.66973 0.0
C161 C 0.16021 0.73444 0.67605 0.0
C162 C 0.43014 0.96655 0.64818 0.0
O163 O 0.13973 0.78335 0.67308 0.0
C164 C 0.24775 -0.00242 0.62245 0.0
O165 O 0.27563 0.88047 0.69322 0.0
O166 O 0.21537 0.9325 0.6752 0.0
O167 O 0.40276 0.95031 0.62662 0.0
O168 O 0.39088 0.93349 0.66673 0.0
C169 C 0.14654 0.80753 0.60441 0.0
O170 O 0.18697 0.94147 0.63036 0.0
O171 O 0.30683 -0.00699 0.62063 0.0
C172 C 0.25389 0.92939 0.69295 0.0
O173 O 0.12616 0.79335 0.62671 0.0
O174 O 0.21197 0.86232 0.59883 0.0
C175 C 0.331 0.787 0.62154 0.0
Fe176 Fe 0.45491 0.31039 0.83375 0.0
Fe177 Fe 0.30086 0.17678 0.81784 0.0
O178 O 0.38283 0.26529 0.81126 0.0
Fe179 Fe 0.39052 0.30798 0.78219 0.0
O180 O 0.47577 0.30754 0.77505 0.0
O181 O 0.53341 0.34791 0.81097 0.0
O182 O 0.46781 0.22948 0.83639 0.0
C183 C 0.41713 0.1645 0.84281 0.0
C184 C 0.45513 0.43466 0.81481 0.0
O185 O 0.34778 0.14402 0.83985 0.0
C186 C 0.2414 0.25235 0.78943 0.0
O187 O 0.38702 0.28045 0.85992 0.0
O188 O 0.27459 0.21993 0.84203 0.0
O189 O 0.4437 0.40716 0.79326 0.0
O190 O 0.44924 0.3955 0.83335 0.0
C191 C 0.3297 0.15069 0.77117 0.0
O192 O 0.2368 0.19146 0.79725 0.0
O193 O 0.30502 0.31141 0.78753 0.0
C194 C 0.31643 0.25876 0.85969 0.0
O195 O 0.3238 0.13036 0.79347 0.0
O196 O 0.34013 0.21611 0.76561 0.0
C197 C 0.53459 0.33449 0.78806 0.0
Fe198 Fe 0.11651 0.30649 0.98431 0.0
Fe199 Fe 0.07493 0.39645 0.94874 0.0
O200 O 0.10945 0.38813 0.97781 0.0
Fe201 Fe 0.13506 0.45947 1.00045 0.0
O202 O 0.22954 0.4742 1.00296 0.0
O203 O 0.19632 0.35424 1.0063 0.0
O204 O 0.18592 0.32998 0.95996 0.0
C205 C 0.17155 0.33595 0.93767 0.0
C206 C 0.05006 0.32086 0.02631 0.0
O207 O 0.1166 0.34638 0.9321 0.0
C208 C 0.00989 0.45697 0.98156 0.0
O209 O 0.03786 0.24234 0.96368 0.0
O210 O 0.98608 0.3106 0.95382 0.0
O211 O 0.0988 0.39146 0.02658 0.0
O212 O 0.04697 0.2794 1.00852 0.0
C213 C 0.19095 0.54053 0.95501 0.0
O214 O 0.02871 0.44955 0.95993 0.0
O215 O 0.04285 0.45043 1.00007 0.0
C216 C 0.98164 0.24695 0.95577 0.0
O217 O 0.16066 0.48184 0.94192 0.0
O218 O 0.17468 0.53865 0.9778 0.0
C219 C 0.2447 0.42391 1.00924 0.0
Fe220 Fe 0.80351 0.12127 0.1512 0.0
Fe221 Fe 0.67202 0.08033 0.11572 0.0
O222 O 0.71503 0.115 0.14477 0.0
Fe223 Fe 0.67027 0.14197 0.16742 0.0
O224 O 0.75116 0.2357 0.17006 0.0
O225 O 0.83659 0.2009 0.17325 0.0
O226 O 0.84969 0.19071 0.12686 0.0
C227 C 0.82913 0.17645 0.10457 0.0
C228 C 0.72223 0.05493 0.19315 0.0
O229 O 0.76358 0.1218 0.09902 0.0
C230 C 0.54578 0.01831 0.14848 0.0
O231 O 0.78859 0.04263 0.13051 0.0
O232 O 0.66869 0.99127 0.12083 0.0
O233 O 0.70056 0.1039 0.19347 0.0
O234 O 0.76064 0.05176 0.17538 0.0
C235 C 0.64544 0.19788 0.12191 0.0
O236 O 0.57307 0.03436 0.12691 0.0
O237 O 0.58519 0.05128 0.16702 0.0
C238 C 0.72775 0.98662 0.12258 0.0
O239 O 0.67235 0.16618 0.10878 0.0
O240 O 0.63241 0.18313 0.14481 0.0
C241 C 0.81622 0.24986 0.1763 0.0
Fe242 Fe 0.58504 0.67611 0.28224 0.0
Fe243 Fe 0.52067 0.67371 0.3338 0.0
O244 O 0.59274 0.71882 0.31132 0.0
Fe245 Fe 0.67469 0.80734 0.31793 0.0
O246 O 0.65173 0.85374 0.29357 0.0
O247 O 0.63542 0.76799 0.26569 0.0
O248 O 0.49979 0.67655 0.2751 0.0
C249 C 0.44098 0.64967 0.2881 0.0
C250 C 0.73416 0.73178 0.28951 0.0
O251 O 0.44216 0.63621 0.311 0.0
C252 C 0.65918 0.72534 0.35975 0.0
O253 O 0.53187 0.57693 0.29329 0.0
O254 O 0.52635 0.58861 0.33338 0.0
O255 O 0.73875 0.79266 0.29735 0.0
O256 O 0.67056 0.6727 0.28759 0.0
C257 C 0.55841 0.81961 0.34289 0.0
O258 O 0.58858 0.70365 0.35999 0.0
O259 O 0.70099 0.76423 0.34211 0.0
C260 C 0.52048 0.54945 0.31483 0.0
O261 O 0.50776 0.75461 0.33647 0.0
O262 O 0.62777 0.84011 0.33995 0.0
C263 C 0.64589 0.83342 0.27127 0.0
C264 C 0.28024 0.95766 0.27148 0.0
C265 C 0.21054 0.89082 0.27567 0.0
H266 H 0.36942 0.06192 0.28675 0.0
C267 C 0.17708 0.87893 0.29909 0.0
H268 H 0.30758 0.96835 0.25362 0.0
C269 C 0.21159 0.93272 0.31776 0.0
C270 C 0.28122 -0.00043 0.31371 0.0
H271 H 0.12338 0.82837 0.30298 0.0
H272 H 0.18377 0.92133 0.33555 0.0
C273 C 0.31567 0.01121 0.29041 0.0
C274 C 0.29772 0.32079 0.45708 0.0
C275 C 0.27448 0.28623 0.48034 0.0
H276 H 0.33329 0.31283 0.42041 0.0
C277 C 0.27191 0.21669 0.48448 0.0
H278 H 0.30068 0.37451 0.45336 0.0
C279 C 0.29174 0.18232 0.46593 0.0
C280 C 0.31367 0.21582 0.44253 0.0
H281 H 0.25525 0.18885 0.50227 0.0
H282 H 0.28869 0.12866 0.46989 0.0
C283 C 0.31638 0.28547 0.43825 0.0
C284 C 0.04806 0.2754 0.65103 0.0
C285 C 0.98137 0.27843 0.64686 0.0
H286 H 0.1529 0.29215 0.63653 0.0
C287 C 0.97067 0.30254 0.62366 0.0
H288 H 0.05878 0.25805 0.66876 0.0
C289 C 0.02493 0.32161 0.60493 0.0
C290 C 0.09156 0.31841 0.60922 0.0
H291 H 0.92015 0.30586 0.61991 0.0
H292 H 0.0149 0.33917 0.58713 0.0
C293 C 0.10255 0.29561 0.63257 0.0
C294 C 0.69514 0.02687 0.77129 0.0
C295 C 0.76475 0.09381 0.77554 0.0
H296 H 0.60604 0.92245 0.78648 0.0
C297 C 0.79806 0.10574 0.79899 0.0
H298 H 0.66792 0.01614 0.75341 0.0
C299 C 0.76354 0.05189 0.81762 0.0
C300 C 0.69404 0.98492 0.81351 0.0
H301 H 0.85166 0.15637 0.80293 0.0
H302 H 0.79126 0.06333 0.83544 0.0
C303 C 0.65969 0.97325 0.7902 0.0
C304 C 0.68368 0.80183 0.96576 0.0
C305 C 0.66225 0.76868 0.94228 0.0
H306 H 0.71936 0.79476 1.00215 0.0
C307 C 0.65941 0.69896 0.93796 0.0
H308 H 0.68676 0.85548 0.96976 0.0
C309 C 0.67757 0.66329 0.95681 0.0
C310 C 0.70041 0.69756 0.98014 0.0
H311 H 0.64284 0.67184 0.92007 0.0
H312 H 0.67465 0.6096 0.95305 0.0
C313 C 0.703 0.76711 0.98432 0.0
C314 C 0.92836 0.71026 0.15082 0.0
C315 C -0.00508 0.70694 0.14673 0.0
H316 H 0.82385 0.69406 0.13621 0.0
C317 C 0.00578 0.68298 0.12351 0.0
H318 H 0.91751 0.72754 0.16855 0.0
C319 C 0.95176 0.66427 0.10471 0.0
C320 C 0.88523 0.66771 0.10894 0.0
H321 H 0.05621 0.67946 0.11982 0.0
H322 H 0.96186 0.64675 0.08691 0.0
C323 C 0.87413 0.69043 0.13228 0.0
C324 C 0.10129 0.80194 0.5612 0.0
C325 C 0.08971 0.7684 0.5846 0.0
H326 H 0.0583 0.79548 0.52486 0.0
C327 C 0.02284 0.69877 0.58886 0.0
H328 H 0.15186 0.85559 0.55726 0.0
C329 C 0.96893 0.66351 0.57002 0.0
C330 C 0.98023 0.6981 0.54677 0.0
H331 H 0.01238 0.67138 0.6067 0.0
H332 H 0.91821 0.6098 0.57373 0.0
C333 C 0.04713 0.76762 0.54264 0.0
C334 C 0.29653 0.97322 0.7367 0.0
C335 C 0.27345 0.98464 0.71342 0.0
H336 H 0.33178 0.01648 0.77342 0.0
C337 C 0.27065 0.05152 0.70932 0.0
H338 H 0.2996 0.9225 0.7404 0.0
C339 C 0.29019 0.10554 0.72793 0.0
C340 C 0.31206 0.09388 0.75134 0.0
H341 H 0.25403 0.06276 0.69154 0.0
H342 H 0.28702 0.15611 0.724 0.0
C343 C 0.31492 0.02701 0.75557 0.0
C344 C 0.28024 0.32085 0.92218 0.0
C345 C 0.21072 0.31827 0.91787 0.0
H346 H 0.36909 0.30487 0.90713 0.0
C347 C 0.17729 0.29642 0.89444 0.0
H348 H 0.30754 0.33769 0.94004 0.0
C349 C 0.21162 0.2765 0.8759 0.0
C350 C 0.28102 0.27889 0.88009 0.0
H351 H 0.12373 0.29349 0.89046 0.0
H352 H 0.18383 0.25985 0.85811 0.0
C353 C 0.31549 0.30208 0.90337 0.0
C354 C 0.87399 0.1816 0.06132 0.0
C355 C 0.88582 0.21532 0.08471 0.0
H356 H 0.91664 0.18782 0.02493 0.0
C357 C 0.95279 0.28488 0.08893 0.0
H358 H 0.82334 0.12797 0.05741 0.0
C359 C 0.00652 0.31996 0.07005 0.0
C360 C -0.00505 0.28528 0.04679 0.0
H361 H 0.96345 0.31239 0.10676 0.0
H362 H 0.0573 0.37366 0.07374 0.0
C363 C 0.92798 0.21576 0.04271 0.0
C364 C 0.68572 0.87868 0.22806 0.0
C365 C 0.66369 0.89028 0.25146 0.0
H366 H 0.72215 0.92157 0.19171 0.0
C367 C 0.66085 0.95716 0.25571 0.0
H368 H 0.68888 0.8281 0.22413 0.0
C369 C 0.6794 0.01102 0.23686 0.0
C370 C 0.70263 -0.00035 0.2136 0.0
H371 H 0.64389 0.96765 0.27354 0.0
H372 H 0.67633 0.06173 0.24057 0.0
C373 C 0.70542 0.93277 0.20949 0.0
C374 C 0.69523 0.66249 0.42211 0.0
C375 C 0.76501 0.6656 0.41783 0.0
H376 H 0.60616 0.67814 0.40708 0.0
C377 C 0.79865 0.68805 0.39447 0.0
H378 H 0.66775 0.64517 0.43993 0.0
C379 C 0.76428 0.70804 0.37596 0.0
C380 C 0.69463 0.70515 0.38012 0.0
H381 H 0.85241 0.69141 0.39051 0.0
H382 H 0.79226 0.72515 0.35821 0.0
C383 C 0.65995 0.68135 0.40334 0.0
C384 C 0.58546 0.94845 0.35681 0.0
C385 C 0.53547 0.86989 0.3553 0.0
H386 H 0.59849 0.05701 0.36594 0.0
C387 C 0.46151 0.83967 0.36488 0.0
H388 H 0.6426 0.97341 0.34961 0.0
C389 C 0.43699 0.88735 0.37469 0.0
C390 C 0.48585 0.96594 0.37494 0.0
H391 H 0.42173 0.77923 0.36419 0.0
H392 H 0.37875 0.86326 0.38078 0.0
C393 C 0.5605 -0.00386 0.36631 0.0
C394 C 0.52652 0.42862 0.5277 0.0
C395 C 0.5106 0.47785 0.54108 0.0
H396 H 0.60808 0.41519 0.50698 0.0
C397 C 0.56796 0.5535 0.54461 0.0
H398 H 0.48233 0.37066 0.52417 0.0
C399 C 0.63999 0.58008 0.53418 0.0
C400 C 0.65546 0.53103 0.52024 0.0
H401 H 0.55584 0.59291 0.55426 0.0
H402 H 0.68295 0.63904 0.53667 0.0
C403 C 0.59831 0.45461 0.51762 0.0
C404 C 0.13985 0.61771 0.69831 0.0
C405 C 0.10976 0.66121 0.68839 0.0
H406 H 0.11603 0.51153 0.71444 0.0
C407 C 0.03115 0.63242 0.68948 0.0
H408 H 0.20032 0.63859 0.69794 0.0
C409 C 0.98333 0.55977 0.69889 0.0
C410 C 0.01342 0.51554 0.70788 0.0
H411 H 0.00631 0.66443 0.68199 0.0
H412 H 0.92249 0.53672 0.6982 0.0
C413 C 0.092 0.54552 0.70806 0.0
C414 C 0.51371 0.1445 0.86504 0.0
C415 C 0.44 0.11421 0.85523 0.0
H416 H 0.59629 0.12098 0.88113 0.0
C417 C 0.3902 0.03559 0.85651 0.0
H418 H 0.5533 0.205 0.86452 0.0
C419 C 0.41516 0.98792 0.866 0.0
C420 C 0.4896 0.01819 0.87486 0.0
H421 H 0.33325 0.01059 0.84912 0.0
H422 H 0.37737 0.92702 0.86544 0.0
C423 C 0.5382 0.09682 0.87486 0.0
C424 C 0.36316 0.52284 0.03007 0.0
C425 C 0.31803 0.44754 0.02167 0.0
H426 H 0.47041 0.60658 0.04513 0.0
C427 C 0.34506 0.39657 0.02455 0.0
H428 H 0.34383 0.5635 0.02831 0.0
C429 C 0.4174 0.42155 0.03428 0.0
C430 C 0.46319 0.49736 0.04172 0.0
H431 H 0.31181 0.33837 0.0183 0.0
H432 H 0.43907 0.38255 0.03496 0.0
C433 C 0.43513 0.54747 0.04003 0.0
C434 C 0.8846 0.43808 0.2088 0.0
C435 C 0.96327 0.46913 0.2078 0.0
H436 H 0.77608 0.34397 0.19939 0.0
C437 C -0.00649 0.42574 0.19816 0.0
H438 H 0.86042 0.47137 0.21573 0.0
C439 C 0.94568 0.35288 0.18889 0.0
C440 C 0.86688 0.32309 0.18858 0.0
H441 H 0.05438 0.44959 0.19687 0.0
H442 H 0.97054 0.32153 0.18088 0.0
C443 C 0.83671 0.3657 0.19916 0.0
C444 C 0.00692 0.43096 0.4824 0.0
C445 C 0.0249 0.5065 0.48604 0.0
H446 H 0.03668 0.34551 0.49027 0.0
C447 C 0.08983 0.55569 0.4995 0.0
H448 H 0.95558 0.39159 0.47269 0.0
C449 C 0.1357 0.52973 0.50957 0.0
C450 C 0.11672 0.45339 0.50685 0.0
H451 H 0.10335 0.61356 0.50309 0.0
H452 H 0.18471 0.56909 0.52027 0.0
C453 C 0.05245 0.40441 0.49283 0.0
C454 C 0.55524 0.98695 0.66154 0.0
C455 C 0.51148 0.01729 0.65233 0.0
H456 H 0.65965 0.00967 0.67856 0.0
C457 C 0.54205 0.096 0.65184 0.0
H458 H 0.53175 0.92603 0.66246 0.0
C459 C 0.61435 0.14376 0.66153 0.0
C460 C 0.65738 0.11346 0.67168 0.0
H461 H 0.50847 0.12025 0.64527 0.0
H462 H 0.63569 0.20437 0.66168 0.0
C463 C 0.62801 0.03467 0.67089 0.0
C464 C 0.46103 0.61806 0.8288 0.0
C465 C 0.53481 0.66167 0.83855 0.0
H466 H 0.37849 0.51179 0.81278 0.0
C467 C 0.58473 0.63298 0.83722 0.0
H468 H 0.42135 0.63884 0.82935 0.0
C469 C 0.55984 0.56033 0.82775 0.0
C470 C 0.48536 0.51599 0.81894 0.0
H471 H 0.64172 0.66508 0.84456 0.0
H472 H 0.59774 0.53735 0.82827 0.0
C473 C 0.43662 0.54586 0.819 0.0
C474 C 0.84176 0.45629 1.00933 0.0
C475 C 0.86076 0.53267 1.0067 0.0
H476 H 0.87426 0.37256 1.00289 0.0
C477 C 0.92544 0.58188 0.99289 0.0
H478 H 0.79246 0.41673 0.01985 0.0
C479 C 0.9713 0.55551 0.98261 0.0
C480 C 0.95322 0.47989 0.98615 0.0
H481 H 0.94127 0.64082 0.99042 0.0
H482 H 0.02291 0.59502 0.97306 0.0
C483 C 0.88791 0.4305 0.99938 0.0
C484 C 0.43325 0.88909 0.15168 0.0
C485 C 0.46441 0.96785 0.15264 0.0
H486 H 0.33908 0.78064 0.1611 0.0
C487 C 0.42116 -0.00172 0.16223 0.0
H488 H 0.46642 0.86475 0.14479 0.0
C489 C 0.34831 0.95057 0.17149 0.0
C490 C 0.31839 0.87169 0.17183 0.0
H491 H 0.44508 0.05922 0.16349 0.0
H492 H 0.31706 0.97559 0.17946 0.0
C493 C 0.36089 0.84133 0.1613 0.0
C494 C 0.53936 0.43856 0.31924 0.0
C495 C 0.49038 0.46814 0.31896 0.0
H496 H 0.55488 0.34592 0.3298 0.0
C497 C 0.41576 0.42363 0.32761 0.0
H498 H 0.59759 0.47279 0.31314 0.0
C499 C 0.39097 0.35108 0.33714 0.0
C500 C 0.44108 0.32267 0.33868 0.0
H501 H 0.37768 0.4464 0.32797 0.0
H502 H 0.33384 0.31885 0.34436 0.0
C503 C 0.51501 0.36646 0.32909 0.0
C504 C 0.05349 0.86791 0.43696 0.0
C505 C 0.05848 0.80412 0.44412 0.0
H506 H 0.10719 0.97524 0.41832 0.0
C507 C 0.12342 0.80039 0.43771 0.0
H508 H 0.00375 0.87198 0.44138 0.0
C509 C 0.18188 0.85871 0.42435 0.0
C510 C 0.17702 0.92238 0.41704 0.0
H511 H 0.12896 0.75192 0.44286 0.0
H512 H 0.23118 0.85391 0.41984 0.0
C513 C 0.11218 0.92645 0.42344 0.0
C514 C 0.1777 0.11632 0.59011 0.0
C515 C 0.24649 0.18001 0.58297 0.0
H516 H 0.12395 0.00906 0.60878 0.0
C517 C 0.31506 0.18364 0.58945 0.0
H518 H 0.12396 0.11235 0.58564 0.0
C519 C 0.31509 0.12532 0.60286 0.0
C520 C 0.24655 0.06175 0.61015 0.0
H521 H 0.36908 0.23203 0.58431 0.0
H522 H 0.36911 0.13003 0.60742 0.0
C523 C 0.17773 0.05778 0.60368 0.0
C524 C 0.11192 0.18225 0.77032 0.0
C525 C 0.17605 0.25114 0.77716 0.0
H526 H 0.00446 0.1283 0.75183 0.0
C527 C 0.18046 0.31975 0.7702 0.0
H528 H 0.10732 0.12844 0.77516 0.0
C529 C 0.12225 0.31967 0.75669 0.0
C530 C 0.05816 0.25097 0.74976 0.0
H531 H 0.22926 0.37382 0.77508 0.0
H532 H 0.12738 0.37367 0.75178 0.0
C533 C 0.05359 0.18216 0.75664 0.0
C534 C 0.86346 0.05841 0.92329 0.0
C535 C 0.79916 0.06289 0.91647 0.0
H536 H 0.97117 0.11247 0.94164 0.0
C537 C 0.79477 0.1272 0.92331 0.0
H538 H 0.86807 0.00914 0.91853 0.0
C539 C 0.85312 0.18568 0.93669 0.0
C540 C 0.91738 0.18136 0.9436 0.0
H541 H 0.74587 0.1323 0.91845 0.0
H542 H 0.84796 0.23461 0.94151 0.0
C543 C 0.92195 0.11702 0.93683 0.0
C544 C 0.66052 0.85941 0.10257 0.0
C545 C 0.72899 0.92271 0.11008 0.0
H546 H 0.60676 0.75315 0.0837 0.0
C547 C 0.79788 0.92677 0.10366 0.0
H548 H 0.60647 0.85467 0.10708 0.0
C549 C 0.79807 0.86856 0.08994 0.0
C550 C 0.72936 0.8051 0.08259 0.0
H551 H 0.85161 0.97531 0.10893 0.0
H552 H 0.85185 0.87256 0.08552 0.0
C553 C 0.66071 0.8014 0.089 0.0
C554 C 0.86355 0.80198 0.27038 0.0
C555 C 0.79949 0.73305 0.27721 0.0
H556 H 0.97093 0.85603 0.25186 0.0
C557 C 0.79514 0.66447 0.27022 0.0
H558 H 0.86811 0.85576 0.27524 0.0
C559 C 0.85333 0.66463 0.25668 0.0
C560 C 0.91735 0.73336 0.24976 0.0
H561 H 0.74639 0.61038 0.27509 0.0
H562 H 0.84826 0.61065 0.25174 0.0
C563 C 0.92186 0.80213 0.25667 0.0
C564 C 0.72901 0.36798 0.41646 0.0
C565 C 0.73066 0.37301 0.44242 0.0
H566 H 0.6664 0.30773 0.38436 0.0
C567 C 0.67297 0.31415 0.45608 0.0
H568 H 0.77339 0.41229 0.40541 0.0
C569 C 0.61165 0.25448 0.44396 0.0
C570 C 0.60725 0.25239 0.41796 0.0
H571 H 0.67279 0.31649 0.47605 0.0
H572 H 0.56603 0.21161 0.45502 0.0
C573 C 0.66798 0.30804 0.40433 0.0
C574 C 0.35184 0.67586 0.62286 0.0
C575 C 0.34666 0.73153 0.60925 0.0
H576 H 0.35323 0.57167 0.62174 0.0
C577 C 0.34908 0.7296 0.58326 0.0
H578 H 0.35051 0.67607 0.64284 0.0
C579 C 0.35089 0.67002 0.5711 0.0
C580 C 0.34977 0.6111 0.58474 0.0
H581 H 0.3463 0.77252 0.57221 0.0
H582 H 0.34842 0.66777 0.55114 0.0
C583 C 0.3531 0.61602 0.61071 0.0
C584 C 0.60919 0.35128 0.74971 0.0
C585 C 0.60507 0.34874 0.7757 0.0
H586 H 0.66925 0.34952 0.71749 0.0
C587 C 0.66516 0.35197 0.78922 0.0
H588 H 0.56403 0.34993 0.73874 0.0
C589 C 0.72528 0.35166 0.77697 0.0
C590 C 0.72662 0.34863 0.75099 0.0
H591 H 0.66372 0.3504 0.8092 0.0
H592 H 0.76924 0.35061 0.78794 0.0
C593 C 0.66957 0.35148 0.73746 0.0
C594 C 0.30855 0.6764 0.90464 0.0
C595 C 0.36955 0.73219 0.91815 0.0
H596 H 0.20332 0.57208 0.90591 0.0
C597 C 0.36583 0.73021 0.94416 0.0
H598 H 0.30958 0.67663 0.88466 0.0
C599 C 0.30496 0.67049 0.95641 0.0
C600 C 0.24704 0.61147 0.94285 0.0
H601 H 0.41166 0.77323 0.95514 0.0
H602 H 0.30565 0.66826 0.97637 0.0
C603 C 0.24795 0.61644 0.91688 0.0
C604 C 0.62679 0.25509 0.08373 0.0
C605 C 0.63045 0.25387 0.1097 0.0
H606 H 0.62685 0.31638 0.05159 0.0
C607 C 0.62741 0.31075 0.12331 0.0
H608 H 0.62798 0.21127 0.0727 0.0
C609 C 0.62682 0.3709 0.11114 0.0
C610 C 0.62868 0.37489 0.08515 0.0
H611 H 0.62983 0.31113 0.14328 0.0
H612 H 0.62816 0.41601 0.12215 0.0
C613 C 0.62564 0.31494 0.07156 0.0
C614 C 0.31069 0.63288 0.28927 0.0
C615 C 0.37056 0.63565 0.27575 0.0
H616 H 0.20693 0.63486 0.28798 0.0
C617 C 0.36636 0.63298 0.24976 0.0
H618 H 0.31221 0.63459 0.30924 0.0
C619 C 0.30613 0.63307 0.2375 0.0
C620 C 0.2493 0.63635 0.25102 0.0
H621 H 0.41135 0.63399 0.2388 0.0
H622 H 0.30637 0.63487 0.21753 0.0
C623 C 0.25071 0.63348 0.27701 0.0
loop_
_geom_bond_atom_site_label_1
_geom_bond_atom_site_label_2
_geom_bond_distance
_geom_bond_site_symmetry_2
_ccdc_geom_bond_type
Fe0 O2 1.918 . S
Fe0 O5 1.997 . S
Fe0 O6 2.002 . S
Fe0 O11 1.976 . S
Fe0 O14 1.996 . S
Fe1 O2 1.918 . S
Fe1 O9 1.997 . S
Fe1 O12 1.996 . S
Fe1 O16 1.976 . S
Fe1 O19 2.002 . S
O2 Fe0 1.918 . S
O2 Fe1 1.918 . S
O2 Fe3 1.918 . S
Fe3 O2 1.918 . S
Fe3 O4 2.002 . S
Fe3 O13 1.976 . S
Fe3 O17 1.996 . S
Fe3 O20 1.997 . S
O4 Fe3 2.002 . S
O4 C21 1.295 . S
O5 Fe0 1.997 . S
O5 C21 1.235 . S
O6 Fe0 2.002 . S
O6 C7 1.295 . S
C7 O6 1.295 . S
C7 O9 1.235 . S
C8 O13 1.287 . S
C8 O14 1.255 . S
O9 Fe1 1.997 . S
O9 C7 1.235 . S
C10 O16 1.287 1_565 S
C10 O17 1.255 1_565 S
O11 Fe0 1.976 . S
O11 C18 1.287 . S
O12 Fe1 1.996 . S
O12 C18 1.255 . S
O13 Fe3 1.976 . S
O13 C8 1.287 . S
O14 Fe0 1.996 . S
O14 C8 1.255 . S
C15 O19 1.295 . S
C15 O20 1.235 . S
O16 Fe1 1.976 . S
O16 C10 1.287 1_545 S
O17 Fe3 1.996 . S
O17 C10 1.255 1_545 S
C18 O11 1.287 . S
C18 O12 1.255 . S
O19 Fe1 2.002 . S
O19 C15 1.295 . S
O20 Fe3 1.997 . S
O20 C15 1.235 . S
C21 O4 1.295 . S
C21 O5 1.235 . S
Fe22 O24 1.918 . S
Fe22 O27 1.997 . S
Fe22 O28 2.002 . S
Fe22 O33 1.976 . S
Fe22 O36 1.996 . S
Fe23 O24 1.918 . S
Fe23 O31 1.997 . S
Fe23 O34 1.996 . S
Fe23 O38 1.976 . S
Fe23 O41 2.002 . S
O24 Fe22 1.918 . S
O24 Fe23 1.918 . S
O24 Fe25 1.918 . S
Fe25 O24 1.918 . S
Fe25 O26 2.002 . S
Fe25 O35 1.976 . S
Fe25 O39 1.996 . S
Fe25 O42 1.997 . S
O26 Fe25 2.002 . S
O26 C43 1.295 . S
O27 Fe22 1.997 . S
O27 C43 1.235 . S
O28 Fe22 2.002 . S
O28 C29 1.295 . S
C29 O28 1.295 . S
C29 O31 1.235 . S
C30 O35 1.287 . S
C30 O36 1.255 . S
O31 Fe23 1.997 . S
O31 C29 1.235 . S
C32 O38 1.287 . S
C32 O39 1.255 . S
O33 Fe22 1.976 . S
O33 C40 1.287 . S
O34 Fe23 1.996 . S
O34 C40 1.255 . S
O35 Fe25 1.976 . S
O35 C30 1.287 . S
O36 Fe22 1.996 . S
O36 C30 1.255 . S
C37 O41 1.295 . S
C37 O42 1.235 . S
O38 Fe23 1.976 . S
O38 C32 1.287 . S
O39 Fe25 1.996 . S
O39 C32 1.255 . S
C40 O33 1.287 . S
C40 O34 1.255 . S
O41 Fe23 2.002 . S
O41 C37 1.295 . S
O42 Fe25 1.997 . S
O42 C37 1.235 . S
C43 O26 1.295 . S
C43 O27 1.235 . S
Fe44 O46 1.918 . S
Fe44 O49 1.997 . S
Fe44 O50 2.002 . S
Fe44 O55 1.976 . S
Fe44 O58 1.996 . S
Fe45 O46 1.918 . S
Fe45 O53 1.997 . S
Fe45 O56 1.996 . S
Fe45 O60 1.976 . S
Fe45 O63 2.002 . S
O46 Fe44 1.918 . S
O46 Fe45 1.918 . S
O46 Fe47 1.918 . S
Fe47 O46 1.918 . S
Fe47 O48 2.002 . S
Fe47 O57 1.976 . S
Fe47 O61 1.996 . S
Fe47 O64 1.997 . S
O48 Fe47 2.002 . S
O48 C65 1.295 . S
O49 Fe44 1.997 . S
O49 C65 1.235 . S
O50 Fe44 2.002 . S
O50 C51 1.295 . S
C51 O50 1.295 . S
C51 O53 1.235 . S
C52 O57 1.287 1_455 S
C52 O58 1.255 1_455 S
O53 Fe45 1.997 . S
O53 C51 1.235 . S
C54 O60 1.287 . S
C54 O61 1.255 . S
O55 Fe44 1.976 . S
O55 C62 1.287 . S
O56 Fe45 1.996 . S
O56 C62 1.255 . S
O57 Fe47 1.976 . S
O57 C52 1.287 1_655 S
O58 Fe44 1.996 . S
O58 C52 1.255 1_655 S
C59 O63 1.295 . S
C59 O64 1.235 . S
O60 Fe45 1.976 . S
O60 C54 1.287 . S
O61 Fe47 1.996 . S
O61 C54 1.255 . S
C62 O55 1.287 . S
C62 O56 1.255 . S
O63 Fe45 2.002 . S
O63 C59 1.295 . S
O64 Fe47 1.997 . S
O64 C59 1.235 . S
C65 O48 1.295 . S
C65 O49 1.235 . S
Fe66 O68 1.918 . S
Fe66 O71 1.997 . S
Fe66 O72 2.002 . S
Fe66 O77 1.976 . S
Fe66 O80 1.996 . S
Fe67 O68 1.918 . S
Fe67 O75 1.997 . S
Fe67 O78 1.996 . S
Fe67 O82 1.976 . S
Fe67 O85 2.002 . S
O68 Fe66 1.918 . S
O68 Fe67 1.918 . S
O68 Fe69 1.918 . S
Fe69 O68 1.918 . S
Fe69 O70 2.002 . S
Fe69 O79 1.976 . S
Fe69 O83 1.996 . S
Fe69 O86 1.997 . S
O70 Fe69 2.002 . S
O70 C87 1.295 . S
O71 Fe66 1.997 . S
O71 C87 1.235 . S
O72 Fe66 2.002 . S
O72 C73 1.295 . S
C73 O72 1.295 . S
C73 O75 1.235 . S
C74 O79 1.287 . S
C74 O80 1.255 . S
O75 Fe67 1.997 . S
O75 C73 1.235 . S
C76 O82 1.287 1_545 S
C76 O83 1.255 1_545 S
O77 Fe66 1.976 . S
O77 C84 1.287 . S
O78 Fe67 1.996 . S
O78 C84 1.255 . S
O79 Fe69 1.976 . S
O79 C74 1.287 . S
O80 Fe66 1.996 . S
O80 C74 1.255 . S
C81 O85 1.295 . S
C81 O86 1.235 . S
O82 Fe67 1.976 . S
O82 C76 1.287 1_565 S
O83 Fe69 1.996 . S
O83 C76 1.255 1_565 S
C84 O77 1.287 . S
C84 O78 1.255 . S
O85 Fe67 2.002 . S
O85 C81 1.295 . S
O86 Fe69 1.997 . S
O86 C81 1.235 . S
C87 O70 1.295 . S
C87 O71 1.235 . S
Fe88 O90 1.918 . S
Fe88 O93 1.997 . S
Fe88 O94 2.002 . S
Fe88 O99 1.976 1_554 S
Fe88 O102 1.996 . S
Fe89 O90 1.918 . S
Fe89 O97 1.997 . S
Fe89 O100 1.996 1_554 S
Fe89 O104 1.976 . S
Fe89 O107 2.002 . S
O90 Fe88 1.918 . S
O90 Fe89 1.918 . S
O90 Fe91 1.918 . S
Fe91 O90 1.918 . S
Fe91 O92 2.002 . S
Fe91 O101 1.976 . S
Fe91 O105 1.996 . S
Fe91 O108 1.997 . S
O92 Fe91 2.002 . S
O92 C109 1.295 . S
O93 Fe88 1.997 . S
O93 C109 1.235 . S
O94 Fe88 2.002 . S
O94 C95 1.295 . S
C95 O94 1.295 . S
C95 O97 1.235 . S
C96 O101 1.287 . S
C96 O102 1.255 . S
O97 Fe89 1.997 . S
O97 C95 1.235 . S
C98 O104 1.287 . S
C98 O105 1.255 . S
O99 Fe88 1.976 1_556 S
O99 C106 1.287 . S
O100 Fe89 1.996 1_556 S
O100 C106 1.255 . S
O101 Fe91 1.976 . S
O101 C96 1.287 . S
O102 Fe88 1.996 . S
O102 C96 1.255 . S
C103 O107 1.295 . S
C103 O108 1.235 . S
O104 Fe89 1.976 . S
O104 C98 1.287 . S
O105 Fe91 1.996 . S
O105 C98 1.255 . S
C106 O99 1.287 . S
C106 O100 1.255 . S
O107 Fe89 2.002 . S
O107 C103 1.295 . S
O108 Fe91 1.997 . S
O108 C103 1.235 . S
C109 O92 1.295 . S
C109 O93 1.235 . S
Fe110 O112 1.918 . S
Fe110 O115 1.997 . S
Fe110 O116 2.002 . S
Fe110 O121 1.976 . S
Fe110 O124 1.996 . S
Fe111 O112 1.918 . S
Fe111 O119 1.997 . S
Fe111 O122 1.996 . S
Fe111 O126 1.976 . S
Fe111 O129 2.002 . S
O112 Fe110 1.918 . S
O112 Fe111 1.918 . S
O112 Fe113 1.918 . S
Fe113 O112 1.918 . S
Fe113 O114 2.002 . S
Fe113 O123 1.976 . S
Fe113 O127 1.996 . S
Fe113 O130 1.997 . S
O114 Fe113 2.002 . S
O114 C131 1.295 . S
O115 Fe110 1.997 . S
O115 C131 1.235 . S
O116 Fe110 2.002 . S
O116 C117 1.295 . S
C117 O116 1.295 . S
C117 O119 1.235 . S
C118 O123 1.287 . S
C118 O124 1.255 . S
O119 Fe111 1.997 . S
O119 C117 1.235 . S
C120 O126 1.287 . S
C120 O127 1.255 . S
O121 Fe110 1.976 . S
O121 C128 1.287 1_455 S
O122 Fe111 1.996 . S
O122 C128 1.255 1_455 S
O123 Fe113 1.976 . S
O123 C118 1.287 . S
O124 Fe110 1.996 . S
O124 C118 1.255 . S
C125 O129 1.295 . S
C125 O130 1.235 . S
O126 Fe111 1.976 . S
O126 C120 1.287 . S
O127 Fe113 1.996 . S
O127 C120 1.255 . S
C128 O121 1.287 1_655 S
C128 O122 1.255 1_655 S
O129 Fe111 2.002 . S
O129 C125 1.295 . S
O130 Fe113 1.997 . S
O130 C125 1.235 . S
C131 O114 1.295 . S
C131 O115 1.235 . S
Fe132 O134 1.918 . S
Fe132 O137 1.997 . S
Fe132 O138 2.002 . S
Fe132 O143 1.976 . S
Fe132 O146 1.996 . S
Fe133 O134 1.918 . S
Fe133 O141 1.997 . S
Fe133 O144 1.996 . S
Fe133 O148 1.976 . S
Fe133 O151 2.002 . S
O134 Fe132 1.918 . S
O134 Fe133 1.918 . S
O134 Fe135 1.918 . S
Fe135 O134 1.918 . S
Fe135 O136 2.002 . S
Fe135 O145 1.976 . S
Fe135 O149 1.996 . S
Fe135 O152 1.997 . S
O136 Fe135 2.002 . S
O136 C153 1.295 . S
O137 Fe132 1.997 . S
O137 C153 1.235 . S
O138 Fe132 2.002 . S
O138 C139 1.295 . S
C139 O138 1.295 . S
C139 O141 1.235 . S
C140 O145 1.287 . S
C140 O146 1.255 . S
O141 Fe133 1.997 . S
O141 C139 1.235 . S
C142 O148 1.287 1_455 S
C142 O149 1.255 1_455 S
O143 Fe132 1.976 . S
O143 C150 1.287 . S
O144 Fe133 1.996 . S
O144 C150 1.255 . S
O145 Fe135 1.976 . S
O145 C140 1.287 . S
O146 Fe132 1.996 . S
O146 C140 1.255 . S
C147 O151 1.295 . S
C147 O152 1.235 . S
O148 Fe133 1.976 . S
O148 C142 1.287 1_655 S
O149 Fe135 1.996 . S
O149 C142 1.255 1_655 S
C150 O143 1.287 . S
C150 O144 1.255 . S
O151 Fe133 2.002 . S
O151 C147 1.295 . S
O152 Fe135 1.997 . S
O152 C147 1.235 . S
C153 O136 1.295 . S
C153 O137 1.235 . S
Fe154 O156 1.918 . S
Fe154 O159 1.997 . S
Fe154 O160 2.002 . S
Fe154 O165 1.976 . S
Fe154 O168 1.996 . S
Fe155 O156 1.918 . S
Fe155 O163 1.997 . S
Fe155 O166 1.996 . S
Fe155 O170 1.976 . S
Fe155 O173 2.002 . S
O156 Fe154 1.918 . S
O156 Fe155 1.918 . S
O156 Fe157 1.918 . S
Fe157 O156 1.918 . S
Fe157 O158 2.002 . S
Fe157 O167 1.976 . S
Fe157 O171 1.996 . S
Fe157 O174 1.997 . S
O158 Fe157 2.002 . S
O158 C175 1.295 . S
O159 Fe154 1.997 . S
O159 C175 1.235 . S
O160 Fe154 2.002 . S
O160 C161 1.295 . S
C161 O160 1.295 . S
C161 O163 1.235 . S
C162 O167 1.287 . S
C162 O168 1.255 . S
O163 Fe155 1.997 . S
O163 C161 1.235 . S
C164 O170 1.287 1_545 S
C164 O171 1.255 1_545 S
O165 Fe154 1.976 . S
O165 C172 1.287 . S
O166 Fe155 1.996 . S
O166 C172 1.255 . S
O167 Fe157 1.976 . S
O167 C162 1.287 . S
O168 Fe154 1.996 . S
O168 C162 1.255 . S
C169 O173 1.295 . S
C169 O174 1.235 . S
O170 Fe155 1.976 . S
O170 C164 1.287 1_565 S
O171 Fe157 1.996 . S
O171 C164 1.255 1_565 S
C172 O165 1.287 . S
C172 O166 1.255 . S
O173 Fe155 2.002 . S
O173 C169 1.295 . S
O174 Fe157 1.997 . S
O174 C169 1.235 . S
C175 O158 1.295 . S
C175 O159 1.235 . S
Fe176 O178 1.918 . S
Fe176 O181 1.997 . S
Fe176 O182 2.002 . S
Fe176 O187 1.976 . S
Fe176 O190 1.996 . S
Fe177 O178 1.918 . S
Fe177 O185 1.997 . S
Fe177 O188 1.996 . S
Fe177 O192 1.976 . S
Fe177 O195 2.002 . S
O178 Fe176 1.918 . S
O178 Fe177 1.918 . S
O178 Fe179 1.918 . S
Fe179 O178 1.918 . S
Fe179 O180 2.002 . S
Fe179 O189 1.976 . S
Fe179 O193 1.996 . S
Fe179 O196 1.997 . S
O180 Fe179 2.002 . S
O180 C197 1.295 . S
O181 Fe176 1.997 . S
O181 C197 1.235 . S
O182 Fe176 2.002 . S
O182 C183 1.295 . S
C183 O182 1.295 . S
C183 O185 1.235 . S
C184 O189 1.287 . S
C184 O190 1.255 . S
O185 Fe177 1.997 . S
O185 C183 1.235 . S
C186 O192 1.287 . S
C186 O193 1.255 . S
O187 Fe176 1.976 . S
O187 C194 1.287 . S
O188 Fe177 1.996 . S
O188 C194 1.255 . S
O189 Fe179 1.976 . S
O189 C184 1.287 . S
O190 Fe176 1.996 . S
O190 C184 1.255 . S
C191 O195 1.295 . S
C191 O196 1.235 . S
O192 Fe177 1.976 . S
O192 C186 1.287 . S
O193 Fe179 1.996 . S
O193 C186 1.255 . S
C194 O187 1.287 . S
C194 O188 1.255 . S
O195 Fe177 2.002 . S
O195 C191 1.295 . S
O196 Fe179 1.997 . S
O196 C191 1.235 . S
C197 O180 1.295 . S
C197 O181 1.235 . S
Fe198 O200 1.918 . S
Fe198 O203 1.997 . S
Fe198 O204 2.002 . S
Fe198 O209 1.976 . S
Fe198 O212 1.996 1_556 S
Fe199 O200 1.918 . S
Fe199 O207 1.997 . S
Fe199 O210 1.996 . S
Fe199 O214 1.976 . S
Fe199 O217 2.002 . S
O200 Fe198 1.918 . S
O200 Fe199 1.918 . S
O200 Fe201 1.918 . S
Fe201 O200 1.918 . S
Fe201 O202 2.002 . S
Fe201 O211 1.976 1_556 S
Fe201 O215 1.996 . S
Fe201 O218 1.997 . S
O202 Fe201 2.002 . S
O202 C219 1.295 . S
O203 Fe198 1.997 . S
O203 C219 1.235 . S
O204 Fe198 2.002 . S
O204 C205 1.295 . S
C205 O204 1.295 . S
C205 O207 1.235 . S
C206 O211 1.287 . S
C206 O212 1.255 . S
O207 Fe199 1.997 . S
O207 C205 1.235 . S
C208 O214 1.287 . S
C208 O215 1.255 . S
O209 Fe198 1.976 . S
O209 C216 1.287 1_455 S
O210 Fe199 1.996 . S
O210 C216 1.255 1_455 S
O211 Fe201 1.976 1_554 S
O211 C206 1.287 . S
O212 Fe198 1.996 1_554 S
O212 C206 1.255 . S
C213 O217 1.295 . S
C213 O218 1.235 . S
O214 Fe199 1.976 . S
O214 C208 1.287 . S
O215 Fe201 1.996 . S
O215 C208 1.255 . S
C216 O209 1.287 1_655 S
C216 O210 1.255 1_655 S
O217 Fe199 2.002 . S
O217 C213 1.295 . S
O218 Fe201 1.997 . S
O218 C213 1.235 . S
C219 O202 1.295 . S
C219 O203 1.235 . S
Fe220 O222 1.918 . S
Fe220 O225 1.997 . S
Fe220 O226 2.002 . S
Fe220 O231 1.976 . S
Fe220 O234 1.996 . S
Fe221 O222 1.918 . S
Fe221 O229 1.997 . S
Fe221 O232 1.996 . S
Fe221 O236 1.976 . S
Fe221 O239 2.002 . S
O222 Fe220 1.918 . S
O222 Fe221 1.918 . S
O222 Fe223 1.918 . S
Fe223 O222 1.918 . S
Fe223 O224 2.002 . S
Fe223 O233 1.976 . S
Fe223 O237 1.996 . S
Fe223 O240 1.997 . S
O224 Fe223 2.002 . S
O224 C241 1.295 . S
O225 Fe220 1.997 . S
O225 C241 1.235 . S
O226 Fe220 2.002 . S
O226 C227 1.295 . S
C227 O226 1.295 . S
C227 O229 1.235 . S
C228 O233 1.287 . S
C228 O234 1.255 . S
O229 Fe221 1.997 . S
O229 C227 1.235 . S
C230 O236 1.287 . S
C230 O237 1.255 . S
O231 Fe220 1.976 . S
O231 C238 1.287 1_545 S
O232 Fe221 1.996 . S
O232 C238 1.255 1_545 S
O233 Fe223 1.976 . S
O233 C228 1.287 . S
O234 Fe220 1.996 . S
O234 C228 1.255 . S
C235 O239 1.295 . S
C235 O240 1.235 . S
O236 Fe221 1.976 . S
O236 C230 1.287 . S
O237 Fe223 1.996 . S
O237 C230 1.255 . S
C238 O231 1.287 1_565 S
C238 O232 1.255 1_565 S
O239 Fe221 2.002 . S
O239 C235 1.295 . S
O240 Fe223 1.997 . S
O240 C235 1.235 . S
C241 O224 1.295 . S
C241 O225 1.235 . S
Fe242 O244 1.918 . S
Fe242 O247 1.997 . S
Fe242 O248 2.002 . S
Fe242 O253 1.976 . S
Fe242 O256 1.996 . S
Fe243 O244 1.918 . S
Fe243 O251 1.997 . S
Fe243 O254 1.996 . S
Fe243 O258 1.976 . S
Fe243 O261 2.002 . S
O244 Fe242 1.918 . S
O244 Fe243 1.918 . S
O244 Fe245 1.918 . S
Fe245 O244 1.918 . S
Fe245 O246 2.002 . S
Fe245 O255 1.976 . S
Fe245 O259 1.996 . S
Fe245 O262 1.997 . S
O246 Fe245 2.002 . S
O246 C263 1.295 . S
O247 Fe242 1.997 . S
O247 C263 1.235 . S
O248 Fe242 2.002 . S
O248 C249 1.295 . S
C249 O248 1.295 . S
C249 O251 1.235 . S
C250 O255 1.287 . S
C250 O256 1.255 . S
O251 Fe243 1.997 . S
O251 C249 1.235 . S
C252 O258 1.287 . S
C252 O259 1.255 . S
O253 Fe242 1.976 . S
O253 C260 1.287 . S
O254 Fe243 1.996 . S
O254 C260 1.255 . S
O255 Fe245 1.976 . S
O255 C250 1.287 . S
O256 Fe242 1.996 . S
O256 C250 1.255 . S
C257 O261 1.295 . S
C257 O262 1.235 . S
O258 Fe243 1.976 . S
O258 C252 1.287 . S
O259 Fe245 1.996 . S
O259 C252 1.255 . S
C260 O253 1.287 . S
C260 O254 1.255 . S
O261 Fe243 2.002 . S
O261 C257 1.295 . S
O262 Fe245 1.997 . S
O262 C257 1.235 . S
C263 O246 1.295 . S
C263 O247 1.235 . S
C264 C265 1.387 . S
C264 H268 0.950 . S
C264 C273 1.390 1_565 S
C265 C264 1.387 . S
C265 C267 1.387 . S
H266 C273 0.950 . S
C267 C265 1.387 . S
C267 C269 1.390 1_565 S
C267 H271 0.950 . S
H268 C264 0.950 . S
C269 C267 1.390 1_545 S
C269 C270 1.387 . S
C269 H272 0.950 . S
C270 C269 1.387 . S
C270 C273 1.387 . S
H271 C267 0.950 . S
H272 C269 0.950 . S
C273 C264 1.390 1_545 S
C273 H266 0.950 . S
C273 C270 1.387 . S
C274 C275 1.387 . S
C274 H278 0.950 . S
C274 C283 1.390 . S
C275 C274 1.387 . S
C275 C277 1.387 . S
H276 C283 0.950 . S
C277 C275 1.387 . S
C277 C279 1.390 . S
C277 H281 0.950 . S
H278 C274 0.950 . S
C279 C277 1.390 . S
C279 C280 1.387 . S
C279 H282 0.950 . S
C280 C279 1.387 . S
C280 C283 1.387 . S
H281 C277 0.950 . S
H282 C279 0.950 . S
C283 C274 1.390 . S
C283 H276 0.950 . S
C283 C280 1.387 . S
C284 C285 1.387 1_455 S
C284 H288 0.955 . S
C284 C293 1.390 . S
C285 C284 1.387 1_655 S
C285 C287 1.387 . S
H286 C293 0.950 . S
C287 C285 1.387 . S
C287 C289 1.390 1_655 S
C287 H291 0.950 . S
H288 C284 0.955 . S
C289 C287 1.390 1_455 S
C289 C290 1.387 . S
C289 H292 0.950 . S
C290 C289 1.387 . S
C290 C293 1.387 . S
H291 C287 0.950 . S
H292 C289 0.950 . S
C293 C284 1.390 . S
C293 H286 0.950 . S
C293 C290 1.387 . S
C294 C295 1.387 . S
C294 H298 0.950 . S
C294 C303 1.390 1_545 S
C295 C294 1.387 . S
C295 C297 1.387 . S
H296 C303 0.950 . S
C297 C295 1.387 . S
C297 C299 1.390 1_545 S
C297 H301 0.950 . S
H298 C294 0.950 . S
C299 C297 1.390 1_565 S
C299 C300 1.387 . S
C299 H302 0.950 . S
C300 C299 1.387 . S
C300 C303 1.387 . S
H301 C297 0.950 . S
H302 C299 0.950 . S
C303 C294 1.390 1_565 S
C303 H296 0.950 . S
C303 C300 1.387 . S
C304 C305 1.387 . S
C304 H308 0.950 . S
C304 C313 1.390 . S
C305 C304 1.387 . S
C305 C307 1.387 . S
H306 C313 0.950 . S
C307 C305 1.387 . S
C307 C309 1.390 . S
C307 H311 0.950 . S
H308 C304 0.950 . S
C309 C307 1.390 . S
C309 C310 1.387 . S
C309 H312 0.950 . S
C310 C309 1.387 . S
C310 C313 1.387 . S
H311 C307 0.950 . S
H312 C309 0.950 . S
C313 C304 1.390 . S
C313 H306 0.950 . S
C313 C310 1.387 . S
C314 C315 1.387 1_655 S
C314 H318 0.950 . S
C314 C323 1.390 . S
C315 C314 1.387 1_455 S
C315 C317 1.387 . S
H316 C323 0.950 . S
C317 C315 1.387 . S
C317 C319 1.390 . S
C317 H321 0.950 . S
H318 C314 0.950 . S
C319 C317 1.390 . S
C319 C320 1.387 1_455 S
C319 H322 0.950 . S
C320 C319 1.387 1_655 S
C320 C323 1.387 . S
H321 C317 0.950 . S
H322 C319 0.950 . S
C323 C314 1.390 . S
C323 H316 0.950 . S
C323 C320 1.387 . S
C324 C325 1.387 . S
C324 H328 0.950 . S
C324 C333 1.390 1_455 S
C325 C324 1.387 . S
C325 C327 1.387 . S
H326 C333 0.950 . S
C327 C325 1.387 . S
C327 C329 1.390 1_455 S
C327 H331 0.950 . S
H328 C324 0.950 . S
C329 C327 1.390 1_655 S
C329 C330 1.387 . S
C329 H332 0.950 . S
C330 C329 1.387 . S
C330 C333 1.387 . S
H331 C327 0.950 . S
H332 C329 0.950 . S
C333 C324 1.390 1_655 S
C333 H326 0.950 . S
C333 C330 1.387 . S
C334 C335 1.387 . S
C334 H338 0.950 . S
C334 C343 1.390 1_565 S
C335 C334 1.387 . S
C335 C337 1.387 . S
H336 C343 0.950 . S
C337 C335 1.387 . S
C337 C339 1.390 1_565 S
C337 H341 0.950 . S
H338 C334 0.950 . S
C339 C337 1.390 1_545 S
C339 C340 1.387 . S
C339 H342 0.950 . S
C340 C339 1.387 . S
C340 C343 1.387 . S
H341 C337 0.950 . S
H342 C339 0.950 . S
C343 C334 1.390 1_545 S
C343 H336 0.950 . S
C343 C340 1.387 . S
C344 C345 1.387 . S
C344 H348 0.950 . S
C344 C353 1.390 . S
C345 C344 1.387 . S
C345 C347 1.387 . S
H346 C353 0.950 . S
C347 C345 1.387 . S
C347 C349 1.390 . S
C347 H351 0.950 . S
H348 C344 0.950 . S
C349 C347 1.390 . S
C349 C350 1.387 . S
C349 H352 0.950 . S
C350 C349 1.387 . S
C350 C353 1.387 . S
H351 C347 0.950 . S
H352 C349 0.950 . S
C353 C344 1.390 . S
C353 H346 0.950 . S
C353 C350 1.387 . S
C354 C355 1.387 . S
C354 H358 0.950 . S
C354 C363 1.390 1_655 S
C355 C354 1.387 . S
C355 C357 1.387 . S
H356 C363 0.950 . S
C357 C355 1.387 . S
C357 C359 1.390 1_655 S
C357 H361 0.950 . S
H358 C354 0.950 . S
C359 C357 1.390 1_455 S
C359 C360 1.387 . S
C359 H362 0.950 . S
C360 C359 1.387 . S
C360 C363 1.387 . S
H361 C357 0.950 . S
H362 C359 0.950 . S
C363 C354 1.390 1_455 S
C363 H356 0.950 . S
C363 C360 1.387 . S
C364 C365 1.387 . S
C364 H368 0.950 . S
C364 C373 1.390 1_565 S
C365 C364 1.387 . S
C365 C367 1.387 . S
H366 C373 0.950 . S
C367 C365 1.387 . S
C367 C369 1.390 1_565 S
C367 H371 0.950 . S
H368 C364 0.950 . S
C369 C367 1.390 1_545 S
C369 C370 1.387 . S
C369 H372 0.950 . S
C370 C369 1.387 . S
C370 C373 1.387 . S
H371 C367 0.950 . S
H372 C369 0.950 . S
C373 C364 1.390 1_545 S
C373 H366 0.950 . S
C373 C370 1.387 . S
C374 C375 1.387 . S
C374 H378 0.950 . S
C374 C383 1.390 . S
C375 C374 1.387 . S
C375 C377 1.387 . S
H376 C383 0.950 . S
C377 C375 1.387 . S
C377 C379 1.390 . S
C377 H381 0.950 . S
H378 C374 0.950 . S
C379 C377 1.390 . S
C379 C380 1.387 . S
C379 H382 0.950 . S
C380 C379 1.387 . S
C380 C383 1.387 . S
H381 C377 0.950 . S
H382 C379 0.950 . S
C383 C374 1.390 . S
C383 H376 0.950 . S
C383 C380 1.387 . S
C384 C385 1.387 1_545 S
C384 H388 0.950 . S
C384 C393 1.390 . S
C385 C384 1.387 1_565 S
C385 C387 1.387 . S
H386 C393 0.950 . S
C387 C385 1.387 . S
C387 C389 1.390 . S
C387 H391 0.950 . S
H388 C384 0.950 . S
C389 C387 1.390 . S
C389 C390 1.387 1_565 S
C389 H392 0.950 . S
C390 C389 1.387 1_545 S
C390 C393 1.387 . S
H391 C387 0.950 . S
H392 C389 0.950 . S
C393 C384 1.390 . S
C393 H386 0.950 . S
C393 C390 1.387 . S
C394 C395 1.387 . S
C394 H398 0.950 . S
C394 C403 1.390 . S
C395 C394 1.387 . S
C395 C397 1.387 . S
H396 C403 0.950 . S
C397 C395 1.387 . S
C397 C399 1.390 . S
C397 H401 0.950 . S
H398 C394 0.950 . S
C399 C397 1.390 . S
C399 C400 1.387 . S
C399 H402 0.950 . S
C400 C399 1.387 . S
C400 C403 1.387 . S
H401 C397 0.950 . S
H402 C399 0.950 . S
C403 C394 1.390 . S
C403 H396 0.950 . S
C403 C400 1.387 . S
C404 C405 1.387 . S
C404 H408 0.950 . S
C404 C413 1.390 . S
C405 C404 1.387 . S
C405 C407 1.387 1_455 S
H406 C413 0.950 . S
C407 C405 1.387 1_655 S
C407 C409 1.390 . S
C407 H411 0.950 . S
H408 C404 0.950 . S
C409 C407 1.390 . S
C409 C410 1.387 . S
C409 H412 0.950 . S
C410 C409 1.387 . S
C410 C413 1.387 1_655 S
H411 C407 0.950 . S
H412 C409 0.950 . S
C413 C404 1.390 . S
C413 H406 0.950 . S
C413 C410 1.387 1_455 S
C414 C415 1.387 . S
C414 H418 0.950 . S
C414 C423 1.390 . S
C415 C414 1.387 . S
C415 C417 1.387 1_545 S
H416 C423 0.950 . S
C417 C415 1.387 1_565 S
C417 C419 1.390 . S
C417 H421 0.950 . S
H418 C414 0.950 . S
C419 C417 1.390 . S
C419 C420 1.387 . S
C419 H422 0.950 . S
C420 C419 1.387 . S
C420 C423 1.387 1_565 S
H421 C417 0.950 . S
H422 C419 0.950 . S
C423 C414 1.390 . S
C423 H416 0.950 . S
C423 C420 1.387 1_545 S
C424 C425 1.387 . S
C424 H428 0.950 . S
C424 C433 1.390 . S
C425 C424 1.387 . S
C425 C427 1.387 1_554 S
H426 C433 0.950 . S
C427 C425 1.387 1_556 S
C427 C429 1.390 1_556 S
C427 H431 0.950 . S
H428 C424 0.950 . S
C429 C427 1.390 1_554 S
C429 C430 1.387 . S
C429 H432 0.950 . S
C430 C429 1.387 . S
C430 C433 1.387 . S
H431 C427 0.950 . S
H432 C429 0.950 . S
C433 C424 1.390 . S
C433 H426 0.950 . S
C433 C430 1.387 . S
C434 C435 1.387 1_655 S
C434 H438 0.950 . S
C434 C443 1.390 . S
C435 C434 1.387 1_455 S
C435 C437 1.387 . S
H436 C443 0.950 . S
C437 C435 1.387 . S
C437 C439 1.390 . S
C437 H441 0.950 . S
H438 C434 0.950 . S
C439 C437 1.390 . S
C439 C440 1.387 1_455 S
C439 H442 0.950 . S
C440 C439 1.387 1_655 S
C440 C443 1.387 . S
H441 C437 0.950 . S
H442 C439 0.950 . S
C443 C434 1.390 . S
C443 H436 0.950 . S
C443 C440 1.387 . S
C444 C445 1.387 1_455 S
C444 H448 0.950 . S
C444 C453 1.390 . S
C445 C444 1.387 1_655 S
C445 C447 1.387 . S
H446 C453 0.950 . S
C447 C445 1.387 . S
C447 C449 1.390 1_655 S
C447 H451 0.950 . S
H448 C444 0.950 . S
C449 C447 1.390 1_455 S
C449 C450 1.387 . S
C449 H452 0.950 . S
C450 C449 1.387 . S
C450 C453 1.387 . S
H451 C447 0.950 . S
H452 C449 0.950 . S
C453 C444 1.390 . S
C453 H446 0.950 . S
C453 C450 1.387 . S
C454 C455 1.387 . S
C454 H458 0.950 . S
C454 C463 1.390 . S
C455 C454 1.387 . S
C455 C457 1.387 1_565 S
H456 C463 0.950 . S
C457 C455 1.387 1_545 S
C457 C459 1.390 . S
C457 H461 0.950 . S
H458 C454 0.950 . S
C459 C457 1.390 . S
C459 C460 1.387 . S
C459 H462 0.950 . S
C460 C459 1.387 . S
C460 C463 1.387 1_545 S
H461 C457 0.950 . S
H462 C459 0.950 . S
C463 C454 1.390 . S
C463 H456 0.950 . S
C463 C460 1.387 1_565 S
C464 C465 1.387 . S
C464 H468 0.950 . S
C464 C473 1.390 . S
C465 C464 1.387 . S
C465 C467 1.387 . S
H466 C473 0.950 . S
C467 C465 1.387 . S
C467 C469 1.390 . S
C467 H471 0.950 . S
H468 C464 0.950 . S
C469 C467 1.390 . S
C469 C470 1.387 . S
C469 H472 0.950 . S
C470 C469 1.387 . S
C470 C473 1.387 . S
H471 C467 0.950 . S
H472 C469 0.950 . S
C473 C464 1.390 . S
C473 H466 0.950 . S
C473 C470 1.387 . S
C474 C475 1.387 1_554 S
C474 H478 0.950 . S
C474 C483 1.390 1_554 S
C475 C474 1.387 1_556 S
C475 C477 1.387 1_655 S
H476 C483 0.950 . S
C477 C475 1.387 1_455 S
C477 C479 1.390 . S
C477 H481 0.950 . S
H478 C474 0.950 . S
C479 C477 1.390 . S
C479 C480 1.387 . S
C479 H482 0.950 . S
C480 C479 1.387 . S
C480 C483 1.387 1_455 S
H481 C477 0.950 . S
H482 C479 0.950 . S
C483 C474 1.390 1_556 S
C483 H476 0.950 . S
C483 C480 1.387 1_655 S
C484 C485 1.387 1_565 S
C484 H488 0.950 . S
C484 C493 1.390 . S
C485 C484 1.387 1_545 S
C485 C487 1.387 . S
H486 C493 0.950 . S
C487 C485 1.387 . S
C487 C489 1.390 . S
C487 H491 0.950 . S
H488 C484 0.950 . S
C489 C487 1.390 . S
C489 C490 1.387 1_545 S
C489 H492 0.950 . S
C490 C489 1.387 1_565 S
C490 C493 1.387 . S
H491 C487 0.950 . S
H492 C489 0.950 . S
C493 C484 1.390 . S
C493 H486 0.950 . S
C493 C490 1.387 . S
C494 C495 1.387 . S
C494 H498 0.950 . S
C494 C503 1.390 . S
C495 C494 1.387 . S
C495 C497 1.387 . S
H496 C503 0.950 . S
C497 C495 1.387 . S
C497 C499 1.390 . S
C497 H501 0.950 . S
H498 C494 0.950 . S
C499 C497 1.390 . S
C499 C500 1.387 . S
C499 H502 0.950 . S
C500 C499 1.387 . S
C500 C503 1.387 . S
H501 C497 0.950 . S
H502 C499 0.950 . S
C503 C494 1.390 . S
C503 H496 0.950 . S
C503 C500 1.387 . S
C504 C505 1.387 . S
C504 H508 0.950 . S
C504 C513 1.390 . S
C505 C504 1.387 . S
C505 C507 1.387 . S
H506 C513 0.950 . S
C507 C505 1.387 . S
C507 C509 1.390 . S
C507 H511 0.950 . S
H508 C504 0.950 . S
C509 C507 1.390 . S
C509 C510 1.387 . S
C509 H512 0.950 . S
C510 C509 1.387 . S
C510 C513 1.387 . S
H511 C507 0.950 . S
H512 C509 0.950 . S
C513 C504 1.390 . S
C513 H506 0.950 . S
C513 C510 1.387 . S
C514 C515 1.387 . S
C514 H518 0.950 . S
C514 C523 1.390 . S
C515 C514 1.387 . S
C515 C517 1.387 . S
H516 C523 0.950 1_565 S
C517 C515 1.387 . S
C517 C519 1.390 . S
C517 H521 0.950 . S
H518 C514 0.950 . S
C519 C517 1.390 . S
C519 C520 1.387 . S
C519 H522 0.950 . S
C520 C519 1.387 . S
C520 C523 1.387 . S
H521 C517 0.950 . S
H522 C519 0.950 . S
C523 C514 1.390 . S
C523 H516 0.950 1_545 S
C523 C520 1.387 . S
C524 C525 1.387 . S
C524 H528 0.950 . S
C524 C533 1.390 . S
C525 C524 1.387 . S
C525 C527 1.387 . S
H526 C533 0.950 . S
C527 C525 1.387 . S
C527 C529 1.390 . S
C527 H531 0.950 . S
H528 C524 0.950 . S
C529 C527 1.390 . S
C529 C530 1.387 . S
C529 H532 0.950 . S
C530 C529 1.387 . S
C530 C533 1.387 . S
H531 C527 0.950 . S
H532 C529 0.950 . S
C533 C524 1.390 . S
C533 H526 0.950 . S
C533 C530 1.387 . S
C534 C535 1.387 . S
C534 H538 0.950 1_545 S
C534 C543 1.390 . S
C535 C534 1.387 . S
C535 C537 1.387 . S
H536 C543 0.950 . S
C537 C535 1.387 . S
C537 C539 1.390 . S
C537 H541 0.950 . S
H538 C534 0.950 1_565 S
C539 C537 1.390 . S
C539 C540 1.387 . S
C539 H542 0.950 . S
C540 C539 1.387 . S
C540 C543 1.387 . S
H541 C537 0.950 . S
H542 C539 0.950 . S
C543 C534 1.390 . S
C543 H536 0.950 . S
C543 C540 1.387 . S
C544 C545 1.387 . S
C544 H548 0.950 . S
C544 C553 1.390 . S
C545 C544 1.387 . S
C545 C547 1.387 . S
H546 C553 0.950 . S
C547 C545 1.387 . S
C547 C549 1.390 . S
C547 H551 0.950 1_565 S
H548 C544 0.950 . S
C549 C547 1.390 . S
C549 C550 1.387 . S
C549 H552 0.950 . S
C550 C549 1.387 . S
C550 C553 1.387 . S
H551 C547 0.950 1_545 S
H552 C549 0.950 . S
C553 C544 1.390 . S
C553 H546 0.950 . S
C553 C550 1.387 . S
C554 C555 1.387 . S
C554 H558 0.950 . S
C554 C563 1.390 . S
C555 C554 1.387 . S
C555 C557 1.387 . S
H556 C563 0.950 . S
C557 C555 1.387 . S
C557 C559 1.390 . S
C557 H561 0.950 . S
H558 C554 0.950 . S
C559 C557 1.390 . S
C559 C560 1.387 . S
C559 H562 0.950 . S
C560 C559 1.387 . S
C560 C563 1.387 . S
H561 C557 0.950 . S
H562 C559 0.950 . S
C563 C554 1.390 . S
C563 H556 0.950 . S
C563 C560 1.387 . S
C564 C565 1.387 . S
C564 H568 0.950 . S
C564 C573 1.390 . S
C565 C564 1.387 . S
C565 C567 1.387 . S
H566 C573 0.950 . S
C567 C565 1.387 . S
C567 C569 1.390 . S
C567 H571 0.950 . S
H568 C564 0.950 . S
C569 C567 1.390 . S
C569 C570 1.387 . S
C569 H572 0.950 . S
C570 C569 1.387 . S
C570 C573 1.387 . S
H571 C567 0.950 . S
H572 C569 0.950 . S
C573 C564 1.390 . S
C573 H566 0.950 . S
C573 C570 1.387 . S
C574 C575 1.387 . S
C574 H578 0.950 . S
C574 C583 1.390 . S
C575 C574 1.387 . S
C575 C577 1.387 . S
H576 C583 0.950 . S
C577 C575 1.387 . S
C577 C579 1.390 . S
C577 H581 0.950 . S
H578 C574 0.950 . S
C579 C577 1.390 . S
C579 C580 1.387 . S
C579 H582 0.950 . S
C580 C579 1.387 . S
C580 C583 1.387 . S
H581 C577 0.950 . S
H582 C579 0.950 . S
C583 C574 1.390 . S
C583 H576 0.950 . S
C583 C580 1.387 . S
C584 C585 1.387 . S
C584 H588 0.950 . S
C584 C593 1.390 . S
C585 C584 1.387 . S
C585 C587 1.387 . S
H586 C593 0.950 . S
C587 C585 1.387 . S
C587 C589 1.390 . S
C587 H591 0.950 . S
H588 C584 0.950 . S
C589 C587 1.390 . S
C589 C590 1.387 . S
C589 H592 0.950 . S
C590 C589 1.387 . S
C590 C593 1.387 . S
H591 C587 0.950 . S
H592 C589 0.950 . S
C593 C584 1.390 . S
C593 H586 0.950 . S
C593 C590 1.387 . S
C594 C595 1.387 . S
C594 H598 0.950 . S
C594 C603 1.390 . S
C595 C594 1.387 . S
C595 C597 1.387 . S
H596 C603 0.950 . S
C597 C595 1.387 . S
C597 C599 1.390 . S
C597 H601 0.950 . S
H598 C594 0.950 . S
C599 C597 1.390 . S
C599 C600 1.387 . S
C599 H602 0.950 . S
C600 C599 1.387 . S
C600 C603 1.387 . S
H601 C597 0.950 . S
H602 C599 0.950 . S
C603 C594 1.390 . S
C603 H596 0.950 . S
C603 C600 1.387 . S
C604 C605 1.387 . S
C604 H608 0.950 . S
C604 C613 1.390 . S
C605 C604 1.387 . S
C605 C607 1.387 . S
H606 C613 0.950 . S
C607 C605 1.387 . S
C607 C609 1.390 . S
C607 H611 0.950 . S
H608 C604 0.950 . S
C609 C607 1.390 . S
C609 C610 1.387 . S
C609 H612 0.950 . S
C610 C609 1.387 . S
C610 C613 1.387 . S
H611 C607 0.950 . S
H612 C609 0.950 . S
C613 C604 1.390 . S
C613 H606 0.950 . S
C613 C610 1.387 . S
C614 C615 1.387 . S
C614 H618 0.950 . S
C614 C623 1.390 . S
C615 C614 1.387 . S
C615 C617 1.387 . S
H616 C623 0.950 . S
C617 C615 1.387 . S
C617 C619 1.390 . S
C617 H621 0.950 . S
H618 C614 0.950 . S
C619 C617 1.390 . S
C619 C620 1.387 . S
C619 H622 0.950 . S
C620 C619 1.387 . S
C620 C623 1.387 . S
H621 C617 0.950 . S
H622 C619 0.950 . S
C623 C614 1.390 . S
C623 H616 0.950 . S
C623 C620 1.387 . S
C265 C117 1.212 . S
C270 C18 1.201 . S
C275 C32 1.201 . S
C280 C15 1.212 . S
C285 C54 1.200 . S
C290 C43 1.211 . S
C295 C65 1.211 . S
C300 C84 1.200 . S
C305 C81 1.211 . S
C310 C106 1.198 . S
C315 C118 1.199 . S
C320 C103 1.210 . S
C325 C169 1.211 . S
C330 C150 1.198 . S
C335 C172 1.201 . S
C340 C191 1.212 . S
C345 C205 1.212 . S
C350 C194 1.199 . S
C355 C227 1.211 . S
C360 C206 1.198 . S
C365 C263 1.211 . S
C370 C228 1.198 . S
C375 C147 1.212 . S
C380 C252 1.199 . S
C385 C257 1.436 . S
C390 C8 1.433 . S
C395 C40 1.434 . S
C400 C139 1.437 . S
C405 C161 1.436 . S
C410 C62 1.434 . S
C415 C183 1.437 . S
C420 C74 1.435 . S
C425 C219 1.435 1_554 S
C430 C96 1.434 . S
C435 C120 1.435 . S
C440 C241 1.437 . S
C445 C140 1.433 . S
C450 C37 1.435 . S
C455 C162 1.433 . S
C460 C59 1.437 . S
C465 C73 1.435 . S
C470 C184 1.433 . S
C475 C95 1.437 1_556 S
C480 C208 1.435 . S
C485 C230 1.433 . S
C490 C131 1.435 . S
C495 C260 1.435 . S
C500 C7 1.437 . S
C505 C142 1.196 . S
C510 C10 1.195 . S
C515 C30 1.194 . S
C520 C164 1.195 . S
C525 C186 1.194 . S
C530 C52 1.194 . S
C535 C76 1.195 . S
C540 C216 1.195 . S
C545 C238 1.197 . S
C550 C98 1.197 . S
C555 C250 1.194 . S
C560 C128 1.194 . S
C565 C153 1.138 . S
C570 C21 1.138 . S
C575 C175 1.140 . S
C580 C29 1.139 . S
C585 C197 1.140 . S
C590 C51 1.140 . S
C595 C87 1.140 . S
C600 C213 1.140 . S
C605 C235 1.138 . S
C610 C109 1.138 . S
C615 C249 1.138 . S
C620 C125 1.138 . S
