# Generated by pormake.
# Topology unx, (4)-cn, num edge types: 1
# Building blocks:
#     Node 0, Type 0, BuildingBlock: KUFVIS_clean_sbu_0, # of connection points: 4
#     Node 1, Type 0, BuildingBlock: KUFVIS_clean_sbu_0, # of connection points: 4
#     Node 2, Type 0, BuildingBlock: KUFVIS_clean_sbu_0, # of connection points: 4
#     Node 3, Type 0, BuildingBlock: KUFVIS_clean_sbu_0, # of connection points: 4
#     Node 4, Type 0, BuildingBlock: KUFVIS_clean_sbu_0, # of connection points: 4
#     Node 5, Type 0, BuildingBlock: KUFVIS_clean_sbu_0, # of connection points: 4
#     Node 6, Type 0, BuildingBlock: KUFVIS_clean_sbu_0, # of connection points: 4
#     Node 7, Type 0, BuildingBlock: KUFVIS_clean_sbu_0, # of connection points: 4
#     Node 8, Type 0, BuildingBlock: KUFVIS_clean_sbu_0, # of connection points: 4
#     Node 9, Type 0, BuildingBlock: KUFVIS_clean_sbu_0, # of connection points: 4
#     Node 10, Type 0, BuildingBlock: KUFVIS_clean_sbu_0, # of connection points: 4
#     Node 11, Type 0, BuildingBlock: KUFVIS_clean_sbu_0, # of connection points: 4
#     Node 12, Type 0, BuildingBlock: KUFVIS_clean_sbu_0, # of connection points: 4
#     Node 13, Type 0, BuildingBlock: KUFVIS_clean_sbu_0, # of connection points: 4
#     Node 14, Type 0, BuildingBlock: KUFVIS_clean_sbu_0, # of connection points: 4
#     Node 15, Type 0, BuildingBlock: KUFVIS_clean_sbu_0, # of connection points: 4
#     Node 16, Type 0, BuildingBlock: KUFVIS_clean_sbu_0, # of connection points: 4
#     Node 17, Type 0, BuildingBlock: KUFVIS_clean_sbu_0, # of connection points: 4
#     Node 18, Type 0, BuildingBlock: KUFVIS_clean_sbu_0, # of connection points: 4
#     Node 19, Type 0, BuildingBlock: KUFVIS_clean_sbu_0, # of connection points: 4
#     Node 20, Type 0, BuildingBlock: KUFVIS_clean_sbu_0, # of connection points: 4
#     Node 21, Type 0, BuildingBlock: KUFVIS_clean_sbu_0, # of connection points: 4
#     Node 22, Type 0, BuildingBlock: KUFVIS_clean_sbu_0, # of connection points: 4
#     Node 23, Type 0, BuildingBlock: KUFVIS_clean_sbu_0, # of connection points: 4
#     Node 24, Type 0, BuildingBlock: KUFVIS_clean_sbu_0, # of connection points: 4
#     Node 25, Type 0, BuildingBlock: KUFVIS_clean_sbu_0, # of connection points: 4
#     Node 26, Type 0, BuildingBlock: KUFVIS_clean_sbu_0, # of connection points: 4
#     Node 27, Type 0, BuildingBlock: KUFVIS_clean_sbu_0, # of connection points: 4
#     Node 28, Type 0, BuildingBlock: KUFVIS_clean_sbu_0, # of connection points: 4
#     Node 29, Type 0, BuildingBlock: KUFVIS_clean_sbu_0, # of connection points: 4
#     Node 30, Type 0, BuildingBlock: KUFVIS_clean_sbu_0, # of connection points: 4
#     Node 31, Type 0, BuildingBlock: KUFVIS_clean_sbu_0, # of connection points: 4
#     Node 32, Type 0, BuildingBlock: KUFVIS_clean_sbu_0, # of connection points: 4
#     Node 33, Type 0, BuildingBlock: KUFVIS_clean_sbu_0, # of connection points: 4
#     Node 34, Type 0, BuildingBlock: KUFVIS_clean_sbu_0, # of connection points: 4
#     Node 35, Type 0, BuildingBlock: KUFVIS_clean_sbu_0, # of connection points: 4
#     Node 36, Type 0, BuildingBlock: KUFVIS_clean_sbu_0, # of connection points: 4
#     Node 37, Type 0, BuildingBlock: KUFVIS_clean_sbu_0, # of connection points: 4
#     Node 38, Type 0, BuildingBlock: KUFVIS_clean_sbu_0, # of connection points: 4
#     Node 39, Type 0, BuildingBlock: KUFVIS_clean_sbu_0, # of connection points: 4
#     Node 40, Type 0, BuildingBlock: KUFVIS_clean_sbu_0, # of connection points: 4
#     Node 41, Type 0, BuildingBlock: KUFVIS_clean_sbu_0, # of connection points: 4
#     Node 42, Type 0, BuildingBlock: KUFVIS_clean_sbu_0, # of connection points: 4
#     Node 43, Type 0, BuildingBlock: KUFVIS_clean_sbu_0, # of connection points: 4
#     Node 44, Type 0, BuildingBlock: KUFVIS_clean_sbu_0, # of connection points: 4
#     Node 45, Type 0, BuildingBlock: KUFVIS_clean_sbu_0, # of connection points: 4
#     Node 46, Type 0, BuildingBlock: KUFVIS_clean_sbu_0, # of connection points: 4
#     Node 47, Type 0, BuildingBlock: KUFVIS_clean_sbu_0, # of connection points: 4
#     Edge 48, Type (0, 0), BuildingBlock: OJICUG_clean_linker_0, # of connection points: 2
#     Edge 49, Type (0, 0), BuildingBlock: OJICUG_clean_linker_0, # of connection points: 2
#     Edge 50, Type (0, 0), BuildingBlock: OJICUG_clean_linker_0, # of connection points: 2
#     Edge 51, Type (0, 0), BuildingBlock: OJICUG_clean_linker_0, # of connection points: 2
#     Edge 52, Type (0, 0), BuildingBlock: OJICUG_clean_linker_0, # of connection points: 2
#     Edge 53, Type (0, 0), BuildingBlock: OJICUG_clean_linker_0, # of connection points: 2
#     Edge 54, Type (0, 0), BuildingBlock: OJICUG_clean_linker_0, # of connection points: 2
#     Edge 55, Type (0, 0), BuildingBlock: OJICUG_clean_linker_0, # of connection points: 2
#     Edge 56, Type (0, 0), BuildingBlock: OJICUG_clean_linker_0, # of connection points: 2
#     Edge 57, Type (0, 0), BuildingBlock: OJICUG_clean_linker_0, # of connection points: 2
#     Edge 58, Type (0, 0), BuildingBlock: OJICUG_clean_linker_0, # of connection points: 2
#     Edge 59, Type (0, 0), BuildingBlock: OJICUG_clean_linker_0, # of connection points: 2
#     Edge 60, Type (0, 0), BuildingBlock: OJICUG_clean_linker_0, # of connection points: 2
#     Edge 61, Type (0, 0), BuildingBlock: OJICUG_clean_linker_0, # of connection points: 2
#     Edge 62, Type (0, 0), BuildingBlock: OJICUG_clean_linker_0, # of connection points: 2
#     Edge 63, Type (0, 0), BuildingBlock: OJICUG_clean_linker_0, # of connection points: 2
#     Edge 64, Type (0, 0), BuildingBlock: OJICUG_clean_linker_0, # of connection points: 2
#     Edge 65, Type (0, 0), BuildingBlock: OJICUG_clean_linker_0, # of connection points: 2
#     Edge 66, Type (0, 0), BuildingBlock: OJICUG_clean_linker_0, # of connection points: 2
#     Edge 67, Type (0, 0), BuildingBlock: OJICUG_clean_linker_0, # of connection points: 2
#     Edge 68, Type (0, 0), BuildingBlock: OJICUG_clean_linker_0, # of connection points: 2
#     Edge 69, Type (0, 0), BuildingBlock: OJICUG_clean_linker_0, # of connection points: 2
#     Edge 70, Type (0, 0), BuildingBlock: OJICUG_clean_linker_0, # of connection points: 2
#     Edge 71, Type (0, 0), BuildingBlock: OJICUG_clean_linker_0, # of connection points: 2
#     Edge 72, Type (0, 0), BuildingBlock: OJICUG_clean_linker_0, # of connection points: 2
#     Edge 73, Type (0, 0), BuildingBlock: OJICUG_clean_linker_0, # of connection points: 2
#     Edge 74, Type (0, 0), BuildingBlock: OJICUG_clean_linker_0, # of connection points: 2
#     Edge 75, Type (0, 0), BuildingBlock: OJICUG_clean_linker_0, # of connection points: 2
#     Edge 76, Type (0, 0), BuildingBlock: OJICUG_clean_linker_0, # of connection points: 2
#     Edge 77, Type (0, 0), BuildingBlock: OJICUG_clean_linker_0, # of connection points: 2
#     Edge 78, Type (0, 0), BuildingBlock: OJICUG_clean_linker_0, # of connection points: 2
#     Edge 79, Type (0, 0), BuildingBlock: OJICUG_clean_linker_0, # of connection points: 2
#     Edge 80, Type (0, 0), BuildingBlock: OJICUG_clean_linker_0, # of connection points: 2
#     Edge 81, Type (0, 0), BuildingBlock: OJICUG_clean_linker_0, # of connection points: 2
#     Edge 82, Type (0, 0), BuildingBlock: OJICUG_clean_linker_0, # of connection points: 2
#     Edge 83, Type (0, 0), BuildingBlock: OJICUG_clean_linker_0, # of connection points: 2
#     Edge 84, Type (0, 0), BuildingBlock: OJICUG_clean_linker_0, # of connection points: 2
#     Edge 85, Type (0, 0), BuildingBlock: OJICUG_clean_linker_0, # of connection points: 2
#     Edge 86, Type (0, 0), BuildingBlock: OJICUG_clean_linker_0, # of connection points: 2
#     Edge 87, Type (0, 0), BuildingBlock: OJICUG_clean_linker_0, # of connection points: 2
#     Edge 88, Type (0, 0), BuildingBlock: OJICUG_clean_linker_0, # of connection points: 2
#     Edge 89, Type (0, 0), BuildingBlock: OJICUG_clean_linker_0, # of connection points: 2
#     Edge 90, Type (0, 0), BuildingBlock: OJICUG_clean_linker_0, # of connection points: 2
#     Edge 91, Type (0, 0), BuildingBlock: OJICUG_clean_linker_0, # of connection points: 2
#     Edge 92, Type (0, 0), BuildingBlock: OJICUG_clean_linker_0, # of connection points: 2
#     Edge 93, Type (0, 0), BuildingBlock: OJICUG_clean_linker_0, # of connection points: 2
#     Edge 94, Type (0, 0), BuildingBlock: OJICUG_clean_linker_0, # of connection points: 2
#     Edge 95, Type (0, 0), BuildingBlock: OJICUG_clean_linker_0, # of connection points: 2
#     Edge 96, Type (0, 0), BuildingBlock: OJICUG_clean_linker_0, # of connection points: 2
#     Edge 97, Type (0, 0), BuildingBlock: OJICUG_clean_linker_0, # of connection points: 2
#     Edge 98, Type (0, 0), BuildingBlock: OJICUG_clean_linker_0, # of connection points: 2
#     Edge 99, Type (0, 0), BuildingBlock: OJICUG_clean_linker_0, # of connection points: 2
#     Edge 100, Type (0, 0), BuildingBlock: OJICUG_clean_linker_0, # of connection points: 2
#     Edge 101, Type (0, 0), BuildingBlock: OJICUG_clean_linker_0, # of connection points: 2
#     Edge 102, Type (0, 0), BuildingBlock: OJICUG_clean_linker_0, # of connection points: 2
#     Edge 103, Type (0, 0), BuildingBlock: OJICUG_clean_linker_0, # of connection points: 2
#     Edge 104, Type (0, 0), BuildingBlock: OJICUG_clean_linker_0, # of connection points: 2
#     Edge 105, Type (0, 0), BuildingBlock: OJICUG_clean_linker_0, # of connection points: 2
#     Edge 106, Type (0, 0), BuildingBlock: OJICUG_clean_linker_0, # of connection points: 2
#     Edge 107, Type (0, 0), BuildingBlock: OJICUG_clean_linker_0, # of connection points: 2
#     Edge 108, Type (0, 0), BuildingBlock: OJICUG_clean_linker_0, # of connection points: 2
#     Edge 109, Type (0, 0), BuildingBlock: OJICUG_clean_linker_0, # of connection points: 2
#     Edge 110, Type (0, 0), BuildingBlock: OJICUG_clean_linker_0, # of connection points: 2
#     Edge 111, Type (0, 0), BuildingBlock: OJICUG_clean_linker_0, # of connection points: 2
#     Edge 112, Type (0, 0), BuildingBlock: OJICUG_clean_linker_0, # of connection points: 2
#     Edge 113, Type (0, 0), BuildingBlock: OJICUG_clean_linker_0, # of connection points: 2
#     Edge 114, Type (0, 0), BuildingBlock: OJICUG_clean_linker_0, # of connection points: 2
#     Edge 115, Type (0, 0), BuildingBlock: OJICUG_clean_linker_0, # of connection points: 2
#     Edge 116, Type (0, 0), BuildingBlock: OJICUG_clean_linker_0, # of connection points: 2
#     Edge 117, Type (0, 0), BuildingBlock: OJICUG_clean_linker_0, # of connection points: 2
#     Edge 118, Type (0, 0), BuildingBlock: OJICUG_clean_linker_0, # of connection points: 2
#     Edge 119, Type (0, 0), BuildingBlock: OJICUG_clean_linker_0, # of connection points: 2
#     Edge 120, Type (0, 0), BuildingBlock: OJICUG_clean_linker_0, # of connection points: 2
#     Edge 121, Type (0, 0), BuildingBlock: OJICUG_clean_linker_0, # of connection points: 2
#     Edge 122, Type (0, 0), BuildingBlock: OJICUG_clean_linker_0, # of connection points: 2
#     Edge 123, Type (0, 0), BuildingBlock: OJICUG_clean_linker_0, # of connection points: 2
#     Edge 124, Type (0, 0), BuildingBlock: OJICUG_clean_linker_0, # of connection points: 2
#     Edge 125, Type (0, 0), BuildingBlock: OJICUG_clean_linker_0, # of connection points: 2
#     Edge 126, Type (0, 0), BuildingBlock: OJICUG_clean_linker_0, # of connection points: 2
#     Edge 127, Type (0, 0), BuildingBlock: OJICUG_clean_linker_0, # of connection points: 2
#     Edge 128, Type (0, 0), BuildingBlock: OJICUG_clean_linker_0, # of connection points: 2
#     Edge 129, Type (0, 0), BuildingBlock: OJICUG_clean_linker_0, # of connection points: 2
#     Edge 130, Type (0, 0), BuildingBlock: OJICUG_clean_linker_0, # of connection points: 2
#     Edge 131, Type (0, 0), BuildingBlock: OJICUG_clean_linker_0, # of connection points: 2
#     Edge 132, Type (0, 0), BuildingBlock: OJICUG_clean_linker_0, # of connection points: 2
#     Edge 133, Type (0, 0), BuildingBlock: OJICUG_clean_linker_0, # of connection points: 2
#     Edge 134, Type (0, 0), BuildingBlock: OJICUG_clean_linker_0, # of connection points: 2
#     Edge 135, Type (0, 0), BuildingBlock: OJICUG_clean_linker_0, # of connection points: 2
#     Edge 136, Type (0, 0), BuildingBlock: OJICUG_clean_linker_0, # of connection points: 2
#     Edge 137, Type (0, 0), BuildingBlock: OJICUG_clean_linker_0, # of connection points: 2
#     Edge 138, Type (0, 0), BuildingBlock: OJICUG_clean_linker_0, # of connection points: 2
#     Edge 139, Type (0, 0), BuildingBlock: OJICUG_clean_linker_0, # of connection points: 2
#     Edge 140, Type (0, 0), BuildingBlock: OJICUG_clean_linker_0, # of connection points: 2
#     Edge 141, Type (0, 0), BuildingBlock: OJICUG_clean_linker_0, # of connection points: 2
#     Edge 142, Type (0, 0), BuildingBlock: OJICUG_clean_linker_0, # of connection points: 2
#     Edge 143, Type (0, 0), BuildingBlock: OJICUG_clean_linker_0, # of connection points: 2
# Relax obj value: 0.534
# Max RMSD: 0.481
# Mean RMSD: 0.296
data_MOF--net-unx--node1-KUFVIS_clean_sbu_0--edge1-OJICUG_clean_linker_0
_symmetry_space_group_name_H-M    P1
_symmetry_Int_Tables_number       1
_symmetry_cell_setting            triclinic
loop_
_symmetry_equiv_pos_as_xyz
'x, y, z'
_cell_length_a     37.422435
_cell_length_b     36.421807
_cell_length_c     37.25482
_cell_angle_alpha  91.99857
_cell_angle_beta   94.856644
_cell_angle_gamma 97.317109
loop_
_atom_site_label
_atom_site_type_symbol
_atom_site_fract_x
_atom_site_fract_y
_atom_site_fract_z
_atom_type_partial_charge
Mn0 Mn 0.0434 0.62585 0.08356 0.0
Mn1 Mn 0.00614 0.6396 0.00072 0.0
C2 C 0.08211 0.65774 0.04518 0.0
C3 C 0.07152 0.58478 0.12009 0.0
C4 C 0.99403 0.68292 0.06932 0.0
O5 O 0.99213 0.5978 0.08022 0.0
O6 O 0.9834 0.59315 0.02039 0.0
C7 C 0.03013 0.57669 0.961 0.0
N8 N 0.02841 0.61362 0.96499 0.0
C9 C 0.06195 0.62578 0.91338 0.0
C10 C 0.06423 0.5878 0.9089 0.0
C11 C 0.04834 0.56317 0.93294 0.0
C12 C 0.04421 0.63765 0.94244 0.0
H13 H 0.01761 0.5579 0.97906 0.0
C14 C 0.97154 0.589 0.05137 0.0
O15 O 0.05534 0.61069 0.13394 0.0
O16 O 0.0675 0.5802 0.0853 0.0
N17 N 0.02337 0.68331 0.97719 0.0
C18 C 0.01285 0.71763 0.98114 0.0
C19 C 0.02449 0.74546 0.95807 0.0
C20 C 0.04534 0.73733 0.92994 0.0
C21 C 0.05321 0.70104 0.92442 0.0
C22 C 0.04094 0.67449 0.94847 0.0
H23 H 0.99612 0.72394 0.00196 0.0
O24 O 0.09127 0.65472 0.07895 0.0
O25 O 0.0502 0.6399 0.03388 0.0
O26 O 0.01964 0.67272 0.09013 0.0
O27 O 0.98428 0.66865 0.03733 0.0
C28 C 0.07142 0.68982 0.89517 0.0
C29 C 0.07605 0.65224 0.88982 0.0
H30 H 0.07783 0.57721 0.88698 0.0
H31 H 0.04979 0.53379 0.92961 0.0
H32 H 0.01694 0.77291 0.96181 0.0
H33 H 0.05405 0.75882 0.912 0.0
H34 H 0.0814 0.70974 0.87626 0.0
H35 H 0.08979 0.64386 0.86703 0.0
Mn36 Mn 0.66415 0.51555 0.38661 0.0
Mn37 Mn 0.57426 0.51354 0.37495 0.0
C38 C 0.62971 0.45918 0.3664 0.0
C39 C 0.7109 0.49525 0.4244 0.0
C40 C 0.62464 0.54383 0.31984 0.0
O41 O 0.65858 0.56572 0.41195 0.0
O42 O 0.59819 0.55995 0.40165 0.0
C43 C 0.57069 0.49883 0.45147 0.0
N44 N 0.55558 0.49249 0.41704 0.0
C45 C 0.51537 0.44056 0.43459 0.0
C46 C 0.52879 0.4485 0.47066 0.0
C47 C 0.55674 0.47777 0.47915 0.0
C48 C 0.52917 0.46386 0.40843 0.0
H49 H 0.59463 0.51822 0.45698 0.0
C50 C 0.62858 0.57912 0.41238 0.0
O51 O 0.71835 0.51594 0.39756 0.0
O52 O 0.67824 0.49332 0.43288 0.0
N53 N 0.54417 0.47268 0.3484 0.0
C54 C 0.53916 0.46486 0.31093 0.0
C55 C 0.5118 0.43561 0.29934 0.0
C56 C 0.49143 0.41475 0.32341 0.0
C57 C 0.49673 0.42339 0.36047 0.0
C58 C 0.52138 0.45418 0.37233 0.0
H59 H 0.55337 0.47951 0.33332 0.0
O60 O 0.6632 0.46683 0.36172 0.0
O61 O 0.61595 0.48575 0.38303 0.0
O62 O 0.65481 0.53841 0.33684 0.0
O63 O 0.59357 0.53442 0.33134 0.0
C64 C 0.48094 0.40068 0.38625 0.0
C65 C 0.49111 0.40867 0.42329 0.0
H66 H 0.51894 0.43134 0.49181 0.0
H67 H 0.56856 0.48302 0.50668 0.0
H68 H 0.50672 0.42871 0.27083 0.0
H69 H 0.47215 0.3913 0.31305 0.0
H70 H 0.46241 0.37596 0.37786 0.0
H71 H 0.48053 0.38981 0.44284 0.0
Mn72 Mn 0.73208 0.97768 0.72117 0.0
Mn73 Mn 0.78575 0.05644 0.70553 0.0
C74 C 0.71221 0.01588 0.678 0.0
C75 C 0.68599 0.94667 0.75262 0.0
C76 C 0.79312 0.98311 0.66934 0.0
O77 O 0.7724 0.9808 0.76277 0.0
O78 O 0.80598 0.03326 0.74946 0.0
C79 C 0.76565 0.09641 0.76974 0.0
N80 N 0.76713 0.0935 0.73337 0.0
C81 C 0.73696 0.1475 0.72486 0.0
C82 C 0.7354 0.15128 0.76226 0.0
C83 C 0.74971 0.12555 0.78478 0.0
C84 C 0.75266 0.11759 0.71139 0.0
H85 H 0.77656 0.07667 0.78713 0.0
C86 C 0.80036 0.00509 0.76883 0.0
O87 O 0.70801 0.92866 0.73593 0.0
O88 O 0.6932 0.98245 0.75413 0.0
N89 N 0.77157 0.08317 0.66455 0.0
C90 C 0.78179 0.07989 0.63044 0.0
C91 C 0.77123 0.10442 0.60453 0.0
C92 C 0.75189 0.13323 0.61445 0.0
C93 C 0.74453 0.138 0.65049 0.0
C94 C 0.7555 0.11244 0.67499 0.0
H95 H 0.79744 0.05832 0.62296 0.0
O96 O 0.69629 0.98257 0.68003 0.0
O97 O 0.73785 0.02723 0.70354 0.0
O98 O 0.76821 0.96404 0.68528 0.0
O99 O 0.80301 0.01798 0.67516 0.0
C100 C 0.72811 0.16799 0.66334 0.0
C101 C 0.72413 0.17261 0.7005 0.0
H102 H 0.72345 0.17392 0.774 0.0
H103 H 0.74853 0.12824 0.81366 0.0
H104 H 0.77823 0.10132 0.5771 0.0
H105 H 0.744 0.1523 0.59449 0.0
H106 H 0.71911 0.18806 0.645 0.0
H107 H 0.71186 0.19602 0.71014 0.0
Mn108 Mn 0.39006 0.30373 0.99538 0.0
Mn109 Mn 0.43175 0.23079 0.01287 0.0
C110 C 0.42262 0.27805 0.94942 0.0
C111 C 0.39017 0.36932 0.00327 0.0
C112 C 0.35058 0.2271 0.00068 0.0
O113 O 0.38855 0.29495 0.05086 0.0
O114 O 0.43831 0.27036 0.05101 0.0
C115 C 0.51034 0.25683 0.026 0.0
N116 N 0.48225 0.23409 0.00841 0.0
C117 C 0.52196 0.19263 0.98814 0.0
C118 C 0.55166 0.21658 0.00447 0.0
C119 C 0.5458 0.249 0.02338 0.0
C120 C 0.48775 0.20294 0.99016 0.0
H121 H 0.50558 0.27988 0.04262 0.0
C122 C 0.41087 0.27566 0.06711 0.0
O123 O 0.3607 0.34611 0.99908 0.0
O124 O 0.42004 0.3546 0.00358 0.0
N125 N 0.42619 0.19418 0.97478 0.0
C126 C 0.39621 0.17793 0.95409 0.0
C127 C 0.39612 0.14241 0.93868 0.0
C128 C 0.42783 0.12592 0.94305 0.0
C129 C 0.45994 0.14681 0.9572 0.0
C130 C 0.4578 0.18113 0.97366 0.0
H131 H 0.3728 0.19177 0.94923 0.0
O132 O 0.4011 0.30239 0.94197 0.0
O133 O 0.42624 0.27196 0.98305 0.0
O134 O 0.34987 0.25806 0.98543 0.0
O135 O 0.37931 0.21962 0.01779 0.0
C136 C 0.49376 0.13485 0.95614 0.0
C137 C 0.52452 0.15847 0.97051 0.0
H138 H 0.5789 0.2099 0.00385 0.0
H139 H 0.56843 0.26708 0.03705 0.0
H140 H 0.37176 0.12759 0.9246 0.0
H141 H 0.42758 0.09737 0.93633 0.0
H142 H 0.49658 0.10834 0.94327 0.0
H143 H 0.54966 0.1498 0.96775 0.0
Mn144 Mn 0.15111 0.44989 0.70905 0.0
Mn145 Mn 0.20427 0.38968 0.73805 0.0
C146 C 0.13054 0.41183 0.75611 0.0
C147 C 0.10743 0.45449 0.66156 0.0
C148 C 0.21312 0.47226 0.76431 0.0
O149 O 0.19577 0.46078 0.67938 0.0
O150 O 0.20338 0.40481 0.68877 0.0
C151 C 0.16756 0.32981 0.68659 0.0
N152 N 0.18209 0.3414 0.72057 0.0
C153 C 0.17249 0.27952 0.74093 0.0
C154 C 0.15727 0.26687 0.70634 0.0
C155 C 0.15457 0.29222 0.67907 0.0
C156 C 0.18282 0.31766 0.74739 0.0
H157 H 0.16583 0.34902 0.66527 0.0
C158 C 0.2166 0.43609 0.67992 0.0
O159 O 0.12366 0.48418 0.67942 0.0
O160 O 0.11939 0.42375 0.66897 0.0
N161 N 0.20632 0.36966 0.78459 0.0
C162 C 0.22801 0.38505 0.81381 0.0
C163 C 0.24004 0.3623 0.84043 0.0
C164 C 0.22805 0.32426 0.83833 0.0
C165 C 0.206 0.30869 0.80818 0.0
C166 C 0.19686 0.33233 0.78099 0.0
H167 H 0.23902 0.41391 0.8152 0.0
O168 O 0.11254 0.43702 0.74328 0.0
O169 O 0.15749 0.40627 0.73795 0.0
O170 O 0.18311 0.48025 0.74901 0.0
O171 O 0.22552 0.44103 0.7586 0.0
C172 C 0.19682 0.27013 0.80215 0.0
C173 C 0.1795 0.2556 0.7687 0.0
H174 H 0.14822 0.23771 0.70026 0.0
H175 H 0.14308 0.28272 0.65218 0.0
H176 H 0.26084 0.37366 0.86079 0.0
H177 H 0.23856 0.30674 0.85824 0.0
H178 H 0.20409 0.25132 0.82262 0.0
H179 H 0.17317 0.22587 0.76405 0.0
Mn180 Mn 0.79685 0.24292 0.01027 0.0
Mn181 Mn 0.77686 0.2157 0.09301 0.0
C182 C 0.77732 0.28378 0.05182 0.0
C183 C 0.78047 0.26083 0.95108 0.0
C184 C 0.85322 0.23688 0.07431 0.0
O185 O 0.79493 0.18587 0.00401 0.0
O186 O 0.7818 0.17158 0.06076 0.0
C187 C 0.69919 0.21966 0.07656 0.0
N188 N 0.72592 0.20399 0.09496 0.0
C189 C 0.68488 0.1783 0.13683 0.0
C190 C 0.65727 0.19481 0.11878 0.0
C191 C 0.66444 0.21557 0.08846 0.0
C192 C 0.7194 0.18478 0.12473 0.0
H193 H 0.70468 0.23661 0.05396 0.0
C194 C 0.79158 0.16289 0.02948 0.0
O195 O 0.81325 0.2549 0.96127 0.0
O196 O 0.75631 0.24939 0.97258 0.0
N197 N 0.78143 0.18416 0.13271 0.0
C198 C 0.81163 0.17149 0.14806 0.0
C199 C 0.80882 0.14828 0.17729 0.0
C200 C 0.77504 0.13844 0.19052 0.0
C201 C 0.74427 0.15121 0.17379 0.0
C202 C 0.74864 0.17332 0.14403 0.0
H203 H 0.83759 0.17864 0.1378 0.0
O204 O 0.7947 0.29489 0.02513 0.0
O205 O 0.7704 0.24792 0.05319 0.0
O206 O 0.84569 0.24307 0.04106 0.0
O207 O 0.82911 0.22824 0.09563 0.0
C208 C 0.7094 0.14277 0.18532 0.0
C209 C 0.67981 0.15694 0.16727 0.0
H210 H 0.63074 0.19232 0.12864 0.0
H211 H 0.64353 0.22913 0.07466 0.0
H212 H 0.83264 0.13807 0.18965 0.0
H213 H 0.773 0.12086 0.21331 0.0
H214 H 0.70514 0.12586 0.20832 0.0
H215 H 0.65326 0.15115 0.17693 0.0
Mn216 Mn 0.97058 0.0973 0.40658 0.0
Mn217 Mn 0.94154 0.15768 0.34796 0.0
C218 C 0.00584 0.15459 0.40836 0.0
C219 C 0.01233 0.05407 0.41223 0.0
C220 C 0.90537 0.13689 0.41615 0.0
O221 O 0.9306 0.06648 0.37445 0.0
O222 O 0.93148 0.10532 0.33023 0.0
C223 C 0.98567 0.14731 0.28704 0.0
N224 N 0.97223 0.17007 0.31073 0.0
C225 C 0.9925 0.22397 0.27871 0.0
C226 C 0.00663 0.20113 0.25389 0.0
C227 C 0.00339 0.16267 0.25821 0.0
C228 C 0.97515 0.2071 0.30683 0.0
H229 H 0.98248 0.11768 0.28997 0.0
C230 C 0.91533 0.07861 0.34633 0.0
O231 O 0.98693 0.05375 0.43412 0.0
O232 O 0.00897 0.07427 0.38495 0.0
N233 N 0.9492 0.20939 0.3613 0.0
C234 C 0.93924 0.22772 0.39059 0.0
C235 C 0.94308 0.26664 0.39202 0.0
C236 C 0.9566 0.28622 0.36314 0.0
C237 C 0.96686 0.2667 0.3334 0.0
C238 C 0.96246 0.22799 0.33348 0.0
H239 H 0.92838 0.2128 0.41261 0.0
O240 O 0.0082 0.1317 0.4336 0.0
O241 O 0.9812 0.14382 0.38156 0.0
O242 O 0.92959 0.1193 0.43226 0.0
O243 O 0.90735 0.14821 0.38432 0.0
C244 C 0.98231 0.28413 0.30419 0.0
C245 C 0.99537 0.26284 0.27698 0.0
H246 H 0.02029 0.21285 0.23161 0.0
H247 H 0.01422 0.14489 0.23915 0.0
H248 H 0.93542 0.28155 0.41519 0.0
H249 H 0.95971 0.31624 0.36445 0.0
H250 H 0.98477 0.31392 0.30271 0.0
H251 H 0.00809 0.27667 0.25518 0.0
Mn252 Mn 0.08506 0.96558 0.57629 0.0
Mn253 Mn 0.14253 0.01781 0.63726 0.0
C254 C 0.07854 0.9575 0.6356 0.0
C255 C 0.08134 0.90823 0.54421 0.0
C256 C 0.07589 0.0456 0.60084 0.0
O257 O 0.12037 0.99262 0.54526 0.0
O258 O 0.16072 0.02082 0.58877 0.0
C259 C 0.19962 0.96903 0.63412 0.0
N260 N 0.17616 0.98538 0.65344 0.0
C261 C 0.19429 0.95487 0.70693 0.0
C262 C 0.21875 0.93777 0.68766 0.0
C263 C 0.22133 0.94481 0.65106 0.0
C264 C 0.17274 0.97801 0.68838 0.0
H265 H 0.20161 0.97433 0.60597 0.0
C266 C 0.14951 0.01335 0.55565 0.0
O267 O 0.05982 0.93224 0.53426 0.0
O268 O 0.10584 0.91901 0.56972 0.0
N269 N 0.12987 0.019 0.68588 0.0
C270 C 0.11136 0.04391 0.702 0.0
C271 C 0.10856 0.04332 0.73934 0.0
C272 C 0.12591 0.01805 0.7599 0.0
C273 C 0.14688 0.99446 0.74307 0.0
C274 C 0.14871 0.99639 0.70578 0.0
H275 H 0.09871 0.06395 0.68636 0.0
O276 O 0.05427 0.94165 0.61155 0.0
O277 O 0.10745 0.97496 0.62388 0.0
O278 O 0.06217 0.0154 0.58223 0.0
O279 O 0.1059 0.04922 0.62104 0.0
C280 C 0.16765 0.97063 0.76214 0.0
C281 C 0.19114 0.95061 0.74403 0.0
H282 H 0.23591 0.91949 0.70077 0.0
H283 H 0.24012 0.9317 0.636 0.0
H284 H 0.09325 0.06246 0.75228 0.0
H285 H 0.12402 0.01791 0.78875 0.0
H286 H 0.1665 0.96825 0.7909 0.0
H287 H 0.20746 0.93288 0.75911 0.0
Mn288 Mn 0.09091 0.69587 0.45075 0.0
Mn289 Mn 0.06384 0.77042 0.41458 0.0
C290 C 0.0739 0.69661 0.38835 0.0
C291 C 0.07286 0.64041 0.47776 0.0
C292 C 0.14214 0.76275 0.44099 0.0
O293 O 0.08524 0.733 0.49399 0.0
O294 O 0.04627 0.76255 0.46161 0.0
C295 C 0.99101 0.73127 0.39465 0.0
N296 N 0.0138 0.76376 0.3982 0.0
C297 C 0.96381 0.79892 0.39952 0.0
C298 C 0.94001 0.76575 0.39529 0.0
C299 C 0.95361 0.73186 0.39219 0.0
C300 C 0.00086 0.79674 0.40096 0.0
H301 H 0.00117 0.70493 0.39598 0.0
C302 C 0.06444 0.75858 0.49094 0.0
O303 O 0.1063 0.656 0.48187 0.0
O304 O 0.04968 0.65915 0.46143 0.0
N305 N 0.0601 0.82205 0.41858 0.0
C306 C 0.08608 0.85033 0.43129 0.0
C307 C 0.07693 0.88626 0.43558 0.0
C308 C 0.04095 0.89253 0.42806 0.0
C309 C 0.01456 0.86269 0.41641 0.0
C310 C 0.02555 0.82773 0.41087 0.0
H311 H 0.11368 0.84569 0.43815 0.0
O312 O 0.0903 0.66957 0.40024 0.0
O313 O 0.0668 0.71911 0.41283 0.0
O314 O 0.13905 0.72776 0.44417 0.0
O315 O 0.11533 0.78029 0.43309 0.0
C316 C 0.97751 0.86577 0.41251 0.0
C317 C 0.95236 0.83375 0.40542 0.0
H318 H 0.91138 0.76551 0.3966 0.0
H319 H 0.93537 0.70616 0.39 0.0
H320 H 0.09742 0.90885 0.44548 0.0
H321 H 0.03372 0.92009 0.43246 0.0
H322 H 0.96796 0.89226 0.41693 0.0
H323 H 0.92437 0.83611 0.40622 0.0
Mn324 Mn 0.39705 0.4092 0.62323 0.0
Mn325 Mn 0.43049 0.38976 0.54729 0.0
C326 C 0.35672 0.37906 0.58031 0.0
C327 C 0.36574 0.44469 0.66008 0.0
C328 C 0.42968 0.33818 0.60258 0.0
O329 O 0.44267 0.44391 0.6277 0.0
O330 O 0.46632 0.40847 0.58917 0.0
C331 C 0.45986 0.46825 0.53615 0.0
N332 N 0.4397 0.43576 0.52348 0.0
C333 C 0.43584 0.45813 0.46321 0.0
C334 C 0.456 0.49174 0.47599 0.0
C335 C 0.46843 0.49663 0.51257 0.0
C336 C 0.42881 0.43037 0.48792 0.0
H337 H 0.4696 0.47297 0.56391 0.0
C338 C 0.46959 0.43148 0.61615 0.0
O339 O 0.38607 0.42125 0.67384 0.0
O340 O 0.36823 0.45095 0.6265 0.0
N341 N 0.40515 0.37084 0.50218 0.0
C342 C 0.39337 0.33471 0.49202 0.0
C343 C 0.38166 0.32498 0.45559 0.0
C344 C 0.38429 0.35173 0.42966 0.0
C345 C 0.39972 0.38781 0.43999 0.0
C346 C 0.41061 0.39615 0.4767 0.0
H347 H 0.39157 0.314 0.51201 0.0
O348 O 0.35421 0.37664 0.6143 0.0
O349 O 0.38536 0.40067 0.56974 0.0
O350 O 0.42607 0.36251 0.62765 0.0
O351 O 0.42217 0.34298 0.5694 0.0
C352 C 0.40497 0.41576 0.4151 0.0
C353 C 0.42286 0.45102 0.42675 0.0
H354 H 0.46242 0.5138 0.45791 0.0
H355 H 0.48439 0.52236 0.52268 0.0
H356 H 0.3709 0.29703 0.44683 0.0
H357 H 0.37534 0.34396 0.4017 0.0
H358 H 0.39609 0.41018 0.38678 0.0
H359 H 0.42752 0.47208 0.40725 0.0
Mn360 Mn 0.76492 0.47299 0.85585 0.0
Mn361 Mn 0.84118 0.44164 0.83334 0.0
C362 C 0.8122 0.51551 0.83966 0.0
C363 C 0.73348 0.50118 0.89815 0.0
C364 C 0.775 0.4423 0.78071 0.0
O365 O 0.75777 0.41798 0.87169 0.0
O366 O 0.81129 0.40254 0.85777 0.0
C367 C 0.87607 0.43768 0.90719 0.0
N368 N 0.87705 0.45059 0.87352 0.0
C369 C 0.93628 0.4843 0.88889 0.0
C370 C 0.9359 0.47123 0.92385 0.0
C371 C 0.90554 0.44784 0.93308 0.0
C372 C 0.90598 0.47323 0.86446 0.0
H373 H 0.85289 0.41989 0.91385 0.0
C374 C 0.78029 0.39417 0.86962 0.0
O375 O 0.71671 0.48513 0.86859 0.0
O376 O 0.76632 0.49439 0.90591 0.0
N377 N 0.87281 0.47522 0.80922 0.0
C378 C 0.86774 0.48675 0.77513 0.0
C379 C 0.89434 0.51168 0.7621 0.0
C380 C 0.92702 0.52289 0.78346 0.0
C381 C 0.93206 0.51001 0.81826 0.0
C382 C 0.90389 0.4859 0.83016 0.0
H383 H 0.84307 0.47802 0.7584 0.0
O384 O 0.77981 0.52368 0.84024 0.0
O385 O 0.81706 0.48262 0.85112 0.0
O386 O 0.75489 0.45644 0.80208 0.0
O387 O 0.80613 0.43327 0.79066 0.0
C388 C 0.96325 0.52101 0.84203 0.0
C389 C 0.96529 0.50821 0.87738 0.0
H390 H 0.95862 0.4791 0.9438 0.0
H391 H 0.90484 0.4377 0.96002 0.0
H392 H 0.88869 0.52233 0.73589 0.0
H393 H 0.94788 0.54169 0.77325 0.0
H394 H 0.9856 0.53963 0.83364 0.0
H395 H 0.98912 0.51708 0.89556 0.0
Mn396 Mn 0.71372 0.00627 0.28134 0.0
Mn397 Mn 0.65892 0.92719 0.25758 0.0
C398 C 0.73136 0.96722 0.23944 0.0
C399 C 0.76207 0.03648 0.31857 0.0
C400 C 0.64918 0.99917 0.22245 0.0
O401 O 0.67855 0.0044 0.3192 0.0
O402 O 0.64181 0.95248 0.30092 0.0
C403 C 0.68164 0.88918 0.32308 0.0
N404 N 0.6786 0.89092 0.28649 0.0
C405 C 0.70988 0.83762 0.2798 0.0
C406 C 0.71317 0.83517 0.31739 0.0
C407 C 0.69901 0.86109 0.33911 0.0
C408 C 0.69249 0.86634 0.26538 0.0
H409 H 0.67113 0.9092 0.33996 0.0
C410 C 0.65106 0.98097 0.32261 0.0
O411 O 0.73976 0.05536 0.30072 0.0
O412 O 0.75364 0.00092 0.31775 0.0
N413 N 0.67151 0.89914 0.2173 0.0
C414 C 0.66225 0.90275 0.1816 0.0
C415 C 0.67354 0.87847 0.15602 0.0
C416 C 0.69318 0.84998 0.16754 0.0
C417 C 0.70041 0.84541 0.20456 0.0
C418 C 0.68849 0.87053 0.22872 0.0
H419 H 0.64669 0.92429 0.17288 0.0
O420 O 0.7461 0.00103 0.24415 0.0
O421 O 0.70716 0.95591 0.26159 0.0
O422 O 0.67483 0.01908 0.24237 0.0
O423 O 0.63988 0.96445 0.22612 0.0
C424 C 0.71824 0.81644 0.21845 0.0
C425 C 0.72311 0.81265 0.25606 0.0
H426 H 0.72651 0.81352 0.32986 0.0
H427 H 0.70159 0.8595 0.36816 0.0
H428 H 0.66702 0.88161 0.12753 0.0
H429 H 0.70179 0.83124 0.14777 0.0
H430 H 0.72796 0.79671 0.20045 0.0
H431 H 0.73673 0.79018 0.26643 0.0
Mn432 Mn 0.5911 0.12068 0.06319 0.0
Mn433 Mn 0.5934 0.03486 0.02913 0.0
C434 C 0.58867 0.07335 0.10237 0.0
C435 C 0.55766 0.1679 0.07624 0.0
C436 C 0.66005 0.08709 0.05105 0.0
O437 O 0.5909 0.12799 0.00983 0.0
O438 O 0.59366 0.07032 0.98908 0.0
C439 C 0.51753 0.03102 0.99859 0.0
N440 N 0.54331 0.01637 0.01944 0.0
C441 C 0.49897 0.96987 0.03992 0.0
C442 C 0.47196 0.98406 0.01817 0.0
C443 C 0.48125 0.01511 0.99785 0.0
C444 C 0.53447 0.98753 0.04027 0.0
H445 H 0.52462 0.05511 0.98325 0.0
C446 C 0.59622 0.10524 0.98482 0.0
O447 O 0.59173 0.17419 0.07139 0.0
O448 O 0.54169 0.1346 0.06814 0.0
N449 N 0.59506 0.99629 0.06227 0.0
C450 C 0.62491 0.98467 0.07942 0.0
C451 C 0.62085 0.95338 0.10033 0.0
C452 C 0.58624 0.93398 0.10283 0.0
C453 C 0.55614 0.94541 0.08332 0.0
C454 C 0.56205 0.97645 0.06246 0.0
H455 H 0.65155 0.99935 0.07723 0.0
O456 O 0.5926 0.1075 0.11411 0.0
O457 O 0.58104 0.06791 0.0673 0.0
O458 O 0.64499 0.1149 0.06144 0.0
O459 O 0.64352 0.05493 0.04077 0.0
C460 C 0.52068 0.92687 0.08312 0.0
C461 C 0.49203 0.93932 0.0617 0.0
H462 H 0.44397 0.97172 0.01729 0.0
H463 H 0.46047 0.02694 0.98191 0.0
H464 H 0.64445 0.94427 0.11419 0.0
H465 H 0.5832 0.90995 0.11918 0.0
H466 H 0.51514 0.90297 0.09926 0.0
H467 H 0.46483 0.92506 0.062 0.0
Mn468 Mn 0.96072 0.81385 0.2754 0.0
Mn469 Mn 0.01034 0.77747 0.21401 0.0
C470 C 0.99541 0.76698 0.29077 0.0
C471 C 0.91029 0.82226 0.308 0.0
C472 C 0.03817 0.84615 0.26024 0.0
O473 O 0.93857 0.83203 0.22811 0.0
O474 O 0.97877 0.81248 0.19266 0.0
C475 C 0.94692 0.7344 0.17167 0.0
N476 N 0.97948 0.73548 0.19136 0.0
C477 C 0.97775 0.66938 0.18321 0.0
C478 C 0.94422 0.66766 0.16296 0.0
C479 C 0.92876 0.70032 0.15716 0.0
C480 C 0.99437 0.70409 0.19747 0.0
H481 H 0.93491 0.75931 0.16682 0.0
C482 C 0.95185 0.82975 0.19778 0.0
O483 O 0.93621 0.84833 0.30401 0.0
O484 O 0.91212 0.7907 0.29111 0.0
N485 N 0.04234 0.74261 0.22841 0.0
C486 C 0.07809 0.75002 0.24038 0.0
C487 C 0.09853 0.72066 0.24608 0.0
C488 C 0.08266 0.68411 0.23715 0.0
C489 C 0.04694 0.67748 0.22132 0.0
C490 C 0.02778 0.70789 0.21685 0.0
H491 H 0.09076 0.77817 0.24616 0.0
O492 O 0.98536 0.78886 0.31507 0.0
O493 O 0.98345 0.77144 0.25746 0.0
O494 O 0.00757 0.84905 0.2719 0.0
O495 O 0.04363 0.81951 0.23887 0.0
C496 C 0.03032 0.64217 0.20809 0.0
C497 C 0.99568 0.63809 0.18914 0.0
H498 H 0.93021 0.64149 0.15152 0.0
H499 H 0.90298 0.69927 0.14135 0.0
H500 H 0.12656 0.72625 0.25684 0.0
H501 H 0.09864 0.66154 0.24105 0.0
H502 H 0.04438 0.61811 0.21142 0.0
H503 H 0.98349 0.61091 0.17842 0.0
Mn504 Mn 0.51586 0.17004 0.52477 0.0
Mn505 Mn 0.52293 0.25711 0.49251 0.0
C506 C 0.50563 0.22445 0.56127 0.0
C507 C 0.54338 0.15546 0.58407 0.0
C508 C 0.45203 0.20691 0.48743 0.0
O509 O 0.53567 0.16277 0.47596 0.0
O510 O 0.52775 0.21838 0.45647 0.0
C511 C 0.60022 0.26001 0.48022 0.0
N512 N 0.57409 0.27284 0.49866 0.0
C513 C 0.61703 0.32277 0.52652 0.0
C514 C 0.64438 0.30933 0.50857 0.0
C515 C 0.63558 0.27858 0.48444 0.0
C516 C 0.58186 0.30345 0.52088 0.0
H517 H 0.59392 0.23672 0.46126 0.0
C518 C 0.53342 0.18527 0.451 0.0
O519 O 0.50922 0.15833 0.57746 0.0
O520 O 0.56188 0.16192 0.55687 0.0
N521 N 0.5194 0.30025 0.52163 0.0
C522 C 0.49021 0.31895 0.51944 0.0
C523 C 0.49416 0.35598 0.53193 0.0
C524 C 0.52727 0.37334 0.54821 0.0
C525 C 0.55758 0.35474 0.54794 0.0
C526 C 0.55275 0.31843 0.53265 0.0
H527 H 0.46491 0.30646 0.5055 0.0
O528 O 0.49348 0.19119 0.56798 0.0
O529 O 0.52582 0.22614 0.53466 0.0
O530 O 0.46571 0.17779 0.49812 0.0
O531 O 0.4703 0.23955 0.48717 0.0
C532 C 0.59281 0.37304 0.55691 0.0
C533 C 0.62267 0.35679 0.54653 0.0
H534 H 0.67168 0.32387 0.5112 0.0
H535 H 0.65563 0.27019 0.46788 0.0
H536 H 0.47274 0.37203 0.52619 0.0
H537 H 0.52995 0.40231 0.55694 0.0
H538 H 0.5971 0.40085 0.56917 0.0
H539 H 0.64954 0.37212 0.55142 0.0
Mn540 Mn 0.90965 0.70541 0.7361 0.0
Mn541 Mn 0.98076 0.67827 0.78643 0.0
C542 C 0.94294 0.66382 0.71018 0.0
C543 C 0.889 0.74574 0.69268 0.0
C544 C 0.90424 0.6403 0.78908 0.0
O545 O 0.91417 0.74157 0.78043 0.0
O546 O 0.96031 0.71906 0.81049 0.0
C547 C 0.02741 0.74878 0.77713 0.0
N548 N 0.0208 0.71118 0.77255 0.0
C549 C 0.07386 0.7096 0.74054 0.0
C550 C 0.08098 0.74832 0.74459 0.0
C551 C 0.05766 0.76799 0.76302 0.0
C552 C 0.04283 0.69206 0.75446 0.0
H553 H 0.00964 0.76405 0.79126 0.0
C554 C 0.93656 0.74129 0.80819 0.0
O555 O 0.86647 0.72628 0.71164 0.0
O556 O 0.92286 0.74559 0.70275 0.0
N557 N 0.0053 0.6397 0.76836 0.0
C558 C 0.00215 0.60404 0.77862 0.0
C559 C 0.0248 0.5798 0.76541 0.0
C560 C 0.05274 0.59352 0.74463 0.0
C561 C 0.05894 0.63166 0.73927 0.0
C562 C 0.0348 0.65407 0.75254 0.0
H563 H 0.98203 0.59444 0.79644 0.0
O564 O 0.91223 0.67024 0.69576 0.0
O565 O 0.95533 0.68432 0.73926 0.0
O566 O 0.88916 0.66201 0.76728 0.0
O567 O 0.93851 0.64354 0.79843 0.0
C568 C 0.0896 0.64861 0.72383 0.0
C569 C 0.09689 0.68761 0.72419 0.0
H570 H 0.10455 0.76319 0.73414 0.0
H571 H 0.06303 0.79787 0.76643 0.0
H572 H 0.02129 0.55091 0.77193 0.0
H573 H 0.07068 0.57499 0.73504 0.0
H574 H 0.10849 0.63198 0.71289 0.0
H575 H 0.12102 0.70038 0.71306 0.0
Mn576 Mn 0.96049 0.87682 0.99291 0.0
Mn577 Mn 0.01591 0.91073 0.06789 0.0
C578 C 0.02677 0.89227 0.98847 0.0
C579 C 0.94561 0.84076 0.9351 0.0
C580 C 0.9832 0.82927 0.05195 0.0
O581 O 0.92743 0.88096 0.0353 0.0
O582 O 0.96694 0.92388 0.06043 0.0
C583 C 0.01814 0.9908 0.05489 0.0
N584 N 0.03565 0.96136 0.06387 0.0
C585 C 0.09228 0.00089 0.07634 0.0
C586 C 0.07486 0.03158 0.06723 0.0
C587 C 0.03766 0.02647 0.05628 0.0
C588 C 0.07151 0.96591 0.07388 0.0
H589 H 0.98945 0.98717 0.0469 0.0
C590 C 0.93968 0.90058 0.06359 0.0
O591 O 0.92193 0.8442 0.95764 0.0
O592 O 0.97709 0.85858 0.9452 0.0
N593 N 0.06516 0.90158 0.07673 0.0
C594 C 0.07778 0.86951 0.08631 0.0
C595 C 0.114 0.87039 0.10025 0.0
C596 C 0.13718 0.90395 0.10343 0.0
C597 C 0.12368 0.93667 0.09383 0.0
C598 C 0.08699 0.93438 0.08148 0.0
H599 H 0.06009 0.84365 0.0845 0.0
O600 O 0.00419 0.87704 0.96249 0.0
O601 O 0.01016 0.90218 0.01542 0.0
O602 O 0.97359 0.83154 0.01831 0.0
O603 O 0.99723 0.85706 0.07315 0.0
C604 C 0.14497 0.97163 0.09705 0.0
C605 C 0.12937 0.00368 0.08796 0.0
H606 H 0.08977 0.05919 0.06859 0.0
H607 H 0.02399 0.05002 0.04925 0.0
H608 H 0.12393 0.84547 0.10951 0.0
H609 H 0.16502 0.90441 0.11423 0.0
H610 H 0.17331 0.97424 0.10665 0.0
H611 H 0.14606 0.03039 0.09039 0.0
Mn612 Mn 0.40297 0.79508 0.2046 0.0
Mn613 Mn 0.35364 0.83954 0.2562 0.0
C614 C 0.38701 0.85318 0.18536 0.0
C615 C 0.40143 0.74698 0.16183 0.0
C616 C 0.43469 0.83482 0.27195 0.0
O617 O 0.39084 0.76055 0.24731 0.0
O618 O 0.34241 0.78624 0.25416 0.0
C619 C 0.28182 0.81713 0.216 0.0
N620 N 0.30729 0.84399 0.23236 0.0
C621 C 0.27181 0.89157 0.21411 0.0
C622 C 0.24537 0.86455 0.19675 0.0
C623 C 0.25026 0.82708 0.19798 0.0
C624 C 0.3027 0.88001 0.23161 0.0
H625 H 0.28571 0.7884 0.21615 0.0
C626 C 0.36481 0.76574 0.26619 0.0
O627 O 0.4304 0.75784 0.18315 0.0
O628 O 0.37286 0.76268 0.1666 0.0
N629 N 0.36201 0.89181 0.25778 0.0
C630 C 0.39253 0.91449 0.27032 0.0
C631 C 0.39271 0.95263 0.26991 0.0
C632 C 0.36128 0.96701 0.2575 0.0
C633 C 0.32961 0.94321 0.24566 0.0
C634 C 0.33142 0.90529 0.24589 0.0
H635 H 0.41686 0.90384 0.27985 0.0
O636 O 0.41 0.83654 0.16892 0.0
O637 O 0.37234 0.83386 0.21 0.0
O638 O 0.44042 0.82367 0.24044 0.0
O639 O 0.40274 0.83692 0.28182 0.0
C640 C 0.29711 0.9552 0.23153 0.0
C641 C 0.26933 0.92964 0.2138 0.0
H642 H 0.22146 0.87225 0.18204 0.0
H643 H 0.22999 0.80599 0.1847 0.0
H644 H 0.41735 0.97069 0.27826 0.0
H645 H 0.36317 0.9962 0.25501 0.0
H646 H 0.29335 0.984 0.23271 0.0
H647 H 0.24657 0.93963 0.19934 0.0
Mn648 Mn 0.52322 0.15303 0.7901 0.0
Mn649 Mn 0.50155 0.09848 0.85736 0.0
C650 C 0.46538 0.1144 0.78574 0.0
C651 C 0.55003 0.16055 0.73538 0.0
C652 C 0.48288 0.17597 0.85637 0.0
O653 O 0.57488 0.16328 0.81985 0.0
O654 O 0.54427 0.12918 0.85296 0.0
C655 C 0.55574 0.05489 0.829 0.0
N656 N 0.52615 0.05732 0.84734 0.0
C657 C 0.53163 0.00022 0.87513 0.0
C658 C 0.56388 0.99796 0.85897 0.0
C659 C 0.57505 0.02455 0.83429 0.0
C660 C 0.51222 0.02931 0.86604 0.0
H661 H 0.56544 0.07688 0.8121 0.0
C662 C 0.57277 0.14955 0.85022 0.0
O663 O 0.54221 0.18887 0.75399 0.0
O664 O 0.54365 0.1287 0.7493 0.0
N665 N 0.46234 0.06171 0.86647 0.0
C666 C 0.42908 0.06589 0.87656 0.0
C667 C 0.41161 0.03904 0.89797 0.0
C668 C 0.42926 0.00974 0.91042 0.0
C669 C 0.46329 0.0057 0.89967 0.0
C670 C 0.47841 0.03168 0.87669 0.0
H671 H 0.41766 0.09114 0.87123 0.0
O672 O 0.47317 0.14094 0.76478 0.0
O673 O 0.4929 0.10637 0.80615 0.0
O674 O 0.50185 0.1848 0.82964 0.0
O675 O 0.47694 0.14272 0.86765 0.0
C676 C 0.48386 0.97824 0.91266 0.0
C677 C 0.51812 0.97545 0.90027 0.0
H678 H 0.57975 0.97563 0.8647 0.0
H679 H 0.59931 0.02268 0.82084 0.0
H680 H 0.38657 0.04299 0.90889 0.0
H681 H 0.417 0.99137 0.92947 0.0
H682 H 0.47328 0.95864 0.93158 0.0
H683 H 0.53329 0.95362 0.90951 0.0
Mn684 Mn 0.5175 0.27181 0.27301 0.0
Mn685 Mn 0.56891 0.31861 0.21237 0.0
C686 C 0.55644 0.32374 0.29987 0.0
C687 C 0.52105 0.22157 0.31011 0.0
C688 C 0.47966 0.31173 0.22052 0.0
O689 O 0.51044 0.23862 0.22535 0.0
O690 O 0.56423 0.2648 0.21817 0.0
C691 C 0.63895 0.28849 0.22376 0.0
N692 N 0.6213 0.31917 0.22265 0.0
C693 C 0.67511 0.35697 0.25038 0.0
C694 C 0.69301 0.32553 0.25239 0.0
C695 C 0.67517 0.29134 0.23813 0.0
C696 C 0.64016 0.35256 0.23235 0.0
H697 H 0.62563 0.26155 0.21399 0.0
C698 C 0.53702 0.24234 0.2062 0.0
O699 O 0.48995 0.23154 0.29916 0.0
O700 O 0.54905 0.23818 0.2965 0.0
N701 N 0.58612 0.37806 0.20162 0.0
C702 C 0.55228 0.42333 0.20253 0.0
C703 C 0.57046 0.45886 0.23311 0.0
C704 C 0.61082 0.45579 0.25696 0.0
C705 C 0.63566 0.42005 0.25348 0.0
C706 C 0.623 0.38204 0.22681 0.0
H707 H 0.52549 0.42358 0.19524 0.0
O708 O 0.53086 0.30535 0.31542 0.0
O709 O 0.5579 0.31461 0.26541 0.0
O710 O 0.4778 0.30355 0.25329 0.0
O711 O 0.50832 0.30458 0.20607 0.0
C712 C 0.67088 0.42214 0.2698 0.0
C713 C 0.69058 0.39162 0.26722 0.0
H714 H 0.72029 0.32722 0.2652 0.0
H715 H 0.68888 0.26692 0.23928 0.0
H716 H 0.55497 0.48094 0.23937 0.0
H717 H 0.62068 0.47712 0.27735 0.0
H718 H 0.68305 0.44713 0.28503 0.0
H719 H 0.71764 0.39437 0.28075 0.0
Mn720 Mn 0.00904 0.00206 0.82405 0.0
Mn721 Mn 0.94726 0.94884 0.76588 0.0
C722 C 0.02661 0.97888 0.77038 0.0
C723 C 0.05816 0.00543 0.86828 0.0
C724 C 0.95384 0.0335 0.77435 0.0
O725 O 0.9617 0.99528 0.85134 0.0
O726 O 0.94105 0.9456 0.81766 0.0
C727 C 0.9633 0.8757 0.79065 0.0
N728 N 0.95971 0.89947 0.76352 0.0
C729 C 0.97846 0.85623 0.72078 0.0
C730 C 0.98186 0.83122 0.74814 0.0
C731 C 0.97468 0.84119 0.78327 0.0
C732 C 0.96763 0.89053 0.72979 0.0
H733 H 0.95793 0.88312 0.8178 0.0
C734 C 0.93458 0.97217 0.83782 0.0
O735 O 0.04095 0.03384 0.86222 0.0
O736 O 0.04127 0.97376 0.85544 0.0
N737 N 0.95362 0.94887 0.71534 0.0
C738 C 0.94321 0.97323 0.69082 0.0
C739 C 0.94851 0.9674 0.6543 0.0
C740 C 0.9624 0.93533 0.64297 0.0
C741 C 0.96959 0.90887 0.66811 0.0
C742 C 0.96413 0.91654 0.70424 0.0
H743 H 0.93005 0.99638 0.6989 0.0
O744 O 0.04736 0.00423 0.78979 0.0
O745 O 0.99693 0.96629 0.78333 0.0
O746 O 0.98331 0.03858 0.79498 0.0
O747 O 0.93598 0.00147 0.76498 0.0
C748 C 0.98085 0.87469 0.65855 0.0
C749 C 0.98545 0.84844 0.68492 0.0
H750 H 0.99008 0.80437 0.74241 0.0
H751 H 0.97822 0.82246 0.80466 0.0
H752 H 0.94124 0.98719 0.63485 0.0
H753 H 0.96615 0.9307 0.61473 0.0
H754 H 0.98556 0.86809 0.63091 0.0
H755 H 0.99396 0.82215 0.67726 0.0
Mn756 Mn 0.68267 0.69517 0.98012 0.0
Mn757 Mn 0.66459 0.7391 0.05602 0.0
C758 C 0.63063 0.67411 0.00631 0.0
C759 C 0.70765 0.64488 0.95481 0.0
C760 C 0.64653 0.76757 0.98306 0.0
O761 O 0.73051 0.7282 0.99352 0.0
O762 O 0.71331 0.75889 0.04112 0.0
C763 C 0.71917 0.70418 0.10032 0.0
N764 N 0.68421 0.71022 0.09283 0.0
C765 C 0.66388 0.66752 0.13699 0.0
C766 C 0.69969 0.66091 0.14527 0.0
C767 C 0.72746 0.67935 0.12687 0.0
C768 C 0.65727 0.69232 0.1101 0.0
H769 H 0.74051 0.71792 0.08592 0.0
C770 C 0.73587 0.75431 0.01784 0.0
O771 O 0.70008 0.6724 0.93536 0.0
O772 O 0.70412 0.64863 0.98876 0.0
N773 N 0.61904 0.72434 0.07431 0.0
C774 C 0.58762 0.73918 0.0679 0.0
C775 C 0.55716 0.72526 0.08525 0.0
C776 C 0.5599 0.69748 0.11022 0.0
C777 C 0.59347 0.68513 0.11876 0.0
C778 C 0.62277 0.70011 0.10055 0.0
H779 H 0.58568 0.76078 0.04897 0.0
O780 O 0.63455 0.66566 0.97326 0.0
O781 O 0.65815 0.69483 0.02394 0.0
O782 O 0.66091 0.74298 0.96526 0.0
O783 O 0.64347 0.76742 0.01717 0.0
C784 C 0.59934 0.65959 0.14551 0.0
C785 C 0.63452 0.65066 0.15451 0.0
H786 H 0.70619 0.6418 0.16574 0.0
H787 H 0.75515 0.67432 0.13303 0.0
H788 H 0.53168 0.73587 0.07937 0.0
H789 H 0.53638 0.68679 0.12356 0.0
H790 H 0.57714 0.64716 0.15977 0.0
H791 H 0.63878 0.63126 0.17535 0.0
Mn792 Mn 0.77117 0.49194 0.11231 0.0
Mn793 Mn 0.82803 0.45226 0.06716 0.0
C794 C 0.7621 0.42622 0.10444 0.0
C795 C 0.71817 0.52138 0.1023 0.0
C796 C 0.84676 0.48828 0.14192 0.0
O797 O 0.8051 0.53411 0.09069 0.0
O798 O 0.81734 0.4985 0.04539 0.0
C799 C 0.79574 0.4363 0.99324 0.0
N800 N 0.80977 0.42393 0.02467 0.0
C801 C 0.83041 0.37259 0.99422 0.0
C802 C 0.81645 0.38476 0.96166 0.0
C803 C 0.7983 0.41631 0.96108 0.0
C804 C 0.82561 0.39263 0.02548 0.0
H805 H 0.78455 0.46222 0.9926 0.0
C806 C 0.82234 0.52953 0.06285 0.0
O807 O 0.73913 0.5279 0.13218 0.0
O808 O 0.72889 0.49947 0.0788 0.0
N809 N 0.8379 0.40662 0.08646 0.0
C810 C 0.84594 0.39739 0.12095 0.0
C811 C 0.85911 0.36364 0.12713 0.0
C812 C 0.86521 0.34108 0.09754 0.0
C813 C 0.85666 0.35147 0.06234 0.0
C814 C 0.83986 0.3831 0.05843 0.0
H815 H 0.84099 0.41487 0.14317 0.0
O816 O 0.74407 0.44255 0.12699 0.0
O817 O 0.78217 0.44889 0.0865 0.0
O818 O 0.81436 0.48847 0.15107 0.0
O819 O 0.85308 0.4806 0.10977 0.0
C820 C 0.86403 0.33221 0.03093 0.0
C821 C 0.85102 0.34287 0.99673 0.0
H822 H 0.82143 0.37086 0.93708 0.0
H823 H 0.78844 0.42677 0.93599 0.0
H824 H 0.86509 0.35537 0.15438 0.0
H825 H 0.87511 0.31539 0.10224 0.0
H826 H 0.87878 0.30884 0.03249 0.0
H827 H 0.85631 0.32759 0.97271 0.0
Mn828 Mn 0.09112 0.4533 0.40048 0.0
Mn829 Mn 0.1784 0.44681 0.41161 0.0
C830 C 0.13682 0.51016 0.40889 0.0
C831 C 0.06137 0.49237 0.43921 0.0
C832 C 0.13346 0.43773 0.33985 0.0
O833 O 0.10099 0.39784 0.40543 0.0
O834 O 0.15354 0.40754 0.43773 0.0
C835 C 0.19415 0.46458 0.49148 0.0
N836 N 0.20456 0.46654 0.4574 0.0
C837 C 0.26155 0.51065 0.48308 0.0
C838 C 0.24817 0.5071 0.51679 0.0
C839 C 0.21573 0.48389 0.52093 0.0
C840 C 0.23708 0.48351 0.45153 0.0
H841 H 0.16832 0.44935 0.49606 0.0
C842 C 0.12669 0.38564 0.4241 0.0
O843 O 0.06697 0.49975 0.40609 0.0
O844 O 0.07399 0.46302 0.45032 0.0
N845 N 0.2064 0.48244 0.3859 0.0
C846 C 0.19972 0.50577 0.35039 0.0
C847 C 0.2326 0.53468 0.32857 0.0
C848 C 0.28036 0.54384 0.34285 0.0
C849 C 0.29907 0.52398 0.38331 0.0
C850 C 0.24231 0.4809 0.40977 0.0
H851 H 0.17226 0.50615 0.33963 0.0
O852 O 0.1049 0.51104 0.39404 0.0
O853 O 0.14072 0.4777 0.41892 0.0
O854 O 0.10586 0.45153 0.34914 0.0
O855 O 0.1552 0.42503 0.36339 0.0
C856 C 0.32271 0.55175 0.4205 0.0
C857 C 0.29791 0.54207 0.47786 0.0
H858 H 0.26241 0.52287 0.54001 0.0
H859 H 0.20618 0.48204 0.54752 0.0
H860 H 0.26047 0.54449 0.33035 0.0
H861 H 0.29866 0.53524 0.36457 0.0
H862 H 0.3486 0.56742 0.41647 0.0
H863 H 0.30923 0.55761 0.50264 0.0
Mn864 Mn 0.18641 0.96154 0.40369 0.0
Mn865 Mn 0.22825 0.92413 0.33761 0.0
C866 C 0.15227 0.92633 0.35664 0.0
C867 C 0.15291 0.00592 0.425 0.0
C868 C 0.21954 0.8884 0.40872 0.0
O869 O 0.23762 0.99073 0.41275 0.0
O870 O 0.26276 0.96108 0.36919 0.0
C871 C 0.23565 0.99441 0.30039 0.0
N872 N 0.22562 0.9571 0.29902 0.0
C873 C 0.19582 0.95864 0.23927 0.0
C874 C 0.2066 0.99694 0.2398 0.0
C875 C 0.22604 0.01489 0.27074 0.0
C876 C 0.20593 0.9396 0.26977 0.0
H877 H 0.2497 0.00861 0.32444 0.0
C878 C 0.26496 0.98477 0.39592 0.0
O879 O 0.16663 0.98338 0.44698 0.0
O880 O 0.1636 0.00639 0.39286 0.0
N881 N 0.19948 0.88808 0.30483 0.0
C882 C 0.18748 0.8519 0.31017 0.0
C883 C 0.16745 0.82975 0.28194 0.0
C884 C 0.15979 0.84502 0.24852 0.0
C885 C 0.17237 0.88228 0.24363 0.0
C886 C 0.19333 0.90265 0.27238 0.0
H887 H 0.19265 0.84016 0.33592 0.0
O888 O 0.13974 0.93163 0.38727 0.0
O889 O 0.18511 0.94243 0.35378 0.0
O890 O 0.2054 0.91488 0.4232 0.0
O891 O 0.22913 0.88862 0.37651 0.0
C892 C 0.16337 0.90051 0.21203 0.0
C893 C 0.17466 0.93877 0.21003 0.0
H894 H 0.19914 0.01299 0.21706 0.0
H895 H 0.23248 0.04462 0.27229 0.0
H896 H 0.15751 0.80112 0.2861 0.0
H897 H 0.14358 0.82812 0.22707 0.0
H898 H 0.14697 0.88558 0.18948 0.0
H899 H 0.1668 0.95269 0.18594 0.0
Mn900 Mn 0.62356 0.038 0.47774 0.0
Mn901 Mn 0.61281 0.98406 0.55832 0.0
C902 C 0.65112 0.05123 0.54149 0.0
C903 C 0.63234 0.10455 0.47794 0.0
C904 C 0.6593 0.96784 0.49657 0.0
O905 O 0.579 0.00081 0.46059 0.0
O906 O 0.59061 0.00568 0.51685 0.0
C907 C 0.55717 0.0284 0.58196 0.0
N908 N 0.58025 0.00294 0.58896 0.0
C909 C 0.55747 0.99155 0.6466 0.0
C910 C 0.53361 0.01777 0.64006 0.0
C911 C 0.53326 0.03601 0.60747 0.0
C912 C 0.58036 0.98473 0.61997 0.0
H913 H 0.55681 0.04257 0.55696 0.0
C914 C 0.57461 0.98589 0.48985 0.0
O915 O 0.65905 0.08497 0.48199 0.0
O916 O 0.60043 0.08608 0.47735 0.0
N917 N 0.62468 0.9536 0.59706 0.0
C918 C 0.65078 0.93076 0.60011 0.0
C919 C 0.65498 0.91076 0.63138 0.0
C920 C 0.63221 0.91429 0.65901 0.0
C921 C 0.60646 0.93905 0.65582 0.0
C922 C 0.60394 0.95873 0.62429 0.0
H923 H 0.66861 0.92829 0.57914 0.0
O924 O 0.66682 0.06266 0.51403 0.0
O925 O 0.62063 0.03162 0.53293 0.0
O926 O 0.65381 0.99478 0.47635 0.0
O927 O 0.64613 0.96245 0.52705 0.0
C928 C 0.58356 0.94532 0.68288 0.0
C929 C 0.55908 0.97156 0.67829 0.0
H930 H 0.51527 0.02393 0.65977 0.0
H931 H 0.51472 0.05609 0.60211 0.0
H932 H 0.676 0.89306 0.63446 0.0
H933 H 0.6353 0.89847 0.68284 0.0
H934 H 0.58456 0.93014 0.70732 0.0
H935 H 0.5416 0.97612 0.6993 0.0
Mn936 Mn 0.89541 0.45809 0.62162 0.0
Mn937 Mn 0.85684 0.53379 0.59667 0.0
C938 C 0.92336 0.52287 0.64335 0.0
C939 C 0.95772 0.45044 0.61917 0.0
C940 C 0.83352 0.48174 0.65724 0.0
O941 O 0.8494 0.43838 0.58681 0.0
O942 O 0.85343 0.49072 0.5633 0.0
C943 C 0.89704 0.55215 0.53292 0.0
N944 N 0.88296 0.56304 0.56351 0.0
C945 C 0.89819 0.62732 0.55169 0.0
C946 C 0.91271 0.61688 0.51997 0.0
C947 C 0.91248 0.5791 0.51076 0.0
C948 C 0.88427 0.59921 0.57328 0.0
H949 H 0.89639 0.52314 0.52541 0.0
C950 C 0.83378 0.46115 0.56825 0.0
O951 O 0.94401 0.45865 0.64886 0.0
O952 O 0.93638 0.44994 0.58995 0.0
N953 N 0.86066 0.57844 0.62593 0.0
C954 C 0.84624 0.58392 0.65774 0.0
C955 C 0.84114 0.61985 0.66909 0.0
C956 C 0.85133 0.64981 0.64782 0.0
C957 C 0.86819 0.64388 0.61637 0.0
C958 C 0.87132 0.60734 0.60575 0.0
H959 H 0.83762 0.561 0.67379 0.0
O960 O 0.9311 0.4935 0.65828 0.0
O961 O 0.90104 0.51503 0.61563 0.0
O962 O 0.86073 0.46396 0.65901 0.0
O963 O 0.82818 0.50586 0.63349 0.0
C964 C 0.88108 0.67266 0.59462 0.0
C965 C 0.8967 0.66445 0.56263 0.0
H966 H 0.9241 0.6376 0.50252 0.0
H967 H 0.92375 0.57079 0.4864 0.0
H968 H 0.82885 0.6244 0.69384 0.0
H969 H 0.84678 0.67735 0.65634 0.0
H970 H 0.8793 0.70118 0.60227 0.0
H971 H 0.90693 0.68686 0.54638 0.0
Mn972 Mn 0.23581 0.81736 0.98524 0.0
Mn973 Mn 0.19957 0.81608 0.06529 0.0
C974 C 0.19655 0.76195 0.00171 0.0
C975 C 0.27488 0.77073 0.96976 0.0
C976 C 0.16936 0.85178 0.99856 0.0
O977 O 0.2517 0.86802 0.01206 0.0
O978 O 0.246 0.84863 0.06693 0.0
C979 C 0.25561 0.78126 0.10766 0.0
N980 N 0.22017 0.78235 0.09643 0.0
C981 C 0.20121 0.73039 0.13139 0.0
C982 C 0.23728 0.72872 0.14331 0.0
C983 C 0.26476 0.75407 0.13131 0.0
C984 C 0.19381 0.75733 0.10704 0.0
H985 H 0.27667 0.80095 0.0986 0.0
C986 C 0.2535 0.87465 0.04588 0.0
O987 O 0.24251 0.77066 0.95401 0.0
O988 O 0.28363 0.79611 0.99473 0.0
N989 N 0.15438 0.78584 0.06895 0.0
C990 C 0.12053 0.79277 0.05702 0.0
C991 C 0.09016 0.77114 0.06834 0.0
C992 C 0.09488 0.74309 0.09244 0.0
C993 C 0.12972 0.73727 0.10546 0.0
C994 C 0.15898 0.75976 0.09326 0.0
H995 H 0.11658 0.81499 0.03945 0.0
O996 O 0.20659 0.76553 0.96983 0.0
O997 O 0.21256 0.7879 0.02378 0.0
O998 O 0.18626 0.83597 0.97485 0.0
O999 O 0.17631 0.85021 0.03282 0.0
C1000 C 0.13648 0.71059 0.13079 0.0
C1001 C 0.17229 0.70664 0.14321 0.0
H1002 H 0.24364 0.70797 0.16174 0.0
H1003 H 0.29279 0.75289 0.1405 0.0
H1004 H 0.06326 0.77601 0.05834 0.0
H1005 H 0.07173 0.72609 0.10094 0.0
H1006 H 0.11434 0.69306 0.14099 0.0
H1007 H 0.17727 0.68578 0.16239 0.0
Mn1008 Mn 0.31924 0.54902 0.96464 0.0
Mn1009 Mn 0.23838 0.58213 0.96143 0.0
C1010 C 0.26769 0.51059 0.97481 0.0
C1011 C 0.36882 0.52434 0.99344 0.0
C1012 C 0.26882 0.55435 0.89529 0.0
O1013 O 0.33548 0.60589 0.96846 0.0
O1014 O 0.27917 0.61997 0.95761 0.0
C1015 C 0.25785 0.62075 0.03299 0.0
N1016 N 0.23395 0.5978 0.01011 0.0
C1017 C 0.19094 0.59152 0.0543 0.0
C1018 C 0.21454 0.61606 0.07796 0.0
C1019 C 0.24848 0.63024 0.06747 0.0
C1020 C 0.20243 0.58184 0.02091 0.0
H1021 H 0.28393 0.63148 0.02513 0.0
C1022 C 0.31309 0.62906 0.96088 0.0
O1023 O 0.36853 0.53339 0.95999 0.0
O1024 O 0.34514 0.5381 0.01163 0.0
N1025 N 0.19343 0.55148 0.96413 0.0
C1026 C 0.17003 0.53767 0.93526 0.0
C1027 C 0.13467 0.52249 0.94058 0.0
C1028 C 0.12224 0.52568 0.97479 0.0
C1029 C 0.1449 0.54517 0.00289 0.0
C1030 C 0.18064 0.55776 0.9964 0.0
H1031 H 0.17868 0.53742 0.90833 0.0
O1032 O 0.29572 0.49796 0.9641 0.0
O1033 O 0.26976 0.54635 0.9802 0.0
O1034 O 0.30018 0.55165 0.91102 0.0
O1035 O 0.24265 0.56427 0.91174 0.0
C1036 C 0.13242 0.55561 0.03582 0.0
C1037 C 0.15556 0.57834 0.06157 0.0
H1038 H 0.20674 0.62447 0.10405 0.0
H1039 H 0.26713 0.64884 0.08566 0.0
H1040 H 0.11666 0.50962 0.9181 0.0
H1041 H 0.09461 0.515 0.97848 0.0
H1042 H 0.10456 0.54791 0.04091 0.0
H1043 H 0.14519 0.58787 0.08578 0.0
Mn1044 Mn 0.45712 0.01808 0.36436 0.0
Mn1045 Mn 0.52199 0.04035 0.30796 0.0
C1046 C 0.44055 0.04241 0.30919 0.0
C1047 C 0.41702 0.025 0.40866 0.0
C1048 C 0.49418 0.96267 0.32866 0.0
O1049 O 0.50714 0.01662 0.39442 0.0
O1050 O 0.53559 0.05574 0.35906 0.0
C1051 C 0.55235 0.11848 0.31205 0.0
N1052 N 0.53049 0.09028 0.29315 0.0
C1053 C 0.53759 0.12178 0.23765 0.0
C1054 C 0.55836 0.15172 0.25703 0.0
C1055 C 0.56717 0.14921 0.29397 0.0
C1056 C 0.52486 0.09084 0.25667 0.0
H1057 H 0.56061 0.11639 0.34031 0.0
C1058 C 0.53689 0.03292 0.38398 0.0
O1059 O 0.42828 0.99386 0.40118 0.0
O1060 O 0.43472 0.05409 0.39567 0.0
N1061 N 0.50712 0.02738 0.2581 0.0
C1062 C 0.4984 0.99287 0.24178 0.0
C1063 C 0.49347 0.98868 0.20408 0.0
C1064 C 0.49775 0.01989 0.18325 0.0
C1065 C 0.50826 0.0549 0.20032 0.0
C1066 C 0.51206 0.05763 0.23822 0.0
H1067 H 0.49429 0.96867 0.25719 0.0
O1068 O 0.41681 0.02426 0.3275 0.0
O1069 O 0.47362 0.04684 0.32353 0.0
O1070 O 0.4651 0.97116 0.33923 0.0
O1071 O 0.51885 0.98678 0.31908 0.0
C1072 C 0.51772 0.08664 0.18106 0.0
C1073 C 0.53313 0.11982 0.19973 0.0
H1074 H 0.5701 0.17551 0.24337 0.0
H1075 H 0.58669 0.1703 0.30804 0.0
H1076 H 0.48663 0.9614 0.19107 0.0
H1077 H 0.49415 0.01648 0.15412 0.0
H1078 H 0.51558 0.08519 0.15183 0.0
H1079 H 0.54368 0.14295 0.18464 0.0
Mn1080 Mn 0.7731 0.29676 0.47985 0.0
Mn1081 Mn 0.7899 0.251 0.55493 0.0
C1082 C 0.82811 0.31094 0.51205 0.0
C1083 C 0.74921 0.35084 0.45896 0.0
C1084 C 0.80671 0.22152 0.48319 0.0
O1085 O 0.72427 0.26659 0.48446 0.0
O1086 O 0.74072 0.2338 0.53138 0.0
C1087 C 0.7371 0.28839 0.59278 0.0
N1088 N 0.7717 0.28123 0.59032 0.0
C1089 C 0.79304 0.3204 0.64307 0.0
C1090 C 0.75766 0.32809 0.64626 0.0
C1091 C 0.72958 0.3121 0.62091 0.0
C1092 C 0.79895 0.29692 0.6142 0.0
H1093 H 0.71538 0.27619 0.57344 0.0
C1094 C 0.71784 0.24059 0.50589 0.0
O1095 O 0.75381 0.32405 0.43639 0.0
O1096 O 0.75507 0.34426 0.49237 0.0
N1097 N 0.83592 0.26416 0.58158 0.0
C1098 C 0.86744 0.25 0.57777 0.0
C1099 C 0.89841 0.26377 0.6005 0.0
C1100 C 0.89597 0.29052 0.62791 0.0
C1101 C 0.86261 0.30205 0.63344 0.0
C1102 C 0.83293 0.288 0.60947 0.0
H1103 H 0.86911 0.22931 0.55679 0.0
O1104 O 0.82201 0.32407 0.48087 0.0
O1105 O 0.79984 0.29364 0.52572 0.0
O1106 O 0.79283 0.24664 0.46413 0.0
O1107 O 0.80878 0.22158 0.51782 0.0
C1108 C 0.85753 0.32615 0.66241 0.0
C1109 C 0.82266 0.33484 0.66754 0.0
H1110 H 0.75174 0.34622 0.66803 0.0
H1111 H 0.70219 0.31796 0.62308 0.0
H1112 H 0.92401 0.25391 0.59687 0.0
H1113 H 0.91953 0.30155 0.64529 0.0
H1114 H 0.88011 0.33759 0.6813 0.0
H1115 H 0.81891 0.35221 0.6907 0.0
Mn1116 Mn 0.67482 0.5552 0.64557 0.0
Mn1117 Mn 0.5964 0.57577 0.61368 0.0
C1118 C 0.67483 0.61674 0.62678 0.0
C1119 C 0.71434 0.51779 0.62056 0.0
C1120 C 0.62159 0.57539 0.69418 0.0
O1121 O 0.63799 0.50814 0.64919 0.0
O1122 O 0.61222 0.52834 0.60232 0.0
C1123 C 0.61322 0.57038 0.5382 0.0
N1124 N 0.59627 0.58618 0.56435 0.0
C1125 C 0.56483 0.62108 0.52183 0.0
C1126 C 0.57936 0.6028 0.49407 0.0
C1127 C 0.60585 0.57964 0.50256 0.0
C1128 C 0.57549 0.61296 0.55711 0.0
H1129 H 0.63224 0.55108 0.54461 0.0
C1130 C 0.61194 0.50404 0.62513 0.0
O1131 O 0.71445 0.52249 0.65541 0.0
O1132 O 0.6927 0.53537 0.60131 0.0
N1133 N 0.57698 0.6217 0.61929 0.0
C1134 C 0.56484 0.63666 0.64915 0.0
C1135 C 0.54354 0.66561 0.64594 0.0
C1136 C 0.53162 0.67636 0.61177 0.0
C1137 C 0.5414 0.65832 0.58111 0.0
C1138 C 0.56499 0.63166 0.58615 0.0
H1139 H 0.57122 0.62648 0.67502 0.0
O1140 O 0.70452 0.60556 0.63981 0.0
O1141 O 0.64737 0.59149 0.62298 0.0
O1142 O 0.65573 0.57404 0.69231 0.0
O1143 O 0.59758 0.56781 0.66699 0.0
C1144 C 0.52843 0.66541 0.5457 0.0
C1145 C 0.54045 0.64705 0.51598 0.0
H1146 H 0.57076 0.60698 0.46641 0.0
H1147 H 0.62063 0.56884 0.48204 0.0
H1148 H 0.53596 0.6794 0.66962 0.0
H1149 H 0.51472 0.69816 0.60945 0.0
H1150 H 0.50982 0.68535 0.54089 0.0
H1151 H 0.53117 0.65344 0.48886 0.0
Mn1152 Mn 0.4432 0.66893 0.69935 0.0
Mn1153 Mn 0.46277 0.74745 0.75235 0.0
C1154 C 0.45251 0.72431 0.6659 0.0
C1155 C 0.39209 0.64968 0.65357 0.0
C1156 C 0.52836 0.66342 0.74048 0.0
O1157 O 0.41408 0.65234 0.74267 0.0
O1158 O 0.41924 0.70788 0.774 0.0
C1159 C 0.38516 0.7604 0.74678 0.0
N1160 N 0.421 0.77529 0.75196 0.0
C1161 C 0.40224 0.83624 0.75536 0.0
C1162 C 0.36643 0.82053 0.75694 0.0
C1163 C 0.35767 0.78237 0.7512 0.0
C1164 C 0.42906 0.8125 0.75288 0.0
H1165 H 0.37688 0.73179 0.73818 0.0
C1166 C 0.40511 0.67302 0.7685 0.0
O1167 O 0.41809 0.63073 0.66001 0.0
O1168 O 0.39292 0.67675 0.67594 0.0
N1169 N 0.48237 0.7993 0.73199 0.0
C1170 C 0.50897 0.81084 0.70927 0.0
C1171 C 0.51997 0.84834 0.70425 0.0
C1172 C 0.50126 0.87505 0.71853 0.0
C1173 C 0.47054 0.86361 0.73589 0.0
C1174 C 0.46221 0.82555 0.74257 0.0
H1175 H 0.52279 0.79192 0.69454 0.0
O1176 O 0.46493 0.69377 0.65911 0.0
O1177 O 0.43894 0.72704 0.69744 0.0
O1178 O 0.49918 0.65024 0.71792 0.0
O1179 O 0.5309 0.696 0.75934 0.0
C1180 C 0.44574 0.88826 0.74281 0.0
C1181 C 0.41121 0.87439 0.7518 0.0
H1182 H 0.34502 0.83773 0.75892 0.0
H1183 H 0.32965 0.76999 0.74868 0.0
H1184 H 0.54215 0.85644 0.68809 0.0
H1185 H 0.50881 0.90393 0.71321 0.0
H1186 H 0.45175 0.9175 0.73805 0.0
H1187 H 0.39083 0.89285 0.75316 0.0
Mn1188 Mn 0.13202 0.32905 0.97206 0.0
Mn1189 Mn 0.19869 0.34157 0.91714 0.0
C1190 C 0.17699 0.37732 0.98391 0.0
C1191 C 0.10856 0.30836 0.02578 0.0
C1192 C 0.13243 0.37169 0.90066 0.0
O1193 O 0.12401 0.27955 0.94392 0.0
O1194 O 0.1587 0.30151 0.90131 0.0
C1195 C 0.22348 0.26947 0.92105 0.0
N1196 N 0.23116 0.30663 0.92913 0.0
C1197 C 0.29406 0.30427 0.922 0.0
C1198 C 0.28616 0.26655 0.9121 0.0
C1199 C 0.2506 0.24932 0.91107 0.0
C1200 C 0.26565 0.32383 0.93073 0.0
H1201 H 0.19631 0.2555 0.91905 0.0
C1202 C 0.13395 0.27807 0.91206 0.0
O1203 O 0.08736 0.31696 0.99866 0.0
O1204 O 0.14191 0.30754 0.01993 0.0
N1205 N 0.23983 0.37871 0.9268 0.0
C1206 C 0.24173 0.41376 0.91463 0.0
C1207 C 0.27518 0.4354 0.9134 0.0
C1208 C 0.30699 0.41989 0.92122 0.0
C1209 C 0.30467 0.38206 0.92744 0.0
C1210 C 0.27037 0.36229 0.93158 0.0
H1211 H 0.21795 0.42423 0.90292 0.0
O1212 O 0.14583 0.37767 0.99608 0.0
O1213 O 0.18281 0.34721 0.96586 0.0
O1214 O 0.11417 0.35245 0.92313 0.0
O1215 O 0.16674 0.37722 0.90319 0.0
C1216 C 0.3339 0.36249 0.92221 0.0
C1217 C 0.32798 0.32382 0.91764 0.0
H1218 H 0.30699 0.25082 0.90378 0.0
H1219 H 0.24376 0.22091 0.90116 0.0
H1220 H 0.27633 0.46308 0.90363 0.0
H1221 H 0.33277 0.43607 0.9178 0.0
H1222 H 0.36 0.37704 0.91723 0.0
H1223 H 0.34848 0.30949 0.90697 0.0
Mn1224 Mn 0.0422 0.35852 0.48055 0.0
Mn1225 Mn 0.05138 0.2918 0.54141 0.0
C1226 C 0.05642 0.29621 0.45906 0.0
C1227 C 0.02728 0.37942 0.41784 0.0
C1228 C 0.9802 0.32075 0.51302 0.0
O1229 O 0.04071 0.38148 0.53406 0.0
O1230 O 0.07612 0.34222 0.54925 0.0
C1231 C 0.12981 0.29311 0.55971 0.0
N1232 N 0.0969 0.27377 0.54842 0.0
C1233 C 0.12091 0.21585 0.55201 0.0
C1234 C 0.15531 0.23539 0.56141 0.0
C1235 C 0.15967 0.27402 0.56635 0.0
C1236 C 0.09187 0.23632 0.54716 0.0
H1237 H 0.13358 0.32291 0.56327 0.0
C1238 C 0.05889 0.36709 0.55937 0.0
O1239 O 0.03561 0.34786 0.42658 0.0
O1240 O 0.02611 0.4009 0.44601 0.0
N1241 N 0.03114 0.24111 0.53131 0.0
C1242 C 0.99633 0.22642 0.52088 0.0
C1243 C 0.9874 0.18784 0.51602 0.0
C1244 C 0.01436 0.16469 0.52184 0.0
C1245 C 0.05 0.18039 0.53257 0.0
C1246 C 0.0571 0.21899 0.53795 0.0
H1247 H 0.97547 0.24385 0.51648 0.0
O1248 O 0.04843 0.32213 0.43883 0.0
O1249 O 0.05689 0.30655 0.49239 0.0
O1250 O 0.99054 0.33611 0.48471 0.0
O1251 O 0.00148 0.30752 0.53676 0.0
C1252 C 0.07909 0.1594 0.53623 0.0
C1253 C 0.11447 0.17707 0.54617 0.0
H1254 H 0.17871 0.22126 0.56409 0.0
H1255 H 0.18607 0.28912 0.57435 0.0
H1256 H 0.95984 0.17601 0.50757 0.0
H1257 H 0.00753 0.13498 0.51741 0.0
H1258 H 0.07458 0.12962 0.53118 0.0
H1259 H 0.13652 0.16054 0.54881 0.0
Mn1260 Mn 0.0278 0.21808 0.72044 0.0
Mn1261 Mn 0.95017 0.21038 0.66717 0.0
C1262 C 0.98214 0.17223 0.72982 0.0
C1263 C 0.06074 0.24088 0.77411 0.0
C1264 C 0.01333 0.17243 0.64737 0.0
O1265 O 0.03399 0.26658 0.69419 0.0
O1266 O 0.98375 0.25532 0.6562 0.0
C1267 C 0.9319 0.27513 0.7087 0.0
N1268 N 0.92248 0.23964 0.69507 0.0
C1269 C 0.87261 0.23103 0.73209 0.0
C1270 C 0.88036 0.2682 0.74443 0.0
C1271 C 0.9104 0.29023 0.73297 0.0
C1272 C 0.89465 0.2177 0.70737 0.0
H1273 H 0.95567 0.29196 0.70118 0.0
C1274 C 0.01345 0.27543 0.66769 0.0
O1275 O 0.07692 0.22852 0.74743 0.0
O1276 O 0.02689 0.24425 0.76772 0.0
N1277 N 0.91379 0.16996 0.67391 0.0
C1278 C 0.90787 0.13574 0.65689 0.0
C1279 C 0.88008 0.10948 0.66694 0.0
C1280 C 0.85789 0.11935 0.6933 0.0
C1281 C 0.8621 0.15597 0.70746 0.0
C1282 C 0.88999 0.18088 0.69604 0.0
H1283 H 0.92489 0.12835 0.63658 0.0
O1284 O 0.01466 0.17112 0.74374 0.0
O1285 O 0.97672 0.20173 0.71234 0.0
O1286 O 0.0353 0.18843 0.67354 0.0
O1287 O 0.97994 0.17781 0.64171 0.0
C1288 C 0.83987 0.16875 0.73254 0.0
C1289 C 0.8449 0.20628 0.74464 0.0
H1290 H 0.86411 0.27978 0.76356 0.0
H1291 H 0.91732 0.31863 0.74324 0.0
H1292 H 0.87608 0.08167 0.65478 0.0
H1293 H 0.83734 0.09883 0.70196 0.0
H1294 H 0.81916 0.14998 0.74311 0.0
H1295 H 0.8277 0.21564 0.76409 0.0
Mn1296 Mn 0.31585 0.67162 0.42991 0.0
Mn1297 Mn 0.31444 0.5862 0.45709 0.0
C1298 C 0.31841 0.62937 0.38163 0.0
C1299 C 0.35029 0.72483 0.41305 0.0
C1300 C 0.25162 0.62639 0.4487 0.0
O1301 O 0.32705 0.67512 0.48624 0.0
O1302 O 0.35029 0.6224 0.4851 0.0
C1303 C 0.38206 0.54406 0.49859 0.0
N1304 N 0.35668 0.53983 0.47004 0.0
C1305 C 0.35034 0.47132 0.47416 0.0
C1306 C 0.37157 0.47751 0.50711 0.0
C1307 C 0.38791 0.51334 0.51881 0.0
C1308 C 0.33907 0.50166 0.45807 0.0
H1309 H 0.394 0.57147 0.50856 0.0
C1310 C 0.34253 0.65027 0.50277 0.0
O1311 O 0.3178 0.72602 0.42271 0.0
O1312 O 0.36502 0.69604 0.4223 0.0
N1313 N 0.26789 0.53572 0.42704 0.0
C1314 C 0.24521 0.53724 0.39216 0.0
C1315 C 0.25655 0.48317 0.354 0.0
C1316 C 0.28273 0.45596 0.36989 0.0
C1317 C 0.30174 0.46069 0.40887 0.0
C1318 C 0.29995 0.49454 0.43588 0.0
H1319 H 0.23273 0.56203 0.38663 0.0
O1320 O 0.30638 0.66067 0.37894 0.0
O1321 O 0.32828 0.62101 0.41513 0.0
O1322 O 0.26106 0.65402 0.43058 0.0
O1323 O 0.27558 0.61497 0.46954 0.0
C1324 C 0.31874 0.43177 0.42357 0.0
C1325 C 0.33743 0.43608 0.45825 0.0
H1326 H 0.37578 0.45452 0.52379 0.0
H1327 H 0.40485 0.51737 0.54401 0.0
H1328 H 0.24679 0.47419 0.32618 0.0
H1329 H 0.28623 0.43191 0.35329 0.0
H1330 H 0.31556 0.40499 0.40928 0.0
H1331 H 0.34441 0.41188 0.47114 0.0
Mn1332 Mn 0.42596 0.61923 0.98191 0.0
Mn1333 Mn 0.48405 0.59073 0.92308 0.0
C1334 C 0.48594 0.60427 0.00325 0.0
C1335 C 0.41461 0.65528 0.03579 0.0
C1336 C 0.47935 0.67018 0.94085 0.0
O1337 O 0.39582 0.61452 0.93203 0.0
O1338 O 0.43812 0.60014 0.89741 0.0
C1339 C 0.43749 0.51928 0.90628 0.0
N1340 N 0.46992 0.53828 0.91971 0.0
C1341 C 0.4944 0.48153 0.93128 0.0
C1342 C 0.46132 0.46141 0.91753 0.0
C1343 C 0.43273 0.4804 0.90497 0.0
C1344 C 0.49747 0.52033 0.93219 0.0
H1345 H 0.41537 0.53359 0.89646 0.0
C1346 C 0.40677 0.6088 0.90107 0.0
O1347 O 0.39388 0.65275 0.00635 0.0
O1348 O 0.44182 0.63694 0.03478 0.0
N1349 N 0.53077 0.5791 0.9409 0.0
C1350 C 0.56312 0.60118 0.94173 0.0
C1351 C 0.5955 0.58577 0.94864 0.0
C1352 C 0.59444 0.54799 0.9549 0.0
C1353 C 0.56117 0.52527 0.9513 0.0
C1354 C 0.52983 0.54187 0.94305 0.0
H1355 H 0.56411 0.63041 0.9378 0.0
O1356 O 0.46501 0.61838 0.02406 0.0
O1357 O 0.46869 0.5931 0.97207 0.0
O1358 O 0.45386 0.66461 0.96178 0.0
O1359 O 0.4966 0.64514 0.92754 0.0
C1360 C 0.55833 0.48641 0.9525 0.0
C1361 C 0.52486 0.46454 0.94273 0.0
H1362 H 0.45769 0.43139 0.91619 0.0
H1363 H 0.40708 0.46511 0.89436 0.0
H1364 H 0.6214 0.6026 0.94883 0.0
H1365 H 0.6195 0.53639 0.96035 0.0
H1366 H 0.58205 0.47298 0.95939 0.0
H1367 H 0.52322 0.43462 0.94266 0.0
Mn1368 Mn 0.50536 0.50679 0.13137 0.0
Mn1369 Mn 0.57249 0.45609 0.1234 0.0
C1370 C 0.48611 0.44447 0.14857 0.0
C1371 C 0.45467 0.52602 0.10054 0.0
C1372 C 0.57288 0.52029 0.17988 0.0
O1373 O 0.54583 0.5401 0.10699 0.0
O1374 O 0.55777 0.4888 0.08623 0.0
C1375 C 0.54923 0.41725 0.05428 0.0
N1376 N 0.55719 0.41616 0.0906 0.0
C1377 C 0.52281 0.35756 0.09271 0.0
C1378 C 0.51246 0.35822 0.05561 0.0
C1379 C 0.52648 0.38792 0.03606 0.0
C1380 C 0.54587 0.38708 0.1095 0.0
H1381 H 0.55889 0.44111 0.03967 0.0
C1382 C 0.56668 0.52306 0.0897 0.0
O1383 O 0.47342 0.54649 0.12654 0.0
O1384 O 0.46929 0.4983 0.08831 0.0
N1385 N 0.58925 0.42064 0.15739 0.0
C1386 C 0.60923 0.43296 0.19637 0.0
C1387 C 0.5713 0.39775 0.25036 0.0
C1388 C 0.53391 0.36582 0.22435 0.0
C1389 C 0.53145 0.36233 0.1736 0.0
C1390 C 0.55668 0.38932 0.14649 0.0
H1391 H 0.60242 0.43228 0.16788 0.0
O1392 O 0.46954 0.47235 0.15464 0.0
O1393 O 0.51915 0.45431 0.13702 0.0
O1394 O 0.53862 0.52171 0.17671 0.0
O1395 O 0.58851 0.49866 0.15985 0.0
C1396 C 0.52298 0.32908 0.14978 0.0
C1397 C 0.51338 0.32752 0.11274 0.0
H1398 H 0.4933 0.33655 0.04186 0.0
H1399 H 0.51886 0.38875 0.00744 0.0
H1400 H 0.57723 0.40578 0.28123 0.0
H1401 H 0.54949 0.37998 0.24441 0.0
H1402 H 0.53041 0.3026 0.15653 0.0
H1403 H 0.50185 0.30123 0.09955 0.0
Mn1404 Mn 0.22057 0.21812 0.477 0.0
Mn1405 Mn 0.26621 0.19782 0.5547 0.0
C1406 C 0.2525 0.26551 0.51231 0.0
C1407 C 0.16841 0.24122 0.45059 0.0
C1408 C 0.2997 0.19936 0.48488 0.0
O1409 O 0.19972 0.16458 0.48161 0.0
O1410 O 0.24008 0.15356 0.52668 0.0
C1411 C 0.20479 0.16492 0.59318 0.0
N1412 N 0.23223 0.1931 0.59085 0.0
C1413 C 0.22462 0.21644 0.65074 0.0
C1414 C 0.19512 0.18904 0.6526 0.0
C1415 C 0.18545 0.16293 0.62385 0.0
C1416 C 0.24264 0.21748 0.61915 0.0
H1417 H 0.19768 0.14374 0.57201 0.0
C1418 C 0.21469 0.14258 0.50202 0.0
O1419 O 0.19037 0.22716 0.43029 0.0
O1420 O 0.17333 0.2348 0.48417 0.0
N1421 N 0.29275 0.23765 0.58612 0.0
C1422 C 0.32686 0.25812 0.58306 0.0
C1423 C 0.33999 0.28314 0.61242 0.0
C1424 C 0.32149 0.28678 0.64327 0.0
C1425 C 0.28843 0.26526 0.64625 0.0
C1426 C 0.27405 0.24109 0.61731 0.0
H1427 H 0.30558 0.23824 0.57282 0.0
O1428 O 0.24221 0.26918 0.47907 0.0
O1429 O 0.24112 0.23381 0.52651 0.0
O1430 O 0.27081 0.20265 0.46404 0.0
O1431 O 0.30156 0.20101 0.51927 0.0
C1432 C 0.26995 0.26596 0.67759 0.0
C1433 C 0.23824 0.24125 0.67996 0.0
H1434 H 0.18068 0.18679 0.67659 0.0
H1435 H 0.16384 0.14064 0.62579 0.0
H1436 H 0.36488 0.30107 0.61107 0.0
H1437 H 0.33339 0.30635 0.66491 0.0
H1438 H 0.28063 0.2844 0.70051 0.0
H1439 H 0.22536 0.24059 0.70489 0.0
Mn1440 Mn 0.29522 0.03791 0.87304 0.0
Mn1441 Mn 0.25802 0.10823 0.83508 0.0
C1442 C 0.33083 0.08311 0.8433 0.0
C1443 C 0.32267 0.98168 0.86583 0.0
C1444 C 0.27904 0.10751 0.91547 0.0
O1445 O 0.24014 0.01723 0.87093 0.0
O1446 O 0.22039 0.06786 0.84703 0.0
C1447 C 0.22933 0.06754 0.76636 0.0
N1448 N 0.24958 0.09731 0.78429 0.0
C1449 C 0.26577 0.12365 0.72854 0.0
C1450 C 0.24481 0.09348 0.70948 0.0
C1451 C 0.22699 0.06515 0.7285 0.0
C1452 C 0.26814 0.12404 0.76627 0.0
H1453 H 0.21538 0.04577 0.78089 0.0
C1454 C 0.2144 0.03617 0.86095 0.0
O1455 O 0.31595 0.99435 0.89729 0.0
O1456 O 0.30827 0.99789 0.83909 0.0
N1457 N 0.29018 0.15022 0.82289 0.0
C1458 C 0.30622 0.17931 0.84519 0.0
C1459 C 0.32426 0.21067 0.83041 0.0
C1460 C 0.32506 0.21217 0.79289 0.0
C1461 C 0.30692 0.18276 0.77042 0.0
C1462 C 0.28916 0.15232 0.78669 0.0
H1463 H 0.30519 0.17874 0.87404 0.0
O1464 O 0.34353 0.06517 0.86932 0.0
O1465 O 0.29597 0.0756 0.83592 0.0
O1466 O 0.28928 0.07515 0.91534 0.0
O1467 O 0.26737 0.12206 0.88684 0.0
C1468 C 0.30461 0.1831 0.73249 0.0
C1469 C 0.28427 0.15342 0.71155 0.0
H1470 H 0.24238 0.09164 0.68027 0.0
H1471 H 0.21162 0.04162 0.71385 0.0
H1472 H 0.3372 0.23378 0.84782 0.0
H1473 H 0.33889 0.23646 0.78159 0.0
H1474 H 0.31804 0.20625 0.71915 0.0
H1475 H 0.28261 0.15402 0.6824 0.0
Mn1476 Mn 0.81166 0.95415 0.05661 0.0
Mn1477 Mn 0.85397 0.01885 0.11929 0.0
C1478 C 0.80566 0.94404 0.11783 0.0
C1479 C 0.81272 0.89973 0.02166 0.0
C1480 C 0.78153 0.02407 0.07884 0.0
O1481 O 0.83719 0.99387 0.02489 0.0
O1482 O 0.87186 0.01994 0.07077 0.0
C1483 C 0.92842 0.99959 0.12329 0.0
N1484 N 0.89732 0.00188 0.13933 0.0
C1485 C 0.92587 0.98873 0.19696 0.0
C1486 C 0.95783 0.9853 0.1808 0.0
C1487 C 0.95933 0.99176 0.14401 0.0
C1488 C 0.89602 0.99746 0.17509 0.0
H1489 H 0.93004 0.00483 0.0951 0.0
C1490 C 0.85389 0.02358 0.04086 0.0
O1491 O 0.78933 0.92231 0.01358 0.0
O1492 O 0.83904 0.91212 0.04567 0.0
N1493 N 0.83982 0.01854 0.16735 0.0
C1494 C 0.81294 0.03548 0.18049 0.0
C1495 C 0.8105 0.03815 0.21776 0.0
C1496 C 0.83509 0.0225 0.24122 0.0
C1497 C 0.86383 0.00725 0.2274 0.0
C1498 C 0.86557 0.00635 0.18996 0.0
H1499 H 0.79422 0.04794 0.16275 0.0
O1500 O 0.78774 0.92267 0.09251 0.0
O1501 O 0.8314 0.96778 0.10712 0.0
O1502 O 0.77708 0.99236 0.06186 0.0
O1503 O 0.80904 0.03679 0.10045 0.0
C1504 C 0.89235 0.99584 0.24959 0.0
C1505 C 0.92339 0.98654 0.23435 0.0
H1506 H 0.98181 0.97922 0.19667 0.0
H1507 H 0.98439 0.99093 0.13166 0.0
H1508 H 0.79016 0.05297 0.22839 0.0
H1509 H 0.83285 0.02409 0.26993 0.0
H1510 H 0.89151 0.996 0.2786 0.0
H1511 H 0.94592 0.97954 0.25184 0.0
Mn1512 Mn 0.0098 0.38369 0.20202 0.0
Mn1513 Mn 0.9959 0.4047 0.11615 0.0
C1514 C 0.96828 0.42407 0.18735 0.0
C1515 C 0.03147 0.38991 0.26305 0.0
C1516 C 0.9585 0.33893 0.14197 0.0
O1517 O 0.05469 0.3659 0.18118 0.0
O1518 O 0.02819 0.3673 0.12551 0.0
C1519 C 0.07137 0.43469 0.1093 0.0
N1520 N 0.03579 0.43992 0.1063 0.0
C1521 C 0.0455 0.48065 0.05777 0.0
C1522 C 0.08134 0.47297 0.05845 0.0
C1523 C 0.09457 0.45059 0.0849 0.0
C1524 C 0.0233 0.46331 0.08244 0.0
H1525 H 0.08178 0.41709 0.12906 0.0
C1526 C 0.05077 0.35514 0.14782 0.0
O1527 O 0.0182 0.35816 0.24738 0.0
O1528 O 0.03679 0.41764 0.24231 0.0
N1529 N 0.96608 0.43979 0.09824 0.0
C1530 C 0.92953 0.43396 0.09151 0.0
C1531 C 0.9125 0.45451 0.06557 0.0
C1532 C 0.93302 0.47927 0.04542 0.0
C1533 C 0.97059 0.48372 0.05144 0.0
C1534 C 0.98637 0.46402 0.07888 0.0
H1535 H 0.91403 0.41257 0.10481 0.0
O1536 O 0.96647 0.40336 0.21469 0.0
O1537 O 0.99591 0.42179 0.16771 0.0
O1538 O 0.97883 0.34037 0.17147 0.0
O1539 O 0.95557 0.36702 0.12296 0.0
C1540 C 0.9927 0.50343 0.02821 0.0
C1541 C 0.03013 0.50178 0.03123 0.0
H1542 H 0.09883 0.48346 0.03851 0.0
H1543 H 0.12236 0.44503 0.08603 0.0
H1544 H 0.88391 0.44985 0.05889 0.0
H1545 H 0.91968 0.49249 0.02349 0.0
H1546 H 0.98055 0.51771 0.00634 0.0
H1547 H 0.04653 0.51532 0.01188 0.0
Mn1548 Mn 0.83279 0.8467 0.51631 0.0
Mn1549 Mn 0.8535 0.93178 0.48472 0.0
C1550 C 0.83739 0.89849 0.55515 0.0
C1551 C 0.85304 0.79837 0.54943 0.0
C1552 C 0.77745 0.89291 0.47976 0.0
O1553 O 0.8464 0.83307 0.46501 0.0
O1554 O 0.85623 0.89169 0.44817 0.0
C1555 C 0.93074 0.92366 0.48071 0.0
N1556 N 0.90488 0.94274 0.49304 0.0
C1557 C 0.94986 0.99013 0.5216 0.0
C1558 C 0.97702 0.97125 0.50893 0.0
C1559 C 0.96741 0.9376 0.48879 0.0
C1560 C 0.91386 0.97431 0.5137 0.0
H1561 H 0.92338 0.89803 0.46484 0.0
C1562 C 0.8528 0.85678 0.4409 0.0
O1563 O 0.82097 0.79417 0.53205 0.0
O1564 O 0.87466 0.82685 0.54155 0.0
N1565 N 0.8519 0.97422 0.51603 0.0
C1566 C 0.8225 0.99064 0.52371 0.0
C1567 C 0.82742 0.02388 0.54486 0.0
C1568 C 0.86256 0.04098 0.55619 0.0
C1569 C 0.89245 0.02479 0.54598 0.0
C1570 C 0.88583 0.99104 0.52584 0.0
H1571 H 0.79548 0.97809 0.51418 0.0
O1572 O 0.82242 0.86664 0.56349 0.0
O1573 O 0.85261 0.89907 0.52482 0.0
O1574 O 0.78443 0.86214 0.49323 0.0
O1575 O 0.80116 0.921 0.47688 0.0
C1576 C 0.92851 0.0415 0.55382 0.0
C1577 C 0.95711 0.02431 0.54126 0.0
H1578 H 0.0053 0.98224 0.51465 0.0
H1579 H 0.98824 0.92263 0.47936 0.0
H1580 H 0.8042 0.03658 0.55195 0.0
H1581 H 0.86626 0.06695 0.57198 0.0
H1582 H 0.93446 0.06791 0.5688 0.0
H1583 H 0.98461 0.03784 0.5461 0.0
Mn1584 Mn 0.49708 0.8644 0.85418 0.0
Mn1585 Mn 0.54382 0.79668 0.82252 0.0
C1586 C 0.48106 0.80478 0.86924 0.0
C1587 C 0.44908 0.90267 0.84772 0.0
C1588 C 0.57088 0.84891 0.88664 0.0
O1589 O 0.53216 0.88956 0.81912 0.0
O1590 O 0.54333 0.83796 0.78942 0.0
C1591 C 0.52512 0.75807 0.7533 0.0
N1592 N 0.51602 0.76158 0.78815 0.0
C1593 C 0.47985 0.69978 0.78663 0.0
C1594 C 0.47361 0.69831 0.74592 0.0
C1595 C 0.50151 0.73112 0.72562 0.0
C1596 C 0.50179 0.7312 0.80524 0.0
H1597 H 0.54916 0.77496 0.74623 0.0
C1598 C 0.55011 0.87291 0.79695 0.0
O1599 O 0.47759 0.91084 0.86999 0.0
O1600 O 0.45 0.87416 0.8261 0.0
N1601 N 0.5448 0.75552 0.85224 0.0
C1602 C 0.57094 0.75121 0.8789 0.0
C1603 C 0.57267 0.71657 0.89341 0.0
C1604 C 0.54816 0.68632 0.87941 0.0
C1605 C 0.52187 0.69098 0.85158 0.0
C1606 C 0.52127 0.7263 0.83789 0.0
H1607 H 0.59152 0.77358 0.88765 0.0
O1608 O 0.46803 0.83183 0.88467 0.0
O1609 O 0.4995 0.81223 0.84147 0.0
O1610 O 0.54164 0.86281 0.89101 0.0
O1611 O 0.57548 0.83 0.85826 0.0
C1612 C 0.49804 0.6611 0.83563 0.0
C1613 C 0.47676 0.66558 0.80388 0.0
H1614 H 0.4854 0.71197 0.72836 0.0
H1615 H 0.51415 0.73347 0.69726 0.0
H1616 H 0.59363 0.71293 0.91435 0.0
H1617 H 0.55072 0.65912 0.88889 0.0
H1618 H 0.49776 0.63371 0.84615 0.0
H1619 H 0.46331 0.64054 0.78974 0.0
Mn1620 Mn 0.34117 0.07749 0.12976 0.0
Mn1621 Mn 0.29649 0.04112 0.19547 0.0
C1622 C 0.36338 0.09443 0.18848 0.0
C1623 C 0.34786 0.13013 0.09562 0.0
C1624 C 0.35299 0.00223 0.1649 0.0
O1625 O 0.29711 0.04888 0.10057 0.0
O1626 O 0.27846 0.01816 0.14755 0.0
C1627 C 0.23307 0.07613 0.16827 0.0
N1628 N 0.2598 0.07353 0.19496 0.0
C1629 C 0.2397 0.12196 0.23075 0.0
C1630 C 0.21246 0.12546 0.20336 0.0
C1631 C 0.20908 0.10234 0.17203 0.0
C1632 C 0.26338 0.09586 0.22513 0.0
H1633 H 0.22981 0.05822 0.14426 0.0
C1634 C 0.2788 0.02144 0.11366 0.0
O1635 O 0.36249 0.10087 0.08668 0.0
O1636 O 0.32546 0.12615 0.11973 0.0
N1637 N 0.30981 0.06053 0.24476 0.0
C1638 C 0.33009 0.04567 0.27279 0.0
C1639 C 0.33197 0.06388 0.30688 0.0
C1640 C 0.31417 0.09482 0.31323 0.0
C1641 C 0.29161 0.10729 0.28575 0.0
C1642 C 0.28933 0.08956 0.2517 0.0
H1643 H 0.32084 0.04554 0.24543 0.0
O1644 O 0.38196 0.10369 0.16218 0.0
O1645 O 0.32993 0.08002 0.17889 0.0
O1646 O 0.3585 0.02476 0.13884 0.0
O1647 O 0.33541 0.00929 0.19218 0.0
C1648 C 0.26925 0.13482 0.29161 0.0
C1649 C 0.2434 0.14232 0.26399 0.0
H1650 H 0.19353 0.14526 0.20644 0.0
H1651 H 0.18781 0.1045 0.15092 0.0
H1652 H 0.34789 0.05345 0.32879 0.0
H1653 H 0.31658 0.10763 0.34016 0.0
H1654 H 0.2707 0.14932 0.31769 0.0
H1655 H 0.22558 0.16276 0.2691 0.0
Mn1656 Mn 0.27527 0.52608 0.1912 0.0
Mn1657 Mn 0.23281 0.59283 0.2179 0.0
C1658 C 0.30595 0.5623 0.24338 0.0
C1659 C 0.31374 0.52083 0.14437 0.0
C1660 C 0.21221 0.50911 0.23278 0.0
O1661 O 0.22755 0.52249 0.15562 0.0
O1662 O 0.2365 0.57937 0.16821 0.0
C1663 C 0.28313 0.64777 0.18476 0.0
N1664 N 0.26077 0.63897 0.2111 0.0
C1665 C 0.27656 0.699 0.24068 0.0
C1666 C 0.29886 0.70911 0.21317 0.0
C1667 C 0.30309 0.68304 0.18578 0.0
C1668 C 0.25894 0.66272 0.23916 0.0
H1669 H 0.28621 0.62785 0.16346 0.0
C1670 C 0.21516 0.55303 0.1539 0.0
O1671 O 0.2967 0.49144 0.15723 0.0
O1672 O 0.30674 0.55199 0.15725 0.0
N1673 N 0.22871 0.61191 0.26541 0.0
C1674 C 0.20492 0.59791 0.28863 0.0
C1675 C 0.19803 0.61998 0.31812 0.0
C1676 C 0.21481 0.65671 0.32317 0.0
C1677 C 0.23664 0.67168 0.29724 0.0
C1678 C 0.24172 0.64851 0.26784 0.0
H1679 H 0.18976 0.57072 0.28367 0.0
O1680 O 0.31813 0.5337 0.23024 0.0
O1681 O 0.27591 0.56881 0.22623 0.0
O1682 O 0.24159 0.49758 0.22376 0.0
O1683 O 0.20466 0.54265 0.22778 0.0
C1684 C 0.25188 0.70918 0.29831 0.0
C1685 C 0.27204 0.72273 0.27014 0.0
H1686 H 0.3132 0.73651 0.21247 0.0
H1687 H 0.3208 0.69049 0.16495 0.0
H1688 H 0.17838 0.60916 0.33573 0.0
H1689 H 0.20913 0.67373 0.34589 0.0
H1690 H 0.24821 0.72783 0.3206 0.0
H1691 H 0.28364 0.75146 0.27143 0.0
Mn1692 Mn 0.59012 0.75677 0.52498 0.0
Mn1693 Mn 0.61499 0.81358 0.59912 0.0
C1694 C 0.61581 0.7351 0.5774 0.0
C1695 C 0.60613 0.72258 0.47467 0.0
C1696 C 0.53639 0.78375 0.57558 0.0
O1697 O 0.58945 0.8082 0.50407 0.0
O1698 O 0.60953 0.84259 0.55556 0.0
C1699 C 0.68864 0.83886 0.5793 0.0
N1700 N 0.66689 0.82324 0.60358 0.0
C1701 C 0.71866 0.81257 0.64311 0.0
C1702 C 0.74151 0.82945 0.61889 0.0
C1703 C 0.72643 0.84233 0.58672 0.0
C1704 C 0.68125 0.80972 0.63417 0.0
H1705 H 0.67698 0.84799 0.55434 0.0
C1706 C 0.59693 0.83925 0.5223 0.0
O1707 O 0.57267 0.72718 0.47834 0.0
O1708 O 0.63007 0.74246 0.49674 0.0
N1709 N 0.62035 0.78862 0.64402 0.0
C1710 C 0.59328 0.77284 0.6651 0.0
C1711 C 0.60606 0.75859 0.69777 0.0
C1712 C 0.64312 0.76044 0.7091 0.0
C1713 C 0.66932 0.77741 0.68823 0.0
C1714 C 0.65748 0.79191 0.65597 0.0
H1715 H 0.60092 0.78557 0.6419 0.0
O1716 O 0.59618 0.71305 0.55364 0.0
O1717 O 0.61971 0.76967 0.56995 0.0
O1718 O 0.54288 0.76389 0.54829 0.0
O1719 O 0.56128 0.80339 0.59614 0.0
C1720 C 0.70679 0.78035 0.69813 0.0
C1721 C 0.7315 0.79779 0.67546 0.0
H1722 H 0.77065 0.83208 0.62438 0.0
H1723 H 0.74406 0.85437 0.56758 0.0
H1724 H 0.58666 0.74479 0.7143 0.0
H1725 H 0.65115 0.74853 0.7343 0.0
H1726 H 0.71689 0.76913 0.72298 0.0
H1727 H 0.76028 0.79955 0.68308 0.0
C1728 C 0.17452 0.70025 0.02502 0.0
C1729 C 0.16719 0.73292 0.00895 0.0
H1730 H 0.1523 0.64993 0.04695 0.0
C1731 C 0.13128 0.73708 0.99802 0.0
H1732 H 0.20214 0.6959 0.03296 0.0
C1733 C 0.10293 0.71172 0.008 0.0
C1734 C 0.10949 0.67904 0.02449 0.0
H1735 H 0.12504 0.76204 0.98533 0.0
H1736 H 0.07688 0.72054 0.00731 0.0
C1737 C 0.14594 0.6735 0.03221 0.0
C1738 C 0.64475 0.54249 0.25741 0.0
C1739 C 0.62328 0.55647 0.28245 0.0
H1740 H 0.64485 0.51887 0.20387 0.0
C1741 C 0.59217 0.57149 0.26937 0.0
H1742 H 0.6695 0.53177 0.26654 0.0
C1743 C 0.57784 0.56383 0.23381 0.0
C1744 C 0.59476 0.5415 0.21083 0.0
H1745 H 0.57598 0.58424 0.28783 0.0
H1746 H 0.55141 0.5716 0.22585 0.0
C1747 C 0.63027 0.5346 0.22153 0.0
C1748 C 0.67381 0.05468 0.64232 0.0
C1749 C 0.70356 0.03472 0.64486 0.0
H1750 H 0.63346 0.07558 0.60686 0.0
C1751 C 0.71703 0.02266 0.61311 0.0
H1752 H 0.6617 0.06249 0.66638 0.0
C1753 C 0.70164 0.03075 0.57941 0.0
C1754 C 0.67105 0.04926 0.57685 0.0
H1755 H 0.73887 0.00593 0.61438 0.0
H1756 H 0.71212 0.02032 0.55537 0.0
C1757 C 0.65747 0.06174 0.60843 0.0
C1758 C 0.27216 0.16685 0.9493 0.0
C1759 C 0.2865 0.13286 0.94848 0.0
H1760 H 0.28019 0.22399 0.96935 0.0
C1761 C 0.31366 0.12778 0.97542 0.0
H1762 H 0.24898 0.17039 0.93108 0.0
C1763 C 0.33061 0.15809 0.99753 0.0
C1764 C 0.32187 0.19436 0.9919 0.0
H1765 H 0.32473 0.10174 0.97671 0.0
H1766 H 0.35421 0.15375 0.01491 0.0
C1767 C 0.28987 0.19745 0.97078 0.0
C1768 C 0.27965 0.51358 0.84248 0.0
C1769 C 0.26021 0.54016 0.85731 0.0
H1770 H 0.28023 0.47117 0.80119 0.0
C1771 C 0.22865 0.54832 0.83775 0.0
H1772 H 0.30419 0.50672 0.85676 0.0
C1773 C 0.21502 0.52812 0.80594 0.0
C1774 C 0.23236 0.49888 0.79297 0.0
H1775 H 0.21321 0.56892 0.84813 0.0
H1776 H 0.1895 0.53394 0.79291 0.0
C1777 C 0.26576 0.49299 0.81071 0.0
C1778 C 0.77009 0.32312 0.10729 0.0
C1779 C 0.75988 0.31208 0.07095 0.0
H1780 H 0.77718 0.3684 0.14731 0.0
C1781 C 0.74333 0.33678 0.04875 0.0
H1782 H 0.78358 0.30508 0.12486 0.0
C1783 C 0.74209 0.37329 0.06066 0.0
C1784 C 0.75581 0.38567 0.09566 0.0
H1785 H 0.73536 0.32921 0.02053 0.0
H1786 H 0.73259 0.39254 0.04166 0.0
C1787 C 0.76707 0.35958 0.11987 0.0
C1788 C 0.82479 0.18783 0.42857 0.0
C1789 C 0.82691 0.19372 0.46597 0.0
H1790 H 0.84603 0.16313 0.38383 0.0
C1791 C 0.85124 0.17476 0.4874 0.0
H1792 H 0.80614 0.20119 0.41122 0.0
C1793 C 0.87526 0.15366 0.47177 0.0
C1794 C 0.87493 0.15014 0.43426 0.0
H1795 H 0.85326 0.17772 0.51651 0.0
H1796 H 0.89528 0.14197 0.48899 0.0
C1797 C 0.84793 0.16584 0.41301 0.0
C1798 C 0.04424 0.99008 0.6755 0.0
C1799 C 0.06713 0.96313 0.67092 0.0
H1800 H 0.01438 0.01688 0.71241 0.0
C1801 C 0.0728 0.9379 0.6976 0.0
H1802 H 0.03832 0.00854 0.65428 0.0
C1803 C 0.05722 0.9413 0.72997 0.0
C1804 C 0.03579 0.96955 0.73498 0.0
H1805 H 0.08922 0.91595 0.69342 0.0
H1806 H 0.06275 0.92286 0.75136 0.0
C1807 C 0.0297 0.99413 0.708 0.0
C1808 C 0.06292 0.14497 0.61962 0.0
C1809 C 0.02638 0.14224 0.62608 0.0
H1810 H 0.10613 0.11685 0.60378 0.0
C1811 C 0.00447 0.10792 0.61809 0.0
H1812 H 0.08058 0.17086 0.62536 0.0
C1813 C 0.01968 0.07628 0.60747 0.0
C1814 C 0.05662 0.07886 0.60244 0.0
H1815 H 0.97631 0.10456 0.6232 0.0
H1816 H 0.00328 0.0495 0.60623 0.0
C1817 C 0.07758 0.11391 0.60743 0.0
C1818 C 0.11633 0.3526 0.83683 0.0
C1819 C 0.11675 0.37987 0.86478 0.0
H1820 H 0.12073 0.341 0.78041 0.0
C1821 C 0.11908 0.4171 0.85582 0.0
H1822 H 0.11676 0.32394 0.84303 0.0
C1823 C 0.12293 0.42692 0.82025 0.0
C1824 C 0.12522 0.39982 0.79296 0.0
H1825 H 0.1213 0.43882 0.87683 0.0
H1826 H 0.1261 0.45605 0.81443 0.0
C1827 C 0.12035 0.36244 0.80119 0.0
C1828 C 0.89572 0.25051 0.12976 0.0
C1829 C 0.8904 0.24786 0.09165 0.0
H1830 H 0.92162 0.28308 0.17605 0.0
C1831 C 0.91699 0.26637 0.07205 0.0
H1832 H 0.87694 0.23525 0.14611 0.0
C1833 C 0.94188 0.29465 0.08931 0.0
C1834 C 0.94147 0.30278 0.12647 0.0
H1835 H 0.91528 0.26301 0.04293 0.0
H1836 H 0.95905 0.31229 0.07317 0.0
C1837 C 0.92114 0.27818 0.14715 0.0
C1838 C 0.0397 0.25379 0.40542 0.0
C1839 C 0.05518 0.25953 0.44144 0.0
H1840 H 0.01968 0.213 0.36343 0.0
C1841 C 0.06883 0.23016 0.4578 0.0
H1842 H 0.03365 0.27645 0.38899 0.0
C1843 C 0.0557 0.19437 0.44459 0.0
C1844 C 0.03102 0.18899 0.41344 0.0
H1845 H 0.08877 0.23495 0.48028 0.0
H1846 H 0.06316 0.17125 0.45968 0.0
C1847 C 0.02951 0.21805 0.39097 0.0
C1848 C 0.0778 0.73747 0.33833 0.0
C1849 C 0.06361 0.70324 0.35048 0.0
H1850 H 0.0675 0.78359 0.30764 0.0
C1851 C 0.03032 0.68557 0.33402 0.0
H1852 H 0.10334 0.75177 0.3506 0.0
C1853 C 0.00902 0.70481 0.31019 0.0
C1854 C 0.02134 0.74139 0.30221 0.0
H1855 H 0.01842 0.65945 0.3436 0.0
H1856 H 0.9816 0.69272 0.30133 0.0
C1857 C 0.05666 0.75642 0.31482 0.0
C1858 C 0.50612 0.28427 0.59827 0.0
C1859 C 0.4877 0.25381 0.57722 0.0
H1860 H 0.50085 0.33608 0.6256 0.0
C1861 C 0.44997 0.24715 0.57603 0.0
H1862 H 0.5354 0.28863 0.60156 0.0
C1863 C 0.43064 0.27243 0.59152 0.0
C1864 C 0.44829 0.30556 0.60849 0.0
H1865 H 0.43502 0.22287 0.56155 0.0
H1866 H 0.40178 0.26802 0.58545 0.0
C1867 C 0.48639 0.31046 0.6134 0.0
C1868 C 0.84919 0.59238 0.7823 0.0
C1869 C 0.88141 0.60772 0.80231 0.0
H1870 H 0.80326 0.55056 0.778 0.0
C1871 C 0.89234 0.59041 0.83405 0.0
H1872 H 0.84003 0.60452 0.75763 0.0
C1873 C 0.87098 0.5592 0.84586 0.0
C1874 C 0.83905 0.54371 0.8254 0.0
H1875 H 0.91706 0.60145 0.85018 0.0
H1876 H 0.87902 0.54774 0.87128 0.0
C1877 C 0.82838 0.561 0.79373 0.0
C1878 C 0.64015 0.05816 0.1417 0.0
C1879 C 0.60416 0.04784 0.12752 0.0
H1880 H 0.68214 0.05165 0.18256 0.0
C1881 C 0.58242 0.02096 0.14493 0.0
H1882 H 0.65693 0.08 0.12992 0.0
C1883 C 0.59682 0.00454 0.17573 0.0
C1884 C 0.63271 0.01605 0.19038 0.0
H1885 H 0.55428 0.01345 0.1353 0.0
H1886 H 0.57963 0.98376 0.18867 0.0
C1887 C 0.65424 0.04263 0.17256 0.0
C1888 C 0.09142 0.89753 0.27002 0.0
C1889 C 0.06955 0.86696 0.28207 0.0
H1890 H 0.1339 0.94262 0.28541 0.0
C1891 C 0.07589 0.85689 0.31775 0.0
H1892 H 0.08596 0.90708 0.24316 0.0
C1893 C 0.1056 0.87381 0.3397 0.0
C1894 C 0.12768 0.90434 0.32835 0.0
H1895 H 0.0573 0.83629 0.3292 0.0
H1896 H 0.11024 0.86422 0.3666 0.0
C1897 C 0.11937 0.91721 0.29377 0.0
C1898 C 0.39558 0.23626 0.48284 0.0
C1899 C 0.41213 0.20422 0.47857 0.0
H1900 H 0.3464 0.25913 0.48785 0.0
C1901 C 0.38985 0.1705 0.46889 0.0
H1902 H 0.41173 0.26221 0.49136 0.0
C1903 C 0.3518 0.16911 0.46538 0.0
C1904 C 0.33563 0.2014 0.47133 0.0
H1905 H 0.40166 0.14508 0.46564 0.0
H1906 H 0.33514 0.14248 0.461 0.0
C1907 C 0.35809 0.23476 0.47977 0.0
C1908 C 0.94794 0.5909 0.64052 0.0
C1909 C 0.93744 0.55973 0.65996 0.0
H1910 H 0.962 0.65003 0.64307 0.0
C1911 C 0.94136 0.5631 0.69742 0.0
H1912 H 0.94802 0.58858 0.61152 0.0
C1913 C 0.94641 0.59771 0.71516 0.0
C1914 C 0.95481 0.62967 0.69639 0.0
H1915 H 0.93773 0.53871 0.71261 0.0
H1916 H 0.93996 0.59936 0.74273 0.0
C1917 C 0.95719 0.62571 0.65881 0.0
C1918 C 0.10691 0.84374 0.97015 0.0
C1919 C 0.13598 0.86739 0.98759 0.0
H1920 H 0.04982 0.83249 0.95905 0.0
C1921 C 0.12975 0.90187 0.00243 0.0
H1922 H 0.11087 0.81705 0.95854 0.0
C1923 C 0.0945 0.91155 0.00127 0.0
C1924 C 0.06499 0.88561 0.98824 0.0
H1925 H 0.15197 0.92075 0.01585 0.0
H1926 H 0.09035 0.93886 0.01077 0.0
C1927 C 0.07183 0.85245 0.97106 0.0
C1928 C 0.46003 0.8643 0.33086 0.0
C1929 C 0.46549 0.85434 0.29526 0.0
H1930 H 0.46655 0.90876 0.37054 0.0
C1931 C 0.49436 0.8739 0.27903 0.0
H1932 H 0.43917 0.84869 0.34472 0.0
C1933 C 0.5104 0.90836 0.29408 0.0
C1934 C 0.49682 0.92285 0.32469 0.0
H1935 H 0.50043 0.86589 0.25216 0.0
H1936 H 0.52888 0.92552 0.27886 0.0
C1937 C 0.47567 0.89878 0.34557 0.0
C1938 C 0.49086 0.22992 0.90153 0.0
C1939 C 0.46815 0.2059 0.8765 0.0
H1940 H 0.49421 0.27199 0.9442 0.0
C1941 C 0.43096 0.209 0.87318 0.0
H1942 H 0.51961 0.22807 0.90492 0.0
C1943 C 0.4166 0.23472 0.89493 0.0
C1944 C 0.43889 0.25677 0.92167 0.0
H1945 H 0.41262 0.19086 0.85466 0.0
H1946 H 0.38767 0.23537 0.89274 0.0
C1947 C 0.47633 0.25497 0.92403 0.0
C1948 C 0.61509 0.36419 0.31901 0.0
C1949 C 0.57835 0.35418 0.32201 0.0
H1950 H 0.66099 0.40461 0.33418 0.0
C1951 C 0.56261 0.37194 0.34984 0.0
H1952 H 0.62975 0.34716 0.30296 0.0
C1953 C 0.58075 0.40426 0.36773 0.0
C1954 C 0.61305 0.42052 0.35614 0.0
H1955 H 0.5361 0.36125 0.35734 0.0
H1956 H 0.57036 0.41588 0.39085 0.0
C1957 C 0.63247 0.39716 0.33643 0.0
C1958 C 0.63168 0.83589 0.91086 0.0
C1959 C 0.59744 0.84531 0.91784 0.0
H1960 H 0.67303 0.80188 0.92504 0.0
C1961 C 0.58469 0.83695 0.95138 0.0
H1962 H 0.64279 0.84276 0.88563 0.0
C1963 C 0.60182 0.81307 0.97377 0.0
C1964 C 0.63233 0.79798 0.96321 0.0
H1965 H 0.55912 0.84491 0.95826 0.0
H1966 H 0.58945 0.80412 0.99777 0.0
C1967 C 0.64857 0.81169 0.93294 0.0
C1968 C 0.19798 0.45174 0.26781 0.0
C1969 C 0.18659 0.48334 0.25195 0.0
H1970 H 0.18963 0.4116 0.30803 0.0
C1971 C 0.1519 0.49196 0.25796 0.0
H1972 H 0.22408 0.44353 0.26318 0.0
C1973 C 0.13131 0.47251 0.28272 0.0
C1974 C 0.14565 0.44501 0.30318 0.0
H1975 H 0.14162 0.51532 0.24536 0.0
H1976 H 0.10626 0.48223 0.28894 0.0
C1977 C 0.17792 0.433 0.29337 0.0
C1978 C 0.20126 0.85006 0.45995 0.0
C1979 C 0.21654 0.85254 0.4268 0.0
H1980 H 0.16597 0.81708 0.49161 0.0
C1981 C 0.21887 0.81941 0.40688 0.0
H1982 H 0.19994 0.8747 0.47669 0.0
C1983 C 0.19895 0.78616 0.4155 0.0
C1984 C 0.17759 0.78573 0.44464 0.0
H1985 H 0.23188 0.81993 0.38201 0.0
H1986 H 0.19621 0.76251 0.39653 0.0
C1987 C 0.18193 0.81679 0.46877 0.0
C1988 C 0.78702 0.49471 0.70007 0.0
C1989 C 0.80547 0.46973 0.6817 0.0
H1990 H 0.75865 0.50385 0.74657 0.0
C1991 C 0.79979 0.43207 0.68949 0.0
H1992 H 0.78961 0.52362 0.69381 0.0
C1993 C 0.78128 0.42055 0.71885 0.0
C1994 C 0.76901 0.44678 0.74159 0.0
H1995 H 0.81227 0.41201 0.67446 0.0
H1996 H 0.7816 0.39229 0.72693 0.0
C1997 C 0.76849 0.48311 0.72982 0.0
C1998 C 0.70533 0.9506 0.45659 0.0
C1999 C 0.68312 0.94153 0.48433 0.0
H2000 H 0.75241 0.94002 0.43166 0.0
C2001 C 0.68579 0.90821 0.50174 0.0
H2002 H 0.70311 0.97524 0.44153 0.0
C2003 C 0.71394 0.88762 0.49563 0.0
C2004 C 0.73989 0.90061 0.47264 0.0
H2005 H 0.66744 0.8993 0.52154 0.0
H2006 H 0.71756 0.8639 0.51141 0.0
C2007 C 0.73336 0.9301 0.45061 0.0
C2008 C 0.22775 0.42333 0.01068 0.0
C2009 C 0.19905 0.41309 0.98426 0.0
H2010 H 0.26961 0.46637 0.03125 0.0
C2011 C 0.18743 0.4397 0.9614 0.0
H2012 H 0.23549 0.40391 0.03034 0.0
C2013 C 0.20958 0.47278 0.95885 0.0
C2014 C 0.23862 0.48347 0.98442 0.0
H2015 H 0.16384 0.43331 0.94237 0.0
H2016 H 0.20712 0.48693 0.93408 0.0
C2017 C 0.24671 0.45904 0.01149 0.0
C2018 C 0.92565 0.3413 0.53874 0.0
C2019 C 0.94143 0.31587 0.51779 0.0
H2020 H 0.87636 0.35783 0.55575 0.0
C2021 C 0.9194 0.28653 0.49898 0.0
H2022 H 0.94147 0.366 0.55111 0.0
C2023 C 0.88223 0.28288 0.50051 0.0
C2024 C 0.86611 0.30744 0.52204 0.0
H2025 H 0.93061 0.26772 0.48118 0.0
H2026 H 0.86622 0.26283 0.48202 0.0
C2027 C 0.88824 0.33676 0.54131 0.0
C2028 C 0.54799 0.60094 0.74317 0.0
C2029 C 0.55755 0.63956 0.74511 0.0
H2030 H 0.56331 0.54849 0.72795 0.0
C2031 C 0.59417 0.6539 0.74429 0.0
H2032 H 0.52013 0.58904 0.74471 0.0
C2033 C 0.61934 0.63024 0.73505 0.0
C2034 C 0.60773 0.5924 0.72606 0.0
H2035 H 0.60238 0.68356 0.74619 0.0
H2036 H 0.64601 0.64256 0.72927 0.0
C2037 C 0.57301 0.57751 0.73429 0.0
C2038 C 0.34535 0.89749 0.16137 0.0
C2039 C 0.37957 0.89127 0.17652 0.0
H2040 H 0.31059 0.93773 0.14544 0.0
C2041 C 0.40683 0.92177 0.18265 0.0
H2042 H 0.32404 0.87447 0.15554 0.0
C2043 C 0.39925 0.95806 0.17634 0.0
C2044 C 0.36443 0.9645 0.16319 0.0
H2045 H 0.43353 0.91761 0.19399 0.0
H2046 H 0.42002 0.98116 0.18332 0.0
C2047 C 0.33784 0.93367 0.15505 0.0
C2048 C 0.19151 0.60628 0.41245 0.0
C2049 C 0.21486 0.6046 0.44381 0.0
H2050 H 0.14846 0.57633 0.37617 0.0
C2051 C 0.20599 0.57625 0.4674 0.0
H2052 H 0.19628 0.62903 0.39492 0.0
C2053 C 0.1789 0.54691 0.45681 0.0
C2054 C 0.16086 0.54453 0.42221 0.0
H2055 H 0.22151 0.57551 0.49318 0.0
H2056 H 0.17226 0.5259 0.47555 0.0
C2057 C 0.16471 0.57612 0.40155 0.0
C2058 C 0.5665 0.67858 0.00973 0.0
C2059 C 0.59577 0.65976 0.01946 0.0
H2060 H 0.5097 0.6773 0.00434 0.0
C2061 C 0.58865 0.6219 0.02713 0.0
H2062 H 0.57083 0.70703 0.0018 0.0
C2063 C 0.55304 0.60292 0.02205 0.0
C2064 C 0.52432 0.62179 0.0093 0.0
H2065 H 0.61089 0.60619 0.03349 0.0
H2066 H 0.54834 0.57349 0.02622 0.0
C2067 C 0.53135 0.66056 0.00787 0.0
C2068 C 0.67158 0.70674 0.58301 0.0
C2069 C 0.64262 0.71868 0.59995 0.0
H2070 H 0.70434 0.6628 0.57782 0.0
C2071 C 0.63189 0.70185 0.63102 0.0
H2072 H 0.67968 0.71886 0.55831 0.0
C2073 C 0.64734 0.67144 0.64321 0.0
C2074 C 0.67126 0.65566 0.62255 0.0
H2075 H 0.60842 0.70879 0.64307 0.0
H2076 H 0.63708 0.65739 0.66602 0.0
C2077 C 0.68549 0.67466 0.5939 0.0
C2078 C 0.41042 0.09325 0.28249 0.0
C2079 C 0.42821 0.06179 0.27799 0.0
H2080 H 0.37376 0.12802 0.25732 0.0
C2081 C 0.42664 0.04428 0.24417 0.0
H2082 H 0.4111 0.10699 0.30886 0.0
C2083 C 0.40768 0.05748 0.21519 0.0
C2084 C 0.38519 0.08476 0.22031 0.0
H2085 H 0.43804 0.01904 0.24026 0.0
H2086 H 0.40981 0.04531 0.18879 0.0
C2087 C 0.38876 0.10486 0.25347 0.0
C2088 C 0.32359 0.34897 0.52243 0.0
C2089 C 0.32467 0.35838 0.55876 0.0
H2090 H 0.30254 0.30926 0.47999 0.0
C2091 C 0.29538 0.34256 0.57766 0.0
H2092 H 0.3401 0.36538 0.50563 0.0
C2093 C 0.27163 0.31217 0.56299 0.0
C2094 C 0.27682 0.29713 0.52935 0.0
H2095 H 0.29222 0.35171 0.60506 0.0
H2096 H 0.25043 0.29972 0.57844 0.0
C2097 C 0.30101 0.31757 0.50797 0.0
C2098 C 0.77572 0.93339 0.21205 0.0
C2099 C 0.7423 0.9475 0.20823 0.0
H2100 H 0.82333 0.92255 0.18667 0.0
C2101 C 0.7308 0.96022 0.17466 0.0
H2102 H 0.78617 0.92522 0.23817 0.0
C2103 C 0.75249 0.96021 0.14613 0.0
C2104 C 0.78678 0.94832 0.15048 0.0
H2105 H 0.70627 0.97317 0.17134 0.0
H2106 H 0.74254 0.97016 0.12062 0.0
C2107 C 0.7977 0.93342 0.18321 0.0
C2108 C 0.7127 0.06985 0.02551 0.0
C2109 C 0.69898 0.08938 0.05313 0.0
H2110 H 0.74694 0.02961 0.01349 0.0
C2111 C 0.71809 0.09471 0.08715 0.0
H2112 H 0.69842 0.06611 0.9988 0.0
C2113 C 0.74698 0.07505 0.09529 0.0
C2114 C 0.75565 0.04938 0.06956 0.0
H2115 H 0.70771 0.10952 0.10864 0.0
H2116 H 0.75998 0.07737 0.12244 0.0
C2117 C 0.73963 0.04822 0.03416 0.0
C2118 C 0.45146 0.34039 0.16403 0.0
C2119 C 0.45796 0.3405 0.20225 0.0
H2120 H 0.45712 0.37259 0.11604 0.0
C2121 C 0.45711 0.37503 0.22019 0.0
H2122 H 0.44785 0.31422 0.14861 0.0
C2123 C 0.46164 0.40829 0.20133 0.0
C2124 C 0.46894 0.40807 0.16439 0.0
H2125 H 0.45899 0.37694 0.24931 0.0
H2126 H 0.46518 0.43436 0.21692 0.0
C2127 C 0.45782 0.37393 0.14513 0.0
C2128 C 0.40961 0.06919 0.79249 0.0
C2129 C 0.42725 0.1055 0.79339 0.0
H2130 H 0.36223 0.03416 0.80471 0.0
C2131 C 0.40777 0.13484 0.80118 0.0
H2132 H 0.42359 0.04607 0.7854 0.0
C2133 C 0.37359 0.12804 0.81387 0.0
C2134 C 0.35668 0.09181 0.81592 0.0
H2135 H 0.42029 0.16322 0.80018 0.0
H2136 H 0.36232 0.15099 0.82515 0.0
C2137 C 0.37422 0.06254 0.80286 0.0
C2138 C 0.87754 0.45941 0.19264 0.0
C2139 C 0.87905 0.48727 0.16778 0.0
H2140 H 0.90326 0.4155 0.21508 0.0
C2141 C 0.91333 0.50039 0.15623 0.0
H2142 H 0.85199 0.44886 0.20254 0.0
C2143 C 0.94333 0.48134 0.16354 0.0
C2144 C 0.93934 0.44853 0.18207 0.0
H2145 H 0.91582 0.52244 0.13762 0.0
H2146 H 0.96867 0.49089 0.15274 0.0
C2147 C 0.90695 0.43955 0.19883 0.0
C2148 C 0.93425 0.09641 0.77598 0.0
C2149 C 0.944 0.06635 0.75605 0.0
H2150 H 0.93633 0.15553 0.78107 0.0
C2151 C 0.95628 0.07228 0.722 0.0
H2152 H 0.92588 0.09293 0.80286 0.0
C2153 C 0.96319 0.10802 0.71018 0.0
C2154 C 0.95677 0.13851 0.73145 0.0
H2155 H 0.96577 0.05035 0.70673 0.0
H2156 H 0.97791 0.11214 0.68664 0.0
C2157 C 0.94011 0.13232 0.76343 0.0
C2158 C 0.45693 0.73967 0.87509 0.0
C2159 C 0.48051 0.77079 0.8881 0.0
H2160 H 0.44245 0.68197 0.88078 0.0
C2161 C 0.50204 0.77014 0.92081 0.0
H2162 H 0.4394 0.74023 0.85049 0.0
C2163 C 0.5025 0.73723 0.93879 0.0
C2164 C 0.48124 0.70527 0.92377 0.0
H2165 H 0.51881 0.79486 0.93195 0.0
H2166 H 0.51956 0.73663 0.96369 0.0
C2167 C 0.45804 0.70685 0.89259 0.0
C2168 C 0.32075 0.62053 0.28118 0.0
C2169 C 0.32404 0.58338 0.27641 0.0
H2170 H 0.3161 0.66456 0.31796 0.0
C2171 C 0.34327 0.56708 0.30464 0.0
H2172 H 0.31516 0.63643 0.25827 0.0
C2173 C 0.34853 0.58466 0.33974 0.0
C2174 C 0.33129 0.61625 0.34639 0.0
H2175 H 0.35048 0.53943 0.30085 0.0
H2176 H 0.3611 0.57057 0.36129 0.0
C2177 C 0.32314 0.6367 0.31571 0.0
C2178 C 0.49085 0.80104 0.6175 0.0
C2179 C 0.49937 0.77905 0.58823 0.0
H2180 H 0.4575 0.80308 0.66211 0.0
C2181 C 0.47493 0.74756 0.5769 0.0
H2182 H 0.50663 0.82763 0.62498 0.0
C2183 C 0.45049 0.73253 0.60055 0.0
C2184 C 0.45017 0.74939 0.63521 0.0
H2185 H 0.47816 0.73163 0.55269 0.0
H2186 H 0.43739 0.70447 0.59445 0.0
C2187 C 0.4642 0.78673 0.63964 0.0
C2188 C 0.79185 0.93048 0.58088 0.0
C2189 C 0.82872 0.92998 0.57681 0.0
H2190 H 0.75211 0.94469 0.61475 0.0
C2191 C 0.85456 0.94968 0.60233 0.0
H2192 H 0.77145 0.91536 0.56164 0.0
C2193 C 0.84333 0.96837 0.63224 0.0
C2194 C 0.80634 0.96544 0.63779 0.0
H2195 H 0.88312 0.94875 0.60026 0.0
H2196 H 0.86344 0.98318 0.65198 0.0
C2197 C 0.7808 0.94694 0.61148 0.0
C2198 C 0.99896 0.78217 0.09625 0.0
C2199 C 0.977 0.79231 0.06675 0.0
H2200 H 0.01977 0.73709 0.12268 0.0
C2201 C 0.95079 0.76538 0.0488 0.0
H2202 H 0.01766 0.80269 0.1123 0.0
C2203 C 0.95154 0.72816 0.05525 0.0
C2204 C 0.97957 0.71757 0.07848 0.0
H2205 H 0.9318 0.7727 0.02749 0.0
H2206 H 0.93371 0.70778 0.03805 0.0
C2207 C 0.0001 0.74463 0.10223 0.0
C2208 C 0.1125 0.5362 0.13107 0.0
C2209 C 0.10294 0.57123 0.13994 0.0
H2210 H 0.15551 0.50221 0.12783 0.0
C2211 C 0.12905 0.59733 0.15894 0.0
H2212 H 0.09222 0.51579 0.1175 0.0
C2213 C 0.16487 0.59025 0.16463 0.0
C2214 C 0.17561 0.55657 0.15206 0.0
H2215 H 0.12278 0.62476 0.16603 0.0
H2216 H 0.18454 0.61236 0.17714 0.0
C2217 C 0.14854 0.5287 0.13698 0.0
C2218 C 0.59779 0.63694 0.41092 0.0
C2219 C 0.6273 0.61899 0.42415 0.0
H2220 H 0.56752 0.68291 0.4166 0.0
C2221 C 0.65292 0.63874 0.44994 0.0
H2222 H 0.57783 0.62318 0.39043 0.0
C2223 C 0.64726 0.67372 0.46442 0.0
C2224 C 0.6159 0.68995 0.45349 0.0
H2225 H 0.67613 0.62625 0.46055 0.0
H2226 H 0.6664 0.68696 0.48588 0.0
C2227 C 0.59183 0.67145 0.4258 0.0
C2228 C 0.62665 0.94862 0.78001 0.0
C2229 C 0.65148 0.92794 0.76475 0.0
H2230 H 0.57477 0.94791 0.80103 0.0
C2231 C 0.64141 0.88968 0.75814 0.0
H2232 H 0.63314 0.9783 0.78483 0.0
C2233 C 0.60773 0.87251 0.76677 0.0
C2234 C 0.58313 0.89293 0.78282 0.0
H2235 H 0.65941 0.8729 0.74587 0.0
H2236 H 0.60147 0.84283 0.76161 0.0
C2237 C 0.59299 0.93131 0.78902 0.0
C2238 C 0.41744 0.21402 0.09194 0.0
C2239 C 0.39581 0.24289 0.08673 0.0
H2240 H 0.41902 0.15557 0.09482 0.0
C2241 C 0.35826 0.23451 0.08863 0.0
H2242 H 0.4466 0.2194 0.09189 0.0
C2243 C 0.34257 0.19754 0.09023 0.0
C2244 C 0.36398 0.16838 0.08988 0.0
H2245 H 0.34071 0.25582 0.08521 0.0
H2246 H 0.31349 0.19159 0.09051 0.0
C2247 C 0.40166 0.17717 0.09233 0.0
C2248 C 0.2785 0.42218 0.70058 0.0
C2249 C 0.25655 0.44494 0.68136 0.0
H2250 H 0.33114 0.40591 0.71086 0.0
C2251 C 0.27323 0.47377 0.66215 0.0
H2252 H 0.26663 0.40006 0.71626 0.0
C2253 C 0.31062 0.47704 0.65902 0.0
C2254 C 0.33194 0.45187 0.67547 0.0
H2255 H 0.25712 0.49194 0.64743 0.0
H2256 H 0.32229 0.49724 0.6412 0.0
C2257 C 0.31578 0.42593 0.69807 0.0
C2258 C 0.79774 0.29735 0.89716 0.0
C2259 C 0.77363 0.28921 0.92356 0.0
H2260 H 0.81743 0.33513 0.85849 0.0
C2261 C 0.7471 0.31318 0.9276 0.0
H2262 H 0.81854 0.27986 0.89317 0.0
C2263 C 0.74682 0.34589 0.90807 0.0
C2264 C 0.77307 0.35558 0.88382 0.0
H2265 H 0.72823 0.30822 0.94794 0.0
H2266 H 0.72787 0.36489 0.91407 0.0
C2267 C 0.79705 0.32945 0.87724 0.0
C2268 C 0.85449 0.09138 0.3192 0.0
C2269 C 0.8757 0.06863 0.33927 0.0
H2270 H 0.80117 0.09997 0.29809 0.0
C2271 C 0.85825 0.03851 0.35634 0.0
H2272 H 0.86706 0.11537 0.30644 0.0
C2273 C 0.82071 0.03037 0.35236 0.0
C2274 C 0.79956 0.05201 0.33106 0.0
H2275 H 0.87363 0.02083 0.37257 0.0
H2276 H 0.80833 0.00598 0.36468 0.0
C2277 C 0.81669 0.08322 0.31526 0.0
C2278 C 0.10523 0.84756 0.53794 0.0
C2279 C 0.07613 0.86856 0.53252 0.0
H2280 H 0.12389 0.79448 0.5315 0.0
C2281 C 0.0417 0.85009 0.52147 0.0
H2282 H 0.132 0.86095 0.5476 0.0
C2283 C 0.03692 0.81181 0.51401 0.0
C2284 C 0.06667 0.79129 0.51604 0.0
H2285 H 0.01854 0.86517 0.51845 0.0
H2286 H 0.01033 0.79873 0.50325 0.0
C2287 C 0.10055 0.80929 0.5298 0.0
C2288 C 0.14533 0.0606 0.51018 0.0
C2289 C 0.16658 0.03751 0.52957 0.0
H2290 H 0.14425 0.11249 0.48505 0.0
C2291 C 0.2043 0.04531 0.53164 0.0
H2292 H 0.11607 0.05557 0.50907 0.0
C2293 C 0.22044 0.0778 0.51782 0.0
C2294 C 0.19902 0.10333 0.5025 0.0
H2295 H 0.22111 0.02809 0.54684 0.0
H2296 H 0.24953 0.08473 0.52246 0.0
C2297 C 0.16146 0.0933 0.49651 0.0
C2298 C 0.05845 0.47539 0.61857 0.0
C2299 C 0.07001 0.45214 0.64527 0.0
H2300 H 0.01239 0.4918 0.58722 0.0
C2301 C 0.0446 0.42592 0.65907 0.0
H2302 H 0.07765 0.49608 0.60792 0.0
C2303 C 0.00824 0.42357 0.64753 0.0
C2304 C 0.99623 0.44672 0.62127 0.0
H2305 H 0.05265 0.40801 0.6801 0.0
H2306 H 0.98913 0.40449 0.66035 0.0
C2307 C 0.02147 0.47246 0.60631 0.0
C2308 C 0.80212 0.10027 0.00014 0.0
C2309 C 0.80943 0.12816 0.02794 0.0
H2310 H 0.80982 0.04485 0.98233 0.0
C2311 C 0.8352 0.12309 0.05651 0.0
H2312 H 0.78292 0.10343 0.97739 0.0
C2313 C 0.85153 0.09064 0.05866 0.0
C2314 C 0.84179 0.06092 0.03304 0.0
H2315 H 0.84257 0.14438 0.07782 0.0
H2316 H 0.87034 0.08807 0.08191 0.0
C2317 C 0.81776 0.06675 0.00292 0.0
C2318 C 0.07859 0.06421 0.40845 0.0
C2319 C 0.04878 0.04278 0.42161 0.0
H2320 H 0.13486 0.0701 0.40055 0.0
C2321 C 0.05526 0.0124 0.44234 0.0
H2322 H 0.07513 0.08865 0.39344 0.0
C2323 C 0.09046 0.00202 0.44687 0.0
C2324 C 0.11949 0.02222 0.4311 0.0
H2325 H 0.03307 0.99571 0.45329 0.0
H2326 H 0.09445 0.97697 0.46062 0.0
C2327 C 0.11322 0.05406 0.41302 0.0
C2328 C 0.03094 0.58174 0.46393 0.0
C2329 C 0.06339 0.59998 0.48175 0.0
H2330 H 0.00455 0.53165 0.43638 0.0
C2331 C 0.08975 0.57844 0.49513 0.0
H2332 H 0.00988 0.59734 0.45346 0.0
C2333 C 0.08581 0.54026 0.4865 0.0
C2334 C 0.05598 0.52343 0.46363 0.0
H2335 H 0.11498 0.59153 0.50906 0.0
H2336 H 0.1083 0.52513 0.49363 0.0
C2337 C 0.02758 0.5439 0.45438 0.0
C2338 C 0.5352 0.42855 0.63186 0.0
C2339 C 0.50585 0.44916 0.6285 0.0
H2340 H 0.59307 0.43052 0.63513 0.0
C2341 C 0.51201 0.48773 0.63028 0.0
H2342 H 0.53069 0.39858 0.63035 0.0
C2343 C 0.54692 0.50549 0.63077 0.0
C2344 C 0.57658 0.48522 0.63243 0.0
H2345 H 0.48975 0.50406 0.62714 0.0
H2346 H 0.55003 0.53493 0.62712 0.0
C2347 C 0.57066 0.44667 0.63455 0.0
C2348 C 0.70267 0.55844 0.89297 0.0
C2349 C 0.72209 0.53525 0.9145 0.0
H2350 H 0.68413 0.61178 0.88809 0.0
C2351 C 0.73711 0.54891 0.94898 0.0
H2352 H 0.69149 0.5492 0.86592 0.0
C2353 C 0.73297 0.58474 0.96154 0.0
C2354 C 0.71466 0.60839 0.93959 0.0
H2355 H 0.75282 0.53216 0.96597 0.0
H2356 H 0.74457 0.59416 0.98843 0.0
C2357 C 0.69925 0.59469 0.90526 0.0
C2358 C 0.57018 0.97758 0.37856 0.0
C2359 C 0.57086 0.01569 0.38678 0.0
H2360 H 0.59415 0.93643 0.34925 0.0
C2361 C 0.60315 0.03915 0.38365 0.0
H2362 H 0.54659 0.95835 0.3828 0.0
C2363 C 0.6309 0.02652 0.36587 0.0
C2364 C 0.62684 0.99017 0.3505 0.0
H2365 H 0.60502 0.06851 0.39068 0.0
H2366 H 0.65377 0.04654 0.36101 0.0
C2367 C 0.59741 0.96504 0.35927 0.0
C2368 C 0.51375 0.18002 0.12125 0.0
C2369 C 0.54267 0.19312 0.10116 0.0
H2370 H 0.48874 0.18573 0.17081 0.0
C2371 C 0.56421 0.22639 0.11266 0.0
H2372 H 0.49651 0.15443 0.11298 0.0
C2373 C 0.5613 0.24258 0.14631 0.0
C2374 C 0.53514 0.22741 0.1685 0.0
H2375 H 0.58614 0.23779 0.09754 0.0
H2376 H 0.58074 0.26639 0.15546 0.0
C2377 C 0.50966 0.19754 0.15463 0.0
C2378 C 0.96037 0.88564 0.1629 0.0
C2379 C 0.9398 0.85164 0.16753 0.0
H2380 H 0.9778 0.92603 0.12638 0.0
C2381 C 0.91554 0.8353 0.13869 0.0
H2382 H 0.98036 0.89801 0.1841 0.0
C2383 C 0.91292 0.85239 0.10534 0.0
C2384 C 0.93528 0.88558 0.10011 0.0
H2385 H 0.90025 0.80835 0.14122 0.0
H2386 H 0.89535 0.83837 0.08309 0.0
C2387 C 0.95848 0.90203 0.12967 0.0
C2388 C 0.49657 0.17936 0.35704 0.0
C2389 C 0.526 0.19945 0.34241 0.0
H2390 H 0.47673 0.15585 0.40465 0.0
C2391 C 0.56027 0.20302 0.36196 0.0
H2392 H 0.46986 0.17613 0.34269 0.0
C2393 C 0.56454 0.18945 0.39633 0.0
C2394 C 0.53428 0.17425 0.41294 0.0
H2395 H 0.58358 0.21869 0.35181 0.0
H2396 H 0.59062 0.19571 0.4117 0.0
C2397 C 0.50072 0.16682 0.39215 0.0
C2398 C 0.83407 0.76435 0.60472 0.0
C2399 C 0.86151 0.78037 0.58415 0.0
H2400 H 0.8207 0.74174 0.65541 0.0
C2401 C 0.89719 0.7861 0.60049 0.0
H2402 H 0.80611 0.7605 0.59353 0.0
C2403 C 0.90534 0.77642 0.63602 0.0
C2404 C 0.87818 0.76043 0.65677 0.0
H2405 H 0.91903 0.799 0.586 0.0
H2406 H 0.93334 0.78112 0.64706 0.0
C2407 C 0.84231 0.75445 0.64057 0.0
C2408 C 0.90615 0.78315 0.84925 0.0
C2409 C 0.937 0.76782 0.8397 0.0
H2410 H 0.8839 0.81765 0.88786 0.0
C2411 C 0.96943 0.7766 0.86201 0.0
H2412 H 0.88068 0.77665 0.83283 0.0
C2413 C 0.97139 0.80032 0.89234 0.0
C2414 C 0.94079 0.81528 0.90249 0.0
H2415 H 0.99383 0.76552 0.8558 0.0
H2416 H 0.99722 0.80667 0.90819 0.0
C2417 C 0.9079 0.80632 0.88081 0.0
C2418 C 0.33975 0.76729 0.363 0.0
C2419 C 0.36087 0.74232 0.37925 0.0
H2420 H 0.32446 0.79398 0.3153 0.0
C2421 C 0.38606 0.72719 0.35862 0.0
H2422 H 0.31997 0.7793 0.3777 0.0
C2423 C 0.38804 0.73478 0.32202 0.0
C2424 C 0.36503 0.7578 0.30526 0.0
H2425 H 0.40268 0.70749 0.37003 0.0
H2426 H 0.40663 0.72168 0.30664 0.0
C2427 C 0.34191 0.77502 0.32672 0.0
C2428 C 0.6091 0.09664 0.91943 0.0
C2429 C 0.605 0.12019 0.949 0.0
H2430 H 0.61269 0.09198 0.86247 0.0
C2431 C 0.60881 0.15869 0.94354 0.0
H2432 H 0.60965 0.06726 0.92254 0.0
C2433 C 0.60522 0.17168 0.90854 0.0
C2434 C 0.60239 0.14685 0.87855 0.0
H2435 H 0.60965 0.17835 0.96606 0.0
H2436 H 0.60014 0.20003 0.90514 0.0
C2437 C 0.61046 0.11074 0.8849 0.0
C2438 C 0.1577 0.98875 0.86628 0.0
C2439 C 0.17563 0.02529 0.86909 0.0
H2440 H 0.10656 0.95349 0.86412 0.0
C2441 C 0.15502 0.05383 0.8777 0.0
H2442 H 0.17242 0.96597 0.85994 0.0
C2443 C 0.11768 0.04676 0.88088 0.0
C2444 C 0.09896 0.01078 0.8753 0.0
H2445 H 0.16769 0.08234 0.88092 0.0
H2446 H 0.10311 0.07006 0.88565 0.0
C2447 C 0.11981 0.98164 0.869 0.0
C2448 C 0.80884 0.83508 0.0431 0.0
C2449 C 0.80215 0.85901 0.01501 0.0
H2450 H 0.79256 0.78305 0.06651 0.0
C2451 C 0.77833 0.84494 0.98509 0.0
H2452 H 0.82643 0.84515 0.06694 0.0
C2453 C 0.75996 0.80873 0.98436 0.0
C2454 C 0.76407 0.78621 0.01402 0.0
H2455 H 0.7721 0.86273 0.96334 0.0
H2456 H 0.73995 0.79962 0.96204 0.0
C2457 C 0.7894 0.79941 0.04299 0.0
C2458 C 0.66504 0.55231 0.12218 0.0
C2459 C 0.6814 0.53328 0.09579 0.0
H2460 H 0.61523 0.56745 0.13956 0.0
C2461 C 0.66029 0.52079 0.06351 0.0
H2462 H 0.68054 0.56307 0.14703 0.0
C2463 C 0.62306 0.52218 0.05987 0.0
C2464 C 0.60577 0.53683 0.088 0.0
H2465 H 0.67188 0.50693 0.04197 0.0
H2466 H 0.60723 0.50868 0.03622 0.0
C2467 C 0.62755 0.55482 0.11788 0.0
C2468 C 0.1394 0.28434 0.40638 0.0
C2469 C 0.15064 0.27483 0.44152 0.0
H2470 H 0.12118 0.32705 0.37304 0.0
C2471 C 0.14928 0.30095 0.47004 0.0
H2472 H 0.14067 0.26537 0.38364 0.0
C2473 C 0.13838 0.33546 0.46419 0.0
C2474 C 0.12807 0.34561 0.42942 0.0
H2475 H 0.15938 0.29599 0.4971 0.0
H2476 H 0.1398 0.35514 0.48696 0.0
C2477 C 0.12789 0.31946 0.4004 0.0
C2478 C 0.32515 0.98 0.42838 0.0
C2479 C 0.30222 0.00199 0.40978 0.0
H2480 H 0.37954 0.97118 0.44454 0.0
C2481 C 0.31753 0.03667 0.39875 0.0
H2482 H 0.31428 0.95308 0.43708 0.0
C2483 C 0.35542 0.04741 0.40331 0.0
C2484 C 0.37871 0.02329 0.41831 0.0
H2485 H 0.30059 0.05414 0.38413 0.0
H2486 H 0.36659 0.07273 0.3917 0.0
C2487 C 0.36271 0.99058 0.43283 0.0
C2488 C 0.66981 0.19359 0.52594 0.0
C2489 C 0.68553 0.2126 0.4978 0.0
H2490 H 0.6384 0.14406 0.54106 0.0
C2491 C 0.67517 0.19943 0.462 0.0
H2492 H 0.67741 0.20306 0.55376 0.0
C2493 C 0.65287 0.16564 0.45481 0.0
C2494 C 0.64014 0.14495 0.48323 0.0
H2495 H 0.68713 0.2133 0.4398 0.0
H2496 H 0.64853 0.154 0.42738 0.0
C2497 C 0.64715 0.16007 0.51866 0.0
C2498 C 0.77555 0.44575 0.59807 0.0
C2499 C 0.79485 0.46439 0.57169 0.0
H2500 H 0.73569 0.44949 0.63632 0.0
C2501 C 0.78089 0.49472 0.55596 0.0
H2502 H 0.78458 0.42132 0.60968 0.0
C2503 C 0.75355 0.5107 0.57123 0.0
C2504 C 0.73914 0.49645 0.60222 0.0
H2505 H 0.79398 0.50882 0.53448 0.0
H2506 H 0.74569 0.53601 0.56037 0.0
C2507 C 0.74822 0.46227 0.61388 0.0
C2508 C 0.32473 0.68966 0.99363 0.0
C2509 C 0.32272 0.66967 0.96048 0.0
H2510 H 0.31188 0.73753 0.02255 0.0
C2511 C 0.31051 0.68692 0.92925 0.0
H2512 H 0.33134 0.6763 0.01833 0.0
C2513 C 0.29659 0.7209 0.93178 0.0
C2514 C 0.29609 0.73924 0.96546 0.0
H2515 H 0.30704 0.67171 0.9034 0.0
H2516 H 0.28425 0.73168 0.90768 0.0
C2517 C 0.31229 0.72434 0.99609 0.0
C2518 C 0.24283 0.92127 0.09286 0.0
C2519 C 0.25807 0.91352 0.06075 0.0
H2520 H 0.23493 0.9616 0.13305 0.0
C2521 C 0.2752 0.94326 0.04269 0.0
H2522 H 0.2287 0.89927 0.10711 0.0
C2523 C 0.27933 0.97964 0.05802 0.0
C2524 C 0.26561 0.98693 0.09124 0.0
H2525 H 0.2866 0.93823 0.01748 0.0
H2526 H 0.29498 0.00152 0.04493 0.0
C2527 C 0.24598 0.95736 0.10749 0.0
C2528 C 0.56618 0.89431 0.53185 0.0
C2529 C 0.58386 0.8731 0.50832 0.0
H2530 H 0.54774 0.94618 0.54337 0.0
C2531 C 0.59059 0.88642 0.47434 0.0
H2532 H 0.55958 0.88424 0.55784 0.0
C2533 C 0.58338 0.92231 0.46595 0.0
C2534 C 0.56964 0.94502 0.49161 0.0
H2535 H 0.60383 0.87046 0.45563 0.0
H2536 H 0.59197 0.93349 0.44106 0.0
C2537 C 0.55905 0.92972 0.52353 0.0
C2538 C 0.41107 0.47437 0.99177 0.0
C2539 C 0.37987 0.48737 0.00329 0.0
H2540 H 0.4397 0.42717 0.98382 0.0
C2541 C 0.35472 0.46173 0.01857 0.0
H2542 H 0.43128 0.49337 0.98048 0.0
C2543 C 0.35877 0.42397 0.0194 0.0
C2544 C 0.38891 0.41046 0.0062 0.0
H2545 H 0.33053 0.47048 0.02803 0.0
H2546 H 0.33765 0.40511 0.02965 0.0
C2547 C 0.41585 0.43645 0.99374 0.0
C2548 C 0.73843 0.43853 0.40662 0.0
C2549 C 0.73018 0.46311 0.434 0.0
H2550 H 0.74982 0.38348 0.39233 0.0
C2551 C 0.72916 0.45043 0.46908 0.0
H2552 H 0.73799 0.44685 0.37897 0.0
C2553 C 0.73517 0.41418 0.47653 0.0
C2554 C 0.74188 0.38892 0.44905 0.0
H2555 H 0.7217 0.46803 0.49052 0.0
H2556 H 0.7336 0.4057 0.504 0.0
C2557 C 0.74416 0.40182 0.41404 0.0
C2558 C 0.37762 0.65502 0.86344 0.0
C2559 C 0.38681 0.61886 0.86696 0.0
H2560 H 0.37783 0.70182 0.82949 0.0
C2561 C 0.38971 0.59804 0.83508 0.0
H2562 H 0.37501 0.6719 0.88735 0.0
C2563 C 0.39 0.61472 0.80171 0.0
C2564 C 0.38882 0.65316 0.79939 0.0
H2565 H 0.39615 0.56992 0.83651 0.0
H2566 H 0.39589 0.59826 0.77869 0.0
C2567 C 0.37978 0.67244 0.83016 0.0
C2568 C 0.05976 0.26078 0.83906 0.0
C2569 C 0.07785 0.2456 0.8116 0.0
H2570 H 0.06295 0.28079 0.89418 0.0
C2571 C 0.11078 0.23234 0.82105 0.0
H2572 H 0.0337 0.27018 0.83297 0.0
C2573 C 0.12746 0.23831 0.85618 0.0
C2574 C 0.11088 0.25656 0.8828 0.0
H2575 H 0.12397 0.21803 0.80114 0.0
H2576 H 0.15443 0.23097 0.86198 0.0
C2577 C 0.07599 0.26588 0.87444 0.0
C2578 C 0.3857 0.72924 0.09694 0.0
C2579 C 0.40238 0.72155 0.13051 0.0
H2580 H 0.38008 0.71691 0.04016 0.0
C2581 C 0.42293 0.69199 0.13282 0.0
H2582 H 0.37091 0.75287 0.09427 0.0
C2583 C 0.42616 0.67 0.10203 0.0
C2584 C 0.40948 0.67768 0.06833 0.0
H2585 H 0.43663 0.68604 0.15834 0.0
H2586 H 0.44227 0.6474 0.10453 0.0
C2587 C 0.39014 0.70814 0.066 0.0
C2588 C 0.01962 0.41906 0.36117 0.0
C2589 C 0.02858 0.38723 0.37841 0.0
H2590 H 0.01374 0.44551 0.31009 0.0
C2591 C 0.04219 0.35994 0.35719 0.0
H2592 H 0.00951 0.44085 0.37627 0.0
C2593 C 0.04632 0.36341 0.32094 0.0
C2594 C 0.03567 0.39356 0.3031 0.0
H2595 H 0.05059 0.33518 0.36847 0.0
H2596 H 0.05629 0.34111 0.30631 0.0
C2597 C 0.02276 0.42198 0.32348 0.0
C2598 C 0.99955 0.32535 0.62516 0.0
C2599 C 0.02487 0.30933 0.6477 0.0
H2600 H 0.99087 0.36199 0.58251 0.0
C2601 C 0.06151 0.32385 0.64783 0.0
H2602 H 0.97121 0.31556 0.6244 0.0
C2603 C 0.0726 0.34938 0.62225 0.0
C2604 C 0.04727 0.3613 0.59626 0.0
H2605 H 0.08188 0.31295 0.66523 0.0
H2606 H 0.10133 0.35619 0.61992 0.0
C2607 C 0.01069 0.35206 0.60082 0.0
C2608 C 0.55596 0.19346 0.641 0.0
C2609 C 0.55904 0.16018 0.62185 0.0
H2610 H 0.55118 0.22001 0.6923 0.0
C2611 C 0.56694 0.12951 0.64111 0.0
H2612 H 0.5499 0.21762 0.6267 0.0
C2613 C 0.56738 0.13071 0.6788 0.0
C2614 C 0.56006 0.16278 0.69773 0.0
H2615 H 0.56992 0.10385 0.62695 0.0
H2616 H 0.57078 0.10564 0.69279 0.0
C2617 C 0.55657 0.19483 0.67862 0.0
C2618 C 0.36731 0.61635 0.59555 0.0
C2619 C 0.37185 0.64872 0.61749 0.0
H2620 H 0.35245 0.59143 0.54337 0.0
C2621 C 0.36266 0.68174 0.60238 0.0
H2622 H 0.37377 0.5905 0.60634 0.0
C2623 C 0.35212 0.68281 0.56524 0.0
C2624 C 0.34999 0.65067 0.54283 0.0
H2625 H 0.36612 0.70736 0.6187 0.0
H2626 H 0.34715 0.70888 0.55396 0.0
C2627 C 0.35588 0.61723 0.55904 0.0
C2628 C 0.35896 0.48786 0.11347 0.0
C2629 C 0.34455 0.52057 0.12159 0.0
H2630 H 0.40532 0.46406 0.09842 0.0
C2631 C 0.36386 0.55471 0.11343 0.0
H2632 H 0.34479 0.46116 0.11914 0.0
C2633 C 0.39876 0.55647 0.10224 0.0
C2634 C 0.41474 0.52411 0.09787 0.0
H2635 H 0.35341 0.58058 0.11876 0.0
H2636 H 0.41431 0.58328 0.09982 0.0
C2637 C 0.39366 0.48962 0.10137 0.0
C2638 C 0.36701 0.95525 0.82683 0.0
C2639 C 0.35191 0.95706 0.86035 0.0
H2640 H 0.40991 0.93914 0.79704 0.0
C2641 C 0.36848 0.93917 0.88901 0.0
H2642 H 0.35549 0.96855 0.8039 0.0
C2643 C 0.3996 0.92149 0.88462 0.0
C2644 C 0.41527 0.92088 0.85143 0.0
H2645 H 0.35824 0.93999 0.91531 0.0
H2646 H 0.41183 0.90871 0.90757 0.0
C2647 C 0.39824 0.93788 0.82258 0.0
C2648 C 0.91705 0.57842 0.087 0.0
C2649 C 0.9323 0.57621 0.05382 0.0
H2650 H 0.86977 0.56742 0.11574 0.0
C2651 C 0.90904 0.56453 0.02274 0.0
H2652 H 0.93387 0.58815 0.11139 0.0
C2653 C 0.87228 0.55232 0.02531 0.0
C2654 C 0.85747 0.5526 0.05883 0.0
H2655 H 0.91948 0.56328 0.99654 0.0
H2656 H 0.85573 0.54095 0.00123 0.0
C2657 C 0.88005 0.56718 0.08942 0.0
C2658 C 0.89017 0.01908 0.82835 0.0
C2659 C 0.89685 0.98225 0.83229 0.0
H2660 H 0.85488 0.05548 0.80421 0.0
C2661 C 0.86817 0.95384 0.82181 0.0
H2662 H 0.91129 0.0416 0.83666 0.0
C2663 C 0.83546 0.96164 0.80428 0.0
C2664 C 0.83053 0.99812 0.796 0.0
H2665 H 0.87207 0.92507 0.82464 0.0
H2666 H 0.8153 0.93868 0.79449 0.0
C2667 C 0.85777 0.02693 0.80965 0.0
C2668 C 0.06494 0.2933 0.07275 0.0
C2669 C 0.0984 0.31016 0.06352 0.0
H2670 H 0.0253 0.29136 0.11095 0.0
C2671 C 0.12075 0.33346 0.08971 0.0
H2672 H 0.04725 0.27515 0.05333 0.0
C2673 C 0.10784 0.34359 0.12256 0.0
C2674 C 0.07265 0.32988 0.13011 0.0
H2675 H 0.14678 0.34696 0.08329 0.0
H2676 H 0.12352 0.3656 0.13965 0.0
C2677 C 0.0528 0.30209 0.10622 0.0
C2678 C 0.8677 0.80009 0.35525 0.0
C2679 C 0.88401 0.82859 0.33501 0.0
H2680 H 0.84575 0.78602 0.40569 0.0
C2681 C 0.88166 0.86535 0.34614 0.0
H2682 H 0.86809 0.77139 0.34684 0.0
C2683 C 0.86864 0.87369 0.37903 0.0
C2684 C 0.85786 0.84559 0.40254 0.0
H2685 H 0.89272 0.88814 0.33076 0.0
H2686 H 0.86988 0.90272 0.38708 0.0
C2687 C 0.85507 0.80848 0.3891 0.0
loop_
_geom_bond_atom_site_label_1
_geom_bond_atom_site_label_2
_geom_bond_distance
_geom_bond_site_symmetry_2
_ccdc_geom_bond_type
Mn0 O5 2.095 . S
Mn0 O15 2.162 . S
Mn0 O16 2.297 . S
Mn0 O24 2.385 . S
Mn0 O25 2.209 . S
Mn0 O26 2.094 . S
Mn1 O6 2.121 1_456 S
Mn1 N8 2.257 . S
Mn1 N17 2.282 . S
Mn1 O25 2.215 1_556 S
Mn1 O27 2.117 1_556 S
C2 O24 1.234 . S
C2 O25 1.283 . S
C3 O15 1.281 . S
C3 O16 1.236 . S
C4 O26 1.240 . S
C4 O27 1.264 . S
O5 Mn0 2.095 . S
O5 C14 1.250 1_455 S
O6 Mn1 2.121 1_654 S
O6 C14 1.258 . S
C7 N8 1.326 . S
C7 C11 1.460 . S
C7 H13 0.929 1_455 S
N8 Mn1 2.257 . S
N8 C7 1.326 . S
N8 C12 1.362 . S
C9 C10 1.258 . S
C9 C12 1.431 . S
C9 C29 1.449 . S
C10 C9 1.258 . S
C10 C11 1.477 . S
C10 H30 0.931 . S
C11 C7 1.460 . S
C11 C10 1.477 . S
C11 H31 0.930 1_455 S
C12 N8 1.362 . S
C12 C9 1.431 . S
C12 C22 1.476 . S
H13 C7 0.929 1_655 S
C14 O5 1.250 1_655 S
C14 O6 1.258 . S
O15 Mn0 2.162 . S
O15 C3 1.281 . S
O16 Mn0 2.297 . S
O16 C3 1.236 . S
N17 Mn1 2.282 . S
N17 C18 1.328 . S
N17 C22 1.318 . S
C18 N17 1.328 . S
C18 C19 1.457 . S
C18 H23 0.929 . S
C19 C18 1.457 . S
C19 C20 1.291 . S
C19 H32 0.931 . S
C20 C19 1.291 . S
C20 C21 1.373 . S
C20 H33 0.929 . S
C21 C20 1.373 . S
C21 C22 1.396 . S
C21 C28 1.403 . S
C22 C12 1.476 . S
C22 N17 1.318 . S
C22 C21 1.396 . S
H23 C18 0.929 . S
O24 Mn0 2.385 . S
O24 C2 1.234 . S
O25 Mn0 2.209 . S
O25 Mn1 2.215 1_554 S
O25 C2 1.283 . S
O26 Mn0 2.094 . S
O26 C4 1.240 . S
O27 Mn1 2.117 1_554 S
O27 C4 1.264 . S
C28 C21 1.403 . S
C28 C29 1.399 . S
C28 H34 0.929 . S
C29 C9 1.449 . S
C29 C28 1.399 . S
C29 H35 0.930 . S
H30 C10 0.931 . S
H31 C11 0.930 1_655 S
H32 C19 0.931 . S
H33 C20 0.929 . S
H34 C28 0.929 . S
H35 C29 0.930 . S
Mn36 O41 2.095 . S
Mn36 O51 2.162 . S
Mn36 O52 2.297 . S
Mn36 O60 2.385 . S
Mn36 O61 2.209 . S
Mn36 O62 2.094 . S
Mn37 O42 2.121 . S
Mn37 N44 2.257 . S
Mn37 N53 2.282 . S
Mn37 O61 2.215 . S
Mn37 O63 2.117 . S
C38 O60 1.234 . S
C38 O61 1.283 . S
C39 O51 1.281 . S
C39 O52 1.236 . S
C40 O62 1.240 . S
C40 O63 1.264 . S
O41 Mn36 2.095 . S
O41 C50 1.250 . S
O42 Mn37 2.121 . S
O42 C50 1.258 . S
C43 N44 1.326 . S
C43 C47 1.460 . S
C43 H49 0.929 . S
N44 Mn37 2.257 . S
N44 C43 1.326 . S
N44 C48 1.362 . S
C45 C46 1.258 . S
C45 C48 1.431 . S
C45 C65 1.449 . S
C46 C45 1.258 . S
C46 C47 1.477 . S
C46 H66 0.931 . S
C47 C43 1.460 . S
C47 C46 1.477 . S
C47 H67 0.930 . S
C48 N44 1.362 . S
C48 C45 1.431 . S
C48 C58 1.476 . S
H49 C43 0.929 . S
C50 O41 1.250 . S
C50 O42 1.258 . S
O51 Mn36 2.162 . S
O51 C39 1.281 . S
O52 Mn36 2.297 . S
O52 C39 1.236 . S
N53 Mn37 2.282 . S
N53 C54 1.328 . S
N53 C58 1.318 . S
C54 N53 1.328 . S
C54 C55 1.457 . S
C54 H59 0.929 . S
C55 C54 1.457 . S
C55 C56 1.291 . S
C55 H68 0.931 . S
C56 C55 1.291 . S
C56 C57 1.373 . S
C56 H69 0.929 . S
C57 C56 1.373 . S
C57 C58 1.396 . S
C57 C64 1.403 . S
C58 C48 1.476 . S
C58 N53 1.318 . S
C58 C57 1.396 . S
H59 C54 0.929 . S
O60 Mn36 2.385 . S
O60 C38 1.234 . S
O61 Mn36 2.209 . S
O61 Mn37 2.215 . S
O61 C38 1.283 . S
O62 Mn36 2.094 . S
O62 C40 1.240 . S
O63 Mn37 2.117 . S
O63 C40 1.264 . S
C64 C57 1.403 . S
C64 C65 1.399 . S
C64 H70 0.929 . S
C65 C45 1.449 . S
C65 C64 1.399 . S
C65 H71 0.930 . S
H66 C46 0.931 . S
H67 C47 0.930 . S
H68 C55 0.931 . S
H69 C56 0.929 . S
H70 C64 0.929 . S
H71 C65 0.930 . S
Mn72 O77 2.095 . S
Mn72 O87 2.162 . S
Mn72 O88 2.297 . S
Mn72 O96 2.385 . S
Mn72 O97 2.209 1_565 S
Mn72 O98 2.094 . S
Mn73 O78 2.121 . S
Mn73 N80 2.257 . S
Mn73 N89 2.282 . S
Mn73 O97 2.215 . S
Mn73 O99 2.117 1_545 S
C74 O96 1.234 1_545 S
C74 O97 1.283 . S
C75 O87 1.281 . S
C75 O88 1.236 . S
C76 O98 1.240 . S
C76 O99 1.264 . S
O77 Mn72 2.095 . S
O77 C86 1.250 . S
O78 Mn73 2.121 . S
O78 C86 1.258 1_545 S
C79 N80 1.326 . S
C79 C83 1.460 . S
C79 H85 0.929 . S
N80 Mn73 2.257 . S
N80 C79 1.326 . S
N80 C84 1.362 . S
C81 C82 1.258 . S
C81 C84 1.431 . S
C81 C101 1.449 . S
C82 C81 1.258 . S
C82 C83 1.477 . S
C82 H102 0.931 . S
C83 C79 1.460 . S
C83 C82 1.477 . S
C83 H103 0.930 . S
C84 N80 1.362 . S
C84 C81 1.431 . S
C84 C94 1.476 . S
H85 C79 0.929 . S
C86 O77 1.250 . S
C86 O78 1.258 1_565 S
O87 Mn72 2.162 . S
O87 C75 1.281 . S
O88 Mn72 2.297 . S
O88 C75 1.236 . S
N89 Mn73 2.282 . S
N89 C90 1.328 . S
N89 C94 1.318 . S
C90 N89 1.328 . S
C90 C91 1.457 . S
C90 H95 0.929 1_545 S
C91 C90 1.457 . S
C91 C92 1.291 . S
C91 H104 0.931 1_545 S
C92 C91 1.291 . S
C92 C93 1.373 . S
C92 H105 0.929 . S
C93 C92 1.373 . S
C93 C94 1.396 . S
C93 C100 1.403 . S
C94 C84 1.476 . S
C94 N89 1.318 . S
C94 C93 1.396 . S
H95 C90 0.929 1_565 S
O96 Mn72 2.385 . S
O96 C74 1.234 1_565 S
O97 Mn72 2.209 1_545 S
O97 Mn73 2.215 . S
O97 C74 1.283 . S
O98 Mn72 2.094 . S
O98 C76 1.240 . S
O99 Mn73 2.117 1_565 S
O99 C76 1.264 . S
C100 C93 1.403 . S
C100 C101 1.399 . S
C100 H106 0.929 . S
C101 C81 1.449 . S
C101 C100 1.399 . S
C101 H107 0.930 . S
H102 C82 0.931 . S
H103 C83 0.930 . S
H104 C91 0.931 1_565 S
H105 C92 0.929 . S
H106 C100 0.929 . S
H107 C101 0.930 . S
Mn108 O113 2.095 1_556 S
Mn108 O123 2.162 . S
Mn108 O124 2.297 1_556 S
Mn108 O132 2.385 . S
Mn108 O133 2.209 . S
Mn108 O134 2.094 . S
Mn109 O114 2.121 1_556 S
Mn109 N116 2.257 1_556 S
Mn109 N125 2.282 . S
Mn109 O133 2.215 . S
Mn109 O135 2.117 . S
C110 O132 1.234 . S
C110 O133 1.283 . S
C111 O123 1.281 1_554 S
C111 O124 1.236 . S
C112 O134 1.240 . S
C112 O135 1.264 . S
O113 Mn108 2.095 1_554 S
O113 C122 1.250 . S
O114 Mn109 2.121 1_554 S
O114 C122 1.258 . S
C115 N116 1.326 . S
C115 C119 1.460 . S
C115 H121 0.929 . S
N116 Mn109 2.257 1_554 S
N116 C115 1.326 . S
N116 C120 1.362 1_554 S
C117 C118 1.258 1_556 S
C117 C120 1.431 . S
C117 C137 1.449 . S
C118 C117 1.258 1_554 S
C118 C119 1.477 . S
C118 H138 0.931 . S
C119 C115 1.460 . S
C119 C118 1.477 . S
C119 H139 0.930 . S
C120 N116 1.362 1_556 S
C120 C117 1.431 . S
C120 C130 1.476 . S
H121 C115 0.929 . S
C122 O113 1.250 . S
C122 O114 1.258 . S
O123 Mn108 2.162 . S
O123 C111 1.281 1_556 S
O124 Mn108 2.297 1_554 S
O124 C111 1.236 . S
N125 Mn109 2.282 . S
N125 C126 1.328 . S
N125 C130 1.318 . S
C126 N125 1.328 . S
C126 C127 1.457 . S
C126 H131 0.929 . S
C127 C126 1.457 . S
C127 C128 1.291 . S
C127 H140 0.931 . S
C128 C127 1.291 . S
C128 C129 1.373 . S
C128 H141 0.929 . S
C129 C128 1.373 . S
C129 C130 1.396 . S
C129 C136 1.403 . S
C130 C120 1.476 . S
C130 N125 1.318 . S
C130 C129 1.396 . S
H131 C126 0.929 . S
O132 Mn108 2.385 . S
O132 C110 1.234 . S
O133 Mn108 2.209 . S
O133 Mn109 2.215 . S
O133 C110 1.283 . S
O134 Mn108 2.094 . S
O134 C112 1.240 . S
O135 Mn109 2.117 . S
O135 C112 1.264 . S
C136 C129 1.403 . S
C136 C137 1.399 . S
C136 H142 0.929 . S
C137 C117 1.449 . S
C137 C136 1.399 . S
C137 H143 0.930 . S
H138 C118 0.931 . S
H139 C119 0.930 . S
H140 C127 0.931 . S
H141 C128 0.929 . S
H142 C136 0.929 . S
H143 C137 0.930 . S
Mn144 O149 2.095 . S
Mn144 O159 2.162 . S
Mn144 O160 2.297 . S
Mn144 O168 2.385 . S
Mn144 O169 2.209 . S
Mn144 O170 2.094 . S
Mn145 O150 2.121 . S
Mn145 N152 2.257 . S
Mn145 N161 2.282 . S
Mn145 O169 2.215 . S
Mn145 O171 2.117 . S
C146 O168 1.234 . S
C146 O169 1.283 . S
C147 O159 1.281 . S
C147 O160 1.236 . S
C148 O170 1.240 . S
C148 O171 1.264 . S
O149 Mn144 2.095 . S
O149 C158 1.250 . S
O150 Mn145 2.121 . S
O150 C158 1.258 . S
C151 N152 1.326 . S
C151 C155 1.460 . S
C151 H157 0.929 . S
N152 Mn145 2.257 . S
N152 C151 1.326 . S
N152 C156 1.362 . S
C153 C154 1.258 . S
C153 C156 1.431 . S
C153 C173 1.449 . S
C154 C153 1.258 . S
C154 C155 1.477 . S
C154 H174 0.931 . S
C155 C151 1.460 . S
C155 C154 1.477 . S
C155 H175 0.930 . S
C156 N152 1.362 . S
C156 C153 1.431 . S
C156 C166 1.476 . S
H157 C151 0.929 . S
C158 O149 1.250 . S
C158 O150 1.258 . S
O159 Mn144 2.162 . S
O159 C147 1.281 . S
O160 Mn144 2.297 . S
O160 C147 1.236 . S
N161 Mn145 2.282 . S
N161 C162 1.328 . S
N161 C166 1.318 . S
C162 N161 1.328 . S
C162 C163 1.457 . S
C162 H167 0.929 . S
C163 C162 1.457 . S
C163 C164 1.291 . S
C163 H176 0.931 . S
C164 C163 1.291 . S
C164 C165 1.373 . S
C164 H177 0.929 . S
C165 C164 1.373 . S
C165 C166 1.396 . S
C165 C172 1.403 . S
C166 C156 1.476 . S
C166 N161 1.318 . S
C166 C165 1.396 . S
H167 C162 0.929 . S
O168 Mn144 2.385 . S
O168 C146 1.234 . S
O169 Mn144 2.209 . S
O169 Mn145 2.215 . S
O169 C146 1.283 . S
O170 Mn144 2.094 . S
O170 C148 1.240 . S
O171 Mn145 2.117 . S
O171 C148 1.264 . S
C172 C165 1.403 . S
C172 C173 1.399 . S
C172 H178 0.929 . S
C173 C153 1.449 . S
C173 C172 1.399 . S
C173 H179 0.930 . S
H174 C154 0.931 . S
H175 C155 0.930 . S
H176 C163 0.931 . S
H177 C164 0.929 . S
H178 C172 0.929 . S
H179 C173 0.930 . S
Mn180 O185 2.095 . S
Mn180 O195 2.162 . S
Mn180 O196 2.297 . S
Mn180 O204 2.385 1_556 S
Mn180 O205 2.209 1_556 S
Mn180 O206 2.094 1_556 S
Mn181 O186 2.121 . S
Mn181 N188 2.257 . S
Mn181 N197 2.282 . S
Mn181 O205 2.215 . S
Mn181 O207 2.117 . S
C182 O204 1.234 . S
C182 O205 1.283 . S
C183 O195 1.281 . S
C183 O196 1.236 . S
C184 O206 1.240 . S
C184 O207 1.264 . S
O185 Mn180 2.095 . S
O185 C194 1.250 1_556 S
O186 Mn181 2.121 . S
O186 C194 1.258 . S
C187 N188 1.326 . S
C187 C191 1.460 . S
C187 H193 0.929 . S
N188 Mn181 2.257 . S
N188 C187 1.326 . S
N188 C192 1.362 . S
C189 C190 1.258 . S
C189 C192 1.431 . S
C189 C209 1.449 . S
C190 C189 1.258 . S
C190 C191 1.477 . S
C190 H210 0.931 . S
C191 C187 1.460 . S
C191 C190 1.477 . S
C191 H211 0.930 . S
C192 N188 1.362 . S
C192 C189 1.431 . S
C192 C202 1.476 . S
H193 C187 0.929 . S
C194 O185 1.250 1_554 S
C194 O186 1.258 . S
O195 Mn180 2.162 . S
O195 C183 1.281 . S
O196 Mn180 2.297 . S
O196 C183 1.236 . S
N197 Mn181 2.282 . S
N197 C198 1.328 . S
N197 C202 1.318 . S
C198 N197 1.328 . S
C198 C199 1.457 . S
C198 H203 0.929 . S
C199 C198 1.457 . S
C199 C200 1.291 . S
C199 H212 0.931 . S
C200 C199 1.291 . S
C200 C201 1.373 . S
C200 H213 0.929 . S
C201 C200 1.373 . S
C201 C202 1.396 . S
C201 C208 1.403 . S
C202 C192 1.476 . S
C202 N197 1.318 . S
C202 C201 1.396 . S
H203 C198 0.929 . S
O204 Mn180 2.385 1_554 S
O204 C182 1.234 . S
O205 Mn180 2.209 1_554 S
O205 Mn181 2.215 . S
O205 C182 1.283 . S
O206 Mn180 2.094 1_554 S
O206 C184 1.240 . S
O207 Mn181 2.117 . S
O207 C184 1.264 . S
C208 C201 1.403 . S
C208 C209 1.399 . S
C208 H214 0.929 . S
C209 C189 1.449 . S
C209 C208 1.399 . S
C209 H215 0.930 . S
H210 C190 0.931 . S
H211 C191 0.930 . S
H212 C199 0.931 . S
H213 C200 0.929 . S
H214 C208 0.929 . S
H215 C209 0.930 . S
Mn216 O221 2.095 . S
Mn216 O231 2.162 1_655 S
Mn216 O232 2.297 1_655 S
Mn216 O240 2.385 1_655 S
Mn216 O241 2.209 . S
Mn216 O242 2.094 . S
Mn217 O222 2.121 . S
Mn217 N224 2.257 . S
Mn217 N233 2.282 . S
Mn217 O241 2.215 . S
Mn217 O243 2.117 . S
C218 O240 1.234 . S
C218 O241 1.283 1_455 S
C219 O231 1.281 . S
C219 O232 1.236 . S
C220 O242 1.240 . S
C220 O243 1.264 . S
O221 Mn216 2.095 . S
O221 C230 1.250 . S
O222 Mn217 2.121 . S
O222 C230 1.258 . S
C223 N224 1.326 . S
C223 C227 1.460 . S
C223 H229 0.929 . S
N224 Mn217 2.257 . S
N224 C223 1.326 . S
N224 C228 1.362 . S
C225 C226 1.258 . S
C225 C228 1.431 . S
C225 C245 1.449 . S
C226 C225 1.258 . S
C226 C227 1.477 . S
C226 H246 0.931 . S
C227 C223 1.460 . S
C227 C226 1.477 . S
C227 H247 0.930 . S
C228 N224 1.362 . S
C228 C225 1.431 . S
C228 C238 1.476 . S
H229 C223 0.929 . S
C230 O221 1.250 . S
C230 O222 1.258 . S
O231 Mn216 2.162 1_455 S
O231 C219 1.281 . S
O232 Mn216 2.297 1_455 S
O232 C219 1.236 . S
N233 Mn217 2.282 . S
N233 C234 1.328 . S
N233 C238 1.318 . S
C234 N233 1.328 . S
C234 C235 1.457 . S
C234 H239 0.929 . S
C235 C234 1.457 . S
C235 C236 1.291 . S
C235 H248 0.931 . S
C236 C235 1.291 . S
C236 C237 1.373 . S
C236 H249 0.929 . S
C237 C236 1.373 . S
C237 C238 1.396 . S
C237 C244 1.403 . S
C238 C228 1.476 . S
C238 N233 1.318 . S
C238 C237 1.396 . S
H239 C234 0.929 . S
O240 Mn216 2.385 1_455 S
O240 C218 1.234 . S
O241 Mn216 2.209 . S
O241 Mn217 2.215 . S
O241 C218 1.283 1_655 S
O242 Mn216 2.094 . S
O242 C220 1.240 . S
O243 Mn217 2.117 . S
O243 C220 1.264 . S
C244 C237 1.403 . S
C244 C245 1.399 . S
C244 H250 0.929 . S
C245 C225 1.449 . S
C245 C244 1.399 . S
C245 H251 0.930 . S
H246 C226 0.931 . S
H247 C227 0.930 . S
H248 C235 0.931 . S
H249 C236 0.929 . S
H250 C244 0.929 . S
H251 C245 0.930 . S
Mn252 O257 2.095 1_565 S
Mn252 O267 2.162 . S
Mn252 O268 2.297 . S
Mn252 O276 2.385 . S
Mn252 O277 2.209 1_565 S
Mn252 O278 2.094 1_565 S
Mn253 O258 2.121 . S
Mn253 N260 2.257 . S
Mn253 N269 2.282 . S
Mn253 O277 2.215 . S
Mn253 O279 2.117 . S
C254 O276 1.234 . S
C254 O277 1.283 1_565 S
C255 O267 1.281 . S
C255 O268 1.236 . S
C256 O278 1.240 . S
C256 O279 1.264 . S
O257 Mn252 2.095 1_545 S
O257 C266 1.250 . S
O258 Mn253 2.121 . S
O258 C266 1.258 . S
C259 N260 1.326 . S
C259 C263 1.460 . S
C259 H265 0.929 . S
N260 Mn253 2.257 . S
N260 C259 1.326 . S
N260 C264 1.362 . S
C261 C262 1.258 . S
C261 C264 1.431 . S
C261 C281 1.449 . S
C262 C261 1.258 . S
C262 C263 1.477 . S
C262 H282 0.931 . S
C263 C259 1.460 . S
C263 C262 1.477 . S
C263 H283 0.930 . S
C264 N260 1.362 . S
C264 C261 1.431 . S
C264 C274 1.476 . S
H265 C259 0.929 . S
C266 O257 1.250 . S
C266 O258 1.258 . S
O267 Mn252 2.162 . S
O267 C255 1.281 . S
O268 Mn252 2.297 . S
O268 C255 1.236 . S
N269 Mn253 2.282 . S
N269 C270 1.328 . S
N269 C274 1.318 . S
C270 N269 1.328 . S
C270 C271 1.457 . S
C270 H275 0.929 . S
C271 C270 1.457 . S
C271 C272 1.291 . S
C271 H284 0.931 . S
C272 C271 1.291 . S
C272 C273 1.373 . S
C272 H285 0.929 . S
C273 C272 1.373 . S
C273 C274 1.396 . S
C273 C280 1.403 . S
C274 C264 1.476 . S
C274 N269 1.318 . S
C274 C273 1.396 . S
H275 C270 0.929 . S
O276 Mn252 2.385 . S
O276 C254 1.234 . S
O277 Mn252 2.209 1_545 S
O277 Mn253 2.215 . S
O277 C254 1.283 1_545 S
O278 Mn252 2.094 1_545 S
O278 C256 1.240 . S
O279 Mn253 2.117 . S
O279 C256 1.264 . S
C280 C273 1.403 . S
C280 C281 1.399 . S
C280 H286 0.929 . S
C281 C261 1.449 . S
C281 C280 1.399 . S
C281 H287 0.930 . S
H282 C262 0.931 . S
H283 C263 0.930 . S
H284 C271 0.931 . S
H285 C272 0.929 . S
H286 C280 0.929 . S
H287 C281 0.930 . S
Mn288 O293 2.095 . S
Mn288 O303 2.162 . S
Mn288 O304 2.297 . S
Mn288 O312 2.385 . S
Mn288 O313 2.209 . S
Mn288 O314 2.094 . S
Mn289 O294 2.121 . S
Mn289 N296 2.257 . S
Mn289 N305 2.282 . S
Mn289 O313 2.215 . S
Mn289 O315 2.117 . S
C290 O312 1.234 . S
C290 O313 1.283 . S
C291 O303 1.281 . S
C291 O304 1.236 . S
C292 O314 1.240 . S
C292 O315 1.264 . S
O293 Mn288 2.095 . S
O293 C302 1.250 . S
O294 Mn289 2.121 . S
O294 C302 1.258 . S
C295 N296 1.326 . S
C295 C299 1.460 1_455 S
C295 H301 0.929 . S
N296 Mn289 2.257 . S
N296 C295 1.326 . S
N296 C300 1.362 . S
C297 C298 1.258 . S
C297 C300 1.431 1_655 S
C297 C317 1.449 . S
C298 C297 1.258 . S
C298 C299 1.477 . S
C298 H318 0.931 . S
C299 C295 1.460 1_655 S
C299 C298 1.477 . S
C299 H319 0.930 . S
C300 N296 1.362 . S
C300 C297 1.431 1_455 S
C300 C310 1.476 . S
H301 C295 0.929 . S
C302 O293 1.250 . S
C302 O294 1.258 . S
O303 Mn288 2.162 . S
O303 C291 1.281 . S
O304 Mn288 2.297 . S
O304 C291 1.236 . S
N305 Mn289 2.282 . S
N305 C306 1.328 . S
N305 C310 1.318 . S
C306 N305 1.328 . S
C306 C307 1.457 . S
C306 H311 0.929 . S
C307 C306 1.457 . S
C307 C308 1.291 . S
C307 H320 0.931 . S
C308 C307 1.291 . S
C308 C309 1.373 . S
C308 H321 0.929 . S
C309 C308 1.373 . S
C309 C310 1.396 . S
C309 C316 1.403 . S
C310 C300 1.476 . S
C310 N305 1.318 . S
C310 C309 1.396 . S
H311 C306 0.929 . S
O312 Mn288 2.385 . S
O312 C290 1.234 . S
O313 Mn288 2.209 . S
O313 Mn289 2.215 . S
O313 C290 1.283 . S
O314 Mn288 2.094 . S
O314 C292 1.240 . S
O315 Mn289 2.117 . S
O315 C292 1.264 . S
C316 C309 1.403 . S
C316 C317 1.399 1_455 S
C316 H322 0.929 . S
C317 C297 1.449 . S
C317 C316 1.399 1_655 S
C317 H323 0.930 . S
H318 C298 0.931 . S
H319 C299 0.930 . S
H320 C307 0.931 . S
H321 C308 0.929 . S
H322 C316 0.929 . S
H323 C317 0.930 . S
Mn324 O329 2.095 . S
Mn324 O339 2.162 . S
Mn324 O340 2.297 . S
Mn324 O348 2.385 . S
Mn324 O349 2.209 . S
Mn324 O350 2.094 . S
Mn325 O330 2.121 . S
Mn325 N332 2.257 . S
Mn325 N341 2.282 . S
Mn325 O349 2.215 . S
Mn325 O351 2.117 . S
C326 O348 1.234 . S
C326 O349 1.283 . S
C327 O339 1.281 . S
C327 O340 1.236 . S
C328 O350 1.240 . S
C328 O351 1.264 . S
O329 Mn324 2.095 . S
O329 C338 1.250 . S
O330 Mn325 2.121 . S
O330 C338 1.258 . S
C331 N332 1.326 . S
C331 C335 1.460 . S
C331 H337 0.929 . S
N332 Mn325 2.257 . S
N332 C331 1.326 . S
N332 C336 1.362 . S
C333 C334 1.258 . S
C333 C336 1.431 . S
C333 C353 1.449 . S
C334 C333 1.258 . S
C334 C335 1.477 . S
C334 H354 0.931 . S
C335 C331 1.460 . S
C335 C334 1.477 . S
C335 H355 0.930 . S
C336 N332 1.362 . S
C336 C333 1.431 . S
C336 C346 1.476 . S
H337 C331 0.929 . S
C338 O329 1.250 . S
C338 O330 1.258 . S
O339 Mn324 2.162 . S
O339 C327 1.281 . S
O340 Mn324 2.297 . S
O340 C327 1.236 . S
N341 Mn325 2.282 . S
N341 C342 1.328 . S
N341 C346 1.318 . S
C342 N341 1.328 . S
C342 C343 1.457 . S
C342 H347 0.929 . S
C343 C342 1.457 . S
C343 C344 1.291 . S
C343 H356 0.931 . S
C344 C343 1.291 . S
C344 C345 1.373 . S
C344 H357 0.929 . S
C345 C344 1.373 . S
C345 C346 1.396 . S
C345 C352 1.403 . S
C346 C336 1.476 . S
C346 N341 1.318 . S
C346 C345 1.396 . S
H347 C342 0.929 . S
O348 Mn324 2.385 . S
O348 C326 1.234 . S
O349 Mn324 2.209 . S
O349 Mn325 2.215 . S
O349 C326 1.283 . S
O350 Mn324 2.094 . S
O350 C328 1.240 . S
O351 Mn325 2.117 . S
O351 C328 1.264 . S
C352 C345 1.403 . S
C352 C353 1.399 . S
C352 H358 0.929 . S
C353 C333 1.449 . S
C353 C352 1.399 . S
C353 H359 0.930 . S
H354 C334 0.931 . S
H355 C335 0.930 . S
H356 C343 0.931 . S
H357 C344 0.929 . S
H358 C352 0.929 . S
H359 C353 0.930 . S
Mn360 O365 2.095 . S
Mn360 O375 2.162 . S
Mn360 O376 2.297 . S
Mn360 O384 2.385 . S
Mn360 O385 2.209 . S
Mn360 O386 2.094 . S
Mn361 O366 2.121 . S
Mn361 N368 2.257 . S
Mn361 N377 2.282 . S
Mn361 O385 2.215 . S
Mn361 O387 2.117 . S
C362 O384 1.234 . S
C362 O385 1.283 . S
C363 O375 1.281 . S
C363 O376 1.236 . S
C364 O386 1.240 . S
C364 O387 1.264 . S
O365 Mn360 2.095 . S
O365 C374 1.250 . S
O366 Mn361 2.121 . S
O366 C374 1.258 . S
C367 N368 1.326 . S
C367 C371 1.460 . S
C367 H373 0.929 . S
N368 Mn361 2.257 . S
N368 C367 1.326 . S
N368 C372 1.362 . S
C369 C370 1.258 . S
C369 C372 1.431 . S
C369 C389 1.449 . S
C370 C369 1.258 . S
C370 C371 1.477 . S
C370 H390 0.931 . S
C371 C367 1.460 . S
C371 C370 1.477 . S
C371 H391 0.930 . S
C372 N368 1.362 . S
C372 C369 1.431 . S
C372 C382 1.476 . S
H373 C367 0.929 . S
C374 O365 1.250 . S
C374 O366 1.258 . S
O375 Mn360 2.162 . S
O375 C363 1.281 . S
O376 Mn360 2.297 . S
O376 C363 1.236 . S
N377 Mn361 2.282 . S
N377 C378 1.328 . S
N377 C382 1.318 . S
C378 N377 1.328 . S
C378 C379 1.457 . S
C378 H383 0.929 . S
C379 C378 1.457 . S
C379 C380 1.291 . S
C379 H392 0.931 . S
C380 C379 1.291 . S
C380 C381 1.373 . S
C380 H393 0.929 . S
C381 C380 1.373 . S
C381 C382 1.396 . S
C381 C388 1.403 . S
C382 C372 1.476 . S
C382 N377 1.318 . S
C382 C381 1.396 . S
H383 C378 0.929 . S
O384 Mn360 2.385 . S
O384 C362 1.234 . S
O385 Mn360 2.209 . S
O385 Mn361 2.215 . S
O385 C362 1.283 . S
O386 Mn360 2.094 . S
O386 C364 1.240 . S
O387 Mn361 2.117 . S
O387 C364 1.264 . S
C388 C381 1.403 . S
C388 C389 1.399 . S
C388 H394 0.929 . S
C389 C369 1.449 . S
C389 C388 1.399 . S
C389 H395 0.930 . S
H390 C370 0.931 . S
H391 C371 0.930 . S
H392 C379 0.931 . S
H393 C380 0.929 . S
H394 C388 0.929 . S
H395 C389 0.930 . S
Mn396 O401 2.095 . S
Mn396 O411 2.162 . S
Mn396 O412 2.282 1_545 S
Mn396 O420 2.385 . S
Mn396 O421 2.209 1_545 S
Mn396 O422 2.094 . S
Mn397 O402 2.121 . S
Mn397 N404 2.257 . S
Mn397 N413 2.282 . S
Mn397 O421 2.215 . S
Mn397 O423 2.117 1_565 S
C398 O420 1.234 1_565 S
C398 O421 1.283 . S
C399 O411 1.281 . S
C399 O412 1.209 1_545 S
C400 O422 1.240 . S
C400 O423 1.264 . S
O401 Mn396 2.095 . S
O401 C410 1.250 1_545 S
O402 Mn397 2.121 . S
O402 C410 1.258 . S
C403 N404 1.326 . S
C403 C407 1.460 . S
C403 H409 0.929 . S
N404 Mn397 2.257 . S
N404 C403 1.326 . S
N404 C408 1.362 . S
C405 C406 1.258 . S
C405 C408 1.431 . S
C405 C425 1.449 . S
C406 C405 1.258 . S
C406 C407 1.477 . S
C406 H426 0.931 . S
C407 C403 1.460 . S
C407 C406 1.477 . S
C407 H427 0.930 . S
C408 N404 1.362 . S
C408 C405 1.431 . S
C408 C418 1.476 . S
H409 C403 0.929 . S
C410 O401 1.250 1_565 S
C410 O402 1.258 . S
O411 Mn396 2.162 . S
O411 C399 1.281 . S
O412 Mn396 2.282 1_565 S
O412 C399 1.209 1_565 S
N413 Mn397 2.282 . S
N413 C414 1.328 . S
N413 C418 1.318 . S
C414 N413 1.328 . S
C414 C415 1.457 . S
C414 H419 0.929 1_565 S
C415 C414 1.457 . S
C415 C416 1.291 . S
C415 H428 0.931 . S
C416 C415 1.291 . S
C416 C417 1.373 . S
C416 H429 0.929 . S
C417 C416 1.373 . S
C417 C418 1.396 . S
C417 C424 1.403 . S
C418 C408 1.476 . S
C418 N413 1.318 . S
C418 C417 1.396 . S
H419 C414 0.929 1_545 S
O420 Mn396 2.385 . S
O420 C398 1.234 1_545 S
O421 Mn396 2.209 1_565 S
O421 Mn397 2.215 . S
O421 C398 1.283 . S
O422 Mn396 2.094 . S
O422 C400 1.240 . S
O423 Mn397 2.117 1_545 S
O423 C400 1.264 . S
C424 C417 1.403 . S
C424 C425 1.399 . S
C424 H430 0.929 . S
C425 C405 1.449 . S
C425 C424 1.399 . S
C425 H431 0.930 . S
H426 C406 0.931 . S
H427 C407 0.930 . S
H428 C415 0.931 . S
H429 C416 0.929 . S
H430 C424 0.929 . S
H431 C425 0.930 . S
Mn432 O437 2.095 . S
Mn432 O447 2.162 . S
Mn432 O448 2.297 . S
Mn432 O456 2.385 . S
Mn432 O457 2.209 . S
Mn432 O458 2.094 . S
Mn433 O438 2.121 . S
Mn433 N440 2.257 . S
Mn433 N449 2.282 . S
Mn433 O457 2.215 . S
Mn433 O459 2.117 . S
C434 O456 1.234 . S
C434 O457 1.283 . S
C435 O447 1.281 . S
C435 O448 1.236 . S
C436 O458 1.240 . S
C436 O459 1.264 . S
O437 Mn432 2.095 . S
O437 C446 1.250 . S
O438 Mn433 2.121 . S
O438 C446 1.258 . S
C439 N440 1.326 . S
C439 C443 1.460 . S
C439 H445 0.929 . S
N440 Mn433 2.257 . S
N440 C439 1.326 . S
N440 C444 1.362 . S
C441 C442 1.258 . S
C441 C444 1.431 1_565 S
C441 C461 1.449 . S
C442 C441 1.258 . S
C442 C443 1.477 1_565 S
C442 H462 0.931 . S
C443 C439 1.460 . S
C443 C442 1.477 1_545 S
C443 H463 0.930 . S
C444 N440 1.362 . S
C444 C441 1.431 1_545 S
C444 C454 1.476 . S
H445 C439 0.929 . S
C446 O437 1.250 . S
C446 O438 1.258 . S
O447 Mn432 2.162 . S
O447 C435 1.281 . S
O448 Mn432 2.297 . S
O448 C435 1.236 . S
N449 Mn433 2.282 . S
N449 C450 1.328 . S
N449 C454 1.318 . S
C450 N449 1.328 . S
C450 C451 1.457 . S
C450 H455 0.929 . S
C451 C450 1.457 . S
C451 C452 1.291 1_545 S
C451 H464 0.931 . S
C452 C451 1.291 1_565 S
C452 C453 1.373 . S
C452 H465 0.929 . S
C453 C452 1.373 . S
C453 C454 1.396 1_565 S
C453 C460 1.403 . S
C454 C444 1.476 . S
C454 N449 1.318 . S
C454 C453 1.396 1_545 S
H455 C450 0.929 . S
O456 Mn432 2.385 . S
O456 C434 1.234 . S
O457 Mn432 2.209 . S
O457 Mn433 2.215 . S
O457 C434 1.283 . S
O458 Mn432 2.094 . S
O458 C436 1.240 . S
O459 Mn433 2.117 . S
O459 C436 1.264 . S
C460 C453 1.403 . S
C460 C461 1.399 . S
C460 H466 0.929 . S
C461 C441 1.449 . S
C461 C460 1.399 . S
C461 H467 0.930 . S
H462 C442 0.931 . S
H463 C443 0.930 . S
H464 C451 0.931 . S
H465 C452 0.929 . S
H466 C460 0.929 . S
H467 C461 0.930 . S
Mn468 O473 2.095 . S
Mn468 O483 2.162 . S
Mn468 O484 2.297 . S
Mn468 O492 2.385 1_655 S
Mn468 O493 2.209 1_655 S
Mn468 O494 2.094 1_655 S
Mn469 O474 2.121 . S
Mn469 N476 2.257 . S
Mn469 N485 2.282 . S
Mn469 O493 2.215 . S
Mn469 O495 2.117 . S
C470 O492 1.234 . S
C470 O493 1.283 . S
C471 O483 1.281 . S
C471 O484 1.236 . S
C472 O494 1.240 . S
C472 O495 1.264 . S
O473 Mn468 2.095 . S
O473 C482 1.250 . S
O474 Mn469 2.121 . S
O474 C482 1.258 1_455 S
C475 N476 1.326 . S
C475 C479 1.460 . S
C475 H481 0.929 . S
N476 Mn469 2.257 . S
N476 C475 1.326 . S
N476 C480 1.362 . S
C477 C478 1.258 . S
C477 C480 1.431 . S
C477 C497 1.449 . S
C478 C477 1.258 . S
C478 C479 1.477 . S
C478 H498 0.931 . S
C479 C475 1.460 . S
C479 C478 1.477 . S
C479 H499 0.930 . S
C480 N476 1.362 . S
C480 C477 1.431 . S
C480 C490 1.476 . S
H481 C475 0.929 . S
C482 O473 1.250 . S
C482 O474 1.258 1_655 S
O483 Mn468 2.162 . S
O483 C471 1.281 . S
O484 Mn468 2.297 . S
O484 C471 1.236 . S
N485 Mn469 2.282 . S
N485 C486 1.328 . S
N485 C490 1.318 . S
C486 N485 1.328 . S
C486 C487 1.457 . S
C486 H491 0.929 . S
C487 C486 1.457 . S
C487 C488 1.291 . S
C487 H500 0.931 . S
C488 C487 1.291 . S
C488 C489 1.373 . S
C488 H501 0.929 . S
C489 C488 1.373 . S
C489 C490 1.396 . S
C489 C496 1.403 . S
C490 C480 1.476 . S
C490 N485 1.318 . S
C490 C489 1.396 . S
H491 C486 0.929 . S
O492 Mn468 2.385 1_455 S
O492 C470 1.234 . S
O493 Mn468 2.209 1_455 S
O493 Mn469 2.215 . S
O493 C470 1.283 . S
O494 Mn468 2.094 1_455 S
O494 C472 1.240 . S
O495 Mn469 2.117 . S
O495 C472 1.264 . S
C496 C489 1.403 . S
C496 C497 1.399 . S
C496 H502 0.929 . S
C497 C477 1.449 . S
C497 C496 1.399 . S
C497 H503 0.930 . S
H498 C478 0.931 . S
H499 C479 0.930 . S
H500 C487 0.931 . S
H501 C488 0.929 . S
H502 C496 0.929 . S
H503 C497 0.930 . S
Mn504 O509 2.095 . S
Mn504 O519 2.162 . S
Mn504 O520 2.297 . S
Mn504 O528 2.385 . S
Mn504 O529 2.209 . S
Mn504 O530 2.094 . S
Mn505 O510 2.121 . S
Mn505 N512 2.257 . S
Mn505 N521 2.282 . S
Mn505 O529 2.215 . S
Mn505 O531 2.117 . S
C506 O528 1.234 . S
C506 O529 1.283 . S
C507 O519 1.281 . S
C507 O520 1.236 . S
C508 O530 1.240 . S
C508 O531 1.264 . S
O509 Mn504 2.095 . S
O509 C518 1.250 . S
O510 Mn505 2.121 . S
O510 C518 1.258 . S
C511 N512 1.326 . S
C511 C515 1.460 . S
C511 H517 0.929 . S
N512 Mn505 2.257 . S
N512 C511 1.326 . S
N512 C516 1.362 . S
C513 C514 1.258 . S
C513 C516 1.431 . S
C513 C533 1.449 . S
C514 C513 1.258 . S
C514 C515 1.477 . S
C514 H534 0.931 . S
C515 C511 1.460 . S
C515 C514 1.477 . S
C515 H535 0.930 . S
C516 N512 1.362 . S
C516 C513 1.431 . S
C516 C526 1.476 . S
H517 C511 0.929 . S
C518 O509 1.250 . S
C518 O510 1.258 . S
O519 Mn504 2.162 . S
O519 C507 1.281 . S
O520 Mn504 2.297 . S
O520 C507 1.236 . S
N521 Mn505 2.282 . S
N521 C522 1.328 . S
N521 C526 1.318 . S
C522 N521 1.328 . S
C522 C523 1.457 . S
C522 H527 0.929 . S
C523 C522 1.457 . S
C523 C524 1.291 . S
C523 H536 0.931 . S
C524 C523 1.291 . S
C524 C525 1.373 . S
C524 H537 0.929 . S
C525 C524 1.373 . S
C525 C526 1.396 . S
C525 C532 1.403 . S
C526 C516 1.476 . S
C526 N521 1.318 . S
C526 C525 1.396 . S
H527 C522 0.929 . S
O528 Mn504 2.385 . S
O528 C506 1.234 . S
O529 Mn504 2.209 . S
O529 Mn505 2.215 . S
O529 C506 1.283 . S
O530 Mn504 2.094 . S
O530 C508 1.240 . S
O531 Mn505 2.117 . S
O531 C508 1.264 . S
C532 C525 1.403 . S
C532 C533 1.399 . S
C532 H538 0.929 . S
C533 C513 1.449 . S
C533 C532 1.399 . S
C533 H539 0.930 . S
H534 C514 0.931 . S
H535 C515 0.930 . S
H536 C523 0.931 . S
H537 C524 0.929 . S
H538 C532 0.929 . S
H539 C533 0.930 . S
Mn540 O545 2.095 . S
Mn540 O555 2.162 . S
Mn540 O556 2.297 . S
Mn540 O564 2.385 . S
Mn540 O565 2.209 . S
Mn540 O566 2.094 . S
Mn541 O546 2.121 . S
Mn541 N548 2.257 1_655 S
Mn541 N557 2.282 . S
Mn541 O565 2.215 . S
Mn541 O567 2.117 . S
C542 O564 1.234 . S
C542 O565 1.283 . S
C543 O555 1.281 . S
C543 O556 1.236 . S
C544 O566 1.240 . S
C544 O567 1.264 . S
O545 Mn540 2.095 . S
O545 C554 1.250 . S
O546 Mn541 2.121 . S
O546 C554 1.258 . S
C547 N548 1.326 . S
C547 C551 1.460 . S
C547 H553 0.929 . S
N548 Mn541 2.257 1_455 S
N548 C547 1.326 . S
N548 C552 1.362 . S
C549 C550 1.258 . S
C549 C552 1.431 . S
C549 C569 1.449 . S
C550 C549 1.258 . S
C550 C551 1.477 . S
C550 H570 0.931 . S
C551 C547 1.460 . S
C551 C550 1.477 . S
C551 H571 0.930 . S
C552 N548 1.362 . S
C552 C549 1.431 . S
C552 C562 1.476 1_455 S
H553 C547 0.929 . S
C554 O545 1.250 . S
C554 O546 1.258 . S
O555 Mn540 2.162 . S
O555 C543 1.281 . S
O556 Mn540 2.297 . S
O556 C543 1.236 . S
N557 Mn541 2.282 . S
N557 C558 1.328 . S
N557 C562 1.318 . S
C558 N557 1.328 . S
C558 C559 1.457 . S
C558 H563 0.929 . S
C559 C558 1.457 . S
C559 C560 1.291 . S
C559 H572 0.931 . S
C560 C559 1.291 . S
C560 C561 1.373 . S
C560 H573 0.929 . S
C561 C560 1.373 . S
C561 C562 1.396 . S
C561 C568 1.403 1_655 S
C562 C552 1.476 1_655 S
C562 N557 1.318 . S
C562 C561 1.396 . S
H563 C558 0.929 . S
O564 Mn540 2.385 . S
O564 C542 1.234 . S
O565 Mn540 2.209 . S
O565 Mn541 2.215 . S
O565 C542 1.283 . S
O566 Mn540 2.094 . S
O566 C544 1.240 . S
O567 Mn541 2.117 . S
O567 C544 1.264 . S
C568 C561 1.403 1_455 S
C568 C569 1.399 . S
C568 H574 0.929 . S
C569 C549 1.449 . S
C569 C568 1.399 . S
C569 H575 0.930 . S
H570 C550 0.931 . S
H571 C551 0.930 . S
H572 C559 0.931 . S
H573 C560 0.929 . S
H574 C568 0.929 . S
H575 C569 0.930 . S
Mn576 O581 2.095 1_556 S
Mn576 O591 2.162 . S
Mn576 O592 2.297 . S
Mn576 O600 2.385 1_655 S
Mn576 O601 2.209 1_656 S
Mn576 O602 2.094 1_556 S
Mn577 O582 2.121 . S
Mn577 N584 2.257 . S
Mn577 N593 2.282 . S
Mn577 O601 2.215 . S
Mn577 O603 2.117 . S
C578 O600 1.234 . S
C578 O601 1.283 1_556 S
C579 O591 1.281 . S
C579 O592 1.236 . S
C580 O602 1.240 1_455 S
C580 O603 1.264 . S
O581 Mn576 2.095 1_554 S
O581 C590 1.250 . S
O582 Mn577 2.121 . S
O582 C590 1.258 1_455 S
C583 N584 1.326 . S
C583 C587 1.460 . S
C583 H589 0.929 . S
N584 Mn577 2.257 . S
N584 C583 1.326 . S
N584 C588 1.362 . S
C585 C586 1.258 . S
C585 C588 1.431 . S
C585 C605 1.449 . S
C586 C585 1.258 . S
C586 C587 1.477 . S
C586 H606 0.931 . S
C587 C583 1.460 . S
C587 C586 1.477 . S
C587 H607 0.930 . S
C588 N584 1.362 . S
C588 C585 1.431 . S
C588 C598 1.476 . S
H589 C583 0.929 . S
C590 O581 1.250 . S
C590 O582 1.258 1_655 S
O591 Mn576 2.162 . S
O591 C579 1.281 . S
O592 Mn576 2.297 . S
O592 C579 1.236 . S
N593 Mn577 2.282 . S
N593 C594 1.328 . S
N593 C598 1.318 . S
C594 N593 1.328 . S
C594 C595 1.457 . S
C594 H599 0.929 . S
C595 C594 1.457 . S
C595 C596 1.291 . S
C595 H608 0.931 . S
C596 C595 1.291 . S
C596 C597 1.373 . S
C596 H609 0.929 . S
C597 C596 1.373 . S
C597 C598 1.396 . S
C597 C604 1.403 . S
C598 C588 1.476 . S
C598 N593 1.318 . S
C598 C597 1.396 . S
H599 C594 0.929 . S
O600 Mn576 2.385 1_455 S
O600 C578 1.234 . S
O601 Mn576 2.209 1_454 S
O601 Mn577 2.215 . S
O601 C578 1.283 1_554 S
O602 Mn576 2.094 1_554 S
O602 C580 1.240 1_655 S
O603 Mn577 2.117 . S
O603 C580 1.264 . S
C604 C597 1.403 . S
C604 C605 1.399 . S
C604 H610 0.929 . S
C605 C585 1.449 . S
C605 C604 1.399 . S
C605 H611 0.930 . S
H606 C586 0.931 . S
H607 C587 0.930 . S
H608 C595 0.931 . S
H609 C596 0.929 . S
H610 C604 0.929 . S
H611 C605 0.930 . S
Mn612 O617 2.095 . S
Mn612 O627 2.162 . S
Mn612 O628 2.297 . S
Mn612 O636 2.385 . S
Mn612 O637 2.209 . S
Mn612 O638 2.094 . S
Mn613 O618 2.121 . S
Mn613 N620 2.257 . S
Mn613 N629 2.282 . S
Mn613 O637 2.215 . S
Mn613 O639 2.117 . S
C614 O636 1.234 . S
C614 O637 1.283 . S
C615 O627 1.281 . S
C615 O628 1.236 . S
C616 O638 1.240 . S
C616 O639 1.264 . S
O617 Mn612 2.095 . S
O617 C626 1.250 . S
O618 Mn613 2.121 . S
O618 C626 1.258 . S
C619 N620 1.326 . S
C619 C623 1.460 . S
C619 H625 0.929 . S
N620 Mn613 2.257 . S
N620 C619 1.326 . S
N620 C624 1.362 . S
C621 C622 1.258 . S
C621 C624 1.431 . S
C621 C641 1.449 . S
C622 C621 1.258 . S
C622 C623 1.477 . S
C622 H642 0.931 . S
C623 C619 1.460 . S
C623 C622 1.477 . S
C623 H643 0.930 . S
C624 N620 1.362 . S
C624 C621 1.431 . S
C624 C634 1.476 . S
H625 C619 0.929 . S
C626 O617 1.250 . S
C626 O618 1.258 . S
O627 Mn612 2.162 . S
O627 C615 1.281 . S
O628 Mn612 2.297 . S
O628 C615 1.236 . S
N629 Mn613 2.282 . S
N629 C630 1.328 . S
N629 C634 1.318 . S
C630 N629 1.328 . S
C630 C631 1.457 . S
C630 H635 0.929 . S
C631 C630 1.457 . S
C631 C632 1.291 . S
C631 H644 0.931 . S
C632 C631 1.291 . S
C632 C633 1.373 . S
C632 H645 0.929 . S
C633 C632 1.373 . S
C633 C634 1.396 . S
C633 C640 1.403 . S
C634 C624 1.476 . S
C634 N629 1.318 . S
C634 C633 1.396 . S
H635 C630 0.929 . S
O636 Mn612 2.385 . S
O636 C614 1.234 . S
O637 Mn612 2.209 . S
O637 Mn613 2.215 . S
O637 C614 1.283 . S
O638 Mn612 2.094 . S
O638 C616 1.240 . S
O639 Mn613 2.117 . S
O639 C616 1.264 . S
C640 C633 1.403 . S
C640 C641 1.399 . S
C640 H646 0.929 . S
C641 C621 1.449 . S
C641 C640 1.399 . S
C641 H647 0.930 . S
H642 C622 0.931 . S
H643 C623 0.930 . S
H644 C631 0.931 . S
H645 C632 0.929 . S
H646 C640 0.929 . S
H647 C641 0.930 . S
Mn648 O653 2.095 . S
Mn648 O663 2.162 . S
Mn648 O664 2.297 . S
Mn648 O672 2.385 . S
Mn648 O673 2.209 . S
Mn648 O674 2.094 . S
Mn649 O654 2.121 . S
Mn649 N656 2.257 . S
Mn649 N665 2.282 . S
Mn649 O673 2.215 . S
Mn649 O675 2.117 . S
C650 O672 1.234 . S
C650 O673 1.283 . S
C651 O663 1.281 . S
C651 O664 1.236 . S
C652 O674 1.240 . S
C652 O675 1.264 . S
O653 Mn648 2.095 . S
O653 C662 1.250 . S
O654 Mn649 2.121 . S
O654 C662 1.258 . S
C655 N656 1.326 . S
C655 C659 1.460 . S
C655 H661 0.929 . S
N656 Mn649 2.257 . S
N656 C655 1.326 . S
N656 C660 1.362 . S
C657 C658 1.258 . S
C657 C660 1.431 . S
C657 C677 1.449 . S
C658 C657 1.258 . S
C658 C659 1.477 . S
C658 H678 0.931 . S
C659 C655 1.460 . S
C659 C658 1.477 . S
C659 H679 0.930 . S
C660 N656 1.362 . S
C660 C657 1.431 . S
C660 C670 1.476 . S
H661 C655 0.929 . S
C662 O653 1.250 . S
C662 O654 1.258 . S
O663 Mn648 2.162 . S
O663 C651 1.281 . S
O664 Mn648 2.297 . S
O664 C651 1.236 . S
N665 Mn649 2.282 . S
N665 C666 1.328 . S
N665 C670 1.318 . S
C666 N665 1.328 . S
C666 C667 1.457 . S
C666 H671 0.929 . S
C667 C666 1.457 . S
C667 C668 1.291 . S
C667 H680 0.931 . S
C668 C667 1.291 . S
C668 C669 1.373 . S
C668 H681 0.929 . S
C669 C668 1.373 . S
C669 C670 1.396 . S
C669 C676 1.403 . S
C670 C660 1.476 . S
C670 N665 1.318 . S
C670 C669 1.396 . S
H671 C666 0.929 . S
O672 Mn648 2.385 . S
O672 C650 1.234 . S
O673 Mn648 2.209 . S
O673 Mn649 2.215 . S
O673 C650 1.283 . S
O674 Mn648 2.094 . S
O674 C652 1.240 . S
O675 Mn649 2.117 . S
O675 C652 1.264 . S
C676 C669 1.403 . S
C676 C677 1.399 . S
C676 H682 0.929 . S
C677 C657 1.449 . S
C677 C676 1.399 . S
C677 H683 0.930 . S
H678 C658 0.931 . S
H679 C659 0.930 . S
H680 C667 0.931 . S
H681 C668 0.929 . S
H682 C676 0.929 . S
H683 C677 0.930 . S
Mn684 O689 2.095 . S
Mn684 O699 2.162 . S
Mn684 O700 2.297 . S
Mn684 O708 2.385 . S
Mn684 O709 2.209 . S
Mn684 O710 2.094 . S
Mn685 O690 2.121 . S
Mn685 N692 2.257 . S
Mn685 N701 2.282 . S
Mn685 O709 2.215 . S
Mn685 O711 2.117 . S
C686 O708 1.234 . S
C686 O709 1.283 . S
C687 O699 1.281 . S
C687 O700 1.236 . S
C688 O710 1.240 . S
C688 O711 1.264 . S
O689 Mn684 2.095 . S
O689 C698 1.250 . S
O690 Mn685 2.121 . S
O690 C698 1.258 . S
C691 N692 1.326 . S
C691 C695 1.460 . S
C691 H697 0.929 . S
N692 Mn685 2.257 . S
N692 C691 1.326 . S
N692 C696 1.362 . S
C693 C694 1.258 . S
C693 C696 1.431 . S
C693 C713 1.449 . S
C694 C693 1.258 . S
C694 C695 1.477 . S
C694 H714 0.931 . S
C695 C691 1.460 . S
C695 C694 1.477 . S
C695 H715 0.930 . S
C696 N692 1.362 . S
C696 C693 1.431 . S
C696 C706 1.476 . S
H697 C691 0.929 . S
C698 O689 1.250 . S
C698 O690 1.258 . S
O699 Mn684 2.162 . S
O699 C687 1.281 . S
O700 Mn684 2.297 . S
O700 C687 1.236 . S
N701 Mn685 2.282 . S
N701 C702 1.328 . S
N701 C706 1.318 . S
C702 N701 1.328 . S
C702 C703 1.457 . S
C702 H707 0.929 . S
C703 C702 1.457 . S
C703 C704 1.291 . S
C703 H716 0.931 . S
C704 C703 1.291 . S
C704 C705 1.373 . S
C704 H717 0.929 . S
C705 C704 1.373 . S
C705 C706 1.396 . S
C705 C712 1.403 . S
C706 C696 1.476 . S
C706 N701 1.318 . S
C706 C705 1.396 . S
H707 C702 0.929 . S
O708 Mn684 2.385 . S
O708 C686 1.234 . S
O709 Mn684 2.209 . S
O709 Mn685 2.215 . S
O709 C686 1.283 . S
O710 Mn684 2.094 . S
O710 C688 1.240 . S
O711 Mn685 2.117 . S
O711 C688 1.264 . S
C712 C705 1.403 . S
C712 C713 1.399 . S
C712 H718 0.929 . S
C713 C693 1.449 . S
C713 C712 1.399 . S
C713 H719 0.930 . S
H714 C694 0.931 . S
H715 C695 0.930 . S
H716 C703 0.931 . S
H717 C704 0.929 . S
H718 C712 0.929 . S
H719 C713 0.930 . S
Mn720 O725 2.095 1_445 S
Mn720 O735 2.162 . S
Mn720 O736 2.297 1_545 S
Mn720 O744 2.385 . S
Mn720 O745 2.209 1_545 S
Mn720 O746 2.094 . S
Mn721 O726 2.121 1_545 S
Mn721 N728 2.257 1_545 S
Mn721 N737 2.282 . S
Mn721 O745 2.215 1_645 S
Mn721 O747 2.117 . S
C722 O744 1.234 1_565 S
C722 O745 1.283 . S
C723 O735 1.281 1_565 S
C723 O736 1.236 . S
C724 O746 1.240 1_655 S
C724 O747 1.264 . S
O725 Mn720 2.095 1_665 S
O725 C734 1.250 . S
O726 Mn721 2.121 1_565 S
O726 C734 1.258 . S
C727 N728 1.326 . S
C727 C731 1.460 . S
C727 H733 0.929 . S
N728 Mn721 2.257 1_565 S
N728 C727 1.326 . S
N728 C732 1.362 . S
C729 C730 1.258 . S
C729 C732 1.431 . S
C729 C749 1.449 . S
C730 C729 1.258 . S
C730 C731 1.477 . S
C730 H750 0.931 . S
C731 C727 1.460 . S
C731 C730 1.477 . S
C731 H751 0.930 . S
C732 N728 1.362 . S
C732 C729 1.431 . S
C732 C742 1.476 1_565 S
H733 C727 0.929 . S
C734 O725 1.250 . S
C734 O726 1.258 . S
O735 Mn720 2.162 . S
O735 C723 1.281 1_545 S
O736 Mn720 2.297 1_565 S
O736 C723 1.236 . S
N737 Mn721 2.282 . S
N737 C738 1.328 . S
N737 C742 1.318 . S
C738 N737 1.328 . S
C738 C739 1.457 1_655 S
C738 H743 0.929 1_655 S
C739 C738 1.457 1_455 S
C739 C740 1.291 1_455 S
C739 H752 0.931 . S
C740 C739 1.291 1_655 S
C740 C741 1.373 . S
C740 H753 0.929 1_655 S
C741 C740 1.373 . S
C741 C742 1.396 . S
C741 C748 1.403 1_545 S
C742 C732 1.476 1_545 S
C742 N737 1.318 . S
C742 C741 1.396 . S
H743 C738 0.929 1_455 S
O744 Mn720 2.385 . S
O744 C722 1.234 1_545 S
O745 Mn720 2.209 1_565 S
O745 Mn721 2.215 1_465 S
O745 C722 1.283 . S
O746 Mn720 2.094 . S
O746 C724 1.240 1_455 S
O747 Mn721 2.117 . S
O747 C724 1.264 . S
C748 C741 1.403 1_565 S
C748 C749 1.399 . S
C748 H754 0.929 . S
C749 C729 1.449 . S
C749 C748 1.399 . S
C749 H755 0.930 . S
H750 C730 0.931 . S
H751 C731 0.930 . S
H752 C739 0.931 . S
H753 C740 0.929 1_455 S
H754 C748 0.929 . S
H755 C749 0.930 . S
Mn756 O761 2.095 . S
Mn756 O771 2.162 . S
Mn756 O772 2.297 . S
Mn756 O780 2.385 . S
Mn756 O781 2.209 1_556 S
Mn756 O782 2.094 . S
Mn757 O762 2.121 . S
Mn757 N764 2.257 . S
Mn757 N773 2.282 . S
Mn757 O781 2.215 . S
Mn757 O783 2.117 1_554 S
C758 O780 1.234 . S
C758 O781 1.283 1_556 S
C759 O771 1.281 . S
C759 O772 1.236 . S
C760 O782 1.240 . S
C760 O783 1.264 . S
O761 Mn756 2.095 . S
O761 C770 1.250 1_556 S
O762 Mn757 2.121 . S
O762 C770 1.258 . S
C763 N764 1.326 . S
C763 C767 1.460 . S
C763 H769 0.929 . S
N764 Mn757 2.257 . S
N764 C763 1.326 . S
N764 C768 1.362 . S
C765 C766 1.258 . S
C765 C768 1.431 . S
C765 C785 1.449 . S
C766 C765 1.258 . S
C766 C767 1.477 . S
C766 H786 0.931 . S
C767 C763 1.460 . S
C767 C766 1.477 . S
C767 H787 0.930 . S
C768 N764 1.362 . S
C768 C765 1.431 . S
C768 C778 1.476 . S
H769 C763 0.929 . S
C770 O761 1.250 1_554 S
C770 O762 1.258 . S
O771 Mn756 2.162 . S
O771 C759 1.281 . S
O772 Mn756 2.297 . S
O772 C759 1.236 . S
N773 Mn757 2.282 . S
N773 C774 1.328 1_554 S
N773 C778 1.318 . S
C774 N773 1.328 1_556 S
C774 C775 1.457 . S
C774 H779 0.929 . S
C775 C774 1.457 . S
C775 C776 1.291 1_556 S
C775 H788 0.931 . S
C776 C775 1.291 1_554 S
C776 C777 1.373 . S
C776 H789 0.929 . S
C777 C776 1.373 . S
C777 C778 1.396 . S
C777 C784 1.403 . S
C778 C768 1.476 . S
C778 N773 1.318 . S
C778 C777 1.396 . S
H779 C774 0.929 . S
O780 Mn756 2.385 . S
O780 C758 1.234 . S
O781 Mn756 2.209 1_554 S
O781 Mn757 2.215 . S
O781 C758 1.283 1_554 S
O782 Mn756 2.094 . S
O782 C760 1.240 . S
O783 Mn757 2.117 1_556 S
O783 C760 1.264 . S
C784 C777 1.403 . S
C784 C785 1.399 . S
C784 H790 0.929 . S
C785 C765 1.449 . S
C785 C784 1.399 . S
C785 H791 0.930 . S
H786 C766 0.931 . S
H787 C767 0.930 . S
H788 C775 0.931 . S
H789 C776 0.929 . S
H790 C784 0.929 . S
H791 C785 0.930 . S
Mn792 O797 2.095 . S
Mn792 O807 2.162 . S
Mn792 O808 2.297 . S
Mn792 O816 2.385 . S
Mn792 O817 2.209 . S
Mn792 O818 2.094 . S
Mn793 O798 2.121 . S
Mn793 N800 2.257 . S
Mn793 N809 2.282 . S
Mn793 O817 2.215 . S
Mn793 O819 2.117 . S
C794 O816 1.234 . S
C794 O817 1.283 . S
C795 O807 1.281 . S
C795 O808 1.236 . S
C796 O818 1.240 . S
C796 O819 1.264 . S
O797 Mn792 2.095 . S
O797 C806 1.250 . S
O798 Mn793 2.121 . S
O798 C806 1.258 . S
C799 N800 1.326 1_556 S
C799 C803 1.460 . S
C799 H805 0.929 . S
N800 Mn793 2.257 . S
N800 C799 1.326 1_554 S
N800 C804 1.362 1_554 S
C801 C802 1.258 . S
C801 C804 1.431 . S
C801 C821 1.449 . S
C802 C801 1.258 . S
C802 C803 1.477 . S
C802 H822 0.931 . S
C803 C799 1.460 . S
C803 C802 1.477 . S
C803 H823 0.930 . S
C804 N800 1.362 1_556 S
C804 C801 1.431 . S
C804 C814 1.476 1_556 S
H805 C799 0.929 . S
C806 O797 1.250 . S
C806 O798 1.258 . S
O807 Mn792 2.162 . S
O807 C795 1.281 . S
O808 Mn792 2.297 . S
O808 C795 1.236 . S
N809 Mn793 2.282 . S
N809 C810 1.328 . S
N809 C814 1.318 . S
C810 N809 1.328 . S
C810 C811 1.457 . S
C810 H815 0.929 . S
C811 C810 1.457 . S
C811 C812 1.291 . S
C811 H824 0.931 . S
C812 C811 1.291 . S
C812 C813 1.373 . S
C812 H825 0.929 . S
C813 C812 1.373 . S
C813 C814 1.396 . S
C813 C820 1.403 1_554 S
C814 C804 1.476 1_554 S
C814 N809 1.318 . S
C814 C813 1.396 . S
H815 C810 0.929 . S
O816 Mn792 2.385 . S
O816 C794 1.234 . S
O817 Mn792 2.209 . S
O817 Mn793 2.215 . S
O817 C794 1.283 . S
O818 Mn792 2.094 . S
O818 C796 1.240 . S
O819 Mn793 2.117 . S
O819 C796 1.264 . S
C820 C813 1.403 1_556 S
C820 C821 1.399 . S
C820 H826 0.929 . S
C821 C801 1.449 . S
C821 C820 1.399 . S
C821 H827 0.930 . S
H822 C802 0.931 . S
H823 C803 0.930 . S
H824 C811 0.931 . S
H825 C812 0.929 . S
H826 C820 0.929 . S
H827 C821 0.930 . S
Mn828 O833 2.095 . S
Mn828 O843 2.162 . S
Mn828 O844 2.297 . S
Mn828 O852 2.385 . S
Mn828 O853 2.209 . S
Mn828 O854 2.094 . S
Mn829 O834 2.121 . S
Mn829 N836 2.257 . S
Mn829 N845 2.282 . S
Mn829 O853 2.215 . S
Mn829 O855 2.117 . S
C830 O852 1.234 . S
C830 O853 1.283 . S
C831 O843 1.281 . S
C831 O844 1.236 . S
C832 O854 1.240 . S
C832 O855 1.264 . S
O833 Mn828 2.095 . S
O833 C842 1.250 . S
O834 Mn829 2.121 . S
O834 C842 1.258 . S
C835 N836 1.326 . S
C835 C839 1.460 . S
C835 H841 0.929 . S
N836 Mn829 2.257 . S
N836 C835 1.326 . S
N836 C840 1.362 . S
C837 C838 1.258 . S
C837 C840 1.431 . S
C837 C857 1.449 . S
C838 C837 1.258 . S
C838 C839 1.477 . S
C838 H858 0.931 . S
C839 C835 1.460 . S
C839 C838 1.477 . S
C839 H859 0.930 . S
C840 N836 1.362 . S
C840 C837 1.431 . S
C840 C850 1.476 . S
H841 C835 0.929 . S
C842 O833 1.250 . S
C842 O834 1.258 . S
O843 Mn828 2.162 . S
O843 C831 1.281 . S
O844 Mn828 2.297 . S
O844 C831 1.236 . S
N845 Mn829 2.282 . S
N845 C846 1.328 . S
N845 C850 1.318 . S
C846 N845 1.328 . S
C846 C847 1.457 . S
C846 H851 0.929 . S
C847 C846 1.457 . S
C847 C848 1.291 . S
C847 H860 0.931 . S
C848 C847 1.291 . S
C848 C849 1.373 . S
C848 H861 0.929 . S
C849 C848 1.373 . S
C849 C850 1.396 . S
C849 C856 1.403 . S
C850 C840 1.476 . S
C850 N845 1.318 . S
C850 C849 1.396 . S
H851 C846 0.929 . S
O852 Mn828 2.385 . S
O852 C830 1.234 . S
O853 Mn828 2.209 . S
O853 Mn829 2.215 . S
O853 C830 1.283 . S
O854 Mn828 2.094 . S
O854 C832 1.240 . S
O855 Mn829 2.117 . S
O855 C832 1.264 . S
C856 C849 1.403 . S
C856 C857 1.399 . S
C856 H862 0.929 . S
C857 C837 1.449 . S
C857 C856 1.399 . S
C857 H863 0.930 . S
H858 C838 0.931 . S
H859 C839 0.930 . S
H860 C847 0.931 . S
H861 C848 0.929 . S
H862 C856 0.929 . S
H863 C857 0.930 . S
Mn864 O869 2.095 . S
Mn864 O879 2.162 . S
Mn864 O880 2.297 . S
Mn864 O888 2.385 1_545 S
Mn864 O889 2.209 1_545 S
Mn864 O890 2.094 1_545 S
Mn865 O870 2.121 . S
Mn865 N872 2.257 . S
Mn865 N881 2.282 . S
Mn865 O889 2.215 . S
Mn865 O891 2.117 . S
C866 O888 1.234 . S
C866 O889 1.283 . S
C867 O879 1.281 . S
C867 O880 1.236 . S
C868 O890 1.240 . S
C868 O891 1.264 . S
O869 Mn864 2.095 . S
O869 C878 1.250 . S
O870 Mn865 2.121 . S
O870 C878 1.258 1_565 S
C871 N872 1.326 . S
C871 C875 1.460 . S
C871 H877 0.929 . S
N872 Mn865 2.257 . S
N872 C871 1.326 . S
N872 C876 1.362 . S
C873 C874 1.258 . S
C873 C876 1.431 . S
C873 C893 1.449 . S
C874 C873 1.258 . S
C874 C875 1.477 . S
C874 H894 0.931 . S
C875 C871 1.460 . S
C875 C874 1.477 . S
C875 H895 0.930 . S
C876 N872 1.362 . S
C876 C873 1.431 . S
C876 C886 1.476 . S
H877 C871 0.929 . S
C878 O869 1.250 . S
C878 O870 1.258 1_545 S
O879 Mn864 2.162 . S
O879 C867 1.281 . S
O880 Mn864 2.297 . S
O880 C867 1.236 . S
N881 Mn865 2.282 . S
N881 C882 1.328 . S
N881 C886 1.318 . S
C882 N881 1.328 . S
C882 C883 1.457 . S
C882 H887 0.929 . S
C883 C882 1.457 . S
C883 C884 1.291 . S
C883 H896 0.931 . S
C884 C883 1.291 . S
C884 C885 1.373 . S
C884 H897 0.929 . S
C885 C884 1.373 . S
C885 C886 1.396 . S
C885 C892 1.403 . S
C886 C876 1.476 . S
C886 N881 1.318 . S
C886 C885 1.396 . S
H887 C882 0.929 . S
O888 Mn864 2.385 1_565 S
O888 C866 1.234 . S
O889 Mn864 2.209 1_565 S
O889 Mn865 2.215 . S
O889 C866 1.283 . S
O890 Mn864 2.094 1_565 S
O890 C868 1.240 . S
O891 Mn865 2.117 . S
O891 C868 1.264 . S
C892 C885 1.403 . S
C892 C893 1.399 . S
C892 H898 0.929 . S
C893 C873 1.449 . S
C893 C892 1.399 . S
C893 H899 0.930 . S
H894 C874 0.931 . S
H895 C875 0.930 . S
H896 C883 0.931 . S
H897 C884 0.929 . S
H898 C892 0.929 . S
H899 C893 0.930 . S
Mn900 O905 2.095 1_545 S
Mn900 O915 2.162 . S
Mn900 O916 2.297 . S
Mn900 O924 2.385 . S
Mn900 O925 2.209 1_545 S
Mn900 O926 2.094 1_545 S
Mn901 O906 2.121 . S
Mn901 N908 2.257 . S
Mn901 N917 2.282 . S
Mn901 O925 2.215 . S
Mn901 O927 2.117 . S
C902 O924 1.234 . S
C902 O925 1.283 1_545 S
C903 O915 1.281 . S
C903 O916 1.236 . S
C904 O926 1.240 . S
C904 O927 1.264 . S
O905 Mn900 2.095 1_565 S
O905 C914 1.250 . S
O906 Mn901 2.121 . S
O906 C914 1.258 . S
C907 N908 1.326 . S
C907 C911 1.460 . S
C907 H913 0.929 . S
N908 Mn901 2.257 . S
N908 C907 1.326 . S
N908 C912 1.362 . S
C909 C910 1.258 . S
C909 C912 1.431 . S
C909 C929 1.449 . S
C910 C909 1.258 . S
C910 C911 1.477 . S
C910 H930 0.931 . S
C911 C907 1.460 . S
C911 C910 1.477 . S
C911 H931 0.930 . S
C912 N908 1.362 . S
C912 C909 1.431 . S
C912 C922 1.476 . S
H913 C907 0.929 . S
C914 O905 1.250 . S
C914 O906 1.258 . S
O915 Mn900 2.162 . S
O915 C903 1.281 . S
O916 Mn900 2.297 . S
O916 C903 1.236 . S
N917 Mn901 2.282 . S
N917 C918 1.328 . S
N917 C922 1.318 . S
C918 N917 1.328 . S
C918 C919 1.457 . S
C918 H923 0.929 . S
C919 C918 1.457 . S
C919 C920 1.291 . S
C919 H932 0.931 . S
C920 C919 1.291 . S
C920 C921 1.373 . S
C920 H933 0.929 . S
C921 C920 1.373 . S
C921 C922 1.396 . S
C921 C928 1.403 . S
C922 C912 1.476 . S
C922 N917 1.318 . S
C922 C921 1.396 . S
H923 C918 0.929 . S
O924 Mn900 2.385 . S
O924 C902 1.234 . S
O925 Mn900 2.209 1_565 S
O925 Mn901 2.215 . S
O925 C902 1.283 1_565 S
O926 Mn900 2.094 1_565 S
O926 C904 1.240 . S
O927 Mn901 2.117 . S
O927 C904 1.264 . S
C928 C921 1.403 . S
C928 C929 1.399 . S
C928 H934 0.929 . S
C929 C909 1.449 . S
C929 C928 1.399 . S
C929 H935 0.930 . S
H930 C910 0.931 . S
H931 C911 0.930 . S
H932 C919 0.931 . S
H933 C920 0.929 . S
H934 C928 0.929 . S
H935 C929 0.930 . S
Mn936 O941 2.095 . S
Mn936 O951 2.162 . S
Mn936 O952 2.297 . S
Mn936 O960 2.385 . S
Mn936 O961 2.209 . S
Mn936 O962 2.094 . S
Mn937 O942 2.121 . S
Mn937 N944 2.257 . S
Mn937 N953 2.282 . S
Mn937 O961 2.215 . S
Mn937 O963 2.117 . S
C938 O960 1.234 . S
C938 O961 1.283 . S
C939 O951 1.281 . S
C939 O952 1.236 . S
C940 O962 1.240 . S
C940 O963 1.264 . S
O941 Mn936 2.095 . S
O941 C950 1.250 . S
O942 Mn937 2.121 . S
O942 C950 1.258 . S
C943 N944 1.326 . S
C943 C947 1.460 . S
C943 H949 0.929 . S
N944 Mn937 2.257 . S
N944 C943 1.326 . S
N944 C948 1.362 . S
C945 C946 1.258 . S
C945 C948 1.431 . S
C945 C965 1.449 . S
C946 C945 1.258 . S
C946 C947 1.477 . S
C946 H966 0.931 . S
C947 C943 1.460 . S
C947 C946 1.477 . S
C947 H967 0.930 . S
C948 N944 1.362 . S
C948 C945 1.431 . S
C948 C958 1.476 . S
H949 C943 0.929 . S
C950 O941 1.250 . S
C950 O942 1.258 . S
O951 Mn936 2.162 . S
O951 C939 1.281 . S
O952 Mn936 2.297 . S
O952 C939 1.236 . S
N953 Mn937 2.282 . S
N953 C954 1.328 . S
N953 C958 1.318 . S
C954 N953 1.328 . S
C954 C955 1.457 . S
C954 H959 0.929 . S
C955 C954 1.457 . S
C955 C956 1.291 . S
C955 H968 0.931 . S
C956 C955 1.291 . S
C956 C957 1.373 . S
C956 H969 0.929 . S
C957 C956 1.373 . S
C957 C958 1.396 . S
C957 C964 1.403 . S
C958 C948 1.476 . S
C958 N953 1.318 . S
C958 C957 1.396 . S
H959 C954 0.929 . S
O960 Mn936 2.385 . S
O960 C938 1.234 . S
O961 Mn936 2.209 . S
O961 Mn937 2.215 . S
O961 C938 1.283 . S
O962 Mn936 2.094 . S
O962 C940 1.240 . S
O963 Mn937 2.117 . S
O963 C940 1.264 . S
C964 C957 1.403 . S
C964 C965 1.399 . S
C964 H970 0.929 . S
C965 C945 1.449 . S
C965 C964 1.399 . S
C965 H971 0.930 . S
H966 C946 0.931 . S
H967 C947 0.930 . S
H968 C955 0.931 . S
H969 C956 0.929 . S
H970 C964 0.929 . S
H971 C965 0.930 . S
Mn972 O977 2.095 1_556 S
Mn972 O987 2.162 . S
Mn972 O988 2.297 1_556 S
Mn972 O996 2.385 . S
Mn972 O997 2.209 1_556 S
Mn972 O998 2.094 . S
Mn973 O978 2.121 . S
Mn973 N980 2.257 . S
Mn973 N989 2.282 . S
Mn973 O997 2.215 . S
Mn973 O999 2.117 1_554 S
C974 O996 1.234 1_554 S
C974 O997 1.283 . S
C975 O987 1.281 . S
C975 O988 1.236 1_556 S
C976 O998 1.240 . S
C976 O999 1.264 . S
O977 Mn972 2.095 1_554 S
O977 C986 1.250 . S
O978 Mn973 2.121 . S
O978 C986 1.258 . S
C979 N980 1.326 . S
C979 C983 1.460 . S
C979 H985 0.929 . S
N980 Mn973 2.257 . S
N980 C979 1.326 . S
N980 C984 1.362 . S
C981 C982 1.258 . S
C981 C984 1.431 . S
C981 C1001 1.449 . S
C982 C981 1.258 . S
C982 C983 1.477 . S
C982 H1002 0.931 . S
C983 C979 1.460 . S
C983 C982 1.477 . S
C983 H1003 0.930 . S
C984 N980 1.362 . S
C984 C981 1.431 . S
C984 C994 1.476 . S
H985 C979 0.929 . S
C986 O977 1.250 . S
C986 O978 1.258 . S
O987 Mn972 2.162 . S
O987 C975 1.281 . S
O988 Mn972 2.297 1_554 S
O988 C975 1.236 1_554 S
N989 Mn973 2.282 . S
N989 C990 1.328 . S
N989 C994 1.318 . S
C990 N989 1.328 . S
C990 C991 1.457 . S
C990 H995 0.915 1_554 S
C991 C990 1.457 . S
C991 C992 1.291 . S
C991 H1004 0.931 . S
C992 C991 1.291 . S
C992 C993 1.373 . S
C992 H1005 0.929 . S
C993 C992 1.373 . S
C993 C994 1.396 . S
C993 C1000 1.403 . S
C994 C984 1.476 . S
C994 N989 1.318 . S
C994 C993 1.396 . S
H995 C990 0.915 1_556 S
O996 Mn972 2.385 . S
O996 C974 1.234 1_556 S
O997 Mn972 2.209 1_554 S
O997 Mn973 2.215 . S
O997 C974 1.283 . S
O998 Mn972 2.094 . S
O998 C976 1.240 . S
O999 Mn973 2.117 1_556 S
O999 C976 1.264 . S
C1000 C993 1.403 . S
C1000 C1001 1.399 . S
C1000 H1006 0.929 . S
C1001 C981 1.449 . S
C1001 C1000 1.399 . S
C1001 H1007 0.930 . S
H1002 C982 0.931 . S
H1003 C983 0.930 . S
H1004 C991 0.931 . S
H1005 C992 0.929 . S
H1006 C1000 0.929 . S
H1007 C1001 0.930 . S
Mn1008 O1013 2.095 1_556 S
Mn1008 O1023 2.162 . S
Mn1008 O1024 2.297 1_556 S
Mn1008 O1032 2.385 . S
Mn1008 O1033 2.209 1_556 S
Mn1008 O1034 2.094 . S
Mn1009 O1014 2.121 1_556 S
Mn1009 N1016 2.257 1_556 S
Mn1009 N1025 2.282 . S
Mn1009 O1033 2.215 1_556 S
Mn1009 O1035 2.117 . S
C1010 O1032 1.234 1_554 S
C1010 O1033 1.283 . S
C1011 O1023 1.281 1_554 S
C1011 O1024 1.236 . S
C1012 O1034 1.240 . S
C1012 O1035 1.264 . S
O1013 Mn1008 2.095 1_554 S
O1013 C1022 1.250 . S
O1014 Mn1009 2.121 1_554 S
O1014 C1022 1.258 . S
C1015 N1016 1.326 . S
C1015 C1019 1.460 . S
C1015 H1021 0.929 . S
N1016 Mn1009 2.257 1_554 S
N1016 C1015 1.326 . S
N1016 C1020 1.362 . S
C1017 C1018 1.258 . S
C1017 C1020 1.431 . S
C1017 C1037 1.449 . S
C1018 C1017 1.258 . S
C1018 C1019 1.477 . S
C1018 H1038 0.931 . S
C1019 C1015 1.460 . S
C1019 C1018 1.477 . S
C1019 H1039 0.930 . S
C1020 N1016 1.362 . S
C1020 C1017 1.431 . S
C1020 C1030 1.476 . S
H1021 C1015 0.929 . S
C1022 O1013 1.250 . S
C1022 O1014 1.258 . S
O1023 Mn1008 2.162 . S
O1023 C1011 1.281 1_556 S
O1024 Mn1008 2.297 1_554 S
O1024 C1011 1.236 . S
N1025 Mn1009 2.282 . S
N1025 C1026 1.328 . S
N1025 C1030 1.318 1_556 S
C1026 N1025 1.328 . S
C1026 C1027 1.457 . S
C1026 H1031 0.929 . S
C1027 C1026 1.457 . S
C1027 C1028 1.291 . S
C1027 H1040 0.931 . S
C1028 C1027 1.291 . S
C1028 C1029 1.373 . S
C1028 H1041 0.929 . S
C1029 C1028 1.373 . S
C1029 C1030 1.396 1_556 S
C1029 C1036 1.403 1_556 S
C1030 C1020 1.476 . S
C1030 N1025 1.318 1_554 S
C1030 C1029 1.396 1_554 S
H1031 C1026 0.929 . S
O1032 Mn1008 2.385 . S
O1032 C1010 1.234 1_556 S
O1033 Mn1008 2.209 1_554 S
O1033 Mn1009 2.215 1_554 S
O1033 C1010 1.283 . S
O1034 Mn1008 2.094 . S
O1034 C1012 1.240 . S
O1035 Mn1009 2.117 . S
O1035 C1012 1.264 . S
C1036 C1029 1.403 1_554 S
C1036 C1037 1.399 . S
C1036 H1042 0.929 . S
C1037 C1017 1.449 . S
C1037 C1036 1.399 . S
C1037 H1043 0.930 . S
H1038 C1018 0.931 . S
H1039 C1019 0.930 . S
H1040 C1027 0.931 . S
H1041 C1028 0.929 . S
H1042 C1036 0.929 . S
H1043 C1037 0.930 . S
Mn1044 O1049 2.095 1_565 S
Mn1044 O1059 2.162 . S
Mn1044 O1060 2.297 1_565 S
Mn1044 O1068 2.385 . S
Mn1044 O1069 2.209 1_565 S
Mn1044 O1070 2.094 . S
Mn1045 O1050 2.116 1_565 S
Mn1045 N1052 2.246 1_565 S
Mn1045 N1061 2.284 . S
Mn1045 O1069 2.208 1_565 S
Mn1045 O1071 2.130 . S
C1046 O1068 1.234 1_545 S
C1046 O1069 1.283 . S
C1047 O1059 1.281 1_545 S
C1047 O1060 1.236 . S
C1048 O1070 1.240 . S
C1048 O1071 1.264 . S
O1049 Mn1044 2.095 1_545 S
O1049 C1058 1.250 . S
O1050 Mn1045 2.116 1_545 S
O1050 C1058 1.258 . S
C1051 N1052 1.326 . S
C1051 C1055 1.460 . S
C1051 H1057 0.929 . S
N1052 Mn1045 2.246 1_545 S
N1052 C1051 1.326 . S
N1052 C1056 1.362 . S
C1053 C1054 1.258 . S
C1053 C1056 1.431 . S
C1053 C1073 1.449 . S
C1054 C1053 1.258 . S
C1054 C1055 1.477 . S
C1054 H1074 0.931 . S
C1055 C1051 1.460 . S
C1055 C1054 1.477 . S
C1055 H1075 0.930 . S
C1056 N1052 1.362 . S
C1056 C1053 1.431 . S
C1056 C1066 1.476 . S
H1057 C1051 0.929 . S
C1058 O1049 1.250 . S
C1058 O1050 1.258 . S
O1059 Mn1044 2.162 . S
O1059 C1047 1.281 1_565 S
O1060 Mn1044 2.297 1_545 S
O1060 C1047 1.236 . S
N1061 Mn1045 2.284 . S
N1061 C1062 1.328 . S
N1061 C1066 1.318 1_565 S
C1062 N1061 1.328 . S
C1062 C1063 1.457 . S
C1062 H1067 0.929 . S
C1063 C1062 1.457 . S
C1063 C1064 1.291 . S
C1063 H1076 0.931 . S
C1064 C1063 1.291 . S
C1064 C1065 1.373 1_565 S
C1064 H1077 0.929 . S
C1065 C1064 1.373 1_545 S
C1065 C1066 1.396 . S
C1065 C1072 1.403 . S
C1066 C1056 1.476 . S
C1066 N1061 1.318 1_545 S
C1066 C1065 1.396 . S
H1067 C1062 0.929 . S
O1068 Mn1044 2.385 . S
O1068 C1046 1.234 1_565 S
O1069 Mn1044 2.209 1_545 S
O1069 Mn1045 2.208 1_545 S
O1069 C1046 1.283 . S
O1070 Mn1044 2.094 . S
O1070 C1048 1.240 . S
O1071 Mn1045 2.130 . S
O1071 C1048 1.264 . S
C1072 C1065 1.403 . S
C1072 C1073 1.399 . S
C1072 H1078 0.929 . S
C1073 C1053 1.449 . S
C1073 C1072 1.399 . S
C1073 H1079 0.930 . S
H1074 C1054 0.931 . S
H1075 C1055 0.930 . S
H1076 C1063 0.931 . S
H1077 C1064 0.929 . S
H1078 C1072 0.929 . S
H1079 C1073 0.930 . S
Mn1080 O1085 2.095 . S
Mn1080 O1095 2.162 . S
Mn1080 O1096 2.297 . S
Mn1080 O1104 2.385 . S
Mn1080 O1105 2.209 . S
Mn1080 O1106 2.094 . S
Mn1081 O1086 2.121 . S
Mn1081 N1088 2.257 . S
Mn1081 N1097 2.282 . S
Mn1081 O1105 2.215 . S
Mn1081 O1107 2.117 . S
C1082 O1104 1.234 . S
C1082 O1105 1.283 . S
C1083 O1095 1.281 . S
C1083 O1096 1.236 . S
C1084 O1106 1.240 . S
C1084 O1107 1.264 . S
O1085 Mn1080 2.095 . S
O1085 C1094 1.250 . S
O1086 Mn1081 2.121 . S
O1086 C1094 1.258 . S
C1087 N1088 1.326 . S
C1087 C1091 1.460 . S
C1087 H1093 0.929 . S
N1088 Mn1081 2.257 . S
N1088 C1087 1.326 . S
N1088 C1092 1.362 . S
C1089 C1090 1.258 . S
C1089 C1092 1.431 . S
C1089 C1109 1.449 . S
C1090 C1089 1.258 . S
C1090 C1091 1.477 . S
C1090 H1110 0.931 . S
C1091 C1087 1.460 . S
C1091 C1090 1.477 . S
C1091 H1111 0.930 . S
C1092 N1088 1.362 . S
C1092 C1089 1.431 . S
C1092 C1102 1.476 . S
H1093 C1087 0.929 . S
C1094 O1085 1.250 . S
C1094 O1086 1.258 . S
O1095 Mn1080 2.162 . S
O1095 C1083 1.281 . S
O1096 Mn1080 2.297 . S
O1096 C1083 1.236 . S
N1097 Mn1081 2.282 . S
N1097 C1098 1.328 . S
N1097 C1102 1.318 . S
C1098 N1097 1.328 . S
C1098 C1099 1.457 . S
C1098 H1103 0.929 . S
C1099 C1098 1.457 . S
C1099 C1100 1.291 . S
C1099 H1112 0.931 . S
C1100 C1099 1.291 . S
C1100 C1101 1.373 . S
C1100 H1113 0.929 . S
C1101 C1100 1.373 . S
C1101 C1102 1.396 . S
C1101 C1108 1.403 . S
C1102 C1092 1.476 . S
C1102 N1097 1.318 . S
C1102 C1101 1.396 . S
H1103 C1098 0.929 . S
O1104 Mn1080 2.385 . S
O1104 C1082 1.234 . S
O1105 Mn1080 2.209 . S
O1105 Mn1081 2.215 . S
O1105 C1082 1.283 . S
O1106 Mn1080 2.094 . S
O1106 C1084 1.240 . S
O1107 Mn1081 2.117 . S
O1107 C1084 1.264 . S
C1108 C1101 1.403 . S
C1108 C1109 1.399 . S
C1108 H1114 0.929 . S
C1109 C1089 1.449 . S
C1109 C1108 1.399 . S
C1109 H1115 0.930 . S
H1110 C1090 0.931 . S
H1111 C1091 0.930 . S
H1112 C1099 0.931 . S
H1113 C1100 0.929 . S
H1114 C1108 0.929 . S
H1115 C1109 0.930 . S
Mn1116 O1121 2.095 . S
Mn1116 O1131 2.162 . S
Mn1116 O1132 2.297 . S
Mn1116 O1140 2.385 . S
Mn1116 O1141 2.209 . S
Mn1116 O1142 2.094 . S
Mn1117 O1122 2.121 . S
Mn1117 N1124 2.257 . S
Mn1117 N1133 2.282 . S
Mn1117 O1141 2.215 . S
Mn1117 O1143 2.117 . S
C1118 O1140 1.234 . S
C1118 O1141 1.283 . S
C1119 O1131 1.281 . S
C1119 O1132 1.236 . S
C1120 O1142 1.240 . S
C1120 O1143 1.264 . S
O1121 Mn1116 2.095 . S
O1121 C1130 1.250 . S
O1122 Mn1117 2.121 . S
O1122 C1130 1.258 . S
C1123 N1124 1.326 . S
C1123 C1127 1.460 . S
C1123 H1129 0.929 . S
N1124 Mn1117 2.257 . S
N1124 C1123 1.326 . S
N1124 C1128 1.362 . S
C1125 C1126 1.258 . S
C1125 C1128 1.431 . S
C1125 C1145 1.449 . S
C1126 C1125 1.258 . S
C1126 C1127 1.477 . S
C1126 H1146 0.931 . S
C1127 C1123 1.460 . S
C1127 C1126 1.477 . S
C1127 H1147 0.930 . S
C1128 N1124 1.362 . S
C1128 C1125 1.431 . S
C1128 C1138 1.476 . S
H1129 C1123 0.929 . S
C1130 O1121 1.250 . S
C1130 O1122 1.258 . S
O1131 Mn1116 2.162 . S
O1131 C1119 1.281 . S
O1132 Mn1116 2.297 . S
O1132 C1119 1.236 . S
N1133 Mn1117 2.282 . S
N1133 C1134 1.328 . S
N1133 C1138 1.318 . S
C1134 N1133 1.328 . S
C1134 C1135 1.457 . S
C1134 H1139 0.929 . S
C1135 C1134 1.457 . S
C1135 C1136 1.291 . S
C1135 H1148 0.931 . S
C1136 C1135 1.291 . S
C1136 C1137 1.373 . S
C1136 H1149 0.929 . S
C1137 C1136 1.373 . S
C1137 C1138 1.396 . S
C1137 C1144 1.403 . S
C1138 C1128 1.476 . S
C1138 N1133 1.318 . S
C1138 C1137 1.396 . S
H1139 C1134 0.929 . S
O1140 Mn1116 2.385 . S
O1140 C1118 1.234 . S
O1141 Mn1116 2.209 . S
O1141 Mn1117 2.215 . S
O1141 C1118 1.283 . S
O1142 Mn1116 2.094 . S
O1142 C1120 1.240 . S
O1143 Mn1117 2.117 . S
O1143 C1120 1.264 . S
C1144 C1137 1.403 . S
C1144 C1145 1.399 . S
C1144 H1150 0.929 . S
C1145 C1125 1.449 . S
C1145 C1144 1.399 . S
C1145 H1151 0.930 . S
H1146 C1126 0.931 . S
H1147 C1127 0.930 . S
H1148 C1135 0.931 . S
H1149 C1136 0.929 . S
H1150 C1144 0.929 . S
H1151 C1145 0.930 . S
Mn1152 O1157 2.095 . S
Mn1152 O1167 2.162 . S
Mn1152 O1168 2.297 . S
Mn1152 O1176 2.385 . S
Mn1152 O1177 2.209 . S
Mn1152 O1178 2.094 . S
Mn1153 O1158 2.121 . S
Mn1153 N1160 2.257 . S
Mn1153 N1169 2.282 . S
Mn1153 O1177 2.215 . S
Mn1153 O1179 2.117 . S
C1154 O1176 1.234 . S
C1154 O1177 1.283 . S
C1155 O1167 1.281 . S
C1155 O1168 1.236 . S
C1156 O1178 1.240 . S
C1156 O1179 1.264 . S
O1157 Mn1152 2.095 . S
O1157 C1166 1.250 . S
O1158 Mn1153 2.121 . S
O1158 C1166 1.258 . S
C1159 N1160 1.326 . S
C1159 C1163 1.460 . S
C1159 H1165 0.929 . S
N1160 Mn1153 2.257 . S
N1160 C1159 1.326 . S
N1160 C1164 1.362 . S
C1161 C1162 1.258 . S
C1161 C1164 1.431 . S
C1161 C1181 1.449 . S
C1162 C1161 1.258 . S
C1162 C1163 1.477 . S
C1162 H1182 0.931 . S
C1163 C1159 1.460 . S
C1163 C1162 1.477 . S
C1163 H1183 0.930 . S
C1164 N1160 1.362 . S
C1164 C1161 1.431 . S
C1164 C1174 1.476 . S
H1165 C1159 0.929 . S
C1166 O1157 1.250 . S
C1166 O1158 1.258 . S
O1167 Mn1152 2.162 . S
O1167 C1155 1.281 . S
O1168 Mn1152 2.297 . S
O1168 C1155 1.236 . S
N1169 Mn1153 2.282 . S
N1169 C1170 1.328 . S
N1169 C1174 1.318 . S
C1170 N1169 1.328 . S
C1170 C1171 1.457 . S
C1170 H1175 0.929 . S
C1171 C1170 1.457 . S
C1171 C1172 1.291 . S
C1171 H1184 0.931 . S
C1172 C1171 1.291 . S
C1172 C1173 1.373 . S
C1172 H1185 0.929 . S
C1173 C1172 1.373 . S
C1173 C1174 1.396 . S
C1173 C1180 1.403 . S
C1174 C1164 1.476 . S
C1174 N1169 1.318 . S
C1174 C1173 1.396 . S
H1175 C1170 0.929 . S
O1176 Mn1152 2.385 . S
O1176 C1154 1.234 . S
O1177 Mn1152 2.209 . S
O1177 Mn1153 2.215 . S
O1177 C1154 1.283 . S
O1178 Mn1152 2.094 . S
O1178 C1156 1.240 . S
O1179 Mn1153 2.117 . S
O1179 C1156 1.264 . S
C1180 C1173 1.403 . S
C1180 C1181 1.399 . S
C1180 H1186 0.929 . S
C1181 C1161 1.449 . S
C1181 C1180 1.399 . S
C1181 H1187 0.930 . S
H1182 C1162 0.931 . S
H1183 C1163 0.930 . S
H1184 C1171 0.931 . S
H1185 C1172 0.929 . S
H1186 C1180 0.929 . S
H1187 C1181 0.930 . S
Mn1188 O1193 2.095 . S
Mn1188 O1203 2.162 1_556 S
Mn1188 O1204 2.297 1_556 S
Mn1188 O1212 2.385 1_556 S
Mn1188 O1213 2.209 . S
Mn1188 O1214 2.094 . S
Mn1189 O1194 2.121 . S
Mn1189 N1196 2.257 . S
Mn1189 N1205 2.282 . S
Mn1189 O1213 2.215 . S
Mn1189 O1215 2.117 . S
C1190 O1212 1.234 . S
C1190 O1213 1.283 1_554 S
C1191 O1203 1.281 . S
C1191 O1204 1.236 . S
C1192 O1214 1.240 . S
C1192 O1215 1.264 . S
O1193 Mn1188 2.095 . S
O1193 C1202 1.250 . S
O1194 Mn1189 2.121 . S
O1194 C1202 1.258 . S
C1195 N1196 1.326 . S
C1195 C1199 1.460 . S
C1195 H1201 0.929 . S
N1196 Mn1189 2.257 . S
N1196 C1195 1.326 . S
N1196 C1200 1.362 . S
C1197 C1198 1.258 . S
C1197 C1200 1.431 . S
C1197 C1217 1.449 . S
C1198 C1197 1.258 . S
C1198 C1199 1.477 . S
C1198 H1218 0.931 . S
C1199 C1195 1.460 . S
C1199 C1198 1.477 . S
C1199 H1219 0.930 . S
C1200 N1196 1.362 . S
C1200 C1197 1.431 . S
C1200 C1210 1.476 . S
H1201 C1195 0.929 . S
C1202 O1193 1.250 . S
C1202 O1194 1.258 . S
O1203 Mn1188 2.162 1_554 S
O1203 C1191 1.281 . S
O1204 Mn1188 2.297 1_554 S
O1204 C1191 1.236 . S
N1205 Mn1189 2.282 . S
N1205 C1206 1.328 . S
N1205 C1210 1.318 . S
C1206 N1205 1.328 . S
C1206 C1207 1.457 . S
C1206 H1211 0.929 . S
C1207 C1206 1.457 . S
C1207 C1208 1.291 . S
C1207 H1220 0.931 . S
C1208 C1207 1.291 . S
C1208 C1209 1.373 . S
C1208 H1221 0.929 . S
C1209 C1208 1.373 . S
C1209 C1210 1.396 . S
C1209 C1216 1.403 . S
C1210 C1200 1.476 . S
C1210 N1205 1.318 . S
C1210 C1209 1.396 . S
H1211 C1206 0.929 . S
O1212 Mn1188 2.385 1_554 S
O1212 C1190 1.234 . S
O1213 Mn1188 2.209 . S
O1213 Mn1189 2.215 . S
O1213 C1190 1.283 1_556 S
O1214 Mn1188 2.094 . S
O1214 C1192 1.240 . S
O1215 Mn1189 2.117 . S
O1215 C1192 1.264 . S
C1216 C1209 1.403 . S
C1216 C1217 1.399 . S
C1216 H1222 0.929 . S
C1217 C1197 1.449 . S
C1217 C1216 1.399 . S
C1217 H1223 0.930 . S
H1218 C1198 0.931 . S
H1219 C1199 0.930 . S
H1220 C1207 0.931 . S
H1221 C1208 0.929 . S
H1222 C1216 0.929 . S
H1223 C1217 0.930 . S
Mn1224 O1229 2.095 1_655 S
Mn1224 O1239 2.161 1_655 S
Mn1224 O1240 2.297 1_655 S
Mn1224 O1248 2.385 . S
Mn1224 O1249 2.209 1_655 S
Mn1224 O1250 2.094 . S
Mn1225 O1230 2.121 1_655 S
Mn1225 N1232 2.257 1_655 S
Mn1225 N1241 2.282 . S
Mn1225 O1249 2.215 1_655 S
Mn1225 O1251 2.117 . S
C1226 O1248 1.234 . S
C1226 O1249 1.283 1_655 S
C1227 O1239 1.284 . S
C1227 O1240 1.236 . S
C1228 O1250 1.240 . S
C1228 O1251 1.264 . S
O1229 Mn1224 2.095 1_455 S
O1229 C1238 1.250 . S
O1230 Mn1225 2.121 1_455 S
O1230 C1238 1.258 . S
C1231 N1232 1.326 . S
C1231 C1235 1.460 . S
C1231 H1237 0.929 . S
N1232 Mn1225 2.257 1_455 S
N1232 C1231 1.326 . S
N1232 C1236 1.362 . S
C1233 C1234 1.258 . S
C1233 C1236 1.431 . S
C1233 C1253 1.449 . S
C1234 C1233 1.258 . S
C1234 C1235 1.477 . S
C1234 H1254 0.931 . S
C1235 C1231 1.460 . S
C1235 C1234 1.477 . S
C1235 H1255 0.930 . S
C1236 N1232 1.362 . S
C1236 C1233 1.431 . S
C1236 C1246 1.476 1_455 S
H1237 C1231 0.929 . S
C1238 O1229 1.250 . S
C1238 O1230 1.258 . S
O1239 Mn1224 2.161 1_455 S
O1239 C1227 1.284 . S
O1240 Mn1224 2.297 1_455 S
O1240 C1227 1.236 . S
N1241 Mn1225 2.282 . S
N1241 C1242 1.328 . S
N1241 C1246 1.318 . S
C1242 N1241 1.328 . S
C1242 C1243 1.457 . S
C1242 H1247 0.929 . S
C1243 C1242 1.457 . S
C1243 C1244 1.291 . S
C1243 H1256 0.931 . S
C1244 C1243 1.291 . S
C1244 C1245 1.373 . S
C1244 H1257 0.929 . S
C1245 C1244 1.373 . S
C1245 C1246 1.396 . S
C1245 C1252 1.403 . S
C1246 C1236 1.476 1_655 S
C1246 N1241 1.318 . S
C1246 C1245 1.396 . S
H1247 C1242 0.929 . S
O1248 Mn1224 2.385 . S
O1248 C1226 1.234 . S
O1249 Mn1224 2.209 1_455 S
O1249 Mn1225 2.215 1_455 S
O1249 C1226 1.283 1_455 S
O1250 Mn1224 2.094 . S
O1250 C1228 1.240 . S
O1251 Mn1225 2.117 . S
O1251 C1228 1.264 . S
C1252 C1245 1.403 . S
C1252 C1253 1.399 1_655 S
C1252 H1258 0.929 . S
C1253 C1233 1.449 . S
C1253 C1252 1.399 1_455 S
C1253 H1259 0.930 . S
H1254 C1234 0.931 . S
H1255 C1235 0.930 . S
H1256 C1243 0.931 . S
H1257 C1244 0.929 . S
H1258 C1252 0.929 . S
H1259 C1253 0.930 . S
Mn1260 O1265 2.095 1_455 S
Mn1260 O1275 2.162 . S
Mn1260 O1276 2.297 . S
Mn1260 O1284 2.380 1_455 S
Mn1260 O1285 2.209 1_455 S
Mn1260 O1286 2.094 . S
Mn1261 O1266 2.121 . S
Mn1261 N1268 2.257 . S
Mn1261 N1277 2.282 . S
Mn1261 O1285 2.215 . S
Mn1261 O1287 2.117 . S
C1262 O1284 1.260 . S
C1262 O1285 1.283 . S
C1263 O1275 1.281 . S
C1263 O1276 1.236 . S
C1264 O1286 1.240 . S
C1264 O1287 1.264 1_455 S
O1265 Mn1260 2.095 1_655 S
O1265 C1274 1.250 . S
O1266 Mn1261 2.121 . S
O1266 C1274 1.258 . S
C1267 N1268 1.326 . S
C1267 C1271 1.460 . S
C1267 H1273 0.929 . S
N1268 Mn1261 2.257 . S
N1268 C1267 1.326 . S
N1268 C1272 1.362 . S
C1269 C1270 1.258 . S
C1269 C1272 1.431 . S
C1269 C1289 1.449 . S
C1270 C1269 1.258 . S
C1270 C1271 1.477 . S
C1270 H1290 0.931 . S
C1271 C1267 1.460 . S
C1271 C1270 1.477 . S
C1271 H1291 0.930 . S
C1272 N1268 1.362 . S
C1272 C1269 1.431 . S
C1272 C1282 1.476 . S
H1273 C1267 0.929 . S
C1274 O1265 1.250 . S
C1274 O1266 1.258 . S
O1275 Mn1260 2.162 . S
O1275 C1263 1.281 . S
O1276 Mn1260 2.297 . S
O1276 C1263 1.236 . S
N1277 Mn1261 2.282 . S
N1277 C1278 1.328 . S
N1277 C1282 1.318 . S
C1278 N1277 1.328 . S
C1278 C1279 1.457 . S
C1278 H1283 0.929 . S
C1279 C1278 1.457 . S
C1279 C1280 1.291 . S
C1279 H1292 0.931 . S
C1280 C1279 1.291 . S
C1280 C1281 1.373 . S
C1280 H1293 0.929 . S
C1281 C1280 1.373 . S
C1281 C1282 1.396 . S
C1281 C1288 1.403 . S
C1282 C1272 1.476 . S
C1282 N1277 1.318 . S
C1282 C1281 1.396 . S
H1283 C1278 0.929 . S
O1284 Mn1260 2.380 1_655 S
O1284 C1262 1.260 . S
O1285 Mn1260 2.209 1_655 S
O1285 Mn1261 2.215 . S
O1285 C1262 1.283 . S
O1286 Mn1260 2.094 . S
O1286 C1264 1.240 . S
O1287 Mn1261 2.117 . S
O1287 C1264 1.264 1_655 S
C1288 C1281 1.403 . S
C1288 C1289 1.399 . S
C1288 H1294 0.929 . S
C1289 C1269 1.449 . S
C1289 C1288 1.399 . S
C1289 H1295 0.930 . S
H1290 C1270 0.931 . S
H1291 C1271 0.930 . S
H1292 C1279 0.931 . S
H1293 C1280 0.929 . S
H1294 C1288 0.929 . S
H1295 C1289 0.930 . S
Mn1296 O1301 2.095 . S
Mn1296 O1311 2.162 . S
Mn1296 O1312 2.297 . S
Mn1296 O1320 2.385 . S
Mn1296 O1321 2.209 . S
Mn1296 O1322 2.094 . S
Mn1297 O1302 2.121 . S
Mn1297 N1304 2.257 . S
Mn1297 N1313 2.282 . S
Mn1297 O1321 2.215 . S
Mn1297 O1323 2.117 . S
C1298 O1320 1.234 . S
C1298 O1321 1.283 . S
C1299 O1311 1.281 . S
C1299 O1312 1.236 . S
C1300 O1322 1.240 . S
C1300 O1323 1.264 . S
O1301 Mn1296 2.095 . S
O1301 C1310 1.250 . S
O1302 Mn1297 2.121 . S
O1302 C1310 1.258 . S
C1303 N1304 1.326 . S
C1303 C1307 1.460 . S
C1303 H1309 0.929 . S
N1304 Mn1297 2.257 . S
N1304 C1303 1.326 . S
N1304 C1308 1.362 . S
C1305 C1306 1.258 . S
C1305 C1308 1.431 . S
C1305 C1325 1.449 . S
C1306 C1305 1.258 . S
C1306 C1307 1.477 . S
C1306 H1326 0.931 . S
C1307 C1303 1.460 . S
C1307 C1306 1.477 . S
C1307 H1327 0.930 . S
C1308 N1304 1.362 . S
C1308 C1305 1.431 . S
C1308 C1318 1.476 . S
H1309 C1303 0.929 . S
C1310 O1301 1.250 . S
C1310 O1302 1.258 . S
O1311 Mn1296 2.162 . S
O1311 C1299 1.281 . S
O1312 Mn1296 2.297 . S
O1312 C1299 1.236 . S
N1313 Mn1297 2.282 . S
N1313 C1314 1.328 . S
N1313 C1318 1.318 . S
C1314 N1313 1.328 . S
C1314 C1315 1.457 . S
C1314 H1319 0.929 . S
C1315 C1314 1.457 . S
C1315 C1316 1.291 . S
C1315 H1328 0.931 . S
C1316 C1315 1.291 . S
C1316 C1317 1.373 . S
C1316 H1329 0.929 . S
C1317 C1316 1.373 . S
C1317 C1318 1.396 . S
C1317 C1324 1.403 . S
C1318 C1308 1.476 . S
C1318 N1313 1.318 . S
C1318 C1317 1.396 . S
H1319 C1314 0.929 . S
O1320 Mn1296 2.385 . S
O1320 C1298 1.234 . S
O1321 Mn1296 2.209 . S
O1321 Mn1297 2.215 . S
O1321 C1298 1.283 . S
O1322 Mn1296 2.094 . S
O1322 C1300 1.240 . S
O1323 Mn1297 2.117 . S
O1323 C1300 1.264 . S
C1324 C1317 1.403 . S
C1324 C1325 1.399 . S
C1324 H1330 0.929 . S
C1325 C1305 1.449 . S
C1325 C1324 1.399 . S
C1325 H1331 0.930 . S
H1326 C1306 0.931 . S
H1327 C1307 0.930 . S
H1328 C1315 0.931 . S
H1329 C1316 0.929 . S
H1330 C1324 0.929 . S
H1331 C1325 0.930 . S
Mn1332 O1337 2.095 . S
Mn1332 O1347 2.162 . S
Mn1332 O1348 2.297 . S
Mn1332 O1356 2.385 . S
Mn1332 O1357 2.209 . S
Mn1332 O1358 2.094 . S
Mn1333 O1338 2.121 . S
Mn1333 N1340 2.257 . S
Mn1333 N1349 2.282 . S
Mn1333 O1357 2.215 . S
Mn1333 O1359 2.117 . S
C1334 O1356 1.234 . S
C1334 O1357 1.283 . S
C1335 O1347 1.281 . S
C1335 O1348 1.236 . S
C1336 O1358 1.240 . S
C1336 O1359 1.264 . S
O1337 Mn1332 2.095 . S
O1337 C1346 1.250 . S
O1338 Mn1333 2.121 . S
O1338 C1346 1.258 . S
C1339 N1340 1.326 . S
C1339 C1343 1.460 . S
C1339 H1345 0.929 . S
N1340 Mn1333 2.257 . S
N1340 C1339 1.326 . S
N1340 C1344 1.362 . S
C1341 C1342 1.258 . S
C1341 C1344 1.431 . S
C1341 C1361 1.449 . S
C1342 C1341 1.258 . S
C1342 C1343 1.477 . S
C1342 H1362 0.931 . S
C1343 C1339 1.460 . S
C1343 C1342 1.477 . S
C1343 H1363 0.930 . S
C1344 N1340 1.362 . S
C1344 C1341 1.431 . S
C1344 C1354 1.476 . S
H1345 C1339 0.929 . S
C1346 O1337 1.250 . S
C1346 O1338 1.258 . S
O1347 Mn1332 2.162 . S
O1347 C1335 1.281 . S
O1348 Mn1332 2.297 . S
O1348 C1335 1.236 . S
N1349 Mn1333 2.282 . S
N1349 C1350 1.328 . S
N1349 C1354 1.318 . S
C1350 N1349 1.328 . S
C1350 C1351 1.457 . S
C1350 H1355 0.929 . S
C1351 C1350 1.457 . S
C1351 C1352 1.291 . S
C1351 H1364 0.931 . S
C1352 C1351 1.291 . S
C1352 C1353 1.373 . S
C1352 H1365 0.929 . S
C1353 C1352 1.373 . S
C1353 C1354 1.396 . S
C1353 C1360 1.403 . S
C1354 C1344 1.476 . S
C1354 N1349 1.318 . S
C1354 C1353 1.396 . S
H1355 C1350 0.929 . S
O1356 Mn1332 2.385 . S
O1356 C1334 1.234 . S
O1357 Mn1332 2.209 . S
O1357 Mn1333 2.215 . S
O1357 C1334 1.283 . S
O1358 Mn1332 2.094 . S
O1358 C1336 1.240 . S
O1359 Mn1333 2.117 . S
O1359 C1336 1.264 . S
C1360 C1353 1.403 . S
C1360 C1361 1.399 . S
C1360 H1366 0.929 . S
C1361 C1341 1.449 . S
C1361 C1360 1.399 . S
C1361 H1367 0.930 . S
H1362 C1342 0.931 . S
H1363 C1343 0.930 . S
H1364 C1351 0.931 . S
H1365 C1352 0.929 . S
H1366 C1360 0.929 . S
H1367 C1361 0.930 . S
Mn1368 O1373 2.095 . S
Mn1368 O1383 2.162 . S
Mn1368 O1384 2.297 . S
Mn1368 O1392 2.385 . S
Mn1368 O1393 2.209 . S
Mn1368 O1394 2.094 . S
Mn1369 O1374 2.121 . S
Mn1369 N1376 2.257 . S
Mn1369 N1385 2.282 . S
Mn1369 O1393 2.215 . S
Mn1369 O1395 2.117 . S
C1370 O1392 1.234 . S
C1370 O1393 1.283 . S
C1371 O1383 1.281 . S
C1371 O1384 1.236 . S
C1372 O1394 1.240 . S
C1372 O1395 1.264 . S
O1373 Mn1368 2.095 . S
O1373 C1382 1.250 . S
O1374 Mn1369 2.121 . S
O1374 C1382 1.258 . S
C1375 N1376 1.326 . S
C1375 C1379 1.460 . S
C1375 H1381 0.929 . S
N1376 Mn1369 2.257 . S
N1376 C1375 1.326 . S
N1376 C1380 1.362 . S
C1377 C1378 1.258 . S
C1377 C1380 1.431 . S
C1377 C1397 1.449 . S
C1378 C1377 1.258 . S
C1378 C1379 1.477 . S
C1378 H1398 0.931 . S
C1379 C1375 1.460 . S
C1379 C1378 1.477 . S
C1379 H1399 0.930 . S
C1380 N1376 1.362 . S
C1380 C1377 1.431 . S
C1380 C1390 1.476 . S
H1381 C1375 0.929 . S
C1382 O1373 1.250 . S
C1382 O1374 1.258 . S
O1383 Mn1368 2.162 . S
O1383 C1371 1.281 . S
O1384 Mn1368 2.297 . S
O1384 C1371 1.236 . S
N1385 Mn1369 2.282 . S
N1385 C1386 1.328 . S
N1385 C1390 1.318 . S
C1386 N1385 1.328 . S
C1386 C1387 1.457 . S
C1386 H1391 0.929 . S
C1387 C1386 1.457 . S
C1387 C1388 1.291 . S
C1387 H1400 0.931 . S
C1388 C1387 1.291 . S
C1388 C1389 1.373 . S
C1388 H1401 0.929 . S
C1389 C1388 1.373 . S
C1389 C1390 1.396 . S
C1389 C1396 1.403 . S
C1390 C1380 1.476 . S
C1390 N1385 1.318 . S
C1390 C1389 1.396 . S
H1391 C1386 0.929 . S
O1392 Mn1368 2.385 . S
O1392 C1370 1.234 . S
O1393 Mn1368 2.209 . S
O1393 Mn1369 2.215 . S
O1393 C1370 1.283 . S
O1394 Mn1368 2.094 . S
O1394 C1372 1.240 . S
O1395 Mn1369 2.117 . S
O1395 C1372 1.264 . S
C1396 C1389 1.403 . S
C1396 C1397 1.399 . S
C1396 H1402 0.929 . S
C1397 C1377 1.449 . S
C1397 C1396 1.399 . S
C1397 H1403 0.930 . S
H1398 C1378 0.931 . S
H1399 C1379 0.930 . S
H1400 C1387 0.931 . S
H1401 C1388 0.929 . S
H1402 C1396 0.929 . S
H1403 C1397 0.930 . S
Mn1404 O1409 2.095 . S
Mn1404 O1419 2.162 . S
Mn1404 O1420 2.297 . S
Mn1404 O1428 2.385 . S
Mn1404 O1429 2.209 . S
Mn1404 O1430 2.094 . S
Mn1405 O1410 2.121 . S
Mn1405 N1412 2.257 . S
Mn1405 N1421 2.282 . S
Mn1405 O1429 2.215 . S
Mn1405 O1431 2.117 . S
C1406 O1428 1.234 . S
C1406 O1429 1.283 . S
C1407 O1419 1.281 . S
C1407 O1420 1.236 . S
C1408 O1430 1.240 . S
C1408 O1431 1.264 . S
O1409 Mn1404 2.095 . S
O1409 C1418 1.250 . S
O1410 Mn1405 2.121 . S
O1410 C1418 1.258 . S
C1411 N1412 1.326 . S
C1411 C1415 1.460 . S
C1411 H1417 0.929 . S
N1412 Mn1405 2.257 . S
N1412 C1411 1.326 . S
N1412 C1416 1.362 . S
C1413 C1414 1.258 . S
C1413 C1416 1.431 . S
C1413 C1433 1.449 . S
C1414 C1413 1.258 . S
C1414 C1415 1.477 . S
C1414 H1434 0.931 . S
C1415 C1411 1.460 . S
C1415 C1414 1.477 . S
C1415 H1435 0.930 . S
C1416 N1412 1.362 . S
C1416 C1413 1.431 . S
C1416 C1426 1.476 . S
H1417 C1411 0.929 . S
C1418 O1409 1.250 . S
C1418 O1410 1.258 . S
O1419 Mn1404 2.162 . S
O1419 C1407 1.281 . S
O1420 Mn1404 2.297 . S
O1420 C1407 1.236 . S
N1421 Mn1405 2.282 . S
N1421 C1422 1.328 . S
N1421 C1426 1.318 . S
C1422 N1421 1.328 . S
C1422 C1423 1.457 . S
C1422 H1427 0.929 . S
C1423 C1422 1.457 . S
C1423 C1424 1.291 . S
C1423 H1436 0.931 . S
C1424 C1423 1.291 . S
C1424 C1425 1.373 . S
C1424 H1437 0.929 . S
C1425 C1424 1.373 . S
C1425 C1426 1.396 . S
C1425 C1432 1.403 . S
C1426 C1416 1.476 . S
C1426 N1421 1.318 . S
C1426 C1425 1.396 . S
H1427 C1422 0.929 . S
O1428 Mn1404 2.385 . S
O1428 C1406 1.234 . S
O1429 Mn1404 2.209 . S
O1429 Mn1405 2.215 . S
O1429 C1406 1.283 . S
O1430 Mn1404 2.094 . S
O1430 C1408 1.240 . S
O1431 Mn1405 2.117 . S
O1431 C1408 1.264 . S
C1432 C1425 1.403 . S
C1432 C1433 1.399 . S
C1432 H1438 0.929 . S
C1433 C1413 1.449 . S
C1433 C1432 1.399 . S
C1433 H1439 0.930 . S
H1434 C1414 0.931 . S
H1435 C1415 0.930 . S
H1436 C1423 0.931 . S
H1437 C1424 0.929 . S
H1438 C1432 0.929 . S
H1439 C1433 0.930 . S
Mn1440 O1445 2.095 . S
Mn1440 O1455 2.162 1_545 S
Mn1440 O1456 2.297 1_545 S
Mn1440 O1464 2.385 . S
Mn1440 O1465 2.209 . S
Mn1440 O1466 2.094 . S
Mn1441 O1446 2.121 . S
Mn1441 N1448 2.257 . S
Mn1441 N1457 2.282 . S
Mn1441 O1465 2.215 . S
Mn1441 O1467 2.117 . S
C1442 O1464 1.234 . S
C1442 O1465 1.283 . S
C1443 O1455 1.281 . S
C1443 O1456 1.236 . S
C1444 O1466 1.240 . S
C1444 O1467 1.264 . S
O1445 Mn1440 2.095 . S
O1445 C1454 1.250 . S
O1446 Mn1441 2.121 . S
O1446 C1454 1.258 . S
C1447 N1448 1.326 . S
C1447 C1451 1.460 . S
C1447 H1453 0.929 . S
N1448 Mn1441 2.257 . S
N1448 C1447 1.326 . S
N1448 C1452 1.362 . S
C1449 C1450 1.258 . S
C1449 C1452 1.431 . S
C1449 C1469 1.449 . S
C1450 C1449 1.258 . S
C1450 C1451 1.477 . S
C1450 H1470 0.931 . S
C1451 C1447 1.460 . S
C1451 C1450 1.477 . S
C1451 H1471 0.930 . S
C1452 N1448 1.362 . S
C1452 C1449 1.431 . S
C1452 C1462 1.476 . S
H1453 C1447 0.929 . S
C1454 O1445 1.250 . S
C1454 O1446 1.258 . S
O1455 Mn1440 2.162 1_565 S
O1455 C1443 1.281 . S
O1456 Mn1440 2.297 1_565 S
O1456 C1443 1.236 . S
N1457 Mn1441 2.282 . S
N1457 C1458 1.328 . S
N1457 C1462 1.318 . S
C1458 N1457 1.328 . S
C1458 C1459 1.457 . S
C1458 H1463 0.929 . S
C1459 C1458 1.457 . S
C1459 C1460 1.291 . S
C1459 H1472 0.931 . S
C1460 C1459 1.291 . S
C1460 C1461 1.373 . S
C1460 H1473 0.929 . S
C1461 C1460 1.373 . S
C1461 C1462 1.396 . S
C1461 C1468 1.403 . S
C1462 C1452 1.476 . S
C1462 N1457 1.318 . S
C1462 C1461 1.396 . S
H1463 C1458 0.929 . S
O1464 Mn1440 2.385 . S
O1464 C1442 1.234 . S
O1465 Mn1440 2.209 . S
O1465 Mn1441 2.215 . S
O1465 C1442 1.283 . S
O1466 Mn1440 2.094 . S
O1466 C1444 1.240 . S
O1467 Mn1441 2.117 . S
O1467 C1444 1.264 . S
C1468 C1461 1.403 . S
C1468 C1469 1.399 . S
C1468 H1474 0.929 . S
C1469 C1449 1.449 . S
C1469 C1468 1.399 . S
C1469 H1475 0.930 . S
H1470 C1450 0.931 . S
H1471 C1451 0.930 . S
H1472 C1459 0.931 . S
H1473 C1460 0.929 . S
H1474 C1468 0.929 . S
H1475 C1469 0.930 . S
Mn1476 O1481 2.095 1_564 S
Mn1476 O1491 2.162 1_554 S
Mn1476 O1492 2.297 1_554 S
Mn1476 O1500 2.385 . S
Mn1476 O1501 2.209 1_565 S
Mn1476 O1502 2.094 1_565 S
Mn1477 O1482 2.121 . S
Mn1477 N1484 2.257 . S
Mn1477 N1493 2.282 . S
Mn1477 O1501 2.215 . S
Mn1477 O1503 2.117 . S
C1478 O1500 1.234 . S
C1478 O1501 1.283 1_565 S
C1479 O1491 1.281 . S
C1479 O1492 1.236 . S
C1480 O1502 1.240 . S
C1480 O1503 1.264 . S
O1481 Mn1476 2.095 1_546 S
O1481 C1490 1.250 . S
O1482 Mn1477 2.121 . S
O1482 C1490 1.258 1_554 S
C1483 N1484 1.326 . S
C1483 C1487 1.460 . S
C1483 H1489 0.929 . S
N1484 Mn1477 2.257 . S
N1484 C1483 1.326 . S
N1484 C1488 1.362 . S
C1485 C1486 1.258 . S
C1485 C1488 1.431 . S
C1485 C1505 1.449 . S
C1486 C1485 1.258 . S
C1486 C1487 1.477 . S
C1486 H1506 0.931 . S
C1487 C1483 1.460 . S
C1487 C1486 1.477 . S
C1487 H1507 0.930 . S
C1488 N1484 1.362 . S
C1488 C1485 1.431 . S
C1488 C1498 1.476 . S
H1489 C1483 0.929 . S
C1490 O1481 1.250 . S
C1490 O1482 1.258 1_556 S
O1491 Mn1476 2.162 1_556 S
O1491 C1479 1.281 . S
O1492 Mn1476 2.297 1_556 S
O1492 C1479 1.236 . S
N1493 Mn1477 2.282 . S
N1493 C1494 1.328 . S
N1493 C1498 1.318 . S
C1494 N1493 1.328 . S
C1494 C1495 1.457 . S
C1494 H1499 0.929 . S
C1495 C1494 1.457 . S
C1495 C1496 1.291 . S
C1495 H1508 0.931 . S
C1496 C1495 1.291 . S
C1496 C1497 1.373 . S
C1496 H1509 0.929 . S
C1497 C1496 1.373 . S
C1497 C1498 1.396 . S
C1497 C1504 1.403 . S
C1498 C1488 1.476 . S
C1498 N1493 1.318 . S
C1498 C1497 1.396 . S
H1499 C1494 0.929 . S
O1500 Mn1476 2.385 . S
O1500 C1478 1.234 . S
O1501 Mn1476 2.209 1_545 S
O1501 Mn1477 2.215 . S
O1501 C1478 1.283 1_545 S
O1502 Mn1476 2.094 1_545 S
O1502 C1480 1.240 . S
O1503 Mn1477 2.117 . S
O1503 C1480 1.264 . S
C1504 C1497 1.403 . S
C1504 C1505 1.399 . S
C1504 H1510 0.929 . S
C1505 C1485 1.449 . S
C1505 C1504 1.399 . S
C1505 H1511 0.930 . S
H1506 C1486 0.931 . S
H1507 C1487 0.930 . S
H1508 C1495 0.931 . S
H1509 C1496 0.929 . S
H1510 C1504 0.929 . S
H1511 C1505 0.930 . S
Mn1512 O1517 2.095 1_655 S
Mn1512 O1527 2.162 . S
Mn1512 O1528 2.297 1_655 S
Mn1512 O1536 2.385 . S
Mn1512 O1537 2.209 . S
Mn1512 O1538 2.094 . S
Mn1513 O1518 2.121 1_655 S
Mn1513 N1520 2.257 . S
Mn1513 N1529 2.282 . S
Mn1513 O1537 2.215 . S
Mn1513 O1539 2.117 . S
C1514 O1536 1.234 . S
C1514 O1537 1.283 . S
C1515 O1527 1.281 . S
C1515 O1528 1.236 1_655 S
C1516 O1538 1.240 . S
C1516 O1539 1.264 . S
O1517 Mn1512 2.095 1_455 S
O1517 C1526 1.250 . S
O1518 Mn1513 2.121 1_455 S
O1518 C1526 1.258 . S
C1519 N1520 1.326 1_455 S
C1519 C1523 1.460 . S
C1519 H1525 0.929 . S
N1520 Mn1513 2.257 . S
N1520 C1519 1.326 1_655 S
N1520 C1524 1.362 . S
C1521 C1522 1.258 . S
C1521 C1524 1.431 . S
C1521 C1541 1.449 . S
C1522 C1521 1.258 . S
C1522 C1523 1.477 1_655 S
C1522 H1542 0.931 . S
C1523 C1519 1.460 . S
C1523 C1522 1.477 1_455 S
C1523 H1543 0.930 . S
C1524 N1520 1.362 . S
C1524 C1521 1.431 . S
C1524 C1534 1.476 . S
H1525 C1519 0.929 . S
C1526 O1517 1.250 . S
C1526 O1518 1.258 . S
O1527 Mn1512 2.162 . S
O1527 C1515 1.281 . S
O1528 Mn1512 2.297 1_455 S
O1528 C1515 1.236 1_455 S
N1529 Mn1513 2.282 . S
N1529 C1530 1.328 . S
N1529 C1534 1.318 . S
C1530 N1529 1.328 . S
C1530 C1531 1.457 . S
C1530 H1535 0.929 . S
C1531 C1530 1.457 . S
C1531 C1532 1.291 . S
C1531 H1544 0.931 . S
C1532 C1531 1.291 . S
C1532 C1533 1.373 . S
C1532 H1545 0.929 . S
C1533 C1532 1.373 . S
C1533 C1534 1.396 . S
C1533 C1540 1.403 . S
C1534 C1524 1.476 . S
C1534 N1529 1.318 . S
C1534 C1533 1.396 . S
H1535 C1530 0.929 . S
O1536 Mn1512 2.385 . S
O1536 C1514 1.234 . S
O1537 Mn1512 2.209 . S
O1537 Mn1513 2.215 . S
O1537 C1514 1.283 . S
O1538 Mn1512 2.094 . S
O1538 C1516 1.240 . S
O1539 Mn1513 2.117 . S
O1539 C1516 1.264 . S
C1540 C1533 1.403 . S
C1540 C1541 1.399 . S
C1540 H1546 0.929 . S
C1541 C1521 1.449 . S
C1541 C1540 1.399 . S
C1541 H1547 0.930 . S
H1542 C1522 0.931 . S
H1543 C1523 0.930 . S
H1544 C1531 0.931 . S
H1545 C1532 0.929 . S
H1546 C1540 0.929 . S
H1547 C1541 0.930 . S
Mn1548 O1553 2.095 . S
Mn1548 O1563 2.162 . S
Mn1548 O1564 2.297 . S
Mn1548 O1572 2.385 . S
Mn1548 O1573 2.209 . S
Mn1548 O1574 2.094 . S
Mn1549 O1554 2.121 . S
Mn1549 N1556 2.257 . S
Mn1549 N1565 2.282 . S
Mn1549 O1573 2.215 . S
Mn1549 O1575 2.117 . S
C1550 O1572 1.234 . S
C1550 O1573 1.283 . S
C1551 O1563 1.281 . S
C1551 O1564 1.236 . S
C1552 O1574 1.240 . S
C1552 O1575 1.264 . S
O1553 Mn1548 2.095 . S
O1553 C1562 1.250 . S
O1554 Mn1549 2.121 . S
O1554 C1562 1.258 . S
C1555 N1556 1.326 . S
C1555 C1559 1.460 . S
C1555 H1561 0.929 . S
N1556 Mn1549 2.257 . S
N1556 C1555 1.326 . S
N1556 C1560 1.362 . S
C1557 C1558 1.257 . S
C1557 C1560 1.431 . S
C1557 C1577 1.449 1_565 S
C1558 C1557 1.257 . S
C1558 C1559 1.491 . S
C1558 H1578 0.918 1_565 S
C1559 C1555 1.460 . S
C1559 C1558 1.491 . S
C1559 H1579 0.930 . S
C1560 N1556 1.362 . S
C1560 C1557 1.431 . S
C1560 C1570 1.476 . S
H1561 C1555 0.929 . S
C1562 O1553 1.250 . S
C1562 O1554 1.258 . S
O1563 Mn1548 2.162 . S
O1563 C1551 1.281 . S
O1564 Mn1548 2.297 . S
O1564 C1551 1.236 . S
N1565 Mn1549 2.282 . S
N1565 C1566 1.328 . S
N1565 C1570 1.318 . S
C1566 N1565 1.328 . S
C1566 C1567 1.457 . S
C1566 H1571 0.929 . S
C1567 C1566 1.457 . S
C1567 C1568 1.291 . S
C1567 H1580 0.931 . S
C1568 C1567 1.291 . S
C1568 C1569 1.373 . S
C1568 H1581 0.929 1_565 S
C1569 C1568 1.373 . S
C1569 C1570 1.396 . S
C1569 C1576 1.403 1_565 S
C1570 C1560 1.476 . S
C1570 N1565 1.318 . S
C1570 C1569 1.396 . S
H1571 C1566 0.929 . S
O1572 Mn1548 2.385 . S
O1572 C1550 1.234 . S
O1573 Mn1548 2.209 . S
O1573 Mn1549 2.215 . S
O1573 C1550 1.283 . S
O1574 Mn1548 2.094 . S
O1574 C1552 1.240 . S
O1575 Mn1549 2.117 . S
O1575 C1552 1.264 . S
C1576 C1569 1.403 1_545 S
C1576 C1577 1.399 . S
C1576 H1582 0.929 . S
C1577 C1557 1.449 1_545 S
C1577 C1576 1.399 . S
C1577 H1583 0.930 . S
H1578 C1558 0.918 1_545 S
H1579 C1559 0.930 . S
H1580 C1567 0.931 . S
H1581 C1568 0.929 1_545 S
H1582 C1576 0.929 . S
H1583 C1577 0.930 . S
Mn1584 O1589 2.095 . S
Mn1584 O1599 2.162 . S
Mn1584 O1600 2.297 . S
Mn1584 O1608 2.385 . S
Mn1584 O1609 2.209 . S
Mn1584 O1610 2.094 . S
Mn1585 O1590 2.121 . S
Mn1585 N1592 2.257 . S
Mn1585 N1601 2.282 . S
Mn1585 O1609 2.215 . S
Mn1585 O1611 2.117 . S
C1586 O1608 1.234 . S
C1586 O1609 1.283 . S
C1587 O1599 1.281 . S
C1587 O1600 1.236 . S
C1588 O1610 1.240 . S
C1588 O1611 1.264 . S
O1589 Mn1584 2.095 . S
O1589 C1598 1.250 . S
O1590 Mn1585 2.121 . S
O1590 C1598 1.258 . S
C1591 N1592 1.326 . S
C1591 C1595 1.460 . S
C1591 H1597 0.929 . S
N1592 Mn1585 2.257 . S
N1592 C1591 1.326 . S
N1592 C1596 1.362 . S
C1593 C1594 1.258 . S
C1593 C1596 1.431 . S
C1593 C1613 1.449 . S
C1594 C1593 1.258 . S
C1594 C1595 1.477 . S
C1594 H1614 0.931 . S
C1595 C1591 1.460 . S
C1595 C1594 1.477 . S
C1595 H1615 0.930 . S
C1596 N1592 1.362 . S
C1596 C1593 1.431 . S
C1596 C1606 1.476 . S
H1597 C1591 0.929 . S
C1598 O1589 1.250 . S
C1598 O1590 1.258 . S
O1599 Mn1584 2.162 . S
O1599 C1587 1.281 . S
O1600 Mn1584 2.297 . S
O1600 C1587 1.236 . S
N1601 Mn1585 2.282 . S
N1601 C1602 1.328 . S
N1601 C1606 1.318 . S
C1602 N1601 1.328 . S
C1602 C1603 1.457 . S
C1602 H1607 0.929 . S
C1603 C1602 1.457 . S
C1603 C1604 1.291 . S
C1603 H1616 0.931 . S
C1604 C1603 1.291 . S
C1604 C1605 1.373 . S
C1604 H1617 0.929 . S
C1605 C1604 1.373 . S
C1605 C1606 1.396 . S
C1605 C1612 1.403 . S
C1606 C1596 1.476 . S
C1606 N1601 1.318 . S
C1606 C1605 1.396 . S
H1607 C1602 0.929 . S
O1608 Mn1584 2.385 . S
O1608 C1586 1.234 . S
O1609 Mn1584 2.209 . S
O1609 Mn1585 2.215 . S
O1609 C1586 1.283 . S
O1610 Mn1584 2.094 . S
O1610 C1588 1.240 . S
O1611 Mn1585 2.117 . S
O1611 C1588 1.264 . S
C1612 C1605 1.403 . S
C1612 C1613 1.399 . S
C1612 H1618 0.929 . S
C1613 C1593 1.449 . S
C1613 C1612 1.399 . S
C1613 H1619 0.930 . S
H1614 C1594 0.931 . S
H1615 C1595 0.930 . S
H1616 C1603 0.931 . S
H1617 C1604 0.929 . S
H1618 C1612 0.929 . S
H1619 C1613 0.930 . S
Mn1620 O1625 2.095 1_545 S
Mn1620 O1635 2.162 . S
Mn1620 O1636 2.297 . S
Mn1620 O1644 2.385 . S
Mn1620 O1645 2.209 . S
Mn1620 O1646 2.094 1_545 S
Mn1621 O1626 2.121 . S
Mn1621 N1628 2.257 . S
Mn1621 N1637 2.282 . S
Mn1621 O1645 2.215 1_565 S
Mn1621 O1647 2.117 . S
C1622 O1644 1.234 . S
C1622 O1645 1.283 . S
C1623 O1635 1.281 . S
C1623 O1636 1.236 . S
C1624 O1646 1.240 . S
C1624 O1647 1.264 . S
O1625 Mn1620 2.095 1_565 S
O1625 C1634 1.250 . S
O1626 Mn1621 2.121 . S
O1626 C1634 1.258 . S
C1627 N1628 1.326 . S
C1627 C1631 1.460 . S
C1627 H1633 0.929 . S
N1628 Mn1621 2.257 . S
N1628 C1627 1.326 . S
N1628 C1632 1.362 . S
C1629 C1630 1.258 . S
C1629 C1632 1.431 . S
C1629 C1649 1.449 . S
C1630 C1629 1.258 . S
C1630 C1631 1.477 . S
C1630 H1650 0.931 . S
C1631 C1627 1.460 . S
C1631 C1630 1.477 . S
C1631 H1651 0.930 . S
C1632 N1628 1.362 . S
C1632 C1629 1.431 . S
C1632 C1642 1.476 . S
H1633 C1627 0.929 . S
C1634 O1625 1.250 . S
C1634 O1626 1.258 . S
O1635 Mn1620 2.162 . S
O1635 C1623 1.281 . S
O1636 Mn1620 2.297 . S
O1636 C1623 1.236 . S
N1637 Mn1621 2.282 . S
N1637 C1638 1.328 . S
N1637 C1642 1.318 . S
C1638 N1637 1.328 . S
C1638 C1639 1.457 . S
C1638 H1643 0.929 . S
C1639 C1638 1.457 . S
C1639 C1640 1.291 . S
C1639 H1652 0.931 . S
C1640 C1639 1.291 . S
C1640 C1641 1.373 . S
C1640 H1653 0.929 . S
C1641 C1640 1.373 . S
C1641 C1642 1.396 . S
C1641 C1648 1.403 . S
C1642 C1632 1.476 . S
C1642 N1637 1.318 . S
C1642 C1641 1.396 . S
H1643 C1638 0.929 . S
O1644 Mn1620 2.385 . S
O1644 C1622 1.234 . S
O1645 Mn1620 2.209 . S
O1645 Mn1621 2.215 1_545 S
O1645 C1622 1.283 . S
O1646 Mn1620 2.094 1_565 S
O1646 C1624 1.240 . S
O1647 Mn1621 2.117 . S
O1647 C1624 1.264 . S
C1648 C1641 1.403 . S
C1648 C1649 1.399 . S
C1648 H1654 0.929 . S
C1649 C1629 1.449 . S
C1649 C1648 1.399 . S
C1649 H1655 0.930 . S
H1650 C1630 0.931 . S
H1651 C1631 0.930 . S
H1652 C1639 0.931 . S
H1653 C1640 0.929 . S
H1654 C1648 0.929 . S
H1655 C1649 0.930 . S
Mn1656 O1661 2.095 . S
Mn1656 O1671 2.162 . S
Mn1656 O1672 2.297 . S
Mn1656 O1680 2.385 . S
Mn1656 O1681 2.209 . S
Mn1656 O1682 2.094 . S
Mn1657 O1662 2.121 . S
Mn1657 N1664 2.257 . S
Mn1657 N1673 2.282 . S
Mn1657 O1681 2.215 . S
Mn1657 O1683 2.117 . S
C1658 O1680 1.234 . S
C1658 O1681 1.283 . S
C1659 O1671 1.281 . S
C1659 O1672 1.236 . S
C1660 O1682 1.240 . S
C1660 O1683 1.264 . S
O1661 Mn1656 2.095 . S
O1661 C1670 1.250 . S
O1662 Mn1657 2.121 . S
O1662 C1670 1.258 . S
C1663 N1664 1.326 . S
C1663 C1667 1.460 . S
C1663 H1669 0.929 . S
N1664 Mn1657 2.257 . S
N1664 C1663 1.326 . S
N1664 C1668 1.362 . S
C1665 C1666 1.258 . S
C1665 C1668 1.431 . S
C1665 C1685 1.449 . S
C1666 C1665 1.258 . S
C1666 C1667 1.477 . S
C1666 H1686 0.931 . S
C1667 C1663 1.460 . S
C1667 C1666 1.477 . S
C1667 H1687 0.930 . S
C1668 N1664 1.362 . S
C1668 C1665 1.431 . S
C1668 C1678 1.476 . S
H1669 C1663 0.929 . S
C1670 O1661 1.250 . S
C1670 O1662 1.258 . S
O1671 Mn1656 2.162 . S
O1671 C1659 1.281 . S
O1672 Mn1656 2.297 . S
O1672 C1659 1.236 . S
N1673 Mn1657 2.282 . S
N1673 C1674 1.328 . S
N1673 C1678 1.318 . S
C1674 N1673 1.328 . S
C1674 C1675 1.457 . S
C1674 H1679 0.929 . S
C1675 C1674 1.457 . S
C1675 C1676 1.291 . S
C1675 H1688 0.931 . S
C1676 C1675 1.291 . S
C1676 C1677 1.373 . S
C1676 H1689 0.929 . S
C1677 C1676 1.373 . S
C1677 C1678 1.396 . S
C1677 C1684 1.403 . S
C1678 C1668 1.476 . S
C1678 N1673 1.318 . S
C1678 C1677 1.396 . S
H1679 C1674 0.929 . S
O1680 Mn1656 2.385 . S
O1680 C1658 1.234 . S
O1681 Mn1656 2.209 . S
O1681 Mn1657 2.215 . S
O1681 C1658 1.283 . S
O1682 Mn1656 2.094 . S
O1682 C1660 1.240 . S
O1683 Mn1657 2.117 . S
O1683 C1660 1.264 . S
C1684 C1677 1.403 . S
C1684 C1685 1.399 . S
C1684 H1690 0.929 . S
C1685 C1665 1.449 . S
C1685 C1684 1.399 . S
C1685 H1691 0.930 . S
H1686 C1666 0.931 . S
H1687 C1667 0.930 . S
H1688 C1675 0.931 . S
H1689 C1676 0.929 . S
H1690 C1684 0.929 . S
H1691 C1685 0.930 . S
Mn1692 O1697 2.095 . S
Mn1692 O1707 2.162 . S
Mn1692 O1708 2.297 . S
Mn1692 O1716 2.385 . S
Mn1692 O1717 2.209 . S
Mn1692 O1718 2.094 . S
Mn1693 O1698 2.121 . S
Mn1693 N1700 2.257 . S
Mn1693 N1709 2.282 . S
Mn1693 O1717 2.215 . S
Mn1693 O1719 2.117 . S
C1694 O1716 1.234 . S
C1694 O1717 1.283 . S
C1695 O1707 1.281 . S
C1695 O1708 1.236 . S
C1696 O1718 1.240 . S
C1696 O1719 1.264 . S
O1697 Mn1692 2.095 . S
O1697 C1706 1.250 . S
O1698 Mn1693 2.121 . S
O1698 C1706 1.258 . S
C1699 N1700 1.326 . S
C1699 C1703 1.460 . S
C1699 H1705 0.929 . S
N1700 Mn1693 2.257 . S
N1700 C1699 1.326 . S
N1700 C1704 1.362 . S
C1701 C1702 1.258 . S
C1701 C1704 1.431 . S
C1701 C1721 1.449 . S
C1702 C1701 1.258 . S
C1702 C1703 1.477 . S
C1702 H1722 0.931 . S
C1703 C1699 1.460 . S
C1703 C1702 1.477 . S
C1703 H1723 0.930 . S
C1704 N1700 1.362 . S
C1704 C1701 1.431 . S
C1704 C1714 1.476 . S
H1705 C1699 0.929 . S
C1706 O1697 1.250 . S
C1706 O1698 1.258 . S
O1707 Mn1692 2.162 . S
O1707 C1695 1.281 . S
O1708 Mn1692 2.297 . S
O1708 C1695 1.236 . S
N1709 Mn1693 2.282 . S
N1709 C1710 1.328 . S
N1709 C1714 1.318 . S
C1710 N1709 1.328 . S
C1710 C1711 1.457 . S
C1710 H1715 0.929 . S
C1711 C1710 1.457 . S
C1711 C1712 1.291 . S
C1711 H1724 0.931 . S
C1712 C1711 1.291 . S
C1712 C1713 1.373 . S
C1712 H1725 0.929 . S
C1713 C1712 1.373 . S
C1713 C1714 1.396 . S
C1713 C1720 1.403 . S
C1714 C1704 1.476 . S
C1714 N1709 1.318 . S
C1714 C1713 1.396 . S
H1715 C1710 0.929 . S
O1716 Mn1692 2.385 . S
O1716 C1694 1.234 . S
O1717 Mn1692 2.209 . S
O1717 Mn1693 2.215 . S
O1717 C1694 1.283 . S
O1718 Mn1692 2.094 . S
O1718 C1696 1.240 . S
O1719 Mn1693 2.117 . S
O1719 C1696 1.264 . S
C1720 C1713 1.403 . S
C1720 C1721 1.399 . S
C1720 H1726 0.929 . S
C1721 C1701 1.449 . S
C1721 C1720 1.399 . S
C1721 H1727 0.930 . S
H1722 C1702 0.931 . S
H1723 C1703 0.930 . S
H1724 C1711 0.931 . S
H1725 C1712 0.929 . S
H1726 C1720 0.929 . S
H1727 C1721 0.930 . S
C1728 C1729 1.387 . S
C1728 H1732 0.950 . S
C1728 C1737 1.390 . S
C1729 C1728 1.387 . S
C1729 C1731 1.387 1_554 S
H1730 C1737 0.950 . S
C1731 C1729 1.387 1_556 S
C1731 C1733 1.390 . S
C1731 H1735 0.950 . S
H1732 C1728 0.950 . S
C1733 C1731 1.390 . S
C1733 C1734 1.387 1_556 S
C1733 H1736 0.950 . S
C1734 C1733 1.387 1_554 S
C1734 C1737 1.387 . S
H1735 C1731 0.950 . S
H1736 C1733 0.950 . S
C1737 C1728 1.390 . S
C1737 H1730 0.950 . S
C1737 C1734 1.387 . S
C1738 C1739 1.387 . S
C1738 H1742 0.950 . S
C1738 C1747 1.390 . S
C1739 C1738 1.387 . S
C1739 C1741 1.387 . S
H1740 C1747 0.950 . S
C1741 C1739 1.387 . S
C1741 C1743 1.390 . S
C1741 H1745 0.950 . S
H1742 C1738 0.950 . S
C1743 C1741 1.390 . S
C1743 C1744 1.387 . S
C1743 H1746 0.950 . S
C1744 C1743 1.387 . S
C1744 C1747 1.387 . S
H1745 C1741 0.950 . S
H1746 C1743 0.950 . S
C1747 C1738 1.390 . S
C1747 H1740 0.950 . S
C1747 C1744 1.387 . S
C1748 C1749 1.387 . S
C1748 H1752 0.950 . S
C1748 C1757 1.390 . S
C1749 C1748 1.387 . S
C1749 C1751 1.387 1_545 S
H1750 C1757 0.950 . S
C1751 C1749 1.387 1_565 S
C1751 C1753 1.390 . S
C1751 H1755 0.950 . S
H1752 C1748 0.950 . S
C1753 C1751 1.390 . S
C1753 C1754 1.387 1_565 S
C1753 H1756 0.950 . S
C1754 C1753 1.387 1_545 S
C1754 C1757 1.387 . S
H1755 C1751 0.950 . S
H1756 C1753 0.950 . S
C1757 C1748 1.390 . S
C1757 H1750 0.950 . S
C1757 C1754 1.387 . S
C1758 C1759 1.387 . S
C1758 H1762 0.950 . S
C1758 C1767 1.390 . S
C1759 C1758 1.387 . S
C1759 C1761 1.387 . S
H1760 C1767 0.950 . S
C1761 C1759 1.387 . S
C1761 C1763 1.390 . S
C1761 H1765 0.950 . S
H1762 C1758 0.950 . S
C1763 C1761 1.390 . S
C1763 C1764 1.387 . S
C1763 H1766 0.950 . S
C1764 C1763 1.387 . S
C1764 C1767 1.387 . S
H1765 C1761 0.950 . S
H1766 C1763 0.950 . S
C1767 C1758 1.390 . S
C1767 H1760 0.950 . S
C1767 C1764 1.387 . S
C1768 C1769 1.387 . S
C1768 H1772 0.950 . S
C1768 C1777 1.390 . S
C1769 C1768 1.387 . S
C1769 C1771 1.387 . S
H1770 C1777 0.950 . S
C1771 C1769 1.387 . S
C1771 C1773 1.390 . S
C1771 H1775 0.950 . S
H1772 C1768 0.950 . S
C1773 C1771 1.390 . S
C1773 C1774 1.387 . S
C1773 H1776 0.950 . S
C1774 C1773 1.387 . S
C1774 C1777 1.387 . S
H1775 C1771 0.950 . S
H1776 C1773 0.950 . S
C1777 C1768 1.390 . S
C1777 H1770 0.950 . S
C1777 C1774 1.387 . S
C1778 C1779 1.387 . S
C1778 H1782 0.950 . S
C1778 C1787 1.390 . S
C1779 C1778 1.387 . S
C1779 C1781 1.387 . S
H1780 C1787 0.950 . S
C1781 C1779 1.387 . S
C1781 C1783 1.390 . S
C1781 H1785 0.950 1_554 S
H1782 C1778 0.950 . S
C1783 C1781 1.390 . S
C1783 C1784 1.387 . S
C1783 H1786 0.929 1_554 S
C1784 C1783 1.387 . S
C1784 C1787 1.387 . S
H1785 C1781 0.950 1_556 S
H1786 C1783 0.929 1_556 S
C1787 C1778 1.390 . S
C1787 H1780 0.950 . S
C1787 C1784 1.387 . S
C1788 C1789 1.387 . S
C1788 H1792 0.950 . S
C1788 C1797 1.390 . S
C1789 C1788 1.387 . S
C1789 C1791 1.387 . S
H1790 C1797 0.950 . S
C1791 C1789 1.387 . S
C1791 C1793 1.390 . S
C1791 H1795 0.950 . S
H1792 C1788 0.950 . S
C1793 C1791 1.390 . S
C1793 C1794 1.387 . S
C1793 H1796 0.950 . S
C1794 C1793 1.387 . S
C1794 C1797 1.387 . S
H1795 C1791 0.950 . S
H1796 C1793 0.950 . S
C1797 C1788 1.390 . S
C1797 H1790 0.950 . S
C1797 C1794 1.387 . S
C1798 C1799 1.387 . S
C1798 H1802 0.950 . S
C1798 C1807 1.390 . S
C1799 C1798 1.387 . S
C1799 C1801 1.387 . S
H1800 C1807 0.950 1_545 S
C1801 C1799 1.387 . S
C1801 C1803 1.390 . S
C1801 H1805 0.950 . S
H1802 C1798 0.950 . S
C1803 C1801 1.390 . S
C1803 C1804 1.387 . S
C1803 H1806 0.950 . S
C1804 C1803 1.387 . S
C1804 C1807 1.387 . S
H1805 C1801 0.950 . S
H1806 C1803 0.950 . S
C1807 C1798 1.390 . S
C1807 H1800 0.950 1_565 S
C1807 C1804 1.387 . S
C1808 C1809 1.387 . S
C1808 H1812 0.950 . S
C1808 C1817 1.390 . S
C1809 C1808 1.387 . S
C1809 C1811 1.387 . S
H1810 C1817 0.950 . S
C1811 C1809 1.387 . S
C1811 C1813 1.390 . S
C1811 H1815 0.950 . S
H1812 C1808 0.950 . S
C1813 C1811 1.390 . S
C1813 C1814 1.387 . S
C1813 H1816 0.950 . S
C1814 C1813 1.387 . S
C1814 C1817 1.387 . S
H1815 C1811 0.950 . S
H1816 C1813 0.950 . S
C1817 C1808 1.390 . S
C1817 H1810 0.950 . S
C1817 C1814 1.387 . S
C1818 C1819 1.387 . S
C1818 H1822 0.950 . S
C1818 C1827 1.390 . S
C1819 C1818 1.387 . S
C1819 C1821 1.387 . S
H1820 C1827 0.950 . S
C1821 C1819 1.387 . S
C1821 C1823 1.390 . S
C1821 H1825 0.950 . S
H1822 C1818 0.950 . S
C1823 C1821 1.390 . S
C1823 C1824 1.387 . S
C1823 H1826 0.950 . S
C1824 C1823 1.387 . S
C1824 C1827 1.387 . S
H1825 C1821 0.950 . S
H1826 C1823 0.950 . S
C1827 C1818 1.390 . S
C1827 H1820 0.950 . S
C1827 C1824 1.387 . S
C1828 C1829 1.387 . S
C1828 H1832 0.950 . S
C1828 C1837 1.390 . S
C1829 C1828 1.387 . S
C1829 C1831 1.387 . S
H1830 C1837 0.950 . S
C1831 C1829 1.387 . S
C1831 C1833 1.390 . S
C1831 H1835 0.950 . S
H1832 C1828 0.950 . S
C1833 C1831 1.390 . S
C1833 C1834 1.387 . S
C1833 H1836 0.950 . S
C1834 C1833 1.387 . S
C1834 C1837 1.387 . S
H1835 C1831 0.950 . S
H1836 C1833 0.950 . S
C1837 C1828 1.390 . S
C1837 H1830 0.950 . S
C1837 C1834 1.387 . S
C1838 C1839 1.387 1_655 S
C1838 H1842 0.950 . S
C1838 C1847 1.390 1_655 S
C1839 C1838 1.387 1_455 S
C1839 C1841 1.387 . S
H1840 C1847 0.950 1_655 S
C1841 C1839 1.387 . S
C1841 C1843 1.390 . S
C1841 H1845 0.950 . S
H1842 C1838 0.950 . S
C1843 C1841 1.390 . S
C1843 C1844 1.387 . S
C1843 H1846 0.950 . S
C1844 C1843 1.387 . S
C1844 C1847 1.387 . S
H1845 C1841 0.950 . S
H1846 C1843 0.950 . S
C1847 C1838 1.390 1_455 S
C1847 H1840 0.950 1_455 S
C1847 C1844 1.387 . S
C1848 C1849 1.387 . S
C1848 H1852 0.950 . S
C1848 C1857 1.390 . S
C1849 C1848 1.387 . S
C1849 C1851 1.387 . S
H1850 C1857 0.950 . S
C1851 C1849 1.387 . S
C1851 C1853 1.390 . S
C1851 H1855 0.950 . S
H1852 C1848 0.950 . S
C1853 C1851 1.390 . S
C1853 C1854 1.387 . S
C1853 H1856 0.950 . S
C1854 C1853 1.387 . S
C1854 C1857 1.387 . S
H1855 C1851 0.950 . S
H1856 C1853 0.950 . S
C1857 C1848 1.390 . S
C1857 H1850 0.950 . S
C1857 C1854 1.387 . S
C1858 C1859 1.387 . S
C1858 H1862 0.950 . S
C1858 C1867 1.390 . S
C1859 C1858 1.387 . S
C1859 C1861 1.387 . S
H1860 C1867 0.950 . S
C1861 C1859 1.387 . S
C1861 C1863 1.390 . S
C1861 H1865 0.950 . S
H1862 C1858 0.950 . S
C1863 C1861 1.390 . S
C1863 C1864 1.387 . S
C1863 H1866 0.950 . S
C1864 C1863 1.387 . S
C1864 C1867 1.387 . S
H1865 C1861 0.950 . S
H1866 C1863 0.950 . S
C1867 C1858 1.390 . S
C1867 H1860 0.950 . S
C1867 C1864 1.387 . S
C1868 C1869 1.387 . S
C1868 H1872 0.950 . S
C1868 C1877 1.390 . S
C1869 C1868 1.387 . S
C1869 C1871 1.387 . S
H1870 C1877 0.950 . S
C1871 C1869 1.387 . S
C1871 C1873 1.390 . S
C1871 H1875 0.950 . S
H1872 C1868 0.950 . S
C1873 C1871 1.390 . S
C1873 C1874 1.387 . S
C1873 H1876 0.950 . S
C1874 C1873 1.387 . S
C1874 C1877 1.387 . S
H1875 C1871 0.950 . S
H1876 C1873 0.950 . S
C1877 C1868 1.390 . S
C1877 H1870 0.950 . S
C1877 C1874 1.387 . S
C1878 C1879 1.387 . S
C1878 H1882 0.950 . S
C1878 C1887 1.390 . S
C1879 C1878 1.387 . S
C1879 C1881 1.387 . S
H1880 C1887 0.950 . S
C1881 C1879 1.387 . S
C1881 C1883 1.390 . S
C1881 H1885 0.950 . S
H1882 C1878 0.950 . S
C1883 C1881 1.390 . S
C1883 C1884 1.387 . S
C1883 H1886 0.950 . S
C1884 C1883 1.387 . S
C1884 C1887 1.387 . S
H1885 C1881 0.950 . S
H1886 C1883 0.950 . S
C1887 C1878 1.390 . S
C1887 H1880 0.950 . S
C1887 C1884 1.387 . S
C1888 C1889 1.387 . S
C1888 H1892 0.950 . S
C1888 C1897 1.390 . S
C1889 C1888 1.387 . S
C1889 C1891 1.387 . S
H1890 C1897 0.950 . S
C1891 C1889 1.387 . S
C1891 C1893 1.390 . S
C1891 H1895 0.950 . S
H1892 C1888 0.950 . S
C1893 C1891 1.390 . S
C1893 C1894 1.387 . S
C1893 H1896 0.950 . S
C1894 C1893 1.387 . S
C1894 C1897 1.387 . S
H1895 C1891 0.950 . S
H1896 C1893 0.950 . S
C1897 C1888 1.390 . S
C1897 H1890 0.950 . S
C1897 C1894 1.387 . S
C1898 C1899 1.387 . S
C1898 H1902 0.950 . S
C1898 C1907 1.390 . S
C1899 C1898 1.387 . S
C1899 C1901 1.387 . S
H1900 C1907 0.950 . S
C1901 C1899 1.387 . S
C1901 C1903 1.390 . S
C1901 H1905 0.950 . S
H1902 C1898 0.950 . S
C1903 C1901 1.390 . S
C1903 C1904 1.387 . S
C1903 H1906 0.950 . S
C1904 C1903 1.387 . S
C1904 C1907 1.387 . S
H1905 C1901 0.950 . S
H1906 C1903 0.950 . S
C1907 C1898 1.390 . S
C1907 H1900 0.950 . S
C1907 C1904 1.387 . S
C1908 C1909 1.387 . S
C1908 H1912 0.950 . S
C1908 C1917 1.390 . S
C1909 C1908 1.387 . S
C1909 C1911 1.387 . S
H1910 C1917 0.950 . S
C1911 C1909 1.387 . S
C1911 C1913 1.390 . S
C1911 H1915 0.950 . S
H1912 C1908 0.950 . S
C1913 C1911 1.390 . S
C1913 C1914 1.387 . S
C1913 H1916 0.950 . S
C1914 C1913 1.387 . S
C1914 C1917 1.387 . S
H1915 C1911 0.950 . S
H1916 C1913 0.950 . S
C1917 C1908 1.390 . S
C1917 H1910 0.950 . S
C1917 C1914 1.387 . S
C1918 C1919 1.387 . S
C1918 H1922 0.950 . S
C1918 C1927 1.390 . S
C1919 C1918 1.387 . S
C1919 C1921 1.387 . S
H1920 C1927 0.950 1_554 S
C1921 C1919 1.387 . S
C1921 C1923 1.390 . S
C1921 H1925 0.950 . S
H1922 C1918 0.950 . S
C1923 C1921 1.390 . S
C1923 C1924 1.387 . S
C1923 H1926 0.950 . S
C1924 C1923 1.387 . S
C1924 C1927 1.387 . S
H1925 C1921 0.950 . S
H1926 C1923 0.950 . S
C1927 C1918 1.390 . S
C1927 H1920 0.950 1_556 S
C1927 C1924 1.387 . S
C1928 C1929 1.387 . S
C1928 H1932 0.950 . S
C1928 C1937 1.390 . S
C1929 C1928 1.387 . S
C1929 C1931 1.387 . S
H1930 C1937 0.950 . S
C1931 C1929 1.387 . S
C1931 C1933 1.390 . S
C1931 H1935 0.950 . S
H1932 C1928 0.950 . S
C1933 C1931 1.390 . S
C1933 C1934 1.387 . S
C1933 H1936 0.950 . S
C1934 C1933 1.387 . S
C1934 C1937 1.387 . S
H1935 C1931 0.950 . S
H1936 C1933 0.950 . S
C1937 C1928 1.390 . S
C1937 H1930 0.950 . S
C1937 C1934 1.387 . S
C1938 C1939 1.387 . S
C1938 H1942 0.950 . S
C1938 C1947 1.390 . S
C1939 C1938 1.387 . S
C1939 C1941 1.387 . S
H1940 C1947 0.950 . S
C1941 C1939 1.387 . S
C1941 C1943 1.390 . S
C1941 H1945 0.950 . S
H1942 C1938 0.950 . S
C1943 C1941 1.390 . S
C1943 C1944 1.387 . S
C1943 H1946 0.950 . S
C1944 C1943 1.387 . S
C1944 C1947 1.387 . S
H1945 C1941 0.950 . S
H1946 C1943 0.950 . S
C1947 C1938 1.390 . S
C1947 H1940 0.950 . S
C1947 C1944 1.387 . S
C1948 C1949 1.387 . S
C1948 H1952 0.950 . S
C1948 C1957 1.390 . S
C1949 C1948 1.387 . S
C1949 C1951 1.387 . S
H1950 C1957 0.950 . S
C1951 C1949 1.387 . S
C1951 C1953 1.390 . S
C1951 H1955 0.950 . S
H1952 C1948 0.950 . S
C1953 C1951 1.390 . S
C1953 C1954 1.387 . S
C1953 H1956 0.950 . S
C1954 C1953 1.387 . S
C1954 C1957 1.387 . S
H1955 C1951 0.950 . S
H1956 C1953 0.950 . S
C1957 C1948 1.390 . S
C1957 H1950 0.950 . S
C1957 C1954 1.387 . S
C1958 C1959 1.387 . S
C1958 H1962 0.950 . S
C1958 C1967 1.390 . S
C1959 C1958 1.387 . S
C1959 C1961 1.387 . S
H1960 C1967 0.950 . S
C1961 C1959 1.387 . S
C1961 C1963 1.390 . S
C1961 H1965 0.950 . S
H1962 C1958 0.950 . S
C1963 C1961 1.390 . S
C1963 C1964 1.387 . S
C1963 H1966 0.950 . S
C1964 C1963 1.387 . S
C1964 C1967 1.387 . S
H1965 C1961 0.950 . S
H1966 C1963 0.950 . S
C1967 C1958 1.390 . S
C1967 H1960 0.950 . S
C1967 C1964 1.387 . S
C1968 C1969 1.387 . S
C1968 H1972 0.950 . S
C1968 C1977 1.390 . S
C1969 C1968 1.387 . S
C1969 C1971 1.387 . S
H1970 C1977 0.950 . S
C1971 C1969 1.387 . S
C1971 C1973 1.390 . S
C1971 H1975 0.950 . S
H1972 C1968 0.950 . S
C1973 C1971 1.390 . S
C1973 C1974 1.387 . S
C1973 H1976 0.950 . S
C1974 C1973 1.387 . S
C1974 C1977 1.387 . S
H1975 C1971 0.950 . S
H1976 C1973 0.950 . S
C1977 C1968 1.390 . S
C1977 H1970 0.950 . S
C1977 C1974 1.387 . S
C1978 C1979 1.387 . S
C1978 H1982 0.950 . S
C1978 C1987 1.390 . S
C1979 C1978 1.387 . S
C1979 C1981 1.387 . S
H1980 C1987 0.950 . S
C1981 C1979 1.387 . S
C1981 C1983 1.390 . S
C1981 H1985 0.950 . S
H1982 C1978 0.950 . S
C1983 C1981 1.390 . S
C1983 C1984 1.387 . S
C1983 H1986 0.950 . S
C1984 C1983 1.387 . S
C1984 C1987 1.387 . S
H1985 C1981 0.950 . S
H1986 C1983 0.950 . S
C1987 C1978 1.390 . S
C1987 H1980 0.950 . S
C1987 C1984 1.387 . S
C1988 C1989 1.387 . S
C1988 H1992 0.950 . S
C1988 C1997 1.390 . S
C1989 C1988 1.387 . S
C1989 C1991 1.387 . S
H1990 C1997 0.950 . S
C1991 C1989 1.387 . S
C1991 C1993 1.390 . S
C1991 H1995 0.950 . S
H1992 C1988 0.950 . S
C1993 C1991 1.390 . S
C1993 C1994 1.387 . S
C1993 H1996 0.950 . S
C1994 C1993 1.387 . S
C1994 C1997 1.387 . S
H1995 C1991 0.950 . S
H1996 C1993 0.950 . S
C1997 C1988 1.390 . S
C1997 H1990 0.950 . S
C1997 C1994 1.387 . S
C1998 C1999 1.387 . S
C1998 H2002 0.950 . S
C1998 C2007 1.390 . S
C1999 C1998 1.387 . S
C1999 C2001 1.387 . S
H2000 C2007 0.950 . S
C2001 C1999 1.387 . S
C2001 C2003 1.390 . S
C2001 H2005 0.950 . S
H2002 C1998 0.950 . S
C2003 C2001 1.390 . S
C2003 C2004 1.387 . S
C2003 H2006 0.950 . S
C2004 C2003 1.387 . S
C2004 C2007 1.387 . S
H2005 C2001 0.950 . S
H2006 C2003 0.950 . S
C2007 C1998 1.390 . S
C2007 H2000 0.950 . S
C2007 C2004 1.387 . S
C2008 C2009 1.387 . S
C2008 H2012 0.950 . S
C2008 C2017 1.390 . S
C2009 C2008 1.387 . S
C2009 C2011 1.387 1_554 S
H2010 C2017 0.950 . S
C2011 C2009 1.387 1_556 S
C2011 C2013 1.390 . S
C2011 H2015 0.950 . S
H2012 C2008 0.950 . S
C2013 C2011 1.390 . S
C2013 C2014 1.387 1_556 S
C2013 H2016 0.950 . S
C2014 C2013 1.387 1_554 S
C2014 C2017 1.387 . S
H2015 C2011 0.950 . S
H2016 C2013 0.950 . S
C2017 C2008 1.390 . S
C2017 H2010 0.950 . S
C2017 C2014 1.387 . S
C2018 C2019 1.387 . S
C2018 H2022 0.950 . S
C2018 C2027 1.390 . S
C2019 C2018 1.387 . S
C2019 C2021 1.387 . S
H2020 C2027 0.950 . S
C2021 C2019 1.387 . S
C2021 C2023 1.390 . S
C2021 H2025 0.950 . S
H2022 C2018 0.950 . S
C2023 C2021 1.390 . S
C2023 C2024 1.387 . S
C2023 H2026 0.950 . S
C2024 C2023 1.387 . S
C2024 C2027 1.387 . S
H2025 C2021 0.950 . S
H2026 C2023 0.950 . S
C2027 C2018 1.390 . S
C2027 H2020 0.950 . S
C2027 C2024 1.387 . S
C2028 C2029 1.387 . S
C2028 H2032 0.950 . S
C2028 C2037 1.390 . S
C2029 C2028 1.387 . S
C2029 C2031 1.387 . S
H2030 C2037 0.950 . S
C2031 C2029 1.387 . S
C2031 C2033 1.390 . S
C2031 H2035 0.950 . S
H2032 C2028 0.950 . S
C2033 C2031 1.390 . S
C2033 C2034 1.387 . S
C2033 H2036 0.950 . S
C2034 C2033 1.387 . S
C2034 C2037 1.387 . S
H2035 C2031 0.950 . S
H2036 C2033 0.950 . S
C2037 C2028 1.390 . S
C2037 H2030 0.950 . S
C2037 C2034 1.387 . S
C2038 C2039 1.387 . S
C2038 H2042 0.950 . S
C2038 C2047 1.390 . S
C2039 C2038 1.387 . S
C2039 C2041 1.387 . S
H2040 C2047 0.950 . S
C2041 C2039 1.387 . S
C2041 C2043 1.390 . S
C2041 H2045 0.950 . S
H2042 C2038 0.950 . S
C2043 C2041 1.390 . S
C2043 C2044 1.387 . S
C2043 H2046 0.950 . S
C2044 C2043 1.387 . S
C2044 C2047 1.387 . S
H2045 C2041 0.950 . S
H2046 C2043 0.950 . S
C2047 C2038 1.390 . S
C2047 H2040 0.950 . S
C2047 C2044 1.387 . S
C2048 C2049 1.387 . S
C2048 H2052 0.950 . S
C2048 C2057 1.390 . S
C2049 C2048 1.387 . S
C2049 C2051 1.387 . S
H2050 C2057 0.950 . S
C2051 C2049 1.387 . S
C2051 C2053 1.390 . S
C2051 H2055 0.950 . S
H2052 C2048 0.950 . S
C2053 C2051 1.390 . S
C2053 C2054 1.387 . S
C2053 H2056 0.950 . S
C2054 C2053 1.387 . S
C2054 C2057 1.387 . S
H2055 C2051 0.950 . S
H2056 C2053 0.950 . S
C2057 C2048 1.390 . S
C2057 H2050 0.950 . S
C2057 C2054 1.387 . S
C2058 C2059 1.395 . S
C2058 H2062 0.950 . S
C2058 C2067 1.390 . S
C2059 C2058 1.395 . S
C2059 C2061 1.387 . S
H2060 C2067 0.950 . S
C2061 C2059 1.387 . S
C2061 C2063 1.390 . S
C2061 H2065 0.950 1_556 S
H2062 C2058 0.950 . S
C2063 C2061 1.390 . S
C2063 C2064 1.387 . S
C2063 H2066 0.950 . S
C2064 C2063 1.387 . S
C2064 C2067 1.387 . S
H2065 C2061 0.950 1_554 S
H2066 C2063 0.950 . S
C2067 C2058 1.390 . S
C2067 H2060 0.950 . S
C2067 C2064 1.387 . S
C2068 C2069 1.387 . S
C2068 H2072 0.950 . S
C2068 C2077 1.390 . S
C2069 C2068 1.387 . S
C2069 C2071 1.387 . S
H2070 C2077 0.950 . S
C2071 C2069 1.387 . S
C2071 C2073 1.390 . S
C2071 H2075 0.950 . S
H2072 C2068 0.950 . S
C2073 C2071 1.390 . S
C2073 C2074 1.387 . S
C2073 H2076 0.950 . S
C2074 C2073 1.387 . S
C2074 C2077 1.387 . S
H2075 C2071 0.950 . S
H2076 C2073 0.950 . S
C2077 C2068 1.390 . S
C2077 H2070 0.950 . S
C2077 C2074 1.387 . S
C2078 C2079 1.387 . S
C2078 H2082 0.950 . S
C2078 C2087 1.390 . S
C2079 C2078 1.387 . S
C2079 C2081 1.387 1_545 S
H2080 C2087 0.950 . S
C2081 C2079 1.387 1_565 S
C2081 C2083 1.390 . S
C2081 H2085 0.950 . S
H2082 C2078 0.950 . S
C2083 C2081 1.390 . S
C2083 C2084 1.387 1_565 S
C2083 H2086 0.950 . S
C2084 C2083 1.387 1_545 S
C2084 C2087 1.387 . S
H2085 C2081 0.950 . S
H2086 C2083 0.950 . S
C2087 C2078 1.390 . S
C2087 H2080 0.950 . S
C2087 C2084 1.387 . S
C2088 C2089 1.387 . S
C2088 H2092 0.950 . S
C2088 C2097 1.390 . S
C2089 C2088 1.387 . S
C2089 C2091 1.387 . S
H2090 C2097 0.950 . S
C2091 C2089 1.387 . S
C2091 C2093 1.390 . S
C2091 H2095 0.950 . S
H2092 C2088 0.950 . S
C2093 C2091 1.390 . S
C2093 C2094 1.387 . S
C2093 H2096 0.950 . S
C2094 C2093 1.387 . S
C2094 C2097 1.387 . S
H2095 C2091 0.950 . S
H2096 C2093 0.950 . S
C2097 C2088 1.390 . S
C2097 H2090 0.950 . S
C2097 C2094 1.387 . S
C2098 C2099 1.387 . S
C2098 H2102 0.950 . S
C2098 C2107 1.390 . S
C2099 C2098 1.387 . S
C2099 C2101 1.390 . S
H2100 C2107 0.950 . S
C2101 C2099 1.390 . S
C2101 C2103 1.390 1_565 S
C2101 H2105 0.948 1_565 S
H2102 C2098 0.950 . S
C2103 C2101 1.390 1_545 S
C2103 C2104 1.387 1_545 S
C2103 H2106 0.950 . S
C2104 C2103 1.387 1_565 S
C2104 C2107 1.387 . S
H2105 C2101 0.948 1_545 S
H2106 C2103 0.950 . S
C2107 C2098 1.390 . S
C2107 H2100 0.950 . S
C2107 C2104 1.387 . S
C2108 C2109 1.387 . S
C2108 H2112 0.950 . S
C2108 C2117 1.390 . S
C2109 C2108 1.387 . S
C2109 C2111 1.387 . S
H2110 C2117 0.950 . S
C2111 C2109 1.387 . S
C2111 C2113 1.390 . S
C2111 H2115 0.950 . S
H2112 C2108 0.950 . S
C2113 C2111 1.390 . S
C2113 C2114 1.387 . S
C2113 H2116 0.950 . S
C2114 C2113 1.387 . S
C2114 C2117 1.387 . S
H2115 C2111 0.950 . S
H2116 C2113 0.950 . S
C2117 C2108 1.390 . S
C2117 H2110 0.950 . S
C2117 C2114 1.387 . S
C2118 C2119 1.387 . S
C2118 H2122 0.950 . S
C2118 C2127 1.390 . S
C2119 C2118 1.387 . S
C2119 C2121 1.387 . S
H2120 C2127 0.950 . S
C2121 C2119 1.387 . S
C2121 C2123 1.390 . S
C2121 H2125 0.950 . S
H2122 C2118 0.950 . S
C2123 C2121 1.390 . S
C2123 C2124 1.387 . S
C2123 H2126 0.950 . S
C2124 C2123 1.387 . S
C2124 C2127 1.387 . S
H2125 C2121 0.950 . S
H2126 C2123 0.950 . S
C2127 C2118 1.390 . S
C2127 H2120 0.950 . S
C2127 C2124 1.387 . S
C2128 C2129 1.387 . S
C2128 H2132 0.950 . S
C2128 C2137 1.390 . S
C2129 C2128 1.387 . S
C2129 C2131 1.387 . S
H2130 C2137 0.950 . S
C2131 C2129 1.387 . S
C2131 C2133 1.390 . S
C2131 H2135 0.950 . S
H2132 C2128 0.950 . S
C2133 C2131 1.390 . S
C2133 C2134 1.387 . S
C2133 H2136 0.950 . S
C2134 C2133 1.387 . S
C2134 C2137 1.387 . S
H2135 C2131 0.950 . S
H2136 C2133 0.950 . S
C2137 C2128 1.390 . S
C2137 H2130 0.950 . S
C2137 C2134 1.387 . S
C2138 C2139 1.387 . S
C2138 H2142 0.950 . S
C2138 C2147 1.390 . S
C2139 C2138 1.387 . S
C2139 C2141 1.387 . S
H2140 C2147 0.950 . S
C2141 C2139 1.387 . S
C2141 C2143 1.390 . S
C2141 H2145 0.950 . S
H2142 C2138 0.950 . S
C2143 C2141 1.390 . S
C2143 C2144 1.387 . S
C2143 H2146 0.950 . S
C2144 C2143 1.387 . S
C2144 C2147 1.387 . S
H2145 C2141 0.950 . S
H2146 C2143 0.950 . S
C2147 C2138 1.390 . S
C2147 H2140 0.950 . S
C2147 C2144 1.387 . S
C2148 C2149 1.387 . S
C2148 H2152 0.950 . S
C2148 C2157 1.390 . S
C2149 C2148 1.387 . S
C2149 C2151 1.387 1_655 S
H2150 C2157 0.950 . S
C2151 C2149 1.387 1_455 S
C2151 C2153 1.390 1_455 S
C2151 H2155 0.950 . S
H2152 C2148 0.950 . S
C2153 C2151 1.390 1_655 S
C2153 C2154 1.387 . S
C2153 H2156 0.950 1_655 S
C2154 C2153 1.387 . S
C2154 C2157 1.387 . S
H2155 C2151 0.950 . S
H2156 C2153 0.950 1_455 S
C2157 C2148 1.390 . S
C2157 H2150 0.950 . S
C2157 C2154 1.387 . S
C2158 C2159 1.387 . S
C2158 H2162 0.950 . S
C2158 C2167 1.390 . S
C2159 C2158 1.387 . S
C2159 C2161 1.387 . S
H2160 C2167 0.950 . S
C2161 C2159 1.387 . S
C2161 C2163 1.390 . S
C2161 H2165 0.950 . S
H2162 C2158 0.950 . S
C2163 C2161 1.390 . S
C2163 C2164 1.387 . S
C2163 H2166 0.950 . S
C2164 C2163 1.387 . S
C2164 C2167 1.387 . S
H2165 C2161 0.950 . S
H2166 C2163 0.950 . S
C2167 C2158 1.390 . S
C2167 H2160 0.950 . S
C2167 C2164 1.387 . S
C2168 C2169 1.387 . S
C2168 H2172 0.950 . S
C2168 C2177 1.390 . S
C2169 C2168 1.387 . S
C2169 C2171 1.387 . S
H2170 C2177 0.950 . S
C2171 C2169 1.387 . S
C2171 C2173 1.390 . S
C2171 H2175 0.950 . S
H2172 C2168 0.950 . S
C2173 C2171 1.390 . S
C2173 C2174 1.387 . S
C2173 H2176 0.950 . S
C2174 C2173 1.387 . S
C2174 C2177 1.387 . S
H2175 C2171 0.950 . S
H2176 C2173 0.950 . S
C2177 C2168 1.390 . S
C2177 H2170 0.950 . S
C2177 C2174 1.387 . S
C2178 C2179 1.387 . S
C2178 H2182 0.950 . S
C2178 C2187 1.390 . S
C2179 C2178 1.387 . S
C2179 C2181 1.387 . S
H2180 C2187 0.950 . S
C2181 C2179 1.387 . S
C2181 C2183 1.390 . S
C2181 H2185 0.950 . S
H2182 C2178 0.950 . S
C2183 C2181 1.390 . S
C2183 C2184 1.387 . S
C2183 H2186 0.950 . S
C2184 C2183 1.387 . S
C2184 C2187 1.387 . S
H2185 C2181 0.950 . S
H2186 C2183 0.950 . S
C2187 C2178 1.390 . S
C2187 H2180 0.950 . S
C2187 C2184 1.387 . S
C2188 C2189 1.387 . S
C2188 H2192 0.950 . S
C2188 C2197 1.390 . S
C2189 C2188 1.387 . S
C2189 C2191 1.387 . S
H2190 C2197 0.950 . S
C2191 C2189 1.387 . S
C2191 C2193 1.390 . S
C2191 H2195 0.950 . S
H2192 C2188 0.950 . S
C2193 C2191 1.390 . S
C2193 C2194 1.387 . S
C2193 H2196 0.950 . S
C2194 C2193 1.387 . S
C2194 C2197 1.387 . S
H2195 C2191 0.950 . S
H2196 C2193 0.950 . S
C2197 C2188 1.390 . S
C2197 H2190 0.950 . S
C2197 C2194 1.387 . S
C2198 C2199 1.387 1_655 S
C2198 H2202 0.950 . S
C2198 C2207 1.390 . S
C2199 C2198 1.387 1_455 S
C2199 C2201 1.387 . S
H2200 C2207 0.950 . S
C2201 C2199 1.387 . S
C2201 C2203 1.390 . S
C2201 H2205 0.952 1_554 S
H2202 C2198 0.950 . S
C2203 C2201 1.390 . S
C2203 C2204 1.387 . S
C2203 H2206 0.950 . S
C2204 C2203 1.387 . S
C2204 C2207 1.387 1_455 S
H2205 C2201 0.952 1_556 S
H2206 C2203 0.950 . S
C2207 C2198 1.390 . S
C2207 H2200 0.950 . S
C2207 C2204 1.387 1_655 S
C2208 C2209 1.387 . S
C2208 H2212 0.950 . S
C2208 C2217 1.390 . S
C2209 C2208 1.387 . S
C2209 C2211 1.387 . S
H2210 C2217 0.950 . S
C2211 C2209 1.387 . S
C2211 C2213 1.390 . S
C2211 H2215 0.950 . S
H2212 C2208 0.950 . S
C2213 C2211 1.390 . S
C2213 C2214 1.387 . S
C2213 H2216 0.950 . S
C2214 C2213 1.387 . S
C2214 C2217 1.387 . S
H2215 C2211 0.950 . S
H2216 C2213 0.950 . S
C2217 C2208 1.390 . S
C2217 H2210 0.950 . S
C2217 C2214 1.387 . S
C2218 C2219 1.387 . S
C2218 H2222 0.950 . S
C2218 C2227 1.390 . S
C2219 C2218 1.387 . S
C2219 C2221 1.387 . S
H2220 C2227 0.950 . S
C2221 C2219 1.387 . S
C2221 C2223 1.390 . S
C2221 H2225 0.950 . S
H2222 C2218 0.950 . S
C2223 C2221 1.390 . S
C2223 C2224 1.387 . S
C2223 H2226 0.950 . S
C2224 C2223 1.387 . S
C2224 C2227 1.387 . S
H2225 C2221 0.950 . S
H2226 C2223 0.950 . S
C2227 C2218 1.390 . S
C2227 H2220 0.950 . S
C2227 C2224 1.387 . S
C2228 C2229 1.387 . S
C2228 H2232 0.950 . S
C2228 C2237 1.390 . S
C2229 C2228 1.387 . S
C2229 C2231 1.387 . S
H2230 C2237 0.950 . S
C2231 C2229 1.387 . S
C2231 C2233 1.390 . S
C2231 H2235 0.950 . S
H2232 C2228 0.950 . S
C2233 C2231 1.390 . S
C2233 C2234 1.387 . S
C2233 H2236 0.950 . S
C2234 C2233 1.387 . S
C2234 C2237 1.387 . S
H2235 C2231 0.950 . S
H2236 C2233 0.950 . S
C2237 C2228 1.390 . S
C2237 H2230 0.950 . S
C2237 C2234 1.387 . S
C2238 C2239 1.387 . S
C2238 H2242 0.950 . S
C2238 C2247 1.390 . S
C2239 C2238 1.387 . S
C2239 C2241 1.387 . S
H2240 C2247 0.950 . S
C2241 C2239 1.387 . S
C2241 C2243 1.390 . S
C2241 H2245 0.950 . S
H2242 C2238 0.950 . S
C2243 C2241 1.390 . S
C2243 C2244 1.387 . S
C2243 H2246 0.950 . S
C2244 C2243 1.387 . S
C2244 C2247 1.387 . S
H2245 C2241 0.950 . S
H2246 C2243 0.950 . S
C2247 C2238 1.390 . S
C2247 H2240 0.950 . S
C2247 C2244 1.387 . S
C2248 C2249 1.387 . S
C2248 H2252 0.950 . S
C2248 C2257 1.390 . S
C2249 C2248 1.387 . S
C2249 C2251 1.387 . S
H2250 C2257 0.950 . S
C2251 C2249 1.387 . S
C2251 C2253 1.390 . S
C2251 H2255 0.950 . S
H2252 C2248 0.950 . S
C2253 C2251 1.390 . S
C2253 C2254 1.387 . S
C2253 H2256 0.950 . S
C2254 C2253 1.387 . S
C2254 C2257 1.387 . S
H2255 C2251 0.950 . S
H2256 C2253 0.950 . S
C2257 C2248 1.390 . S
C2257 H2250 0.950 . S
C2257 C2254 1.387 . S
C2258 C2259 1.387 . S
C2258 H2262 0.950 . S
C2258 C2267 1.390 . S
C2259 C2258 1.387 . S
C2259 C2261 1.387 . S
H2260 C2267 0.950 . S
C2261 C2259 1.387 . S
C2261 C2263 1.390 . S
C2261 H2265 0.950 . S
H2262 C2258 0.950 . S
C2263 C2261 1.390 . S
C2263 C2264 1.387 . S
C2263 H2266 0.950 . S
C2264 C2263 1.387 . S
C2264 C2267 1.387 . S
H2265 C2261 0.950 . S
H2266 C2263 0.950 . S
C2267 C2258 1.390 . S
C2267 H2260 0.950 . S
C2267 C2264 1.387 . S
C2268 C2269 1.387 . S
C2268 H2272 0.950 . S
C2268 C2277 1.390 . S
C2269 C2268 1.387 . S
C2269 C2271 1.387 . S
H2270 C2277 0.950 . S
C2271 C2269 1.387 . S
C2271 C2273 1.390 . S
C2271 H2275 0.950 . S
H2272 C2268 0.950 . S
C2273 C2271 1.390 . S
C2273 C2274 1.387 . S
C2273 H2276 0.950 . S
C2274 C2273 1.387 . S
C2274 C2277 1.387 . S
H2275 C2271 0.950 . S
H2276 C2273 0.950 . S
C2277 C2268 1.390 . S
C2277 H2270 0.950 . S
C2277 C2274 1.387 . S
C2278 C2279 1.387 . S
C2278 H2282 0.950 . S
C2278 C2287 1.390 . S
C2279 C2278 1.387 . S
C2279 C2281 1.387 . S
H2280 C2287 0.950 . S
C2281 C2279 1.387 . S
C2281 C2283 1.390 . S
C2281 H2285 0.950 . S
H2282 C2278 0.950 . S
C2283 C2281 1.390 . S
C2283 C2284 1.387 . S
C2283 H2286 0.950 . S
C2284 C2283 1.387 . S
C2284 C2287 1.387 . S
H2285 C2281 0.950 . S
H2286 C2283 0.950 . S
C2287 C2278 1.390 . S
C2287 H2280 0.950 . S
C2287 C2284 1.387 . S
C2288 C2289 1.387 . S
C2288 H2292 0.950 . S
C2288 C2297 1.390 . S
C2289 C2288 1.387 . S
C2289 C2291 1.387 . S
H2290 C2297 0.950 . S
C2291 C2289 1.387 . S
C2291 C2293 1.390 . S
C2291 H2295 0.950 . S
H2292 C2288 0.950 . S
C2293 C2291 1.390 . S
C2293 C2294 1.387 . S
C2293 H2296 0.950 . S
C2294 C2293 1.387 . S
C2294 C2297 1.387 . S
H2295 C2291 0.950 . S
H2296 C2293 0.950 . S
C2297 C2288 1.390 . S
C2297 H2290 0.950 . S
C2297 C2294 1.387 . S
C2298 C2299 1.387 . S
C2298 H2302 0.950 . S
C2298 C2307 1.390 . S
C2299 C2298 1.387 . S
C2299 C2301 1.387 . S
H2300 C2307 0.950 . S
C2301 C2299 1.387 . S
C2301 C2303 1.390 . S
C2301 H2305 0.950 . S
H2302 C2298 0.950 . S
C2303 C2301 1.390 . S
C2303 C2304 1.387 1_455 S
C2303 H2306 0.950 . S
C2304 C2303 1.387 1_655 S
C2304 C2307 1.387 1_655 S
H2305 C2301 0.950 . S
H2306 C2303 0.950 . S
C2307 C2298 1.390 . S
C2307 H2300 0.950 . S
C2307 C2304 1.387 1_455 S
C2308 C2309 1.387 . S
C2308 H2312 0.950 . S
C2308 C2317 1.390 . S
C2309 C2308 1.387 . S
C2309 C2311 1.387 . S
H2310 C2317 0.950 . S
C2311 C2309 1.387 . S
C2311 C2313 1.390 . S
C2311 H2315 0.950 1_556 S
H2312 C2308 0.950 . S
C2313 C2311 1.390 . S
C2313 C2314 1.387 . S
C2313 H2316 0.950 . S
C2314 C2313 1.387 . S
C2314 C2317 1.387 . S
H2315 C2311 0.950 1_554 S
H2316 C2313 0.950 . S
C2317 C2308 1.390 . S
C2317 H2310 0.950 . S
C2317 C2314 1.387 . S
C2318 C2319 1.387 . S
C2318 H2322 0.950 . S
C2318 C2327 1.390 . S
C2319 C2318 1.387 . S
C2319 C2321 1.387 . S
H2320 C2327 0.950 . S
C2321 C2319 1.387 . S
C2321 C2323 1.390 . S
C2321 H2325 0.950 . S
H2322 C2318 0.950 . S
C2323 C2321 1.390 . S
C2323 C2324 1.387 . S
C2323 H2326 0.950 . S
C2324 C2323 1.387 . S
C2324 C2327 1.387 . S
H2325 C2321 0.950 . S
H2326 C2323 0.950 . S
C2327 C2318 1.390 . S
C2327 H2320 0.950 . S
C2327 C2324 1.387 . S
C2328 C2329 1.387 . S
C2328 H2332 0.950 . S
C2328 C2337 1.390 . S
C2329 C2328 1.387 . S
C2329 C2331 1.387 . S
H2330 C2337 0.950 . S
C2331 C2329 1.387 . S
C2331 C2333 1.390 . S
C2331 H2335 0.950 . S
H2332 C2328 0.950 . S
C2333 C2331 1.390 . S
C2333 C2334 1.387 . S
C2333 H2336 0.950 . S
C2334 C2333 1.387 . S
C2334 C2337 1.387 . S
H2335 C2331 0.950 . S
H2336 C2333 0.950 . S
C2337 C2328 1.390 . S
C2337 H2330 0.950 . S
C2337 C2334 1.387 . S
C2338 C2339 1.387 . S
C2338 H2342 0.950 . S
C2338 C2347 1.390 . S
C2339 C2338 1.387 . S
C2339 C2341 1.387 . S
H2340 C2347 0.950 . S
C2341 C2339 1.387 . S
C2341 C2343 1.390 . S
C2341 H2345 0.950 . S
H2342 C2338 0.950 . S
C2343 C2341 1.390 . S
C2343 C2344 1.387 . S
C2343 H2346 0.950 . S
C2344 C2343 1.387 . S
C2344 C2347 1.387 . S
H2345 C2341 0.950 . S
H2346 C2343 0.950 . S
C2347 C2338 1.390 . S
C2347 H2340 0.950 . S
C2347 C2344 1.387 . S
C2348 C2349 1.387 . S
C2348 H2352 0.950 . S
C2348 C2357 1.390 . S
C2349 C2348 1.387 . S
C2349 C2351 1.387 . S
H2350 C2357 0.950 . S
C2351 C2349 1.387 . S
C2351 C2353 1.390 . S
C2351 H2355 0.950 . S
H2352 C2348 0.950 . S
C2353 C2351 1.390 . S
C2353 C2354 1.387 . S
C2353 H2356 0.950 . S
C2354 C2353 1.387 . S
C2354 C2357 1.387 . S
H2355 C2351 0.950 . S
H2356 C2353 0.950 . S
C2357 C2348 1.390 . S
C2357 H2350 0.950 . S
C2357 C2354 1.387 . S
C2358 C2359 1.387 1_565 S
C2358 H2362 0.950 . S
C2358 C2367 1.390 . S
C2359 C2358 1.387 1_545 S
C2359 C2361 1.387 . S
H2360 C2367 0.950 . S
C2361 C2359 1.387 . S
C2361 C2363 1.390 . S
C2361 H2365 0.950 . S
H2362 C2358 0.950 . S
C2363 C2361 1.390 . S
C2363 C2364 1.387 1_545 S
C2363 H2366 0.950 . S
C2364 C2363 1.387 1_565 S
C2364 C2367 1.387 . S
H2365 C2361 0.950 . S
H2366 C2363 0.950 . S
C2367 C2358 1.390 . S
C2367 H2360 0.950 . S
C2367 C2364 1.387 . S
C2368 C2369 1.387 . S
C2368 H2372 0.950 . S
C2368 C2377 1.390 . S
C2369 C2368 1.387 . S
C2369 C2371 1.387 . S
H2370 C2377 0.950 . S
C2371 C2369 1.387 . S
C2371 C2373 1.390 . S
C2371 H2375 0.950 . S
H2372 C2368 0.950 . S
C2373 C2371 1.390 . S
C2373 C2374 1.387 . S
C2373 H2376 0.950 . S
C2374 C2373 1.387 . S
C2374 C2377 1.387 . S
H2375 C2371 0.950 . S
H2376 C2373 0.950 . S
C2377 C2368 1.390 . S
C2377 H2370 0.950 . S
C2377 C2374 1.387 . S
C2378 C2379 1.387 1_455 S
C2378 H2382 0.950 . S
C2378 C2387 1.388 1_455 S
C2379 C2378 1.387 1_655 S
C2379 C2381 1.387 . S
H2380 C2387 0.938 1_455 S
C2381 C2379 1.387 . S
C2381 C2383 1.390 . S
C2381 H2385 0.950 . S
H2382 C2378 0.950 . S
C2383 C2381 1.390 . S
C2383 C2384 1.387 . S
C2383 H2386 0.950 . S
C2384 C2383 1.387 . S
C2384 C2387 1.402 . S
H2385 C2381 0.950 . S
H2386 C2383 0.950 . S
C2387 C2378 1.388 1_655 S
C2387 H2380 0.938 1_655 S
C2387 C2384 1.402 . S
C2388 C2389 1.387 . S
C2388 H2392 0.950 . S
C2388 C2397 1.390 . S
C2389 C2388 1.387 . S
C2389 C2391 1.387 . S
H2390 C2397 0.950 . S
C2391 C2389 1.387 . S
C2391 C2393 1.390 . S
C2391 H2395 0.950 . S
H2392 C2388 0.950 . S
C2393 C2391 1.390 . S
C2393 C2394 1.387 . S
C2393 H2396 0.950 . S
C2394 C2393 1.387 . S
C2394 C2397 1.387 . S
H2395 C2391 0.950 . S
H2396 C2393 0.950 . S
C2397 C2388 1.390 . S
C2397 H2390 0.950 . S
C2397 C2394 1.387 . S
C2398 C2399 1.387 . S
C2398 H2402 0.950 . S
C2398 C2407 1.390 . S
C2399 C2398 1.387 . S
C2399 C2401 1.387 . S
H2400 C2407 0.950 . S
C2401 C2399 1.387 . S
C2401 C2403 1.390 . S
C2401 H2405 0.950 . S
H2402 C2398 0.950 . S
C2403 C2401 1.390 . S
C2403 C2404 1.387 . S
C2403 H2406 0.950 . S
C2404 C2403 1.387 . S
C2404 C2407 1.387 . S
H2405 C2401 0.950 . S
H2406 C2403 0.950 . S
C2407 C2398 1.390 . S
C2407 H2400 0.950 . S
C2407 C2404 1.387 . S
C2408 C2409 1.387 . S
C2408 H2412 0.950 . S
C2408 C2417 1.390 . S
C2409 C2408 1.387 . S
C2409 C2411 1.387 . S
H2410 C2417 0.950 . S
C2411 C2409 1.387 . S
C2411 C2413 1.390 . S
C2411 H2415 0.950 . S
H2412 C2408 0.950 . S
C2413 C2411 1.390 . S
C2413 C2414 1.387 . S
C2413 H2416 0.950 . S
C2414 C2413 1.387 . S
C2414 C2417 1.387 . S
H2415 C2411 0.950 . S
H2416 C2413 0.950 . S
C2417 C2408 1.390 . S
C2417 H2410 0.950 . S
C2417 C2414 1.387 . S
C2418 C2419 1.387 . S
C2418 H2422 0.950 . S
C2418 C2427 1.390 . S
C2419 C2418 1.387 . S
C2419 C2421 1.387 . S
H2420 C2427 0.950 . S
C2421 C2419 1.387 . S
C2421 C2423 1.390 . S
C2421 H2425 0.950 . S
H2422 C2418 0.950 . S
C2423 C2421 1.390 . S
C2423 C2424 1.387 . S
C2423 H2426 0.950 . S
C2424 C2423 1.387 . S
C2424 C2427 1.387 . S
H2425 C2421 0.950 . S
H2426 C2423 0.950 . S
C2427 C2418 1.390 . S
C2427 H2420 0.950 . S
C2427 C2424 1.387 . S
C2428 C2429 1.387 . S
C2428 H2432 0.950 . S
C2428 C2437 1.390 . S
C2429 C2428 1.387 . S
C2429 C2431 1.387 . S
H2430 C2437 0.950 . S
C2431 C2429 1.387 . S
C2431 C2433 1.390 . S
C2431 H2435 0.950 . S
H2432 C2428 0.950 . S
C2433 C2431 1.390 . S
C2433 C2434 1.387 . S
C2433 H2436 0.950 . S
C2434 C2433 1.387 . S
C2434 C2437 1.387 . S
H2435 C2431 0.950 . S
H2436 C2433 0.950 . S
C2437 C2428 1.390 . S
C2437 H2430 0.950 . S
C2437 C2434 1.387 . S
C2438 C2439 1.387 1_565 S
C2438 H2442 0.950 . S
C2438 C2447 1.390 . S
C2439 C2438 1.387 1_545 S
C2439 C2441 1.387 . S
H2440 C2447 0.950 . S
C2441 C2439 1.387 . S
C2441 C2443 1.390 . S
C2441 H2445 0.950 . S
H2442 C2438 0.950 . S
C2443 C2441 1.390 . S
C2443 C2444 1.387 1_545 S
C2443 H2446 0.950 . S
C2444 C2443 1.387 1_565 S
C2444 C2447 1.387 . S
H2445 C2441 0.950 . S
H2446 C2443 0.950 . S
C2447 C2438 1.390 . S
C2447 H2440 0.950 . S
C2447 C2444 1.387 . S
C2448 C2449 1.387 1_554 S
C2448 H2452 0.950 . S
C2448 C2457 1.390 . S
C2449 C2448 1.387 1_556 S
C2449 C2451 1.387 . S
H2450 C2457 0.950 . S
C2451 C2449 1.387 . S
C2451 C2453 1.390 . S
C2451 H2455 0.950 . S
H2452 C2448 0.950 . S
C2453 C2451 1.390 . S
C2453 C2454 1.387 1_556 S
C2453 H2456 0.950 . S
C2454 C2453 1.387 1_554 S
C2454 C2457 1.387 . S
H2455 C2451 0.950 . S
H2456 C2453 0.950 . S
C2457 C2448 1.390 . S
C2457 H2450 0.950 . S
C2457 C2454 1.387 . S
C2458 C2459 1.387 . S
C2458 H2462 0.950 . S
C2458 C2467 1.390 . S
C2459 C2458 1.387 . S
C2459 C2461 1.387 . S
H2460 C2467 0.950 . S
C2461 C2459 1.387 . S
C2461 C2463 1.390 . S
C2461 H2465 0.950 . S
H2462 C2458 0.950 . S
C2463 C2461 1.390 . S
C2463 C2464 1.387 . S
C2463 H2466 0.950 . S
C2464 C2463 1.387 . S
C2464 C2467 1.387 . S
H2465 C2461 0.950 . S
H2466 C2463 0.950 . S
C2467 C2458 1.390 . S
C2467 H2460 0.950 . S
C2467 C2464 1.387 . S
C2468 C2469 1.387 . S
C2468 H2472 0.950 . S
C2468 C2477 1.390 . S
C2469 C2468 1.387 . S
C2469 C2471 1.387 . S
H2470 C2477 0.950 . S
C2471 C2469 1.387 . S
C2471 C2473 1.390 . S
C2471 H2475 0.950 . S
H2472 C2468 0.950 . S
C2473 C2471 1.390 . S
C2473 C2474 1.387 . S
C2473 H2476 0.950 . S
C2474 C2473 1.387 . S
C2474 C2477 1.387 . S
H2475 C2471 0.950 . S
H2476 C2473 0.950 . S
C2477 C2468 1.390 . S
C2477 H2470 0.950 . S
C2477 C2474 1.387 . S
C2478 C2479 1.387 1_565 S
C2478 H2482 0.950 . S
C2478 C2487 1.390 . S
C2479 C2478 1.387 1_545 S
C2479 C2481 1.387 . S
H2480 C2487 0.950 . S
C2481 C2479 1.387 . S
C2481 C2483 1.390 . S
C2481 H2485 0.950 . S
H2482 C2478 0.950 . S
C2483 C2481 1.390 . S
C2483 C2484 1.387 . S
C2483 H2486 0.950 . S
C2484 C2483 1.387 . S
C2484 C2487 1.387 1_545 S
H2485 C2481 0.950 . S
H2486 C2483 0.950 . S
C2487 C2478 1.390 . S
C2487 H2480 0.950 . S
C2487 C2484 1.387 1_565 S
C2488 C2489 1.387 . S
C2488 H2492 0.950 . S
C2488 C2497 1.390 . S
C2489 C2488 1.387 . S
C2489 C2491 1.387 . S
H2490 C2497 0.950 . S
C2491 C2489 1.387 . S
C2491 C2493 1.390 . S
C2491 H2495 0.950 . S
H2492 C2488 0.950 . S
C2493 C2491 1.390 . S
C2493 C2494 1.387 . S
C2493 H2496 0.950 . S
C2494 C2493 1.387 . S
C2494 C2497 1.387 . S
H2495 C2491 0.950 . S
H2496 C2493 0.950 . S
C2497 C2488 1.390 . S
C2497 H2490 0.950 . S
C2497 C2494 1.387 . S
C2498 C2499 1.387 . S
C2498 H2502 0.950 . S
C2498 C2507 1.390 . S
C2499 C2498 1.387 . S
C2499 C2501 1.387 . S
H2500 C2507 0.950 . S
C2501 C2499 1.387 . S
C2501 C2503 1.390 . S
C2501 H2505 0.950 . S
H2502 C2498 0.950 . S
C2503 C2501 1.390 . S
C2503 C2504 1.387 . S
C2503 H2506 0.950 . S
C2504 C2503 1.387 . S
C2504 C2507 1.387 . S
H2505 C2501 0.950 . S
H2506 C2503 0.950 . S
C2507 C2498 1.390 . S
C2507 H2500 0.950 . S
C2507 C2504 1.387 . S
C2508 C2509 1.387 . S
C2508 H2512 0.950 . S
C2508 C2517 1.390 . S
C2509 C2508 1.387 . S
C2509 C2511 1.387 1_554 S
H2510 C2517 0.950 . S
C2511 C2509 1.387 1_556 S
C2511 C2513 1.390 . S
C2511 H2515 0.950 . S
H2512 C2508 0.950 . S
C2513 C2511 1.390 . S
C2513 C2514 1.387 . S
C2513 H2516 0.950 . S
C2514 C2513 1.387 . S
C2514 C2517 1.387 1_556 S
H2515 C2511 0.950 . S
H2516 C2513 0.950 . S
C2517 C2508 1.390 . S
C2517 H2510 0.950 . S
C2517 C2514 1.387 1_554 S
C2518 C2519 1.387 . S
C2518 H2522 0.950 . S
C2518 C2527 1.390 . S
C2519 C2518 1.387 . S
C2519 C2521 1.387 . S
H2520 C2527 0.950 . S
C2521 C2519 1.387 . S
C2521 C2523 1.390 . S
C2521 H2525 0.950 . S
H2522 C2518 0.950 . S
C2523 C2521 1.390 . S
C2523 C2524 1.387 . S
C2523 H2526 0.950 . S
C2524 C2523 1.387 . S
C2524 C2527 1.387 . S
H2525 C2521 0.950 . S
H2526 C2523 0.950 . S
C2527 C2518 1.390 . S
C2527 H2520 0.950 . S
C2527 C2524 1.387 . S
C2528 C2529 1.387 . S
C2528 H2532 0.950 . S
C2528 C2537 1.390 . S
C2529 C2528 1.387 . S
C2529 C2531 1.387 . S
H2530 C2537 0.950 . S
C2531 C2529 1.387 . S
C2531 C2533 1.390 . S
C2531 H2535 0.950 . S
H2532 C2528 0.950 . S
C2533 C2531 1.390 . S
C2533 C2534 1.387 . S
C2533 H2536 0.950 . S
C2534 C2533 1.387 . S
C2534 C2537 1.387 . S
H2535 C2531 0.950 . S
H2536 C2533 0.950 . S
C2537 C2528 1.390 . S
C2537 H2530 0.950 . S
C2537 C2534 1.387 . S
C2538 C2539 1.363 1_556 S
C2538 H2542 0.974 . S
C2538 C2547 1.391 . S
C2539 C2538 1.363 1_554 S
C2539 C2541 1.387 . S
H2540 C2547 0.950 . S
C2541 C2539 1.387 . S
C2541 C2543 1.390 . S
C2541 H2545 0.950 . S
H2542 C2538 0.974 . S
C2543 C2541 1.390 . S
C2543 C2544 1.387 . S
C2543 H2546 0.950 . S
C2544 C2543 1.387 . S
C2544 C2547 1.387 1_554 S
H2545 C2541 0.950 . S
H2546 C2543 0.950 . S
C2547 C2538 1.391 . S
C2547 H2540 0.950 . S
C2547 C2544 1.387 1_556 S
C2548 C2549 1.387 . S
C2548 H2552 0.950 . S
C2548 C2557 1.390 . S
C2549 C2548 1.387 . S
C2549 C2551 1.387 . S
H2550 C2557 0.950 . S
C2551 C2549 1.387 . S
C2551 C2553 1.390 . S
C2551 H2555 0.950 . S
H2552 C2548 0.950 . S
C2553 C2551 1.390 . S
C2553 C2554 1.387 . S
C2553 H2556 0.950 . S
C2554 C2553 1.387 . S
C2554 C2557 1.387 . S
H2555 C2551 0.950 . S
H2556 C2553 0.950 . S
C2557 C2548 1.390 . S
C2557 H2550 0.950 . S
C2557 C2554 1.387 . S
C2558 C2559 1.387 . S
C2558 H2562 0.950 . S
C2558 C2567 1.390 . S
C2559 C2558 1.387 . S
C2559 C2561 1.387 . S
H2560 C2567 0.950 . S
C2561 C2559 1.387 . S
C2561 C2563 1.390 . S
C2561 H2565 0.950 . S
H2562 C2558 0.950 . S
C2563 C2561 1.390 . S
C2563 C2564 1.387 . S
C2563 H2566 0.950 . S
C2564 C2563 1.387 . S
C2564 C2567 1.387 . S
H2565 C2561 0.950 . S
H2566 C2563 0.950 . S
C2567 C2558 1.390 . S
C2567 H2560 0.950 . S
C2567 C2564 1.387 . S
C2568 C2569 1.387 . S
C2568 H2572 0.950 . S
C2568 C2577 1.390 . S
C2569 C2568 1.387 . S
C2569 C2571 1.387 . S
H2570 C2577 0.950 . S
C2571 C2569 1.387 . S
C2571 C2573 1.390 . S
C2571 H2575 0.950 . S
H2572 C2568 0.950 . S
C2573 C2571 1.390 . S
C2573 C2574 1.387 . S
C2573 H2576 0.950 . S
C2574 C2573 1.387 . S
C2574 C2577 1.387 . S
H2575 C2571 0.950 . S
H2576 C2573 0.950 . S
C2577 C2568 1.390 . S
C2577 H2570 0.950 . S
C2577 C2574 1.387 . S
C2578 C2579 1.387 . S
C2578 H2582 0.950 . S
C2578 C2587 1.390 . S
C2579 C2578 1.387 . S
C2579 C2581 1.387 . S
H2580 C2587 0.950 . S
C2581 C2579 1.387 . S
C2581 C2583 1.390 . S
C2581 H2585 0.950 . S
H2582 C2578 0.950 . S
C2583 C2581 1.390 . S
C2583 C2584 1.387 . S
C2583 H2586 0.950 . S
C2584 C2583 1.387 . S
C2584 C2587 1.387 . S
H2585 C2581 0.950 . S
H2586 C2583 0.950 . S
C2587 C2578 1.390 . S
C2587 H2580 0.950 . S
C2587 C2584 1.387 . S
C2588 C2589 1.403 . S
C2588 H2592 0.936 1_455 S
C2588 C2597 1.389 1_455 S
C2589 C2588 1.403 . S
C2589 C2591 1.387 . S
H2590 C2597 0.950 . S
C2591 C2589 1.387 . S
C2591 C2593 1.390 . S
C2591 H2595 0.950 . S
H2592 C2588 0.936 1_655 S
C2593 C2591 1.390 . S
C2593 C2594 1.387 . S
C2593 H2596 0.950 . S
C2594 C2593 1.387 . S
C2594 C2597 1.387 1_455 S
H2595 C2591 0.950 . S
H2596 C2593 0.950 . S
C2597 C2588 1.389 1_655 S
C2597 H2590 0.950 . S
C2597 C2594 1.387 1_655 S
C2598 C2599 1.387 . S
C2598 H2602 0.950 . S
C2598 C2607 1.390 1_655 S
C2599 C2598 1.387 . S
C2599 C2601 1.387 . S
H2600 C2607 0.950 . S
C2601 C2599 1.387 . S
C2601 C2603 1.390 1_655 S
C2601 H2605 0.950 . S
H2602 C2598 0.950 . S
C2603 C2601 1.390 1_455 S
C2603 C2604 1.387 . S
C2603 H2606 0.950 . S
C2604 C2603 1.387 . S
C2604 C2607 1.387 . S
H2605 C2601 0.950 . S
H2606 C2603 0.950 . S
C2607 C2598 1.390 1_455 S
C2607 H2600 0.950 . S
C2607 C2604 1.387 . S
C2608 C2609 1.387 . S
C2608 H2612 0.950 . S
C2608 C2617 1.390 . S
C2609 C2608 1.387 . S
C2609 C2611 1.387 . S
H2610 C2617 0.950 . S
C2611 C2609 1.387 . S
C2611 C2613 1.390 . S
C2611 H2615 0.950 . S
H2612 C2608 0.950 . S
C2613 C2611 1.390 . S
C2613 C2614 1.387 . S
C2613 H2616 0.950 . S
C2614 C2613 1.387 . S
C2614 C2617 1.387 . S
H2615 C2611 0.950 . S
H2616 C2613 0.950 . S
C2617 C2608 1.390 . S
C2617 H2610 0.950 . S
C2617 C2614 1.387 . S
C2618 C2619 1.387 . S
C2618 H2622 0.950 . S
C2618 C2627 1.390 . S
C2619 C2618 1.387 . S
C2619 C2621 1.387 . S
H2620 C2627 0.950 . S
C2621 C2619 1.387 . S
C2621 C2623 1.390 . S
C2621 H2625 0.950 . S
H2622 C2618 0.950 . S
C2623 C2621 1.390 . S
C2623 C2624 1.387 . S
C2623 H2626 0.950 . S
C2624 C2623 1.387 . S
C2624 C2627 1.387 . S
H2625 C2621 0.950 . S
H2626 C2623 0.950 . S
C2627 C2618 1.390 . S
C2627 H2620 0.950 . S
C2627 C2624 1.387 . S
C2628 C2629 1.387 . S
C2628 H2632 0.950 . S
C2628 C2637 1.390 . S
C2629 C2628 1.387 . S
C2629 C2631 1.387 . S
H2630 C2637 0.950 . S
C2631 C2629 1.387 . S
C2631 C2633 1.390 . S
C2631 H2635 0.950 . S
H2632 C2628 0.950 . S
C2633 C2631 1.390 . S
C2633 C2634 1.387 . S
C2633 H2636 0.950 . S
C2634 C2633 1.387 . S
C2634 C2637 1.387 . S
H2635 C2631 0.950 . S
H2636 C2633 0.950 . S
C2637 C2628 1.390 . S
C2637 H2630 0.950 . S
C2637 C2634 1.387 . S
C2638 C2639 1.387 . S
C2638 H2642 0.950 . S
C2638 C2647 1.390 . S
C2639 C2638 1.387 . S
C2639 C2641 1.387 . S
H2640 C2647 0.950 . S
C2641 C2639 1.387 . S
C2641 C2643 1.390 . S
C2641 H2645 0.950 . S
H2642 C2638 0.950 . S
C2643 C2641 1.390 . S
C2643 C2644 1.387 . S
C2643 H2646 0.950 . S
C2644 C2643 1.387 . S
C2644 C2647 1.387 . S
H2645 C2641 0.950 . S
H2646 C2643 0.950 . S
C2647 C2638 1.390 . S
C2647 H2640 0.950 . S
C2647 C2644 1.387 . S
C2648 C2649 1.387 . S
C2648 H2652 0.950 . S
C2648 C2657 1.390 . S
C2649 C2648 1.387 . S
C2649 C2651 1.387 . S
H2650 C2657 0.950 . S
C2651 C2649 1.387 . S
C2651 C2653 1.390 . S
C2651 H2655 0.950 . S
H2652 C2648 0.950 . S
C2653 C2651 1.390 . S
C2653 C2654 1.387 . S
C2653 H2656 0.950 . S
C2654 C2653 1.387 . S
C2654 C2657 1.387 . S
H2655 C2651 0.950 . S
H2656 C2653 0.950 . S
C2657 C2648 1.390 . S
C2657 H2650 0.950 . S
C2657 C2654 1.387 . S
C2658 C2659 1.387 1_545 S
C2658 H2662 0.950 . S
C2658 C2667 1.390 . S
C2659 C2658 1.387 1_565 S
C2659 C2661 1.387 . S
H2660 C2667 0.950 . S
C2661 C2659 1.387 . S
C2661 C2663 1.390 . S
C2661 H2665 0.950 . S
H2662 C2658 0.950 . S
C2663 C2661 1.390 . S
C2663 C2664 1.387 . S
C2663 H2666 0.950 . S
C2664 C2663 1.387 . S
C2664 C2667 1.387 1_565 S
H2665 C2661 0.950 . S
H2666 C2663 0.950 . S
C2667 C2658 1.390 . S
C2667 H2660 0.950 . S
C2667 C2664 1.387 1_545 S
C2668 C2669 1.387 . S
C2668 H2672 0.950 . S
C2668 C2677 1.390 . S
C2669 C2668 1.387 . S
C2669 C2671 1.387 . S
H2670 C2677 0.950 . S
C2671 C2669 1.387 . S
C2671 C2673 1.390 . S
C2671 H2675 0.950 . S
H2672 C2668 0.950 . S
C2673 C2671 1.390 . S
C2673 C2674 1.387 . S
C2673 H2676 0.950 . S
C2674 C2673 1.387 . S
C2674 C2677 1.387 . S
H2675 C2671 0.950 . S
H2676 C2673 0.950 . S
C2677 C2668 1.390 . S
C2677 H2670 0.950 . S
C2677 C2674 1.387 . S
C2678 C2679 1.387 . S
C2678 H2682 0.950 . S
C2678 C2687 1.390 . S
C2679 C2678 1.387 . S
C2679 C2681 1.387 . S
H2680 C2687 0.950 . S
C2681 C2679 1.387 . S
C2681 C2683 1.390 . S
C2681 H2685 0.950 . S
H2682 C2678 0.950 . S
C2683 C2681 1.390 . S
C2683 C2684 1.387 . S
C2683 H2686 0.950 . S
C2684 C2683 1.387 . S
C2684 C2687 1.387 . S
H2685 C2681 0.950 . S
H2686 C2683 0.950 . S
C2687 C2678 1.390 . S
C2687 H2680 0.950 . S
C2687 C2684 1.387 . S
C1729 C974 1.186 . S
C1734 C2 1.018 . S
C1739 C40 1.216 . S
C1744 C1372 1.325 . S
C1749 C74 0.783 . S
C1754 C902 0.802 . S
C1759 C1444 0.916 . S
C1764 C112 0.920 . S
C1769 C1012 1.356 . S
C1774 C148 1.134 . S
C1779 C182 1.112 . S
C1784 C794 1.252 . S
C1789 C1084 1.095 . S
C1794 C220 1.040 . S
C1799 C254 0.682 . S
C1804 C722 0.616 . S
C1809 C1264 1.354 . S
C1814 C256 1.213 . S
C1819 C1192 0.983 . S
C1824 C146 0.992 . S
C1829 C184 1.201 . S
C1834 C1516 1.099 . S
C1839 C1226 0.642 1_455 S
C1844 C218 0.735 . S
C1849 C290 1.196 . S
C1854 C470 1.107 . S
C1859 C506 0.760 . S
C1864 C328 0.754 . S
C1869 C544 1.184 . S
C1874 C362 1.168 . S
C1879 C434 1.029 . S
C1884 C400 1.089 . S
C1889 C472 1.183 . S
C1894 C866 1.160 . S
C1899 C508 1.481 . S
C1904 C1408 1.455 . S
C1909 C938 0.787 . S
C1914 C542 0.763 . S
C1919 C976 1.208 . S
C1924 C578 1.301 . S
C1929 C616 0.954 . S
C1934 C1048 1.112 . S
C1939 C652 1.031 . S
C1944 C110 1.060 . S
C1949 C686 0.950 . S
C1954 C38 0.946 . S
C1959 C1588 0.810 . S
C1964 C760 0.818 . S
C1969 C1660 1.557 . S
C1974 C832 1.674 . S
C1979 C868 1.090 . S
C1984 C292 1.051 . S
C1989 C940 1.030 . S
C1994 C364 0.840 . S
C1999 C904 1.283 . S
C2004 C1552 1.039 . S
C2009 C1190 0.885 . S
C2014 C1010 0.962 . S
C2019 C1228 1.208 . S
C2024 C1082 0.824 . S
C2029 C1156 1.275 . S
C2034 C1120 1.087 . S
C2039 C614 0.961 . S
C2044 C1624 0.958 . S
C2049 C1300 0.703 . S
C2054 C830 0.641 . S
C2059 C758 1.115 . S
C2064 C1334 1.264 . S
C2069 C1694 1.116 . S
C2074 C1118 1.231 . S
C2079 C1046 1.128 . S
C2084 C1622 0.947 . S
C2089 C326 1.000 . S
C2094 C1406 1.056 . S
C2099 C398 1.374 . S
C2104 C1478 1.420 . S
C2109 C436 0.780 . S
C2114 C1480 0.902 . S
C2119 C688 0.809 . S
C2124 C1370 0.843 . S
C2129 C650 1.414 . S
C2134 C1442 1.250 . S
C2139 C796 0.958 . S
C2144 C1514 0.963 . S
C2149 C724 1.078 . S
C2154 C1262 0.900 . S
C2159 C1586 0.842 . S
C2164 C1336 1.017 . S
C2169 C1658 0.940 . S
C2174 C1298 0.904 . S
C2179 C1696 1.129 . S
C2184 C1154 1.044 . S
C2189 C1550 0.989 . S
C2194 C76 1.009 . S
C2199 C580 0.375 . S
C2204 C4 0.612 . S
C2209 C3 1.602 . S
C2214 C1670 1.341 . S
C2219 C50 1.286 . S
C2224 C1695 1.350 . S
C2229 C75 1.966 . S
C2234 C1598 1.890 . S
C2239 C122 1.365 . S
C2244 C1623 1.626 . S
C2249 C158 1.515 . S
C2254 C327 1.717 . S
C2259 C183 1.394 . S
C2264 C374 1.412 . S
C2269 C230 1.710 . S
C2274 C399 1.746 . S
C2279 C255 1.740 . S
C2284 C302 1.240 . S
C2289 C266 1.509 . S
C2294 C1418 1.415 . S
C2299 C147 2.575 . S
C2304 C939 2.326 . S
C2309 C194 2.458 1_556 S
C2314 C1490 1.802 . S
C2319 C219 1.632 . S
C2324 C867 1.537 . S
C2329 C291 2.432 . S
C2334 C831 2.166 . S
C2339 C338 1.513 . S
C2344 C1130 1.370 . S
C2349 C363 1.829 . S
C2354 C759 1.835 . S
C2359 C1058 1.637 . S
C2364 C410 2.054 . S
C2369 C435 1.736 . S
C2374 C698 1.590 . S
C2379 C482 2.213 . S
C2384 C590 1.685 . S
C2389 C687 1.864 . S
C2394 C518 1.482 . S
C2399 C1551 1.896 . S
C2404 C543 1.964 . S
C2409 C554 2.422 . S
C2414 C579 2.129 . S
C2419 C1299 1.551 . S
C2424 C626 1.396 . S
C2429 C446 1.613 1_556 S
C2434 C662 1.293 . S
C2439 C1454 2.478 . S
C2444 C723 2.179 . S
C2449 C1479 2.121 . S
C2454 C770 2.074 . S
C2459 C795 1.794 . S
C2464 C1382 1.197 . S
C2469 C1407 1.890 . S
C2474 C842 1.546 . S
C2479 C878 1.940 . S
C2484 C1047 1.740 . S
C2489 C1094 2.539 . S
C2494 C903 2.479 . S
C2499 C950 1.885 . S
C2504 C1119 2.800 . S
C2509 C1022 1.547 . S
C2514 C975 1.898 . S
C2519 C986 1.442 . S
C2524 C1634 1.414 . S
C2529 C1706 2.412 . S
C2534 C914 1.462 . S
C2539 C1011 1.622 . S
C2544 C111 1.906 . S
C2549 C39 1.927 . S
C2554 C1083 1.985 . S
C2559 C1346 1.554 . S
C2564 C1166 2.217 . S
C2569 C1263 1.667 . S
C2574 C1202 1.451 . S
C2579 C615 2.271 . S
C2584 C1335 2.086 1_554 S
C2589 C1227 2.155 . S
C2594 C1515 2.539 1_455 S
C2599 C1274 2.496 . S
C2604 C1238 1.785 . S
C2609 C507 1.930 . S
C2614 C651 2.070 . S
C2619 C1155 1.660 . S
C2624 C1310 1.728 . S
C2629 C1659 2.342 . S
C2634 C1371 2.269 . S
C2639 C1443 1.293 . S
C2644 C1587 1.336 . S
C2649 C14 1.625 . S
C2654 C806 1.448 . S
C2659 C734 1.633 . S
C2664 C86 2.265 . S
C2669 C1191 1.510 . S
C2674 C1526 1.252 . S
C2679 C471 1.419 . S
C2684 C1562 1.445 . S
