# Generated by pormake.
# Topology ukj, (4)-cn, num edge types: 1
# Building blocks:
#     Node 0, Type 0, BuildingBlock: KOZSID_clean_sbu_0, # of connection points: 4
#     Node 1, Type 0, BuildingBlock: KOZSID_clean_sbu_0, # of connection points: 4
#     Node 2, Type 0, BuildingBlock: KOZSID_clean_sbu_0, # of connection points: 4
#     Node 3, Type 0, BuildingBlock: KOZSID_clean_sbu_0, # of connection points: 4
#     Node 4, Type 0, BuildingBlock: KOZSID_clean_sbu_0, # of connection points: 4
#     Node 5, Type 0, BuildingBlock: KOZSID_clean_sbu_0, # of connection points: 4
#     Node 6, Type 0, BuildingBlock: KOZSID_clean_sbu_0, # of connection points: 4
#     Node 7, Type 0, BuildingBlock: KOZSID_clean_sbu_0, # of connection points: 4
#     Node 8, Type 0, BuildingBlock: KOZSID_clean_sbu_0, # of connection points: 4
#     Node 9, Type 0, BuildingBlock: KOZSID_clean_sbu_0, # of connection points: 4
#     Node 10, Type 0, BuildingBlock: KOZSID_clean_sbu_0, # of connection points: 4
#     Node 11, Type 0, BuildingBlock: KOZSID_clean_sbu_0, # of connection points: 4
#     Node 12, Type 0, BuildingBlock: KOZSID_clean_sbu_0, # of connection points: 4
#     Node 13, Type 0, BuildingBlock: KOZSID_clean_sbu_0, # of connection points: 4
#     Node 14, Type 0, BuildingBlock: KOZSID_clean_sbu_0, # of connection points: 4
#     Node 15, Type 0, BuildingBlock: KOZSID_clean_sbu_0, # of connection points: 4
#     Node 16, Type 0, BuildingBlock: KOZSID_clean_sbu_0, # of connection points: 4
#     Node 17, Type 0, BuildingBlock: KOZSID_clean_sbu_0, # of connection points: 4
#     Node 18, Type 0, BuildingBlock: KOZSID_clean_sbu_0, # of connection points: 4
#     Node 19, Type 0, BuildingBlock: KOZSID_clean_sbu_0, # of connection points: 4
#     Node 20, Type 0, BuildingBlock: KOZSID_clean_sbu_0, # of connection points: 4
#     Node 21, Type 0, BuildingBlock: KOZSID_clean_sbu_0, # of connection points: 4
#     Node 22, Type 0, BuildingBlock: KOZSID_clean_sbu_0, # of connection points: 4
#     Node 23, Type 0, BuildingBlock: KOZSID_clean_sbu_0, # of connection points: 4
#     Node 24, Type 0, BuildingBlock: KOZSID_clean_sbu_0, # of connection points: 4
#     Node 25, Type 0, BuildingBlock: KOZSID_clean_sbu_0, # of connection points: 4
#     Node 26, Type 0, BuildingBlock: KOZSID_clean_sbu_0, # of connection points: 4
#     Node 27, Type 0, BuildingBlock: KOZSID_clean_sbu_0, # of connection points: 4
#     Node 28, Type 0, BuildingBlock: KOZSID_clean_sbu_0, # of connection points: 4
#     Node 29, Type 0, BuildingBlock: KOZSID_clean_sbu_0, # of connection points: 4
#     Node 30, Type 0, BuildingBlock: KOZSID_clean_sbu_0, # of connection points: 4
#     Node 31, Type 0, BuildingBlock: KOZSID_clean_sbu_0, # of connection points: 4
#     Edge 32, Type (0, 0), BuildingBlock: CIFDUS_clean_linker_0, # of connection points: 2
#     Edge 33, Type (0, 0), BuildingBlock: CIFDUS_clean_linker_0, # of connection points: 2
#     Edge 34, Type (0, 0), BuildingBlock: CIFDUS_clean_linker_0, # of connection points: 2
#     Edge 35, Type (0, 0), BuildingBlock: CIFDUS_clean_linker_0, # of connection points: 2
#     Edge 36, Type (0, 0), BuildingBlock: CIFDUS_clean_linker_0, # of connection points: 2
#     Edge 37, Type (0, 0), BuildingBlock: CIFDUS_clean_linker_0, # of connection points: 2
#     Edge 38, Type (0, 0), BuildingBlock: CIFDUS_clean_linker_0, # of connection points: 2
#     Edge 39, Type (0, 0), BuildingBlock: CIFDUS_clean_linker_0, # of connection points: 2
#     Edge 40, Type (0, 0), BuildingBlock: CIFDUS_clean_linker_0, # of connection points: 2
#     Edge 41, Type (0, 0), BuildingBlock: CIFDUS_clean_linker_0, # of connection points: 2
#     Edge 42, Type (0, 0), BuildingBlock: CIFDUS_clean_linker_0, # of connection points: 2
#     Edge 43, Type (0, 0), BuildingBlock: CIFDUS_clean_linker_0, # of connection points: 2
#     Edge 44, Type (0, 0), BuildingBlock: CIFDUS_clean_linker_0, # of connection points: 2
#     Edge 45, Type (0, 0), BuildingBlock: CIFDUS_clean_linker_0, # of connection points: 2
#     Edge 46, Type (0, 0), BuildingBlock: CIFDUS_clean_linker_0, # of connection points: 2
#     Edge 47, Type (0, 0), BuildingBlock: CIFDUS_clean_linker_0, # of connection points: 2
#     Edge 48, Type (0, 0), BuildingBlock: CIFDUS_clean_linker_0, # of connection points: 2
#     Edge 49, Type (0, 0), BuildingBlock: CIFDUS_clean_linker_0, # of connection points: 2
#     Edge 50, Type (0, 0), BuildingBlock: CIFDUS_clean_linker_0, # of connection points: 2
#     Edge 51, Type (0, 0), BuildingBlock: CIFDUS_clean_linker_0, # of connection points: 2
#     Edge 52, Type (0, 0), BuildingBlock: CIFDUS_clean_linker_0, # of connection points: 2
#     Edge 53, Type (0, 0), BuildingBlock: CIFDUS_clean_linker_0, # of connection points: 2
#     Edge 54, Type (0, 0), BuildingBlock: CIFDUS_clean_linker_0, # of connection points: 2
#     Edge 55, Type (0, 0), BuildingBlock: CIFDUS_clean_linker_0, # of connection points: 2
#     Edge 56, Type (0, 0), BuildingBlock: CIFDUS_clean_linker_0, # of connection points: 2
#     Edge 57, Type (0, 0), BuildingBlock: CIFDUS_clean_linker_0, # of connection points: 2
#     Edge 58, Type (0, 0), BuildingBlock: CIFDUS_clean_linker_0, # of connection points: 2
#     Edge 59, Type (0, 0), BuildingBlock: CIFDUS_clean_linker_0, # of connection points: 2
#     Edge 60, Type (0, 0), BuildingBlock: CIFDUS_clean_linker_0, # of connection points: 2
#     Edge 61, Type (0, 0), BuildingBlock: CIFDUS_clean_linker_0, # of connection points: 2
#     Edge 62, Type (0, 0), BuildingBlock: CIFDUS_clean_linker_0, # of connection points: 2
#     Edge 63, Type (0, 0), BuildingBlock: CIFDUS_clean_linker_0, # of connection points: 2
#     Edge 64, Type (0, 0), BuildingBlock: CIFDUS_clean_linker_0, # of connection points: 2
#     Edge 65, Type (0, 0), BuildingBlock: CIFDUS_clean_linker_0, # of connection points: 2
#     Edge 66, Type (0, 0), BuildingBlock: CIFDUS_clean_linker_0, # of connection points: 2
#     Edge 67, Type (0, 0), BuildingBlock: CIFDUS_clean_linker_0, # of connection points: 2
#     Edge 68, Type (0, 0), BuildingBlock: CIFDUS_clean_linker_0, # of connection points: 2
#     Edge 69, Type (0, 0), BuildingBlock: CIFDUS_clean_linker_0, # of connection points: 2
#     Edge 70, Type (0, 0), BuildingBlock: CIFDUS_clean_linker_0, # of connection points: 2
#     Edge 71, Type (0, 0), BuildingBlock: CIFDUS_clean_linker_0, # of connection points: 2
#     Edge 72, Type (0, 0), BuildingBlock: CIFDUS_clean_linker_0, # of connection points: 2
#     Edge 73, Type (0, 0), BuildingBlock: CIFDUS_clean_linker_0, # of connection points: 2
#     Edge 74, Type (0, 0), BuildingBlock: CIFDUS_clean_linker_0, # of connection points: 2
#     Edge 75, Type (0, 0), BuildingBlock: CIFDUS_clean_linker_0, # of connection points: 2
#     Edge 76, Type (0, 0), BuildingBlock: CIFDUS_clean_linker_0, # of connection points: 2
#     Edge 77, Type (0, 0), BuildingBlock: CIFDUS_clean_linker_0, # of connection points: 2
#     Edge 78, Type (0, 0), BuildingBlock: CIFDUS_clean_linker_0, # of connection points: 2
#     Edge 79, Type (0, 0), BuildingBlock: CIFDUS_clean_linker_0, # of connection points: 2
#     Edge 80, Type (0, 0), BuildingBlock: CIFDUS_clean_linker_0, # of connection points: 2
#     Edge 81, Type (0, 0), BuildingBlock: CIFDUS_clean_linker_0, # of connection points: 2
#     Edge 82, Type (0, 0), BuildingBlock: CIFDUS_clean_linker_0, # of connection points: 2
#     Edge 83, Type (0, 0), BuildingBlock: CIFDUS_clean_linker_0, # of connection points: 2
#     Edge 84, Type (0, 0), BuildingBlock: CIFDUS_clean_linker_0, # of connection points: 2
#     Edge 85, Type (0, 0), BuildingBlock: CIFDUS_clean_linker_0, # of connection points: 2
#     Edge 86, Type (0, 0), BuildingBlock: CIFDUS_clean_linker_0, # of connection points: 2
#     Edge 87, Type (0, 0), BuildingBlock: CIFDUS_clean_linker_0, # of connection points: 2
#     Edge 88, Type (0, 0), BuildingBlock: CIFDUS_clean_linker_0, # of connection points: 2
#     Edge 89, Type (0, 0), BuildingBlock: CIFDUS_clean_linker_0, # of connection points: 2
#     Edge 90, Type (0, 0), BuildingBlock: CIFDUS_clean_linker_0, # of connection points: 2
#     Edge 91, Type (0, 0), BuildingBlock: CIFDUS_clean_linker_0, # of connection points: 2
#     Edge 92, Type (0, 0), BuildingBlock: CIFDUS_clean_linker_0, # of connection points: 2
#     Edge 93, Type (0, 0), BuildingBlock: CIFDUS_clean_linker_0, # of connection points: 2
#     Edge 94, Type (0, 0), BuildingBlock: CIFDUS_clean_linker_0, # of connection points: 2
#     Edge 95, Type (0, 0), BuildingBlock: CIFDUS_clean_linker_0, # of connection points: 2
# Relax obj value: 0.006
# Max RMSD: 0.175
# Mean RMSD: 0.175
data_MOF--net-ukj--node1-KOZSID_clean_sbu_0--edge1-CIFDUS_clean_linker_0
_symmetry_space_group_name_H-M    P1
_symmetry_Int_Tables_number       1
_symmetry_cell_setting            triclinic
loop_
_symmetry_equiv_pos_as_xyz
'x, y, z'
_cell_length_a     40.325124
_cell_length_b     69.153646
_cell_length_c     54.884482
_cell_angle_alpha  89.925383
_cell_angle_beta   90.053248
_cell_angle_gamma 90.055122
loop_
_atom_site_label
_atom_site_type_symbol
_atom_site_fract_x
_atom_site_fract_y
_atom_site_fract_z
_atom_type_partial_charge
C0 C 0.17689 0.36957 0.29071 0.0
C1 C 0.16427 0.38818 0.29297 0.0
C2 C 0.15282 0.39343 0.27056 0.0
C3 C 0.15928 0.37792 0.25584 0.0
N4 N 0.17422 0.36307 0.26743 0.0
Co5 Co 0.18863 0.33818 0.25219 0.0
N6 N 0.18133 0.34845 0.21842 0.0
C7 C 0.16764 0.36562 0.21262 0.0
C8 C 0.16663 0.36926 0.18811 0.0
C9 C 0.17986 0.35321 0.17752 0.0
C10 C 0.18808 0.34055 0.19628 0.0
N11 N 0.20154 0.31302 0.23683 0.0
C12 C 0.20246 0.30756 0.21298 0.0
C13 C 0.2088 0.28795 0.2107 0.0
C14 C 0.21116 0.28069 0.23383 0.0
C15 C 0.20613 0.29623 0.2489 0.0
N16 N 0.19743 0.32849 0.28601 0.0
C17 C 0.2034 0.30998 0.29225 0.0
C18 C 0.20862 0.30747 0.31677 0.0
C19 C 0.20558 0.32553 0.32676 0.0
C20 C 0.19866 0.3381 0.30772 0.0
N21 N 0.14217 0.32797 0.25375 0.0
C22 C 0.08655 0.30269 0.25625 0.0
C23 C 0.09997 0.31127 0.27733 0.0
C24 C 0.12713 0.32409 0.27565 0.0
C25 C 0.09955 0.30879 0.23387 0.0
C26 C 0.12685 0.32138 0.23304 0.0
N27 N 0.23538 0.34749 0.25082 0.0
C28 C 0.29386 0.34076 0.25651 0.0
C29 C 0.30278 0.36 0.25147 0.0
C30 C 0.27679 0.37274 0.24539 0.0
C31 C 0.24351 0.36623 0.2451 0.0
C32 C 0.26056 0.33494 0.25629 0.0
H33 H 0.22445 0.3765 0.24053 0.0
H34 H 0.25542 0.32015 0.26086 0.0
H35 H 0.13667 0.33013 0.29232 0.0
H36 H 0.13625 0.32486 0.21543 0.0
C37 C 0.15685 0.3782 0.23062 0.0
C38 C 0.19016 0.35858 0.31139 0.0
C39 C 0.19478 0.31997 0.19201 0.0
C40 C 0.20627 0.29572 0.27437 0.0
H41 H 0.16371 0.39717 0.30909 0.0
H42 H 0.14248 0.40728 0.26536 0.0
H43 H 0.15687 0.38194 0.179 0.0
H44 H 0.1814 0.35072 0.15811 0.0
H45 H 0.21056 0.2797 0.194 0.0
H46 H 0.21551 0.26581 0.23904 0.0
H47 H 0.21428 0.29414 0.32624 0.0
H48 H 0.20757 0.32902 0.34593 0.0
H49 H 0.09005 0.3078 0.29513 0.0
H50 H 0.08997 0.30304 0.21693 0.0
H51 H 0.31253 0.33001 0.26066 0.0
H52 H 0.28189 0.38778 0.2414 0.0
C53 C 0.13302 0.90165 0.31151 0.0
C54 C 0.15511 0.88796 0.32049 0.0
C55 C 0.16749 0.87836 0.3008 0.0
C56 C 0.15317 0.88713 0.28102 0.0
N57 N 0.13344 0.90211 0.28681 0.0
Co58 Co 0.11378 0.92138 0.26377 0.0
N59 N 0.13814 0.91016 0.23542 0.0
C60 C 0.15622 0.89368 0.23555 0.0
C61 C 0.17778 0.89236 0.21641 0.0
C62 C 0.17331 0.9089 0.20342 0.0
C63 C 0.1475 0.91898 0.21438 0.0
N64 N 0.09556 0.94109 0.24067 0.0
C65 C 0.10406 0.94537 0.21719 0.0
C66 C 0.08256 0.9591 0.20754 0.0
C67 C 0.06082 0.96397 0.22568 0.0
C68 C 0.06971 0.9528 0.24526 0.0
N69 N 0.08887 0.93206 0.29245 0.0
C70 C 0.06412 0.9451 0.29087 0.0
C71 C 0.047 0.94746 0.31222 0.0
C72 C 0.06109 0.93477 0.3283 0.0
C73 C 0.08636 0.9254 0.31591 0.0
N74 N 0.15204 0.93912 0.26978 0.0
C75 C 0.20612 0.96557 0.2678 0.0
C76 C 0.17356 0.97196 0.27208 0.0
C77 C 0.14706 0.95858 0.27301 0.0
C78 C 0.21102 0.9455 0.26637 0.0
C79 C 0.18403 0.93267 0.26763 0.0
N80 N 0.07439 0.90432 0.25735 0.0
C81 C 1.02226 0.89997 0.23555 0.0
C82 C 1.00793 0.88994 0.2553 0.0
C83 C 0.02948 0.88537 0.27466 0.0
C84 C 0.06201 0.89265 0.27537 0.0
C85 C 0.05548 0.9065 0.23669 0.0
H86 H 0.07635 0.88938 0.2912 0.0
H87 H 0.06506 0.91419 0.22114 0.0
H88 H 0.12235 0.96418 0.27526 0.0
H89 H 0.18933 0.91756 0.26577 0.0
C90 C 0.16125 0.88342 0.25698 0.0
C91 C 0.1055 0.9091 0.32624 0.0
C92 C 0.13084 0.93587 0.20319 0.0
C93 C 0.05614 0.95377 0.26861 0.0
H94 H 0.15937 0.88414 0.33937 0.0
H95 H 0.18492 0.86647 0.3009 0.0
H96 H 0.19717 0.88175 0.21375 0.0
H97 H 0.18804 0.91309 0.18783 0.0
H98 H 0.08199 0.96484 0.18923 0.0
H99 H 0.04103 0.97451 0.22471 0.0
H100 H 0.02573 0.95665 0.3154 0.0
H101 H 0.05249 0.93221 0.34664 0.0
H102 H 0.16828 0.98726 0.27351 0.0
H103 H 0.23566 0.93966 0.26374 0.0
H104 H 1.00775 0.90357 0.21961 0.0
H105 H 1.02128 0.87655 0.2898 0.0
C106 C 0.16215 0.89964 0.95219 0.0
C107 C 0.14696 0.88235 0.94527 0.0
C108 C 0.13627 0.87354 0.96593 0.0
C109 C 0.14566 0.8856 0.98433 0.0
N110 N 0.16128 0.90182 0.97683 0.0
Co111 Co 0.18182 0.92167 0.99878 0.0
N112 N 0.15912 0.91073 0.02796 0.0
C113 C 0.14133 0.89424 0.02898 0.0
C114 C 0.12165 0.89281 0.04922 0.0
C115 C 0.12756 0.90931 0.06199 0.0
C116 C 0.15167 0.91957 0.04924 0.0
N117 N 0.20212 0.94124 0.02116 0.0
C118 C 0.19611 0.9451 0.04514 0.0
C119 C 0.21783 0.95899 0.05392 0.0
C120 C 0.23802 0.96406 0.03484 0.0
C121 C 0.2277 0.95292 0.01556 0.0
N122 N 0.20414 0.93258 0.96929 0.0
C123 C 0.22879 0.94576 0.96962 0.0
C124 C 0.24013 0.95048 0.94682 0.0
C125 C 0.22209 0.93927 0.93109 0.0
C126 C 0.20087 0.9281 0.9452 0.0
N127 N 0.14349 0.93949 0.99382 0.0
C128 C 0.09136 0.96735 0.99456 0.0
C129 C 0.12429 0.97253 0.98931 0.0
C130 C 0.14958 0.95862 0.98913 0.0
C131 C 0.085 0.94747 0.99791 0.0
C132 C 0.11121 0.93384 0.99729 0.0
N133 N 0.22138 0.90467 1.00384 0.0
C134 C 0.27023 0.89622 0.02773 0.0
C135 C 0.28615 0.88822 0.00724 0.0
C136 C 0.2678 0.88782 0.98547 0.0
C137 C 0.23592 0.89585 0.98423 0.0
C138 C 0.23789 0.90407 0.02573 0.0
H139 H 0.22393 0.89562 0.96682 0.0
H140 H 0.22682 0.91027 0.04179 0.0
H141 H 0.17438 0.96367 0.98596 0.0
H142 H 0.10534 0.91885 1.00044 0.0
C143 C 0.13751 0.88281 0.00855 0.0
C144 C 0.1811 0.9119 0.93519 0.0
C145 C 0.17157 0.935 0.06042 0.0
C146 C 0.23918 0.95417 0.99155 0.0
H147 H 0.14476 0.876 0.92741 0.0
H148 H 0.12328 0.85987 0.96737 0.0
H149 H 0.10374 0.88164 0.05349 0.0
H150 H 0.11645 0.91301 0.07932 0.0
H151 H 0.21909 0.96475 0.07221 0.0
H152 H 0.25758 0.97478 0.03495 0.0
H153 H 0.25928 0.96082 0.94216 0.0
H154 H 0.22502 0.93887 0.9115 0.0
H155 H 0.13089 0.98743 0.98563 0.0
H156 H 0.06016 0.94244 1.00187 0.0
H157 H 0.28267 0.89652 0.04521 0.0
H158 H 0.27843 0.882 0.96893 0.0
C159 C 0.12682 0.36907 0.9637 0.0
C160 C 0.13561 0.38832 0.96006 0.0
C161 C 0.13609 0.39692 0.98247 0.0
C162 C 0.12761 0.38258 0.99854 0.0
N163 N 0.12232 0.36533 0.98774 0.0
Co164 Co 0.1069 0.34152 0.00456 0.0
N165 N 0.12016 0.35193 0.03663 0.0
C166 C 0.12423 0.37066 0.04238 0.0
C167 C 0.13287 0.37336 0.06636 0.0
C168 C 0.13446 0.35513 0.07618 0.0
C169 C 0.12679 0.34238 0.05748 0.0
N170 N 0.09214 0.3179 0.02197 0.0
C171 C 0.10304 0.31081 0.04367 0.0
C172 C 0.08875 0.29301 0.04851 0.0
C173 C 0.0683 0.28892 0.029 0.0
C174 C 0.07126 0.30442 0.01335 0.0
N175 N 0.09279 0.33144 0.97228 0.0
C176 C 0.07141 0.31669 0.96892 0.0
C177 C 0.06478 0.3134 0.94471 0.0
C178 C 0.08263 0.32713 0.93216 0.0
C179 C 0.09919 0.33815 0.94942 0.0
N180 N 0.15093 0.32901 1.00076 0.0
C181 C 0.20945 0.30641 0.00449 0.0
C182 C 0.18026 0.29885 0.99453 0.0
C183 C 0.15177 0.31028 0.9926 0.0
C184 C 0.20924 0.32611 0.01116 0.0
C185 C 0.17971 0.33712 0.00927 0.0
N186 N 0.06204 0.35301 0.00857 0.0
C187 C 1.01123 0.35584 0.03188 0.0
C188 C 0.99438 0.36432 0.01207 0.0
C189 C 1.01301 0.3677 0.99083 0.0
C190 C 0.0465 0.36209 0.98951 0.0
C191 C 0.04474 0.35036 0.02978 0.0
H192 H 0.05941 0.36458 0.97263 0.0
H193 H 0.05641 0.34347 0.04522 0.0
H194 H 0.12984 0.30341 0.98565 0.0
H195 H 0.17979 0.3519 0.01562 0.0
C196 C 0.12686 0.38445 0.02391 0.0
C197 C 0.11848 0.35578 0.9437 0.0
C198 C 0.12587 0.32135 0.05995 0.0
C199 C 0.06161 0.30493 0.98868 0.0
H200 H 0.13988 0.39568 0.94294 0.0
H201 H 0.14186 0.41186 0.98653 0.0
H202 H 0.13921 0.38682 0.07527 0.0
H203 H 0.14105 0.3516 0.09478 0.0
H204 H 0.093 0.28387 0.06421 0.0
H205 H 0.05463 0.27567 0.02594 0.0
H206 H 0.04934 0.30214 0.93703 0.0
H207 H 0.08295 0.32901 0.91259 0.0
H208 H 0.17917 0.28396 0.98849 0.0
H209 H 0.23126 0.33274 0.01877 0.0
H210 H 0.99863 0.35327 0.04898 0.0
H211 H 1.00162 0.37406 0.97486 0.0
C212 C 0.84047 0.67643 0.6963 0.0
C213 C 0.81769 0.68557 0.68119 0.0
C214 C 0.80149 0.69898 0.6951 0.0
C215 C 0.81478 0.69723 0.71798 0.0
N216 N 0.83902 0.68385 0.7194 0.0
Co217 Co 0.85915 0.67447 0.75071 0.0
N218 N 0.84035 0.69619 0.77011 0.0
C219 C 0.81672 0.70852 0.76259 0.0
C220 C 0.81005 0.72273 0.77934 0.0
C221 C 0.8308 0.7191 0.79865 0.0
C222 C 0.84887 0.70272 0.79268 0.0
N223 N 0.87839 0.66447 0.78172 0.0
C224 C 0.88191 0.6731 0.80369 0.0
C225 C 0.89468 0.66027 0.82084 0.0
C226 C 0.90028 0.64326 0.80898 0.0
C227 C 0.89026 0.6465 0.78548 0.0
N228 N 0.87917 0.65295 0.73163 0.0
C229 C 0.89609 0.63779 0.74078 0.0
C230 C 0.91224 0.62717 0.72343 0.0
C231 C 0.9043 0.6358 0.70183 0.0
C232 C 0.8826 0.65081 0.7072 0.0
N233 N 0.89937 0.69065 0.74518 0.0
C234 C 0.95474 0.71637 0.7437 0.0
C235 C 0.95797 0.69697 0.7514 0.0
C236 C 0.93032 0.68444 0.75184 0.0
C237 C 0.923 0.7222 0.73611 0.0
C238 C 0.896 0.7093 0.73701 0.0
N239 N 0.81796 0.6592 0.75675 0.0
C240 C 0.76852 0.64355 0.74089 0.0
C241 C 0.75153 0.64579 0.76315 0.0
C242 C 0.77021 0.65345 0.78263 0.0
C243 C 0.80282 0.66013 0.77905 0.0
C244 C 0.80157 0.6499 0.73828 0.0
H245 H 0.81522 0.66681 0.79426 0.0
H246 H 0.81317 0.64794 0.72086 0.0
H247 H 0.93397 0.66987 0.75827 0.0
H248 H 0.87213 0.71475 0.73165 0.0
C249 C 0.80532 0.7079 0.73852 0.0
C250 C 0.8601 0.65928 0.68894 0.0
C251 C 0.87273 0.69314 0.80913 0.0
C252 C 0.89847 0.63484 0.76579 0.0
H253 H 0.812 0.68242 0.66239 0.0
H254 H 0.78166 0.70849 0.68934 0.0
H255 H 0.79314 0.73478 0.77735 0.0
H256 H 0.83251 0.72759 0.81514 0.0
H257 H 0.89986 0.66291 0.83989 0.0
H258 H 0.91198 0.63042 0.81632 0.0
H259 H 0.92795 0.61466 0.72615 0.0
H260 H 0.91169 0.63073 0.68399 0.0
H261 H 0.98156 0.69148 0.75775 0.0
H262 H 0.91876 0.73673 0.72945 0.0
H263 H 0.75627 0.63762 0.72504 0.0
H264 H 0.75976 0.65475 0.80068 0.0
C265 C 0.97554 0.08025 0.7086 0.0
C266 C 0.99877 0.07153 0.69348 0.0
C267 C 1.01607 0.05859 0.70745 0.0
C268 C 1.00296 0.06018 0.73037 0.0
N269 N 0.97787 0.07304 0.73172 0.0
Co270 Co 0.95753 0.08203 0.76291 0.0
N271 N 0.97616 0.06005 0.78196 0.0
C272 C 1.00052 0.04817 0.77468 0.0
C273 C 1.00684 0.03367 0.7912 0.0
C274 C 0.98501 0.03665 0.81005 0.0
C275 C 0.96664 0.0529 0.804 0.0
N276 N 0.93845 0.09159 0.79402 0.0
C277 C 0.93374 0.08229 0.81543 0.0
C278 C 0.92042 0.09462 0.83284 0.0
C279 C 0.91589 0.1121 0.82166 0.0
C280 C 0.92691 0.10953 0.79826 0.0
N281 N 0.93747 0.10379 0.74412 0.0
C282 C 0.92162 0.11916 0.75369 0.0
C283 C 0.90643 0.13056 0.7366 0.0
C284 C 0.91386 0.12222 0.71476 0.0
C285 C 0.9343 0.1065 0.7197 0.0
N286 N 0.91745 0.06582 0.75712 0.0
C287 C 0.86366 0.03919 0.75485 0.0
C288 C 0.8593 0.05809 0.76385 0.0
C289 C 0.88632 0.0712 0.76458 0.0
C290 C 0.89551 0.03426 0.7467 0.0
C291 C 0.92166 0.04756 0.74801 0.0
N292 N 0.99869 0.09731 0.7689 0.0
C293 C 0.04532 0.11542 0.75262 0.0
C294 C 0.06499 0.11137 0.77321 0.0
C295 C 0.04931 0.10124 0.79233 0.0
C296 C 1.01635 0.0947 0.78999 0.0
C297 C 1.01263 0.10835 0.75084 0.0
H298 H 1.00576 0.08668 0.80495 0.0
H299 H 0.99925 0.11129 0.7343 0.0
H300 H 0.88211 0.08552 0.77171 0.0
H301 H 0.94571 0.04261 0.74239 0.0
C302 C 1.01264 0.04936 0.75083 0.0
C303 C 0.95452 0.09678 0.70099 0.0
C304 C 0.94158 0.06191 0.81988 0.0
C305 C 0.91927 0.12164 0.77881 0.0
H306 H 1.00392 0.07467 0.67457 0.0
H307 H 0.03627 0.04939 0.70165 0.0
H308 H 0.02421 0.02184 0.78932 0.0
H309 H 0.98279 0.02786 0.82629 0.0
H310 H 0.91388 0.09127 0.85149 0.0
H311 H 0.90389 0.12473 0.82924 0.0
H312 H 0.89146 0.14331 0.73966 0.0
H313 H 0.90616 0.12765 0.69715 0.0
H314 H 0.83518 0.06278 0.77014 0.0
H315 H 0.90065 0.01988 0.73991 0.0
H316 H 0.05508 0.12382 0.7376 0.0
H317 H 0.06262 0.09758 0.80881 0.0
C318 C 0.82548 0.08168 0.05626 0.0
C319 C 0.80391 0.07286 0.07257 0.0
C320 C 0.78568 0.05971 0.05959 0.0
C321 C 0.79673 0.06124 0.03606 0.0
N322 N 0.82153 0.07419 0.03338 0.0
Co323 Co 0.83892 0.08326 1.00116 0.0
N324 N 0.81747 0.06175 0.98295 0.0
C325 C 0.79371 0.04993 0.99145 0.0
C326 C 0.7856 0.03554 0.97522 0.0
C327 C 0.80571 0.03848 0.95532 0.0
C328 C 0.82491 0.05459 0.96052 0.0
N329 N 0.85516 0.09293 0.96922 0.0
C330 C 0.85763 0.08365 0.94764 0.0
C331 C 0.8699 0.09585 0.92964 0.0
C332 C 0.8762 0.11321 0.94061 0.0
C333 C 0.86721 0.1107 0.96451 0.0
N334 N 0.86191 0.1045 0.01895 0.0
C335 C 0.87796 0.11958 0.00877 0.0
C336 C 0.89538 0.13047 0.02524 0.0
C337 C 0.88917 0.12211 0.04734 0.0
C338 C 0.86735 0.10689 0.04316 0.0
N339 N 0.87892 0.06657 0.00453 0.0
C340 C 0.93196 0.03952 1.00199 0.0
C341 C 0.9364 0.059 0.99517 0.0
C342 C 0.90966 0.07222 0.99651 0.0
C343 C 0.9008 0.03436 0.01131 0.0
C344 C 0.87503 0.04793 0.01254 0.0
N345 N 0.79778 0.09914 0.99762 0.0
C346 C 0.75445 0.11778 0.0172 0.0
C347 C 0.73229 0.1149 0.9977 0.0
C348 C 0.74483 0.10474 0.97745 0.0
C349 C 0.77743 0.09714 0.97772 0.0
C350 C 0.78671 0.1102 0.01661 0.0
H351 H 0.78571 0.0891 0.96202 0.0
H352 H 0.80204 0.11274 0.0322 0.0
H353 H 0.91365 0.08682 0.99024 0.0
H354 H 0.85143 0.04294 0.01911 0.0
C355 C 0.78456 0.05076 0.01604 0.0
C356 C 0.84621 0.09868 0.06245 0.0
C357 C 0.84924 0.0633 0.94377 0.0
C358 C 0.87776 0.12242 0.98362 0.0
H359 H 0.80041 0.0761 0.09164 0.0
H360 H 0.766 0.05053 0.0664 0.0
H361 H 0.76843 0.0237 0.97801 0.0
H362 H 0.80643 0.02968 0.93905 0.0
H363 H 0.87484 0.09239 0.91076 0.0
H364 H 0.88829 0.12564 0.93253 0.0
H365 H 0.91053 0.14309 0.02166 0.0
H366 H 0.89759 0.12754 0.06477 0.0
H367 H 0.95994 0.06384 0.98789 0.0
H368 H 0.89604 0.0197 0.01734 0.0
H369 H 0.74683 0.12528 0.03354 0.0
H370 H 0.7296 0.10247 0.96147 0.0
C371 C 0.96213 0.68305 0.05767 0.0
C372 C 0.97945 0.69553 0.0729 0.0
C373 C 0.9821 0.71286 0.06089 0.0
C374 C 0.96737 0.71 0.03866 0.0
N375 N 0.95585 0.69187 0.03583 0.0
Co376 Co 0.94009 0.68042 0.00451 0.0
N377 N 0.95694 0.70254 0.98458 0.0
C378 C 0.96597 0.71989 0.99355 0.0
C379 C 0.97396 0.73306 0.97577 0.0
C380 C 0.96896 0.72359 0.95416 0.0
C381 C 0.95832 0.70507 0.95999 0.0
N382 N 0.92511 0.6682 0.97348 0.0
C383 C 0.9319 0.67278 0.94995 0.0
C384 C 0.91722 0.65966 0.93407 0.0
C385 C 0.89932 0.64706 0.94802 0.0
C386 C 0.90449 0.65294 0.97154 0.0
N387 N 0.92177 0.65877 0.02434 0.0
C388 C 0.89798 0.64644 0.01688 0.0
C389 C 0.88569 0.63501 0.03514 0.0
C390 C 0.9029 0.64034 0.05548 0.0
C391 C 0.92557 0.65443 0.04831 0.0
N392 N 0.89713 0.69447 0.00738 0.0
C393 C 0.84151 0.71958 0.01133 0.0
C394 C 0.85534 0.71493 0.98866 0.0
C395 C 0.88269 0.70246 0.9871 0.0
C396 C 0.85553 0.71058 0.03198 0.0
C397 C 0.88307 0.69812 0.02962 0.0
N398 N 0.98373 0.66722 1.00155 0.0
C399 C 1.01843 0.63876 0.99688 0.0
C400 C 0.04779 0.64995 0.99798 0.0
C401 C 0.04367 0.66998 1.00065 0.0
C402 C 1.01205 0.67813 1.00272 0.0
C403 C 0.98683 0.64764 0.99854 0.0
H404 H 1.01091 0.69348 0.00531 0.0
H405 H 0.96496 0.63866 0.99752 0.0
H406 H 0.8925 0.69982 0.96928 0.0
H407 H 0.8935 0.69187 0.04594 0.0
C408 C 0.97004 0.72248 0.01866 0.0
C409 C 0.94982 0.66351 0.06484 0.0
C410 C 0.94636 0.69116 0.94173 0.0
C411 C 0.89122 0.64418 0.99219 0.0
H412 H 0.99008 0.69254 0.09055 0.0
H413 H 0.99527 0.7256 0.06703 0.0
H414 H 0.98262 0.74775 0.9782 0.0
H415 H 0.97204 0.72974 0.93616 0.0
H416 H 0.91786 0.65983 0.91435 0.0
H417 H 0.88404 0.63519 0.94173 0.0
H418 H 0.867 0.62382 0.03374 0.0
H419 H 0.89896 0.63445 0.0735 0.0
H420 H 0.84517 0.7209 0.97201 0.0
H421 H 0.84599 0.71353 0.05002 0.0
H422 H 1.01962 0.62321 0.99505 0.0
H423 H 0.06473 0.67967 1.0009 0.0
C424 C 0.17471 0.86724 0.78618 0.0
C425 C 0.16622 0.88672 0.78781 0.0
C426 C 0.1664 0.89397 0.76467 0.0
C427 C 0.17504 0.8787 0.75018 0.0
N428 N 0.17978 0.86209 0.76265 0.0
Co429 Co 0.19644 0.83757 0.7484 0.0
N430 N 0.18438 0.84611 0.71517 0.0
C431 C 0.18038 0.86446 0.70767 0.0
C432 C 0.17281 0.86585 0.68334 0.0
C433 C 0.17189 0.84716 0.67511 0.0
C434 C 0.17878 0.83543 0.69506 0.0
N435 N 0.21262 0.81327 0.73347 0.0
C436 C 0.20321 0.80501 0.71208 0.0
C437 C 0.21823 0.78714 0.70924 0.0
C438 C 0.23763 0.78428 0.72962 0.0
C439 C 0.23335 0.80049 0.74382 0.0
N440 N 0.20919 0.82935 0.78184 0.0
C441 C 0.23048 0.81491 0.78706 0.0
C442 C 0.23562 0.81278 0.81167 0.0
C443 C 0.21695 0.82698 0.82251 0.0
C444 C 0.20148 0.83715 0.80389 0.0
N445 N 0.15248 0.82479 0.75222 0.0
C446 C 0.09412 0.80164 0.75019 0.0
C447 C 0.1231 0.79506 0.76156 0.0
C448 C 0.15152 0.80669 0.76243 0.0
C449 C 0.09464 0.82071 0.74092 0.0
C450 C 0.12396 0.83201 0.74211 0.0
N451 N 0.24125 0.84932 0.74459 0.0
C452 C 0.29287 0.85225 0.72217 0.0
C453 C 0.30886 0.86139 0.74194 0.0
C454 C 0.28924 0.86494 0.76267 0.0
C455 C 0.25584 0.85909 0.76349 0.0
C456 C 0.25948 0.84629 0.7239 0.0
H457 H 0.24223 0.86198 0.77994 0.0
H458 H 0.24862 0.83878 0.7086 0.0
H459 H 0.17327 0.80045 0.77052 0.0
H460 H 0.12392 0.84628 0.73407 0.0
C461 C 0.17692 0.8792 0.72476 0.0
C462 C 0.18225 0.85512 0.80754 0.0
C463 C 0.18079 0.81431 0.69429 0.0
C464 C 0.24156 0.8023 0.76864 0.0
H465 H 0.1619 0.89517 0.80407 0.0
H466 H 0.16116 0.90868 0.75912 0.0
H467 H 0.16686 0.87879 0.67311 0.0
H468 H 0.16643 0.8427 0.65664 0.0
H469 H 0.21502 0.7771 0.69433 0.0
H470 H 0.25141 0.77136 0.73423 0.0
H471 H 0.25063 0.80196 0.82071 0.0
H472 H 0.2154 0.82972 0.84188 0.0
H473 H 0.12411 0.78079 0.76967 0.0
H474 H 0.07295 0.82666 0.73203 0.0
H475 H 0.30594 0.84952 0.70533 0.0
H476 H 0.29964 0.87166 0.77873 0.0
C477 C 0.12745 0.39845 0.79444 0.0
C478 C 0.1385 0.3796 0.79824 0.0
C479 C 0.14177 0.37124 0.77589 0.0
C480 C 0.13258 0.38524 0.75964 0.0
N481 N 0.12433 0.40219 0.77019 0.0
Co482 Co 0.10687 0.42528 0.7525 0.0
N483 N 0.12118 0.41483 0.72054 0.0
C484 C 0.12814 0.39627 0.71547 0.0
C485 C 0.13725 0.39338 0.69166 0.0
C486 C 0.1361 0.41131 0.68109 0.0
C487 C 0.12643 0.42412 0.6992 0.0
N488 N 0.08996 0.44817 0.73436 0.0
C489 C 0.0988 0.45488 0.71197 0.0
C490 C 0.08244 0.47195 0.70659 0.0
C491 C 0.06278 0.47604 0.72642 0.0
C492 C 0.06824 0.46126 0.74275 0.0
N493 N 0.09194 0.43554 0.78458 0.0
C494 C 0.0704 0.45026 0.78755 0.0
C495 C 0.06366 0.45405 0.81157 0.0
C496 C 0.08135 0.44059 0.82454 0.0
C497 C 0.09776 0.4291 0.80768 0.0
N498 N 0.14988 0.439 0.75613 0.0
C499 C 0.2085 0.46187 0.75531 0.0
C500 C 0.17832 0.46929 0.76377 0.0
C501 C 0.14973 0.45779 0.76403 0.0
C502 C 0.20878 0.44227 0.74812 0.0
C503 C 0.17934 0.43113 0.74869 0.0
N504 N 0.06302 0.41241 0.74882 0.0
C505 C 1.01181 0.40798 0.7262 0.0
C506 C 0.99593 0.40036 0.74686 0.0
C507 C 1.015 0.39785 0.76796 0.0
C508 C 0.04833 0.40363 0.76845 0.0
C509 C 0.04523 0.41399 0.72759 0.0
H510 H 0.0616 0.40167 0.78522 0.0
H511 H 0.05624 0.42065 0.71174 0.0
H512 H 0.12717 0.46451 0.76999 0.0
H513 H 0.18021 0.41632 0.74249 0.0
C514 C 0.13264 0.38311 0.73436 0.0
C515 C 0.11496 0.41089 0.81424 0.0
C516 C 0.12178 0.44487 0.69546 0.0
C517 C 0.05952 0.46125 0.7675 0.0
H518 H 0.14219 0.37209 0.81529 0.0
H519 H 0.14938 0.35656 0.772 0.0
H520 H 0.14556 0.38006 0.68333 0.0
H521 H 0.14212 0.41462 0.66233 0.0
H522 H 0.08481 0.48062 0.69026 0.0
H523 H 0.04784 0.48885 0.72913 0.0
H524 H 0.04792 0.46532 0.81884 0.0
H525 H 0.08129 0.43902 0.84416 0.0
H526 H 0.17655 0.48405 0.77019 0.0
H527 H 0.23133 0.43569 0.74142 0.0
H528 H 0.99808 0.41016 0.70946 0.0
H529 H 1.00398 0.3918 0.78428 0.0
C530 C 0.17887 0.40105 0.46025 0.0
C531 C 0.16851 0.38213 0.45596 0.0
C532 C 0.16388 0.37362 0.47811 0.0
C533 C 0.17169 0.38759 0.49475 0.0
N534 N 0.18034 0.40466 0.48462 0.0
Co535 Co 0.19667 0.42766 0.50309 0.0
N536 N 0.18068 0.41685 0.53451 0.0
C537 C 0.17352 0.39823 0.53912 0.0
C538 C 0.16328 0.39502 0.56262 0.0
C539 C 0.16391 0.41282 0.5735 0.0
C540 C 0.17443 0.42587 0.55586 0.0
N541 N 0.21247 0.45043 0.52198 0.0
C542 C 0.20267 0.45683 0.54428 0.0
C543 C 0.21868 0.47389 0.55029 0.0
C544 C 0.23913 0.47829 0.531 0.0
C545 C 0.23446 0.46369 0.51432 0.0
N546 N 0.21333 0.43822 0.47156 0.0
C547 C 0.23483 0.45308 0.46939 0.0
C548 C 0.2428 0.45713 0.44563 0.0
C549 C 0.22599 0.44371 0.432 0.0
C550 C 0.20887 0.43196 0.44823 0.0
N551 N 0.15379 0.44133 0.49846 0.0
C552 C 0.09573 0.46463 0.5001 0.0
C553 C 0.12595 0.47189 0.4914 0.0
C554 C 0.15425 0.46017 0.49069 0.0
C555 C 0.0951 0.44494 0.50696 0.0
C556 C 0.1242 0.43356 0.50584 0.0
N557 N 0.2403 0.41485 0.50797 0.0
C558 C 0.2894 0.4098 0.53269 0.0
C559 C 0.30681 0.40174 0.5129 0.0
C560 C 0.28922 0.39969 0.49093 0.0
C561 C 0.25629 0.4061 0.48894 0.0
C562 C 0.25648 0.41623 0.52986 0.0
H563 H 0.24434 0.40449 0.47156 0.0
H564 H 0.24443 0.42282 0.5453 0.0
H565 H 0.17696 0.46687 0.48496 0.0
H566 H 0.123 0.41869 0.51179 0.0
C567 C 0.1702 0.38524 0.51996 0.0
C568 C 0.19214 0.41376 0.44095 0.0
C569 C 0.1791 0.44655 0.56016 0.0
C570 C 0.24445 0.46394 0.48985 0.0
H571 H 0.1662 0.37466 0.43878 0.0
H572 H 0.15639 0.35884 0.48164 0.0
H573 H 0.15468 0.38158 0.57053 0.0
H574 H 0.15707 0.41586 0.59217 0.0
H575 H 0.2156 0.48234 0.56671 0.0
H576 H 0.25415 0.49115 0.52886 0.0
H577 H 0.25874 0.46857 0.43896 0.0
H578 H 0.22707 0.44237 0.41238 0.0
H579 H 0.12839 0.48693 0.48616 0.0
H580 H 0.07239 0.43836 0.51344 0.0
H581 H 0.3011 0.41134 0.55033 0.0
H582 H 0.30103 0.39378 0.47489 0.0
C583 C 0.11136 0.85961 0.46919 0.0
C584 C 0.13281 0.87479 0.46383 0.0
C585 C 0.14969 0.87891 0.48479 0.0
C586 C 0.13821 0.86582 0.50154 0.0
N587 N 0.11531 0.85361 0.49248 0.0
Co588 Co 0.0974 0.8305 0.50946 0.0
N589 N 0.11012 0.84108 0.54194 0.0
C590 C 0.13016 0.85637 0.54588 0.0
C591 C 0.1343 0.86071 0.57003 0.0
C592 C 0.11638 0.84704 0.58224 0.0
C593 C 0.10256 0.8349 0.56474 0.0
N594 N 0.08107 0.80688 0.52661 0.0
C595 C 0.07907 0.80273 0.55082 0.0
C596 C 0.06966 0.78365 0.55452 0.0
C597 C 0.06625 0.77549 0.5319 0.0
C598 C 0.07382 0.78996 0.51568 0.0
N599 N 0.08385 0.82078 0.47672 0.0
C600 C 0.07452 0.80256 0.47157 0.0
C601 C 0.06207 0.80073 0.44839 0.0
C602 C 0.06381 0.81889 0.43832 0.0
C603 C 0.07797 0.83087 0.45574 0.0
N604 N 0.14132 0.81751 0.50639 0.0
C605 C 0.19756 0.79293 0.50164 0.0
C606 C 0.18415 0.80286 0.48144 0.0
C607 C 0.15634 0.81509 0.4842 0.0
C608 C 0.18289 0.79652 0.52435 0.0
C609 C 0.15533 0.80876 0.5263 0.0
N610 N 0.0528 0.84263 0.5124 0.0
C611 C 0.99308 0.83858 0.51118 0.0
C612 C 0.98776 0.85821 0.51586 0.0
C613 C 1.01601 0.87005 0.51846 0.0
C614 C 0.04827 0.86195 0.51694 0.0
C615 C 0.02529 0.83123 0.50926 0.0
H616 H 0.06947 0.87129 0.51945 0.0
H617 H 0.02762 0.81615 0.50506 0.0
H618 H 0.14645 0.82213 0.46821 0.0
H619 H 0.14472 0.81039 0.54404 0.0
C620 C 0.144 0.8666 0.52651 0.0
C621 C 0.08753 0.85138 0.45179 0.0
C622 C 0.08903 0.81574 0.57071 0.0
C623 C 0.07157 0.78879 0.49022 0.0
H624 H 0.13579 0.88229 0.44666 0.0
H625 H 0.16726 0.89053 0.48769 0.0
H626 H 0.14908 0.87221 0.57785 0.0
H627 H 0.11541 0.84546 0.60185 0.0
H628 H 0.06644 0.77632 0.57179 0.0
H629 H 0.05902 0.76077 0.5278 0.0
H630 H 0.05104 0.78799 0.44028 0.0
H631 H 0.0548 0.82273 0.42043 0.0
H632 H 0.1948 0.8011 0.46348 0.0
H633 H 0.19164 0.78929 0.54063 0.0
H634 H 0.97226 0.82886 0.50873 0.0
H635 H 1.01322 0.88534 0.52216 0.0
C636 C 0.83367 0.17153 0.19925 0.0
C637 C 0.80676 0.1792 0.18682 0.0
C638 C 0.79031 0.19086 0.20288 0.0
C639 C 0.80784 0.1896 0.22425 0.0
N640 N 0.83493 0.17828 0.22268 0.0
Co641 Co 0.86297 0.17006 0.2512 0.0
N642 N 0.84194 0.18912 0.27387 0.0
C643 C 0.81385 0.19897 0.26933 0.0
C644 C 0.80351 0.20998 0.28862 0.0
C645 C 0.82646 0.20688 0.30661 0.0
C646 C 0.84994 0.19426 0.29718 0.0
N647 N 0.8908 0.16143 0.27935 0.0
C648 C 0.89839 0.17106 0.30014 0.0
C649 C 0.92611 0.16305 0.31136 0.0
C650 C 0.9342 0.14692 0.29857 0.0
C651 C 0.91232 0.14645 0.27951 0.0
N652 N 0.88486 0.15127 0.22864 0.0
C653 C 0.90766 0.13788 0.23471 0.0
C654 C 0.92185 0.12885 0.21514 0.0
C655 C 0.90648 0.13661 0.1953 0.0
C656 C 0.88304 0.14958 0.20405 0.0
N657 N 0.89705 0.18998 0.2432 0.0
C658 C 0.94396 0.22063 0.24068 0.0
C659 C 0.95395 0.20148 0.2449 0.0
C660 C 0.93035 0.18643 0.24571 0.0
C661 C 0.91002 0.22385 0.23663 0.0
C662 C 0.88722 0.2085 0.23801 0.0
N663 N 0.82764 0.15097 0.25971 0.0
C664 C 0.7805 0.13222 0.24557 0.0
C665 C 0.76349 0.13484 0.26771 0.0
C666 C 0.78147 0.14388 0.28659 0.0
C667 C 0.81351 0.15131 0.2824 0.0
C668 C 0.81227 0.14022 0.24204 0.0
H669 H 0.82584 0.15848 0.29728 0.0
H670 H 0.82345 0.13841 0.2245 0.0
H671 H 0.93929 0.17206 0.24908 0.0
H672 H 0.8614 0.21189 0.23574 0.0
C673 C 0.79913 0.19833 0.24629 0.0
C674 C 0.85508 0.1562 0.18914 0.0
C675 C 0.87783 0.18622 0.31145 0.0
C676 C 0.91821 0.13583 0.25856 0.0
H677 H 0.79884 0.17609 0.16842 0.0
H678 H 0.76758 0.19876 0.19961 0.0
H679 H 0.78186 0.21919 0.28954 0.0
H680 H 0.82537 0.21293 0.32473 0.0
H681 H 0.93917 0.16823 0.3273 0.0
H682 H 0.95542 0.13763 0.30158 0.0
H683 H 0.94131 0.11808 0.21526 0.0
H684 H 0.91049 0.1323 0.17658 0.0
H685 H 0.97992 0.19808 0.24757 0.0
H686 H 0.90083 0.23831 0.23324 0.0
H687 H 0.76921 0.12442 0.23064 0.0
H688 H 0.77053 0.14616 0.30433 0.0
C689 C 0.96617 0.57989 0.19439 0.0
C690 C 0.98837 0.56986 0.17971 0.0
C691 C 1.00442 0.55681 0.19428 0.0
C692 C 0.99179 0.55963 0.21714 0.0
N693 N 0.9681 0.5734 0.21793 0.0
Co694 Co 0.94991 0.58446 0.24883 0.0
N695 N 0.9675 0.56291 0.26918 0.0
C696 C 0.99049 0.54999 0.2624 0.0
C697 C 0.99597 0.53604 0.27982 0.0
C698 C 0.97493 0.54048 0.29872 0.0
C699 C 0.95788 0.55695 0.29173 0.0
N700 N 0.93288 0.59597 0.27953 0.0
C701 C 0.92801 0.58768 0.30156 0.0
C702 C 0.91607 0.60098 0.31832 0.0
C703 C 0.91262 0.61811 0.30608 0.0
C704 C 0.92283 0.61434 0.28271 0.0
N705 N 0.93101 0.60588 0.22884 0.0
C706 C 0.91633 0.62196 0.23755 0.0
C707 C 0.90068 0.63264 0.21995 0.0
C708 C 0.90666 0.62305 0.19866 0.0
C709 C 0.92691 0.60741 0.20434 0.0
N710 N 0.90824 0.56934 0.24498 0.0
C711 C 0.85062 0.54545 0.24564 0.0
C712 C 0.84923 0.56524 0.2518 0.0
C713 C 0.87802 0.57684 0.25127 0.0
C714 C 0.88167 0.53822 0.23852 0.0
C715 C 0.90982 0.55026 0.23828 0.0
N716 N 0.99241 0.59884 0.25297 0.0
C717 C 0.0401 0.61411 0.23419 0.0
C718 C 0.05922 0.6116 0.2553 0.0
C719 C 0.04326 0.60392 0.2759 0.0
C720 C 1.00999 0.59762 0.27435 0.0
C721 C 1.00686 0.60804 0.23356 0.0
H722 H 0.99902 0.59096 0.29021 0.0
H723 H 0.99353 0.6101 0.21684 0.0
H724 H 0.87588 0.59177 0.2566 0.0
H725 H 0.93312 0.54386 0.23325 0.0
C726 C 1.00144 0.54959 0.23822 0.0
C727 C 0.94687 0.59698 0.18602 0.0
C728 C 0.93375 0.56725 0.307 0.0
C729 C 0.91518 0.6257 0.26251 0.0
H730 H 0.99402 0.57222 0.16072 0.0
H731 H 1.0238 0.54687 0.18894 0.0
H732 H 1.01207 0.52357 0.27849 0.0
H733 H 0.97229 0.53247 0.31556 0.0
H734 H 0.90952 0.59839 0.33717 0.0
H735 H 0.9016 0.63129 0.31295 0.0
H736 H 0.88636 0.64573 0.22231 0.0
H737 H 0.89855 0.62771 0.1808 0.0
H738 H 0.82618 0.57173 0.25766 0.0
H739 H 0.88442 0.52328 0.23305 0.0
H740 H 0.05101 0.62037 0.21797 0.0
H741 H 0.05685 0.60185 0.29272 0.0
C742 C 0.83924 0.58816 0.55199 0.0
C743 C 0.81663 0.57936 0.56756 0.0
C744 C 0.80061 0.56539 0.55438 0.0
C745 C 0.81378 0.56648 0.53142 0.0
N746 N 0.83781 0.57998 0.52931 0.0
Co747 Co 0.85698 0.58875 0.49751 0.0
N748 N 0.83881 0.56616 0.47933 0.0
C749 C 0.81549 0.55386 0.48734 0.0
C750 C 0.80954 0.539 0.47127 0.0
C751 C 0.83061 0.54218 0.45197 0.0
C752 C 0.84819 0.55884 0.45738 0.0
N753 N 0.87482 0.59817 0.46588 0.0
C754 C 0.87908 0.58864 0.44463 0.0
C755 C 0.89163 0.6008 0.4267 0.0
C756 C 0.89606 0.61848 0.43735 0.0
C757 C 0.88581 0.61615 0.46101 0.0
N758 N 0.87673 0.61102 0.51536 0.0
C759 C 0.89261 0.6262 0.50527 0.0
C760 C 0.90878 0.63754 0.52193 0.0
C761 C 0.90187 0.62937 0.54402 0.0
C762 C 0.88068 0.61388 0.53964 0.0
N763 N 0.89785 0.57332 0.50313 0.0
C764 C 0.95312 0.54781 0.50184 0.0
C765 C 0.95595 0.56736 0.4948 0.0
C766 C 0.92829 0.57979 0.49565 0.0
C767 C 0.92224 0.54183 0.51095 0.0
C768 C 0.89526 0.55469 0.51152 0.0
N769 N 0.81524 0.60335 0.49147 0.0
C770 C 0.76863 0.62178 0.50692 0.0
C771 C 0.74921 0.61733 0.48635 0.0
C772 C 0.76486 0.60674 0.46772 0.0
C773 C 0.79769 0.60023 0.47046 0.0
C774 C 0.80127 0.61475 0.50908 0.0
H775 H 0.80833 0.59194 0.45579 0.0
H776 H 0.81466 0.61819 0.52543 0.0
H777 H 0.93135 0.59444 0.48932 0.0
H778 H 0.87178 0.54912 0.51762 0.0
C779 C 0.80423 0.55511 0.51142 0.0
C780 C 0.85896 0.60553 0.55855 0.0
C781 C 0.87238 0.56807 0.44105 0.0
C782 C 0.89409 0.62851 0.48006 0.0
H783 H 0.8109 0.58308 0.58618 0.0
H784 H 0.78092 0.55597 0.56064 0.0
H785 H 0.79297 0.52683 0.47374 0.0
H786 H 0.83288 0.53328 0.43585 0.0
H787 H 0.89796 0.59712 0.40812 0.0
H788 H 0.90769 0.63106 0.4293 0.0
H789 H 0.92384 0.65021 0.51846 0.0
H790 H 0.90962 0.63502 0.56151 0.0
H791 H 0.9793 0.57305 0.48822 0.0
H792 H 0.91828 0.527 0.51657 0.0
H793 H 0.75875 0.63053 0.52154 0.0
H794 H 0.75163 0.60276 0.45132 0.0
C795 C 0.96416 0.17719 0.56772 0.0
C796 C 0.99005 0.18698 0.57897 0.0
C797 C 1.00493 0.19808 0.56148 0.0
C798 C 0.98771 0.19439 0.54046 0.0
N799 N 0.96226 0.18196 0.54354 0.0
Co800 Co 0.93611 0.17002 0.5163 0.0
N801 N 0.9547 0.18811 0.49121 0.0
C802 C 0.98088 0.1999 0.49445 0.0
C803 C 0.98903 0.21025 0.47396 0.0
C804 C 0.96666 0.20458 0.45656 0.0
C805 C 0.94591 0.19112 0.46748 0.0
N806 N 0.91027 0.15767 0.48943 0.0
C807 C 0.90254 0.16463 0.46703 0.0
C808 C 0.87798 0.15349 0.45606 0.0
C809 C 0.87165 0.13842 0.4713 0.0
C810 C 0.8916 0.14149 0.4911 0.0
N811 N 0.91639 0.15219 0.54121 0.0
C812 C 0.89592 0.13717 0.53687 0.0
C813 C 0.8822 0.12936 0.55746 0.0
C814 C 0.89554 0.13967 0.57619 0.0
C815 C 0.91761 0.1528 0.56591 0.0
N816 N 0.89918 0.18869 0.52141 0.0
C817 C 0.84682 0.21629 0.51955 0.0
C818 C 0.84051 0.19626 0.52036 0.0
C819 C 0.86672 0.18286 0.52117 0.0
C820 C 0.8802 0.22202 0.52134 0.0
C821 C 0.90568 0.20814 0.52252 0.0
N822 N 0.97425 0.15209 0.51082 0.0
C823 C 1.02052 0.13478 0.52874 0.0
C824 C 0.0403 0.1375 0.50785 0.0
C825 C 0.02421 0.14563 0.48745 0.0
C826 C 0.99118 0.15224 0.48914 0.0
C827 C 0.98812 0.1422 0.5299 0.0
H828 H 0.9802 0.15852 0.47308 0.0
H829 H 0.9752 0.14062 0.54684 0.0
H830 H 0.86043 0.16777 0.52083 0.0
H831 H 0.93081 0.21331 0.52333 0.0
C832 C 0.99535 0.20184 0.51744 0.0
C833 C 0.94407 0.16215 0.58 0.0
C834 C 0.9202 0.18025 0.45422 0.0
C835 C 0.8866 0.13245 0.51334 0.0
H836 H 0.99849 0.1857 0.59759 0.0
H837 H 0.02654 0.20722 0.56367 0.0
H838 H 1.00868 0.2208 0.47195 0.0
H839 H 0.96607 0.20957 0.43787 0.0
H840 H 0.86589 0.15594 0.43872 0.0
H841 H 0.85286 0.12737 0.46902 0.0
H842 H 0.86423 0.11776 0.55869 0.0
H843 H 0.89106 0.13703 0.59535 0.0
H844 H 0.81538 0.19076 0.52 0.0
H845 H 0.887 0.23715 0.52086 0.0
H846 H 0.03003 0.12743 0.54467 0.0
H847 H 0.03718 0.14776 0.47044 0.0
C848 C 0.67422 0.36782 0.79269 0.0
C849 C 0.66449 0.38692 0.79617 0.0
C850 C 0.66193 0.39515 0.77361 0.0
C851 C 0.67019 0.38076 0.75761 0.0
N852 N 0.6773 0.36379 0.7686 0.0
Co853 Co 0.69331 0.34012 0.75174 0.0
N854 N 0.67806 0.34994 0.71973 0.0
C855 C 0.67192 0.36848 0.71391 0.0
C856 C 0.66189 0.3708 0.69017 0.0
C857 C 0.66164 0.35254 0.68051 0.0
C858 C 0.67147 0.34011 0.69906 0.0
N859 N 0.70906 0.31669 0.73441 0.0
C860 C 0.69899 0.30944 0.71263 0.0
C861 C 0.71484 0.29214 0.70766 0.0
C862 C 0.73548 0.28851 0.72716 0.0
C863 C 0.73107 0.30377 0.74291 0.0
N864 N 0.70908 0.33054 0.78397 0.0
C865 C 0.73105 0.31608 0.78719 0.0
C866 C 0.73878 0.31309 0.81129 0.0
C867 C 0.72107 0.32673 0.82396 0.0
C868 C 0.70351 0.33741 0.80686 0.0
N869 N 0.65008 0.32688 0.75652 0.0
C870 C 0.59192 0.30377 0.75394 0.0
C871 C 0.62178 0.29638 0.76309 0.0
C872 C 0.65013 0.30807 0.76442 0.0
C873 C 0.59145 0.3235 0.74744 0.0
C874 C 0.62072 0.33477 0.74881 0.0
N875 N 0.73726 0.35248 0.74655 0.0
C876 C 0.78574 0.35712 0.72116 0.0
C877 C 0.80402 0.36507 0.74064 0.0
C878 C 0.78702 0.36734 0.76286 0.0
C879 C 0.75387 0.36126 0.76531 0.0
C880 C 0.75289 0.35082 0.72452 0.0
H881 H 0.74217 0.36314 0.78276 0.0
H882 H 0.74041 0.34412 0.70931 0.0
H883 H 0.67261 0.30141 0.77079 0.0
H884 H 0.61994 0.34961 0.7427 0.0
C885 C 0.66924 0.38232 0.73224 0.0
C886 C 0.68443 0.35502 0.81275 0.0
C887 C 0.67529 0.31919 0.69634 0.0
C888 C 0.74106 0.3045 0.76744 0.0
H889 H 0.66093 0.39444 0.81324 0.0
H890 H 0.65498 0.40989 0.76939 0.0
H891 H 0.65399 0.38401 0.68132 0.0
H892 H 0.65471 0.34878 0.66206 0.0
H893 H 0.71153 0.28304 0.69182 0.0
H894 H 0.7504 0.27572 0.73009 0.0
H895 H 0.75505 0.30217 0.81881 0.0
H896 H 0.72162 0.32885 0.84348 0.0
H897 H 0.62347 0.28146 0.76899 0.0
H898 H 0.56899 0.33003 0.74042 0.0
H899 H 0.79665 0.3555 0.70329 0.0
H900 H 0.79935 0.3732 0.77873 0.0
C901 C 0.61708 0.89589 0.80049 0.0
C902 C 0.62844 0.87724 0.80505 0.0
C903 C 0.64472 0.87131 0.78465 0.0
C904 C 0.64182 0.88632 0.76852 0.0
N905 N 0.6247 0.9015 0.77739 0.0
Co906 Co 0.61149 0.92511 0.75864 0.0
N907 N 0.62309 0.91283 0.7268 0.0
C908 C 0.63914 0.89593 0.72381 0.0
C909 C 0.64294 0.89062 0.69994 0.0
C910 C 0.62902 0.90528 0.68683 0.0
C911 C 0.6178 0.91885 0.70356 0.0
N912 N 0.59917 0.94889 0.7399 0.0
C913 C 0.59855 0.95238 0.71545 0.0
C914 C 0.59198 0.97168 0.71062 0.0
C915 C 0.58911 0.98072 0.73272 0.0
C916 C 0.59411 0.96648 0.74978 0.0
N917 N 0.59927 0.93685 0.7906 0.0
C918 C 0.59411 0.9558 0.79464 0.0
C919 C 0.58617 0.95981 0.81842 0.0
C920 C 0.58639 0.94228 0.83016 0.0
C921 C 0.59435 0.92846 0.81283 0.0
N922 N 0.65721 0.93604 0.76163 0.0
C923 C 0.71317 0.96106 0.76613 0.0
C924 C 0.69929 0.95163 0.78655 0.0
C925 C 0.6717 0.93913 0.78391 0.0
C926 C 0.69965 0.9563 0.74334 0.0
C927 C 0.67238 0.94379 0.74152 0.0
N928 N 0.56527 0.91522 0.75569 0.0
C929 C 0.5064 0.92191 0.75803 0.0
C930 C 0.49805 0.90244 0.75409 0.0
C931 C 0.52463 0.88955 0.75019 0.0
C932 C 0.55788 0.89621 0.751 0.0
C933 C 0.53957 0.92786 0.75899 0.0
H934 H 0.57752 0.8859 0.74815 0.0
H935 H 0.54421 0.94286 0.76272 0.0
H936 H 0.66126 0.93267 0.80009 0.0
H937 H 0.6626 0.94144 0.72367 0.0
C938 C 0.64812 0.88474 0.74375 0.0
C939 C 0.5997 0.90784 0.81863 0.0
C940 C 0.60805 0.93848 0.69643 0.0
C941 C 0.59281 0.96883 0.77512 0.0
H942 H 0.62465 0.86841 0.82105 0.0
H943 H 0.65523 0.85715 0.78134 0.0
H944 H 0.65447 0.87765 0.69291 0.0
H945 H 0.62859 0.9063 0.66715 0.0
H946 H 0.59061 0.97862 0.69296 0.0
H947 H 0.58434 0.9959 0.73594 0.0
H948 H 0.58011 0.97373 0.8262 0.0
H949 H 0.58163 0.93997 0.84935 0.0
H950 H 0.70919 0.95409 0.80461 0.0
H951 H 0.70882 0.96294 0.7268 0.0
H952 H 0.48737 0.93277 0.76043 0.0
H953 H 0.51994 0.87434 0.74709 0.0
C954 C 0.67977 0.89478 0.46404 0.0
C955 C 0.66825 0.87608 0.46007 0.0
C956 C 0.65333 0.87021 0.48107 0.0
C957 C 0.65711 0.88535 0.49687 0.0
N958 N 0.67355 0.90054 0.48726 0.0
Co959 Co 0.68721 0.92448 0.50511 0.0
N960 N 0.67687 0.91256 0.53748 0.0
C961 C 0.66143 0.89553 0.54122 0.0
C962 C 0.65868 0.8905 0.56528 0.0
C963 C 0.67265 0.90548 0.57773 0.0
C964 C 0.68283 0.91895 0.56045 0.0
N965 N 0.69992 0.94857 0.52306 0.0
C966 C 0.70102 0.95243 0.54742 0.0
C967 C 0.70757 0.97182 0.55166 0.0
C968 C 0.70994 0.98053 0.5293 0.0
C969 C 0.70469 0.96603 0.51267 0.0
N970 N 0.69816 0.93587 0.47264 0.0
C971 C 0.70329 0.95476 0.46809 0.0
C972 C 0.71022 0.9585 0.44404 0.0
C973 C 0.70928 0.94086 0.43267 0.0
C974 C 0.70192 0.92725 0.45046 0.0
N975 N 0.6413 0.93515 0.50264 0.0
C976 C 0.58546 0.96017 0.49809 0.0
C977 C 0.59859 0.95023 0.47783 0.0
C978 C 0.62612 0.93775 0.48051 0.0
C979 C 0.59953 0.95583 0.52085 0.0
C980 C 0.62674 0.94328 0.5227 0.0
N981 N 0.7337 0.91487 0.5074 0.0
C982 C 0.79244 0.92173 0.50343 0.0
C983 C 0.80113 0.90239 0.50793 0.0
C984 C 0.77482 0.88949 0.51283 0.0
C985 C 0.74148 0.89599 0.51251 0.0
C986 C 0.75915 0.92754 0.50309 0.0
H987 H 0.72207 0.88564 0.51611 0.0
H988 H 0.75423 0.94245 0.49902 0.0
H989 H 0.63599 0.93092 0.46441 0.0
H990 H 0.637 0.94121 0.54047 0.0
C991 C 0.65191 0.88401 0.52179 0.0
C992 C 0.69585 0.90663 0.44517 0.0
C993 C 0.6921 0.93878 0.56691 0.0
C994 C 0.70525 0.96804 0.48727 0.0
H995 H 0.67097 0.86722 0.44401 0.0
H996 H 0.643 0.85607 0.48488 0.0
H997 H 0.64776 0.87752 0.57285 0.0
H998 H 0.67376 0.90677 0.59737 0.0
H999 H 0.70925 0.97901 0.56912 0.0
H1000 H 0.71451 0.99568 0.52562 0.0
H1001 H 0.71599 0.97234 0.43584 0.0
H1002 H 0.71313 0.93832 0.41342 0.0
H1003 H 0.58818 0.95232 0.45984 0.0
H1004 H 0.59087 0.96283 0.53728 0.0
H1005 H 0.81129 0.93258 0.50018 0.0
H1006 H 0.77975 0.87436 0.51636 0.0
C1007 C 0.62496 0.37001 0.46649 0.0
C1008 C 0.63718 0.38876 0.46477 0.0
C1009 C 0.64486 0.39448 0.48783 0.0
C1010 C 0.63684 0.37904 0.50232 0.0
N1011 N 0.62446 0.36376 0.48998 0.0
Co1012 Co 0.60981 0.33853 0.50456 0.0
N1013 N 0.61653 0.3483 0.53858 0.0
C1014 C 0.6256 0.36635 0.54506 0.0
C1015 C 0.62758 0.36909 0.56973 0.0
C1016 C 0.61995 0.35156 0.57965 0.0
C1017 C 0.61395 0.33908 0.56031 0.0
N1018 N 0.59775 0.31288 0.51924 0.0
C1019 C 0.60143 0.30637 0.54253 0.0
C1020 C 0.59516 0.28672 0.5443 0.0
C1021 C 0.58796 0.28048 0.52124 0.0
C1022 C 0.59039 0.29663 0.50677 0.0
N1023 N 0.60011 0.32957 0.47049 0.0
C1024 C 0.58914 0.31183 0.46412 0.0
C1025 C 0.58341 0.3099 0.4396 0.0
C1026 C 0.59103 0.32754 0.42972 0.0
C1027 C 0.60111 0.33926 0.44883 0.0
N1028 N 0.6567 0.32837 0.503 0.0
C1029 C 0.7144 0.30468 0.50794 0.0
C1030 C 0.69429 0.30386 0.48713 0.0
C1031 C 0.66626 0.31583 0.48487 0.0
C1032 C 0.70678 0.31915 0.52498 0.0
C1033 C 0.67845 0.33085 0.52207 0.0
N1034 N 0.56271 0.34775 0.5063 0.0
C1035 C 0.50387 0.34055 0.50348 0.0
C1036 C 0.49512 0.36003 0.50626 0.0
C1037 C 0.52123 0.37322 0.50983 0.0
C1038 C 0.55453 0.36684 0.50983 0.0
C1039 C 0.53719 0.33483 0.50342 0.0
H1040 H 0.57334 0.37759 0.51246 0.0
H1041 H 0.54171 0.31979 0.50074 0.0
H1042 H 0.65241 0.31419 0.46839 0.0
H1043 H 0.6742 0.34136 0.53604 0.0
C1044 C 0.63607 0.37955 0.52761 0.0
C1045 C 0.61319 0.35912 0.44531 0.0
C1046 C 0.61176 0.31816 0.56329 0.0
C1047 C 0.58636 0.2971 0.48148 0.0
H1048 H 0.63947 0.39765 0.44862 0.0
H1049 H 0.65379 0.40855 0.49348 0.0
H1050 H 0.63548 0.38196 0.57932 0.0
H1051 H 0.62081 0.34807 0.59886 0.0
H1052 H 0.59632 0.27783 0.56053 0.0
H1053 H 0.58241 0.26583 0.51562 0.0
H1054 H 0.57518 0.29712 0.42997 0.0
H1055 H 0.5899 0.33125 0.41058 0.0
H1056 H 0.69984 0.29386 0.47254 0.0
H1057 H 0.7217 0.32102 0.54121 0.0
H1058 H 0.48503 0.32952 0.50131 0.0
H1059 H 0.51617 0.38848 0.51205 0.0
C1060 C 0.33807 0.67851 0.19938 0.0
C1061 C 0.31439 0.68672 0.18418 0.0
C1062 C 0.29671 0.69955 0.19797 0.0
C1063 C 0.31012 0.69839 0.22087 0.0
N1064 N 0.33583 0.68599 0.22243 0.0
Co1065 Co 0.35696 0.67754 0.25387 0.0
N1066 N 0.3352 0.69839 0.27319 0.0
C1067 C 0.31022 0.70971 0.26548 0.0
C1068 C 0.30124 0.72345 0.28227 0.0
C1069 C 0.32185 0.72057 0.30186 0.0
C1070 C 0.34215 0.70509 0.29598 0.0
N1071 N 0.37724 0.66843 0.285 0.0
C1072 C 0.37906 0.67706 0.30712 0.0
C1073 C 0.39365 0.66487 0.32422 0.0
C1074 C 0.40217 0.64834 0.31223 0.0
C1075 C 0.39197 0.65119 0.28869 0.0
N1076 N 0.37985 0.65695 0.23481 0.0
C1077 C 0.39895 0.64272 0.244 0.0
C1078 C 0.41591 0.63254 0.22662 0.0
C1079 C 0.40626 0.64045 0.20497 0.0
C1080 C 0.38297 0.65462 0.21037 0.0
N1081 N 0.39509 0.69545 0.24851 0.0
C1082 C 0.44583 0.72421 0.2486 0.0
C1083 C 0.45236 0.70498 0.25569 0.0
C1084 C 0.42683 0.69091 0.25549 0.0
C1085 C 0.41364 0.72819 0.24021 0.0
C1086 C 0.38901 0.71383 0.24031 0.0
N1087 N 0.31771 0.66057 0.25974 0.0
C1088 C 0.2699 0.64368 0.24325 0.0
C1089 C 0.25207 0.64572 0.26518 0.0
C1090 C 0.26972 0.65374 0.28495 0.0
C1091 C 0.30199 0.6611 0.28184 0.0
C1092 C 0.30259 0.65071 0.24114 0.0
H1093 H 0.3135 0.66808 0.29721 0.0
H1094 H 0.3148 0.64891 0.22395 0.0
H1095 H 0.43265 0.67655 0.26182 0.0
H1096 H 0.36458 0.71801 0.23456 0.0
C1097 C 0.29922 0.70864 0.24135 0.0
C1098 C 0.35926 0.66197 0.1922 0.0
C1099 C 0.36656 0.69645 0.3128 0.0
C1100 C 0.40191 0.64001 0.269 0.0
H1101 H 0.3091 0.68327 0.1654 0.0
H1102 H 0.27583 0.70823 0.19214 0.0
H1103 H 0.28277 0.73468 0.2802 0.0
H1104 H 0.32191 0.72894 0.3185 0.0
H1105 H 0.3981 0.66761 0.34334 0.0
H1106 H 0.41574 0.63613 0.31953 0.0
H1107 H 0.43309 0.62071 0.22936 0.0
H1108 H 0.41365 0.63541 0.18712 0.0
H1109 H 0.47669 0.70094 0.2623 0.0
H1110 H 0.40713 0.74252 0.23385 0.0
H1111 H 0.25853 0.63744 0.22725 0.0
H1112 H 0.25864 0.65486 0.30281 0.0
C1113 C 0.46616 0.08155 0.20444 0.0
C1114 C 0.4866 0.0721 0.18787 0.0
C1115 C 0.50302 0.05794 0.2004 0.0
C1116 C 0.49235 0.05957 0.22397 0.0
N1117 N 0.46955 0.07363 0.22713 0.0
Co1118 Co 0.45463 0.08318 0.25965 0.0
N1119 N 0.47238 0.06012 0.27705 0.0
C1120 C 0.49402 0.04723 0.26808 0.0
C1121 C 0.5 0.03216 0.28385 0.0
C1122 C 0.48075 0.03582 0.30398 0.0
C1123 C 0.46419 0.05299 0.29935 0.0
N1124 N 0.44096 0.09312 0.29204 0.0
C1125 C 0.43684 0.08353 0.31333 0.0
C1126 C 0.42694 0.096 0.33176 0.0
C1127 C 0.42404 0.11393 0.3214 0.0
C1128 C 0.4325 0.11145 0.29739 0.0
N1129 N 0.43543 0.1061 0.2426 0.0
C1130 C 0.4232 0.12205 0.25344 0.0
C1131 C 0.40765 0.13438 0.23759 0.0
C1132 C 0.41114 0.12604 0.2152 0.0
C1133 C 0.4298 0.10934 0.21851 0.0
N1134 N 0.41172 0.0692 0.25651 0.0
C1135 C 0.35322 0.0462 0.26014 0.0
C1136 C 0.35336 0.06598 0.26644 0.0
C1137 C 0.3826 0.07712 0.26453 0.0
C1138 C 0.38301 0.03867 0.25082 0.0
C1139 C 0.41153 0.05032 0.24898 0.0
N1140 N 0.4984 0.09648 0.26296 0.0
C1141 C 0.54295 0.11476 0.24423 0.0
C1142 C 0.56592 0.10893 0.26214 0.0
C1143 C 0.55307 0.09797 0.28165 0.0
C1144 C 0.5194 0.09226 0.28193 0.0
C1145 C 0.50994 0.1083 0.24481 0.0
H1146 H 0.51082 0.08372 0.29714 0.0
H1147 H 0.49429 0.11249 0.2299 0.0
H1148 H 0.38178 0.09199 0.27032 0.0
H1149 H 0.43393 0.04365 0.24245 0.0
C1150 C 0.50307 0.04809 0.24353 0.0
C1151 C 0.44683 0.0992 0.19845 0.0
C1152 C 0.44186 0.06272 0.31659 0.0
C1153 C 0.42434 0.12423 0.2787 0.0
H1154 H 0.4908 0.07551 0.16892 0.0
H1155 H 0.52136 0.04803 0.19328 0.0
H1156 H 0.51518 0.01953 0.28062 0.0
H1157 H 0.47888 0.02681 0.32004 0.0
H1158 H 0.42142 0.09242 0.35053 0.0
H1159 H 0.41445 0.12687 0.32995 0.0
H1160 H 0.39504 0.14778 0.24182 0.0
H1161 H 0.40225 0.13211 0.19824 0.0
H1162 H 0.33112 0.07292 0.27311 0.0
H1163 H 0.38498 0.02359 0.24582 0.0
H1164 H 0.55028 0.12406 0.22933 0.0
H1165 H 0.56897 0.09313 0.29631 0.0
C1166 C 0.32672 0.08368 0.55371 0.0
C1167 C 0.304 0.0756 0.56979 0.0
C1168 C 0.28669 0.06187 0.5571 0.0
C1169 C 0.29937 0.06236 0.53395 0.0
N1170 N 0.32431 0.07521 0.53126 0.0
Co1171 Co 0.34394 0.08287 0.49912 0.0
N1172 N 0.32386 0.06045 0.48171 0.0
C1173 C 0.29982 0.04886 0.49031 0.0
C1174 C 0.29207 0.03406 0.47459 0.0
C1175 C 0.31261 0.03652 0.45485 0.0
C1176 C 0.33169 0.05276 0.45963 0.0
N1177 N 0.36221 0.09129 0.46716 0.0
C1178 C 0.36496 0.08152 0.44594 0.0
C1179 C 0.37805 0.09322 0.42769 0.0
C1180 C 0.38451 0.11075 0.43807 0.0
C1181 C 0.37478 0.10886 0.46188 0.0
N1182 N 0.36559 0.10493 0.51629 0.0
C1183 C 0.38269 0.11945 0.50577 0.0
C1184 C 0.39919 0.13094 0.52209 0.0
C1185 C 0.39134 0.12355 0.54443 0.0
C1186 C 0.36946 0.10832 0.54046 0.0
N1187 N 0.38368 0.06644 0.50507 0.0
C1188 C 0.4368 0.03942 0.50793 0.0
C1189 C 0.44133 0.05792 0.49768 0.0
C1190 C 0.41467 0.07123 0.49664 0.0
C1191 C 0.40513 0.0351 0.51701 0.0
C1192 C 0.37932 0.04858 0.5154 0.0
N1193 N 0.30307 0.09834 0.49294 0.0
C1194 C 0.25705 0.11697 0.50903 0.0
C1195 C 0.23647 0.11185 0.48931 0.0
C1196 C 0.25145 0.1011 0.4705 0.0
C1197 C 0.28458 0.0949 0.47244 0.0
C1198 C 0.28993 0.11017 0.51046 0.0
H1199 H 0.29458 0.0864 0.45773 0.0
H1200 H 0.30409 0.11397 0.52632 0.0
H1201 H 0.41907 0.0852 0.48853 0.0
H1202 H 0.35539 0.04409 0.52185 0.0
C1203 C 0.28887 0.05083 0.51438 0.0
C1204 C 0.3474 0.10074 0.55958 0.0
C1205 C 0.3557 0.06124 0.44246 0.0
C1206 C 0.38428 0.12124 0.48055 0.0
H1207 H 0.29924 0.07967 0.58845 0.0
H1208 H 0.26662 0.05294 0.56383 0.0
H1209 H 0.27449 0.02245 0.4775 0.0
H1210 H 0.31344 0.02745 0.43881 0.0
H1211 H 0.38321 0.0894 0.40896 0.0
H1212 H 0.39687 0.12295 0.42967 0.0
H1213 H 0.41493 0.14325 0.51823 0.0
H1214 H 0.39898 0.12956 0.56175 0.0
H1215 H 0.46533 0.06216 0.49062 0.0
H1216 H 0.39983 0.02103 0.52479 0.0
H1217 H 0.24787 0.12596 0.52365 0.0
H1218 H 0.23749 0.09665 0.45464 0.0
C1219 C 0.46358 0.67718 0.55914 0.0
C1220 C 0.48722 0.68545 0.57441 0.0
C1221 C 0.50477 0.69845 0.56079 0.0
C1222 C 0.49156 0.69729 0.53787 0.0
N1223 N 0.46619 0.68461 0.53612 0.0
Co1224 Co 0.44671 0.67568 0.50452 0.0
N1225 N 0.46673 0.69746 0.4857 0.0
C1226 C 0.49065 0.70941 0.49368 0.0
C1227 C 0.49818 0.72379 0.47732 0.0
C1228 C 0.47771 0.72066 0.45772 0.0
C1229 C 0.45901 0.70437 0.46315 0.0
N1230 N 0.42864 0.66608 0.473 0.0
C1231 C 0.42623 0.67494 0.45104 0.0
C1232 C 0.41361 0.6624 0.43354 0.0
C1233 C 0.40704 0.64533 0.44513 0.0
C1234 C 0.41633 0.64828 0.46887 0.0
N1235 N 0.42516 0.65425 0.52317 0.0
C1236 C 0.40857 0.6392 0.51344 0.0
C1237 C 0.39196 0.62829 0.53033 0.0
C1238 C 0.39919 0.63662 0.55224 0.0
C1239 C 0.42098 0.65177 0.54757 0.0
N1240 N 0.40685 0.6921 0.50936 0.0
C1241 C 0.35263 0.71828 0.5117 0.0
C1242 C 0.34862 0.69941 0.50257 0.0
C1243 C 0.37585 0.68654 0.50177 0.0
C1244 C 0.38441 0.72349 0.51982 0.0
C1245 C 0.41083 0.71039 0.51847 0.0
N1246 N 0.48759 0.66 0.49956 0.0
C1247 C 0.53162 0.64078 0.51732 0.0
C1248 C 0.55367 0.64557 0.49836 0.0
C1249 C 0.54036 0.65628 0.47882 0.0
C1250 C 0.50734 0.66297 0.47957 0.0
C1251 C 0.49919 0.64815 0.51766 0.0
H1252 H 0.49848 0.6714 0.46437 0.0
H1253 H 0.48421 0.64483 0.53328 0.0
H1254 H 0.37181 0.67222 0.49463 0.0
H1255 H 0.43481 0.7154 0.52425 0.0
C1256 C 0.50189 0.70814 0.5177 0.0
C1257 C 0.44149 0.66103 0.56658 0.0
C1258 C 0.43578 0.69503 0.44604 0.0
C1259 C 0.40709 0.63655 0.48832 0.0
H1260 H 0.49265 0.68197 0.59317 0.0
H1261 H 0.52533 0.70733 0.56677 0.0
H1262 H 0.51557 0.73557 0.47969 0.0
H1263 H 0.47676 0.72937 0.44135 0.0
H1264 H 0.40903 0.66532 0.41446 0.0
H1265 H 0.39511 0.6327 0.43746 0.0
H1266 H 0.3762 0.61588 0.5271 0.0
H1267 H 0.39047 0.63153 0.56974 0.0
H1268 H 0.32457 0.69453 0.4963 0.0
H1269 H 0.38921 0.73788 0.52674 0.0
H1270 H 0.53937 0.63171 0.53235 0.0
H1271 H 0.55556 0.66031 0.4634 0.0
C1272 C 0.67989 0.86557 0.29515 0.0
C1273 C 0.66887 0.88437 0.29904 0.0
C1274 C 0.6655 0.89278 0.27665 0.0
C1275 C 0.67455 0.87877 0.26036 0.0
N1276 N 0.6829 0.86186 0.27096 0.0
Co1277 Co 0.69978 0.83862 0.25357 0.0
N1278 N 0.68347 0.84852 0.22186 0.0
C1279 C 0.67691 0.8671 0.21646 0.0
C1280 C 0.66729 0.86978 0.19272 0.0
C1281 C 0.6677 0.85172 0.18257 0.0
C1282 C 0.67736 0.83898 0.20087 0.0
N1283 N 0.71566 0.81546 0.23574 0.0
C1284 C 0.70525 0.80825 0.21395 0.0
C1285 C 0.72116 0.79096 0.20888 0.0
C1286 C 0.74228 0.78741 0.22813 0.0
C1287 C 0.73805 0.80265 0.24393 0.0
N1288 N 0.7173 0.8293 0.28542 0.0
C1289 C 0.7403 0.81533 0.28806 0.0
C1290 C 0.74937 0.81254 0.31195 0.0
C1291 C 0.73144 0.82582 0.32508 0.0
C1292 C 0.71236 0.83606 0.30845 0.0
N1293 N 0.6573 0.82442 0.25893 0.0
C1294 C 0.60262 0.79839 0.2565 0.0
C1295 C 0.63241 0.79329 0.26795 0.0
C1296 C 0.65899 0.80627 0.26895 0.0
C1297 C 0.59997 0.81757 0.24792 0.0
C1298 C 0.62752 0.83035 0.24936 0.0
N1299 N 0.74327 0.85164 0.24798 0.0
C1300 C 0.79381 0.85424 0.22421 0.0
C1301 C 0.81056 0.86398 0.24315 0.0
C1302 C 0.79172 0.86818 0.2641 0.0
C1303 C 0.75858 0.8619 0.26617 0.0
C1304 C 0.76045 0.8485 0.22683 0.0
H1305 H 0.7458 0.86488 0.28296 0.0
H1306 H 0.74898 0.84078 0.21197 0.0
H1307 H 0.68168 0.80088 0.27656 0.0
H1308 H 0.62519 0.84467 0.24165 0.0
C1309 C 0.67357 0.88064 0.23505 0.0
C1310 C 0.69183 0.85297 0.31486 0.0
C1311 C 0.6815 0.81811 0.19755 0.0
C1312 C 0.7494 0.80367 0.26814 0.0
H1313 H 0.66512 0.89162 0.31627 0.0
H1314 H 0.65761 0.90742 0.27274 0.0
H1315 H 0.65931 0.88309 0.18414 0.0
H1316 H 0.66138 0.84835 0.16388 0.0
H1317 H 0.71768 0.7818 0.19313 0.0
H1318 H 0.75756 0.77473 0.23081 0.0
H1319 H 0.7665 0.8019 0.31906 0.0
H1320 H 0.73265 0.82792 0.34459 0.0
H1321 H 0.63575 0.77894 0.27548 0.0
H1322 H 0.57742 0.82238 0.23908 0.0
H1323 H 0.80651 0.85036 0.20757 0.0
H1324 H 0.80242 0.87616 0.27911 0.0
C1325 C 0.62117 0.40162 0.29593 0.0
C1326 C 0.63205 0.38279 0.3 0.0
C1327 C 0.63623 0.37442 0.27775 0.0
C1328 C 0.62769 0.38843 0.26129 0.0
N1329 N 0.61894 0.40537 0.27161 0.0
Co1330 Co 0.60194 0.42843 0.2535 0.0
N1331 N 0.61721 0.41792 0.22169 0.0
C1332 C 0.62501 0.39939 0.21704 0.0
C1333 C 0.63446 0.39623 0.1934 0.0
C1334 C 0.63256 0.41393 0.18236 0.0
C1335 C 0.62213 0.42694 0.20005 0.0
N1336 N 0.58516 0.45124 0.23506 0.0
C1337 C 0.5929 0.45754 0.21225 0.0
C1338 C 0.57615 0.47451 0.20682 0.0
C1339 C 0.55722 0.47888 0.22685 0.0
C1340 C 0.56348 0.46441 0.24341 0.0
N1341 N 0.58638 0.43878 0.28545 0.0
C1342 C 0.56514 0.45365 0.28822 0.0
C1343 C 0.55802 0.45755 0.31214 0.0
C1344 C 0.57519 0.44402 0.32532 0.0
C1345 C 0.59166 0.43239 0.30866 0.0
N1346 N 0.64498 0.44212 0.2575 0.0
C1347 C 0.7041 0.46467 0.25637 0.0
C1348 C 0.67386 0.47245 0.26429 0.0
C1349 C 0.64501 0.46108 0.26475 0.0
C1350 C 0.70409 0.4449 0.24995 0.0
C1351 C 0.67447 0.43394 0.25068 0.0
N1352 N 0.55817 0.4155 0.24922 0.0
C1353 C 0.50893 0.40993 0.22477 0.0
C1354 C 0.49154 0.40211 0.24477 0.0
C1355 C 0.5093 0.40043 0.26676 0.0
C1356 C 0.54229 0.40694 0.2685 0.0
C1357 C 0.5418 0.41654 0.22737 0.0
H1358 H 0.55443 0.40553 0.28585 0.0
H1359 H 0.55366 0.42298 0.21173 0.0
H1360 H 0.62242 0.46801 0.27032 0.0
H1361 H 0.67526 0.41901 0.24503 0.0
C1362 C 0.62891 0.38632 0.23609 0.0
C1363 C 0.60853 0.41418 0.31551 0.0
C1364 C 0.61501 0.44738 0.19516 0.0
C1365 C 0.55466 0.46456 0.26808 0.0
H1366 H 0.63515 0.37533 0.31716 0.0
H1367 H 0.64408 0.35976 0.27402 0.0
H1368 H 0.64306 0.38285 0.18538 0.0
H1369 H 0.63813 0.41684 0.16343 0.0
H1370 H 0.5777 0.48295 0.19024 0.0
H1371 H 0.54202 0.49159 0.22945 0.0
H1372 H 0.54234 0.46893 0.31921 0.0
H1373 H 0.57477 0.44251 0.34495 0.0
H1374 H 0.67225 0.48737 0.27012 0.0
H1375 H 0.72659 0.438 0.24367 0.0
H1376 H 0.4973 0.41114 0.20706 0.0
H1377 H 0.49763 0.39471 0.28298 0.0
C1378 C 0.67836 0.39934 0.96164 0.0
C1379 C 0.66597 0.38072 0.95853 0.0
C1380 C 0.65589 0.37443 0.98081 0.0
C1381 C 0.66289 0.38933 0.99633 0.0
N1382 N 0.67674 0.40489 0.9854 0.0
Co1383 Co 0.69194 0.42917 1.00223 0.0
N1384 N 0.67919 0.41886 0.03505 0.0
C1385 C 0.66943 0.40064 0.04013 0.0
C1386 C 0.66343 0.39732 0.06432 0.0
C1387 C 0.66936 0.41458 0.07542 0.0
C1388 C 0.67833 0.42752 0.05718 0.0
N1389 N 0.70436 0.45395 0.01902 0.0
C1390 C 0.6987 0.45991 0.04231 0.0
C1391 C 0.70818 0.479 0.04561 0.0
C1392 C 0.71991 0.48538 0.02361 0.0
C1393 C 0.7167 0.46992 0.00813 0.0
N1394 N 0.70691 0.4387 0.96948 0.0
C1395 C 0.72269 0.45562 0.96518 0.0
C1396 C 0.73168 0.45807 0.94129 0.0
C1397 C 0.72162 0.44158 0.92972 0.0
C1398 C 0.70707 0.42985 0.94725 0.0
N1399 N 0.64671 0.44091 0.99777 0.0
C1400 C 0.58755 0.46352 0.99976 0.0
C1401 C 0.61459 0.46906 0.98545 0.0
C1402 C 0.64328 0.45766 0.98449 0.0
C1403 C 0.58991 0.44555 0.01174 0.0
C1404 C 0.61945 0.43453 0.01046 0.0
N1405 N 0.73808 0.41827 0.00676 0.0
C1406 C 0.79748 0.42419 0.00976 0.0
C1407 C 0.80507 0.40461 0.00696 0.0
C1408 C 0.77814 0.39175 0.00546 0.0
C1409 C 0.74513 0.39881 0.0054 0.0
C1410 C 0.76456 0.43058 0.00972 0.0
H1411 H 0.72578 0.38825 1.00379 0.0
H1412 H 0.76162 0.44575 0.01168 0.0
H1413 H 0.66278 0.46316 0.97342 0.0
H1414 H 0.62017 0.42112 0.02042 0.0
C1415 C 0.66139 0.38796 0.02151 0.0
C1416 C 0.69365 0.41049 0.94183 0.0
C1417 C 0.68385 0.44808 0.06161 0.0
C1418 C 0.72575 0.46957 0.98352 0.0
H1419 H 0.66553 0.37203 0.9422 0.0
H1420 H 0.64636 0.36025 0.98538 0.0
H1421 H 0.65432 0.38419 0.07273 0.0
H1422 H 0.66634 0.41744 0.09468 0.0
H1423 H 0.70648 0.48745 0.06214 0.0
H1424 H 0.72934 0.49966 0.01937 0.0
H1425 H 0.74361 0.47053 0.93315 0.0
H1426 H 0.72453 0.43859 0.9105 0.0
H1427 H 0.61384 0.48236 0.975 0.0
H1428 H 0.56956 0.4403 0.02275 0.0
H1429 H 0.81709 0.4348 0.01176 0.0
H1430 H 0.78246 0.37639 1.00352 0.0
C1431 C 0.60674 0.86731 0.97013 0.0
C1432 C 0.62052 0.8855 0.96634 0.0
C1433 C 0.63406 0.89114 0.98795 0.0
C1434 C 0.62764 0.87625 1.00374 0.0
N1435 N 0.61072 0.86147 0.99361 0.0
Co1436 Co 0.59581 0.83741 0.01075 0.0
N1437 N 0.60615 0.84861 0.04356 0.0
C1438 C 0.62219 0.86538 0.04784 0.0
C1439 C 0.62546 0.86974 0.07205 0.0
C1440 C 0.61118 0.85461 0.08405 0.0
C1441 C 0.60016 0.84175 0.06636 0.0
N1442 N 0.58189 0.81318 0.02801 0.0
C1443 C 0.58071 0.80882 0.05224 0.0
C1444 C 0.57284 0.78952 0.05594 0.0
C1445 C 0.56964 0.78136 0.03335 0.0
C1446 C 0.57573 0.79608 0.01716 0.0
N1447 N 0.58485 0.82672 0.97782 0.0
C1448 C 0.57796 0.80808 0.9729 0.0
C1449 C 0.57175 0.80473 0.94866 0.0
C1450 C 0.57513 0.82236 0.93748 0.0
C1451 C 0.58323 0.83553 0.95556 0.0
N1452 N 0.64142 0.82628 0.00845 0.0
C1453 C 0.69895 0.80259 0.00454 0.0
C1454 C 0.68541 0.81213 0.98409 0.0
C1455 C 0.65705 0.82398 0.98647 0.0
C1456 C 0.68419 0.80647 0.02712 0.0
C1457 C 0.65596 0.81823 0.02864 0.0
N1458 N 0.54972 0.84772 0.01301 0.0
C1459 C 0.49031 0.84221 0.01016 0.0
C1460 C 0.48306 0.8616 0.01574 0.0
C1461 C 0.51056 0.87382 0.01995 0.0
C1462 C 0.54332 0.86664 0.01865 0.0
C1463 C 0.52329 0.83571 0.00871 0.0
H1464 H 0.56342 0.87652 0.02215 0.0
H1465 H 0.52717 0.8208 1.00409 0.0
H1466 H 0.6472 0.83067 0.97027 0.0
H1467 H 0.64544 0.8201 0.04631 0.0
C1468 C 0.63244 0.87712 0.02876 0.0
C1469 C 0.59206 0.85581 0.95044 0.0
C1470 C 0.59007 0.8219 0.07218 0.0
C1471 C 0.57485 0.79459 0.99175 0.0
H1472 H 0.62077 0.89387 0.94966 0.0
H1473 H 0.64597 0.90481 0.99192 0.0
H1474 H 0.63711 0.88234 0.08004 0.0
H1475 H 0.61045 0.8528 0.10364 0.0
H1476 H 0.57067 0.78204 0.0732 0.0
H1477 H 0.56394 0.76642 0.02924 0.0
H1478 H 0.56513 0.79115 0.94017 0.0
H1479 H 0.57248 0.82517 0.91817 0.0
H1480 H 0.69581 0.80998 0.96613 0.0
H1481 H 0.69409 0.8003 0.04373 0.0
H1482 H 0.47066 0.83181 0.00719 0.0
H1483 H 0.50706 0.88899 0.02396 0.0
C1484 C 0.33865 0.17489 0.69524 0.0
C1485 C 0.31336 0.18362 0.68208 0.0
C1486 C 0.29794 0.19621 0.69756 0.0
C1487 C 0.31438 0.19443 0.71933 0.0
N1488 N 0.33987 0.18185 0.71858 0.0
Co1489 Co 0.36493 0.17236 0.74789 0.0
N1490 N 0.34516 0.19226 0.76999 0.0
C1491 C 0.31888 0.20345 0.7646 0.0
C1492 C 0.3091 0.21497 0.78358 0.0
C1493 C 0.33058 0.21083 0.80221 0.0
C1494 C 0.35271 0.19711 0.79346 0.0
N1495 N 0.38961 0.16235 0.77686 0.0
C1496 C 0.39746 0.17162 0.79787 0.0
C1497 C 0.4233 0.16226 0.80983 0.0
C1498 C 0.42956 0.14572 0.79732 0.0
C1499 C 0.40876 0.14631 0.77763 0.0
N1500 N 0.38596 0.15283 0.72589 0.0
C1501 C 0.40635 0.13835 0.73256 0.0
C1502 C 0.42097 0.12905 0.71336 0.0
C1503 C 0.40825 0.13775 0.69312 0.0
C1504 C 0.38574 0.15152 0.70123 0.0
N1505 N 0.40208 0.19072 0.74128 0.0
C1506 C 0.4547 0.2183 0.73934 0.0
C1507 C 0.4607 0.19848 0.74315 0.0
C1508 C 0.43446 0.18509 0.7438 0.0
C1509 C 0.42146 0.22377 0.73573 0.0
C1510 C 0.3958 0.20988 0.73668 0.0
N1511 N 0.3266 0.15472 0.75482 0.0
C1512 C 0.28198 0.13522 0.73816 0.0
C1513 C 0.26086 0.13949 0.75786 0.0
C1514 C 0.27537 0.14967 0.77739 0.0
C1515 C 0.30827 0.15663 0.77575 0.0
C1516 C 0.31418 0.14294 0.73696 0.0
H1517 H 0.31801 0.16448 0.79111 0.0
H1518 H 0.3282 0.13995 0.72089 0.0
H1519 H 0.44068 0.17025 0.74711 0.0
H1520 H 0.37073 0.21485 0.73424 0.0
C1521 C 0.30559 0.20355 0.74109 0.0
C1522 C 0.35888 0.15879 0.68571 0.0
C1523 C 0.37889 0.18798 0.80842 0.0
C1524 C 0.41461 0.13555 0.75678 0.0
H1525 H 0.30576 0.18068 0.66357 0.0
H1526 H 0.27643 0.20504 0.69366 0.0
H1527 H 0.28885 0.22523 0.78383 0.0
H1528 H 0.32942 0.21699 0.82027 0.0
H1529 H 0.43652 0.16686 0.82598 0.0
H1530 H 0.44926 0.13546 0.80088 0.0
H1531 H 0.43891 0.11743 0.714 0.0
H1532 H 0.41294 0.13343 0.67449 0.0
H1533 H 0.48556 0.19318 0.74636 0.0
H1534 H 0.4151 0.23871 0.73218 0.0
H1535 H 0.27364 0.12635 0.72314 0.0
H1536 H 0.26121 0.15308 0.79353 0.0
C1537 C 0.46306 0.581 0.69901 0.0
C1538 C 0.48531 0.57145 0.68387 0.0
C1539 C 0.503 0.55893 0.69816 0.0
C1540 C 0.4912 0.5616 0.7213 0.0
N1541 N 0.46661 0.57478 0.72254 0.0
Co1542 Co 0.44871 0.58543 0.75374 0.0
N1543 N 0.46819 0.56426 0.7738 0.0
C1544 C 0.49176 0.55186 0.76651 0.0
C1545 C 0.49917 0.53818 0.78386 0.0
C1546 C 0.47894 0.54227 0.80331 0.0
C1547 C 0.46039 0.55834 0.79678 0.0
N1548 N 0.43174 0.59654 0.78476 0.0
C1549 C 0.42835 0.58834 0.80705 0.0
C1550 C 0.41631 0.60159 0.82387 0.0
C1551 C 0.41126 0.6185 0.81151 0.0
C1552 C 0.42074 0.61473 0.788 0.0
N1553 N 0.42803 0.60649 0.73406 0.0
C1554 C 0.41291 0.62233 0.743 0.0
C1555 C 0.39596 0.63267 0.72572 0.0
C1556 C 0.40145 0.62308 0.70438 0.0
C1557 C 0.4227 0.60781 0.70967 0.0
N1558 N 0.40796 0.56951 0.7503 0.0
C1559 C 0.35154 0.54477 0.74956 0.0
C1560 C 0.34908 0.56439 0.75637 0.0
C1561 C 0.37733 0.57643 0.75653 0.0
C1562 C 0.38306 0.53812 0.74272 0.0
C1563 C 0.41061 0.55057 0.74323 0.0
N1564 N 0.49051 0.6006 0.75723 0.0
C1565 C 0.53721 0.61592 0.73723 0.0
C1566 C 0.55733 0.61346 0.75785 0.0
C1567 C 0.54229 0.60592 0.7789 0.0
C1568 C 0.50898 0.59958 0.77821 0.0
C1569 C 0.50399 0.60981 0.73745 0.0
H1570 H 0.49877 0.59294 0.79435 0.0
H1571 H 0.48989 0.61171 0.72101 0.0
H1572 H 0.37441 0.59125 0.76219 0.0
H1573 H 0.43429 0.54461 0.73827 0.0
C1574 C 0.50207 0.55175 0.74218 0.0
C1575 C 0.44195 0.59743 0.69093 0.0
C1576 C 0.43682 0.56828 0.81304 0.0
C1577 C 0.41217 0.62599 0.76795 0.0
H1578 H 0.48978 0.57377 0.6647 0.0
H1579 H 0.52274 0.54937 0.69243 0.0
H1580 H 0.51617 0.52615 0.7822 0.0
H1581 H 0.47789 0.53429 0.82026 0.0
H1582 H 0.41109 0.59923 0.84298 0.0
H1583 H 0.40001 0.63157 0.8185 0.0
H1584 H 0.38094 0.64545 0.72838 0.0
H1585 H 0.39208 0.62745 0.68673 0.0
H1586 H 0.32559 0.57042 0.76209 0.0
H1587 H 0.38663 0.52335 0.73682 0.0
H1588 H 0.54738 0.62209 0.72069 0.0
H1589 H 0.55665 0.60391 0.79539 0.0
C1590 C 0.33694 0.58781 0.05762 0.0
C1591 C 0.31556 0.57881 0.07392 0.0
C1592 C 0.29822 0.5652 0.06105 0.0
C1593 C 0.30948 0.56668 0.03757 0.0
N1594 N 0.33355 0.58006 0.0348 0.0
Co1595 Co 0.35049 0.58924 1.00245 0.0
N1596 N 0.32988 0.56737 0.98428 0.0
C1597 C 0.30713 0.55503 0.99309 0.0
C1598 C 0.29907 0.54065 0.97685 0.0
C1599 C 0.31807 0.54417 0.95654 0.0
C1600 C 0.3366 0.5606 0.9615 0.0
N1601 N 0.36612 0.59916 0.97038 0.0
C1602 C 0.36781 0.59027 0.94847 0.0
C1603 C 0.37911 0.60286 0.93053 0.0
C1604 C 0.38559 0.62006 0.9418 0.0
C1605 C 0.37762 0.6171 0.9658 0.0
N1606 N 0.37281 0.61077 0.02022 0.0
C1607 C 0.38875 0.62587 0.01003 0.0
C1608 C 0.40643 0.63668 0.02642 0.0
C1609 C 0.40052 0.62824 0.04851 0.0
C1610 C 0.3785 0.6131 0.04442 0.0
N1611 N 0.39115 0.57315 0.00587 0.0
C1612 C 0.44704 0.54788 0.00597 0.0
C1613 C 0.44908 0.56697 0.99696 0.0
C1614 C 0.42124 0.5793 0.99728 0.0
C1615 C 0.41617 0.54209 0.01538 0.0
C1616 C 0.38887 0.55475 0.01505 0.0
N1617 N 0.30883 0.60459 0.99892 0.0
C1618 C 0.26571 0.62366 0.01801 0.0
C1619 C 0.24357 0.62045 0.99862 0.0
C1620 C 0.25578 0.60976 0.97874 0.0
C1621 C 0.28834 0.60217 0.97915 0.0
C1622 C 0.29786 0.61594 0.01765 0.0
H1623 H 0.29654 0.59391 0.96363 0.0
H1624 H 0.31325 0.61877 0.03314 0.0
H1625 H 0.42403 0.59368 0.98999 0.0
H1626 H 0.36566 0.54933 0.02185 0.0
C1627 C 0.29809 0.55581 0.01768 0.0
C1628 C 0.35735 0.60499 0.0638 0.0
C1629 C 0.35925 0.57 0.94403 0.0
C1630 C 0.38823 0.62877 0.98492 0.0
H1631 H 0.31156 0.58215 0.09289 0.0
H1632 H 0.27894 0.55574 0.06789 0.0
H1633 H 0.28246 0.52857 0.97978 0.0
H1634 H 0.31839 0.53559 0.94008 0.0
H1635 H 0.38312 0.59982 0.91143 0.0
H1636 H 0.39693 0.63274 0.93376 0.0
H1637 H 0.4216 0.64928 0.02279 0.0
H1638 H 0.40924 0.63358 0.06591 0.0
H1639 H 0.47185 0.57241 0.9891 0.0
H1640 H 0.41285 0.52782 0.02309 0.0
H1641 H 0.25811 0.63164 0.03401 0.0
H1642 H 0.24037 0.60722 0.96291 0.0
C1643 C 0.46047 0.18049 0.06562 0.0
C1644 C 0.48635 0.19015 0.07709 0.0
C1645 C 0.50199 0.20096 0.05965 0.0
C1646 C 0.48525 0.19723 0.03843 0.0
N1647 N 0.45947 0.18502 0.04131 0.0
Co1648 Co 0.43325 0.1734 0.01383 0.0
N1649 N 0.45246 0.19139 0.98895 0.0
C1650 C 0.47908 0.2028 0.99236 0.0
C1651 C 0.48806 0.21291 0.97187 0.0
C1652 C 0.46581 0.20746 0.95428 0.0
C1653 C 0.44428 0.19437 0.96511 0.0
N1654 N 0.40694 0.16155 0.98682 0.0
C1655 C 0.3991 0.16896 0.96467 0.0
C1656 C 0.37387 0.15834 0.9537 0.0
C1657 C 0.36738 0.14306 0.96857 0.0
C1658 C 0.38789 0.14551 0.98821 0.0
N1659 N 0.41338 0.15544 0.03843 0.0
C1660 C 0.39253 0.14062 0.03386 0.0
C1661 C 0.37805 0.13302 0.05429 0.0
C1662 C 0.39116 0.14328 0.07314 0.0
C1663 C 0.41399 0.15609 0.06312 0.0
N1664 N 0.39672 0.19233 0.01933 0.0
C1665 C 0.34481 0.22034 0.02066 0.0
C1666 C 0.33823 0.20039 0.01856 0.0
C1667 C 0.36415 0.1868 0.01822 0.0
C1668 C 0.37835 0.22571 0.02273 0.0
C1669 C 0.40364 0.21164 0.022 0.0
N1670 N 0.47082 0.15522 0.00779 0.0
C1671 C 0.52097 0.14024 0.02342 0.0
C1672 C 0.53475 0.13912 1.00003 0.0
C1673 C 0.51451 0.14468 0.98039 0.0
C1674 C 0.48284 0.15267 0.98463 0.0
C1675 C 0.48888 0.14778 0.02681 0.0
H1676 H 0.46883 0.15765 0.96913 0.0
H1677 H 0.4795 0.14828 0.04507 0.0
H1678 H 0.35751 0.17185 0.01639 0.0
H1679 H 0.42891 0.21656 0.02313 0.0
C1680 C 0.49336 0.20458 0.01545 0.0
C1681 C 0.44008 0.16541 0.07763 0.0
C1682 C 0.41806 0.18398 0.95175 0.0
C1683 C 0.38296 0.13622 0.01028 0.0
H1684 H 0.49438 0.18892 0.0958 0.0
H1685 H 0.52372 0.20996 0.06203 0.0
H1686 H 0.50823 0.22314 0.96996 0.0
H1687 H 0.46579 0.21236 0.93556 0.0
H1688 H 0.36175 0.16117 0.93646 0.0
H1689 H 0.34821 0.13225 0.96618 0.0
H1690 H 0.35948 0.12173 0.05531 0.0
H1691 H 0.38587 0.14086 0.09224 0.0
H1692 H 0.31313 0.1951 0.0165 0.0
H1693 H 0.38529 0.24073 0.02493 0.0
H1694 H 0.53507 0.13549 0.03913 0.0
H1695 H 0.52367 0.14371 0.96189 0.0
H1696 H 0.22386 0.31886 0.14697 0.0
H1697 H 0.13521 0.30204 0.1851 0.0
H1698 H 0.10601 0.29775 0.14652 0.0
H1699 H 0.10301 0.30495 0.10228 0.0
H1700 H 0.1924 0.32022 0.06398 0.0
H1701 H 0.22413 0.31839 0.10184 0.0
C1702 C 0.19854 0.31357 0.14674 0.0
C1703 C 0.18144 0.31133 0.1689 0.0
C1704 C 0.1819 0.31098 0.12431 0.0
C1705 C 0.14867 0.3044 0.16836 0.0
C1706 C 0.13191 0.30192 0.14622 0.0
C1707 C 0.1297 0.30687 0.10204 0.0
C1708 C 0.14537 0.3126 0.0803 0.0
C1709 C 0.14781 0.30605 0.12409 0.0
C1710 C 0.17988 0.31557 0.08044 0.0
C1711 C 0.19798 0.31478 0.10217 0.0
H1712 H 0.16107 0.96484 0.09412 0.0
H1713 H 0.18762 0.90453 0.08884 0.0
H1714 H 0.16826 0.89898 0.13017 0.0
H1715 H 0.13677 0.91051 0.1652 0.0
H1716 H 0.13863 0.97172 0.18017 0.0
H1717 H 0.15032 0.97802 0.13683 0.0
C1718 C 0.16386 0.95068 0.10233 0.0
C1719 C 0.17362 0.93479 0.0878 0.0
C1720 C 0.15593 0.9478 0.12727 0.0
C1721 C 0.17868 0.91678 0.09922 0.0
C1722 C 0.16727 0.91351 0.12277 0.0
C1723 C 0.14154 0.92532 0.15977 0.0
C1724 C 0.13711 0.94049 0.17654 0.0
C1725 C 0.1546 0.92879 0.13655 0.0
C1726 C 0.14118 0.95959 0.16788 0.0
C1727 C 0.1487 0.96321 0.14317 0.0
H1728 H 0.93392 0.70021 0.8278 0.0
H1729 H 0.8303 0.70068 0.84674 0.0
H1730 H 0.84458 0.70347 0.88989 0.0
H1731 H 0.88632 0.70018 0.92246 0.0
H1732 H 0.98973 0.69586 0.9039 0.0
H1733 H 0.97613 0.70025 0.8606 0.0
C1734 C 0.91456 0.70167 0.84139 0.0
C1735 C 0.88107 0.70065 0.83401 0.0
C1736 C 0.92305 0.70209 0.86633 0.0
C1737 C 0.85617 0.70199 0.8518 0.0
C1738 C 0.86438 0.70324 0.87655 0.0
C1739 C 0.90588 0.70067 0.90892 0.0
C1740 C 0.93899 0.69765 0.91624 0.0
C1741 C 0.89767 0.70249 0.88407 0.0
C1742 C 0.96415 0.69819 0.89863 0.0
C1743 C 0.9563 0.70059 0.8739 0.0
H1744 H 0.91181 0.05364 0.93094 0.0
H1745 H 0.8117 0.05476 0.90371 0.0
H1746 H 0.83206 0.05031 0.86207 0.0
H1747 H 0.87879 0.05257 0.83303 0.0
H1748 H 0.97888 0.05426 0.86029 0.0
H1749 H 0.95847 0.05072 0.90204 0.0
C1750 C 0.89447 0.05207 0.91594 0.0
C1751 C 0.86025 0.05419 0.92043 0.0
C1752 C 0.90654 0.05031 0.89192 0.0
C1753 C 0.83802 0.05268 0.90082 0.0
C1754 C 0.84976 0.05044 0.87694 0.0
C1755 C 0.8961 0.05131 0.84809 0.0
C1756 C 0.93035 0.05333 0.84354 0.0
C1757 C 0.88401 0.05009 0.87218 0.0
C1758 C 0.95255 0.05225 0.86323 0.0
C1759 C 0.94079 0.05053 0.88716 0.0
H1760 H 0.11602 0.81156 0.68253 0.0
H1761 H 0.21357 0.79751 0.65617 0.0
H1762 H 0.19133 0.79266 0.61514 0.0
H1763 H 0.14647 0.79907 0.58562 0.0
H1764 H 0.05029 0.81655 0.61135 0.0
H1765 H 0.06914 0.81317 0.65365 0.0
C1766 C 0.13205 0.80658 0.66796 0.0
C1767 C 0.1663 0.80453 0.67248 0.0
C1768 C 0.1193 0.80487 0.64414 0.0
C1769 C 0.18706 0.79862 0.65337 0.0
C1770 C 0.17437 0.79622 0.62977 0.0
C1771 C 0.12935 0.80141 0.60053 0.0
C1772 C 0.09694 0.80791 0.59546 0.0
C1773 C 0.14087 0.80021 0.62474 0.0
C1774 C 0.07513 0.81129 0.61488 0.0
C1775 C 0.08608 0.80956 0.63903 0.0
H1776 H 0.21025 0.4549 0.60311 0.0
H1777 H 0.11458 0.45485 0.56831 0.0
H1778 H 0.08729 0.45787 0.60795 0.0
H1779 H 0.09062 0.45433 0.6528 0.0
H1780 H 0.18631 0.45317 0.68754 0.0
H1781 H 0.21361 0.45721 0.64804 0.0
C1782 C 0.18353 0.45646 0.60421 0.0
C1783 C 0.16444 0.45495 0.5828 0.0
C1784 C 0.16797 0.45766 0.62722 0.0
C1785 C 0.12976 0.45633 0.58451 0.0
C1786 C 0.11414 0.45782 0.60723 0.0
C1787 C 0.11735 0.45586 0.65175 0.0
C1788 C 0.13645 0.45374 0.67308 0.0
C1789 C 0.13292 0.45767 0.62879 0.0
C1790 C 0.17114 0.4551 0.67141 0.0
C1791 C 0.18675 0.45718 0.64877 0.0
H1792 H 0.88332 0.15914 0.34714 0.0
H1793 H 0.88087 0.22097 0.33726 0.0
H1794 H 0.89208 0.22532 0.38106 0.0
H1795 H 0.90525 0.2106 0.42235 0.0
H1796 H 0.93195 0.15018 0.42401 0.0
H1797 H 0.91212 0.14619 0.38249 0.0
C1798 C 0.88628 0.1737 0.35413 0.0
C1799 C 0.88144 0.18964 0.33855 0.0
C1800 C 0.89826 0.17619 0.37787 0.0
C1801 C 0.88391 0.20832 0.34868 0.0
C1802 C 0.8911 0.21082 0.37364 0.0
C1803 C 0.9076 0.19672 0.41337 0.0
C1804 C 0.91818 0.18039 0.42683 0.0
C1805 C 0.89901 0.19479 0.38841 0.0
C1806 C 0.92244 0.16274 0.41448 0.0
C1807 C 0.9109 0.16039 0.39078 0.0
H1808 H 0.96306 0.55775 0.35046 0.0
H1809 H 0.86861 0.56009 0.31399 0.0
H1810 H 0.83986 0.55677 0.35301 0.0
H1811 H 0.84189 0.55948 0.39794 0.0
H1812 H 0.93633 0.55776 0.43444 0.0
H1813 H 0.96472 0.55401 0.39534 0.0
C1814 C 0.93625 0.55662 0.35102 0.0
C1815 C 0.91796 0.55895 0.32934 0.0
C1816 C 0.91983 0.55507 0.37369 0.0
C1817 C 0.88317 0.55807 0.3304 0.0
C1818 C 0.86672 0.55637 0.35276 0.0
C1819 C 0.86851 0.55732 0.39735 0.0
C1820 C 0.88698 0.55864 0.41906 0.0
C1821 C 0.88476 0.55569 0.37463 0.0
C1822 C 0.9216 0.55645 0.41799 0.0
C1823 C 0.93787 0.55458 0.39558 0.0
H1824 H 0.58223 0.31036 0.60688 0.0
H1825 H 0.67603 0.30811 0.56981 0.0
H1826 H 0.70502 0.30439 0.6087 0.0
H1827 H 0.70404 0.30832 0.65352 0.0
H1828 H 0.6102 0.31139 0.69059 0.0
H1829 H 0.5808 0.30776 0.65185 0.0
C1830 C 0.60886 0.30822 0.60736 0.0
C1831 C 0.62706 0.30949 0.58557 0.0
C1832 C 0.62538 0.30648 0.62994 0.0
C1833 C 0.6616 0.30708 0.58635 0.0
C1834 C 0.67818 0.30513 0.60864 0.0
C1835 C 0.67721 0.30723 0.65315 0.0
C1836 C 0.65926 0.30988 0.67486 0.0
C1837 C 0.66046 0.30569 0.63064 0.0
C1838 C 0.62446 0.30906 0.67412 0.0
C1839 C 0.60766 0.30724 0.65192 0.0
H1840 H 0.67026 0.94611 0.67984 0.0
H1841 H 0.56814 0.94456 0.65699 0.0
H1842 H 0.58537 0.94785 0.61429 0.0
H1843 H 0.62983 0.94617 0.58343 0.0
H1844 H 0.73199 0.94544 0.60623 0.0
H1845 H 0.71471 0.94839 0.64894 0.0
C1846 C 0.6518 0.94709 0.66552 0.0
C1847 C 0.61792 0.94522 0.6715 0.0
C1848 C 0.66205 0.94837 0.641 0.0
C1849 C 0.59425 0.94618 0.65281 0.0
C1850 C 0.60417 0.94788 0.62841 0.0
C1851 C 0.64829 0.9473 0.59772 0.0
C1852 C 0.68221 0.94576 0.59171 0.0
C1853 C 0.63803 0.94832 0.62224 0.0
C1854 C 0.70586 0.94686 0.61041 0.0
C1855 C 0.69591 0.94833 0.63482 0.0
H1856 H 0.42561 0.70664 0.33276 0.0
H1857 H 0.3218 0.70121 0.34976 0.0
H1858 H 0.33413 0.70436 0.39323 0.0
H1859 H 0.37526 0.70268 0.42656 0.0
H1860 H 0.4794 0.70332 0.40928 0.0
H1861 H 0.46647 0.70831 0.3662 0.0
C1862 C 0.40565 0.7069 0.346 0.0
C1863 C 0.37277 0.70406 0.33798 0.0
C1864 C 0.41319 0.70754 0.3711 0.0
C1865 C 0.34717 0.70387 0.35534 0.0
C1866 C 0.35432 0.70535 0.38027 0.0
C1867 C 0.39505 0.7046 0.4134 0.0
C1868 C 0.42827 0.70305 0.42123 0.0
C1869 C 0.38733 0.70638 0.38841 0.0
C1870 C 0.45371 0.70502 0.40392 0.0
C1871 C 0.44627 0.70758 0.37918 0.0
H1872 H 0.41654 0.04979 0.42766 0.0
H1873 H 0.31542 0.05482 0.40335 0.0
H1874 H 0.33342 0.05208 0.36089 0.0
H1875 H 0.37892 0.05501 0.33089 0.0
H1876 H 0.48023 0.05246 0.35546 0.0
H1877 H 0.46153 0.04721 0.39737 0.0
C1878 C 0.3984 0.04935 0.41306 0.0
C1879 C 0.36465 0.05221 0.41862 0.0
C1880 C 0.40918 0.04864 0.38864 0.0
C1881 C 0.34138 0.05219 0.39956 0.0
C1882 C 0.35179 0.05097 0.37525 0.0
C1883 C 0.39678 0.05252 0.34535 0.0
C1884 C 0.43091 0.05382 0.34007 0.0
C1885 C 0.38574 0.05014 0.36955 0.0
C1886 C 0.45391 0.05108 0.35898 0.0
C1887 C 0.44316 0.04832 0.38301 0.0
H1888 H 0.61716 0.81388 0.1844 0.0
H1889 H 0.71662 0.80575 0.15788 0.0
H1890 H 0.69565 0.80271 0.11621 0.0
H1891 H 0.65033 0.80843 0.0868 0.0
H1892 H 0.5516 0.81957 0.11294 0.0
H1893 H 0.57056 0.81522 0.15509 0.0
C1894 C 0.63401 0.81061 0.16956 0.0
C1895 C 0.66838 0.80964 0.17434 0.0
C1896 C 0.62184 0.80988 0.14545 0.0
C1897 C 0.69007 0.80598 0.15487 0.0
C1898 C 0.67808 0.80461 0.13094 0.0
C1899 C 0.6328 0.80927 0.1017 0.0
C1900 C 0.5995 0.81417 0.09678 0.0
C1901 C 0.64421 0.80738 0.1259 0.0
C1902 C 0.57716 0.81557 0.11628 0.0
C1903 C 0.58813 0.81325 0.14038 0.0
H1904 H 0.62338 0.45492 0.08142 0.0
H1905 H 0.72769 0.45666 0.09784 0.0
H1906 H 0.71532 0.45972 0.14142 0.0
H1907 H 0.67476 0.45639 0.1751 0.0
H1908 H 0.57056 0.45306 0.15846 0.0
H1909 H 0.5826 0.45646 0.11495 0.0
C1910 C 0.64328 0.45673 0.09453 0.0
C1911 C 0.6764 0.45579 0.08648 0.0
C1912 C 0.63589 0.45793 0.11961 0.0
C1913 C 0.70207 0.45768 0.10361 0.0
C1914 C 0.69495 0.45919 0.12854 0.0
C1915 C 0.65471 0.45715 0.16194 0.0
C1916 C 0.62176 0.4548 0.16999 0.0
C1917 C 0.66197 0.45858 0.13683 0.0
C1918 C 0.596 0.45528 0.15276 0.0
C1919 C 0.60295 0.45698 0.12784 0.0
H1920 H 0.3803 0.16174 0.84537 0.0
H1921 H 0.38567 0.22321 0.83282 0.0
H1922 H 0.3964 0.22829 0.87656 0.0
H1923 H 0.40687 0.21413 0.91864 0.0
H1924 H 0.42788 0.15299 0.92262 0.0
H1925 H 0.40793 0.14868 0.88121 0.0
C1926 C 0.38504 0.17633 0.85173 0.0
C1927 C 0.38248 0.19198 0.83541 0.0
C1928 C 0.3971 0.17898 0.8754 0.0
C1929 C 0.38698 0.21078 0.84478 0.0
C1930 C 0.3939 0.21367 0.86973 0.0
C1931 C 0.40804 0.19999 0.91019 0.0
C1932 C 0.41677 0.18365 0.92433 0.0
C1933 C 0.39973 0.19776 0.88522 0.0
C1934 C 0.41962 0.16563 0.91261 0.0
C1935 C 0.40803 0.16309 0.88896 0.0
H1936 H 0.3756 0.56012 0.83107 0.0
H1937 H 0.47861 0.56238 0.85158 0.0
H1938 H 0.46341 0.55933 0.89458 0.0
H1939 H 0.42044 0.56157 0.92655 0.0
H1940 H 0.31737 0.56204 0.90609 0.0
H1941 H 0.33263 0.55807 0.8632 0.0
C1942 C 0.3947 0.5592 0.84496 0.0
C1943 C 0.42826 0.56107 0.83807 0.0
C1944 C 0.38561 0.55817 0.86979 0.0
C1945 C 0.45274 0.56044 0.85628 0.0
C1946 C 0.44397 0.55897 0.88094 0.0
C1947 C 0.40136 0.56002 0.91273 0.0
C1948 C 0.36777 0.56171 0.91957 0.0
C1949 C 0.41046 0.55853 0.88796 0.0
C1950 C 0.34329 0.56027 0.90144 0.0
C1951 C 0.35209 0.5583 0.87683 0.0
H1952 H 0.99571 0.22795 0.27233 0.0
H1953 H 0.94727 0.25089 0.20846 0.0
H1954 H 0.9857 0.27823 0.20799 0.0
H1955 H 0.03343 0.29582 0.22547 0.0
H1956 H 0.08178 0.27312 0.28956 0.0
H1957 H 0.04304 0.24596 0.2903 0.0
C1958 C 0.99367 0.23886 0.25819 0.0
C1959 C 0.96841 0.23717 0.2404 0.0
C1960 C 1.01581 0.25482 0.25816 0.0
C1961 C 0.9661 0.25173 0.22251 0.0
C1962 C 0.98821 0.26742 0.22218 0.0
C1963 C 0.03566 0.28495 0.23961 0.0
C1964 C 0.06083 0.28678 0.25747 0.0
C1965 C 1.0132 0.26917 0.23991 0.0
C1966 C 0.0626 0.27249 0.27576 0.0
C1967 C 0.04053 0.25675 0.27608 0.0
H1968 H 0.22271 0.99943 0.29227 0.0
H1969 H 0.2538 0.96316 0.23265 0.0
H1970 H 0.30051 0.98465 0.22464 0.0
H1971 H 0.33308 0.01373 0.23426 0.0
H1972 H 0.30433 0.04927 0.29534 0.0
H1973 H 0.25637 0.02856 0.30241 0.0
C1974 C 0.23961 0.99625 0.27746 0.0
C1975 C 0.23452 0.97942 0.26326 0.0
C1976 C 0.26702 0.00872 0.27299 0.0
C1977 C 0.25707 0.97569 0.24423 0.0
C1978 C 0.28386 0.9881 0.2395 0.0
C1979 C 0.31671 0.01698 0.24934 0.0
C1980 C 0.32294 0.03342 0.26406 0.0
C1981 C 0.28928 1.00462 0.25382 0.0
C1982 C 0.30042 0.03718 0.28317 0.0
C1983 C 0.27289 0.02513 0.28746 0.0
H1984 H 1.02399 0.96572 0.98332 0.0
H1985 H 0.09816 1.00426 0.01273 0.0
H1986 H 0.05707 0.02978 0.01635 0.0
H1987 H 0.99933 0.04162 0.01195 0.0
H1988 H 0.92467 1.0028 0.98415 0.0
H1989 H 0.9661 0.97736 0.97957 0.0
C1990 C 0.03128 0.97961 0.9907 0.0
C1991 C 0.06481 0.9828 0.99731 0.0
C1992 C 1.0071 0.99444 0.99317 0.0
C1993 C 0.07313 1.00118 0.00674 0.0
C1994 C 0.0494 0.01592 0.00906 0.0
C1995 C 0.99212 0.02765 0.00474 0.0
C1996 C 0.95854 0.02431 0.99857 0.0
C1997 C 1.01626 0.01281 1.0023 0.0
C1998 C 0.95 0.0059 0.98943 0.0
C1999 C 0.97383 0.99126 0.98669 0.0
H2000 H 0.34498 0.25867 0.00452 0.0
H2001 H 0.28076 0.21594 0.03747 0.0
H2002 H 0.23457 0.23832 0.03533 0.0
H2003 H 0.21114 0.26985 0.02358 0.0
H2004 H 0.27495 0.31362 0.9931 0.0
H2005 H 0.32224 0.29136 0.99559 0.0
C2006 C 0.3211 0.25422 0.01159 0.0
C2007 C 0.3169 0.23512 0.02068 0.0
C2008 C 0.29423 0.26751 0.01088 0.0
C2009 C 0.28521 0.23003 0.02955 0.0
C2010 C 0.25853 0.243 0.0286 0.0
C2011 C 0.2354 0.27457 0.01748 0.0
C2012 C 0.23919 0.29345 0.00793 0.0
C2013 C 0.26258 0.2617 0.01909 0.0
C2014 C 0.27111 0.29929 1.00059 0.0
C2015 C 0.2982 0.28647 1.00189 0.0
H2016 H 0.95571 0.75628 0.75085 0.0
H2017 H 1.02085 0.7082 0.73574 0.0
H2018 H 0.06839 0.72987 0.73635 0.0
H2019 H 0.09233 0.76246 0.74104 0.0
H2020 H 0.02776 0.81089 0.75495 0.0
H2021 H 0.97962 0.78928 0.75402 0.0
C2022 C 0.98016 0.75044 0.74737 0.0
C2023 C 0.98405 0.73025 0.74349 0.0
C2024 C 1.00785 0.76318 0.74733 0.0
C2025 C 1.01649 0.72336 0.73939 0.0
C2026 C 0.04394 0.73586 0.73949 0.0
C2027 C 0.06779 0.76838 0.74404 0.0
C2028 C 0.06413 0.78849 0.74826 0.0
C2029 C 0.04003 0.75579 0.74356 0.0
C2030 C 0.03174 0.79565 0.75149 0.0
C2031 C 1.00406 0.7832 0.75112 0.0
H2032 H 0.76317 0.97019 0.73345 0.0
H2033 H 0.72478 0.98691 0.80372 0.0
H2034 H 0.76653 0.01243 0.80645 0.0
H2035 H 0.81429 0.03064 0.78865 0.0
H2036 H 0.85013 0.01427 0.71755 0.0
H2037 H 0.80881 0.98866 0.71532 0.0
C2038 C 0.76341 0.97946 0.74933 0.0
C2039 C 0.74026 0.97627 0.76833 0.0
C2040 C 0.78721 0.99451 0.75062 0.0
C2041 C 0.74223 0.98848 0.78888 0.0
C2042 C 0.76605 1.00335 0.79037 0.0
C2043 C 0.81284 0.02162 0.77255 0.0
C2044 C 0.83586 0.02451 0.75338 0.0
C2045 C 0.78867 0.00663 0.7713 0.0
C2046 C 0.83341 0.01239 0.73281 0.0
C2047 C 0.80959 0.99766 0.73145 0.0
H2048 H 0.71133 0.76955 0.03149 0.0
H2049 H 0.7525 0.80394 0.97315 0.0
H2050 H 0.79914 0.7816 0.96998 0.0
H2051 H 0.82928 0.75254 0.98416 0.0
H2052 H 0.78828 0.71842 0.04278 0.0
H2053 H 0.74156 0.74071 0.04583 0.0
C2054 C 0.73061 0.77241 0.01822 0.0
C2055 C 0.72789 0.7887 1.0026 0.0
C2056 C 0.75784 0.75954 0.01663 0.0
C2057 C 0.75318 0.79158 0.98525 0.0
C2058 C 0.78019 0.77881 0.98353 0.0
C2059 C 0.81004 0.7498 0.9975 0.0
C2060 C 0.81277 0.73358 0.01322 0.0
C2061 C 0.78285 0.76272 0.99912 0.0
C2062 C 0.78753 0.73075 0.03061 0.0
C2063 C 0.7605 0.74348 0.03227 0.0
H2064 H 0.34821 0.5055 0.75988 0.0
H2065 H 0.28668 0.5537 0.73841 0.0
H2066 H 0.23817 0.53268 0.73814 0.0
H2067 H 0.21263 0.5006 0.74356 0.0
H2068 H 0.27373 0.45218 0.76465 0.0
H2069 H 0.32266 0.47311 0.76457 0.0
C2070 C 0.32433 0.51148 0.75487 0.0
C2071 C 0.32163 0.53146 0.74932 0.0
C2072 C 0.29618 0.49914 0.75445 0.0
C2073 C 0.28996 0.53865 0.74327 0.0
C2074 C 0.26202 0.52653 0.74289 0.0
C2075 C 0.23653 0.49454 0.74837 0.0
C2076 C 0.239 0.47463 0.75425 0.0
C2077 C 0.26474 0.50676 0.74851 0.0
C2078 C 0.27069 0.46726 0.75981 0.0
C2079 C 0.29881 0.47932 0.75995 0.0
H2080 H 0.97072 0.51615 0.53035 0.0
H2081 H 0.99942 0.54688 0.46513 0.0
H2082 H 0.04458 0.52412 0.45867 0.0
H2083 H 0.07617 0.49525 0.47098 0.0
H2084 H 0.04803 0.46435 0.53614 0.0
H2085 H 1.00214 0.48683 0.54243 0.0
C2086 C 0.98664 0.51788 0.5146 0.0
C2087 C 0.98139 0.53363 0.49846 0.0
C2088 C 1.01271 0.50444 0.51071 0.0
C2089 C 1.00288 0.53541 0.47832 0.0
C2090 C 0.02871 0.52218 0.47441 0.0
C2091 C 0.06024 0.4934 0.4867 0.0
C2092 C 0.06605 0.47786 0.50301 0.0
C2093 C 0.03397 0.50665 0.49048 0.0
C2094 C 0.04429 0.47579 0.52295 0.0
C2095 C 1.01806 0.48885 0.52673 0.0
H2096 H 0.303 0.7262 0.47803 0.0
H2097 H 0.33836 0.74285 0.54921 0.0
H2098 H 0.29529 0.76742 0.55192 0.0
H2099 H 0.24788 0.78472 0.53426 0.0
H2100 H 0.21078 0.76793 0.46359 0.0
H2101 H 0.25423 0.74346 0.46046 0.0
C2102 C 0.30111 0.73507 0.49423 0.0
C2103 C 0.32437 0.73256 0.51332 0.0
C2104 C 0.27602 0.74945 0.49572 0.0
C2105 C 0.3214 0.74447 0.53403 0.0
C2106 C 0.29659 0.75858 0.53566 0.0
C2107 C 0.2489 0.77566 0.51819 0.0
C2108 C 0.22556 0.77844 0.49922 0.0
C2109 C 0.27382 0.7613 0.5166 0.0
C2110 C 0.22834 0.76658 0.47842 0.0
C2111 C 0.25315 0.75234 0.47669 0.0
H2112 H 0.84579 0.5065 0.25762 0.0
H2113 H 0.7858 0.55507 0.2352 0.0
H2114 H 0.73634 0.53484 0.23663 0.0
H2115 H 0.70948 0.50326 0.24365 0.0
H2116 H 0.76912 0.45451 0.26581 0.0
H2117 H 0.81886 0.47469 0.26425 0.0
C2118 C 0.82203 0.51272 0.25278 0.0
C2119 C 0.8201 0.53259 0.24641 0.0
C2120 C 0.79328 0.50084 0.25339 0.0
C2121 C 0.78856 0.54011 0.24063 0.0
C2122 C 0.76004 0.52843 0.24124 0.0
C2123 C 0.73324 0.49698 0.2484 0.0
C2124 C 0.735 0.47715 0.25492 0.0
C2125 C 0.76201 0.50878 0.24764 0.0
C2126 C 0.76653 0.4695 0.26043 0.0
C2127 C 0.79516 0.48114 0.25971 0.0
H2128 H 0.71871 0.26651 0.49349 0.0
H2129 H 0.77433 0.31048 0.5316 0.0
H2130 H 0.81872 0.28735 0.5393 0.0
H2131 H 0.8423 0.25448 0.5354 0.0
H2132 H 0.7881 0.21143 0.49447 0.0
H2133 H 0.74325 0.23426 0.48799 0.0
C2134 C 0.74067 0.27126 0.50318 0.0
C2135 C 0.74257 0.2905 0.51191 0.0
C2136 C 0.76665 0.25788 0.50731 0.0
C2137 C 0.77135 0.29587 0.5249 0.0
C2138 C 0.79709 0.2826 0.52922 0.0
C2139 C 0.82094 0.25001 0.52484 0.0
C2140 C 0.81907 0.23083 0.51581 0.0
C2141 C 0.79507 0.26351 0.52055 0.0
C2142 C 0.79049 0.22568 0.50241 0.0
C2143 C 0.7647 0.2389 0.49838 0.0
H2144 H 0.45511 0.25688 0.75416 0.0
H2145 H 0.51892 0.21299 0.72365 0.0
H2146 H 0.56575 0.23504 0.72561 0.0
H2147 H 0.58974 0.26664 0.73642 0.0
H2148 H 0.52647 0.31135 0.76506 0.0
H2149 H 0.47871 0.28945 0.76271 0.0
C2150 C 0.47909 0.25211 0.74762 0.0
C2151 C 0.48298 0.23285 0.73917 0.0
C2152 C 0.50636 0.26516 0.74836 0.0
C2153 C 0.51474 0.2273 0.73097 0.0
C2154 C 0.54176 0.24005 0.73186 0.0
C2155 C 0.56553 0.27164 0.74225 0.0
C2156 C 0.56206 0.29072 0.75115 0.0
C2157 C 0.53804 0.25894 0.74074 0.0
C2158 C 0.53015 0.29688 0.75806 0.0
C2159 C 0.50274 0.28426 0.75682 0.0
H2160 H 0.48507 0.02965 0.47389 0.0
H2161 H 0.45073 0.01535 0.54615 0.0
H2162 H 0.49161 0.98958 0.54898 0.0
H2163 H 0.53652 0.97041 0.53109 0.0
H2164 H 0.57341 0.98516 0.45961 0.0
H2165 H 0.53205 0.01078 0.45632 0.0
C2166 C 0.48674 0.02104 0.49037 0.0
C2167 C 0.46426 0.02456 0.50969 0.0
C2168 C 0.51067 0.00598 0.49198 0.0
C2169 C 0.46699 0.01297 0.53076 0.0
C2170 C 0.49058 0.99816 0.53246 0.0
C2171 C 0.53602 0.97927 0.51481 0.0
C2172 C 0.55862 0.97548 0.49565 0.0
C2173 C 0.51243 0.9944 0.51316 0.0
C2174 C 0.55636 0.98718 0.47461 0.0
C2175 C 0.53276 1.00212 0.47277 0.0
H2176 H 0.53411 0.80069 0.26249 0.0
H2177 H 0.61157 0.76118 0.24136 0.0
H2178 H 0.57125 0.73512 0.23743 0.0
H2179 H 0.51375 0.72289 0.24039 0.0
H2180 H 0.43605 0.76213 0.26195 0.0
H2181 H 0.4761 0.78844 0.26495 0.0
C2182 C 0.54215 0.78644 0.25682 0.0
C2183 C 0.57625 0.78308 0.25254 0.0
C2184 C 0.51855 0.7712 0.25463 0.0
C2185 C 0.58581 0.76433 0.24527 0.0
C2186 C 0.56263 0.7493 0.24291 0.0
C2187 C 0.50548 0.73714 0.24589 0.0
C2188 C 0.47143 0.74025 0.2507 0.0
C2189 C 0.52891 0.75244 0.24776 0.0
C2190 C 0.4617 0.75908 0.2576 0.0
C2191 C 0.48477 0.77426 0.2595 0.0
H2192 H 0.58581 0.5031 0.00449 0.0
H2193 H 0.52126 0.4535 0.9998 0.0
H2194 H 0.47275 0.47477 1.00125 0.0
H2195 H 0.4484 0.50765 1.00242 0.0
H2196 H 0.51365 0.55698 0.00922 0.0
H2197 H 0.56153 0.53572 0.00763 0.0
C2198 C 0.56115 0.49687 1.00367 0.0
C2199 C 0.55755 0.47654 1.00185 0.0
C2200 C 0.5332 0.50924 0.0046 0.0
C2201 C 0.52513 0.46894 1.00134 0.0
C2202 C 0.49726 0.48118 1.00203 0.0
C2203 C 0.47296 0.51389 1.00391 0.0
C2204 C 0.47668 0.53428 0.00567 0.0
C2205 C 0.50091 0.5014 1.00354 0.0
C2206 C 0.50928 0.54163 0.00719 0.0
C2207 C 0.53699 0.52937 0.00653 0.0
H2208 H 0.14539 0.40083 0.40855 0.0
H2209 H 0.25104 0.40631 0.41779 0.0
H2210 H 0.26024 0.38955 0.37911 0.0
H2211 H 0.23805 0.37249 0.34255 0.0
H2212 H 0.13264 0.36393 0.33608 0.0
H2213 H 0.12354 0.38193 0.37387 0.0
C2214 C 0.17041 0.3985 0.40194 0.0
C2215 C 0.19742 0.40526 0.41589 0.0
C2216 C 0.17557 0.38779 0.38035 0.0
C2217 C 0.22972 0.40177 0.40722 0.0
C2218 C 0.23502 0.3919 0.38522 0.0
C2219 C 0.2132 0.37433 0.3497 0.0
C2220 C 0.18603 0.36689 0.33653 0.0
C2221 C 0.20816 0.38464 0.37169 0.0
C2222 C 0.15392 0.36945 0.34595 0.0
C2223 C 0.1487 0.3799 0.36745 0.0
H2224 H 0.08766 0.9183 0.37411 0.0
H2225 H 0.09388 0.87011 0.32438 0.0
H2226 H 0.08885 0.84761 0.35811 0.0
H2227 H 0.09171 0.84191 0.40249 0.0
H2228 H 0.06644 0.88874 0.45083 0.0
H2229 H 0.06957 0.91153 0.41682 0.0
C2230 C 0.08624 0.90297 0.37031 0.0
C2231 C 0.09247 0.89617 0.34649 0.0
C2232 C 0.08051 0.88979 0.38969 0.0
C2233 C 0.0905 0.87601 0.34246 0.0
C2234 C 0.08753 0.86298 0.36182 0.0
C2235 C 0.08447 0.85675 0.40563 0.0
C2236 C 0.079 0.86339 0.42957 0.0
C2237 C 0.08369 0.86969 0.38568 0.0
C2238 C 0.0712 0.88314 0.43274 0.0
C2239 C 0.07312 0.89626 0.41328 0.0
H2240 H 0.22925 0.86655 0.84093 0.0
H2241 H 0.12378 0.86488 0.82851 0.0
H2242 H 0.11466 0.88534 0.86423 0.0
H2243 H 0.13663 0.90403 0.89891 0.0
H2244 H 0.2408 0.90077 0.91583 0.0
H2245 H 0.2508 0.88282 0.87811 0.0
C2246 C 0.20423 0.87018 0.8465 0.0
C2247 C 0.17714 0.86394 0.83224 0.0
C2248 C 0.19911 0.8817 0.86744 0.0
C2249 C 0.14494 0.86922 0.83939 0.0
C2250 C 0.13977 0.88116 0.85962 0.0
C2251 C 0.16158 0.89956 0.89416 0.0
C2252 C 0.18794 0.904 0.91009 0.0
C2253 C 0.16668 0.88768 0.87362 0.0
C2254 C 0.2201 0.89793 0.90376 0.0
C2255 C 0.22574 0.88732 0.88238 0.0
H2256 H 0.16232 0.39796 0.84628 0.0
H2257 H 0.0565 0.40245 0.83722 0.0
H2258 H 0.04783 0.38505 0.87556 0.0
H2259 H 0.07047 0.36824 0.91196 0.0
H2260 H 0.17612 0.36137 0.91914 0.0
H2261 H 0.18478 0.37929 0.88112 0.0
C2262 C 0.13739 0.39525 0.85286 0.0
C2263 C 0.11013 0.40191 0.83908 0.0
C2264 C 0.13257 0.3843 0.87435 0.0
C2265 C 0.07795 0.39796 0.84768 0.0
C2266 C 0.07297 0.38775 0.86947 0.0
C2267 C 0.09529 0.37023 0.90479 0.0
C2268 C 0.12262 0.36313 0.91811 0.0
C2269 C 0.10006 0.38067 0.88289 0.0
C2270 C 0.15471 0.36632 0.90896 0.0
C2271 C 0.15966 0.37679 0.88738 0.0
H2272 H 0.85553 0.67031 0.6401 0.0
H2273 H 0.84492 0.62064 0.68712 0.0
H2274 H 0.84592 0.59927 0.65186 0.0
H2275 H 0.85593 0.59467 0.60746 0.0
H2276 H 0.84377 0.64423 0.56047 0.0
H2277 H 0.84506 0.66564 0.5957 0.0
C2278 C 0.85199 0.65493 0.64278 0.0
C2279 C 0.85183 0.64722 0.66661 0.0
C2280 C 0.84913 0.64262 0.62224 0.0
C2281 C 0.84691 0.62708 0.66918 0.0
C2282 C 0.84723 0.61475 0.64896 0.0
C2283 C 0.85215 0.61003 0.60478 0.0
C2284 C 0.85149 0.6177 0.58094 0.0
C2285 C 0.84933 0.62232 0.62532 0.0
C2286 C 0.84626 0.63781 0.57839 0.0
C2287 C 0.84667 0.65016 0.59861 0.0
H2288 H 0.96762 0.13492 0.68955 0.0
H2289 H 0.94928 0.07955 0.65601 0.0
H2290 H 0.95229 0.0946 0.61568 0.0
H2291 H 0.95504 0.12385 0.59007 0.0
H2292 H 0.95408 0.17983 0.6246 0.0
H2293 H 0.96408 0.16449 0.66419 0.0
C2294 C 0.96376 0.12612 0.67347 0.0
C2295 C 0.95818 0.10598 0.67606 0.0
C2296 C 0.96217 0.13516 0.6504 0.0
C2297 C 0.95409 0.09493 0.65478 0.0
C2298 C 0.95549 0.10359 0.63166 0.0
C2299 C 0.95684 0.13277 0.60625 0.0
C2300 C 0.95411 0.15312 0.60408 0.0
C2301 C 0.95878 0.12376 0.62928 0.0
C2302 C 0.95695 0.16428 0.62538 0.0
C2303 C 0.96211 0.15544 0.64814 0.0
H2304 H 0.84132 0.1657 0.14096 0.0
H2305 H 0.84462 0.11718 0.19034 0.0
H2306 H 0.8425 0.0948 0.15613 0.0
H2307 H 0.84698 0.08911 0.11159 0.0
H2308 H 0.82851 0.13693 0.06295 0.0
H2309 H 0.82905 0.15932 0.09723 0.0
C2310 C 0.84029 0.15027 0.14437 0.0
C2311 C 0.84429 0.14328 0.16833 0.0
C2312 C 0.83706 0.13726 0.12457 0.0
C2313 C 0.84261 0.1231 0.17211 0.0
C2314 C 0.84143 0.1102 0.15251 0.0
C2315 C 0.84185 0.10429 0.10847 0.0
C2316 C 0.83897 0.11126 0.08442 0.0
C2317 C 0.83978 0.1171 0.12853 0.0
C2318 C 0.83213 0.13112 0.08109 0.0
C2319 C 0.83226 0.14402 0.10075 0.0
H2320 H 0.9608 0.62513 0.07535 0.0
H2321 H 0.94769 0.68014 0.11107 0.0
H2322 H 0.9552 0.66476 0.15049 0.0
H2323 H 0.96041 0.63523 0.17537 0.0
H2324 H 0.94551 0.58014 0.14018 0.0
H2325 H 0.954 0.59547 0.10042 0.0
C2326 C 0.95958 0.63385 0.09172 0.0
C2327 C 0.95592 0.6542 0.08962 0.0
C2328 C 0.95842 0.62454 0.11469 0.0
C2329 C 0.95352 0.6649 0.11139 0.0
C2330 C 0.95667 0.65593 0.13422 0.0
C2331 C 0.95817 0.62648 0.15909 0.0
C2332 C 0.95273 0.60629 0.16123 0.0
C2333 C 0.95849 0.63571 0.13613 0.0
C2334 C 0.95082 0.59548 0.13954 0.0
C2335 C 0.95514 0.60433 0.11666 0.0
H2336 H 0.6452 0.39709 0.91112 0.0
H2337 H 0.75124 0.40272 0.9172 0.0
H2338 H 0.7583 0.38537 0.87857 0.0
H2339 H 0.73403 0.36823 0.84286 0.0
H2340 H 0.62821 0.36036 0.83898 0.0
H2341 H 0.62133 0.37823 0.87716 0.0
C2342 C 0.66986 0.39452 0.90395 0.0
C2343 C 0.69765 0.40133 0.91704 0.0
C2344 C 0.67376 0.38368 0.88233 0.0
C2345 C 0.72942 0.39787 0.90743 0.0
C2346 C 0.73346 0.38774 0.88546 0.0
C2347 C 0.70959 0.37001 0.85077 0.0
C2348 C 0.68166 0.36265 0.83831 0.0
C2349 C 0.70583 0.38039 0.87283 0.0
C2350 C 0.65007 0.36555 0.84844 0.0
C2351 C 0.64612 0.37597 0.87013 0.0
H2352 H 0.54657 0.8724 0.91908 0.0
H2353 H 0.64929 0.856 0.92483 0.0
H2354 H 0.66142 0.87226 0.88623 0.0
H2355 H 0.64348 0.89219 0.85149 0.0
H2356 H 0.54001 0.90575 0.84254 0.0
H2357 H 0.52764 0.89045 0.88197 0.0
C2358 C 0.5714 0.87208 0.91154 0.0
C2359 C 0.59701 0.86286 0.92473 0.0
C2360 C 0.57818 0.8814 0.88903 0.0
C2361 C 0.62917 0.86279 0.9149 0.0
C2362 C 0.63616 0.87227 0.89295 0.0
C2363 C 0.61811 0.89159 0.858 0.0
C2364 C 0.59262 0.89984 0.84376 0.0
C2365 C 0.61099 0.88182 0.87999 0.0
C2366 C 0.56009 0.89944 0.85297 0.0
C2367 C 0.55299 0.89052 0.87545 0.0
H2368 H 0.64887 0.89213 0.41411 0.0
H2369 H 0.75384 0.90267 0.41961 0.0
H2370 H 0.76267 0.88623 0.38045 0.0
H2371 H 0.74019 0.86811 0.34472 0.0
H2372 H 0.63566 0.85551 0.34164 0.0
H2373 H 0.62708 0.87266 0.38012 0.0
C2374 C 0.67373 0.89074 0.40678 0.0
C2375 C 0.70074 0.89843 0.41997 0.0
C2376 C 0.67872 0.88042 0.38492 0.0
C2377 C 0.73266 0.89686 0.40991 0.0
C2378 C 0.73771 0.88727 0.38763 0.0
C2379 C 0.71574 0.86871 0.35287 0.0
C2380 C 0.68864 0.86018 0.34057 0.0
C2381 C 0.71098 0.87871 0.37511 0.0
C2382 C 0.65693 0.86158 0.35099 0.0
C2383 C 0.65198 0.87161 0.37283 0.0
H2384 H 0.5649 0.37221 0.41405 0.0
H2385 H 0.67071 0.36608 0.42106 0.0
H2386 H 0.67894 0.38398 0.38299 0.0
H2387 H 0.6561 0.40195 0.34776 0.0
H2388 H 0.55021 0.40577 0.33877 0.0
H2389 H 0.54189 0.38885 0.37752 0.0
C2390 C 0.58967 0.37459 0.40698 0.0
C2391 C 0.61719 0.36778 0.42033 0.0
C2392 C 0.59421 0.38491 0.38492 0.0
C2393 C 0.64919 0.37108 0.41105 0.0
C2394 C 0.65389 0.38145 0.38938 0.0
C2395 C 0.63123 0.39922 0.35445 0.0
C2396 C 0.60384 0.40551 0.34055 0.0
C2397 C 0.62663 0.38863 0.37625 0.0
C2398 C 0.57175 0.40155 0.34931 0.0
C2399 C 0.56698 0.39162 0.37135 0.0
H2400 H 0.35313 0.67168 0.14303 0.0
H2401 H 0.34727 0.62296 0.19202 0.0
H2402 H 0.34804 0.60079 0.15754 0.0
H2403 H 0.35613 0.59524 0.11314 0.0
H2404 H 0.34173 0.64359 0.06451 0.0
H2405 H 0.34266 0.66579 0.09894 0.0
C2406 C 0.35062 0.65629 0.14632 0.0
C2407 C 0.35152 0.64918 0.17042 0.0
C2408 C 0.34802 0.64346 0.12627 0.0
C2409 C 0.34815 0.62901 0.17382 0.0
C2410 C 0.34838 0.61621 0.15404 0.0
C2411 C 0.35181 0.6105 0.10997 0.0
C2412 C 0.35026 0.61759 0.08587 0.0
C2413 C 0.34922 0.62324 0.1301 0.0
C2414 C 0.3446 0.6376 0.08263 0.0
C2415 C 0.34486 0.65041 0.1024 0.0
H2416 H 0.46224 0.13724 0.18715 0.0
H2417 H 0.4368 0.08289 0.15335 0.0
H2418 H 0.44144 0.09792 0.11316 0.0
H2419 H 0.4487 0.12691 0.08771 0.0
H2420 H 0.45097 0.1828 0.12251 0.0
H2421 H 0.46007 0.16709 0.16201 0.0
C2422 C 0.45692 0.12868 0.17109 0.0
C2423 C 0.44949 0.10872 0.17358 0.0
C2424 C 0.45582 0.13789 0.14809 0.0
C2425 C 0.44344 0.09804 0.15223 0.0
C2426 C 0.44576 0.10671 0.12919 0.0
C2427 C 0.45078 0.13578 0.10392 0.0
C2428 C 0.44948 0.15618 0.10178 0.0
C2429 C 0.45142 0.12668 0.12692 0.0
C2430 C 0.45291 0.16719 0.12317 0.0
C2431 C 0.45742 0.15816 0.14592 0.0
H2432 H 0.3463 0.16823 0.63727 0.0
H2433 H 0.34598 0.11996 0.68714 0.0
H2434 H 0.34267 0.09747 0.65318 0.0
H2435 H 0.34708 0.09142 0.60873 0.0
H2436 H 0.33124 0.13922 0.55959 0.0
H2437 H 0.33318 0.16185 0.59365 0.0
C2438 C 0.34412 0.15287 0.64087 0.0
C2439 C 0.34754 0.14596 0.66493 0.0
C2440 C 0.33999 0.13982 0.62122 0.0
C2441 C 0.34449 0.12584 0.66888 0.0
C2442 C 0.34259 0.11286 0.64941 0.0
C2443 C 0.34282 0.10668 0.60547 0.0
C2444 C 0.34042 0.11355 0.58135 0.0
C2445 C 0.34145 0.11964 0.62538 0.0
C2446 C 0.33456 0.13349 0.57781 0.0
C2447 C 0.3355 0.14651 0.59733 0.0
H2448 H 0.4524 0.63562 0.67811 0.0
H2449 H 0.43794 0.57925 0.64613 0.0
H2450 H 0.4429 0.59349 0.60541 0.0
H2451 H 0.44892 0.62233 0.57887 0.0
H2452 H 0.43945 0.67883 0.61148 0.0
H2453 H 0.44593 0.66443 0.65192 0.0
C2454 C 0.44936 0.62636 0.66235 0.0
C2455 C 0.44514 0.60616 0.66559 0.0
C2456 C 0.44793 0.63488 0.63899 0.0
C2457 C 0.44223 0.59466 0.64455 0.0
C2458 C 0.44455 0.60287 0.62116 0.0
C2459 C 0.44726 0.63158 0.59474 0.0
C2460 C 0.44419 0.65188 0.59172 0.0
C2461 C 0.44695 0.62303 0.61815 0.0
C2462 C 0.44287 0.66333 0.61288 0.0
C2463 C 0.44617 0.65506 0.63612 0.0
H2464 H 0.3367 0.38797 0.2246 0.0
H2465 H 0.35083 0.34689 0.28304 0.0
H2466 H 0.40918 0.35537 0.28526 0.0
H2467 H 0.45705 0.37402 0.2707 0.0
H2468 H 0.44265 0.41723 0.21477 0.0
H2469 H 0.38449 0.40815 0.21156 0.0
C2470 C 0.35233 0.38096 0.23802 0.0
C2471 C 0.33872 0.36642 0.25327 0.0
C2472 C 0.38637 0.38618 0.23963 0.0
C2473 C 0.3601 0.35764 0.27041 0.0
C2474 C 0.39374 0.36262 0.27191 0.0
C2475 C 0.44138 0.38175 0.25797 0.0
C2476 C 0.45523 0.39631 0.2429 0.0
C2477 C 0.4073 0.3768 0.25656 0.0
C2478 C 0.43371 0.40566 0.22631 0.0
C2479 C 0.4 0.4006 0.22459 0.0
H2480 H 0.8572 0.86862 0.28008 0.0
H2481 H 0.84802 0.87176 0.20173 0.0
H2482 H 0.90692 0.87891 0.19841 0.0
H2483 H 0.9619 0.88434 0.21748 0.0
H2484 H 0.96872 0.88482 0.29613 0.0
H2485 H 0.91069 0.87633 0.29911 0.0
C2486 C 0.86759 0.87115 0.26217 0.0
C2487 C 0.84718 0.86934 0.24123 0.0
C2488 C 0.90177 0.87584 0.26027 0.0
C2489 C 0.86238 0.87245 0.21836 0.0
C2490 C 0.8964 0.87677 0.21637 0.0
C2491 C 0.95095 0.8828 0.23537 0.0
C2492 C 0.97108 0.8849 0.25648 0.0
C2493 C 0.91651 0.87847 0.2372 0.0
C2494 C 0.95526 0.88266 0.27931 0.0
C2495 C 0.92149 0.87801 0.28116 0.0
H2496 H 0.34114 0.90159 0.0331 0.0
H2497 H 0.31131 0.85675 0.98296 0.0
H2498 H 0.3682 0.84533 0.98056 0.0
H2499 H 0.42702 0.84825 0.99144 0.0
H2500 H 0.45722 0.89144 0.04377 0.0
H2501 H 0.40036 0.9032 0.04606 0.0
C2502 C 0.34689 0.88916 0.02186 0.0
C2503 C 0.32133 0.88037 0.00795 0.0
C2504 C 0.38019 0.88236 0.02065 0.0
C2505 C 0.33 0.8643 0.99346 0.0
C2506 C 0.36277 0.8576 0.99215 0.0
C2507 C 0.42146 0.86004 1.00373 0.0
C2508 C 0.44739 0.86881 0.01729 0.0
C2509 C 0.38821 0.86658 0.00547 0.0
C2510 C 0.43869 0.88443 0.03258 0.0
C2511 C 0.40578 0.89113 0.03414 0.0
H2512 H 0.96031 0.3944 0.99016 0.0
H2513 H 0.94471 0.34487 0.03669 0.0
H2514 H 0.88565 0.35231 0.03889 0.0
H2515 H 0.83748 0.37317 0.02787 0.0
H2516 H 0.85383 0.42207 0.98048 0.0
H2517 H 0.91261 0.41432 0.97809 0.0
C2518 C 0.94412 0.38503 1.00061 0.0
C2519 C 0.9577 0.36908 0.01334 0.0
C2520 C 0.90978 0.38926 1.00164 0.0
C2521 C 0.9357 0.35747 0.02703 0.0
C2522 C 0.90159 0.36162 0.02814 0.0
C2523 C 0.85384 0.38203 0.01685 0.0
C2524 C 0.84084 0.39838 0.00461 0.0
C2525 C 0.8882 0.37752 0.01556 0.0
C2526 C 0.86283 0.40963 0.9905 0.0
C2527 C 0.89665 0.40517 0.98903 0.0
H2528 H 0.71186 0.62053 0.73596 0.0
H2529 H 0.70611 0.6605 0.79638 0.0
H2530 H 0.64775 0.65318 0.80117 0.0
H2531 H 0.59651 0.63626 0.78767 0.0
H2532 H 0.60104 0.59928 0.72466 0.0
H2533 H 0.6607 0.60504 0.72124 0.0
C2534 C 0.69816 0.62795 0.75006 0.0
C2535 C 0.71476 0.64096 0.76592 0.0
C2536 C 0.66363 0.6243 0.75225 0.0
C2537 C 0.6954 0.64994 0.78419 0.0
C2538 C 0.66142 0.64595 0.78685 0.0
C2539 C 0.61061 0.62943 0.77325 0.0
C2540 C 0.59407 0.61731 0.75646 0.0
C2541 C 0.64512 0.6332 0.77097 0.0
C2542 C 0.61288 0.60876 0.73776 0.0
C2543 C 0.64715 0.61202 0.73582 0.0
H2544 H 0.1101 0.11664 0.73554 0.0
H2545 H 0.10343 0.11959 0.81402 0.0
H2546 H 0.16221 0.12735 0.81636 0.0
H2547 H 0.21633 0.13331 0.79639 0.0
H2548 H 0.22057 0.13397 0.71764 0.0
H2549 H 0.1627 0.1249 0.71562 0.0
C2550 C 0.12101 0.11927 0.75327 0.0
C2551 C 0.10139 0.11722 0.77455 0.0
C2552 C 0.15509 0.12429 0.75459 0.0
C2553 C 0.11722 0.12046 0.79717 0.0
C2554 C 0.15115 0.12512 0.79858 0.0
C2555 C 0.20484 0.13169 0.77868 0.0
C2556 C 0.22419 0.13403 0.75725 0.0
C2557 C 0.1705 0.12704 0.77742 0.0
C2558 C 0.20772 0.13165 0.73468 0.0
C2559 C 0.17404 0.12667 0.73339 0.0
H2560 H 0.59145 0.15359 0.02063 0.0
H2561 H 0.55761 0.10987 0.97066 0.0
H2562 H 0.61483 0.09855 0.9652 0.0
H2563 H 0.67482 0.10052 0.97557 0.0
H2564 H 0.70834 0.14678 0.02247 0.0
H2565 H 0.65157 0.15728 0.0282 0.0
C2566 C 0.5966 0.14156 0.00856 0.0
C2567 C 0.57 0.13248 0.99629 0.0
C2568 C 0.6298 0.13542 0.00502 0.0
C2569 C 0.5774 0.11712 0.98039 0.0
C2570 C 0.61023 0.11063 0.97729 0.0
C2571 C 0.67002 0.11307 0.9868 0.0
C2572 C 0.69674 0.12234 0.99901 0.0
C2573 C 0.63677 0.11962 0.98957 0.0
C2574 C 0.689 0.13863 0.01345 0.0
C2575 C 0.65621 0.14489 0.01662 0.0
H2576 H 0.18498 0.60505 0.97956 0.0
H2577 H 0.22224 0.65437 0.01938 0.0
H2578 H 0.16627 0.6666 0.02399 0.0
H2579 H 0.10665 0.66355 0.01765 0.0
H2580 H 0.06834 0.61638 0.97442 0.0
H2581 H 0.12426 0.60313 0.97086 0.0
C2582 C 0.18104 0.61859 0.98901 0.0
C2583 C 0.20852 0.62842 0.99947 0.0
C2584 C 0.14824 0.62598 0.99129 0.0
C2585 C 0.20215 0.64596 0.01171 0.0
C2586 C 0.16989 0.65315 0.01424 0.0
C2587 C 0.11014 0.65057 0.00695 0.0
C2588 C 0.0824 0.64126 0.99622 0.0
C2589 C 0.1427 0.64328 1.00425 0.0
C2590 C 0.08846 0.62398 0.98328 0.0
C2591 C 0.12077 0.61641 0.98099 0.0
H2592 H 0.4658 0.87328 0.72792 0.0
H2593 H 0.44796 0.91684 0.78269 0.0
H2594 H 0.38937 0.90896 0.78274 0.0
H2595 H 0.34229 0.89036 0.76711 0.0
H2596 H 0.35981 0.84444 0.7154 0.0
H2597 H 0.4184 0.85285 0.71422 0.0
C2598 C 0.44927 0.88097 0.74007 0.0
C2599 C 0.46198 0.89607 0.75484 0.0
C2600 C 0.41496 0.87607 0.74047 0.0
C2601 C 0.43948 0.90566 0.7704 0.0
C2602 C 0.40565 0.90103 0.77065 0.0
C2603 C 0.35866 0.88184 0.75578 0.0
C2604 C 0.34553 0.86673 0.74125 0.0
C2605 C 0.39296 0.88636 0.75567 0.0
C2606 C 0.36811 0.85644 0.72644 0.0
C2607 C 0.4021 0.86112 0.72592 0.0
H2608 H 0.84116 0.3924 0.76598 0.0
H2609 H 0.85077 0.34928 0.70947 0.0
H2610 H 0.90912 0.35723 0.70506 0.0
H2611 H 0.9591 0.37563 0.71811 0.0
H2612 H 0.95042 0.41615 0.77729 0.0
H2613 H 0.89088 0.4097 0.78001 0.0
C2614 C 0.85579 0.38445 0.75285 0.0
C2615 C 0.84049 0.37026 0.73798 0.0
C2616 C 0.89011 0.3886 0.7509 0.0
C2617 C 0.86075 0.36063 0.72086 0.0
C2618 C 0.8946 0.36502 0.71844 0.0
C2619 C 0.94407 0.3831 0.73148 0.0
C2620 C 0.95931 0.39643 0.74742 0.0
C2621 C 0.9097 0.37893 0.7334 0.0
C2622 C 0.93945 0.40581 0.76484 0.0
C2623 C 0.90531 0.40212 0.7664 0.0
H2624 H 0.34042 0.37259 0.48882 0.0
H2625 H 0.35605 0.4182 0.54127 0.0
H2626 H 0.41452 0.40955 0.54409 0.0
H2627 H 0.46214 0.38909 0.53151 0.0
H2628 H 0.44633 0.34513 0.47689 0.0
H2629 H 0.38783 0.35334 0.47501 0.0
C2630 C 0.35646 0.3809 0.5007 0.0
C2631 C 0.34303 0.39608 0.51486 0.0
C2632 C 0.39055 0.37613 0.5019 0.0
C2633 C 0.36486 0.4062 0.53044 0.0
C2634 C 0.39867 0.40137 0.53191 0.0
C2635 C 0.44605 0.38139 0.51901 0.0
C2636 C 0.45918 0.3662 0.50467 0.0
C2637 C 0.41193 0.38637 0.5177 0.0
C2638 C 0.43735 0.35648 0.48872 0.0
C2639 C 0.40366 0.36128 0.48745 0.0
H2640 H 0.95651 0.88789 0.49114 0.0
H2641 H 0.93955 0.84446 0.54605 0.0
H2642 H 0.88118 0.85386 0.54866 0.0
H2643 H 0.83404 0.87415 0.53491 0.0
H2644 H 0.85058 0.91618 0.47795 0.0
H2645 H 0.90905 0.90775 0.47681 0.0
C2646 C 0.94012 0.88067 0.50389 0.0
C2647 C 0.95274 0.86556 0.51853 0.0
C2648 C 0.90605 0.88587 0.50491 0.0
C2649 C 0.93074 0.85616 0.5346 0.0
C2650 C 0.8972 0.8615 0.53605 0.0
C2651 C 0.85024 0.8814 0.52208 0.0
C2652 C 0.83722 0.89611 0.50684 0.0
C2653 C 0.88435 0.87624 0.52114 0.0
C2654 C 0.85935 0.90522 0.49049 0.0
C2655 C 0.8931 0.9003 0.48964 0.0
H2656 H 0.61482 0.1125 0.29822 0.0
H2657 H 0.60187 0.11562 0.22007 0.0
H2658 H 0.6596 0.12429 0.21527 0.0
H2659 H 0.7143 0.1314 0.23258 0.0
H2660 H 0.72973 0.1245 0.31004 0.0
H2661 H 0.67123 0.11696 0.3153 0.0
C2662 C 0.62439 0.11484 0.28003 0.0
C2663 C 0.60267 0.11375 0.25969 0.0
C2664 C 0.65862 0.11925 0.27708 0.0
C2665 C 0.61665 0.117 0.23642 0.0
C2666 C 0.65022 0.12176 0.23349 0.0
C2667 C 0.7054 0.12791 0.25067 0.0
C2668 C 0.72739 0.12882 0.27081 0.0
C2669 C 0.6715 0.12299 0.25365 0.0
C2670 C 0.71409 0.12452 0.29402 0.0
C2671 C 0.68033 0.11999 0.29712 0.0
H2672 H 0.09641 0.63466 0.2861 0.0
H2673 H 0.10479 0.59763 0.22336 0.0
H2674 H 0.16445 0.60386 0.22145 0.0
H2675 H 0.21444 0.61987 0.23733 0.0
H2676 H 0.2049 0.65989 0.29743 0.0
H2677 H 0.14657 0.65201 0.30086 0.0
C2678 C 0.11135 0.62791 0.27208 0.0
C2679 C 0.09592 0.61564 0.25492 0.0
C2680 C 0.14585 0.63197 0.27067 0.0
C2681 C 0.1158 0.6072 0.23673 0.0
C2682 C 0.15005 0.61074 0.23566 0.0
C2683 C 0.19992 0.62718 0.25108 0.0
C2684 C 0.21543 0.6404 0.26725 0.0
C2685 C 0.16543 0.6232 0.25244 0.0
C2686 C 0.19503 0.6492 0.28503 0.0
C2687 C 0.16108 0.64488 0.2869 0.0
H2688 H 0.70338 0.62272 0.52333 0.0
H2689 H 0.71229 0.62565 0.44497 0.0
H2690 H 0.65365 0.63348 0.44166 0.0
H2691 H 0.59911 0.63942 0.46074 0.0
H2692 H 0.59231 0.63996 0.53937 0.0
H2693 H 0.65017 0.63092 0.54242 0.0
C2694 C 0.69293 0.62535 0.50545 0.0
C2695 C 0.71306 0.62329 0.48447 0.0
C2696 C 0.65897 0.63039 0.50357 0.0
C2697 C 0.69798 0.62654 0.46158 0.0
C2698 C 0.66418 0.63124 0.45962 0.0
C2699 C 0.61008 0.63781 0.47864 0.0
C2700 C 0.59016 0.64013 0.49973 0.0
C2701 C 0.64428 0.63315 0.48047 0.0
C2702 C 0.60579 0.6377 0.52259 0.0
C2703 C 0.63939 0.63273 0.52447 0.0
H2704 H 0.08316 0.12972 0.46879 0.0
H2705 H 0.08301 0.13498 0.54735 0.0
H2706 H 0.14131 0.12702 0.54847 0.0
H2707 H 0.19322 0.11852 0.52778 0.0
H2708 H 0.1956 0.11748 0.44907 0.0
H2709 H 0.13638 0.12392 0.44783 0.0
C2710 C 0.09556 0.12939 0.48627 0.0
C2711 C 0.07722 0.13264 0.50797 0.0
C2712 C 0.13017 0.12551 0.48692 0.0
C2713 C 0.09499 0.13188 0.5302 0.0
C2714 C 0.12895 0.12756 0.53094 0.0
C2715 C 0.18126 0.12 0.51021 0.0
C2716 C 0.19984 0.11717 0.48858 0.0
C2717 C 0.1469 0.12433 0.50946 0.0
C2718 C 0.18268 0.11895 0.46622 0.0
C2719 C 0.14848 0.12286 0.46542 0.0
loop_
_geom_bond_atom_site_label_1
_geom_bond_atom_site_label_2
_geom_bond_distance
_geom_bond_site_symmetry_2
_ccdc_geom_bond_type
C0 C1 1.443 . S
C0 N4 1.376 . S
C0 C38 1.389 . S
C1 C0 1.443 . S
C1 C2 1.340 . S
C1 H41 0.951 . S
C2 C1 1.340 . S
C2 C3 1.439 . S
C2 H42 0.950 . S
C3 C2 1.439 . S
C3 N4 1.374 . S
C3 C37 1.395 . S
N4 C0 1.376 . S
N4 C3 1.374 . S
N4 Co5 2.008 . S
Co5 N4 2.008 . S
Co5 N6 1.995 . S
Co5 N11 2.008 . S
Co5 N16 1.995 . S
Co5 N21 2.282 . S
Co5 N27 2.282 . S
N6 Co5 1.995 . S
N6 C7 1.376 . S
N6 C10 1.383 . S
C7 N6 1.376 . S
C7 C8 1.446 . S
C7 C37 1.391 . S
C8 C7 1.446 . S
C8 C9 1.339 . S
C8 H43 0.949 . S
C9 C8 1.339 . S
C9 C10 1.439 . S
C9 H44 0.950 . S
C10 N6 1.383 . S
C10 C9 1.439 . S
C10 C39 1.392 . S
N11 Co5 2.008 . S
N11 C12 1.376 . S
N11 C15 1.374 . S
C12 N11 1.376 . S
C12 C13 1.443 . S
C12 C39 1.389 . S
C13 C12 1.443 . S
C13 C14 1.340 . S
C13 H45 0.951 . S
C14 C13 1.340 . S
C14 C15 1.439 . S
C14 H46 0.950 . S
C15 N11 1.374 . S
C15 C14 1.439 . S
C15 C40 1.395 . S
N16 Co5 1.995 . S
N16 C17 1.376 . S
N16 C20 1.383 . S
C17 N16 1.376 . S
C17 C18 1.446 . S
C17 C40 1.391 . S
C18 C17 1.446 . S
C18 C19 1.339 . S
C18 H47 0.949 . S
C19 C18 1.339 . S
C19 C20 1.439 . S
C19 H48 0.950 . S
C20 N16 1.383 . S
C20 C19 1.439 . S
C20 C38 1.392 . S
N21 Co5 2.282 . S
N21 C24 1.332 . S
N21 C26 1.332 . S
C22 C23 1.386 . S
C22 C25 1.388 . S
C23 C22 1.386 . S
C23 C24 1.382 . S
C23 H49 0.950 . S
C24 N21 1.332 . S
C24 C23 1.382 . S
C24 H35 0.952 . S
C25 C22 1.388 . S
C25 C26 1.382 . S
C25 H50 0.950 . S
C26 N21 1.332 . S
C26 C25 1.382 . S
C26 H36 0.948 . S
N27 Co5 2.282 . S
N27 C31 1.332 . S
N27 C32 1.332 . S
C28 C29 1.388 . S
C28 C32 1.382 . S
C28 H51 0.950 . S
C29 C28 1.388 . S
C29 C30 1.386 . S
C30 C29 1.386 . S
C30 C31 1.382 . S
C30 H52 0.950 . S
C31 N27 1.332 . S
C31 C30 1.382 . S
C31 H33 0.952 . S
C32 N27 1.332 . S
C32 C28 1.382 . S
C32 H34 0.948 . S
H33 C31 0.952 . S
H34 C32 0.948 . S
H35 C24 0.952 . S
H36 C26 0.948 . S
C37 C3 1.395 . S
C37 C7 1.391 . S
C38 C0 1.389 . S
C38 C20 1.392 . S
C39 C10 1.392 . S
C39 C12 1.389 . S
C40 C15 1.395 . S
C40 C17 1.391 . S
H41 C1 0.951 . S
H42 C2 0.950 . S
H43 C8 0.949 . S
H44 C9 0.950 . S
H45 C13 0.951 . S
H46 C14 0.950 . S
H47 C18 0.949 . S
H48 C19 0.950 . S
H49 C23 0.950 . S
H50 C25 0.950 . S
H51 C28 0.950 . S
H52 C30 0.950 . S
C53 C54 1.443 . S
C53 N57 1.376 . S
C53 C91 1.389 . S
C54 C53 1.443 . S
C54 C55 1.340 . S
C54 H94 0.951 . S
C55 C54 1.340 . S
C55 C56 1.439 . S
C55 H95 0.950 . S
C56 C55 1.439 . S
C56 N57 1.374 . S
C56 C90 1.395 . S
N57 C53 1.376 . S
N57 C56 1.374 . S
N57 Co58 2.008 . S
Co58 N57 2.008 . S
Co58 N59 1.995 . S
Co58 N64 2.008 . S
Co58 N69 1.995 . S
Co58 N74 2.282 . S
Co58 N80 2.282 . S
N59 Co58 1.995 . S
N59 C60 1.376 . S
N59 C63 1.383 . S
C60 N59 1.376 . S
C60 C61 1.446 . S
C60 C90 1.391 . S
C61 C60 1.446 . S
C61 C62 1.339 . S
C61 H96 0.949 . S
C62 C61 1.339 . S
C62 C63 1.439 . S
C62 H97 0.950 . S
C63 N59 1.383 . S
C63 C62 1.439 . S
C63 C92 1.392 . S
N64 Co58 2.008 . S
N64 C65 1.376 . S
N64 C68 1.374 . S
C65 N64 1.376 . S
C65 C66 1.443 . S
C65 C92 1.389 . S
C66 C65 1.443 . S
C66 C67 1.340 . S
C66 H98 0.951 . S
C67 C66 1.340 . S
C67 C68 1.439 . S
C67 H99 0.950 . S
C68 N64 1.374 . S
C68 C67 1.439 . S
C68 C93 1.395 . S
N69 Co58 1.995 . S
N69 C70 1.376 . S
N69 C73 1.383 . S
C70 N69 1.376 . S
C70 C71 1.446 . S
C70 C93 1.391 . S
C71 C70 1.446 . S
C71 C72 1.339 . S
C71 H100 0.949 . S
C72 C71 1.339 . S
C72 C73 1.439 . S
C72 H101 0.950 . S
C73 N69 1.383 . S
C73 C72 1.439 . S
C73 C91 1.392 . S
N74 Co58 2.282 . S
N74 C77 1.332 . S
N74 C79 1.332 . S
C75 C76 1.386 . S
C75 C78 1.388 . S
C76 C75 1.386 . S
C76 C77 1.382 . S
C76 H102 0.950 . S
C77 N74 1.332 . S
C77 C76 1.382 . S
C77 H88 0.952 . S
C78 C75 1.388 . S
C78 C79 1.382 . S
C78 H103 0.950 . S
C79 N74 1.332 . S
C79 C78 1.382 . S
C79 H89 0.948 . S
N80 Co58 2.282 . S
N80 C84 1.332 . S
N80 C85 1.332 1_455 S
C81 C82 1.388 . S
C81 C85 1.382 . S
C81 H104 0.950 . S
C82 C81 1.388 . S
C82 C83 1.386 . S
C83 C82 1.386 . S
C83 C84 1.382 1_655 S
C83 H105 0.950 . S
C84 N80 1.332 . S
C84 C83 1.382 1_455 S
C84 H86 0.952 . S
C85 N80 1.332 1_655 S
C85 C81 1.382 . S
C85 H87 0.948 . S
H86 C84 0.952 . S
H87 C85 0.948 . S
H88 C77 0.952 . S
H89 C79 0.948 . S
C90 C56 1.395 . S
C90 C60 1.391 . S
C91 C53 1.389 . S
C91 C73 1.392 . S
C92 C63 1.392 . S
C92 C65 1.389 . S
C93 C68 1.395 . S
C93 C70 1.391 . S
H94 C54 0.951 . S
H95 C55 0.950 . S
H96 C61 0.949 . S
H97 C62 0.950 . S
H98 C66 0.951 . S
H99 C67 0.950 . S
H100 C71 0.949 . S
H101 C72 0.950 . S
H102 C76 0.950 . S
H103 C78 0.950 . S
H104 C81 0.950 . S
H105 C83 0.950 . S
C106 C107 1.443 . S
C106 N110 1.376 . S
C106 C144 1.389 . S
C107 C106 1.443 . S
C107 C108 1.340 . S
C107 H147 0.951 . S
C108 C107 1.340 . S
C108 C109 1.439 . S
C108 H148 0.950 . S
C109 C108 1.439 . S
C109 N110 1.374 . S
C109 C143 1.395 1_556 S
N110 C106 1.376 . S
N110 C109 1.374 . S
N110 Co111 2.008 . S
Co111 N110 2.008 . S
Co111 N112 1.995 1_556 S
Co111 N117 2.008 1_556 S
Co111 N122 1.995 . S
Co111 N127 2.282 . S
Co111 N133 2.282 . S
N112 Co111 1.995 1_554 S
N112 C113 1.376 . S
N112 C116 1.383 . S
C113 N112 1.376 . S
C113 C114 1.446 . S
C113 C143 1.391 . S
C114 C113 1.446 . S
C114 C115 1.339 . S
C114 H149 0.949 . S
C115 C114 1.339 . S
C115 C116 1.439 . S
C115 H150 0.950 . S
C116 N112 1.383 . S
C116 C115 1.439 . S
C116 C145 1.392 . S
N117 Co111 2.008 1_554 S
N117 C118 1.376 . S
N117 C121 1.374 . S
C118 N117 1.376 . S
C118 C119 1.443 . S
C118 C145 1.389 . S
C119 C118 1.443 . S
C119 C120 1.340 . S
C119 H151 0.951 . S
C120 C119 1.340 . S
C120 C121 1.439 . S
C120 H152 0.950 . S
C121 N117 1.374 . S
C121 C120 1.439 . S
C121 C146 1.395 1_554 S
N122 Co111 1.995 . S
N122 C123 1.376 . S
N122 C126 1.383 . S
C123 N122 1.376 . S
C123 C124 1.446 . S
C123 C146 1.391 . S
C124 C123 1.446 . S
C124 C125 1.339 . S
C124 H153 0.949 . S
C125 C124 1.339 . S
C125 C126 1.439 . S
C125 H154 0.950 . S
C126 N122 1.383 . S
C126 C125 1.439 . S
C126 C144 1.392 . S
N127 Co111 2.282 . S
N127 C130 1.332 . S
N127 C132 1.332 1_556 S
C128 C129 1.386 . S
C128 C131 1.388 1_556 S
C129 C128 1.386 . S
C129 C130 1.382 . S
C129 H155 0.950 . S
C130 N127 1.332 . S
C130 C129 1.382 . S
C130 H141 0.952 . S
C131 C128 1.388 1_554 S
C131 C132 1.382 . S
C131 H156 0.950 . S
C132 N127 1.332 1_554 S
C132 C131 1.382 . S
C132 H142 0.948 . S
N133 Co111 2.282 . S
N133 C137 1.332 1_556 S
N133 C138 1.332 . S
C134 C135 1.388 . S
C134 C138 1.382 . S
C134 H157 0.950 . S
C135 C134 1.388 . S
C135 C136 1.386 1_556 S
C136 C135 1.386 1_554 S
C136 C137 1.382 . S
C136 H158 0.950 . S
C137 N133 1.332 1_554 S
C137 C136 1.382 . S
C137 H139 0.952 . S
C138 N133 1.332 . S
C138 C134 1.382 . S
C138 H140 0.948 . S
H139 C137 0.952 . S
H140 C138 0.948 . S
H141 C130 0.952 . S
H142 C132 0.948 . S
C143 C109 1.395 1_554 S
C143 C113 1.391 . S
C144 C106 1.389 . S
C144 C126 1.392 . S
C145 C116 1.392 . S
C145 C118 1.389 . S
C146 C121 1.395 1_556 S
C146 C123 1.391 . S
H147 C107 0.951 . S
H148 C108 0.950 . S
H149 C114 0.949 . S
H150 C115 0.950 . S
H151 C119 0.951 . S
H152 C120 0.950 . S
H153 C124 0.949 . S
H154 C125 0.950 . S
H155 C129 0.950 . S
H156 C131 0.950 . S
H157 C134 0.950 . S
H158 C136 0.950 . S
C159 C160 1.443 . S
C159 N163 1.376 . S
C159 C197 1.389 . S
C160 C159 1.443 . S
C160 C161 1.340 . S
C160 H200 0.951 . S
C161 C160 1.340 . S
C161 C162 1.439 . S
C161 H201 0.950 . S
C162 C161 1.439 . S
C162 N163 1.374 . S
C162 C196 1.395 1_556 S
N163 C159 1.376 . S
N163 C162 1.374 . S
N163 Co164 2.008 . S
Co164 N163 2.008 . S
Co164 N165 1.995 1_556 S
Co164 N170 2.008 1_556 S
Co164 N175 1.995 . S
Co164 N180 2.282 . S
Co164 N186 2.282 . S
N165 Co164 1.995 1_554 S
N165 C166 1.376 . S
N165 C169 1.383 . S
C166 N165 1.376 . S
C166 C167 1.446 . S
C166 C196 1.391 . S
C167 C166 1.446 . S
C167 C168 1.339 . S
C167 H202 0.949 . S
C168 C167 1.339 . S
C168 C169 1.439 . S
C168 H203 0.950 . S
C169 N165 1.383 . S
C169 C168 1.439 . S
C169 C198 1.392 . S
N170 Co164 2.008 1_554 S
N170 C171 1.376 . S
N170 C174 1.374 . S
C171 N170 1.376 . S
C171 C172 1.443 . S
C171 C198 1.389 . S
C172 C171 1.443 . S
C172 C173 1.340 . S
C172 H204 0.951 . S
C173 C172 1.340 . S
C173 C174 1.439 . S
C173 H205 0.950 . S
C174 N170 1.374 . S
C174 C173 1.439 . S
C174 C199 1.395 1_554 S
N175 Co164 1.995 . S
N175 C176 1.376 . S
N175 C179 1.383 . S
C176 N175 1.376 . S
C176 C177 1.446 . S
C176 C199 1.391 . S
C177 C176 1.446 . S
C177 C178 1.339 . S
C177 H206 0.949 . S
C178 C177 1.339 . S
C178 C179 1.439 . S
C178 H207 0.950 . S
C179 N175 1.383 . S
C179 C178 1.439 . S
C179 C197 1.392 . S
N180 Co164 2.282 . S
N180 C183 1.332 . S
N180 C185 1.332 1_556 S
C181 C182 1.386 . S
C181 C184 1.388 1_556 S
C182 C181 1.386 . S
C182 C183 1.382 . S
C182 H208 0.950 . S
C183 N180 1.332 . S
C183 C182 1.382 . S
C183 H194 0.952 . S
C184 C181 1.388 1_554 S
C184 C185 1.382 . S
C184 H209 0.950 . S
C185 N180 1.332 1_554 S
C185 C184 1.382 . S
C185 H195 0.948 . S
N186 Co164 2.282 . S
N186 C190 1.332 1_556 S
N186 C191 1.332 1_455 S
C187 C188 1.388 . S
C187 C191 1.382 . S
C187 H210 0.950 . S
C188 C187 1.388 . S
C188 C189 1.386 1_556 S
C189 C188 1.386 1_554 S
C189 C190 1.382 1_655 S
C189 H211 0.950 . S
C190 N186 1.332 1_554 S
C190 C189 1.382 1_455 S
C190 H192 0.952 . S
C191 N186 1.332 1_655 S
C191 C187 1.382 . S
C191 H193 0.948 . S
H192 C190 0.952 . S
H193 C191 0.948 . S
H194 C183 0.952 . S
H195 C185 0.948 . S
C196 C162 1.395 1_554 S
C196 C166 1.391 . S
C197 C159 1.389 . S
C197 C179 1.392 . S
C198 C169 1.392 . S
C198 C171 1.389 . S
C199 C174 1.395 1_556 S
C199 C176 1.391 . S
H200 C160 0.951 . S
H201 C161 0.950 . S
H202 C167 0.949 . S
H203 C168 0.950 . S
H204 C172 0.951 . S
H205 C173 0.950 . S
H206 C177 0.949 . S
H207 C178 0.950 . S
H208 C182 0.950 . S
H209 C184 0.950 . S
H210 C187 0.950 . S
H211 C189 0.950 . S
C212 C213 1.443 . S
C212 N216 1.376 . S
C212 C250 1.389 . S
C213 C212 1.443 . S
C213 C214 1.340 . S
C213 H253 0.951 . S
C214 C213 1.340 . S
C214 C215 1.439 . S
C214 H254 0.950 . S
C215 C214 1.439 . S
C215 N216 1.374 . S
C215 C249 1.395 . S
N216 C212 1.376 . S
N216 C215 1.374 . S
N216 Co217 2.008 . S
Co217 N216 2.008 . S
Co217 N218 1.995 . S
Co217 N223 2.008 . S
Co217 N228 1.995 . S
Co217 N233 2.282 . S
Co217 N239 2.282 . S
N218 Co217 1.995 . S
N218 C219 1.376 . S
N218 C222 1.383 . S
C219 N218 1.376 . S
C219 C220 1.446 . S
C219 C249 1.391 . S
C220 C219 1.446 . S
C220 C221 1.339 . S
C220 H255 0.949 . S
C221 C220 1.339 . S
C221 C222 1.439 . S
C221 H256 0.950 . S
C222 N218 1.383 . S
C222 C221 1.439 . S
C222 C251 1.392 . S
N223 Co217 2.008 . S
N223 C224 1.376 . S
N223 C227 1.374 . S
C224 N223 1.376 . S
C224 C225 1.443 . S
C224 C251 1.389 . S
C225 C224 1.443 . S
C225 C226 1.340 . S
C225 H257 0.951 . S
C226 C225 1.340 . S
C226 C227 1.439 . S
C226 H258 0.950 . S
C227 N223 1.374 . S
C227 C226 1.439 . S
C227 C252 1.395 . S
N228 Co217 1.995 . S
N228 C229 1.376 . S
N228 C232 1.383 . S
C229 N228 1.376 . S
C229 C230 1.446 . S
C229 C252 1.391 . S
C230 C229 1.446 . S
C230 C231 1.339 . S
C230 H259 0.949 . S
C231 C230 1.339 . S
C231 C232 1.439 . S
C231 H260 0.950 . S
C232 N228 1.383 . S
C232 C231 1.439 . S
C232 C250 1.392 . S
N233 Co217 2.282 . S
N233 C236 1.332 . S
N233 C238 1.332 . S
C234 C235 1.386 . S
C234 C237 1.388 . S
C235 C234 1.386 . S
C235 C236 1.382 . S
C235 H261 0.950 . S
C236 N233 1.332 . S
C236 C235 1.382 . S
C236 H247 0.952 . S
C237 C234 1.388 . S
C237 C238 1.382 . S
C237 H262 0.950 . S
C238 N233 1.332 . S
C238 C237 1.382 . S
C238 H248 0.948 . S
N239 Co217 2.282 . S
N239 C243 1.332 . S
N239 C244 1.332 . S
C240 C241 1.388 . S
C240 C244 1.382 . S
C240 H263 0.950 . S
C241 C240 1.388 . S
C241 C242 1.386 . S
C242 C241 1.386 . S
C242 C243 1.382 . S
C242 H264 0.950 . S
C243 N239 1.332 . S
C243 C242 1.382 . S
C243 H245 0.952 . S
C244 N239 1.332 . S
C244 C240 1.382 . S
C244 H246 0.948 . S
H245 C243 0.952 . S
H246 C244 0.948 . S
H247 C236 0.952 . S
H248 C238 0.948 . S
C249 C215 1.395 . S
C249 C219 1.391 . S
C250 C212 1.389 . S
C250 C232 1.392 . S
C251 C222 1.392 . S
C251 C224 1.389 . S
C252 C227 1.395 . S
C252 C229 1.391 . S
H253 C213 0.951 . S
H254 C214 0.950 . S
H255 C220 0.949 . S
H256 C221 0.950 . S
H257 C225 0.951 . S
H258 C226 0.950 . S
H259 C230 0.949 . S
H260 C231 0.950 . S
H261 C235 0.950 . S
H262 C237 0.950 . S
H263 C240 0.950 . S
H264 C242 0.950 . S
C265 C266 1.443 . S
C265 N269 1.376 . S
C265 C303 1.389 . S
C266 C265 1.443 . S
C266 C267 1.340 . S
C266 H306 0.951 . S
C267 C266 1.340 . S
C267 C268 1.439 . S
C267 H307 0.949 . S
C268 C267 1.439 . S
C268 N269 1.374 . S
C268 C302 1.395 . S
N269 C265 1.376 . S
N269 C268 1.374 . S
N269 Co270 2.008 . S
Co270 N269 2.008 . S
Co270 N271 1.995 . S
Co270 N276 2.008 . S
Co270 N281 1.995 . S
Co270 N286 2.282 . S
Co270 N292 2.282 . S
N271 Co270 1.995 . S
N271 C272 1.376 . S
N271 C275 1.383 . S
C272 N271 1.376 . S
C272 C273 1.446 . S
C272 C302 1.391 . S
C273 C272 1.446 . S
C273 C274 1.339 . S
C273 H308 0.949 . S
C274 C273 1.339 . S
C274 C275 1.439 . S
C274 H309 0.950 . S
C275 N271 1.383 . S
C275 C274 1.439 . S
C275 C304 1.392 . S
N276 Co270 2.008 . S
N276 C277 1.376 . S
N276 C280 1.374 . S
C277 N276 1.376 . S
C277 C278 1.443 . S
C277 C304 1.389 . S
C278 C277 1.443 . S
C278 C279 1.340 . S
C278 H310 0.951 . S
C279 C278 1.340 . S
C279 C280 1.439 . S
C279 H311 0.950 . S
C280 N276 1.374 . S
C280 C279 1.439 . S
C280 C305 1.395 . S
N281 Co270 1.995 . S
N281 C282 1.376 . S
N281 C285 1.383 . S
C282 N281 1.376 . S
C282 C283 1.446 . S
C282 C305 1.391 . S
C283 C282 1.446 . S
C283 C284 1.339 . S
C283 H312 0.949 . S
C284 C283 1.339 . S
C284 C285 1.439 . S
C284 H313 0.950 . S
C285 N281 1.383 . S
C285 C284 1.439 . S
C285 C303 1.392 . S
N286 Co270 2.282 . S
N286 C289 1.332 . S
N286 C291 1.332 . S
C287 C288 1.386 . S
C287 C290 1.388 . S
C288 C287 1.386 . S
C288 C289 1.382 . S
C288 H314 0.950 . S
C289 N286 1.332 . S
C289 C288 1.382 . S
C289 H300 0.952 . S
C290 C287 1.388 . S
C290 C291 1.382 . S
C290 H315 0.950 . S
C291 N286 1.332 . S
C291 C290 1.382 . S
C291 H301 0.948 . S
N292 Co270 2.282 . S
N292 C296 1.332 1_655 S
N292 C297 1.332 . S
C293 C294 1.388 . S
C293 C297 1.382 1_455 S
C293 H316 0.950 . S
C294 C293 1.388 . S
C294 C295 1.386 . S
C295 C294 1.386 . S
C295 C296 1.382 . S
C295 H317 0.950 . S
C296 N292 1.332 1_455 S
C296 C295 1.382 . S
C296 H298 0.952 . S
C297 N292 1.332 . S
C297 C293 1.382 1_655 S
C297 H299 0.948 . S
H298 C296 0.952 . S
H299 C297 0.948 . S
H300 C289 0.952 . S
H301 C291 0.948 . S
C302 C268 1.395 . S
C302 C272 1.391 . S
C303 C265 1.389 . S
C303 C285 1.392 . S
C304 C275 1.392 . S
C304 C277 1.389 . S
C305 C280 1.395 . S
C305 C282 1.391 . S
H306 C266 0.951 . S
H307 C267 0.949 . S
H308 C273 0.949 . S
H309 C274 0.950 . S
H310 C278 0.951 . S
H311 C279 0.950 . S
H312 C283 0.949 . S
H313 C284 0.950 . S
H314 C288 0.950 . S
H315 C290 0.950 . S
H316 C293 0.950 . S
H317 C295 0.950 . S
C318 C319 1.443 . S
C318 N322 1.376 . S
C318 C356 1.389 . S
C319 C318 1.443 . S
C319 C320 1.340 . S
C319 H359 0.951 . S
C320 C319 1.340 . S
C320 C321 1.439 . S
C320 H360 0.950 . S
C321 C320 1.439 . S
C321 N322 1.374 . S
C321 C355 1.395 . S
N322 C318 1.376 . S
N322 C321 1.374 . S
N322 Co323 2.008 . S
Co323 N322 2.008 . S
Co323 N324 1.995 1_554 S
Co323 N329 2.008 1_554 S
Co323 N334 1.995 . S
Co323 N339 2.282 . S
Co323 N345 2.282 . S
N324 Co323 1.995 1_556 S
N324 C325 1.376 . S
N324 C328 1.383 . S
C325 N324 1.376 . S
C325 C326 1.446 . S
C325 C355 1.391 1_556 S
C326 C325 1.446 . S
C326 C327 1.339 . S
C326 H361 0.949 . S
C327 C326 1.339 . S
C327 C328 1.439 . S
C327 H362 0.950 . S
C328 N324 1.383 . S
C328 C327 1.439 . S
C328 C357 1.392 . S
N329 Co323 2.008 1_556 S
N329 C330 1.376 . S
N329 C333 1.374 . S
C330 N329 1.376 . S
C330 C331 1.443 . S
C330 C357 1.389 . S
C331 C330 1.443 . S
C331 C332 1.340 . S
C331 H363 0.951 . S
C332 C331 1.340 . S
C332 C333 1.439 . S
C332 H364 0.950 . S
C333 N329 1.374 . S
C333 C332 1.439 . S
C333 C358 1.395 . S
N334 Co323 1.995 . S
N334 C335 1.376 . S
N334 C338 1.383 . S
C335 N334 1.376 . S
C335 C336 1.446 . S
C335 C358 1.391 1_554 S
C336 C335 1.446 . S
C336 C337 1.339 . S
C336 H365 0.949 . S
C337 C336 1.339 . S
C337 C338 1.439 . S
C337 H366 0.950 . S
C338 N334 1.383 . S
C338 C337 1.439 . S
C338 C356 1.392 . S
N339 Co323 2.282 . S
N339 C342 1.332 . S
N339 C344 1.332 . S
C340 C341 1.386 . S
C340 C343 1.388 . S
C341 C340 1.386 . S
C341 C342 1.382 . S
C341 H367 0.950 . S
C342 N339 1.332 . S
C342 C341 1.382 . S
C342 H353 0.952 . S
C343 C340 1.388 . S
C343 C344 1.382 . S
C343 H368 0.953 . S
C344 N339 1.332 . S
C344 C343 1.382 . S
C344 H354 0.948 . S
N345 Co323 2.282 . S
N345 C349 1.334 . S
N345 C350 1.332 . S
C346 C347 1.388 . S
C346 C350 1.382 . S
C346 H369 0.950 . S
C347 C346 1.388 . S
C347 C348 1.386 . S
C348 C347 1.386 . S
C348 C349 1.386 . S
C348 H370 0.950 . S
C349 N345 1.334 . S
C349 C348 1.386 . S
C349 H351 0.946 1_554 S
C350 N345 1.332 . S
C350 C346 1.382 . S
C350 H352 0.948 . S
H351 C349 0.946 1_556 S
H352 C350 0.948 . S
H353 C342 0.952 . S
H354 C344 0.948 . S
C355 C321 1.395 . S
C355 C325 1.391 1_554 S
C356 C318 1.389 . S
C356 C338 1.392 . S
C357 C328 1.392 . S
C357 C330 1.389 . S
C358 C333 1.395 . S
C358 C335 1.391 1_556 S
H359 C319 0.951 . S
H360 C320 0.950 . S
H361 C326 0.949 . S
H362 C327 0.950 . S
H363 C331 0.951 . S
H364 C332 0.950 . S
H365 C336 0.949 . S
H366 C337 0.950 . S
H367 C341 0.950 . S
H368 C343 0.953 . S
H369 C346 0.950 . S
H370 C348 0.950 . S
C371 C372 1.443 . S
C371 N375 1.376 . S
C371 C409 1.389 . S
C372 C371 1.443 . S
C372 C373 1.340 . S
C372 H412 0.951 . S
C373 C372 1.340 . S
C373 C374 1.439 . S
C373 H413 0.949 . S
C374 C373 1.439 . S
C374 N375 1.374 . S
C374 C408 1.395 . S
N375 C371 1.376 . S
N375 C374 1.374 . S
N375 Co376 2.008 . S
Co376 N375 2.008 . S
Co376 N377 1.995 1_554 S
Co376 N382 2.008 1_554 S
Co376 N387 1.995 . S
Co376 N392 2.282 . S
Co376 N398 2.282 . S
N377 Co376 1.995 1_556 S
N377 C378 1.376 . S
N377 C381 1.383 . S
C378 N377 1.376 . S
C378 C379 1.446 . S
C378 C408 1.391 1_556 S
C379 C378 1.446 . S
C379 C380 1.339 . S
C379 H414 0.949 . S
C380 C379 1.339 . S
C380 C381 1.439 . S
C380 H415 0.950 . S
C381 N377 1.383 . S
C381 C380 1.439 . S
C381 C410 1.392 . S
N382 Co376 2.008 1_556 S
N382 C383 1.376 . S
N382 C386 1.374 . S
C383 N382 1.376 . S
C383 C384 1.443 . S
C383 C410 1.389 . S
C384 C383 1.443 . S
C384 C385 1.340 . S
C384 H416 0.951 . S
C385 C384 1.340 . S
C385 C386 1.439 . S
C385 H417 0.950 . S
C386 N382 1.374 . S
C386 C385 1.439 . S
C386 C411 1.395 . S
N387 Co376 1.995 . S
N387 C388 1.376 . S
N387 C391 1.383 . S
C388 N387 1.376 . S
C388 C389 1.446 . S
C388 C411 1.391 1_554 S
C389 C388 1.446 . S
C389 C390 1.339 . S
C389 H418 0.949 . S
C390 C389 1.339 . S
C390 C391 1.439 . S
C390 H419 0.950 . S
C391 N387 1.383 . S
C391 C390 1.439 . S
C391 C409 1.392 . S
N392 Co376 2.282 . S
N392 C395 1.332 . S
N392 C397 1.332 . S
C393 C394 1.386 . S
C393 C396 1.388 . S
C394 C393 1.386 . S
C394 C395 1.382 . S
C394 H420 0.950 . S
C395 N392 1.332 . S
C395 C394 1.382 . S
C395 H406 0.952 . S
C396 C393 1.388 . S
C396 C397 1.382 . S
C396 H421 0.953 . S
C397 N392 1.332 . S
C397 C396 1.382 . S
C397 H407 0.948 . S
N398 Co376 2.282 . S
N398 C402 1.334 1_655 S
N398 C403 1.332 . S
C399 C400 1.388 . S
C399 C403 1.382 1_455 S
C399 H422 0.950 . S
C400 C399 1.388 . S
C400 C401 1.386 . S
C401 C400 1.386 . S
C401 C402 1.386 . S
C401 H423 0.950 . S
C402 N398 1.334 1_455 S
C402 C401 1.386 . S
C402 H404 0.946 1_554 S
C403 N398 1.332 . S
C403 C399 1.382 1_655 S
C403 H405 0.948 . S
H404 C402 0.946 1_556 S
H405 C403 0.948 . S
H406 C395 0.952 . S
H407 C397 0.948 . S
C408 C374 1.395 . S
C408 C378 1.391 1_554 S
C409 C371 1.389 . S
C409 C391 1.392 . S
C410 C381 1.392 . S
C410 C383 1.389 . S
C411 C386 1.395 . S
C411 C388 1.391 1_556 S
H412 C372 0.951 . S
H413 C373 0.949 . S
H414 C379 0.949 . S
H415 C380 0.950 . S
H416 C384 0.951 . S
H417 C385 0.950 . S
H418 C389 0.949 . S
H419 C390 0.950 . S
H420 C394 0.950 . S
H421 C396 0.953 . S
H422 C399 0.950 . S
H423 C401 0.950 . S
C424 C425 1.443 . S
C424 N428 1.376 . S
C424 C462 1.389 . S
C425 C424 1.443 . S
C425 C426 1.340 . S
C425 H465 0.951 . S
C426 C425 1.340 . S
C426 C427 1.439 . S
C426 H466 0.950 . S
C427 C426 1.439 . S
C427 N428 1.374 . S
C427 C461 1.395 . S
N428 C424 1.376 . S
N428 C427 1.374 . S
N428 Co429 2.008 . S
Co429 N428 2.008 . S
Co429 N430 1.995 . S
Co429 N435 2.008 . S
Co429 N440 1.995 . S
Co429 N445 2.282 . S
Co429 N451 2.282 . S
N430 Co429 1.995 . S
N430 C431 1.376 . S
N430 C434 1.383 . S
C431 N430 1.376 . S
C431 C432 1.446 . S
C431 C461 1.391 . S
C432 C431 1.446 . S
C432 C433 1.339 . S
C432 H467 0.949 . S
C433 C432 1.339 . S
C433 C434 1.439 . S
C433 H468 0.950 . S
C434 N430 1.383 . S
C434 C433 1.439 . S
C434 C463 1.392 . S
N435 Co429 2.008 . S
N435 C436 1.376 . S
N435 C439 1.374 . S
C436 N435 1.376 . S
C436 C437 1.443 . S
C436 C463 1.389 . S
C437 C436 1.443 . S
C437 C438 1.340 . S
C437 H469 0.951 . S
C438 C437 1.340 . S
C438 C439 1.439 . S
C438 H470 0.950 . S
C439 N435 1.374 . S
C439 C438 1.439 . S
C439 C464 1.395 . S
N440 Co429 1.995 . S
N440 C441 1.376 . S
N440 C444 1.383 . S
C441 N440 1.376 . S
C441 C442 1.446 . S
C441 C464 1.391 . S
C442 C441 1.446 . S
C442 C443 1.339 . S
C442 H471 0.949 . S
C443 C442 1.339 . S
C443 C444 1.439 . S
C443 H472 0.950 . S
C444 N440 1.383 . S
C444 C443 1.439 . S
C444 C462 1.392 . S
N445 Co429 2.282 . S
N445 C448 1.332 . S
N445 C450 1.332 . S
C446 C447 1.386 . S
C446 C449 1.388 . S
C447 C446 1.386 . S
C447 C448 1.382 . S
C447 H473 0.950 . S
C448 N445 1.332 . S
C448 C447 1.382 . S
C448 H459 0.952 . S
C449 C446 1.388 . S
C449 C450 1.382 . S
C449 H474 0.950 . S
C450 N445 1.332 . S
C450 C449 1.382 . S
C450 H460 0.948 . S
N451 Co429 2.282 . S
N451 C455 1.332 . S
N451 C456 1.332 . S
C452 C453 1.388 . S
C452 C456 1.382 . S
C452 H475 0.950 . S
C453 C452 1.388 . S
C453 C454 1.386 . S
C454 C453 1.386 . S
C454 C455 1.382 . S
C454 H476 0.950 . S
C455 N451 1.332 . S
C455 C454 1.382 . S
C455 H457 0.952 . S
C456 N451 1.332 . S
C456 C452 1.382 . S
C456 H458 0.948 . S
H457 C455 0.952 . S
H458 C456 0.948 . S
H459 C448 0.952 . S
H460 C450 0.948 . S
C461 C427 1.395 . S
C461 C431 1.391 . S
C462 C424 1.389 . S
C462 C444 1.392 . S
C463 C434 1.392 . S
C463 C436 1.389 . S
C464 C439 1.395 . S
C464 C441 1.391 . S
H465 C425 0.951 . S
H466 C426 0.950 . S
H467 C432 0.949 . S
H468 C433 0.950 . S
H469 C437 0.951 . S
H470 C438 0.950 . S
H471 C442 0.949 . S
H472 C443 0.950 . S
H473 C447 0.950 . S
H474 C449 0.950 . S
H475 C452 0.950 . S
H476 C454 0.950 . S
C477 C478 1.443 . S
C477 N481 1.376 . S
C477 C515 1.389 . S
C478 C477 1.443 . S
C478 C479 1.340 . S
C478 H518 0.951 . S
C479 C478 1.340 . S
C479 C480 1.439 . S
C479 H519 0.950 . S
C480 C479 1.439 . S
C480 N481 1.374 . S
C480 C514 1.395 . S
N481 C477 1.376 . S
N481 C480 1.374 . S
N481 Co482 2.008 . S
Co482 N481 2.008 . S
Co482 N483 1.995 . S
Co482 N488 2.008 . S
Co482 N493 1.995 . S
Co482 N498 2.282 . S
Co482 N504 2.282 . S
N483 Co482 1.995 . S
N483 C484 1.376 . S
N483 C487 1.383 . S
C484 N483 1.376 . S
C484 C485 1.446 . S
C484 C514 1.391 . S
C485 C484 1.446 . S
C485 C486 1.339 . S
C485 H520 0.949 . S
C486 C485 1.339 . S
C486 C487 1.439 . S
C486 H521 0.950 . S
C487 N483 1.383 . S
C487 C486 1.439 . S
C487 C516 1.392 . S
N488 Co482 2.008 . S
N488 C489 1.376 . S
N488 C492 1.374 . S
C489 N488 1.376 . S
C489 C490 1.443 . S
C489 C516 1.389 . S
C490 C489 1.443 . S
C490 C491 1.340 . S
C490 H522 0.951 . S
C491 C490 1.340 . S
C491 C492 1.439 . S
C491 H523 0.950 . S
C492 N488 1.374 . S
C492 C491 1.439 . S
C492 C517 1.395 . S
N493 Co482 1.995 . S
N493 C494 1.376 . S
N493 C497 1.383 . S
C494 N493 1.376 . S
C494 C495 1.446 . S
C494 C517 1.391 . S
C495 C494 1.446 . S
C495 C496 1.339 . S
C495 H524 0.949 . S
C496 C495 1.339 . S
C496 C497 1.439 . S
C496 H525 0.950 . S
C497 N493 1.383 . S
C497 C496 1.439 . S
C497 C515 1.392 . S
N498 Co482 2.282 . S
N498 C501 1.332 . S
N498 C503 1.332 . S
C499 C500 1.386 . S
C499 C502 1.388 . S
C500 C499 1.386 . S
C500 C501 1.382 . S
C500 H526 0.950 . S
C501 N498 1.332 . S
C501 C500 1.382 . S
C501 H512 0.952 . S
C502 C499 1.388 . S
C502 C503 1.382 . S
C502 H527 0.950 . S
C503 N498 1.332 . S
C503 C502 1.382 . S
C503 H513 0.948 . S
N504 Co482 2.282 . S
N504 C508 1.332 . S
N504 C509 1.332 1_455 S
C505 C506 1.388 . S
C505 C509 1.382 . S
C505 H528 0.950 . S
C506 C505 1.388 . S
C506 C507 1.386 . S
C507 C506 1.386 . S
C507 C508 1.382 1_655 S
C507 H529 0.950 . S
C508 N504 1.332 . S
C508 C507 1.382 1_455 S
C508 H510 0.952 . S
C509 N504 1.332 1_655 S
C509 C505 1.382 . S
C509 H511 0.948 . S
H510 C508 0.952 . S
H511 C509 0.948 . S
H512 C501 0.952 . S
H513 C503 0.948 . S
C514 C480 1.395 . S
C514 C484 1.391 . S
C515 C477 1.389 . S
C515 C497 1.392 . S
C516 C487 1.392 . S
C516 C489 1.389 . S
C517 C492 1.395 . S
C517 C494 1.391 . S
H518 C478 0.951 . S
H519 C479 0.950 . S
H520 C485 0.949 . S
H521 C486 0.950 . S
H522 C490 0.951 . S
H523 C491 0.950 . S
H524 C495 0.949 . S
H525 C496 0.950 . S
H526 C500 0.950 . S
H527 C502 0.950 . S
H528 C505 0.950 . S
H529 C507 0.950 . S
C530 C531 1.443 . S
C530 N534 1.376 . S
C530 C568 1.389 . S
C531 C530 1.443 . S
C531 C532 1.340 . S
C531 H571 0.951 . S
C532 C531 1.340 . S
C532 C533 1.439 . S
C532 H572 0.950 . S
C533 C532 1.439 . S
C533 N534 1.374 . S
C533 C567 1.395 . S
N534 C530 1.376 . S
N534 C533 1.374 . S
N534 Co535 2.008 . S
Co535 N534 2.008 . S
Co535 N536 1.995 . S
Co535 N541 2.008 . S
Co535 N546 1.995 . S
Co535 N551 2.282 . S
Co535 N557 2.282 . S
N536 Co535 1.995 . S
N536 C537 1.376 . S
N536 C540 1.383 . S
C537 N536 1.376 . S
C537 C538 1.446 . S
C537 C567 1.391 . S
C538 C537 1.446 . S
C538 C539 1.339 . S
C538 H573 0.949 . S
C539 C538 1.339 . S
C539 C540 1.439 . S
C539 H574 0.950 . S
C540 N536 1.383 . S
C540 C539 1.439 . S
C540 C569 1.392 . S
N541 Co535 2.008 . S
N541 C542 1.376 . S
N541 C545 1.374 . S
C542 N541 1.376 . S
C542 C543 1.443 . S
C542 C569 1.389 . S
C543 C542 1.443 . S
C543 C544 1.340 . S
C543 H575 0.951 . S
C544 C543 1.340 . S
C544 C545 1.439 . S
C544 H576 0.950 . S
C545 N541 1.374 . S
C545 C544 1.439 . S
C545 C570 1.395 . S
N546 Co535 1.995 . S
N546 C547 1.376 . S
N546 C550 1.383 . S
C547 N546 1.376 . S
C547 C548 1.446 . S
C547 C570 1.391 . S
C548 C547 1.446 . S
C548 C549 1.339 . S
C548 H577 0.949 . S
C549 C548 1.339 . S
C549 C550 1.439 . S
C549 H578 0.950 . S
C550 N546 1.383 . S
C550 C549 1.439 . S
C550 C568 1.392 . S
N551 Co535 2.282 . S
N551 C554 1.332 . S
N551 C556 1.332 . S
C552 C553 1.386 . S
C552 C555 1.388 . S
C553 C552 1.386 . S
C553 C554 1.382 . S
C553 H579 0.950 . S
C554 N551 1.332 . S
C554 C553 1.382 . S
C554 H565 0.952 . S
C555 C552 1.388 . S
C555 C556 1.382 . S
C555 H580 0.950 . S
C556 N551 1.332 . S
C556 C555 1.382 . S
C556 H566 0.948 . S
N557 Co535 2.282 . S
N557 C561 1.332 . S
N557 C562 1.332 . S
C558 C559 1.388 . S
C558 C562 1.382 . S
C558 H581 0.950 . S
C559 C558 1.388 . S
C559 C560 1.386 . S
C560 C559 1.386 . S
C560 C561 1.382 . S
C560 H582 0.950 . S
C561 N557 1.332 . S
C561 C560 1.382 . S
C561 H563 0.952 . S
C562 N557 1.332 . S
C562 C558 1.382 . S
C562 H564 0.948 . S
H563 C561 0.952 . S
H564 C562 0.948 . S
H565 C554 0.952 . S
H566 C556 0.948 . S
C567 C533 1.395 . S
C567 C537 1.391 . S
C568 C530 1.389 . S
C568 C550 1.392 . S
C569 C540 1.392 . S
C569 C542 1.389 . S
C570 C545 1.395 . S
C570 C547 1.391 . S
H571 C531 0.951 . S
H572 C532 0.950 . S
H573 C538 0.949 . S
H574 C539 0.950 . S
H575 C543 0.951 . S
H576 C544 0.950 . S
H577 C548 0.949 . S
H578 C549 0.950 . S
H579 C553 0.950 . S
H580 C555 0.950 . S
H581 C558 0.950 . S
H582 C560 0.950 . S
C583 C584 1.443 . S
C583 N587 1.376 . S
C583 C621 1.389 . S
C584 C583 1.443 . S
C584 C585 1.340 . S
C584 H624 0.951 . S
C585 C584 1.340 . S
C585 C586 1.439 . S
C585 H625 0.950 . S
C586 C585 1.439 . S
C586 N587 1.374 . S
C586 C620 1.395 . S
N587 C583 1.376 . S
N587 C586 1.374 . S
N587 Co588 2.008 . S
Co588 N587 2.008 . S
Co588 N589 1.995 . S
Co588 N594 2.008 . S
Co588 N599 1.995 . S
Co588 N604 2.282 . S
Co588 N610 2.282 . S
N589 Co588 1.995 . S
N589 C590 1.376 . S
N589 C593 1.383 . S
C590 N589 1.376 . S
C590 C591 1.446 . S
C590 C620 1.391 . S
C591 C590 1.446 . S
C591 C592 1.339 . S
C591 H626 0.949 . S
C592 C591 1.339 . S
C592 C593 1.439 . S
C592 H627 0.950 . S
C593 N589 1.383 . S
C593 C592 1.439 . S
C593 C622 1.392 . S
N594 Co588 2.008 . S
N594 C595 1.376 . S
N594 C598 1.374 . S
C595 N594 1.376 . S
C595 C596 1.443 . S
C595 C622 1.389 . S
C596 C595 1.443 . S
C596 C597 1.340 . S
C596 H628 0.951 . S
C597 C596 1.340 . S
C597 C598 1.439 . S
C597 H629 0.950 . S
C598 N594 1.374 . S
C598 C597 1.439 . S
C598 C623 1.395 . S
N599 Co588 1.995 . S
N599 C600 1.376 . S
N599 C603 1.383 . S
C600 N599 1.376 . S
C600 C601 1.446 . S
C600 C623 1.391 . S
C601 C600 1.446 . S
C601 C602 1.339 . S
C601 H630 0.949 . S
C602 C601 1.339 . S
C602 C603 1.439 . S
C602 H631 0.950 . S
C603 N599 1.383 . S
C603 C602 1.439 . S
C603 C621 1.392 . S
N604 Co588 2.282 . S
N604 C607 1.332 . S
N604 C609 1.332 . S
C605 C606 1.386 . S
C605 C608 1.388 . S
C606 C605 1.386 . S
C606 C607 1.382 . S
C606 H632 0.950 . S
C607 N604 1.332 . S
C607 C606 1.382 . S
C607 H618 0.952 . S
C608 C605 1.388 . S
C608 C609 1.382 . S
C608 H633 0.950 . S
C609 N604 1.332 . S
C609 C608 1.382 . S
C609 H619 0.948 . S
N610 Co588 2.282 . S
N610 C614 1.332 . S
N610 C615 1.332 1_455 S
C611 C612 1.388 . S
C611 C615 1.382 . S
C611 H634 0.950 . S
C612 C611 1.388 . S
C612 C613 1.386 . S
C613 C612 1.386 . S
C613 C614 1.382 1_655 S
C613 H635 0.950 . S
C614 N610 1.332 . S
C614 C613 1.382 1_455 S
C614 H616 0.952 . S
C615 N610 1.332 1_655 S
C615 C611 1.382 . S
C615 H617 0.948 . S
H616 C614 0.952 . S
H617 C615 0.948 . S
H618 C607 0.952 . S
H619 C609 0.948 . S
C620 C586 1.395 . S
C620 C590 1.391 . S
C621 C583 1.389 . S
C621 C603 1.392 . S
C622 C593 1.392 . S
C622 C595 1.389 . S
C623 C598 1.395 . S
C623 C600 1.391 . S
H624 C584 0.951 . S
H625 C585 0.950 . S
H626 C591 0.949 . S
H627 C592 0.950 . S
H628 C596 0.951 . S
H629 C597 0.950 . S
H630 C601 0.949 . S
H631 C602 0.950 . S
H632 C606 0.950 . S
H633 C608 0.950 . S
H634 C611 0.950 . S
H635 C613 0.950 . S
C636 C637 1.443 . S
C636 N640 1.376 . S
C636 C674 1.389 . S
C637 C636 1.443 . S
C637 C638 1.340 . S
C637 H677 0.951 . S
C638 C637 1.340 . S
C638 C639 1.439 . S
C638 H678 0.950 . S
C639 C638 1.439 . S
C639 N640 1.374 . S
C639 C673 1.395 . S
N640 C636 1.376 . S
N640 C639 1.374 . S
N640 Co641 2.008 . S
Co641 N640 2.008 . S
Co641 N642 1.995 . S
Co641 N647 2.008 . S
Co641 N652 1.995 . S
Co641 N657 2.282 . S
Co641 N663 2.282 . S
N642 Co641 1.995 . S
N642 C643 1.376 . S
N642 C646 1.383 . S
C643 N642 1.376 . S
C643 C644 1.446 . S
C643 C673 1.391 . S
C644 C643 1.446 . S
C644 C645 1.339 . S
C644 H679 0.949 . S
C645 C644 1.339 . S
C645 C646 1.439 . S
C645 H680 0.950 . S
C646 N642 1.383 . S
C646 C645 1.439 . S
C646 C675 1.392 . S
N647 Co641 2.008 . S
N647 C648 1.376 . S
N647 C651 1.374 . S
C648 N647 1.376 . S
C648 C649 1.443 . S
C648 C675 1.389 . S
C649 C648 1.443 . S
C649 C650 1.340 . S
C649 H681 0.951 . S
C650 C649 1.340 . S
C650 C651 1.439 . S
C650 H682 0.950 . S
C651 N647 1.374 . S
C651 C650 1.439 . S
C651 C676 1.395 . S
N652 Co641 1.995 . S
N652 C653 1.376 . S
N652 C656 1.383 . S
C653 N652 1.376 . S
C653 C654 1.446 . S
C653 C676 1.391 . S
C654 C653 1.446 . S
C654 C655 1.339 . S
C654 H683 0.949 . S
C655 C654 1.339 . S
C655 C656 1.439 . S
C655 H684 0.950 . S
C656 N652 1.383 . S
C656 C655 1.439 . S
C656 C674 1.392 . S
N657 Co641 2.282 . S
N657 C660 1.332 . S
N657 C662 1.332 . S
C658 C659 1.386 . S
C658 C661 1.388 . S
C659 C658 1.386 . S
C659 C660 1.382 . S
C659 H685 0.950 . S
C660 N657 1.332 . S
C660 C659 1.382 . S
C660 H671 0.952 . S
C661 C658 1.388 . S
C661 C662 1.382 . S
C661 H686 0.950 . S
C662 N657 1.332 . S
C662 C661 1.382 . S
C662 H672 0.948 . S
N663 Co641 2.282 . S
N663 C667 1.332 . S
N663 C668 1.332 . S
C664 C665 1.388 . S
C664 C668 1.382 . S
C664 H687 0.950 . S
C665 C664 1.388 . S
C665 C666 1.386 . S
C666 C665 1.386 . S
C666 C667 1.382 . S
C666 H688 0.950 . S
C667 N663 1.332 . S
C667 C666 1.382 . S
C667 H669 0.952 . S
C668 N663 1.332 . S
C668 C664 1.382 . S
C668 H670 0.948 . S
H669 C667 0.952 . S
H670 C668 0.948 . S
H671 C660 0.952 . S
H672 C662 0.948 . S
C673 C639 1.395 . S
C673 C643 1.391 . S
C674 C636 1.389 . S
C674 C656 1.392 . S
C675 C646 1.392 . S
C675 C648 1.389 . S
C676 C651 1.395 . S
C676 C653 1.391 . S
H677 C637 0.951 . S
H678 C638 0.950 . S
H679 C644 0.949 . S
H680 C645 0.950 . S
H681 C649 0.951 . S
H682 C650 0.950 . S
H683 C654 0.949 . S
H684 C655 0.950 . S
H685 C659 0.950 . S
H686 C661 0.950 . S
H687 C664 0.950 . S
H688 C666 0.950 . S
C689 C690 1.443 . S
C689 N693 1.376 . S
C689 C727 1.389 . S
C690 C689 1.443 . S
C690 C691 1.340 . S
C690 H730 0.951 . S
C691 C690 1.340 . S
C691 C692 1.439 . S
C691 H731 0.949 . S
C692 C691 1.439 . S
C692 N693 1.374 . S
C692 C726 1.395 . S
N693 C689 1.376 . S
N693 C692 1.374 . S
N693 Co694 2.008 . S
Co694 N693 2.008 . S
Co694 N695 1.995 . S
Co694 N700 2.008 . S
Co694 N705 1.995 . S
Co694 N710 2.282 . S
Co694 N716 2.282 . S
N695 Co694 1.995 . S
N695 C696 1.376 . S
N695 C699 1.383 . S
C696 N695 1.376 . S
C696 C697 1.446 . S
C696 C726 1.391 . S
C697 C696 1.446 . S
C697 C698 1.339 . S
C697 H732 0.949 . S
C698 C697 1.339 . S
C698 C699 1.439 . S
C698 H733 0.950 . S
C699 N695 1.383 . S
C699 C698 1.439 . S
C699 C728 1.392 . S
N700 Co694 2.008 . S
N700 C701 1.376 . S
N700 C704 1.374 . S
C701 N700 1.376 . S
C701 C702 1.443 . S
C701 C728 1.389 . S
C702 C701 1.443 . S
C702 C703 1.340 . S
C702 H734 0.951 . S
C703 C702 1.340 . S
C703 C704 1.439 . S
C703 H735 0.950 . S
C704 N700 1.374 . S
C704 C703 1.439 . S
C704 C729 1.395 . S
N705 Co694 1.995 . S
N705 C706 1.376 . S
N705 C709 1.383 . S
C706 N705 1.376 . S
C706 C707 1.446 . S
C706 C729 1.391 . S
C707 C706 1.446 . S
C707 C708 1.339 . S
C707 H736 0.949 . S
C708 C707 1.339 . S
C708 C709 1.439 . S
C708 H737 0.950 . S
C709 N705 1.383 . S
C709 C708 1.439 . S
C709 C727 1.392 . S
N710 Co694 2.282 . S
N710 C713 1.332 . S
N710 C715 1.332 . S
C711 C712 1.386 . S
C711 C714 1.388 . S
C712 C711 1.386 . S
C712 C713 1.382 . S
C712 H738 0.950 . S
C713 N710 1.332 . S
C713 C712 1.382 . S
C713 H724 0.952 . S
C714 C711 1.388 . S
C714 C715 1.382 . S
C714 H739 0.950 . S
C715 N710 1.332 . S
C715 C714 1.382 . S
C715 H725 0.948 . S
N716 Co694 2.282 . S
N716 C720 1.332 1_655 S
N716 C721 1.332 . S
C717 C718 1.388 . S
C717 C721 1.382 1_455 S
C717 H740 0.950 . S
C718 C717 1.388 . S
C718 C719 1.386 . S
C719 C718 1.386 . S
C719 C720 1.382 . S
C719 H741 0.950 . S
C720 N716 1.332 1_455 S
C720 C719 1.382 . S
C720 H722 0.952 . S
C721 N716 1.332 . S
C721 C717 1.382 1_655 S
C721 H723 0.948 . S
H722 C720 0.952 . S
H723 C721 0.948 . S
H724 C713 0.952 . S
H725 C715 0.948 . S
C726 C692 1.395 . S
C726 C696 1.391 . S
C727 C689 1.389 . S
C727 C709 1.392 . S
C728 C699 1.392 . S
C728 C701 1.389 . S
C729 C704 1.395 . S
C729 C706 1.391 . S
H730 C690 0.951 . S
H731 C691 0.949 . S
H732 C697 0.949 . S
H733 C698 0.950 . S
H734 C702 0.951 . S
H735 C703 0.950 . S
H736 C707 0.949 . S
H737 C708 0.950 . S
H738 C712 0.950 . S
H739 C714 0.950 . S
H740 C717 0.950 . S
H741 C719 0.950 . S
C742 C743 1.443 . S
C742 N746 1.376 . S
C742 C780 1.389 . S
C743 C742 1.443 . S
C743 C744 1.340 . S
C743 H783 0.951 . S
C744 C743 1.340 . S
C744 C745 1.439 . S
C744 H784 0.950 . S
C745 C744 1.439 . S
C745 N746 1.374 . S
C745 C779 1.395 . S
N746 C742 1.376 . S
N746 C745 1.374 . S
N746 Co747 2.008 . S
Co747 N746 2.008 . S
Co747 N748 1.995 . S
Co747 N753 2.008 . S
Co747 N758 1.995 . S
Co747 N763 2.282 . S
Co747 N769 2.282 . S
N748 Co747 1.995 . S
N748 C749 1.376 . S
N748 C752 1.383 . S
C749 N748 1.376 . S
C749 C750 1.446 . S
C749 C779 1.391 . S
C750 C749 1.446 . S
C750 C751 1.339 . S
C750 H785 0.949 . S
C751 C750 1.339 . S
C751 C752 1.439 . S
C751 H786 0.950 . S
C752 N748 1.383 . S
C752 C751 1.439 . S
C752 C781 1.392 . S
N753 Co747 2.008 . S
N753 C754 1.376 . S
N753 C757 1.374 . S
C754 N753 1.376 . S
C754 C755 1.443 . S
C754 C781 1.389 . S
C755 C754 1.443 . S
C755 C756 1.340 . S
C755 H787 0.951 . S
C756 C755 1.340 . S
C756 C757 1.439 . S
C756 H788 0.950 . S
C757 N753 1.374 . S
C757 C756 1.439 . S
C757 C782 1.395 . S
N758 Co747 1.995 . S
N758 C759 1.376 . S
N758 C762 1.383 . S
C759 N758 1.376 . S
C759 C760 1.446 . S
C759 C782 1.391 . S
C760 C759 1.446 . S
C760 C761 1.339 . S
C760 H789 0.949 . S
C761 C760 1.339 . S
C761 C762 1.439 . S
C761 H790 0.950 . S
C762 N758 1.383 . S
C762 C761 1.439 . S
C762 C780 1.392 . S
N763 Co747 2.282 . S
N763 C766 1.332 . S
N763 C768 1.332 . S
C764 C765 1.386 . S
C764 C767 1.388 . S
C765 C764 1.386 . S
C765 C766 1.382 . S
C765 H791 0.950 . S
C766 N763 1.332 . S
C766 C765 1.382 . S
C766 H777 0.952 . S
C767 C764 1.388 . S
C767 C768 1.382 . S
C767 H792 0.950 . S
C768 N763 1.332 . S
C768 C767 1.382 . S
C768 H778 0.948 . S
N769 Co747 2.282 . S
N769 C773 1.332 . S
N769 C774 1.332 . S
C770 C771 1.388 . S
C770 C774 1.382 . S
C770 H793 0.950 . S
C771 C770 1.388 . S
C771 C772 1.386 . S
C772 C771 1.386 . S
C772 C773 1.382 . S
C772 H794 0.950 . S
C773 N769 1.332 . S
C773 C772 1.382 . S
C773 H775 0.952 . S
C774 N769 1.332 . S
C774 C770 1.382 . S
C774 H776 0.948 . S
H775 C773 0.952 . S
H776 C774 0.948 . S
H777 C766 0.952 . S
H778 C768 0.948 . S
C779 C745 1.395 . S
C779 C749 1.391 . S
C780 C742 1.389 . S
C780 C762 1.392 . S
C781 C752 1.392 . S
C781 C754 1.389 . S
C782 C757 1.395 . S
C782 C759 1.391 . S
H783 C743 0.951 . S
H784 C744 0.950 . S
H785 C750 0.949 . S
H786 C751 0.950 . S
H787 C755 0.951 . S
H788 C756 0.950 . S
H789 C760 0.949 . S
H790 C761 0.950 . S
H791 C765 0.950 . S
H792 C767 0.950 . S
H793 C770 0.950 . S
H794 C772 0.950 . S
C795 C796 1.443 . S
C795 N799 1.376 . S
C795 C833 1.389 . S
C796 C795 1.443 . S
C796 C797 1.340 . S
C796 H836 0.951 . S
C797 C796 1.340 . S
C797 C798 1.439 . S
C797 H837 0.949 . S
C798 C797 1.439 . S
C798 N799 1.374 . S
C798 C832 1.395 . S
N799 C795 1.376 . S
N799 C798 1.374 . S
N799 Co800 2.008 . S
Co800 N799 2.008 . S
Co800 N801 1.995 . S
Co800 N806 2.008 . S
Co800 N811 1.995 . S
Co800 N816 2.282 . S
Co800 N822 2.282 . S
N801 Co800 1.995 . S
N801 C802 1.376 . S
N801 C805 1.383 . S
C802 N801 1.376 . S
C802 C803 1.446 . S
C802 C832 1.391 . S
C803 C802 1.446 . S
C803 C804 1.339 . S
C803 H838 0.949 . S
C804 C803 1.339 . S
C804 C805 1.439 . S
C804 H839 0.950 . S
C805 N801 1.383 . S
C805 C804 1.439 . S
C805 C834 1.392 . S
N806 Co800 2.008 . S
N806 C807 1.376 . S
N806 C810 1.374 . S
C807 N806 1.376 . S
C807 C808 1.443 . S
C807 C834 1.389 . S
C808 C807 1.443 . S
C808 C809 1.340 . S
C808 H840 0.951 . S
C809 C808 1.340 . S
C809 C810 1.439 . S
C809 H841 0.950 . S
C810 N806 1.374 . S
C810 C809 1.439 . S
C810 C835 1.395 . S
N811 Co800 1.995 . S
N811 C812 1.376 . S
N811 C815 1.383 . S
C812 N811 1.376 . S
C812 C813 1.446 . S
C812 C835 1.391 . S
C813 C812 1.446 . S
C813 C814 1.339 . S
C813 H842 0.949 . S
C814 C813 1.339 . S
C814 C815 1.439 . S
C814 H843 0.950 . S
C815 N811 1.383 . S
C815 C814 1.439 . S
C815 C833 1.392 . S
N816 Co800 2.282 . S
N816 C819 1.332 . S
N816 C821 1.332 . S
C817 C818 1.386 . S
C817 C820 1.388 . S
C818 C817 1.386 . S
C818 C819 1.382 . S
C818 H844 0.950 . S
C819 N816 1.332 . S
C819 C818 1.382 . S
C819 H830 0.952 . S
C820 C817 1.388 . S
C820 C821 1.382 . S
C820 H845 0.950 . S
C821 N816 1.332 . S
C821 C820 1.382 . S
C821 H831 0.948 . S
N822 Co800 2.282 . S
N822 C826 1.332 1_655 S
N822 C827 1.332 . S
C823 C824 1.388 . S
C823 C827 1.382 1_455 S
C823 H846 0.950 . S
C824 C823 1.388 . S
C824 C825 1.386 . S
C825 C824 1.386 . S
C825 C826 1.382 . S
C825 H847 0.950 . S
C826 N822 1.332 1_455 S
C826 C825 1.382 . S
C826 H828 0.952 . S
C827 N822 1.332 . S
C827 C823 1.382 1_655 S
C827 H829 0.948 . S
H828 C826 0.952 . S
H829 C827 0.948 . S
H830 C819 0.952 . S
H831 C821 0.948 . S
C832 C798 1.395 . S
C832 C802 1.391 . S
C833 C795 1.389 . S
C833 C815 1.392 . S
C834 C805 1.392 . S
C834 C807 1.389 . S
C835 C810 1.395 . S
C835 C812 1.391 . S
H836 C796 0.951 . S
H837 C797 0.949 . S
H838 C803 0.949 . S
H839 C804 0.950 . S
H840 C808 0.951 . S
H841 C809 0.950 . S
H842 C813 0.949 . S
H843 C814 0.950 . S
H844 C818 0.950 . S
H845 C820 0.950 . S
H846 C823 0.950 . S
H847 C825 0.950 . S
C848 C849 1.443 . S
C848 N852 1.376 . S
C848 C886 1.389 . S
C849 C848 1.443 . S
C849 C850 1.340 . S
C849 H889 0.951 . S
C850 C849 1.340 . S
C850 C851 1.439 . S
C850 H890 0.950 . S
C851 C850 1.439 . S
C851 N852 1.374 . S
C851 C885 1.395 . S
N852 C848 1.376 . S
N852 C851 1.374 . S
N852 Co853 2.008 . S
Co853 N852 2.008 . S
Co853 N854 1.995 . S
Co853 N859 2.008 . S
Co853 N864 1.995 . S
Co853 N869 2.282 . S
Co853 N875 2.282 . S
N854 Co853 1.995 . S
N854 C855 1.376 . S
N854 C858 1.383 . S
C855 N854 1.376 . S
C855 C856 1.446 . S
C855 C885 1.391 . S
C856 C855 1.446 . S
C856 C857 1.339 . S
C856 H891 0.949 . S
C857 C856 1.339 . S
C857 C858 1.439 . S
C857 H892 0.950 . S
C858 N854 1.383 . S
C858 C857 1.439 . S
C858 C887 1.392 . S
N859 Co853 2.008 . S
N859 C860 1.376 . S
N859 C863 1.374 . S
C860 N859 1.376 . S
C860 C861 1.443 . S
C860 C887 1.389 . S
C861 C860 1.443 . S
C861 C862 1.340 . S
C861 H893 0.951 . S
C862 C861 1.340 . S
C862 C863 1.439 . S
C862 H894 0.950 . S
C863 N859 1.374 . S
C863 C862 1.439 . S
C863 C888 1.395 . S
N864 Co853 1.995 . S
N864 C865 1.376 . S
N864 C868 1.383 . S
C865 N864 1.376 . S
C865 C866 1.446 . S
C865 C888 1.391 . S
C866 C865 1.446 . S
C866 C867 1.339 . S
C866 H895 0.949 . S
C867 C866 1.339 . S
C867 C868 1.439 . S
C867 H896 0.950 . S
C868 N864 1.383 . S
C868 C867 1.439 . S
C868 C886 1.392 . S
N869 Co853 2.282 . S
N869 C872 1.332 . S
N869 C874 1.332 . S
C870 C871 1.386 . S
C870 C873 1.388 . S
C871 C870 1.386 . S
C871 C872 1.382 . S
C871 H897 0.950 . S
C872 N869 1.332 . S
C872 C871 1.382 . S
C872 H883 0.952 . S
C873 C870 1.388 . S
C873 C874 1.382 . S
C873 H898 0.950 . S
C874 N869 1.332 . S
C874 C873 1.382 . S
C874 H884 0.948 . S
N875 Co853 2.282 . S
N875 C879 1.332 . S
N875 C880 1.332 . S
C876 C877 1.388 . S
C876 C880 1.382 . S
C876 H899 0.950 . S
C877 C876 1.388 . S
C877 C878 1.386 . S
C878 C877 1.386 . S
C878 C879 1.382 . S
C878 H900 0.950 . S
C879 N875 1.332 . S
C879 C878 1.382 . S
C879 H881 0.952 . S
C880 N875 1.332 . S
C880 C876 1.382 . S
C880 H882 0.948 . S
H881 C879 0.952 . S
H882 C880 0.948 . S
H883 C872 0.952 . S
H884 C874 0.948 . S
C885 C851 1.395 . S
C885 C855 1.391 . S
C886 C848 1.389 . S
C886 C868 1.392 . S
C887 C858 1.392 . S
C887 C860 1.389 . S
C888 C863 1.395 . S
C888 C865 1.391 . S
H889 C849 0.951 . S
H890 C850 0.950 . S
H891 C856 0.949 . S
H892 C857 0.950 . S
H893 C861 0.951 . S
H894 C862 0.950 . S
H895 C866 0.949 . S
H896 C867 0.950 . S
H897 C871 0.950 . S
H898 C873 0.950 . S
H899 C876 0.950 . S
H900 C878 0.950 . S
C901 C902 1.443 . S
C901 N905 1.376 . S
C901 C939 1.389 . S
C902 C901 1.443 . S
C902 C903 1.340 . S
C902 H942 0.951 . S
C903 C902 1.340 . S
C903 C904 1.439 . S
C903 H943 0.950 . S
C904 C903 1.439 . S
C904 N905 1.374 . S
C904 C938 1.395 . S
N905 C901 1.376 . S
N905 C904 1.374 . S
N905 Co906 2.008 . S
Co906 N905 2.008 . S
Co906 N907 1.995 . S
Co906 N912 2.008 . S
Co906 N917 1.995 . S
Co906 N922 2.282 . S
Co906 N928 2.282 . S
N907 Co906 1.995 . S
N907 C908 1.376 . S
N907 C911 1.383 . S
C908 N907 1.376 . S
C908 C909 1.446 . S
C908 C938 1.391 . S
C909 C908 1.446 . S
C909 C910 1.339 . S
C909 H944 0.949 . S
C910 C909 1.339 . S
C910 C911 1.439 . S
C910 H945 0.950 . S
C911 N907 1.383 . S
C911 C910 1.439 . S
C911 C940 1.392 . S
N912 Co906 2.008 . S
N912 C913 1.376 . S
N912 C916 1.374 . S
C913 N912 1.376 . S
C913 C914 1.443 . S
C913 C940 1.389 . S
C914 C913 1.443 . S
C914 C915 1.340 . S
C914 H946 0.951 . S
C915 C914 1.340 . S
C915 C916 1.439 . S
C915 H947 0.950 . S
C916 N912 1.374 . S
C916 C915 1.439 . S
C916 C941 1.395 . S
N917 Co906 1.995 . S
N917 C918 1.376 . S
N917 C921 1.383 . S
C918 N917 1.376 . S
C918 C919 1.446 . S
C918 C941 1.391 . S
C919 C918 1.446 . S
C919 C920 1.339 . S
C919 H948 0.949 . S
C920 C919 1.339 . S
C920 C921 1.439 . S
C920 H949 0.950 . S
C921 N917 1.383 . S
C921 C920 1.439 . S
C921 C939 1.392 . S
N922 Co906 2.282 . S
N922 C925 1.332 . S
N922 C927 1.332 . S
C923 C924 1.386 . S
C923 C926 1.388 . S
C924 C923 1.386 . S
C924 C925 1.382 . S
C924 H950 0.950 . S
C925 N922 1.332 . S
C925 C924 1.382 . S
C925 H936 0.952 . S
C926 C923 1.388 . S
C926 C927 1.382 . S
C926 H951 0.950 . S
C927 N922 1.332 . S
C927 C926 1.382 . S
C927 H937 0.948 . S
N928 Co906 2.282 . S
N928 C932 1.332 . S
N928 C933 1.332 . S
C929 C930 1.388 . S
C929 C933 1.382 . S
C929 H952 0.950 . S
C930 C929 1.388 . S
C930 C931 1.386 . S
C931 C930 1.386 . S
C931 C932 1.382 . S
C931 H953 0.950 . S
C932 N928 1.332 . S
C932 C931 1.382 . S
C932 H934 0.952 . S
C933 N928 1.332 . S
C933 C929 1.382 . S
C933 H935 0.948 . S
H934 C932 0.952 . S
H935 C933 0.948 . S
H936 C925 0.952 . S
H937 C927 0.948 . S
C938 C904 1.395 . S
C938 C908 1.391 . S
C939 C901 1.389 . S
C939 C921 1.392 . S
C940 C911 1.392 . S
C940 C913 1.389 . S
C941 C916 1.395 . S
C941 C918 1.391 . S
H942 C902 0.951 . S
H943 C903 0.950 . S
H944 C909 0.949 . S
H945 C910 0.950 . S
H946 C914 0.951 . S
H947 C915 0.950 . S
H948 C919 0.949 . S
H949 C920 0.950 . S
H950 C924 0.950 . S
H951 C926 0.950 . S
H952 C929 0.950 . S
H953 C931 0.950 . S
C954 C955 1.443 . S
C954 N958 1.376 . S
C954 C992 1.389 . S
C955 C954 1.443 . S
C955 C956 1.340 . S
C955 H995 0.951 . S
C956 C955 1.340 . S
C956 C957 1.439 . S
C956 H996 0.950 . S
C957 C956 1.439 . S
C957 N958 1.374 . S
C957 C991 1.395 . S
N958 C954 1.376 . S
N958 C957 1.374 . S
N958 Co959 2.008 . S
Co959 N958 2.008 . S
Co959 N960 1.995 . S
Co959 N965 2.008 . S
Co959 N970 1.995 . S
Co959 N975 2.282 . S
Co959 N981 2.282 . S
N960 Co959 1.995 . S
N960 C961 1.376 . S
N960 C964 1.383 . S
C961 N960 1.376 . S
C961 C962 1.446 . S
C961 C991 1.391 . S
C962 C961 1.446 . S
C962 C963 1.339 . S
C962 H997 0.949 . S
C963 C962 1.339 . S
C963 C964 1.439 . S
C963 H998 0.950 . S
C964 N960 1.383 . S
C964 C963 1.439 . S
C964 C993 1.392 . S
N965 Co959 2.008 . S
N965 C966 1.376 . S
N965 C969 1.374 . S
C966 N965 1.376 . S
C966 C967 1.443 . S
C966 C993 1.389 . S
C967 C966 1.443 . S
C967 C968 1.340 . S
C967 H999 0.951 . S
C968 C967 1.340 . S
C968 C969 1.439 . S
C968 H1000 0.950 . S
C969 N965 1.374 . S
C969 C968 1.439 . S
C969 C994 1.395 . S
N970 Co959 1.995 . S
N970 C971 1.376 . S
N970 C974 1.383 . S
C971 N970 1.376 . S
C971 C972 1.446 . S
C971 C994 1.391 . S
C972 C971 1.446 . S
C972 C973 1.339 . S
C972 H1001 0.949 . S
C973 C972 1.339 . S
C973 C974 1.439 . S
C973 H1002 0.950 . S
C974 N970 1.383 . S
C974 C973 1.439 . S
C974 C992 1.392 . S
N975 Co959 2.282 . S
N975 C978 1.332 . S
N975 C980 1.332 . S
C976 C977 1.386 . S
C976 C979 1.388 . S
C977 C976 1.386 . S
C977 C978 1.382 . S
C977 H1003 0.950 . S
C978 N975 1.332 . S
C978 C977 1.382 . S
C978 H989 0.952 . S
C979 C976 1.388 . S
C979 C980 1.382 . S
C979 H1004 0.950 . S
C980 N975 1.332 . S
C980 C979 1.382 . S
C980 H990 0.948 . S
N981 Co959 2.282 . S
N981 C985 1.332 . S
N981 C986 1.332 . S
C982 C983 1.388 . S
C982 C986 1.382 . S
C982 H1005 0.950 . S
C983 C982 1.388 . S
C983 C984 1.386 . S
C984 C983 1.386 . S
C984 C985 1.382 . S
C984 H1006 0.950 . S
C985 N981 1.332 . S
C985 C984 1.382 . S
C985 H987 0.952 . S
C986 N981 1.332 . S
C986 C982 1.382 . S
C986 H988 0.948 . S
H987 C985 0.952 . S
H988 C986 0.948 . S
H989 C978 0.952 . S
H990 C980 0.948 . S
C991 C957 1.395 . S
C991 C961 1.391 . S
C992 C954 1.389 . S
C992 C974 1.392 . S
C993 C964 1.392 . S
C993 C966 1.389 . S
C994 C969 1.395 . S
C994 C971 1.391 . S
H995 C955 0.951 . S
H996 C956 0.950 . S
H997 C962 0.949 . S
H998 C963 0.950 . S
H999 C967 0.951 . S
H1000 C968 0.950 . S
H1001 C972 0.949 . S
H1002 C973 0.950 . S
H1003 C977 0.950 . S
H1004 C979 0.950 . S
H1005 C982 0.950 . S
H1006 C984 0.950 . S
C1007 C1008 1.443 . S
C1007 N1011 1.376 . S
C1007 C1045 1.389 . S
C1008 C1007 1.443 . S
C1008 C1009 1.340 . S
C1008 H1048 0.951 . S
C1009 C1008 1.340 . S
C1009 C1010 1.439 . S
C1009 H1049 0.950 . S
C1010 C1009 1.439 . S
C1010 N1011 1.374 . S
C1010 C1044 1.395 . S
N1011 C1007 1.376 . S
N1011 C1010 1.374 . S
N1011 Co1012 2.008 . S
Co1012 N1011 2.008 . S
Co1012 N1013 1.995 . S
Co1012 N1018 2.008 . S
Co1012 N1023 1.995 . S
Co1012 N1028 2.282 . S
Co1012 N1034 2.282 . S
N1013 Co1012 1.995 . S
N1013 C1014 1.376 . S
N1013 C1017 1.383 . S
C1014 N1013 1.376 . S
C1014 C1015 1.446 . S
C1014 C1044 1.391 . S
C1015 C1014 1.446 . S
C1015 C1016 1.339 . S
C1015 H1050 0.949 . S
C1016 C1015 1.339 . S
C1016 C1017 1.439 . S
C1016 H1051 0.950 . S
C1017 N1013 1.383 . S
C1017 C1016 1.439 . S
C1017 C1046 1.392 . S
N1018 Co1012 2.008 . S
N1018 C1019 1.376 . S
N1018 C1022 1.374 . S
C1019 N1018 1.376 . S
C1019 C1020 1.443 . S
C1019 C1046 1.389 . S
C1020 C1019 1.443 . S
C1020 C1021 1.340 . S
C1020 H1052 0.951 . S
C1021 C1020 1.340 . S
C1021 C1022 1.439 . S
C1021 H1053 0.950 . S
C1022 N1018 1.374 . S
C1022 C1021 1.439 . S
C1022 C1047 1.395 . S
N1023 Co1012 1.995 . S
N1023 C1024 1.376 . S
N1023 C1027 1.383 . S
C1024 N1023 1.376 . S
C1024 C1025 1.446 . S
C1024 C1047 1.391 . S
C1025 C1024 1.446 . S
C1025 C1026 1.339 . S
C1025 H1054 0.949 . S
C1026 C1025 1.339 . S
C1026 C1027 1.439 . S
C1026 H1055 0.950 . S
C1027 N1023 1.383 . S
C1027 C1026 1.439 . S
C1027 C1045 1.392 . S
N1028 Co1012 2.282 . S
N1028 C1031 1.332 . S
N1028 C1033 1.332 . S
C1029 C1030 1.386 . S
C1029 C1032 1.388 . S
C1030 C1029 1.386 . S
C1030 C1031 1.382 . S
C1030 H1056 0.950 . S
C1031 N1028 1.332 . S
C1031 C1030 1.382 . S
C1031 H1042 0.952 . S
C1032 C1029 1.388 . S
C1032 C1033 1.382 . S
C1032 H1057 0.950 . S
C1033 N1028 1.332 . S
C1033 C1032 1.382 . S
C1033 H1043 0.948 . S
N1034 Co1012 2.282 . S
N1034 C1038 1.332 . S
N1034 C1039 1.332 . S
C1035 C1036 1.388 . S
C1035 C1039 1.382 . S
C1035 H1058 0.950 . S
C1036 C1035 1.388 . S
C1036 C1037 1.386 . S
C1037 C1036 1.386 . S
C1037 C1038 1.382 . S
C1037 H1059 0.950 . S
C1038 N1034 1.332 . S
C1038 C1037 1.382 . S
C1038 H1040 0.952 . S
C1039 N1034 1.332 . S
C1039 C1035 1.382 . S
C1039 H1041 0.948 . S
H1040 C1038 0.952 . S
H1041 C1039 0.948 . S
H1042 C1031 0.952 . S
H1043 C1033 0.948 . S
C1044 C1010 1.395 . S
C1044 C1014 1.391 . S
C1045 C1007 1.389 . S
C1045 C1027 1.392 . S
C1046 C1017 1.392 . S
C1046 C1019 1.389 . S
C1047 C1022 1.395 . S
C1047 C1024 1.391 . S
H1048 C1008 0.951 . S
H1049 C1009 0.950 . S
H1050 C1015 0.949 . S
H1051 C1016 0.950 . S
H1052 C1020 0.951 . S
H1053 C1021 0.950 . S
H1054 C1025 0.949 . S
H1055 C1026 0.950 . S
H1056 C1030 0.950 . S
H1057 C1032 0.950 . S
H1058 C1035 0.950 . S
H1059 C1037 0.950 . S
C1060 C1061 1.443 . S
C1060 N1064 1.376 . S
C1060 C1098 1.389 . S
C1061 C1060 1.443 . S
C1061 C1062 1.340 . S
C1061 H1101 0.951 . S
C1062 C1061 1.340 . S
C1062 C1063 1.439 . S
C1062 H1102 0.950 . S
C1063 C1062 1.439 . S
C1063 N1064 1.374 . S
C1063 C1097 1.395 . S
N1064 C1060 1.376 . S
N1064 C1063 1.374 . S
N1064 Co1065 2.008 . S
Co1065 N1064 2.008 . S
Co1065 N1066 1.995 . S
Co1065 N1071 2.008 . S
Co1065 N1076 1.995 . S
Co1065 N1081 2.282 . S
Co1065 N1087 2.282 . S
N1066 Co1065 1.995 . S
N1066 C1067 1.376 . S
N1066 C1070 1.383 . S
C1067 N1066 1.376 . S
C1067 C1068 1.446 . S
C1067 C1097 1.391 . S
C1068 C1067 1.446 . S
C1068 C1069 1.339 . S
C1068 H1103 0.949 . S
C1069 C1068 1.339 . S
C1069 C1070 1.439 . S
C1069 H1104 0.950 . S
C1070 N1066 1.383 . S
C1070 C1069 1.439 . S
C1070 C1099 1.392 . S
N1071 Co1065 2.008 . S
N1071 C1072 1.376 . S
N1071 C1075 1.374 . S
C1072 N1071 1.376 . S
C1072 C1073 1.443 . S
C1072 C1099 1.389 . S
C1073 C1072 1.443 . S
C1073 C1074 1.340 . S
C1073 H1105 0.951 . S
C1074 C1073 1.340 . S
C1074 C1075 1.439 . S
C1074 H1106 0.950 . S
C1075 N1071 1.374 . S
C1075 C1074 1.439 . S
C1075 C1100 1.395 . S
N1076 Co1065 1.995 . S
N1076 C1077 1.376 . S
N1076 C1080 1.383 . S
C1077 N1076 1.376 . S
C1077 C1078 1.446 . S
C1077 C1100 1.391 . S
C1078 C1077 1.446 . S
C1078 C1079 1.339 . S
C1078 H1107 0.949 . S
C1079 C1078 1.339 . S
C1079 C1080 1.439 . S
C1079 H1108 0.950 . S
C1080 N1076 1.383 . S
C1080 C1079 1.439 . S
C1080 C1098 1.392 . S
N1081 Co1065 2.282 . S
N1081 C1084 1.332 . S
N1081 C1086 1.332 . S
C1082 C1083 1.386 . S
C1082 C1085 1.388 . S
C1083 C1082 1.386 . S
C1083 C1084 1.382 . S
C1083 H1109 0.950 . S
C1084 N1081 1.332 . S
C1084 C1083 1.382 . S
C1084 H1095 0.952 . S
C1085 C1082 1.388 . S
C1085 C1086 1.382 . S
C1085 H1110 0.950 . S
C1086 N1081 1.332 . S
C1086 C1085 1.382 . S
C1086 H1096 0.948 . S
N1087 Co1065 2.282 . S
N1087 C1091 1.332 . S
N1087 C1092 1.332 . S
C1088 C1089 1.388 . S
C1088 C1092 1.382 . S
C1088 H1111 0.950 . S
C1089 C1088 1.388 . S
C1089 C1090 1.386 . S
C1090 C1089 1.386 . S
C1090 C1091 1.382 . S
C1090 H1112 0.950 . S
C1091 N1087 1.332 . S
C1091 C1090 1.382 . S
C1091 H1093 0.952 . S
C1092 N1087 1.332 . S
C1092 C1088 1.382 . S
C1092 H1094 0.948 . S
H1093 C1091 0.952 . S
H1094 C1092 0.948 . S
H1095 C1084 0.952 . S
H1096 C1086 0.948 . S
C1097 C1063 1.395 . S
C1097 C1067 1.391 . S
C1098 C1060 1.389 . S
C1098 C1080 1.392 . S
C1099 C1070 1.392 . S
C1099 C1072 1.389 . S
C1100 C1075 1.395 . S
C1100 C1077 1.391 . S
H1101 C1061 0.951 . S
H1102 C1062 0.950 . S
H1103 C1068 0.949 . S
H1104 C1069 0.950 . S
H1105 C1073 0.951 . S
H1106 C1074 0.950 . S
H1107 C1078 0.949 . S
H1108 C1079 0.950 . S
H1109 C1083 0.950 . S
H1110 C1085 0.950 . S
H1111 C1088 0.950 . S
H1112 C1090 0.950 . S
C1113 C1114 1.443 . S
C1113 N1117 1.376 . S
C1113 C1151 1.389 . S
C1114 C1113 1.443 . S
C1114 C1115 1.340 . S
C1114 H1154 0.951 . S
C1115 C1114 1.340 . S
C1115 C1116 1.439 . S
C1115 H1155 0.950 . S
C1116 C1115 1.439 . S
C1116 N1117 1.374 . S
C1116 C1150 1.395 . S
N1117 C1113 1.376 . S
N1117 C1116 1.374 . S
N1117 Co1118 2.008 . S
Co1118 N1117 2.008 . S
Co1118 N1119 1.995 . S
Co1118 N1124 2.008 . S
Co1118 N1129 1.995 . S
Co1118 N1134 2.282 . S
Co1118 N1140 2.282 . S
N1119 Co1118 1.995 . S
N1119 C1120 1.376 . S
N1119 C1123 1.383 . S
C1120 N1119 1.376 . S
C1120 C1121 1.446 . S
C1120 C1150 1.391 . S
C1121 C1120 1.446 . S
C1121 C1122 1.339 . S
C1121 H1156 0.949 . S
C1122 C1121 1.339 . S
C1122 C1123 1.439 . S
C1122 H1157 0.950 . S
C1123 N1119 1.383 . S
C1123 C1122 1.439 . S
C1123 C1152 1.392 . S
N1124 Co1118 2.008 . S
N1124 C1125 1.376 . S
N1124 C1128 1.374 . S
C1125 N1124 1.376 . S
C1125 C1126 1.443 . S
C1125 C1152 1.389 . S
C1126 C1125 1.443 . S
C1126 C1127 1.340 . S
C1126 H1158 0.951 . S
C1127 C1126 1.340 . S
C1127 C1128 1.439 . S
C1127 H1159 0.950 . S
C1128 N1124 1.374 . S
C1128 C1127 1.439 . S
C1128 C1153 1.395 . S
N1129 Co1118 1.995 . S
N1129 C1130 1.376 . S
N1129 C1133 1.383 . S
C1130 N1129 1.376 . S
C1130 C1131 1.446 . S
C1130 C1153 1.391 . S
C1131 C1130 1.446 . S
C1131 C1132 1.339 . S
C1131 H1160 0.949 . S
C1132 C1131 1.339 . S
C1132 C1133 1.439 . S
C1132 H1161 0.950 . S
C1133 N1129 1.383 . S
C1133 C1132 1.439 . S
C1133 C1151 1.392 . S
N1134 Co1118 2.282 . S
N1134 C1137 1.332 . S
N1134 C1139 1.332 . S
C1135 C1136 1.386 . S
C1135 C1138 1.388 . S
C1136 C1135 1.386 . S
C1136 C1137 1.382 . S
C1136 H1162 0.950 . S
C1137 N1134 1.332 . S
C1137 C1136 1.382 . S
C1137 H1148 0.952 . S
C1138 C1135 1.388 . S
C1138 C1139 1.382 . S
C1138 H1163 0.950 . S
C1139 N1134 1.332 . S
C1139 C1138 1.382 . S
C1139 H1149 0.948 . S
N1140 Co1118 2.282 . S
N1140 C1144 1.332 . S
N1140 C1145 1.332 . S
C1141 C1142 1.388 . S
C1141 C1145 1.382 . S
C1141 H1164 0.950 . S
C1142 C1141 1.388 . S
C1142 C1143 1.386 . S
C1143 C1142 1.386 . S
C1143 C1144 1.382 . S
C1143 H1165 0.950 . S
C1144 N1140 1.332 . S
C1144 C1143 1.382 . S
C1144 H1146 0.952 . S
C1145 N1140 1.332 . S
C1145 C1141 1.382 . S
C1145 H1147 0.948 . S
H1146 C1144 0.952 . S
H1147 C1145 0.948 . S
H1148 C1137 0.952 . S
H1149 C1139 0.948 . S
C1150 C1116 1.395 . S
C1150 C1120 1.391 . S
C1151 C1113 1.389 . S
C1151 C1133 1.392 . S
C1152 C1123 1.392 . S
C1152 C1125 1.389 . S
C1153 C1128 1.395 . S
C1153 C1130 1.391 . S
H1154 C1114 0.951 . S
H1155 C1115 0.950 . S
H1156 C1121 0.949 . S
H1157 C1122 0.950 . S
H1158 C1126 0.951 . S
H1159 C1127 0.950 . S
H1160 C1131 0.949 . S
H1161 C1132 0.950 . S
H1162 C1136 0.950 . S
H1163 C1138 0.950 . S
H1164 C1141 0.950 . S
H1165 C1143 0.950 . S
C1166 C1167 1.443 . S
C1166 N1170 1.376 . S
C1166 C1204 1.389 . S
C1167 C1166 1.443 . S
C1167 C1168 1.340 . S
C1167 H1207 0.951 . S
C1168 C1167 1.340 . S
C1168 C1169 1.439 . S
C1168 H1208 0.950 . S
C1169 C1168 1.439 . S
C1169 N1170 1.374 . S
C1169 C1203 1.395 . S
N1170 C1166 1.376 . S
N1170 C1169 1.374 . S
N1170 Co1171 2.008 . S
Co1171 N1170 2.008 . S
Co1171 N1172 1.995 . S
Co1171 N1177 2.008 . S
Co1171 N1182 1.995 . S
Co1171 N1187 2.282 . S
Co1171 N1193 2.282 . S
N1172 Co1171 1.995 . S
N1172 C1173 1.376 . S
N1172 C1176 1.383 . S
C1173 N1172 1.376 . S
C1173 C1174 1.446 . S
C1173 C1203 1.391 . S
C1174 C1173 1.446 . S
C1174 C1175 1.339 . S
C1174 H1209 0.949 . S
C1175 C1174 1.339 . S
C1175 C1176 1.439 . S
C1175 H1210 0.950 . S
C1176 N1172 1.383 . S
C1176 C1175 1.439 . S
C1176 C1205 1.392 . S
N1177 Co1171 2.008 . S
N1177 C1178 1.376 . S
N1177 C1181 1.374 . S
C1178 N1177 1.376 . S
C1178 C1179 1.443 . S
C1178 C1205 1.389 . S
C1179 C1178 1.443 . S
C1179 C1180 1.340 . S
C1179 H1211 0.951 . S
C1180 C1179 1.340 . S
C1180 C1181 1.439 . S
C1180 H1212 0.950 . S
C1181 N1177 1.374 . S
C1181 C1180 1.439 . S
C1181 C1206 1.395 . S
N1182 Co1171 1.995 . S
N1182 C1183 1.376 . S
N1182 C1186 1.383 . S
C1183 N1182 1.376 . S
C1183 C1184 1.446 . S
C1183 C1206 1.391 . S
C1184 C1183 1.446 . S
C1184 C1185 1.339 . S
C1184 H1213 0.949 . S
C1185 C1184 1.339 . S
C1185 C1186 1.439 . S
C1185 H1214 0.950 . S
C1186 N1182 1.383 . S
C1186 C1185 1.439 . S
C1186 C1204 1.392 . S
N1187 Co1171 2.282 . S
N1187 C1190 1.332 . S
N1187 C1192 1.332 . S
C1188 C1189 1.386 . S
C1188 C1191 1.388 . S
C1189 C1188 1.386 . S
C1189 C1190 1.382 . S
C1189 H1215 0.950 . S
C1190 N1187 1.332 . S
C1190 C1189 1.382 . S
C1190 H1201 0.952 . S
C1191 C1188 1.388 . S
C1191 C1192 1.382 . S
C1191 H1216 0.950 . S
C1192 N1187 1.332 . S
C1192 C1191 1.382 . S
C1192 H1202 0.948 . S
N1193 Co1171 2.282 . S
N1193 C1197 1.332 . S
N1193 C1198 1.332 . S
C1194 C1195 1.388 . S
C1194 C1198 1.382 . S
C1194 H1217 0.950 . S
C1195 C1194 1.388 . S
C1195 C1196 1.386 . S
C1196 C1195 1.386 . S
C1196 C1197 1.382 . S
C1196 H1218 0.950 . S
C1197 N1193 1.332 . S
C1197 C1196 1.382 . S
C1197 H1199 0.952 . S
C1198 N1193 1.332 . S
C1198 C1194 1.382 . S
C1198 H1200 0.948 . S
H1199 C1197 0.952 . S
H1200 C1198 0.948 . S
H1201 C1190 0.952 . S
H1202 C1192 0.948 . S
C1203 C1169 1.395 . S
C1203 C1173 1.391 . S
C1204 C1166 1.389 . S
C1204 C1186 1.392 . S
C1205 C1176 1.392 . S
C1205 C1178 1.389 . S
C1206 C1181 1.395 . S
C1206 C1183 1.391 . S
H1207 C1167 0.951 . S
H1208 C1168 0.950 . S
H1209 C1174 0.949 . S
H1210 C1175 0.950 . S
H1211 C1179 0.951 . S
H1212 C1180 0.950 . S
H1213 C1184 0.949 . S
H1214 C1185 0.950 . S
H1215 C1189 0.950 . S
H1216 C1191 0.950 . S
H1217 C1194 0.950 . S
H1218 C1196 0.950 . S
C1219 C1220 1.443 . S
C1219 N1223 1.376 . S
C1219 C1257 1.389 . S
C1220 C1219 1.443 . S
C1220 C1221 1.340 . S
C1220 H1260 0.951 . S
C1221 C1220 1.340 . S
C1221 C1222 1.439 . S
C1221 H1261 0.950 . S
C1222 C1221 1.439 . S
C1222 N1223 1.374 . S
C1222 C1256 1.395 . S
N1223 C1219 1.376 . S
N1223 C1222 1.374 . S
N1223 Co1224 2.008 . S
Co1224 N1223 2.008 . S
Co1224 N1225 1.995 . S
Co1224 N1230 2.008 . S
Co1224 N1235 1.995 . S
Co1224 N1240 2.282 . S
Co1224 N1246 2.282 . S
N1225 Co1224 1.995 . S
N1225 C1226 1.376 . S
N1225 C1229 1.383 . S
C1226 N1225 1.376 . S
C1226 C1227 1.446 . S
C1226 C1256 1.391 . S
C1227 C1226 1.446 . S
C1227 C1228 1.339 . S
C1227 H1262 0.949 . S
C1228 C1227 1.339 . S
C1228 C1229 1.439 . S
C1228 H1263 0.950 . S
C1229 N1225 1.383 . S
C1229 C1228 1.439 . S
C1229 C1258 1.392 . S
N1230 Co1224 2.008 . S
N1230 C1231 1.376 . S
N1230 C1234 1.374 . S
C1231 N1230 1.376 . S
C1231 C1232 1.443 . S
C1231 C1258 1.389 . S
C1232 C1231 1.443 . S
C1232 C1233 1.340 . S
C1232 H1264 0.951 . S
C1233 C1232 1.340 . S
C1233 C1234 1.439 . S
C1233 H1265 0.950 . S
C1234 N1230 1.374 . S
C1234 C1233 1.439 . S
C1234 C1259 1.395 . S
N1235 Co1224 1.995 . S
N1235 C1236 1.376 . S
N1235 C1239 1.383 . S
C1236 N1235 1.376 . S
C1236 C1237 1.446 . S
C1236 C1259 1.391 . S
C1237 C1236 1.446 . S
C1237 C1238 1.339 . S
C1237 H1266 0.949 . S
C1238 C1237 1.339 . S
C1238 C1239 1.439 . S
C1238 H1267 0.950 . S
C1239 N1235 1.383 . S
C1239 C1238 1.439 . S
C1239 C1257 1.392 . S
N1240 Co1224 2.282 . S
N1240 C1243 1.332 . S
N1240 C1245 1.332 . S
C1241 C1242 1.386 . S
C1241 C1244 1.388 . S
C1242 C1241 1.386 . S
C1242 C1243 1.382 . S
C1242 H1268 0.950 . S
C1243 N1240 1.332 . S
C1243 C1242 1.382 . S
C1243 H1254 0.952 . S
C1244 C1241 1.388 . S
C1244 C1245 1.382 . S
C1244 H1269 0.950 . S
C1245 N1240 1.332 . S
C1245 C1244 1.382 . S
C1245 H1255 0.948 . S
N1246 Co1224 2.282 . S
N1246 C1250 1.332 . S
N1246 C1251 1.332 . S
C1247 C1248 1.388 . S
C1247 C1251 1.382 . S
C1247 H1270 0.950 . S
C1248 C1247 1.388 . S
C1248 C1249 1.386 . S
C1249 C1248 1.386 . S
C1249 C1250 1.382 . S
C1249 H1271 0.950 . S
C1250 N1246 1.332 . S
C1250 C1249 1.382 . S
C1250 H1252 0.952 . S
C1251 N1246 1.332 . S
C1251 C1247 1.382 . S
C1251 H1253 0.948 . S
H1252 C1250 0.952 . S
H1253 C1251 0.948 . S
H1254 C1243 0.952 . S
H1255 C1245 0.948 . S
C1256 C1222 1.395 . S
C1256 C1226 1.391 . S
C1257 C1219 1.389 . S
C1257 C1239 1.392 . S
C1258 C1229 1.392 . S
C1258 C1231 1.389 . S
C1259 C1234 1.395 . S
C1259 C1236 1.391 . S
H1260 C1220 0.951 . S
H1261 C1221 0.950 . S
H1262 C1227 0.949 . S
H1263 C1228 0.950 . S
H1264 C1232 0.951 . S
H1265 C1233 0.950 . S
H1266 C1237 0.949 . S
H1267 C1238 0.950 . S
H1268 C1242 0.950 . S
H1269 C1244 0.950 . S
H1270 C1247 0.950 . S
H1271 C1249 0.950 . S
C1272 C1273 1.443 . S
C1272 N1276 1.376 . S
C1272 C1310 1.389 . S
C1273 C1272 1.443 . S
C1273 C1274 1.340 . S
C1273 H1313 0.951 . S
C1274 C1273 1.340 . S
C1274 C1275 1.439 . S
C1274 H1314 0.950 . S
C1275 C1274 1.439 . S
C1275 N1276 1.374 . S
C1275 C1309 1.395 . S
N1276 C1272 1.376 . S
N1276 C1275 1.374 . S
N1276 Co1277 2.008 . S
Co1277 N1276 2.008 . S
Co1277 N1278 1.995 . S
Co1277 N1283 2.008 . S
Co1277 N1288 1.995 . S
Co1277 N1293 2.282 . S
Co1277 N1299 2.282 . S
N1278 Co1277 1.995 . S
N1278 C1279 1.376 . S
N1278 C1282 1.383 . S
C1279 N1278 1.376 . S
C1279 C1280 1.446 . S
C1279 C1309 1.391 . S
C1280 C1279 1.446 . S
C1280 C1281 1.339 . S
C1280 H1315 0.949 . S
C1281 C1280 1.339 . S
C1281 C1282 1.439 . S
C1281 H1316 0.950 . S
C1282 N1278 1.383 . S
C1282 C1281 1.439 . S
C1282 C1311 1.392 . S
N1283 Co1277 2.008 . S
N1283 C1284 1.376 . S
N1283 C1287 1.374 . S
C1284 N1283 1.376 . S
C1284 C1285 1.443 . S
C1284 C1311 1.389 . S
C1285 C1284 1.443 . S
C1285 C1286 1.340 . S
C1285 H1317 0.951 . S
C1286 C1285 1.340 . S
C1286 C1287 1.439 . S
C1286 H1318 0.950 . S
C1287 N1283 1.374 . S
C1287 C1286 1.439 . S
C1287 C1312 1.395 . S
N1288 Co1277 1.995 . S
N1288 C1289 1.376 . S
N1288 C1292 1.383 . S
C1289 N1288 1.376 . S
C1289 C1290 1.446 . S
C1289 C1312 1.391 . S
C1290 C1289 1.446 . S
C1290 C1291 1.339 . S
C1290 H1319 0.949 . S
C1291 C1290 1.339 . S
C1291 C1292 1.439 . S
C1291 H1320 0.950 . S
C1292 N1288 1.383 . S
C1292 C1291 1.439 . S
C1292 C1310 1.392 . S
N1293 Co1277 2.282 . S
N1293 C1296 1.332 . S
N1293 C1298 1.332 . S
C1294 C1295 1.386 . S
C1294 C1297 1.388 . S
C1295 C1294 1.386 . S
C1295 C1296 1.382 . S
C1295 H1321 0.950 . S
C1296 N1293 1.332 . S
C1296 C1295 1.382 . S
C1296 H1307 0.952 . S
C1297 C1294 1.388 . S
C1297 C1298 1.382 . S
C1297 H1322 0.950 . S
C1298 N1293 1.332 . S
C1298 C1297 1.382 . S
C1298 H1308 0.948 . S
N1299 Co1277 2.282 . S
N1299 C1303 1.332 . S
N1299 C1304 1.332 . S
C1300 C1301 1.388 . S
C1300 C1304 1.382 . S
C1300 H1323 0.950 . S
C1301 C1300 1.388 . S
C1301 C1302 1.386 . S
C1302 C1301 1.386 . S
C1302 C1303 1.382 . S
C1302 H1324 0.950 . S
C1303 N1299 1.332 . S
C1303 C1302 1.382 . S
C1303 H1305 0.952 . S
C1304 N1299 1.332 . S
C1304 C1300 1.382 . S
C1304 H1306 0.948 . S
H1305 C1303 0.952 . S
H1306 C1304 0.948 . S
H1307 C1296 0.952 . S
H1308 C1298 0.948 . S
C1309 C1275 1.395 . S
C1309 C1279 1.391 . S
C1310 C1272 1.389 . S
C1310 C1292 1.392 . S
C1311 C1282 1.392 . S
C1311 C1284 1.389 . S
C1312 C1287 1.395 . S
C1312 C1289 1.391 . S
H1313 C1273 0.951 . S
H1314 C1274 0.950 . S
H1315 C1280 0.949 . S
H1316 C1281 0.950 . S
H1317 C1285 0.951 . S
H1318 C1286 0.950 . S
H1319 C1290 0.949 . S
H1320 C1291 0.950 . S
H1321 C1295 0.950 . S
H1322 C1297 0.950 . S
H1323 C1300 0.950 . S
H1324 C1302 0.950 . S
C1325 C1326 1.443 . S
C1325 N1329 1.376 . S
C1325 C1363 1.389 . S
C1326 C1325 1.443 . S
C1326 C1327 1.340 . S
C1326 H1366 0.951 . S
C1327 C1326 1.340 . S
C1327 C1328 1.439 . S
C1327 H1367 0.950 . S
C1328 C1327 1.439 . S
C1328 N1329 1.374 . S
C1328 C1362 1.395 . S
N1329 C1325 1.376 . S
N1329 C1328 1.374 . S
N1329 Co1330 2.008 . S
Co1330 N1329 2.008 . S
Co1330 N1331 1.995 . S
Co1330 N1336 2.008 . S
Co1330 N1341 1.995 . S
Co1330 N1346 2.282 . S
Co1330 N1352 2.282 . S
N1331 Co1330 1.995 . S
N1331 C1332 1.376 . S
N1331 C1335 1.383 . S
C1332 N1331 1.376 . S
C1332 C1333 1.446 . S
C1332 C1362 1.391 . S
C1333 C1332 1.446 . S
C1333 C1334 1.339 . S
C1333 H1368 0.949 . S
C1334 C1333 1.339 . S
C1334 C1335 1.439 . S
C1334 H1369 0.950 . S
C1335 N1331 1.383 . S
C1335 C1334 1.439 . S
C1335 C1364 1.392 . S
N1336 Co1330 2.008 . S
N1336 C1337 1.376 . S
N1336 C1340 1.374 . S
C1337 N1336 1.376 . S
C1337 C1338 1.443 . S
C1337 C1364 1.389 . S
C1338 C1337 1.443 . S
C1338 C1339 1.340 . S
C1338 H1370 0.951 . S
C1339 C1338 1.340 . S
C1339 C1340 1.439 . S
C1339 H1371 0.950 . S
C1340 N1336 1.374 . S
C1340 C1339 1.439 . S
C1340 C1365 1.395 . S
N1341 Co1330 1.995 . S
N1341 C1342 1.376 . S
N1341 C1345 1.383 . S
C1342 N1341 1.376 . S
C1342 C1343 1.446 . S
C1342 C1365 1.391 . S
C1343 C1342 1.446 . S
C1343 C1344 1.339 . S
C1343 H1372 0.949 . S
C1344 C1343 1.339 . S
C1344 C1345 1.439 . S
C1344 H1373 0.950 . S
C1345 N1341 1.383 . S
C1345 C1344 1.439 . S
C1345 C1363 1.392 . S
N1346 Co1330 2.282 . S
N1346 C1349 1.332 . S
N1346 C1351 1.332 . S
C1347 C1348 1.386 . S
C1347 C1350 1.388 . S
C1348 C1347 1.386 . S
C1348 C1349 1.382 . S
C1348 H1374 0.950 . S
C1349 N1346 1.332 . S
C1349 C1348 1.382 . S
C1349 H1360 0.952 . S
C1350 C1347 1.388 . S
C1350 C1351 1.382 . S
C1350 H1375 0.950 . S
C1351 N1346 1.332 . S
C1351 C1350 1.382 . S
C1351 H1361 0.948 . S
N1352 Co1330 2.282 . S
N1352 C1356 1.332 . S
N1352 C1357 1.332 . S
C1353 C1354 1.388 . S
C1353 C1357 1.382 . S
C1353 H1376 0.950 . S
C1354 C1353 1.388 . S
C1354 C1355 1.386 . S
C1355 C1354 1.386 . S
C1355 C1356 1.382 . S
C1355 H1377 0.950 . S
C1356 N1352 1.332 . S
C1356 C1355 1.382 . S
C1356 H1358 0.952 . S
C1357 N1352 1.332 . S
C1357 C1353 1.382 . S
C1357 H1359 0.948 . S
H1358 C1356 0.952 . S
H1359 C1357 0.948 . S
H1360 C1349 0.952 . S
H1361 C1351 0.948 . S
C1362 C1328 1.395 . S
C1362 C1332 1.391 . S
C1363 C1325 1.389 . S
C1363 C1345 1.392 . S
C1364 C1335 1.392 . S
C1364 C1337 1.389 . S
C1365 C1340 1.395 . S
C1365 C1342 1.391 . S
H1366 C1326 0.951 . S
H1367 C1327 0.950 . S
H1368 C1333 0.949 . S
H1369 C1334 0.950 . S
H1370 C1338 0.951 . S
H1371 C1339 0.950 . S
H1372 C1343 0.949 . S
H1373 C1344 0.950 . S
H1374 C1348 0.950 . S
H1375 C1350 0.950 . S
H1376 C1353 0.950 . S
H1377 C1355 0.950 . S
C1378 C1379 1.443 . S
C1378 N1382 1.376 . S
C1378 C1416 1.389 . S
C1379 C1378 1.443 . S
C1379 C1380 1.340 . S
C1379 H1419 0.951 . S
C1380 C1379 1.340 . S
C1380 C1381 1.439 . S
C1380 H1420 0.950 . S
C1381 C1380 1.439 . S
C1381 N1382 1.374 . S
C1381 C1415 1.395 1_556 S
N1382 C1378 1.376 . S
N1382 C1381 1.374 . S
N1382 Co1383 2.008 . S
Co1383 N1382 2.008 . S
Co1383 N1384 1.995 1_556 S
Co1383 N1389 2.008 1_556 S
Co1383 N1394 1.995 . S
Co1383 N1399 2.282 . S
Co1383 N1405 2.282 . S
N1384 Co1383 1.995 1_554 S
N1384 C1385 1.376 . S
N1384 C1388 1.383 . S
C1385 N1384 1.376 . S
C1385 C1386 1.446 . S
C1385 C1415 1.391 . S
C1386 C1385 1.446 . S
C1386 C1387 1.339 . S
C1386 H1421 0.949 . S
C1387 C1386 1.339 . S
C1387 C1388 1.439 . S
C1387 H1422 0.950 . S
C1388 N1384 1.383 . S
C1388 C1387 1.439 . S
C1388 C1417 1.392 . S
N1389 Co1383 2.008 1_554 S
N1389 C1390 1.376 . S
N1389 C1393 1.374 . S
C1390 N1389 1.376 . S
C1390 C1391 1.443 . S
C1390 C1417 1.389 . S
C1391 C1390 1.443 . S
C1391 C1392 1.340 . S
C1391 H1423 0.951 . S
C1392 C1391 1.340 . S
C1392 C1393 1.439 . S
C1392 H1424 0.950 . S
C1393 N1389 1.374 . S
C1393 C1392 1.439 . S
C1393 C1418 1.395 1_554 S
N1394 Co1383 1.995 . S
N1394 C1395 1.376 . S
N1394 C1398 1.383 . S
C1395 N1394 1.376 . S
C1395 C1396 1.446 . S
C1395 C1418 1.391 . S
C1396 C1395 1.446 . S
C1396 C1397 1.339 . S
C1396 H1425 0.949 . S
C1397 C1396 1.339 . S
C1397 C1398 1.439 . S
C1397 H1426 0.950 . S
C1398 N1394 1.383 . S
C1398 C1397 1.439 . S
C1398 C1416 1.392 . S
N1399 Co1383 2.282 . S
N1399 C1402 1.332 . S
N1399 C1404 1.332 1_556 S
C1400 C1401 1.386 . S
C1400 C1403 1.388 1_556 S
C1401 C1400 1.386 . S
C1401 C1402 1.382 . S
C1401 H1427 0.950 . S
C1402 N1399 1.332 . S
C1402 C1401 1.382 . S
C1402 H1413 0.952 . S
C1403 C1400 1.388 1_554 S
C1403 C1404 1.382 . S
C1403 H1428 0.950 . S
C1404 N1399 1.332 1_554 S
C1404 C1403 1.382 . S
C1404 H1414 0.948 . S
N1405 Co1383 2.282 . S
N1405 C1409 1.332 1_556 S
N1405 C1410 1.332 . S
C1406 C1407 1.388 . S
C1406 C1410 1.382 . S
C1406 H1429 0.950 . S
C1407 C1406 1.388 . S
C1407 C1408 1.386 1_556 S
C1408 C1407 1.386 1_554 S
C1408 C1409 1.382 . S
C1408 H1430 0.950 . S
C1409 N1405 1.332 1_554 S
C1409 C1408 1.382 . S
C1409 H1411 0.952 . S
C1410 N1405 1.332 . S
C1410 C1406 1.382 . S
C1410 H1412 0.948 . S
H1411 C1409 0.952 . S
H1412 C1410 0.948 . S
H1413 C1402 0.952 . S
H1414 C1404 0.948 . S
C1415 C1381 1.395 1_554 S
C1415 C1385 1.391 . S
C1416 C1378 1.389 . S
C1416 C1398 1.392 . S
C1417 C1388 1.392 . S
C1417 C1390 1.389 . S
C1418 C1393 1.395 1_556 S
C1418 C1395 1.391 . S
H1419 C1379 0.951 . S
H1420 C1380 0.950 . S
H1421 C1386 0.949 . S
H1422 C1387 0.950 . S
H1423 C1391 0.951 . S
H1424 C1392 0.950 . S
H1425 C1396 0.949 . S
H1426 C1397 0.950 . S
H1427 C1401 0.950 . S
H1428 C1403 0.950 . S
H1429 C1406 0.950 . S
H1430 C1408 0.950 . S
C1431 C1432 1.443 . S
C1431 N1435 1.376 . S
C1431 C1469 1.389 . S
C1432 C1431 1.443 . S
C1432 C1433 1.340 . S
C1432 H1472 0.951 . S
C1433 C1432 1.340 . S
C1433 C1434 1.439 . S
C1433 H1473 0.950 . S
C1434 C1433 1.439 . S
C1434 N1435 1.374 . S
C1434 C1468 1.395 1_556 S
N1435 C1431 1.376 . S
N1435 C1434 1.374 . S
N1435 Co1436 2.008 . S
Co1436 N1435 2.008 . S
Co1436 N1437 1.995 1_556 S
Co1436 N1442 2.008 1_556 S
Co1436 N1447 1.995 . S
Co1436 N1452 2.282 . S
Co1436 N1458 2.282 . S
N1437 Co1436 1.995 1_554 S
N1437 C1438 1.376 . S
N1437 C1441 1.383 . S
C1438 N1437 1.376 . S
C1438 C1439 1.446 . S
C1438 C1468 1.391 . S
C1439 C1438 1.446 . S
C1439 C1440 1.339 . S
C1439 H1474 0.949 . S
C1440 C1439 1.339 . S
C1440 C1441 1.439 . S
C1440 H1475 0.950 . S
C1441 N1437 1.383 . S
C1441 C1440 1.439 . S
C1441 C1470 1.392 . S
N1442 Co1436 2.008 1_554 S
N1442 C1443 1.376 . S
N1442 C1446 1.374 . S
C1443 N1442 1.376 . S
C1443 C1444 1.443 . S
C1443 C1470 1.389 . S
C1444 C1443 1.443 . S
C1444 C1445 1.340 . S
C1444 H1476 0.951 . S
C1445 C1444 1.340 . S
C1445 C1446 1.439 . S
C1445 H1477 0.950 . S
C1446 N1442 1.374 . S
C1446 C1445 1.439 . S
C1446 C1471 1.395 1_554 S
N1447 Co1436 1.995 . S
N1447 C1448 1.376 . S
N1447 C1451 1.383 . S
C1448 N1447 1.376 . S
C1448 C1449 1.446 . S
C1448 C1471 1.391 . S
C1449 C1448 1.446 . S
C1449 C1450 1.339 . S
C1449 H1478 0.949 . S
C1450 C1449 1.339 . S
C1450 C1451 1.439 . S
C1450 H1479 0.950 . S
C1451 N1447 1.383 . S
C1451 C1450 1.439 . S
C1451 C1469 1.392 . S
N1452 Co1436 2.282 . S
N1452 C1455 1.332 . S
N1452 C1457 1.332 1_556 S
C1453 C1454 1.386 . S
C1453 C1456 1.388 1_556 S
C1454 C1453 1.386 . S
C1454 C1455 1.382 . S
C1454 H1480 0.950 . S
C1455 N1452 1.332 . S
C1455 C1454 1.382 . S
C1455 H1466 0.952 . S
C1456 C1453 1.388 1_554 S
C1456 C1457 1.382 . S
C1456 H1481 0.950 . S
C1457 N1452 1.332 1_554 S
C1457 C1456 1.382 . S
C1457 H1467 0.948 . S
N1458 Co1436 2.282 . S
N1458 C1462 1.332 1_556 S
N1458 C1463 1.332 . S
C1459 C1460 1.388 . S
C1459 C1463 1.382 . S
C1459 H1482 0.950 . S
C1460 C1459 1.388 . S
C1460 C1461 1.386 1_556 S
C1461 C1460 1.386 1_554 S
C1461 C1462 1.382 . S
C1461 H1483 0.950 . S
C1462 N1458 1.332 1_554 S
C1462 C1461 1.382 . S
C1462 H1464 0.952 . S
C1463 N1458 1.332 . S
C1463 C1459 1.382 . S
C1463 H1465 0.948 . S
H1464 C1462 0.952 . S
H1465 C1463 0.948 . S
H1466 C1455 0.952 . S
H1467 C1457 0.948 . S
C1468 C1434 1.395 1_554 S
C1468 C1438 1.391 . S
C1469 C1431 1.389 . S
C1469 C1451 1.392 . S
C1470 C1441 1.392 . S
C1470 C1443 1.389 . S
C1471 C1446 1.395 1_556 S
C1471 C1448 1.391 . S
H1472 C1432 0.951 . S
H1473 C1433 0.950 . S
H1474 C1439 0.949 . S
H1475 C1440 0.950 . S
H1476 C1444 0.951 . S
H1477 C1445 0.950 . S
H1478 C1449 0.949 . S
H1479 C1450 0.950 . S
H1480 C1454 0.950 . S
H1481 C1456 0.950 . S
H1482 C1459 0.950 . S
H1483 C1461 0.950 . S
C1484 C1485 1.443 . S
C1484 N1488 1.376 . S
C1484 C1522 1.389 . S
C1485 C1484 1.443 . S
C1485 C1486 1.340 . S
C1485 H1525 0.951 . S
C1486 C1485 1.340 . S
C1486 C1487 1.439 . S
C1486 H1526 0.950 . S
C1487 C1486 1.439 . S
C1487 N1488 1.374 . S
C1487 C1521 1.395 . S
N1488 C1484 1.376 . S
N1488 C1487 1.374 . S
N1488 Co1489 2.008 . S
Co1489 N1488 2.008 . S
Co1489 N1490 1.995 . S
Co1489 N1495 2.008 . S
Co1489 N1500 1.995 . S
Co1489 N1505 2.282 . S
Co1489 N1511 2.282 . S
N1490 Co1489 1.995 . S
N1490 C1491 1.376 . S
N1490 C1494 1.383 . S
C1491 N1490 1.376 . S
C1491 C1492 1.446 . S
C1491 C1521 1.391 . S
C1492 C1491 1.446 . S
C1492 C1493 1.339 . S
C1492 H1527 0.949 . S
C1493 C1492 1.339 . S
C1493 C1494 1.439 . S
C1493 H1528 0.950 . S
C1494 N1490 1.383 . S
C1494 C1493 1.439 . S
C1494 C1523 1.392 . S
N1495 Co1489 2.008 . S
N1495 C1496 1.376 . S
N1495 C1499 1.374 . S
C1496 N1495 1.376 . S
C1496 C1497 1.443 . S
C1496 C1523 1.389 . S
C1497 C1496 1.443 . S
C1497 C1498 1.340 . S
C1497 H1529 0.951 . S
C1498 C1497 1.340 . S
C1498 C1499 1.439 . S
C1498 H1530 0.950 . S
C1499 N1495 1.374 . S
C1499 C1498 1.439 . S
C1499 C1524 1.395 . S
N1500 Co1489 1.995 . S
N1500 C1501 1.376 . S
N1500 C1504 1.383 . S
C1501 N1500 1.376 . S
C1501 C1502 1.446 . S
C1501 C1524 1.391 . S
C1502 C1501 1.446 . S
C1502 C1503 1.339 . S
C1502 H1531 0.949 . S
C1503 C1502 1.339 . S
C1503 C1504 1.439 . S
C1503 H1532 0.950 . S
C1504 N1500 1.383 . S
C1504 C1503 1.439 . S
C1504 C1522 1.392 . S
N1505 Co1489 2.282 . S
N1505 C1508 1.332 . S
N1505 C1510 1.332 . S
C1506 C1507 1.386 . S
C1506 C1509 1.388 . S
C1507 C1506 1.386 . S
C1507 C1508 1.382 . S
C1507 H1533 0.950 . S
C1508 N1505 1.332 . S
C1508 C1507 1.382 . S
C1508 H1519 0.952 . S
C1509 C1506 1.388 . S
C1509 C1510 1.382 . S
C1509 H1534 0.950 . S
C1510 N1505 1.332 . S
C1510 C1509 1.382 . S
C1510 H1520 0.948 . S
N1511 Co1489 2.282 . S
N1511 C1515 1.332 . S
N1511 C1516 1.332 . S
C1512 C1513 1.388 . S
C1512 C1516 1.382 . S
C1512 H1535 0.950 . S
C1513 C1512 1.388 . S
C1513 C1514 1.386 . S
C1514 C1513 1.386 . S
C1514 C1515 1.382 . S
C1514 H1536 0.950 . S
C1515 N1511 1.332 . S
C1515 C1514 1.382 . S
C1515 H1517 0.952 . S
C1516 N1511 1.332 . S
C1516 C1512 1.382 . S
C1516 H1518 0.948 . S
H1517 C1515 0.952 . S
H1518 C1516 0.948 . S
H1519 C1508 0.952 . S
H1520 C1510 0.948 . S
C1521 C1487 1.395 . S
C1521 C1491 1.391 . S
C1522 C1484 1.389 . S
C1522 C1504 1.392 . S
C1523 C1494 1.392 . S
C1523 C1496 1.389 . S
C1524 C1499 1.395 . S
C1524 C1501 1.391 . S
H1525 C1485 0.951 . S
H1526 C1486 0.950 . S
H1527 C1492 0.949 . S
H1528 C1493 0.950 . S
H1529 C1497 0.951 . S
H1530 C1498 0.950 . S
H1531 C1502 0.949 . S
H1532 C1503 0.950 . S
H1533 C1507 0.950 . S
H1534 C1509 0.950 . S
H1535 C1512 0.950 . S
H1536 C1514 0.950 . S
C1537 C1538 1.443 . S
C1537 N1541 1.376 . S
C1537 C1575 1.389 . S
C1538 C1537 1.443 . S
C1538 C1539 1.340 . S
C1538 H1578 0.951 . S
C1539 C1538 1.340 . S
C1539 C1540 1.439 . S
C1539 H1579 0.950 . S
C1540 C1539 1.439 . S
C1540 N1541 1.374 . S
C1540 C1574 1.395 . S
N1541 C1537 1.376 . S
N1541 C1540 1.374 . S
N1541 Co1542 2.008 . S
Co1542 N1541 2.008 . S
Co1542 N1543 1.995 . S
Co1542 N1548 2.008 . S
Co1542 N1553 1.995 . S
Co1542 N1558 2.282 . S
Co1542 N1564 2.282 . S
N1543 Co1542 1.995 . S
N1543 C1544 1.376 . S
N1543 C1547 1.383 . S
C1544 N1543 1.376 . S
C1544 C1545 1.446 . S
C1544 C1574 1.391 . S
C1545 C1544 1.446 . S
C1545 C1546 1.339 . S
C1545 H1580 0.949 . S
C1546 C1545 1.339 . S
C1546 C1547 1.439 . S
C1546 H1581 0.950 . S
C1547 N1543 1.383 . S
C1547 C1546 1.439 . S
C1547 C1576 1.392 . S
N1548 Co1542 2.008 . S
N1548 C1549 1.376 . S
N1548 C1552 1.374 . S
C1549 N1548 1.376 . S
C1549 C1550 1.443 . S
C1549 C1576 1.389 . S
C1550 C1549 1.443 . S
C1550 C1551 1.340 . S
C1550 H1582 0.951 . S
C1551 C1550 1.340 . S
C1551 C1552 1.439 . S
C1551 H1583 0.950 . S
C1552 N1548 1.374 . S
C1552 C1551 1.439 . S
C1552 C1577 1.395 . S
N1553 Co1542 1.995 . S
N1553 C1554 1.376 . S
N1553 C1557 1.383 . S
C1554 N1553 1.376 . S
C1554 C1555 1.446 . S
C1554 C1577 1.391 . S
C1555 C1554 1.446 . S
C1555 C1556 1.339 . S
C1555 H1584 0.949 . S
C1556 C1555 1.339 . S
C1556 C1557 1.439 . S
C1556 H1585 0.950 . S
C1557 N1553 1.383 . S
C1557 C1556 1.439 . S
C1557 C1575 1.392 . S
N1558 Co1542 2.282 . S
N1558 C1561 1.332 . S
N1558 C1563 1.332 . S
C1559 C1560 1.386 . S
C1559 C1562 1.388 . S
C1560 C1559 1.386 . S
C1560 C1561 1.382 . S
C1560 H1586 0.950 . S
C1561 N1558 1.332 . S
C1561 C1560 1.382 . S
C1561 H1572 0.952 . S
C1562 C1559 1.388 . S
C1562 C1563 1.382 . S
C1562 H1587 0.950 . S
C1563 N1558 1.332 . S
C1563 C1562 1.382 . S
C1563 H1573 0.948 . S
N1564 Co1542 2.282 . S
N1564 C1568 1.332 . S
N1564 C1569 1.332 . S
C1565 C1566 1.388 . S
C1565 C1569 1.382 . S
C1565 H1588 0.950 . S
C1566 C1565 1.388 . S
C1566 C1567 1.386 . S
C1567 C1566 1.386 . S
C1567 C1568 1.382 . S
C1567 H1589 0.950 . S
C1568 N1564 1.332 . S
C1568 C1567 1.382 . S
C1568 H1570 0.952 . S
C1569 N1564 1.332 . S
C1569 C1565 1.382 . S
C1569 H1571 0.948 . S
H1570 C1568 0.952 . S
H1571 C1569 0.948 . S
H1572 C1561 0.952 . S
H1573 C1563 0.948 . S
C1574 C1540 1.395 . S
C1574 C1544 1.391 . S
C1575 C1537 1.389 . S
C1575 C1557 1.392 . S
C1576 C1547 1.392 . S
C1576 C1549 1.389 . S
C1577 C1552 1.395 . S
C1577 C1554 1.391 . S
H1578 C1538 0.951 . S
H1579 C1539 0.950 . S
H1580 C1545 0.949 . S
H1581 C1546 0.950 . S
H1582 C1550 0.951 . S
H1583 C1551 0.950 . S
H1584 C1555 0.949 . S
H1585 C1556 0.950 . S
H1586 C1560 0.950 . S
H1587 C1562 0.950 . S
H1588 C1565 0.950 . S
H1589 C1567 0.950 . S
C1590 C1591 1.443 . S
C1590 N1594 1.376 . S
C1590 C1628 1.389 . S
C1591 C1590 1.443 . S
C1591 C1592 1.340 . S
C1591 H1631 0.951 . S
C1592 C1591 1.340 . S
C1592 C1593 1.439 . S
C1592 H1632 0.950 . S
C1593 C1592 1.439 . S
C1593 N1594 1.374 . S
C1593 C1627 1.395 . S
N1594 C1590 1.376 . S
N1594 C1593 1.374 . S
N1594 Co1595 2.008 . S
Co1595 N1594 2.008 . S
Co1595 N1596 1.995 1_554 S
Co1595 N1601 2.008 1_554 S
Co1595 N1606 1.995 . S
Co1595 N1611 2.282 . S
Co1595 N1617 2.282 . S
N1596 Co1595 1.995 1_556 S
N1596 C1597 1.376 . S
N1596 C1600 1.383 . S
C1597 N1596 1.376 . S
C1597 C1598 1.446 . S
C1597 C1627 1.391 1_556 S
C1598 C1597 1.446 . S
C1598 C1599 1.339 . S
C1598 H1633 0.949 . S
C1599 C1598 1.339 . S
C1599 C1600 1.439 . S
C1599 H1634 0.950 . S
C1600 N1596 1.383 . S
C1600 C1599 1.439 . S
C1600 C1629 1.392 . S
N1601 Co1595 2.008 1_556 S
N1601 C1602 1.376 . S
N1601 C1605 1.374 . S
C1602 N1601 1.376 . S
C1602 C1603 1.443 . S
C1602 C1629 1.389 . S
C1603 C1602 1.443 . S
C1603 C1604 1.340 . S
C1603 H1635 0.951 . S
C1604 C1603 1.340 . S
C1604 C1605 1.439 . S
C1604 H1636 0.950 . S
C1605 N1601 1.374 . S
C1605 C1604 1.439 . S
C1605 C1630 1.395 . S
N1606 Co1595 1.995 . S
N1606 C1607 1.376 . S
N1606 C1610 1.383 . S
C1607 N1606 1.376 . S
C1607 C1608 1.446 . S
C1607 C1630 1.391 1_554 S
C1608 C1607 1.446 . S
C1608 C1609 1.339 . S
C1608 H1637 0.949 . S
C1609 C1608 1.339 . S
C1609 C1610 1.439 . S
C1609 H1638 0.950 . S
C1610 N1606 1.383 . S
C1610 C1609 1.439 . S
C1610 C1628 1.392 . S
N1611 Co1595 2.282 . S
N1611 C1614 1.332 . S
N1611 C1616 1.332 . S
C1612 C1613 1.386 . S
C1612 C1615 1.388 . S
C1613 C1612 1.386 . S
C1613 C1614 1.382 . S
C1613 H1639 0.950 . S
C1614 N1611 1.332 . S
C1614 C1613 1.382 . S
C1614 H1625 0.952 . S
C1615 C1612 1.388 . S
C1615 C1616 1.382 . S
C1615 H1640 0.953 . S
C1616 N1611 1.332 . S
C1616 C1615 1.382 . S
C1616 H1626 0.948 . S
N1617 Co1595 2.282 . S
N1617 C1621 1.334 . S
N1617 C1622 1.332 . S
C1618 C1619 1.388 . S
C1618 C1622 1.382 . S
C1618 H1641 0.950 . S
C1619 C1618 1.388 . S
C1619 C1620 1.386 . S
C1620 C1619 1.386 . S
C1620 C1621 1.386 . S
C1620 H1642 0.950 . S
C1621 N1617 1.334 . S
C1621 C1620 1.386 . S
C1621 H1623 0.946 1_554 S
C1622 N1617 1.332 . S
C1622 C1618 1.382 . S
C1622 H1624 0.948 . S
H1623 C1621 0.946 1_556 S
H1624 C1622 0.948 . S
H1625 C1614 0.952 . S
H1626 C1616 0.948 . S
C1627 C1593 1.395 . S
C1627 C1597 1.391 1_554 S
C1628 C1590 1.389 . S
C1628 C1610 1.392 . S
C1629 C1600 1.392 . S
C1629 C1602 1.389 . S
C1630 C1605 1.395 . S
C1630 C1607 1.391 1_556 S
H1631 C1591 0.951 . S
H1632 C1592 0.950 . S
H1633 C1598 0.949 . S
H1634 C1599 0.950 . S
H1635 C1603 0.951 . S
H1636 C1604 0.950 . S
H1637 C1608 0.949 . S
H1638 C1609 0.950 . S
H1639 C1613 0.950 . S
H1640 C1615 0.953 . S
H1641 C1618 0.950 . S
H1642 C1620 0.950 . S
C1643 C1644 1.443 . S
C1643 N1647 1.376 . S
C1643 C1681 1.389 . S
C1644 C1643 1.443 . S
C1644 C1645 1.340 . S
C1644 H1684 0.951 . S
C1645 C1644 1.340 . S
C1645 C1646 1.439 . S
C1645 H1685 0.950 . S
C1646 C1645 1.439 . S
C1646 N1647 1.374 . S
C1646 C1680 1.395 . S
N1647 C1643 1.376 . S
N1647 C1646 1.374 . S
N1647 Co1648 2.008 . S
Co1648 N1647 2.008 . S
Co1648 N1649 1.995 1_554 S
Co1648 N1654 2.008 1_554 S
Co1648 N1659 1.995 . S
Co1648 N1664 2.282 . S
Co1648 N1670 2.282 . S
N1649 Co1648 1.995 1_556 S
N1649 C1650 1.376 . S
N1649 C1653 1.383 . S
C1650 N1649 1.376 . S
C1650 C1651 1.446 . S
C1650 C1680 1.391 1_556 S
C1651 C1650 1.446 . S
C1651 C1652 1.339 . S
C1651 H1686 0.949 . S
C1652 C1651 1.339 . S
C1652 C1653 1.439 . S
C1652 H1687 0.950 . S
C1653 N1649 1.383 . S
C1653 C1652 1.439 . S
C1653 C1682 1.392 . S
N1654 Co1648 2.008 1_556 S
N1654 C1655 1.376 . S
N1654 C1658 1.374 . S
C1655 N1654 1.376 . S
C1655 C1656 1.443 . S
C1655 C1682 1.389 . S
C1656 C1655 1.443 . S
C1656 C1657 1.340 . S
C1656 H1688 0.951 . S
C1657 C1656 1.340 . S
C1657 C1658 1.439 . S
C1657 H1689 0.950 . S
C1658 N1654 1.374 . S
C1658 C1657 1.439 . S
C1658 C1683 1.395 . S
N1659 Co1648 1.995 . S
N1659 C1660 1.376 . S
N1659 C1663 1.383 . S
C1660 N1659 1.376 . S
C1660 C1661 1.446 . S
C1660 C1683 1.391 1_554 S
C1661 C1660 1.446 . S
C1661 C1662 1.339 . S
C1661 H1690 0.949 . S
C1662 C1661 1.339 . S
C1662 C1663 1.439 . S
C1662 H1691 0.950 . S
C1663 N1659 1.383 . S
C1663 C1662 1.439 . S
C1663 C1681 1.392 . S
N1664 Co1648 2.282 . S
N1664 C1667 1.332 . S
N1664 C1669 1.332 . S
C1665 C1666 1.386 . S
C1665 C1668 1.388 . S
C1666 C1665 1.386 . S
C1666 C1667 1.382 . S
C1666 H1692 0.950 . S
C1667 N1664 1.332 . S
C1667 C1666 1.382 . S
C1667 H1678 0.952 . S
C1668 C1665 1.388 . S
C1668 C1669 1.382 . S
C1668 H1693 0.953 . S
C1669 N1664 1.332 . S
C1669 C1668 1.382 . S
C1669 H1679 0.948 . S
N1670 Co1648 2.282 . S
N1670 C1674 1.334 . S
N1670 C1675 1.332 . S
C1671 C1672 1.388 . S
C1671 C1675 1.382 . S
C1671 H1694 0.950 . S
C1672 C1671 1.388 . S
C1672 C1673 1.386 . S
C1673 C1672 1.386 . S
C1673 C1674 1.386 . S
C1673 H1695 0.950 . S
C1674 N1670 1.334 . S
C1674 C1673 1.386 . S
C1674 H1676 0.946 1_554 S
C1675 N1670 1.332 . S
C1675 C1671 1.382 . S
C1675 H1677 0.948 . S
H1676 C1674 0.946 1_556 S
H1677 C1675 0.948 . S
H1678 C1667 0.952 . S
H1679 C1669 0.948 . S
C1680 C1646 1.395 . S
C1680 C1650 1.391 1_554 S
C1681 C1643 1.389 . S
C1681 C1663 1.392 . S
C1682 C1653 1.392 . S
C1682 C1655 1.389 . S
C1683 C1658 1.395 . S
C1683 C1660 1.391 1_556 S
H1684 C1644 0.951 . S
H1685 C1645 0.950 . S
H1686 C1651 0.949 . S
H1687 C1652 0.950 . S
H1688 C1656 0.951 . S
H1689 C1657 0.950 . S
H1690 C1661 0.949 . S
H1691 C1662 0.950 . S
H1692 C1666 0.950 . S
H1693 C1668 0.953 . S
H1694 C1671 0.950 . S
H1695 C1673 0.950 . S
H1696 C1702 0.930 . S
H1697 C1705 0.930 . S
H1698 C1706 0.930 . S
H1699 C1707 0.930 . S
H1700 C1710 0.930 . S
H1701 C1711 0.930 . S
C1702 H1696 0.930 . S
C1702 C1703 1.355 . S
C1702 C1704 1.415 . S
C1703 C1702 1.355 . S
C1703 C1705 1.419 . S
C1704 C1702 1.415 . S
C1704 C1709 1.425 . S
C1704 C1711 1.409 . S
C1705 H1697 0.930 . S
C1705 C1703 1.419 . S
C1705 C1706 1.362 . S
C1706 H1698 0.930 . S
C1706 C1705 1.362 . S
C1706 C1709 1.409 . S
C1707 H1699 0.930 . S
C1707 C1708 1.355 . S
C1707 C1709 1.415 . S
C1708 C1707 1.355 . S
C1708 C1710 1.419 . S
C1709 C1704 1.425 . S
C1709 C1706 1.409 . S
C1709 C1707 1.415 . S
C1710 H1700 0.930 . S
C1710 C1708 1.419 . S
C1710 C1711 1.362 . S
C1711 H1701 0.930 . S
C1711 C1704 1.409 . S
C1711 C1710 1.362 . S
H1712 C1718 0.930 . S
H1713 C1721 0.930 . S
H1714 C1722 0.930 . S
H1715 C1723 0.930 . S
H1716 C1726 0.930 . S
H1717 C1727 0.930 . S
C1718 H1712 0.930 . S
C1718 C1719 1.355 . S
C1718 C1720 1.415 . S
C1719 C1718 1.355 . S
C1719 C1721 1.419 . S
C1720 C1718 1.415 . S
C1720 C1725 1.425 . S
C1720 C1727 1.409 . S
C1721 H1713 0.930 . S
C1721 C1719 1.419 . S
C1721 C1722 1.362 . S
C1722 H1714 0.930 . S
C1722 C1721 1.362 . S
C1722 C1725 1.409 . S
C1723 H1715 0.930 . S
C1723 C1724 1.355 . S
C1723 C1725 1.415 . S
C1724 C1723 1.355 . S
C1724 C1726 1.419 . S
C1725 C1720 1.425 . S
C1725 C1722 1.409 . S
C1725 C1723 1.415 . S
C1726 H1716 0.930 . S
C1726 C1724 1.419 . S
C1726 C1727 1.362 . S
C1727 H1717 0.930 . S
C1727 C1720 1.409 . S
C1727 C1726 1.362 . S
H1728 C1734 0.930 . S
H1729 C1737 0.930 . S
H1730 C1738 0.930 . S
H1731 C1739 0.930 . S
H1732 C1742 0.930 . S
H1733 C1743 0.930 . S
C1734 H1728 0.930 . S
C1734 C1735 1.355 . S
C1734 C1736 1.415 . S
C1735 C1734 1.355 . S
C1735 C1737 1.419 . S
C1736 C1734 1.415 . S
C1736 C1741 1.425 . S
C1736 C1743 1.409 . S
C1737 H1729 0.930 . S
C1737 C1735 1.419 . S
C1737 C1738 1.362 . S
C1738 H1730 0.930 . S
C1738 C1737 1.362 . S
C1738 C1741 1.409 . S
C1739 H1731 0.930 . S
C1739 C1740 1.355 . S
C1739 C1741 1.415 . S
C1740 C1739 1.355 . S
C1740 C1742 1.419 . S
C1741 C1736 1.425 . S
C1741 C1738 1.409 . S
C1741 C1739 1.415 . S
C1742 H1732 0.930 . S
C1742 C1740 1.419 . S
C1742 C1743 1.362 . S
C1743 H1733 0.930 . S
C1743 C1736 1.409 . S
C1743 C1742 1.362 . S
H1744 C1750 0.930 . S
H1745 C1753 0.930 . S
H1746 C1754 0.930 . S
H1747 C1755 0.930 . S
H1748 C1758 0.930 . S
H1749 C1759 0.930 . S
C1750 H1744 0.930 . S
C1750 C1751 1.355 . S
C1750 C1752 1.415 . S
C1751 C1750 1.355 . S
C1751 C1753 1.419 . S
C1752 C1750 1.415 . S
C1752 C1757 1.425 . S
C1752 C1759 1.409 . S
C1753 H1745 0.930 . S
C1753 C1751 1.419 . S
C1753 C1754 1.362 . S
C1754 H1746 0.930 . S
C1754 C1753 1.362 . S
C1754 C1757 1.409 . S
C1755 H1747 0.930 . S
C1755 C1756 1.355 . S
C1755 C1757 1.415 . S
C1756 C1755 1.355 . S
C1756 C1758 1.419 . S
C1757 C1752 1.425 . S
C1757 C1754 1.409 . S
C1757 C1755 1.415 . S
C1758 H1748 0.930 . S
C1758 C1756 1.419 . S
C1758 C1759 1.362 . S
C1759 H1749 0.930 . S
C1759 C1752 1.409 . S
C1759 C1758 1.362 . S
H1760 C1766 0.930 . S
H1761 C1769 0.930 . S
H1762 C1770 0.930 . S
H1763 C1771 0.930 . S
H1764 C1774 0.930 . S
H1765 C1775 0.930 . S
C1766 H1760 0.930 . S
C1766 C1767 1.355 . S
C1766 C1768 1.415 . S
C1767 C1766 1.355 . S
C1767 C1769 1.419 . S
C1768 C1766 1.415 . S
C1768 C1773 1.425 . S
C1768 C1775 1.409 . S
C1769 H1761 0.930 . S
C1769 C1767 1.419 . S
C1769 C1770 1.362 . S
C1770 H1762 0.930 . S
C1770 C1769 1.362 . S
C1770 C1773 1.409 . S
C1771 H1763 0.930 . S
C1771 C1772 1.355 . S
C1771 C1773 1.415 . S
C1772 C1771 1.355 . S
C1772 C1774 1.419 . S
C1773 C1768 1.425 . S
C1773 C1770 1.409 . S
C1773 C1771 1.415 . S
C1774 H1764 0.930 . S
C1774 C1772 1.419 . S
C1774 C1775 1.362 . S
C1775 H1765 0.930 . S
C1775 C1768 1.409 . S
C1775 C1774 1.362 . S
H1776 C1782 0.930 . S
H1777 C1785 0.930 . S
H1778 C1786 0.930 . S
H1779 C1787 0.930 . S
H1780 C1790 0.930 . S
H1781 C1791 0.930 . S
C1782 H1776 0.930 . S
C1782 C1783 1.355 . S
C1782 C1784 1.415 . S
C1783 C1782 1.355 . S
C1783 C1785 1.419 . S
C1784 C1782 1.415 . S
C1784 C1789 1.425 . S
C1784 C1791 1.409 . S
C1785 H1777 0.930 . S
C1785 C1783 1.419 . S
C1785 C1786 1.362 . S
C1786 H1778 0.930 . S
C1786 C1785 1.362 . S
C1786 C1789 1.409 . S
C1787 H1779 0.930 . S
C1787 C1788 1.355 . S
C1787 C1789 1.415 . S
C1788 C1787 1.355 . S
C1788 C1790 1.419 . S
C1789 C1784 1.425 . S
C1789 C1786 1.409 . S
C1789 C1787 1.415 . S
C1790 H1780 0.930 . S
C1790 C1788 1.419 . S
C1790 C1791 1.362 . S
C1791 H1781 0.930 . S
C1791 C1784 1.409 . S
C1791 C1790 1.362 . S
H1792 C1798 0.930 . S
H1793 C1801 0.930 . S
H1794 C1802 0.930 . S
H1795 C1803 0.930 . S
H1796 C1806 0.930 . S
H1797 C1807 0.930 . S
C1798 H1792 0.930 . S
C1798 C1799 1.355 . S
C1798 C1800 1.415 . S
C1799 C1798 1.355 . S
C1799 C1801 1.419 . S
C1800 C1798 1.415 . S
C1800 C1805 1.425 . S
C1800 C1807 1.409 . S
C1801 H1793 0.930 . S
C1801 C1799 1.419 . S
C1801 C1802 1.362 . S
C1802 H1794 0.930 . S
C1802 C1801 1.362 . S
C1802 C1805 1.409 . S
C1803 H1795 0.930 . S
C1803 C1804 1.355 . S
C1803 C1805 1.415 . S
C1804 C1803 1.355 . S
C1804 C1806 1.419 . S
C1805 C1800 1.425 . S
C1805 C1802 1.409 . S
C1805 C1803 1.415 . S
C1806 H1796 0.930 . S
C1806 C1804 1.419 . S
C1806 C1807 1.362 . S
C1807 H1797 0.930 . S
C1807 C1800 1.409 . S
C1807 C1806 1.362 . S
H1808 C1814 0.930 . S
H1809 C1817 0.930 . S
H1810 C1818 0.930 . S
H1811 C1819 0.930 . S
H1812 C1822 0.930 . S
H1813 C1823 0.930 . S
C1814 H1808 0.930 . S
C1814 C1815 1.355 . S
C1814 C1816 1.415 . S
C1815 C1814 1.355 . S
C1815 C1817 1.419 . S
C1816 C1814 1.415 . S
C1816 C1821 1.425 . S
C1816 C1823 1.409 . S
C1817 H1809 0.930 . S
C1817 C1815 1.419 . S
C1817 C1818 1.362 . S
C1818 H1810 0.930 . S
C1818 C1817 1.362 . S
C1818 C1821 1.409 . S
C1819 H1811 0.930 . S
C1819 C1820 1.355 . S
C1819 C1821 1.415 . S
C1820 C1819 1.355 . S
C1820 C1822 1.419 . S
C1821 C1816 1.425 . S
C1821 C1818 1.409 . S
C1821 C1819 1.415 . S
C1822 H1812 0.930 . S
C1822 C1820 1.419 . S
C1822 C1823 1.362 . S
C1823 H1813 0.930 . S
C1823 C1816 1.409 . S
C1823 C1822 1.362 . S
H1824 C1830 0.930 . S
H1825 C1833 0.930 . S
H1826 C1834 0.930 . S
H1827 C1835 0.930 . S
H1828 C1838 0.930 . S
H1829 C1839 0.930 . S
C1830 H1824 0.930 . S
C1830 C1831 1.355 . S
C1830 C1832 1.415 . S
C1831 C1830 1.355 . S
C1831 C1833 1.419 . S
C1832 C1830 1.415 . S
C1832 C1837 1.425 . S
C1832 C1839 1.409 . S
C1833 H1825 0.930 . S
C1833 C1831 1.419 . S
C1833 C1834 1.362 . S
C1834 H1826 0.930 . S
C1834 C1833 1.362 . S
C1834 C1837 1.409 . S
C1835 H1827 0.930 . S
C1835 C1836 1.355 . S
C1835 C1837 1.415 . S
C1836 C1835 1.355 . S
C1836 C1838 1.419 . S
C1837 C1832 1.425 . S
C1837 C1834 1.409 . S
C1837 C1835 1.415 . S
C1838 H1828 0.930 . S
C1838 C1836 1.419 . S
C1838 C1839 1.362 . S
C1839 H1829 0.930 . S
C1839 C1832 1.409 . S
C1839 C1838 1.362 . S
H1840 C1846 0.930 . S
H1841 C1849 0.930 . S
H1842 C1850 0.930 . S
H1843 C1851 0.930 . S
H1844 C1854 0.930 . S
H1845 C1855 0.930 . S
C1846 H1840 0.930 . S
C1846 C1847 1.355 . S
C1846 C1848 1.415 . S
C1847 C1846 1.355 . S
C1847 C1849 1.419 . S
C1848 C1846 1.415 . S
C1848 C1853 1.425 . S
C1848 C1855 1.409 . S
C1849 H1841 0.930 . S
C1849 C1847 1.419 . S
C1849 C1850 1.362 . S
C1850 H1842 0.930 . S
C1850 C1849 1.362 . S
C1850 C1853 1.409 . S
C1851 H1843 0.930 . S
C1851 C1852 1.355 . S
C1851 C1853 1.415 . S
C1852 C1851 1.355 . S
C1852 C1854 1.419 . S
C1853 C1848 1.425 . S
C1853 C1850 1.409 . S
C1853 C1851 1.415 . S
C1854 H1844 0.930 . S
C1854 C1852 1.419 . S
C1854 C1855 1.362 . S
C1855 H1845 0.930 . S
C1855 C1848 1.409 . S
C1855 C1854 1.362 . S
H1856 C1862 0.930 . S
H1857 C1865 0.930 . S
H1858 C1866 0.930 . S
H1859 C1867 0.930 . S
H1860 C1870 0.930 . S
H1861 C1871 0.930 . S
C1862 H1856 0.930 . S
C1862 C1863 1.355 . S
C1862 C1864 1.415 . S
C1863 C1862 1.355 . S
C1863 C1865 1.419 . S
C1864 C1862 1.415 . S
C1864 C1869 1.425 . S
C1864 C1871 1.409 . S
C1865 H1857 0.930 . S
C1865 C1863 1.419 . S
C1865 C1866 1.362 . S
C1866 H1858 0.930 . S
C1866 C1865 1.362 . S
C1866 C1869 1.409 . S
C1867 H1859 0.930 . S
C1867 C1868 1.355 . S
C1867 C1869 1.415 . S
C1868 C1867 1.355 . S
C1868 C1870 1.419 . S
C1869 C1864 1.425 . S
C1869 C1866 1.409 . S
C1869 C1867 1.415 . S
C1870 H1860 0.930 . S
C1870 C1868 1.419 . S
C1870 C1871 1.362 . S
C1871 H1861 0.930 . S
C1871 C1864 1.409 . S
C1871 C1870 1.362 . S
H1872 C1878 0.930 . S
H1873 C1881 0.930 . S
H1874 C1882 0.930 . S
H1875 C1883 0.930 . S
H1876 C1886 0.930 . S
H1877 C1887 0.930 . S
C1878 H1872 0.930 . S
C1878 C1879 1.355 . S
C1878 C1880 1.415 . S
C1879 C1878 1.355 . S
C1879 C1881 1.419 . S
C1880 C1878 1.415 . S
C1880 C1885 1.425 . S
C1880 C1887 1.409 . S
C1881 H1873 0.930 . S
C1881 C1879 1.419 . S
C1881 C1882 1.362 . S
C1882 H1874 0.930 . S
C1882 C1881 1.362 . S
C1882 C1885 1.409 . S
C1883 H1875 0.930 . S
C1883 C1884 1.355 . S
C1883 C1885 1.415 . S
C1884 C1883 1.355 . S
C1884 C1886 1.419 . S
C1885 C1880 1.425 . S
C1885 C1882 1.409 . S
C1885 C1883 1.415 . S
C1886 H1876 0.930 . S
C1886 C1884 1.419 . S
C1886 C1887 1.362 . S
C1887 H1877 0.930 . S
C1887 C1880 1.409 . S
C1887 C1886 1.362 . S
H1888 C1894 0.930 . S
H1889 C1897 0.930 . S
H1890 C1898 0.930 . S
H1891 C1899 0.930 . S
H1892 C1902 0.930 . S
H1893 C1903 0.930 . S
C1894 H1888 0.930 . S
C1894 C1895 1.355 . S
C1894 C1896 1.415 . S
C1895 C1894 1.355 . S
C1895 C1897 1.419 . S
C1896 C1894 1.415 . S
C1896 C1901 1.425 . S
C1896 C1903 1.409 . S
C1897 H1889 0.930 . S
C1897 C1895 1.419 . S
C1897 C1898 1.362 . S
C1898 H1890 0.930 . S
C1898 C1897 1.362 . S
C1898 C1901 1.409 . S
C1899 H1891 0.930 . S
C1899 C1900 1.355 . S
C1899 C1901 1.415 . S
C1900 C1899 1.355 . S
C1900 C1902 1.419 . S
C1901 C1896 1.425 . S
C1901 C1898 1.409 . S
C1901 C1899 1.415 . S
C1902 H1892 0.930 . S
C1902 C1900 1.419 . S
C1902 C1903 1.362 . S
C1903 H1893 0.930 . S
C1903 C1896 1.409 . S
C1903 C1902 1.362 . S
H1904 C1910 0.930 . S
H1905 C1913 0.930 . S
H1906 C1914 0.930 . S
H1907 C1915 0.930 . S
H1908 C1918 0.930 . S
H1909 C1919 0.930 . S
C1910 H1904 0.930 . S
C1910 C1911 1.355 . S
C1910 C1912 1.415 . S
C1911 C1910 1.355 . S
C1911 C1913 1.419 . S
C1912 C1910 1.415 . S
C1912 C1917 1.425 . S
C1912 C1919 1.409 . S
C1913 H1905 0.930 . S
C1913 C1911 1.419 . S
C1913 C1914 1.362 . S
C1914 H1906 0.930 . S
C1914 C1913 1.362 . S
C1914 C1917 1.409 . S
C1915 H1907 0.930 . S
C1915 C1916 1.355 . S
C1915 C1917 1.415 . S
C1916 C1915 1.355 . S
C1916 C1918 1.419 . S
C1917 C1912 1.425 . S
C1917 C1914 1.409 . S
C1917 C1915 1.415 . S
C1918 H1908 0.930 . S
C1918 C1916 1.419 . S
C1918 C1919 1.362 . S
C1919 H1909 0.930 . S
C1919 C1912 1.409 . S
C1919 C1918 1.362 . S
H1920 C1926 0.930 . S
H1921 C1929 0.930 . S
H1922 C1930 0.930 . S
H1923 C1931 0.930 . S
H1924 C1934 0.930 . S
H1925 C1935 0.930 . S
C1926 H1920 0.930 . S
C1926 C1927 1.355 . S
C1926 C1928 1.415 . S
C1927 C1926 1.355 . S
C1927 C1929 1.419 . S
C1928 C1926 1.415 . S
C1928 C1933 1.425 . S
C1928 C1935 1.409 . S
C1929 H1921 0.930 . S
C1929 C1927 1.419 . S
C1929 C1930 1.362 . S
C1930 H1922 0.930 . S
C1930 C1929 1.362 . S
C1930 C1933 1.409 . S
C1931 H1923 0.930 . S
C1931 C1932 1.355 . S
C1931 C1933 1.415 . S
C1932 C1931 1.355 . S
C1932 C1934 1.419 . S
C1933 C1928 1.425 . S
C1933 C1930 1.409 . S
C1933 C1931 1.415 . S
C1934 H1924 0.930 . S
C1934 C1932 1.419 . S
C1934 C1935 1.362 . S
C1935 H1925 0.930 . S
C1935 C1928 1.409 . S
C1935 C1934 1.362 . S
H1936 C1942 0.930 . S
H1937 C1945 0.930 . S
H1938 C1946 0.930 . S
H1939 C1947 0.930 . S
H1940 C1950 0.930 . S
H1941 C1951 0.930 . S
C1942 H1936 0.930 . S
C1942 C1943 1.355 . S
C1942 C1944 1.415 . S
C1943 C1942 1.355 . S
C1943 C1945 1.419 . S
C1944 C1942 1.415 . S
C1944 C1949 1.425 . S
C1944 C1951 1.409 . S
C1945 H1937 0.930 . S
C1945 C1943 1.419 . S
C1945 C1946 1.362 . S
C1946 H1938 0.930 . S
C1946 C1945 1.362 . S
C1946 C1949 1.409 . S
C1947 H1939 0.930 . S
C1947 C1948 1.355 . S
C1947 C1949 1.415 . S
C1948 C1947 1.355 . S
C1948 C1950 1.419 . S
C1949 C1944 1.425 . S
C1949 C1946 1.409 . S
C1949 C1947 1.415 . S
C1950 H1940 0.930 . S
C1950 C1948 1.419 . S
C1950 C1951 1.362 . S
C1951 H1941 0.930 . S
C1951 C1944 1.409 . S
C1951 C1950 1.362 . S
H1952 C1958 0.930 . S
H1953 C1961 0.930 . S
H1954 C1962 0.930 . S
H1955 C1963 0.930 . S
H1956 C1966 0.930 . S
H1957 C1967 0.930 . S
C1958 H1952 0.930 . S
C1958 C1959 1.355 . S
C1958 C1960 1.415 1_655 S
C1959 C1958 1.355 . S
C1959 C1961 1.419 . S
C1960 C1958 1.415 1_455 S
C1960 C1965 1.425 1_455 S
C1960 C1967 1.409 . S
C1961 H1953 0.930 . S
C1961 C1959 1.419 . S
C1961 C1962 1.362 . S
C1962 H1954 0.930 . S
C1962 C1961 1.362 . S
C1962 C1965 1.409 . S
C1963 H1955 0.930 . S
C1963 C1964 1.355 . S
C1963 C1965 1.415 1_455 S
C1964 C1963 1.355 . S
C1964 C1966 1.419 . S
C1965 C1960 1.425 1_655 S
C1965 C1962 1.409 . S
C1965 C1963 1.415 1_655 S
C1966 H1956 0.930 . S
C1966 C1964 1.419 . S
C1966 C1967 1.362 . S
C1967 H1957 0.930 . S
C1967 C1960 1.409 . S
C1967 C1966 1.362 . S
H1968 C1974 0.930 1_545 S
H1969 C1977 0.930 . S
H1970 C1978 0.930 . S
H1971 C1979 0.930 1_565 S
H1972 C1982 0.930 . S
H1973 C1983 0.930 . S
C1974 H1968 0.930 1_565 S
C1974 C1975 1.355 . S
C1974 C1976 1.415 1_565 S
C1975 C1974 1.355 . S
C1975 C1977 1.419 . S
C1976 C1974 1.415 1_545 S
C1976 C1981 1.425 1_545 S
C1976 C1983 1.409 . S
C1977 H1969 0.930 . S
C1977 C1975 1.419 . S
C1977 C1978 1.362 . S
C1978 H1970 0.930 . S
C1978 C1977 1.362 . S
C1978 C1981 1.409 . S
C1979 H1971 0.930 1_545 S
C1979 C1980 1.355 . S
C1979 C1981 1.415 1_545 S
C1980 C1979 1.355 . S
C1980 C1982 1.419 . S
C1981 C1976 1.425 1_565 S
C1981 C1978 1.409 . S
C1981 C1979 1.415 1_565 S
C1982 H1972 0.930 . S
C1982 C1980 1.419 . S
C1982 C1983 1.362 . S
C1983 H1973 0.930 . S
C1983 C1976 1.409 . S
C1983 C1982 1.362 . S
H1984 C1990 0.930 . S
H1985 C1993 0.927 1_545 S
H1986 C1994 0.930 1_554 S
H1987 C1995 0.930 . S
H1988 C1998 0.927 1_565 S
H1989 C1999 0.930 1_556 S
C1990 H1984 0.930 . S
C1990 C1991 1.355 . S
C1990 C1992 1.418 1_455 S
C1991 C1990 1.355 . S
C1991 C1993 1.419 . S
C1992 C1990 1.418 1_655 S
C1992 C1997 1.423 1_666 S
C1992 C1999 1.408 1_556 S
C1993 H1985 0.927 1_565 S
C1993 C1991 1.419 . S
C1993 C1994 1.363 1_565 S
C1994 H1986 0.930 1_556 S
C1994 C1993 1.363 1_545 S
C1994 C1997 1.408 1_556 S
C1995 H1987 0.930 . S
C1995 C1996 1.355 . S
C1995 C1997 1.418 1_655 S
C1996 C1995 1.355 . S
C1996 C1998 1.419 . S
C1997 C1992 1.423 1_444 S
C1997 C1994 1.408 1_554 S
C1997 C1995 1.418 1_455 S
C1998 H1988 0.927 1_545 S
C1998 C1996 1.419 . S
C1998 C1999 1.363 1_545 S
C1999 H1989 0.930 1_554 S
C1999 C1992 1.408 1_554 S
C1999 C1998 1.363 1_565 S
H2000 C2006 0.930 . S
H2001 C2009 0.931 . S
H2002 C2010 0.930 . S
H2003 C2011 0.930 . S
H2004 C2014 0.931 . S
H2005 C2015 0.930 . S
C2006 H2000 0.930 . S
C2006 C2007 1.355 . S
C2006 C2008 1.415 . S
C2007 C2006 1.355 . S
C2007 C2009 1.417 1_554 S
C2008 C2006 1.415 . S
C2008 C2013 1.425 1_554 S
C2008 C2015 1.409 . S
C2009 H2001 0.931 . S
C2009 C2007 1.417 1_556 S
C2009 C2010 1.364 . S
C2010 H2002 0.930 . S
C2010 C2009 1.364 . S
C2010 C2013 1.409 . S
C2011 H2003 0.930 . S
C2011 C2012 1.355 . S
C2011 C2013 1.415 . S
C2012 C2011 1.355 . S
C2012 C2014 1.417 1_556 S
C2013 C2008 1.425 1_556 S
C2013 C2010 1.409 . S
C2013 C2011 1.415 . S
C2014 H2004 0.931 . S
C2014 C2012 1.417 1_554 S
C2014 C2015 1.364 . S
C2015 H2005 0.930 . S
C2015 C2008 1.409 . S
C2015 C2014 1.364 . S
H2016 C2022 0.930 . S
H2017 C2025 0.930 . S
H2018 C2026 0.930 . S
H2019 C2027 0.930 . S
H2020 C2030 0.930 . S
H2021 C2031 0.930 . S
C2022 H2016 0.930 . S
C2022 C2023 1.355 . S
C2022 C2024 1.415 . S
C2023 C2022 1.355 . S
C2023 C2025 1.419 . S
C2024 C2022 1.415 . S
C2024 C2029 1.425 1_655 S
C2024 C2031 1.409 . S
C2025 H2017 0.930 . S
C2025 C2023 1.419 . S
C2025 C2026 1.362 1_655 S
C2026 H2018 0.930 . S
C2026 C2025 1.362 1_455 S
C2026 C2029 1.409 . S
C2027 H2019 0.930 . S
C2027 C2028 1.355 . S
C2027 C2029 1.415 . S
C2028 C2027 1.355 . S
C2028 C2030 1.419 . S
C2029 C2024 1.425 1_455 S
C2029 C2026 1.409 . S
C2029 C2027 1.415 . S
C2030 H2020 0.930 . S
C2030 C2028 1.419 . S
C2030 C2031 1.362 1_455 S
C2031 H2021 0.930 . S
C2031 C2024 1.409 . S
C2031 C2030 1.362 1_655 S
H2032 C2038 0.930 . S
H2033 C2041 0.927 1_545 S
H2034 C2042 0.930 . S
H2035 C2043 0.930 . S
H2036 C2046 0.927 1_565 S
H2037 C2047 0.930 . S
C2038 H2032 0.930 . S
C2038 C2039 1.355 . S
C2038 C2040 1.415 . S
C2039 C2038 1.355 . S
C2039 C2041 1.419 . S
C2040 C2038 1.415 . S
C2040 C2045 1.425 1_565 S
C2040 C2047 1.409 . S
C2041 H2033 0.927 1_565 S
C2041 C2039 1.419 . S
C2041 C2042 1.362 1_565 S
C2042 H2034 0.930 . S
C2042 C2041 1.362 1_545 S
C2042 C2045 1.409 . S
C2043 H2035 0.930 . S
C2043 C2044 1.355 . S
C2043 C2045 1.415 . S
C2044 C2043 1.355 . S
C2044 C2046 1.419 . S
C2045 C2040 1.425 1_545 S
C2045 C2042 1.409 . S
C2045 C2043 1.415 . S
C2046 H2036 0.927 1_545 S
C2046 C2044 1.419 . S
C2046 C2047 1.362 1_545 S
C2047 H2037 0.930 . S
C2047 C2040 1.409 . S
C2047 C2046 1.362 1_565 S
H2048 C2054 0.930 . S
H2049 C2057 0.930 . S
H2050 C2058 0.930 . S
H2051 C2059 0.930 . S
H2052 C2062 0.930 . S
H2053 C2063 0.930 . S
C2054 H2048 0.930 . S
C2054 C2055 1.355 1_554 S
C2054 C2056 1.415 . S
C2055 C2054 1.355 1_556 S
C2055 C2057 1.419 . S
C2056 C2054 1.415 . S
C2056 C2061 1.425 1_554 S
C2056 C2063 1.409 . S
C2057 H2049 0.930 . S
C2057 C2055 1.419 . S
C2057 C2058 1.362 . S
C2058 H2050 0.930 . S
C2058 C2057 1.362 . S
C2058 C2061 1.409 . S
C2059 H2051 0.930 . S
C2059 C2060 1.355 1_556 S
C2059 C2061 1.415 . S
C2060 C2059 1.355 1_554 S
C2060 C2062 1.419 . S
C2061 C2056 1.425 1_556 S
C2061 C2058 1.409 . S
C2061 C2059 1.415 . S
C2062 H2052 0.930 . S
C2062 C2060 1.419 . S
C2062 C2063 1.362 . S
C2063 H2053 0.930 . S
C2063 C2056 1.409 . S
C2063 C2062 1.362 . S
H2064 C2070 0.930 . S
H2065 C2073 0.930 . S
H2066 C2074 0.930 . S
H2067 C2075 0.930 . S
H2068 C2078 0.930 . S
H2069 C2079 0.930 . S
C2070 H2064 0.930 . S
C2070 C2071 1.355 . S
C2070 C2072 1.415 . S
C2071 C2070 1.355 . S
C2071 C2073 1.419 . S
C2072 C2070 1.415 . S
C2072 C2077 1.425 . S
C2072 C2079 1.409 . S
C2073 H2065 0.930 . S
C2073 C2071 1.419 . S
C2073 C2074 1.362 . S
C2074 H2066 0.930 . S
C2074 C2073 1.362 . S
C2074 C2077 1.409 . S
C2075 H2067 0.930 . S
C2075 C2076 1.355 . S
C2075 C2077 1.415 . S
C2076 C2075 1.355 . S
C2076 C2078 1.419 . S
C2077 C2072 1.425 . S
C2077 C2074 1.409 . S
C2077 C2075 1.415 . S
C2078 H2068 0.930 . S
C2078 C2076 1.419 . S
C2078 C2079 1.362 . S
C2079 H2069 0.930 . S
C2079 C2072 1.409 . S
C2079 C2078 1.362 . S
H2080 C2086 0.930 . S
H2081 C2089 0.930 . S
H2082 C2090 0.930 . S
H2083 C2091 0.930 . S
H2084 C2094 0.930 . S
H2085 C2095 0.930 . S
C2086 H2080 0.930 . S
C2086 C2087 1.355 . S
C2086 C2088 1.415 . S
C2087 C2086 1.355 . S
C2087 C2089 1.419 . S
C2088 C2086 1.415 . S
C2088 C2093 1.425 1_655 S
C2088 C2095 1.409 . S
C2089 H2081 0.930 . S
C2089 C2087 1.419 . S
C2089 C2090 1.362 1_655 S
C2090 H2082 0.930 . S
C2090 C2089 1.362 1_455 S
C2090 C2093 1.409 . S
C2091 H2083 0.930 . S
C2091 C2092 1.355 . S
C2091 C2093 1.415 . S
C2092 C2091 1.355 . S
C2092 C2094 1.419 . S
C2093 C2088 1.425 1_455 S
C2093 C2090 1.409 . S
C2093 C2091 1.415 . S
C2094 H2084 0.930 . S
C2094 C2092 1.419 . S
C2094 C2095 1.362 1_455 S
C2095 H2085 0.930 . S
C2095 C2088 1.409 . S
C2095 C2094 1.362 1_655 S
H2096 C2102 0.930 . S
H2097 C2105 0.930 . S
H2098 C2106 0.930 . S
H2099 C2107 0.930 . S
H2100 C2110 0.930 . S
H2101 C2111 0.930 . S
C2102 H2096 0.930 . S
C2102 C2103 1.355 . S
C2102 C2104 1.415 . S
C2103 C2102 1.355 . S
C2103 C2105 1.419 . S
C2104 C2102 1.415 . S
C2104 C2109 1.425 . S
C2104 C2111 1.409 . S
C2105 H2097 0.930 . S
C2105 C2103 1.419 . S
C2105 C2106 1.362 . S
C2106 H2098 0.930 . S
C2106 C2105 1.362 . S
C2106 C2109 1.409 . S
C2107 H2099 0.930 . S
C2107 C2108 1.355 . S
C2107 C2109 1.415 . S
C2108 C2107 1.355 . S
C2108 C2110 1.419 . S
C2109 C2104 1.425 . S
C2109 C2106 1.409 . S
C2109 C2107 1.415 . S
C2110 H2100 0.930 . S
C2110 C2108 1.419 . S
C2110 C2111 1.362 . S
C2111 H2101 0.930 . S
C2111 C2104 1.409 . S
C2111 C2110 1.362 . S
H2112 C2118 0.930 . S
H2113 C2121 0.930 . S
H2114 C2122 0.930 . S
H2115 C2123 0.930 . S
H2116 C2126 0.930 . S
H2117 C2127 0.930 . S
C2118 H2112 0.930 . S
C2118 C2119 1.355 . S
C2118 C2120 1.415 . S
C2119 C2118 1.355 . S
C2119 C2121 1.419 . S
C2120 C2118 1.415 . S
C2120 C2125 1.425 . S
C2120 C2127 1.409 . S
C2121 H2113 0.930 . S
C2121 C2119 1.419 . S
C2121 C2122 1.362 . S
C2122 H2114 0.930 . S
C2122 C2121 1.362 . S
C2122 C2125 1.409 . S
C2123 H2115 0.930 . S
C2123 C2124 1.355 . S
C2123 C2125 1.415 . S
C2124 C2123 1.355 . S
C2124 C2126 1.419 . S
C2125 C2120 1.425 . S
C2125 C2122 1.409 . S
C2125 C2123 1.415 . S
C2126 H2116 0.930 . S
C2126 C2124 1.419 . S
C2126 C2127 1.362 . S
C2127 H2117 0.930 . S
C2127 C2120 1.409 . S
C2127 C2126 1.362 . S
H2128 C2134 0.930 . S
H2129 C2137 0.930 . S
H2130 C2138 0.930 . S
H2131 C2139 0.930 . S
H2132 C2142 0.930 . S
H2133 C2143 0.930 . S
C2134 H2128 0.930 . S
C2134 C2135 1.355 . S
C2134 C2136 1.415 . S
C2135 C2134 1.355 . S
C2135 C2137 1.419 . S
C2136 C2134 1.415 . S
C2136 C2141 1.425 . S
C2136 C2143 1.409 . S
C2137 H2129 0.930 . S
C2137 C2135 1.419 . S
C2137 C2138 1.362 . S
C2138 H2130 0.930 . S
C2138 C2137 1.362 . S
C2138 C2141 1.409 . S
C2139 H2131 0.930 . S
C2139 C2140 1.355 . S
C2139 C2141 1.415 . S
C2140 C2139 1.355 . S
C2140 C2142 1.419 . S
C2141 C2136 1.425 . S
C2141 C2138 1.409 . S
C2141 C2139 1.415 . S
C2142 H2132 0.930 . S
C2142 C2140 1.419 . S
C2142 C2143 1.362 . S
C2143 H2133 0.930 . S
C2143 C2136 1.409 . S
C2143 C2142 1.362 . S
H2144 C2150 0.930 . S
H2145 C2153 0.930 . S
H2146 C2154 0.930 . S
H2147 C2155 0.930 . S
H2148 C2158 0.930 . S
H2149 C2159 0.930 . S
C2150 H2144 0.930 . S
C2150 C2151 1.355 . S
C2150 C2152 1.415 . S
C2151 C2150 1.355 . S
C2151 C2153 1.419 . S
C2152 C2150 1.415 . S
C2152 C2157 1.425 . S
C2152 C2159 1.409 . S
C2153 H2145 0.930 . S
C2153 C2151 1.419 . S
C2153 C2154 1.362 . S
C2154 H2146 0.930 . S
C2154 C2153 1.362 . S
C2154 C2157 1.409 . S
C2155 H2147 0.930 . S
C2155 C2156 1.355 . S
C2155 C2157 1.415 . S
C2156 C2155 1.355 . S
C2156 C2158 1.419 . S
C2157 C2152 1.425 . S
C2157 C2154 1.409 . S
C2157 C2155 1.415 . S
C2158 H2148 0.930 . S
C2158 C2156 1.419 . S
C2158 C2159 1.362 . S
C2159 H2149 0.930 . S
C2159 C2152 1.409 . S
C2159 C2158 1.362 . S
H2160 C2166 0.930 . S
H2161 C2169 0.928 1_565 S
H2162 C2170 0.930 . S
H2163 C2171 0.930 . S
H2164 C2174 0.928 1_545 S
H2165 C2175 0.930 . S
C2166 H2160 0.930 . S
C2166 C2167 1.355 . S
C2166 C2168 1.415 . S
C2167 C2166 1.355 . S
C2167 C2169 1.419 . S
C2168 C2166 1.415 . S
C2168 C2173 1.425 1_545 S
C2168 C2175 1.409 . S
C2169 H2161 0.928 1_545 S
C2169 C2167 1.419 . S
C2169 C2170 1.362 1_545 S
C2170 H2162 0.930 . S
C2170 C2169 1.362 1_565 S
C2170 C2173 1.409 . S
C2171 H2163 0.930 . S
C2171 C2172 1.355 . S
C2171 C2173 1.415 . S
C2172 C2171 1.355 . S
C2172 C2174 1.419 . S
C2173 C2168 1.425 1_565 S
C2173 C2170 1.409 . S
C2173 C2171 1.415 . S
C2174 H2164 0.928 1_565 S
C2174 C2172 1.419 . S
C2174 C2175 1.362 1_565 S
C2175 H2165 0.930 . S
C2175 C2168 1.409 . S
C2175 C2174 1.362 1_545 S
H2176 C2182 0.930 . S
H2177 C2185 0.930 . S
H2178 C2186 0.930 . S
H2179 C2187 0.930 . S
H2180 C2190 0.930 . S
H2181 C2191 0.930 . S
C2182 H2176 0.930 . S
C2182 C2183 1.355 . S
C2182 C2184 1.415 . S
C2183 C2182 1.355 . S
C2183 C2185 1.419 . S
C2184 C2182 1.415 . S
C2184 C2189 1.425 . S
C2184 C2191 1.409 . S
C2185 H2177 0.930 . S
C2185 C2183 1.419 . S
C2185 C2186 1.362 . S
C2186 H2178 0.930 . S
C2186 C2185 1.362 . S
C2186 C2189 1.409 . S
C2187 H2179 0.930 . S
C2187 C2188 1.355 . S
C2187 C2189 1.415 . S
C2188 C2187 1.355 . S
C2188 C2190 1.419 . S
C2189 C2184 1.425 . S
C2189 C2186 1.409 . S
C2189 C2187 1.415 . S
C2190 H2180 0.930 . S
C2190 C2188 1.419 . S
C2190 C2191 1.362 . S
C2191 H2181 0.930 . S
C2191 C2184 1.409 . S
C2191 C2190 1.362 . S
H2192 C2198 0.930 . S
H2193 C2201 0.930 . S
H2194 C2202 0.930 . S
H2195 C2203 0.930 . S
H2196 C2206 0.930 . S
H2197 C2207 0.930 . S
C2198 H2192 0.930 . S
C2198 C2199 1.355 1_554 S
C2198 C2200 1.415 . S
C2199 C2198 1.355 1_556 S
C2199 C2201 1.419 . S
C2200 C2198 1.415 . S
C2200 C2205 1.425 1_554 S
C2200 C2207 1.409 . S
C2201 H2193 0.930 . S
C2201 C2199 1.419 . S
C2201 C2202 1.362 . S
C2202 H2194 0.930 . S
C2202 C2201 1.362 . S
C2202 C2205 1.409 . S
C2203 H2195 0.930 . S
C2203 C2204 1.355 1_556 S
C2203 C2205 1.415 . S
C2204 C2203 1.355 1_554 S
C2204 C2206 1.419 . S
C2205 C2200 1.425 1_556 S
C2205 C2202 1.409 . S
C2205 C2203 1.415 . S
C2206 H2196 0.930 . S
C2206 C2204 1.419 . S
C2206 C2207 1.362 . S
C2207 H2197 0.930 . S
C2207 C2200 1.409 . S
C2207 C2206 1.362 . S
H2208 C2214 0.930 . S
H2209 C2217 0.930 . S
H2210 C2218 0.930 . S
H2211 C2219 0.930 . S
H2212 C2222 0.930 . S
H2213 C2223 0.930 . S
C2214 H2208 0.930 . S
C2214 C2215 1.355 . S
C2214 C2216 1.415 . S
C2215 C2214 1.355 . S
C2215 C2217 1.419 . S
C2216 C2214 1.415 . S
C2216 C2221 1.425 . S
C2216 C2223 1.409 . S
C2217 H2209 0.930 . S
C2217 C2215 1.419 . S
C2217 C2218 1.362 . S
C2218 H2210 0.930 . S
C2218 C2217 1.362 . S
C2218 C2221 1.409 . S
C2219 H2211 0.930 . S
C2219 C2220 1.355 . S
C2219 C2221 1.415 . S
C2220 C2219 1.355 . S
C2220 C2222 1.419 . S
C2221 C2216 1.425 . S
C2221 C2218 1.409 . S
C2221 C2219 1.415 . S
C2222 H2212 0.930 . S
C2222 C2220 1.419 . S
C2222 C2223 1.362 . S
C2223 H2213 0.930 . S
C2223 C2216 1.409 . S
C2223 C2222 1.362 . S
H2224 C2230 0.930 . S
H2225 C2233 0.930 . S
H2226 C2234 0.930 . S
H2227 C2235 0.930 . S
H2228 C2238 0.930 . S
H2229 C2239 0.930 . S
C2230 H2224 0.930 . S
C2230 C2231 1.355 . S
C2230 C2232 1.415 . S
C2231 C2230 1.355 . S
C2231 C2233 1.419 . S
C2232 C2230 1.415 . S
C2232 C2237 1.425 . S
C2232 C2239 1.409 . S
C2233 H2225 0.930 . S
C2233 C2231 1.419 . S
C2233 C2234 1.362 . S
C2234 H2226 0.930 . S
C2234 C2233 1.362 . S
C2234 C2237 1.409 . S
C2235 H2227 0.930 . S
C2235 C2236 1.355 . S
C2235 C2237 1.415 . S
C2236 C2235 1.355 . S
C2236 C2238 1.419 . S
C2237 C2232 1.425 . S
C2237 C2234 1.409 . S
C2237 C2235 1.415 . S
C2238 H2228 0.930 . S
C2238 C2236 1.419 . S
C2238 C2239 1.362 . S
C2239 H2229 0.930 . S
C2239 C2232 1.409 . S
C2239 C2238 1.362 . S
H2240 C2246 0.930 . S
H2241 C2249 0.930 . S
H2242 C2250 0.930 . S
H2243 C2251 0.930 . S
H2244 C2254 0.930 . S
H2245 C2255 0.930 . S
C2246 H2240 0.930 . S
C2246 C2247 1.355 . S
C2246 C2248 1.415 . S
C2247 C2246 1.355 . S
C2247 C2249 1.419 . S
C2248 C2246 1.415 . S
C2248 C2253 1.425 . S
C2248 C2255 1.409 . S
C2249 H2241 0.930 . S
C2249 C2247 1.419 . S
C2249 C2250 1.362 . S
C2250 H2242 0.930 . S
C2250 C2249 1.362 . S
C2250 C2253 1.409 . S
C2251 H2243 0.930 . S
C2251 C2252 1.355 . S
C2251 C2253 1.415 . S
C2252 C2251 1.355 . S
C2252 C2254 1.419 . S
C2253 C2248 1.425 . S
C2253 C2250 1.409 . S
C2253 C2251 1.415 . S
C2254 H2244 0.930 . S
C2254 C2252 1.419 . S
C2254 C2255 1.362 . S
C2255 H2245 0.930 . S
C2255 C2248 1.409 . S
C2255 C2254 1.362 . S
H2256 C2262 0.930 . S
H2257 C2265 0.930 . S
H2258 C2266 0.930 1_655 S
H2259 C2267 0.930 . S
H2260 C2270 0.930 . S
H2261 C2271 0.930 . S
C2262 H2256 0.930 . S
C2262 C2263 1.355 . S
C2262 C2264 1.415 . S
C2263 C2262 1.355 . S
C2263 C2265 1.419 . S
C2264 C2262 1.415 . S
C2264 C2269 1.425 . S
C2264 C2271 1.409 . S
C2265 H2257 0.930 . S
C2265 C2263 1.419 . S
C2265 C2266 1.362 . S
C2266 H2258 0.930 1_455 S
C2266 C2265 1.362 . S
C2266 C2269 1.409 . S
C2267 H2259 0.930 . S
C2267 C2268 1.355 . S
C2267 C2269 1.415 . S
C2268 C2267 1.355 . S
C2268 C2270 1.419 . S
C2269 C2264 1.425 . S
C2269 C2266 1.409 . S
C2269 C2267 1.415 . S
C2270 H2260 0.930 . S
C2270 C2268 1.419 . S
C2270 C2271 1.362 . S
C2271 H2261 0.930 . S
C2271 C2264 1.409 . S
C2271 C2270 1.362 . S
H2272 C2278 0.930 . S
H2273 C2281 0.930 . S
H2274 C2282 0.930 . S
H2275 C2283 0.930 . S
H2276 C2286 0.930 . S
H2277 C2287 0.930 . S
C2278 H2272 0.930 . S
C2278 C2279 1.355 . S
C2278 C2280 1.415 . S
C2279 C2278 1.355 . S
C2279 C2281 1.419 . S
C2280 C2278 1.415 . S
C2280 C2285 1.425 . S
C2280 C2287 1.409 . S
C2281 H2273 0.930 . S
C2281 C2279 1.419 . S
C2281 C2282 1.362 . S
C2282 H2274 0.930 . S
C2282 C2281 1.362 . S
C2282 C2285 1.409 . S
C2283 H2275 0.930 . S
C2283 C2284 1.355 . S
C2283 C2285 1.415 . S
C2284 C2283 1.355 . S
C2284 C2286 1.419 . S
C2285 C2280 1.425 . S
C2285 C2282 1.409 . S
C2285 C2283 1.415 . S
C2286 H2276 0.930 . S
C2286 C2284 1.419 . S
C2286 C2287 1.362 . S
C2287 H2277 0.930 . S
C2287 C2280 1.409 . S
C2287 C2286 1.362 . S
H2288 C2294 0.930 . S
H2289 C2297 0.930 . S
H2290 C2298 0.930 . S
H2291 C2299 0.930 . S
H2292 C2302 0.930 . S
H2293 C2303 0.930 . S
C2294 H2288 0.930 . S
C2294 C2295 1.355 . S
C2294 C2296 1.415 . S
C2295 C2294 1.355 . S
C2295 C2297 1.419 . S
C2296 C2294 1.415 . S
C2296 C2301 1.425 . S
C2296 C2303 1.409 . S
C2297 H2289 0.930 . S
C2297 C2295 1.419 . S
C2297 C2298 1.362 . S
C2298 H2290 0.930 . S
C2298 C2297 1.362 . S
C2298 C2301 1.409 . S
C2299 H2291 0.930 . S
C2299 C2300 1.355 . S
C2299 C2301 1.415 . S
C2300 C2299 1.355 . S
C2300 C2302 1.419 . S
C2301 C2296 1.425 . S
C2301 C2298 1.409 . S
C2301 C2299 1.415 . S
C2302 H2292 0.930 . S
C2302 C2300 1.419 . S
C2302 C2303 1.362 . S
C2303 H2293 0.930 . S
C2303 C2296 1.409 . S
C2303 C2302 1.362 . S
H2304 C2310 0.930 . S
H2305 C2313 0.930 . S
H2306 C2314 0.930 . S
H2307 C2315 0.930 . S
H2308 C2318 0.930 . S
H2309 C2319 0.930 . S
C2310 H2304 0.930 . S
C2310 C2311 1.355 . S
C2310 C2312 1.415 . S
C2311 C2310 1.355 . S
C2311 C2313 1.419 . S
C2312 C2310 1.415 . S
C2312 C2317 1.425 . S
C2312 C2319 1.409 . S
C2313 H2305 0.930 . S
C2313 C2311 1.419 . S
C2313 C2314 1.362 . S
C2314 H2306 0.930 . S
C2314 C2313 1.362 . S
C2314 C2317 1.409 . S
C2315 H2307 0.930 . S
C2315 C2316 1.355 . S
C2315 C2317 1.415 . S
C2316 C2315 1.355 . S
C2316 C2318 1.419 . S
C2317 C2312 1.425 . S
C2317 C2314 1.409 . S
C2317 C2315 1.415 . S
C2318 H2308 0.930 . S
C2318 C2316 1.419 . S
C2318 C2319 1.362 . S
C2319 H2309 0.930 . S
C2319 C2312 1.409 . S
C2319 C2318 1.362 . S
H2320 C2326 0.930 . S
H2321 C2329 0.930 . S
H2322 C2330 0.930 . S
H2323 C2331 0.930 . S
H2324 C2334 0.930 . S
H2325 C2335 0.930 . S
C2326 H2320 0.930 . S
C2326 C2327 1.355 . S
C2326 C2328 1.415 . S
C2327 C2326 1.355 . S
C2327 C2329 1.419 . S
C2328 C2326 1.415 . S
C2328 C2333 1.425 . S
C2328 C2335 1.409 . S
C2329 H2321 0.930 . S
C2329 C2327 1.419 . S
C2329 C2330 1.362 . S
C2330 H2322 0.930 . S
C2330 C2329 1.362 . S
C2330 C2333 1.409 . S
C2331 H2323 0.930 . S
C2331 C2332 1.355 . S
C2331 C2333 1.415 . S
C2332 C2331 1.355 . S
C2332 C2334 1.419 . S
C2333 C2328 1.425 . S
C2333 C2330 1.409 . S
C2333 C2331 1.415 . S
C2334 H2324 0.930 . S
C2334 C2332 1.419 . S
C2334 C2335 1.362 . S
C2335 H2325 0.930 . S
C2335 C2328 1.409 . S
C2335 C2334 1.362 . S
H2336 C2342 0.930 . S
H2337 C2345 0.930 . S
H2338 C2346 0.930 . S
H2339 C2347 0.930 . S
H2340 C2350 0.930 . S
H2341 C2351 0.930 . S
C2342 H2336 0.930 . S
C2342 C2343 1.355 . S
C2342 C2344 1.415 . S
C2343 C2342 1.355 . S
C2343 C2345 1.419 . S
C2344 C2342 1.415 . S
C2344 C2349 1.425 . S
C2344 C2351 1.409 . S
C2345 H2337 0.930 . S
C2345 C2343 1.419 . S
C2345 C2346 1.362 . S
C2346 H2338 0.930 . S
C2346 C2345 1.362 . S
C2346 C2349 1.409 . S
C2347 H2339 0.930 . S
C2347 C2348 1.355 . S
C2347 C2349 1.415 . S
C2348 C2347 1.355 . S
C2348 C2350 1.419 . S
C2349 C2344 1.425 . S
C2349 C2346 1.409 . S
C2349 C2347 1.415 . S
C2350 H2340 0.930 . S
C2350 C2348 1.419 . S
C2350 C2351 1.362 . S
C2351 H2341 0.930 . S
C2351 C2344 1.409 . S
C2351 C2350 1.362 . S
H2352 C2358 0.930 . S
H2353 C2361 0.930 . S
H2354 C2362 0.930 . S
H2355 C2363 0.930 . S
H2356 C2366 0.930 . S
H2357 C2367 0.930 . S
C2358 H2352 0.930 . S
C2358 C2359 1.355 . S
C2358 C2360 1.415 . S
C2359 C2358 1.355 . S
C2359 C2361 1.419 . S
C2360 C2358 1.415 . S
C2360 C2365 1.425 . S
C2360 C2367 1.409 . S
C2361 H2353 0.930 . S
C2361 C2359 1.419 . S
C2361 C2362 1.362 . S
C2362 H2354 0.930 . S
C2362 C2361 1.362 . S
C2362 C2365 1.409 . S
C2363 H2355 0.930 . S
C2363 C2364 1.355 . S
C2363 C2365 1.415 . S
C2364 C2363 1.355 . S
C2364 C2366 1.419 . S
C2365 C2360 1.425 . S
C2365 C2362 1.409 . S
C2365 C2363 1.415 . S
C2366 H2356 0.930 . S
C2366 C2364 1.419 . S
C2366 C2367 1.362 . S
C2367 H2357 0.930 . S
C2367 C2360 1.409 . S
C2367 C2366 1.362 . S
H2368 C2374 0.930 . S
H2369 C2377 0.930 . S
H2370 C2378 0.930 . S
H2371 C2379 0.930 . S
H2372 C2382 0.930 . S
H2373 C2383 0.930 . S
C2374 H2368 0.930 . S
C2374 C2375 1.355 . S
C2374 C2376 1.415 . S
C2375 C2374 1.355 . S
C2375 C2377 1.419 . S
C2376 C2374 1.415 . S
C2376 C2381 1.425 . S
C2376 C2383 1.409 . S
C2377 H2369 0.930 . S
C2377 C2375 1.419 . S
C2377 C2378 1.362 . S
C2378 H2370 0.930 . S
C2378 C2377 1.362 . S
C2378 C2381 1.409 . S
C2379 H2371 0.930 . S
C2379 C2380 1.355 . S
C2379 C2381 1.415 . S
C2380 C2379 1.355 . S
C2380 C2382 1.419 . S
C2381 C2376 1.425 . S
C2381 C2378 1.409 . S
C2381 C2379 1.415 . S
C2382 H2372 0.930 . S
C2382 C2380 1.419 . S
C2382 C2383 1.362 . S
C2383 H2373 0.930 . S
C2383 C2376 1.409 . S
C2383 C2382 1.362 . S
H2384 C2390 0.930 . S
H2385 C2393 0.930 . S
H2386 C2394 0.930 . S
H2387 C2395 0.930 . S
H2388 C2398 0.930 . S
H2389 C2399 0.930 . S
C2390 H2384 0.930 . S
C2390 C2391 1.355 . S
C2390 C2392 1.415 . S
C2391 C2390 1.355 . S
C2391 C2393 1.419 . S
C2392 C2390 1.415 . S
C2392 C2397 1.425 . S
C2392 C2399 1.409 . S
C2393 H2385 0.930 . S
C2393 C2391 1.419 . S
C2393 C2394 1.362 . S
C2394 H2386 0.930 . S
C2394 C2393 1.362 . S
C2394 C2397 1.409 . S
C2395 H2387 0.930 . S
C2395 C2396 1.355 . S
C2395 C2397 1.415 . S
C2396 C2395 1.355 . S
C2396 C2398 1.419 . S
C2397 C2392 1.425 . S
C2397 C2394 1.409 . S
C2397 C2395 1.415 . S
C2398 H2388 0.930 . S
C2398 C2396 1.419 . S
C2398 C2399 1.362 . S
C2399 H2389 0.930 . S
C2399 C2392 1.409 . S
C2399 C2398 1.362 . S
H2400 C2406 0.930 . S
H2401 C2409 0.930 . S
H2402 C2410 0.930 . S
H2403 C2411 0.930 . S
H2404 C2414 0.930 . S
H2405 C2415 0.930 . S
C2406 H2400 0.930 . S
C2406 C2407 1.355 . S
C2406 C2408 1.415 . S
C2407 C2406 1.355 . S
C2407 C2409 1.419 . S
C2408 C2406 1.415 . S
C2408 C2413 1.425 . S
C2408 C2415 1.409 . S
C2409 H2401 0.930 . S
C2409 C2407 1.419 . S
C2409 C2410 1.362 . S
C2410 H2402 0.930 . S
C2410 C2409 1.362 . S
C2410 C2413 1.409 . S
C2411 H2403 0.930 . S
C2411 C2412 1.355 . S
C2411 C2413 1.415 . S
C2412 C2411 1.355 . S
C2412 C2414 1.419 . S
C2413 C2408 1.425 . S
C2413 C2410 1.409 . S
C2413 C2411 1.415 . S
C2414 H2404 0.930 . S
C2414 C2412 1.419 . S
C2414 C2415 1.362 . S
C2415 H2405 0.930 . S
C2415 C2408 1.409 . S
C2415 C2414 1.362 . S
H2416 C2422 0.930 . S
H2417 C2425 0.930 . S
H2418 C2426 0.930 . S
H2419 C2427 0.930 . S
H2420 C2430 0.930 . S
H2421 C2431 0.930 . S
C2422 H2416 0.930 . S
C2422 C2423 1.355 . S
C2422 C2424 1.415 . S
C2423 C2422 1.355 . S
C2423 C2425 1.419 . S
C2424 C2422 1.415 . S
C2424 C2429 1.425 . S
C2424 C2431 1.409 . S
C2425 H2417 0.930 . S
C2425 C2423 1.419 . S
C2425 C2426 1.362 . S
C2426 H2418 0.930 . S
C2426 C2425 1.362 . S
C2426 C2429 1.409 . S
C2427 H2419 0.930 . S
C2427 C2428 1.355 . S
C2427 C2429 1.415 . S
C2428 C2427 1.355 . S
C2428 C2430 1.419 . S
C2429 C2424 1.425 . S
C2429 C2426 1.409 . S
C2429 C2427 1.415 . S
C2430 H2420 0.930 . S
C2430 C2428 1.419 . S
C2430 C2431 1.362 . S
C2431 H2421 0.930 . S
C2431 C2424 1.409 . S
C2431 C2430 1.362 . S
H2432 C2438 0.930 . S
H2433 C2441 0.930 . S
H2434 C2442 0.930 . S
H2435 C2443 0.930 . S
H2436 C2446 0.930 . S
H2437 C2447 0.930 . S
C2438 H2432 0.930 . S
C2438 C2439 1.355 . S
C2438 C2440 1.415 . S
C2439 C2438 1.355 . S
C2439 C2441 1.419 . S
C2440 C2438 1.415 . S
C2440 C2445 1.425 . S
C2440 C2447 1.409 . S
C2441 H2433 0.930 . S
C2441 C2439 1.419 . S
C2441 C2442 1.362 . S
C2442 H2434 0.930 . S
C2442 C2441 1.362 . S
C2442 C2445 1.409 . S
C2443 H2435 0.930 . S
C2443 C2444 1.355 . S
C2443 C2445 1.415 . S
C2444 C2443 1.355 . S
C2444 C2446 1.419 . S
C2445 C2440 1.425 . S
C2445 C2442 1.409 . S
C2445 C2443 1.415 . S
C2446 H2436 0.930 . S
C2446 C2444 1.419 . S
C2446 C2447 1.362 . S
C2447 H2437 0.930 . S
C2447 C2440 1.409 . S
C2447 C2446 1.362 . S
H2448 C2454 0.930 . S
H2449 C2457 0.930 . S
H2450 C2458 0.930 . S
H2451 C2459 0.930 . S
H2452 C2462 0.930 . S
H2453 C2463 0.930 . S
C2454 H2448 0.930 . S
C2454 C2455 1.355 . S
C2454 C2456 1.415 . S
C2455 C2454 1.355 . S
C2455 C2457 1.419 . S
C2456 C2454 1.415 . S
C2456 C2461 1.425 . S
C2456 C2463 1.409 . S
C2457 H2449 0.930 . S
C2457 C2455 1.419 . S
C2457 C2458 1.362 . S
C2458 H2450 0.930 . S
C2458 C2457 1.362 . S
C2458 C2461 1.409 . S
C2459 H2451 0.930 . S
C2459 C2460 1.355 . S
C2459 C2461 1.415 . S
C2460 C2459 1.355 . S
C2460 C2462 1.419 . S
C2461 C2456 1.425 . S
C2461 C2458 1.409 . S
C2461 C2459 1.415 . S
C2462 H2452 0.930 . S
C2462 C2460 1.419 . S
C2462 C2463 1.362 . S
C2463 H2453 0.930 . S
C2463 C2456 1.409 . S
C2463 C2462 1.362 . S
H2464 C2470 0.930 . S
H2465 C2473 0.930 . S
H2466 C2474 0.930 . S
H2467 C2475 0.930 . S
H2468 C2478 0.930 . S
H2469 C2479 0.930 . S
C2470 H2464 0.930 . S
C2470 C2471 1.355 . S
C2470 C2472 1.415 . S
C2471 C2470 1.355 . S
C2471 C2473 1.419 . S
C2472 C2470 1.415 . S
C2472 C2477 1.425 . S
C2472 C2479 1.409 . S
C2473 H2465 0.930 . S
C2473 C2471 1.419 . S
C2473 C2474 1.362 . S
C2474 H2466 0.930 . S
C2474 C2473 1.362 . S
C2474 C2477 1.409 . S
C2475 H2467 0.930 . S
C2475 C2476 1.355 . S
C2475 C2477 1.415 . S
C2476 C2475 1.355 . S
C2476 C2478 1.419 . S
C2477 C2472 1.425 . S
C2477 C2474 1.409 . S
C2477 C2475 1.415 . S
C2478 H2468 0.930 . S
C2478 C2476 1.419 . S
C2478 C2479 1.362 . S
C2479 H2469 0.930 . S
C2479 C2472 1.409 . S
C2479 C2478 1.362 . S
H2480 C2486 0.930 . S
H2481 C2489 0.930 . S
H2482 C2490 0.930 . S
H2483 C2491 0.930 . S
H2484 C2494 0.930 . S
H2485 C2495 0.930 . S
C2486 H2480 0.930 . S
C2486 C2487 1.355 . S
C2486 C2488 1.415 . S
C2487 C2486 1.355 . S
C2487 C2489 1.419 . S
C2488 C2486 1.415 . S
C2488 C2493 1.425 . S
C2488 C2495 1.409 . S
C2489 H2481 0.930 . S
C2489 C2487 1.419 . S
C2489 C2490 1.362 . S
C2490 H2482 0.930 . S
C2490 C2489 1.362 . S
C2490 C2493 1.409 . S
C2491 H2483 0.930 . S
C2491 C2492 1.355 . S
C2491 C2493 1.415 . S
C2492 C2491 1.355 . S
C2492 C2494 1.419 . S
C2493 C2488 1.425 . S
C2493 C2490 1.409 . S
C2493 C2491 1.415 . S
C2494 H2484 0.930 . S
C2494 C2492 1.419 . S
C2494 C2495 1.362 . S
C2495 H2485 0.930 . S
C2495 C2488 1.409 . S
C2495 C2494 1.362 . S
H2496 C2502 0.930 . S
H2497 C2505 0.930 . S
H2498 C2506 0.930 . S
H2499 C2507 0.930 . S
H2500 C2510 0.930 . S
H2501 C2511 0.930 . S
C2502 H2496 0.930 . S
C2502 C2503 1.355 1_554 S
C2502 C2504 1.415 . S
C2503 C2502 1.355 1_556 S
C2503 C2505 1.419 . S
C2504 C2502 1.415 . S
C2504 C2509 1.425 1_554 S
C2504 C2511 1.409 . S
C2505 H2497 0.930 . S
C2505 C2503 1.419 . S
C2505 C2506 1.362 . S
C2506 H2498 0.930 . S
C2506 C2505 1.362 . S
C2506 C2509 1.409 . S
C2507 H2499 0.930 . S
C2507 C2508 1.355 . S
C2507 C2509 1.415 . S
C2508 C2507 1.355 . S
C2508 C2510 1.419 1_556 S
C2509 C2504 1.425 1_556 S
C2509 C2506 1.409 . S
C2509 C2507 1.415 . S
C2510 H2500 0.930 . S
C2510 C2508 1.419 1_554 S
C2510 C2511 1.362 . S
C2511 H2501 0.930 . S
C2511 C2504 1.409 . S
C2511 C2510 1.362 . S
H2512 C2518 0.930 . S
H2513 C2521 0.930 . S
H2514 C2522 0.930 . S
H2515 C2523 0.930 1_554 S
H2516 C2526 0.930 . S
H2517 C2527 0.930 . S
C2518 H2512 0.930 . S
C2518 C2519 1.355 . S
C2518 C2520 1.415 . S
C2519 C2518 1.355 . S
C2519 C2521 1.419 1_556 S
C2520 C2518 1.415 . S
C2520 C2525 1.425 . S
C2520 C2527 1.409 . S
C2521 H2513 0.930 . S
C2521 C2519 1.419 1_554 S
C2521 C2522 1.362 . S
C2522 H2514 0.930 . S
C2522 C2521 1.362 . S
C2522 C2525 1.409 1_554 S
C2523 H2515 0.930 1_556 S
C2523 C2524 1.355 . S
C2523 C2525 1.415 . S
C2524 C2523 1.355 . S
C2524 C2526 1.419 . S
C2525 C2520 1.425 . S
C2525 C2522 1.409 1_556 S
C2525 C2523 1.415 . S
C2526 H2516 0.930 . S
C2526 C2524 1.419 . S
C2526 C2527 1.362 . S
C2527 H2517 0.930 . S
C2527 C2520 1.409 . S
C2527 C2526 1.362 . S
H2528 C2534 0.930 . S
H2529 C2537 0.930 . S
H2530 C2538 0.930 . S
H2531 C2539 0.930 . S
H2532 C2542 0.930 . S
H2533 C2543 0.930 . S
C2534 H2528 0.930 . S
C2534 C2535 1.355 . S
C2534 C2536 1.415 . S
C2535 C2534 1.355 . S
C2535 C2537 1.419 . S
C2536 C2534 1.415 . S
C2536 C2541 1.425 . S
C2536 C2543 1.409 . S
C2537 H2529 0.930 . S
C2537 C2535 1.419 . S
C2537 C2538 1.362 . S
C2538 H2530 0.930 . S
C2538 C2537 1.362 . S
C2538 C2541 1.409 . S
C2539 H2531 0.930 . S
C2539 C2540 1.355 . S
C2539 C2541 1.415 . S
C2540 C2539 1.355 . S
C2540 C2542 1.419 . S
C2541 C2536 1.425 . S
C2541 C2538 1.409 . S
C2541 C2539 1.415 . S
C2542 H2532 0.930 . S
C2542 C2540 1.419 . S
C2542 C2543 1.362 . S
C2543 H2533 0.930 . S
C2543 C2536 1.409 . S
C2543 C2542 1.362 . S
H2544 C2550 0.930 . S
H2545 C2553 0.930 . S
H2546 C2554 0.930 . S
H2547 C2555 0.930 . S
H2548 C2558 0.930 . S
H2549 C2559 0.930 . S
C2550 H2544 0.930 . S
C2550 C2551 1.355 . S
C2550 C2552 1.415 . S
C2551 C2550 1.355 . S
C2551 C2553 1.419 . S
C2552 C2550 1.415 . S
C2552 C2557 1.425 . S
C2552 C2559 1.409 . S
C2553 H2545 0.930 . S
C2553 C2551 1.419 . S
C2553 C2554 1.362 . S
C2554 H2546 0.930 . S
C2554 C2553 1.362 . S
C2554 C2557 1.409 . S
C2555 H2547 0.930 . S
C2555 C2556 1.355 . S
C2555 C2557 1.415 . S
C2556 C2555 1.355 . S
C2556 C2558 1.419 . S
C2557 C2552 1.425 . S
C2557 C2554 1.409 . S
C2557 C2555 1.415 . S
C2558 H2548 0.930 . S
C2558 C2556 1.419 . S
C2558 C2559 1.362 . S
C2559 H2549 0.930 . S
C2559 C2552 1.409 . S
C2559 C2558 1.362 . S
H2560 C2566 0.930 . S
H2561 C2569 0.930 . S
H2562 C2570 0.930 . S
H2563 C2571 0.919 1_556 S
H2564 C2574 0.930 . S
H2565 C2575 0.930 . S
C2566 H2560 0.930 . S
C2566 C2567 1.355 . S
C2566 C2568 1.415 . S
C2567 C2566 1.355 . S
C2567 C2569 1.419 1_554 S
C2568 C2566 1.415 . S
C2568 C2573 1.425 . S
C2568 C2575 1.409 . S
C2569 H2561 0.930 . S
C2569 C2567 1.419 1_556 S
C2569 C2570 1.362 . S
C2570 H2562 0.930 . S
C2570 C2569 1.362 . S
C2570 C2573 1.409 1_556 S
C2571 H2563 0.919 1_554 S
C2571 C2572 1.355 . S
C2571 C2573 1.415 . S
C2572 C2571 1.355 . S
C2572 C2574 1.419 . S
C2573 C2568 1.425 . S
C2573 C2570 1.409 1_554 S
C2573 C2571 1.415 . S
C2574 H2564 0.930 . S
C2574 C2572 1.419 . S
C2574 C2575 1.362 . S
C2575 H2565 0.930 . S
C2575 C2568 1.409 . S
C2575 C2574 1.362 . S
H2576 C2582 0.930 . S
H2577 C2585 0.930 . S
H2578 C2586 0.930 . S
H2579 C2587 0.930 . S
H2580 C2590 0.930 . S
H2581 C2591 0.930 . S
C2582 H2576 0.930 . S
C2582 C2583 1.355 1_556 S
C2582 C2584 1.412 1_556 S
C2583 C2582 1.355 1_554 S
C2583 C2585 1.419 . S
C2584 C2582 1.412 1_554 S
C2584 C2589 1.441 . S
C2584 C2591 1.398 1_554 S
C2585 H2577 0.930 . S
C2585 C2583 1.419 . S
C2585 C2586 1.362 . S
C2586 H2578 0.930 . S
C2586 C2585 1.362 . S
C2586 C2589 1.409 . S
C2587 H2579 0.930 . S
C2587 C2588 1.355 . S
C2587 C2589 1.415 . S
C2588 C2587 1.355 . S
C2588 C2590 1.419 1_554 S
C2589 C2584 1.441 . S
C2589 C2586 1.409 . S
C2589 C2587 1.415 . S
C2590 H2580 0.930 . S
C2590 C2588 1.419 1_556 S
C2590 C2591 1.362 . S
C2591 H2581 0.930 . S
C2591 C2584 1.398 1_556 S
C2591 C2590 1.362 . S
H2592 C2598 0.930 . S
H2593 C2601 0.930 . S
H2594 C2602 0.930 . S
H2595 C2603 0.930 . S
H2596 C2606 0.930 . S
H2597 C2607 0.930 . S
C2598 H2592 0.930 . S
C2598 C2599 1.355 . S
C2598 C2600 1.415 . S
C2599 C2598 1.355 . S
C2599 C2601 1.419 . S
C2600 C2598 1.415 . S
C2600 C2605 1.425 . S
C2600 C2607 1.409 . S
C2601 H2593 0.930 . S
C2601 C2599 1.419 . S
C2601 C2602 1.362 . S
C2602 H2594 0.930 . S
C2602 C2601 1.362 . S
C2602 C2605 1.409 . S
C2603 H2595 0.930 . S
C2603 C2604 1.355 . S
C2603 C2605 1.415 . S
C2604 C2603 1.355 . S
C2604 C2606 1.419 . S
C2605 C2600 1.425 . S
C2605 C2602 1.409 . S
C2605 C2603 1.415 . S
C2606 H2596 0.930 . S
C2606 C2604 1.419 . S
C2606 C2607 1.362 . S
C2607 H2597 0.930 . S
C2607 C2600 1.409 . S
C2607 C2606 1.362 . S
H2608 C2614 0.930 . S
H2609 C2617 0.930 . S
H2610 C2618 0.930 . S
H2611 C2619 0.930 . S
H2612 C2622 0.930 . S
H2613 C2623 0.930 . S
C2614 H2608 0.930 . S
C2614 C2615 1.355 . S
C2614 C2616 1.415 . S
C2615 C2614 1.355 . S
C2615 C2617 1.419 . S
C2616 C2614 1.415 . S
C2616 C2621 1.425 . S
C2616 C2623 1.409 . S
C2617 H2609 0.930 . S
C2617 C2615 1.419 . S
C2617 C2618 1.362 . S
C2618 H2610 0.930 . S
C2618 C2617 1.362 . S
C2618 C2621 1.409 . S
C2619 H2611 0.930 . S
C2619 C2620 1.355 . S
C2619 C2621 1.415 . S
C2620 C2619 1.355 . S
C2620 C2622 1.419 . S
C2621 C2616 1.425 . S
C2621 C2618 1.409 . S
C2621 C2619 1.415 . S
C2622 H2612 0.930 . S
C2622 C2620 1.419 . S
C2622 C2623 1.362 . S
C2623 H2613 0.930 . S
C2623 C2616 1.409 . S
C2623 C2622 1.362 . S
H2624 C2630 0.930 . S
H2625 C2633 0.930 . S
H2626 C2634 0.930 . S
H2627 C2635 0.930 . S
H2628 C2638 0.930 . S
H2629 C2639 0.930 . S
C2630 H2624 0.930 . S
C2630 C2631 1.355 . S
C2630 C2632 1.415 . S
C2631 C2630 1.355 . S
C2631 C2633 1.419 . S
C2632 C2630 1.415 . S
C2632 C2637 1.425 . S
C2632 C2639 1.409 . S
C2633 H2625 0.930 . S
C2633 C2631 1.419 . S
C2633 C2634 1.362 . S
C2634 H2626 0.930 . S
C2634 C2633 1.362 . S
C2634 C2637 1.409 . S
C2635 H2627 0.930 . S
C2635 C2636 1.355 . S
C2635 C2637 1.415 . S
C2636 C2635 1.355 . S
C2636 C2638 1.419 . S
C2637 C2632 1.425 . S
C2637 C2634 1.409 . S
C2637 C2635 1.415 . S
C2638 H2628 0.930 . S
C2638 C2636 1.419 . S
C2638 C2639 1.362 . S
C2639 H2629 0.930 . S
C2639 C2632 1.409 . S
C2639 C2638 1.362 . S
H2640 C2646 0.930 . S
H2641 C2649 0.930 . S
H2642 C2650 0.930 . S
H2643 C2651 0.930 . S
H2644 C2654 0.930 . S
H2645 C2655 0.930 . S
C2646 H2640 0.930 . S
C2646 C2647 1.355 . S
C2646 C2648 1.415 . S
C2647 C2646 1.355 . S
C2647 C2649 1.419 . S
C2648 C2646 1.415 . S
C2648 C2653 1.425 . S
C2648 C2655 1.409 . S
C2649 H2641 0.930 . S
C2649 C2647 1.419 . S
C2649 C2650 1.362 . S
C2650 H2642 0.930 . S
C2650 C2649 1.362 . S
C2650 C2653 1.409 . S
C2651 H2643 0.930 . S
C2651 C2652 1.355 . S
C2651 C2653 1.415 . S
C2652 C2651 1.355 . S
C2652 C2654 1.419 . S
C2653 C2648 1.425 . S
C2653 C2650 1.409 . S
C2653 C2651 1.415 . S
C2654 H2644 0.930 . S
C2654 C2652 1.419 . S
C2654 C2655 1.362 . S
C2655 H2645 0.930 . S
C2655 C2648 1.409 . S
C2655 C2654 1.362 . S
H2656 C2662 0.930 . S
H2657 C2665 0.930 . S
H2658 C2666 0.930 . S
H2659 C2667 0.930 . S
H2660 C2670 0.930 . S
H2661 C2671 0.930 . S
C2662 H2656 0.930 . S
C2662 C2663 1.355 . S
C2662 C2664 1.415 . S
C2663 C2662 1.355 . S
C2663 C2665 1.419 . S
C2664 C2662 1.415 . S
C2664 C2669 1.425 . S
C2664 C2671 1.409 . S
C2665 H2657 0.930 . S
C2665 C2663 1.419 . S
C2665 C2666 1.362 . S
C2666 H2658 0.930 . S
C2666 C2665 1.362 . S
C2666 C2669 1.409 . S
C2667 H2659 0.930 . S
C2667 C2668 1.355 . S
C2667 C2669 1.415 . S
C2668 C2667 1.355 . S
C2668 C2670 1.419 . S
C2669 C2664 1.425 . S
C2669 C2666 1.409 . S
C2669 C2667 1.415 . S
C2670 H2660 0.930 . S
C2670 C2668 1.419 . S
C2670 C2671 1.362 . S
C2671 H2661 0.930 . S
C2671 C2664 1.409 . S
C2671 C2670 1.362 . S
H2672 C2678 0.930 . S
H2673 C2681 0.930 . S
H2674 C2682 0.930 . S
H2675 C2683 0.930 . S
H2676 C2686 0.930 . S
H2677 C2687 0.930 . S
C2678 H2672 0.930 . S
C2678 C2679 1.355 . S
C2678 C2680 1.415 . S
C2679 C2678 1.355 . S
C2679 C2681 1.419 . S
C2680 C2678 1.415 . S
C2680 C2685 1.425 . S
C2680 C2687 1.409 . S
C2681 H2673 0.930 . S
C2681 C2679 1.419 . S
C2681 C2682 1.362 . S
C2682 H2674 0.930 . S
C2682 C2681 1.362 . S
C2682 C2685 1.409 . S
C2683 H2675 0.930 . S
C2683 C2684 1.355 . S
C2683 C2685 1.415 . S
C2684 C2683 1.355 . S
C2684 C2686 1.419 . S
C2685 C2680 1.425 . S
C2685 C2682 1.409 . S
C2685 C2683 1.415 . S
C2686 H2676 0.930 . S
C2686 C2684 1.419 . S
C2686 C2687 1.362 . S
C2687 H2677 0.930 . S
C2687 C2680 1.409 . S
C2687 C2686 1.362 . S
H2688 C2694 0.930 . S
H2689 C2697 0.930 . S
H2690 C2698 0.930 . S
H2691 C2699 0.930 . S
H2692 C2702 0.930 . S
H2693 C2703 0.930 . S
C2694 H2688 0.930 . S
C2694 C2695 1.355 . S
C2694 C2696 1.415 . S
C2695 C2694 1.355 . S
C2695 C2697 1.419 . S
C2696 C2694 1.415 . S
C2696 C2701 1.425 . S
C2696 C2703 1.409 . S
C2697 H2689 0.930 . S
C2697 C2695 1.419 . S
C2697 C2698 1.362 . S
C2698 H2690 0.930 . S
C2698 C2697 1.362 . S
C2698 C2701 1.409 . S
C2699 H2691 0.930 . S
C2699 C2700 1.355 . S
C2699 C2701 1.415 . S
C2700 C2699 1.355 . S
C2700 C2702 1.419 . S
C2701 C2696 1.425 . S
C2701 C2698 1.409 . S
C2701 C2699 1.415 . S
C2702 H2692 0.930 . S
C2702 C2700 1.419 . S
C2702 C2703 1.362 . S
C2703 H2693 0.930 . S
C2703 C2696 1.409 . S
C2703 C2702 1.362 . S
H2704 C2710 0.930 . S
H2705 C2713 0.930 . S
H2706 C2714 0.930 . S
H2707 C2715 0.930 . S
H2708 C2718 0.930 . S
H2709 C2719 0.930 . S
C2710 H2704 0.930 . S
C2710 C2711 1.355 . S
C2710 C2712 1.415 . S
C2711 C2710 1.355 . S
C2711 C2713 1.419 . S
C2712 C2710 1.415 . S
C2712 C2717 1.425 . S
C2712 C2719 1.409 . S
C2713 H2705 0.930 . S
C2713 C2711 1.419 . S
C2713 C2714 1.362 . S
C2714 H2706 0.930 . S
C2714 C2713 1.362 . S
C2714 C2717 1.409 . S
C2715 H2707 0.930 . S
C2715 C2716 1.355 . S
C2715 C2717 1.415 . S
C2716 C2715 1.355 . S
C2716 C2718 1.419 . S
C2717 C2712 1.425 . S
C2717 C2714 1.409 . S
C2717 C2715 1.415 . S
C2718 H2708 0.930 . S
C2718 C2716 1.419 . S
C2718 C2719 1.362 . S
C2719 H2709 0.930 . S
C2719 C2712 1.409 . S
C2719 C2718 1.362 . S
C1703 C39 1.879 . S
C1708 C198 1.871 . S
C1719 C145 1.875 . S
C1724 C92 1.903 . S
C1735 C251 1.879 . S
C1740 C410 1.899 . S
C1751 C357 1.887 . S
C1756 C304 1.895 . S
C1767 C463 1.899 . S
C1772 C622 1.896 . S
C1783 C569 1.876 . S
C1788 C516 1.872 . S
C1799 C675 1.899 . S
C1804 C834 1.867 . S
C1815 C728 1.881 . S
C1820 C781 1.858 . S
C1831 C1046 1.886 . S
C1836 C887 1.868 . S
C1847 C940 1.901 . S
C1852 C993 1.894 . S
C1863 C1099 1.894 . S
C1868 C1258 1.888 . S
C1879 C1205 1.895 . S
C1884 C1152 1.887 . S
C1895 C1311 1.901 . S
C1900 C1470 1.872 . S
C1911 C1417 1.899 . S
C1916 C1364 1.870 . S
C1927 C1523 1.899 . S
C1932 C1682 1.877 . S
C1943 C1576 1.898 . S
C1948 C1629 1.882 . S
C1959 C658 1.500 . S
C1964 C22 1.504 . S
C1975 C75 1.520 . S
C1980 C1135 1.520 . S
C1991 C128 1.502 . S
C1996 C340 1.498 . S
C2007 C1665 1.522 . S
C2012 C181 1.522 . S
C2023 C234 1.521 . S
C2028 C446 1.521 . S
C2039 C923 1.503 . S
C2044 C287 1.498 . S
C2055 C1453 1.508 . S
C2060 C393 1.504 . S
C2071 C1559 1.521 . S
C2076 C499 1.521 . S
C2087 C764 1.522 . S
C2092 C552 1.522 . S
C2103 C1241 1.501 . S
C2108 C605 1.505 . S
C2119 C711 1.523 . S
C2124 C1347 1.523 . S
C2135 C1029 1.523 . S
C2140 C817 1.523 . S
C2151 C1506 1.518 . S
C2156 C870 1.519 . S
C2167 C1188 1.498 . S
C2172 C976 1.503 . S
C2183 C1294 1.503 . S
C2188 C1082 1.498 . S
C2199 C1400 1.522 . S
C2204 C1612 1.522 . S
C2215 C568 2.040 . S
C2220 C38 2.020 . S
C2231 C91 1.992 . S
C2236 C621 1.998 . S
C2247 C462 2.037 . S
C2252 C144 2.046 . S
C2263 C515 2.032 . S
C2268 C197 2.010 . S
C2279 C250 2.015 . S
C2284 C780 2.005 . S
C2295 C303 2.051 . S
C2300 C833 2.054 . S
C2311 C674 2.012 . S
C2316 C356 2.005 . S
C2327 C409 2.031 . S
C2332 C727 2.049 . S
C2343 C1416 2.037 . S
C2348 C886 2.015 . S
C2359 C1469 2.029 . S
C2364 C939 2.044 . S
C2375 C992 2.041 . S
C2380 C1310 2.021 . S
C2391 C1045 2.042 . S
C2396 C1363 2.044 . S
C2407 C1098 2.008 . S
C2412 C1628 2.007 . S
C2423 C1151 2.048 . S
C2428 C1681 2.055 . S
C2439 C1522 2.006 . S
C2444 C1204 2.009 . S
C2455 C1575 2.048 . S
C2460 C1257 2.055 . S
C2471 C29 1.545 . S
C2476 C1354 1.539 . S
C2487 C1301 1.544 . S
C2492 C82 1.552 . S
C2503 C135 1.552 . S
C2508 C1460 1.544 . S
C2519 C188 1.539 . S
C2524 C1407 1.545 . S
C2535 C241 1.544 . S
C2540 C1566 1.542 . S
C2551 C294 1.543 . S
C2556 C1513 1.542 . S
C2567 C1672 1.560 . S
C2572 C347 1.565 . S
C2583 C1619 1.565 . S
C2588 C400 1.563 . S
C2599 C930 1.539 . S
C2604 C453 1.544 . S
C2615 C877 1.537 . S
C2620 C506 1.539 . S
C2631 C559 1.548 . S
C2636 C1036 1.556 . S
C2647 C612 1.537 . S
C2652 C983 1.540 . S
C2663 C1142 1.548 . S
C2668 C665 1.542 . S
C2679 C718 1.552 . S
C2684 C1089 1.544 . S
C2695 C771 1.542 . S
C2700 C1248 1.545 . S
C2711 C824 1.550 . S
C2716 C1195 1.543 . S
