# Generated by pormake.
# Topology smc, (6)-cn, num edge types: 1
# Building blocks:
#     Node 0, Type 0, BuildingBlock: IZENUY_clean_sbu_0, # of connection points: 6
#     Node 1, Type 0, BuildingBlock: IZENUY_clean_sbu_0, # of connection points: 6
#     Node 2, Type 0, BuildingBlock: IZENUY_clean_sbu_0, # of connection points: 6
#     Node 3, Type 0, BuildingBlock: IZENUY_clean_sbu_0, # of connection points: 6
#     Node 4, Type 0, BuildingBlock: IZENUY_clean_sbu_0, # of connection points: 6
#     Node 5, Type 0, BuildingBlock: IZENUY_clean_sbu_0, # of connection points: 6
#     Node 6, Type 0, BuildingBlock: IZENUY_clean_sbu_0, # of connection points: 6
#     Node 7, Type 0, BuildingBlock: IZENUY_clean_sbu_0, # of connection points: 6
#     Node 8, Type 0, BuildingBlock: IZENUY_clean_sbu_0, # of connection points: 6
#     Edge 9, Type (0, 0), BuildingBlock: KIFKEQ_clean_linker_1, # of connection points: 2
#     Edge 10, Type (0, 0), BuildingBlock: KIFKEQ_clean_linker_1, # of connection points: 2
#     Edge 11, Type (0, 0), BuildingBlock: KIFKEQ_clean_linker_1, # of connection points: 2
#     Edge 12, Type (0, 0), BuildingBlock: KIFKEQ_clean_linker_1, # of connection points: 2
#     Edge 13, Type (0, 0), BuildingBlock: KIFKEQ_clean_linker_1, # of connection points: 2
#     Edge 14, Type (0, 0), BuildingBlock: KIFKEQ_clean_linker_1, # of connection points: 2
#     Edge 15, Type (0, 0), BuildingBlock: KIFKEQ_clean_linker_1, # of connection points: 2
#     Edge 16, Type (0, 0), BuildingBlock: KIFKEQ_clean_linker_1, # of connection points: 2
#     Edge 17, Type (0, 0), BuildingBlock: KIFKEQ_clean_linker_1, # of connection points: 2
#     Edge 18, Type (0, 0), BuildingBlock: KIFKEQ_clean_linker_1, # of connection points: 2
#     Edge 19, Type (0, 0), BuildingBlock: KIFKEQ_clean_linker_1, # of connection points: 2
#     Edge 20, Type (0, 0), BuildingBlock: KIFKEQ_clean_linker_1, # of connection points: 2
#     Edge 21, Type (0, 0), BuildingBlock: KIFKEQ_clean_linker_1, # of connection points: 2
#     Edge 22, Type (0, 0), BuildingBlock: KIFKEQ_clean_linker_1, # of connection points: 2
#     Edge 23, Type (0, 0), BuildingBlock: KIFKEQ_clean_linker_1, # of connection points: 2
#     Edge 24, Type (0, 0), BuildingBlock: KIFKEQ_clean_linker_1, # of connection points: 2
#     Edge 25, Type (0, 0), BuildingBlock: KIFKEQ_clean_linker_1, # of connection points: 2
#     Edge 26, Type (0, 0), BuildingBlock: KIFKEQ_clean_linker_1, # of connection points: 2
#     Edge 27, Type (0, 0), BuildingBlock: KIFKEQ_clean_linker_1, # of connection points: 2
#     Edge 28, Type (0, 0), BuildingBlock: KIFKEQ_clean_linker_1, # of connection points: 2
#     Edge 29, Type (0, 0), BuildingBlock: KIFKEQ_clean_linker_1, # of connection points: 2
#     Edge 30, Type (0, 0), BuildingBlock: KIFKEQ_clean_linker_1, # of connection points: 2
#     Edge 31, Type (0, 0), BuildingBlock: KIFKEQ_clean_linker_1, # of connection points: 2
#     Edge 32, Type (0, 0), BuildingBlock: KIFKEQ_clean_linker_1, # of connection points: 2
#     Edge 33, Type (0, 0), BuildingBlock: KIFKEQ_clean_linker_1, # of connection points: 2
#     Edge 34, Type (0, 0), BuildingBlock: KIFKEQ_clean_linker_1, # of connection points: 2
#     Edge 35, Type (0, 0), BuildingBlock: KIFKEQ_clean_linker_1, # of connection points: 2
# Relax obj value: 0.289
# Max RMSD: 0.292
# Mean RMSD: 0.291
data_MOF--net-smc--node1-IZENUY_clean_sbu_0--edge1-KIFKEQ_clean_linker_1
_symmetry_space_group_name_H-M    P1
_symmetry_Int_Tables_number       1
_symmetry_cell_setting            triclinic
loop_
_symmetry_equiv_pos_as_xyz
'x, y, z'
_cell_length_a     29.552443
_cell_length_b     29.678737
_cell_length_c     45.238437
_cell_angle_alpha  90.350873
_cell_angle_beta   90.109665
_cell_angle_gamma 119.94127
loop_
_atom_site_label
_atom_site_type_symbol
_atom_site_fract_x
_atom_site_fract_y
_atom_site_fract_z
_atom_type_partial_charge
Fe0 Fe 0.05899 0.49473 0.9942 0.0
Fe1 Fe 1.0141 0.38421 0.01796 0.0
O2 O 0.01468 0.44405 0.0172 0.0
Fe3 Fe 0.97128 0.45381 0.03948 0.0
O4 O 0.9417 0.46366 0.00751 0.0
O5 O 0.01485 0.52216 0.98749 0.0
O6 O 0.03117 0.45545 0.9616 0.0
C7 C 0.0285 0.41228 0.95711 0.0
C8 C 0.06677 0.55062 0.04316 0.0
O9 O 0.03212 0.38653 0.97849 0.0
C10 C 1.00047 0.40306 0.0781 0.0
O11 O 0.11121 0.47745 0.99714 0.0
O12 O 0.08094 0.41583 0.03036 0.0
O13 O 0.01716 0.52516 0.04522 0.0
O14 O 0.08956 0.53595 0.02558 0.0
C15 C 0.9097 0.35037 0.01811 0.0
O16 O 0.9962 0.37189 0.05745 0.0
O17 O 0.99788 0.4433 0.0728 0.0
C18 C 0.11896 0.45261 0.01748 0.0
O19 O 0.947 0.34874 1.00583 0.0
O20 O 0.91786 0.38526 0.03722 0.0
C21 C 0.9653 0.49972 0.98948 0.0
Fe22 Fe 0.64031 0.64061 0.01433 0.0
Fe23 Fe 0.53135 0.56427 0.98919 0.0
O24 O 0.58279 0.57898 0.01454 0.0
Fe25 Fe 0.57574 0.53155 0.0405 0.0
O26 O 0.61643 0.57729 0.06911 0.0
O27 O 0.632 0.65291 0.053 0.0
O28 O 0.6063 0.67595 1.00499 0.0
C29 C 0.559 0.66321 0.009 0.0
C30 C 0.67625 0.56904 0.02047 0.0
O31 O 0.52274 0.6169 1.00439 0.0
C32 C 0.53338 0.47313 0.98898 0.0
O33 O 0.65298 0.63359 0.97562 0.0
O34 O 0.57312 0.60565 0.95968 0.0
O35 O 0.63168 0.52962 0.02484 0.0
O36 O 0.68345 0.61471 0.02359 0.0
C37 C 0.47911 0.52246 0.04188 0.0
O38 O 0.53718 0.5101 0.97321 0.0
O39 O 0.53424 0.4764 0.01678 0.0
C40 C 0.62107 0.6237 0.95462 0.0
O41 O 0.4799 0.52062 0.01405 0.0
O42 O 0.51903 0.53181 0.05705 0.0
C43 C 0.6266 0.62317 0.07413 0.0
Fe44 Fe 0.45629 0.97058 0.99033 0.0
Fe45 Fe 0.38825 0.01306 0.01525 0.0
O46 O 0.44685 0.01054 0.01593 0.0
Fe47 Fe 0.49688 0.04787 0.04196 0.0
O48 O 0.54977 0.05706 0.01753 0.0
O49 O 0.51237 0.02808 0.97413 0.0
O50 O 0.41537 0.97343 0.96124 0.0
C51 C 0.4028 1.00724 0.95575 0.0
C52 C 0.49781 0.95616 0.04222 0.0
O53 O 0.39673 0.03223 0.9765 0.0
C54 C 0.40543 0.01641 0.0753 0.0
O55 O 0.40097 0.91241 1.00581 0.0
O56 O 0.34725 0.94388 1.0061 0.0
O57 O 0.49203 0.98852 0.05787 0.0
O58 O 0.49861 0.95903 0.01446 0.0
C59 C 0.46758 0.11769 0.02179 0.0
O60 O 0.37459 0.99431 0.05389 0.0
O61 O 0.45351 0.04637 0.07099 0.0
C62 C 0.3558 0.90643 0.00985 0.0
O63 O 0.42024 0.08245 0.02433 0.0
O64 O 0.50426 0.10842 0.02713 0.0
C65 C 0.55129 0.05974 0.98968 0.0
Fe66 Fe 0.64881 0.79851 0.3736 0.0
Fe67 Fe 0.67896 0.72093 0.34751 0.0
O68 O 0.68416 0.78303 0.34781 0.0
Fe69 Fe 0.7246 0.83042 0.32196 0.0
O70 O 0.73924 0.8857 0.34575 0.0
O71 O 0.70998 0.85196 0.38939 0.0
O72 O 0.64906 0.75653 0.40275 0.0
C73 C 0.67828 0.73757 0.40739 0.0
C74 C 0.6377 0.84051 0.32117 0.0
O75 O 0.69934 0.72722 0.38613 0.0
C76 C 0.6823 0.73922 0.2879 0.0
O77 O 0.5867 0.74662 0.35863 0.0
O78 O 0.60975 0.68656 0.35719 0.0
O79 O 0.66765 0.83083 0.30569 0.0
O80 O 0.64139 0.84278 0.34898 0.0
C81 C 0.78646 0.79129 0.34136 0.0
O82 O 0.65758 0.70936 0.30891 0.0
O83 O 0.71869 0.78473 0.29316 0.0
C84 C 0.57575 0.70018 0.35358 0.0
O85 O 0.74781 0.74588 0.33773 0.0
O86 O 0.78194 0.83118 0.3377 0.0
C87 C 0.74315 0.88873 0.37351 0.0
Fe88 Fe 0.24218 0.86516 0.36932 0.0
Fe89 Fe 0.31053 0.97609 0.34701 0.0
O90 O 0.25042 0.91713 0.34697 0.0
Fe91 Fe 0.19832 0.90977 0.32454 0.0
O92 O 0.15871 0.90001 0.35632 0.0
O93 O 0.17058 0.83916 0.37562 0.0
O94 O 0.25378 0.90353 0.40225 0.0
C95 C 0.29472 0.94611 0.40729 0.0
C96 C 0.19352 0.81137 0.31997 0.0
O97 O 0.32565 0.97155 0.38642 0.0
C98 C 0.27943 0.95961 0.28667 0.0
O99 O 0.31144 0.88097 0.36661 0.0
O100 O 0.34441 0.9437 0.33404 0.0
O101 O 0.17068 0.83812 0.31817 0.0
O102 O 0.23102 0.82488 0.33748 0.0
C103 C 0.24252 0.01295 0.34727 0.0
O104 O 0.30574 0.99054 0.30763 0.0
O105 O 0.23595 0.91989 0.2916 0.0
C106 C 0.34455 0.90605 0.34651 0.0
O107 O 0.27991 0.01184 0.3599 0.0
O108 O 0.21583 0.97931 0.32741 0.0
C109 C 0.1446 0.8628 0.37376 0.0
Fe110 Fe 0.05582 0.35055 0.35 0.0
Fe111 Fe 0.12941 0.31753 0.32178 0.0
O112 O 0.11736 0.35409 0.3485 0.0
Fe113 Fe 0.16762 0.39423 0.37363 0.0
O114 O 0.12452 0.38887 0.40375 0.0
O115 O 0.04637 0.33041 0.38855 0.0
O116 O 0.01885 0.28112 0.34019 0.0
C117 C 0.03168 0.24636 0.34249 0.0
C118 C 0.12854 0.45736 0.35609 0.0
O119 O 0.07815 0.25686 0.33754 0.0
C120 C 0.2207 0.41055 0.32037 0.0
O121 O 0.06029 0.3707 0.31165 0.0
O122 O 0.08465 0.31737 0.29386 0.0
O123 O 0.1683 0.45212 0.35934 0.0
O124 O 0.08299 0.41923 0.36001 0.0
C125 C 0.17768 0.3075 0.37239 0.0
O126 O 0.18205 0.37736 0.3052 0.0
O127 O 0.22041 0.40798 0.34818 0.0
C128 C 0.06716 0.34791 0.29001 0.0
O129 O 0.17591 0.30984 0.34462 0.0
O130 O 0.16917 0.3374 0.3887 0.0
C131 C 0.07801 0.35499 0.40925 0.0
Fe132 Fe 0.395 0.14595 0.65579 0.0
Fe133 Fe 0.35425 0.03732 0.68104 0.0
O134 O 0.35389 0.09652 0.68023 0.0
Fe135 Fe 0.31234 0.10644 0.70382 0.0
O136 O 0.27876 0.1135 0.67282 0.0
O137 O 0.3494 0.17224 0.65071 0.0
O138 O 0.36352 0.10455 0.62442 0.0
C139 C 0.36102 0.06146 0.62013 0.0
C140 C 0.40666 0.20434 0.70414 0.0
O141 O 0.3696 0.03828 0.64112 0.0
C142 C 0.34684 0.05941 0.74139 0.0
O143 O 0.44802 0.12919 0.65703 0.0
O144 O 0.42193 0.07038 0.69193 0.0
O145 O 0.35738 0.17825 0.70778 0.0
O146 O 0.42835 0.18905 0.68609 0.0
C147 C 0.25004 1.00245 0.684 0.0
O148 O 0.33907 0.02634 0.7211 0.0
O149 O 0.34383 0.09929 0.73588 0.0
C150 C 0.45821 0.10639 0.6776 0.0
O151 O 0.28648 1.00153 0.67021 0.0
O152 O 0.26002 0.03697 0.70374 0.0
C153 C 0.30012 0.14959 0.65453 0.0
Fe154 Fe 0.92767 0.20884 0.70705 0.0
Fe155 Fe 0.99383 0.31946 0.68381 0.0
O156 O 0.93522 0.25906 0.6835 0.0
Fe157 Fe 0.88372 0.24854 0.65947 0.0
O158 O 0.84165 0.23889 0.69017 0.0
O159 O 0.8554 0.18074 0.71156 0.0
O160 O 0.93621 0.24784 0.73939 0.0
C161 C 0.97608 0.2913 0.74455 0.0
C162 C 0.88302 0.15222 0.65776 0.0
O163 O 1.00688 0.31744 0.72377 0.0
C164 C 0.96648 0.2988 0.62299 0.0
O165 O 0.99768 0.22714 0.70615 0.0
O166 O 0.03147 0.2895 0.67327 0.0
O167 O 0.85859 0.17713 0.65452 0.0
O168 O 0.91985 0.16795 0.676 0.0
C169 C 0.92229 0.35143 0.68035 0.0
O170 O 0.99068 0.33144 0.64373 0.0
O171 O 0.92374 0.25819 0.62781 0.0
C172 C 0.03231 0.25312 0.68691 0.0
O173 O 0.95951 0.35279 0.69458 0.0
O174 O 0.89898 0.31737 0.6602 0.0
C175 C 0.82767 0.20227 0.70803 0.0
Fe176 Fe 0.77919 0.63526 0.65746 0.0
Fe177 Fe 0.71079 0.67816 0.68068 0.0
O178 O 0.7704 0.67789 0.68089 0.0
Fe179 Fe 0.82184 0.72027 0.7045 0.0
O180 O 0.86308 0.75194 0.67338 0.0
O181 O 0.85119 0.67976 0.6531 0.0
O182 O 0.77034 0.665 0.62522 0.0
C183 C 0.73058 0.6689 0.61997 0.0
C184 C 0.82605 0.626 0.70604 0.0
O185 O 0.69862 0.66302 0.6405 0.0
C186 C 0.73918 0.68728 0.74157 0.0
O187 O 0.70963 0.5831 0.65795 0.0
O188 O 0.67479 0.6109 0.69099 0.0
O189 O 0.84851 0.67521 0.70928 0.0
O190 O 0.78786 0.60329 0.68876 0.0
C191 C 0.77968 0.78209 0.68425 0.0
O192 O 0.71346 0.69336 0.72084 0.0
O193 O 0.78274 0.69084 0.73659 0.0
C194 C 0.67461 0.57412 0.67704 0.0
O195 O 0.74282 0.74539 0.67031 0.0
O196 O 0.80521 0.77289 0.70364 0.0
C197 C 0.87845 0.72894 0.65636 0.0
H198 H 0.39326 0.42935 0.05158 0.0
H199 H 0.45288 0.59453 0.05641 0.0
H200 H 0.30419 0.41414 0.0497 0.0
H201 H 0.36374 0.57978 0.05446 0.0
H202 H 0.21351 0.53155 0.99759 0.0
H203 H 0.30089 0.55022 0.01254 0.0
H204 H 0.2327 0.42056 0.07254 0.0
H205 H 0.14594 0.40152 0.05751 0.0
C206 C 0.38702 0.4622 0.05404 0.0
C207 C 0.42975 0.51297 0.05494 0.0
C208 C 0.33602 0.45365 0.05252 0.0
C209 C 0.32684 0.49583 0.0514 0.0
C210 C 0.3695 0.5465 0.05484 0.0
C211 C 0.42048 0.55494 0.05666 0.0
C212 C 0.2172 0.50703 0.01393 0.0
C213 C 0.17255 0.46468 0.026 0.0
C214 C 0.26728 0.51807 0.02278 0.0
C215 C 0.27382 0.48692 0.04385 0.0
C216 C 0.22915 0.44506 0.05613 0.0
C217 C 0.1793 0.43418 0.04741 0.0
H218 H 0.42759 0.86002 0.06155 0.0
H219 H 0.59132 0.96183 0.04539 0.0
H220 H 0.4403 0.78468 0.05908 0.0
H221 H 0.60434 0.88758 0.0417 0.0
H222 H 0.62381 0.74953 0.04071 0.0
H223 H 0.60828 0.81722 0.05941 0.0
H224 H 0.45318 0.73765 0.02112 0.0
H225 H 0.46806 0.66776 1.00388 0.0
C226 C 0.46683 0.8664 0.05906 0.0
C227 C 0.5088 0.91685 0.05456 0.0
C228 C 0.47397 0.82314 0.05679 0.0
C229 C 0.52322 0.82947 0.04961 0.0
C230 C 0.56589 0.88054 0.04762 0.0
C231 C 0.55871 0.92355 0.05008 0.0
C232 C 0.58631 0.74638 0.03622 0.0
C233 C 0.54759 0.70375 0.02014 0.0
C234 C 0.57737 0.78545 0.04698 0.0
C235 C 0.52975 0.7839 0.0415 0.0
C236 C 0.49026 0.74029 0.02613 0.0
C237 C 0.4989 0.7004 0.01586 0.0
H238 H 0.35217 0.81209 0.0137 0.0
H239 H 0.25936 0.88557 0.02818 0.0
H240 H 0.27921 0.72945 0.02985 0.0
H241 H 0.1874 0.8038 0.04536 0.0
H242 H 0.05165 0.63241 0.03271 0.0
H243 H 0.1224 0.72183 0.02788 0.0
H244 H 0.228 0.68091 0.07032 0.0
H245 H 0.15741 0.59107 0.07364 0.0
C246 C 0.31632 0.81069 0.0204 0.0
C247 C 0.31154 0.85541 0.01915 0.0
C248 C 0.27454 0.76339 0.03008 0.0
C249 C 0.22711 0.75969 0.03913 0.0
C250 C 0.2228 0.80471 0.03823 0.0
C251 C 0.26429 0.85177 0.02832 0.0
C252 C 0.08932 0.64314 0.04221 0.0
C253 C 0.09898 0.60483 0.0535 0.0
C254 C 0.13031 0.69446 0.03921 0.0
C255 C 0.18163 0.7085 0.04784 0.0
C256 C 0.18954 0.67129 0.06248 0.0
C257 C 0.14876 0.62001 0.0651 0.0
H258 H 0.55769 0.21274 0.02877 0.0
H259 H 0.4033 0.14006 0.9901 0.0
H260 H 0.57341 0.29748 0.01186 0.0
H261 H 0.41959 0.22353 0.97198 0.0
H262 H 0.43899 0.38681 0.98563 0.0
H263 H 0.42427 0.29901 0.98966 0.0
H264 H 0.58808 0.35611 0.97314 0.0
H265 H 0.60249 0.4446 0.97029 0.0
C266 C 0.52728 0.21482 0.0165 0.0
C267 C 0.47884 0.16977 0.01144 0.0
C268 C 0.53644 0.26336 0.00642 0.0
C269 C 0.49765 0.26788 0.99058 0.0
C270 C 0.45002 0.22225 0.98466 0.0
C271 C 0.44063 0.17414 0.99512 0.0
C272 C 0.47119 0.3801 0.9812 0.0
C273 C 0.52154 0.42231 0.97683 0.0
C274 C 0.46302 0.32963 0.98387 0.0
C275 C 0.50513 0.32003 0.98225 0.0
C276 C 0.55482 0.36188 0.97518 0.0
C277 C 0.56295 0.41252 0.97268 0.0
H278 H 0.63617 0.05601 0.96931 0.0
H279 H 0.57646 0.15958 0.98576 0.0
H280 H 0.72515 0.12959 0.97046 0.0
H281 H 0.66423 0.23226 0.99013 0.0
H282 H 0.83013 0.3624 0.99706 0.0
H283 H 0.74514 0.29466 0.97904 0.0
H284 H 0.78392 0.1778 1.00544 0.0
H285 H 0.87011 0.24619 0.02069 0.0
C286 C 0.64214 0.09491 0.97204 0.0
C287 C 0.59951 0.10225 0.97713 0.0
C288 C 0.69329 0.13717 0.9737 0.0
C289 C 0.70289 0.18735 0.98168 0.0
C290 C 0.65958 0.19493 0.98394 0.0
C291 C 0.60869 0.153 0.98134 0.0
C292 C 0.81993 0.32205 0.99906 0.0
C293 C 0.8561 0.30928 0.01062 0.0
C294 C 0.7711 0.28292 0.98872 0.0
C295 C 0.75665 0.22987 0.99051 0.0
C296 C 0.79326 0.21768 1.00264 0.0
C297 C 0.84257 0.25688 0.01203 0.0
H298 H 0.87612 0.45119 0.95764 0.0
H299 H 0.98131 0.59701 1.00011 0.0
H300 H 0.80595 0.47159 0.9604 0.0
H301 H 0.9109 0.61687 1.00434 0.0
H302 H 0.77342 0.6447 1.00328 0.0
H303 H 0.84616 0.63473 0.9866 0.0
H304 H 0.75422 0.46907 1.00085 0.0
H305 H 0.6808 0.47889 0.01654 0.0
C306 C 0.88483 0.48881 0.96635 0.0
C307 C 0.93429 0.52267 0.97855 0.0
C308 C 0.84425 0.49997 0.96866 0.0
C309 C 0.852 0.54503 0.98359 0.0
C310 C 0.90313 0.58166 0.99278 0.0
C311 C 0.94394 0.57065 0.99011 0.0
C312 C 0.76867 0.60607 1.00295 0.0
C313 C 0.72121 0.56261 0.01159 0.0
C314 C 0.81058 0.6004 0.99333 0.0
C315 C 0.80638 0.55111 0.99215 0.0
C316 C 0.75881 0.50761 1.00078 0.0
C317 C 0.71674 0.51325 0.01021 0.0
H318 H 0.84011 0.74815 0.31637 0.0
H319 H 0.8437 0.84341 0.38954 0.0
H320 H 0.92286 0.75674 0.33302 0.0
H321 H 0.92513 0.8507 0.40712 0.0
H322 H 0.10331 0.91619 0.39892 0.0
H323 H 1.01273 0.89352 0.39526 0.0
H324 H 0.97137 0.73791 0.36734 0.0
H325 H 0.0635 0.76199 0.37028 0.0
C326 C 0.85882 0.77098 0.33604 0.0
C327 C 0.83687 0.79698 0.35098 0.0
C328 C 0.90585 0.77531 0.34593 0.0
C329 C 0.93136 0.80477 0.37144 0.0
C330 C 0.90775 0.82888 0.38699 0.0
C331 C 0.86129 0.82523 0.37678 0.0
C332 C 0.07453 0.87639 0.39331 0.0
C333 C 0.09059 0.84102 0.38462 0.0
C334 C 0.02227 0.8633 0.391 0.0
C335 C 0.98438 0.81416 0.38015 0.0
C336 C 0.99961 0.77668 0.37487 0.0
C337 C 0.0523 0.79001 0.37713 0.0
H338 H 0.11358 0.21345 0.39658 0.0
H339 H 0.2724 0.31517 0.36984 0.0
H340 H 0.12756 0.13864 0.39312 0.0
H341 H 0.28726 0.24144 0.36727 0.0
H342 H 0.15733 0.02386 0.33343 0.0
H343 H 0.14243 0.09526 0.34796 0.0
H344 H 0.29022 0.1703 0.39427 0.0
H345 H 0.3052 0.09985 0.3799 0.0
C346 C 0.15218 0.22005 0.39141 0.0
C347 C 0.19214 0.2701 0.38394 0.0
C348 C 0.15997 0.17722 0.38891 0.0
C349 C 0.2083 0.18394 0.37946 0.0
C350 C 0.24962 0.2348 0.37472 0.0
C351 C 0.24144 0.27728 0.37665 0.0
C352 C 0.18662 0.05565 0.34665 0.0
C353 C 0.23266 0.05616 0.35518 0.0
C354 C 0.17783 0.09625 0.35529 0.0
C355 C 0.21513 0.13846 0.37238 0.0
C356 C 0.26085 0.13863 0.38101 0.0
C357 C 0.26937 0.09805 0.37268 0.0
H358 H 0.04555 0.16634 0.36143 0.0
H359 H 0.92586 0.20594 0.34465 0.0
H360 H 0.98009 0.0825 0.38052 0.0
H361 H 0.85973 0.12075 0.36133 0.0
H362 H 0.74322 0.97228 0.3998 0.0
H363 H 0.81687 0.06145 0.39825 0.0
H364 H 0.91567 1.0029 0.36597 0.0
H365 H 0.84351 0.91556 0.36914 0.0
C366 C 1.00518 0.15699 0.36156 0.0
C367 C 0.99122 0.19312 0.35153 0.0
C368 C 0.96728 0.10853 0.3724 0.0
C369 C 0.91395 0.09409 0.37272 0.0
C370 C 0.90016 0.13032 0.36235 0.0
C371 C 0.93821 0.17918 0.35221 0.0
C372 C 0.78158 0.97867 0.39416 0.0
C373 C 0.78789 0.93675 0.38535 0.0
C374 C 0.82366 0.0299 0.39242 0.0
C375 C 0.87253 0.04018 0.3812 0.0
C376 C 0.87946 0.99752 0.37503 0.0
C377 C 0.83782 0.94674 0.37715 0.0
H378 H 0.09718 0.73116 0.33327 0.0
H379 H 0.23918 0.76861 0.28756 0.0
H380 H 0.07837 0.64191 0.33929 0.0
H381 H 0.2197 0.67891 0.29215 0.0
H382 H 0.05094 0.47752 0.34071 0.0
H383 H 0.05902 0.55837 0.32307 0.0
H384 H 0.22669 0.63339 0.33307 0.0
H385 H 0.21864 0.55174 0.34974 0.0
C386 C 0.12274 0.71949 0.32295 0.0
C387 C 0.16953 0.75681 0.30994 0.0
C388 C 0.11239 0.66829 0.32667 0.0
C389 C 0.14843 0.65334 0.31708 0.0
C390 C 0.19192 0.68929 0.30075 0.0
C391 C 0.20245 0.74045 0.29738 0.0
C392 C 0.08964 0.51129 0.3393 0.0
C393 C 0.13417 0.50807 0.34701 0.0
C394 C 0.09421 0.55782 0.32911 0.0
C395 C 0.14346 0.60272 0.32643 0.0
C396 C 0.18806 0.5995 0.33419 0.0
C397 C 0.1835 0.55277 0.34419 0.0
H398 H 0.24584 0.50718 0.30258 0.0
H399 H 0.30784 0.40443 0.31414 0.0
H400 H 0.33419 0.58228 0.30479 0.0
H401 H 0.39546 0.47838 0.31762 0.0
H402 H 0.55323 0.61595 0.31977 0.0
H403 H 0.46945 0.54966 0.3006 0.0
H404 H 0.39528 0.62721 0.3426 0.0
H405 H 0.48065 0.69587 0.36025 0.0
C406 C 0.27872 0.50062 0.30396 0.0
C407 C 0.2702 0.44995 0.30733 0.0
C408 C 0.32934 0.54371 0.3061 0.0
C409 C 0.37244 0.53696 0.31202 0.0
C410 C 0.36391 0.48578 0.31271 0.0
C411 C 0.31348 0.44293 0.31035 0.0
C412 C 0.51905 0.61895 0.32496 0.0
C413 C 0.52349 0.6606 0.34219 0.0
C414 C 0.47073 0.58069 0.31393 0.0
C415 C 0.42486 0.58203 0.32033 0.0
C416 C 0.42952 0.62476 0.33685 0.0
C417 C 0.4784 0.66391 0.34737 0.0
H418 H 0.42181 0.9566 0.30614 0.0
H419 H 0.36056 0.82724 0.36652 0.0
H420 H 0.48972 0.9382 0.29118 0.0
H421 H 0.42972 0.80921 0.3516 0.0
H422 H 0.53929 0.76716 0.30719 0.0
H423 H 0.46388 0.7802 0.30972 0.0
H424 H 0.56815 0.94631 0.31426 0.0
H425 H 0.64298 0.93279 0.3119 0.0
C426 C 0.42279 0.92419 0.31636 0.0
C427 C 0.38584 0.89376 0.33791 0.0
C428 C 0.46192 0.91369 0.30768 0.0
C429 C 0.46532 0.87232 0.32015 0.0
C430 C 0.42783 0.84106 0.34126 0.0
C431 C 0.38853 0.85169 0.35008 0.0
C432 C 0.54582 0.80648 0.30707 0.0
C433 C 0.59686 0.84908 0.30854 0.0
C434 C 0.50271 0.81394 0.30922 0.0
C435 C 0.50993 0.86425 0.31269 0.0
C436 C 0.56104 0.90704 0.31142 0.0
C437 C 0.60405 0.89947 0.3096 0.0
H438 H 0.77851 0.24409 0.73831 0.0
H439 H 0.75131 0.10565 0.69178 0.0
H440 H 0.68594 0.21763 0.73293 0.0
H441 H 0.65916 0.08041 0.685 0.0
H442 H 0.54097 0.13397 0.63991 0.0
H443 H 0.62844 0.14904 0.65309 0.0
H444 H 0.58482 0.12434 0.74496 0.0
H445 H 0.49729 0.10758 0.73186 0.0
C446 C 0.7522 0.20682 0.72812 0.0
C447 C 0.77188 0.17645 0.71585 0.0
C448 C 0.69952 0.19216 0.7246 0.0
C449 C 0.66593 0.1476 0.70806 0.0
C450 C 0.68456 0.11523 0.69761 0.0
C451 C 0.737 0.12919 0.70189 0.0
C452 C 0.55023 0.13194 0.66286 0.0
C453 C 0.51239 0.11953 0.68483 0.0
C454 C 0.59992 0.14005 0.67037 0.0
C455 C 0.61288 0.13721 0.7 0.0
C456 C 0.57556 0.12627 0.72198 0.0
C457 C 0.52565 0.11684 0.71444 0.0
H458 H 0.88294 0.39523 0.64219 0.0
H459 H 0.9318 0.40032 0.73277 0.0
H460 H 0.86683 0.46727 0.65285 0.0
H461 H 0.91443 0.47118 0.74348 0.0
H462 H 0.80229 0.54886 0.74574 0.0
H463 H 0.82776 0.48188 0.74142 0.0
H464 H 0.93138 0.56689 0.67001 0.0
H465 H 0.90661 0.63357 0.67463 0.0
C466 C 0.88972 0.41136 0.66437 0.0
C467 C 0.90891 0.39242 0.68657 0.0
C468 C 0.88087 0.4527 0.67043 0.0
C469 C 0.88984 0.47492 0.69895 0.0
C470 C 0.90736 0.45483 0.72134 0.0
C471 C 0.91738 0.41443 0.71514 0.0
C472 C 0.83256 0.55444 0.73026 0.0
C473 C 0.85411 0.5975 0.71137 0.0
C474 C 0.84656 0.51588 0.72748 0.0
C475 C 0.88106 0.51909 0.70514 0.0
C476 C 0.90457 0.56344 0.68732 0.0
C477 C 0.89137 0.60232 0.69049 0.0
H478 H 0.66889 0.48191 0.66138 0.0
H479 H 0.58403 0.5448 0.707 0.0
H480 H 0.60119 0.39418 0.67482 0.0
H481 H 0.51674 0.45727 0.72049 0.0
H482 H 0.38229 0.282 0.70151 0.0
H483 H 0.44696 0.37459 0.69688 0.0
H484 H 0.56937 0.34234 0.721 0.0
H485 H 0.50504 0.25031 0.72519 0.0
C486 C 0.63571 0.47705 0.67406 0.0
C487 C 0.632 0.52041 0.68308 0.0
C488 C 0.59719 0.42687 0.68206 0.0
C489 C 0.5539 0.41888 0.69907 0.0
C490 C 0.54953 0.46212 0.70742 0.0
C491 C 0.58824 0.51228 0.69968 0.0
C492 C 0.42265 0.29517 0.70708 0.0
C493 C 0.43876 0.25909 0.71354 0.0
C494 C 0.45983 0.34807 0.70412 0.0
C495 C 0.51346 0.3654 0.70765 0.0
C496 C 0.52856 0.32995 0.7173 0.0
C497 C 0.49161 0.27742 0.72024 0.0
H498 H 0.72211 0.81201 0.65096 0.0
H499 H 0.86459 0.87414 0.70229 0.0
H500 H 0.74387 0.8997 0.63711 0.0
H501 H 0.88602 0.96209 0.68859 0.0
H502 H 0.93912 0.10815 0.64017 0.0
H503 H 0.9117 0.01627 0.6438 0.0
H504 H 0.75308 0.98084 0.65896 0.0
H505 H 0.7807 0.07326 0.6545 0.0
C506 C 0.758 0.84439 0.65948 0.0
C507 C 0.7917 0.83595 0.6778 0.0
C508 C 0.77032 0.89469 0.65152 0.0
C509 C 0.81688 0.93784 0.66142 0.0
C510 C 0.85024 0.92954 0.6801 0.0
C511 C 0.83775 0.87919 0.68825 0.0
C512 C 0.89798 0.08048 0.64309 0.0
C513 C 0.86216 0.09794 0.64766 0.0
C514 C 0.88246 0.02795 0.64571 0.0
C515 C 0.83067 0.99155 0.65284 0.0
C516 C 0.79349 1.00808 0.65385 0.0
C517 C 0.80915 0.06099 0.65113 0.0
H518 H 0.95019 0.72108 0.68901 0.0
H519 H 0.93357 0.80525 0.61646 0.0
H520 H 0.04201 0.78703 0.69411 0.0
H521 H 0.02641 0.87147 0.62127 0.0
H522 H 0.21188 0.95177 0.6318 0.0
H523 H 0.12358 0.8809 0.62068 0.0
H524 H 0.07778 0.88724 0.7104 0.0
H525 H 0.16598 0.95929 0.72145 0.0
C526 C 0.96693 0.75202 0.67298 0.0
C527 C 0.93521 0.7569 0.65154 0.0
C528 C 0.01922 0.79047 0.67639 0.0
C529 C 0.04103 0.83448 0.65828 0.0
C530 C 1.01047 0.83773 0.63543 0.0
C531 C 0.95767 0.79959 0.63239 0.0
C532 C 0.18291 0.93812 0.64916 0.0
C533 C 0.19585 0.96086 0.67759 0.0
C534 C 0.13244 0.89773 0.64271 0.0
C535 C 0.09418 0.87839 0.66473 0.0
C536 C 0.10689 0.90123 0.69312 0.0
C537 C 0.15712 0.94255 0.69941 0.0
H538 H 0.20126 0.098 0.634 0.0
H539 H 0.32457 0.25157 0.65809 0.0
H540 H 0.13703 0.12601 0.63972 0.0
H541 H 0.26002 0.27984 0.66422 0.0
H542 H 0.12285 0.31433 0.657 0.0
H543 H 0.18991 0.29374 0.6423 0.0
H544 H 0.10552 0.14581 0.68621 0.0
H545 H 0.03815 0.16624 0.70088 0.0
C546 C 0.21485 0.13845 0.63932 0.0
C547 C 0.26793 0.1726 0.64565 0.0
C548 C 0.17792 0.15422 0.64318 0.0
C549 C 0.19318 0.20463 0.65337 0.0
C550 C 0.24694 0.24056 0.65656 0.0
C551 C 0.28408 0.22464 0.65271 0.0
C552 C 0.11865 0.27746 0.66371 0.0
C553 C 0.07499 0.24189 0.6802 0.0
C554 C 0.15723 0.26578 0.65526 0.0
C555 C 0.15285 0.21795 0.66274 0.0
C556 C 0.10963 0.18269 0.67962 0.0
C557 C 0.07127 0.19459 0.68834 0.0
H558 H 0.06393 0.43135 0.26702 0.0
H559 H 0.03696 0.27819 0.24475 0.0
H560 H 0.04653 0.4435 0.21577 0.0
H561 H 0.01682 0.28883 0.1941 0.0
H562 H 0.0418 0.34506 0.09907 0.0
H563 H 0.05627 0.33163 0.15056 0.0
H564 H 0.98355 0.42002 0.17871 0.0
H565 H 0.97177 0.43552 0.12734 0.0
C566 C 0.05333 0.39996 0.25125 0.0
C567 C 0.05207 0.354 0.2598 0.0
C568 C 0.04314 0.40673 0.22187 0.0
C569 C 0.03052 0.36725 0.20055 0.0
C570 C 0.02767 0.32065 0.20955 0.0
C571 C 0.03879 0.31433 0.23871 0.0
C572 C 0.02866 0.36124 0.11633 0.0
C573 C 1.00575 0.39134 0.10919 0.0
C574 C 0.03672 0.35344 0.1459 0.0
C575 C 0.02117 0.37479 0.16901 0.0
C576 C 0.99712 0.40389 0.16168 0.0
C577 C 0.98994 0.41243 0.13216 0.0
H578 H 0.73274 0.79445 0.23909 0.0
H579 H 0.60711 0.64413 0.26584 0.0
H580 H 0.7166 0.76701 0.18777 0.0
H581 H 0.59034 0.61685 0.2139 0.0
H582 H 0.62373 0.56917 0.12318 0.0
H583 H 0.63365 0.59669 0.17446 0.0
H584 H 0.65375 0.74504 0.14766 0.0
H585 H 0.64459 0.71769 0.09579 0.0
C586 C 0.70146 0.75547 0.23405 0.0
C587 C 0.67149 0.72126 0.25671 0.0
C588 C 0.69192 0.73998 0.20449 0.0
C589 C 0.65214 0.68986 0.19669 0.0
C590 C 0.6217 0.65563 0.21925 0.0
C591 C 0.63123 0.6712 0.24898 0.0
C592 C 0.63034 0.60778 0.12806 0.0
C593 C 0.6338 0.64144 0.10526 0.0
C594 C 0.63549 0.6233 0.15759 0.0
C595 C 0.64424 0.6729 0.1652 0.0
C596 C 0.64751 0.70666 0.14247 0.0
C597 C 0.64229 0.69106 0.11278 0.0
H598 H 0.46293 0.05067 0.12605 0.0
H599 H 0.30354 0.967 0.0942 0.0
H600 H 0.43214 0.03904 0.17659 0.0
H601 H 0.27253 0.95681 0.14505 0.0
H602 H 0.23867 0.89462 0.23922 0.0
H603 H 0.26812 0.90998 0.18845 0.0
H604 H 0.39015 0.06486 0.21238 0.0
H605 H 0.36145 0.04874 0.26382 0.0
C606 C 0.42119 0.0302 0.12979 0.0
C607 C 0.38568 0.00972 0.10599 0.0
C608 C 0.40354 0.0239 0.15888 0.0
C609 C 0.34985 0.99717 0.16501 0.0
C610 C 0.31421 0.97706 0.14118 0.0
C611 C 0.33193 0.98307 0.112 0.0
C612 C 0.27169 0.93215 0.23374 0.0
C613 C 0.29766 0.97055 0.25566 0.0
C614 C 0.28836 0.94106 0.20446 0.0
C615 C 0.33133 0.98875 0.19617 0.0
C616 C 0.35723 0.02741 0.21804 0.0
C617 C 0.3407 0.01832 0.24751 0.0
H618 H 0.36186 0.06579 0.93375 0.0
H619 H 0.42107 0.96483 0.90705 0.0
H620 H 0.34546 0.0759 0.88186 0.0
H621 H 0.40627 0.97611 0.85568 0.0
H622 H 0.3294 0.96836 0.7671 0.0
H623 H 0.3393 0.95432 0.81939 0.0
H624 H 0.39347 0.1165 0.83791 0.0
H625 H 0.38232 0.13007 0.78625 0.0
C626 C 0.37144 0.04589 0.91688 0.0
C627 C 0.39252 0.01437 0.92459 0.0
C628 C 0.36229 0.05181 0.88715 0.0
C629 C 0.37439 0.02661 0.86458 0.0
C630 C 0.39549 0.99522 0.87243 0.0
C631 C 0.40433 0.9891 0.902 0.0
C632 C 0.34349 1.0009 0.78239 0.0
C633 C 0.35477 0.05016 0.77256 0.0
C634 C 0.34924 0.99297 0.81232 0.0
C635 C 0.36682 0.03427 0.83291 0.0
C636 C 0.37871 0.08358 0.82287 0.0
C637 C 0.37267 0.09139 0.79313 0.0
H638 H 0.01498 0.31874 0.93683 0.0
H639 H 0.03485 0.46564 0.90699 0.0
H640 H 1.00751 0.2898 0.88536 0.0
H641 H 0.02685 0.43658 0.85603 0.0
H642 H 0.0539 0.38533 0.76593 0.0
H643 H 0.0715 0.41426 0.81757 0.0
H644 H 0.94305 0.26653 0.84508 0.0
H645 H 0.92581 0.23747 0.79394 0.0
C646 C 0.01797 0.34489 0.91938 0.0
C647 C 0.02535 0.3944 0.9261 0.0
C648 C 1.01353 0.32829 0.88992 0.0
C649 C 0.01671 0.36099 0.86662 0.0
C650 C 0.02499 0.41075 0.87339 0.0
C651 C 0.02912 0.42718 0.90272 0.0
C652 C 0.02969 0.35897 0.78303 0.0
C653 C 0.9884 0.30919 0.77573 0.0
C654 C 0.03963 0.37557 0.81258 0.0
C655 C 1.0087 0.34259 0.83541 0.0
C656 C 0.96807 0.29258 0.8281 0.0
C657 C 0.95796 0.27614 0.79866 0.0
H658 H 0.77883 0.66008 0.78798 0.0
H659 H 0.65815 0.69606 0.76563 0.0
H660 H 0.75106 0.64724 0.83902 0.0
H661 H 0.63098 0.68445 0.81742 0.0
H662 H 0.56114 0.6006 0.90484 0.0
H663 H 0.58937 0.61783 0.85379 0.0
H664 H 0.7504 0.69237 0.88265 0.0
H665 H 0.72197 0.67365 0.93399 0.0
C666 C 0.74655 0.66576 0.79399 0.0
C667 C 0.72083 0.67934 0.77262 0.0
C668 C 0.73086 0.65872 0.82345 0.0
C669 C 0.6891 0.66526 0.83252 0.0
C670 C 0.66308 0.67867 0.81117 0.0
C671 C 0.67869 0.68549 0.78149 0.0
C672 C 0.60266 0.62084 0.9004 0.0
C673 C 0.63932 0.63567 0.92361 0.0
C674 C 0.61883 0.63107 0.87103 0.0
C675 C 0.67214 0.65659 0.86399 0.0
C676 C 0.70893 0.67199 0.88721 0.0
C677 C 0.69271 0.66149 0.91668 0.0
H678 H 0.72694 0.68488 0.42736 0.0
H679 H 0.64405 0.76207 0.45753 0.0
H680 H 0.73621 0.6647 0.47854 0.0
H681 H 0.6546 0.74335 0.50834 0.0
H682 H 0.64195 0.66274 0.59576 0.0
H683 H 0.6271 0.67547 0.54401 0.0
H684 H 0.78292 0.70792 0.52254 0.0
H685 H 0.79713 0.69394 0.57358 0.0
C686 C 0.71085 0.69765 0.44485 0.0
C687 C 0.68469 0.72498 0.43826 0.0
C688 C 0.71631 0.68629 0.47422 0.0
C689 C 0.69603 0.70231 0.49764 0.0
C690 C 0.66984 0.72952 0.49093 0.0
C691 C 0.66417 0.74061 0.46169 0.0
C692 C 0.67288 0.67246 0.57993 0.0
C693 C 0.72056 0.67706 0.58886 0.0
C694 C 0.66451 0.67994 0.55029 0.0
C695 C 0.70376 0.69248 0.529 0.0
C696 C 0.7514 0.69723 0.53808 0.0
C697 C 0.75963 0.68954 0.56753 0.0
H698 H 0.2257 0.92306 0.45165 0.0
H699 H 0.39107 1.00802 0.43325 0.0
H700 H 0.2435 0.94858 0.50347 0.0
H701 H 0.40886 0.03306 0.48584 0.0
H702 H 0.40042 1.0059 0.59204 0.0
H703 H 0.38781 0.97856 0.53966 0.0
H704 H 0.28732 0.04387 0.52772 0.0
H705 H 0.30046 0.07179 0.5793 0.0
C706 C 0.26595 0.94704 0.45872 0.0
C707 C 0.30705 0.96366 0.43839 0.0
C708 C 0.27602 0.96157 0.48838 0.0
C709 C 0.32747 0.9924 0.49854 0.0
C710 C 0.36887 0.00879 0.47844 0.0
C711 C 0.3587 0.99496 0.44843 0.0
C712 C 0.37544 0.01398 0.57816 0.0
C713 C 0.35137 0.04086 0.58962 0.0
C714 C 0.3687 0.9989 0.54827 0.0
C715 C 0.33685 0.00947 0.52981 0.0
C716 C 0.31209 0.03535 0.54153 0.0
C717 C 0.31961 0.05125 0.57101 0.0
H718 H 0.04145 0.39065 0.5983 0.0
H719 H 0.93285 0.22939 0.57757 0.0
H720 H 0.0671 0.40589 0.54625 0.0
H721 H 0.9591 0.24419 0.52628 0.0
H722 H 0.9785 0.29678 0.43109 0.0
H723 H 0.95189 0.28613 0.48285 0.0
H724 H 0.11277 0.38464 0.5096 0.0
H725 H 0.13908 0.39639 0.4582 0.0
C726 C 0.02337 0.3585 0.58274 0.0
C727 C 0.98488 0.30901 0.59205 0.0
C728 C 0.03804 0.36711 0.55295 0.0
C729 C 0.0147 0.32631 0.53201 0.0
C730 C 0.97693 0.27677 0.54158 0.0
C731 C 0.96218 0.26826 0.57113 0.0
C732 C 1.00808 0.31622 0.44803 0.0
C733 C 0.06083 0.34746 0.44045 0.0
C734 C 0.99293 0.31002 0.47771 0.0
C735 C 0.03026 0.33464 0.50041 0.0
C736 C 0.08291 0.36589 0.49273 0.0
C737 C 0.09798 0.37226 0.46317 0.0
loop_
_geom_bond_atom_site_label_1
_geom_bond_atom_site_label_2
_geom_bond_distance
_geom_bond_site_symmetry_2
_ccdc_geom_bond_type
Fe0 O2 1.918 1_556 S
Fe0 O5 1.997 1_455 S
Fe0 O6 2.002 . S
Fe0 O11 1.976 . S
Fe0 O14 1.996 1_556 S
Fe1 O2 1.918 . S
Fe1 O9 1.997 1_454 S
Fe1 O12 1.996 1_554 S
Fe1 O16 1.976 . S
Fe1 O19 2.002 1_455 S
O2 Fe0 1.918 1_554 S
O2 Fe1 1.918 . S
O2 Fe3 1.918 1_455 S
Fe3 O2 1.918 1_655 S
Fe3 O4 2.002 . S
Fe3 O13 1.976 1_655 S
Fe3 O17 1.996 . S
Fe3 O20 1.997 . S
O4 Fe3 2.002 . S
O4 C21 1.295 1_554 S
O5 Fe0 1.997 1_655 S
O5 C21 1.235 . S
O6 Fe0 2.002 . S
O6 C7 1.295 1_455 S
C7 O6 1.295 1_655 S
C7 O9 1.235 . S
C8 O13 1.287 . S
C8 O14 1.255 . S
O9 Fe1 1.997 1_656 S
O9 C7 1.235 . S
C10 O16 1.287 . S
C10 O17 1.255 1_455 S
O11 Fe0 1.976 . S
O11 C18 1.287 . S
O12 Fe1 1.996 1_556 S
O12 C18 1.255 . S
O13 Fe3 1.976 1_455 S
O13 C8 1.287 . S
O14 Fe0 1.996 1_554 S
O14 C8 1.255 . S
C15 O19 1.295 . S
C15 O20 1.235 . S
O16 Fe1 1.976 . S
O16 C10 1.287 . S
O17 Fe3 1.996 . S
O17 C10 1.255 1_655 S
C18 O11 1.287 . S
C18 O12 1.255 . S
O19 Fe1 2.002 1_655 S
O19 C15 1.295 . S
O20 Fe3 1.997 . S
O20 C15 1.235 . S
C21 O4 1.295 1_556 S
C21 O5 1.235 . S
Fe22 O24 1.918 . S
Fe22 O27 1.997 . S
Fe22 O28 2.002 1_554 S
Fe22 O33 1.976 1_554 S
Fe22 O36 1.996 . S
Fe23 O24 1.918 1_556 S
Fe23 O31 1.997 . S
Fe23 O34 1.996 . S
Fe23 O38 1.976 . S
Fe23 O41 2.002 1_556 S
O24 Fe22 1.918 . S
O24 Fe23 1.918 1_554 S
O24 Fe25 1.918 . S
Fe25 O24 1.918 . S
Fe25 O26 2.002 . S
Fe25 O35 1.976 . S
Fe25 O39 1.996 . S
Fe25 O42 1.997 . S
O26 Fe25 2.002 . S
O26 C43 1.295 . S
O27 Fe22 1.997 . S
O27 C43 1.235 . S
O28 Fe22 2.002 1_556 S
O28 C29 1.295 . S
C29 O28 1.295 . S
C29 O31 1.235 . S
C30 O35 1.287 . S
C30 O36 1.255 . S
O31 Fe23 1.997 . S
O31 C29 1.235 . S
C32 O38 1.287 . S
C32 O39 1.255 1_556 S
O33 Fe22 1.976 1_556 S
O33 C40 1.287 . S
O34 Fe23 1.996 . S
O34 C40 1.255 . S
O35 Fe25 1.976 . S
O35 C30 1.287 . S
O36 Fe22 1.996 . S
O36 C30 1.255 . S
C37 O41 1.295 . S
C37 O42 1.235 . S
O38 Fe23 1.976 . S
O38 C32 1.287 . S
O39 Fe25 1.996 . S
O39 C32 1.255 1_554 S
C40 O33 1.287 . S
C40 O34 1.255 . S
O41 Fe23 2.002 1_554 S
O41 C37 1.295 . S
O42 Fe25 1.997 . S
O42 C37 1.235 . S
C43 O26 1.295 . S
C43 O27 1.235 . S
Fe44 O46 1.918 1_566 S
Fe44 O49 1.997 1_565 S
Fe44 O50 2.002 . S
Fe44 O55 1.976 . S
Fe44 O58 1.996 1_556 S
Fe45 O46 1.918 . S
Fe45 O53 1.997 1_554 S
Fe45 O56 1.994 1_544 S
Fe45 O60 1.976 1_545 S
Fe45 O63 2.002 . S
O46 Fe44 1.918 1_544 S
O46 Fe45 1.918 . S
O46 Fe47 1.918 . S
Fe47 O46 1.918 . S
Fe47 O48 2.002 . S
Fe47 O57 1.976 1_545 S
Fe47 O61 1.996 . S
Fe47 O64 1.997 . S
O48 Fe47 2.002 . S
O48 C65 1.295 1_554 S
O49 Fe44 1.997 1_545 S
O49 C65 1.235 . S
O50 Fe44 2.002 . S
O50 C51 1.295 1_565 S
C51 O50 1.295 1_545 S
C51 O53 1.235 . S
C52 O57 1.287 . S
C52 O58 1.255 . S
O53 Fe45 1.997 1_556 S
O53 C51 1.235 . S
C54 O60 1.287 . S
C54 O61 1.255 1_565 S
O55 Fe44 1.976 . S
O55 C62 1.287 . S
O56 Fe45 1.994 1_566 S
O56 C62 1.257 . S
O57 Fe47 1.976 1_565 S
O57 C52 1.287 . S
O58 Fe44 1.996 1_554 S
O58 C52 1.255 . S
C59 O63 1.295 . S
C59 O64 1.235 . S
O60 Fe45 1.976 1_565 S
O60 C54 1.287 . S
O61 Fe47 1.996 . S
O61 C54 1.255 1_545 S
C62 O55 1.287 . S
C62 O56 1.257 . S
O63 Fe45 2.002 . S
O63 C59 1.295 . S
O64 Fe47 1.997 . S
O64 C59 1.235 . S
C65 O48 1.295 1_556 S
C65 O49 1.235 . S
Fe66 O68 1.918 . S
Fe66 O71 1.997 . S
Fe66 O72 2.002 . S
Fe66 O77 1.976 . S
Fe66 O80 1.996 . S
Fe67 O68 1.918 . S
Fe67 O75 1.997 . S
Fe67 O78 1.996 . S
Fe67 O82 1.976 . S
Fe67 O85 2.002 . S
O68 Fe66 1.918 . S
O68 Fe67 1.918 . S
O68 Fe69 1.918 . S
Fe69 O68 1.918 . S
Fe69 O70 2.002 . S
Fe69 O79 1.976 . S
Fe69 O83 1.996 . S
Fe69 O86 1.997 . S
O70 Fe69 2.002 . S
O70 C87 1.295 . S
O71 Fe66 1.997 . S
O71 C87 1.235 . S
O72 Fe66 2.002 . S
O72 C73 1.295 . S
C73 O72 1.295 . S
C73 O75 1.235 . S
C74 O79 1.287 . S
C74 O80 1.255 . S
O75 Fe67 1.997 . S
O75 C73 1.235 . S
C76 O82 1.287 . S
C76 O83 1.255 . S
O77 Fe66 1.976 . S
O77 C84 1.287 . S
O78 Fe67 1.996 . S
O78 C84 1.255 . S
O79 Fe69 1.976 . S
O79 C74 1.287 . S
O80 Fe66 1.996 . S
O80 C74 1.255 . S
C81 O85 1.295 . S
C81 O86 1.235 . S
O82 Fe67 1.976 . S
O82 C76 1.287 . S
O83 Fe69 1.996 . S
O83 C76 1.255 . S
C84 O77 1.287 . S
C84 O78 1.255 . S
O85 Fe67 2.002 . S
O85 C81 1.295 . S
O86 Fe69 1.997 . S
O86 C81 1.235 . S
C87 O70 1.295 . S
C87 O71 1.235 . S
Fe88 O90 1.918 . S
Fe88 O93 1.997 . S
Fe88 O94 2.002 . S
Fe88 O99 1.976 . S
Fe88 O102 1.996 . S
Fe89 O90 1.918 . S
Fe89 O97 1.997 . S
Fe89 O100 1.996 . S
Fe89 O104 1.976 . S
Fe89 O107 2.002 1_565 S
O90 Fe88 1.918 . S
O90 Fe89 1.918 . S
O90 Fe91 1.918 . S
Fe91 O90 1.918 . S
Fe91 O92 2.002 . S
Fe91 O101 1.976 . S
Fe91 O105 1.996 . S
Fe91 O108 1.997 . S
O92 Fe91 2.002 . S
O92 C109 1.295 . S
O93 Fe88 1.997 . S
O93 C109 1.235 . S
O94 Fe88 2.002 . S
O94 C95 1.295 . S
C95 O94 1.295 . S
C95 O97 1.235 . S
C96 O101 1.287 . S
C96 O102 1.255 . S
O97 Fe89 1.997 . S
O97 C95 1.235 . S
C98 O104 1.287 . S
C98 O105 1.255 . S
O99 Fe88 1.976 . S
O99 C106 1.287 . S
O100 Fe89 1.996 . S
O100 C106 1.255 . S
O101 Fe91 1.976 . S
O101 C96 1.287 . S
O102 Fe88 1.996 . S
O102 C96 1.255 . S
C103 O107 1.295 . S
C103 O108 1.235 1_545 S
O104 Fe89 1.976 . S
O104 C98 1.287 . S
O105 Fe91 1.996 . S
O105 C98 1.255 . S
C106 O99 1.287 . S
C106 O100 1.255 . S
O107 Fe89 2.002 1_545 S
O107 C103 1.295 . S
O108 Fe91 1.997 . S
O108 C103 1.235 1_565 S
C109 O92 1.295 . S
C109 O93 1.235 . S
Fe110 O112 1.918 . S
Fe110 O115 1.997 . S
Fe110 O116 2.002 1_455 S
Fe110 O121 1.976 . S
Fe110 O124 1.996 . S
Fe111 O112 1.918 . S
Fe111 O119 1.997 . S
Fe111 O122 1.996 . S
Fe111 O126 1.976 . S
Fe111 O129 2.002 . S
O112 Fe110 1.918 . S
O112 Fe111 1.918 . S
O112 Fe113 1.918 . S
Fe113 O112 1.918 . S
Fe113 O114 2.002 . S
Fe113 O123 1.976 . S
Fe113 O127 1.996 . S
Fe113 O130 1.997 . S
O114 Fe113 2.002 . S
O114 C131 1.295 . S
O115 Fe110 1.997 . S
O115 C131 1.235 . S
O116 Fe110 2.002 1_655 S
O116 C117 1.295 1_655 S
C117 O116 1.295 1_455 S
C117 O119 1.235 . S
C118 O123 1.287 . S
C118 O124 1.255 . S
O119 Fe111 1.997 . S
O119 C117 1.235 . S
C120 O126 1.287 . S
C120 O127 1.255 . S
O121 Fe110 1.976 . S
O121 C128 1.287 . S
O122 Fe111 1.996 . S
O122 C128 1.255 . S
O123 Fe113 1.976 . S
O123 C118 1.287 . S
O124 Fe110 1.996 . S
O124 C118 1.255 . S
C125 O129 1.295 . S
C125 O130 1.235 . S
O126 Fe111 1.976 . S
O126 C120 1.287 . S
O127 Fe113 1.996 . S
O127 C120 1.255 . S
C128 O121 1.287 . S
C128 O122 1.255 . S
O129 Fe111 2.002 . S
O129 C125 1.295 . S
O130 Fe113 1.997 . S
O130 C125 1.235 . S
C131 O114 1.295 . S
C131 O115 1.235 . S
Fe132 O134 1.918 . S
Fe132 O137 1.997 . S
Fe132 O138 2.002 . S
Fe132 O143 1.976 . S
Fe132 O146 1.996 . S
Fe133 O134 1.918 . S
Fe133 O141 1.997 . S
Fe133 O144 1.996 . S
Fe133 O148 1.976 . S
Fe133 O151 2.002 1_545 S
O134 Fe132 1.918 . S
O134 Fe133 1.918 . S
O134 Fe135 1.918 . S
Fe135 O134 1.918 . S
Fe135 O136 2.002 . S
Fe135 O145 1.976 . S
Fe135 O149 1.996 . S
Fe135 O152 1.997 . S
O136 Fe135 2.002 . S
O136 C153 1.295 . S
O137 Fe132 1.997 . S
O137 C153 1.235 . S
O138 Fe132 2.002 . S
O138 C139 1.295 . S
C139 O138 1.295 . S
C139 O141 1.235 . S
C140 O145 1.287 . S
C140 O146 1.255 . S
O141 Fe133 1.997 . S
O141 C139 1.235 . S
C142 O148 1.287 . S
C142 O149 1.255 . S
O143 Fe132 1.976 . S
O143 C150 1.287 . S
O144 Fe133 1.996 . S
O144 C150 1.255 . S
O145 Fe135 1.976 . S
O145 C140 1.287 . S
O146 Fe132 1.996 . S
O146 C140 1.255 . S
C147 O151 1.295 1_545 S
C147 O152 1.235 . S
O148 Fe133 1.976 . S
O148 C142 1.287 . S
O149 Fe135 1.996 . S
O149 C142 1.255 . S
C150 O143 1.287 . S
C150 O144 1.255 . S
O151 Fe133 2.002 1_565 S
O151 C147 1.295 1_565 S
O152 Fe135 1.997 . S
O152 C147 1.235 . S
C153 O136 1.295 . S
C153 O137 1.235 . S
Fe154 O156 1.918 . S
Fe154 O159 1.997 . S
Fe154 O160 2.002 . S
Fe154 O165 1.976 . S
Fe154 O168 1.996 . S
Fe155 O156 1.918 . S
Fe155 O163 1.997 . S
Fe155 O166 1.996 1_655 S
Fe155 O170 1.976 . S
Fe155 O173 2.002 . S
O156 Fe154 1.918 . S
O156 Fe155 1.918 . S
O156 Fe157 1.918 . S
Fe157 O156 1.918 . S
Fe157 O158 2.002 . S
Fe157 O167 1.976 . S
Fe157 O171 1.996 . S
Fe157 O174 1.997 . S
O158 Fe157 2.002 . S
O158 C175 1.295 . S
O159 Fe154 1.997 . S
O159 C175 1.235 . S
O160 Fe154 2.002 . S
O160 C161 1.295 . S
C161 O160 1.295 . S
C161 O163 1.235 . S
C162 O167 1.287 . S
C162 O168 1.255 . S
O163 Fe155 1.997 . S
O163 C161 1.235 . S
C164 O170 1.287 . S
C164 O171 1.255 . S
O165 Fe154 1.976 . S
O165 C172 1.287 1_655 S
O166 Fe155 1.996 1_455 S
O166 C172 1.255 . S
O167 Fe157 1.976 . S
O167 C162 1.287 . S
O168 Fe154 1.996 . S
O168 C162 1.255 . S
C169 O173 1.295 . S
C169 O174 1.235 . S
O170 Fe155 1.976 . S
O170 C164 1.287 . S
O171 Fe157 1.996 . S
O171 C164 1.255 . S
C172 O165 1.287 1_455 S
C172 O166 1.255 . S
O173 Fe155 2.002 . S
O173 C169 1.295 . S
O174 Fe157 1.997 . S
O174 C169 1.235 . S
C175 O158 1.295 . S
C175 O159 1.235 . S
Fe176 O178 1.918 . S
Fe176 O181 1.997 . S
Fe176 O182 2.002 . S
Fe176 O187 1.976 . S
Fe176 O190 1.996 . S
Fe177 O178 1.918 . S
Fe177 O185 1.997 . S
Fe177 O188 1.996 . S
Fe177 O192 1.976 . S
Fe177 O195 2.002 . S
O178 Fe176 1.918 . S
O178 Fe177 1.918 . S
O178 Fe179 1.918 . S
Fe179 O178 1.918 . S
Fe179 O180 2.002 . S
Fe179 O189 1.976 . S
Fe179 O193 1.996 . S
Fe179 O196 1.997 . S
O180 Fe179 2.002 . S
O180 C197 1.295 . S
O181 Fe176 1.997 . S
O181 C197 1.235 . S
O182 Fe176 2.002 . S
O182 C183 1.295 . S
C183 O182 1.295 . S
C183 O185 1.235 . S
C184 O189 1.287 . S
C184 O190 1.255 . S
O185 Fe177 1.997 . S
O185 C183 1.235 . S
C186 O192 1.287 . S
C186 O193 1.255 . S
O187 Fe176 1.976 . S
O187 C194 1.287 . S
O188 Fe177 1.996 . S
O188 C194 1.255 . S
O189 Fe179 1.976 . S
O189 C184 1.287 . S
O190 Fe176 1.996 . S
O190 C184 1.255 . S
C191 O195 1.295 . S
C191 O196 1.235 . S
O192 Fe177 1.976 . S
O192 C186 1.287 . S
O193 Fe179 1.996 . S
O193 C186 1.255 . S
C194 O187 1.287 . S
C194 O188 1.255 . S
O195 Fe177 2.002 . S
O195 C191 1.295 . S
O196 Fe179 1.997 . S
O196 C191 1.235 . S
C197 O180 1.295 . S
C197 O181 1.235 . S
H198 C206 0.950 . S
H199 C211 0.950 . S
H200 C208 0.950 . S
H201 C210 0.950 1_556 S
H202 C212 0.950 . S
H203 C214 0.950 . S
H204 C216 0.950 . S
H205 C217 0.950 . S
C206 H198 0.950 . S
C206 C207 1.386 . S
C206 C208 1.391 . S
C207 C206 1.386 . S
C207 C211 1.393 . S
C208 H200 0.950 . S
C208 C206 1.391 . S
C208 C209 1.400 . S
C209 C208 1.400 . S
C209 C210 1.398 . S
C209 C215 1.491 . S
C210 H201 0.950 1_554 S
C210 C209 1.398 . S
C210 C211 1.391 . S
C211 H199 0.950 . S
C211 C207 1.393 . S
C211 C210 1.391 . S
C212 H202 0.950 . S
C212 C213 1.386 . S
C212 C214 1.391 . S
C213 C212 1.386 . S
C213 C217 1.393 1_556 S
C214 H203 0.950 . S
C214 C212 1.391 . S
C214 C215 1.400 1_556 S
C215 C209 1.491 . S
C215 C214 1.400 1_554 S
C215 C216 1.398 . S
C216 H204 0.950 . S
C216 C215 1.398 . S
C216 C217 1.391 . S
C217 H205 0.950 . S
C217 C213 1.393 1_554 S
C217 C216 1.391 . S
H218 C226 0.950 1_556 S
H219 C231 0.950 . S
H220 C228 0.958 . S
H221 C230 0.950 . S
H222 C232 0.950 . S
H223 C234 0.950 . S
H224 C236 0.950 . S
H225 C237 0.950 . S
C226 H218 0.950 1_554 S
C226 C227 1.386 . S
C226 C228 1.389 1_554 S
C227 C226 1.386 . S
C227 C231 1.393 . S
C228 H220 0.958 . S
C228 C226 1.389 1_556 S
C228 C229 1.395 1_556 S
C229 C228 1.395 1_554 S
C229 C230 1.398 . S
C229 C235 1.491 . S
C230 H221 0.950 . S
C230 C229 1.398 . S
C230 C231 1.391 . S
C231 H219 0.950 . S
C231 C227 1.393 . S
C231 C230 1.391 . S
C232 H222 0.950 . S
C232 C233 1.386 1_554 S
C232 C234 1.391 . S
C233 C232 1.386 1_556 S
C233 C237 1.393 . S
C234 H223 0.950 . S
C234 C232 1.391 . S
C234 C235 1.400 . S
C235 C229 1.491 . S
C235 C234 1.400 . S
C235 C236 1.398 1_554 S
C236 H224 0.950 . S
C236 C235 1.398 1_556 S
C236 C237 1.391 . S
C237 H225 0.950 . S
C237 C233 1.393 . S
C237 C236 1.391 . S
H238 C246 0.950 . S
H239 C251 0.950 . S
H240 C248 0.950 . S
H241 C250 0.950 . S
H242 C252 0.950 . S
H243 C254 0.950 . S
H244 C256 0.950 . S
H245 C257 0.950 . S
C246 H238 0.950 . S
C246 C247 1.386 . S
C246 C248 1.391 . S
C247 C246 1.386 . S
C247 C251 1.393 1_556 S
C248 H240 0.950 . S
C248 C246 1.391 . S
C248 C249 1.400 1_556 S
C249 C248 1.400 1_554 S
C249 C250 1.398 . S
C249 C255 1.491 . S
C250 H241 0.950 . S
C250 C249 1.398 . S
C250 C251 1.391 . S
C251 H239 0.950 . S
C251 C247 1.393 1_554 S
C251 C250 1.391 . S
C252 H242 0.950 . S
C252 C253 1.386 . S
C252 C254 1.391 . S
C253 C252 1.386 . S
C253 C257 1.393 . S
C254 H243 0.950 . S
C254 C252 1.391 . S
C254 C255 1.400 . S
C255 C249 1.491 . S
C255 C254 1.400 . S
C255 C256 1.398 . S
C256 H244 0.950 . S
C256 C255 1.398 . S
C256 C257 1.391 . S
C257 H245 0.950 . S
C257 C253 1.393 . S
C257 C256 1.391 . S
H258 C266 0.950 . S
H259 C271 0.950 1_556 S
H260 C268 0.950 . S
H261 C270 0.950 . S
H262 C272 0.950 . S
H263 C274 0.950 . S
H264 C276 0.950 . S
H265 C277 0.950 . S
C266 H258 0.950 . S
C266 C267 1.386 . S
C266 C268 1.391 . S
C267 C266 1.386 . S
C267 C271 1.393 . S
C268 H260 0.950 . S
C268 C266 1.391 . S
C268 C269 1.400 . S
C269 C268 1.400 . S
C269 C270 1.398 1_554 S
C269 C275 1.498 . S
C270 H261 0.950 . S
C270 C269 1.398 1_556 S
C270 C271 1.391 1_556 S
C271 H259 0.950 1_554 S
C271 C267 1.393 . S
C271 C270 1.391 1_554 S
C272 H262 0.950 . S
C272 C273 1.386 . S
C272 C274 1.391 . S
C273 C272 1.386 . S
C273 C277 1.393 1_556 S
C274 H263 0.950 . S
C274 C272 1.391 . S
C274 C275 1.383 1_556 S
C275 C269 1.498 . S
C275 C274 1.383 1_554 S
C275 C276 1.409 . S
C276 H264 0.950 . S
C276 C275 1.409 . S
C276 C277 1.391 . S
C277 H265 0.950 . S
C277 C273 1.393 1_554 S
C277 C276 1.391 . S
H278 C286 0.958 . S
H279 C291 0.950 . S
H280 C288 0.950 . S
H281 C290 0.950 . S
H282 C292 0.950 . S
H283 C294 0.939 1_556 S
H284 C296 0.950 . S
H285 C297 0.950 . S
C286 H278 0.958 . S
C286 C287 1.371 1_554 S
C286 C288 1.398 . S
C287 C286 1.371 1_556 S
C287 C291 1.393 . S
C288 H280 0.950 . S
C288 C286 1.398 . S
C288 C289 1.402 1_554 S
C289 C288 1.402 1_556 S
C289 C290 1.396 . S
C289 C295 1.492 1_556 S
C290 H281 0.950 . S
C290 C289 1.396 . S
C290 C291 1.391 . S
C291 H279 0.950 . S
C291 C287 1.393 . S
C291 C290 1.391 . S
C292 H282 0.950 . S
C292 C293 1.386 . S
C292 C294 1.396 . S
C293 C292 1.386 . S
C293 C297 1.393 . S
C294 H283 0.939 1_554 S
C294 C292 1.396 . S
C294 C295 1.406 . S
C295 C289 1.492 1_554 S
C295 C294 1.406 . S
C295 C296 1.398 . S
C296 H284 0.950 . S
C296 C295 1.398 . S
C296 C297 1.391 . S
C297 H285 0.950 . S
C297 C293 1.393 . S
C297 C296 1.391 . S
H298 C306 0.950 . S
H299 C311 0.950 . S
H300 C308 0.950 1_554 S
H301 C310 0.955 . S
H302 C312 0.950 . S
H303 C314 0.950 . S
H304 C316 0.950 . S
H305 C317 0.950 . S
C306 H298 0.950 . S
C306 C307 1.386 . S
C306 C308 1.391 . S
C307 C306 1.386 . S
C307 C311 1.393 . S
C308 H300 0.950 1_556 S
C308 C306 1.391 . S
C308 C309 1.400 1_556 S
C309 C308 1.400 1_554 S
C309 C310 1.398 1_554 S
C309 C315 1.491 . S
C310 H301 0.955 . S
C310 C309 1.398 1_556 S
C310 C311 1.391 . S
C311 H299 0.950 . S
C311 C307 1.393 . S
C311 C310 1.391 . S
C312 H302 0.950 . S
C312 C313 1.386 . S
C312 C314 1.391 . S
C313 C312 1.386 . S
C313 C317 1.393 . S
C314 H303 0.950 . S
C314 C312 1.391 . S
C314 C315 1.400 . S
C315 C309 1.491 . S
C315 C314 1.400 . S
C315 C316 1.398 . S
C316 H304 0.950 . S
C316 C315 1.398 . S
C316 C317 1.391 . S
C317 H305 0.950 . S
C317 C313 1.393 . S
C317 C316 1.391 . S
H318 C326 0.950 . S
H319 C331 0.950 . S
H320 C328 0.950 . S
H321 C330 0.950 . S
H322 C332 0.950 . S
H323 C334 0.950 . S
H324 C336 0.950 . S
H325 C337 0.950 . S
C326 H318 0.950 . S
C326 C327 1.386 . S
C326 C328 1.391 . S
C327 C326 1.386 . S
C327 C331 1.393 . S
C328 H320 0.950 . S
C328 C326 1.391 . S
C328 C329 1.400 . S
C329 C328 1.400 . S
C329 C330 1.398 . S
C329 C335 1.491 . S
C330 H321 0.950 . S
C330 C329 1.398 . S
C330 C331 1.391 . S
C331 H319 0.950 . S
C331 C327 1.393 . S
C331 C330 1.391 . S
C332 H322 0.950 . S
C332 C333 1.386 . S
C332 C334 1.391 1_455 S
C333 C332 1.386 . S
C333 C337 1.393 . S
C334 H323 0.950 . S
C334 C332 1.391 1_655 S
C334 C335 1.400 . S
C335 C329 1.491 . S
C335 C334 1.400 . S
C335 C336 1.398 1_655 S
C336 H324 0.950 . S
C336 C335 1.398 1_455 S
C336 C337 1.391 . S
C337 H325 0.950 . S
C337 C333 1.393 . S
C337 C336 1.391 . S
H338 C346 0.950 . S
H339 C351 0.950 . S
H340 C348 0.950 . S
H341 C350 0.950 . S
H342 C352 0.950 . S
H343 C354 0.950 . S
H344 C356 0.950 . S
H345 C357 0.950 . S
C346 H338 0.950 . S
C346 C347 1.386 . S
C346 C348 1.391 . S
C347 C346 1.386 . S
C347 C351 1.393 . S
C348 H340 0.950 . S
C348 C346 1.391 . S
C348 C349 1.400 . S
C349 C348 1.400 . S
C349 C350 1.398 . S
C349 C355 1.491 . S
C350 H341 0.950 . S
C350 C349 1.398 . S
C350 C351 1.391 . S
C351 H339 0.950 . S
C351 C347 1.393 . S
C351 C350 1.391 . S
C352 H342 0.950 . S
C352 C353 1.386 . S
C352 C354 1.391 . S
C353 C352 1.386 . S
C353 C357 1.393 . S
C354 H343 0.950 . S
C354 C352 1.391 . S
C354 C355 1.400 . S
C355 C349 1.491 . S
C355 C354 1.400 . S
C355 C356 1.398 . S
C356 H344 0.950 . S
C356 C355 1.398 . S
C356 C357 1.391 . S
C357 H345 0.950 . S
C357 C353 1.393 . S
C357 C356 1.391 . S
H358 C366 0.950 1_455 S
H359 C371 0.950 . S
H360 C368 0.950 . S
H361 C370 0.950 . S
H362 C372 0.950 . S
H363 C374 0.950 . S
H364 C376 0.950 1_545 S
H365 C377 0.950 . S
C366 H358 0.950 1_655 S
C366 C367 1.386 . S
C366 C368 1.391 . S
C367 C366 1.386 . S
C367 C371 1.393 . S
C368 H360 0.950 . S
C368 C366 1.391 . S
C368 C369 1.400 . S
C369 C368 1.400 . S
C369 C370 1.398 . S
C369 C375 1.491 . S
C370 H361 0.950 . S
C370 C369 1.398 . S
C370 C371 1.391 . S
C371 H359 0.950 . S
C371 C367 1.393 . S
C371 C370 1.391 . S
C372 H362 0.950 . S
C372 C373 1.386 . S
C372 C374 1.391 1_565 S
C373 C372 1.386 . S
C373 C377 1.393 . S
C374 H363 0.950 . S
C374 C372 1.391 1_545 S
C374 C375 1.400 . S
C375 C369 1.491 . S
C375 C374 1.400 . S
C375 C376 1.398 1_545 S
C376 H364 0.950 1_565 S
C376 C375 1.398 1_565 S
C376 C377 1.391 . S
C377 H365 0.950 . S
C377 C373 1.393 . S
C377 C376 1.391 . S
H378 C386 0.950 . S
H379 C391 0.950 . S
H380 C388 0.950 . S
H381 C390 0.950 . S
H382 C392 0.950 . S
H383 C394 0.950 . S
H384 C396 0.950 . S
H385 C397 0.950 . S
C386 H378 0.950 . S
C386 C387 1.386 . S
C386 C388 1.391 . S
C387 C386 1.386 . S
C387 C391 1.393 . S
C388 H380 0.950 . S
C388 C386 1.391 . S
C388 C389 1.400 . S
C389 C388 1.400 . S
C389 C390 1.398 . S
C389 C395 1.491 . S
C390 H381 0.950 . S
C390 C389 1.398 . S
C390 C391 1.391 . S
C391 H379 0.950 . S
C391 C387 1.393 . S
C391 C390 1.391 . S
C392 H382 0.950 . S
C392 C393 1.386 . S
C392 C394 1.391 . S
C393 C392 1.386 . S
C393 C397 1.393 . S
C394 H383 0.950 . S
C394 C392 1.391 . S
C394 C395 1.400 . S
C395 C389 1.491 . S
C395 C394 1.400 . S
C395 C396 1.398 . S
C396 H384 0.950 . S
C396 C395 1.398 . S
C396 C397 1.391 . S
C397 H385 0.950 . S
C397 C393 1.393 . S
C397 C396 1.391 . S
H398 C406 0.950 . S
H399 C411 0.950 . S
H400 C408 0.950 . S
H401 C410 0.950 . S
H402 C412 0.950 . S
H403 C414 0.950 . S
H404 C416 0.950 . S
H405 C417 0.950 . S
C406 H398 0.950 . S
C406 C407 1.386 . S
C406 C408 1.391 . S
C407 C406 1.386 . S
C407 C411 1.393 . S
C408 H400 0.950 . S
C408 C406 1.391 . S
C408 C409 1.400 . S
C409 C408 1.400 . S
C409 C410 1.398 . S
C409 C415 1.491 . S
C410 H401 0.950 . S
C410 C409 1.398 . S
C410 C411 1.391 . S
C411 H399 0.950 . S
C411 C407 1.393 . S
C411 C410 1.391 . S
C412 H402 0.950 . S
C412 C413 1.386 . S
C412 C414 1.391 . S
C413 C412 1.386 . S
C413 C417 1.393 . S
C414 H403 0.950 . S
C414 C412 1.391 . S
C414 C415 1.400 . S
C415 C409 1.491 . S
C415 C414 1.400 . S
C415 C416 1.398 . S
C416 H404 0.950 . S
C416 C415 1.398 . S
C416 C417 1.391 . S
C417 H405 0.950 . S
C417 C413 1.393 . S
C417 C416 1.391 . S
H418 C426 0.950 . S
H419 C431 0.950 . S
H420 C428 0.950 . S
H421 C430 0.950 . S
H422 C432 0.950 . S
H423 C434 0.950 . S
H424 C436 0.950 . S
H425 C437 0.950 . S
C426 H418 0.950 . S
C426 C427 1.386 . S
C426 C428 1.391 . S
C427 C426 1.386 . S
C427 C431 1.393 . S
C428 H420 0.950 . S
C428 C426 1.391 . S
C428 C429 1.400 . S
C429 C428 1.400 . S
C429 C430 1.398 . S
C429 C435 1.491 . S
C430 H421 0.950 . S
C430 C429 1.398 . S
C430 C431 1.391 . S
C431 H419 0.950 . S
C431 C427 1.393 . S
C431 C430 1.391 . S
C432 H422 0.950 . S
C432 C433 1.386 . S
C432 C434 1.391 . S
C433 C432 1.386 . S
C433 C437 1.393 . S
C434 H423 0.950 . S
C434 C432 1.391 . S
C434 C435 1.400 . S
C435 C429 1.491 . S
C435 C434 1.400 . S
C435 C436 1.398 . S
C436 H424 0.950 . S
C436 C435 1.398 . S
C436 C437 1.391 . S
C437 H425 0.950 . S
C437 C433 1.393 . S
C437 C436 1.391 . S
H438 C446 0.950 . S
H439 C451 0.950 . S
H440 C448 0.950 . S
H441 C450 0.950 . S
H442 C452 0.950 . S
H443 C454 0.950 . S
H444 C456 0.950 . S
H445 C457 0.950 . S
C446 H438 0.950 . S
C446 C447 1.386 . S
C446 C448 1.391 . S
C447 C446 1.386 . S
C447 C451 1.393 . S
C448 H440 0.950 . S
C448 C446 1.391 . S
C448 C449 1.400 . S
C449 C448 1.400 . S
C449 C450 1.398 . S
C449 C455 1.491 . S
C450 H441 0.950 . S
C450 C449 1.398 . S
C450 C451 1.391 . S
C451 H439 0.950 . S
C451 C447 1.393 . S
C451 C450 1.391 . S
C452 H442 0.950 . S
C452 C453 1.386 . S
C452 C454 1.391 . S
C453 C452 1.386 . S
C453 C457 1.393 . S
C454 H443 0.950 . S
C454 C452 1.391 . S
C454 C455 1.400 . S
C455 C449 1.491 . S
C455 C454 1.400 . S
C455 C456 1.398 . S
C456 H444 0.950 . S
C456 C455 1.398 . S
C456 C457 1.391 . S
C457 H445 0.950 . S
C457 C453 1.393 . S
C457 C456 1.391 . S
H458 C466 0.950 . S
H459 C471 0.950 . S
H460 C468 0.950 . S
H461 C470 0.950 . S
H462 C472 0.950 . S
H463 C474 0.950 . S
H464 C476 0.950 . S
H465 C477 0.950 . S
C466 H458 0.950 . S
C466 C467 1.386 . S
C466 C468 1.391 . S
C467 C466 1.386 . S
C467 C471 1.393 . S
C468 H460 0.950 . S
C468 C466 1.391 . S
C468 C469 1.400 . S
C469 C468 1.400 . S
C469 C470 1.398 . S
C469 C475 1.491 . S
C470 H461 0.950 . S
C470 C469 1.398 . S
C470 C471 1.391 . S
C471 H459 0.950 . S
C471 C467 1.393 . S
C471 C470 1.391 . S
C472 H462 0.950 . S
C472 C473 1.386 . S
C472 C474 1.391 . S
C473 C472 1.386 . S
C473 C477 1.393 . S
C474 H463 0.950 . S
C474 C472 1.391 . S
C474 C475 1.400 . S
C475 C469 1.491 . S
C475 C474 1.400 . S
C475 C476 1.398 . S
C476 H464 0.950 . S
C476 C475 1.398 . S
C476 C477 1.391 . S
C477 H465 0.950 . S
C477 C473 1.393 . S
C477 C476 1.391 . S
H478 C486 0.950 . S
H479 C491 0.950 . S
H480 C488 0.950 . S
H481 C490 0.950 . S
H482 C492 0.950 . S
H483 C494 0.950 . S
H484 C496 0.950 . S
H485 C497 0.950 . S
C486 H478 0.950 . S
C486 C487 1.386 . S
C486 C488 1.391 . S
C487 C486 1.386 . S
C487 C491 1.393 . S
C488 H480 0.950 . S
C488 C486 1.391 . S
C488 C489 1.400 . S
C489 C488 1.400 . S
C489 C490 1.398 . S
C489 C495 1.491 . S
C490 H481 0.950 . S
C490 C489 1.398 . S
C490 C491 1.391 . S
C491 H479 0.950 . S
C491 C487 1.393 . S
C491 C490 1.391 . S
C492 H482 0.950 . S
C492 C493 1.386 . S
C492 C494 1.391 . S
C493 C492 1.386 . S
C493 C497 1.393 . S
C494 H483 0.950 . S
C494 C492 1.391 . S
C494 C495 1.400 . S
C495 C489 1.491 . S
C495 C494 1.400 . S
C495 C496 1.398 . S
C496 H484 0.950 . S
C496 C495 1.398 . S
C496 C497 1.391 . S
C497 H485 0.950 . S
C497 C493 1.393 . S
C497 C496 1.391 . S
H498 C506 0.950 . S
H499 C511 0.950 . S
H500 C508 0.950 . S
H501 C510 0.950 . S
H502 C512 0.950 . S
H503 C514 0.950 . S
H504 C516 0.950 . S
H505 C517 0.950 . S
C506 H498 0.950 . S
C506 C507 1.386 . S
C506 C508 1.391 . S
C507 C506 1.386 . S
C507 C511 1.393 . S
C508 H500 0.950 . S
C508 C506 1.391 . S
C508 C509 1.400 . S
C509 C508 1.400 . S
C509 C510 1.398 . S
C509 C515 1.491 . S
C510 H501 0.950 . S
C510 C509 1.398 . S
C510 C511 1.391 . S
C511 H499 0.950 . S
C511 C507 1.393 . S
C511 C510 1.391 . S
C512 H502 0.950 . S
C512 C513 1.386 . S
C512 C514 1.391 . S
C513 C512 1.386 . S
C513 C517 1.393 . S
C514 H503 0.950 . S
C514 C512 1.391 . S
C514 C515 1.400 1_545 S
C515 C509 1.491 . S
C515 C514 1.400 1_565 S
C515 C516 1.398 . S
C516 H504 0.950 . S
C516 C515 1.398 . S
C516 C517 1.391 1_565 S
C517 H505 0.950 . S
C517 C513 1.393 . S
C517 C516 1.391 1_545 S
H518 C526 0.950 . S
H519 C531 0.950 . S
H520 C528 0.950 . S
H521 C530 0.950 . S
H522 C532 0.950 . S
H523 C534 0.950 . S
H524 C536 0.950 . S
H525 C537 0.950 . S
C526 H518 0.950 . S
C526 C527 1.386 . S
C526 C528 1.391 . S
C527 C526 1.386 . S
C527 C531 1.393 . S
C528 H520 0.950 . S
C528 C526 1.391 . S
C528 C529 1.400 1_655 S
C529 C528 1.400 1_455 S
C529 C530 1.398 . S
C529 C535 1.491 . S
C530 H521 0.950 . S
C530 C529 1.398 . S
C530 C531 1.391 1_455 S
C531 H519 0.950 . S
C531 C527 1.393 . S
C531 C530 1.391 1_655 S
C532 H522 0.950 . S
C532 C533 1.386 . S
C532 C534 1.391 . S
C533 C532 1.386 . S
C533 C537 1.393 . S
C534 H523 0.950 . S
C534 C532 1.391 . S
C534 C535 1.400 . S
C535 C529 1.491 . S
C535 C534 1.400 . S
C535 C536 1.398 . S
C536 H524 0.950 . S
C536 C535 1.398 . S
C536 C537 1.391 . S
C537 H525 0.950 . S
C537 C533 1.393 . S
C537 C536 1.391 . S
H538 C546 0.950 . S
H539 C551 0.950 . S
H540 C548 0.950 . S
H541 C550 0.950 . S
H542 C552 0.950 . S
H543 C554 0.950 . S
H544 C556 0.950 . S
H545 C557 0.950 1_655 S
C546 H538 0.950 . S
C546 C547 1.386 . S
C546 C548 1.391 . S
C547 C546 1.386 . S
C547 C551 1.393 . S
C548 H540 0.950 . S
C548 C546 1.391 . S
C548 C549 1.400 . S
C549 C548 1.400 . S
C549 C550 1.398 . S
C549 C555 1.491 . S
C550 H541 0.950 . S
C550 C549 1.398 . S
C550 C551 1.391 . S
C551 H539 0.950 . S
C551 C547 1.393 . S
C551 C550 1.391 . S
C552 H542 0.950 . S
C552 C553 1.386 . S
C552 C554 1.391 . S
C553 C552 1.386 . S
C553 C557 1.393 . S
C554 H543 0.950 . S
C554 C552 1.391 . S
C554 C555 1.400 . S
C555 C549 1.491 . S
C555 C554 1.400 . S
C555 C556 1.398 . S
C556 H544 0.950 . S
C556 C555 1.398 . S
C556 C557 1.391 . S
C557 H545 0.950 1_455 S
C557 C553 1.393 . S
C557 C556 1.391 . S
H558 C566 0.950 . S
H559 C571 0.950 1_655 S
H560 C568 0.950 . S
H561 C570 0.950 1_655 S
H562 C572 0.950 . S
H563 C574 0.950 . S
H564 C576 0.950 . S
H565 C577 0.950 . S
C566 H558 0.950 . S
C566 C567 1.386 . S
C566 C568 1.391 . S
C567 C566 1.386 . S
C567 C571 1.393 . S
C568 H560 0.950 . S
C568 C566 1.391 . S
C568 C569 1.400 . S
C569 C568 1.400 . S
C569 C570 1.398 . S
C569 C575 1.491 . S
C570 H561 0.950 1_455 S
C570 C569 1.398 . S
C570 C571 1.391 . S
C571 H559 0.950 1_455 S
C571 C567 1.393 . S
C571 C570 1.391 . S
C572 H562 0.950 . S
C572 C573 1.386 1_655 S
C572 C574 1.391 . S
C573 C572 1.386 1_455 S
C573 C577 1.393 . S
C574 H563 0.950 . S
C574 C572 1.391 . S
C574 C575 1.400 1_655 S
C575 C569 1.491 . S
C575 C574 1.400 1_455 S
C575 C576 1.398 . S
C576 H564 0.950 . S
C576 C575 1.398 . S
C576 C577 1.391 . S
C577 H565 0.950 . S
C577 C573 1.393 . S
C577 C576 1.391 . S
H578 C586 0.950 . S
H579 C591 0.950 . S
H580 C588 0.950 . S
H581 C590 0.950 . S
H582 C592 0.950 . S
H583 C594 0.950 . S
H584 C596 0.950 . S
H585 C597 0.950 . S
C586 H578 0.950 . S
C586 C587 1.386 . S
C586 C588 1.391 . S
C587 C586 1.386 . S
C587 C591 1.393 . S
C588 H580 0.950 . S
C588 C586 1.391 . S
C588 C589 1.400 . S
C589 C588 1.400 . S
C589 C590 1.398 . S
C589 C595 1.491 . S
C590 H581 0.950 . S
C590 C589 1.398 . S
C590 C591 1.391 . S
C591 H579 0.950 . S
C591 C587 1.393 . S
C591 C590 1.391 . S
C592 H582 0.950 . S
C592 C593 1.386 . S
C592 C594 1.391 . S
C593 C592 1.386 . S
C593 C597 1.393 . S
C594 H583 0.950 . S
C594 C592 1.391 . S
C594 C595 1.400 . S
C595 C589 1.491 . S
C595 C594 1.400 . S
C595 C596 1.398 . S
C596 H584 0.950 . S
C596 C595 1.398 . S
C596 C597 1.391 . S
C597 H585 0.950 . S
C597 C593 1.393 . S
C597 C596 1.391 . S
H598 C606 0.950 . S
H599 C611 0.950 . S
H600 C608 0.950 1_545 S
H601 C610 0.950 . S
H602 C612 0.950 . S
H603 C614 0.950 . S
H604 C616 0.949 . S
H605 C617 0.950 . S
C606 H598 0.950 . S
C606 C607 1.386 1_545 S
C606 C608 1.391 1_545 S
C607 C606 1.386 1_565 S
C607 C611 1.393 . S
C608 H600 0.950 1_565 S
C608 C606 1.391 1_565 S
C608 C609 1.400 . S
C609 C608 1.400 . S
C609 C610 1.398 . S
C609 C615 1.491 . S
C610 H601 0.950 . S
C610 C609 1.398 . S
C610 C611 1.391 . S
C611 H599 0.950 . S
C611 C607 1.393 . S
C611 C610 1.391 . S
C612 H602 0.950 . S
C612 C613 1.386 . S
C612 C614 1.391 . S
C613 C612 1.386 . S
C613 C617 1.393 . S
C614 H603 0.950 . S
C614 C612 1.391 . S
C614 C615 1.400 . S
C615 C609 1.491 . S
C615 C614 1.400 . S
C615 C616 1.398 . S
C616 H604 0.949 . S
C616 C615 1.398 . S
C616 C617 1.391 . S
C617 H605 0.950 . S
C617 C613 1.393 . S
C617 C616 1.391 . S
H618 C626 0.950 . S
H619 C631 0.950 . S
H620 C628 0.950 . S
H621 C630 0.950 . S
H622 C632 0.950 . S
H623 C634 0.950 . S
H624 C636 0.950 . S
H625 C637 0.950 . S
C626 H618 0.950 . S
C626 C627 1.386 . S
C626 C628 1.391 . S
C627 C626 1.386 . S
C627 C631 1.393 . S
C628 H620 0.950 . S
C628 C626 1.391 . S
C628 C629 1.400 . S
C629 C628 1.400 . S
C629 C630 1.398 . S
C629 C635 1.491 . S
C630 H621 0.950 . S
C630 C629 1.398 . S
C630 C631 1.391 . S
C631 H619 0.950 . S
C631 C627 1.393 . S
C631 C630 1.391 . S
C632 H622 0.950 . S
C632 C633 1.386 . S
C632 C634 1.391 . S
C633 C632 1.386 . S
C633 C637 1.393 . S
C634 H623 0.950 . S
C634 C632 1.391 . S
C634 C635 1.400 . S
C635 C629 1.491 . S
C635 C634 1.400 . S
C635 C636 1.398 . S
C636 H624 0.950 . S
C636 C635 1.398 . S
C636 C637 1.391 . S
C637 H625 0.950 . S
C637 C633 1.393 . S
C637 C636 1.391 . S
H638 C646 0.950 . S
H639 C651 0.950 . S
H640 C648 0.950 . S
H641 C650 0.950 . S
H642 C652 0.950 . S
H643 C654 0.950 . S
H644 C656 0.950 . S
H645 C657 0.950 . S
C646 H638 0.950 . S
C646 C647 1.386 . S
C646 C648 1.391 . S
C647 C646 1.386 . S
C647 C651 1.393 . S
C648 H640 0.950 . S
C648 C646 1.391 . S
C648 C649 1.400 . S
C649 C648 1.400 . S
C649 C650 1.398 . S
C649 C655 1.491 . S
C650 H641 0.950 . S
C650 C649 1.398 . S
C650 C651 1.391 . S
C651 H639 0.950 . S
C651 C647 1.393 . S
C651 C650 1.391 . S
C652 H642 0.950 . S
C652 C653 1.386 . S
C652 C654 1.391 . S
C653 C652 1.386 . S
C653 C657 1.393 . S
C654 H643 0.950 . S
C654 C652 1.391 . S
C654 C655 1.400 . S
C655 C649 1.491 . S
C655 C654 1.400 . S
C655 C656 1.398 . S
C656 H644 0.950 . S
C656 C655 1.398 . S
C656 C657 1.391 . S
C657 H645 0.950 . S
C657 C653 1.393 . S
C657 C656 1.391 . S
H658 C666 0.950 . S
H659 C671 0.950 . S
H660 C668 0.950 . S
H661 C670 0.950 . S
H662 C672 0.950 . S
H663 C674 0.950 . S
H664 C676 0.950 . S
H665 C677 0.950 . S
C666 H658 0.950 . S
C666 C667 1.386 . S
C666 C668 1.391 . S
C667 C666 1.386 . S
C667 C671 1.393 . S
C668 H660 0.950 . S
C668 C666 1.391 . S
C668 C669 1.400 . S
C669 C668 1.400 . S
C669 C670 1.398 . S
C669 C675 1.491 . S
C670 H661 0.950 . S
C670 C669 1.398 . S
C670 C671 1.391 . S
C671 H659 0.950 . S
C671 C667 1.393 . S
C671 C670 1.391 . S
C672 H662 0.950 . S
C672 C673 1.386 . S
C672 C674 1.391 . S
C673 C672 1.386 . S
C673 C677 1.393 . S
C674 H663 0.950 . S
C674 C672 1.391 . S
C674 C675 1.400 . S
C675 C669 1.491 . S
C675 C674 1.400 . S
C675 C676 1.398 . S
C676 H664 0.950 . S
C676 C675 1.398 . S
C676 C677 1.391 . S
C677 H665 0.950 . S
C677 C673 1.393 . S
C677 C676 1.391 . S
H678 C686 0.950 . S
H679 C691 0.950 . S
H680 C688 0.950 . S
H681 C690 0.950 . S
H682 C692 0.950 . S
H683 C694 0.950 . S
H684 C696 0.950 . S
H685 C697 0.950 . S
C686 H678 0.950 . S
C686 C687 1.386 . S
C686 C688 1.391 . S
C687 C686 1.386 . S
C687 C691 1.393 . S
C688 H680 0.950 . S
C688 C686 1.391 . S
C688 C689 1.400 . S
C689 C688 1.400 . S
C689 C690 1.398 . S
C689 C695 1.491 . S
C690 H681 0.950 . S
C690 C689 1.398 . S
C690 C691 1.391 . S
C691 H679 0.950 . S
C691 C687 1.393 . S
C691 C690 1.391 . S
C692 H682 0.950 . S
C692 C693 1.386 . S
C692 C694 1.391 . S
C693 C692 1.386 . S
C693 C697 1.393 . S
C694 H683 0.950 . S
C694 C692 1.391 . S
C694 C695 1.400 . S
C695 C689 1.491 . S
C695 C694 1.400 . S
C695 C696 1.398 . S
C696 H684 0.950 . S
C696 C695 1.398 . S
C696 C697 1.391 . S
C697 H685 0.950 . S
C697 C693 1.393 . S
C697 C696 1.391 . S
H698 C706 0.950 . S
H699 C711 0.950 . S
H700 C708 0.950 . S
H701 C710 0.958 1_545 S
H702 C712 0.950 . S
H703 C714 0.950 . S
H704 C716 0.950 . S
H705 C717 0.950 . S
C706 H698 0.950 . S
C706 C707 1.386 . S
C706 C708 1.391 . S
C707 C706 1.386 . S
C707 C711 1.393 . S
C708 H700 0.950 . S
C708 C706 1.391 . S
C708 C709 1.399 . S
C709 C708 1.399 . S
C709 C710 1.389 . S
C709 C715 1.490 1_565 S
C710 H701 0.958 1_565 S
C710 C709 1.389 . S
C710 C711 1.395 . S
C711 H699 0.950 . S
C711 C707 1.393 . S
C711 C710 1.395 . S
C712 H702 0.950 . S
C712 C713 1.386 . S
C712 C714 1.391 . S
C713 C712 1.386 . S
C713 C717 1.393 . S
C714 H703 0.950 . S
C714 C712 1.391 . S
C714 C715 1.400 . S
C715 C709 1.490 1_545 S
C715 C714 1.400 . S
C715 C716 1.398 . S
C716 H704 0.950 . S
C716 C715 1.398 . S
C716 C717 1.391 . S
C717 H705 0.950 . S
C717 C713 1.393 . S
C717 C716 1.391 . S
H718 C726 0.950 . S
H719 C731 0.950 . S
H720 C728 0.950 . S
H721 C730 0.950 . S
H722 C732 0.950 . S
H723 C734 0.950 . S
H724 C736 0.950 . S
H725 C737 0.950 . S
C726 H718 0.950 . S
C726 C727 1.386 1_455 S
C726 C728 1.391 . S
C727 C726 1.386 1_655 S
C727 C731 1.393 . S
C728 H720 0.950 . S
C728 C726 1.391 . S
C728 C729 1.400 1_455 S
C729 C728 1.400 1_655 S
C729 C730 1.398 . S
C729 C735 1.491 1_655 S
C730 H721 0.950 . S
C730 C729 1.398 . S
C730 C731 1.391 . S
C731 H719 0.950 . S
C731 C727 1.393 . S
C731 C730 1.391 . S
C732 H722 0.950 . S
C732 C733 1.386 1_655 S
C732 C734 1.391 . S
C733 C732 1.386 1_455 S
C733 C737 1.393 . S
C734 H723 0.950 . S
C734 C732 1.391 . S
C734 C735 1.400 1_655 S
C735 C729 1.491 1_455 S
C735 C734 1.400 1_455 S
C735 C736 1.398 . S
C736 H724 0.950 . S
C736 C735 1.398 . S
C736 C737 1.391 . S
C737 H725 0.950 . S
C737 C733 1.393 . S
C737 C736 1.391 . S
C207 C37 1.337 . S
C213 C18 1.391 . S
C227 C52 1.322 . S
C233 C29 1.390 . S
C247 C62 1.306 . S
C253 C8 1.255 . S
C267 C59 1.366 . S
C273 C32 1.292 . S
C287 C65 1.353 . S
C293 C15 1.419 . S
C307 C21 1.273 . S
C313 C30 1.337 . S
C327 C81 1.393 . S
C333 C109 1.315 . S
C347 C125 1.302 . S
C353 C103 1.385 . S
C367 C117 1.392 1_655 S
C373 C87 1.305 . S
C387 C96 1.294 . S
C393 C118 1.337 . S
C407 C120 1.280 . S
C413 C84 1.326 . S
C427 C106 1.354 . S
C433 C74 1.308 . S
C447 C175 1.290 . S
C453 C150 1.353 . S
C467 C169 1.390 . S
C473 C184 1.332 . S
C487 C194 1.311 . S
C493 C140 1.258 . S
C507 C191 1.361 . S
C513 C162 1.303 . S
C527 C197 1.339 . S
C533 C147 1.417 1_565 S
C547 C153 1.266 . S
C553 C172 1.329 . S
C567 C128 1.273 . S
C573 C10 1.273 . S
C587 C76 1.341 . S
C593 C43 1.338 . S
C607 C54 1.293 . S
C613 C98 1.294 . S
C627 C51 1.301 . S
C633 C142 1.303 . S
C647 C7 1.358 . S
C653 C161 1.350 . S
C667 C186 1.243 . S
C673 C40 1.244 . S
C687 C73 1.322 . S
C693 C183 1.313 . S
C707 C95 1.297 . S
C713 C139 1.301 . S
C727 C164 1.267 . S
C733 C131 1.255 . S
