# Generated by pormake.
# Topology whq, (6)-cn, num edge types: 1
# Building blocks:
#     Node 0, Type 0, BuildingBlock: IZENUY_clean_sbu_0, # of connection points: 6
#     Node 1, Type 0, BuildingBlock: IZENUY_clean_sbu_0, # of connection points: 6
#     Node 2, Type 0, BuildingBlock: IZENUY_clean_sbu_0, # of connection points: 6
#     Node 3, Type 0, BuildingBlock: IZENUY_clean_sbu_0, # of connection points: 6
#     Node 4, Type 0, BuildingBlock: IZENUY_clean_sbu_0, # of connection points: 6
#     Node 5, Type 0, BuildingBlock: IZENUY_clean_sbu_0, # of connection points: 6
#     Node 6, Type 0, BuildingBlock: IZENUY_clean_sbu_0, # of connection points: 6
#     Node 7, Type 0, BuildingBlock: IZENUY_clean_sbu_0, # of connection points: 6
#     Node 8, Type 0, BuildingBlock: IZENUY_clean_sbu_0, # of connection points: 6
#     Node 9, Type 0, BuildingBlock: IZENUY_clean_sbu_0, # of connection points: 6
#     Node 10, Type 0, BuildingBlock: IZENUY_clean_sbu_0, # of connection points: 6
#     Node 11, Type 0, BuildingBlock: IZENUY_clean_sbu_0, # of connection points: 6
#     Node 12, Type 0, BuildingBlock: IZENUY_clean_sbu_0, # of connection points: 6
#     Node 13, Type 0, BuildingBlock: IZENUY_clean_sbu_0, # of connection points: 6
#     Node 14, Type 0, BuildingBlock: IZENUY_clean_sbu_0, # of connection points: 6
#     Node 15, Type 0, BuildingBlock: IZENUY_clean_sbu_0, # of connection points: 6
#     Node 16, Type 0, BuildingBlock: IZENUY_clean_sbu_0, # of connection points: 6
#     Node 17, Type 0, BuildingBlock: IZENUY_clean_sbu_0, # of connection points: 6
#     Node 18, Type 0, BuildingBlock: IZENUY_clean_sbu_0, # of connection points: 6
#     Node 19, Type 0, BuildingBlock: IZENUY_clean_sbu_0, # of connection points: 6
#     Node 20, Type 0, BuildingBlock: IZENUY_clean_sbu_0, # of connection points: 6
#     Node 21, Type 0, BuildingBlock: IZENUY_clean_sbu_0, # of connection points: 6
#     Node 22, Type 0, BuildingBlock: IZENUY_clean_sbu_0, # of connection points: 6
#     Node 23, Type 0, BuildingBlock: IZENUY_clean_sbu_0, # of connection points: 6
#     Node 24, Type 0, BuildingBlock: IZENUY_clean_sbu_0, # of connection points: 6
#     Node 25, Type 0, BuildingBlock: IZENUY_clean_sbu_0, # of connection points: 6
#     Node 26, Type 0, BuildingBlock: IZENUY_clean_sbu_0, # of connection points: 6
#     Node 27, Type 0, BuildingBlock: IZENUY_clean_sbu_0, # of connection points: 6
#     Node 28, Type 0, BuildingBlock: IZENUY_clean_sbu_0, # of connection points: 6
#     Node 29, Type 0, BuildingBlock: IZENUY_clean_sbu_0, # of connection points: 6
#     Node 30, Type 0, BuildingBlock: IZENUY_clean_sbu_0, # of connection points: 6
#     Node 31, Type 0, BuildingBlock: IZENUY_clean_sbu_0, # of connection points: 6
#     Edge 32, Type (0, 0), BuildingBlock: OJICUG_clean_linker_0, # of connection points: 2
#     Edge 33, Type (0, 0), BuildingBlock: OJICUG_clean_linker_0, # of connection points: 2
#     Edge 34, Type (0, 0), BuildingBlock: OJICUG_clean_linker_0, # of connection points: 2
#     Edge 35, Type (0, 0), BuildingBlock: OJICUG_clean_linker_0, # of connection points: 2
#     Edge 36, Type (0, 0), BuildingBlock: OJICUG_clean_linker_0, # of connection points: 2
#     Edge 37, Type (0, 0), BuildingBlock: OJICUG_clean_linker_0, # of connection points: 2
#     Edge 38, Type (0, 0), BuildingBlock: OJICUG_clean_linker_0, # of connection points: 2
#     Edge 39, Type (0, 0), BuildingBlock: OJICUG_clean_linker_0, # of connection points: 2
#     Edge 40, Type (0, 0), BuildingBlock: OJICUG_clean_linker_0, # of connection points: 2
#     Edge 41, Type (0, 0), BuildingBlock: OJICUG_clean_linker_0, # of connection points: 2
#     Edge 42, Type (0, 0), BuildingBlock: OJICUG_clean_linker_0, # of connection points: 2
#     Edge 43, Type (0, 0), BuildingBlock: OJICUG_clean_linker_0, # of connection points: 2
#     Edge 44, Type (0, 0), BuildingBlock: OJICUG_clean_linker_0, # of connection points: 2
#     Edge 45, Type (0, 0), BuildingBlock: OJICUG_clean_linker_0, # of connection points: 2
#     Edge 46, Type (0, 0), BuildingBlock: OJICUG_clean_linker_0, # of connection points: 2
#     Edge 47, Type (0, 0), BuildingBlock: OJICUG_clean_linker_0, # of connection points: 2
#     Edge 48, Type (0, 0), BuildingBlock: OJICUG_clean_linker_0, # of connection points: 2
#     Edge 49, Type (0, 0), BuildingBlock: OJICUG_clean_linker_0, # of connection points: 2
#     Edge 50, Type (0, 0), BuildingBlock: OJICUG_clean_linker_0, # of connection points: 2
#     Edge 51, Type (0, 0), BuildingBlock: OJICUG_clean_linker_0, # of connection points: 2
#     Edge 52, Type (0, 0), BuildingBlock: OJICUG_clean_linker_0, # of connection points: 2
#     Edge 53, Type (0, 0), BuildingBlock: OJICUG_clean_linker_0, # of connection points: 2
#     Edge 54, Type (0, 0), BuildingBlock: OJICUG_clean_linker_0, # of connection points: 2
#     Edge 55, Type (0, 0), BuildingBlock: OJICUG_clean_linker_0, # of connection points: 2
#     Edge 56, Type (0, 0), BuildingBlock: OJICUG_clean_linker_0, # of connection points: 2
#     Edge 57, Type (0, 0), BuildingBlock: OJICUG_clean_linker_0, # of connection points: 2
#     Edge 58, Type (0, 0), BuildingBlock: OJICUG_clean_linker_0, # of connection points: 2
#     Edge 59, Type (0, 0), BuildingBlock: OJICUG_clean_linker_0, # of connection points: 2
#     Edge 60, Type (0, 0), BuildingBlock: OJICUG_clean_linker_0, # of connection points: 2
#     Edge 61, Type (0, 0), BuildingBlock: OJICUG_clean_linker_0, # of connection points: 2
#     Edge 62, Type (0, 0), BuildingBlock: OJICUG_clean_linker_0, # of connection points: 2
#     Edge 63, Type (0, 0), BuildingBlock: OJICUG_clean_linker_0, # of connection points: 2
#     Edge 64, Type (0, 0), BuildingBlock: OJICUG_clean_linker_0, # of connection points: 2
#     Edge 65, Type (0, 0), BuildingBlock: OJICUG_clean_linker_0, # of connection points: 2
#     Edge 66, Type (0, 0), BuildingBlock: OJICUG_clean_linker_0, # of connection points: 2
#     Edge 67, Type (0, 0), BuildingBlock: OJICUG_clean_linker_0, # of connection points: 2
#     Edge 68, Type (0, 0), BuildingBlock: OJICUG_clean_linker_0, # of connection points: 2
#     Edge 69, Type (0, 0), BuildingBlock: OJICUG_clean_linker_0, # of connection points: 2
#     Edge 70, Type (0, 0), BuildingBlock: OJICUG_clean_linker_0, # of connection points: 2
#     Edge 71, Type (0, 0), BuildingBlock: OJICUG_clean_linker_0, # of connection points: 2
#     Edge 72, Type (0, 0), BuildingBlock: OJICUG_clean_linker_0, # of connection points: 2
#     Edge 73, Type (0, 0), BuildingBlock: OJICUG_clean_linker_0, # of connection points: 2
#     Edge 74, Type (0, 0), BuildingBlock: OJICUG_clean_linker_0, # of connection points: 2
#     Edge 75, Type (0, 0), BuildingBlock: OJICUG_clean_linker_0, # of connection points: 2
#     Edge 76, Type (0, 0), BuildingBlock: OJICUG_clean_linker_0, # of connection points: 2
#     Edge 77, Type (0, 0), BuildingBlock: OJICUG_clean_linker_0, # of connection points: 2
#     Edge 78, Type (0, 0), BuildingBlock: OJICUG_clean_linker_0, # of connection points: 2
#     Edge 79, Type (0, 0), BuildingBlock: OJICUG_clean_linker_0, # of connection points: 2
#     Edge 80, Type (0, 0), BuildingBlock: OJICUG_clean_linker_0, # of connection points: 2
#     Edge 81, Type (0, 0), BuildingBlock: OJICUG_clean_linker_0, # of connection points: 2
#     Edge 82, Type (0, 0), BuildingBlock: OJICUG_clean_linker_0, # of connection points: 2
#     Edge 83, Type (0, 0), BuildingBlock: OJICUG_clean_linker_0, # of connection points: 2
#     Edge 84, Type (0, 0), BuildingBlock: OJICUG_clean_linker_0, # of connection points: 2
#     Edge 85, Type (0, 0), BuildingBlock: OJICUG_clean_linker_0, # of connection points: 2
#     Edge 86, Type (0, 0), BuildingBlock: OJICUG_clean_linker_0, # of connection points: 2
#     Edge 87, Type (0, 0), BuildingBlock: OJICUG_clean_linker_0, # of connection points: 2
#     Edge 88, Type (0, 0), BuildingBlock: OJICUG_clean_linker_0, # of connection points: 2
#     Edge 89, Type (0, 0), BuildingBlock: OJICUG_clean_linker_0, # of connection points: 2
#     Edge 90, Type (0, 0), BuildingBlock: OJICUG_clean_linker_0, # of connection points: 2
#     Edge 91, Type (0, 0), BuildingBlock: OJICUG_clean_linker_0, # of connection points: 2
#     Edge 92, Type (0, 0), BuildingBlock: OJICUG_clean_linker_0, # of connection points: 2
#     Edge 93, Type (0, 0), BuildingBlock: OJICUG_clean_linker_0, # of connection points: 2
#     Edge 94, Type (0, 0), BuildingBlock: OJICUG_clean_linker_0, # of connection points: 2
#     Edge 95, Type (0, 0), BuildingBlock: OJICUG_clean_linker_0, # of connection points: 2
#     Edge 96, Type (0, 0), BuildingBlock: OJICUG_clean_linker_0, # of connection points: 2
#     Edge 97, Type (0, 0), BuildingBlock: OJICUG_clean_linker_0, # of connection points: 2
#     Edge 98, Type (0, 0), BuildingBlock: OJICUG_clean_linker_0, # of connection points: 2
#     Edge 99, Type (0, 0), BuildingBlock: OJICUG_clean_linker_0, # of connection points: 2
#     Edge 100, Type (0, 0), BuildingBlock: OJICUG_clean_linker_0, # of connection points: 2
#     Edge 101, Type (0, 0), BuildingBlock: OJICUG_clean_linker_0, # of connection points: 2
#     Edge 102, Type (0, 0), BuildingBlock: OJICUG_clean_linker_0, # of connection points: 2
#     Edge 103, Type (0, 0), BuildingBlock: OJICUG_clean_linker_0, # of connection points: 2
#     Edge 104, Type (0, 0), BuildingBlock: OJICUG_clean_linker_0, # of connection points: 2
#     Edge 105, Type (0, 0), BuildingBlock: OJICUG_clean_linker_0, # of connection points: 2
#     Edge 106, Type (0, 0), BuildingBlock: OJICUG_clean_linker_0, # of connection points: 2
#     Edge 107, Type (0, 0), BuildingBlock: OJICUG_clean_linker_0, # of connection points: 2
#     Edge 108, Type (0, 0), BuildingBlock: OJICUG_clean_linker_0, # of connection points: 2
#     Edge 109, Type (0, 0), BuildingBlock: OJICUG_clean_linker_0, # of connection points: 2
#     Edge 110, Type (0, 0), BuildingBlock: OJICUG_clean_linker_0, # of connection points: 2
#     Edge 111, Type (0, 0), BuildingBlock: OJICUG_clean_linker_0, # of connection points: 2
#     Edge 112, Type (0, 0), BuildingBlock: OJICUG_clean_linker_0, # of connection points: 2
#     Edge 113, Type (0, 0), BuildingBlock: OJICUG_clean_linker_0, # of connection points: 2
#     Edge 114, Type (0, 0), BuildingBlock: OJICUG_clean_linker_0, # of connection points: 2
#     Edge 115, Type (0, 0), BuildingBlock: OJICUG_clean_linker_0, # of connection points: 2
#     Edge 116, Type (0, 0), BuildingBlock: OJICUG_clean_linker_0, # of connection points: 2
#     Edge 117, Type (0, 0), BuildingBlock: OJICUG_clean_linker_0, # of connection points: 2
#     Edge 118, Type (0, 0), BuildingBlock: OJICUG_clean_linker_0, # of connection points: 2
#     Edge 119, Type (0, 0), BuildingBlock: OJICUG_clean_linker_0, # of connection points: 2
#     Edge 120, Type (0, 0), BuildingBlock: OJICUG_clean_linker_0, # of connection points: 2
#     Edge 121, Type (0, 0), BuildingBlock: OJICUG_clean_linker_0, # of connection points: 2
#     Edge 122, Type (0, 0), BuildingBlock: OJICUG_clean_linker_0, # of connection points: 2
#     Edge 123, Type (0, 0), BuildingBlock: OJICUG_clean_linker_0, # of connection points: 2
#     Edge 124, Type (0, 0), BuildingBlock: OJICUG_clean_linker_0, # of connection points: 2
#     Edge 125, Type (0, 0), BuildingBlock: OJICUG_clean_linker_0, # of connection points: 2
#     Edge 126, Type (0, 0), BuildingBlock: OJICUG_clean_linker_0, # of connection points: 2
#     Edge 127, Type (0, 0), BuildingBlock: OJICUG_clean_linker_0, # of connection points: 2
# Relax obj value: 0.293
# Max RMSD: 0.178
# Mean RMSD: 0.178
data_MOF--net-whq--node1-IZENUY_clean_sbu_0--edge1-OJICUG_clean_linker_0
_symmetry_space_group_name_H-M    P1
_symmetry_Int_Tables_number       1
_symmetry_cell_setting            triclinic
loop_
_symmetry_equiv_pos_as_xyz
'x, y, z'
_cell_length_a     37.430971
_cell_length_b     37.421929
_cell_length_c     41.407878
_cell_angle_alpha  90.005463
_cell_angle_beta   90.075698
_cell_angle_gamma 89.996112
loop_
_atom_site_label
_atom_site_type_symbol
_atom_site_fract_x
_atom_site_fract_y
_atom_site_fract_z
_atom_type_partial_charge
Fe0 Fe 0.08199 0.18955 0.17329 0.0
Fe1 Fe 0.14315 0.22158 0.13408 0.0
O2 O 0.09793 0.22261 0.14668 0.0
Fe3 Fe 0.06858 0.25699 0.13352 0.0
O4 O 0.06069 0.27213 0.17492 0.0
O5 O 0.04901 0.21833 0.19307 0.0
O6 O 0.11307 0.20351 0.20408 0.0
C7 C 0.14643 0.20468 0.20048 0.0
C8 C 0.02511 0.19382 0.13312 0.0
O9 O 0.1603 0.20388 0.17258 0.0
C10 C 0.10438 0.24089 0.07766 0.0
O11 O 0.112 0.1541 0.15899 0.0
O12 O 0.13934 0.177 0.117 0.0
O13 O 0.02816 0.22779 0.13372 0.0
O14 O 0.04998 0.17438 0.14378 0.0
C15 C 0.13438 0.2935 0.14352 0.0
O16 O 0.13345 0.23916 0.09343 0.0
O17 O 0.07473 0.24404 0.09189 0.0
C18 C 0.12974 0.1502 0.13323 0.0
O19 O 0.15095 0.26537 0.15061 0.0
O20 O 0.10367 0.29209 0.13051 0.0
C21 C 0.04908 0.2518 0.19684 0.0
Fe22 Fe 0.84607 0.08164 0.17352 0.0
Fe23 Fe 0.81416 0.14308 0.13444 0.0
O24 O 0.813 0.09782 0.14697 0.0
Fe25 Fe 0.77848 0.06862 0.13384 0.0
O26 O 0.76346 0.06069 0.17526 0.0
O27 O 0.81726 0.04867 0.19325 0.0
O28 O 0.83234 0.11263 0.20441 0.0
C29 C 0.83131 0.14603 0.20093 0.0
C30 C 0.84149 0.02488 0.13331 0.0
O31 O 0.83195 0.16004 0.17305 0.0
C32 C 0.7943 0.10449 0.07792 0.0
O33 O 0.88159 0.11159 0.15929 0.0
O34 O 0.85871 0.13919 0.11738 0.0
O35 O 0.80754 0.02806 0.13395 0.0
O36 O 0.86103 0.0497 0.1439 0.0
C37 C 0.74221 0.13455 0.14386 0.0
O38 O 0.7965 0.13355 0.0937 0.0
O39 O 0.79123 0.07483 0.09218 0.0
C40 C 0.8855 0.12947 0.1336 0.0
O41 O 0.77041 0.15101 0.15095 0.0
O42 O 0.74348 0.10382 0.1309 0.0
C43 C 0.78382 0.0489 0.1971 0.0
Fe44 Fe 0.89218 0.81358 0.13553 0.0
Fe45 Fe 0.96685 0.7783 0.135 0.0
O46 O 0.93747 0.81268 0.14806 0.0
Fe47 Fe 0.95347 0.84589 0.17455 0.0
O48 O 0.92263 0.83193 0.20546 0.0
O49 O 0.87521 0.83132 0.17408 0.0
O50 O 0.88453 0.76979 0.15213 0.0
C51 C 0.90112 0.74167 0.14509 0.0
C52 C 0.90541 0.88502 0.13453 0.0
O53 O 0.93186 0.74308 0.13221 0.0
C54 C 1.01009 0.84164 0.13428 0.0
O55 O 0.9017 0.79589 0.09486 0.0
O56 O 0.96042 0.79087 0.09323 0.0
O57 O 0.92327 0.88121 0.16027 0.0
O58 O 0.8958 0.85815 0.11837 0.0
C59 C 0.98675 0.78393 0.19833 0.0
O60 O 1.00715 0.80766 0.13497 0.0
O61 O 0.98522 0.86104 0.14492 0.0
C62 C 0.93068 0.79376 0.07902 0.0
O63 O 0.97503 0.76344 0.17653 0.0
O64 O 0.98671 0.81737 0.19436 0.0
C65 C 0.88925 0.83067 0.20196 0.0
Fe66 Fe 0.18955 0.95444 0.17368 0.0
Fe67 Fe 0.22099 0.8924 0.13522 0.0
O68 O 0.22237 0.93782 0.14716 0.0
Fe69 Fe 0.25689 0.96677 0.1335 0.0
O70 O 0.27224 0.97508 0.17476 0.0
O71 O 0.21864 0.98761 0.19284 0.0
O72 O 0.20337 0.92389 0.20496 0.0
C73 C 0.20419 0.89042 0.20193 0.0
C74 C 0.19394 1.01056 0.13277 0.0
O75 O 0.20359 0.87598 0.1742 0.0
C76 C 0.24038 0.93026 0.0781 0.0
O77 O 0.1538 0.92438 0.16 0.0
O78 O 0.17631 0.89608 0.11838 0.0
O79 O 0.2279 1.00738 0.13335 0.0
O80 O 0.17446 0.98591 0.14371 0.0
C81 C 0.2931 0.90088 0.14397 0.0
O82 O 0.23808 0.90145 0.09426 0.0
O83 O 0.24392 0.96014 0.09189 0.0
C84 C 0.14966 0.9061 0.13457 0.0
O85 O 0.26494 0.88464 0.15151 0.0
O86 O 0.29176 0.93145 0.13072 0.0
C87 C 0.25211 0.98721 0.19657 0.0
Fe88 Fe 0.06979 0.77968 0.38384 0.0
Fe89 Fe 0.08275 0.84703 0.34378 0.0
O90 O 0.09892 0.81421 0.37062 0.0
Fe91 Fe 0.14414 0.81569 0.38335 0.0
O92 O 0.15232 0.77186 0.36703 0.0
O93 O 0.10506 0.74479 0.38678 0.0
O94 O 0.06178 0.76442 0.3424 0.0
C95 C 0.05004 0.78459 0.32038 0.0
C96 C 0.10562 0.79588 0.43997 0.0
O97 O 0.04992 0.81806 0.324 0.0
C98 C 0.13016 0.88695 0.38377 0.0
O99 O 0.02925 0.80867 0.38363 0.0
O100 O 0.05064 0.86215 0.37314 0.0
O101 O 0.13464 0.79819 0.42419 0.0
O102 O 0.07599 0.79258 0.42561 0.0
C103 C 0.14737 0.83262 0.31673 0.0
O104 O 0.1125 0.88272 0.35798 0.0
O105 O 0.13993 0.86034 0.40021 0.0
C106 C 0.02597 0.84261 0.38397 0.0
O107 O 0.11397 0.83317 0.31307 0.0
O108 O 0.16119 0.83341 0.34472 0.0
C109 C 0.13579 0.74362 0.37386 0.0
Fe110 Fe 0.18994 0.08318 0.3414 0.0
Fe111 Fe 0.22173 0.14444 0.38074 0.0
O112 O 0.22291 0.09921 0.3681 0.0
Fe113 Fe 0.25736 0.06995 0.38129 0.0
O114 O 0.27252 0.06199 0.33996 0.0
O115 O 0.21879 0.05027 0.32163 0.0
O116 O 0.20381 0.11435 0.31066 0.0
C117 C 0.20473 0.14773 0.31436 0.0
C118 C 0.19432 0.02644 0.38177 0.0
O119 O 0.20386 0.16152 0.34229 0.0
C120 C 0.24156 0.10585 0.43711 0.0
O121 O 0.15441 0.11306 0.3557 0.0
O122 O 0.17718 0.14044 0.39781 0.0
O123 O 0.22827 0.0295 0.38115 0.0
O124 O 0.17483 0.05111 0.37082 0.0
C125 C 0.29364 0.13576 0.3712 0.0
O126 O 0.2395 0.13489 0.42135 0.0
O127 O 0.24449 0.07617 0.42287 0.0
C128 C 0.15041 0.1307 0.38153 0.0
O129 O 0.26548 0.15235 0.36419 0.0
O130 O 0.29232 0.1051 0.38426 0.0
C131 C 0.25226 0.05034 0.318 0.0
Fe132 Fe 0.95332 0.18944 0.34209 0.0
Fe133 Fe 0.89214 0.22116 0.3815 0.0
O134 O 0.93732 0.22242 0.36878 0.0
Fe135 Fe 0.96656 0.25694 0.38187 0.0
O136 O 0.97435 0.27207 0.34045 0.0
O137 O 0.98608 0.21832 0.32219 0.0
O138 O 0.92201 0.20322 0.31137 0.0
C139 C 0.88865 0.20404 0.31508 0.0
C140 C 1.01033 0.19397 0.38215 0.0
O141 O 0.87493 0.20327 0.34304 0.0
C142 C 0.9309 0.24116 0.4379 0.0
O143 O 0.92357 0.15385 0.35649 0.0
O144 O 0.89626 0.17659 0.39858 0.0
O145 O 1.00708 0.22791 0.38166 0.0
O146 O 0.98556 0.17441 0.37147 0.0
C147 C 0.90059 0.29313 0.37192 0.0
O148 O 0.90182 0.2389 0.42215 0.0
O149 O 0.96052 0.24414 0.42358 0.0
C150 C 0.90594 0.14984 0.3823 0.0
O151 O 0.88406 0.26492 0.36497 0.0
O152 O 0.93135 0.29188 0.38485 0.0
C153 C 0.98596 0.25179 0.31849 0.0
Fe154 Fe 0.77895 0.96647 0.38219 0.0
Fe155 Fe 0.84632 0.95288 0.34244 0.0
O156 O 0.81338 0.9371 0.36922 0.0
Fe157 Fe 0.81461 0.89196 0.38219 0.0
O158 O 0.77084 0.88387 0.36566 0.0
O159 O 0.74396 0.93131 0.38529 0.0
O160 O 0.76375 0.97416 0.34076 0.0
C161 C 0.784 0.98561 0.31873 0.0
C162 C 0.79499 0.93103 0.43833 0.0
O163 O 0.81748 0.98561 0.32238 0.0
C164 C 0.8859 0.90575 0.38297 0.0
O165 O 0.80806 1.00693 0.38181 0.0
O166 O 0.86148 0.98524 0.37163 0.0
O167 O 0.79693 0.90186 0.42274 0.0
O168 O 0.79187 0.96058 0.4239 0.0
C169 C 0.8315 0.88809 0.31583 0.0
O170 O 0.88187 0.92314 0.35701 0.0
O171 O 0.85917 0.89615 0.39928 0.0
C172 C 0.84201 1.01006 0.3823 0.0
O173 O 0.83239 0.92143 0.31191 0.0
O174 O 0.83243 0.87453 0.34386 0.0
C175 C 0.74267 0.90051 0.37245 0.0
Fe176 Fe 0.9635 0.77784 0.88241 0.0
Fe177 Fe 0.94987 0.84534 0.84275 0.0
O178 O 0.93418 0.81242 0.86967 0.0
Fe179 Fe 0.88918 0.81383 0.88293 0.0
O180 O 0.88078 0.77008 0.86655 0.0
O181 O 0.9284 0.74298 0.88565 0.0
O182 O 0.97096 0.76272 0.84092 0.0
C183 C 0.98239 0.783 0.81889 0.0
C184 C 0.92869 0.79375 0.93889 0.0
O185 O 0.9824 0.81647 0.82255 0.0
C186 C 0.90323 0.88508 0.88342 0.0
O187 O 1.00376 0.80684 0.88183 0.0
O188 O 0.98249 0.86051 0.87175 0.0
O189 O 0.89938 0.79615 0.92352 0.0
O190 O 0.95804 0.79057 0.92419 0.0
C191 C 0.8849 0.83058 0.8165 0.0
O192 O 0.92031 0.88092 0.85735 0.0
O193 O 0.89368 0.85842 0.89989 0.0
C194 C 1.00706 0.84075 0.88248 0.0
O195 O 0.91821 0.83136 0.81246 0.0
O196 O 0.87151 0.83167 0.8446 0.0
C197 C 0.89752 0.74185 0.87301 0.0
Fe198 Fe 0.18682 0.94259 0.84112 0.0
Fe199 Fe 0.22283 0.88688 0.88391 0.0
O200 O 0.22115 0.93122 0.86856 0.0
Fe201 Fe 0.25373 0.96351 0.88004 0.0
O202 O 0.25548 0.98542 0.84001 0.0
O203 O 0.21901 0.95309 0.81012 0.0
O204 O 0.18374 0.89834 0.82311 0.0
C205 C 0.20704 0.87418 0.82065 0.0
C206 C 0.19343 1.00594 0.87835 0.0
O207 O 0.22866 0.86808 0.84343 0.0
C208 C 0.23691 0.92605 0.9383 0.0
O209 O 0.15225 0.93222 0.87052 0.0
O210 O 0.17432 0.87965 0.88263 0.0
O211 O 0.22001 0.99526 0.89457 0.0
O212 O 0.18347 0.98918 0.85347 0.0
C213 C 0.29566 0.90316 0.87527 0.0
O214 O 0.2174 0.9029 0.92476 0.0
O215 O 0.25687 0.94683 0.92195 0.0
C216 C 0.14834 0.90132 0.88229 0.0
O217 O 0.27125 0.88535 0.8886 0.0
O218 O 0.29048 0.93496 0.86628 0.0
C219 C 0.24459 0.97484 0.81256 0.0
Fe220 Fe 0.06997 0.25417 0.88172 0.0
Fe221 Fe 0.08263 0.18734 0.84099 0.0
O222 O 0.09888 0.21951 0.8684 0.0
Fe223 Fe 0.14396 0.21721 0.88149 0.0
O224 O 0.1529 0.26135 0.86605 0.0
O225 O 0.10548 0.28873 0.88519 0.0
O226 O 0.06241 0.27005 0.84048 0.0
C227 C 0.05045 0.25032 0.81829 0.0
C228 C 0.10508 0.23713 0.93782 0.0
O229 O 0.05001 0.21682 0.82155 0.0
C230 C 0.12939 0.14592 0.88048 0.0
O231 O 0.02924 0.22545 0.88107 0.0
O232 O 0.05024 0.1719 0.86998 0.0
O233 O 0.13423 0.23406 0.92239 0.0
O234 O 0.07567 0.24085 0.92327 0.0
C235 C 0.14747 0.20229 0.81469 0.0
O236 O 0.1121 0.15114 0.85461 0.0
O237 O 0.13912 0.17208 0.89758 0.0
C238 C 0.02576 0.19151 0.88113 0.0
O239 O 0.11411 0.20175 0.81077 0.0
O240 O 0.1611 0.20025 0.8427 0.0
C241 C 0.1365 0.2897 0.87286 0.0
Fe242 Fe 0.77782 0.06914 0.88197 0.0
Fe243 Fe 0.84512 0.08176 0.84191 0.0
O244 O 0.81244 0.09811 0.8687 0.0
Fe245 Fe 0.81412 0.14333 0.88136 0.0
O246 O 0.77026 0.15165 0.86508 0.0
O247 O 0.74316 0.10454 0.88508 0.0
O248 O 0.76235 0.06137 0.84065 0.0
C249 C 0.78239 0.04951 0.81866 0.0
C250 C 0.79433 0.10477 0.93789 0.0
O251 O 0.81587 0.04909 0.82226 0.0
C252 C 0.88536 0.129 0.88178 0.0
O253 O 0.80654 0.02845 0.88173 0.0
O254 O 0.86011 0.0496 0.87135 0.0
O255 O 0.7967 0.13384 0.92217 0.0
O256 O 0.79096 0.07518 0.92357 0.0
C257 C 0.83093 0.14643 0.81478 0.0
O258 O 0.881 0.11132 0.85603 0.0
O259 O 0.85882 0.13897 0.89818 0.0
C260 C 0.84045 0.0251 0.88233 0.0
O261 O 0.83139 0.11303 0.81115 0.0
O262 O 0.83178 0.16028 0.84273 0.0
C263 C 0.74201 0.13526 0.87212 0.0
Fe264 Fe 0.89197 0.2219 0.63435 0.0
Fe265 Fe 0.96618 0.25818 0.63403 0.0
O266 O 0.93722 0.22337 0.64695 0.0
Fe267 Fe 0.95366 0.19027 0.67332 0.0
O268 O 0.92263 0.20365 0.70433 0.0
O269 O 0.87518 0.20392 0.67292 0.0
O270 O 0.88373 0.26559 0.65095 0.0
C271 C 0.90007 0.29393 0.64413 0.0
C272 C 0.90602 0.15062 0.63334 0.0
O273 O 0.93083 0.29294 0.63129 0.0
C274 C 1.01004 0.19546 0.63273 0.0
O275 O 0.90139 0.23969 0.59364 0.0
O276 O 0.96003 0.24564 0.5923 0.0
O277 O 0.92391 0.15463 0.65902 0.0
O278 O 0.89613 0.17738 0.61717 0.0
C279 C 0.98614 0.25256 0.69722 0.0
O280 O 1.00681 0.22938 0.63388 0.0
O281 O 0.98557 0.17566 0.64355 0.0
C282 C 0.93046 0.24225 0.57795 0.0
O283 O 0.97412 0.273 0.67554 0.0
O284 O 0.98654 0.21915 0.69314 0.0
C285 C 0.88921 0.20441 0.70083 0.0
Fe286 Fe 0.81587 0.89277 0.63514 0.0
Fe287 Fe 0.77934 0.96689 0.63398 0.0
O288 O 0.81385 0.93799 0.64771 0.0
Fe289 Fe 0.8461 0.95447 0.67497 0.0
O290 O 0.83168 0.92344 0.70558 0.0
O291 O 0.83257 0.87601 0.6742 0.0
O292 O 0.77169 0.88426 0.65052 0.0
C293 C 0.74347 0.90059 0.64324 0.0
C294 C 0.8872 0.907 0.63614 0.0
O295 O 0.74466 0.93146 0.63057 0.0
C296 C 0.84214 1.01089 0.63427 0.0
O297 O 0.79928 0.90217 0.59402 0.0
O298 O 0.79286 0.96079 0.59255 0.0
O299 O 0.88225 0.92474 0.66175 0.0
O300 O 0.86097 0.89715 0.61919 0.0
C301 C 0.78315 0.98686 0.69724 0.0
O302 O 0.80819 1.00759 0.63443 0.0
O303 O 0.86162 0.98639 0.64559 0.0
C304 C 0.79657 0.93121 0.57829 0.0
O305 O 0.76339 0.97476 0.67511 0.0
O306 O 0.81664 0.98739 0.69395 0.0
C307 C 0.83083 0.89002 0.70206 0.0
Fe308 Fe 0.1455 0.81402 0.6374 0.0
Fe309 Fe 0.07037 0.7797 0.63635 0.0
O310 O 0.10026 0.81336 0.65014 0.0
Fe311 Fe 0.0849 0.84604 0.6775 0.0
O312 O 0.11609 0.83101 0.70791 0.0
O313 O 0.16333 0.83038 0.67643 0.0
O314 O 0.15274 0.76971 0.65296 0.0
C315 C 0.13561 0.74203 0.64553 0.0
C316 C 0.13245 0.88558 0.63763 0.0
O317 O 0.10487 0.74418 0.63269 0.0
C318 C 0.02757 0.84335 0.63744 0.0
O319 O 0.13539 0.7976 0.59624 0.0
O320 O 0.07663 0.79335 0.59485 0.0
O321 O 0.11516 0.88142 0.6636 0.0
O322 O 0.14212 0.85897 0.6212 0.0
C323 C 0.05091 0.7837 0.69983 0.0
O324 O 0.03041 0.80939 0.6371 0.0
O325 O 0.05259 0.86232 0.64858 0.0
C326 C 0.10624 0.7961 0.58048 0.0
O327 O 0.06212 0.76373 0.67745 0.0
O328 O 0.05174 0.81726 0.69692 0.0
C329 C 0.14945 0.82889 0.70436 0.0
Fe330 Fe 0.25594 0.07003 0.63278 0.0
Fe331 Fe 0.18784 0.08346 0.67132 0.0
O332 O 0.2215 0.09952 0.64546 0.0
Fe333 Fe 0.22095 0.14488 0.63316 0.0
O334 O 0.26462 0.15226 0.65018 0.0
O335 O 0.2913 0.10481 0.63044 0.0
O336 O 0.27022 0.06155 0.67436 0.0
C337 C 0.24919 0.04968 0.69561 0.0
C338 C 0.24115 0.10626 0.57685 0.0
O339 O 0.21588 0.05006 0.69107 0.0
C340 C 0.14947 0.13187 0.63132 0.0
O341 O 0.22654 0.02984 0.63232 0.0
O342 O 0.17303 0.05191 0.64123 0.0
O343 O 0.23892 0.13533 0.5926 0.0
O344 O 0.24385 0.07656 0.59107 0.0
C345 C 0.20342 0.14733 0.69944 0.0
O346 O 0.15293 0.11389 0.65696 0.0
O347 O 0.17653 0.14164 0.61556 0.0
C348 C 0.19261 0.0268 0.63127 0.0
O349 O 0.20154 0.11393 0.70261 0.0
O350 O 0.20301 0.16172 0.67171 0.0
C351 C 0.29272 0.1355 0.64342 0.0
Fe352 Fe 0.5819 0.69008 0.67307 0.0
Fe353 Fe 0.64331 0.72161 0.63389 0.0
O354 O 0.5981 0.72304 0.64649 0.0
Fe355 Fe 0.569 0.75766 0.63339 0.0
O356 O 0.56112 0.77274 0.67481 0.0
O357 O 0.54902 0.71898 0.69279 0.0
O358 O 0.61299 0.70386 0.70392 0.0
C359 C 0.64637 0.70467 0.70039 0.0
C360 C 0.52514 0.6947 0.63281 0.0
O361 O 0.66029 0.70379 0.67248 0.0
C362 C 0.60469 0.74165 0.57743 0.0
O363 O 0.61171 0.65443 0.65889 0.0
O364 O 0.63912 0.67704 0.61684 0.0
O365 O 0.52837 0.72866 0.63344 0.0
O366 O 0.54989 0.67512 0.64349 0.0
C367 C 0.6352 0.79365 0.64334 0.0
O368 O 0.63376 0.73928 0.59317 0.0
O369 O 0.57509 0.74489 0.59172 0.0
C370 C 0.62937 0.65034 0.63313 0.0
O371 O 0.65153 0.76536 0.65036 0.0
O372 O 0.60436 0.79256 0.63052 0.0
C373 C 0.54929 0.75243 0.69664 0.0
Fe374 Fe 0.34608 0.58268 0.67312 0.0
Fe375 Fe 0.31404 0.64361 0.63348 0.0
O376 O 0.31308 0.59841 0.64627 0.0
Fe377 Fe 0.27881 0.56891 0.63312 0.0
O378 O 0.26363 0.56098 0.67447 0.0
O379 O 0.31738 0.54969 0.69298 0.0
O380 O 0.33193 0.6139 0.70371 0.0
C381 C 0.33068 0.64726 0.69993 0.0
C382 C 0.34208 0.52564 0.63308 0.0
O383 O 0.33162 0.66097 0.67196 0.0
C384 C 0.29457 0.60465 0.57713 0.0
O385 O 0.38149 0.61272 0.65879 0.0
O386 O 0.35868 0.63985 0.61657 0.0
O387 O 0.30813 0.52863 0.63346 0.0
O388 O 0.36145 0.55051 0.64386 0.0
C389 C 0.24216 0.63451 0.64307 0.0
O390 O 0.2965 0.63377 0.59281 0.0
O391 O 0.29168 0.57503 0.59147 0.0
C392 C 0.38545 0.6304 0.63298 0.0
O393 O 0.27022 0.65135 0.64988 0.0
O394 O 0.24362 0.60384 0.63004 0.0
C395 C 0.2839 0.54951 0.69652 0.0
Fe396 Fe 0.39184 0.31449 0.63389 0.0
Fe397 Fe 0.4662 0.27861 0.63345 0.0
O398 O 0.43702 0.31309 0.64663 0.0
Fe399 Fe 0.45313 0.34591 0.67343 0.0
O400 O 0.422 0.33193 0.70412 0.0
O401 O 0.37478 0.33216 0.67248 0.0
O402 O 0.38374 0.27068 0.65024 0.0
C403 C 0.40026 0.24248 0.64331 0.0
C404 C 0.40575 0.38577 0.6334 0.0
O405 O 0.43096 0.24372 0.63034 0.0
C406 C 0.50983 0.3416 0.63319 0.0
O407 O 0.40143 0.29696 0.59315 0.0
O408 O 0.46012 0.29162 0.59184 0.0
O409 O 0.4233 0.38158 0.65927 0.0
O410 O 0.39602 0.35912 0.617 0.0
C411 C 0.48576 0.28344 0.69677 0.0
O412 O 0.50672 0.30764 0.63375 0.0
O413 O 0.48513 0.36109 0.64403 0.0
C414 C 0.43053 0.29479 0.57748 0.0
O415 O 0.47402 0.26328 0.67478 0.0
O416 O 0.48602 0.31692 0.69312 0.0
C417 C 0.38862 0.33116 0.70044 0.0
Fe418 Fe 0.72051 0.39233 0.63418 0.0
Fe419 Fe 0.75612 0.46682 0.63377 0.0
O420 O 0.72164 0.43757 0.64681 0.0
Fe421 Fe 0.68857 0.45363 0.67333 0.0
O422 O 0.7023 0.42251 0.70419 0.0
O423 O 0.7026 0.37523 0.67266 0.0
O424 O 0.76422 0.38444 0.65088 0.0
C425 C 0.7924 0.40099 0.64397 0.0
C426 C 0.64922 0.40598 0.63311 0.0
O427 O 0.79111 0.43166 0.6309 0.0
C428 C 0.69309 0.51046 0.63316 0.0
O429 O 0.73829 0.40194 0.59354 0.0
O430 O 0.74335 0.46067 0.59209 0.0
O431 O 0.6531 0.42372 0.65889 0.0
O432 O 0.67602 0.39628 0.61695 0.0
C433 C 0.75083 0.48637 0.69705 0.0
O434 O 0.72704 0.50732 0.63387 0.0
O435 O 0.67357 0.48568 0.6438 0.0
C436 C 0.74043 0.43102 0.57779 0.0
O437 O 0.77116 0.4747 0.6752 0.0
O438 O 0.71737 0.48653 0.69322 0.0
C439 C 0.70321 0.38912 0.7006 0.0
Fe440 Fe 0.56816 0.27823 0.88175 0.0
Fe441 Fe 0.58125 0.34557 0.84179 0.0
O442 O 0.59734 0.31267 0.86851 0.0
Fe443 Fe 0.64256 0.31397 0.88116 0.0
O444 O 0.65055 0.27026 0.86461 0.0
O445 O 0.60343 0.24331 0.88472 0.0
O446 O 0.56019 0.26297 0.84042 0.0
C447 C 0.54847 0.28318 0.81845 0.0
C448 C 0.60407 0.29421 0.93764 0.0
O449 O 0.54831 0.31666 0.82209 0.0
C450 C 0.62857 0.38518 0.88199 0.0
O451 O 0.52765 0.30734 0.88156 0.0
O452 O 0.54932 0.36074 0.87124 0.0
O453 O 0.63309 0.29625 0.92185 0.0
O454 O 0.5744 0.29121 0.92337 0.0
C455 C 0.64571 0.33097 0.81465 0.0
O456 O 0.61112 0.38112 0.85605 0.0
O457 O 0.63839 0.35848 0.89826 0.0
C458 C 0.52457 0.34132 0.88207 0.0
O459 O 0.61232 0.33164 0.81103 0.0
O460 O 0.65956 0.33185 0.84261 0.0
C461 C 0.63409 0.24206 0.87165 0.0
Fe462 Fe 0.68744 0.58166 0.84182 0.0
Fe463 Fe 0.71879 0.64296 0.88137 0.0
O464 O 0.7202 0.59776 0.8687 0.0
Fe465 Fe 0.75465 0.56859 0.88203 0.0
O466 O 0.77006 0.56075 0.84076 0.0
O467 O 0.71648 0.54878 0.82223 0.0
O468 O 0.70147 0.61282 0.81114 0.0
C469 C 0.70233 0.64621 0.8148 0.0
C470 C 0.69173 0.52497 0.88217 0.0
O471 O 0.70119 0.66003 0.84275 0.0
C472 C 0.73855 0.60434 0.93789 0.0
O473 O 0.65176 0.6115 0.85588 0.0
O474 O 0.67415 0.63879 0.89818 0.0
O475 O 0.72566 0.52811 0.8817 0.0
O476 O 0.67222 0.54962 0.8712 0.0
C477 C 0.79075 0.63444 0.87212 0.0
O478 O 0.7363 0.6334 0.92214 0.0
O479 O 0.74158 0.5747 0.92361 0.0
C480 C 0.64754 0.62907 0.8817 0.0
O481 O 0.7626 0.651 0.86508 0.0
O482 O 0.78948 0.6038 0.88519 0.0
C483 C 0.74996 0.54902 0.81871 0.0
Fe484 Fe 0.45107 0.68998 0.841 0.0
Fe485 Fe 0.39028 0.72257 0.88045 0.0
O486 O 0.43552 0.7231 0.86777 0.0
Fe487 Fe 0.4653 0.75709 0.88096 0.0
O488 O 0.47332 0.77231 0.83963 0.0
O489 O 0.48426 0.71847 0.82119 0.0
O490 O 0.42003 0.70436 0.81034 0.0
C491 C 0.38668 0.7058 0.81398 0.0
C492 C 0.50808 0.69354 0.88115 0.0
O493 O 0.37285 0.70517 0.84191 0.0
C494 C 0.42947 0.74152 0.93693 0.0
O495 O 0.42079 0.65477 0.85529 0.0
O496 O 0.39358 0.67778 0.89733 0.0
O497 O 0.50535 0.72751 0.88065 0.0
O498 O 0.48308 0.67435 0.87035 0.0
C499 C 0.40005 0.79446 0.87095 0.0
O500 O 0.4003 0.7399 0.92124 0.0
O501 O 0.45909 0.74415 0.92257 0.0
C502 C 0.40299 0.65094 0.88102 0.0
O503 O 0.38289 0.76662 0.86402 0.0
O504 O 0.43067 0.79248 0.88407 0.0
C505 C 0.48464 0.75197 0.81761 0.0
Fe506 Fe 0.27756 0.46594 0.88114 0.0
Fe507 Fe 0.34555 0.45359 0.84198 0.0
O508 O 0.31251 0.43712 0.86834 0.0
Fe509 Fe 0.31418 0.39192 0.88102 0.0
O510 O 0.27065 0.38337 0.86426 0.0
O511 O 0.24296 0.43025 0.88395 0.0
O512 O 0.2627 0.47359 0.83959 0.0
C513 C 0.28306 0.4856 0.81789 0.0
C514 C 0.29359 0.43048 0.93727 0.0
O515 O 0.31648 0.48618 0.82198 0.0
C516 C 0.38531 0.40623 0.88222 0.0
O517 O 0.30616 0.50687 0.88113 0.0
O518 O 0.35997 0.48581 0.87162 0.0
O519 O 0.2962 0.40139 0.9216 0.0
O520 O 0.29016 0.46004 0.92291 0.0
C521 C 0.33157 0.38894 0.81466 0.0
O522 O 0.38132 0.42406 0.8565 0.0
O523 O 0.35855 0.39641 0.89836 0.0
C524 C 0.34008 0.51047 0.88197 0.0
O525 O 0.33231 0.42234 0.81108 0.0
O526 O 0.33235 0.37503 0.84258 0.0
C527 C 0.24219 0.39937 0.87121 0.0
Fe528 Fe 0.45354 0.34655 0.34168 0.0
Fe529 Fe 0.39228 0.31487 0.38097 0.0
O530 O 0.4375 0.31364 0.3684 0.0
Fe531 Fe 0.46674 0.27923 0.38167 0.0
O532 O 0.47467 0.26394 0.34035 0.0
O533 O 0.48645 0.31762 0.32199 0.0
O534 O 0.42242 0.33259 0.31089 0.0
C535 C 0.38904 0.33168 0.31447 0.0
C536 C 0.51033 0.34227 0.38199 0.0
O537 O 0.37519 0.33256 0.34239 0.0
C538 C 0.4309 0.29521 0.4375 0.0
O539 O 0.42364 0.38212 0.35587 0.0
O540 O 0.39625 0.35948 0.39795 0.0
O541 O 0.50721 0.30831 0.38149 0.0
O542 O 0.48558 0.36174 0.37115 0.0
C543 C 0.40095 0.24292 0.37152 0.0
O544 O 0.40185 0.29729 0.4217 0.0
O545 O 0.46056 0.29221 0.42327 0.0
C546 C 0.40593 0.38619 0.38162 0.0
O547 O 0.38437 0.27107 0.3645 0.0
O548 O 0.4316 0.24425 0.38465 0.0
C549 C 0.48633 0.28413 0.31838 0.0
Fe550 Fe 0.68973 0.45344 0.34188 0.0
Fe551 Fe 0.72137 0.39217 0.38132 0.0
O552 O 0.72266 0.43738 0.36863 0.0
Fe553 Fe 0.75713 0.4666 0.38183 0.0
O554 O 0.77235 0.47445 0.34048 0.0
O555 O 0.71865 0.48629 0.32214 0.0
O556 O 0.7036 0.42225 0.31115 0.0
C557 C 0.70444 0.38887 0.31479 0.0
C558 C 0.69413 0.51031 0.38204 0.0
O559 O 0.70361 0.37504 0.34275 0.0
C560 C 0.7411 0.4309 0.43777 0.0
O561 O 0.65415 0.42361 0.35612 0.0
O562 O 0.6768 0.39626 0.39828 0.0
O563 O 0.72808 0.50714 0.38156 0.0
O564 O 0.67463 0.48554 0.37128 0.0
C565 C 0.79333 0.40064 0.37193 0.0
O566 O 0.73899 0.4018 0.42205 0.0
O567 O 0.74419 0.46051 0.42345 0.0
C568 C 0.65009 0.40599 0.38194 0.0
O569 O 0.76514 0.38413 0.36491 0.0
O570 O 0.79207 0.43137 0.3849 0.0
C571 C 0.75212 0.48612 0.3185 0.0
Fe572 Fe 0.64367 0.72142 0.38117 0.0
Fe573 Fe 0.56916 0.75705 0.38127 0.0
O574 O 0.5985 0.7226 0.36829 0.0
Fe575 Fe 0.58261 0.6896 0.34153 0.0
O576 O 0.61387 0.70354 0.31092 0.0
O577 O 0.66095 0.70367 0.34272 0.0
O578 O 0.65167 0.76521 0.36473 0.0
C579 C 0.63509 0.79339 0.37163 0.0
C580 C 0.63008 0.65007 0.38181 0.0
O581 O 0.60428 0.79209 0.38438 0.0
C582 C 0.52563 0.69393 0.38148 0.0
O583 O 0.63386 0.73905 0.42181 0.0
O584 O 0.57516 0.74425 0.42298 0.0
O585 O 0.61248 0.65408 0.35595 0.0
O586 O 0.63965 0.67681 0.39817 0.0
C587 C 0.54979 0.75186 0.31785 0.0
O588 O 0.52873 0.72789 0.38094 0.0
O589 O 0.55044 0.67445 0.37082 0.0
C590 C 0.60474 0.74124 0.43741 0.0
O591 O 0.56136 0.77217 0.33983 0.0
O592 O 0.54975 0.71839 0.32157 0.0
C593 C 0.64723 0.70451 0.31472 0.0
Fe594 Fe 0.34602 0.58272 0.34123 0.0
Fe595 Fe 0.31451 0.64388 0.38081 0.0
O596 O 0.31317 0.59871 0.36801 0.0
Fe597 Fe 0.27874 0.56945 0.38112 0.0
O598 O 0.26341 0.5617 0.33974 0.0
O599 O 0.31708 0.54986 0.32145 0.0
O600 O 0.33201 0.61394 0.31057 0.0
C601 C 0.33116 0.64732 0.31429 0.0
C602 C 0.34177 0.52583 0.38134 0.0
O603 O 0.3321 0.66109 0.34226 0.0
C604 C 0.29488 0.60497 0.43716 0.0
O605 O 0.38165 0.61255 0.35547 0.0
O606 O 0.35917 0.63976 0.39771 0.0
O607 O 0.30781 0.52894 0.38078 0.0
O608 O 0.36123 0.5506 0.37059 0.0
C609 C 0.24249 0.63551 0.37159 0.0
O610 O 0.29707 0.63411 0.42153 0.0
O611 O 0.29176 0.5754 0.42276 0.0
C612 C 0.38582 0.63012 0.38131 0.0
O613 O 0.27066 0.65199 0.36449 0.0
O614 O 0.2438 0.60466 0.38432 0.0
C615 C 0.28361 0.55003 0.31777 0.0
Fe616 Fe 0.46627 0.75688 0.13299 0.0
Fe617 Fe 0.45322 0.68945 0.17285 0.0
O618 O 0.43708 0.72241 0.14617 0.0
Fe619 Fe 0.39182 0.72115 0.13356 0.0
O620 O 0.38385 0.76496 0.15 0.0
O621 O 0.43107 0.79189 0.13007 0.0
O622 O 0.47431 0.77205 0.17439 0.0
C623 C 0.48607 0.75178 0.19631 0.0
C624 C 0.43031 0.74097 0.07704 0.0
O625 O 0.4862 0.71831 0.19258 0.0
C626 C 0.40552 0.64981 0.1329 0.0
O627 O 0.50678 0.72777 0.13313 0.0
O628 O 0.48519 0.67432 0.14337 0.0
O629 O 0.4013 0.73873 0.09282 0.0
O630 O 0.45999 0.74403 0.09131 0.0
C631 C 0.3888 0.70433 0.20007 0.0
O632 O 0.4233 0.65388 0.15865 0.0
O633 O 0.39579 0.67652 0.11658 0.0
C634 C 0.50997 0.69381 0.13268 0.0
O635 O 0.42219 0.70337 0.20365 0.0
O636 O 0.37485 0.70346 0.17215 0.0
C637 C 0.40035 0.79316 0.14302 0.0
Fe638 Fe 0.27845 0.46644 0.13322 0.0
Fe639 Fe 0.34586 0.45319 0.17313 0.0
O640 O 0.31289 0.43715 0.1464 0.0
Fe641 Fe 0.31408 0.39191 0.13375 0.0
O642 O 0.27025 0.38398 0.15011 0.0
O643 O 0.24343 0.43131 0.13019 0.0
O644 O 0.26329 0.47437 0.17458 0.0
C645 C 0.28357 0.48605 0.19654 0.0
C646 C 0.2943 0.43064 0.07728 0.0
O647 O 0.31703 0.48614 0.19287 0.0
C648 C 0.38545 0.40549 0.1332 0.0
O649 O 0.30759 0.5069 0.13344 0.0
O650 O 0.36101 0.48523 0.1437 0.0
O651 O 0.29653 0.40156 0.093 0.0
O652 O 0.29129 0.46028 0.09159 0.0
C653 C 0.33099 0.38869 0.20026 0.0
O654 O 0.38141 0.42326 0.15894 0.0
O655 O 0.35873 0.39584 0.11684 0.0
C656 C 0.34154 0.51002 0.13293 0.0
O657 O 0.33193 0.42208 0.20388 0.0
O658 O 0.33176 0.37481 0.17233 0.0
C659 C 0.24209 0.40057 0.1431 0.0
Fe660 Fe 0.569 0.2785 0.13366 0.0
Fe661 Fe 0.58222 0.34596 0.17346 0.0
O662 O 0.59825 0.313 0.14678 0.0
Fe663 Fe 0.64344 0.31426 0.13409 0.0
O664 O 0.6515 0.27043 0.1505 0.0
O665 O 0.60419 0.24352 0.13063 0.0
O666 O 0.56122 0.26333 0.17505 0.0
C667 C 0.54956 0.28361 0.19697 0.0
C668 C 0.60459 0.29446 0.07766 0.0
O669 O 0.54937 0.31707 0.19324 0.0
C670 C 0.62975 0.38561 0.13346 0.0
O671 O 0.52847 0.30757 0.13387 0.0
O672 O 0.55009 0.36105 0.14401 0.0
O673 O 0.63372 0.29669 0.09335 0.0
O674 O 0.57502 0.29137 0.09201 0.0
C675 C 0.64678 0.33119 0.20061 0.0
O676 O 0.61205 0.38155 0.15921 0.0
O677 O 0.63941 0.35889 0.11713 0.0
C678 C 0.5253 0.34153 0.13332 0.0
O679 O 0.61341 0.3321 0.20422 0.0
O680 O 0.66061 0.33195 0.17267 0.0
C681 C 0.63497 0.24223 0.14351 0.0
Fe682 Fe 0.72127 0.6435 0.13425 0.0
Fe683 Fe 0.75684 0.56897 0.13377 0.0
O684 O 0.72245 0.59827 0.14692 0.0
Fe685 Fe 0.68952 0.58227 0.17361 0.0
O686 O 0.7035 0.61339 0.20436 0.0
O687 O 0.7037 0.66065 0.17281 0.0
O688 O 0.76513 0.65141 0.15066 0.0
C689 C 0.79326 0.63479 0.14371 0.0
C690 C 0.6499 0.62996 0.1336 0.0
O691 O 0.79188 0.60408 0.13071 0.0
C692 C 0.69376 0.52539 0.13346 0.0
O693 O 0.73871 0.6338 0.09352 0.0
O694 O 0.74382 0.57507 0.09215 0.0
O695 O 0.65395 0.6122 0.15936 0.0
O696 O 0.67661 0.63961 0.11729 0.0
C697 C 0.75189 0.54946 0.19707 0.0
O698 O 0.72771 0.5285 0.13401 0.0
O699 O 0.67431 0.5502 0.14417 0.0
C700 C 0.74066 0.60468 0.07783 0.0
O701 O 0.77211 0.5611 0.17512 0.0
O702 O 0.71841 0.54934 0.19338 0.0
C703 C 0.70454 0.64677 0.20074 0.0
C704 C 0.172 0.1971 0.28759 0.0
C705 C 0.19754 0.16977 0.28587 0.0
H706 H 0.13544 0.22978 0.26106 0.0
C707 C 0.21114 0.15943 0.25571 0.0
H708 H 0.16106 0.2054 0.31062 0.0
C709 C 0.19696 0.17382 0.22742 0.0
C710 C 0.16848 0.19807 0.22911 0.0
H711 H 0.23104 0.13856 0.25395 0.0
H712 H 0.206 0.16351 0.20438 0.0
C713 C 0.15725 0.21089 0.25931 0.0
C714 C 0.83941 0.17105 0.28823 0.0
C715 C 0.86657 0.19677 0.28656 0.0
H716 H 0.80676 0.13449 0.26163 0.0
C717 C 0.87673 0.21054 0.25639 0.0
H718 H 0.83127 0.15995 0.31124 0.0
C719 C 0.86227 0.19646 0.22807 0.0
C720 C 0.83812 0.16789 0.22969 0.0
H721 H 0.89751 0.23055 0.25466 0.0
H722 H 0.87242 0.20569 0.20504 0.0
C723 C 0.82555 0.1564 0.2599 0.0
C724 C 0.87905 0.82489 0.26092 0.0
C725 C 0.86739 0.83732 0.23069 0.0
H726 H 0.87573 0.83082 0.31223 0.0
C727 C 0.83863 0.86125 0.22901 0.0
H728 H 0.90108 0.80624 0.26268 0.0
C729 C 0.82459 0.87574 0.2573 0.0
C730 C 0.83861 0.86582 0.28745 0.0
H731 H 0.82925 0.87126 0.20595 0.0
H732 H 0.80445 0.89638 0.25552 0.0
C733 C 0.86445 0.83878 0.28921 0.0
C734 C 0.19586 0.86648 0.28963 0.0
C735 C 0.16925 0.84017 0.28813 0.0
H736 H 0.22789 0.90334 0.26283 0.0
C737 C 0.15934 0.82597 0.25802 0.0
H738 H 0.20376 0.87798 0.31257 0.0
C739 C 0.1736 0.84001 0.2296 0.0
C740 C 0.1973 0.869 0.23101 0.0
H741 H 0.13897 0.80554 0.25639 0.0
H742 H 0.16371 0.83029 0.20662 0.0
C743 C 0.2095 0.88109 0.2612 0.0
C744 C 0.83701 0.86521 0.78957 0.0
C745 C 0.8627 0.83803 0.78815 0.0
H746 H 0.80664 0.90334 0.76265 0.0
C747 C 0.87209 0.82333 0.75814 0.0
H748 H 0.82952 0.87704 0.81247 0.0
C749 C 0.85866 0.83802 0.72967 0.0
C750 C 0.83631 0.86805 0.731 0.0
H751 H 0.8917 0.80214 0.75665 0.0
H752 H 0.86837 0.82798 0.70676 0.0
C753 C 0.82414 0.88039 0.7611 0.0
C754 C 0.20397 0.85017 0.73409 0.0
C755 C 0.17182 0.83078 0.73377 0.0
H756 H 0.24179 0.8786 0.76347 0.0
C757 C 0.15818 0.81765 0.76307 0.0
H758 H 0.21506 0.86063 0.71186 0.0
C759 C 0.17391 0.82723 0.79237 0.0
C760 C 0.20343 0.85024 0.79288 0.0
H761 H 0.13365 0.80233 0.7635 0.0
H762 H 0.16056 0.82004 0.81466 0.0
C763 C 0.21953 0.8601 0.76358 0.0
C764 C 0.21051 0.15672 0.75833 0.0
C765 C 0.19744 0.16886 0.72846 0.0
H766 H 0.20531 0.15889 0.80974 0.0
C767 C 0.1733 0.19747 0.72756 0.0
H768 H 0.22933 0.13474 0.75945 0.0
C769 C 0.15914 0.21079 0.75625 0.0
C770 C 0.16958 0.19617 0.78604 0.0
H771 H 0.16281 0.20717 0.70478 0.0
H772 H 0.13825 0.23074 0.75507 0.0
C773 C 0.19692 0.1706 0.78703 0.0
C774 C 0.8637 0.19591 0.78802 0.0
C775 C 0.8384 0.16835 0.78619 0.0
H776 H 0.89996 0.22908 0.76169 0.0
C777 C 0.82516 0.15782 0.75589 0.0
H778 H 0.87442 0.20436 0.81112 0.0
C779 C 0.83928 0.17242 0.72767 0.0
C780 C 0.86739 0.1971 0.72949 0.0
H781 H 0.80551 0.13673 0.75399 0.0
H782 H 0.83043 0.16206 0.70457 0.0
C783 C 0.87841 0.2099 0.7598 0.0
C784 C 0.65737 0.71089 0.75921 0.0
C785 C 0.66819 0.69749 0.72909 0.0
H786 H 0.66076 0.70553 0.81058 0.0
C787 C 0.69563 0.67206 0.7276 0.0
H788 H 0.63634 0.73067 0.76081 0.0
C789 C 0.70909 0.65724 0.75601 0.0
C790 C 0.69583 0.66827 0.78612 0.0
H791 H 0.70428 0.66125 0.70463 0.0
H792 H 0.72811 0.63554 0.75438 0.0
C793 C 0.67142 0.69663 0.78762 0.0
C794 C 0.37543 0.71223 0.75526 0.0
C795 C 0.36466 0.69888 0.7854 0.0
H796 H 0.37203 0.7067 0.70392 0.0
C797 C 0.33716 0.67351 0.78697 0.0
H798 H 0.39648 0.73197 0.75361 0.0
C799 C 0.32368 0.65862 0.75861 0.0
C800 C 0.33699 0.66951 0.72849 0.0
H801 H 0.32854 0.66275 0.80997 0.0
H802 H 0.30465 0.63693 0.76029 0.0
C803 C 0.36136 0.6979 0.72689 0.0
C804 C 0.3775 0.32486 0.75924 0.0
C805 C 0.36671 0.33821 0.72907 0.0
H806 H 0.37378 0.33006 0.8106 0.0
C807 C 0.33905 0.3634 0.72746 0.0
H808 H 0.39869 0.30527 0.76094 0.0
C809 C 0.32529 0.37802 0.75581 0.0
C810 C 0.33847 0.36702 0.78598 0.0
H811 H 0.33039 0.37417 0.70445 0.0
H812 H 0.30606 0.39954 0.7541 0.0
C813 C 0.36316 0.33891 0.78759 0.0
C814 C 0.67128 0.33918 0.72749 0.0
C815 C 0.69612 0.36715 0.72923 0.0
H816 H 0.63554 0.30558 0.75395 0.0
C817 C 0.70923 0.37799 0.75948 0.0
H818 H 0.66069 0.33047 0.70443 0.0
C819 C 0.69534 0.36331 0.78776 0.0
C820 C 0.6676 0.33822 0.78603 0.0
H821 H 0.72855 0.39941 0.7613 0.0
H822 H 0.70401 0.37394 0.81082 0.0
C823 C 0.6568 0.32508 0.75577 0.0
C824 C 0.36329 0.3391 0.22728 0.0
C825 C 0.33809 0.36676 0.22889 0.0
H826 H 0.39951 0.30612 0.25392 0.0
C827 C 0.3248 0.37753 0.25906 0.0
H828 H 0.37402 0.33047 0.20427 0.0
C829 C 0.33891 0.36317 0.28741 0.0
C830 C 0.36704 0.33849 0.2858 0.0
H831 H 0.30521 0.39872 0.26076 0.0
H832 H 0.33011 0.37377 0.31042 0.0
C833 C 0.37798 0.32533 0.25563 0.0
C834 C 0.69666 0.36314 0.22763 0.0
C835 C 0.66878 0.3382 0.22926 0.0
H836 H 0.73002 0.39905 0.25422 0.0
C837 C 0.65795 0.32501 0.25946 0.0
H838 H 0.70536 0.37378 0.2046 0.0
C839 C 0.67249 0.33899 0.28779 0.0
C840 C 0.69743 0.36688 0.28616 0.0
H841 H 0.63661 0.3056 0.26119 0.0
H842 H 0.66184 0.33029 0.31081 0.0
C843 C 0.71062 0.3777 0.25596 0.0
C844 C 0.71075 0.65762 0.25961 0.0
C845 C 0.69779 0.66877 0.22939 0.0
H846 H 0.70531 0.66131 0.31094 0.0
C847 C 0.67328 0.69703 0.22773 0.0
H848 H 0.72984 0.63599 0.26136 0.0
C849 C 0.65882 0.71105 0.25604 0.0
C850 C 0.66933 0.69752 0.28622 0.0
H851 H 0.66284 0.70599 0.20469 0.0
H852 H 0.63775 0.73076 0.25428 0.0
C853 C 0.69688 0.67221 0.28792 0.0
C854 C 0.3635 0.69685 0.2873 0.0
C855 C 0.33816 0.66933 0.2857 0.0
H856 H 0.39973 0.7297 0.26064 0.0
C857 C 0.32462 0.65871 0.25554 0.0
H858 H 0.37442 0.70535 0.3103 0.0
C859 C 0.33863 0.67307 0.22718 0.0
C860 C 0.3669 0.69758 0.22877 0.0
H861 H 0.30491 0.63763 0.25385 0.0
H862 H 0.32964 0.66256 0.20418 0.0
C863 C 0.37808 0.71062 0.25895 0.0
C864 C 0.20501 0.35674 0.17283 0.0
C865 C 0.20809 0.38067 0.14687 0.0
H866 H 0.17852 0.31105 0.19233 0.0
C867 C 0.18186 0.38004 0.12246 0.0
H868 H 0.22463 0.35675 0.1921 0.0
C869 C 0.15511 0.3535 0.12258 0.0
C870 C 0.15442 0.32747 0.14712 0.0
H871 H 0.18378 0.39801 0.10203 0.0
H872 H 0.137 0.35158 0.10223 0.0
C873 C 0.17856 0.33054 0.17296 0.0
C874 C 0.67911 0.2053 0.17313 0.0
C875 C 0.65498 0.20827 0.14727 0.0
H876 H 0.72496 0.17894 0.19253 0.0
C877 C 0.65551 0.18198 0.12294 0.0
H878 H 0.67918 0.22497 0.19236 0.0
C879 C 0.6821 0.15526 0.12304 0.0
C880 C 0.7083 0.15468 0.14747 0.0
H881 H 0.6374 0.1838 0.10259 0.0
H882 H 0.6839 0.13709 0.10275 0.0
C883 C 0.70536 0.1789 0.17324 0.0
C884 C 0.83035 0.67837 0.17381 0.0
C885 C 0.8273 0.65459 0.14772 0.0
H886 H 0.85685 0.72392 0.19364 0.0
C887 C 0.8536 0.65531 0.12344 0.0
H888 H 0.81067 0.67828 0.19299 0.0
C889 C 0.8804 0.68179 0.12382 0.0
C890 C 0.88106 0.7077 0.14848 0.0
H891 H 0.85171 0.63746 0.10292 0.0
H892 H 0.89856 0.6838 0.10356 0.0
C893 C 0.85685 0.70452 0.17419 0.0
C894 C 0.33015 0.8564 0.17309 0.0
C895 C 0.327 0.88066 0.14737 0.0
H896 H 0.35652 0.81034 0.19206 0.0
C897 C 0.35302 0.88012 0.12284 0.0
H898 H 0.31071 0.85633 0.19247 0.0
C899 C 0.37963 0.85343 0.12261 0.0
C900 C 0.38036 0.82711 0.1469 0.0
H901 H 0.35106 0.89834 0.10259 0.0
H902 H 0.39758 0.85164 0.10218 0.0
C903 C 0.35643 0.83003 0.17286 0.0
C904 C 0.15632 0.68305 0.39367 0.0
C905 C 0.15565 0.70966 0.36964 0.0
H906 H 0.18471 0.63776 0.41316 0.0
C907 C 0.17941 0.70689 0.34355 0.0
H908 H 0.13847 0.68471 0.41418 0.0
C909 C 0.2055 0.68035 0.34294 0.0
C910 C 0.20862 0.65579 0.36842 0.0
H911 H 0.17934 0.72681 0.32453 0.0
H912 H 0.22486 0.68053 0.3235 0.0
C913 C 0.18274 0.6562 0.39307 0.0
C914 C 0.35705 0.20597 0.34174 0.0
C915 C 0.38105 0.20897 0.36769 0.0
H916 H 0.31113 0.17974 0.32234 0.0
C917 C 0.38039 0.18279 0.3921 0.0
H918 H 0.35711 0.22557 0.32247 0.0
C919 C 0.35374 0.15619 0.39202 0.0
C920 C 0.3276 0.15566 0.36754 0.0
H921 H 0.39843 0.18466 0.4125 0.0
H922 H 0.35179 0.13812 0.41236 0.0
C923 C 0.3307 0.1797 0.34167 0.0
C924 C 0.8801 0.35332 0.39258 0.0
C925 C 0.88057 0.32707 0.36822 0.0
H926 H 0.85173 0.39814 0.41291 0.0
C927 C 0.8564 0.33006 0.3424 0.0
H928 H 0.89826 0.35146 0.4129 0.0
C929 C 0.83014 0.35644 0.34239 0.0
C930 C 0.82725 0.38059 0.36821 0.0
H931 H 0.8563 0.31042 0.32315 0.0
H932 H 0.81048 0.35642 0.32314 0.0
C933 C 0.85351 0.38 0.39258 0.0
C934 C 0.65567 0.85345 0.39256 0.0
C935 C 0.65513 0.82733 0.36809 0.0
H936 H 0.68418 0.89804 0.41318 0.0
C937 C 0.67936 0.83035 0.34238 0.0
H938 H 0.63747 0.85156 0.41281 0.0
C939 C 0.70576 0.8566 0.34259 0.0
C940 C 0.70869 0.88061 0.36852 0.0
H941 H 0.67943 0.8108 0.32306 0.0
H942 H 0.72546 0.85659 0.32343 0.0
C943 C 0.68237 0.88002 0.39278 0.0
C944 C 0.8508 0.65481 0.89294 0.0
C945 C 0.82464 0.6544 0.86849 0.0
H946 H 0.89538 0.68329 0.91356 0.0
C947 C 0.82758 0.67864 0.84276 0.0
H948 H 0.84896 0.63656 0.91316 0.0
C949 C 0.85376 0.70506 0.84301 0.0
C950 C 0.87775 0.70792 0.86896 0.0
H951 H 0.808 0.67874 0.82345 0.0
H952 H 0.8537 0.72485 0.82389 0.0
C953 C 0.87731 0.68152 0.89317 0.0
C954 C 0.38117 0.85425 0.89296 0.0
C955 C 0.38077 0.8289 0.86788 0.0
H956 H 0.35389 0.89869 0.91489 0.0
C957 C 0.35659 0.83353 0.84219 0.0
H958 H 0.39915 0.85104 0.91326 0.0
C959 C 0.33136 0.86105 0.84283 0.0
C960 C 0.32961 0.88441 0.86924 0.0
H961 H 0.35563 0.81436 0.82259 0.0
H962 H 0.31121 0.86215 0.82402 0.0
C963 C 0.35541 0.88159 0.89382 0.0
C964 C 0.18087 0.32634 0.84322 0.0
C965 C 0.15653 0.32365 0.86888 0.0
H966 H 0.22623 0.35315 0.82354 0.0
C967 C 0.15631 0.35066 0.89258 0.0
H968 H 0.18147 0.30617 0.82444 0.0
C969 C 0.18234 0.37793 0.89209 0.0
C970 C 0.2087 0.37842 0.86785 0.0
H971 H 0.13797 0.34912 0.91274 0.0
H972 H 0.18357 0.39674 0.91194 0.0
C973 C 0.2065 0.35333 0.84269 0.0
C974 C 0.67851 0.2054 0.84229 0.0
C975 C 0.65424 0.20821 0.868 0.0
H976 H 0.72478 0.17949 0.82331 0.0
C977 C 0.65489 0.18203 0.89241 0.0
H978 H 0.67847 0.225 0.82301 0.0
C979 C 0.68174 0.15561 0.89256 0.0
C980 C 0.70809 0.15527 0.86833 0.0
H981 H 0.63667 0.18376 0.91265 0.0
H982 H 0.6836 0.13749 0.91289 0.0
C983 C 0.70507 0.17933 0.84247 0.0
C984 C 0.82915 0.35669 0.67352 0.0
C985 C 0.82633 0.38101 0.64782 0.0
H986 H 0.85538 0.31065 0.69268 0.0
C987 C 0.85275 0.38072 0.62365 0.0
H988 H 0.80938 0.35646 0.69262 0.0
C989 C 0.87945 0.35415 0.62369 0.0
C990 C 0.87986 0.32773 0.6479 0.0
H991 H 0.85104 0.399 0.60343 0.0
H992 H 0.89776 0.35253 0.60351 0.0
C993 C 0.85553 0.33043 0.67355 0.0
C994 C 0.70654 0.85623 0.67256 0.0
C995 C 0.70954 0.88045 0.6468 0.0
H996 H 0.67997 0.81051 0.69189 0.0
C997 C 0.68314 0.88013 0.62253 0.0
H998 H 0.72626 0.856 0.69176 0.0
C999 C 0.65626 0.8537 0.6226 0.0
C1000 C 0.65558 0.82744 0.64696 0.0
H1001 H 0.68496 0.89833 0.60226 0.0
H1002 H 0.63797 0.85207 0.60236 0.0
C1003 C 0.67997 0.83015 0.67265 0.0
C1004 C 0.15572 0.68252 0.62325 0.0
C1005 C 0.15498 0.70767 0.64853 0.0
H1006 H 0.18433 0.6386 0.60166 0.0
C1007 C 0.17865 0.70343 0.67457 0.0
H1008 H 0.13795 0.6854 0.60275 0.0
C1009 C 0.20485 0.677 0.67395 0.0
C1010 C 0.20809 0.65407 0.64729 0.0
H1011 H 0.17855 0.72226 0.69446 0.0
H1012 H 0.22427 0.67615 0.69338 0.0
C1013 C 0.18222 0.65577 0.62263 0.0
C1014 C 0.37962 0.18229 0.62279 0.0
C1015 C 0.38027 0.20856 0.64713 0.0
H1016 H 0.351 0.13759 0.60252 0.0
C1017 C 0.35622 0.20567 0.673 0.0
H1018 H 0.39769 0.18408 0.60244 0.0
C1019 C 0.32985 0.17941 0.67304 0.0
C1020 C 0.32676 0.15528 0.64723 0.0
H1021 H 0.35627 0.22533 0.69222 0.0
H1022 H 0.31024 0.17954 0.69229 0.0
C1023 C 0.35294 0.15572 0.62284 0.0
C1024 C 0.13995 0.05012 0.13275 0.0
C1025 C 0.17673 0.04582 0.12655 0.0
H1026 H 0.09649 0.08651 0.13973 0.0
C1027 C 0.19679 0.07616 0.11792 0.0
H1028 H 0.12339 0.02749 0.13921 0.0
C1029 C 0.18086 0.11019 0.11752 0.0
C1030 C 0.14478 0.11445 0.12625 0.0
H1031 H 0.22509 0.07388 0.11291 0.0
H1032 H 0.19731 0.13333 0.11249 0.0
C1033 C 0.12435 0.08399 0.133 0.0
C1034 C 0.98558 0.13979 0.13356 0.0
C1035 C 0.98986 0.17652 0.12706 0.0
H1036 H 0.94922 0.09634 0.14071 0.0
C1037 C 0.95953 0.19649 0.11816 0.0
H1038 H 1.0082 0.12331 0.14025 0.0
C1039 C 0.92553 0.18052 0.11773 0.0
C1040 C 0.92127 0.1445 0.12671 0.0
H1041 H 0.96182 0.22475 0.1129 0.0
H1042 H 0.9024 0.19692 0.11245 0.0
C1043 C 0.95173 0.12416 0.13377 0.0
C1044 C 0.85438 0.92511 0.11853 0.0
C1045 C 0.89043 0.92079 0.12744 0.0
H1046 H 0.81026 0.96152 0.11358 0.0
C1047 C 0.9109 0.95124 0.13422 0.0
H1048 H 0.8379 0.90198 0.11347 0.0
C1049 C 0.89538 0.98515 0.1338 0.0
C1050 C 0.85863 0.98952 0.12739 0.0
H1051 H 0.93873 0.94868 0.14109 0.0
H1052 H 0.91196 1.00777 0.14028 0.0
C1053 C 0.83853 0.95918 0.11876 0.0
C1054 C 0.08342 0.91132 0.13518 0.0
C1055 C 0.11384 0.89104 0.12791 0.0
H1056 H 0.027 0.9121 0.1418 0.0
C1057 C 0.10954 0.85508 0.11873 0.0
H1058 H 0.08596 0.9391 0.14224 0.0
C1059 C 0.07556 0.83909 0.11915 0.0
C1060 C 0.04528 0.85899 0.12824 0.0
H1061 H 0.13264 0.83874 0.11325 0.0
H1062 H 0.07325 0.81087 0.11372 0.0
C1063 C 0.04958 0.89567 0.13496 0.0
C1064 C 0.19719 0.96122 0.3978 0.0
C1065 C 0.17711 0.99135 0.38854 0.0
H1066 H 0.19772 0.90421 0.40436 0.0
C1067 C 0.1403 0.98696 0.38249 0.0
H1068 H 0.2255 0.96362 0.40276 0.0
C1069 C 0.12468 0.95311 0.38299 0.0
C1070 C 0.14513 0.92281 0.39033 0.0
H1071 H 0.12375 1.00944 0.37558 0.0
H1072 H 0.0968 0.95044 0.37632 0.0
C1073 C 0.18124 0.92724 0.39892 0.0
C1074 C 0.07586 0.19706 0.39723 0.0
C1075 C 0.04569 0.1769 0.3882 0.0
H1076 H 0.13298 0.19791 0.403 0.0
C1077 C 0.05027 0.14024 0.38156 0.0
H1078 H 0.07334 0.22527 0.4026 0.0
C1079 C 0.08425 0.12487 0.38134 0.0
C1080 C 0.11454 0.14542 0.38852 0.0
H1081 H 0.02779 0.12363 0.37476 0.0
H1082 H 0.08699 0.09711 0.37429 0.0
C1083 C 0.10998 0.18136 0.39764 0.0
C1084 C 0.8392 0.07554 0.39755 0.0
C1085 C 0.85922 0.04532 0.38848 0.0
H1086 H 0.83863 0.13265 0.4035 0.0
C1087 C 0.89592 0.04974 0.382 0.0
H1088 H 0.81096 0.07315 0.4028 0.0
C1089 C 0.91147 0.08364 0.38197 0.0
C1090 C 0.89106 0.114 0.38918 0.0
H1091 H 0.91244 0.0272 0.3752 0.0
H1092 H 0.93925 0.08627 0.37503 0.0
C1093 C 0.85507 0.10959 0.39814 0.0
C1094 C 0.95205 0.91167 0.383 0.0
C1095 C 0.92178 0.8911 0.39012 0.0
H1096 H 1.00849 0.91295 0.37656 0.0
C1097 C 0.92635 0.85519 0.39931 0.0
H1098 H 0.94928 0.93941 0.37589 0.0
C1099 C 0.96048 0.83951 0.39901 0.0
C1100 C 0.99062 0.85967 0.39 0.0
H1101 H 0.90336 0.83863 0.40463 0.0
H1102 H 0.96301 0.81131 0.40441 0.0
C1103 C 0.98603 0.89633 0.38333 0.0
C1104 C 0.89412 0.98515 0.883 0.0
C1105 C 0.85737 0.98984 0.88901 0.0
H1106 H 0.93725 0.94825 0.87661 0.0
C1107 C 0.83701 0.95984 0.89807 0.0
H1108 H 0.91088 1.00753 0.87625 0.0
C1109 C 0.85262 0.92569 0.89898 0.0
C1110 C 0.88867 0.92099 0.89037 0.0
H1111 H 0.80873 0.96246 0.903 0.0
H1112 H 0.83594 0.90277 0.90422 0.0
C1113 C 0.90942 0.95115 0.88329 0.0
C1114 C 0.04741 0.89429 0.88451 0.0
C1115 C 0.04251 0.85723 0.88864 0.0
H1116 H 0.08459 0.93743 0.87946 0.0
C1117 C 0.0725 0.83586 0.89517 0.0
H1118 H 0.02489 0.91171 0.87979 0.0
C1119 C 0.10677 0.85074 0.89517 0.0
C1120 C 0.11188 0.8873 0.88847 0.0
H1121 H 0.06973 0.80733 0.89875 0.0
H1122 H 0.12938 0.83312 0.8988 0.0
C1123 C 0.0817 0.90914 0.88433 0.0
C1124 C 0.1252 0.08003 0.87308 0.0
C1125 C 0.14328 0.10928 0.88664 0.0
H1126 H 0.12647 0.02475 0.86063 0.0
C1127 C 0.17647 0.1032 0.90185 0.0
H1128 H 0.09945 0.08361 0.86152 0.0
C1129 C 0.19232 0.06901 0.90121 0.0
C1130 C 0.17516 0.04045 0.88537 0.0
H1131 H 0.19115 0.12523 0.91243 0.0
H1132 H 0.21876 0.06548 0.91136 0.0
C1133 C 0.14082 0.04621 0.87252 0.0
C1134 C 0.95148 0.12281 0.88092 0.0
C1135 C 0.92141 0.14349 0.8885 0.0
H1136 H 1.00781 0.12129 0.87367 0.0
C1137 C 0.9263 0.17937 0.89765 0.0
H1138 H 0.94848 0.09508 0.87384 0.0
C1139 C 0.96049 0.1949 0.8969 0.0
C1140 C 0.99039 0.17461 0.88744 0.0
H1141 H 0.90348 0.19603 0.90331 0.0
H1142 H 0.96324 0.22307 0.90232 0.0
C1143 C 0.98553 0.138 0.88077 0.0
C1144 C 0.83913 0.07628 0.61869 0.0
C1145 C 0.85927 0.04611 0.62774 0.0
H1146 H 0.83848 0.13336 0.61259 0.0
C1147 C 0.89605 0.05054 0.63387 0.0
H1148 H 0.81083 0.07387 0.61369 0.0
C1149 C 0.9116 0.08444 0.63365 0.0
C1150 C 0.89109 0.11477 0.62654 0.0
H1151 H 0.91266 0.02803 0.64061 0.0
H1152 H 0.93947 0.0871 0.64036 0.0
C1153 C 0.855 0.11032 0.61787 0.0
C1154 C 0.92847 0.85709 0.61949 0.0
C1155 C 0.92346 0.89245 0.63014 0.0
H1156 H 0.96534 0.8135 0.61364 0.0
C1157 C 0.95346 0.91242 0.6395 0.0
H1158 H 0.90577 0.84093 0.61241 0.0
C1159 C 0.98745 0.89701 0.63981 0.0
C1160 C 0.99236 0.86084 0.63144 0.0
H1161 H 0.95043 0.93974 0.64775 0.0
H1162 H 1.00963 0.91311 0.64825 0.0
C1163 C 0.96257 0.84133 0.62038 0.0
C1164 C 0.12536 0.95167 0.63745 0.0
C1165 C 0.14612 0.92165 0.62989 0.0
H1166 H 0.12321 1.00829 0.64266 0.0
C1167 C 0.18122 0.92671 0.61867 0.0
H1168 H 0.09817 0.94853 0.64598 0.0
C1169 C 0.19607 0.96114 0.61738 0.0
C1170 C 0.17582 0.99111 0.62669 0.0
H1171 H 0.19787 0.90393 0.61284 0.0
H1172 H 0.22379 0.96411 0.61042 0.0
C1173 C 0.13982 0.98597 0.63548 0.0
C1174 C 0.10949 0.18334 0.61669 0.0
C1175 C 0.11383 0.14691 0.62412 0.0
H1176 H 0.07308 0.22764 0.61377 0.0
C1177 C 0.08344 0.12605 0.62998 0.0
H1178 H 0.1326 0.20009 0.6124 0.0
C1179 C 0.04954 0.14154 0.63037 0.0
C1180 C 0.0452 0.17858 0.62567 0.0
H1181 H 0.08606 0.09791 0.63573 0.0
H1182 H 0.02696 0.12465 0.63622 0.0
C1183 C 0.07544 0.19912 0.61768 0.0
C1184 C 0.63924 0.55021 0.63339 0.0
C1185 C 0.67594 0.54574 0.62695 0.0
H1186 H 0.59596 0.58682 0.64037 0.0
C1187 C 0.69603 0.57593 0.61792 0.0
H1188 H 0.62268 0.5277 0.64017 0.0
C1189 C 0.6802 0.61 0.61735 0.0
C1190 C 0.64422 0.61447 0.62629 0.0
H1191 H 0.72426 0.57349 0.6127 0.0
H1192 H 0.69669 0.63304 0.61201 0.0
C1193 C 0.62375 0.58414 0.63345 0.0
C1194 C 0.45166 0.6251 0.63304 0.0
C1195 C 0.42121 0.64551 0.62614 0.0
H1196 H 0.50813 0.62417 0.63945 0.0
C1197 C 0.42548 0.68161 0.61743 0.0
H1198 H 0.44914 0.59723 0.63979 0.0
C1199 C 0.45949 0.69758 0.61795 0.0
C1200 C 0.48983 0.67751 0.62667 0.0
H1201 H 0.40234 0.69806 0.6123 0.0
H1202 H 0.46179 0.72588 0.6129 0.0
C1203 C 0.48552 0.64073 0.63291 0.0
C1204 C 0.3394 0.46028 0.61752 0.0
C1205 C 0.35935 0.49041 0.627 0.0
H1206 H 0.33879 0.40322 0.61133 0.0
C1207 C 0.39593 0.48589 0.63402 0.0
H1208 H 0.31126 0.46276 0.61185 0.0
C1209 C 0.4114 0.45196 0.63416 0.0
C1210 C 0.39102 0.42168 0.62654 0.0
H1211 H 0.41238 0.50837 0.64116 0.0
H1212 H 0.43907 0.44923 0.64149 0.0
C1213 C 0.3552 0.42621 0.61705 0.0
C1214 C 0.58306 0.41134 0.63296 0.0
C1215 C 0.6135 0.39092 0.62614 0.0
H1216 H 0.52662 0.41222 0.63945 0.0
C1217 C 0.60926 0.35479 0.6175 0.0
H1218 H 0.58557 0.43924 0.63964 0.0
C1219 C 0.57529 0.3388 0.6181 0.0
C1220 C 0.54499 0.35885 0.62685 0.0
H1221 H 0.6324 0.33835 0.61243 0.0
H1222 H 0.57302 0.31047 0.61315 0.0
C1223 C 0.54923 0.39568 0.63293 0.0
C1224 C 0.62258 0.45127 0.8819 0.0
C1225 C 0.64319 0.42102 0.88905 0.0
H1226 H 0.62132 0.50769 0.8752 0.0
C1227 C 0.67913 0.42557 0.89814 0.0
H1228 H 0.59481 0.44849 0.8749 0.0
C1229 C 0.69483 0.45967 0.89763 0.0
C1230 C 0.67464 0.48976 0.88851 0.0
H1231 H 0.6957 0.40258 0.90349 0.0
H1232 H 0.72306 0.46219 0.90292 0.0
C1233 C 0.63795 0.48523 0.88202 0.0
C1234 C 0.57331 0.69578 0.89716 0.0
C1235 C 0.54314 0.67603 0.88743 0.0
H1236 H 0.6303 0.69605 0.90378 0.0
C1237 C 0.54749 0.63944 0.8804 0.0
H1238 H 0.57094 0.72393 0.90287 0.0
C1239 C 0.58133 0.62377 0.8805 0.0
C1240 C 0.61167 0.64395 0.88837 0.0
H1241 H 0.52498 0.62315 0.87306 0.0
H1242 H 0.58396 0.5961 0.87314 0.0
C1243 C 0.60727 0.67978 0.89788 0.0
C1244 C 0.35199 0.61052 0.89648 0.0
C1245 C 0.38812 0.61509 0.88806 0.0
H1246 H 0.30807 0.57378 0.90096 0.0
C1247 C 0.40889 0.58475 0.88164 0.0
H1248 H 0.33527 0.63355 0.90122 0.0
C1249 C 0.39362 0.55071 0.88196 0.0
C1250 C 0.35683 0.54606 0.88792 0.0
H1251 H 0.43679 0.58748 0.87512 0.0
H1252 H 0.41047 0.5282 0.87579 0.0
C1253 C 0.33639 0.57631 0.89616 0.0
C1254 C 0.45153 0.41131 0.88208 0.0
C1255 C 0.42103 0.39105 0.88907 0.0
H1256 H 0.50795 0.41194 0.87549 0.0
C1257 C 0.42517 0.35494 0.89782 0.0
H1258 H 0.4491 0.43919 0.87531 0.0
C1259 C 0.45908 0.3388 0.89722 0.0
C1260 C 0.48944 0.3587 0.88835 0.0
H1261 H 0.40199 0.33861 0.90302 0.0
H1262 H 0.46127 0.31049 0.90227 0.0
C1263 C 0.4853 0.39551 0.88212 0.0
C1264 C 0.39574 0.48625 0.38125 0.0
C1265 C 0.35901 0.4906 0.38761 0.0
H1266 H 0.43916 0.44979 0.37441 0.0
C1267 C 0.339 0.46036 0.39663 0.0
H1268 H 0.41224 0.50881 0.3745 0.0
C1269 C 0.35493 0.42635 0.39727 0.0
C1270 C 0.39096 0.422 0.38841 0.0
H1271 H 0.31074 0.46271 0.40179 0.0
H1272 H 0.33851 0.40326 0.4026 0.0
C1273 C 0.41134 0.45238 0.38126 0.0
C1274 C 0.60981 0.35521 0.39788 0.0
C1275 C 0.61426 0.39117 0.38882 0.0
H1276 H 0.57333 0.31115 0.40264 0.0
C1277 C 0.58393 0.41164 0.38159 0.0
H1278 H 0.63285 0.33873 0.40328 0.0
C1279 C 0.55002 0.39615 0.38168 0.0
C1280 C 0.54557 0.35945 0.38822 0.0
H1281 H 0.5866 0.43942 0.3746 0.0
H1282 H 0.5275 0.4127 0.37484 0.0
C1283 C 0.57576 0.33938 0.39734 0.0
C1284 C 0.62463 0.58386 0.3816 0.0
C1285 C 0.64504 0.61425 0.38873 0.0
H1286 H 0.62367 0.52741 0.37497 0.0
C1287 C 0.68106 0.60988 0.39769 0.0
H1288 H 0.59682 0.58646 0.37466 0.0
C1289 C 0.69696 0.57584 0.39717 0.0
C1290 C 0.67693 0.54558 0.38818 0.0
H1291 H 0.6975 0.63297 0.403 0.0
H1292 H 0.72522 0.57348 0.40241 0.0
C1293 C 0.6402 0.54997 0.38172 0.0
C1294 C 0.452 0.62455 0.38083 0.0
C1295 C 0.42168 0.64496 0.38816 0.0
H1296 H 0.5084 0.62354 0.37402 0.0
C1297 C 0.42616 0.68091 0.3973 0.0
H1298 H 0.44931 0.59679 0.37375 0.0
C1299 C 0.46021 0.69675 0.39677 0.0
C1300 C 0.49037 0.67673 0.38759 0.0
H1301 H 0.40313 0.69735 0.40278 0.0
H1302 H 0.46264 0.72497 0.40217 0.0
C1303 C 0.48591 0.64006 0.38093 0.0
C1304 C 0.33871 0.57549 0.11764 0.0
C1305 C 0.35875 0.54527 0.12674 0.0
H1306 H 0.33814 0.6326 0.11167 0.0
C1307 C 0.39545 0.54969 0.13327 0.0
H1308 H 0.31047 0.5731 0.11235 0.0
C1309 C 0.411 0.58359 0.13333 0.0
C1310 C 0.39059 0.61396 0.12608 0.0
H1311 H 0.41198 0.52716 0.1401 0.0
H1312 H 0.4388 0.58623 0.1403 0.0
C1313 C 0.35459 0.60954 0.11707 0.0
C1314 C 0.45166 0.41097 0.13365 0.0
C1315 C 0.4213 0.39054 0.12643 0.0
H1316 H 0.50809 0.41197 0.14042 0.0
C1317 C 0.42572 0.35453 0.11749 0.0
H1318 H 0.44902 0.43877 0.14057 0.0
C1319 C 0.45977 0.33865 0.11809 0.0
C1320 C 0.49 0.35871 0.12714 0.0
H1321 H 0.40267 0.33806 0.11211 0.0
H1322 H 0.46218 0.3104 0.11285 0.0
C1323 C 0.48556 0.39543 0.13362 0.0
C1324 C 0.63984 0.48572 0.1338 0.0
C1325 C 0.67653 0.49013 0.12729 0.0
H1326 H 0.5965 0.4492 0.14081 0.0
C1327 C 0.69654 0.45989 0.11821 0.0
H1328 H 0.62333 0.50827 0.14061 0.0
C1329 C 0.68064 0.42586 0.11764 0.0
C1330 C 0.64467 0.42145 0.12663 0.0
H1331 H 0.72477 0.46228 0.11294 0.0
H1332 H 0.69707 0.40279 0.11226 0.0
C1333 C 0.62428 0.45183 0.13385 0.0
C1334 C 0.54976 0.63996 0.13348 0.0
C1335 C 0.54531 0.67662 0.12676 0.0
H1336 H 0.58631 0.5967 0.1409 0.0
C1337 C 0.57555 0.69665 0.11779 0.0
H1338 H 0.52722 0.62343 0.14023 0.0
C1339 C 0.60962 0.68081 0.11749 0.0
C1340 C 0.61405 0.64486 0.12666 0.0
H1341 H 0.57314 0.72486 0.11238 0.0
H1342 H 0.63268 0.69725 0.11214 0.0
C1343 C 0.58368 0.62445 0.13382 0.0
C1344 C 0.05435 0.26852 0.25452 0.0
C1345 C 0.03306 0.26589 0.22668 0.0
H1346 H 0.05565 0.26672 0.30637 0.0
C1347 C 0.99575 0.26639 0.22985 0.0
H1348 H 0.08317 0.26733 0.25261 0.0
C1349 C 0.98004 0.26666 0.26053 0.0
C1350 C 1.00139 0.26592 0.28841 0.0
H1351 H 0.97885 0.26336 0.20876 0.0
H1352 H 0.95133 0.26403 0.26246 0.0
C1353 C 0.03863 0.2683 0.28523 0.0
C1354 C 0.76703 0.03819 0.28542 0.0
C1355 C 0.76984 1.00095 0.2886 0.0
H1356 H 0.76765 0.08281 0.25282 0.0
C1357 C 0.76948 0.97964 0.26071 0.0
H1358 H 0.76831 0.05517 0.30658 0.0
C1359 C 0.76969 0.99541 0.23004 0.0
C1360 C 0.76977 0.03273 0.22689 0.0
H1361 H 0.77244 0.95096 0.26265 0.0
H1362 H 0.77301 0.97856 0.20897 0.0
C1363 C 0.76676 0.05396 0.25471 0.0
C1364 C 0.0403 0.7702 0.23157 0.0
C1365 C 1.00298 0.77011 0.22828 0.0
H1366 H 0.0847 0.77314 0.26429 0.0
C1367 C 0.98176 0.76712 0.2561 0.0
H1368 H 0.05716 0.77353 0.21053 0.0
C1369 C 0.9975 0.76752 0.28687 0.0
C1370 C 0.03472 0.7704 0.29017 0.0
H1371 H 0.95293 0.76789 0.25415 0.0
H1372 H 0.98047 0.76878 0.30798 0.0
C1373 C 0.05604 0.77009 0.2623 0.0
C1374 C 0.26899 0.99769 0.28481 0.0
C1375 C 0.26644 0.03493 0.28798 0.0
H1376 H 0.26815 0.95311 0.25218 0.0
C1377 C 0.26714 0.05629 0.26013 0.0
H1378 H 0.26749 0.9807 0.30595 0.0
C1379 C 0.26687 0.04055 0.22946 0.0
C1380 C 0.26645 1.00323 0.2263 0.0
H1381 H 0.26445 0.085 0.26209 0.0
H1382 H 0.26373 0.05743 0.20838 0.0
C1383 C 0.26926 0.98195 0.2541 0.0
C1384 C 0.0354 0.7639 0.7871 0.0
C1385 C 0.99829 0.76891 0.78899 0.0
H1386 H 0.08146 0.76321 0.75621 0.0
C1387 C 0.97832 0.7709 0.76033 0.0
H1388 H 0.05143 0.76338 0.8089 0.0
C1389 C 0.99546 0.77117 0.73031 0.0
C1390 C 0.03283 0.76918 0.72851 0.0
H1391 H 0.94983 0.77566 0.76128 0.0
H1392 H 0.97981 0.77629 0.70876 0.0
C1393 C 0.05255 0.76389 0.757 0.0
C1394 C 0.26917 0.04694 0.75271 0.0
C1395 C 0.26208 0.02923 0.7235 0.0
H1396 H 0.26977 0.0432 0.80447 0.0
C1397 C 0.25591 0.9923 0.72378 0.0
H1398 H 0.27299 0.07564 0.75303 0.0
C1399 C 0.25347 0.97392 0.753 0.0
C1400 C 0.25711 0.99217 0.7825 0.0
H1401 H 0.24957 0.97832 0.70157 0.0
H1402 H 0.24606 0.94594 0.75254 0.0
C1403 C 0.26702 0.02842 0.78211 0.0
C1404 C 0.98116 0.2678 0.75518 0.0
C1405 C 1.00219 0.26643 0.72716 0.0
H1406 H 0.98045 0.26434 0.80696 0.0
C1407 C 0.03952 0.26763 0.73011 0.0
H1408 H 0.95235 0.26605 0.75343 0.0
C1409 C 0.05557 0.26724 0.7607 0.0
C1410 C 0.03452 0.26516 0.78867 0.0
H1411 H 0.05625 0.26555 0.70886 0.0
H1412 H 0.08435 0.26509 0.7624 0.0
C1413 C 0.99721 0.26693 0.78577 0.0
C1414 C 0.76785 0.04007 0.73009 0.0
C1415 C 0.76836 1.00276 0.72682 0.0
H1416 H 0.77009 0.08441 0.76285 0.0
C1417 C 0.76532 0.9814 0.75455 0.0
H1418 H 0.77114 0.05702 0.70908 0.0
C1419 C 0.76543 0.99704 0.7853 0.0
C1420 C 0.76799 0.03427 0.7886 0.0
H1421 H 0.76643 0.95257 0.75255 0.0
H1422 H 0.76686 0.97996 0.8064 0.0
C1423 C 0.76738 0.05571 0.7608 0.0
C1424 C 0.47971 0.76765 0.75972 0.0
C1425 C 0.5007 0.76607 0.7878 0.0
H1426 H 0.47914 0.76527 0.7079 0.0
C1427 C 0.53802 0.76781 0.78504 0.0
H1428 H 0.45093 0.76551 0.76133 0.0
C1429 C 0.55413 0.76825 0.75452 0.0
C1430 C 0.53316 0.7665 0.72643 0.0
H1431 H 0.55472 0.76561 0.80635 0.0
H1432 H 0.58295 0.76651 0.7529 0.0
C1433 C 0.49582 0.76765 0.72921 0.0
C1434 C 0.26784 0.49635 0.72937 0.0
C1435 C 0.2697 0.53366 0.72639 0.0
H1436 H 0.26889 0.45161 0.7618 0.0
C1437 C 0.26809 0.55482 0.75433 0.0
H1438 H 0.27005 0.47951 0.70818 0.0
C1439 C 0.26803 0.5389 0.78495 0.0
C1440 C 0.26907 0.50157 0.78796 0.0
H1441 H 0.27025 0.58359 0.75255 0.0
H1442 H 0.27041 0.55571 0.80615 0.0
C1443 C 0.26728 0.48042 0.76 0.0
C1444 C 0.5543 0.26735 0.76073 0.0
C1445 C 0.53288 0.26895 0.78849 0.0
H1446 H 0.55569 0.27014 0.70895 0.0
C1447 C 0.4956 0.2674 0.78517 0.0
H1448 H 0.58307 0.26932 0.76279 0.0
C1449 C 0.47997 0.26723 0.75442 0.0
C1450 C 0.5014 0.26913 0.72668 0.0
H1451 H 0.47858 0.26961 0.80623 0.0
H1452 H 0.4512 0.2691 0.75237 0.0
C1453 C 0.53867 0.2677 0.72998 0.0
C1454 C 0.76637 0.48051 0.75485 0.0
C1455 C 0.76489 0.50196 0.72708 0.0
H1456 H 0.76332 0.47908 0.80663 0.0
C1457 C 0.76639 0.53924 0.73038 0.0
H1458 H 0.76447 0.45174 0.75279 0.0
C1459 C 0.76641 0.55485 0.76113 0.0
C1460 C 0.76438 0.5334 0.78887 0.0
H1461 H 0.76428 0.55628 0.70931 0.0
H1462 H 0.76457 0.58362 0.76316 0.0
C1463 C 0.76584 0.49611 0.78559 0.0
C1464 C 0.53938 0.26835 0.28544 0.0
C1465 C 0.50209 0.26984 0.28853 0.0
H1466 H 0.58392 0.26982 0.25289 0.0
C1467 C 0.48079 0.26794 0.26066 0.0
H1468 H 0.55631 0.27078 0.30658 0.0
C1469 C 0.49655 0.268 0.23 0.0
C1470 C 0.53385 0.26947 0.22689 0.0
H1471 H 0.45201 0.26984 0.26254 0.0
H1472 H 0.47962 0.2702 0.20884 0.0
C1473 C 0.55514 0.26791 0.25478 0.0
C1474 C 0.76817 0.55489 0.25479 0.0
C1475 C 0.76613 0.53361 0.22693 0.0
H1476 H 0.76592 0.55604 0.30661 0.0
C1477 C 0.76739 0.4963 0.23005 0.0
H1478 H 0.76644 0.58369 0.25289 0.0
C1479 C 0.76774 0.48051 0.26072 0.0
C1480 C 0.76632 0.50181 0.28859 0.0
H1481 H 0.76486 0.47939 0.20892 0.0
H1482 H 0.76567 0.45174 0.26262 0.0
C1483 C 0.76801 0.5391 0.28546 0.0
C1484 C 0.53942 0.76684 0.22926 0.0
C1485 C 0.50209 0.76594 0.22616 0.0
H1486 H 0.58404 0.76478 0.26179 0.0
C1487 C 0.48092 0.76818 0.25406 0.0
H1488 H 0.55624 0.76411 0.20813 0.0
C1489 C 0.4968 0.76795 0.28473 0.0
C1490 C 0.53409 0.76597 0.28784 0.0
H1491 H 0.45211 0.76667 0.2522 0.0
H1492 H 0.47992 0.76607 0.3059 0.0
C1493 C 0.55529 0.7671 0.25992 0.0
C1494 C 0.26799 0.53931 0.22934 0.0
C1495 C 0.26941 0.50199 0.22637 0.0
H1496 H 0.26973 0.58406 0.26171 0.0
C1497 C 0.26764 0.48086 0.25433 0.0
H1498 H 0.27035 0.55611 0.20813 0.0
C1499 C 0.26785 0.49682 0.28494 0.0
C1500 C 0.26936 0.53414 0.28791 0.0
H1501 H 0.26955 0.45206 0.25257 0.0
H1502 H 0.27012 0.48001 0.30615 0.0
C1503 C 0.26774 0.55527 0.25994 0.0
C1504 C 0.13752 0.23582 0.99108 0.0
C1505 C 0.10539 0.23848 0.97359 0.0
H1506 H 0.16252 0.23461 0.03764 0.0
C1507 C 0.07317 0.24235 0.99066 0.0
H1508 H 0.16282 0.2328 0.9787 0.0
C1509 C 0.07301 0.24342 0.02432 0.0
C1510 C 0.10505 0.24066 0.04188 0.0
H1511 H 0.04789 0.24443 0.97806 0.0
H1512 H 0.04759 0.24624 0.03656 0.0
C1513 C 0.13736 0.23692 0.02488 0.0
C1514 C 0.79673 0.13743 0.02489 0.0
C1515 C 0.79361 0.10516 0.0421 0.0
H1516 H 0.79939 0.16275 0.9785 0.0
C1517 C 0.79036 0.07306 0.02469 0.0
H1518 H 0.79935 0.16264 0.03753 0.0
C1519 C 0.79039 0.07313 0.99101 0.0
C1520 C 0.79367 0.1053 0.97371 0.0
H1521 H 0.78797 0.04767 0.03705 0.0
H1522 H 0.78801 0.04778 0.97856 0.0
C1523 C 0.79676 0.1375 0.99104 0.0
C1524 C 0.96109 0.78986 0.99177 0.0
C1525 C 0.9287 0.793 0.97475 0.0
H1526 H 0.98712 0.78759 0.03764 0.0
C1527 C 0.89673 0.79595 0.99238 0.0
H1528 H 0.98629 0.78759 0.97908 0.0
C1529 C 0.89723 0.79594 0.02621 0.0
C1530 C 0.9297 0.79299 0.04317 0.0
H1531 H 0.87131 0.79847 0.98007 0.0
H1532 H 0.87215 0.79846 0.03905 0.0
C1533 C 0.96159 0.78985 0.02548 0.0
C1534 C 0.22575 0.89793 0.99233 0.0
C1535 C 0.23839 0.927 0.97406 0.0
H1536 H 0.21691 0.87597 0.03941 0.0
C1537 C 0.25227 0.9569 0.99032 0.0
H1538 H 0.21502 0.8744 0.98057 0.0
C1539 C 0.25301 0.95792 0.02408 0.0
C1540 C 0.24041 0.92882 0.04234 0.0
H1541 H 0.26212 0.97975 0.97696 0.0
H1542 H 0.26356 0.98151 0.03588 0.0
C1543 C 0.227 0.89872 0.02607 0.0
C1544 C 0.1388 0.79821 0.52709 0.0
C1545 C 0.10663 0.7956 0.54452 0.0
H1546 H 0.16385 0.80032 0.48054 0.0
C1547 C 0.0744 0.79281 0.52717 0.0
H1548 H 0.16412 0.80046 0.53961 0.0
C1549 C 0.07424 0.79269 0.49343 0.0
C1550 C 0.10631 0.79539 0.47592 0.0
H1551 H 0.04906 0.79081 0.53964 0.0
H1552 H 0.0488 0.79064 0.48108 0.0
C1553 C 0.13863 0.79812 0.49319 0.0
C1554 C 0.23929 0.13889 0.48999 0.0
C1555 C 0.24232 0.10657 0.47285 0.0
H1556 H 0.23659 0.16429 0.53633 0.0
C1557 C 0.24551 0.07449 0.49024 0.0
H1558 H 0.23674 0.16408 0.47732 0.0
C1559 C 0.24543 0.07461 0.52388 0.0
C1560 C 0.24216 0.10682 0.54111 0.0
H1561 H 0.24785 0.04906 0.47791 0.0
H1562 H 0.24771 0.04926 0.53635 0.0
C1563 C 0.23922 0.13902 0.5238 0.0
C1564 C 0.89782 0.23947 0.52474 0.0
C1565 C 0.92997 0.24279 0.54211 0.0
H1566 H 0.87277 0.23637 0.47823 0.0
C1567 C 0.96215 0.24598 0.52486 0.0
H1568 H 0.87255 0.23688 0.53724 0.0
C1569 C 0.96228 0.24567 0.49117 0.0
C1570 C 0.93024 0.24217 0.47372 0.0
H1571 H 0.98747 0.24851 0.53735 0.0
H1572 H 0.98768 0.24799 0.47884 0.0
C1573 C 0.89795 0.23917 0.49089 0.0
C1574 C 0.79182 0.96273 0.49147 0.0
C1575 C 0.79476 0.93056 0.47414 0.0
H1576 H 0.79011 0.98815 0.53755 0.0
C1577 C 0.7981 0.89834 0.49141 0.0
H1578 H 0.78931 0.98807 0.47904 0.0
C1579 C 0.79859 0.89838 0.52523 0.0
C1580 C 0.79575 0.93063 0.54248 0.0
H1581 H 0.80051 0.87308 0.47882 0.0
H1582 H 0.80132 0.87315 0.53782 0.0
C1583 C 0.79231 0.96276 0.52514 0.0
C1584 C 0.63749 0.73909 0.49056 0.0
C1585 C 0.60526 0.74206 0.47323 0.0
H1586 H 0.66271 0.73666 0.53702 0.0
C1587 C 0.57312 0.74533 0.49052 0.0
H1588 H 0.66273 0.73647 0.47802 0.0
C1589 C 0.57312 0.74544 0.52421 0.0
C1590 C 0.60525 0.74229 0.54161 0.0
H1591 H 0.54776 0.74761 0.47806 0.0
H1592 H 0.54774 0.7478 0.53658 0.0
C1593 C 0.63748 0.7392 0.52439 0.0
C1594 C 0.29115 0.5732 0.49023 0.0
C1595 C 0.29416 0.60541 0.47297 0.0
H1596 H 0.28888 0.5477 0.53628 0.0
C1597 C 0.29691 0.63763 0.4903 0.0
H1598 H 0.28904 0.54784 0.47776 0.0
C1599 C 0.2968 0.63755 0.52413 0.0
C1600 C 0.29396 0.60524 0.54132 0.0
H1601 H 0.29932 0.66292 0.47778 0.0
H1602 H 0.29916 0.66278 0.53677 0.0
C1603 C 0.29105 0.57312 0.52391 0.0
C1604 C 0.39784 0.29721 0.5243 0.0
C1605 C 0.43003 0.29422 0.54167 0.0
H1606 H 0.37273 0.29985 0.4778 0.0
C1607 C 0.46223 0.29118 0.52443 0.0
H1608 H 0.37256 0.29966 0.53682 0.0
C1609 C 0.46232 0.29129 0.49075 0.0
C1610 C 0.43023 0.29444 0.47331 0.0
H1611 H 0.48757 0.28889 0.53691 0.0
H1612 H 0.48774 0.28908 0.47842 0.0
C1613 C 0.39793 0.29732 0.49047 0.0
C1614 C 0.7385 0.39814 0.52471 0.0
C1615 C 0.74131 0.43041 0.54197 0.0
H1616 H 0.73625 0.37285 0.47828 0.0
C1617 C 0.74448 0.46254 0.52462 0.0
H1618 H 0.73596 0.3729 0.5373 0.0
C1619 C 0.74466 0.46251 0.49094 0.0
C1620 C 0.74167 0.43035 0.4736 0.0
H1621 H 0.74664 0.48794 0.53702 0.0
H1622 H 0.74695 0.48788 0.47853 0.0
C1623 C 0.73867 0.39811 0.49087 0.0
C1624 C 0.63723 0.29659 0.02451 0.0
C1625 C 0.60504 0.29371 0.04184 0.0
H1626 H 0.66229 0.29897 0.97802 0.0
C1627 C 0.57284 0.29059 0.02455 0.0
H1628 H 0.66251 0.29909 0.03705 0.0
C1629 C 0.57271 0.29052 0.99087 0.0
C1630 C 0.60479 0.29356 0.97346 0.0
H1631 H 0.5475 0.28839 0.03701 0.0
H1632 H 0.54729 0.28827 0.97852 0.0
C1633 C 0.6371 0.29651 0.99067 0.0
C1634 C 0.73706 0.63729 0.99091 0.0
C1635 C 0.73966 0.60499 0.97369 0.0
H1636 H 0.73539 0.66267 0.03731 0.0
C1637 C 0.74301 0.57288 0.99105 0.0
H1638 H 0.73441 0.66251 0.9783 0.0
C1639 C 0.7436 0.57297 0.02472 0.0
C1640 C 0.74085 0.60517 0.04202 0.0
H1641 H 0.74503 0.54746 0.97866 0.0
H1642 H 0.74602 0.54762 0.03715 0.0
C1643 C 0.73765 0.63738 0.02474 0.0
C1644 C 0.46137 0.74486 0.99004 0.0
C1645 C 0.4291 0.74208 0.97278 0.0
H1646 H 0.48705 0.74673 0.03605 0.0
C1647 C 0.39695 0.73931 0.99017 0.0
H1648 H 0.48669 0.74697 0.97754 0.0
C1649 C 0.39717 0.73915 0.02402 0.0
C1650 C 0.42954 0.74178 0.0412 0.0
H1651 H 0.37162 0.73705 0.97767 0.0
H1652 H 0.37198 0.73679 0.0367 0.0
C1653 C 0.46159 0.74472 0.02373 0.0
C1654 C 0.28989 0.46214 0.0241 0.0
C1655 C 0.29339 0.43004 0.04146 0.0
H1656 H 0.28714 0.48743 0.97799 0.0
C1657 C 0.29648 0.39779 0.02422 0.0
H1658 H 0.28749 0.48752 0.0365 0.0
C1659 C 0.29627 0.39775 0.99038 0.0
C1660 C 0.29296 0.42995 0.97309 0.0
H1661 H 0.29927 0.37258 0.03682 0.0
H1662 H 0.29893 0.3725 0.97781 0.0
C1663 C 0.28967 0.46209 0.99042 0.0
loop_
_geom_bond_atom_site_label_1
_geom_bond_atom_site_label_2
_geom_bond_distance
_geom_bond_site_symmetry_2
_ccdc_geom_bond_type
Fe0 O2 1.918 . S
Fe0 O5 1.997 . S
Fe0 O6 2.002 . S
Fe0 O11 1.976 . S
Fe0 O14 1.996 . S
Fe1 O2 1.918 . S
Fe1 O9 1.997 . S
Fe1 O12 1.996 . S
Fe1 O16 1.976 . S
Fe1 O19 2.002 . S
O2 Fe0 1.918 . S
O2 Fe1 1.918 . S
O2 Fe3 1.918 . S
Fe3 O2 1.918 . S
Fe3 O4 2.002 . S
Fe3 O13 1.976 . S
Fe3 O17 1.996 . S
Fe3 O20 1.997 . S
O4 Fe3 2.002 . S
O4 C21 1.295 . S
O5 Fe0 1.997 . S
O5 C21 1.235 . S
O6 Fe0 2.002 . S
O6 C7 1.295 . S
C7 O6 1.295 . S
C7 O9 1.235 . S
C8 O13 1.287 . S
C8 O14 1.255 . S
O9 Fe1 1.997 . S
O9 C7 1.235 . S
C10 O16 1.287 . S
C10 O17 1.255 . S
O11 Fe0 1.976 . S
O11 C18 1.287 . S
O12 Fe1 1.996 . S
O12 C18 1.255 . S
O13 Fe3 1.976 . S
O13 C8 1.287 . S
O14 Fe0 1.996 . S
O14 C8 1.255 . S
C15 O19 1.295 . S
C15 O20 1.235 . S
O16 Fe1 1.976 . S
O16 C10 1.287 . S
O17 Fe3 1.996 . S
O17 C10 1.255 . S
C18 O11 1.287 . S
C18 O12 1.255 . S
O19 Fe1 2.002 . S
O19 C15 1.295 . S
O20 Fe3 1.997 . S
O20 C15 1.235 . S
C21 O4 1.295 . S
C21 O5 1.235 . S
Fe22 O24 1.918 . S
Fe22 O27 1.997 . S
Fe22 O28 2.002 . S
Fe22 O33 1.976 . S
Fe22 O36 1.996 . S
Fe23 O24 1.918 . S
Fe23 O31 1.997 . S
Fe23 O34 1.996 . S
Fe23 O38 1.976 . S
Fe23 O41 2.002 . S
O24 Fe22 1.918 . S
O24 Fe23 1.918 . S
O24 Fe25 1.918 . S
Fe25 O24 1.918 . S
Fe25 O26 2.002 . S
Fe25 O35 1.976 . S
Fe25 O39 1.996 . S
Fe25 O42 1.997 . S
O26 Fe25 2.002 . S
O26 C43 1.295 . S
O27 Fe22 1.997 . S
O27 C43 1.235 . S
O28 Fe22 2.002 . S
O28 C29 1.295 . S
C29 O28 1.295 . S
C29 O31 1.235 . S
C30 O35 1.287 . S
C30 O36 1.255 . S
O31 Fe23 1.997 . S
O31 C29 1.235 . S
C32 O38 1.287 . S
C32 O39 1.255 . S
O33 Fe22 1.976 . S
O33 C40 1.287 . S
O34 Fe23 1.996 . S
O34 C40 1.255 . S
O35 Fe25 1.976 . S
O35 C30 1.287 . S
O36 Fe22 1.996 . S
O36 C30 1.255 . S
C37 O41 1.295 . S
C37 O42 1.235 . S
O38 Fe23 1.976 . S
O38 C32 1.287 . S
O39 Fe25 1.996 . S
O39 C32 1.255 . S
C40 O33 1.287 . S
C40 O34 1.255 . S
O41 Fe23 2.002 . S
O41 C37 1.295 . S
O42 Fe25 1.997 . S
O42 C37 1.235 . S
C43 O26 1.295 . S
C43 O27 1.235 . S
Fe44 O46 1.918 . S
Fe44 O49 1.997 . S
Fe44 O50 2.002 . S
Fe44 O55 1.976 . S
Fe44 O58 1.996 . S
Fe45 O46 1.918 . S
Fe45 O53 1.997 . S
Fe45 O56 1.996 . S
Fe45 O60 1.976 . S
Fe45 O63 2.002 . S
O46 Fe44 1.918 . S
O46 Fe45 1.918 . S
O46 Fe47 1.918 . S
Fe47 O46 1.918 . S
Fe47 O48 2.002 . S
Fe47 O57 1.976 . S
Fe47 O61 1.996 . S
Fe47 O64 1.997 . S
O48 Fe47 2.002 . S
O48 C65 1.295 . S
O49 Fe44 1.997 . S
O49 C65 1.235 . S
O50 Fe44 2.002 . S
O50 C51 1.295 . S
C51 O50 1.295 . S
C51 O53 1.235 . S
C52 O57 1.287 . S
C52 O58 1.255 . S
O53 Fe45 1.997 . S
O53 C51 1.235 . S
C54 O60 1.287 . S
C54 O61 1.255 . S
O55 Fe44 1.976 . S
O55 C62 1.287 . S
O56 Fe45 1.996 . S
O56 C62 1.255 . S
O57 Fe47 1.976 . S
O57 C52 1.287 . S
O58 Fe44 1.996 . S
O58 C52 1.255 . S
C59 O63 1.295 . S
C59 O64 1.235 . S
O60 Fe45 1.976 . S
O60 C54 1.287 . S
O61 Fe47 1.996 . S
O61 C54 1.255 . S
C62 O55 1.287 . S
C62 O56 1.255 . S
O63 Fe45 2.002 . S
O63 C59 1.295 . S
O64 Fe47 1.997 . S
O64 C59 1.235 . S
C65 O48 1.295 . S
C65 O49 1.235 . S
Fe66 O68 1.918 . S
Fe66 O71 1.997 . S
Fe66 O72 2.002 . S
Fe66 O77 1.976 . S
Fe66 O80 1.996 . S
Fe67 O68 1.918 . S
Fe67 O75 1.997 . S
Fe67 O78 1.996 . S
Fe67 O82 1.976 . S
Fe67 O85 2.002 . S
O68 Fe66 1.918 . S
O68 Fe67 1.918 . S
O68 Fe69 1.918 . S
Fe69 O68 1.918 . S
Fe69 O70 2.002 . S
Fe69 O79 1.976 . S
Fe69 O83 1.996 . S
Fe69 O86 1.997 . S
O70 Fe69 2.002 . S
O70 C87 1.295 . S
O71 Fe66 1.997 . S
O71 C87 1.235 . S
O72 Fe66 2.002 . S
O72 C73 1.295 . S
C73 O72 1.295 . S
C73 O75 1.235 . S
C74 O79 1.287 . S
C74 O80 1.255 . S
O75 Fe67 1.997 . S
O75 C73 1.235 . S
C76 O82 1.287 . S
C76 O83 1.255 . S
O77 Fe66 1.976 . S
O77 C84 1.287 . S
O78 Fe67 1.996 . S
O78 C84 1.255 . S
O79 Fe69 1.976 . S
O79 C74 1.287 . S
O80 Fe66 1.996 . S
O80 C74 1.255 . S
C81 O85 1.295 . S
C81 O86 1.235 . S
O82 Fe67 1.976 . S
O82 C76 1.287 . S
O83 Fe69 1.996 . S
O83 C76 1.255 . S
C84 O77 1.287 . S
C84 O78 1.255 . S
O85 Fe67 2.002 . S
O85 C81 1.295 . S
O86 Fe69 1.997 . S
O86 C81 1.235 . S
C87 O70 1.295 . S
C87 O71 1.235 . S
Fe88 O90 1.918 . S
Fe88 O93 1.997 . S
Fe88 O94 2.002 . S
Fe88 O99 1.976 . S
Fe88 O102 1.996 . S
Fe89 O90 1.918 . S
Fe89 O97 1.997 . S
Fe89 O100 1.996 . S
Fe89 O104 1.976 . S
Fe89 O107 2.002 . S
O90 Fe88 1.918 . S
O90 Fe89 1.918 . S
O90 Fe91 1.918 . S
Fe91 O90 1.918 . S
Fe91 O92 2.002 . S
Fe91 O101 1.976 . S
Fe91 O105 1.996 . S
Fe91 O108 1.997 . S
O92 Fe91 2.002 . S
O92 C109 1.295 . S
O93 Fe88 1.997 . S
O93 C109 1.235 . S
O94 Fe88 2.002 . S
O94 C95 1.295 . S
C95 O94 1.295 . S
C95 O97 1.235 . S
C96 O101 1.287 . S
C96 O102 1.255 . S
O97 Fe89 1.997 . S
O97 C95 1.235 . S
C98 O104 1.287 . S
C98 O105 1.255 . S
O99 Fe88 1.976 . S
O99 C106 1.287 . S
O100 Fe89 1.996 . S
O100 C106 1.255 . S
O101 Fe91 1.976 . S
O101 C96 1.287 . S
O102 Fe88 1.996 . S
O102 C96 1.255 . S
C103 O107 1.295 . S
C103 O108 1.235 . S
O104 Fe89 1.976 . S
O104 C98 1.287 . S
O105 Fe91 1.996 . S
O105 C98 1.255 . S
C106 O99 1.287 . S
C106 O100 1.255 . S
O107 Fe89 2.002 . S
O107 C103 1.295 . S
O108 Fe91 1.997 . S
O108 C103 1.235 . S
C109 O92 1.295 . S
C109 O93 1.235 . S
Fe110 O112 1.918 . S
Fe110 O115 1.997 . S
Fe110 O116 2.002 . S
Fe110 O121 1.976 . S
Fe110 O124 1.996 . S
Fe111 O112 1.918 . S
Fe111 O119 1.997 . S
Fe111 O122 1.996 . S
Fe111 O126 1.976 . S
Fe111 O129 2.002 . S
O112 Fe110 1.918 . S
O112 Fe111 1.918 . S
O112 Fe113 1.918 . S
Fe113 O112 1.918 . S
Fe113 O114 2.002 . S
Fe113 O123 1.976 . S
Fe113 O127 1.996 . S
Fe113 O130 1.997 . S
O114 Fe113 2.002 . S
O114 C131 1.295 . S
O115 Fe110 1.997 . S
O115 C131 1.235 . S
O116 Fe110 2.002 . S
O116 C117 1.295 . S
C117 O116 1.295 . S
C117 O119 1.235 . S
C118 O123 1.287 . S
C118 O124 1.255 . S
O119 Fe111 1.997 . S
O119 C117 1.235 . S
C120 O126 1.287 . S
C120 O127 1.255 . S
O121 Fe110 1.976 . S
O121 C128 1.287 . S
O122 Fe111 1.996 . S
O122 C128 1.255 . S
O123 Fe113 1.976 . S
O123 C118 1.287 . S
O124 Fe110 1.996 . S
O124 C118 1.255 . S
C125 O129 1.295 . S
C125 O130 1.235 . S
O126 Fe111 1.976 . S
O126 C120 1.287 . S
O127 Fe113 1.996 . S
O127 C120 1.255 . S
C128 O121 1.287 . S
C128 O122 1.255 . S
O129 Fe111 2.002 . S
O129 C125 1.295 . S
O130 Fe113 1.997 . S
O130 C125 1.235 . S
C131 O114 1.295 . S
C131 O115 1.235 . S
Fe132 O134 1.918 . S
Fe132 O137 1.997 . S
Fe132 O138 2.002 . S
Fe132 O143 1.976 . S
Fe132 O146 1.996 . S
Fe133 O134 1.918 . S
Fe133 O141 1.997 . S
Fe133 O144 1.996 . S
Fe133 O148 1.976 . S
Fe133 O151 2.002 . S
O134 Fe132 1.918 . S
O134 Fe133 1.918 . S
O134 Fe135 1.918 . S
Fe135 O134 1.918 . S
Fe135 O136 2.002 . S
Fe135 O145 1.976 . S
Fe135 O149 1.996 . S
Fe135 O152 1.997 . S
O136 Fe135 2.002 . S
O136 C153 1.295 . S
O137 Fe132 1.997 . S
O137 C153 1.235 . S
O138 Fe132 2.002 . S
O138 C139 1.295 . S
C139 O138 1.295 . S
C139 O141 1.235 . S
C140 O145 1.287 . S
C140 O146 1.255 . S
O141 Fe133 1.997 . S
O141 C139 1.235 . S
C142 O148 1.287 . S
C142 O149 1.255 . S
O143 Fe132 1.976 . S
O143 C150 1.287 . S
O144 Fe133 1.996 . S
O144 C150 1.255 . S
O145 Fe135 1.976 . S
O145 C140 1.287 . S
O146 Fe132 1.996 . S
O146 C140 1.255 . S
C147 O151 1.295 . S
C147 O152 1.235 . S
O148 Fe133 1.976 . S
O148 C142 1.287 . S
O149 Fe135 1.996 . S
O149 C142 1.255 . S
C150 O143 1.287 . S
C150 O144 1.255 . S
O151 Fe133 2.002 . S
O151 C147 1.295 . S
O152 Fe135 1.997 . S
O152 C147 1.235 . S
C153 O136 1.295 . S
C153 O137 1.235 . S
Fe154 O156 1.918 . S
Fe154 O159 1.997 . S
Fe154 O160 2.002 . S
Fe154 O165 1.976 . S
Fe154 O168 1.996 . S
Fe155 O156 1.918 . S
Fe155 O163 1.997 . S
Fe155 O166 1.996 . S
Fe155 O170 1.976 . S
Fe155 O173 2.002 . S
O156 Fe154 1.918 . S
O156 Fe155 1.918 . S
O156 Fe157 1.918 . S
Fe157 O156 1.918 . S
Fe157 O158 2.002 . S
Fe157 O167 1.976 . S
Fe157 O171 1.996 . S
Fe157 O174 1.997 . S
O158 Fe157 2.002 . S
O158 C175 1.295 . S
O159 Fe154 1.997 . S
O159 C175 1.235 . S
O160 Fe154 2.002 . S
O160 C161 1.295 . S
C161 O160 1.295 . S
C161 O163 1.235 . S
C162 O167 1.287 . S
C162 O168 1.255 . S
O163 Fe155 1.997 . S
O163 C161 1.235 . S
C164 O170 1.287 . S
C164 O171 1.255 . S
O165 Fe154 1.976 . S
O165 C172 1.287 . S
O166 Fe155 1.996 . S
O166 C172 1.255 . S
O167 Fe157 1.976 . S
O167 C162 1.287 . S
O168 Fe154 1.996 . S
O168 C162 1.255 . S
C169 O173 1.295 . S
C169 O174 1.235 . S
O170 Fe155 1.976 . S
O170 C164 1.287 . S
O171 Fe157 1.996 . S
O171 C164 1.255 . S
C172 O165 1.287 . S
C172 O166 1.255 . S
O173 Fe155 2.002 . S
O173 C169 1.295 . S
O174 Fe157 1.997 . S
O174 C169 1.235 . S
C175 O158 1.295 . S
C175 O159 1.235 . S
Fe176 O178 1.918 . S
Fe176 O181 1.997 . S
Fe176 O182 2.002 . S
Fe176 O187 1.976 . S
Fe176 O190 1.996 . S
Fe177 O178 1.918 . S
Fe177 O185 1.997 . S
Fe177 O188 1.996 . S
Fe177 O192 1.976 . S
Fe177 O195 2.002 . S
O178 Fe176 1.918 . S
O178 Fe177 1.918 . S
O178 Fe179 1.918 . S
Fe179 O178 1.918 . S
Fe179 O180 2.002 . S
Fe179 O189 1.976 . S
Fe179 O193 1.996 . S
Fe179 O196 1.997 . S
O180 Fe179 2.002 . S
O180 C197 1.295 . S
O181 Fe176 1.997 . S
O181 C197 1.235 . S
O182 Fe176 2.002 . S
O182 C183 1.295 . S
C183 O182 1.295 . S
C183 O185 1.235 . S
C184 O189 1.287 . S
C184 O190 1.255 . S
O185 Fe177 1.997 . S
O185 C183 1.235 . S
C186 O192 1.287 . S
C186 O193 1.255 . S
O187 Fe176 1.976 . S
O187 C194 1.287 . S
O188 Fe177 1.996 . S
O188 C194 1.255 . S
O189 Fe179 1.976 . S
O189 C184 1.287 . S
O190 Fe176 1.996 . S
O190 C184 1.255 . S
C191 O195 1.295 . S
C191 O196 1.235 . S
O192 Fe177 1.976 . S
O192 C186 1.287 . S
O193 Fe179 1.996 . S
O193 C186 1.255 . S
C194 O187 1.287 . S
C194 O188 1.255 . S
O195 Fe177 2.002 . S
O195 C191 1.295 . S
O196 Fe179 1.997 . S
O196 C191 1.235 . S
C197 O180 1.295 . S
C197 O181 1.235 . S
Fe198 O200 1.918 . S
Fe198 O203 1.997 . S
Fe198 O204 2.002 . S
Fe198 O209 1.976 . S
Fe198 O212 1.996 . S
Fe199 O200 1.918 . S
Fe199 O207 1.997 . S
Fe199 O210 1.996 . S
Fe199 O214 1.976 . S
Fe199 O217 2.002 . S
O200 Fe198 1.918 . S
O200 Fe199 1.918 . S
O200 Fe201 1.918 . S
Fe201 O200 1.918 . S
Fe201 O202 2.002 . S
Fe201 O211 1.976 . S
Fe201 O215 1.996 . S
Fe201 O218 1.997 . S
O202 Fe201 2.002 . S
O202 C219 1.295 . S
O203 Fe198 1.997 . S
O203 C219 1.235 . S
O204 Fe198 2.002 . S
O204 C205 1.295 . S
C205 O204 1.295 . S
C205 O207 1.235 . S
C206 O211 1.287 . S
C206 O212 1.255 . S
O207 Fe199 1.997 . S
O207 C205 1.235 . S
C208 O214 1.287 . S
C208 O215 1.255 . S
O209 Fe198 1.976 . S
O209 C216 1.287 . S
O210 Fe199 1.996 . S
O210 C216 1.255 . S
O211 Fe201 1.976 . S
O211 C206 1.287 . S
O212 Fe198 1.996 . S
O212 C206 1.255 . S
C213 O217 1.295 . S
C213 O218 1.235 . S
O214 Fe199 1.976 . S
O214 C208 1.287 . S
O215 Fe201 1.996 . S
O215 C208 1.255 . S
C216 O209 1.287 . S
C216 O210 1.255 . S
O217 Fe199 2.002 . S
O217 C213 1.295 . S
O218 Fe201 1.997 . S
O218 C213 1.235 . S
C219 O202 1.295 . S
C219 O203 1.235 . S
Fe220 O222 1.918 . S
Fe220 O225 1.997 . S
Fe220 O226 2.002 . S
Fe220 O231 1.976 . S
Fe220 O234 1.996 . S
Fe221 O222 1.918 . S
Fe221 O229 1.997 . S
Fe221 O232 1.996 . S
Fe221 O236 1.976 . S
Fe221 O239 2.002 . S
O222 Fe220 1.918 . S
O222 Fe221 1.918 . S
O222 Fe223 1.918 . S
Fe223 O222 1.918 . S
Fe223 O224 2.002 . S
Fe223 O233 1.976 . S
Fe223 O237 1.996 . S
Fe223 O240 1.997 . S
O224 Fe223 2.002 . S
O224 C241 1.295 . S
O225 Fe220 1.997 . S
O225 C241 1.235 . S
O226 Fe220 2.002 . S
O226 C227 1.295 . S
C227 O226 1.295 . S
C227 O229 1.235 . S
C228 O233 1.287 . S
C228 O234 1.255 . S
O229 Fe221 1.997 . S
O229 C227 1.235 . S
C230 O236 1.287 . S
C230 O237 1.255 . S
O231 Fe220 1.976 . S
O231 C238 1.287 . S
O232 Fe221 1.996 . S
O232 C238 1.255 . S
O233 Fe223 1.976 . S
O233 C228 1.287 . S
O234 Fe220 1.996 . S
O234 C228 1.255 . S
C235 O239 1.295 . S
C235 O240 1.235 . S
O236 Fe221 1.976 . S
O236 C230 1.287 . S
O237 Fe223 1.996 . S
O237 C230 1.255 . S
C238 O231 1.287 . S
C238 O232 1.255 . S
O239 Fe221 2.002 . S
O239 C235 1.295 . S
O240 Fe223 1.997 . S
O240 C235 1.235 . S
C241 O224 1.295 . S
C241 O225 1.235 . S
Fe242 O244 1.918 . S
Fe242 O247 1.997 . S
Fe242 O248 2.002 . S
Fe242 O253 1.976 . S
Fe242 O256 1.996 . S
Fe243 O244 1.918 . S
Fe243 O251 1.997 . S
Fe243 O254 1.996 . S
Fe243 O258 1.976 . S
Fe243 O261 2.002 . S
O244 Fe242 1.918 . S
O244 Fe243 1.918 . S
O244 Fe245 1.918 . S
Fe245 O244 1.918 . S
Fe245 O246 2.002 . S
Fe245 O255 1.976 . S
Fe245 O259 1.996 . S
Fe245 O262 1.997 . S
O246 Fe245 2.002 . S
O246 C263 1.295 . S
O247 Fe242 1.997 . S
O247 C263 1.235 . S
O248 Fe242 2.002 . S
O248 C249 1.295 . S
C249 O248 1.295 . S
C249 O251 1.235 . S
C250 O255 1.287 . S
C250 O256 1.255 . S
O251 Fe243 1.997 . S
O251 C249 1.235 . S
C252 O258 1.287 . S
C252 O259 1.255 . S
O253 Fe242 1.976 . S
O253 C260 1.287 . S
O254 Fe243 1.996 . S
O254 C260 1.255 . S
O255 Fe245 1.976 . S
O255 C250 1.287 . S
O256 Fe242 1.996 . S
O256 C250 1.255 . S
C257 O261 1.295 . S
C257 O262 1.235 . S
O258 Fe243 1.976 . S
O258 C252 1.287 . S
O259 Fe245 1.996 . S
O259 C252 1.255 . S
C260 O253 1.287 . S
C260 O254 1.255 . S
O261 Fe243 2.002 . S
O261 C257 1.295 . S
O262 Fe245 1.997 . S
O262 C257 1.235 . S
C263 O246 1.295 . S
C263 O247 1.235 . S
Fe264 O266 1.918 . S
Fe264 O269 1.997 . S
Fe264 O270 2.002 . S
Fe264 O275 1.976 . S
Fe264 O278 1.996 . S
Fe265 O266 1.918 . S
Fe265 O273 1.997 . S
Fe265 O276 1.996 . S
Fe265 O280 1.976 . S
Fe265 O283 2.002 . S
O266 Fe264 1.918 . S
O266 Fe265 1.918 . S
O266 Fe267 1.918 . S
Fe267 O266 1.918 . S
Fe267 O268 2.002 . S
Fe267 O277 1.976 . S
Fe267 O281 1.996 . S
Fe267 O284 1.997 . S
O268 Fe267 2.002 . S
O268 C285 1.295 . S
O269 Fe264 1.997 . S
O269 C285 1.235 . S
O270 Fe264 2.002 . S
O270 C271 1.295 . S
C271 O270 1.295 . S
C271 O273 1.235 . S
C272 O277 1.287 . S
C272 O278 1.255 . S
O273 Fe265 1.997 . S
O273 C271 1.235 . S
C274 O280 1.287 . S
C274 O281 1.255 . S
O275 Fe264 1.976 . S
O275 C282 1.287 . S
O276 Fe265 1.996 . S
O276 C282 1.255 . S
O277 Fe267 1.976 . S
O277 C272 1.287 . S
O278 Fe264 1.996 . S
O278 C272 1.255 . S
C279 O283 1.295 . S
C279 O284 1.235 . S
O280 Fe265 1.976 . S
O280 C274 1.287 . S
O281 Fe267 1.996 . S
O281 C274 1.255 . S
C282 O275 1.287 . S
C282 O276 1.255 . S
O283 Fe265 2.002 . S
O283 C279 1.295 . S
O284 Fe267 1.997 . S
O284 C279 1.235 . S
C285 O268 1.295 . S
C285 O269 1.235 . S
Fe286 O288 1.918 . S
Fe286 O291 1.997 . S
Fe286 O292 2.002 . S
Fe286 O297 1.976 . S
Fe286 O300 1.996 . S
Fe287 O288 1.918 . S
Fe287 O295 1.997 . S
Fe287 O298 1.996 . S
Fe287 O302 1.976 . S
Fe287 O305 2.002 . S
O288 Fe286 1.918 . S
O288 Fe287 1.918 . S
O288 Fe289 1.918 . S
Fe289 O288 1.918 . S
Fe289 O290 2.002 . S
Fe289 O299 1.976 . S
Fe289 O303 1.996 . S
Fe289 O306 1.997 . S
O290 Fe289 2.002 . S
O290 C307 1.295 . S
O291 Fe286 1.997 . S
O291 C307 1.235 . S
O292 Fe286 2.002 . S
O292 C293 1.295 . S
C293 O292 1.295 . S
C293 O295 1.235 . S
C294 O299 1.287 . S
C294 O300 1.255 . S
O295 Fe287 1.997 . S
O295 C293 1.235 . S
C296 O302 1.287 . S
C296 O303 1.255 . S
O297 Fe286 1.976 . S
O297 C304 1.287 . S
O298 Fe287 1.996 . S
O298 C304 1.255 . S
O299 Fe289 1.976 . S
O299 C294 1.287 . S
O300 Fe286 1.996 . S
O300 C294 1.255 . S
C301 O305 1.295 . S
C301 O306 1.235 . S
O302 Fe287 1.976 . S
O302 C296 1.287 . S
O303 Fe289 1.996 . S
O303 C296 1.255 . S
C304 O297 1.287 . S
C304 O298 1.255 . S
O305 Fe287 2.002 . S
O305 C301 1.295 . S
O306 Fe289 1.997 . S
O306 C301 1.235 . S
C307 O290 1.295 . S
C307 O291 1.235 . S
Fe308 O310 1.918 . S
Fe308 O313 1.997 . S
Fe308 O314 2.002 . S
Fe308 O319 1.976 . S
Fe308 O322 1.996 . S
Fe309 O310 1.918 . S
Fe309 O317 1.997 . S
Fe309 O320 1.996 . S
Fe309 O324 1.976 . S
Fe309 O327 2.002 . S
O310 Fe308 1.918 . S
O310 Fe309 1.918 . S
O310 Fe311 1.918 . S
Fe311 O310 1.918 . S
Fe311 O312 2.002 . S
Fe311 O321 1.976 . S
Fe311 O325 1.996 . S
Fe311 O328 1.997 . S
O312 Fe311 2.002 . S
O312 C329 1.295 . S
O313 Fe308 1.997 . S
O313 C329 1.235 . S
O314 Fe308 2.002 . S
O314 C315 1.295 . S
C315 O314 1.295 . S
C315 O317 1.235 . S
C316 O321 1.287 . S
C316 O322 1.255 . S
O317 Fe309 1.997 . S
O317 C315 1.235 . S
C318 O324 1.287 . S
C318 O325 1.255 . S
O319 Fe308 1.976 . S
O319 C326 1.287 . S
O320 Fe309 1.996 . S
O320 C326 1.255 . S
O321 Fe311 1.976 . S
O321 C316 1.287 . S
O322 Fe308 1.996 . S
O322 C316 1.255 . S
C323 O327 1.295 . S
C323 O328 1.235 . S
O324 Fe309 1.976 . S
O324 C318 1.287 . S
O325 Fe311 1.996 . S
O325 C318 1.255 . S
C326 O319 1.287 . S
C326 O320 1.255 . S
O327 Fe309 2.002 . S
O327 C323 1.295 . S
O328 Fe311 1.997 . S
O328 C323 1.235 . S
C329 O312 1.295 . S
C329 O313 1.235 . S
Fe330 O332 1.918 . S
Fe330 O335 1.997 . S
Fe330 O336 2.002 . S
Fe330 O341 1.976 . S
Fe330 O344 1.996 . S
Fe331 O332 1.918 . S
Fe331 O339 1.997 . S
Fe331 O342 1.996 . S
Fe331 O346 1.976 . S
Fe331 O349 2.002 . S
O332 Fe330 1.918 . S
O332 Fe331 1.918 . S
O332 Fe333 1.918 . S
Fe333 O332 1.918 . S
Fe333 O334 2.002 . S
Fe333 O343 1.976 . S
Fe333 O347 1.996 . S
Fe333 O350 1.997 . S
O334 Fe333 2.002 . S
O334 C351 1.295 . S
O335 Fe330 1.997 . S
O335 C351 1.235 . S
O336 Fe330 2.002 . S
O336 C337 1.295 . S
C337 O336 1.295 . S
C337 O339 1.235 . S
C338 O343 1.287 . S
C338 O344 1.255 . S
O339 Fe331 1.997 . S
O339 C337 1.235 . S
C340 O346 1.287 . S
C340 O347 1.255 . S
O341 Fe330 1.976 . S
O341 C348 1.287 . S
O342 Fe331 1.996 . S
O342 C348 1.255 . S
O343 Fe333 1.976 . S
O343 C338 1.287 . S
O344 Fe330 1.996 . S
O344 C338 1.255 . S
C345 O349 1.295 . S
C345 O350 1.235 . S
O346 Fe331 1.976 . S
O346 C340 1.287 . S
O347 Fe333 1.996 . S
O347 C340 1.255 . S
C348 O341 1.287 . S
C348 O342 1.255 . S
O349 Fe331 2.002 . S
O349 C345 1.295 . S
O350 Fe333 1.997 . S
O350 C345 1.235 . S
C351 O334 1.295 . S
C351 O335 1.235 . S
Fe352 O354 1.918 . S
Fe352 O357 1.997 . S
Fe352 O358 2.002 . S
Fe352 O363 1.976 . S
Fe352 O366 1.996 . S
Fe353 O354 1.918 . S
Fe353 O361 1.997 . S
Fe353 O364 1.996 . S
Fe353 O368 1.976 . S
Fe353 O371 2.002 . S
O354 Fe352 1.918 . S
O354 Fe353 1.918 . S
O354 Fe355 1.918 . S
Fe355 O354 1.918 . S
Fe355 O356 2.002 . S
Fe355 O365 1.976 . S
Fe355 O369 1.996 . S
Fe355 O372 1.997 . S
O356 Fe355 2.002 . S
O356 C373 1.295 . S
O357 Fe352 1.997 . S
O357 C373 1.235 . S
O358 Fe352 2.002 . S
O358 C359 1.295 . S
C359 O358 1.295 . S
C359 O361 1.235 . S
C360 O365 1.287 . S
C360 O366 1.255 . S
O361 Fe353 1.997 . S
O361 C359 1.235 . S
C362 O368 1.287 . S
C362 O369 1.255 . S
O363 Fe352 1.976 . S
O363 C370 1.287 . S
O364 Fe353 1.996 . S
O364 C370 1.255 . S
O365 Fe355 1.976 . S
O365 C360 1.287 . S
O366 Fe352 1.996 . S
O366 C360 1.255 . S
C367 O371 1.295 . S
C367 O372 1.235 . S
O368 Fe353 1.976 . S
O368 C362 1.287 . S
O369 Fe355 1.996 . S
O369 C362 1.255 . S
C370 O363 1.287 . S
C370 O364 1.255 . S
O371 Fe353 2.002 . S
O371 C367 1.295 . S
O372 Fe355 1.997 . S
O372 C367 1.235 . S
C373 O356 1.295 . S
C373 O357 1.235 . S
Fe374 O376 1.918 . S
Fe374 O379 1.997 . S
Fe374 O380 2.002 . S
Fe374 O385 1.976 . S
Fe374 O388 1.996 . S
Fe375 O376 1.918 . S
Fe375 O383 1.997 . S
Fe375 O386 1.996 . S
Fe375 O390 1.976 . S
Fe375 O393 2.002 . S
O376 Fe374 1.918 . S
O376 Fe375 1.918 . S
O376 Fe377 1.918 . S
Fe377 O376 1.918 . S
Fe377 O378 2.002 . S
Fe377 O387 1.976 . S
Fe377 O391 1.996 . S
Fe377 O394 1.997 . S
O378 Fe377 2.002 . S
O378 C395 1.295 . S
O379 Fe374 1.997 . S
O379 C395 1.235 . S
O380 Fe374 2.002 . S
O380 C381 1.295 . S
C381 O380 1.295 . S
C381 O383 1.235 . S
C382 O387 1.287 . S
C382 O388 1.255 . S
O383 Fe375 1.997 . S
O383 C381 1.235 . S
C384 O390 1.287 . S
C384 O391 1.255 . S
O385 Fe374 1.976 . S
O385 C392 1.287 . S
O386 Fe375 1.996 . S
O386 C392 1.255 . S
O387 Fe377 1.976 . S
O387 C382 1.287 . S
O388 Fe374 1.996 . S
O388 C382 1.255 . S
C389 O393 1.295 . S
C389 O394 1.235 . S
O390 Fe375 1.976 . S
O390 C384 1.287 . S
O391 Fe377 1.996 . S
O391 C384 1.255 . S
C392 O385 1.287 . S
C392 O386 1.255 . S
O393 Fe375 2.002 . S
O393 C389 1.295 . S
O394 Fe377 1.997 . S
O394 C389 1.235 . S
C395 O378 1.295 . S
C395 O379 1.235 . S
Fe396 O398 1.918 . S
Fe396 O401 1.997 . S
Fe396 O402 2.002 . S
Fe396 O407 1.976 . S
Fe396 O410 1.996 . S
Fe397 O398 1.918 . S
Fe397 O405 1.997 . S
Fe397 O408 1.996 . S
Fe397 O412 1.976 . S
Fe397 O415 2.002 . S
O398 Fe396 1.918 . S
O398 Fe397 1.918 . S
O398 Fe399 1.918 . S
Fe399 O398 1.918 . S
Fe399 O400 2.002 . S
Fe399 O409 1.976 . S
Fe399 O413 1.996 . S
Fe399 O416 1.997 . S
O400 Fe399 2.002 . S
O400 C417 1.295 . S
O401 Fe396 1.997 . S
O401 C417 1.235 . S
O402 Fe396 2.002 . S
O402 C403 1.295 . S
C403 O402 1.295 . S
C403 O405 1.235 . S
C404 O409 1.287 . S
C404 O410 1.255 . S
O405 Fe397 1.997 . S
O405 C403 1.235 . S
C406 O412 1.287 . S
C406 O413 1.255 . S
O407 Fe396 1.976 . S
O407 C414 1.287 . S
O408 Fe397 1.996 . S
O408 C414 1.255 . S
O409 Fe399 1.976 . S
O409 C404 1.287 . S
O410 Fe396 1.996 . S
O410 C404 1.255 . S
C411 O415 1.295 . S
C411 O416 1.235 . S
O412 Fe397 1.976 . S
O412 C406 1.287 . S
O413 Fe399 1.996 . S
O413 C406 1.255 . S
C414 O407 1.287 . S
C414 O408 1.255 . S
O415 Fe397 2.002 . S
O415 C411 1.295 . S
O416 Fe399 1.997 . S
O416 C411 1.235 . S
C417 O400 1.295 . S
C417 O401 1.235 . S
Fe418 O420 1.918 . S
Fe418 O423 1.997 . S
Fe418 O424 2.002 . S
Fe418 O429 1.976 . S
Fe418 O432 1.996 . S
Fe419 O420 1.918 . S
Fe419 O427 1.997 . S
Fe419 O430 1.996 . S
Fe419 O434 1.976 . S
Fe419 O437 2.002 . S
O420 Fe418 1.918 . S
O420 Fe419 1.918 . S
O420 Fe421 1.918 . S
Fe421 O420 1.918 . S
Fe421 O422 2.002 . S
Fe421 O431 1.976 . S
Fe421 O435 1.996 . S
Fe421 O438 1.997 . S
O422 Fe421 2.002 . S
O422 C439 1.295 . S
O423 Fe418 1.997 . S
O423 C439 1.235 . S
O424 Fe418 2.002 . S
O424 C425 1.295 . S
C425 O424 1.295 . S
C425 O427 1.235 . S
C426 O431 1.287 . S
C426 O432 1.255 . S
O427 Fe419 1.997 . S
O427 C425 1.235 . S
C428 O434 1.287 . S
C428 O435 1.255 . S
O429 Fe418 1.976 . S
O429 C436 1.287 . S
O430 Fe419 1.996 . S
O430 C436 1.255 . S
O431 Fe421 1.976 . S
O431 C426 1.287 . S
O432 Fe418 1.996 . S
O432 C426 1.255 . S
C433 O437 1.295 . S
C433 O438 1.235 . S
O434 Fe419 1.976 . S
O434 C428 1.287 . S
O435 Fe421 1.996 . S
O435 C428 1.255 . S
C436 O429 1.287 . S
C436 O430 1.255 . S
O437 Fe419 2.002 . S
O437 C433 1.295 . S
O438 Fe421 1.997 . S
O438 C433 1.235 . S
C439 O422 1.295 . S
C439 O423 1.235 . S
Fe440 O442 1.918 . S
Fe440 O445 1.997 . S
Fe440 O446 2.002 . S
Fe440 O451 1.976 . S
Fe440 O454 1.996 . S
Fe441 O442 1.918 . S
Fe441 O449 1.997 . S
Fe441 O452 1.996 . S
Fe441 O456 1.976 . S
Fe441 O459 2.002 . S
O442 Fe440 1.918 . S
O442 Fe441 1.918 . S
O442 Fe443 1.918 . S
Fe443 O442 1.918 . S
Fe443 O444 2.002 . S
Fe443 O453 1.976 . S
Fe443 O457 1.996 . S
Fe443 O460 1.997 . S
O444 Fe443 2.002 . S
O444 C461 1.295 . S
O445 Fe440 1.997 . S
O445 C461 1.235 . S
O446 Fe440 2.002 . S
O446 C447 1.295 . S
C447 O446 1.295 . S
C447 O449 1.235 . S
C448 O453 1.287 . S
C448 O454 1.255 . S
O449 Fe441 1.997 . S
O449 C447 1.235 . S
C450 O456 1.287 . S
C450 O457 1.255 . S
O451 Fe440 1.976 . S
O451 C458 1.287 . S
O452 Fe441 1.996 . S
O452 C458 1.255 . S
O453 Fe443 1.976 . S
O453 C448 1.287 . S
O454 Fe440 1.996 . S
O454 C448 1.255 . S
C455 O459 1.295 . S
C455 O460 1.235 . S
O456 Fe441 1.976 . S
O456 C450 1.287 . S
O457 Fe443 1.996 . S
O457 C450 1.255 . S
C458 O451 1.287 . S
C458 O452 1.255 . S
O459 Fe441 2.002 . S
O459 C455 1.295 . S
O460 Fe443 1.997 . S
O460 C455 1.235 . S
C461 O444 1.295 . S
C461 O445 1.235 . S
Fe462 O464 1.918 . S
Fe462 O467 1.997 . S
Fe462 O468 2.002 . S
Fe462 O473 1.976 . S
Fe462 O476 1.996 . S
Fe463 O464 1.918 . S
Fe463 O471 1.997 . S
Fe463 O474 1.996 . S
Fe463 O478 1.976 . S
Fe463 O481 2.002 . S
O464 Fe462 1.918 . S
O464 Fe463 1.918 . S
O464 Fe465 1.918 . S
Fe465 O464 1.918 . S
Fe465 O466 2.002 . S
Fe465 O475 1.976 . S
Fe465 O479 1.996 . S
Fe465 O482 1.997 . S
O466 Fe465 2.002 . S
O466 C483 1.295 . S
O467 Fe462 1.997 . S
O467 C483 1.235 . S
O468 Fe462 2.002 . S
O468 C469 1.295 . S
C469 O468 1.295 . S
C469 O471 1.235 . S
C470 O475 1.287 . S
C470 O476 1.255 . S
O471 Fe463 1.997 . S
O471 C469 1.235 . S
C472 O478 1.287 . S
C472 O479 1.255 . S
O473 Fe462 1.976 . S
O473 C480 1.287 . S
O474 Fe463 1.996 . S
O474 C480 1.255 . S
O475 Fe465 1.976 . S
O475 C470 1.287 . S
O476 Fe462 1.996 . S
O476 C470 1.255 . S
C477 O481 1.295 . S
C477 O482 1.235 . S
O478 Fe463 1.976 . S
O478 C472 1.287 . S
O479 Fe465 1.996 . S
O479 C472 1.255 . S
C480 O473 1.287 . S
C480 O474 1.255 . S
O481 Fe463 2.002 . S
O481 C477 1.295 . S
O482 Fe465 1.997 . S
O482 C477 1.235 . S
C483 O466 1.295 . S
C483 O467 1.235 . S
Fe484 O486 1.918 . S
Fe484 O489 1.997 . S
Fe484 O490 2.002 . S
Fe484 O495 1.976 . S
Fe484 O498 1.996 . S
Fe485 O486 1.918 . S
Fe485 O493 1.997 . S
Fe485 O496 1.996 . S
Fe485 O500 1.976 . S
Fe485 O503 2.002 . S
O486 Fe484 1.918 . S
O486 Fe485 1.918 . S
O486 Fe487 1.918 . S
Fe487 O486 1.918 . S
Fe487 O488 2.002 . S
Fe487 O497 1.976 . S
Fe487 O501 1.996 . S
Fe487 O504 1.997 . S
O488 Fe487 2.002 . S
O488 C505 1.295 . S
O489 Fe484 1.997 . S
O489 C505 1.235 . S
O490 Fe484 2.002 . S
O490 C491 1.295 . S
C491 O490 1.295 . S
C491 O493 1.235 . S
C492 O497 1.287 . S
C492 O498 1.255 . S
O493 Fe485 1.997 . S
O493 C491 1.235 . S
C494 O500 1.287 . S
C494 O501 1.255 . S
O495 Fe484 1.976 . S
O495 C502 1.287 . S
O496 Fe485 1.996 . S
O496 C502 1.255 . S
O497 Fe487 1.976 . S
O497 C492 1.287 . S
O498 Fe484 1.996 . S
O498 C492 1.255 . S
C499 O503 1.295 . S
C499 O504 1.235 . S
O500 Fe485 1.976 . S
O500 C494 1.287 . S
O501 Fe487 1.996 . S
O501 C494 1.255 . S
C502 O495 1.287 . S
C502 O496 1.255 . S
O503 Fe485 2.002 . S
O503 C499 1.295 . S
O504 Fe487 1.997 . S
O504 C499 1.235 . S
C505 O488 1.295 . S
C505 O489 1.235 . S
Fe506 O508 1.918 . S
Fe506 O511 1.997 . S
Fe506 O512 2.002 . S
Fe506 O517 1.976 . S
Fe506 O520 1.996 . S
Fe507 O508 1.918 . S
Fe507 O515 1.997 . S
Fe507 O518 1.996 . S
Fe507 O522 1.976 . S
Fe507 O525 2.002 . S
O508 Fe506 1.918 . S
O508 Fe507 1.918 . S
O508 Fe509 1.918 . S
Fe509 O508 1.918 . S
Fe509 O510 2.002 . S
Fe509 O519 1.976 . S
Fe509 O523 1.996 . S
Fe509 O526 1.997 . S
O510 Fe509 2.002 . S
O510 C527 1.295 . S
O511 Fe506 1.997 . S
O511 C527 1.235 . S
O512 Fe506 2.002 . S
O512 C513 1.295 . S
C513 O512 1.295 . S
C513 O515 1.235 . S
C514 O519 1.287 . S
C514 O520 1.255 . S
O515 Fe507 1.997 . S
O515 C513 1.235 . S
C516 O522 1.287 . S
C516 O523 1.255 . S
O517 Fe506 1.976 . S
O517 C524 1.287 . S
O518 Fe507 1.996 . S
O518 C524 1.255 . S
O519 Fe509 1.976 . S
O519 C514 1.287 . S
O520 Fe506 1.996 . S
O520 C514 1.255 . S
C521 O525 1.295 . S
C521 O526 1.235 . S
O522 Fe507 1.976 . S
O522 C516 1.287 . S
O523 Fe509 1.996 . S
O523 C516 1.255 . S
C524 O517 1.287 . S
C524 O518 1.255 . S
O525 Fe507 2.002 . S
O525 C521 1.295 . S
O526 Fe509 1.997 . S
O526 C521 1.235 . S
C527 O510 1.295 . S
C527 O511 1.235 . S
Fe528 O530 1.918 . S
Fe528 O533 1.997 . S
Fe528 O534 2.002 . S
Fe528 O539 1.976 . S
Fe528 O542 1.996 . S
Fe529 O530 1.918 . S
Fe529 O537 1.997 . S
Fe529 O540 1.996 . S
Fe529 O544 1.976 . S
Fe529 O547 2.002 . S
O530 Fe528 1.918 . S
O530 Fe529 1.918 . S
O530 Fe531 1.918 . S
Fe531 O530 1.918 . S
Fe531 O532 2.002 . S
Fe531 O541 1.976 . S
Fe531 O545 1.996 . S
Fe531 O548 1.997 . S
O532 Fe531 2.002 . S
O532 C549 1.295 . S
O533 Fe528 1.997 . S
O533 C549 1.235 . S
O534 Fe528 2.002 . S
O534 C535 1.295 . S
C535 O534 1.295 . S
C535 O537 1.235 . S
C536 O541 1.287 . S
C536 O542 1.255 . S
O537 Fe529 1.997 . S
O537 C535 1.235 . S
C538 O544 1.287 . S
C538 O545 1.255 . S
O539 Fe528 1.976 . S
O539 C546 1.287 . S
O540 Fe529 1.996 . S
O540 C546 1.255 . S
O541 Fe531 1.976 . S
O541 C536 1.287 . S
O542 Fe528 1.996 . S
O542 C536 1.255 . S
C543 O547 1.295 . S
C543 O548 1.235 . S
O544 Fe529 1.976 . S
O544 C538 1.287 . S
O545 Fe531 1.996 . S
O545 C538 1.255 . S
C546 O539 1.287 . S
C546 O540 1.255 . S
O547 Fe529 2.002 . S
O547 C543 1.295 . S
O548 Fe531 1.997 . S
O548 C543 1.235 . S
C549 O532 1.295 . S
C549 O533 1.235 . S
Fe550 O552 1.918 . S
Fe550 O555 1.997 . S
Fe550 O556 2.002 . S
Fe550 O561 1.976 . S
Fe550 O564 1.996 . S
Fe551 O552 1.918 . S
Fe551 O559 1.997 . S
Fe551 O562 1.996 . S
Fe551 O566 1.976 . S
Fe551 O569 2.002 . S
O552 Fe550 1.918 . S
O552 Fe551 1.918 . S
O552 Fe553 1.918 . S
Fe553 O552 1.918 . S
Fe553 O554 2.002 . S
Fe553 O563 1.976 . S
Fe553 O567 1.996 . S
Fe553 O570 1.997 . S
O554 Fe553 2.002 . S
O554 C571 1.295 . S
O555 Fe550 1.997 . S
O555 C571 1.235 . S
O556 Fe550 2.002 . S
O556 C557 1.295 . S
C557 O556 1.295 . S
C557 O559 1.235 . S
C558 O563 1.287 . S
C558 O564 1.255 . S
O559 Fe551 1.997 . S
O559 C557 1.235 . S
C560 O566 1.287 . S
C560 O567 1.255 . S
O561 Fe550 1.976 . S
O561 C568 1.287 . S
O562 Fe551 1.996 . S
O562 C568 1.255 . S
O563 Fe553 1.976 . S
O563 C558 1.287 . S
O564 Fe550 1.996 . S
O564 C558 1.255 . S
C565 O569 1.295 . S
C565 O570 1.235 . S
O566 Fe551 1.976 . S
O566 C560 1.287 . S
O567 Fe553 1.996 . S
O567 C560 1.255 . S
C568 O561 1.287 . S
C568 O562 1.255 . S
O569 Fe551 2.002 . S
O569 C565 1.295 . S
O570 Fe553 1.997 . S
O570 C565 1.235 . S
C571 O554 1.295 . S
C571 O555 1.235 . S
Fe572 O574 1.918 . S
Fe572 O577 1.997 . S
Fe572 O578 2.002 . S
Fe572 O583 1.976 . S
Fe572 O586 1.996 . S
Fe573 O574 1.918 . S
Fe573 O581 1.997 . S
Fe573 O584 1.996 . S
Fe573 O588 1.976 . S
Fe573 O591 2.002 . S
O574 Fe572 1.918 . S
O574 Fe573 1.918 . S
O574 Fe575 1.918 . S
Fe575 O574 1.918 . S
Fe575 O576 2.002 . S
Fe575 O585 1.976 . S
Fe575 O589 1.996 . S
Fe575 O592 1.997 . S
O576 Fe575 2.002 . S
O576 C593 1.295 . S
O577 Fe572 1.997 . S
O577 C593 1.235 . S
O578 Fe572 2.002 . S
O578 C579 1.295 . S
C579 O578 1.295 . S
C579 O581 1.235 . S
C580 O585 1.287 . S
C580 O586 1.255 . S
O581 Fe573 1.997 . S
O581 C579 1.235 . S
C582 O588 1.287 . S
C582 O589 1.255 . S
O583 Fe572 1.976 . S
O583 C590 1.287 . S
O584 Fe573 1.996 . S
O584 C590 1.255 . S
O585 Fe575 1.976 . S
O585 C580 1.287 . S
O586 Fe572 1.996 . S
O586 C580 1.255 . S
C587 O591 1.295 . S
C587 O592 1.235 . S
O588 Fe573 1.976 . S
O588 C582 1.287 . S
O589 Fe575 1.996 . S
O589 C582 1.255 . S
C590 O583 1.287 . S
C590 O584 1.255 . S
O591 Fe573 2.002 . S
O591 C587 1.295 . S
O592 Fe575 1.997 . S
O592 C587 1.235 . S
C593 O576 1.295 . S
C593 O577 1.235 . S
Fe594 O596 1.918 . S
Fe594 O599 1.997 . S
Fe594 O600 2.002 . S
Fe594 O605 1.976 . S
Fe594 O608 1.996 . S
Fe595 O596 1.918 . S
Fe595 O603 1.997 . S
Fe595 O606 1.996 . S
Fe595 O610 1.976 . S
Fe595 O613 2.002 . S
O596 Fe594 1.918 . S
O596 Fe595 1.918 . S
O596 Fe597 1.918 . S
Fe597 O596 1.918 . S
Fe597 O598 2.002 . S
Fe597 O607 1.976 . S
Fe597 O611 1.996 . S
Fe597 O614 1.997 . S
O598 Fe597 2.002 . S
O598 C615 1.295 . S
O599 Fe594 1.997 . S
O599 C615 1.235 . S
O600 Fe594 2.002 . S
O600 C601 1.295 . S
C601 O600 1.295 . S
C601 O603 1.235 . S
C602 O607 1.287 . S
C602 O608 1.255 . S
O603 Fe595 1.997 . S
O603 C601 1.235 . S
C604 O610 1.287 . S
C604 O611 1.255 . S
O605 Fe594 1.976 . S
O605 C612 1.287 . S
O606 Fe595 1.996 . S
O606 C612 1.255 . S
O607 Fe597 1.976 . S
O607 C602 1.287 . S
O608 Fe594 1.996 . S
O608 C602 1.255 . S
C609 O613 1.295 . S
C609 O614 1.235 . S
O610 Fe595 1.976 . S
O610 C604 1.287 . S
O611 Fe597 1.996 . S
O611 C604 1.255 . S
C612 O605 1.287 . S
C612 O606 1.255 . S
O613 Fe595 2.002 . S
O613 C609 1.295 . S
O614 Fe597 1.997 . S
O614 C609 1.235 . S
C615 O598 1.295 . S
C615 O599 1.235 . S
Fe616 O618 1.918 . S
Fe616 O621 1.997 . S
Fe616 O622 2.002 . S
Fe616 O627 1.976 . S
Fe616 O630 1.996 . S
Fe617 O618 1.918 . S
Fe617 O625 1.997 . S
Fe617 O628 1.996 . S
Fe617 O632 1.976 . S
Fe617 O635 2.002 . S
O618 Fe616 1.918 . S
O618 Fe617 1.918 . S
O618 Fe619 1.918 . S
Fe619 O618 1.918 . S
Fe619 O620 2.002 . S
Fe619 O629 1.976 . S
Fe619 O633 1.996 . S
Fe619 O636 1.997 . S
O620 Fe619 2.002 . S
O620 C637 1.295 . S
O621 Fe616 1.997 . S
O621 C637 1.235 . S
O622 Fe616 2.002 . S
O622 C623 1.295 . S
C623 O622 1.295 . S
C623 O625 1.235 . S
C624 O629 1.287 . S
C624 O630 1.255 . S
O625 Fe617 1.997 . S
O625 C623 1.235 . S
C626 O632 1.287 . S
C626 O633 1.255 . S
O627 Fe616 1.976 . S
O627 C634 1.287 . S
O628 Fe617 1.996 . S
O628 C634 1.255 . S
O629 Fe619 1.976 . S
O629 C624 1.287 . S
O630 Fe616 1.996 . S
O630 C624 1.255 . S
C631 O635 1.295 . S
C631 O636 1.235 . S
O632 Fe617 1.976 . S
O632 C626 1.287 . S
O633 Fe619 1.996 . S
O633 C626 1.255 . S
C634 O627 1.287 . S
C634 O628 1.255 . S
O635 Fe617 2.002 . S
O635 C631 1.295 . S
O636 Fe619 1.997 . S
O636 C631 1.235 . S
C637 O620 1.295 . S
C637 O621 1.235 . S
Fe638 O640 1.918 . S
Fe638 O643 1.997 . S
Fe638 O644 2.002 . S
Fe638 O649 1.976 . S
Fe638 O652 1.996 . S
Fe639 O640 1.918 . S
Fe639 O647 1.997 . S
Fe639 O650 1.996 . S
Fe639 O654 1.976 . S
Fe639 O657 2.002 . S
O640 Fe638 1.918 . S
O640 Fe639 1.918 . S
O640 Fe641 1.918 . S
Fe641 O640 1.918 . S
Fe641 O642 2.002 . S
Fe641 O651 1.976 . S
Fe641 O655 1.996 . S
Fe641 O658 1.997 . S
O642 Fe641 2.002 . S
O642 C659 1.295 . S
O643 Fe638 1.997 . S
O643 C659 1.235 . S
O644 Fe638 2.002 . S
O644 C645 1.295 . S
C645 O644 1.295 . S
C645 O647 1.235 . S
C646 O651 1.287 . S
C646 O652 1.255 . S
O647 Fe639 1.997 . S
O647 C645 1.235 . S
C648 O654 1.287 . S
C648 O655 1.255 . S
O649 Fe638 1.976 . S
O649 C656 1.287 . S
O650 Fe639 1.996 . S
O650 C656 1.255 . S
O651 Fe641 1.976 . S
O651 C646 1.287 . S
O652 Fe638 1.996 . S
O652 C646 1.255 . S
C653 O657 1.295 . S
C653 O658 1.235 . S
O654 Fe639 1.976 . S
O654 C648 1.287 . S
O655 Fe641 1.996 . S
O655 C648 1.255 . S
C656 O649 1.287 . S
C656 O650 1.255 . S
O657 Fe639 2.002 . S
O657 C653 1.295 . S
O658 Fe641 1.997 . S
O658 C653 1.235 . S
C659 O642 1.295 . S
C659 O643 1.235 . S
Fe660 O662 1.918 . S
Fe660 O665 1.997 . S
Fe660 O666 2.002 . S
Fe660 O671 1.976 . S
Fe660 O674 1.996 . S
Fe661 O662 1.918 . S
Fe661 O669 1.997 . S
Fe661 O672 1.996 . S
Fe661 O676 1.976 . S
Fe661 O679 2.002 . S
O662 Fe660 1.918 . S
O662 Fe661 1.918 . S
O662 Fe663 1.918 . S
Fe663 O662 1.918 . S
Fe663 O664 2.002 . S
Fe663 O673 1.976 . S
Fe663 O677 1.996 . S
Fe663 O680 1.997 . S
O664 Fe663 2.002 . S
O664 C681 1.295 . S
O665 Fe660 1.997 . S
O665 C681 1.235 . S
O666 Fe660 2.002 . S
O666 C667 1.295 . S
C667 O666 1.295 . S
C667 O669 1.235 . S
C668 O673 1.287 . S
C668 O674 1.255 . S
O669 Fe661 1.997 . S
O669 C667 1.235 . S
C670 O676 1.287 . S
C670 O677 1.255 . S
O671 Fe660 1.976 . S
O671 C678 1.287 . S
O672 Fe661 1.996 . S
O672 C678 1.255 . S
O673 Fe663 1.976 . S
O673 C668 1.287 . S
O674 Fe660 1.996 . S
O674 C668 1.255 . S
C675 O679 1.295 . S
C675 O680 1.235 . S
O676 Fe661 1.976 . S
O676 C670 1.287 . S
O677 Fe663 1.996 . S
O677 C670 1.255 . S
C678 O671 1.287 . S
C678 O672 1.255 . S
O679 Fe661 2.002 . S
O679 C675 1.295 . S
O680 Fe663 1.997 . S
O680 C675 1.235 . S
C681 O664 1.295 . S
C681 O665 1.235 . S
Fe682 O684 1.918 . S
Fe682 O687 1.997 . S
Fe682 O688 2.002 . S
Fe682 O693 1.976 . S
Fe682 O696 1.996 . S
Fe683 O684 1.918 . S
Fe683 O691 1.997 . S
Fe683 O694 1.996 . S
Fe683 O698 1.976 . S
Fe683 O701 2.002 . S
O684 Fe682 1.918 . S
O684 Fe683 1.918 . S
O684 Fe685 1.918 . S
Fe685 O684 1.918 . S
Fe685 O686 2.002 . S
Fe685 O695 1.976 . S
Fe685 O699 1.996 . S
Fe685 O702 1.997 . S
O686 Fe685 2.002 . S
O686 C703 1.295 . S
O687 Fe682 1.997 . S
O687 C703 1.235 . S
O688 Fe682 2.002 . S
O688 C689 1.295 . S
C689 O688 1.295 . S
C689 O691 1.235 . S
C690 O695 1.287 . S
C690 O696 1.255 . S
O691 Fe683 1.997 . S
O691 C689 1.235 . S
C692 O698 1.287 . S
C692 O699 1.255 . S
O693 Fe682 1.976 . S
O693 C700 1.287 . S
O694 Fe683 1.996 . S
O694 C700 1.255 . S
O695 Fe685 1.976 . S
O695 C690 1.287 . S
O696 Fe682 1.996 . S
O696 C690 1.255 . S
C697 O701 1.295 . S
C697 O702 1.235 . S
O698 Fe683 1.976 . S
O698 C692 1.287 . S
O699 Fe685 1.996 . S
O699 C692 1.255 . S
C700 O693 1.287 . S
C700 O694 1.255 . S
O701 Fe683 2.002 . S
O701 C697 1.295 . S
O702 Fe685 1.997 . S
O702 C697 1.235 . S
C703 O686 1.295 . S
C703 O687 1.235 . S
C704 C705 1.387 . S
C704 H708 0.950 . S
C704 C713 1.390 . S
C705 C704 1.387 . S
C705 C707 1.387 . S
H706 C713 0.950 . S
C707 C705 1.387 . S
C707 C709 1.390 . S
C707 H711 0.950 . S
H708 C704 0.950 . S
C709 C707 1.390 . S
C709 C710 1.387 . S
C709 H712 0.950 . S
C710 C709 1.387 . S
C710 C713 1.387 . S
H711 C707 0.950 . S
H712 C709 0.950 . S
C713 C704 1.390 . S
C713 H706 0.950 . S
C713 C710 1.387 . S
C714 C715 1.387 . S
C714 H718 0.950 . S
C714 C723 1.390 . S
C715 C714 1.387 . S
C715 C717 1.387 . S
H716 C723 0.950 . S
C717 C715 1.387 . S
C717 C719 1.390 . S
C717 H721 0.950 . S
H718 C714 0.950 . S
C719 C717 1.390 . S
C719 C720 1.387 . S
C719 H722 0.950 . S
C720 C719 1.387 . S
C720 C723 1.387 . S
H721 C717 0.950 . S
H722 C719 0.950 . S
C723 C714 1.390 . S
C723 H716 0.950 . S
C723 C720 1.387 . S
C724 C725 1.387 . S
C724 H728 0.950 . S
C724 C733 1.390 . S
C725 C724 1.387 . S
C725 C727 1.387 . S
H726 C733 0.950 . S
C727 C725 1.387 . S
C727 C729 1.390 . S
C727 H731 0.950 . S
H728 C724 0.950 . S
C729 C727 1.390 . S
C729 C730 1.387 . S
C729 H732 0.950 . S
C730 C729 1.387 . S
C730 C733 1.387 . S
H731 C727 0.950 . S
H732 C729 0.950 . S
C733 C724 1.390 . S
C733 H726 0.950 . S
C733 C730 1.387 . S
C734 C735 1.387 . S
C734 H738 0.950 . S
C734 C743 1.390 . S
C735 C734 1.387 . S
C735 C737 1.387 . S
H736 C743 0.950 . S
C737 C735 1.387 . S
C737 C739 1.390 . S
C737 H741 0.950 . S
H738 C734 0.950 . S
C739 C737 1.390 . S
C739 C740 1.387 . S
C739 H742 0.950 . S
C740 C739 1.387 . S
C740 C743 1.387 . S
H741 C737 0.950 . S
H742 C739 0.950 . S
C743 C734 1.390 . S
C743 H736 0.950 . S
C743 C740 1.387 . S
C744 C745 1.387 . S
C744 H748 0.950 . S
C744 C753 1.390 . S
C745 C744 1.387 . S
C745 C747 1.387 . S
H746 C753 0.950 . S
C747 C745 1.387 . S
C747 C749 1.390 . S
C747 H751 0.950 . S
H748 C744 0.950 . S
C749 C747 1.390 . S
C749 C750 1.387 . S
C749 H752 0.950 . S
C750 C749 1.387 . S
C750 C753 1.387 . S
H751 C747 0.950 . S
H752 C749 0.950 . S
C753 C744 1.390 . S
C753 H746 0.950 . S
C753 C750 1.387 . S
C754 C755 1.387 . S
C754 H758 0.950 . S
C754 C763 1.390 . S
C755 C754 1.387 . S
C755 C757 1.387 . S
H756 C763 0.950 . S
C757 C755 1.387 . S
C757 C759 1.390 . S
C757 H761 0.950 . S
H758 C754 0.950 . S
C759 C757 1.390 . S
C759 C760 1.387 . S
C759 H762 0.950 . S
C760 C759 1.387 . S
C760 C763 1.387 . S
H761 C757 0.950 . S
H762 C759 0.950 . S
C763 C754 1.390 . S
C763 H756 0.950 . S
C763 C760 1.387 . S
C764 C765 1.387 . S
C764 H768 0.950 . S
C764 C773 1.390 . S
C765 C764 1.387 . S
C765 C767 1.387 . S
H766 C773 0.950 . S
C767 C765 1.387 . S
C767 C769 1.390 . S
C767 H771 0.950 . S
H768 C764 0.950 . S
C769 C767 1.390 . S
C769 C770 1.387 . S
C769 H772 0.950 . S
C770 C769 1.387 . S
C770 C773 1.387 . S
H771 C767 0.950 . S
H772 C769 0.950 . S
C773 C764 1.390 . S
C773 H766 0.950 . S
C773 C770 1.387 . S
C774 C775 1.387 . S
C774 H778 0.950 . S
C774 C783 1.390 . S
C775 C774 1.387 . S
C775 C777 1.387 . S
H776 C783 0.950 . S
C777 C775 1.387 . S
C777 C779 1.390 . S
C777 H781 0.950 . S
H778 C774 0.950 . S
C779 C777 1.390 . S
C779 C780 1.387 . S
C779 H782 0.950 . S
C780 C779 1.387 . S
C780 C783 1.387 . S
H781 C777 0.950 . S
H782 C779 0.950 . S
C783 C774 1.390 . S
C783 H776 0.950 . S
C783 C780 1.387 . S
C784 C785 1.387 . S
C784 H788 0.950 . S
C784 C793 1.390 . S
C785 C784 1.387 . S
C785 C787 1.387 . S
H786 C793 0.950 . S
C787 C785 1.387 . S
C787 C789 1.390 . S
C787 H791 0.950 . S
H788 C784 0.950 . S
C789 C787 1.390 . S
C789 C790 1.387 . S
C789 H792 0.950 . S
C790 C789 1.387 . S
C790 C793 1.387 . S
H791 C787 0.950 . S
H792 C789 0.950 . S
C793 C784 1.390 . S
C793 H786 0.950 . S
C793 C790 1.387 . S
C794 C795 1.387 . S
C794 H798 0.950 . S
C794 C803 1.390 . S
C795 C794 1.387 . S
C795 C797 1.387 . S
H796 C803 0.950 . S
C797 C795 1.387 . S
C797 C799 1.390 . S
C797 H801 0.950 . S
H798 C794 0.950 . S
C799 C797 1.390 . S
C799 C800 1.387 . S
C799 H802 0.950 . S
C800 C799 1.387 . S
C800 C803 1.387 . S
H801 C797 0.950 . S
H802 C799 0.950 . S
C803 C794 1.390 . S
C803 H796 0.950 . S
C803 C800 1.387 . S
C804 C805 1.387 . S
C804 H808 0.950 . S
C804 C813 1.390 . S
C805 C804 1.387 . S
C805 C807 1.387 . S
H806 C813 0.950 . S
C807 C805 1.387 . S
C807 C809 1.390 . S
C807 H811 0.950 . S
H808 C804 0.950 . S
C809 C807 1.390 . S
C809 C810 1.387 . S
C809 H812 0.950 . S
C810 C809 1.387 . S
C810 C813 1.387 . S
H811 C807 0.950 . S
H812 C809 0.950 . S
C813 C804 1.390 . S
C813 H806 0.950 . S
C813 C810 1.387 . S
C814 C815 1.387 . S
C814 H818 0.950 . S
C814 C823 1.390 . S
C815 C814 1.387 . S
C815 C817 1.387 . S
H816 C823 0.950 . S
C817 C815 1.387 . S
C817 C819 1.390 . S
C817 H821 0.950 . S
H818 C814 0.950 . S
C819 C817 1.390 . S
C819 C820 1.387 . S
C819 H822 0.950 . S
C820 C819 1.387 . S
C820 C823 1.387 . S
H821 C817 0.950 . S
H822 C819 0.950 . S
C823 C814 1.390 . S
C823 H816 0.950 . S
C823 C820 1.387 . S
C824 C825 1.387 . S
C824 H828 0.950 . S
C824 C833 1.390 . S
C825 C824 1.387 . S
C825 C827 1.387 . S
H826 C833 0.950 . S
C827 C825 1.387 . S
C827 C829 1.390 . S
C827 H831 0.950 . S
H828 C824 0.950 . S
C829 C827 1.390 . S
C829 C830 1.387 . S
C829 H832 0.950 . S
C830 C829 1.387 . S
C830 C833 1.387 . S
H831 C827 0.950 . S
H832 C829 0.950 . S
C833 C824 1.390 . S
C833 H826 0.950 . S
C833 C830 1.387 . S
C834 C835 1.387 . S
C834 H838 0.950 . S
C834 C843 1.390 . S
C835 C834 1.387 . S
C835 C837 1.387 . S
H836 C843 0.950 . S
C837 C835 1.387 . S
C837 C839 1.390 . S
C837 H841 0.950 . S
H838 C834 0.950 . S
C839 C837 1.390 . S
C839 C840 1.387 . S
C839 H842 0.950 . S
C840 C839 1.387 . S
C840 C843 1.387 . S
H841 C837 0.950 . S
H842 C839 0.950 . S
C843 C834 1.390 . S
C843 H836 0.950 . S
C843 C840 1.387 . S
C844 C845 1.387 . S
C844 H848 0.950 . S
C844 C853 1.390 . S
C845 C844 1.387 . S
C845 C847 1.387 . S
H846 C853 0.950 . S
C847 C845 1.387 . S
C847 C849 1.390 . S
C847 H851 0.950 . S
H848 C844 0.950 . S
C849 C847 1.390 . S
C849 C850 1.387 . S
C849 H852 0.950 . S
C850 C849 1.387 . S
C850 C853 1.387 . S
H851 C847 0.950 . S
H852 C849 0.950 . S
C853 C844 1.390 . S
C853 H846 0.950 . S
C853 C850 1.387 . S
C854 C855 1.387 . S
C854 H858 0.950 . S
C854 C863 1.390 . S
C855 C854 1.387 . S
C855 C857 1.387 . S
H856 C863 0.950 . S
C857 C855 1.387 . S
C857 C859 1.390 . S
C857 H861 0.950 . S
H858 C854 0.950 . S
C859 C857 1.390 . S
C859 C860 1.387 . S
C859 H862 0.950 . S
C860 C859 1.387 . S
C860 C863 1.387 . S
H861 C857 0.950 . S
H862 C859 0.950 . S
C863 C854 1.390 . S
C863 H856 0.950 . S
C863 C860 1.387 . S
C864 C865 1.387 . S
C864 H868 0.950 . S
C864 C873 1.390 . S
C865 C864 1.387 . S
C865 C867 1.387 . S
H866 C873 0.950 . S
C867 C865 1.387 . S
C867 C869 1.390 . S
C867 H871 0.950 . S
H868 C864 0.950 . S
C869 C867 1.390 . S
C869 C870 1.387 . S
C869 H872 0.950 . S
C870 C869 1.387 . S
C870 C873 1.387 . S
H871 C867 0.950 . S
H872 C869 0.950 . S
C873 C864 1.390 . S
C873 H866 0.950 . S
C873 C870 1.387 . S
C874 C875 1.387 . S
C874 H878 0.950 . S
C874 C883 1.390 . S
C875 C874 1.387 . S
C875 C877 1.387 . S
H876 C883 0.950 . S
C877 C875 1.387 . S
C877 C879 1.390 . S
C877 H881 0.950 . S
H878 C874 0.950 . S
C879 C877 1.390 . S
C879 C880 1.387 . S
C879 H882 0.950 . S
C880 C879 1.387 . S
C880 C883 1.387 . S
H881 C877 0.950 . S
H882 C879 0.950 . S
C883 C874 1.390 . S
C883 H876 0.950 . S
C883 C880 1.387 . S
C884 C885 1.387 . S
C884 H888 0.950 . S
C884 C893 1.390 . S
C885 C884 1.387 . S
C885 C887 1.387 . S
H886 C893 0.950 . S
C887 C885 1.387 . S
C887 C889 1.390 . S
C887 H891 0.950 . S
H888 C884 0.950 . S
C889 C887 1.390 . S
C889 C890 1.387 . S
C889 H892 0.950 . S
C890 C889 1.387 . S
C890 C893 1.387 . S
H891 C887 0.950 . S
H892 C889 0.950 . S
C893 C884 1.390 . S
C893 H886 0.950 . S
C893 C890 1.387 . S
C894 C895 1.387 . S
C894 H898 0.950 . S
C894 C903 1.390 . S
C895 C894 1.387 . S
C895 C897 1.387 . S
H896 C903 0.950 . S
C897 C895 1.387 . S
C897 C899 1.390 . S
C897 H901 0.950 . S
H898 C894 0.950 . S
C899 C897 1.390 . S
C899 C900 1.387 . S
C899 H902 0.950 . S
C900 C899 1.387 . S
C900 C903 1.387 . S
H901 C897 0.950 . S
H902 C899 0.950 . S
C903 C894 1.390 . S
C903 H896 0.950 . S
C903 C900 1.387 . S
C904 C905 1.387 . S
C904 H908 0.950 . S
C904 C913 1.390 . S
C905 C904 1.387 . S
C905 C907 1.387 . S
H906 C913 0.950 . S
C907 C905 1.387 . S
C907 C909 1.390 . S
C907 H911 0.950 . S
H908 C904 0.950 . S
C909 C907 1.390 . S
C909 C910 1.387 . S
C909 H912 0.950 . S
C910 C909 1.387 . S
C910 C913 1.387 . S
H911 C907 0.950 . S
H912 C909 0.950 . S
C913 C904 1.390 . S
C913 H906 0.950 . S
C913 C910 1.387 . S
C914 C915 1.387 . S
C914 H918 0.950 . S
C914 C923 1.390 . S
C915 C914 1.387 . S
C915 C917 1.387 . S
H916 C923 0.950 . S
C917 C915 1.387 . S
C917 C919 1.390 . S
C917 H921 0.950 . S
H918 C914 0.950 . S
C919 C917 1.390 . S
C919 C920 1.387 . S
C919 H922 0.950 . S
C920 C919 1.387 . S
C920 C923 1.387 . S
H921 C917 0.950 . S
H922 C919 0.950 . S
C923 C914 1.390 . S
C923 H916 0.950 . S
C923 C920 1.387 . S
C924 C925 1.387 . S
C924 H928 0.950 . S
C924 C933 1.390 . S
C925 C924 1.387 . S
C925 C927 1.387 . S
H926 C933 0.950 . S
C927 C925 1.387 . S
C927 C929 1.390 . S
C927 H931 0.950 . S
H928 C924 0.950 . S
C929 C927 1.390 . S
C929 C930 1.387 . S
C929 H932 0.950 . S
C930 C929 1.387 . S
C930 C933 1.387 . S
H931 C927 0.950 . S
H932 C929 0.950 . S
C933 C924 1.390 . S
C933 H926 0.950 . S
C933 C930 1.387 . S
C934 C935 1.387 . S
C934 H938 0.950 . S
C934 C943 1.390 . S
C935 C934 1.387 . S
C935 C937 1.387 . S
H936 C943 0.950 . S
C937 C935 1.387 . S
C937 C939 1.390 . S
C937 H941 0.950 . S
H938 C934 0.950 . S
C939 C937 1.390 . S
C939 C940 1.387 . S
C939 H942 0.950 . S
C940 C939 1.387 . S
C940 C943 1.387 . S
H941 C937 0.950 . S
H942 C939 0.950 . S
C943 C934 1.390 . S
C943 H936 0.950 . S
C943 C940 1.387 . S
C944 C945 1.387 . S
C944 H948 0.950 . S
C944 C953 1.390 . S
C945 C944 1.387 . S
C945 C947 1.387 . S
H946 C953 0.950 . S
C947 C945 1.387 . S
C947 C949 1.390 . S
C947 H951 0.950 . S
H948 C944 0.950 . S
C949 C947 1.390 . S
C949 C950 1.387 . S
C949 H952 0.950 . S
C950 C949 1.387 . S
C950 C953 1.387 . S
H951 C947 0.950 . S
H952 C949 0.950 . S
C953 C944 1.390 . S
C953 H946 0.950 . S
C953 C950 1.387 . S
C954 C955 1.387 . S
C954 H958 0.950 . S
C954 C963 1.390 . S
C955 C954 1.387 . S
C955 C957 1.387 . S
H956 C963 0.950 . S
C957 C955 1.387 . S
C957 C959 1.390 . S
C957 H961 0.950 . S
H958 C954 0.950 . S
C959 C957 1.390 . S
C959 C960 1.387 . S
C959 H962 0.950 . S
C960 C959 1.387 . S
C960 C963 1.387 . S
H961 C957 0.950 . S
H962 C959 0.950 . S
C963 C954 1.390 . S
C963 H956 0.950 . S
C963 C960 1.387 . S
C964 C965 1.387 . S
C964 H968 0.950 . S
C964 C973 1.390 . S
C965 C964 1.387 . S
C965 C967 1.387 . S
H966 C973 0.950 . S
C967 C965 1.387 . S
C967 C969 1.390 . S
C967 H971 0.950 . S
H968 C964 0.950 . S
C969 C967 1.390 . S
C969 C970 1.387 . S
C969 H972 0.950 . S
C970 C969 1.387 . S
C970 C973 1.387 . S
H971 C967 0.950 . S
H972 C969 0.950 . S
C973 C964 1.390 . S
C973 H966 0.950 . S
C973 C970 1.387 . S
C974 C975 1.387 . S
C974 H978 0.950 . S
C974 C983 1.390 . S
C975 C974 1.387 . S
C975 C977 1.387 . S
H976 C983 0.950 . S
C977 C975 1.387 . S
C977 C979 1.390 . S
C977 H981 0.950 . S
H978 C974 0.950 . S
C979 C977 1.390 . S
C979 C980 1.387 . S
C979 H982 0.950 . S
C980 C979 1.387 . S
C980 C983 1.387 . S
H981 C977 0.950 . S
H982 C979 0.950 . S
C983 C974 1.390 . S
C983 H976 0.950 . S
C983 C980 1.387 . S
C984 C985 1.387 . S
C984 H988 0.950 . S
C984 C993 1.390 . S
C985 C984 1.387 . S
C985 C987 1.387 . S
H986 C993 0.950 . S
C987 C985 1.387 . S
C987 C989 1.390 . S
C987 H991 0.950 . S
H988 C984 0.950 . S
C989 C987 1.390 . S
C989 C990 1.387 . S
C989 H992 0.950 . S
C990 C989 1.387 . S
C990 C993 1.387 . S
H991 C987 0.950 . S
H992 C989 0.950 . S
C993 C984 1.390 . S
C993 H986 0.950 . S
C993 C990 1.387 . S
C994 C995 1.387 . S
C994 H998 0.950 . S
C994 C1003 1.390 . S
C995 C994 1.387 . S
C995 C997 1.387 . S
H996 C1003 0.950 . S
C997 C995 1.387 . S
C997 C999 1.390 . S
C997 H1001 0.950 . S
H998 C994 0.950 . S
C999 C997 1.390 . S
C999 C1000 1.387 . S
C999 H1002 0.950 . S
C1000 C999 1.387 . S
C1000 C1003 1.387 . S
H1001 C997 0.950 . S
H1002 C999 0.950 . S
C1003 C994 1.390 . S
C1003 H996 0.950 . S
C1003 C1000 1.387 . S
C1004 C1005 1.387 . S
C1004 H1008 0.950 . S
C1004 C1013 1.390 . S
C1005 C1004 1.387 . S
C1005 C1007 1.387 . S
H1006 C1013 0.950 . S
C1007 C1005 1.387 . S
C1007 C1009 1.390 . S
C1007 H1011 0.950 . S
H1008 C1004 0.950 . S
C1009 C1007 1.390 . S
C1009 C1010 1.387 . S
C1009 H1012 0.950 . S
C1010 C1009 1.387 . S
C1010 C1013 1.387 . S
H1011 C1007 0.950 . S
H1012 C1009 0.950 . S
C1013 C1004 1.390 . S
C1013 H1006 0.950 . S
C1013 C1010 1.387 . S
C1014 C1015 1.387 . S
C1014 H1018 0.950 . S
C1014 C1023 1.390 . S
C1015 C1014 1.387 . S
C1015 C1017 1.387 . S
H1016 C1023 0.950 . S
C1017 C1015 1.387 . S
C1017 C1019 1.390 . S
C1017 H1021 0.950 . S
H1018 C1014 0.950 . S
C1019 C1017 1.390 . S
C1019 C1020 1.387 . S
C1019 H1022 0.950 . S
C1020 C1019 1.387 . S
C1020 C1023 1.387 . S
H1021 C1017 0.950 . S
H1022 C1019 0.950 . S
C1023 C1014 1.390 . S
C1023 H1016 0.950 . S
C1023 C1020 1.387 . S
C1024 C1025 1.387 . S
C1024 H1028 0.950 . S
C1024 C1033 1.390 . S
C1025 C1024 1.387 . S
C1025 C1027 1.387 . S
H1026 C1033 0.950 . S
C1027 C1025 1.387 . S
C1027 C1029 1.390 . S
C1027 H1031 0.950 . S
H1028 C1024 0.950 . S
C1029 C1027 1.390 . S
C1029 C1030 1.387 . S
C1029 H1032 0.950 . S
C1030 C1029 1.387 . S
C1030 C1033 1.387 . S
H1031 C1027 0.950 . S
H1032 C1029 0.950 . S
C1033 C1024 1.390 . S
C1033 H1026 0.950 . S
C1033 C1030 1.387 . S
C1034 C1035 1.387 . S
C1034 H1038 0.950 . S
C1034 C1043 1.390 . S
C1035 C1034 1.387 . S
C1035 C1037 1.387 . S
H1036 C1043 0.950 . S
C1037 C1035 1.387 . S
C1037 C1039 1.390 . S
C1037 H1041 0.950 . S
H1038 C1034 0.950 . S
C1039 C1037 1.390 . S
C1039 C1040 1.387 . S
C1039 H1042 0.950 . S
C1040 C1039 1.387 . S
C1040 C1043 1.387 . S
H1041 C1037 0.950 . S
H1042 C1039 0.950 . S
C1043 C1034 1.390 . S
C1043 H1036 0.950 . S
C1043 C1040 1.387 . S
C1044 C1045 1.387 . S
C1044 H1048 0.950 . S
C1044 C1053 1.390 . S
C1045 C1044 1.387 . S
C1045 C1047 1.387 . S
H1046 C1053 0.950 . S
C1047 C1045 1.387 . S
C1047 C1049 1.390 . S
C1047 H1051 0.950 . S
H1048 C1044 0.950 . S
C1049 C1047 1.390 . S
C1049 C1050 1.387 . S
C1049 H1052 0.950 . S
C1050 C1049 1.387 . S
C1050 C1053 1.387 . S
H1051 C1047 0.950 . S
H1052 C1049 0.950 . S
C1053 C1044 1.390 . S
C1053 H1046 0.950 . S
C1053 C1050 1.387 . S
C1054 C1055 1.387 . S
C1054 H1058 0.950 . S
C1054 C1063 1.390 . S
C1055 C1054 1.387 . S
C1055 C1057 1.387 . S
H1056 C1063 0.950 . S
C1057 C1055 1.387 . S
C1057 C1059 1.390 . S
C1057 H1061 0.950 . S
H1058 C1054 0.950 . S
C1059 C1057 1.390 . S
C1059 C1060 1.387 . S
C1059 H1062 0.950 . S
C1060 C1059 1.387 . S
C1060 C1063 1.387 . S
H1061 C1057 0.950 . S
H1062 C1059 0.950 . S
C1063 C1054 1.390 . S
C1063 H1056 0.950 . S
C1063 C1060 1.387 . S
C1064 C1065 1.387 . S
C1064 H1068 0.950 . S
C1064 C1073 1.390 . S
C1065 C1064 1.387 . S
C1065 C1067 1.387 . S
H1066 C1073 0.950 . S
C1067 C1065 1.387 . S
C1067 C1069 1.390 . S
C1067 H1071 0.950 . S
H1068 C1064 0.950 . S
C1069 C1067 1.390 . S
C1069 C1070 1.387 . S
C1069 H1072 0.950 . S
C1070 C1069 1.387 . S
C1070 C1073 1.387 . S
H1071 C1067 0.950 . S
H1072 C1069 0.950 . S
C1073 C1064 1.390 . S
C1073 H1066 0.950 . S
C1073 C1070 1.387 . S
C1074 C1075 1.387 . S
C1074 H1078 0.950 . S
C1074 C1083 1.390 . S
C1075 C1074 1.387 . S
C1075 C1077 1.387 . S
H1076 C1083 0.950 . S
C1077 C1075 1.387 . S
C1077 C1079 1.390 . S
C1077 H1081 0.950 . S
H1078 C1074 0.950 . S
C1079 C1077 1.390 . S
C1079 C1080 1.387 . S
C1079 H1082 0.950 . S
C1080 C1079 1.387 . S
C1080 C1083 1.387 . S
H1081 C1077 0.950 . S
H1082 C1079 0.950 . S
C1083 C1074 1.390 . S
C1083 H1076 0.950 . S
C1083 C1080 1.387 . S
C1084 C1085 1.387 . S
C1084 H1088 0.950 . S
C1084 C1093 1.390 . S
C1085 C1084 1.387 . S
C1085 C1087 1.387 . S
H1086 C1093 0.950 . S
C1087 C1085 1.387 . S
C1087 C1089 1.390 . S
C1087 H1091 0.950 . S
H1088 C1084 0.950 . S
C1089 C1087 1.390 . S
C1089 C1090 1.387 . S
C1089 H1092 0.950 . S
C1090 C1089 1.387 . S
C1090 C1093 1.387 . S
H1091 C1087 0.950 . S
H1092 C1089 0.950 . S
C1093 C1084 1.390 . S
C1093 H1086 0.950 . S
C1093 C1090 1.387 . S
C1094 C1095 1.387 . S
C1094 H1098 0.950 . S
C1094 C1103 1.390 . S
C1095 C1094 1.387 . S
C1095 C1097 1.387 . S
H1096 C1103 0.950 . S
C1097 C1095 1.387 . S
C1097 C1099 1.390 . S
C1097 H1101 0.950 . S
H1098 C1094 0.950 . S
C1099 C1097 1.390 . S
C1099 C1100 1.387 . S
C1099 H1102 0.950 . S
C1100 C1099 1.387 . S
C1100 C1103 1.387 . S
H1101 C1097 0.950 . S
H1102 C1099 0.950 . S
C1103 C1094 1.390 . S
C1103 H1096 0.950 . S
C1103 C1100 1.387 . S
C1104 C1105 1.387 . S
C1104 H1108 0.950 . S
C1104 C1113 1.390 . S
C1105 C1104 1.387 . S
C1105 C1107 1.387 . S
H1106 C1113 0.950 . S
C1107 C1105 1.387 . S
C1107 C1109 1.390 . S
C1107 H1111 0.950 . S
H1108 C1104 0.950 . S
C1109 C1107 1.390 . S
C1109 C1110 1.387 . S
C1109 H1112 0.950 . S
C1110 C1109 1.387 . S
C1110 C1113 1.387 . S
H1111 C1107 0.950 . S
H1112 C1109 0.950 . S
C1113 C1104 1.390 . S
C1113 H1106 0.950 . S
C1113 C1110 1.387 . S
C1114 C1115 1.387 . S
C1114 H1118 0.950 . S
C1114 C1123 1.390 . S
C1115 C1114 1.387 . S
C1115 C1117 1.387 . S
H1116 C1123 0.950 . S
C1117 C1115 1.387 . S
C1117 C1119 1.390 . S
C1117 H1121 0.950 . S
H1118 C1114 0.950 . S
C1119 C1117 1.390 . S
C1119 C1120 1.387 . S
C1119 H1122 0.950 . S
C1120 C1119 1.387 . S
C1120 C1123 1.387 . S
H1121 C1117 0.950 . S
H1122 C1119 0.950 . S
C1123 C1114 1.390 . S
C1123 H1116 0.950 . S
C1123 C1120 1.387 . S
C1124 C1125 1.387 . S
C1124 H1128 0.950 . S
C1124 C1133 1.390 . S
C1125 C1124 1.387 . S
C1125 C1127 1.387 . S
H1126 C1133 0.950 . S
C1127 C1125 1.387 . S
C1127 C1129 1.390 . S
C1127 H1131 0.950 . S
H1128 C1124 0.950 . S
C1129 C1127 1.390 . S
C1129 C1130 1.387 . S
C1129 H1132 0.950 . S
C1130 C1129 1.387 . S
C1130 C1133 1.387 . S
H1131 C1127 0.950 . S
H1132 C1129 0.950 . S
C1133 C1124 1.390 . S
C1133 H1126 0.950 . S
C1133 C1130 1.387 . S
C1134 C1135 1.387 . S
C1134 H1138 0.950 . S
C1134 C1143 1.390 . S
C1135 C1134 1.387 . S
C1135 C1137 1.387 . S
H1136 C1143 0.950 . S
C1137 C1135 1.387 . S
C1137 C1139 1.390 . S
C1137 H1141 0.950 . S
H1138 C1134 0.950 . S
C1139 C1137 1.390 . S
C1139 C1140 1.387 . S
C1139 H1142 0.950 . S
C1140 C1139 1.387 . S
C1140 C1143 1.387 . S
H1141 C1137 0.950 . S
H1142 C1139 0.950 . S
C1143 C1134 1.390 . S
C1143 H1136 0.950 . S
C1143 C1140 1.387 . S
C1144 C1145 1.387 . S
C1144 H1148 0.950 . S
C1144 C1153 1.390 . S
C1145 C1144 1.387 . S
C1145 C1147 1.387 . S
H1146 C1153 0.950 . S
C1147 C1145 1.387 . S
C1147 C1149 1.390 . S
C1147 H1151 0.950 . S
H1148 C1144 0.950 . S
C1149 C1147 1.390 . S
C1149 C1150 1.387 . S
C1149 H1152 0.950 . S
C1150 C1149 1.387 . S
C1150 C1153 1.387 . S
H1151 C1147 0.950 . S
H1152 C1149 0.950 . S
C1153 C1144 1.390 . S
C1153 H1146 0.950 . S
C1153 C1150 1.387 . S
C1154 C1155 1.387 . S
C1154 H1158 0.950 . S
C1154 C1163 1.390 . S
C1155 C1154 1.387 . S
C1155 C1157 1.387 . S
H1156 C1163 0.950 . S
C1157 C1155 1.387 . S
C1157 C1159 1.390 . S
C1157 H1161 0.950 . S
H1158 C1154 0.950 . S
C1159 C1157 1.390 . S
C1159 C1160 1.387 . S
C1159 H1162 0.950 . S
C1160 C1159 1.387 . S
C1160 C1163 1.387 . S
H1161 C1157 0.950 . S
H1162 C1159 0.950 . S
C1163 C1154 1.390 . S
C1163 H1156 0.950 . S
C1163 C1160 1.387 . S
C1164 C1165 1.387 . S
C1164 H1168 0.950 . S
C1164 C1173 1.390 . S
C1165 C1164 1.387 . S
C1165 C1167 1.387 . S
H1166 C1173 0.950 . S
C1167 C1165 1.387 . S
C1167 C1169 1.390 . S
C1167 H1171 0.950 . S
H1168 C1164 0.950 . S
C1169 C1167 1.390 . S
C1169 C1170 1.387 . S
C1169 H1172 0.950 . S
C1170 C1169 1.387 . S
C1170 C1173 1.387 . S
H1171 C1167 0.950 . S
H1172 C1169 0.950 . S
C1173 C1164 1.390 . S
C1173 H1166 0.950 . S
C1173 C1170 1.387 . S
C1174 C1175 1.387 . S
C1174 H1178 0.950 . S
C1174 C1183 1.390 . S
C1175 C1174 1.387 . S
C1175 C1177 1.387 . S
H1176 C1183 0.950 . S
C1177 C1175 1.387 . S
C1177 C1179 1.390 . S
C1177 H1181 0.950 . S
H1178 C1174 0.950 . S
C1179 C1177 1.390 . S
C1179 C1180 1.387 . S
C1179 H1182 0.950 . S
C1180 C1179 1.387 . S
C1180 C1183 1.387 . S
H1181 C1177 0.950 . S
H1182 C1179 0.950 . S
C1183 C1174 1.390 . S
C1183 H1176 0.950 . S
C1183 C1180 1.387 . S
C1184 C1185 1.387 . S
C1184 H1188 0.950 . S
C1184 C1193 1.390 . S
C1185 C1184 1.387 . S
C1185 C1187 1.387 . S
H1186 C1193 0.950 . S
C1187 C1185 1.387 . S
C1187 C1189 1.390 . S
C1187 H1191 0.950 . S
H1188 C1184 0.950 . S
C1189 C1187 1.390 . S
C1189 C1190 1.387 . S
C1189 H1192 0.950 . S
C1190 C1189 1.387 . S
C1190 C1193 1.387 . S
H1191 C1187 0.950 . S
H1192 C1189 0.950 . S
C1193 C1184 1.390 . S
C1193 H1186 0.950 . S
C1193 C1190 1.387 . S
C1194 C1195 1.387 . S
C1194 H1198 0.950 . S
C1194 C1203 1.390 . S
C1195 C1194 1.387 . S
C1195 C1197 1.387 . S
H1196 C1203 0.950 . S
C1197 C1195 1.387 . S
C1197 C1199 1.390 . S
C1197 H1201 0.950 . S
H1198 C1194 0.950 . S
C1199 C1197 1.390 . S
C1199 C1200 1.387 . S
C1199 H1202 0.950 . S
C1200 C1199 1.387 . S
C1200 C1203 1.387 . S
H1201 C1197 0.950 . S
H1202 C1199 0.950 . S
C1203 C1194 1.390 . S
C1203 H1196 0.950 . S
C1203 C1200 1.387 . S
C1204 C1205 1.387 . S
C1204 H1208 0.950 . S
C1204 C1213 1.390 . S
C1205 C1204 1.387 . S
C1205 C1207 1.387 . S
H1206 C1213 0.950 . S
C1207 C1205 1.387 . S
C1207 C1209 1.390 . S
C1207 H1211 0.950 . S
H1208 C1204 0.950 . S
C1209 C1207 1.390 . S
C1209 C1210 1.387 . S
C1209 H1212 0.950 . S
C1210 C1209 1.387 . S
C1210 C1213 1.387 . S
H1211 C1207 0.950 . S
H1212 C1209 0.950 . S
C1213 C1204 1.390 . S
C1213 H1206 0.950 . S
C1213 C1210 1.387 . S
C1214 C1215 1.387 . S
C1214 H1218 0.950 . S
C1214 C1223 1.390 . S
C1215 C1214 1.387 . S
C1215 C1217 1.387 . S
H1216 C1223 0.950 . S
C1217 C1215 1.387 . S
C1217 C1219 1.390 . S
C1217 H1221 0.950 . S
H1218 C1214 0.950 . S
C1219 C1217 1.390 . S
C1219 C1220 1.387 . S
C1219 H1222 0.950 . S
C1220 C1219 1.387 . S
C1220 C1223 1.387 . S
H1221 C1217 0.950 . S
H1222 C1219 0.950 . S
C1223 C1214 1.390 . S
C1223 H1216 0.950 . S
C1223 C1220 1.387 . S
C1224 C1225 1.387 . S
C1224 H1228 0.950 . S
C1224 C1233 1.390 . S
C1225 C1224 1.387 . S
C1225 C1227 1.387 . S
H1226 C1233 0.950 . S
C1227 C1225 1.387 . S
C1227 C1229 1.390 . S
C1227 H1231 0.950 . S
H1228 C1224 0.950 . S
C1229 C1227 1.390 . S
C1229 C1230 1.387 . S
C1229 H1232 0.950 . S
C1230 C1229 1.387 . S
C1230 C1233 1.387 . S
H1231 C1227 0.950 . S
H1232 C1229 0.950 . S
C1233 C1224 1.390 . S
C1233 H1226 0.950 . S
C1233 C1230 1.387 . S
C1234 C1235 1.387 . S
C1234 H1238 0.950 . S
C1234 C1243 1.390 . S
C1235 C1234 1.387 . S
C1235 C1237 1.387 . S
H1236 C1243 0.950 . S
C1237 C1235 1.387 . S
C1237 C1239 1.390 . S
C1237 H1241 0.950 . S
H1238 C1234 0.950 . S
C1239 C1237 1.390 . S
C1239 C1240 1.387 . S
C1239 H1242 0.950 . S
C1240 C1239 1.387 . S
C1240 C1243 1.387 . S
H1241 C1237 0.950 . S
H1242 C1239 0.950 . S
C1243 C1234 1.390 . S
C1243 H1236 0.950 . S
C1243 C1240 1.387 . S
C1244 C1245 1.387 . S
C1244 H1248 0.950 . S
C1244 C1253 1.390 . S
C1245 C1244 1.387 . S
C1245 C1247 1.387 . S
H1246 C1253 0.950 . S
C1247 C1245 1.387 . S
C1247 C1249 1.390 . S
C1247 H1251 0.950 . S
H1248 C1244 0.950 . S
C1249 C1247 1.390 . S
C1249 C1250 1.387 . S
C1249 H1252 0.950 . S
C1250 C1249 1.387 . S
C1250 C1253 1.387 . S
H1251 C1247 0.950 . S
H1252 C1249 0.950 . S
C1253 C1244 1.390 . S
C1253 H1246 0.950 . S
C1253 C1250 1.387 . S
C1254 C1255 1.387 . S
C1254 H1258 0.950 . S
C1254 C1263 1.390 . S
C1255 C1254 1.387 . S
C1255 C1257 1.387 . S
H1256 C1263 0.950 . S
C1257 C1255 1.387 . S
C1257 C1259 1.390 . S
C1257 H1261 0.950 . S
H1258 C1254 0.950 . S
C1259 C1257 1.390 . S
C1259 C1260 1.387 . S
C1259 H1262 0.950 . S
C1260 C1259 1.387 . S
C1260 C1263 1.387 . S
H1261 C1257 0.950 . S
H1262 C1259 0.950 . S
C1263 C1254 1.390 . S
C1263 H1256 0.950 . S
C1263 C1260 1.387 . S
C1264 C1265 1.387 . S
C1264 H1268 0.950 . S
C1264 C1273 1.390 . S
C1265 C1264 1.387 . S
C1265 C1267 1.387 . S
H1266 C1273 0.950 . S
C1267 C1265 1.387 . S
C1267 C1269 1.390 . S
C1267 H1271 0.950 . S
H1268 C1264 0.950 . S
C1269 C1267 1.390 . S
C1269 C1270 1.387 . S
C1269 H1272 0.950 . S
C1270 C1269 1.387 . S
C1270 C1273 1.387 . S
H1271 C1267 0.950 . S
H1272 C1269 0.950 . S
C1273 C1264 1.390 . S
C1273 H1266 0.950 . S
C1273 C1270 1.387 . S
C1274 C1275 1.387 . S
C1274 H1278 0.950 . S
C1274 C1283 1.390 . S
C1275 C1274 1.387 . S
C1275 C1277 1.387 . S
H1276 C1283 0.950 . S
C1277 C1275 1.387 . S
C1277 C1279 1.390 . S
C1277 H1281 0.950 . S
H1278 C1274 0.950 . S
C1279 C1277 1.390 . S
C1279 C1280 1.387 . S
C1279 H1282 0.950 . S
C1280 C1279 1.387 . S
C1280 C1283 1.387 . S
H1281 C1277 0.950 . S
H1282 C1279 0.950 . S
C1283 C1274 1.390 . S
C1283 H1276 0.950 . S
C1283 C1280 1.387 . S
C1284 C1285 1.387 . S
C1284 H1288 0.950 . S
C1284 C1293 1.390 . S
C1285 C1284 1.387 . S
C1285 C1287 1.387 . S
H1286 C1293 0.950 . S
C1287 C1285 1.387 . S
C1287 C1289 1.390 . S
C1287 H1291 0.950 . S
H1288 C1284 0.950 . S
C1289 C1287 1.390 . S
C1289 C1290 1.387 . S
C1289 H1292 0.950 . S
C1290 C1289 1.387 . S
C1290 C1293 1.387 . S
H1291 C1287 0.950 . S
H1292 C1289 0.950 . S
C1293 C1284 1.390 . S
C1293 H1286 0.950 . S
C1293 C1290 1.387 . S
C1294 C1295 1.387 . S
C1294 H1298 0.950 . S
C1294 C1303 1.390 . S
C1295 C1294 1.387 . S
C1295 C1297 1.387 . S
H1296 C1303 0.950 . S
C1297 C1295 1.387 . S
C1297 C1299 1.390 . S
C1297 H1301 0.950 . S
H1298 C1294 0.950 . S
C1299 C1297 1.390 . S
C1299 C1300 1.387 . S
C1299 H1302 0.950 . S
C1300 C1299 1.387 . S
C1300 C1303 1.387 . S
H1301 C1297 0.950 . S
H1302 C1299 0.950 . S
C1303 C1294 1.390 . S
C1303 H1296 0.950 . S
C1303 C1300 1.387 . S
C1304 C1305 1.387 . S
C1304 H1308 0.950 . S
C1304 C1313 1.390 . S
C1305 C1304 1.387 . S
C1305 C1307 1.387 . S
H1306 C1313 0.950 . S
C1307 C1305 1.387 . S
C1307 C1309 1.390 . S
C1307 H1311 0.950 . S
H1308 C1304 0.950 . S
C1309 C1307 1.390 . S
C1309 C1310 1.387 . S
C1309 H1312 0.950 . S
C1310 C1309 1.387 . S
C1310 C1313 1.387 . S
H1311 C1307 0.950 . S
H1312 C1309 0.950 . S
C1313 C1304 1.390 . S
C1313 H1306 0.950 . S
C1313 C1310 1.387 . S
C1314 C1315 1.387 . S
C1314 H1318 0.950 . S
C1314 C1323 1.390 . S
C1315 C1314 1.387 . S
C1315 C1317 1.387 . S
H1316 C1323 0.950 . S
C1317 C1315 1.387 . S
C1317 C1319 1.390 . S
C1317 H1321 0.950 . S
H1318 C1314 0.950 . S
C1319 C1317 1.390 . S
C1319 C1320 1.387 . S
C1319 H1322 0.950 . S
C1320 C1319 1.387 . S
C1320 C1323 1.387 . S
H1321 C1317 0.950 . S
H1322 C1319 0.950 . S
C1323 C1314 1.390 . S
C1323 H1316 0.950 . S
C1323 C1320 1.387 . S
C1324 C1325 1.387 . S
C1324 H1328 0.950 . S
C1324 C1333 1.390 . S
C1325 C1324 1.387 . S
C1325 C1327 1.387 . S
H1326 C1333 0.950 . S
C1327 C1325 1.387 . S
C1327 C1329 1.390 . S
C1327 H1331 0.950 . S
H1328 C1324 0.950 . S
C1329 C1327 1.390 . S
C1329 C1330 1.387 . S
C1329 H1332 0.950 . S
C1330 C1329 1.387 . S
C1330 C1333 1.387 . S
H1331 C1327 0.950 . S
H1332 C1329 0.950 . S
C1333 C1324 1.390 . S
C1333 H1326 0.950 . S
C1333 C1330 1.387 . S
C1334 C1335 1.387 . S
C1334 H1338 0.950 . S
C1334 C1343 1.390 . S
C1335 C1334 1.387 . S
C1335 C1337 1.387 . S
H1336 C1343 0.950 . S
C1337 C1335 1.387 . S
C1337 C1339 1.390 . S
C1337 H1341 0.950 . S
H1338 C1334 0.950 . S
C1339 C1337 1.390 . S
C1339 C1340 1.387 . S
C1339 H1342 0.950 . S
C1340 C1339 1.387 . S
C1340 C1343 1.387 . S
H1341 C1337 0.950 . S
H1342 C1339 0.950 . S
C1343 C1334 1.390 . S
C1343 H1336 0.950 . S
C1343 C1340 1.387 . S
C1344 C1345 1.387 . S
C1344 H1348 0.950 . S
C1344 C1353 1.390 1_455 S
C1345 C1344 1.387 . S
C1345 C1347 1.387 . S
H1346 C1353 0.950 . S
C1347 C1345 1.387 . S
C1347 C1349 1.390 1_455 S
C1347 H1351 0.950 . S
H1348 C1344 0.950 . S
C1349 C1347 1.390 1_655 S
C1349 C1350 1.387 . S
C1349 H1352 0.950 . S
C1350 C1349 1.387 . S
C1350 C1353 1.387 . S
H1351 C1347 0.950 . S
H1352 C1349 0.950 . S
C1353 C1344 1.390 1_655 S
C1353 H1346 0.950 . S
C1353 C1350 1.387 . S
C1354 C1355 1.387 . S
C1354 H1358 0.950 . S
C1354 C1363 1.390 1_565 S
C1355 C1354 1.387 . S
C1355 C1357 1.387 . S
H1356 C1363 0.950 . S
C1357 C1355 1.387 . S
C1357 C1359 1.390 1_565 S
C1357 H1361 0.950 . S
H1358 C1354 0.950 . S
C1359 C1357 1.390 1_545 S
C1359 C1360 1.387 . S
C1359 H1362 0.950 . S
C1360 C1359 1.387 . S
C1360 C1363 1.387 . S
H1361 C1357 0.950 . S
H1362 C1359 0.950 . S
C1363 C1354 1.390 1_545 S
C1363 H1356 0.950 . S
C1363 C1360 1.387 . S
C1364 C1365 1.387 . S
C1364 H1368 0.950 . S
C1364 C1373 1.390 1_655 S
C1365 C1364 1.387 . S
C1365 C1367 1.387 . S
H1366 C1373 0.950 . S
C1367 C1365 1.387 . S
C1367 C1369 1.390 1_655 S
C1367 H1371 0.950 . S
H1368 C1364 0.950 . S
C1369 C1367 1.390 1_455 S
C1369 C1370 1.387 . S
C1369 H1372 0.950 . S
C1370 C1369 1.387 . S
C1370 C1373 1.387 . S
H1371 C1367 0.950 . S
H1372 C1369 0.950 . S
C1373 C1364 1.390 1_455 S
C1373 H1366 0.950 . S
C1373 C1370 1.387 . S
C1374 C1375 1.387 . S
C1374 H1378 0.950 . S
C1374 C1383 1.390 1_545 S
C1375 C1374 1.387 . S
C1375 C1377 1.387 . S
H1376 C1383 0.950 . S
C1377 C1375 1.387 . S
C1377 C1379 1.390 1_545 S
C1377 H1381 0.950 . S
H1378 C1374 0.950 . S
C1379 C1377 1.390 1_565 S
C1379 C1380 1.387 . S
C1379 H1382 0.950 . S
C1380 C1379 1.387 . S
C1380 C1383 1.387 . S
H1381 C1377 0.950 . S
H1382 C1379 0.950 . S
C1383 C1374 1.390 1_565 S
C1383 H1376 0.950 . S
C1383 C1380 1.387 . S
C1384 C1385 1.387 . S
C1384 H1388 0.950 . S
C1384 C1393 1.390 1_655 S
C1385 C1384 1.387 . S
C1385 C1387 1.387 . S
H1386 C1393 0.950 . S
C1387 C1385 1.387 . S
C1387 C1389 1.390 1_655 S
C1387 H1391 0.950 . S
H1388 C1384 0.950 . S
C1389 C1387 1.390 1_455 S
C1389 C1390 1.387 . S
C1389 H1392 0.950 . S
C1390 C1389 1.387 . S
C1390 C1393 1.387 . S
H1391 C1387 0.950 . S
H1392 C1389 0.950 . S
C1393 C1384 1.390 1_455 S
C1393 H1386 0.950 . S
C1393 C1390 1.387 . S
C1394 C1395 1.387 . S
C1394 H1398 0.950 . S
C1394 C1403 1.390 1_545 S
C1395 C1394 1.387 . S
C1395 C1397 1.387 . S
H1396 C1403 0.950 . S
C1397 C1395 1.387 . S
C1397 C1399 1.390 1_545 S
C1397 H1401 0.950 . S
H1398 C1394 0.950 . S
C1399 C1397 1.390 1_565 S
C1399 C1400 1.387 . S
C1399 H1402 0.950 . S
C1400 C1399 1.387 . S
C1400 C1403 1.387 . S
H1401 C1397 0.950 . S
H1402 C1399 0.950 . S
C1403 C1394 1.390 1_565 S
C1403 H1396 0.950 . S
C1403 C1400 1.387 . S
C1404 C1405 1.387 . S
C1404 H1408 0.950 . S
C1404 C1413 1.390 1_655 S
C1405 C1404 1.387 . S
C1405 C1407 1.387 . S
H1406 C1413 0.950 . S
C1407 C1405 1.387 . S
C1407 C1409 1.390 1_655 S
C1407 H1411 0.950 . S
H1408 C1404 0.950 . S
C1409 C1407 1.390 1_455 S
C1409 C1410 1.387 . S
C1409 H1412 0.950 . S
C1410 C1409 1.387 . S
C1410 C1413 1.387 . S
H1411 C1407 0.950 . S
H1412 C1409 0.950 . S
C1413 C1404 1.390 1_455 S
C1413 H1406 0.950 . S
C1413 C1410 1.387 . S
C1414 C1415 1.387 . S
C1414 H1418 0.950 . S
C1414 C1423 1.390 1_565 S
C1415 C1414 1.387 . S
C1415 C1417 1.387 . S
H1416 C1423 0.950 . S
C1417 C1415 1.387 . S
C1417 C1419 1.390 1_565 S
C1417 H1421 0.950 . S
H1418 C1414 0.950 . S
C1419 C1417 1.390 1_545 S
C1419 C1420 1.387 . S
C1419 H1422 0.950 . S
C1420 C1419 1.387 . S
C1420 C1423 1.387 . S
H1421 C1417 0.950 . S
H1422 C1419 0.950 . S
C1423 C1414 1.390 1_545 S
C1423 H1416 0.950 . S
C1423 C1420 1.387 . S
C1424 C1425 1.387 . S
C1424 H1428 0.950 . S
C1424 C1433 1.390 . S
C1425 C1424 1.387 . S
C1425 C1427 1.387 . S
H1426 C1433 0.950 . S
C1427 C1425 1.387 . S
C1427 C1429 1.390 . S
C1427 H1431 0.950 . S
H1428 C1424 0.950 . S
C1429 C1427 1.390 . S
C1429 C1430 1.387 . S
C1429 H1432 0.950 . S
C1430 C1429 1.387 . S
C1430 C1433 1.387 . S
H1431 C1427 0.950 . S
H1432 C1429 0.950 . S
C1433 C1424 1.390 . S
C1433 H1426 0.950 . S
C1433 C1430 1.387 . S
C1434 C1435 1.387 . S
C1434 H1438 0.950 . S
C1434 C1443 1.390 . S
C1435 C1434 1.387 . S
C1435 C1437 1.387 . S
H1436 C1443 0.950 . S
C1437 C1435 1.387 . S
C1437 C1439 1.390 . S
C1437 H1441 0.950 . S
H1438 C1434 0.950 . S
C1439 C1437 1.390 . S
C1439 C1440 1.387 . S
C1439 H1442 0.950 . S
C1440 C1439 1.387 . S
C1440 C1443 1.387 . S
H1441 C1437 0.950 . S
H1442 C1439 0.950 . S
C1443 C1434 1.390 . S
C1443 H1436 0.950 . S
C1443 C1440 1.387 . S
C1444 C1445 1.387 . S
C1444 H1448 0.950 . S
C1444 C1453 1.390 . S
C1445 C1444 1.387 . S
C1445 C1447 1.387 . S
H1446 C1453 0.950 . S
C1447 C1445 1.387 . S
C1447 C1449 1.390 . S
C1447 H1451 0.950 . S
H1448 C1444 0.950 . S
C1449 C1447 1.390 . S
C1449 C1450 1.387 . S
C1449 H1452 0.950 . S
C1450 C1449 1.387 . S
C1450 C1453 1.387 . S
H1451 C1447 0.950 . S
H1452 C1449 0.950 . S
C1453 C1444 1.390 . S
C1453 H1446 0.950 . S
C1453 C1450 1.387 . S
C1454 C1455 1.387 . S
C1454 H1458 0.950 . S
C1454 C1463 1.390 . S
C1455 C1454 1.387 . S
C1455 C1457 1.387 . S
H1456 C1463 0.950 . S
C1457 C1455 1.387 . S
C1457 C1459 1.390 . S
C1457 H1461 0.950 . S
H1458 C1454 0.950 . S
C1459 C1457 1.390 . S
C1459 C1460 1.387 . S
C1459 H1462 0.950 . S
C1460 C1459 1.387 . S
C1460 C1463 1.387 . S
H1461 C1457 0.950 . S
H1462 C1459 0.950 . S
C1463 C1454 1.390 . S
C1463 H1456 0.950 . S
C1463 C1460 1.387 . S
C1464 C1465 1.387 . S
C1464 H1468 0.950 . S
C1464 C1473 1.390 . S
C1465 C1464 1.387 . S
C1465 C1467 1.387 . S
H1466 C1473 0.950 . S
C1467 C1465 1.387 . S
C1467 C1469 1.390 . S
C1467 H1471 0.950 . S
H1468 C1464 0.950 . S
C1469 C1467 1.390 . S
C1469 C1470 1.387 . S
C1469 H1472 0.950 . S
C1470 C1469 1.387 . S
C1470 C1473 1.387 . S
H1471 C1467 0.950 . S
H1472 C1469 0.950 . S
C1473 C1464 1.390 . S
C1473 H1466 0.950 . S
C1473 C1470 1.387 . S
C1474 C1475 1.387 . S
C1474 H1478 0.950 . S
C1474 C1483 1.390 . S
C1475 C1474 1.387 . S
C1475 C1477 1.387 . S
H1476 C1483 0.950 . S
C1477 C1475 1.387 . S
C1477 C1479 1.390 . S
C1477 H1481 0.950 . S
H1478 C1474 0.950 . S
C1479 C1477 1.390 . S
C1479 C1480 1.387 . S
C1479 H1482 0.950 . S
C1480 C1479 1.387 . S
C1480 C1483 1.387 . S
H1481 C1477 0.950 . S
H1482 C1479 0.950 . S
C1483 C1474 1.390 . S
C1483 H1476 0.950 . S
C1483 C1480 1.387 . S
C1484 C1485 1.387 . S
C1484 H1488 0.950 . S
C1484 C1493 1.390 . S
C1485 C1484 1.387 . S
C1485 C1487 1.387 . S
H1486 C1493 0.950 . S
C1487 C1485 1.387 . S
C1487 C1489 1.390 . S
C1487 H1491 0.950 . S
H1488 C1484 0.950 . S
C1489 C1487 1.390 . S
C1489 C1490 1.387 . S
C1489 H1492 0.950 . S
C1490 C1489 1.387 . S
C1490 C1493 1.387 . S
H1491 C1487 0.950 . S
H1492 C1489 0.950 . S
C1493 C1484 1.390 . S
C1493 H1486 0.950 . S
C1493 C1490 1.387 . S
C1494 C1495 1.387 . S
C1494 H1498 0.950 . S
C1494 C1503 1.390 . S
C1495 C1494 1.387 . S
C1495 C1497 1.387 . S
H1496 C1503 0.950 . S
C1497 C1495 1.387 . S
C1497 C1499 1.390 . S
C1497 H1501 0.950 . S
H1498 C1494 0.950 . S
C1499 C1497 1.390 . S
C1499 C1500 1.387 . S
C1499 H1502 0.950 . S
C1500 C1499 1.387 . S
C1500 C1503 1.387 . S
H1501 C1497 0.950 . S
H1502 C1499 0.950 . S
C1503 C1494 1.390 . S
C1503 H1496 0.950 . S
C1503 C1500 1.387 . S
C1504 C1505 1.387 . S
C1504 H1508 0.950 . S
C1504 C1513 1.390 1_556 S
C1505 C1504 1.387 . S
C1505 C1507 1.387 . S
H1506 C1513 0.950 . S
C1507 C1505 1.387 . S
C1507 C1509 1.390 1_556 S
C1507 H1511 0.950 . S
H1508 C1504 0.950 . S
C1509 C1507 1.390 1_554 S
C1509 C1510 1.387 . S
C1509 H1512 0.950 . S
C1510 C1509 1.387 . S
C1510 C1513 1.387 . S
H1511 C1507 0.950 . S
H1512 C1509 0.950 . S
C1513 C1504 1.390 1_554 S
C1513 H1506 0.950 . S
C1513 C1510 1.387 . S
C1514 C1515 1.387 . S
C1514 H1518 0.950 . S
C1514 C1523 1.390 1_554 S
C1515 C1514 1.387 . S
C1515 C1517 1.387 . S
H1516 C1523 0.950 . S
C1517 C1515 1.387 . S
C1517 C1519 1.390 1_554 S
C1517 H1521 0.950 . S
H1518 C1514 0.950 . S
C1519 C1517 1.390 1_556 S
C1519 C1520 1.387 . S
C1519 H1522 0.950 . S
C1520 C1519 1.387 . S
C1520 C1523 1.387 . S
H1521 C1517 0.950 . S
H1522 C1519 0.950 . S
C1523 C1514 1.390 1_556 S
C1523 H1516 0.950 . S
C1523 C1520 1.387 . S
C1524 C1525 1.387 . S
C1524 H1528 0.950 . S
C1524 C1533 1.390 1_556 S
C1525 C1524 1.387 . S
C1525 C1527 1.387 . S
H1526 C1533 0.950 . S
C1527 C1525 1.387 . S
C1527 C1529 1.390 1_556 S
C1527 H1531 0.950 . S
H1528 C1524 0.950 . S
C1529 C1527 1.390 1_554 S
C1529 C1530 1.387 . S
C1529 H1532 0.950 . S
C1530 C1529 1.387 . S
C1530 C1533 1.387 . S
H1531 C1527 0.950 . S
H1532 C1529 0.950 . S
C1533 C1524 1.390 1_554 S
C1533 H1526 0.950 . S
C1533 C1530 1.387 . S
C1534 C1535 1.387 . S
C1534 H1538 0.950 . S
C1534 C1543 1.390 1_556 S
C1535 C1534 1.387 . S
C1535 C1537 1.387 . S
H1536 C1543 0.950 . S
C1537 C1535 1.387 . S
C1537 C1539 1.390 1_556 S
C1537 H1541 0.950 . S
H1538 C1534 0.950 . S
C1539 C1537 1.390 1_554 S
C1539 C1540 1.387 . S
C1539 H1542 0.950 . S
C1540 C1539 1.387 . S
C1540 C1543 1.387 . S
H1541 C1537 0.950 . S
H1542 C1539 0.950 . S
C1543 C1534 1.390 1_554 S
C1543 H1536 0.950 . S
C1543 C1540 1.387 . S
C1544 C1545 1.387 . S
C1544 H1548 0.950 . S
C1544 C1553 1.390 . S
C1545 C1544 1.387 . S
C1545 C1547 1.387 . S
H1546 C1553 0.950 . S
C1547 C1545 1.387 . S
C1547 C1549 1.390 . S
C1547 H1551 0.950 . S
H1548 C1544 0.950 . S
C1549 C1547 1.390 . S
C1549 C1550 1.387 . S
C1549 H1552 0.950 . S
C1550 C1549 1.387 . S
C1550 C1553 1.387 . S
H1551 C1547 0.950 . S
H1552 C1549 0.950 . S
C1553 C1544 1.390 . S
C1553 H1546 0.950 . S
C1553 C1550 1.387 . S
C1554 C1555 1.387 . S
C1554 H1558 0.950 . S
C1554 C1563 1.390 . S
C1555 C1554 1.387 . S
C1555 C1557 1.387 . S
H1556 C1563 0.950 . S
C1557 C1555 1.387 . S
C1557 C1559 1.390 . S
C1557 H1561 0.950 . S
H1558 C1554 0.950 . S
C1559 C1557 1.390 . S
C1559 C1560 1.387 . S
C1559 H1562 0.950 . S
C1560 C1559 1.387 . S
C1560 C1563 1.387 . S
H1561 C1557 0.950 . S
H1562 C1559 0.950 . S
C1563 C1554 1.390 . S
C1563 H1556 0.950 . S
C1563 C1560 1.387 . S
C1564 C1565 1.387 . S
C1564 H1568 0.950 . S
C1564 C1573 1.390 . S
C1565 C1564 1.387 . S
C1565 C1567 1.387 . S
H1566 C1573 0.950 . S
C1567 C1565 1.387 . S
C1567 C1569 1.390 . S
C1567 H1571 0.950 . S
H1568 C1564 0.950 . S
C1569 C1567 1.390 . S
C1569 C1570 1.387 . S
C1569 H1572 0.950 . S
C1570 C1569 1.387 . S
C1570 C1573 1.387 . S
H1571 C1567 0.950 . S
H1572 C1569 0.950 . S
C1573 C1564 1.390 . S
C1573 H1566 0.950 . S
C1573 C1570 1.387 . S
C1574 C1575 1.387 . S
C1574 H1578 0.950 . S
C1574 C1583 1.390 . S
C1575 C1574 1.387 . S
C1575 C1577 1.387 . S
H1576 C1583 0.950 . S
C1577 C1575 1.387 . S
C1577 C1579 1.390 . S
C1577 H1581 0.950 . S
H1578 C1574 0.950 . S
C1579 C1577 1.390 . S
C1579 C1580 1.387 . S
C1579 H1582 0.950 . S
C1580 C1579 1.387 . S
C1580 C1583 1.387 . S
H1581 C1577 0.950 . S
H1582 C1579 0.950 . S
C1583 C1574 1.390 . S
C1583 H1576 0.950 . S
C1583 C1580 1.387 . S
C1584 C1585 1.387 . S
C1584 H1588 0.950 . S
C1584 C1593 1.390 . S
C1585 C1584 1.387 . S
C1585 C1587 1.387 . S
H1586 C1593 0.950 . S
C1587 C1585 1.387 . S
C1587 C1589 1.390 . S
C1587 H1591 0.950 . S
H1588 C1584 0.950 . S
C1589 C1587 1.390 . S
C1589 C1590 1.387 . S
C1589 H1592 0.950 . S
C1590 C1589 1.387 . S
C1590 C1593 1.387 . S
H1591 C1587 0.950 . S
H1592 C1589 0.950 . S
C1593 C1584 1.390 . S
C1593 H1586 0.950 . S
C1593 C1590 1.387 . S
C1594 C1595 1.387 . S
C1594 H1598 0.950 . S
C1594 C1603 1.390 . S
C1595 C1594 1.387 . S
C1595 C1597 1.387 . S
H1596 C1603 0.950 . S
C1597 C1595 1.387 . S
C1597 C1599 1.390 . S
C1597 H1601 0.950 . S
H1598 C1594 0.950 . S
C1599 C1597 1.390 . S
C1599 C1600 1.387 . S
C1599 H1602 0.950 . S
C1600 C1599 1.387 . S
C1600 C1603 1.387 . S
H1601 C1597 0.950 . S
H1602 C1599 0.950 . S
C1603 C1594 1.390 . S
C1603 H1596 0.950 . S
C1603 C1600 1.387 . S
C1604 C1605 1.387 . S
C1604 H1608 0.950 . S
C1604 C1613 1.390 . S
C1605 C1604 1.387 . S
C1605 C1607 1.387 . S
H1606 C1613 0.950 . S
C1607 C1605 1.387 . S
C1607 C1609 1.390 . S
C1607 H1611 0.950 . S
H1608 C1604 0.950 . S
C1609 C1607 1.390 . S
C1609 C1610 1.387 . S
C1609 H1612 0.950 . S
C1610 C1609 1.387 . S
C1610 C1613 1.387 . S
H1611 C1607 0.950 . S
H1612 C1609 0.950 . S
C1613 C1604 1.390 . S
C1613 H1606 0.950 . S
C1613 C1610 1.387 . S
C1614 C1615 1.387 . S
C1614 H1618 0.950 . S
C1614 C1623 1.390 . S
C1615 C1614 1.387 . S
C1615 C1617 1.387 . S
H1616 C1623 0.950 . S
C1617 C1615 1.387 . S
C1617 C1619 1.390 . S
C1617 H1621 0.950 . S
H1618 C1614 0.950 . S
C1619 C1617 1.390 . S
C1619 C1620 1.387 . S
C1619 H1622 0.950 . S
C1620 C1619 1.387 . S
C1620 C1623 1.387 . S
H1621 C1617 0.950 . S
H1622 C1619 0.950 . S
C1623 C1614 1.390 . S
C1623 H1616 0.950 . S
C1623 C1620 1.387 . S
C1624 C1625 1.387 . S
C1624 H1628 0.950 . S
C1624 C1633 1.390 1_554 S
C1625 C1624 1.387 . S
C1625 C1627 1.387 . S
H1626 C1633 0.950 . S
C1627 C1625 1.387 . S
C1627 C1629 1.390 1_554 S
C1627 H1631 0.950 . S
H1628 C1624 0.950 . S
C1629 C1627 1.390 1_556 S
C1629 C1630 1.387 . S
C1629 H1632 0.950 . S
C1630 C1629 1.387 . S
C1630 C1633 1.387 . S
H1631 C1627 0.950 . S
H1632 C1629 0.950 . S
C1633 C1624 1.390 1_556 S
C1633 H1626 0.950 . S
C1633 C1630 1.387 . S
C1634 C1635 1.387 . S
C1634 H1638 0.950 . S
C1634 C1643 1.390 1_556 S
C1635 C1634 1.387 . S
C1635 C1637 1.387 . S
H1636 C1643 0.950 . S
C1637 C1635 1.387 . S
C1637 C1639 1.390 1_556 S
C1637 H1641 0.950 . S
H1638 C1634 0.950 . S
C1639 C1637 1.390 1_554 S
C1639 C1640 1.387 . S
C1639 H1642 0.950 . S
C1640 C1639 1.387 . S
C1640 C1643 1.387 . S
H1641 C1637 0.950 . S
H1642 C1639 0.950 . S
C1643 C1634 1.390 1_554 S
C1643 H1636 0.950 . S
C1643 C1640 1.387 . S
C1644 C1645 1.387 . S
C1644 H1648 0.950 . S
C1644 C1653 1.390 1_556 S
C1645 C1644 1.387 . S
C1645 C1647 1.387 . S
H1646 C1653 0.950 . S
C1647 C1645 1.387 . S
C1647 C1649 1.390 1_556 S
C1647 H1651 0.950 . S
H1648 C1644 0.950 . S
C1649 C1647 1.390 1_554 S
C1649 C1650 1.387 . S
C1649 H1652 0.950 . S
C1650 C1649 1.387 . S
C1650 C1653 1.387 . S
H1651 C1647 0.950 . S
H1652 C1649 0.950 . S
C1653 C1644 1.390 1_554 S
C1653 H1646 0.950 . S
C1653 C1650 1.387 . S
C1654 C1655 1.387 . S
C1654 H1658 0.950 . S
C1654 C1663 1.390 1_554 S
C1655 C1654 1.387 . S
C1655 C1657 1.387 . S
H1656 C1663 0.950 . S
C1657 C1655 1.387 . S
C1657 C1659 1.390 1_554 S
C1657 H1661 0.950 . S
H1658 C1654 0.950 . S
C1659 C1657 1.390 1_556 S
C1659 C1660 1.387 . S
C1659 H1662 0.950 . S
C1660 C1659 1.387 . S
C1660 C1663 1.387 . S
H1661 C1657 0.950 . S
H1662 C1659 0.950 . S
C1663 C1654 1.390 1_556 S
C1663 H1656 0.950 . S
C1663 C1660 1.387 . S
C705 C117 1.181 . S
C710 C7 1.183 . S
C715 C139 1.180 . S
C720 C29 1.183 . S
C725 C65 1.183 . S
C730 C169 1.181 . S
C735 C103 1.182 . S
C740 C73 1.182 . S
C745 C191 1.183 . S
C750 C307 1.180 . S
C755 C329 1.183 . S
C760 C205 1.180 . S
C765 C345 1.181 . S
C770 C235 1.183 . S
C775 C257 1.182 . S
C780 C285 1.181 . S
C785 C359 1.182 . S
C790 C469 1.182 . S
C795 C491 1.182 . S
C800 C381 1.181 . S
C805 C417 1.183 . S
C810 C521 1.180 . S
C815 C439 1.182 . S
C820 C455 1.182 . S
C825 C653 1.183 . S
C830 C535 1.180 . S
C835 C675 1.183 . S
C840 C557 1.181 . S
C845 C703 1.181 . S
C850 C593 1.183 . S
C855 C601 1.183 . S
C860 C631 1.181 . S
C865 C659 1.299 . S
C870 C15 1.301 . S
C875 C681 1.299 . S
C880 C37 1.301 . S
C885 C689 1.299 . S
C890 C51 1.301 . S
C895 C81 1.301 . S
C900 C637 1.299 . S
C905 C109 1.299 . S
C910 C609 1.301 . S
C915 C543 1.299 . S
C920 C125 1.301 . S
C925 C147 1.299 . S
C930 C565 1.301 . S
C935 C579 1.301 . S
C940 C175 1.299 . S
C945 C477 1.299 . S
C950 C197 1.301 . S
C955 C499 1.299 . S
C960 C213 1.301 . S
C965 C241 1.299 . S
C970 C527 1.301 . S
C975 C461 1.301 . S
C980 C263 1.299 . S
C985 C425 1.301 . S
C990 C271 1.299 . S
C995 C293 1.299 . S
C1000 C367 1.301 . S
C1005 C315 1.301 . S
C1010 C389 1.299 . S
C1015 C403 1.299 . S
C1020 C351 1.301 . S
C1025 C74 1.578 1_545 S
C1030 C18 1.572 . S
C1035 C8 1.578 1_655 S
C1040 C40 1.572 . S
C1045 C52 1.574 . S
C1050 C30 1.579 1_565 S
C1055 C84 1.572 . S
C1060 C54 1.578 1_455 S
C1065 C118 1.579 1_565 S
C1070 C98 1.574 . S
C1075 C140 1.579 1_455 S
C1080 C128 1.574 . S
C1085 C172 1.579 1_545 S
C1090 C150 1.574 . S
C1095 C164 1.573 . S
C1100 C106 1.578 1_655 S
C1105 C260 1.579 1_565 S
C1110 C186 1.574 . S
C1115 C194 1.579 1_455 S
C1120 C216 1.574 . S
C1125 C230 1.574 . S
C1130 C206 1.579 1_545 S
C1135 C252 1.574 . S
C1140 C238 1.579 1_655 S
C1145 C296 1.578 1_545 S
C1150 C272 1.572 . S
C1155 C294 1.572 . S
C1160 C318 1.578 1_655 S
C1165 C316 1.574 . S
C1170 C348 1.579 1_565 S
C1175 C340 1.573 . S
C1180 C274 1.578 1_455 S
C1185 C428 1.578 . S
C1190 C370 1.572 . S
C1195 C392 1.572 . S
C1200 C360 1.578 . S
C1205 C382 1.579 . S
C1210 C404 1.574 . S
C1215 C426 1.573 . S
C1220 C406 1.578 . S
C1225 C450 1.572 . S
C1230 C470 1.578 . S
C1235 C492 1.579 . S
C1240 C480 1.574 . S
C1245 C502 1.574 . S
C1250 C524 1.579 . S
C1255 C516 1.573 . S
C1260 C458 1.578 . S
C1265 C602 1.579 . S
C1270 C546 1.574 . S
C1275 C568 1.572 . S
C1280 C536 1.578 . S
C1285 C580 1.574 . S
C1290 C558 1.579 . S
C1295 C612 1.574 . S
C1300 C582 1.579 . S
C1305 C656 1.577 . S
C1310 C626 1.573 . S
C1315 C648 1.574 . S
C1320 C678 1.579 . S
C1325 C692 1.579 . S
C1330 C670 1.574 . S
C1335 C634 1.579 . S
C1340 C690 1.574 . S
C1345 C21 1.306 . S
C1350 C153 1.306 . S
C1355 C161 1.306 . S
C1360 C43 1.306 . S
C1365 C59 1.305 . S
C1370 C95 1.305 . S
C1375 C131 1.305 . S
C1380 C87 1.305 . S
C1385 C183 1.305 . S
C1390 C323 1.305 . S
C1395 C337 1.306 . S
C1400 C219 1.306 . S
C1405 C279 1.306 . S
C1410 C227 1.306 . S
C1415 C301 1.305 . S
C1420 C249 1.305 . S
C1425 C505 1.306 . S
C1430 C373 1.306 . S
C1435 C395 1.306 . S
C1440 C513 1.306 . S
C1445 C447 1.305 . S
C1450 C411 1.305 . S
C1455 C433 1.306 . S
C1460 C483 1.306 . S
C1465 C549 1.306 . S
C1470 C667 1.306 . S
C1475 C697 1.305 . S
C1480 C571 1.305 . S
C1485 C623 1.306 . S
C1490 C587 1.306 . S
C1495 C645 1.305 . S
C1500 C615 1.305 . S
C1505 C228 1.507 . S
C1510 C10 1.508 . S
C1515 C32 1.508 . S
C1520 C250 1.507 . S
C1525 C184 1.507 . S
C1530 C62 1.508 . S
C1535 C208 1.507 . S
C1540 C76 1.508 . S
C1545 C326 1.507 . S
C1550 C96 1.507 . S
C1555 C120 1.508 . S
C1560 C338 1.507 . S
C1565 C282 1.508 . S
C1570 C142 1.507 . S
C1575 C162 1.507 . S
C1580 C304 1.508 . S
C1585 C590 1.508 . S
C1590 C362 1.507 . S
C1595 C604 1.507 . S
C1600 C384 1.507 . S
C1605 C414 1.508 . S
C1610 C538 1.507 . S
C1615 C436 1.507 . S
C1620 C560 1.507 . S
C1625 C668 1.507 . S
C1630 C448 1.508 . S
C1635 C472 1.508 . S
C1640 C700 1.507 . S
C1645 C494 1.507 . S
C1650 C624 1.508 . S
C1655 C646 1.507 . S
C1660 C514 1.507 . S
