# Generated by pormake.
# Topology vby, (6)-cn, num edge types: 1
# Building blocks:
#     Node 0, Type 0, BuildingBlock: BETDAH_clean_sbu_0, # of connection points: 6
#     Node 1, Type 0, BuildingBlock: BETDAH_clean_sbu_0, # of connection points: 6
#     Node 2, Type 0, BuildingBlock: BETDAH_clean_sbu_0, # of connection points: 6
#     Node 3, Type 0, BuildingBlock: BETDAH_clean_sbu_0, # of connection points: 6
#     Node 4, Type 0, BuildingBlock: BETDAH_clean_sbu_0, # of connection points: 6
#     Node 5, Type 0, BuildingBlock: BETDAH_clean_sbu_0, # of connection points: 6
#     Node 6, Type 0, BuildingBlock: BETDAH_clean_sbu_0, # of connection points: 6
#     Node 7, Type 0, BuildingBlock: BETDAH_clean_sbu_0, # of connection points: 6
#     Edge 8, Type (0, 0), BuildingBlock: XUDNAN_clean_linker_2, # of connection points: 2
#     Edge 9, Type (0, 0), BuildingBlock: XUDNAN_clean_linker_2, # of connection points: 2
#     Edge 10, Type (0, 0), BuildingBlock: XUDNAN_clean_linker_2, # of connection points: 2
#     Edge 11, Type (0, 0), BuildingBlock: XUDNAN_clean_linker_2, # of connection points: 2
#     Edge 12, Type (0, 0), BuildingBlock: XUDNAN_clean_linker_2, # of connection points: 2
#     Edge 13, Type (0, 0), BuildingBlock: XUDNAN_clean_linker_2, # of connection points: 2
#     Edge 14, Type (0, 0), BuildingBlock: XUDNAN_clean_linker_2, # of connection points: 2
#     Edge 15, Type (0, 0), BuildingBlock: XUDNAN_clean_linker_2, # of connection points: 2
#     Edge 16, Type (0, 0), BuildingBlock: XUDNAN_clean_linker_2, # of connection points: 2
#     Edge 17, Type (0, 0), BuildingBlock: XUDNAN_clean_linker_2, # of connection points: 2
#     Edge 18, Type (0, 0), BuildingBlock: XUDNAN_clean_linker_2, # of connection points: 2
#     Edge 19, Type (0, 0), BuildingBlock: XUDNAN_clean_linker_2, # of connection points: 2
#     Edge 20, Type (0, 0), BuildingBlock: XUDNAN_clean_linker_2, # of connection points: 2
#     Edge 21, Type (0, 0), BuildingBlock: XUDNAN_clean_linker_2, # of connection points: 2
#     Edge 22, Type (0, 0), BuildingBlock: XUDNAN_clean_linker_2, # of connection points: 2
#     Edge 23, Type (0, 0), BuildingBlock: XUDNAN_clean_linker_2, # of connection points: 2
#     Edge 24, Type (0, 0), BuildingBlock: XUDNAN_clean_linker_2, # of connection points: 2
#     Edge 25, Type (0, 0), BuildingBlock: XUDNAN_clean_linker_2, # of connection points: 2
#     Edge 26, Type (0, 0), BuildingBlock: XUDNAN_clean_linker_2, # of connection points: 2
#     Edge 27, Type (0, 0), BuildingBlock: XUDNAN_clean_linker_2, # of connection points: 2
#     Edge 28, Type (0, 0), BuildingBlock: XUDNAN_clean_linker_2, # of connection points: 2
#     Edge 29, Type (0, 0), BuildingBlock: XUDNAN_clean_linker_2, # of connection points: 2
#     Edge 30, Type (0, 0), BuildingBlock: XUDNAN_clean_linker_2, # of connection points: 2
#     Edge 31, Type (0, 0), BuildingBlock: XUDNAN_clean_linker_2, # of connection points: 2
# Relax obj value: 0.203
# Max RMSD: 0.219
# Mean RMSD: 0.219
data_MOF--net-vby--node1-BETDAH_clean_sbu_0--edge1-XUDNAN_clean_linker_2
_symmetry_space_group_name_H-M    P1
_symmetry_Int_Tables_number       1
_symmetry_cell_setting            triclinic
loop_
_symmetry_equiv_pos_as_xyz
'x, y, z'
_cell_length_a     15.532643
_cell_length_b     104.07914
_cell_length_c     29.34469
_cell_angle_alpha  89.974196
_cell_angle_beta   84.876613
_cell_angle_gamma 90.094187
loop_
_atom_site_label
_atom_site_type_symbol
_atom_site_fract_x
_atom_site_fract_y
_atom_site_fract_z
_atom_type_partial_charge
Ho0 Ho 0.09608 0.40086 0.01213 0.0
Ho1 Ho 0.09292 0.37197 0.01588 0.0
C2 C 0.91182 0.38598 0.02068 0.0
C3 C 0.08925 0.42513 0.99115 0.0
C4 C 0.05608 0.43823 0.00223 0.0
C5 C 1.03406 0.44625 0.96656 0.0
C6 C 1.01972 0.45944 0.97385 0.0
C7 C 1.02788 0.46497 0.01706 0.0
C8 C 0.04691 0.45674 0.05313 0.0
C9 C 0.06014 0.44356 0.04591 0.0
C10 C 0.08954 0.39108 0.09932 0.0
C11 C 0.27685 0.38657 0.01166 0.0
C12 C 0.10696 0.34766 0.03488 0.0
C13 C 0.15751 0.33559 0.02797 0.0
C14 C 0.1665 0.32758 0.06582 0.0
C15 C 0.19603 0.3149 0.05988 0.0
C16 C 0.21794 0.30991 0.01577 0.0
C17 C 0.21644 0.31841 0.97822 0.0
C18 C 0.18565 0.33102 0.98416 0.0
C19 C 0.08446 0.38167 0.93055 0.0
O20 O 0.95371 0.39645 0.00521 0.0
O21 O 0.9541 0.37605 0.03569 0.0
O22 O 0.1431 0.4202 0.01797 0.0
O23 O 0.03854 0.4165 0.97521 0.0
O24 O 0.1238 0.40196 0.08644 0.0
O25 O 0.05111 0.3867 0.06665 0.0
O26 O 0.23111 0.37626 0.02341 0.0
O27 O 0.2396 0.39708 0.99767 0.0
O28 O 0.06757 0.35208 1.00063 0.0
O29 O 0.13678 0.35681 0.05956 0.0
O30 O 0.04718 0.37128 0.94628 0.0
O31 O 0.13239 0.3861 0.95974 0.0
H32 H 1.03144 0.44241 0.9324 0.0
H33 H 1.00374 0.46528 0.9453 0.0
H34 H 0.05573 0.46048 0.08678 0.0
H35 H 0.07776 0.43768 0.07409 0.0
H36 H 0.14557 0.33089 0.10002 0.0
H37 H 0.19631 0.30882 0.0898 0.0
H38 H 0.23603 0.31521 0.94377 0.0
H39 H 0.18043 0.33698 0.95426 0.0
Ho40 Ho 0.97007 0.65472 0.01948 0.0
Ho41 Ho 0.9745 0.62553 0.01733 0.0
C42 C 0.78955 0.63822 0.02693 0.0
C43 C 0.95984 0.67835 0.99215 0.0
C44 C 0.91803 0.69092 0.0039 0.0
C45 C 0.87614 0.69766 0.97081 0.0
C46 C 0.84684 0.7103 0.97884 0.0
C47 C 0.86011 0.71676 0.02007 0.0
C48 C 0.9004 0.70963 0.05351 0.0
C49 C 0.92759 0.69694 0.04581 0.0
C50 C 0.96819 0.6471 0.10841 0.0
C51 C 0.15414 0.64059 0.02041 0.0
C52 C 1.00374 0.60117 0.01921 0.0
C53 C 1.02052 0.58721 0.02033 0.0
C54 C 0.04881 0.58163 0.05971 0.0
C55 C 0.06235 0.56838 0.06189 0.0
C56 C 0.04475 0.56026 0.02533 0.0
C57 C 1.02021 0.566 0.98494 0.0
C58 C 1.00899 0.57936 0.98236 0.0
C59 C 0.96716 0.6377 0.93432 0.0
O60 O 0.82858 0.64931 0.01647 0.0
O61 O 0.8333 0.62775 0.03515 0.0
O62 O 1.01793 0.67421 0.01839 0.0
O63 O 0.91141 0.66909 0.9782 0.0
O64 O 0.95703 0.6587 0.09424 0.0
O65 O 0.9693 0.6396 0.07407 0.0
O66 O 0.10995 0.63002 0.03071 0.0
O67 O 0.11544 0.65142 0.00997 0.0
O68 O 1.02283 0.60815 0.98275 0.0
O69 O 0.96779 0.60744 0.05462 0.0
O70 O 0.92044 0.62795 0.94884 0.0
O71 O 1.01217 0.64068 0.96639 0.0
H72 H 0.86803 0.69325 0.93803 0.0
H73 H 0.81515 0.71493 0.95199 0.0
H74 H 0.91523 0.71375 0.08554 0.0
H75 H 0.95947 0.69205 0.07221 0.0
H76 H 0.06033 0.58752 0.08899 0.0
H77 H 0.08499 0.56452 0.0929 0.0
H78 H 1.00599 0.56018 0.95599 0.0
H79 H 0.98827 0.5835 0.95127 0.0
Ho80 Ho 0.09167 0.65373 0.51341 0.0
Ho81 Ho 0.08919 0.62436 0.51338 0.0
C82 C 0.27471 0.63851 0.50998 0.0
C83 C 0.10367 0.67853 0.52371 0.0
C84 C 0.15501 0.69069 0.52011 0.0
C85 C 0.18401 0.69673 0.55896 0.0
C86 C 0.21812 0.70931 0.5562 0.0
C87 C 0.22318 0.71617 0.51459 0.0
C88 C 0.19415 0.71 0.47603 0.0
C89 C 0.16165 0.6975 0.47862 0.0
C90 C 0.07122 0.64229 0.43078 0.0
C91 C 0.90851 0.63966 0.52112 0.0
C92 C 0.08884 0.60042 0.48922 0.0
C93 C 0.05466 0.58735 0.50039 0.0
C94 C 1.01078 0.5809 0.4675 0.0
C95 C 0.99655 0.56766 0.47065 0.0
C96 C 1.02709 0.56045 0.50646 0.0
C97 C 0.06339 0.56707 0.54194 0.0
C98 C 0.07732 0.58042 0.53889 0.0
C99 C 0.07108 0.63196 0.60281 0.0
O100 O 0.23564 0.64982 0.51251 0.0
O101 O 0.23189 0.62763 0.507 0.0
O102 O 0.08891 0.67281 0.48563 0.0
O103 O 0.11124 0.67039 0.55715 0.0
O104 O 1.02985 0.65224 0.44753 0.0
O105 O 0.1234 0.63887 0.45941 0.0
O106 O 0.94983 0.62906 0.50769 0.0
O107 O 0.94971 0.65016 0.53259 0.0
O108 O 0.14446 0.60537 0.51523 0.0
O109 O 0.03663 0.609 0.47404 0.0
O110 O 0.06926 0.62026 0.58839 0.0
O111 O 0.07802 0.63932 0.56827 0.0
H112 H 0.17811 0.69188 0.59175 0.0
H113 H 0.2399 0.71366 0.58665 0.0
H114 H 0.19364 0.71496 0.44364 0.0
H115 H 0.13799 0.69341 0.44817 0.0
H116 H 0.99253 0.58595 0.43753 0.0
H117 H 0.96648 0.56294 0.44325 0.0
H118 H 0.08712 0.56184 0.57016 0.0
H119 H 0.11073 0.58513 0.56513 0.0
Ho120 Ho 0.97646 0.40088 0.52173 0.0
Ho121 Ho 0.97932 0.37196 0.52139 0.0
C122 C 0.1611 0.38589 0.51341 0.0
C123 C 0.98395 0.42533 0.54013 0.0
C124 C 1.01807 0.43847 0.53038 0.0
C125 C 0.03892 0.44627 0.56693 0.0
C126 C 0.05449 0.45948 0.56068 0.0
C127 C 0.04897 0.46526 0.51763 0.0
C128 C 1.03058 0.45726 0.48078 0.0
C129 C 1.01601 0.44407 0.48698 0.0
C130 C 0.97861 0.39049 0.43587 0.0
C131 C 0.79569 0.38653 0.52421 0.0
C132 C 0.96408 0.34731 0.50796 0.0
C133 C 0.91103 0.3353 0.51215 0.0
C134 C 0.87931 0.32986 0.47298 0.0
C135 C 0.85031 0.31706 0.47318 0.0
C136 C 0.85189 0.30943 0.51259 0.0
C137 C 0.87771 0.31508 0.55263 0.0
C138 C 0.90687 0.32786 0.55248 0.0
C139 C 0.99351 0.38281 0.60453 0.0
O140 O 0.11972 0.39661 0.52655 0.0
O141 O 0.11861 0.37561 0.50136 0.0
O142 O 0.93401 0.42028 0.51145 0.0
O143 O 1.03142 0.41676 0.55864 0.0
O144 O 0.94248 0.40121 0.44883 0.0
O145 O 1.01951 0.38632 0.46812 0.0
O146 O 0.84124 0.37619 0.51298 0.0
O147 O 0.83321 0.3971 0.53767 0.0
O148 O 0.99076 0.35237 0.54491 0.0
O149 O 0.94804 0.356 0.47764 0.0
O150 O 1.03084 0.37232 0.59004 0.0
O151 O 0.94268 0.38661 0.5758 0.0
H152 H 0.0398 0.44223 0.60092 0.0
H153 H 0.06958 0.46516 0.58983 0.0
H154 H 1.02357 0.46122 0.44722 0.0
H155 H 0.99913 0.43839 0.45815 0.0
H156 H 0.88254 0.3352 0.44118 0.0
H157 H 0.83202 0.31286 0.44166 0.0
H158 H 0.88096 0.30933 0.58322 0.0
H159 H 0.93163 0.33161 0.58317 0.0
Ho160 Ho 0.59095 0.90092 0.01782 0.0
Ho161 Ho 0.58594 0.87282 0.01299 0.0
C162 C 0.40461 0.88627 0.02408 0.0
C163 C 0.58532 0.92566 0.00636 0.0
C164 C 0.54778 0.93874 0.01231 0.0
C165 C 0.50924 0.94452 0.97603 0.0
C166 C 0.49565 0.9578 0.97538 0.0
C167 C 0.52255 0.96577 0.01038 0.0
C168 C 0.55422 0.95982 0.04861 0.0
C169 C 0.56655 0.94647 0.04958 0.0
C170 C 0.59155 0.8895 0.10162 0.0
C171 C 0.77046 0.88673 0.01327 0.0
C172 C 0.59757 0.84784 0.01554 0.0
C173 C 0.6521 0.83606 0.0155 0.0
C174 C 0.69188 0.8323 0.05433 0.0
C175 C 0.7282 0.82004 0.0571 0.0
C176 C 0.72432 0.81083 0.02155 0.0
C177 C 0.68868 0.81509 0.98146 0.0
C178 C 0.65341 0.82746 0.97859 0.0
C179 C 0.56954 0.88497 0.93139 0.0
O180 O 0.44622 0.89721 0.014 0.0
O181 O 0.44707 0.87578 0.03339 0.0
O182 O 0.61702 0.92011 0.04101 0.0
O183 O 0.55496 0.91746 0.97802 0.0
O184 O 0.63366 0.89979 0.08886 0.0
O185 O 0.54715 0.88601 0.06983 0.0
O186 O 0.72344 0.87657 0.0256 0.0
O187 O 0.73353 0.89743 1.00095 0.0
O188 O 0.59757 0.85446 0.97781 0.0
O189 O 0.58949 0.85512 0.05198 0.0
O190 O 0.52238 0.87559 0.94834 0.0
O191 O 0.62425 0.88768 0.95967 0.0
H192 H 0.4944 0.9389 0.94665 0.0
H193 H 0.46794 0.96187 0.94606 0.0
H194 H 0.5755 0.96551 0.07637 0.0
H195 H 0.59667 0.94236 0.07811 0.0
H196 H 0.69244 0.83867 0.0835 0.0
H197 H 0.75707 0.81801 0.08829 0.0
H198 H 0.68427 0.80889 0.95235 0.0
H199 H 0.62316 0.83006 0.94803 0.0
Ho200 Ho 0.47734 0.15377 0.02023 0.0
Ho201 Ho 0.47271 0.12567 0.01986 0.0
C202 C 0.29187 0.13945 0.02704 0.0
C203 C 0.4664 0.17859 0.01059 0.0
C204 C 0.41303 0.19051 0.01232 0.0
C205 C 0.38341 0.19539 0.97211 0.0
C206 C 0.35032 0.20785 0.97059 0.0
C207 C 0.34329 0.21592 0.00963 0.0
C208 C 0.36952 0.21071 0.05065 0.0
C209 C 0.40471 0.19827 0.0518 0.0
C210 C 0.4915 0.14322 0.10364 0.0
C211 C 0.65949 0.14002 0.0152 0.0
C212 C 0.47867 0.10098 0.03391 0.0
C213 C 0.51539 0.08794 0.02511 0.0
C214 C 0.53778 0.08035 0.06192 0.0
C215 C 0.5545 0.06714 0.05625 0.0
C216 C 0.5479 0.06112 0.01364 0.0
C217 C 0.52757 0.06895 0.97668 0.0
C218 C 0.51278 0.08212 0.98217 0.0
C219 C 0.47377 0.13642 0.93386 0.0
O220 O 0.33527 0.14993 0.01401 0.0
O221 O 0.3321 0.12912 0.03976 0.0
O222 O 0.47912 0.17291 0.049 0.0
O223 O 0.46142 0.17043 0.97696 0.0
O224 O 0.53382 0.15309 0.0871 0.0
O225 O 0.43927 0.13939 0.07566 0.0
O226 O 0.61593 0.12927 0.02483 0.0
O227 O 0.61984 0.15076 0.00559 0.0
O228 O 0.4385 0.10641 0.0018 0.0
O229 O 0.51752 0.10931 0.05842 0.0
O230 O 0.426 0.12699 0.94988 0.0
O231 O 0.5191 0.13986 0.96541 0.0
H232 H 0.39011 0.18982 0.94081 0.0
H233 H 0.33455 0.21117 0.93752 0.0
H234 H 0.36477 0.21621 0.08199 0.0
H235 H 0.42824 0.19492 0.08336 0.0
H236 H 0.5389 0.08453 0.09567 0.0
H237 H 0.57093 0.06167 0.0856 0.0
H238 H 0.51865 0.06491 0.9435 0.0
H239 H 0.49456 0.08758 0.95312 0.0
Ho240 Ho 0.59163 0.15411 0.51471 0.0
Ho241 Ho 0.59054 0.12607 0.51287 0.0
C242 C 0.77633 0.13876 0.50683 0.0
C243 C 0.60672 0.17865 0.5303 0.0
C244 C 0.65634 0.19088 0.52292 0.0
C245 C 0.69993 0.19612 0.55867 0.0
C246 C 0.73329 0.20867 0.55571 0.0
C247 C 0.72291 0.21631 0.51716 0.0
C248 C 0.68178 0.21103 0.48081 0.0
C249 C 0.6489 0.19845 0.48359 0.0
C250 C 0.57326 0.14421 0.43037 0.0
C251 C 0.41003 0.14097 0.51929 0.0
C252 C 0.56354 0.10163 0.50823 0.0
C253 C 0.54668 0.08759 0.50898 0.0
C254 C 0.56071 0.07996 0.46945 0.0
C255 C 0.55358 0.0665 0.47243 0.0
C256 C 0.5328 0.06051 0.51503 0.0
C257 C 0.51279 0.06827 0.55369 0.0
C258 C 0.52014 0.0816 0.55078 0.0
C259 C 0.60732 0.13606 0.59765 0.0
O260 O 0.73448 0.14963 0.5165 0.0
O261 O 0.7346 0.12802 0.49909 0.0
O262 O 0.56855 0.17386 0.49628 0.0
O263 O 0.63513 0.16973 0.55653 0.0
O264 O 0.53758 0.15465 0.44639 0.0
O265 O 0.62387 0.13995 0.4581 0.0
O266 O 0.45309 0.13124 0.49972 0.0
O267 O 0.45196 0.15039 0.53769 0.0
O268 O 0.54387 0.10855 0.54469 0.0
O269 O 0.59857 0.1081 0.47301 0.0
O270 O 0.65537 0.12728 0.57733 0.0
O271 O 0.55483 0.14001 0.56996 0.0
H272 H 0.70563 0.19067 0.58972 0.0
H273 H 0.76547 0.21252 0.58401 0.0
H274 H 0.67412 0.2167 0.45049 0.0
H275 H 0.61507 0.19484 0.45553 0.0
H276 H 0.58014 0.08434 0.43665 0.0
H277 H 0.56906 0.06078 0.44199 0.0
H278 H 0.49483 0.064 0.58686 0.0
H279 H 0.50796 0.08716 0.58188 0.0
Ho280 Ho 0.47006 0.901 0.52005 0.0
Ho281 Ho 0.46727 0.87147 0.5213 0.0
C282 C 0.65319 0.88635 0.51712 0.0
C283 C 0.47699 0.92575 0.5296 0.0
C284 C 0.51716 0.9387 0.52608 0.0
C285 C 0.53327 0.94514 0.56632 0.0
C286 C 0.55012 0.95832 0.5659 0.0
C287 C 0.55293 0.9655 0.52497 0.0
C288 C 0.54091 0.95889 0.48412 0.0
C289 C 0.52274 0.94567 0.4847 0.0
C290 C 0.46504 0.88938 0.43683 0.0
C291 C 0.28757 0.88731 0.52695 0.0
C292 C 0.4602 0.84762 0.49668 0.0
C293 C 0.41266 0.83532 0.50556 0.0
C294 C 0.36398 0.83043 0.47143 0.0
C295 C 0.33331 0.8178 0.47358 0.0
C296 C 0.3514 0.8096 0.50965 0.0
C297 C 0.39365 0.81478 0.54596 0.0
C298 C 0.42431 0.82753 0.54388 0.0
C299 C 0.45508 0.8792 0.61036 0.0
O300 O 0.61077 0.89734 0.52124 0.0
O301 O 0.61309 0.87511 0.51409 0.0
O302 O 0.45817 0.92002 0.49229 0.0
O303 O 0.49429 0.91773 0.56194 0.0
O304 O 0.42481 0.89982 0.44935 0.0
O305 O 0.50868 0.88582 0.46881 0.0
O306 O 0.32763 0.87658 0.51354 0.0
O307 O 0.33021 0.89744 0.53981 0.0
O308 O 0.51057 0.8518 0.52701 0.0
O309 O 0.4196 0.85692 0.47741 0.0
O310 O 0.44466 0.86763 0.59594 0.0
O311 O 0.459 0.88661 0.5757 0.0
H312 H 0.52763 0.94014 0.59885 0.0
H313 H 0.55651 0.96291 0.59848 0.0
H314 H 0.54373 0.96394 0.45176 0.0
H315 H 0.50939 0.94105 0.45302 0.0
H316 H 0.35373 0.83614 0.44151 0.0
H317 H 0.29948 0.81422 0.44545 0.0
H318 H 0.40837 0.80875 0.57432 0.0
H319 H 0.4611 0.83102 0.571 0.0
H320 H 0.41522 0.40246 0.97624 0.0
H321 H 0.35247 0.36889 0.06155 0.0
H322 H 0.50421 0.36592 0.07209 0.0
H323 H 0.61538 0.38953 0.92086 0.0
H324 H 0.67511 0.4044 0.92044 0.0
H325 H 0.55938 0.40465 0.91886 0.0
H326 H 0.54476 0.41916 0.99074 0.0
H327 H 0.6605 0.41899 0.99239 0.0
H328 H 0.59128 0.41401 0.04183 0.0
H329 H 0.65721 0.36547 0.07352 0.0
H330 H 0.81371 0.36804 0.06728 0.0
H331 H 0.7922 0.40193 0.98211 0.0
C332 C 0.43377 0.39455 0.99723 0.0
C333 C 0.37095 0.38583 0.0175 0.0
C334 C 0.39826 0.37563 0.04485 0.0
C335 C 0.48487 0.37383 0.05138 0.0
C336 C 0.54488 0.38233 0.03067 0.0
C337 C 0.52172 0.39254 0.00426 0.0
C338 C 0.60244 0.39997 0.98598 0.0
C339 C 0.61372 0.39962 0.93341 0.0
C340 C 0.59953 0.41386 0.00381 0.0
C341 C 0.67311 0.39227 0.00653 0.0
C342 C 0.63712 0.38215 0.03199 0.0
C343 C 0.68663 0.3734 0.05393 0.0
C344 C 0.77596 0.37496 0.05003 0.0
C345 C 0.81596 0.38523 0.0244 0.0
C346 C 0.76359 0.39406 0.00234 0.0
H347 H 0.28325 0.65801 0.04127 0.0
H348 H 0.24099 0.61962 0.98959 0.0
H349 H 0.39623 0.61525 0.98657 0.0
H350 H 0.48842 0.66403 0.97412 0.0
H351 H 0.5377 0.6721 0.01958 0.0
H352 H 0.42213 0.67261 0.01756 0.0
H353 H 0.40077 0.66337 0.09972 0.0
H354 H 0.51629 0.66282 0.10204 0.0
H355 H 0.45249 0.64846 0.11249 0.0
H356 H 0.55184 0.61421 0.99163 0.0
H357 H 0.70652 0.61709 1.00013 0.0
H358 H 0.65853 0.6563 0.04609 0.0
C359 C 0.30724 0.64879 0.02871 0.0
C360 C 0.24965 0.63915 0.01571 0.0
C361 C 0.2834 0.62713 1.00012 0.0
C362 C 0.37172 0.62452 0.99819 0.0
C363 C 0.42656 0.63402 0.012 0.0
C364 C 0.39647 0.64594 0.02678 0.0
C365 C 0.47118 0.65421 0.04036 0.0
C366 C 0.48041 0.66647 0.01115 0.0
C367 C 0.45946 0.65741 0.0917 0.0
C368 C 0.54742 0.64514 0.02966 0.0
C369 C 0.51907 0.63349 0.0141 0.0
C370 C 0.57517 0.6233 0.00357 0.0
C371 C 0.66303 0.62502 0.0088 0.0
C372 C 0.69491 0.63689 0.02386 0.0
C373 C 0.63614 0.64714 0.03424 0.0
H374 H 0.78767 0.65458 0.4804 0.0
H375 H 0.81539 0.62248 0.5722 0.0
H376 H 0.65794 0.61896 0.57804 0.0
H377 H 0.58423 0.66701 0.53178 0.0
H378 H 0.53932 0.67033 0.47844 0.0
H379 H 0.65469 0.67072 0.48125 0.0
H380 H 0.67407 0.65413 0.41557 0.0
H381 H 0.55869 0.65366 0.41257 0.0
H382 H 0.61705 0.63904 0.42105 0.0
H383 H 0.50186 0.6182 0.57306 0.0
H384 H 0.34864 0.62079 0.56035 0.0
H385 H 0.4127 0.65363 0.47244 0.0
C386 C 0.75981 0.64702 0.50242 0.0
C387 C 0.81313 0.63894 0.52684 0.0
C388 C 0.77532 0.62884 0.55391 0.0
C389 C 0.68609 0.62674 0.55723 0.0
C390 C 0.63513 0.63472 0.5327 0.0
C391 C 0.6699 0.64465 0.50566 0.0
C392 C 0.59907 0.65137 0.48178 0.0
C393 C 0.59404 0.66571 0.49408 0.0
C394 C 0.61309 0.64944 0.42966 0.0
C395 C 0.51914 0.64409 0.50176 0.0
C396 C 0.54264 0.63433 0.53007 0.0
C397 C 0.48239 0.62585 0.55122 0.0
C398 C 0.39544 0.62739 0.54365 0.0
C399 C 0.3685 0.63746 0.51575 0.0
C400 C 0.43132 0.64597 0.4945 0.0
H401 H 0.65674 0.40209 0.5605 0.0
H402 H 0.72132 0.36936 0.47172 0.0
H403 H 0.56967 0.36643 0.46013 0.0
H404 H 0.45655 0.38853 0.61358 0.0
H405 H 0.3965 0.40336 0.61568 0.0
H406 H 0.51214 0.40366 0.61762 0.0
H407 H 0.52728 0.41888 0.54756 0.0
H408 H 0.41161 0.41867 0.54562 0.0
H409 H 0.48129 0.41422 0.49573 0.0
H410 H 0.41598 0.36588 0.4585 0.0
H411 H 0.25912 0.36838 0.46487 0.0
H412 H 0.28039 0.40154 0.55334 0.0
C413 C 0.63863 0.39438 0.5385 0.0
C414 C 0.70182 0.38586 0.51761 0.0
C415 C 0.6751 0.37591 0.48895 0.0
C416 C 0.58861 0.37415 0.48181 0.0
C417 C 0.52815 0.38243 0.50325 0.0
C418 C 0.55086 0.3924 0.53086 0.0
C419 C 0.46991 0.39963 0.5498 0.0
C420 C 0.4581 0.39874 0.60229 0.0
C421 C 0.47273 0.41369 0.53371 0.0
C422 C 0.39961 0.39211 0.52811 0.0
C423 C 0.43585 0.38222 0.50166 0.0
C424 C 0.38643 0.37364 0.4788 0.0
C425 C 0.29699 0.37515 0.48277 0.0
C426 C 0.25693 0.38522 0.5093 0.0
C427 C 0.30916 0.39387 0.53227 0.0
H428 H 0.89987 0.90566 0.01671 0.0
H429 H 0.85734 0.86443 0.00797 0.0
H430 H 1.01142 0.86064 0.01061 0.0
H431 H 0.10663 0.90623 0.94663 0.0
H432 H 0.1571 0.91789 0.98109 0.0
H433 H 0.04158 0.91806 0.9786 0.0
H434 H 1.01949 0.91632 0.0669 0.0
H435 H 0.13499 0.91616 0.06955 0.0
H436 H 0.06961 0.90332 0.0953 0.0
H437 H 0.16379 0.86046 0.01507 0.0
H438 H 0.31772 0.86396 0.01916 0.0
H439 H 0.27643 0.90531 0.02413 0.0
C440 C 0.92352 0.89588 0.0149 0.0
C441 C 0.86579 0.88534 0.01219 0.0
C442 C 0.89931 0.87268 0.01039 0.0
C443 C 0.98716 0.87038 0.0118 0.0
C444 C 0.04191 0.88081 0.01499 0.0
C445 C 1.01261 0.89333 0.01646 0.0
C446 C 0.08828 0.90256 0.0204 0.0
C447 C 0.09901 0.91173 0.97921 0.0
C448 C 0.07739 0.91004 0.06573 0.0
C449 C 0.16362 0.89316 0.01999 0.0
C450 C 0.1339 0.88071 0.01732 0.0
C451 C 0.18829 0.87016 0.01718 0.0
C452 C 0.27608 0.8723 0.01976 0.0
C453 C 0.30983 0.88493 0.02232 0.0
C454 C 0.25267 0.89556 0.02221 0.0
H455 H 0.17519 0.13047 0.96864 0.0
H456 H 0.19464 0.14973 0.09823 0.0
H457 H 1.03539 0.15162 0.10891 0.0
H458 H 0.99861 0.14993 0.93428 0.0
H459 H 0.94532 0.13697 0.90727 0.0
H460 H 0.0608 0.13663 0.90971 0.0
H461 H 0.04872 0.11442 0.94942 0.0
H462 H 0.93328 0.11466 0.94687 0.0
H463 H 0.97767 0.11246 1.00103 0.0
H464 H 0.87677 0.15224 0.1049 0.0
H465 H 0.72416 0.15084 0.08775 0.0
H466 H 0.80192 0.1309 0.96113 0.0
C467 C 0.14534 0.13499 0.99932 0.0
C468 C 0.19652 0.13995 0.0329 0.0
C469 C 0.15609 0.14589 0.07237 0.0
C470 C 0.06589 0.147 0.07863 0.0
C471 C 1.01691 0.14217 0.04493 0.0
C472 C 0.05474 0.13625 0.00601 0.0
C473 C 0.98619 0.13219 0.97479 0.0
C474 C 0.99849 0.13935 0.92879 0.0
C475 C 0.98652 0.11756 0.96763 0.0
C476 C 0.90423 0.13657 0.00273 0.0
C477 C 0.92405 0.14242 0.04281 0.0
C478 C 0.86035 0.14762 0.07379 0.0
C479 C 0.774 0.14681 0.06377 0.0
C480 C 0.75176 0.14071 0.02342 0.0
C481 C 0.81758 0.1355 0.99244 0.0
H482 H 0.29523 0.14181 0.45261 0.0
H483 H 0.30986 0.13909 0.59906 0.0
H484 H 0.15042 0.13743 0.61073 0.0
H485 H 0.10159 0.16189 0.4607 0.0
H486 H 0.05728 0.15462 0.41217 0.0
H487 H 0.17266 0.15519 0.41491 0.0
H488 H 0.18051 0.13052 0.40464 0.0
H489 H 0.06511 0.12985 0.4021 0.0
H490 H 0.11533 0.12031 0.4436 0.0
H491 H 0.99086 0.13578 0.60691 0.0
H492 H 0.83859 0.13575 0.58856 0.0
H493 H 0.92218 0.14054 0.44467 0.0
C494 C 0.26438 0.14087 0.48704 0.0
C495 C 0.31439 0.14053 0.52512 0.0
C496 C 0.27238 0.13942 0.56966 0.0
C497 C 0.182 0.13843 0.57652 0.0
C498 C 0.13419 0.1388 0.53848 0.0
C499 C 0.17354 0.14017 0.4946 0.0
C500 C 0.10607 0.14083 0.46002 0.0
C501 C 0.10963 0.15391 0.4355 0.0
C502 C 0.11746 0.12971 0.42556 0.0
C503 C 1.0229 0.13938 0.49126 0.0
C504 C 0.04114 0.13818 0.53636 0.0
C505 C 0.97581 0.13675 0.57177 0.0
C506 C 0.88958 0.13672 0.56105 0.0
C507 C 0.86888 0.13809 0.51535 0.0
C508 C 0.93645 0.13939 0.47989 0.0
H509 H 0.77996 0.86866 0.53927 0.0
H510 H 0.74428 0.90677 0.48326 0.0
H511 H 0.89984 0.91065 0.47984 0.0
H512 H 0.94988 0.87773 0.6092 0.0
H513 H 1.01256 0.86329 0.59924 0.0
H514 H 0.8971 0.86287 0.59665 0.0
H515 H 0.91828 0.85351 0.5147 0.0
H516 H 1.03384 0.85387 0.51701 0.0
H517 H 0.98573 0.86194 0.47123 0.0
H518 H 0.05509 0.91151 0.48644 0.0
H519 H 0.20899 0.90844 0.49729 0.0
H520 H 0.15495 0.86953 0.54503 0.0
C521 C 0.80533 0.87772 0.52569 0.0
C522 C 0.74916 0.88744 0.51188 0.0
C523 C 0.78513 0.89921 0.49468 0.0
C524 C 0.87383 0.90154 0.49244 0.0
C525 C 0.92709 0.892 0.50722 0.0
C526 C 0.89513 0.88026 0.52311 0.0
C527 C 0.96869 0.87188 0.53723 0.0
C528 C 0.95627 0.86876 0.58863 0.0
C529 C 0.97712 0.85957 0.50831 0.0
C530 C 0.04597 0.88076 0.52644 0.0
C531 C 1.01953 0.89236 0.50971 0.0
C532 C 0.07698 0.90243 0.49918 0.0
C533 C 0.16422 0.90062 0.50574 0.0
C534 C 0.19391 0.88877 0.52205 0.0
C535 C 0.13399 0.87866 0.53222 0.0
H536 H 0.08291 0.54081 0.96034 0.0
H537 H 1.00067 0.54695 0.10443 0.0
H538 H 0.98907 0.5238 0.11596 0.0
H539 H 0.93602 0.51473 0.94592 0.0
H540 H 1.00938 0.50549 0.90787 0.0
H541 H 1.01889 0.52274 0.90941 0.0
H542 H 0.17841 0.521 0.92721 0.0
H543 H 0.17029 0.50375 0.92439 0.0
H544 H 0.20562 0.5113 0.97479 0.0
H545 H 0.97068 0.50055 0.11234 0.0
H546 H 0.9674 0.47753 0.09595 0.0
H547 H 0.06766 0.48513 0.95521 0.0
C548 C 0.06252 0.53731 0.99435 0.0
C549 C 0.04368 0.54595 0.03151 0.0
C550 C 1.01791 0.54078 0.0754 0.0
C551 C 1.00981 0.52754 0.08236 0.0
C552 C 1.02674 0.51942 0.04515 0.0
C553 C 0.05364 0.52399 0.00206 0.0
C554 C 0.06654 0.5129 0.96822 0.0
C555 C 1.00398 0.51403 0.93063 0.0
C556 C 0.16085 0.5122 0.94746 0.0
C557 C 0.04332 0.50147 0.99952 0.0
C558 C 1.01926 0.5056 0.04346 0.0
C559 C 0.99144 0.49712 0.07832 0.0
C560 C 0.99068 0.48397 0.06864 0.0
C561 C 1.01996 0.47922 0.02464 0.0
C562 C 0.04501 0.48825 0.98935 0.0
H563 H 1.00814 0.48539 0.57954 0.0
H564 H 0.11706 0.47781 0.44033 0.0
H565 H 0.11771 0.50085 0.42413 0.0
H566 H 0.87494 0.51154 0.55808 0.0
H567 H 0.89938 0.52125 0.60615 0.0
H568 H 0.90756 0.50402 0.60916 0.0
H569 H 0.06656 0.50579 0.62808 0.0
H570 H 0.05805 0.52306 0.62634 0.0
H571 H 0.14224 0.51501 0.59104 0.0
H572 H 0.09757 0.52398 0.41949 0.0
H573 H 0.07853 0.54716 0.42956 0.0
H574 H 0.99427 0.54133 0.57336 0.0
C575 C 1.03364 0.48854 0.54586 0.0
C576 C 0.05972 0.47952 0.51076 0.0
C577 C 0.09288 0.48427 0.46737 0.0
C578 C 0.09448 0.49743 0.45783 0.0
C579 C 0.06543 0.50592 0.49234 0.0
C580 C 0.038 0.5018 0.53591 0.0
C581 C 1.01322 0.51328 0.56673 0.0
C582 C 0.9181 0.51247 0.58615 0.0
C583 C 0.07362 0.51434 0.60534 0.0
C584 C 1.02819 0.52435 0.53287 0.0
C585 C 0.05805 0.51973 0.49027 0.0
C586 C 0.07502 0.52777 0.45275 0.0
C587 C 0.06294 0.54096 0.4588 0.0
C588 C 1.03389 0.54616 0.5021 0.0
C589 C 1.01653 0.53769 0.53982 0.0
H590 H 0.50302 0.98539 0.07615 0.0
H591 H 0.55776 0.97885 0.92993 0.0
H592 H 0.57378 1.00194 0.91756 0.0
H593 H 0.38383 0.01484 0.07023 0.0
H594 H 0.43187 0.02246 0.11702 0.0
H595 H 0.42293 1.00522 0.11516 0.0
H596 H 0.5875 1.00342 0.12132 0.0
H597 H 0.59717 0.02068 0.12216 0.0
H598 H 0.66144 1.01144 0.07982 0.0
H599 H 0.59744 0.02509 0.91982 0.0
H600 H 0.60301 0.04809 0.93462 0.0
H601 H 0.52132 0.04112 0.07843 0.0
C602 C 0.51838 0.98879 0.04151 0.0
C603 C 0.5275 0.98008 0.004 0.0
C604 C 0.54756 0.98511 0.95933 0.0
C605 C 0.55832 0.99829 0.95185 0.0
C606 C 0.55007 1.0065 0.98929 0.0
C607 C 0.52979 1.00206 0.03325 0.0
C608 C 0.52492 1.01323 0.06701 0.0
C609 C 0.43551 0.01398 0.09391 0.0
C610 C 0.59701 1.01213 0.09951 0.0
C611 C 0.5413 0.0246 0.0345 0.0
C612 C 0.5587 0.02031 0.99019 0.0
C613 C 0.5813 0.02865 0.95415 0.0
C614 C 0.58297 0.04183 0.96301 0.0
C615 C 0.55826 0.0468 0.00732 0.0
C616 C 0.5395 0.0379 0.04389 0.0
H617 H 0.47783 0.04021 0.46208 0.0
H618 H 0.61311 0.04886 0.58184 0.0
H619 H 0.63479 0.02588 0.59446 0.0
H620 H 0.3685 1.0115 0.509 0.0
H621 H 0.37947 1.00273 0.45586 0.0
H622 H 0.37383 0.02001 0.45527 0.0
H623 H 0.51814 0.02075 0.40408 0.0
H624 H 0.5253 1.00348 0.4053 0.0
H625 H 0.61255 1.01313 0.42329 0.0
H626 H 0.65144 1.00269 0.59281 0.0
H627 H 0.64628 0.97941 0.58309 0.0
H628 H 0.48942 0.98438 0.46856 0.0
C629 C 0.51214 0.03722 0.49082 0.0
C630 C 0.54319 0.0464 0.52121 0.0
C631 C 0.58741 0.04208 0.55853 0.0
C632 C 0.60086 0.02902 0.56582 0.0
C633 C 0.57004 0.02027 0.53548 0.0
C634 C 0.52567 0.02406 0.49901 0.0
C635 C 0.49804 1.01235 0.47269 0.0
C636 C 0.39907 1.01161 0.47327 0.0
C637 C 0.54108 1.01243 0.42342 0.0
C638 C 0.53343 1.00152 0.50061 0.0
C639 C 0.57594 1.00645 0.53602 0.0
C640 C 0.61684 0.99864 0.56579 0.0
C641 C 0.61256 0.98534 0.56019 0.0
C642 C 0.56507 0.9798 0.52601 0.0
C643 C 0.52632 0.98813 0.49518 0.0
H644 H 0.29176 0.29181 0.07205 0.0
H645 H 0.1751 0.2954 0.94318 0.0
H646 H 0.19357 0.27237 0.93014 0.0
H647 H 0.44866 0.26754 0.03719 0.0
H648 H 0.4349 0.25861 0.09003 0.0
H649 H 0.41428 0.27563 0.09001 0.0
H650 H 0.26054 0.27154 0.12871 0.0
H651 H 0.2804 0.25448 0.1283 0.0
H652 H 0.18887 0.26082 0.10208 0.0
H653 H 0.2124 0.2491 0.93214 0.0
H654 H 0.24625 0.22673 0.94417 0.0
H655 H 0.36348 0.23711 0.06881 0.0
C656 C 0.26988 0.28779 0.04109 0.0
C657 C 0.23325 0.29574 0.00829 0.0
C658 C 0.20589 0.28987 0.96836 0.0
C659 C 0.21485 0.27665 0.96081 0.0
C660 C 0.25036 0.26919 0.99363 0.0
C661 C 0.27795 0.27445 0.03294 0.0
C662 C 0.31366 0.26397 0.06239 0.0
C663 C 0.40855 0.2666 0.07033 0.0
C664 C 0.25754 0.26263 0.10808 0.0
C665 C 0.3045 0.25216 0.03231 0.0
C666 C 0.26561 0.25548 0.99359 0.0
C667 C 0.24511 0.24639 0.96173 0.0
C668 C 0.26655 0.23354 0.96874 0.0
C669 C 0.31228 0.2297 0.0064 0.0
C670 C 0.32972 0.23932 0.03917 0.0
H671 H 0.73391 0.78993 0.95796 0.0
H672 H 0.78028 0.79879 0.09949 0.0
H673 H 0.81492 0.77667 0.11141 0.0
H674 H 0.63404 0.75915 0.98357 0.0
H675 H 0.68209 0.75138 0.93266 0.0
H676 H 0.66098 0.7684 0.93231 0.0
H677 H 0.82143 0.77292 0.90587 0.0
H678 H 0.84259 0.75591 0.90547 0.0
H679 H 0.90473 0.76652 0.93842 0.0
H680 H 0.82807 0.7534 0.11376 0.0
H681 H 0.84655 0.73062 0.10205 0.0
H682 H 0.81142 0.73572 0.95709 0.0
C683 C 0.75089 0.78752 0.99175 0.0
C684 C 0.75229 0.7969 0.02747 0.0
C685 C 0.77717 0.79255 0.07049 0.0
C686 C 0.797 0.77969 0.07825 0.0
C687 C 0.79229 0.77092 0.04306 0.0
C688 C 0.77136 0.77458 1.00037 0.0
C689 C 0.77272 0.76292 0.96865 0.0
C690 C 0.68208 0.76031 0.9534 0.0
C691 C 0.83939 0.76468 0.92716 0.0
C692 C 0.79949 0.75231 1.00048 0.0
C693 C 0.80784 0.75723 0.04339 0.0
C694 C 0.82503 0.74945 0.07983 0.0
C695 C 0.83703 0.7363 0.07225 0.0
C696 C 0.83616 0.73082 0.02781 0.0
C697 C 0.81489 0.73914 0.99159 0.0
H698 H 0.20991 0.73651 0.57818 0.0
H699 H 0.31775 0.72661 0.44077 0.0
H700 H 0.35644 0.74908 0.42636 0.0
H701 H 0.12509 0.76709 0.55469 0.0
H702 H 0.1588 0.7752 0.60439 0.0
H703 H 0.13865 0.75815 0.60623 0.0
H704 H 0.29254 0.75406 0.63003 0.0
H705 H 0.31259 0.77113 0.62903 0.0
H706 H 0.38447 0.76049 0.59553 0.0
H707 H 0.37401 0.77221 0.42267 0.0
H708 H 0.3902 0.79537 0.43352 0.0
H709 H 0.28499 0.79163 0.5752 0.0
C710 C 0.24297 0.73902 0.54535 0.0
C711 C 0.25759 0.72967 0.51003 0.0
C712 C 0.3019 0.7335 0.46782 0.0
C713 C 0.32513 0.74629 0.4593 0.0
C714 C 0.3068 0.75526 0.49378 0.0
C715 C 0.26909 0.75187 0.53646 0.0
C716 C 0.26011 0.76368 0.56742 0.0
C717 C 0.16498 0.76618 0.58415 0.0
C718 C 0.31574 0.76225 0.60791 0.0
C719 C 0.29594 0.77419 0.53462 0.0
C720 C 0.32194 0.76896 0.4924 0.0
C721 C 0.35481 0.77645 0.45567 0.0
C722 C 0.3629 0.78966 0.46213 0.0
C723 C 0.3382 0.79544 0.50503 0.0
C724 C 0.3046 0.78752 0.542 0.0
H725 H 0.70769 0.29372 0.53151 0.0
H726 H 0.98109 0.29315 0.48663 0.0
H727 H 0.97762 0.26942 0.48325 0.0
H728 H 0.70409 0.26549 0.60242 0.0
H729 H 0.60185 0.25954 0.5866 0.0
H730 H 0.62396 0.27654 0.58502 0.0
H731 H 0.59207 0.27742 0.50002 0.0
H732 H 0.56899 0.26045 0.50141 0.0
H733 H 0.64937 0.26683 0.4593 0.0
H734 H 0.94716 0.24585 0.48744 0.0
H735 H 0.8886 0.22371 0.49427 0.0
H736 H 0.63345 0.23893 0.53381 0.0
C737 C 0.76644 0.28853 0.52083 0.0
C738 C 0.84499 0.29521 0.50939 0.0
C739 C 0.9206 0.28817 0.49552 0.0
C740 C 0.91919 0.27471 0.49358 0.0
C741 C 0.84138 0.26835 0.50541 0.0
C742 C 0.76601 0.27499 0.51834 0.0
C743 C 0.69105 0.26567 0.52863 0.0
C744 C 0.65302 0.26688 0.57864 0.0
C745 C 0.62124 0.26772 0.49535 0.0
C746 C 0.73648 0.25283 0.52005 0.0
C747 C 0.82327 0.25465 0.5068 0.0
C748 C 0.87921 0.24431 0.49753 0.0
C749 C 0.84562 0.23178 0.50152 0.0
C750 C 0.75689 0.22967 0.51432 0.0
C751 C 0.70161 0.24034 0.52376 0.0
H752 H 0.04703 0.4074 0.17017 0.0
H753 H 0.0836 0.36702 0.13939 0.0
H754 H 0.061 0.36189 0.22242 0.0
H755 H 0.14868 0.40882 0.27221 0.0
H756 H 0.07106 0.41964 0.30074 0.0
H757 H 0.08949 0.41982 0.23931 0.0
H758 H 0.92612 0.41584 0.23239 0.0
H759 H 0.907 0.4158 0.29385 0.0
H760 H 0.87373 0.40227 0.26134 0.0
H761 H 0.04669 0.36198 0.31288 0.0
H762 H 1.02146 0.36687 0.39612 0.0
H763 H 0.98029 0.40687 0.36369 0.0
C764 C 0.05004 0.39746 0.18085 0.0
C765 C 0.06855 0.38763 0.14837 0.0
C766 C 0.07013 0.37472 0.16369 0.0
C767 C 0.05757 0.37174 0.21088 0.0
C768 C 0.04114 0.38176 0.24225 0.0
C769 C 1.03515 0.39432 0.22739 0.0
C770 C 1.01342 0.40338 0.26702 0.0
C771 C 0.08493 0.41351 0.26998 0.0
C772 C 0.92481 0.4097 0.26342 0.0
C773 C 1.01047 0.39413 0.30689 0.0
C774 C 1.02733 0.38167 0.29242 0.0
C775 C 1.03202 0.37169 0.32418 0.0
C776 C 1.01792 0.37454 0.37145 0.0
C777 C 0.9977 0.38722 0.38649 0.0
C778 C 0.99424 0.39704 0.35345 0.0
H779 H 0.95548 0.62652 0.17446 0.0
H780 H 0.07365 0.66377 0.14295 0.0
H781 H 0.12822 0.66446 0.21786 0.0
H782 H 0.88499 0.63134 0.28843 0.0
H783 H 0.9184 0.61629 0.31166 0.0
H784 H 0.89683 0.61726 0.25254 0.0
H785 H 0.04965 0.60845 0.22861 0.0
H786 H 0.07193 0.60761 0.28787 0.0
H787 H 0.1427 0.61655 0.24745 0.0
H788 H 0.15735 0.66328 0.2964 0.0
H789 H 0.15569 0.66018 0.37939 0.0
H790 H 1.02234 0.62383 0.36832 0.0
C791 C 0.99478 0.63461 0.18309 0.0
C792 C 1.00932 0.64517 0.15228 0.0
C793 C 0.06039 0.65561 0.16546 0.0
C794 C 0.09268 0.65609 0.20815 0.0
C795 C 0.07568 0.64593 0.23812 0.0
C796 C 1.0291 0.63525 0.22658 0.0
C797 C 1.0192 0.62606 0.26763 0.0
C798 C 0.92413 0.62255 0.28084 0.0
C799 C 0.07404 0.61394 0.25727 0.0
C800 C 0.05757 0.6341 0.30473 0.0
C801 C 0.09352 0.64521 0.28565 0.0
C802 C 0.13106 0.6545 0.31175 0.0
C803 C 0.13016 0.65264 0.35894 0.0
C804 C 0.09057 0.6417 0.38028 0.0
C805 C 0.05505 0.63213 0.3527 0.0
H806 H 0.94254 0.65454 0.86233 0.0
H807 H 0.07845 0.62013 0.89809 0.0
H808 H 0.13723 0.61765 0.81795 0.0
H809 H 0.8756 0.64481 0.75955 0.0
H810 H 0.8972 0.65945 0.72753 0.0
H811 H 0.87703 0.66004 0.7888 0.0
H812 H 1.02248 0.67179 0.7943 0.0
H813 H 0.04322 0.67123 0.73282 0.0
H814 H 0.12078 0.66469 0.7686 0.0
H815 H 0.17087 0.61736 0.73604 0.0
H816 H 0.16751 0.61772 0.65306 0.0
H817 H 1.00638 0.65185 0.66319 0.0
C818 C 0.98612 0.64667 0.85309 0.0
C819 C 1.00631 0.6375 0.88634 0.0
C820 C 0.06267 0.62725 0.87321 0.0
C821 C 0.09682 0.62582 0.82779 0.0
C822 C 0.07513 0.63482 0.7956 0.0
C823 C 1.02156 0.64511 0.80727 0.0
C824 C 1.00509 0.65277 0.76439 0.0
C825 C 0.90791 0.65434 0.7598 0.0
C826 C 0.05053 0.6659 0.76507 0.0
C827 C 0.04905 0.64426 0.72671 0.0
C828 C 0.09277 0.63441 0.74634 0.0
C829 C 0.13743 0.62506 0.72021 0.0
C830 C 0.13482 0.62535 0.67287 0.0
C831 C 0.08635 0.63473 0.65133 0.0
C832 C 0.04486 0.64464 0.6785 0.0
H833 H 0.96627 0.36773 0.67869 0.0
H834 H 1.03228 0.40677 0.63894 0.0
H835 H 0.06641 0.41153 0.71849 0.0
H836 H 0.86739 0.37515 0.79385 0.0
H837 H 0.90822 0.36052 0.81669 0.0
H838 H 0.88362 0.36116 0.75792 0.0
H839 H 0.04007 0.35366 0.73257 0.0
H840 H 0.06594 0.35336 0.7911 0.0
H841 H 0.13021 0.36289 0.74951 0.0
H842 H 0.10529 0.41078 0.80569 0.0
H843 H 0.12716 0.40517 0.88674 0.0
H844 H 1.03232 0.36676 0.8638 0.0
C845 C 0.9855 0.37741 0.687 0.0
C846 C 0.99493 0.38694 0.65288 0.0
C847 C 1.02226 0.3994 0.66483 0.0
C848 C 0.04281 0.40212 0.70992 0.0
C849 C 1.03497 0.39229 0.74267 0.0
C850 C 1.00523 0.38025 0.73145 0.0
C851 C 1.00318 0.37111 0.77138 0.0
C852 C 0.91008 0.36673 0.78581 0.0
C853 C 0.06343 0.35958 0.76046 0.0
C854 C 0.03725 0.3797 0.80706 0.0
C855 C 0.05599 0.39191 0.79056 0.0
C856 C 0.08991 0.40123 0.81864 0.0
C857 C 0.10278 0.39797 0.86456 0.0
C858 C 0.08133 0.38552 0.88177 0.0
C859 C 0.0491 0.37639 0.85208 0.0
H860 H 0.58663 0.90604 0.17363 0.0
H861 H 0.54533 0.86608 0.14044 0.0
H862 H 0.51408 0.86117 0.2233 0.0
H863 H 0.68542 0.90156 0.2777 0.0
H864 H 0.63127 0.91504 0.30611 0.0
H865 H 0.65319 0.91508 0.2448 0.0
H866 H 0.4906 0.91871 0.23545 0.0
H867 H 0.46825 0.91882 0.29672 0.0
H868 H 0.41169 0.90778 0.26258 0.0
H869 H 0.49549 0.86085 0.31245 0.0
H870 H 0.47025 0.86558 0.39555 0.0
H871 H 0.50962 0.9061 0.36734 0.0
C872 C 0.57152 0.89622 0.18375 0.0
C873 C 0.56992 0.88637 0.15072 0.0
C874 C 0.54766 0.87373 0.16529 0.0
C875 C 0.5301 0.87088 0.21227 0.0
C876 C 0.53321 0.88084 0.2441 0.0
C877 C 0.55168 0.89331 0.23011 0.0
C878 C 0.54628 0.90249 0.27028 0.0
C879 C 0.63427 0.90892 0.27499 0.0
C880 C 0.47496 0.91254 0.26599 0.0
C881 C 0.52255 0.8933 0.3094 0.0
C882 C 0.51672 0.8808 0.29397 0.0
C883 C 0.49879 0.87064 0.32459 0.0
C884 C 0.48481 0.87339 0.37179 0.0
C885 C 0.4867 0.8862 0.38779 0.0
C886 C 0.50647 0.89621 0.35602 0.0
H887 H 0.5242 0.15939 0.17099 0.0
H888 H 0.46053 0.11957 0.14724 0.0
H889 H 0.48207 0.11457 0.22873 0.0
H890 H 0.68974 0.15409 0.24253 0.0
H891 H 0.66199 0.16772 0.27873 0.0
H892 H 0.63839 0.16791 0.21978 0.0
H893 H 0.47594 0.17226 0.24387 0.0
H894 H 0.4996 0.17254 0.30278 0.0
H895 H 0.41811 0.16177 0.28488 0.0
H896 H 0.52086 0.1145 0.31542 0.0
H897 H 0.55104 0.11982 0.39532 0.0
H898 H 0.58342 0.15981 0.35722 0.0
C899 C 0.51389 0.1496 0.18282 0.0
C900 C 0.49099 0.13986 0.15281 0.0
C901 C 0.47761 0.1272 0.16983 0.0
C902 C 0.49044 0.12429 0.21594 0.0
C903 C 0.51565 0.13419 0.24436 0.0
C904 C 0.52542 0.14663 0.22815 0.0
C905 C 0.55134 0.15578 0.26433 0.0
C906 C 0.64065 0.16172 0.25051 0.0
C907 C 0.48212 0.1662 0.27456 0.0
C908 C 0.55481 0.14669 0.30405 0.0
C909 C 0.53534 0.13421 0.29234 0.0
C910 C 0.53573 0.12428 0.32456 0.0
C911 C 0.55377 0.12734 0.36974 0.0
C912 C 0.56989 0.14022 0.38216 0.0
C913 C 0.57146 0.14988 0.3486 0.0
H914 H 0.48409 0.15538 0.86504 0.0
H915 H 0.54114 0.11545 0.89259 0.0
H916 H 0.57889 0.11174 0.81077 0.0
H917 H 0.3895 0.15086 0.76101 0.0
H918 H 0.43883 0.1644 0.73043 0.0
H919 H 0.42177 0.16477 0.79196 0.0
H920 H 0.58415 0.16927 0.79746 0.0
H921 H 0.60157 0.16912 0.73587 0.0
H922 H 0.66349 0.15864 0.7693 0.0
H923 H 0.59522 0.11117 0.72874 0.0
H924 H 0.61322 0.11431 0.64615 0.0
H925 H 0.55445 0.15493 0.66395 0.0
C926 C 0.50634 0.14597 0.85363 0.0
C927 C 0.50907 0.13563 0.88521 0.0
C928 C 0.538 0.12344 0.86911 0.0
C929 C 0.55949 0.12123 0.82262 0.0
C930 C 0.55308 0.13135 0.79218 0.0
C931 C 0.52945 0.14358 0.80655 0.0
C932 C 0.52922 0.15255 0.76513 0.0
C933 C 0.43945 0.15849 0.76196 0.0
C934 C 0.59873 0.16302 0.76706 0.0
C935 C 0.55259 0.14322 0.72563 0.0
C936 C 0.56607 0.13111 0.74286 0.0
C937 C 0.5866 0.12065 0.71471 0.0
C938 C 0.5967 0.12257 0.66757 0.0
C939 C 0.58668 0.13489 0.64815 0.0
C940 C 0.5627 0.14539 0.67766 0.0
H941 H 0.44584 0.89988 0.67586 0.0
H942 H 0.55495 0.86199 0.64629 0.0
H943 H 0.61009 0.8613 0.72091 0.0
H944 H 0.63234 0.9098 0.74657 0.0
H945 H 0.56332 0.91882 0.78744 0.0
H946 H 0.53808 0.91776 0.7287 0.0
H947 H 0.38615 0.90887 0.75501 0.0
H948 H 0.41058 0.91009 0.81366 0.0
H949 H 0.37632 0.89492 0.79167 0.0
H950 H 0.64607 0.86299 0.79829 0.0
H951 H 0.651 0.86671 0.88065 0.0
H952 H 0.51972 0.90312 0.86867 0.0
C953 C 0.48315 0.89163 0.68486 0.0
C954 C 0.49541 0.88096 0.65452 0.0
C955 C 0.54365 0.87029 0.6683 0.0
C956 C 0.5763 0.86978 0.71086 0.0
C957 C 0.56232 0.88013 0.74016 0.0
C958 C 0.51743 0.89093 0.72831 0.0
C959 C 0.50971 0.90027 0.76885 0.0
C960 C 0.56402 0.91239 0.75719 0.0
C961 C 0.415 0.90373 0.78313 0.0
C962 C 0.54974 0.89238 0.80572 0.0
C963 C 0.58294 0.88107 0.78715 0.0
C964 C 0.62178 0.87192 0.81323 0.0
C965 C 0.62492 0.87415 0.86002 0.0
C966 C 0.58789 0.8853 0.88091 0.0
C967 C 0.55091 0.89469 0.85327 0.0
loop_
_geom_bond_atom_site_label_1
_geom_bond_atom_site_label_2
_geom_bond_distance
_geom_bond_site_symmetry_2
_ccdc_geom_bond_type
Ho0 C3 2.811 1_455 S
Ho0 O20 2.322 1_455 S
Ho0 O22 2.378 . S
Ho0 O23 2.524 1_554 S
Ho0 O24 2.381 . S
Ho0 O25 2.669 . S
Ho0 O27 2.346 . S
Ho0 O31 2.305 1_554 S
Ho1 C12 2.811 . S
Ho1 O21 2.346 1_455 S
Ho1 O25 2.305 . S
Ho1 O26 2.322 1_554 S
Ho1 O28 2.378 1_554 S
Ho1 O29 2.524 . S
Ho1 O30 2.381 1_554 S
Ho1 O31 2.669 1_554 S
C2 O20 1.259 . S
C2 O21 1.268 . S
C3 Ho0 2.811 1_655 S
C3 C4 1.488 . S
C3 O22 1.215 1_655 S
C3 O23 1.289 1_654 S
C4 C3 1.488 . S
C4 C5 1.348 1_554 S
C4 C9 1.413 . S
C5 C4 1.348 1_556 S
C5 C6 1.442 . S
C5 H32 0.930 . S
C6 C5 1.442 . S
C6 C7 1.381 1_556 S
C6 H33 0.931 . S
C7 C6 1.381 1_554 S
C7 C8 1.321 . S
C8 C7 1.321 . S
C8 C9 1.403 . S
C8 H34 0.934 . S
C9 C4 1.413 . S
C9 C8 1.403 . S
C9 H35 0.930 . S
C10 O24 1.275 . S
C10 O25 1.256 . S
C11 O26 1.259 1_554 S
C11 O27 1.268 . S
C12 Ho1 2.811 . S
C12 C13 1.488 . S
C12 O28 1.215 1_554 S
C12 O29 1.289 . S
C13 C12 1.488 . S
C13 C14 1.348 . S
C13 C18 1.413 1_554 S
C14 C13 1.348 . S
C14 C15 1.442 . S
C14 H36 0.930 . S
C15 C14 1.442 . S
C15 C16 1.381 . S
C15 H37 0.931 . S
C16 C15 1.381 . S
C16 C17 1.321 1_554 S
C17 C16 1.321 1_556 S
C17 C18 1.403 . S
C17 H38 0.934 . S
C18 C13 1.413 1_556 S
C18 C17 1.403 . S
C18 H39 0.930 . S
C19 O30 1.275 . S
C19 O31 1.256 . S
O20 Ho0 2.322 1_655 S
O20 C2 1.259 . S
O21 Ho1 2.346 1_655 S
O21 C2 1.268 . S
O22 Ho0 2.378 . S
O22 C3 1.215 1_455 S
O23 Ho0 2.524 1_556 S
O23 C3 1.289 1_456 S
O24 Ho0 2.381 . S
O24 C10 1.275 . S
O25 Ho0 2.669 . S
O25 Ho1 2.305 . S
O25 C10 1.256 . S
O26 Ho1 2.322 1_556 S
O26 C11 1.259 1_556 S
O27 Ho0 2.346 . S
O27 C11 1.268 . S
O28 Ho1 2.378 1_556 S
O28 C12 1.215 1_556 S
O29 Ho1 2.524 . S
O29 C12 1.289 . S
O30 Ho1 2.381 1_556 S
O30 C19 1.275 . S
O31 Ho0 2.305 1_556 S
O31 Ho1 2.669 1_556 S
O31 C19 1.256 . S
H32 C5 0.930 . S
H33 C6 0.931 . S
H34 C8 0.934 . S
H35 C9 0.930 . S
H36 C14 0.930 . S
H37 C15 0.931 . S
H38 C17 0.934 . S
H39 C18 0.930 . S
Ho40 C43 2.811 . S
Ho40 O60 2.322 . S
Ho40 O62 2.378 . S
Ho40 O63 2.524 1_554 S
Ho40 O64 2.381 . S
Ho40 O65 2.669 . S
Ho40 O67 2.346 1_655 S
Ho40 O71 2.305 1_554 S
Ho41 C52 2.811 1_655 S
Ho41 O61 2.346 . S
Ho41 O65 2.305 . S
Ho41 O66 2.322 1_654 S
Ho41 O68 2.378 1_554 S
Ho41 O69 2.524 . S
Ho41 O70 2.381 1_554 S
Ho41 O71 2.669 1_554 S
C42 O60 1.259 . S
C42 O61 1.268 . S
C43 Ho40 2.811 . S
C43 C44 1.488 . S
C43 O62 1.215 . S
C43 O63 1.289 1_554 S
C44 C43 1.488 . S
C44 C45 1.348 1_554 S
C44 C49 1.413 . S
C45 C44 1.348 1_556 S
C45 C46 1.442 . S
C45 H72 0.930 . S
C46 C45 1.442 . S
C46 C47 1.381 1_556 S
C46 H73 0.931 . S
C47 C46 1.381 1_554 S
C47 C48 1.321 . S
C48 C47 1.321 . S
C48 C49 1.403 . S
C48 H74 0.934 . S
C49 C44 1.413 . S
C49 C48 1.403 . S
C49 H75 0.930 . S
C50 O64 1.275 . S
C50 O65 1.256 . S
C51 O66 1.259 1_554 S
C51 O67 1.268 . S
C52 Ho41 2.811 1_455 S
C52 C53 1.488 . S
C52 O68 1.215 1_454 S
C52 O69 1.289 1_455 S
C53 C52 1.488 . S
C53 C54 1.348 . S
C53 C58 1.413 1_554 S
C54 C53 1.348 . S
C54 C55 1.442 . S
C54 H76 0.930 . S
C55 C54 1.442 . S
C55 C56 1.381 . S
C55 H77 0.931 . S
C56 C55 1.381 . S
C56 C57 1.321 1_554 S
C57 C56 1.321 1_556 S
C57 C58 1.403 . S
C57 H78 0.934 . S
C58 C53 1.413 1_556 S
C58 C57 1.403 . S
C58 H79 0.930 . S
C59 O70 1.275 . S
C59 O71 1.256 . S
O60 Ho40 2.322 . S
O60 C42 1.259 . S
O61 Ho41 2.346 . S
O61 C42 1.268 . S
O62 Ho40 2.378 . S
O62 C43 1.215 . S
O63 Ho40 2.524 1_556 S
O63 C43 1.289 1_556 S
O64 Ho40 2.381 . S
O64 C50 1.275 . S
O65 Ho40 2.669 . S
O65 Ho41 2.305 . S
O65 C50 1.256 . S
O66 Ho41 2.322 1_456 S
O66 C51 1.259 1_556 S
O67 Ho40 2.346 1_455 S
O67 C51 1.268 . S
O68 Ho41 2.378 1_556 S
O68 C52 1.215 1_656 S
O69 Ho41 2.524 . S
O69 C52 1.289 1_655 S
O70 Ho41 2.381 1_556 S
O70 C59 1.275 . S
O71 Ho40 2.305 1_556 S
O71 Ho41 2.669 1_556 S
O71 C59 1.256 . S
H72 C45 0.930 . S
H73 C46 0.931 . S
H74 C48 0.934 . S
H75 C49 0.930 . S
H76 C54 0.930 . S
H77 C55 0.931 . S
H78 C57 0.934 . S
H79 C58 0.930 . S
Ho80 C83 2.811 . S
Ho80 O100 2.322 . S
Ho80 O102 2.378 . S
Ho80 O103 2.524 . S
Ho80 O104 2.381 . S
Ho80 O105 2.669 . S
Ho80 O107 2.346 1_455 S
Ho80 O111 2.305 . S
Ho81 C92 2.811 1_455 S
Ho81 O101 2.346 . S
Ho81 O105 2.305 . S
Ho81 O106 2.322 1_455 S
Ho81 O108 2.378 . S
Ho81 O109 2.524 . S
Ho81 O110 2.381 . S
Ho81 O111 2.669 . S
C82 O100 1.259 . S
C82 O101 1.268 . S
C83 Ho80 2.811 . S
C83 C84 1.488 . S
C83 O102 1.215 . S
C83 O103 1.289 . S
C84 C83 1.488 . S
C84 C85 1.348 . S
C84 C89 1.413 . S
C85 C84 1.348 . S
C85 C86 1.442 . S
C85 H112 0.930 . S
C86 C85 1.442 . S
C86 C87 1.381 . S
C86 H113 0.931 . S
C87 C86 1.381 . S
C87 C88 1.321 . S
C88 C87 1.321 . S
C88 C89 1.403 . S
C88 H114 0.934 . S
C89 C84 1.413 . S
C89 C88 1.403 . S
C89 H115 0.930 . S
C90 O104 1.275 . S
C90 O105 1.256 . S
C91 O106 1.259 . S
C91 O107 1.268 . S
C92 Ho81 2.811 1_655 S
C92 C93 1.488 . S
C92 O108 1.215 1_655 S
C92 O109 1.289 1_655 S
C93 C92 1.488 . S
C93 C94 1.348 . S
C93 C98 1.413 . S
C94 C93 1.348 . S
C94 C95 1.442 . S
C94 H116 0.930 . S
C95 C94 1.442 . S
C95 C96 1.381 . S
C95 H117 0.931 . S
C96 C95 1.381 . S
C96 C97 1.321 . S
C97 C96 1.321 . S
C97 C98 1.403 . S
C97 H118 0.934 . S
C98 C93 1.413 . S
C98 C97 1.403 . S
C98 H119 0.930 . S
C99 O110 1.275 . S
C99 O111 1.256 . S
O100 Ho80 2.322 . S
O100 C82 1.259 . S
O101 Ho81 2.346 . S
O101 C82 1.268 . S
O102 Ho80 2.378 . S
O102 C83 1.215 . S
O103 Ho80 2.524 . S
O103 C83 1.289 . S
O104 Ho80 2.381 . S
O104 C90 1.275 . S
O105 Ho80 2.669 . S
O105 Ho81 2.305 . S
O105 C90 1.256 . S
O106 Ho81 2.322 1_655 S
O106 C91 1.259 . S
O107 Ho80 2.346 1_655 S
O107 C91 1.268 . S
O108 Ho81 2.378 . S
O108 C92 1.215 1_455 S
O109 Ho81 2.524 . S
O109 C92 1.289 1_455 S
O110 Ho81 2.381 . S
O110 C99 1.275 . S
O111 Ho80 2.305 . S
O111 Ho81 2.669 . S
O111 C99 1.256 . S
H112 C85 0.930 . S
H113 C86 0.931 . S
H114 C88 0.934 . S
H115 C89 0.930 . S
H116 C94 0.930 . S
H117 C95 0.931 . S
H118 C97 0.934 . S
H119 C98 0.930 . S
Ho120 C123 2.811 1_655 S
Ho120 O140 2.322 1_655 S
Ho120 O142 2.378 . S
Ho120 O143 2.524 . S
Ho120 O144 2.381 . S
Ho120 O145 2.669 . S
Ho120 O147 2.346 . S
Ho120 O151 2.305 . S
Ho121 C132 2.811 . S
Ho121 O141 2.346 1_655 S
Ho121 O145 2.305 . S
Ho121 O146 2.322 . S
Ho121 O148 2.378 . S
Ho121 O149 2.524 . S
Ho121 O150 2.381 . S
Ho121 O151 2.669 . S
C122 O140 1.259 . S
C122 O141 1.268 . S
C123 Ho120 2.811 1_455 S
C123 C124 1.488 . S
C123 O142 1.215 1_455 S
C123 O143 1.289 1_455 S
C124 C123 1.488 . S
C124 C125 1.348 . S
C124 C129 1.413 . S
C125 C124 1.348 . S
C125 C126 1.442 . S
C125 H152 0.930 . S
C126 C125 1.442 . S
C126 C127 1.381 . S
C126 H153 0.931 . S
C127 C126 1.381 . S
C127 C128 1.321 . S
C128 C127 1.321 . S
C128 C129 1.403 . S
C128 H154 0.934 . S
C129 C124 1.413 . S
C129 C128 1.403 . S
C129 H155 0.930 . S
C130 O144 1.275 . S
C130 O145 1.256 . S
C131 O146 1.259 . S
C131 O147 1.268 . S
C132 Ho121 2.811 . S
C132 C133 1.488 . S
C132 O148 1.215 . S
C132 O149 1.289 . S
C133 C132 1.488 . S
C133 C134 1.348 . S
C133 C138 1.413 . S
C134 C133 1.348 . S
C134 C135 1.442 . S
C134 H156 0.930 . S
C135 C134 1.442 . S
C135 C136 1.381 . S
C135 H157 0.931 . S
C136 C135 1.381 . S
C136 C137 1.321 . S
C137 C136 1.321 . S
C137 C138 1.403 . S
C137 H158 0.934 . S
C138 C133 1.413 . S
C138 C137 1.403 . S
C138 H159 0.930 . S
C139 O150 1.275 . S
C139 O151 1.256 . S
O140 Ho120 2.322 1_455 S
O140 C122 1.259 . S
O141 Ho121 2.346 1_455 S
O141 C122 1.268 . S
O142 Ho120 2.378 . S
O142 C123 1.215 1_655 S
O143 Ho120 2.524 . S
O143 C123 1.289 1_655 S
O144 Ho120 2.381 . S
O144 C130 1.275 . S
O145 Ho120 2.669 . S
O145 Ho121 2.305 . S
O145 C130 1.256 . S
O146 Ho121 2.322 . S
O146 C131 1.259 . S
O147 Ho120 2.346 . S
O147 C131 1.268 . S
O148 Ho121 2.378 . S
O148 C132 1.215 . S
O149 Ho121 2.524 . S
O149 C132 1.289 . S
O150 Ho121 2.381 . S
O150 C139 1.275 . S
O151 Ho120 2.305 . S
O151 Ho121 2.669 . S
O151 C139 1.256 . S
H152 C125 0.930 . S
H153 C126 0.931 . S
H154 C128 0.934 . S
H155 C129 0.930 . S
H156 C134 0.930 . S
H157 C135 0.931 . S
H158 C137 0.934 . S
H159 C138 0.930 . S
Ho160 C163 2.811 . S
Ho160 O180 2.322 . S
Ho160 O182 2.378 . S
Ho160 O183 2.524 1_554 S
Ho160 O184 2.381 . S
Ho160 O185 2.669 . S
Ho160 O187 2.346 . S
Ho160 O191 2.305 1_554 S
Ho161 C172 2.811 . S
Ho161 O181 2.346 . S
Ho161 O185 2.305 . S
Ho161 O186 2.322 1_554 S
Ho161 O188 2.378 1_554 S
Ho161 O189 2.524 . S
Ho161 O190 2.381 1_554 S
Ho161 O191 2.669 1_554 S
C162 O180 1.259 . S
C162 O181 1.268 . S
C163 Ho160 2.811 . S
C163 C164 1.488 . S
C163 O182 1.215 . S
C163 O183 1.289 1_554 S
C164 C163 1.488 . S
C164 C165 1.348 1_554 S
C164 C169 1.413 . S
C165 C164 1.348 1_556 S
C165 C166 1.442 . S
C165 H192 0.930 . S
C166 C165 1.442 . S
C166 C167 1.381 1_556 S
C166 H193 0.931 . S
C167 C166 1.381 1_554 S
C167 C168 1.321 . S
C168 C167 1.321 . S
C168 C169 1.403 . S
C168 H194 0.934 . S
C169 C164 1.413 . S
C169 C168 1.403 . S
C169 H195 0.930 . S
C170 O184 1.275 . S
C170 O185 1.256 . S
C171 O186 1.259 1_554 S
C171 O187 1.268 . S
C172 Ho161 2.811 . S
C172 C173 1.488 . S
C172 O188 1.215 1_554 S
C172 O189 1.289 . S
C173 C172 1.488 . S
C173 C174 1.348 . S
C173 C178 1.413 1_554 S
C174 C173 1.348 . S
C174 C175 1.442 . S
C174 H196 0.930 . S
C175 C174 1.442 . S
C175 C176 1.381 . S
C175 H197 0.931 . S
C176 C175 1.381 . S
C176 C177 1.321 1_554 S
C177 C176 1.321 1_556 S
C177 C178 1.403 . S
C177 H198 0.934 . S
C178 C173 1.413 1_556 S
C178 C177 1.403 . S
C178 H199 0.930 . S
C179 O190 1.275 . S
C179 O191 1.256 . S
O180 Ho160 2.322 . S
O180 C162 1.259 . S
O181 Ho161 2.346 . S
O181 C162 1.268 . S
O182 Ho160 2.378 . S
O182 C163 1.215 . S
O183 Ho160 2.524 1_556 S
O183 C163 1.289 1_556 S
O184 Ho160 2.381 . S
O184 C170 1.275 . S
O185 Ho160 2.669 . S
O185 Ho161 2.305 . S
O185 C170 1.256 . S
O186 Ho161 2.322 1_556 S
O186 C171 1.259 1_556 S
O187 Ho160 2.346 . S
O187 C171 1.268 . S
O188 Ho161 2.378 1_556 S
O188 C172 1.215 1_556 S
O189 Ho161 2.524 . S
O189 C172 1.289 . S
O190 Ho161 2.381 1_556 S
O190 C179 1.275 . S
O191 Ho160 2.305 1_556 S
O191 Ho161 2.669 1_556 S
O191 C179 1.256 . S
H192 C165 0.930 . S
H193 C166 0.931 . S
H194 C168 0.934 . S
H195 C169 0.930 . S
H196 C174 0.930 . S
H197 C175 0.931 . S
H198 C177 0.934 . S
H199 C178 0.930 . S
Ho200 C203 2.811 . S
Ho200 O220 2.322 . S
Ho200 O222 2.378 . S
Ho200 O223 2.524 1_554 S
Ho200 O224 2.381 . S
Ho200 O225 2.669 . S
Ho200 O227 2.346 . S
Ho200 O231 2.305 1_554 S
Ho201 C212 2.811 . S
Ho201 O221 2.346 . S
Ho201 O225 2.305 . S
Ho201 O226 2.322 1_554 S
Ho201 O228 2.378 1_554 S
Ho201 O229 2.524 . S
Ho201 O230 2.381 1_554 S
Ho201 O231 2.669 1_554 S
C202 O220 1.259 . S
C202 O221 1.268 . S
C203 Ho200 2.811 . S
C203 C204 1.488 . S
C203 O222 1.215 . S
C203 O223 1.289 1_554 S
C204 C203 1.488 . S
C204 C205 1.348 1_554 S
C204 C209 1.413 . S
C205 C204 1.348 1_556 S
C205 C206 1.442 . S
C205 H232 0.930 . S
C206 C205 1.442 . S
C206 C207 1.381 1_556 S
C206 H233 0.931 . S
C207 C206 1.381 1_554 S
C207 C208 1.321 . S
C208 C207 1.321 . S
C208 C209 1.403 . S
C208 H234 0.934 . S
C209 C204 1.413 . S
C209 C208 1.403 . S
C209 H235 0.930 . S
C210 O224 1.275 . S
C210 O225 1.256 . S
C211 O226 1.259 1_554 S
C211 O227 1.268 . S
C212 Ho201 2.811 . S
C212 C213 1.488 . S
C212 O228 1.215 1_554 S
C212 O229 1.289 . S
C213 C212 1.488 . S
C213 C214 1.348 . S
C213 C218 1.413 1_554 S
C214 C213 1.348 . S
C214 C215 1.442 . S
C214 H236 0.930 . S
C215 C214 1.442 . S
C215 C216 1.381 . S
C215 H237 0.931 . S
C216 C215 1.381 . S
C216 C217 1.321 1_554 S
C217 C216 1.321 1_556 S
C217 C218 1.403 . S
C217 H238 0.934 . S
C218 C213 1.413 1_556 S
C218 C217 1.403 . S
C218 H239 0.930 . S
C219 O230 1.275 . S
C219 O231 1.256 . S
O220 Ho200 2.322 . S
O220 C202 1.259 . S
O221 Ho201 2.346 . S
O221 C202 1.268 . S
O222 Ho200 2.378 . S
O222 C203 1.215 . S
O223 Ho200 2.524 1_556 S
O223 C203 1.289 1_556 S
O224 Ho200 2.381 . S
O224 C210 1.275 . S
O225 Ho200 2.669 . S
O225 Ho201 2.305 . S
O225 C210 1.256 . S
O226 Ho201 2.322 1_556 S
O226 C211 1.259 1_556 S
O227 Ho200 2.346 . S
O227 C211 1.268 . S
O228 Ho201 2.378 1_556 S
O228 C212 1.215 1_556 S
O229 Ho201 2.524 . S
O229 C212 1.289 . S
O230 Ho201 2.381 1_556 S
O230 C219 1.275 . S
O231 Ho200 2.305 1_556 S
O231 Ho201 2.669 1_556 S
O231 C219 1.256 . S
H232 C205 0.930 . S
H233 C206 0.931 . S
H234 C208 0.934 . S
H235 C209 0.930 . S
H236 C214 0.930 . S
H237 C215 0.931 . S
H238 C217 0.934 . S
H239 C218 0.930 . S
Ho240 C243 2.811 . S
Ho240 O260 2.322 . S
Ho240 O262 2.378 . S
Ho240 O263 2.524 . S
Ho240 O264 2.381 . S
Ho240 O265 2.669 . S
Ho240 O267 2.346 . S
Ho240 O271 2.305 . S
Ho241 C252 2.811 . S
Ho241 O261 2.346 . S
Ho241 O265 2.305 . S
Ho241 O266 2.322 . S
Ho241 O268 2.378 . S
Ho241 O269 2.524 . S
Ho241 O270 2.381 . S
Ho241 O271 2.669 . S
C242 O260 1.259 . S
C242 O261 1.268 . S
C243 Ho240 2.811 . S
C243 C244 1.488 . S
C243 O262 1.215 . S
C243 O263 1.289 . S
C244 C243 1.488 . S
C244 C245 1.348 . S
C244 C249 1.413 . S
C245 C244 1.348 . S
C245 C246 1.442 . S
C245 H272 0.930 . S
C246 C245 1.442 . S
C246 C247 1.381 . S
C246 H273 0.931 . S
C247 C246 1.381 . S
C247 C248 1.321 . S
C248 C247 1.321 . S
C248 C249 1.403 . S
C248 H274 0.934 . S
C249 C244 1.413 . S
C249 C248 1.403 . S
C249 H275 0.930 . S
C250 O264 1.275 . S
C250 O265 1.256 . S
C251 O266 1.259 . S
C251 O267 1.268 . S
C252 Ho241 2.811 . S
C252 C253 1.488 . S
C252 O268 1.215 . S
C252 O269 1.289 . S
C253 C252 1.488 . S
C253 C254 1.348 . S
C253 C258 1.413 . S
C254 C253 1.348 . S
C254 C255 1.442 . S
C254 H276 0.930 . S
C255 C254 1.442 . S
C255 C256 1.381 . S
C255 H277 0.931 . S
C256 C255 1.381 . S
C256 C257 1.321 . S
C257 C256 1.321 . S
C257 C258 1.403 . S
C257 H278 0.934 . S
C258 C253 1.413 . S
C258 C257 1.403 . S
C258 H279 0.930 . S
C259 O270 1.275 . S
C259 O271 1.256 . S
O260 Ho240 2.322 . S
O260 C242 1.259 . S
O261 Ho241 2.346 . S
O261 C242 1.268 . S
O262 Ho240 2.378 . S
O262 C243 1.215 . S
O263 Ho240 2.524 . S
O263 C243 1.289 . S
O264 Ho240 2.381 . S
O264 C250 1.275 . S
O265 Ho240 2.669 . S
O265 Ho241 2.305 . S
O265 C250 1.256 . S
O266 Ho241 2.322 . S
O266 C251 1.259 . S
O267 Ho240 2.346 . S
O267 C251 1.268 . S
O268 Ho241 2.378 . S
O268 C252 1.215 . S
O269 Ho241 2.524 . S
O269 C252 1.289 . S
O270 Ho241 2.381 . S
O270 C259 1.275 . S
O271 Ho240 2.305 . S
O271 Ho241 2.669 . S
O271 C259 1.256 . S
H272 C245 0.930 . S
H273 C246 0.931 . S
H274 C248 0.934 . S
H275 C249 0.930 . S
H276 C254 0.930 . S
H277 C255 0.931 . S
H278 C257 0.934 . S
H279 C258 0.930 . S
Ho280 C283 2.811 . S
Ho280 O300 2.322 . S
Ho280 O302 2.378 . S
Ho280 O303 2.524 . S
Ho280 O304 2.381 . S
Ho280 O305 2.669 . S
Ho280 O307 2.346 . S
Ho280 O311 2.305 . S
Ho281 C292 2.811 . S
Ho281 O301 2.346 . S
Ho281 O305 2.305 . S
Ho281 O306 2.322 . S
Ho281 O308 2.378 . S
Ho281 O309 2.524 . S
Ho281 O310 2.381 . S
Ho281 O311 2.669 . S
C282 O300 1.259 . S
C282 O301 1.268 . S
C283 Ho280 2.811 . S
C283 C284 1.488 . S
C283 O302 1.215 . S
C283 O303 1.289 . S
C284 C283 1.488 . S
C284 C285 1.348 . S
C284 C289 1.413 . S
C285 C284 1.348 . S
C285 C286 1.442 . S
C285 H312 0.930 . S
C286 C285 1.442 . S
C286 C287 1.381 . S
C286 H313 0.931 . S
C287 C286 1.381 . S
C287 C288 1.321 . S
C288 C287 1.321 . S
C288 C289 1.403 . S
C288 H314 0.934 . S
C289 C284 1.413 . S
C289 C288 1.403 . S
C289 H315 0.930 . S
C290 O304 1.275 . S
C290 O305 1.256 . S
C291 O306 1.259 . S
C291 O307 1.268 . S
C292 Ho281 2.811 . S
C292 C293 1.488 . S
C292 O308 1.215 . S
C292 O309 1.289 . S
C293 C292 1.488 . S
C293 C294 1.348 . S
C293 C298 1.413 . S
C294 C293 1.348 . S
C294 C295 1.442 . S
C294 H316 0.930 . S
C295 C294 1.442 . S
C295 C296 1.381 . S
C295 H317 0.931 . S
C296 C295 1.381 . S
C296 C297 1.321 . S
C297 C296 1.321 . S
C297 C298 1.403 . S
C297 H318 0.934 . S
C298 C293 1.413 . S
C298 C297 1.403 . S
C298 H319 0.930 . S
C299 O310 1.275 . S
C299 O311 1.256 . S
O300 Ho280 2.322 . S
O300 C282 1.259 . S
O301 Ho281 2.346 . S
O301 C282 1.268 . S
O302 Ho280 2.378 . S
O302 C283 1.215 . S
O303 Ho280 2.524 . S
O303 C283 1.289 . S
O304 Ho280 2.381 . S
O304 C290 1.275 . S
O305 Ho280 2.669 . S
O305 Ho281 2.305 . S
O305 C290 1.256 . S
O306 Ho281 2.322 . S
O306 C291 1.259 . S
O307 Ho280 2.346 . S
O307 C291 1.268 . S
O308 Ho281 2.378 . S
O308 C292 1.215 . S
O309 Ho281 2.524 . S
O309 C292 1.289 . S
O310 Ho281 2.381 . S
O310 C299 1.275 . S
O311 Ho280 2.305 . S
O311 Ho281 2.669 . S
O311 C299 1.256 . S
H312 C285 0.930 . S
H313 C286 0.931 . S
H314 C288 0.934 . S
H315 C289 0.930 . S
H316 C294 0.930 . S
H317 C295 0.931 . S
H318 C297 0.934 . S
H319 C298 0.930 . S
H320 C332 0.930 . S
H321 C334 0.930 . S
H322 C335 0.930 . S
H323 C339 0.959 . S
H324 C339 0.959 . S
H325 C339 0.961 . S
H326 C340 0.960 1_556 S
H327 C340 0.961 1_556 S
H328 C340 0.959 . S
H329 C343 0.929 . S
H330 C344 0.931 . S
H331 C346 0.930 . S
C332 H320 0.930 . S
C332 C333 1.399 1_556 S
C332 C337 1.399 1_556 S
C333 C332 1.399 1_554 S
C333 C334 1.376 . S
C334 H321 0.930 . S
C334 C333 1.376 . S
C334 C335 1.388 . S
C335 H322 0.930 . S
C335 C334 1.388 . S
C335 C336 1.390 . S
C336 C335 1.390 . S
C336 C337 1.394 . S
C336 C342 1.465 . S
C337 C332 1.399 1_554 S
C337 C336 1.394 . S
C337 C338 1.516 1_554 S
C338 C337 1.516 1_556 S
C338 C339 1.502 . S
C338 C340 1.561 1_556 S
C338 C341 1.526 1_556 S
C339 H323 0.959 . S
C339 H324 0.959 . S
C339 H325 0.961 . S
C339 C338 1.502 . S
C340 H326 0.960 1_554 S
C340 H327 0.961 1_554 S
C340 H328 0.959 . S
C340 C338 1.561 1_554 S
C341 C338 1.526 1_554 S
C341 C342 1.396 . S
C341 C346 1.390 1_554 S
C342 C336 1.465 . S
C342 C341 1.396 . S
C342 C343 1.399 . S
C343 H329 0.929 . S
C343 C342 1.399 . S
C343 C344 1.385 . S
C344 H330 0.931 . S
C344 C343 1.385 . S
C344 C345 1.389 . S
C345 C344 1.389 . S
C345 C346 1.387 1_554 S
C346 H331 0.930 . S
C346 C341 1.390 1_556 S
C346 C345 1.387 1_556 S
H347 C359 0.930 . S
H348 C361 0.930 1_556 S
H349 C362 0.930 1_556 S
H350 C366 0.959 1_556 S
H351 C366 0.959 . S
H352 C366 0.961 . S
H353 C367 0.960 . S
H354 C367 0.961 . S
H355 C367 0.959 . S
H356 C370 0.924 1_556 S
H357 C371 0.931 1_556 S
H358 C373 0.930 . S
C359 H347 0.930 . S
C359 C360 1.399 . S
C359 C364 1.399 . S
C360 C359 1.399 . S
C360 C361 1.376 . S
C361 H348 0.930 1_554 S
C361 C360 1.376 . S
C361 C362 1.388 . S
C362 H349 0.930 1_554 S
C362 C361 1.388 . S
C362 C363 1.390 . S
C363 C362 1.390 . S
C363 C364 1.394 . S
C363 C369 1.465 . S
C364 C359 1.399 . S
C364 C363 1.394 . S
C364 C365 1.516 . S
C365 C364 1.516 . S
C365 C366 1.502 . S
C365 C367 1.561 . S
C365 C368 1.526 . S
C366 H350 0.959 1_554 S
C366 H351 0.959 . S
C366 H352 0.961 . S
C366 C365 1.502 . S
C367 H353 0.960 . S
C367 H354 0.961 . S
C367 H355 0.959 . S
C367 C365 1.561 . S
C368 C365 1.526 . S
C368 C369 1.396 . S
C368 C373 1.390 . S
C369 C363 1.465 . S
C369 C368 1.396 . S
C369 C370 1.402 . S
C370 H356 0.924 1_554 S
C370 C369 1.402 . S
C370 C371 1.388 . S
C371 H357 0.931 1_554 S
C371 C370 1.388 . S
C371 C372 1.389 . S
C372 C371 1.389 . S
C372 C373 1.387 . S
C373 H358 0.930 . S
C373 C368 1.390 . S
C373 C372 1.387 . S
H374 C386 0.930 . S
H375 C388 0.930 . S
H376 C389 0.930 . S
H377 C393 0.959 . S
H378 C393 0.959 . S
H379 C393 0.961 . S
H380 C394 0.960 . S
H381 C394 0.961 . S
H382 C394 0.959 . S
H383 C397 0.929 . S
H384 C398 0.931 . S
H385 C400 0.930 . S
C386 H374 0.930 . S
C386 C387 1.399 . S
C386 C391 1.399 . S
C387 C386 1.399 . S
C387 C388 1.376 . S
C388 H375 0.930 . S
C388 C387 1.376 . S
C388 C389 1.388 . S
C389 H376 0.930 . S
C389 C388 1.388 . S
C389 C390 1.390 . S
C390 C389 1.390 . S
C390 C391 1.394 . S
C390 C396 1.465 . S
C391 C386 1.399 . S
C391 C390 1.394 . S
C391 C392 1.516 . S
C392 C391 1.516 . S
C392 C393 1.502 . S
C392 C394 1.561 . S
C392 C395 1.526 . S
C393 H377 0.959 . S
C393 H378 0.959 . S
C393 H379 0.961 . S
C393 C392 1.502 . S
C394 H380 0.960 . S
C394 H381 0.961 . S
C394 H382 0.959 . S
C394 C392 1.561 . S
C395 C392 1.526 . S
C395 C396 1.396 . S
C395 C400 1.390 . S
C396 C390 1.465 . S
C396 C395 1.396 . S
C396 C397 1.399 . S
C397 H383 0.929 . S
C397 C396 1.399 . S
C397 C398 1.385 . S
C398 H384 0.931 . S
C398 C397 1.385 . S
C398 C399 1.389 . S
C399 C398 1.389 . S
C399 C400 1.387 . S
C400 H385 0.930 . S
C400 C395 1.390 . S
C400 C399 1.387 . S
H401 C413 0.930 . S
H402 C415 0.930 . S
H403 C416 0.930 . S
H404 C420 0.959 . S
H405 C420 0.959 . S
H406 C420 0.961 . S
H407 C421 0.960 . S
H408 C421 0.961 . S
H409 C421 0.959 . S
H410 C424 0.929 . S
H411 C425 0.931 . S
H412 C427 0.930 . S
C413 H401 0.930 . S
C413 C414 1.399 . S
C413 C418 1.399 . S
C414 C413 1.399 . S
C414 C415 1.376 . S
C415 H402 0.930 . S
C415 C414 1.376 . S
C415 C416 1.388 . S
C416 H403 0.930 . S
C416 C415 1.388 . S
C416 C417 1.390 . S
C417 C416 1.390 . S
C417 C418 1.394 . S
C417 C423 1.465 . S
C418 C413 1.399 . S
C418 C417 1.394 . S
C418 C419 1.516 . S
C419 C418 1.516 . S
C419 C420 1.502 . S
C419 C421 1.561 . S
C419 C422 1.526 . S
C420 H404 0.959 . S
C420 H405 0.959 . S
C420 H406 0.961 . S
C420 C419 1.502 . S
C421 H407 0.960 . S
C421 H408 0.961 . S
C421 H409 0.959 . S
C421 C419 1.561 . S
C422 C419 1.526 . S
C422 C423 1.396 . S
C422 C427 1.390 . S
C423 C417 1.465 . S
C423 C422 1.396 . S
C423 C424 1.399 . S
C424 H410 0.929 . S
C424 C423 1.399 . S
C424 C425 1.385 . S
C425 H411 0.931 . S
C425 C424 1.385 . S
C425 C426 1.389 . S
C426 C425 1.389 . S
C426 C427 1.387 . S
C427 H412 0.930 . S
C427 C422 1.390 . S
C427 C426 1.387 . S
H428 C440 0.930 . S
H429 C442 0.930 . S
H430 C443 0.930 1_455 S
H431 C447 0.959 . S
H432 C447 0.959 . S
H433 C447 0.961 1_655 S
H434 C448 0.960 1_655 S
H435 C448 0.961 . S
H436 C448 0.959 . S
H437 C451 0.929 . S
H438 C452 0.931 . S
H439 C454 0.930 . S
C440 H428 0.930 . S
C440 C441 1.399 . S
C440 C445 1.399 . S
C441 C440 1.399 . S
C441 C442 1.376 . S
C442 H429 0.930 . S
C442 C441 1.376 . S
C442 C443 1.388 . S
C443 H430 0.930 1_655 S
C443 C442 1.388 . S
C443 C444 1.390 1_655 S
C444 C443 1.390 1_455 S
C444 C445 1.394 1_455 S
C444 C450 1.465 . S
C445 C440 1.399 . S
C445 C444 1.394 1_655 S
C445 C446 1.516 1_655 S
C446 C445 1.516 1_455 S
C446 C447 1.502 1_554 S
C446 C448 1.561 . S
C446 C449 1.526 . S
C447 H431 0.959 . S
C447 H432 0.959 . S
C447 H433 0.961 1_455 S
C447 C446 1.502 1_556 S
C448 H434 0.960 1_455 S
C448 H435 0.961 . S
C448 H436 0.959 . S
C448 C446 1.561 . S
C449 C446 1.526 . S
C449 C450 1.396 . S
C449 C454 1.390 . S
C450 C444 1.465 . S
C450 C449 1.396 . S
C450 C451 1.399 . S
C451 H437 0.929 . S
C451 C450 1.399 . S
C451 C452 1.385 . S
C452 H438 0.931 . S
C452 C451 1.385 . S
C452 C453 1.389 . S
C453 C452 1.389 . S
C453 C454 1.387 . S
C454 H439 0.930 . S
C454 C449 1.390 . S
C454 C453 1.387 . S
H455 C467 0.930 . S
H456 C469 0.930 . S
H457 C470 0.930 1_655 S
H458 C474 0.959 . S
H459 C474 0.959 . S
H460 C474 0.961 1_455 S
H461 C475 0.960 1_455 S
H462 C475 0.961 . S
H463 C475 0.959 . S
H464 C478 0.929 . S
H465 C479 0.931 . S
H466 C481 0.930 . S
C467 H455 0.930 . S
C467 C468 1.399 1_556 S
C467 C472 1.399 . S
C468 C467 1.399 1_554 S
C468 C469 1.376 . S
C469 H456 0.930 . S
C469 C468 1.376 . S
C469 C470 1.388 . S
C470 H457 0.930 1_455 S
C470 C469 1.388 . S
C470 C471 1.390 1_455 S
C471 C470 1.390 1_655 S
C471 C472 1.394 1_654 S
C471 C477 1.465 . S
C472 C467 1.399 . S
C472 C471 1.394 1_456 S
C472 C473 1.516 1_455 S
C473 C472 1.516 1_655 S
C473 C474 1.502 . S
C473 C475 1.561 . S
C473 C476 1.526 . S
C474 H458 0.959 . S
C474 H459 0.959 . S
C474 H460 0.961 1_655 S
C474 C473 1.502 . S
C475 H461 0.960 1_655 S
C475 H462 0.961 . S
C475 H463 0.959 . S
C475 C473 1.561 . S
C476 C473 1.526 . S
C476 C477 1.396 1_556 S
C476 C481 1.390 . S
C477 C471 1.465 . S
C477 C476 1.396 1_554 S
C477 C478 1.399 . S
C478 H464 0.929 . S
C478 C477 1.399 . S
C478 C479 1.385 . S
C479 H465 0.931 . S
C479 C478 1.385 . S
C479 C480 1.389 . S
C480 C479 1.389 . S
C480 C481 1.387 1_554 S
C481 H466 0.930 . S
C481 C476 1.390 . S
C481 C480 1.387 1_556 S
H482 C494 0.930 . S
H483 C496 0.930 . S
H484 C497 0.930 . S
H485 C501 0.959 . S
H486 C501 0.959 . S
H487 C501 0.961 . S
H488 C502 0.960 . S
H489 C502 0.961 . S
H490 C502 0.959 . S
H491 C505 0.929 . S
H492 C506 0.931 . S
H493 C508 0.930 . S
C494 H482 0.930 . S
C494 C495 1.399 . S
C494 C499 1.399 . S
C495 C494 1.399 . S
C495 C496 1.376 . S
C496 H483 0.930 . S
C496 C495 1.376 . S
C496 C497 1.388 . S
C497 H484 0.930 . S
C497 C496 1.388 . S
C497 C498 1.390 . S
C498 C497 1.390 . S
C498 C499 1.394 . S
C498 C504 1.465 . S
C499 C494 1.399 . S
C499 C498 1.394 . S
C499 C500 1.516 . S
C500 C499 1.516 . S
C500 C501 1.502 . S
C500 C502 1.561 . S
C500 C503 1.526 1_455 S
C501 H485 0.959 . S
C501 H486 0.959 . S
C501 H487 0.961 . S
C501 C500 1.502 . S
C502 H488 0.960 . S
C502 H489 0.961 . S
C502 H490 0.959 . S
C502 C500 1.561 . S
C503 C500 1.526 1_655 S
C503 C504 1.396 1_655 S
C503 C508 1.390 . S
C504 C498 1.465 . S
C504 C503 1.396 1_455 S
C504 C505 1.399 1_455 S
C505 H491 0.929 . S
C505 C504 1.399 1_655 S
C505 C506 1.385 . S
C506 H492 0.931 . S
C506 C505 1.385 . S
C506 C507 1.389 . S
C507 C506 1.389 . S
C507 C508 1.387 . S
C508 H493 0.930 . S
C508 C503 1.390 . S
C508 C507 1.387 . S
H509 C521 0.930 . S
H510 C523 0.930 . S
H511 C524 0.930 . S
H512 C528 0.959 . S
H513 C528 0.959 . S
H514 C528 0.961 . S
H515 C529 0.960 . S
H516 C529 0.961 . S
H517 C529 0.959 . S
H518 C532 0.929 . S
H519 C533 0.931 . S
H520 C535 0.930 . S
C521 H509 0.930 . S
C521 C522 1.399 . S
C521 C526 1.399 . S
C522 C521 1.399 . S
C522 C523 1.376 . S
C523 H510 0.930 . S
C523 C522 1.376 . S
C523 C524 1.388 . S
C524 H511 0.930 . S
C524 C523 1.388 . S
C524 C525 1.390 . S
C525 C524 1.390 . S
C525 C526 1.394 . S
C525 C531 1.465 . S
C526 C521 1.399 . S
C526 C525 1.394 . S
C526 C527 1.516 . S
C527 C526 1.516 . S
C527 C528 1.502 . S
C527 C529 1.561 . S
C527 C530 1.526 1_655 S
C528 H512 0.959 . S
C528 H513 0.959 . S
C528 H514 0.961 . S
C528 C527 1.502 . S
C529 H515 0.960 . S
C529 H516 0.961 . S
C529 H517 0.959 . S
C529 C527 1.561 . S
C530 C527 1.526 1_455 S
C530 C531 1.396 1_455 S
C530 C535 1.390 . S
C531 C525 1.465 . S
C531 C530 1.396 1_655 S
C531 C532 1.399 1_655 S
C532 H518 0.929 . S
C532 C531 1.399 1_455 S
C532 C533 1.385 . S
C533 H519 0.931 . S
C533 C532 1.385 . S
C533 C534 1.389 . S
C534 C533 1.389 . S
C534 C535 1.387 . S
C535 H520 0.930 . S
C535 C530 1.390 . S
C535 C534 1.387 . S
H536 C548 0.930 . S
H537 C550 0.930 . S
H538 C551 0.930 . S
H539 C555 0.959 . S
H540 C555 0.959 . S
H541 C555 0.961 1_455 S
H542 C556 0.960 . S
H543 C556 0.961 . S
H544 C556 0.959 . S
H545 C559 0.929 . S
H546 C560 0.931 . S
H547 C562 0.930 . S
C548 H536 0.930 . S
C548 C549 1.399 1_556 S
C548 C553 1.399 . S
C549 C548 1.399 1_554 S
C549 C550 1.376 . S
C550 H537 0.930 . S
C550 C549 1.376 . S
C550 C551 1.388 . S
C551 H538 0.930 . S
C551 C550 1.388 . S
C551 C552 1.390 . S
C552 C551 1.390 . S
C552 C553 1.394 1_554 S
C552 C558 1.465 1_455 S
C553 C548 1.399 . S
C553 C552 1.394 1_556 S
C553 C554 1.516 . S
C554 C553 1.516 . S
C554 C555 1.502 1_455 S
C554 C556 1.561 . S
C554 C557 1.526 1_455 S
C555 H539 0.959 . S
C555 H540 0.959 . S
C555 H541 0.961 1_655 S
C555 C554 1.502 1_655 S
C556 H542 0.960 . S
C556 H543 0.961 . S
C556 H544 0.959 . S
C556 C554 1.561 . S
C557 C554 1.526 1_655 S
C557 C558 1.396 1_556 S
C557 C562 1.390 . S
C558 C552 1.465 1_655 S
C558 C557 1.396 1_554 S
C558 C559 1.399 . S
C559 H545 0.929 . S
C559 C558 1.399 . S
C559 C560 1.385 . S
C560 H546 0.931 . S
C560 C559 1.385 . S
C560 C561 1.389 . S
C561 C560 1.389 . S
C561 C562 1.387 1_554 S
C562 H547 0.930 . S
C562 C557 1.390 . S
C562 C561 1.387 1_556 S
H563 C575 0.930 . S
H564 C577 0.930 . S
H565 C578 0.930 . S
H566 C582 0.959 . S
H567 C582 0.959 . S
H568 C582 0.961 . S
H569 C583 0.960 . S
H570 C583 0.961 1_655 S
H571 C583 0.959 . S
H572 C586 0.929 1_455 S
H573 C587 0.931 . S
H574 C589 0.930 . S
C575 H563 0.930 . S
C575 C576 1.399 . S
C575 C580 1.399 . S
C576 C575 1.399 . S
C576 C577 1.376 . S
C577 H564 0.930 . S
C577 C576 1.376 . S
C577 C578 1.388 . S
C578 H565 0.930 . S
C578 C577 1.388 . S
C578 C579 1.390 . S
C579 C578 1.390 . S
C579 C580 1.394 . S
C579 C585 1.468 . S
C580 C575 1.399 . S
C580 C579 1.394 . S
C580 C581 1.516 1_455 S
C581 C580 1.516 1_655 S
C581 C582 1.502 . S
C581 C583 1.561 1_655 S
C581 C584 1.526 . S
C582 H566 0.959 . S
C582 H567 0.959 . S
C582 H568 0.961 . S
C582 C581 1.502 . S
C583 H569 0.960 . S
C583 H570 0.961 1_455 S
C583 H571 0.959 . S
C583 C581 1.561 1_455 S
C584 C581 1.526 . S
C584 C585 1.394 1_655 S
C584 C589 1.390 . S
C585 C579 1.468 . S
C585 C584 1.394 1_455 S
C585 C586 1.398 1_455 S
C586 H572 0.929 1_655 S
C586 C585 1.398 1_655 S
C586 C587 1.385 . S
C587 H573 0.931 . S
C587 C586 1.385 . S
C587 C588 1.389 . S
C588 C587 1.389 . S
C588 C589 1.387 . S
C589 H574 0.930 . S
C589 C584 1.390 . S
C589 C588 1.387 . S
H590 C602 0.930 . S
H591 C604 0.930 . S
H592 C605 0.930 . S
H593 C609 0.959 . S
H594 C609 0.959 . S
H595 C609 0.961 1_565 S
H596 C610 0.960 . S
H597 C610 0.961 . S
H598 C610 0.959 . S
H599 C613 0.929 . S
H600 C614 0.931 . S
H601 C616 0.930 . S
C602 H590 0.930 . S
C602 C603 1.399 . S
C602 C607 1.399 . S
C603 C602 1.399 . S
C603 C604 1.376 1_554 S
C604 H591 0.930 . S
C604 C603 1.376 1_556 S
C604 C605 1.388 . S
C605 H592 0.930 . S
C605 C604 1.388 . S
C605 C606 1.390 . S
C606 C605 1.390 . S
C606 C607 1.394 1_556 S
C606 C612 1.465 1_565 S
C607 C602 1.399 . S
C607 C606 1.394 1_554 S
C607 C608 1.516 . S
C608 C607 1.516 . S
C608 C609 1.502 1_565 S
C608 C610 1.561 . S
C608 C611 1.526 1_565 S
C609 H593 0.959 . S
C609 H594 0.959 . S
C609 H595 0.961 1_545 S
C609 C608 1.502 1_545 S
C610 H596 0.960 . S
C610 H597 0.961 . S
C610 H598 0.959 . S
C610 C608 1.561 . S
C611 C608 1.526 1_545 S
C611 C612 1.396 1_554 S
C611 C616 1.390 . S
C612 C606 1.465 1_545 S
C612 C611 1.396 1_556 S
C612 C613 1.399 . S
C613 H599 0.929 . S
C613 C612 1.399 . S
C613 C614 1.385 . S
C614 H600 0.931 . S
C614 C613 1.385 . S
C614 C615 1.389 1_556 S
C615 C614 1.389 1_554 S
C615 C616 1.387 . S
C616 H601 0.930 . S
C616 C611 1.390 . S
C616 C615 1.387 . S
H617 C629 0.930 . S
H618 C631 0.930 . S
H619 C632 0.930 . S
H620 C636 0.959 . S
H621 C636 0.959 . S
H622 C636 0.961 . S
H623 C637 0.960 1_545 S
H624 C637 0.961 . S
H625 C637 0.933 1_545 S
H626 C640 0.929 . S
H627 C641 0.931 . S
H628 C643 0.930 . S
C629 H617 0.930 . S
C629 C630 1.399 . S
C629 C634 1.399 . S
C630 C629 1.399 . S
C630 C631 1.376 . S
C631 H618 0.930 . S
C631 C630 1.376 . S
C631 C632 1.388 . S
C632 H619 0.930 . S
C632 C631 1.388 . S
C632 C633 1.390 . S
C633 C632 1.390 . S
C633 C634 1.394 . S
C633 C639 1.465 1_545 S
C634 C629 1.399 . S
C634 C633 1.394 . S
C634 C635 1.516 1_545 S
C635 C634 1.516 1_565 S
C635 C636 1.502 . S
C635 C637 1.561 . S
C635 C638 1.526 . S
C636 H620 0.959 . S
C636 H621 0.959 . S
C636 H622 0.961 . S
C636 C635 1.502 . S
C637 H623 0.960 1_565 S
C637 H624 0.961 . S
C637 H625 0.933 1_565 S
C637 C635 1.561 . S
C638 C635 1.526 . S
C638 C639 1.396 . S
C638 C643 1.390 . S
C639 C633 1.465 1_565 S
C639 C638 1.396 . S
C639 C640 1.399 . S
C640 H626 0.929 . S
C640 C639 1.399 . S
C640 C641 1.385 . S
C641 H627 0.931 . S
C641 C640 1.385 . S
C641 C642 1.389 . S
C642 C641 1.389 . S
C642 C643 1.387 . S
C643 H628 0.930 . S
C643 C638 1.390 . S
C643 C642 1.387 . S
H644 C656 0.930 . S
H645 C658 0.930 . S
H646 C659 0.930 . S
H647 C663 0.959 . S
H648 C663 0.959 . S
H649 C663 0.961 . S
H650 C664 0.960 . S
H651 C664 0.961 . S
H652 C664 0.959 . S
H653 C667 0.929 . S
H654 C668 0.931 . S
H655 C670 0.930 . S
C656 H644 0.930 . S
C656 C657 1.399 . S
C656 C661 1.399 . S
C657 C656 1.399 . S
C657 C658 1.376 1_554 S
C658 H645 0.930 . S
C658 C657 1.376 1_556 S
C658 C659 1.388 . S
C659 H646 0.930 . S
C659 C658 1.388 . S
C659 C660 1.403 . S
C660 C659 1.403 . S
C660 C661 1.376 1_556 S
C660 C666 1.467 . S
C661 C656 1.399 . S
C661 C660 1.376 1_554 S
C661 C662 1.516 . S
C662 C661 1.516 . S
C662 C663 1.502 . S
C662 C664 1.561 . S
C662 C665 1.526 . S
C663 H647 0.959 . S
C663 H648 0.959 . S
C663 H649 0.961 . S
C663 C662 1.502 . S
C664 H650 0.960 . S
C664 H651 0.961 . S
C664 H652 0.959 . S
C664 C662 1.561 . S
C665 C662 1.526 . S
C665 C666 1.396 1_554 S
C665 C670 1.390 . S
C666 C660 1.467 . S
C666 C665 1.396 1_556 S
C666 C667 1.399 . S
C667 H653 0.929 . S
C667 C666 1.399 . S
C667 C668 1.385 . S
C668 H654 0.931 . S
C668 C667 1.385 . S
C668 C669 1.389 1_556 S
C669 C668 1.389 1_554 S
C669 C670 1.387 . S
C670 H655 0.930 . S
C670 C665 1.390 . S
C670 C669 1.387 . S
H671 C683 0.930 . S
H672 C685 0.930 . S
H673 C686 0.930 . S
H674 C690 0.959 . S
H675 C690 0.959 . S
H676 C690 0.961 . S
H677 C691 0.960 . S
H678 C691 0.961 . S
H679 C691 0.959 . S
H680 C694 0.929 . S
H681 C695 0.931 . S
H682 C697 0.930 . S
C683 H671 0.930 . S
C683 C684 1.399 1_556 S
C683 C688 1.399 . S
C684 C683 1.399 1_554 S
C684 C685 1.376 . S
C685 H672 0.930 . S
C685 C684 1.376 . S
C685 C686 1.388 . S
C686 H673 0.930 . S
C686 C685 1.388 . S
C686 C687 1.390 . S
C687 C686 1.390 . S
C687 C688 1.394 1_554 S
C687 C693 1.465 . S
C688 C683 1.399 . S
C688 C687 1.394 1_556 S
C688 C689 1.516 . S
C689 C688 1.516 . S
C689 C690 1.502 . S
C689 C691 1.561 . S
C689 C692 1.526 . S
C690 H674 0.959 . S
C690 H675 0.959 . S
C690 H676 0.961 . S
C690 C689 1.502 . S
C691 H677 0.960 . S
C691 H678 0.961 . S
C691 H679 0.959 . S
C691 C689 1.561 . S
C692 C689 1.526 . S
C692 C693 1.396 1_556 S
C692 C697 1.390 . S
C693 C687 1.465 . S
C693 C692 1.396 1_554 S
C693 C694 1.399 . S
C694 H680 0.929 . S
C694 C693 1.399 . S
C694 C695 1.385 . S
C695 H681 0.931 . S
C695 C694 1.385 . S
C695 C696 1.389 . S
C696 C695 1.389 . S
C696 C697 1.387 1_554 S
C697 H682 0.930 . S
C697 C692 1.390 . S
C697 C696 1.387 1_556 S
H698 C710 0.930 . S
H699 C712 0.930 . S
H700 C713 0.930 . S
H701 C717 0.959 . S
H702 C717 0.959 . S
H703 C717 0.961 . S
H704 C718 0.960 . S
H705 C718 0.961 . S
H706 C718 0.959 . S
H707 C721 0.929 . S
H708 C722 0.931 . S
H709 C724 0.930 . S
C710 H698 0.930 . S
C710 C711 1.399 . S
C710 C715 1.399 . S
C711 C710 1.399 . S
C711 C712 1.376 . S
C712 H699 0.930 . S
C712 C711 1.376 . S
C712 C713 1.388 . S
C713 H700 0.930 . S
C713 C712 1.388 . S
C713 C714 1.390 . S
C714 C713 1.390 . S
C714 C715 1.394 . S
C714 C720 1.465 . S
C715 C710 1.399 . S
C715 C714 1.394 . S
C715 C716 1.516 . S
C716 C715 1.516 . S
C716 C717 1.502 . S
C716 C718 1.561 . S
C716 C719 1.526 . S
C717 H701 0.959 . S
C717 H702 0.959 . S
C717 H703 0.961 . S
C717 C716 1.502 . S
C718 H704 0.960 . S
C718 H705 0.961 . S
C718 H706 0.959 . S
C718 C716 1.561 . S
C719 C716 1.526 . S
C719 C720 1.396 . S
C719 C724 1.390 . S
C720 C714 1.465 . S
C720 C719 1.396 . S
C720 C721 1.399 . S
C721 H707 0.929 . S
C721 C720 1.399 . S
C721 C722 1.385 . S
C722 H708 0.931 . S
C722 C721 1.385 . S
C722 C723 1.389 . S
C723 C722 1.389 . S
C723 C724 1.387 . S
C724 H709 0.930 . S
C724 C719 1.390 . S
C724 C723 1.387 . S
H725 C737 0.930 . S
H726 C739 0.930 . S
H727 C740 0.930 . S
H728 C744 0.959 . S
H729 C744 0.959 . S
H730 C744 0.961 . S
H731 C745 0.960 . S
H732 C745 0.961 . S
H733 C745 0.959 . S
H734 C748 0.929 . S
H735 C749 0.931 . S
H736 C751 0.930 . S
C737 H725 0.930 . S
C737 C738 1.399 . S
C737 C742 1.399 . S
C738 C737 1.399 . S
C738 C739 1.376 . S
C739 H726 0.930 . S
C739 C738 1.376 . S
C739 C740 1.388 . S
C740 H727 0.930 . S
C740 C739 1.388 . S
C740 C741 1.390 . S
C741 C740 1.390 . S
C741 C742 1.394 . S
C741 C747 1.465 . S
C742 C737 1.399 . S
C742 C741 1.394 . S
C742 C743 1.516 . S
C743 C742 1.516 . S
C743 C744 1.502 . S
C743 C745 1.561 . S
C743 C746 1.526 . S
C744 H728 0.959 . S
C744 H729 0.959 . S
C744 H730 0.961 . S
C744 C743 1.502 . S
C745 H731 0.960 . S
C745 H732 0.961 . S
C745 H733 0.959 . S
C745 C743 1.561 . S
C746 C743 1.526 . S
C746 C747 1.396 . S
C746 C751 1.390 . S
C747 C741 1.465 . S
C747 C746 1.396 . S
C747 C748 1.399 . S
C748 H734 0.929 . S
C748 C747 1.399 . S
C748 C749 1.385 . S
C749 H735 0.931 . S
C749 C748 1.385 . S
C749 C750 1.389 . S
C750 C749 1.389 . S
C750 C751 1.387 . S
C751 H736 0.930 . S
C751 C746 1.390 . S
C751 C750 1.387 . S
H752 C764 0.930 . S
H753 C766 0.930 . S
H754 C767 0.930 . S
H755 C771 0.959 . S
H756 C771 0.959 . S
H757 C771 0.961 . S
H758 C772 0.960 . S
H759 C772 0.961 . S
H760 C772 0.959 . S
H761 C775 0.929 . S
H762 C776 0.931 . S
H763 C778 0.930 . S
C764 H752 0.930 . S
C764 C765 1.399 . S
C764 C769 1.399 . S
C765 C764 1.399 . S
C765 C766 1.376 . S
C766 H753 0.930 . S
C766 C765 1.376 . S
C766 C767 1.388 . S
C767 H754 0.930 . S
C767 C766 1.388 . S
C767 C768 1.390 . S
C768 C767 1.390 . S
C768 C769 1.394 . S
C768 C774 1.465 1_455 S
C769 C764 1.399 . S
C769 C768 1.394 . S
C769 C770 1.516 1_455 S
C770 C769 1.516 1_655 S
C770 C771 1.502 1_655 S
C770 C772 1.561 . S
C770 C773 1.526 . S
C771 H755 0.959 . S
C771 H756 0.959 . S
C771 H757 0.961 . S
C771 C770 1.502 1_455 S
C772 H758 0.960 . S
C772 H759 0.961 . S
C772 H760 0.959 . S
C772 C770 1.561 . S
C773 C770 1.526 . S
C773 C774 1.396 . S
C773 C778 1.390 . S
C774 C768 1.465 1_655 S
C774 C773 1.396 . S
C774 C775 1.399 . S
C775 H761 0.929 . S
C775 C774 1.399 . S
C775 C776 1.385 . S
C776 H762 0.931 . S
C776 C775 1.385 . S
C776 C777 1.389 . S
C777 C776 1.389 . S
C777 C778 1.387 . S
C778 H763 0.930 . S
C778 C773 1.390 . S
C778 C777 1.387 . S
H779 C791 0.930 . S
H780 C793 0.930 . S
H781 C794 0.930 . S
H782 C798 0.959 . S
H783 C798 0.959 . S
H784 C798 0.961 . S
H785 C799 0.960 . S
H786 C799 0.961 . S
H787 C799 0.959 . S
H788 C802 0.929 . S
H789 C803 0.931 . S
H790 C805 0.930 . S
C791 H779 0.930 . S
C791 C792 1.399 . S
C791 C796 1.399 . S
C792 C791 1.399 . S
C792 C793 1.376 . S
C793 H780 0.930 . S
C793 C792 1.376 . S
C793 C794 1.388 1_655 S
C794 H781 0.930 . S
C794 C793 1.388 1_455 S
C794 C795 1.390 . S
C795 C794 1.390 . S
C795 C796 1.394 1_455 S
C795 C801 1.465 . S
C796 C791 1.399 . S
C796 C795 1.394 1_655 S
C796 C797 1.516 . S
C797 C796 1.516 . S
C797 C798 1.502 . S
C797 C799 1.561 1_655 S
C797 C800 1.526 1_655 S
C798 H782 0.959 . S
C798 H783 0.959 . S
C798 H784 0.961 . S
C798 C797 1.502 . S
C799 H785 0.960 . S
C799 H786 0.961 . S
C799 H787 0.959 . S
C799 C797 1.561 1_455 S
C800 C797 1.526 1_455 S
C800 C801 1.396 . S
C800 C805 1.390 . S
C801 C795 1.465 . S
C801 C800 1.396 . S
C801 C802 1.399 . S
C802 H788 0.929 . S
C802 C801 1.399 . S
C802 C803 1.385 . S
C803 H789 0.931 . S
C803 C802 1.385 . S
C803 C804 1.389 . S
C804 C803 1.389 . S
C804 C805 1.387 . S
C805 H790 0.930 . S
C805 C800 1.390 . S
C805 C804 1.387 . S
H806 C818 0.930 . S
H807 C820 0.930 1_455 S
H808 C821 0.930 . S
H809 C825 0.959 . S
H810 C825 0.959 . S
H811 C825 0.961 . S
H812 C826 0.960 . S
H813 C826 0.961 . S
H814 C826 0.959 . S
H815 C829 0.929 . S
H816 C830 0.931 . S
H817 C832 0.930 . S
C818 H806 0.930 . S
C818 C819 1.399 . S
C818 C823 1.399 . S
C819 C818 1.399 . S
C819 C820 1.376 . S
C820 H807 0.930 1_655 S
C820 C819 1.376 . S
C820 C821 1.388 1_655 S
C821 H808 0.930 . S
C821 C820 1.388 1_455 S
C821 C822 1.390 . S
C822 C821 1.390 . S
C822 C823 1.394 1_455 S
C822 C828 1.465 . S
C823 C818 1.399 . S
C823 C822 1.394 1_655 S
C823 C824 1.516 . S
C824 C823 1.516 . S
C824 C825 1.502 . S
C824 C826 1.561 1_655 S
C824 C827 1.526 1_655 S
C825 H809 0.959 . S
C825 H810 0.959 . S
C825 H811 0.961 . S
C825 C824 1.502 . S
C826 H812 0.960 . S
C826 H813 0.961 . S
C826 H814 0.959 . S
C826 C824 1.561 1_455 S
C827 C824 1.526 1_455 S
C827 C828 1.396 . S
C827 C832 1.390 . S
C828 C822 1.465 . S
C828 C827 1.396 . S
C828 C829 1.399 . S
C829 H815 0.929 . S
C829 C828 1.399 . S
C829 C830 1.385 . S
C830 H816 0.931 . S
C830 C829 1.385 . S
C830 C831 1.389 . S
C831 C830 1.389 . S
C831 C832 1.387 . S
C832 H817 0.930 . S
C832 C827 1.390 . S
C832 C831 1.387 . S
H833 C845 0.930 . S
H834 C847 0.930 1_455 S
H835 C848 0.930 . S
H836 C852 0.959 . S
H837 C852 0.959 . S
H838 C852 0.961 . S
H839 C853 0.960 . S
H840 C853 0.961 . S
H841 C853 0.959 . S
H842 C856 0.929 . S
H843 C857 0.931 . S
H844 C859 0.930 . S
C845 H833 0.930 . S
C845 C846 1.399 . S
C845 C850 1.399 . S
C846 C845 1.399 . S
C846 C847 1.376 . S
C847 H834 0.930 1_655 S
C847 C846 1.376 . S
C847 C848 1.388 1_655 S
C848 H835 0.930 . S
C848 C847 1.388 1_455 S
C848 C849 1.390 . S
C849 C848 1.390 . S
C849 C850 1.394 1_455 S
C849 C855 1.465 . S
C850 C845 1.399 . S
C850 C849 1.394 1_655 S
C850 C851 1.516 . S
C851 C850 1.516 . S
C851 C852 1.502 . S
C851 C853 1.561 1_655 S
C851 C854 1.526 1_655 S
C852 H836 0.959 . S
C852 H837 0.959 . S
C852 H838 0.961 . S
C852 C851 1.502 . S
C853 H839 0.960 . S
C853 H840 0.961 . S
C853 H841 0.959 . S
C853 C851 1.561 1_455 S
C854 C851 1.526 1_455 S
C854 C855 1.396 . S
C854 C859 1.390 . S
C855 C849 1.465 . S
C855 C854 1.396 . S
C855 C856 1.399 . S
C856 H842 0.929 . S
C856 C855 1.399 . S
C856 C857 1.385 . S
C857 H843 0.931 . S
C857 C856 1.385 . S
C857 C858 1.389 . S
C858 C857 1.389 . S
C858 C859 1.387 . S
C859 H844 0.930 . S
C859 C854 1.390 . S
C859 C858 1.387 . S
H860 C872 0.930 . S
H861 C874 0.930 . S
H862 C875 0.930 . S
H863 C879 0.959 . S
H864 C879 0.959 . S
H865 C879 0.961 . S
H866 C880 0.960 . S
H867 C880 0.961 . S
H868 C880 0.959 . S
H869 C883 0.929 . S
H870 C884 0.931 . S
H871 C886 0.930 . S
C872 H860 0.930 . S
C872 C873 1.399 . S
C872 C877 1.399 . S
C873 C872 1.399 . S
C873 C874 1.376 . S
C874 H861 0.930 . S
C874 C873 1.376 . S
C874 C875 1.388 . S
C875 H862 0.930 . S
C875 C874 1.388 . S
C875 C876 1.390 . S
C876 C875 1.390 . S
C876 C877 1.394 . S
C876 C882 1.465 . S
C877 C872 1.399 . S
C877 C876 1.394 . S
C877 C878 1.516 . S
C878 C877 1.516 . S
C878 C879 1.502 . S
C878 C880 1.561 . S
C878 C881 1.526 . S
C879 H863 0.959 . S
C879 H864 0.959 . S
C879 H865 0.961 . S
C879 C878 1.502 . S
C880 H866 0.960 . S
C880 H867 0.961 . S
C880 H868 0.959 . S
C880 C878 1.561 . S
C881 C878 1.526 . S
C881 C882 1.396 . S
C881 C886 1.390 . S
C882 C876 1.465 . S
C882 C881 1.396 . S
C882 C883 1.399 . S
C883 H869 0.929 . S
C883 C882 1.399 . S
C883 C884 1.385 . S
C884 H870 0.931 . S
C884 C883 1.385 . S
C884 C885 1.389 . S
C885 C884 1.389 . S
C885 C886 1.387 . S
C886 H871 0.930 . S
C886 C881 1.390 . S
C886 C885 1.387 . S
H887 C899 0.930 . S
H888 C901 0.930 . S
H889 C902 0.930 . S
H890 C906 0.959 . S
H891 C906 0.959 . S
H892 C906 0.961 . S
H893 C907 0.960 . S
H894 C907 0.961 . S
H895 C907 0.959 . S
H896 C910 0.929 . S
H897 C911 0.931 . S
H898 C913 0.930 . S
C899 H887 0.930 . S
C899 C900 1.399 . S
C899 C904 1.399 . S
C900 C899 1.399 . S
C900 C901 1.376 . S
C901 H888 0.930 . S
C901 C900 1.376 . S
C901 C902 1.388 . S
C902 H889 0.930 . S
C902 C901 1.388 . S
C902 C903 1.390 . S
C903 C902 1.390 . S
C903 C904 1.394 . S
C903 C909 1.465 . S
C904 C899 1.399 . S
C904 C903 1.394 . S
C904 C905 1.516 . S
C905 C904 1.516 . S
C905 C906 1.502 . S
C905 C907 1.561 . S
C905 C908 1.526 . S
C906 H890 0.959 . S
C906 H891 0.959 . S
C906 H892 0.961 . S
C906 C905 1.502 . S
C907 H893 0.960 . S
C907 H894 0.961 . S
C907 H895 0.959 . S
C907 C905 1.561 . S
C908 C905 1.526 . S
C908 C909 1.396 . S
C908 C913 1.390 . S
C909 C903 1.465 . S
C909 C908 1.396 . S
C909 C910 1.399 . S
C910 H896 0.929 . S
C910 C909 1.399 . S
C910 C911 1.385 . S
C911 H897 0.931 . S
C911 C910 1.385 . S
C911 C912 1.389 . S
C912 C911 1.389 . S
C912 C913 1.387 . S
C913 H898 0.930 . S
C913 C908 1.390 . S
C913 C912 1.387 . S
H914 C926 0.930 . S
H915 C928 0.930 . S
H916 C929 0.930 . S
H917 C933 0.959 . S
H918 C933 0.959 . S
H919 C933 0.961 . S
H920 C934 0.960 . S
H921 C934 0.961 . S
H922 C934 0.959 . S
H923 C937 0.929 . S
H924 C938 0.931 . S
H925 C940 0.930 . S
C926 H914 0.930 . S
C926 C927 1.399 . S
C926 C931 1.399 . S
C927 C926 1.399 . S
C927 C928 1.376 . S
C928 H915 0.930 . S
C928 C927 1.376 . S
C928 C929 1.388 . S
C929 H916 0.930 . S
C929 C928 1.388 . S
C929 C930 1.390 . S
C930 C929 1.390 . S
C930 C931 1.394 . S
C930 C936 1.465 . S
C931 C926 1.399 . S
C931 C930 1.394 . S
C931 C932 1.516 . S
C932 C931 1.516 . S
C932 C933 1.502 . S
C932 C934 1.561 . S
C932 C935 1.526 . S
C933 H917 0.959 . S
C933 H918 0.959 . S
C933 H919 0.961 . S
C933 C932 1.502 . S
C934 H920 0.960 . S
C934 H921 0.961 . S
C934 H922 0.959 . S
C934 C932 1.561 . S
C935 C932 1.526 . S
C935 C936 1.396 . S
C935 C940 1.390 . S
C936 C930 1.465 . S
C936 C935 1.396 . S
C936 C937 1.399 . S
C937 H923 0.929 . S
C937 C936 1.399 . S
C937 C938 1.385 . S
C938 H924 0.931 . S
C938 C937 1.385 . S
C938 C939 1.389 . S
C939 C938 1.389 . S
C939 C940 1.387 . S
C940 H925 0.930 . S
C940 C935 1.390 . S
C940 C939 1.387 . S
H941 C953 0.930 . S
H942 C955 0.930 . S
H943 C956 0.930 . S
H944 C960 0.959 . S
H945 C960 0.959 . S
H946 C960 0.961 . S
H947 C961 0.960 . S
H948 C961 0.961 . S
H949 C961 0.959 . S
H950 C964 0.929 . S
H951 C965 0.931 . S
H952 C967 0.930 . S
C953 H941 0.930 . S
C953 C954 1.399 . S
C953 C958 1.399 . S
C954 C953 1.399 . S
C954 C955 1.376 . S
C955 H942 0.930 . S
C955 C954 1.376 . S
C955 C956 1.388 . S
C956 H943 0.930 . S
C956 C955 1.388 . S
C956 C957 1.390 . S
C957 C956 1.390 . S
C957 C958 1.394 . S
C957 C963 1.465 . S
C958 C953 1.399 . S
C958 C957 1.394 . S
C958 C959 1.516 . S
C959 C958 1.516 . S
C959 C960 1.502 . S
C959 C961 1.561 . S
C959 C962 1.526 . S
C960 H944 0.959 . S
C960 H945 0.959 . S
C960 H946 0.961 . S
C960 C959 1.502 . S
C961 H947 0.960 . S
C961 H948 0.961 . S
C961 H949 0.959 . S
C961 C959 1.561 . S
C962 C959 1.526 . S
C962 C963 1.396 . S
C962 C967 1.390 . S
C963 C957 1.465 . S
C963 C962 1.396 . S
C963 C964 1.399 . S
C964 H950 0.929 . S
C964 C963 1.399 . S
C964 C965 1.385 . S
C965 H951 0.931 . S
C965 C964 1.385 . S
C965 C966 1.389 . S
C966 C965 1.389 . S
C966 C967 1.387 . S
C967 H952 0.930 . S
C967 C962 1.390 . S
C967 C966 1.387 . S
C333 C11 2.327 . S
C345 C2 2.291 . S
C360 C51 2.333 . S
C372 C42 2.292 . S
C387 C91 2.330 . S
C399 C82 2.297 . S
C414 C131 2.326 . S
C426 C122 2.291 . S
C441 C171 2.334 . S
C453 C162 2.289 . S
C468 C202 2.301 . S
C480 C211 2.313 . S
C495 C251 2.317 . S
C507 C242 2.312 . S
C522 C282 2.318 . S
C534 C291 2.298 . S
C549 C56 2.650 . S
C561 C7 2.630 . S
C576 C127 2.652 . S
C588 C96 2.626 . S
C603 C167 2.622 . S
C615 C216 2.636 . S
C630 C256 2.602 . S
C642 C287 2.662 . S
C657 C16 1.816 . S
C669 C207 1.869 . S
C684 C176 1.874 . S
C696 C47 1.823 . S
C711 C87 1.862 . S
C723 C296 1.839 . S
C738 C136 1.827 . S
C750 C247 1.870 . S
C765 C10 1.497 . S
C777 C130 1.501 . S
C792 C50 1.561 . S
C804 C90 1.577 . S
C819 C59 1.436 . S
C831 C99 1.440 . S
C846 C139 1.606 . S
C858 C19 1.636 . S
C873 C170 1.489 . S
C885 C290 1.501 . S
C900 C210 1.636 . S
C912 C250 1.620 . S
C927 C219 1.433 . S
C939 C259 1.437 . S
C954 C299 1.574 . S
C966 C179 1.568 . S
