# Generated by pormake.
# Topology xfe, (7)-cn, num edge types: 1
# Building blocks:
#     Node 0, Type 0, BuildingBlock: NUHQUE_clean_sbu_2, # of connection points: 7
#     Node 1, Type 0, BuildingBlock: NUHQUE_clean_sbu_2, # of connection points: 7
#     Node 2, Type 0, BuildingBlock: NUHQUE_clean_sbu_2, # of connection points: 7
#     Node 3, Type 0, BuildingBlock: NUHQUE_clean_sbu_2, # of connection points: 7
#     Node 4, Type 0, BuildingBlock: NUHQUE_clean_sbu_2, # of connection points: 7
#     Node 5, Type 0, BuildingBlock: NUHQUE_clean_sbu_2, # of connection points: 7
#     Node 6, Type 0, BuildingBlock: NUHQUE_clean_sbu_2, # of connection points: 7
#     Node 7, Type 0, BuildingBlock: NUHQUE_clean_sbu_2, # of connection points: 7
#     Node 8, Type 0, BuildingBlock: NUHQUE_clean_sbu_2, # of connection points: 7
#     Node 9, Type 0, BuildingBlock: NUHQUE_clean_sbu_2, # of connection points: 7
#     Node 10, Type 0, BuildingBlock: NUHQUE_clean_sbu_2, # of connection points: 7
#     Node 11, Type 0, BuildingBlock: NUHQUE_clean_sbu_2, # of connection points: 7
#     Node 12, Type 0, BuildingBlock: NUHQUE_clean_sbu_2, # of connection points: 7
#     Node 13, Type 0, BuildingBlock: NUHQUE_clean_sbu_2, # of connection points: 7
#     Node 14, Type 0, BuildingBlock: NUHQUE_clean_sbu_2, # of connection points: 7
#     Node 15, Type 0, BuildingBlock: NUHQUE_clean_sbu_2, # of connection points: 7
#     Edge 16, Type (0, 0), BuildingBlock: TEMPAE_clean_linker_10, # of connection points: 2
#     Edge 17, Type (0, 0), BuildingBlock: TEMPAE_clean_linker_10, # of connection points: 2
#     Edge 18, Type (0, 0), BuildingBlock: TEMPAE_clean_linker_10, # of connection points: 2
#     Edge 19, Type (0, 0), BuildingBlock: TEMPAE_clean_linker_10, # of connection points: 2
#     Edge 20, Type (0, 0), BuildingBlock: TEMPAE_clean_linker_10, # of connection points: 2
#     Edge 21, Type (0, 0), BuildingBlock: TEMPAE_clean_linker_10, # of connection points: 2
#     Edge 22, Type (0, 0), BuildingBlock: TEMPAE_clean_linker_10, # of connection points: 2
#     Edge 23, Type (0, 0), BuildingBlock: TEMPAE_clean_linker_10, # of connection points: 2
#     Edge 24, Type (0, 0), BuildingBlock: TEMPAE_clean_linker_10, # of connection points: 2
#     Edge 25, Type (0, 0), BuildingBlock: TEMPAE_clean_linker_10, # of connection points: 2
#     Edge 26, Type (0, 0), BuildingBlock: TEMPAE_clean_linker_10, # of connection points: 2
#     Edge 27, Type (0, 0), BuildingBlock: TEMPAE_clean_linker_10, # of connection points: 2
#     Edge 28, Type (0, 0), BuildingBlock: TEMPAE_clean_linker_10, # of connection points: 2
#     Edge 29, Type (0, 0), BuildingBlock: TEMPAE_clean_linker_10, # of connection points: 2
#     Edge 30, Type (0, 0), BuildingBlock: TEMPAE_clean_linker_10, # of connection points: 2
#     Edge 31, Type (0, 0), BuildingBlock: TEMPAE_clean_linker_10, # of connection points: 2
#     Edge 32, Type (0, 0), BuildingBlock: TEMPAE_clean_linker_10, # of connection points: 2
#     Edge 33, Type (0, 0), BuildingBlock: TEMPAE_clean_linker_10, # of connection points: 2
#     Edge 34, Type (0, 0), BuildingBlock: TEMPAE_clean_linker_10, # of connection points: 2
#     Edge 35, Type (0, 0), BuildingBlock: TEMPAE_clean_linker_10, # of connection points: 2
#     Edge 36, Type (0, 0), BuildingBlock: TEMPAE_clean_linker_10, # of connection points: 2
#     Edge 37, Type (0, 0), BuildingBlock: TEMPAE_clean_linker_10, # of connection points: 2
#     Edge 38, Type (0, 0), BuildingBlock: TEMPAE_clean_linker_10, # of connection points: 2
#     Edge 39, Type (0, 0), BuildingBlock: TEMPAE_clean_linker_10, # of connection points: 2
#     Edge 40, Type (0, 0), BuildingBlock: TEMPAE_clean_linker_10, # of connection points: 2
#     Edge 41, Type (0, 0), BuildingBlock: TEMPAE_clean_linker_10, # of connection points: 2
#     Edge 42, Type (0, 0), BuildingBlock: TEMPAE_clean_linker_10, # of connection points: 2
#     Edge 43, Type (0, 0), BuildingBlock: TEMPAE_clean_linker_10, # of connection points: 2
#     Edge 44, Type (0, 0), BuildingBlock: TEMPAE_clean_linker_10, # of connection points: 2
#     Edge 45, Type (0, 0), BuildingBlock: TEMPAE_clean_linker_10, # of connection points: 2
#     Edge 46, Type (0, 0), BuildingBlock: TEMPAE_clean_linker_10, # of connection points: 2
#     Edge 47, Type (0, 0), BuildingBlock: TEMPAE_clean_linker_10, # of connection points: 2
#     Edge 48, Type (0, 0), BuildingBlock: TEMPAE_clean_linker_10, # of connection points: 2
#     Edge 49, Type (0, 0), BuildingBlock: TEMPAE_clean_linker_10, # of connection points: 2
#     Edge 50, Type (0, 0), BuildingBlock: TEMPAE_clean_linker_10, # of connection points: 2
#     Edge 51, Type (0, 0), BuildingBlock: TEMPAE_clean_linker_10, # of connection points: 2
#     Edge 52, Type (0, 0), BuildingBlock: TEMPAE_clean_linker_10, # of connection points: 2
#     Edge 53, Type (0, 0), BuildingBlock: TEMPAE_clean_linker_10, # of connection points: 2
#     Edge 54, Type (0, 0), BuildingBlock: TEMPAE_clean_linker_10, # of connection points: 2
#     Edge 55, Type (0, 0), BuildingBlock: TEMPAE_clean_linker_10, # of connection points: 2
#     Edge 56, Type (0, 0), BuildingBlock: TEMPAE_clean_linker_10, # of connection points: 2
#     Edge 57, Type (0, 0), BuildingBlock: TEMPAE_clean_linker_10, # of connection points: 2
#     Edge 58, Type (0, 0), BuildingBlock: TEMPAE_clean_linker_10, # of connection points: 2
#     Edge 59, Type (0, 0), BuildingBlock: TEMPAE_clean_linker_10, # of connection points: 2
#     Edge 60, Type (0, 0), BuildingBlock: TEMPAE_clean_linker_10, # of connection points: 2
#     Edge 61, Type (0, 0), BuildingBlock: TEMPAE_clean_linker_10, # of connection points: 2
#     Edge 62, Type (0, 0), BuildingBlock: TEMPAE_clean_linker_10, # of connection points: 2
#     Edge 63, Type (0, 0), BuildingBlock: TEMPAE_clean_linker_10, # of connection points: 2
#     Edge 64, Type (0, 0), BuildingBlock: TEMPAE_clean_linker_10, # of connection points: 2
#     Edge 65, Type (0, 0), BuildingBlock: TEMPAE_clean_linker_10, # of connection points: 2
#     Edge 66, Type (0, 0), BuildingBlock: TEMPAE_clean_linker_10, # of connection points: 2
#     Edge 67, Type (0, 0), BuildingBlock: TEMPAE_clean_linker_10, # of connection points: 2
#     Edge 68, Type (0, 0), BuildingBlock: TEMPAE_clean_linker_10, # of connection points: 2
#     Edge 69, Type (0, 0), BuildingBlock: TEMPAE_clean_linker_10, # of connection points: 2
#     Edge 70, Type (0, 0), BuildingBlock: TEMPAE_clean_linker_10, # of connection points: 2
#     Edge 71, Type (0, 0), BuildingBlock: TEMPAE_clean_linker_10, # of connection points: 2
# Relax obj value: 0.213
# Max RMSD: 0.239
# Mean RMSD: 0.239
data_MOF--net-xfe--node1-NUHQUE_clean_sbu_2--edge1-TEMPAE_clean_linker_10
_symmetry_space_group_name_H-M    P1
_symmetry_Int_Tables_number       1
_symmetry_cell_setting            triclinic
loop_
_symmetry_equiv_pos_as_xyz
'x, y, z'
_cell_length_a     39.635677
_cell_length_b     39.683556
_cell_length_c     49.904091
_cell_angle_alpha  89.792681
_cell_angle_beta   90.054648
_cell_angle_gamma 89.897001
loop_
_atom_site_label
_atom_site_type_symbol
_atom_site_fract_x
_atom_site_fract_y
_atom_site_fract_z
_atom_type_partial_charge
O0 O 0.05407 0.09412 0.08721 0.0
Tb1 Tb 1.00989 0.08874 0.11349 0.0
Eu2 Eu 1.00087 0.07927 0.18285 0.0
C3 C 0.08277 0.10605 0.09675 0.0
O4 O 0.08728 0.10666 0.12282 0.0
C5 C 1.01685 0.14945 0.15606 0.0
O6 O 0.97641 0.07025 0.22244 0.0
C7 C 0.06085 0.05457 0.18944 0.0
C8 C 0.94475 0.06138 0.22464 0.0
O9 O 0.9246 0.06457 0.20388 0.0
C10 C 0.96988 0.02956 0.13893 0.0
C11 C 0.08334 0.02518 0.19369 0.0
C12 C 0.10789 1.0203 0.17405 0.0
C13 C 0.13388 0.99737 0.17807 0.0
C14 C 0.13513 0.97784 0.20128 0.0
C15 C 0.1106 0.98118 0.22112 0.0
C16 C 0.08446 1.00532 0.21756 0.0
O17 O 0.02915 0.13238 0.13566 0.0
O18 O 0.99921 0.13489 0.1751 0.0
O19 O 0.98442 0.09688 0.07532 0.0
O20 O 0.95914 0.10998 0.11156 0.0
C21 C 0.95673 0.10882 0.08553 0.0
O22 O 0.96363 0.04766 0.16031 0.0
O23 O 0.99659 0.03622 0.12383 0.0
O24 O 0.04206 0.06498 0.20937 0.0
O25 O 0.04717 0.05926 0.16557 0.0
H26 H 0.10771 0.03547 0.1559 0.0
H27 H 0.1553 0.95951 0.20381 0.0
H28 H 0.06597 1.00903 0.23324 0.0
O29 O 0.22516 0.77937 0.33372 0.0
Tb30 Tb 0.23052 0.73353 0.35812 0.0
Eu31 Eu 0.24196 0.72628 0.42725 0.0
C32 C 0.21047 0.8063 0.34398 0.0
O33 O 0.2067 0.808 0.37009 0.0
C34 C 0.16941 0.74361 0.40212 0.0
O35 O 0.24837 0.6995 0.46636 0.0
C36 C 0.27603 0.78059 0.43484 0.0
C37 C 0.2572 0.66772 0.46762 0.0
O38 O 0.25244 0.64833 0.4467 0.0
C39 C 0.28891 0.69323 0.38347 0.0
C40 C 0.29587 0.81132 0.43977 0.0
C41 C 0.29276 0.83801 0.42161 0.0
C42 C 0.31043 0.86789 0.42571 0.0
C43 C 0.33158 0.87119 0.44798 0.0
C44 C 0.33573 0.84472 0.46615 0.0
C45 C 0.31757 0.81457 0.46224 0.0
O46 O 0.18314 0.74679 0.37816 0.0
O47 O 0.1861 0.73348 0.42349 0.0
O48 O 0.22328 0.70941 0.31938 0.0
O49 O 0.21243 0.68196 0.35525 0.0
C50 C 0.21307 0.68077 0.3292 0.0
O51 O 0.2688 0.68647 0.40359 0.0
O52 O 0.28306 0.72035 0.36863 0.0
O53 O 0.26747 0.76039 0.45451 0.0
O54 O 0.26547 0.77168 0.41076 0.0
H55 H 0.27675 0.83557 0.40408 0.0
H56 H 0.34647 0.89392 0.45043 0.0
H57 H 0.32073 0.79383 0.4762 0.0
O58 O 0.53737 0.95643 0.58255 0.0
Tb59 Tb 0.58187 0.96138 0.6086 0.0
Eu60 Eu 0.59198 0.97393 0.67726 0.0
C61 C 0.51 0.94072 0.59104 0.0
O62 O 0.5064 0.93476 0.61676 0.0
C63 C 0.57337 0.90142 0.65345 0.0
O64 O 0.61805 0.97936 0.71662 0.0
C65 C 0.53686 1.00735 0.68433 0.0
C66 C 0.64989 0.98781 0.71798 0.0
O67 O 0.66908 0.98412 0.69676 0.0
C68 C 0.62278 1.02013 0.6325 0.0
C69 C 0.5055 0.02671 0.68873 0.0
C70 C 0.47921 0.02269 0.67032 0.0
C71 C 0.44909 0.04032 0.67347 0.0
C72 C 0.44508 0.06228 0.69504 0.0
C73 C 0.47148 0.06843 0.713 0.0
C74 C 0.50168 0.0497 0.71032 0.0
O75 O 0.56662 0.91538 0.62997 0.0
O76 O 0.58665 0.91791 0.67368 0.0
O77 O 0.6074 0.95651 0.57019 0.0
O78 O 0.63257 0.94031 0.60578 0.0
C79 C 0.63504 0.94365 0.57989 0.0
O80 O 0.63105 1.00133 0.65306 0.0
O81 O 0.59476 1.01378 0.61901 0.0
O82 O 0.55778 1.00063 0.70399 0.0
O83 O 0.54548 0.99519 0.6607 0.0
H84 H 0.48227 1.00632 0.65313 0.0
H85 H 0.42186 0.07666 0.69672 0.0
H86 H 0.52238 0.05402 0.72407 0.0
O87 O 0.3681 0.27185 0.83107 0.0
Tb88 Tb 0.36105 0.31089 0.8612 0.0
Eu89 Eu 0.34849 0.31676 0.92969 0.0
C90 C 0.3707 0.23974 0.83742 0.0
O91 O 0.363 0.22969 0.86173 0.0
C92 C 0.41758 0.29868 0.90413 0.0
O93 O 0.33844 0.34344 0.96797 0.0
C94 C 0.32458 0.2568 0.93733 0.0
C95 C 0.33247 0.37587 0.96858 0.0
O96 O 0.33982 0.39446 0.94755 0.0
C97 C 0.29901 0.34853 0.8848 0.0
C98 C 0.2954 0.23438 0.94248 0.0
C99 C 0.28977 0.20952 0.92324 0.0
C100 C 0.26706 0.18362 0.92811 0.0
C101 C 0.2484 0.18292 0.95172 0.0
C102 C 0.25265 0.20758 0.97126 0.0
C103 C 0.27658 0.2336 0.96684 0.0
O104 O 0.39858 0.28439 0.88577 0.0
O105 O 0.40402 0.31884 0.92186 0.0
O106 O 0.37541 0.33871 0.8255 0.0
O107 O 0.38417 0.36089 0.86376 0.0
C108 C 0.38682 0.36505 0.83788 0.0
O109 O 0.31565 0.35326 0.90722 0.0
O110 O 0.30767 0.32399 0.86818 0.0
O111 O 0.33594 0.2757 0.95687 0.0
O112 O 0.32797 0.27035 0.91326 0.0
H113 H 0.30433 0.20928 0.90482 0.0
H114 H 0.23029 0.16279 0.95494 0.0
H115 H 0.28104 0.25219 0.98227 0.0
O116 O 0.04272 0.94584 0.90095 0.0
Tb117 Tb 0.99656 0.95441 0.87779 0.0
Eu118 Eu 1.00416 0.97182 0.80817 0.0
C119 C 0.06792 0.92858 0.89059 0.0
O120 O 0.06752 0.922 0.86486 0.0
C121 C 1.0118 0.89718 0.83307 0.0
O122 O 0.97741 0.97126 0.76877 0.0
C123 C 0.05545 1.00969 0.79942 0.0
C124 C 0.94494 0.97717 0.7672 0.0
O125 O 0.92597 0.97174 0.78833 0.0
C126 C 0.96526 1.01622 0.85063 0.0
C127 C 0.08475 0.03139 0.79432 0.0
C128 C 0.11033 0.03207 0.81358 0.0
C129 C 0.13985 0.04999 0.80877 0.0
C130 C 0.14386 0.06774 0.78481 0.0
C131 C 0.1185 0.06796 0.76539 0.0
C132 C 0.08863 0.04967 0.77008 0.0
O133 O 0.99776 0.90671 0.85578 0.0
O134 O 1.02012 0.91814 0.81377 0.0
O135 O 0.97376 0.94756 0.91726 0.0
O136 O 0.94287 0.94535 0.8823 0.0
C137 C 0.94324 0.94332 0.90828 0.0
O138 O 0.96128 0.99823 0.82892 0.0
O139 O 0.9893 1.00785 0.86769 0.0
O140 O 0.03638 0.9985 0.77992 0.0
O141 O 0.04647 1.00053 0.82386 0.0
H142 H 0.10756 1.01838 0.8323 0.0
H143 H 0.16638 0.08281 0.78173 0.0
H144 H 0.0689 0.04948 0.75504 0.0
O145 O 0.37358 0.76462 0.1499 0.0
Tb146 Tb 0.36637 0.71895 0.12628 0.0
Eu147 Eu 0.34654 0.73478 0.05753 0.0
C148 C 0.39112 0.79002 0.14021 0.0
O149 O 0.39944 0.78985 0.11479 0.0
C150 C 0.4231 0.73494 0.08135 0.0
O151 O 0.34266 0.70885 0.01818 0.0
C152 C 0.3165 0.79153 0.04958 0.0
C153 C 0.33816 0.67624 0.01682 0.0
O154 O 0.34647 0.65722 0.0374 0.0
C155 C 0.30053 0.69318 0.09943 0.0
C156 C 0.28762 0.81388 0.04424 0.0
C157 C 0.28297 0.83987 0.06257 0.0
C158 C 0.26053 0.86585 0.0571 0.0
C159 C 0.24151 0.86572 0.03363 0.0
C160 C 0.24486 0.83962 0.01515 0.0
C161 C 0.2683 0.81344 0.02024 0.0
O162 O 0.41377 0.72046 0.10394 0.0
O163 O 0.40196 0.74451 0.06251 0.0
O164 O 0.3759 0.69619 0.1654 0.0
O165 O 0.37351 0.665 0.1307 0.0
C166 C 0.37792 0.66549 0.15649 0.0
O167 O 0.3137 0.69387 0.07533 0.0
O168 O 0.31237 0.7126 0.1186 0.0
O169 O 0.32836 0.77297 0.03003 0.0
O170 O 0.32116 0.7789 0.07385 0.0
H171 H 0.29787 0.84074 0.08083 0.0
H172 H 0.22345 0.88583 0.02995 0.0
H173 H 0.27192 0.7937 0.00558 0.0
O174 O 0.54746 0.10638 0.39773 0.0
Tb175 Tb 0.59591 0.0941 0.37896 0.0
Eu176 Eu 0.57751 0.06994 0.31162 0.0
C177 C 0.54066 0.13834 0.40272 0.0
O178 O 0.56291 0.16122 0.39575 0.0
C179 C 0.57613 0.145 0.33382 0.0
O180 O 0.60527 0.07335 0.27272 0.0
C181 C 0.52737 0.0315 0.30108 0.0
C182 C 0.63801 0.06876 0.27183 0.0
O183 O 0.65606 0.07502 0.29333 0.0
C184 C 0.62184 0.02749 0.35423 0.0
C185 C 0.49872 1.00952 0.29504 0.0
C186 C 0.47128 1.00993 0.31254 0.0
C187 C 0.44232 0.9917 0.30654 0.0
C188 C 0.44072 0.97251 0.28319 0.0
C189 C 0.46824 0.9709 0.26578 0.0
C190 C 0.49746 0.98967 0.27158 0.0
O191 O 0.60034 0.13525 0.35005 0.0
O192 O 0.55926 0.12285 0.31973 0.0
O193 O 0.61642 0.10698 0.41831 0.0
O194 O 0.64957 0.10001 0.38513 0.0
C195 C 0.64771 0.10683 0.41046 0.0
O196 O 0.62068 0.04047 0.33003 0.0
O197 O 0.60286 0.03978 0.37357 0.0
O198 O 0.54543 0.04555 0.2821 0.0
O199 O 0.53641 0.03845 0.32593 0.0
H200 H 0.47221 0.02469 0.33079 0.0
H201 H 0.41856 0.95726 0.27926 0.0
H202 H 0.51884 0.98883 0.25808 0.0
O203 O 0.23109 0.26818 0.65332 0.0
Tb204 Tb 0.23533 0.31254 0.62752 0.0
Eu205 Eu 0.24603 0.31666 0.55925 0.0
C206 C 0.22048 0.23955 0.643 0.0
O207 O 0.22066 0.23598 0.61685 0.0
C208 C 0.17451 0.30164 0.58486 0.0
O209 O 0.25456 0.34355 0.52084 0.0
C210 C 0.27325 0.25808 0.55196 0.0
C211 C 0.2577 0.37632 0.52005 0.0
O212 O 0.24813 0.39428 0.54077 0.0
C213 C 0.29537 0.3502 0.60199 0.0
C214 C 0.30264 0.23589 0.5469 0.0
C215 C 0.30612 0.20852 0.56438 0.0
C216 C 0.32904 0.18295 0.5589 0.0
C217 C 0.34997 0.18497 0.53658 0.0
C218 C 0.34828 0.2125 0.51917 0.0
C219 C 0.32403 0.23814 0.52399 0.0
O220 O 0.19012 0.29342 0.60727 0.0
O221 O 0.18998 0.31643 0.56479 0.0
O222 O 0.22635 0.33859 0.6652 0.0
O223 O 0.21519 0.36364 0.62825 0.0
C224 C 0.2153 0.36631 0.65427 0.0
O225 O 0.27704 0.35556 0.58054 0.0
O226 O 0.28829 0.32448 0.61794 0.0
O227 O 0.26166 0.27683 0.53228 0.0
O228 O 0.26879 0.27107 0.57605 0.0
H229 H 0.2899 0.20627 0.58182 0.0
H230 H 0.36828 0.16509 0.53299 0.0
H231 H 0.32166 0.25907 0.51014 0.0
O232 O 0.87228 0.27588 0.65391 0.0
Tb233 Tb 0.86653 0.23157 0.62834 0.0
Eu234 Eu 0.85365 0.23036 0.55855 0.0
C235 C 0.88371 0.30424 0.64347 0.0
O236 O 0.88411 0.30765 0.61728 0.0
C237 C 0.92634 0.24261 0.58458 0.0
O238 O 0.84863 0.20003 0.52148 0.0
C239 C 0.8283 0.28872 0.5461 0.0
C240 C 0.84453 0.16738 0.52302 0.0
O241 O 0.85159 0.15183 0.54564 0.0
C242 C 0.80264 0.19905 0.60268 0.0
C243 C 0.79735 0.30911 0.54137 0.0
C244 C 0.78841 0.33194 0.56147 0.0
C245 C 0.76336 0.35582 0.55697 0.0
C246 C 0.74573 0.3565 0.53288 0.0
C247 C 0.75345 0.33399 0.51242 0.0
C248 C 0.77964 0.31009 0.51646 0.0
O249 O 0.91193 0.24903 0.60776 0.0
O250 O 0.90994 0.22981 0.56412 0.0
O251 O 0.87623 0.20526 0.66593 0.0
O252 O 0.88347 0.17932 0.6289 0.0
C253 C 0.88476 0.17682 0.65493 0.0
O254 O 0.81803 0.19487 0.57965 0.0
O255 O 0.81296 0.22194 0.62005 0.0
O256 O 0.83705 0.2663 0.52812 0.0
O257 O 0.83554 0.27958 0.57097 0.0
H258 H 0.80208 0.33242 0.58032 0.0
H259 H 0.72594 0.37513 0.52991 0.0
H260 H 0.78667 0.29335 0.5003 0.0
O261 O 0.72021 0.77466 0.15435 0.0
Tb262 Tb 0.72676 0.82056 0.1306 0.0
Eu263 Eu 0.74313 0.81394 0.06089 0.0
C264 C 0.7047 0.74852 0.14382 0.0
O265 O 0.69913 0.74824 0.1179 0.0
C266 C 0.66832 0.80413 0.08591 0.0
O267 O 0.74326 0.8422 0.02218 0.0
C268 C 0.78035 0.76241 0.05088 0.0
C269 C 0.74774 0.87488 0.02163 0.0
O270 O 0.74049 0.89264 0.04302 0.0
C271 C 0.78851 0.85239 0.10338 0.0
C272 C 0.80174 0.73302 0.04499 0.0
C273 C 0.80033 0.70558 0.06255 0.0
C274 C 0.81759 0.67596 0.05664 0.0
C275 C 0.83692 0.67369 0.03335 0.0
C276 C 0.83959 0.70102 0.0158 0.0
C277 C 0.82177 0.73096 0.02151 0.0
O278 O 0.67854 0.81414 0.10978 0.0
O279 O 0.68857 0.80023 0.06528 0.0
O280 O 0.71884 0.8447 0.16934 0.0
O281 O 0.71426 0.87378 0.13346 0.0
C282 C 0.71241 0.87444 0.15946 0.0
O283 O 0.77034 0.8562 0.08165 0.0
O284 O 0.78019 0.82879 0.12082 0.0
O285 O 0.76927 0.78247 0.03188 0.0
O286 O 0.77122 0.77034 0.07554 0.0
H287 H 0.78546 0.70698 0.08076 0.0
H288 H 0.85142 0.65096 0.02952 0.0
H289 H 0.82335 0.7522 0.00787 0.0
O290 O 0.72291 0.2809 0.83678 0.0
Tb291 Tb 0.72795 0.23611 0.86234 0.0
Eu292 Eu 0.73734 0.2281 0.93113 0.0
C293 C 0.71171 0.30943 0.84705 0.0
O294 O 0.71159 0.31294 0.8732 0.0
C295 C 0.66682 0.24268 0.90474 0.0
O296 O 0.75092 0.20375 0.96993 0.0
C297 C 0.76118 0.28838 0.93617 0.0
C298 C 0.75843 0.1717 0.97166 0.0
O299 O 0.75041 0.1514 0.95194 0.0
C300 C 0.78756 0.19692 0.88762 0.0
C301 C 0.79098 0.30995 0.94103 0.0
C302 C 0.79768 0.33393 0.9212 0.0
C303 C 0.8213 0.35906 0.92561 0.0
C304 C 0.83983 0.35982 0.94929 0.0
C305 C 0.83453 0.33594 0.96939 0.0
C306 C 0.80967 0.31073 0.96548 0.0
O307 O 0.68378 0.25487 0.8842 0.0
O308 O 0.68163 0.22541 0.92394 0.0
O309 O 0.71914 0.21111 0.82418 0.0
O310 O 0.70813 0.18493 0.86059 0.0
C311 C 0.70843 0.18297 0.83453 0.0
O312 O 0.76892 0.19067 0.90874 0.0
O313 O 0.78072 0.2233 0.87219 0.0
O314 O 0.74868 0.27114 0.95632 0.0
O315 O 0.75843 0.27322 0.91275 0.0
H316 H 0.78332 0.3341 0.90266 0.0
H317 H 0.85865 0.37938 0.95212 0.0
H318 H 0.80445 0.29277 0.98132 0.0
O319 O 0.8725 0.77051 0.32966 0.0
Tb320 Tb 0.86472 0.80885 0.36025 0.0
Eu321 Eu 0.84937 0.81499 0.42771 0.0
C322 C 0.8741 0.73818 0.33548 0.0
O323 O 0.86542 0.72767 0.35946 0.0
C324 C 0.91939 0.79707 0.40397 0.0
O325 O 0.8363 0.84057 0.46581 0.0
C326 C 0.8268 0.75436 0.4345 0.0
C327 C 0.83058 0.87299 0.46678 0.0
O328 O 0.84036 0.8925 0.44697 0.0
C329 C 0.80068 0.84592 0.38193 0.0
C330 C 0.79783 0.73169 0.43966 0.0
C331 C 0.79303 0.70611 0.42088 0.0
C332 C 0.77004 0.68042 0.4257 0.0
C333 C 0.75045 0.68051 0.44885 0.0
C334 C 0.75375 0.70603 0.46781 0.0
C335 C 0.77792 0.73184 0.46346 0.0
O336 O 0.90061 0.78199 0.38592 0.0
O337 O 0.90533 0.81802 0.4209 0.0
O338 O 0.88198 0.83714 0.32569 0.0
O339 O 0.88685 0.85906 0.36447 0.0
C340 C 0.89174 0.86353 0.33885 0.0
O341 O 0.8153 0.85075 0.40522 0.0
O342 O 0.81117 0.82226 0.36517 0.0
O343 O 0.83826 0.7729 0.45423 0.0
O344 O 0.82958 0.76857 0.41063 0.0
H345 H 0.80822 0.70535 0.40279 0.0
H346 H 0.73212 0.66057 0.45202 0.0
H347 H 0.78152 0.75119 0.47844 0.0
O348 O 0.55344 0.59733 0.58586 0.0
Tb349 Tb 0.50892 0.59182 0.6118 0.0
Eu350 Eu 0.50524 0.58074 0.68239 0.0
C351 C 0.58107 0.61196 0.59501 0.0
O352 O 0.58456 0.616 0.62097 0.0
C353 C 0.51775 0.65272 0.65544 0.0
O354 O 0.48076 0.56967 0.72169 0.0
C355 C 0.56464 0.55463 0.68877 0.0
C356 C 0.44876 0.56207 0.72387 0.0
O357 O 0.42832 0.56797 0.70366 0.0
C358 C 0.47267 0.53132 0.63884 0.0
C359 C 0.58442 0.5235 0.6938 0.0
C360 C 0.60695 0.51419 0.67362 0.0
C361 C 0.63061 0.48897 0.67815 0.0
C362 C 0.63119 0.47145 0.70234 0.0
C363 C 0.60885 0.47952 0.72288 0.0
C364 C 0.58526 0.50598 0.71883 0.0
O365 O 0.5245 0.63794 0.63242 0.0
O366 O 0.50484 0.63673 0.67616 0.0
O367 O 0.48347 0.599 0.57343 0.0
O368 O 0.45686 0.6096 0.60958 0.0
C369 C 0.45492 0.60896 0.58353 0.0
O370 O 0.46711 0.54938 0.66038 0.0
O371 O 0.49804 0.53899 0.62267 0.0
O372 O 0.54692 0.56714 0.70857 0.0
O373 O 0.5506 0.55887 0.66496 0.0
H374 H 0.60739 0.52781 0.65472 0.0
H375 H 0.64969 0.45154 0.70535 0.0
H376 H 0.56865 0.51332 0.73502 0.0
O377 O 0.0349 0.45033 0.08082 0.0
Tb378 Tb 0.07931 0.45672 0.1065 0.0
Eu379 Eu 0.08457 0.47101 0.17516 0.0
C380 C 1.00651 0.43874 0.09114 0.0
O381 O 1.00281 0.43871 0.11728 0.0
C382 C 0.07176 0.39825 0.15141 0.0
O383 O 0.10984 0.48296 0.2137 0.0
C384 C 0.02397 0.49394 0.18127 0.0
C385 C 0.14242 0.48775 0.21494 0.0
O386 O 0.16137 0.47899 0.19453 0.0
C387 C 0.11572 0.51934 0.13001 0.0
C388 C 0.99865 0.52092 0.185 0.0
C389 C 0.97151 0.52009 0.16718 0.0
C390 C 0.94377 0.54085 0.17095 0.0
C391 C 0.9432 0.56366 0.19208 0.0
C392 C 0.97074 0.56701 0.20945 0.0
C393 C 0.9985 0.5446 0.20646 0.0
O394 O 0.06145 0.41302 0.12921 0.0
O395 O 0.08746 0.41477 0.17048 0.0
O396 O 0.10491 0.44635 0.06885 0.0
O397 O 0.13124 0.43871 0.10577 0.0
C398 C 0.1334 0.43746 0.07975 0.0
O399 O 0.12124 0.50402 0.15292 0.0
O400 O 0.0907 0.51004 0.11411 0.0
O401 O 0.04337 0.48527 0.20147 0.0
O402 O 0.03762 0.48928 0.15742 0.0
H403 H 0.97151 0.5026 0.15049 0.0
H404 H 0.92146 0.58011 0.19426 0.0
H405 H 1.01958 0.54584 0.22025 0.0
O406 O 0.55336 0.44815 0.40055 0.0
Tb407 Tb 0.50648 0.4554 0.37802 0.0
Eu408 Eu 0.50707 0.46727 0.30907 0.0
C409 C 0.57866 0.43174 0.38945 0.0
O410 O 0.57754 0.42598 0.36357 0.0
C411 C 0.51833 0.39386 0.33538 0.0
O412 O 0.47872 0.46675 0.27051 0.0
C413 C 0.55797 0.50542 0.29954 0.0
C414 C 0.44589 0.47039 0.27016 0.0
O415 O 0.42857 0.46323 0.29186 0.0
C416 C 0.47016 0.51417 0.35052 0.0
C417 C 0.58702 0.52732 0.29396 0.0
C418 C 0.61364 0.52731 0.31231 0.0
C419 C 0.64248 0.54625 0.30729 0.0
C420 C 0.64486 0.56555 0.28394 0.0
C421 C 0.61833 0.56666 0.26555 0.0
C422 C 0.58913 0.54737 0.27047 0.0
O423 O 0.51045 0.40566 0.35927 0.0
O424 O 0.52104 0.41292 0.3139 0.0
O425 O 0.48336 0.45149 0.41756 0.0
O426 O 0.45356 0.44321 0.38245 0.0
C427 C 0.45341 0.44438 0.40846 0.0
O428 O 0.4648 0.49381 0.3304 0.0
O429 O 0.49599 0.50802 0.36654 0.0
O430 O 0.53824 0.49445 0.28036 0.0
O431 O 0.55021 0.49541 0.32405 0.0
H432 H 0.61207 0.51258 0.33063 0.0
H433 H 0.66685 0.58135 0.28074 0.0
H434 H 0.56842 0.54803 0.25629 0.0
O435 O 0.04305 0.5966 0.90013 0.0
Tb436 Tb 0.08856 0.59025 0.87584 0.0
Eu437 Eu 0.08613 0.57833 0.80525 0.0
C438 C 1.01712 0.61355 0.89038 0.0
O439 O 1.01643 0.62048 0.86464 0.0
C440 C 0.07864 0.65186 0.83207 0.0
O441 O 0.11123 0.56835 0.76617 0.0
C442 C 0.02803 0.54993 0.7997 0.0
C443 C 0.14383 0.56359 0.76432 0.0
O444 O 0.16353 0.57273 0.78417 0.0
C445 C 0.12188 0.53004 0.84766 0.0
C446 C 1.00738 0.51965 0.79492 0.0
C447 C 0.98284 0.51296 0.81422 0.0
C448 C 0.95775 0.48949 0.80926 0.0
C449 C 0.95771 0.47102 0.78562 0.0
C450 C 0.98229 0.47634 0.76611 0.0
C451 C 1.00738 0.50108 0.77054 0.0
O452 O 0.08008 0.63917 0.85654 0.0
O453 O 0.08189 0.63412 0.81002 0.0
O454 O 0.11351 0.59454 0.91467 0.0
O455 O 0.14131 0.60452 0.8789 0.0
C456 C 0.1427 0.60321 0.90493 0.0
O457 O 0.12666 0.54851 0.8262 0.0
O458 O 0.09697 0.53753 0.86416 0.0
O459 O 0.04505 0.56267 0.77955 0.0
O460 O 0.04241 0.55406 0.82337 0.0
H461 H 0.98201 0.52743 0.83264 0.0
H462 H 0.93814 0.45234 0.78232 0.0
H463 H 0.02574 0.50644 0.75505 0.0
C464 C 0.05132 0.19935 0.142 0.0
C465 C 0.02588 0.18572 0.15834 0.0
C466 C 0.05947 0.23374 0.14291 0.0
C467 C 0.04138 0.25539 0.16026 0.0
C468 C 1.01598 0.24178 0.1771 0.0
C469 C 1.00879 0.20706 0.17614 0.0
C470 C 0.08709 0.24698 0.12489 0.0
C471 C 0.99555 0.2641 0.19539 0.0
C472 C 0.07847 0.34219 0.17492 0.0
C473 C 0.06293 0.36208 0.15513 0.0
C474 C 0.0714 0.30749 0.17713 0.0
C475 C 0.04775 0.29248 0.15949 0.0
C476 C 0.03115 0.31272 0.14012 0.0
C477 C 0.03912 0.34705 0.13805 0.0
C478 C 0.09006 0.28665 0.19773 0.0
C479 C 1.00529 0.29804 0.1212 0.0
H480 H 0.06493 0.18314 0.1283 0.0
H481 H 0.98908 0.19682 0.1888 0.0
H482 H 0.07619 0.26438 0.10973 0.0
H483 H 0.10567 0.26154 0.13677 0.0
H484 H 0.10057 0.22646 0.11422 0.0
H485 H 0.97738 0.24954 0.20777 0.0
H486 H 1.01245 0.2784 0.20892 0.0
H487 H 0.98131 0.28283 0.18326 0.0
H488 H 0.09685 0.35352 0.1882 0.0
H489 H 0.02661 0.36214 0.12284 0.0
H490 H 0.10533 0.26708 0.1875 0.0
H491 H 0.07193 0.27338 0.21096 0.0
H492 H 0.10707 0.30218 0.21035 0.0
H493 H 1.01764 0.27987 0.10751 0.0
H494 H 0.9926 0.31771 0.10887 0.0
H495 H 0.98581 0.28402 0.13263 0.0
C496 C 0.9694 0.76175 0.39125 0.0
C497 C 0.95593 0.7887 0.40597 0.0
C498 C 1.00405 0.75414 0.39206 0.0
C499 C 0.02606 0.77436 0.40756 0.0
C500 C 1.01264 0.80157 0.4225 0.0
C501 C 0.97772 0.80819 0.42175 0.0
C502 C 1.01711 0.72458 0.37612 0.0
C503 C 0.03529 0.82436 0.43864 0.0
C504 C 0.11326 0.73984 0.42558 0.0
C505 C 0.13309 0.75261 0.40462 0.0
C506 C 0.07843 0.74682 0.42692 0.0
C507 C 0.06322 0.76776 0.4072 0.0
C508 C 0.08342 0.78163 0.38654 0.0
C509 C 0.11789 0.77356 0.38532 0.0
C510 C 0.05772 0.73098 0.44897 0.0
C511 C 0.06863 0.80484 0.36551 0.0
H512 H 0.95285 0.74649 0.37898 0.0
H513 H 0.96763 0.8292 0.43303 0.0
H514 H 0.03451 0.73357 0.36025 0.0
H515 H 0.03168 0.70735 0.38935 0.0
H516 H 0.99647 0.71011 0.36646 0.0
H517 H 1.02096 0.84436 0.44922 0.0
H518 H 0.04961 0.80946 0.45367 0.0
H519 H 0.05403 0.83649 0.42522 0.0
H520 H 0.12474 0.72357 0.44052 0.0
H521 H 0.133 0.78387 0.36917 0.0
H522 H 0.03783 0.71483 0.4401 0.0
H523 H 0.04481 0.75077 0.4608 0.0
H524 H 0.07331 0.7154 0.46279 0.0
H525 H 0.05035 0.79083 0.35295 0.0
H526 H 0.08826 0.81574 0.35218 0.0
H527 H 0.05466 0.82576 0.3752 0.0
C528 C 0.58328 0.84424 0.67404 0.0
C529 C 0.56451 0.8653 0.657 0.0
C530 C 0.57643 0.80944 0.67568 0.0
C531 C 0.5494 0.79563 0.66068 0.0
C532 C 0.52949 0.81718 0.64438 0.0
C533 C 0.53775 0.85147 0.64233 0.0
C534 C 0.59899 0.78723 0.69259 0.0
C535 C 0.49993 0.8043 0.62833 0.0
C536 C 0.54817 0.70395 0.63879 0.0
C537 C 0.52686 0.68898 0.65791 0.0
C538 C 0.55658 0.73825 0.64004 0.0
C539 C 0.54302 0.7585 0.66071 0.0
C540 C 0.52166 0.7436 0.68021 0.0
C541 C 0.51418 0.70894 0.67878 0.0
C542 C 0.57945 0.75292 0.61882 0.0
C543 C 0.50543 0.7646 0.70181 0.0
H544 H 0.60417 0.8547 0.68528 0.0
H545 H 0.52301 0.86756 0.62924 0.0
H546 H 0.58382 0.77317 0.70754 0.0
H547 H 0.61158 0.76832 0.67965 0.0
H548 H 0.61866 0.80186 0.70331 0.0
H549 H 0.48025 0.8241 0.62632 0.0
H550 H 0.50865 0.79767 0.60789 0.0
H551 H 0.4882 0.78168 0.63748 0.0
H552 H 0.55837 0.68886 0.62265 0.0
H553 H 0.4976 0.69772 0.69357 0.0
H554 H 0.60028 0.76726 0.62829 0.0
H555 H 0.56496 0.77078 0.60608 0.0
H556 H 0.59048 0.73323 0.60568 0.0
H557 H 0.52495 0.77816 0.71347 0.0
H558 H 0.49008 0.74918 0.71584 0.0
H559 H 0.48889 0.78394 0.69244 0.0
C560 C 0.47504 0.30605 0.92451 0.0
C561 C 0.45391 0.28963 0.90615 0.0
C562 C 0.50973 0.29873 0.92582 0.0
C563 C 0.52363 0.27404 0.9086 0.0
C564 C 0.50231 0.25693 0.89035 0.0
C565 C 0.46782 0.26508 0.88922 0.0
C566 C 0.53167 0.31812 0.9451 0.0
C567 C 0.51599 0.23021 0.87179 0.0
C568 C 0.61655 0.27619 0.88986 0.0
C569 C 0.63045 0.25158 0.90695 0.0
C570 C 0.58209 0.28432 0.89071 0.0
C571 C 0.56066 0.26705 0.90879 0.0
C572 C 0.57453 0.24256 0.92641 0.0
C573 C 0.60931 0.23532 0.92544 0.0
C574 C 0.56862 0.31118 0.87199 0.0
C575 C 0.55247 0.22336 0.94579 0.0
H576 H 0.4646 0.32514 0.9376 0.0
H577 H 0.45178 0.25223 0.87494 0.0
H578 H 0.54505 0.30052 0.95878 0.0
H579 H 0.55119 0.33227 0.93382 0.0
H580 H 0.51691 0.33621 0.95737 0.0
H581 H 0.4958 0.21791 0.85988 0.0
H582 H 0.53443 0.24157 0.85772 0.0
H583 H 0.52957 0.21061 0.88352 0.0
H584 H 0.63261 0.28924 0.87566 0.0
H585 H 0.61978 0.21634 0.93874 0.0
H586 H 0.5543 0.33038 0.88345 0.0
H587 H 0.55091 0.29976 0.85742 0.0
H588 H 0.58902 0.32405 0.86065 0.0
H589 H 0.53894 0.24109 0.95914 0.0
H590 H 0.56716 0.20544 0.95838 0.0
H591 H 0.53307 0.20906 0.93453 0.0
C592 C 0.05157 0.70054 0.80822 0.0
C593 C 0.07099 0.68829 0.82966 0.0
C594 C 0.04131 0.73447 0.80722 0.0
C595 C 0.05155 0.75682 0.82776 0.0
C596 C 0.07213 0.74477 0.84895 0.0
C597 C 0.08113 0.71056 0.84987 0.0
C598 C 1.0186 0.74612 0.78471 0.0
C599 C 0.0844 0.76794 0.87084 0.0
C600 C 0.04837 0.85131 0.81465 0.0
C601 C 1.02037 0.86104 0.82999 0.0
C602 C 0.05871 0.81744 0.81358 0.0
C603 C 0.04004 0.7926 0.82758 0.0
C604 C 1.01107 0.80216 0.84235 0.0
C605 C 1.0019 0.83632 0.84371 0.0
C606 C 0.09036 0.80845 0.79836 0.0
C607 C 0.98998 0.77637 0.85705 0.0
H608 H 0.04326 0.68331 0.79277 0.0
H609 H 0.0962 0.7012 0.86645 0.0
H610 H 0.9945 0.75571 0.79306 0.0
H611 H 0.0305 0.76723 0.77362 0.0
H612 H 1.01289 0.72561 0.77031 0.0
H613 H 0.10238 0.75522 0.88468 0.0
H614 H 0.09698 0.7903 0.86196 0.0
H615 H 0.06268 0.77721 0.88272 0.0
H616 H 0.06303 0.87036 0.8043 0.0
H617 H 0.9802 0.8437 0.85553 0.0
H618 H 0.08483 0.78898 0.7831 0.0
H619 H 0.10928 0.79757 0.81236 0.0
H620 H 0.10171 0.83062 0.78817 0.0
H621 H 0.98269 0.75573 0.84326 0.0
H622 H 0.96673 0.78753 0.86572 0.0
H623 H 1.00491 0.7649 0.87354 0.0
C624 C 0.46882 0.7735 0.06534 0.0
C625 C 0.45928 0.74355 0.0783 0.0
C626 C 0.50265 0.78417 0.0652 0.0
C627 C 0.52768 0.76393 0.07766 0.0
C628 C 0.51829 0.73309 0.08995 0.0
C629 C 0.48417 0.72355 0.09047 0.0
C630 C 0.51139 0.81775 0.05269 0.0
C631 C 0.54422 0.71045 0.10303 0.0
C632 C 0.62024 0.77817 0.06017 0.0
C633 C 0.63194 0.79551 0.08283 0.0
C634 C 0.58633 0.768 0.05807 0.0
C635 C 0.56342 0.77565 0.07897 0.0
C636 C 0.57487 0.79382 0.10158 0.0
C637 C 0.60893 0.80329 0.10331 0.0
C638 C 0.57518 0.74833 0.03379 0.0
C639 C 0.5512 0.80301 0.12414 0.0
H640 H 0.4496 0.7894 0.05636 0.0
H641 H 0.4769 0.70045 0.10056 0.0
H642 H 0.52165 0.83482 0.06826 0.0
H643 H 0.53129 0.81452 0.03731 0.0
H644 H 0.48918 0.83009 0.04322 0.0
H645 H 0.5332 0.68619 0.1099 0.0
H646 H 0.565 0.70502 0.08879 0.0
H647 H 0.55549 0.72331 0.12058 0.0
H648 H 0.63773 0.77183 0.04428 0.0
H649 H 0.61751 0.81673 0.1209 0.0
H650 H 0.55418 0.76163 0.02352 0.0
H651 H 0.56551 0.72331 0.04013 0.0
H652 H 0.59599 0.74452 0.01921 0.0
H653 H 0.52911 0.81704 0.11615 0.0
H654 H 0.56367 0.81866 0.13967 0.0
H655 H 0.54149 0.7798 0.13386 0.0
C656 C 0.54126 0.34376 0.31033 0.0
C657 C 0.52535 0.35708 0.33311 0.0
C658 C 0.54965 0.30932 0.30881 0.0
C659 C 0.54149 0.28749 0.33038 0.0
C660 C 0.52475 0.30066 0.35312 0.0
C661 C 0.51717 0.33521 0.3543 0.0
C662 C 0.56803 0.29644 0.28442 0.0
C663 C 0.51532 0.2784 0.37652 0.0
C664 C 0.5381 0.19246 0.31913 0.0
C665 C 0.56818 0.18159 0.3313 0.0
C666 C 0.52928 0.22684 0.31837 0.0
C667 C 0.55128 0.25108 0.32966 0.0
C668 C 0.58201 0.24033 0.34145 0.0
C669 C 0.58994 0.20579 0.3423 0.0
C670 C 0.49583 0.23713 0.30634 0.0
C671 C 0.60633 0.26529 0.35355 0.0
H672 H 0.54791 0.36039 0.2939 0.0
H673 H 0.50483 0.34505 0.372 0.0
H674 H 0.59281 0.28579 0.29048 0.0
H675 H 0.55346 0.27582 0.27496 0.0
H676 H 0.57232 0.31654 0.26925 0.0
H677 H 0.49713 0.29091 0.39021 0.0
H678 H 0.50414 0.25446 0.36938 0.0
H679 H 0.53829 0.27194 0.38817 0.0
H680 H 0.52093 0.17401 0.31083 0.0
H681 H 0.61322 0.19773 0.35179 0.0
H682 H 0.49968 0.25626 0.29039 0.0
H683 H 0.47983 0.24888 0.32199 0.0
H684 H 0.48199 0.21541 0.29768 0.0
H685 H 0.61229 0.28544 0.33883 0.0
H686 H 0.63026 0.2532 0.36011 0.0
H687 H 0.59457 0.27757 0.37116 0.0
C688 C 0.11728 0.30838 0.56358 0.0
C689 C 0.13844 0.29202 0.58207 0.0
C690 C 0.08265 0.30068 0.56213 0.0
C691 C 0.06904 0.27533 0.57903 0.0
C692 C 0.09059 0.25791 0.59704 0.0
C693 C 0.12483 0.26674 0.59857 0.0
C694 C 0.0604 0.32058 0.54326 0.0
C695 C 0.07743 0.23019 0.61504 0.0
C696 C 0.9766 0.27576 0.59926 0.0
C697 C 0.96247 0.25201 0.58173 0.0
C698 C 1.01088 0.28434 0.59796 0.0
C699 C 0.03202 0.26823 0.57906 0.0
C700 C 1.01792 0.24449 0.56106 0.0
C701 C 0.9832 0.237 0.56236 0.0
C702 C 0.02449 0.31045 0.6171 0.0
C703 C 0.03974 0.22612 0.54108 0.0
H704 H 0.12756 0.32799 0.55082 0.0
H705 H 0.141 0.25368 0.61275 0.0
H706 H 0.04701 0.3034 0.5294 0.0
H707 H 0.04088 0.33427 0.55488 0.0
H708 H 0.07491 0.33915 0.5312 0.0
H709 H 0.09801 0.21699 0.626 0.0
H710 H 0.05972 0.24089 0.62996 0.0
H711 H 0.06322 0.21144 0.60308 0.0
H712 H 0.96078 0.28784 0.61412 0.0
H713 H 0.97253 0.21861 0.54879 0.0
H714 H 0.03832 0.33026 0.60589 0.0
H715 H 0.04264 0.29853 0.63117 0.0
H716 H 1.00421 0.32261 0.62903 0.0
H717 H 0.0529 0.24439 0.5279 0.0
H718 H 0.02494 0.20861 0.52836 0.0
H719 H 0.05945 0.21149 0.55185 0.0
C720 C 0.23929 0.17546 0.01266 0.0
C721 C 0.23211 0.20311 -0.00403 0.0
C722 C 0.21465 0.1617 0.02978 0.0
C723 C 0.18187 0.17601 0.0305 0.0
C724 C 0.1751 0.20528 0.01494 0.0
C725 C 0.20019 0.21827 -0.00231 0.0
C726 C 0.22303 0.13032 0.04568 0.0
C727 C 0.14074 0.22169 0.01527 0.0
C728 C 0.10988 0.1172 0.05168 0.0
C729 C 0.10731 0.12402 0.07916 0.0
C730 C 0.13362 0.13428 0.03548 0.0
C731 C 0.15465 0.15946 0.04684 0.0
C732 C 0.15099 0.16738 0.07432 0.0
C733 C 0.12776 0.14941 0.09011 0.0
C734 C 0.13672 0.12484 0.00631 0.0
C735 C 0.17195 0.19463 0.08719 0.0
H736 H 0.26348 0.16289 0.0107 0.0
H737 H 0.19407 0.23882 0.98415 0.0
H738 H 0.21669 0.13393 0.06713 0.0
H739 H 0.20761 0.10896 0.03827 0.0
H740 H 0.2501 0.12334 0.04413 0.0
H741 H 0.14074 0.2465 0.00488 0.0
H742 H 0.12226 0.20509 0.00514 0.0
H743 H 0.13195 0.22526 0.03618 0.0
H744 H 0.09389 0.098 0.04297 0.0
H745 H 0.12536 0.15561 0.11116 0.0
H746 H 0.16269 0.11576 0.00215 0.0
H747 H 0.13232 0.1473 -0.00652 0.0
H748 H 0.11855 0.10489 0.00047 0.0
H749 H 0.16439 0.19945 0.10826 0.0
H750 H 0.16957 0.21846 0.07563 0.0
H751 H 0.19896 0.18727 0.08693 0.0
C752 C 0.10122 0.92651 0.24479 0.0
C753 C 0.11487 0.9591 0.24504 0.0
C754 C 0.11427 0.9008 0.26148 0.0
C755 C 0.14201 0.9077 0.2786 0.0
C756 C 0.15478 0.94101 0.27981 0.0
C757 C 0.1411 0.96621 0.26305 0.0
C758 C 0.09968 0.8658 0.25959 0.0
C759 C 0.18445 0.94955 0.29752 0.0
C760 C 0.16598 0.8503 0.3371 0.0
C761 C 0.19312 0.83167 0.32665 0.0
C762 C 0.14841 0.87405 0.32143 0.0
C763 C 0.15852 0.88013 0.29466 0.0
C764 C 0.18556 0.861 0.28378 0.0
C765 C 0.20224 0.83669 0.29979 0.0
C766 C 0.1192 0.89296 0.3337 0.0
C767 C 0.19739 0.86676 0.25539 0.0
H768 H 0.08188 0.92053 0.23019 0.0
H769 H 0.1526 0.99098 0.26257 0.0
H770 H 0.11815 0.84882 0.24979 0.0
H771 H 0.09466 0.85545 0.27989 0.0
H772 H 0.07588 0.86537 0.24782 0.0
H773 H 0.19025 0.97693 0.29734 0.0
H774 H 0.17944 0.94161 0.31847 0.0
H775 H 0.20711 0.93559 0.29063 0.0
H776 H 0.15808 0.84604 0.35762 0.0
H777 H 0.22284 0.82213 0.29145 0.0
H778 H 0.09653 0.89079 0.32076 0.0
H779 H 0.1255 0.92012 0.33513 0.0
H780 H 0.11281 0.88349 0.35405 0.0
H781 H 0.17614 0.86333 0.2412 0.0
H782 H 0.21816 0.84938 0.24968 0.0
H783 H 0.20637 0.89308 0.25309 0.0
C784 C 0.3952 0.84306 0.482 0.0
C785 C 0.36114 0.84947 0.48759 0.0
C786 C 0.421 0.85632 0.49824 0.0
C787 C 0.41252 0.87675 0.5205 0.0
C788 C 0.37805 0.8821 0.52681 0.0
C789 C 0.3528 0.86856 0.51019 0.0
C790 C 0.45733 0.84942 0.49104 0.0
C791 C 0.36786 0.90349 0.55042 0.0
C792 C 0.47356 0.89227 0.57801 0.0
C793 C 0.48639 0.92437 0.57193 0.0
C794 C 0.45094 0.87585 0.56078 0.0
C795 C 0.43952 0.89246 0.53734 0.0
C796 C 0.45272 0.92475 0.53084 0.0
C797 C 0.47656 0.94003 0.54796 0.0
C798 C 0.43859 0.84106 0.56819 0.0
C799 C 0.44077 0.94363 0.5063 0.0
H800 H 0.40166 0.82919 0.46403 0.0
H801 H 0.32651 0.87439 0.51402 0.0
H802 H 0.47002 0.87332 0.48546 0.0
H803 H 0.47095 0.83887 0.50861 0.0
H804 H 0.45969 0.83156 0.47405 0.0
H805 H 0.34004 0.90494 0.55285 0.0
H806 H 0.37893 0.89309 0.56912 0.0
H807 H 0.37786 0.92941 0.54785 0.0
H808 H 0.48141 0.87971 0.59628 0.0
H809 H 0.48656 0.96471 0.5431 0.0
H810 H 0.43561 0.82493 0.55023 0.0
H811 H 0.41361 0.84315 0.57805 0.0
H812 H 0.45612 0.82824 0.58225 0.0
H813 H 0.44473 0.92816 0.48811 0.0
H814 H 0.454 0.96807 0.50366 0.0
H815 H 0.41327 0.94855 0.50791 0.0
C816 C 0.37264 0.18667 0.81076 0.0
C817 C 0.38827 0.21636 0.81914 0.0
C818 C 0.38968 0.16366 0.79415 0.0
C819 C 0.4237 0.1698 0.78672 0.0
C820 C 0.43984 0.19952 0.79579 0.0
C821 C 0.4217 0.22275 0.81148 0.0
C822 C 0.37104 0.13298 0.78428 0.0
C823 C 0.47634 0.20654 0.78923 0.0
C824 C 0.46983 0.09192 0.76015 0.0
C825 C 0.46676 0.09667 0.7324 0.0
C826 C 0.45773 0.11651 0.77822 0.0
C827 C 0.44155 0.146 0.76826 0.0
C828 C 0.44028 0.15163 0.74027 0.0
C829 C 0.45351 0.12734 0.72284 0.0
C830 C 0.46075 0.11019 0.80795 0.0
C831 C 0.42279 0.18218 0.72854 0.0
H832 H 0.34687 0.18175 0.81686 0.0
H833 H 0.43398 0.24551 0.81846 0.0
H834 H 0.37139 0.13237 0.76204 0.0
H835 H 0.38379 0.10978 0.79152 0.0
H836 H 0.34438 0.13249 0.79112 0.0
H837 H 0.48586 0.22952 0.79937 0.0
H838 H 0.49225 0.18478 0.79533 0.0
H839 H 0.47943 0.20981 0.76729 0.0
H840 H 0.48 0.06837 0.76771 0.0
H841 H 0.45154 0.13141 0.70139 0.0
H842 H 0.43559 0.10392 0.81628 0.0
H843 H 0.46974 0.1332 0.81832 0.0
H844 H 0.47829 0.08908 0.81253 0.0
H845 H 0.39572 0.18189 0.73421 0.0
H846 H 0.42456 0.18311 0.70633 0.0
H847 H 0.43386 0.20561 0.73675 0.0
C848 C 0.23003 0.86679 0.97198 0.0
C849 C 0.22311 0.8418 0.9911 0.0
C850 C 0.20473 0.87889 0.95468 0.0
C851 C 0.17162 0.8657 0.95656 0.0
C852 C 0.16502 0.839 0.97477 0.0
C853 C 0.19085 0.82747 0.99191 0.0
C854 C 0.21286 0.90752 0.93575 0.0
C855 C 0.13015 0.82415 0.97744 0.0
C856 C 0.09981 0.92376 0.93422 0.0
C857 C 0.09418 0.91283 0.9079 0.0
C858 C 0.12464 0.90839 0.95044 0.0
C859 C 0.14378 0.881 0.94027 0.0
C860 C 0.13737 0.86925 0.91403 0.0
C861 C 0.11295 0.88545 0.89814 0.0
C862 C 0.13083 0.92185 0.97828 0.0
C863 C 0.15653 0.8397 0.90261 0.0
H864 H 0.25465 0.87869 0.97199 0.0
H865 H 0.18516 0.80902 0.00734 0.0
H866 H 0.2045 0.90138 0.91512 0.0
H867 H 0.19898 0.93049 0.94202 0.0
H868 H 0.24025 0.91335 0.93533 0.0
H869 H 0.13009 0.80104 0.99007 0.0
H870 H 0.11304 0.84294 0.9867 0.0
H871 H 0.11969 0.81793 0.95743 0.0
H872 H 0.08518 0.94464 0.94202 0.0
H873 H 0.1083 0.87628 0.87804 0.0
H874 H 0.15715 0.93113 0.9799 0.0
H875 H 0.12783 0.90141 -0.00669 0.0
H876 H 0.11338 0.94276 0.98346 0.0
H877 H 0.18367 0.84613 0.90091 0.0
H878 H 0.14709 0.83233 0.8825 0.0
H879 H 0.15455 0.81765 0.91625 0.0
C880 C 0.44049 0.95303 0.22362 0.0
C881 C 0.46564 0.94754 0.24288 0.0
C882 C 0.43039 0.92722 0.20624 0.0
C883 C 0.44568 0.89502 0.20831 0.0
C884 C 0.47229 0.88984 0.22691 0.0
C885 C 0.48199 0.91625 0.244 0.0
C886 C 0.40196 0.93387 0.18675 0.0
C887 C 0.48915 0.8559 0.22984 0.0
C888 C 0.3926 0.82102 0.18417 0.0
C889 C 0.4049 0.81652 0.15807 0.0
C890 C 0.40606 0.84608 0.20098 0.0
C891 C 0.43282 0.86669 0.1916 0.0
C892 C 0.44596 0.86148 0.16561 0.0
C893 C 0.4317 0.83671 0.14913 0.0
C894 C 0.39123 0.85098 0.22856 0.0
C895 C 0.47483 0.88239 0.15501 0.0
H896 H 0.42737 0.97704 0.22323 0.0
H897 H 0.50077 0.91178 0.25943 0.0
H898 H 0.40951 0.92643 0.1662 0.0
H899 H 0.37975 0.91839 0.19235 0.0
H900 H 0.39424 0.96079 0.18643 0.0
H901 H 0.51157 0.85692 0.24319 0.0
H902 H 0.47096 0.83756 0.23836 0.0
H903 H 0.49707 0.84624 0.20998 0.0
H904 H 0.37215 0.80529 0.19133 0.0
H905 H 0.44187 0.83298 0.1292 0.0
H906 H 0.38019 0.87662 0.23011 0.0
H907 H 0.4113 0.84901 0.244 0.0
H908 H 0.37129 0.83222 0.23321 0.0
H909 H 0.46678 0.90909 0.1531 0.0
H910 H 0.48374 0.87356 0.13513 0.0
H911 H 0.49634 0.88164 0.16925 0.0
C912 C 0.3655 0.19506 0.47314 0.0
C913 C 0.37309 0.21239 0.49684 0.0
C914 C 0.39132 0.18352 0.45599 0.0
C915 C 0.4256 0.18886 0.46293 0.0
C916 C 0.43327 0.20775 0.48619 0.0
C917 C 0.40699 0.21925 0.5028 0.0
C918 C 0.38203 0.16434 0.431 0.0
C919 C 0.46936 0.21425 0.49433 0.0
C920 C 0.49406 0.12938 0.4364 0.0
C921 C 0.50928 0.14927 0.41654 0.0
C922 C 0.46658 0.14176 0.45147 0.0
C923 C 0.45347 0.17447 0.44609 0.0
C924 C 0.46791 0.19388 0.42519 0.0
C925 C 0.49589 0.18133 0.41107 0.0
C926 C 0.45218 0.12026 0.47368 0.0
C927 C 0.45482 0.22851 0.4181 0.0
H928 H 0.33946 0.18862 0.46892 0.0
H929 H 0.41303 0.23153 0.52158 0.0
H930 H 0.39457 0.17577 0.4133 0.0
H931 H 0.39114 0.13796 0.43269 0.0
H932 H 0.35436 0.16401 0.42747 0.0
H933 H 0.47116 0.23002 0.51262 0.0
H934 H 0.4824 0.18994 0.4982 0.0
H935 H 0.483 0.22708 0.47779 0.0
H936 H 0.5045 0.10473 0.44091 0.0
H937 H 0.50745 0.19684 0.39569 0.0
H938 H 0.42475 0.11648 0.47047 0.0
H939 H 0.45522 0.1333 0.49317 0.0
H940 H 0.46463 0.0952 0.47502 0.0
H941 H 0.42757 0.23143 0.42254 0.0
H942 H 0.45869 0.23401 0.39651 0.0
H943 H 0.46893 0.24757 0.42983 0.0
C944 C 0.15334 0.08278 0.7259 0.0
C945 C 0.12443 0.08897 0.74128 0.0
C946 C 0.16653 0.10751 0.70874 0.0
C947 C 0.15024 0.13921 0.70673 0.0
C948 C 0.11965 0.14475 0.72079 0.0
C949 C 0.10713 0.11952 0.73803 0.0
C950 C 0.19925 0.10052 0.69428 0.0
C951 C 0.10132 0.17804 0.71898 0.0
C952 C 0.2073 0.21271 0.68756 0.0
C953 C 0.20241 0.21443 0.65977 0.0
C954 C 0.18987 0.18884 0.70324 0.0
C955 C 0.1664 0.16679 0.69091 0.0
C956 C 0.16035 0.16949 0.66305 0.0
C957 C 0.17862 0.19299 0.64782 0.0
C958 C 0.19727 0.18657 0.73288 0.0
C959 C 0.135 0.14712 0.64923 0.0
H960 H 0.16701 0.05935 0.72881 0.0
H961 H 0.08523 0.1246 0.75039 0.0
H962 H 0.19658 0.10614 0.6726 0.0
H963 H 0.21932 0.1172 0.70224 0.0
H964 H 0.2076 0.07393 0.69665 0.0
H965 H 0.07586 0.17682 0.72822 0.0
H966 H 0.11615 0.19766 0.72949 0.0
H967 H 0.09869 0.18612 0.69777 0.0
H968 H 0.22523 0.22954 0.69696 0.0
H969 H 0.17393 0.19476 0.62646 0.0
H970 H 0.20807 0.16144 0.7377 0.0
H971 H 0.17359 0.18916 0.74453 0.0
H972 H 0.21529 0.20623 0.73958 0.0
H973 H 0.14366 0.12054 0.65013 0.0
H974 H 0.13123 0.15423 0.62788 0.0
H975 H 0.11032 0.14841 0.65966 0.0
C976 C 0.91659 0.92688 0.95152 0.0
C977 C 0.91335 0.9369 0.92473 0.0
C978 C 0.88796 0.91905 0.96677 0.0
C979 C 0.8556 0.92201 0.95489 0.0
C980 C 0.85228 0.93323 0.92811 0.0
C981 C 0.88131 0.94016 0.91321 0.0
C982 C 0.89235 0.90652 -0.00481 0.0
C983 C 0.81815 0.93726 0.915 0.0
C984 C 0.78689 0.8667 0.9832 0.0
C985 C 0.77107 0.88861 0.00135 0.0
C986 C 0.81418 0.87747 0.96767 0.0
C987 C 0.82537 0.91114 0.9699 0.0
C988 C 0.8084 0.93391 0.987 0.0
C989 C 0.78153 0.92227 0.00271 0.0
C990 C 0.83213 0.85235 0.94993 0.0
C991 C 0.81946 0.97014 0.98955 0.0
H992 H 0.9415 0.92427 0.9603 0.0
H993 H 0.87892 0.94812 0.89249 0.0
H994 H 0.87739 0.92219 0.00921 0.0
H995 H 0.88275 0.88034 -0.00314 0.0
H996 H 0.91915 0.90683 0.00172 0.0
H997 H 0.81988 0.94945 0.89497 0.0
H998 H 0.80619 0.91221 0.91256 0.0
H999 H 0.80129 0.95259 0.92788 0.0
H1000 H 0.77916 0.84056 0.98209 0.0
H1001 H 0.76959 0.93924 0.0168 0.0
H1002 H 0.8586 0.8492 0.95679 0.0
H1003 H 0.83303 0.86173 0.92899 0.0
H1004 H 0.81975 0.82725 0.95005 0.0
H1005 H 0.84406 0.97122 0.00013 0.0
H1006 H 0.80097 0.98553 0.00094 0.0
H1007 H 0.82303 0.98164 0.96945 0.0
C1008 C 0.90156 0.14721 0.69683 0.0
C1009 C 0.8923 0.14576 0.66979 0.0
C1010 C 0.90853 0.11765 0.71127 0.0
C1011 C 0.90523 0.08607 0.69839 0.0
C1012 C 0.89509 0.08454 0.67125 0.0
C1013 C 0.88921 0.11453 0.65712 0.0
C1014 C 0.92003 0.12022 0.74008 0.0
C1015 C 0.89047 0.05126 0.65716 0.0
C1016 C 0.95641 1.01492 0.72827 0.0
C1017 C 0.93301 1.00018 0.74588 0.0
C1018 C 0.94736 0.04234 0.71207 0.0
C1019 C 0.91395 0.05478 0.71308 0.0
C1020 C 0.88964 0.03865 0.72942 0.0
C1021 C 0.89955 1.01162 0.74581 0.0
C1022 C 0.97412 0.05937 0.69525 0.0
C1023 C 0.85364 0.05102 0.73075 0.0
H1024 H 0.90388 0.17148 0.70657 0.0
H1025 H 0.88161 0.11354 0.63626 0.0
H1026 H 0.90264 0.10604 0.75336 0.0
H1027 H 0.94541 0.10868 0.74231 0.0
H1028 H 0.92124 0.14672 0.7471 0.0
H1029 H 0.88013 0.05442 0.6366 0.0
H1030 H 0.91502 0.03792 0.65579 0.0
H1031 H 0.87316 0.0349 0.66884 0.0
H1032 H 0.98241 1.00641 0.72823 0.0
H1033 H 0.88139 1.00046 0.75941 0.0
H1034 H 0.9785 0.08527 0.7028 0.0
H1035 H 0.96561 0.0617 0.67415 0.0
H1036 H 0.99849 0.0455 0.69562 0.0
H1037 H 0.85269 0.07505 0.74201 0.0
H1038 H 0.83684 0.03264 0.74095 0.0
H1039 H 0.84365 0.05605 0.71034 0.0
C1040 C 0.67482 0.12895 0.45172 0.0
C1041 C 0.6772 0.11146 0.42755 0.0
C1042 C 0.70374 0.13477 0.46717 0.0
C1043 C 0.73523 0.12208 0.45826 0.0
C1044 C 0.7373 0.10317 0.43441 0.0
C1045 C 0.70823 0.09847 0.41911 0.0
C1046 C 0.70089 0.15577 0.49224 0.0
C1047 C 0.77032 0.08868 0.42465 0.0
C1048 C 0.81179 0.17036 0.48074 0.0
C1049 C 0.82171 0.15183 0.50342 0.0
C1050 C 0.78407 0.16039 0.46542 0.0
C1051 C 0.76638 0.13088 0.47274 0.0
C1052 C 0.77761 0.11081 0.49447 0.0
C1053 C 0.80522 0.12161 0.50966 0.0
C1054 C 0.77251 0.18255 0.44245 0.0
C1055 C 0.75926 0.07909 0.50268 0.0
H1056 H 0.65066 0.13901 0.45806 0.0
H1057 H 0.70978 0.08457 0.40048 0.0
H1058 H 0.71498 0.1439 0.509 0.0
H1059 H 0.71231 0.18088 0.48857 0.0
H1060 H 0.67424 0.15945 0.49849 0.0
H1061 H 0.76681 0.07138 0.40742 0.0
H1062 H 0.78731 0.10942 0.41832 0.0
H1063 H 0.78316 0.07474 0.44107 0.0
H1064 H 0.82447 0.19375 0.4758 0.0
H1065 H 0.8126 0.10735 0.52729 0.0
H1066 H 0.74708 0.19286 0.44689 0.0
H1067 H 0.77039 0.16761 0.42379 0.0
H1068 H 0.78993 0.20396 0.43874 0.0
H1069 H 0.73456 0.08585 0.51163 0.0
H1070 H 0.77376 0.06413 0.51763 0.0
H1071 H 0.75419 0.06307 0.48495 0.0
C1072 C 0.69425 0.90159 0.202 0.0
C1073 C 0.70393 0.90449 0.17512 0.0
C1074 C 0.68493 0.9302 0.21667 0.0
C1075 C 0.68599 0.9623 0.20416 0.0
C1076 C 0.69654 0.96531 0.17719 0.0
C1077 C 0.705 0.93624 0.16288 0.0
C1078 C 0.67319 0.92604 0.24529 0.0
C1079 C 0.69861 0.99917 0.1634 0.0
C1080 C 0.62942 0.02944 0.23354 0.0
C1081 C 0.65159 0.046 0.25107 0.0
C1082 C 0.64052 1.0026 0.21766 0.0
C1083 C 0.67472 0.99253 0.21899 0.0
C1084 C 0.69764 1.01034 0.23541 0.0
C1085 C 0.68574 0.03678 0.25141 0.0
C1086 C 0.61525 0.98381 0.20063 0.0
C1087 C 0.7344 1.00049 0.23707 0.0
H1088 H 0.69326 0.87691 0.21136 0.0
H1089 H 0.71264 0.93839 0.14209 0.0
H1090 H 0.68867 0.9418 0.25886 0.0
H1091 H 0.64669 0.93482 0.24714 0.0
H1092 H 0.67463 0.89946 0.25225 0.0
H1093 H 0.70969 0.99733 0.14301 0.0
H1094 H 0.67303 1.01033 0.16165 0.0
H1095 H 0.71414 1.01673 0.17547 0.0
H1096 H 0.6029 0.03616 0.23322 0.0
H1097 H 0.70296 0.04935 0.26496 0.0
H1098 H 0.61284 0.95752 0.20805 0.0
H1099 H 0.62406 0.98249 0.17958 0.0
H1100 H 0.58989 0.99577 0.20091 0.0
H1101 H 0.73685 0.97607 0.24779 0.0
H1102 H 0.74967 1.01956 0.24789 0.0
H1103 H 0.74508 0.99709 0.2167 0.0
C1104 C 0.80249 0.18572 0.0052 0.0
C1105 C 0.78324 0.16116 0.992 0.0
C1106 C 0.82992 0.17664 0.0213 0.0
C1107 C 0.83771 0.14213 0.02481 0.0
C1108 C 0.81745 0.11716 0.01258 0.0
C1109 C 0.79061 0.12702 -0.004 0.0
C1110 C 0.85152 0.20401 0.03346 0.0
C1111 C 0.82481 0.08009 0.01625 0.0
C1112 C 0.9282 0.12064 0.04207 0.0
C1113 C 0.92642 0.11747 0.07 0.0
C1114 C 0.89934 0.12845 0.02701 0.0
C1115 C 0.86805 0.13244 0.0403 0.0
C1116 C 0.86608 0.1287 0.06845 0.0
C1117 C 0.89546 0.12157 0.08303 0.0
C1118 C 0.9024 0.13306 -0.00298 0.0
C1119 C 0.833 0.13235 0.08314 0.0
H1120 H 0.79726 0.21225 0.00193 0.0
H1121 H 0.77586 0.10806 0.98572 0.0
H1122 H 0.8535 0.20045 0.05546 0.0
H1123 H 0.87746 0.2025 0.0252 0.0
H1124 H 0.84138 0.22965 0.02941 0.0
H1125 H 0.80454 0.06398 0.00782 0.0
H1126 H 0.84886 0.07363 0.00613 0.0
H1127 H 0.82787 0.074 0.03784 0.0
H1128 H 0.95222 0.11742 0.03202 0.0
H1129 H 0.89412 0.11878 0.10462 0.0
H1130 H 0.89471 0.15904 0.99137 0.0
H1131 H 0.88518 0.11554 0.98647 0.0
H1132 H 0.92851 0.12863 0.98975 0.0
H1133 H 0.82344 0.15851 0.08097 0.0
H1134 H 0.83543 0.12647 0.10484 0.0
H1135 H 0.81381 0.11537 0.07427 0.0
C1136 C 0.69435 1.02019 0.74194 0.0
C1137 C 0.66056 1.0104 0.73976 0.0
C1138 C 0.70381 0.04639 0.75911 0.0
C1139 C 0.6787 0.06347 0.77399 0.0
C1140 C 0.64474 0.05275 0.77278 0.0
C1141 C 0.63612 0.02604 0.75589 0.0
C1142 C 0.74038 0.05683 0.76022 0.0
C1143 C 0.61719 0.07085 0.78798 0.0
C1144 C 0.70088 0.12102 0.83169 0.0
C1145 C 0.70058 0.15256 0.81908 0.0
C1146 C 0.69481 0.09158 0.81707 0.0
C1147 C 0.68739 0.09405 0.7894 0.0
C1148 C 0.68691 0.12594 0.77658 0.0
C1149 C 0.69398 0.15488 0.79157 0.0
C1150 C 0.69635 0.05789 0.83118 0.0
C1151 C 0.67836 0.12951 0.74717 0.0
H1152 H 0.71325 1.00819 0.7295 0.0
H1153 H 0.60984 1.01885 0.75418 0.0
H1154 H 0.7436 0.08119 0.74956 0.0
H1155 H 0.74853 0.06055 0.78128 0.0
H1156 H 0.75722 0.03793 0.75071 0.0
H1157 H 0.59231 0.05825 0.78596 0.0
H1158 H 0.62364 0.07241 0.80957 0.0
H1159 H 0.6148 0.09707 0.78037 0.0
H1160 H 0.70646 0.1193 0.85293 0.0
H1161 H 0.69386 0.17937 0.78186 0.0
H1162 H 0.71386 0.04075 0.82047 0.0
H1163 H 0.67108 0.04593 0.83097 0.0
H1164 H 0.70482 0.06019 0.85231 0.0
H1165 H 0.69631 0.11468 0.73489 0.0
H1166 H 0.67905 0.15615 0.74027 0.0
H1167 H 0.65277 0.11929 0.74332 0.0
C1168 C 0.80517 0.91684 0.49611 0.0
C1169 C 0.80432 0.88452 0.48518 0.0
C1170 C 0.77884 0.92808 0.51258 0.0
C1171 C 0.75082 0.90675 0.51727 0.0
C1172 C 0.74978 0.87417 0.50595 0.0
C1173 C 0.7768 0.8633 0.4903 0.0
C1174 C 0.7808 0.96279 0.52473 0.0
C1175 C 0.71983 0.8511 0.50983 0.0
C1176 C 0.69268 0.91958 0.57631 0.0
C1177 C 0.665 0.93516 0.56401 0.0
C1178 C 0.72132 0.91099 0.56141 0.0
C1179 C 0.72213 0.9184 0.53367 0.0
C1180 C 0.69446 0.93472 0.52122 0.0
C1181 C 0.66606 0.94284 0.5366 0.0
C1182 C 0.75032 0.89326 0.57519 0.0
C1183 C 0.69456 0.9428 0.49159 0.0
H1184 H 0.82646 0.93314 0.49188 0.0
H1185 H 0.77582 0.8385 0.48126 0.0
H1186 H 0.75993 0.9787 0.51692 0.0
H1187 H 0.77774 0.96115 0.5468 0.0
H1188 H 0.80513 0.97547 0.52024 0.0
H1189 H 0.72326 0.82639 0.49978 0.0
H1190 H 0.71547 0.84656 0.5315 0.0
H1191 H 0.69674 0.86322 0.50167 0.0
H1192 H 0.6918 0.9137 0.59753 0.0
H1193 H 0.64463 0.95504 0.52714 0.0
H1194 H 0.77431 0.90671 0.57112 0.0
H1195 H 0.753 0.86739 0.5671 0.0
H1196 H 0.74669 0.89148 0.59722 0.0
H1197 H 0.71746 0.95737 0.48623 0.0
H1198 H 0.67197 0.95748 0.48536 0.0
H1199 H 0.69528 0.91909 0.47987 0.0
C1200 C 0.9021 0.02769 0.24974 0.0
C1201 C 0.93512 0.03977 0.24746 0.0
C1202 C 0.89434 1.00178 0.26785 0.0
C1203 C 0.92041 0.98744 0.28364 0.0
C1204 C 0.95334 1.00096 0.28264 0.0
C1205 C 0.96023 0.02725 0.26474 0.0
C1206 C 0.85881 0.98819 0.26863 0.0
C1207 C 0.98194 0.98582 0.29876 0.0
C1208 C 0.89927 0.92576 0.33934 0.0
C1209 C 0.90202 0.89505 0.32583 0.0
C1210 C 0.90504 0.95628 0.32584 0.0
C1211 C 0.91436 0.9557 0.29848 0.0
C1212 C 0.91814 0.92459 0.28502 0.0
C1213 C 0.91159 0.89461 0.29884 0.0
C1214 C 0.90025 0.98909 0.34057 0.0
C1215 C 0.9287 0.92299 0.25593 0.0
H1216 H 0.88262 0.03734 0.23649 0.0
H1217 H 0.98592 0.03638 0.26311 0.0
H1218 H 0.85799 0.96348 0.25832 0.0
H1219 H 0.85053 0.98409 0.28962 0.0
H1220 H 0.84061 1.0054 0.25854 0.0
H1221 H 1.00508 1.00155 0.29799 0.0
H1222 H 0.97445 0.98246 0.32001 0.0
H1223 H 0.98815 0.9605 0.29075 0.0
H1224 H 0.8914 0.92598 0.36014 0.0
H1225 H 0.91362 0.87075 0.28843 0.0
H1226 H 0.88008 1.0041 0.33071 0.0
H1227 H 0.92371 1.00424 0.33968 0.0
H1228 H 0.89333 0.98514 0.36191 0.0
H1229 H 0.90979 0.93605 0.24318 0.0
H1230 H 0.93142 0.89667 0.24871 0.0
H1231 H 0.95312 0.93616 0.25312 0.0
C1232 C 0.7393 0.67898 0.51134 0.0
C1233 C 0.73148 0.70315 0.4917 0.0
C1234 C 0.71433 0.66602 0.5286 0.0
C1235 C 0.6805 0.67738 0.52621 0.0
C1236 C 0.67281 0.70307 0.50731 0.0
C1237 C 0.69831 0.71545 0.49019 0.0
C1238 C 0.72374 0.63853 0.54824 0.0
C1239 C 0.63725 0.71611 0.50406 0.0
C1240 C 0.61111 0.61728 0.55047 0.0
C1241 C 0.60555 0.62873 0.57664 0.0
C1242 C 0.63514 0.63304 0.5337 0.0
C1243 C 0.65328 0.66159 0.54301 0.0
C1244 C 0.64651 0.67405 0.56901 0.0
C1245 C 0.62316 0.6573 0.58553 0.0
C1246 C 0.64176 0.61859 0.50627 0.0
C1247 C 0.66426 0.70493 0.57954 0.0
H1248 H 0.76454 0.66841 0.51187 0.0
H1249 H 0.69182 0.73309 0.47435 0.0
H1250 H 0.71534 0.64531 0.56872 0.0
H1251 H 0.71067 0.61484 0.54271 0.0
H1252 H 0.75134 0.63369 0.54869 0.0
H1253 H 0.63606 0.73855 0.49072 0.0
H1254 H 0.62113 0.69611 0.49537 0.0
H1255 H 0.62641 0.72282 0.52383 0.0
H1256 H 0.59736 0.59548 0.54337 0.0
H1257 H 0.61845 0.66692 0.60548 0.0
H1258 H 0.66846 0.6103 0.50488 0.0
H1259 H 0.63779 0.63817 0.49068 0.0
H1260 H 0.62521 0.59676 0.50178 0.0
H1261 H 0.65479 0.71258 0.59957 0.0
H1262 H 0.66083 0.72632 0.56541 0.0
H1263 H 0.69174 0.69996 0.58109 0.0
C1264 C 0.64233 0.46722 0.76373 0.0
C1265 C 0.61359 0.46036 0.74825 0.0
C1266 C 0.65634 0.44275 0.78095 0.0
C1267 C 0.64116 0.41053 0.78296 0.0
C1268 C 0.61079 0.40424 0.76878 0.0
C1269 C 0.59755 0.42911 0.75141 0.0
C1270 C 0.68889 0.45053 0.7954 0.0
C1271 C 0.59351 0.37044 0.7705 0.0
C1272 C 0.69919 0.3371 0.80244 0.0
C1273 C 0.69383 0.33485 0.83016 0.0
C1274 C 0.68192 0.36129 0.78676 0.0
C1275 C 0.65808 0.38319 0.79895 0.0
C1276 C 0.65172 0.38003 0.82674 0.0
C1277 C 0.66982 0.35624 0.84197 0.0
C1278 C 0.68969 0.36387 0.75722 0.0
C1279 C 0.62597 0.40205 0.8405 0.0
H1280 H 0.65554 0.49081 0.76058 0.0
H1281 H 0.57611 0.4232 0.73877 0.0
H1282 H 0.68656 0.44452 0.81704 0.0
H1283 H 0.70945 0.43456 0.78726 0.0
H1284 H 0.6963 0.47739 0.79323 0.0
H1285 H 0.56801 0.37099 0.76125 0.0
H1286 H 0.60893 0.35127 0.75996 0.0
H1287 H 0.59115 0.36222 0.79169 0.0
H1288 H 0.71731 0.32038 0.7931 0.0
H1289 H 0.66475 0.35412 0.86326 0.0
H1290 H 0.6998 0.38928 0.75256 0.0
H1291 H 0.66626 0.3607 0.74532 0.0
H1292 H 0.70836 0.34469 0.75067 0.0
H1293 H 0.63417 0.42875 0.83963 0.0
H1294 H 0.62225 0.39488 0.86183 0.0
H1295 H 0.60135 0.40042 0.82998 0.0
C1296 C 0.97821 0.42687 0.04683 0.0
C1297 C 0.98149 0.42049 0.07435 0.0
C1298 C 0.95408 0.40956 0.0313 0.0
C1299 C 0.93338 0.38458 0.04342 0.0
C1300 C 0.93774 0.37712 0.07096 0.0
C1301 C 0.96137 0.39534 0.08608 0.0
C1302 C 0.95014 0.41859 0.00206 0.0
C1303 C 0.91707 0.35015 0.08461 0.0
C1304 C 0.84818 0.36827 0.0104 0.0
C1305 C 0.85507 0.34038 -0.00594 0.0
C1306 C 0.8731 0.38218 0.02713 0.0
C1307 C 0.90583 0.36777 0.02776 0.0
C1308 C 0.91232 0.33827 0.01262 0.0
C1309 C 0.88695 0.32511 -0.00422 0.0
C1310 C 0.86508 0.41381 0.04263 0.0
C1311 C 0.94669 0.32186 0.01284 0.0
H1312 H 0.99396 0.44593 0.03757 0.0
H1313 H 0.96434 0.38953 0.10719 0.0
H1314 H 0.95338 0.39584 0.98948 0.0
H1315 H 0.9243 0.42837 -0.00165 0.0
H1316 H 0.96862 0.43794 -0.00452 0.0
H1317 H 0.9254 0.34547 0.10556 0.0
H1318 H 0.89013 0.35776 0.08487 0.0
H1319 H 0.9188 0.32619 0.07329 0.0
H1320 H 0.82404 0.38094 0.00837 0.0
H1321 H 0.89284 0.30439 0.98247 0.0
H1322 H 0.8803 0.43506 0.03468 0.0
H1323 H 0.87192 0.41056 0.06405 0.0
H1324 H 0.83797 0.42076 0.04132 0.0
H1325 H 0.96496 0.33829 0.00221 0.0
H1326 H 0.94648 0.29687 0.00287 0.0
H1327 H 0.95591 0.31865 0.0337 0.0
C1328 C 0.92542 0.72018 0.3104 0.0
C1329 C 0.89147 0.71484 0.31704 0.0
C1330 C 0.94328 0.69689 0.29456 0.0
C1331 C 0.92641 0.66822 0.28427 0.0
C1332 C 0.89184 0.66321 0.29063 0.0
C1333 C 0.87503 0.6862 0.30742 0.0
C1334 C 0.98029 0.70271 0.28916 0.0
C1335 C 0.8724 0.63378 0.27943 0.0
C1336 C 0.95778 0.62693 0.22027 0.0
C1337 C 0.96869 0.5951 0.22936 0.0
C1338 C 0.94473 0.65113 0.23791 0.0
C1339 C 0.94418 0.64435 0.26575 0.0
C1340 C 0.95842 0.61372 0.2754 0.0
C1341 C 0.97001 0.58915 0.25707 0.0
C1342 C 0.929 0.68277 0.22642 0.0
C1343 C 0.9597 0.60616 0.30502 0.0
H1344 H 0.93827 0.74213 0.31829 0.0
H1345 H 0.84883 0.6821 0.31272 0.0
H1346 H 0.99504 0.67998 0.29484 0.0
H1347 H 0.9844 0.7071 0.26746 0.0
H1348 H 0.99032 0.72467 0.30037 0.0
H1349 H 0.84538 0.63432 0.28534 0.0
H1350 H 0.87397 0.63387 0.25723 0.0
H1351 H 0.88365 0.6098 0.28661 0.0
H1352 H 0.95691 0.63186 0.19889 0.0
H1353 H 0.97819 0.56468 0.26432 0.0
H1354 H 0.94026 0.70545 0.23572 0.0
H1355 H 0.9016 0.68313 0.23104 0.0
H1356 H 0.93215 0.68461 0.20435 0.0
H1357 H 0.96874 0.62847 0.31629 0.0
H1358 H 0.97643 0.5844 0.3096 0.0
H1359 H 0.93397 0.60021 0.31235 0.0
C1360 C 0.62771 0.3923 0.39411 0.0
C1361 C 0.60569 0.41569 0.40596 0.0
C1362 C 0.65249 0.37535 0.40918 0.0
C1363 C 0.65587 0.38208 0.43687 0.0
C1364 C 0.63361 0.40554 0.44909 0.0
C1365 C 0.60865 0.42187 0.43354 0.0
C1366 C 0.67517 0.35024 0.39537 0.0
C1367 C 0.63637 0.41361 0.47855 0.0
C1368 C 0.70296 0.3222 0.48419 0.0
C1369 C 0.734 0.33867 0.4872 0.0
C1370 C 0.67776 0.33516 0.46699 0.0
C1371 C 0.68355 0.36564 0.45278 0.0
C1372 C 0.71556 0.3813 0.45466 0.0
C1373 C 0.74035 0.36758 0.47173 0.0
C1374 C 0.64415 0.31745 0.46547 0.0
C1375 C 0.72278 0.414 0.4402 0.0
H1376 H 0.62538 0.3868 0.37294 0.0
H1377 H 0.59156 0.43955 0.44298 0.0
H1378 H 0.70174 0.35885 0.39648 0.0
H1379 H 0.67378 0.32548 0.4057 0.0
H1380 H 0.66834 0.34671 0.37396 0.0
H1381 H 0.617 0.43208 0.48512 0.0
H1382 H 0.63358 0.39027 0.49064 0.0
H1383 H 0.66173 0.42404 0.48296 0.0
H1384 H 0.69743 0.30063 0.49683 0.0
H1385 H 0.76378 0.38112 0.47477 0.0
H1386 H 0.63602 0.31473 0.44431 0.0
H1387 H 0.62473 0.33275 0.47585 0.0
H1388 H 0.64499 0.2921 0.47497 0.0
H1389 H 0.71641 0.4118 0.41863 0.0
H1390 H 0.74962 0.42165 0.44206 0.0
H1391 H 0.70674 0.43431 0.44863 0.0
C1392 C 0.95106 0.46286 0.72454 0.0
C1393 C 0.97869 0.45613 0.74133 0.0
C1394 C 0.93789 0.438 0.70749 0.0
C1395 C 0.95284 0.40556 0.70701 0.0
C1396 C 0.98223 0.39935 0.72254 0.0
C1397 C 0.99463 0.42465 0.73969 0.0
C1398 C 0.90636 0.44569 0.69157 0.0
C1399 C 0.99921 0.36529 0.72245 0.0
C1400 C 0.89482 0.33266 0.6877 0.0
C1401 C 0.90147 0.32951 0.66024 0.0
C1402 C 0.91173 0.35694 0.70329 0.0
C1403 C 0.93655 0.37791 0.69129 0.0
C1404 C 0.94429 0.37374 0.66383 0.0
C1405 C 0.92646 0.34994 0.64864 0.0
C1406 C 0.9024 0.36074 0.73244 0.0
C1407 C 0.97115 0.39474 0.65038 0.0
H1408 H 0.93797 0.48676 0.72647 0.0
H1409 H 1.01522 0.41895 0.7533 0.0
H1410 H 0.90998 0.43894 0.67021 0.0
H1411 H 0.88515 0.43025 0.6993 0.0
H1412 H 0.89908 0.47269 0.69273 0.0
H1413 H 0.02416 0.36587 0.73259 0.0
H1414 H 0.98301 0.34674 0.73299 0.0
H1415 H 1.00268 0.35622 0.70162 0.0
H1416 H 0.87589 0.31667 0.69685 0.0
H1417 H 0.93245 0.34709 0.62757 0.0
H1418 H 0.8923 0.38644 0.73599 0.0
H1419 H 0.92512 0.35774 0.74522 0.0
H1420 H 0.88319 0.34206 0.73891 0.0
H1421 H 0.96337 0.4216 0.65019 0.0
H1422 H 0.97591 0.38671 0.62941 0.0
H1423 H 0.99514 0.39302 0.66179 0.0
C1424 C 0.89458 0.71236 -0.0068 0.0
C1425 C 0.86275 0.69708 0.99271 0.0
C1426 C 0.92063 0.70119 0.97618 0.0
C1427 C 0.91462 0.67408 0.95835 0.0
C1428 C 0.88193 0.65983 0.9569 0.0
C1429 C 0.85647 0.67145 0.97411 0.0
C1430 C 0.95506 0.7171 0.97839 0.0
C1431 C 0.87434 0.63089 0.93827 0.0
C1432 C 0.97173 0.65597 0.89888 0.0
C1433 C 0.99138 0.6289 0.90829 0.0
C1434 C 0.94764 0.67168 0.91526 0.0
C1435 C 0.94249 0.65977 0.94169 0.0
C1436 C 0.96261 0.63279 0.95154 0.0
C1437 C 0.98708 0.6179 0.93481 0.0
C1438 C 0.92732 0.70073 0.90409 0.0
C1439 C 0.95775 0.61916 0.97956 0.0
H1440 H 0.89973 0.7315 0.0081 0.0
H1441 H 0.83207 0.65912 0.97419 0.0
H1442 H 0.97306 0.6987 0.98719 0.0
H1443 H 0.96469 0.72404 0.95824 0.0
H1444 H 0.95478 0.73997 0.99117 0.0
H1445 H 0.84722 0.6239 0.93844 0.0
H1446 H 0.88167 0.63745 0.91745 0.0
H1447 H 0.88942 0.60852 0.94431 0.0
H1448 H 0.97535 0.66522 0.87862 0.0
H1449 H 1.00241 0.5973 0.94235 0.0
H1450 H 0.92865 0.72264 0.9178 0.0
H1451 H 0.9004 0.69335 0.90252 0.0
H1452 H 0.93623 0.70875 0.88395 0.0
H1453 H 0.96046 0.63971 -0.00559 0.0
H1454 H 0.9761 0.59888 0.98454 0.0
H1455 H 0.93184 0.60894 0.98167 0.0
C1456 C 0.64852 0.58478 0.22447 0.0
C1457 C 0.62204 0.59004 0.24256 0.0
C1458 C 0.65996 0.61081 0.20769 0.0
C1459 C 0.64459 0.64301 0.20908 0.0
C1460 C 0.6166 0.64795 0.22634 0.0
C1461 C 0.60568 0.62135 0.24294 0.0
C1462 C 0.6899 0.60442 0.18971 0.0
C1463 C 0.59949 0.68184 0.22844 0.0
C1464 C 0.69945 0.71737 0.18774 0.0
C1465 C 0.68946 0.72194 0.161 0.0
C1466 C 0.68463 0.69217 0.20383 0.0
C1467 C 0.65874 0.67156 0.19307 0.0
C1468 C 0.64781 0.67693 0.16641 0.0
C1469 C 0.66347 0.70176 0.15067 0.0
C1470 C 0.69718 0.68709 0.23214 0.0
C1471 C 0.61987 0.65609 0.15432 0.0
H1472 H 0.66168 0.56079 0.22469 0.0
H1473 H 0.58586 0.6257 0.2575 0.0
H1474 H 0.68399 0.61203 0.16881 0.0
H1475 H 0.71158 0.6199 0.19644 0.0
H1476 H 0.6977 0.57751 0.18978 0.0
H1477 H 0.57601 0.68062 0.24054 0.0
H1478 H 0.6169 0.70009 0.23797 0.0
H1479 H 0.59324 0.69176 0.20822 0.0
H1480 H 0.71922 0.7331 0.19596 0.0
H1481 H 0.655 0.70557 0.13022 0.0
H1482 H 0.70807 0.66144 0.2343 0.0
H1483 H 0.6759 0.68896 0.24648 0.0
H1484 H 0.71671 0.70581 0.2378 0.0
H1485 H 0.62815 0.62946 0.15268 0.0
H1486 H 0.61244 0.66521 0.13407 0.0
H1487 H 0.59732 0.65653 0.16747 0.0
C1488 C 0.2897 0.4247 0.50088 0.0
C1489 C 0.28091 0.39056 0.50007 0.0
C1490 C 0.31645 0.43696 0.48537 0.0
C1491 C 0.33499 0.4143 0.46925 0.0
C1492 C 0.32542 0.38009 0.46755 0.0
C1493 C 0.29814 0.36875 0.4827 0.0
C1494 C 0.32571 0.47377 0.48715 0.0
C1495 C 0.34507 0.35508 0.45087 0.0
C1496 C 0.39156 0.44127 0.41268 0.0
C1497 C 0.42332 0.43907 0.42479 0.0
C1498 C 0.36229 0.43513 0.42742 0.0
C1499 C 0.36516 0.42575 0.45465 0.0
C1500 C 0.39721 0.42415 0.46718 0.0
C1501 C 0.42609 0.43123 0.45205 0.0
C1502 C 0.32844 0.43762 0.41362 0.0
C1503 C 0.40105 0.41347 0.49613 0.0
H1504 H 0.27653 0.44158 0.51434 0.0
H1505 H 0.29157 0.34226 0.48196 0.0
H1506 H 0.34955 0.47647 0.4986 0.0
H1507 H 0.33001 0.48448 0.46687 0.0
H1508 H 0.30587 0.48881 0.49733 0.0
H1509 H 0.33395 0.3294 0.45153 0.0
H1510 H 0.34606 0.36351 0.42968 0.0
H1511 H 0.37147 0.35354 0.45823 0.0
H1512 H 0.38959 0.44767 0.39159 0.0
H1513 H 0.45082 0.42952 0.46127 0.0
H1514 H 0.31062 0.45268 0.42587 0.0
H1515 H 0.31748 0.41208 0.41138 0.0
H1516 H 0.33039 0.4493 0.39341 0.0
H1517 H 0.38488 0.42921 0.50922 0.0
H1518 H 0.42755 0.41534 0.50323 0.0
H1519 H 0.39257 0.38698 0.49853 0.0
C1520 C 0.45261 0.50741 0.23022 0.0
C1521 C 0.43141 0.49304 0.24968 0.0
C1522 C 0.44174 0.53461 0.21456 0.0
C1523 C 0.40864 0.54716 0.21804 0.0
C1524 C 0.3864 0.53149 0.23638 0.0
C1525 C 0.39816 0.50466 0.25216 0.0
C1526 C 0.46631 0.55115 0.19545 0.0
C1527 C 0.35078 0.54408 0.24034 0.0
C1528 C 0.39595 0.63862 0.19922 0.0
C1529 C 0.38411 0.63555 0.17293 0.0
C1530 C 0.40329 0.60986 0.21452 0.0
C1531 C 0.39805 0.57761 0.20319 0.0
C1532 C 0.38499 0.57453 0.17696 0.0
C1533 C 0.37852 0.60365 0.16199 0.0
C1534 C 0.41771 0.61396 0.24237 0.0
C1535 C 0.37852 0.54053 0.1645 0.0
H1536 H 0.47841 0.49868 0.22818 0.0
H1537 H 0.38174 0.49385 0.26725 0.0
H1538 H 0.45548 0.55226 0.17497 0.0
H1539 H 0.47107 0.57748 0.20183 0.0
H1540 H 0.49085 0.53763 0.19455 0.0
H1541 H 0.33525 0.52599 0.25203 0.0
H1542 H 0.35133 0.56833 0.25131 0.0
H1543 H 0.33833 0.54876 0.22074 0.0
H1544 H 0.40029 0.66343 0.20756 0.0
H1545 H 0.36909 0.60144 0.14167 0.0
H1546 H 0.44349 0.60304 0.24315 0.0
H1547 H 0.40215 0.60005 0.25717 0.0
H1548 H 0.41907 0.64079 0.24854 0.0
H1549 H 0.40283 0.52733 0.16114 0.0
H1550 H 0.3651 0.54263 0.14501 0.0
H1551 H 0.3633 0.52464 0.17825 0.0
C1552 C 0.17088 0.61402 0.94868 0.0
C1553 C 0.17285 0.61094 0.92079 0.0
C1554 C 0.19943 0.62282 0.96369 0.0
C1555 C 0.23048 0.6282 0.95034 0.0
C1556 C 0.23269 0.62427 0.92226 0.0
C1557 C 0.2037 0.6159 0.90777 0.0
C1558 C 0.19619 0.62738 -0.00635 0.0
C1559 C 0.26547 0.62962 0.90745 0.0
C1560 C 0.29268 0.68652 0.98352 0.0
C1561 C 0.31405 0.66362 -0.0032 0.0
C1562 C 0.26549 0.67523 0.96818 0.0
C1563 C 0.2601 0.64022 0.9655 0.0
C1564 C 0.28244 0.61694 0.97777 0.0
C1565 C 0.30902 0.62898 -0.00641 0.0
C1566 C 0.24169 0.7008 0.95586 0.0
C1567 C 0.27761 0.57941 0.97491 0.0
H1568 H 0.1469 0.61026 0.95869 0.0
H1569 H 0.20517 0.6134 0.88617 0.0
H1570 H 0.21488 0.61139 0.00431 0.0
H1571 H 0.20169 0.65393 -0.001 0.0
H1572 H 0.17058 0.62095 0.00108 0.0
H1573 H 0.26354 0.62269 0.88595 0.0
H1574 H 0.27298 0.65649 0.90875 0.0
H1575 H 0.28589 0.61447 0.91682 0.0
H1576 H 0.29605 0.7134 0.98619 0.0
H1577 H 0.32537 0.61129 0.00396 0.0
H1578 H 0.21601 0.69746 0.96429 0.0
H1579 H 0.23981 0.69686 0.93392 0.0
H1580 H 0.24982 0.72716 0.95953 0.0
H1581 H 0.25422 0.57162 0.98542 0.0
H1582 H 0.2991 0.56485 0.9834 0.0
H1583 H 0.27461 0.57264 0.95348 0.0
C1584 C 0.2034 0.42767 0.65565 0.0
C1585 C 0.20595 0.39678 0.66911 0.0
C1586 C 0.19527 0.45717 0.66955 0.0
C1587 C 0.18882 0.45539 0.69738 0.0
C1588 C 0.19127 0.42418 0.71109 0.0
C1589 C 0.2002 0.39519 0.69677 0.0
C1590 C 0.19342 0.49017 0.65445 0.0
C1591 C 0.18378 0.42132 0.74072 0.0
C1592 C 0.19057 0.53249 0.74181 0.0
C1593 C 0.15612 0.53983 0.74391 0.0
C1594 C 0.20182 0.50585 0.72575 0.0
C1595 C 0.17791 0.48585 0.712 0.0
C1596 C 0.1432 0.49386 0.7133 0.0
C1597 C 0.13276 0.52104 0.72899 0.0
C1598 C 0.23911 0.49823 0.72446 0.0
C1599 C 0.1169 0.47261 0.69937 0.0
H1600 H 0.20817 0.42884 0.63428 0.0
H1601 H 0.20217 0.3712 0.70713 0.0
H1602 H 0.1672 0.49998 0.65482 0.0
H1603 H 0.20967 0.50922 0.6643 0.0
H1604 H 0.20142 0.48757 0.63323 0.0
H1605 H 0.1872 0.39523 0.74841 0.0
H1606 H 0.20046 0.43837 0.75225 0.0
H1607 H 0.15739 0.42931 0.74465 0.0
H1608 H 0.20866 0.54686 0.75337 0.0
H1609 H 0.106 0.52633 0.73063 0.0
H1610 H 0.24714 0.49458 0.70337 0.0
H1611 H 0.24448 0.47446 0.73544 0.0
H1612 H 0.25454 0.51862 0.73346 0.0
H1613 H 0.12274 0.47046 0.67771 0.0
H1614 H 0.09104 0.48309 0.70155 0.0
H1615 H 0.11719 0.44672 0.70787 0.0
C1616 C 0.29778 0.68187 0.50398 0.0
C1617 C 0.28106 0.65727 0.48879 0.0
C1618 C 0.32506 0.67329 0.5205 0.0
C1619 C 0.33528 0.63921 0.52233 0.0
C1620 C 0.31736 0.61403 0.50821 0.0
C1621 C 0.29063 0.62345 0.49134 0.0
C1622 C 0.34409 0.70093 0.53477 0.0
C1623 C 0.32726 0.57734 0.51003 0.0
C1624 C 0.42668 0.62235 0.54019 0.0
C1625 C 0.42445 0.61664 0.56784 0.0
C1626 C 0.39772 0.6296 0.52505 0.0
C1627 C 0.36588 0.63032 0.5379 0.0
C1628 C 0.3635 0.6239 0.56573 0.0
C1629 C 0.39295 0.61754 0.58047 0.0
C1630 C 0.40125 0.63711 0.49547 0.0
C1631 C 0.32988 0.62381 0.57993 0.0
H1632 H 0.29085 0.70819 0.5019 0.0
H1633 H 0.27787 0.60444 0.47956 0.0
H1634 H 0.34574 0.69538 0.55653 0.0
H1635 H 0.3703 0.7022 0.52702 0.0
H1636 H 0.33209 0.72604 0.53206 0.0
H1637 H 0.30821 0.56063 0.50061 0.0
H1638 H 0.35173 0.57341 0.49973 0.0
H1639 H 0.33062 0.56967 0.53127 0.0
H1640 H 0.45113 0.62167 0.53048 0.0
H1641 H 0.39128 0.6128 0.60183 0.0
H1642 H 0.39176 0.66289 0.4911 0.0
H1643 H 0.38572 0.61935 0.48361 0.0
H1644 H 0.42781 0.6353 0.48852 0.0
H1645 H 0.3185 0.64935 0.5791 0.0
H1646 H 0.33218 0.61608 0.60127 0.0
H1647 H 0.3122 0.6064 0.56971 0.0
C1648 C 0.20497 0.61914 0.32558 0.0
C1649 C 0.20482 0.65091 0.31334 0.0
C1650 C 0.19747 0.59019 0.31083 0.0
C1651 C 0.18873 0.59344 0.28348 0.0
C1652 C 0.18856 0.62553 0.27098 0.0
C1653 C 0.19708 0.65398 0.28607 0.0
C1654 C 0.19856 0.55623 0.32457 0.0
C1655 C 0.17852 0.62987 0.24194 0.0
C1656 C 0.18967 0.51923 0.23615 0.0
C1657 C 0.15543 0.51072 0.23556 0.0
C1658 C 0.20123 0.54535 0.25254 0.0
C1659 C 0.1778 0.56354 0.26828 0.0
C1660 C 0.14342 0.5542 0.26858 0.0
C1661 C 0.1327 0.52761 0.25242 0.0
C1662 C 0.23821 0.55441 0.25208 0.0
C1663 C 0.11762 0.57346 0.2848 0.0
H1664 H 0.21131 0.61688 0.34665 0.0
H1665 H 0.19695 0.67869 0.27672 0.0
H1666 H 0.1728 0.54542 0.32547 0.0
H1667 H 0.21446 0.5385 0.31293 0.0
H1668 H 0.20868 0.55782 0.34529 0.0
H1669 H 0.18022 0.65651 0.23516 0.0
H1670 H 0.19489 0.61424 0.22892 0.0
H1671 H 0.15221 0.62107 0.239 0.0
H1672 H 0.20727 0.50628 0.22313 0.0
H1673 H 0.1061 0.52129 0.25203 0.0
H1674 H 0.24792 0.55767 0.27277 0.0
H1675 H 0.24161 0.57871 0.24138 0.0
H1676 H 0.25365 0.53496 0.24181 0.0
H1677 H 0.12526 0.57432 0.30617 0.0
H1678 H 0.09204 0.56217 0.28352 0.0
H1679 H 0.11619 0.59988 0.27751 0.0
C1680 C 0.16268 0.42165 0.03764 0.0
C1681 C 0.16435 0.43033 0.06477 0.0
C1682 C 0.19217 0.41511 0.0231 0.0
C1683 C 0.22385 0.41822 0.03599 0.0
C1684 C 0.22562 0.42798 0.06317 0.0
C1685 C 0.1957 0.43349 0.07739 0.0
C1686 C 0.18942 0.40401 -0.00577 0.0
C1687 C 0.25905 0.43229 0.07727 0.0
C1688 C 0.29388 0.36558 0.00689 0.0
C1689 C 0.30917 0.38852 0.9892 0.0
C1690 C 0.26658 0.37525 0.02279 0.0
C1691 C 0.25493 0.40889 0.02148 0.0
C1692 C 0.27163 0.43275 0.00506 0.0
C1693 C 0.29845 0.42216 0.98885 0.0
C1694 C 0.24889 0.34893 0.03964 0.0
C1695 C 0.26013 0.46899 0.00353 0.0
H1696 H 0.13831 0.41938 0.02793 0.0
H1697 H 0.19686 0.44076 0.09829 0.0
H1698 H 0.20407 0.42116 0.98107 0.0
H1699 H 0.20037 0.37842 0.99199 0.0
H1700 H 0.16288 0.40349 0.98706 0.0
H1701 H 0.25607 0.44291 0.0977 0.0
H1702 H 0.272 0.40757 0.07896 0.0
H1703 H 0.27568 0.44917 0.06543 0.0
H1704 H 0.3019 0.33945 0.00726 0.0
H1705 H 0.31012 0.43993 0.97517 0.0
H1706 H 0.2228 0.34529 0.0321 0.0
H1707 H 0.24695 0.3574 0.06073 0.0
H1708 H 0.26208 0.3242 0.0393 0.0
H1709 H 0.23627 0.47053 0.99196 0.0
H1710 H 0.27908 0.48534 -0.00648 0.0
H1711 H 0.25505 0.47904 0.02386 0.0
C1712 C 0.46324 0.52398 0.76192 0.0
C1713 C 0.43846 0.53938 0.74585 0.0
C1714 C 0.45506 0.49745 0.77925 0.0
C1715 C 0.42118 0.48661 0.78098 0.0
C1716 C 0.39572 0.50353 0.7662 0.0
C1717 C 0.40473 0.52958 0.74858 0.0
C1718 C 0.48304 0.47945 0.79417 0.0
C1719 C 0.35924 0.49285 0.76776 0.0
C1720 C 0.40533 0.39475 0.79671 0.0
C1721 C 0.39769 0.39592 0.82409 0.0
C1722 C 0.41339 0.42414 0.78252 0.0
C1723 C 0.41306 0.45544 0.79602 0.0
C1724 C 0.40544 0.45675 0.82371 0.0
C1725 C 0.39818 0.42678 0.83754 0.0
C1726 C 0.42217 0.42169 0.75311 0.0
C1727 C 0.40429 0.48982 0.83852 0.0
H1728 H 0.48947 0.53122 0.75986 0.0
H1729 H 0.38553 0.54138 0.7362 0.0
H1730 H 0.47664 0.47677 0.81569 0.0
H1731 H 0.48614 0.45366 0.78597 0.0
H1732 H 0.50758 0.49278 0.79245 0.0
H1733 H 0.3421 0.51159 0.75826 0.0
H1734 H 0.35599 0.46842 0.75734 0.0
H1735 H 0.3515 0.48915 0.78893 0.0
H1736 H 0.40493 0.3708 0.78632 0.0
H1737 H 0.39188 0.4276 0.85866 0.0
H1738 H 0.44754 0.43257 0.74948 0.0
H1739 H 0.40391 0.43652 0.74099 0.0
H1740 H 0.42205 0.39528 0.74581 0.0
H1741 H 0.42919 0.50245 0.83737 0.0
H1742 H 0.39744 0.48653 0.85995 0.0
H1743 H 0.3856 0.50688 0.82892 0.0
C1744 C 0.25821 0.92615 0.0689 0.0
C1745 C 0.25525 0.89241 0.07664 0.0
C1746 C 0.24608 0.95162 0.0855 0.0
C1747 C 0.23004 0.9425 0.10968 0.0
C1748 C 0.22996 0.90857 0.11864 0.0
C1749 C 0.24299 0.88379 0.10192 0.0
C1750 C 0.24742 0.98768 0.07587 0.0
C1751 C 0.2126 0.89787 0.14427 0.0
C1752 C 0.19351 0.99501 0.164 0.0
C1753 C 0.15931 0.9924 0.15745 0.0
C1754 C 0.21799 0.98244 0.14665 0.0
C1755 C 0.20744 0.96638 0.12292 0.0
C1756 C 0.17311 0.96698 0.11498 0.0
C1757 C 0.1493 0.98038 0.13246 0.0
C1758 C 0.25453 0.98301 0.15516 0.0
C1759 C 0.16096 0.94964 0.08983 0.0
H1760 H 0.26828 0.9324 0.0493 0.0
H1761 H 0.24094 0.85745 0.1076 0.0
H1762 H 0.22368 0.99387 0.06512 0.0
H1763 H 0.25002 1.00543 0.09288 0.0
H1764 H 0.26871 0.99162 0.06175 0.0
H1765 H 0.21761 0.87104 0.14936 0.0
H1766 H 0.22093 0.91368 0.16129 0.0
H1767 H 0.18492 0.90127 0.14208 0.0
H1768 H 0.20086 1.00491 0.18338 0.0
H1769 H 0.12265 0.97863 0.12767 0.0
H1770 H 0.27149 0.98569 0.1376 0.0
H1771 H 0.26086 0.95895 0.1654 0.0
H1772 H 0.25951 1.00389 0.16939 0.0
H1773 H 0.17666 0.9569 0.07238 0.0
H1774 H 0.1342 0.95574 0.08521 0.0
H1775 H 0.16319 0.92192 0.09241 0.0
C1776 C 0.42279 0.97446 0.35113 0.0
C1777 C 0.41529 0.98867 0.3262 0.0
C1778 C 0.39704 0.96186 0.36726 0.0
C1779 C 0.36323 0.96441 0.35816 0.0
C1780 C 0.3554 0.98245 0.33452 0.0
C1781 C 0.38179 0.99407 0.31847 0.0
C1782 C 0.40647 0.94232 0.39227 0.0
C1783 C 0.31962 0.98648 0.3247 0.0
C1784 C 0.32221 0.88461 0.37916 0.0
C1785 C 0.31153 0.89381 0.4048 0.0
C1786 C 0.33562 0.90874 0.36185 0.0
C1787 C 0.33784 0.94256 0.37065 0.0
C1788 C 0.32239 0.9526 0.39481 0.0
C1789 C 0.30946 0.92784 0.41185 0.0
C1790 C 0.35187 0.89712 0.33607 0.0
C1791 C 0.32352 0.98862 0.40428 0.0
H1792 H 0.4489 0.97029 0.35682 0.0
H1793 H 0.37636 1.00539 0.29913 0.0
H1794 H 0.39111 0.95069 0.40957 0.0
H1795 H 0.40134 0.91512 0.38916 0.0
H1796 H 0.43357 0.9452 0.39752 0.0
H1797 H 0.31686 1.00974 0.31243 0.0
H1798 H 0.313 0.96474 0.31182 0.0
H1799 H 0.30141 0.98741 0.34156 0.0
H1800 H 0.32372 0.85817 0.37381 0.0
H1801 H 0.30063 0.93474 0.43165 0.0
H1802 H 0.37974 0.89755 0.33834 0.0
H1803 H 0.34522 0.91422 0.31928 0.0
H1804 H 0.34419 0.8711 0.33067 0.0
H1805 H 0.34802 0.99334 0.41436 0.0
H1806 H 0.30308 0.99384 0.41891 0.0
H1807 H 0.32129 1.00649 0.3872 0.0
C1808 C 0.34636 0.15953 0.60239 0.0
C1809 C 0.33266 0.15432 0.57701 0.0
C1810 C 0.3587 0.13234 0.61723 0.0
C1811 C 0.35645 0.09945 0.60631 0.0
C1812 C 0.33914 0.09389 0.58199 0.0
C1813 C 0.32777 0.12168 0.56731 0.0
C1814 C 0.37741 0.13933 0.64305 0.0
C1815 C 0.3355 0.05916 0.57016 0.0
C1816 C 0.43482 0.05482 0.62698 0.0
C1817 C 0.42431 0.04193 0.65171 0.0
C1818 C 0.41169 0.07054 0.60995 0.0
C1819 C 0.3775 0.07267 0.61799 0.0
C1820 C 0.3661 0.05504 0.64085 0.0
C1821 C 0.38989 0.03986 0.65769 0.0
C1822 C 0.42476 0.08917 0.5856 0.0
C1823 C 0.32965 0.05609 0.64947 0.0
H1824 H 0.35005 0.18505 0.60954 0.0
H1825 H 0.31689 0.1181 0.54758 0.0
H1826 H 0.36845 0.12244 0.65929 0.0
H1827 H 0.40474 0.13435 0.64019 0.0
H1828 H 0.37432 0.16584 0.64972 0.0
H1829 H 0.31324 0.05781 0.55667 0.0
H1830 H 0.35824 0.05321 0.55811 0.0
H1831 H 0.33304 0.03963 0.58601 0.0
H1832 H 0.46155 0.05643 0.62249 0.0
H1833 H 0.38199 0.02955 0.67684 0.0
H1834 H 0.4248 0.11666 0.58966 0.0
H1835 H 0.40823 0.08483 0.56802 0.0
H1836 H 0.45087 0.08142 0.58034 0.0
H1837 H 0.32488 0.07969 0.66071 0.0
H1838 H 0.32344 0.03452 0.66283 0.0
H1839 H 0.31249 0.0558 0.63188 0.0
C1840 C 0.26504 0.12333 0.91641 0.0
C1841 C 0.26205 0.15704 0.90845 0.0
C1842 C 0.25235 0.09771 0.90026 0.0
C1843 C 0.23604 0.10656 0.8761 0.0
C1844 C 0.23616 0.14033 0.86675 0.0
C1845 C 0.2495 0.16535 0.88316 0.0
C1846 C 0.2532 0.06187 0.91042 0.0
C1847 C 0.21874 0.15063 0.84102 0.0
C1848 C 0.19936 0.05075 0.82363 0.0
C1849 C 0.1651 0.05402 0.82984 0.0
C1850 C 0.22379 0.06481 0.8403 0.0
C1851 C 0.2132 0.08249 0.86329 0.0
C1852 C 0.17891 0.08229 0.87124 0.0
C1853 C 0.15511 0.06777 0.85431 0.0
C1854 C 0.26024 0.06409 0.83164 0.0
C1855 C 0.16676 0.10108 0.89574 0.0
H1856 H 0.27531 0.11727 0.936 0.0
H1857 H 0.24743 0.19162 0.87726 0.0
H1858 H 0.22899 0.05606 0.92056 0.0
H1859 H 0.25637 0.04376 0.89372 0.0
H1860 H 0.2739 0.05802 0.92515 0.0
H1861 H 0.22461 0.17704 0.83523 0.0
H1862 H 0.22617 0.1338 0.82435 0.0
H1863 H 0.19101 0.14842 0.84358 0.0
H1864 H 0.20678 0.03964 0.8047 0.0
H1865 H 0.12847 0.07026 0.85892 0.0
H1866 H 0.2774 0.06232 0.84917 0.0
H1867 H 0.26621 0.08774 0.82072 0.0
H1868 H 0.26534 0.04263 0.81799 0.0
H1869 H 0.18268 0.09501 0.91338 0.0
H1870 H 0.14011 0.09508 0.90068 0.0
H1871 H 0.16867 0.12862 0.89207 0.0
C1872 C 0.91131 0.04682 0.84018 0.0
C1873 C 0.94046 0.04392 0.85616 0.0
C1874 C 0.88699 0.07206 0.84465 0.0
C1875 C 0.89197 0.09593 0.86531 0.0
C1876 C 0.92144 0.0934 0.88148 0.0
C1877 C 0.94509 0.06725 0.87694 0.0
C1878 C 0.85552 0.07257 0.82754 0.0
C1879 C 0.92801 0.11841 0.90359 0.0
C1880 C 0.83948 0.17761 0.86154 0.0
C1881 C 0.81473 0.17181 0.88113 0.0
C1882 C 0.86505 0.15344 0.85642 0.0
C1883 C 0.86554 0.12239 0.87076 0.0
C1884 C 0.84013 0.11619 0.89005 0.0
C1885 C 0.81549 0.14089 0.89511 0.0
C1886 C 0.89181 0.16127 0.83586 0.0
C1887 C 0.83856 0.08319 0.90523 0.0
H1888 H 0.90707 0.02888 0.82421 0.0
H1889 H 0.96734 0.06531 0.88949 0.0
H1890 H 0.83285 0.07036 0.84046 0.0
H1891 H 0.85354 0.09685 0.8166 0.0
H1892 H 0.85512 0.0518 0.81266 0.0
H1893 H 0.95335 0.11503 0.91274 0.0
H1894 H 0.92591 0.14451 0.89567 0.0
H1895 H 0.90876 0.1156 0.91955 0.0
H1896 H 0.83916 0.20115 0.85047 0.0
H1897 H 0.79639 0.13556 0.91003 0.0
H1898 H 0.89039 0.14302 0.81913 0.0
H1899 H 0.91721 0.15862 0.84502 0.0
H1900 H 0.88919 0.18713 0.82751 0.0
H1901 H 0.83767 0.06182 0.89096 0.0
H1902 H 0.81621 0.08165 0.9186 0.0
H1903 H 0.86155 0.07995 0.91763 0.0
C1904 C 0.75001 0.16933 0.58831 0.0
C1905 C 0.77355 0.17624 0.60857 0.0
C1906 C 0.72439 0.14512 0.59181 0.0
C1907 C 0.723 0.12574 0.61573 0.0
C1908 C 0.74711 0.13221 0.63621 0.0
C1909 C 0.77168 0.15775 0.63259 0.0
C1910 C 0.69927 0.13998 0.56945 0.0
C1911 C 0.74772 0.11132 0.66156 0.0
C1912 C 0.64069 0.08061 0.63492 0.0
C1913 C 0.64604 0.04803 0.62508 0.0
C1914 C 0.66536 0.10602 0.63195 0.0
C1915 C 0.69648 0.09871 0.61909 0.0
C1916 C 0.70179 0.06573 0.6089 0.0
C1917 C 0.67663 0.04085 0.61214 0.0
C1918 C 0.65818 0.14071 0.64282 0.0
C1919 C 0.73438 0.05645 0.59512 0.0
H1920 H 0.75169 0.18296 0.56948 0.0
H1921 H 0.79044 0.1621 0.64801 0.0
H1922 H 0.70667 0.11759 0.55759 0.0
H1923 H 0.67353 0.13556 0.57743 0.0
H1924 H 0.69837 0.16207 0.55573 0.0
H1925 H 0.76903 0.11816 0.67494 0.0
H1926 H 0.72378 0.11466 0.67273 0.0
H1927 H 0.74982 0.08418 0.65649 0.0
H1928 H 0.61752 0.08597 0.64563 0.0
H1929 H 0.68119 1.01543 0.60509 0.0
H1930 H 0.66215 0.15994 0.62694 0.0
H1931 H 0.67592 0.14642 0.65938 0.0
H1932 H 0.632 0.14309 0.65053 0.0
H1933 H 0.73526 0.02942 0.5894 0.0
H1934 H 0.75608 0.06192 0.60847 0.0
H1935 H 0.73759 0.07191 0.57675 0.0
C1936 C 0.74227 0.8681 0.38908 0.0
C1937 C 0.77263 0.86933 0.37477 0.0
C1938 C 0.71723 0.89315 0.38585 0.0
C1939 C 0.72318 0.92125 0.36879 0.0
C1940 C 0.75428 0.92291 0.35464 0.0
C1941 C 0.77835 0.89675 0.35752 0.0
C1942 C 0.68467 0.88964 0.40123 0.0
C1943 C 0.76282 0.95309 0.33743 0.0
C1944 C 0.64984 0.97359 0.34036 0.0
C1945 C 0.64617 0.99934 0.35934 0.0
C1946 C 0.6741 0.94783 0.34353 0.0
C1947 C 0.69679 0.94854 0.36555 0.0
C1948 C 0.6937 0.97506 0.38454 0.0
C1949 C 0.66796 0.99961 0.38154 0.0
C1950 C 0.67511 0.9196 0.32335 0.0
C1951 C 0.7179 0.97803 0.40779 0.0
H1952 H 0.73825 0.84761 0.40314 0.0
H1953 H 0.80239 0.89855 0.34725 0.0
H1954 H 0.68498 0.90687 0.41866 0.0
H1955 H 0.66272 0.89651 0.3885 0.0
H1956 H 0.68106 0.86357 0.4089 0.0
H1957 H 0.7889 0.95179 0.32933 0.0
H1958 H 0.745 0.95501 0.32036 0.0
H1959 H 0.76017 0.97654 0.34932 0.0
H1960 H 0.6333 0.97339 0.32304 0.0
H1961 H 0.66583 1.01984 0.39599 0.0
H1962 H 0.67456 0.89486 0.33381 0.0
H1963 H 0.69887 0.92075 0.31171 0.0
H1964 H 0.65362 0.9208 0.30906 0.0
H1965 H 0.71132 0.95924 0.42341 0.0
H1966 H 0.71697 1.00344 0.41705 0.0
H1967 H 0.74418 0.97287 0.40128 0.0
C1968 C 0.91188 1.00494 0.14299 0.0
C1969 C 0.94451 1.00292 0.13193 0.0
C1970 C 0.88716 0.98035 0.13799 0.0
C1971 C 0.89506 0.95215 0.12185 0.0
C1972 C 0.92782 0.94997 0.11033 0.0
C1973 C 0.95198 0.97556 0.11519 0.0
C1974 C 0.85241 0.98479 0.14994 0.0
C1975 C 0.93752 0.92023 0.09324 0.0
C1976 C 0.83755 0.87492 0.13105 0.0
C1977 C 0.81669 0.87687 0.10833 0.0
C1978 C 0.86362 0.89867 0.13538 0.0
C1979 C 0.86875 0.92546 0.11681 0.0
C1980 C 0.84754 0.92762 0.09399 0.0
C1981 C 0.82223 0.90331 0.08995 0.0
C1982 C 0.88569 0.89515 0.15989 0.0
C1983 C 0.85094 0.95612 0.07403 0.0
H1984 H 0.90534 0.02617 0.15558 0.0
H1985 H 0.97692 0.9737 0.10643 0.0
H1986 H 0.833 0.98384 0.13392 0.0
H1987 H 0.84699 0.96393 0.16412 0.0
H1988 H 0.84975 1.00901 0.16084 0.0
H1989 H 0.96435 0.92119 0.08688 0.0
H1990 H 0.93318 0.89646 0.10451 0.0
H1991 H 0.92142 0.91937 0.07507 0.0
H1992 H 0.83355 0.85484 0.14548 0.0
H1993 H 0.80635 0.90544 0.07234 0.0
H1994 H 0.88182 0.91698 0.17336 0.0
H1995 H 0.91268 0.89512 0.15395 0.0
H1996 H 0.88029 0.87171 0.17133 0.0
H1997 H 0.84809 0.98067 0.08438 0.0
H1998 H 0.83188 0.95471 0.05772 0.0
H1999 H 0.87638 0.95574 0.06484 0.0
C2000 C 0.68993 0.48226 0.66465 0.0
C2001 C 0.65571 0.48093 0.65792 0.0
C2002 C 0.714 0.46771 0.64797 0.0
C2003 C 0.70306 0.45135 0.62448 0.0
C2004 C 0.66879 0.45268 0.61645 0.0
C2005 C 0.64533 0.46778 0.6334 0.0
C2006 C 0.75045 0.4671 0.65676 0.0
C2007 C 0.65638 0.43523 0.59144 0.0
C2008 C 0.75725 0.41507 0.57058 0.0
C2009 C 0.75539 0.38086 0.57722 0.0
C2010 C 0.74278 0.43919 0.58724 0.0
C2011 C 0.72588 0.4283 0.61057 0.0
C2012 C 0.72653 0.39398 0.61847 0.0
C2013 C 0.74161 0.37048 0.60158 0.0
C2014 C 0.74289 0.47569 0.57863 0.0
C2015 C 0.70844 0.38163 0.64328 0.0
H2016 H 0.69755 0.49296 0.68369 0.0
H2017 H 0.61867 0.467 0.6285 0.0
H2018 H 0.75635 0.44217 0.66577 0.0
H2019 H 0.76759 0.4708 0.63943 0.0
H2020 H 0.75575 0.48678 0.67196 0.0
H2021 H 0.6298 0.44188 0.58665 0.0
H2022 H 0.6724 0.44184 0.574 0.0
H2023 H 0.65799 0.40752 0.5943 0.0
H2024 H 0.76834 0.42268 0.55164 0.0
H2025 H 0.74036 0.34382 0.60637 0.0
H2026 H 0.74668 0.49255 0.59606 0.0
H2027 H 0.71814 0.48211 0.56952 0.0
H2028 H 0.76286 0.48081 0.56355 0.0
H2029 H 0.71513 0.39727 0.66086 0.0
H2030 H 0.71449 0.3549 0.64796 0.0
H2031 H 0.68077 0.38384 0.64024 0.0
C2032 C 0.82474 0.41875 0.91237 0.0
C2033 C 0.82748 0.38477 0.90538 0.0
C2034 C 0.83899 0.44352 0.89612 0.0
C2035 C 0.85659 0.43348 0.87292 0.0
C2036 C 0.85626 0.39945 0.86441 0.0
C2037 C 0.84134 0.3753 0.88087 0.0
C2038 C 0.83841 0.4797 0.90532 0.0
C2039 C 0.8751 0.38793 0.83974 0.0
C2040 C 0.89744 0.4869 0.82075 0.0
C2041 C 0.93113 0.48378 0.82873 0.0
C2042 C 0.8718 0.47361 0.83662 0.0
C2043 C 0.88066 0.45657 0.86047 0.0
C2044 C 0.91441 0.45649 0.86987 0.0
C2045 C 0.93945 0.47048 0.85377 0.0
C2046 C 0.83593 0.47467 0.82647 0.0
C2047 C 0.92469 0.43824 0.89525 0.0
H2048 H 0.81353 0.42564 0.9314 0.0
H2049 H 0.84321 0.3488 0.87579 0.0
H2050 H 0.86227 0.4854 0.91602 0.0
H2051 H 0.83637 0.49729 0.88805 0.0
H2052 H 0.81715 0.48446 0.9193 0.0
H2053 H 0.86904 0.36147 0.8344 0.0
H2054 H 0.86912 0.40433 0.82234 0.0
H2055 H 0.90267 0.38969 0.84342 0.0
H2056 H 0.89146 0.49776 0.80134 0.0
H2057 H 0.96573 0.46837 0.85963 0.0
H2058 H 0.81777 0.47755 0.84322 0.0
H2059 H 0.83011 0.45066 0.81613 0.0
H2060 H 0.83211 0.4956 0.81193 0.0
H2061 H 0.90787 0.44517 0.9121 0.0
H2062 H 0.95115 0.44385 0.90109 0.0
H2063 H 0.9224 0.41064 0.8922 0.0
C2064 C 0.92524 0.55461 0.12538 0.0
C2065 C 0.91704 0.54263 0.15088 0.0
C2066 C 0.90036 0.56887 0.10914 0.0
C2067 C 0.86678 0.57029 0.1188 0.0
C2068 C 0.85777 0.55361 0.14277 0.0
C2069 C 0.88333 0.54021 0.15887 0.0
C2070 C 0.91099 0.5867 0.08368 0.0
C2071 C 0.82202 0.55373 0.15308 0.0
C2072 C 0.83358 0.65541 0.10132 0.0
C2073 C 0.8195 0.64866 0.07626 0.0
C2074 C 0.84629 0.62921 0.11703 0.0
C2075 C 0.84402 0.59575 0.10734 0.0
C2076 C 0.82576 0.5886 0.08375 0.0
C2077 C 0.81392 0.61542 0.06818 0.0
C2078 C 0.86595 0.63788 0.14208 0.0
C2079 C 0.82207 0.55317 0.07334 0.0
H2080 H 0.95151 0.55641 0.11947 0.0
H2081 H 0.87733 0.53058 0.17867 0.0
H2082 H 0.89364 0.58059 0.06698 0.0
H2083 H 0.90995 0.61438 0.08679 0.0
H2084 H 0.93709 0.5799 0.07761 0.0
H2085 H 0.8175 0.5321 0.16679 0.0
H2086 H 0.81746 0.57725 0.16449 0.0
H2087 H 0.80355 0.5528 0.13637 0.0
H2088 H 0.83785 0.68131 0.10732 0.0
H2089 H 0.80265 0.61054 0.04876 0.0
H2090 H 0.89325 0.63337 0.13858 0.0
H2091 H 0.85812 0.62166 0.15908 0.0
H2092 H 0.86257 0.66464 0.14798 0.0
H2093 H 0.84422 0.54684 0.06073 0.0
H2094 H 0.79913 0.55075 0.06068 0.0
H2095 H 0.82076 0.53455 0.08995 0.0
C2096 C 0.65864 0.56342 0.35273 0.0
C2097 C 0.66823 0.55023 0.32797 0.0
C2098 C 0.68262 0.57801 0.36947 0.0
C2099 C 0.71675 0.57869 0.3611 0.0
C2100 C 0.72701 0.56148 0.33777 0.0
C2101 C 0.70236 0.54757 0.3212 0.0
C2102 C 0.67073 0.59641 0.39423 0.0
C2103 C 0.76331 0.56103 0.32874 0.0
C2104 C 0.75249 0.66185 0.38087 0.0
C2105 C 0.76518 0.65367 0.40615 0.0
C2106 C 0.73928 0.63671 0.3645 0.0
C2107 C 0.73955 0.60292 0.37381 0.0
C2108 C 0.75603 0.59425 0.39795 0.0
C2109 C 0.76839 0.62001 0.41415 0.0
C2110 C 0.72155 0.64689 0.33886 0.0
C2111 C 0.7575 0.55838 0.408 0.0
H2112 H 0.63208 0.56548 0.35773 0.0
H2113 H 0.70947 0.53697 0.30201 0.0
H2114 H 0.68675 0.58995 0.41173 0.0
H2115 H 0.67274 0.62401 0.39089 0.0
H2116 H 0.64409 0.59044 0.39926 0.0
H2117 H 0.76835 0.53944 0.31521 0.0
H2118 H 0.76886 0.58457 0.31754 0.0
H2119 H 0.7808 0.55963 0.34609 0.0
H2120 H 0.7502 0.68809 0.37496 0.0
H2121 H 0.77869 0.61407 0.43376 0.0
H2122 H 0.69388 0.64395 0.34143 0.0
H2123 H 0.72937 0.63045 0.32207 0.0
H2124 H 0.72676 0.6735 0.33325 0.0
H2125 H 0.7336 0.55223 0.41847 0.0
H2126 H 0.77856 0.55474 0.42244 0.0
H2127 H 0.76055 0.54038 0.39121 0.0
C2128 C 0.34213 0.67464 0.35866 0.0
C2129 C 0.31666 0.66844 0.37758 0.0
C2130 C 0.36828 0.65086 0.35416 0.0
C2131 C 0.36877 0.61981 0.36851 0.0
C2132 C 0.34271 0.61328 0.38721 0.0
C2133 C 0.31743 0.63756 0.39161 0.0
C2134 C 0.39564 0.65909 0.3342 0.0
C2135 C 0.34112 0.58031 0.40241 0.0
C2136 C 0.4164 0.54463 0.33891 0.0
C2137 C 0.44516 0.54204 0.3554 0.0
C2138 C 0.39169 0.56967 0.34285 0.0
C2139 C 0.39575 0.59363 0.36358 0.0
C2140 C 0.42482 0.59146 0.38025 0.0
C2141 C 0.44898 0.56559 0.37614 0.0
C2142 C 0.36082 0.56989 0.32506 0.0
C2143 C 0.4304 0.61654 0.40247 0.0
H2144 H 0.34188 0.69818 0.34759 0.0
H2145 H 0.29787 0.63197 0.40609 0.0
H2146 H 0.42077 0.6565 0.34382 0.0
H2147 H 0.39482 0.64103 0.31731 0.0
H2148 H 0.3931 0.68502 0.32597 0.0
H2149 H 0.31849 0.57857 0.41547 0.0
H2150 H 0.34077 0.55891 0.38815 0.0
H2151 H 0.36386 0.5773 0.41515 0.0
H2152 H 0.41278 0.52666 0.32287 0.0
H2153 H 0.47085 0.56391 0.38911 0.0
H2154 H 0.35945 0.59386 0.31364 0.0
H2155 H 0.33766 0.56822 0.33748 0.0
H2156 H 0.3608 0.54872 0.31054 0.0
H2157 H 0.42851 0.64261 0.39446 0.0
H2158 H 0.45538 0.61329 0.41226 0.0
H2159 H 0.41053 0.6137 0.41794 0.0
C2160 C 0.16469 0.5414 0.10326 0.0
C2161 C 0.13944 0.54685 0.12248 0.0
C2162 C 0.19139 0.56463 0.09969 0.0
C2163 C 0.19232 0.59474 0.11508 0.0
C2164 C 0.16635 0.60044 0.13415 0.0
C2165 C 0.14089 0.57612 0.13803 0.0
C2166 C 0.21944 0.55613 0.08037 0.0
C2167 C 0.16561 0.63187 0.15108 0.0
C2168 C 0.27343 0.64621 0.12592 0.0
C2169 C 0.27208 0.66943 0.10464 0.0
C2170 C 0.2484 0.6211 0.12907 0.0
C2171 C 0.22029 0.62018 0.11133 0.0
C2172 C 0.21856 0.64427 0.09025 0.0
C2173 C 0.24484 0.66783 0.08676 0.0
C2174 C 0.25252 0.59529 0.15114 0.0
C2175 C 0.18856 0.64571 0.07162 0.0
H2176 H 0.1645 0.5181 0.09195 0.0
H2177 H 0.12214 0.57985 0.15356 0.0
H2178 H 0.21934 0.57411 0.06333 0.0
H2179 H 0.24427 0.55844 0.0905 0.0
H2180 H 0.21705 0.53021 0.07223 0.0
H2181 H 0.14009 0.63655 0.15948 0.0
H2182 H 0.18333 0.6289 0.16812 0.0
H2183 H 0.17343 0.65432 0.13932 0.0
H2184 H 0.29482 0.64679 0.13948 0.0
H2185 H 0.24382 0.6855 0.07015 0.0
H2186 H 0.24552 0.56977 0.14402 0.0
H2187 H 0.23567 0.60171 0.16808 0.0
H2188 H 0.27882 0.59445 0.15886 0.0
H2189 H 0.18711 0.62234 0.0596 0.0
H2190 H 0.18979 0.66751 0.05763 0.0
H2191 H 0.16492 0.6475 0.08345 0.0
C2192 C 0.26876 0.40271 0.89435 0.0
C2193 C 0.27172 0.37362 0.87839 0.0
C2194 C 0.24423 0.42755 0.88933 0.0
C2195 C 0.22109 0.42332 0.86801 0.0
C2196 C 0.22372 0.39409 0.8517 0.0
C2197 C 0.24921 0.36979 0.85687 0.0
C2198 C 0.24362 0.45869 0.9067 0.0
C2199 C 0.19941 0.38838 0.82889 0.0
C2200 C 0.14034 0.47688 0.87233 0.0
C2201 C 0.14665 0.50235 0.8534 0.0
C2202 C 0.16386 0.45054 0.87677 0.0
C2203 C 0.19491 0.45005 0.86252 0.0
C2204 C 0.20166 0.47619 0.84389 0.0
C2205 C 0.17744 0.50155 0.83936 0.0
C2206 C 0.1554 0.42306 0.89662 0.0
C2207 C 0.23483 0.47788 0.82904 0.0
H2208 H 0.28609 0.40657 0.91085 0.0
H2209 H 0.25127 0.34773 0.84425 0.0
H2210 H 0.24597 0.4816 0.89402 0.0
H2211 H 0.21924 0.46047 0.91746 0.0
H2212 H 0.26426 0.45878 0.92179 0.0
H2213 H 0.20285 0.36328 0.8195 0.0
H2214 H 0.17305 0.39055 0.83618 0.0
H2215 H 0.20295 0.40799 0.81327 0.0
H2216 H 0.11682 0.47722 0.88338 0.0
H2217 H 0.18302 0.52123 0.82493 0.0
H2218 H 0.17291 0.42414 0.91394 0.0
H2219 H 0.15865 0.39799 0.88717 0.0
H2220 H 0.12916 0.42523 0.90424 0.0
H2221 H 0.25608 0.47812 0.84353 0.0
H2222 H 0.23671 0.5006 0.81604 0.0
H2223 H 0.23799 0.45527 0.81631 0.0
C2224 C 0.34913 0.36868 0.62586 0.0
C2225 C 0.32231 0.37552 0.60827 0.0
C2226 C 0.37485 0.39278 0.6304 0.0
C2227 C 0.37333 0.42492 0.61769 0.0
C2228 C 0.34576 0.43216 0.60053 0.0
C2229 C 0.32106 0.40743 0.59583 0.0
C2230 C 0.40395 0.38372 0.64856 0.0
C2231 C 0.34193 0.46628 0.58731 0.0
C2232 C 0.42052 0.49821 0.65019 0.0
C2233 C 0.4483 0.50321 0.63301 0.0
C2234 C 0.39625 0.47309 0.64544 0.0
C2235 C 0.39968 0.45148 0.6231 0.0
C2236 C 0.42764 0.45614 0.60561 0.0
C2237 C 0.45141 0.48206 0.61062 0.0
C2238 C 0.36643 0.47027 0.66418 0.0
C2239 C 0.43245 0.43367 0.58158 0.0
H2240 H 0.35041 0.34429 0.63564 0.0
H2241 H 0.30029 0.41343 0.58249 0.0
H2242 H 0.42818 0.38771 0.63787 0.0
H2243 H 0.40406 0.4004 0.66634 0.0
H2244 H 0.40275 0.35715 0.65555 0.0
H2245 H 0.31816 0.46847 0.57561 0.0
H2246 H 0.34226 0.48639 0.6027 0.0
H2247 H 0.3634 0.47099 0.57359 0.0
H2248 H 0.4173 0.51435 0.66746 0.0
H2249 H 0.4724 0.48568 0.59703 0.0
H2250 H 0.36587 0.44495 0.67361 0.0
H2251 H 0.34259 0.47333 0.65273 0.0
H2252 H 0.36705 0.48946 0.68034 0.0
H2253 H 0.43174 0.40682 0.58786 0.0
H2254 H 0.45668 0.43861 0.57113 0.0
H2255 H 0.41155 0.43759 0.56711 0.0
loop_
_geom_bond_atom_site_label_1
_geom_bond_atom_site_label_2
_geom_bond_distance
_geom_bond_site_symmetry_2
_ccdc_geom_bond_type
O0 Tb1 2.292 1_455 S
O0 C3 1.255 . S
Tb1 O0 2.292 1_655 S
Tb1 O17 2.326 . S
Tb1 O19 2.500 . S
Tb1 O20 2.473 . S
Tb1 O23 2.324 . S
Eu2 O6 2.292 . S
Eu2 C7 2.852 1_645 S
Eu2 O18 2.324 . S
Eu2 O22 2.326 . S
Eu2 O24 2.500 1_645 S
Eu2 O25 2.473 1_655 S
C3 O0 1.255 . S
C3 O4 1.247 . S
O4 C3 1.247 . S
C5 O17 1.242 . S
C5 O18 1.258 . S
O6 Eu2 2.292 . S
O6 C8 1.255 . S
C7 Eu2 2.852 1_465 S
C7 C11 1.503 . S
C7 O24 1.273 . S
C7 O25 1.257 1_565 S
C8 O6 1.255 . S
C8 O9 1.247 . S
O9 C8 1.247 . S
C10 O22 1.242 1_565 S
C10 O23 1.258 1_565 S
C11 C7 1.503 . S
C11 C12 1.379 . S
C11 C16 1.392 . S
C12 C11 1.379 . S
C12 C13 1.404 . S
C12 H26 0.929 . S
C13 C12 1.404 . S
C13 C14 1.389 . S
C14 C13 1.389 . S
C14 C15 1.399 . S
C14 H27 0.931 . S
C15 C14 1.399 . S
C15 C16 1.390 . S
C16 C11 1.392 . S
C16 C15 1.390 . S
C16 H28 0.929 . S
O17 Tb1 2.326 . S
O17 C5 1.242 . S
O18 Eu2 2.324 . S
O18 C5 1.258 . S
O19 Tb1 2.500 . S
O19 C21 1.273 . S
O20 Tb1 2.473 . S
O20 C21 1.257 . S
C21 O19 1.273 . S
C21 O20 1.257 . S
O22 Eu2 2.326 . S
O22 C10 1.242 1_545 S
O23 Tb1 2.324 . S
O23 C10 1.258 1_545 S
O24 Eu2 2.500 1_465 S
O24 C7 1.273 . S
O25 Eu2 2.473 1_455 S
O25 C7 1.257 1_545 S
H26 C12 0.929 . S
H27 C14 0.931 . S
H28 C16 0.929 . S
O29 Tb30 2.292 . S
O29 C32 1.255 . S
Tb30 O29 2.292 . S
Tb30 O46 2.326 . S
Tb30 O48 2.500 . S
Tb30 O49 2.473 . S
Tb30 O52 2.324 . S
Eu31 O35 2.292 . S
Eu31 C36 2.852 . S
Eu31 O47 2.324 . S
Eu31 O51 2.326 . S
Eu31 O53 2.500 . S
Eu31 O54 2.473 . S
C32 O29 1.255 . S
C32 O33 1.247 . S
O33 C32 1.247 . S
C34 O46 1.242 . S
C34 O47 1.258 . S
O35 Eu31 2.292 . S
O35 C37 1.255 . S
C36 Eu31 2.852 . S
C36 C40 1.503 . S
C36 O53 1.273 . S
C36 O54 1.257 . S
C37 O35 1.255 . S
C37 O38 1.247 . S
O38 C37 1.247 . S
C39 O51 1.242 . S
C39 O52 1.258 . S
C40 C36 1.503 . S
C40 C41 1.379 . S
C40 C45 1.392 . S
C41 C40 1.379 . S
C41 C42 1.404 . S
C41 H55 0.929 . S
C42 C41 1.404 . S
C42 C43 1.389 . S
C43 C42 1.389 . S
C43 C44 1.399 . S
C43 H56 0.931 . S
C44 C43 1.399 . S
C44 C45 1.390 . S
C45 C40 1.392 . S
C45 C44 1.390 . S
C45 H57 0.929 . S
O46 Tb30 2.326 . S
O46 C34 1.242 . S
O47 Eu31 2.324 . S
O47 C34 1.258 . S
O48 Tb30 2.500 . S
O48 C50 1.273 . S
O49 Tb30 2.473 . S
O49 C50 1.257 . S
C50 O48 1.273 . S
C50 O49 1.257 . S
O51 Eu31 2.326 . S
O51 C39 1.242 . S
O52 Tb30 2.324 . S
O52 C39 1.258 . S
O53 Eu31 2.500 . S
O53 C36 1.273 . S
O54 Eu31 2.473 . S
O54 C36 1.257 . S
H55 C41 0.929 . S
H56 C43 0.931 . S
H57 C45 0.929 . S
O58 Tb59 2.292 . S
O58 C61 1.255 . S
Tb59 O58 2.292 . S
Tb59 O75 2.326 . S
Tb59 O77 2.500 . S
Tb59 O78 2.473 . S
Tb59 O81 2.324 . S
Eu60 O64 2.292 . S
Eu60 C65 2.852 1_565 S
Eu60 O76 2.324 . S
Eu60 O80 2.326 . S
Eu60 O82 2.500 1_565 S
Eu60 O83 2.473 . S
C61 O58 1.255 . S
C61 O62 1.247 . S
O62 C61 1.247 . S
C63 O75 1.242 . S
C63 O76 1.258 . S
O64 Eu60 2.292 . S
O64 C66 1.255 . S
C65 Eu60 2.852 1_545 S
C65 C69 1.503 . S
C65 O82 1.273 . S
C65 O83 1.257 1_545 S
C66 O64 1.255 . S
C66 O67 1.247 . S
O67 C66 1.247 . S
C68 O80 1.242 1_545 S
C68 O81 1.258 1_545 S
C69 C65 1.503 . S
C69 C70 1.379 . S
C69 C74 1.392 . S
C70 C69 1.379 . S
C70 C71 1.404 . S
C70 H84 0.929 . S
C71 C70 1.404 . S
C71 C72 1.389 . S
C72 C71 1.389 . S
C72 C73 1.399 . S
C72 H85 0.931 . S
C73 C72 1.399 . S
C73 C74 1.390 . S
C74 C69 1.392 . S
C74 C73 1.390 . S
C74 H86 0.929 . S
O75 Tb59 2.326 . S
O75 C63 1.242 . S
O76 Eu60 2.324 . S
O76 C63 1.258 . S
O77 Tb59 2.500 . S
O77 C79 1.273 . S
O78 Tb59 2.473 . S
O78 C79 1.257 . S
C79 O77 1.273 . S
C79 O78 1.257 . S
O80 Eu60 2.326 . S
O80 C68 1.242 1_565 S
O81 Tb59 2.324 . S
O81 C68 1.258 1_565 S
O82 Eu60 2.500 1_545 S
O82 C65 1.273 . S
O83 Eu60 2.473 . S
O83 C65 1.257 1_565 S
H84 C70 0.929 . S
H85 C72 0.931 . S
H86 C74 0.929 . S
O87 Tb88 2.292 . S
O87 C90 1.255 . S
Tb88 O87 2.292 . S
Tb88 O104 2.326 . S
Tb88 O106 2.500 . S
Tb88 O107 2.473 . S
Tb88 O110 2.324 . S
Eu89 O93 2.292 . S
Eu89 C94 2.852 . S
Eu89 O105 2.324 . S
Eu89 O109 2.326 . S
Eu89 O111 2.500 . S
Eu89 O112 2.473 . S
C90 O87 1.255 . S
C90 O91 1.247 . S
O91 C90 1.247 . S
C92 O104 1.242 . S
C92 O105 1.258 . S
O93 Eu89 2.292 . S
O93 C95 1.255 . S
C94 Eu89 2.852 . S
C94 C98 1.503 . S
C94 O111 1.273 . S
C94 O112 1.257 . S
C95 O93 1.255 . S
C95 O96 1.247 . S
O96 C95 1.247 . S
C97 O109 1.242 . S
C97 O110 1.258 . S
C98 C94 1.503 . S
C98 C99 1.379 . S
C98 C103 1.392 . S
C99 C98 1.379 . S
C99 C100 1.404 . S
C99 H113 0.929 . S
C100 C99 1.404 . S
C100 C101 1.389 . S
C101 C100 1.389 . S
C101 C102 1.399 . S
C101 H114 0.931 . S
C102 C101 1.399 . S
C102 C103 1.390 . S
C103 C98 1.392 . S
C103 C102 1.390 . S
C103 H115 0.929 . S
O104 Tb88 2.326 . S
O104 C92 1.242 . S
O105 Eu89 2.324 . S
O105 C92 1.258 . S
O106 Tb88 2.500 . S
O106 C108 1.273 . S
O107 Tb88 2.473 . S
O107 C108 1.257 . S
C108 O106 1.273 . S
C108 O107 1.257 . S
O109 Eu89 2.326 . S
O109 C97 1.242 . S
O110 Tb88 2.324 . S
O110 C97 1.258 . S
O111 Eu89 2.500 . S
O111 C94 1.273 . S
O112 Eu89 2.473 . S
O112 C94 1.257 . S
H113 C99 0.929 . S
H114 C101 0.931 . S
H115 C103 0.929 . S
O116 Tb117 2.292 1_455 S
O116 C119 1.255 . S
Tb117 O116 2.292 1_655 S
Tb117 O133 2.326 . S
Tb117 O135 2.500 . S
Tb117 O136 2.473 . S
Tb117 O139 2.324 . S
Eu118 O122 2.292 . S
Eu118 C123 2.852 1_665 S
Eu118 O134 2.324 . S
Eu118 O138 2.326 . S
Eu118 O140 2.500 1_665 S
Eu118 O141 2.473 1_655 S
C119 O116 1.255 . S
C119 O120 1.247 . S
O120 C119 1.247 . S
C121 O133 1.242 . S
C121 O134 1.258 . S
O122 Eu118 2.292 . S
O122 C124 1.255 . S
C123 Eu118 2.852 1_445 S
C123 C127 1.503 . S
C123 O140 1.273 . S
C123 O141 1.257 1_545 S
C124 O122 1.255 . S
C124 O125 1.247 . S
O125 C124 1.247 . S
C126 O138 1.242 1_545 S
C126 O139 1.258 1_545 S
C127 C123 1.503 . S
C127 C128 1.379 . S
C127 C132 1.392 . S
C128 C127 1.379 . S
C128 C129 1.404 . S
C128 H142 0.929 . S
C129 C128 1.404 . S
C129 C130 1.389 . S
C130 C129 1.389 . S
C130 C131 1.399 . S
C130 H143 0.931 . S
C131 C130 1.399 . S
C131 C132 1.390 . S
C132 C127 1.392 . S
C132 C131 1.390 . S
C132 H144 0.929 . S
O133 Tb117 2.326 . S
O133 C121 1.242 . S
O134 Eu118 2.324 . S
O134 C121 1.258 . S
O135 Tb117 2.500 . S
O135 C137 1.273 . S
O136 Tb117 2.473 . S
O136 C137 1.257 . S
C137 O135 1.273 . S
C137 O136 1.257 . S
O138 Eu118 2.326 . S
O138 C126 1.242 1_565 S
O139 Tb117 2.324 . S
O139 C126 1.258 1_565 S
O140 Eu118 2.500 1_445 S
O140 C123 1.273 . S
O141 Eu118 2.473 1_455 S
O141 C123 1.257 1_565 S
H142 C128 0.929 . S
H143 C130 0.931 . S
H144 C132 0.929 . S
O145 Tb146 2.292 . S
O145 C148 1.255 . S
Tb146 O145 2.292 . S
Tb146 O162 2.326 . S
Tb146 O164 2.500 . S
Tb146 O165 2.473 . S
Tb146 O168 2.324 . S
Eu147 O151 2.292 . S
Eu147 C152 2.852 . S
Eu147 O163 2.324 . S
Eu147 O167 2.326 . S
Eu147 O169 2.500 . S
Eu147 O170 2.473 . S
C148 O145 1.255 . S
C148 O149 1.247 . S
O149 C148 1.247 . S
C150 O162 1.242 . S
C150 O163 1.258 . S
O151 Eu147 2.292 . S
O151 C153 1.255 . S
C152 Eu147 2.852 . S
C152 C156 1.503 . S
C152 O169 1.273 . S
C152 O170 1.257 . S
C153 O151 1.255 . S
C153 O154 1.247 . S
O154 C153 1.247 . S
C155 O167 1.242 . S
C155 O168 1.258 . S
C156 C152 1.503 . S
C156 C157 1.379 . S
C156 C161 1.392 . S
C157 C156 1.379 . S
C157 C158 1.404 . S
C157 H171 0.929 . S
C158 C157 1.404 . S
C158 C159 1.389 . S
C159 C158 1.389 . S
C159 C160 1.399 . S
C159 H172 0.931 . S
C160 C159 1.399 . S
C160 C161 1.390 . S
C161 C156 1.392 . S
C161 C160 1.390 . S
C161 H173 0.929 . S
O162 Tb146 2.326 . S
O162 C150 1.242 . S
O163 Eu147 2.324 . S
O163 C150 1.258 . S
O164 Tb146 2.500 . S
O164 C166 1.273 . S
O165 Tb146 2.473 . S
O165 C166 1.257 . S
C166 O164 1.273 . S
C166 O165 1.257 . S
O167 Eu147 2.326 . S
O167 C155 1.242 . S
O168 Tb146 2.324 . S
O168 C155 1.258 . S
O169 Eu147 2.500 . S
O169 C152 1.273 . S
O170 Eu147 2.473 . S
O170 C152 1.257 . S
H171 C157 0.929 . S
H172 C159 0.931 . S
H173 C161 0.929 . S
O174 Tb175 2.292 . S
O174 C177 1.255 . S
Tb175 O174 2.292 . S
Tb175 O191 2.326 . S
Tb175 O193 2.500 . S
Tb175 O194 2.473 . S
Tb175 O197 2.324 . S
Eu176 O180 2.292 . S
Eu176 C181 2.852 1_545 S
Eu176 O192 2.324 . S
Eu176 O196 2.326 . S
Eu176 O198 2.500 1_545 S
Eu176 O199 2.473 . S
C177 O174 1.255 . S
C177 O178 1.247 . S
O178 C177 1.247 . S
C179 O191 1.242 . S
C179 O192 1.258 . S
O180 Eu176 2.292 . S
O180 C182 1.255 . S
C181 Eu176 2.852 1_565 S
C181 C185 1.503 . S
C181 O198 1.273 . S
C181 O199 1.257 1_565 S
C182 O180 1.255 . S
C182 O183 1.247 . S
O183 C182 1.247 . S
C184 O196 1.242 1_565 S
C184 O197 1.258 1_565 S
C185 C181 1.503 . S
C185 C186 1.379 . S
C185 C190 1.392 . S
C186 C185 1.379 . S
C186 C187 1.404 . S
C186 H200 0.929 . S
C187 C186 1.404 . S
C187 C188 1.389 . S
C188 C187 1.389 . S
C188 C189 1.399 . S
C188 H201 0.931 . S
C189 C188 1.399 . S
C189 C190 1.390 . S
C190 C185 1.392 . S
C190 C189 1.390 . S
C190 H202 0.929 . S
O191 Tb175 2.326 . S
O191 C179 1.242 . S
O192 Eu176 2.324 . S
O192 C179 1.258 . S
O193 Tb175 2.500 . S
O193 C195 1.273 . S
O194 Tb175 2.473 . S
O194 C195 1.257 . S
C195 O193 1.273 . S
C195 O194 1.257 . S
O196 Eu176 2.326 . S
O196 C184 1.242 1_545 S
O197 Tb175 2.324 . S
O197 C184 1.258 1_545 S
O198 Eu176 2.500 1_565 S
O198 C181 1.273 . S
O199 Eu176 2.473 . S
O199 C181 1.257 1_545 S
H200 C186 0.929 . S
H201 C188 0.931 . S
H202 C190 0.929 . S
O203 Tb204 2.292 . S
O203 C206 1.255 . S
Tb204 O203 2.292 . S
Tb204 O220 2.326 . S
Tb204 O222 2.500 . S
Tb204 O223 2.473 . S
Tb204 O226 2.324 . S
Eu205 O209 2.292 . S
Eu205 C210 2.852 . S
Eu205 O221 2.324 . S
Eu205 O225 2.326 . S
Eu205 O227 2.500 . S
Eu205 O228 2.473 . S
C206 O203 1.255 . S
C206 O207 1.247 . S
O207 C206 1.247 . S
C208 O220 1.242 . S
C208 O221 1.258 . S
O209 Eu205 2.292 . S
O209 C211 1.255 . S
C210 Eu205 2.852 . S
C210 C214 1.503 . S
C210 O227 1.273 . S
C210 O228 1.257 . S
C211 O209 1.255 . S
C211 O212 1.247 . S
O212 C211 1.247 . S
C213 O225 1.242 . S
C213 O226 1.258 . S
C214 C210 1.503 . S
C214 C215 1.379 . S
C214 C219 1.392 . S
C215 C214 1.379 . S
C215 C216 1.404 . S
C215 H229 0.929 . S
C216 C215 1.404 . S
C216 C217 1.389 . S
C217 C216 1.389 . S
C217 C218 1.399 . S
C217 H230 0.931 . S
C218 C217 1.399 . S
C218 C219 1.390 . S
C219 C214 1.392 . S
C219 C218 1.390 . S
C219 H231 0.929 . S
O220 Tb204 2.326 . S
O220 C208 1.242 . S
O221 Eu205 2.324 . S
O221 C208 1.258 . S
O222 Tb204 2.500 . S
O222 C224 1.273 . S
O223 Tb204 2.473 . S
O223 C224 1.257 . S
C224 O222 1.273 . S
C224 O223 1.257 . S
O225 Eu205 2.326 . S
O225 C213 1.242 . S
O226 Tb204 2.324 . S
O226 C213 1.258 . S
O227 Eu205 2.500 . S
O227 C210 1.273 . S
O228 Eu205 2.473 . S
O228 C210 1.257 . S
H229 C215 0.929 . S
H230 C217 0.931 . S
H231 C219 0.929 . S
O232 Tb233 2.292 . S
O232 C235 1.255 . S
Tb233 O232 2.292 . S
Tb233 O249 2.326 . S
Tb233 O251 2.500 . S
Tb233 O252 2.473 . S
Tb233 O255 2.324 . S
Eu234 O238 2.292 . S
Eu234 C239 2.852 . S
Eu234 O250 2.324 . S
Eu234 O254 2.326 . S
Eu234 O256 2.500 . S
Eu234 O257 2.473 . S
C235 O232 1.255 . S
C235 O236 1.247 . S
O236 C235 1.247 . S
C237 O249 1.242 . S
C237 O250 1.258 . S
O238 Eu234 2.292 . S
O238 C240 1.255 . S
C239 Eu234 2.852 . S
C239 C243 1.503 . S
C239 O256 1.273 . S
C239 O257 1.257 . S
C240 O238 1.255 . S
C240 O241 1.247 . S
O241 C240 1.247 . S
C242 O254 1.242 . S
C242 O255 1.258 . S
C243 C239 1.503 . S
C243 C244 1.379 . S
C243 C248 1.392 . S
C244 C243 1.379 . S
C244 C245 1.404 . S
C244 H258 0.929 . S
C245 C244 1.404 . S
C245 C246 1.389 . S
C246 C245 1.389 . S
C246 C247 1.399 . S
C246 H259 0.931 . S
C247 C246 1.399 . S
C247 C248 1.390 . S
C248 C243 1.392 . S
C248 C247 1.390 . S
C248 H260 0.929 . S
O249 Tb233 2.326 . S
O249 C237 1.242 . S
O250 Eu234 2.324 . S
O250 C237 1.258 . S
O251 Tb233 2.500 . S
O251 C253 1.273 . S
O252 Tb233 2.473 . S
O252 C253 1.257 . S
C253 O251 1.273 . S
C253 O252 1.257 . S
O254 Eu234 2.326 . S
O254 C242 1.242 . S
O255 Tb233 2.324 . S
O255 C242 1.258 . S
O256 Eu234 2.500 . S
O256 C239 1.273 . S
O257 Eu234 2.473 . S
O257 C239 1.257 . S
H258 C244 0.929 . S
H259 C246 0.931 . S
H260 C248 0.929 . S
O261 Tb262 2.292 . S
O261 C264 1.255 . S
Tb262 O261 2.292 . S
Tb262 O278 2.326 . S
Tb262 O280 2.500 . S
Tb262 O281 2.473 . S
Tb262 O284 2.324 . S
Eu263 O267 2.292 . S
Eu263 C268 2.852 . S
Eu263 O279 2.324 . S
Eu263 O283 2.326 . S
Eu263 O285 2.500 . S
Eu263 O286 2.473 . S
C264 O261 1.255 . S
C264 O265 1.247 . S
O265 C264 1.247 . S
C266 O278 1.242 . S
C266 O279 1.258 . S
O267 Eu263 2.292 . S
O267 C269 1.255 . S
C268 Eu263 2.852 . S
C268 C272 1.503 . S
C268 O285 1.273 . S
C268 O286 1.257 . S
C269 O267 1.255 . S
C269 O270 1.247 . S
O270 C269 1.247 . S
C271 O283 1.242 . S
C271 O284 1.258 . S
C272 C268 1.503 . S
C272 C273 1.379 . S
C272 C277 1.392 . S
C273 C272 1.379 . S
C273 C274 1.404 . S
C273 H287 0.929 . S
C274 C273 1.404 . S
C274 C275 1.389 . S
C275 C274 1.389 . S
C275 C276 1.399 . S
C275 H288 0.931 . S
C276 C275 1.399 . S
C276 C277 1.390 . S
C277 C272 1.392 . S
C277 C276 1.390 . S
C277 H289 0.929 . S
O278 Tb262 2.326 . S
O278 C266 1.242 . S
O279 Eu263 2.324 . S
O279 C266 1.258 . S
O280 Tb262 2.500 . S
O280 C282 1.273 . S
O281 Tb262 2.473 . S
O281 C282 1.257 . S
C282 O280 1.273 . S
C282 O281 1.257 . S
O283 Eu263 2.326 . S
O283 C271 1.242 . S
O284 Tb262 2.324 . S
O284 C271 1.258 . S
O285 Eu263 2.500 . S
O285 C268 1.273 . S
O286 Eu263 2.473 . S
O286 C268 1.257 . S
H287 C273 0.929 . S
H288 C275 0.931 . S
H289 C277 0.929 . S
O290 Tb291 2.292 . S
O290 C293 1.255 . S
Tb291 O290 2.292 . S
Tb291 O307 2.326 . S
Tb291 O309 2.500 . S
Tb291 O310 2.473 . S
Tb291 O313 2.324 . S
Eu292 O296 2.292 . S
Eu292 C297 2.852 . S
Eu292 O308 2.324 . S
Eu292 O312 2.326 . S
Eu292 O314 2.500 . S
Eu292 O315 2.473 . S
C293 O290 1.255 . S
C293 O294 1.247 . S
O294 C293 1.247 . S
C295 O307 1.242 . S
C295 O308 1.258 . S
O296 Eu292 2.292 . S
O296 C298 1.255 . S
C297 Eu292 2.852 . S
C297 C301 1.503 . S
C297 O314 1.273 . S
C297 O315 1.257 . S
C298 O296 1.255 . S
C298 O299 1.247 . S
O299 C298 1.247 . S
C300 O312 1.242 . S
C300 O313 1.258 . S
C301 C297 1.503 . S
C301 C302 1.379 . S
C301 C306 1.392 . S
C302 C301 1.379 . S
C302 C303 1.404 . S
C302 H316 0.929 . S
C303 C302 1.404 . S
C303 C304 1.389 . S
C304 C303 1.389 . S
C304 C305 1.399 . S
C304 H317 0.931 . S
C305 C304 1.399 . S
C305 C306 1.390 . S
C306 C301 1.392 . S
C306 C305 1.390 . S
C306 H318 0.929 . S
O307 Tb291 2.326 . S
O307 C295 1.242 . S
O308 Eu292 2.324 . S
O308 C295 1.258 . S
O309 Tb291 2.500 . S
O309 C311 1.273 . S
O310 Tb291 2.473 . S
O310 C311 1.257 . S
C311 O309 1.273 . S
C311 O310 1.257 . S
O312 Eu292 2.326 . S
O312 C300 1.242 . S
O313 Tb291 2.324 . S
O313 C300 1.258 . S
O314 Eu292 2.500 . S
O314 C297 1.273 . S
O315 Eu292 2.473 . S
O315 C297 1.257 . S
H316 C302 0.929 . S
H317 C304 0.931 . S
H318 C306 0.929 . S
O319 Tb320 2.292 . S
O319 C322 1.255 . S
Tb320 O319 2.292 . S
Tb320 O336 2.326 . S
Tb320 O338 2.500 . S
Tb320 O339 2.473 . S
Tb320 O342 2.324 . S
Eu321 O325 2.292 . S
Eu321 C326 2.852 . S
Eu321 O337 2.324 . S
Eu321 O341 2.326 . S
Eu321 O343 2.500 . S
Eu321 O344 2.473 . S
C322 O319 1.255 . S
C322 O323 1.247 . S
O323 C322 1.247 . S
C324 O336 1.242 . S
C324 O337 1.258 . S
O325 Eu321 2.292 . S
O325 C327 1.255 . S
C326 Eu321 2.852 . S
C326 C330 1.503 . S
C326 O343 1.273 . S
C326 O344 1.257 . S
C327 O325 1.255 . S
C327 O328 1.247 . S
O328 C327 1.247 . S
C329 O341 1.242 . S
C329 O342 1.258 . S
C330 C326 1.503 . S
C330 C331 1.379 . S
C330 C335 1.392 . S
C331 C330 1.379 . S
C331 C332 1.404 . S
C331 H345 0.929 . S
C332 C331 1.404 . S
C332 C333 1.389 . S
C333 C332 1.389 . S
C333 C334 1.399 . S
C333 H346 0.931 . S
C334 C333 1.399 . S
C334 C335 1.390 . S
C335 C330 1.392 . S
C335 C334 1.390 . S
C335 H347 0.929 . S
O336 Tb320 2.326 . S
O336 C324 1.242 . S
O337 Eu321 2.324 . S
O337 C324 1.258 . S
O338 Tb320 2.500 . S
O338 C340 1.273 . S
O339 Tb320 2.473 . S
O339 C340 1.257 . S
C340 O338 1.273 . S
C340 O339 1.257 . S
O341 Eu321 2.326 . S
O341 C329 1.242 . S
O342 Tb320 2.324 . S
O342 C329 1.258 . S
O343 Eu321 2.500 . S
O343 C326 1.273 . S
O344 Eu321 2.473 . S
O344 C326 1.257 . S
H345 C331 0.929 . S
H346 C333 0.931 . S
H347 C335 0.929 . S
O348 Tb349 2.292 . S
O348 C351 1.255 . S
Tb349 O348 2.292 . S
Tb349 O365 2.326 . S
Tb349 O367 2.500 . S
Tb349 O368 2.473 . S
Tb349 O371 2.324 . S
Eu350 O354 2.292 . S
Eu350 C355 2.852 . S
Eu350 O366 2.324 . S
Eu350 O370 2.326 . S
Eu350 O372 2.500 . S
Eu350 O373 2.473 . S
C351 O348 1.255 . S
C351 O352 1.247 . S
O352 C351 1.247 . S
C353 O365 1.242 . S
C353 O366 1.258 . S
O354 Eu350 2.292 . S
O354 C356 1.255 . S
C355 Eu350 2.852 . S
C355 C359 1.503 . S
C355 O372 1.273 . S
C355 O373 1.257 . S
C356 O354 1.255 . S
C356 O357 1.247 . S
O357 C356 1.247 . S
C358 O370 1.242 . S
C358 O371 1.258 . S
C359 C355 1.503 . S
C359 C360 1.379 . S
C359 C364 1.392 . S
C360 C359 1.379 . S
C360 C361 1.404 . S
C360 H374 0.929 . S
C361 C360 1.404 . S
C361 C362 1.389 . S
C362 C361 1.389 . S
C362 C363 1.399 . S
C362 H375 0.931 . S
C363 C362 1.399 . S
C363 C364 1.390 . S
C364 C359 1.392 . S
C364 C363 1.390 . S
C364 H376 0.929 . S
O365 Tb349 2.326 . S
O365 C353 1.242 . S
O366 Eu350 2.324 . S
O366 C353 1.258 . S
O367 Tb349 2.500 . S
O367 C369 1.273 . S
O368 Tb349 2.473 . S
O368 C369 1.257 . S
C369 O367 1.273 . S
C369 O368 1.257 . S
O370 Eu350 2.326 . S
O370 C358 1.242 . S
O371 Tb349 2.324 . S
O371 C358 1.258 . S
O372 Eu350 2.500 . S
O372 C355 1.273 . S
O373 Eu350 2.473 . S
O373 C355 1.257 . S
H374 C360 0.929 . S
H375 C362 0.931 . S
H376 C364 0.929 . S
O377 Tb378 2.292 . S
O377 C380 1.255 1_455 S
Tb378 O377 2.292 . S
Tb378 O394 2.326 . S
Tb378 O396 2.500 . S
Tb378 O397 2.473 . S
Tb378 O400 2.324 . S
Eu379 O383 2.292 . S
Eu379 C384 2.852 . S
Eu379 O395 2.324 . S
Eu379 O399 2.326 . S
Eu379 O401 2.500 . S
Eu379 O402 2.473 . S
C380 O377 1.255 1_655 S
C380 O381 1.247 . S
O381 C380 1.247 . S
C382 O394 1.242 . S
C382 O395 1.258 . S
O383 Eu379 2.292 . S
O383 C385 1.255 . S
C384 Eu379 2.852 . S
C384 C388 1.503 1_455 S
C384 O401 1.273 . S
C384 O402 1.257 . S
C385 O383 1.255 . S
C385 O386 1.247 . S
O386 C385 1.247 . S
C387 O399 1.242 . S
C387 O400 1.258 . S
C388 C384 1.503 1_655 S
C388 C389 1.379 . S
C388 C393 1.392 . S
C389 C388 1.379 . S
C389 C390 1.404 . S
C389 H403 0.929 . S
C390 C389 1.404 . S
C390 C391 1.389 . S
C391 C390 1.389 . S
C391 C392 1.399 . S
C391 H404 0.931 . S
C392 C391 1.399 . S
C392 C393 1.390 . S
C393 C388 1.392 . S
C393 C392 1.390 . S
C393 H405 0.929 1_655 S
O394 Tb378 2.326 . S
O394 C382 1.242 . S
O395 Eu379 2.324 . S
O395 C382 1.258 . S
O396 Tb378 2.500 . S
O396 C398 1.273 . S
O397 Tb378 2.473 . S
O397 C398 1.257 . S
C398 O396 1.273 . S
C398 O397 1.257 . S
O399 Eu379 2.326 . S
O399 C387 1.242 . S
O400 Tb378 2.324 . S
O400 C387 1.258 . S
O401 Eu379 2.500 . S
O401 C384 1.273 . S
O402 Eu379 2.473 . S
O402 C384 1.257 . S
H403 C389 0.929 . S
H404 C391 0.931 . S
H405 C393 0.929 1_455 S
O406 Tb407 2.292 . S
O406 C409 1.255 . S
Tb407 O406 2.292 . S
Tb407 O423 2.326 . S
Tb407 O425 2.500 . S
Tb407 O426 2.473 . S
Tb407 O429 2.324 . S
Eu408 O412 2.292 . S
Eu408 C413 2.852 . S
Eu408 O424 2.324 . S
Eu408 O428 2.326 . S
Eu408 O430 2.500 . S
Eu408 O431 2.473 . S
C409 O406 1.255 . S
C409 O410 1.247 . S
O410 C409 1.247 . S
C411 O423 1.242 . S
C411 O424 1.258 . S
O412 Eu408 2.292 . S
O412 C414 1.255 . S
C413 Eu408 2.852 . S
C413 C417 1.503 . S
C413 O430 1.273 . S
C413 O431 1.257 . S
C414 O412 1.255 . S
C414 O415 1.247 . S
O415 C414 1.247 . S
C416 O428 1.242 . S
C416 O429 1.258 . S
C417 C413 1.503 . S
C417 C418 1.379 . S
C417 C422 1.392 . S
C418 C417 1.379 . S
C418 C419 1.404 . S
C418 H432 0.929 . S
C419 C418 1.404 . S
C419 C420 1.389 . S
C420 C419 1.389 . S
C420 C421 1.399 . S
C420 H433 0.931 . S
C421 C420 1.399 . S
C421 C422 1.390 . S
C422 C417 1.392 . S
C422 C421 1.390 . S
C422 H434 0.929 . S
O423 Tb407 2.326 . S
O423 C411 1.242 . S
O424 Eu408 2.324 . S
O424 C411 1.258 . S
O425 Tb407 2.500 . S
O425 C427 1.273 . S
O426 Tb407 2.473 . S
O426 C427 1.257 . S
C427 O425 1.273 . S
C427 O426 1.257 . S
O428 Eu408 2.326 . S
O428 C416 1.242 . S
O429 Tb407 2.324 . S
O429 C416 1.258 . S
O430 Eu408 2.500 . S
O430 C413 1.273 . S
O431 Eu408 2.473 . S
O431 C413 1.257 . S
H432 C418 0.929 . S
H433 C420 0.931 . S
H434 C422 0.929 . S
O435 Tb436 2.292 . S
O435 C438 1.255 1_455 S
Tb436 O435 2.292 . S
Tb436 O452 2.326 . S
Tb436 O454 2.500 . S
Tb436 O455 2.473 . S
Tb436 O458 2.324 . S
Eu437 O441 2.292 . S
Eu437 C442 2.852 . S
Eu437 O453 2.324 . S
Eu437 O457 2.326 . S
Eu437 O459 2.500 . S
Eu437 O460 2.473 . S
C438 O435 1.255 1_655 S
C438 O439 1.247 . S
O439 C438 1.247 . S
C440 O452 1.242 . S
C440 O453 1.258 . S
O441 Eu437 2.292 . S
O441 C443 1.255 . S
C442 Eu437 2.852 . S
C442 C446 1.503 1_455 S
C442 O459 1.273 . S
C442 O460 1.257 . S
C443 O441 1.255 . S
C443 O444 1.247 . S
O444 C443 1.247 . S
C445 O457 1.242 . S
C445 O458 1.258 . S
C446 C442 1.503 1_655 S
C446 C447 1.379 . S
C446 C451 1.392 . S
C447 C446 1.379 . S
C447 C448 1.404 . S
C447 H461 0.929 . S
C448 C447 1.404 . S
C448 C449 1.389 . S
C449 C448 1.389 . S
C449 C450 1.399 . S
C449 H462 0.931 . S
C450 C449 1.399 . S
C450 C451 1.390 . S
C451 C446 1.392 . S
C451 C450 1.390 . S
C451 H463 0.929 1_655 S
O452 Tb436 2.326 . S
O452 C440 1.242 . S
O453 Eu437 2.324 . S
O453 C440 1.258 . S
O454 Tb436 2.500 . S
O454 C456 1.273 . S
O455 Tb436 2.473 . S
O455 C456 1.257 . S
C456 O454 1.273 . S
C456 O455 1.257 . S
O457 Eu437 2.326 . S
O457 C445 1.242 . S
O458 Tb436 2.324 . S
O458 C445 1.258 . S
O459 Eu437 2.500 . S
O459 C442 1.273 . S
O460 Eu437 2.473 . S
O460 C442 1.257 . S
H461 C447 0.929 . S
H462 C449 0.931 . S
H463 C451 0.929 1_455 S
C464 C465 1.391 . S
C464 C466 1.394 . S
C464 H480 0.931 . S
C465 C464 1.391 . S
C465 C469 1.376 1_455 S
C466 C464 1.394 . S
C466 C467 1.369 . S
C466 C470 1.531 . S
C467 C466 1.369 . S
C467 C468 1.410 1_455 S
C467 C475 1.503 . S
C468 C467 1.410 1_655 S
C468 C469 1.392 . S
C468 C471 1.511 . S
C469 C465 1.376 1_655 S
C469 C468 1.392 . S
C469 H481 0.929 . S
C470 C466 1.531 . S
C470 H482 0.960 . S
C470 H483 0.962 . S
C470 H484 0.960 . S
C471 C468 1.511 . S
C471 H485 0.961 . S
C471 H486 0.961 . S
C471 H487 0.961 . S
C472 C473 1.370 . S
C472 C474 1.363 . S
C472 H488 0.931 . S
C473 C472 1.370 . S
C473 C477 1.408 . S
C474 C472 1.363 . S
C474 C475 1.370 . S
C474 C478 1.524 . S
C475 C467 1.503 . S
C475 C474 1.370 . S
C475 C476 1.403 . S
C476 C475 1.403 . S
C476 C477 1.404 . S
C476 C479 1.539 1_455 S
C477 C473 1.408 . S
C477 C476 1.404 . S
C477 H489 0.930 . S
C478 C474 1.524 . S
C478 H490 0.956 . S
C478 H491 0.961 . S
C478 H492 0.961 . S
C479 C476 1.539 1_655 S
C479 H493 0.958 1_655 S
C479 H494 0.961 . S
C479 H495 0.960 . S
H480 C464 0.931 . S
H481 C469 0.929 . S
H482 C470 0.960 . S
H483 C470 0.962 . S
H484 C470 0.960 . S
H485 C471 0.961 . S
H486 C471 0.961 . S
H487 C471 0.961 . S
H488 C472 0.931 . S
H489 C477 0.930 . S
H490 C478 0.956 . S
H491 C478 0.961 . S
H492 C478 0.961 . S
H493 C479 0.958 1_455 S
H494 C479 0.961 . S
H495 C479 0.960 . S
C496 C497 1.391 . S
C496 C498 1.394 . S
C496 H512 0.931 . S
C497 C496 1.391 . S
C497 C501 1.376 . S
C498 C496 1.394 . S
C498 C499 1.369 1_655 S
C498 C502 1.531 . S
C499 C498 1.369 1_455 S
C499 C500 1.410 1_455 S
C499 C507 1.503 . S
C500 C499 1.410 1_655 S
C500 C501 1.392 . S
C500 C503 1.511 1_655 S
C501 C497 1.376 . S
C501 C500 1.392 . S
C501 H513 0.929 . S
C502 C498 1.531 . S
C502 H514 0.960 1_655 S
C502 H515 0.962 1_655 S
C502 H516 0.960 . S
C503 C500 1.511 1_455 S
C503 H517 0.961 . S
C503 H518 0.961 . S
C503 H519 0.961 . S
C504 C505 1.370 . S
C504 C506 1.363 . S
C504 H520 0.931 . S
C505 C504 1.370 . S
C505 C509 1.408 . S
C506 C504 1.363 . S
C506 C507 1.370 . S
C506 C510 1.524 . S
C507 C499 1.503 . S
C507 C506 1.370 . S
C507 C508 1.403 . S
C508 C507 1.403 . S
C508 C509 1.404 . S
C508 C511 1.539 . S
C509 C505 1.408 . S
C509 C508 1.404 . S
C509 H521 0.930 . S
C510 C506 1.524 . S
C510 H522 0.956 . S
C510 H523 0.961 . S
C510 H524 0.961 . S
C511 C508 1.539 . S
C511 H525 0.958 . S
C511 H526 0.961 . S
C511 H527 0.960 . S
H512 C496 0.931 . S
H513 C501 0.929 . S
H514 C502 0.960 1_455 S
H515 C502 0.962 1_455 S
H516 C502 0.960 . S
H517 C503 0.961 . S
H518 C503 0.961 . S
H519 C503 0.961 . S
H520 C504 0.931 . S
H521 C509 0.930 . S
H522 C510 0.956 . S
H523 C510 0.961 . S
H524 C510 0.961 . S
H525 C511 0.958 . S
H526 C511 0.961 . S
H527 C511 0.960 . S
C528 C529 1.391 . S
C528 C530 1.394 . S
C528 H544 0.931 . S
C529 C528 1.391 . S
C529 C533 1.376 . S
C530 C528 1.394 . S
C530 C531 1.369 . S
C530 C534 1.531 . S
C531 C530 1.369 . S
C531 C532 1.410 . S
C531 C539 1.503 . S
C532 C531 1.410 . S
C532 C533 1.392 . S
C532 C535 1.511 . S
C533 C529 1.376 . S
C533 C532 1.392 . S
C533 H545 0.929 . S
C534 C530 1.531 . S
C534 H546 0.960 . S
C534 H547 0.962 . S
C534 H548 0.960 . S
C535 C532 1.511 . S
C535 H549 0.961 . S
C535 H550 0.961 . S
C535 H551 0.961 . S
C536 C537 1.370 . S
C536 C538 1.363 . S
C536 H552 0.931 . S
C537 C536 1.370 . S
C537 C541 1.408 . S
C538 C536 1.363 . S
C538 C539 1.370 . S
C538 C542 1.524 . S
C539 C531 1.503 . S
C539 C538 1.370 . S
C539 C540 1.403 . S
C540 C539 1.403 . S
C540 C541 1.404 . S
C540 C543 1.539 . S
C541 C537 1.408 . S
C541 C540 1.404 . S
C541 H553 0.930 . S
C542 C538 1.524 . S
C542 H554 0.956 . S
C542 H555 0.961 . S
C542 H556 0.961 . S
C543 C540 1.539 . S
C543 H557 0.958 . S
C543 H558 0.961 . S
C543 H559 0.960 . S
H544 C528 0.931 . S
H545 C533 0.929 . S
H546 C534 0.960 . S
H547 C534 0.962 . S
H548 C534 0.960 . S
H549 C535 0.961 . S
H550 C535 0.961 . S
H551 C535 0.961 . S
H552 C536 0.931 . S
H553 C541 0.930 . S
H554 C542 0.956 . S
H555 C542 0.961 . S
H556 C542 0.961 . S
H557 C543 0.958 . S
H558 C543 0.961 . S
H559 C543 0.960 . S
C560 C561 1.391 . S
C560 C562 1.394 . S
C560 H576 0.931 . S
C561 C560 1.391 . S
C561 C565 1.376 . S
C562 C560 1.394 . S
C562 C563 1.369 . S
C562 C566 1.531 . S
C563 C562 1.369 . S
C563 C564 1.410 . S
C563 C571 1.503 . S
C564 C563 1.410 . S
C564 C565 1.392 . S
C564 C567 1.511 . S
C565 C561 1.376 . S
C565 C564 1.392 . S
C565 H577 0.929 . S
C566 C562 1.531 . S
C566 H578 0.960 . S
C566 H579 0.962 . S
C566 H580 0.960 . S
C567 C564 1.511 . S
C567 H581 0.961 . S
C567 H582 0.961 . S
C567 H583 0.961 . S
C568 C569 1.370 . S
C568 C570 1.363 . S
C568 H584 0.931 . S
C569 C568 1.370 . S
C569 C573 1.408 . S
C570 C568 1.363 . S
C570 C571 1.370 . S
C570 C574 1.524 . S
C571 C563 1.503 . S
C571 C570 1.370 . S
C571 C572 1.403 . S
C572 C571 1.403 . S
C572 C573 1.404 . S
C572 C575 1.539 . S
C573 C569 1.408 . S
C573 C572 1.404 . S
C573 H585 0.930 . S
C574 C570 1.524 . S
C574 H586 0.956 . S
C574 H587 0.961 . S
C574 H588 0.961 . S
C575 C572 1.539 . S
C575 H589 0.958 . S
C575 H590 0.961 . S
C575 H591 0.960 . S
H576 C560 0.931 . S
H577 C565 0.929 . S
H578 C566 0.960 . S
H579 C566 0.962 . S
H580 C566 0.960 . S
H581 C567 0.961 . S
H582 C567 0.961 . S
H583 C567 0.961 . S
H584 C568 0.931 . S
H585 C573 0.930 . S
H586 C574 0.956 . S
H587 C574 0.961 . S
H588 C574 0.961 . S
H589 C575 0.958 . S
H590 C575 0.961 . S
H591 C575 0.960 . S
C592 C593 1.391 . S
C592 C594 1.394 . S
C592 H608 0.931 . S
C593 C592 1.391 . S
C593 C597 1.376 . S
C594 C592 1.394 . S
C594 C595 1.369 . S
C594 C598 1.531 . S
C595 C594 1.369 . S
C595 C596 1.410 . S
C595 C603 1.503 . S
C596 C595 1.410 . S
C596 C597 1.392 . S
C596 C599 1.511 . S
C597 C593 1.376 . S
C597 C596 1.392 . S
C597 H609 0.929 . S
C598 C594 1.531 . S
C598 H610 0.960 1_455 S
C598 H611 0.962 . S
C598 H612 0.960 1_455 S
C599 C596 1.511 . S
C599 H613 0.961 . S
C599 H614 0.961 . S
C599 H615 0.961 . S
C600 C601 1.370 . S
C600 C602 1.363 . S
C600 H616 0.931 . S
C601 C600 1.370 . S
C601 C605 1.408 1_455 S
C602 C600 1.363 . S
C602 C603 1.370 . S
C602 C606 1.524 . S
C603 C595 1.503 . S
C603 C602 1.370 . S
C603 C604 1.403 1_455 S
C604 C603 1.403 1_655 S
C604 C605 1.404 . S
C604 C607 1.539 . S
C605 C601 1.408 1_655 S
C605 C604 1.404 . S
C605 H617 0.930 . S
C606 C602 1.524 . S
C606 H618 0.956 . S
C606 H619 0.961 . S
C606 H620 0.961 . S
C607 C604 1.539 . S
C607 H621 0.958 . S
C607 H622 0.961 . S
C607 H623 0.960 . S
H608 C592 0.931 . S
H609 C597 0.929 . S
H610 C598 0.960 1_655 S
H611 C598 0.962 . S
H612 C598 0.960 1_655 S
H613 C599 0.961 . S
H614 C599 0.961 . S
H615 C599 0.961 . S
H616 C600 0.931 . S
H617 C605 0.930 . S
H618 C606 0.956 . S
H619 C606 0.961 . S
H620 C606 0.961 . S
H621 C607 0.958 . S
H622 C607 0.961 . S
H623 C607 0.960 . S
C624 C625 1.391 . S
C624 C626 1.394 . S
C624 H640 0.931 . S
C625 C624 1.391 . S
C625 C629 1.376 . S
C626 C624 1.394 . S
C626 C627 1.369 . S
C626 C630 1.531 . S
C627 C626 1.369 . S
C627 C628 1.410 . S
C627 C635 1.503 . S
C628 C627 1.410 . S
C628 C629 1.392 . S
C628 C631 1.511 . S
C629 C625 1.376 . S
C629 C628 1.392 . S
C629 H641 0.929 . S
C630 C626 1.531 . S
C630 H642 0.960 . S
C630 H643 0.962 . S
C630 H644 0.960 . S
C631 C628 1.511 . S
C631 H645 0.961 . S
C631 H646 0.961 . S
C631 H647 0.961 . S
C632 C633 1.370 . S
C632 C634 1.363 . S
C632 H648 0.931 . S
C633 C632 1.370 . S
C633 C637 1.408 . S
C634 C632 1.363 . S
C634 C635 1.370 . S
C634 C638 1.524 . S
C635 C627 1.503 . S
C635 C634 1.370 . S
C635 C636 1.403 . S
C636 C635 1.403 . S
C636 C637 1.404 . S
C636 C639 1.539 . S
C637 C633 1.408 . S
C637 C636 1.404 . S
C637 H649 0.930 . S
C638 C634 1.524 . S
C638 H650 0.956 . S
C638 H651 0.961 . S
C638 H652 0.961 . S
C639 C636 1.539 . S
C639 H653 0.958 . S
C639 H654 0.961 . S
C639 H655 0.960 . S
H640 C624 0.931 . S
H641 C629 0.929 . S
H642 C630 0.960 . S
H643 C630 0.962 . S
H644 C630 0.960 . S
H645 C631 0.961 . S
H646 C631 0.961 . S
H647 C631 0.961 . S
H648 C632 0.931 . S
H649 C637 0.930 . S
H650 C638 0.956 . S
H651 C638 0.961 . S
H652 C638 0.961 . S
H653 C639 0.958 . S
H654 C639 0.961 . S
H655 C639 0.960 . S
C656 C657 1.391 . S
C656 C658 1.394 . S
C656 H672 0.931 . S
C657 C656 1.391 . S
C657 C661 1.376 . S
C658 C656 1.394 . S
C658 C659 1.369 . S
C658 C662 1.531 . S
C659 C658 1.369 . S
C659 C660 1.410 . S
C659 C667 1.503 . S
C660 C659 1.410 . S
C660 C661 1.392 . S
C660 C663 1.511 . S
C661 C657 1.376 . S
C661 C660 1.392 . S
C661 H673 0.929 . S
C662 C658 1.531 . S
C662 H674 0.960 . S
C662 H675 0.962 . S
C662 H676 0.960 . S
C663 C660 1.511 . S
C663 H677 0.961 . S
C663 H678 0.961 . S
C663 H679 0.961 . S
C664 C665 1.370 . S
C664 C666 1.363 . S
C664 H680 0.931 . S
C665 C664 1.370 . S
C665 C669 1.408 . S
C666 C664 1.363 . S
C666 C667 1.370 . S
C666 C670 1.524 . S
C667 C659 1.503 . S
C667 C666 1.370 . S
C667 C668 1.403 . S
C668 C667 1.403 . S
C668 C669 1.404 . S
C668 C671 1.539 . S
C669 C665 1.408 . S
C669 C668 1.404 . S
C669 H681 0.930 . S
C670 C666 1.524 . S
C670 H682 0.956 . S
C670 H683 0.961 . S
C670 H684 0.961 . S
C671 C668 1.539 . S
C671 H685 0.958 . S
C671 H686 0.961 . S
C671 H687 0.960 . S
H672 C656 0.931 . S
H673 C661 0.929 . S
H674 C662 0.960 . S
H675 C662 0.962 . S
H676 C662 0.960 . S
H677 C663 0.961 . S
H678 C663 0.961 . S
H679 C663 0.961 . S
H680 C664 0.931 . S
H681 C669 0.930 . S
H682 C670 0.956 . S
H683 C670 0.961 . S
H684 C670 0.961 . S
H685 C671 0.958 . S
H686 C671 0.961 . S
H687 C671 0.960 . S
C688 C689 1.391 . S
C688 C690 1.394 . S
C688 H704 0.931 . S
C689 C688 1.391 . S
C689 C693 1.376 . S
C690 C688 1.394 . S
C690 C691 1.369 . S
C690 C694 1.531 . S
C691 C690 1.369 . S
C691 C692 1.410 . S
C691 C699 1.503 . S
C692 C691 1.410 . S
C692 C693 1.392 . S
C692 C695 1.511 . S
C693 C689 1.376 . S
C693 C692 1.392 . S
C693 H705 0.929 . S
C694 C690 1.531 . S
C694 H706 0.960 . S
C694 H707 0.962 . S
C694 H708 0.960 . S
C695 C692 1.511 . S
C695 H709 0.961 . S
C695 H710 0.961 . S
C695 H711 0.961 . S
C696 C697 1.370 . S
C696 C698 1.363 . S
C696 H712 0.931 . S
C697 C696 1.370 . S
C697 C701 1.408 . S
C698 C696 1.363 . S
C698 C699 1.370 1_655 S
C698 C702 1.524 1_655 S
C699 C691 1.503 . S
C699 C698 1.370 1_455 S
C699 C700 1.403 1_455 S
C700 C699 1.403 1_655 S
C700 C701 1.404 . S
C700 C703 1.539 1_655 S
C701 C697 1.408 . S
C701 C700 1.404 . S
C701 H713 0.930 . S
C702 C698 1.524 1_455 S
C702 H714 0.956 . S
C702 H715 0.961 . S
C702 H716 0.961 1_455 S
C703 C700 1.539 1_455 S
C703 H717 0.958 . S
C703 H718 0.961 1_455 S
C703 H719 0.960 . S
H704 C688 0.931 . S
H705 C693 0.929 . S
H706 C694 0.960 . S
H707 C694 0.962 . S
H708 C694 0.960 . S
H709 C695 0.961 . S
H710 C695 0.961 . S
H711 C695 0.961 . S
H712 C696 0.931 . S
H713 C701 0.930 . S
H714 C702 0.956 . S
H715 C702 0.961 . S
H716 C702 0.961 1_655 S
H717 C703 0.958 . S
H718 C703 0.961 1_655 S
H719 C703 0.960 . S
C720 C721 1.391 . S
C720 C722 1.394 1_556 S
C720 H736 0.931 . S
C721 C720 1.391 . S
C721 C725 1.376 . S
C722 C720 1.394 1_554 S
C722 C723 1.369 . S
C722 C726 1.531 . S
C723 C722 1.369 . S
C723 C724 1.410 1_554 S
C723 C731 1.503 . S
C724 C723 1.410 1_556 S
C724 C725 1.392 . S
C724 C727 1.511 . S
C725 C721 1.376 . S
C725 C724 1.392 . S
C725 H737 0.929 . S
C726 C722 1.531 . S
C726 H738 0.960 . S
C726 H739 0.962 . S
C726 H740 0.960 . S
C727 C724 1.511 . S
C727 H741 0.961 . S
C727 H742 0.961 . S
C727 H743 0.961 . S
C728 C729 1.370 . S
C728 C730 1.363 . S
C728 H744 0.931 . S
C729 C728 1.370 . S
C729 C733 1.408 . S
C730 C728 1.363 . S
C730 C731 1.370 . S
C730 C734 1.524 1_554 S
C731 C723 1.503 . S
C731 C730 1.370 . S
C731 C732 1.403 . S
C732 C731 1.403 . S
C732 C733 1.404 . S
C732 C735 1.539 . S
C733 C729 1.408 . S
C733 C732 1.404 . S
C733 H745 0.930 . S
C734 C730 1.524 1_556 S
C734 H746 0.956 . S
C734 H747 0.961 . S
C734 H748 0.961 . S
C735 C732 1.539 . S
C735 H749 0.958 . S
C735 H750 0.961 . S
C735 H751 0.960 . S
H736 C720 0.931 . S
H737 C725 0.929 . S
H738 C726 0.960 . S
H739 C726 0.962 . S
H740 C726 0.960 . S
H741 C727 0.961 . S
H742 C727 0.961 . S
H743 C727 0.961 . S
H744 C728 0.931 . S
H745 C733 0.930 . S
H746 C734 0.956 . S
H747 C734 0.961 . S
H748 C734 0.961 . S
H749 C735 0.958 . S
H750 C735 0.961 . S
H751 C735 0.960 . S
C752 C753 1.391 . S
C752 C754 1.394 . S
C752 H768 0.931 . S
C753 C752 1.391 . S
C753 C757 1.376 . S
C754 C752 1.394 . S
C754 C755 1.369 . S
C754 C758 1.531 . S
C755 C754 1.369 . S
C755 C756 1.410 . S
C755 C763 1.503 . S
C756 C755 1.410 . S
C756 C757 1.392 . S
C756 C759 1.511 . S
C757 C753 1.376 . S
C757 C756 1.392 . S
C757 H769 0.929 . S
C758 C754 1.531 . S
C758 H770 0.960 . S
C758 H771 0.962 . S
C758 H772 0.960 . S
C759 C756 1.511 . S
C759 H773 0.961 . S
C759 H774 0.961 . S
C759 H775 0.961 . S
C760 C761 1.370 . S
C760 C762 1.363 . S
C760 H776 0.931 . S
C761 C760 1.370 . S
C761 C765 1.408 . S
C762 C760 1.363 . S
C762 C763 1.370 . S
C762 C766 1.524 . S
C763 C755 1.503 . S
C763 C762 1.370 . S
C763 C764 1.403 . S
C764 C763 1.403 . S
C764 C765 1.404 . S
C764 C767 1.539 . S
C765 C761 1.408 . S
C765 C764 1.404 . S
C765 H777 0.930 . S
C766 C762 1.524 . S
C766 H778 0.956 . S
C766 H779 0.961 . S
C766 H780 0.961 . S
C767 C764 1.539 . S
C767 H781 0.958 . S
C767 H782 0.961 . S
C767 H783 0.960 . S
H768 C752 0.931 . S
H769 C757 0.929 . S
H770 C758 0.960 . S
H771 C758 0.962 . S
H772 C758 0.960 . S
H773 C759 0.961 . S
H774 C759 0.961 . S
H775 C759 0.961 . S
H776 C760 0.931 . S
H777 C765 0.930 . S
H778 C766 0.956 . S
H779 C766 0.961 . S
H780 C766 0.961 . S
H781 C767 0.958 . S
H782 C767 0.961 . S
H783 C767 0.960 . S
C784 C785 1.391 . S
C784 C786 1.394 . S
C784 H800 0.931 . S
C785 C784 1.391 . S
C785 C789 1.376 . S
C786 C784 1.394 . S
C786 C787 1.369 . S
C786 C790 1.531 . S
C787 C786 1.369 . S
C787 C788 1.410 . S
C787 C795 1.503 . S
C788 C787 1.410 . S
C788 C789 1.392 . S
C788 C791 1.511 . S
C789 C785 1.376 . S
C789 C788 1.392 . S
C789 H801 0.929 . S
C790 C786 1.531 . S
C790 H802 0.960 . S
C790 H803 0.962 . S
C790 H804 0.960 . S
C791 C788 1.511 . S
C791 H805 0.961 . S
C791 H806 0.961 . S
C791 H807 0.961 . S
C792 C793 1.370 . S
C792 C794 1.363 . S
C792 H808 0.931 . S
C793 C792 1.370 . S
C793 C797 1.408 . S
C794 C792 1.363 . S
C794 C795 1.370 . S
C794 C798 1.524 . S
C795 C787 1.503 . S
C795 C794 1.370 . S
C795 C796 1.403 . S
C796 C795 1.403 . S
C796 C797 1.404 . S
C796 C799 1.539 . S
C797 C793 1.408 . S
C797 C796 1.404 . S
C797 H809 0.930 . S
C798 C794 1.524 . S
C798 H810 0.956 . S
C798 H811 0.961 . S
C798 H812 0.961 . S
C799 C796 1.539 . S
C799 H813 0.958 . S
C799 H814 0.961 . S
C799 H815 0.960 . S
H800 C784 0.931 . S
H801 C789 0.929 . S
H802 C790 0.960 . S
H803 C790 0.962 . S
H804 C790 0.960 . S
H805 C791 0.961 . S
H806 C791 0.961 . S
H807 C791 0.961 . S
H808 C792 0.931 . S
H809 C797 0.930 . S
H810 C798 0.956 . S
H811 C798 0.961 . S
H812 C798 0.961 . S
H813 C799 0.958 . S
H814 C799 0.961 . S
H815 C799 0.960 . S
C816 C817 1.391 . S
C816 C818 1.394 . S
C816 H832 0.931 . S
C817 C816 1.391 . S
C817 C821 1.376 . S
C818 C816 1.394 . S
C818 C819 1.369 . S
C818 C822 1.531 . S
C819 C818 1.369 . S
C819 C820 1.410 . S
C819 C827 1.503 . S
C820 C819 1.410 . S
C820 C821 1.392 . S
C820 C823 1.511 . S
C821 C817 1.376 . S
C821 C820 1.392 . S
C821 H833 0.929 . S
C822 C818 1.531 . S
C822 H834 0.960 . S
C822 H835 0.962 . S
C822 H836 0.960 . S
C823 C820 1.511 . S
C823 H837 0.961 . S
C823 H838 0.961 . S
C823 H839 0.961 . S
C824 C825 1.370 . S
C824 C826 1.363 . S
C824 H840 0.931 . S
C825 C824 1.370 . S
C825 C829 1.408 . S
C826 C824 1.363 . S
C826 C827 1.370 . S
C826 C830 1.524 . S
C827 C819 1.503 . S
C827 C826 1.370 . S
C827 C828 1.403 . S
C828 C827 1.403 . S
C828 C829 1.404 . S
C828 C831 1.539 . S
C829 C825 1.408 . S
C829 C828 1.404 . S
C829 H841 0.930 . S
C830 C826 1.524 . S
C830 H842 0.956 . S
C830 H843 0.961 . S
C830 H844 0.961 . S
C831 C828 1.539 . S
C831 H845 0.958 . S
C831 H846 0.961 . S
C831 H847 0.960 . S
H832 C816 0.931 . S
H833 C821 0.929 . S
H834 C822 0.960 . S
H835 C822 0.962 . S
H836 C822 0.960 . S
H837 C823 0.961 . S
H838 C823 0.961 . S
H839 C823 0.961 . S
H840 C824 0.931 . S
H841 C829 0.930 . S
H842 C830 0.956 . S
H843 C830 0.961 . S
H844 C830 0.961 . S
H845 C831 0.958 . S
H846 C831 0.961 . S
H847 C831 0.960 . S
C848 C849 1.391 . S
C848 C850 1.394 1_554 S
C848 H864 0.931 . S
C849 C848 1.391 . S
C849 C853 1.376 . S
C850 C848 1.394 1_556 S
C850 C851 1.362 1_556 S
C850 C854 1.531 . S
C851 C850 1.362 1_554 S
C851 C852 1.431 . S
C851 C859 1.490 1_554 S
C852 C851 1.431 . S
C852 C853 1.392 . S
C852 C855 1.511 . S
C853 C849 1.376 . S
C853 C852 1.392 . S
C853 H865 0.929 . S
C854 C850 1.531 . S
C854 H866 0.960 . S
C854 H867 0.962 . S
C854 H868 0.960 . S
C855 C852 1.511 . S
C855 H869 0.961 . S
C855 H870 0.961 . S
C855 H871 0.961 . S
C856 C857 1.370 . S
C856 C858 1.363 . S
C856 H872 0.931 . S
C857 C856 1.370 . S
C857 C861 1.408 . S
C858 C856 1.363 . S
C858 C859 1.370 . S
C858 C862 1.524 1_556 S
C859 C851 1.490 1_556 S
C859 C858 1.370 . S
C859 C860 1.403 . S
C860 C859 1.403 . S
C860 C861 1.404 . S
C860 C863 1.539 . S
C861 C857 1.408 . S
C861 C860 1.404 . S
C861 H873 0.930 . S
C862 C858 1.524 1_554 S
C862 H874 0.956 1_554 S
C862 H875 0.961 . S
C862 H876 0.962 . S
C863 C860 1.539 . S
C863 H877 0.958 . S
C863 H878 0.961 . S
C863 H879 0.960 . S
H864 C848 0.931 . S
H865 C853 0.929 . S
H866 C854 0.960 . S
H867 C854 0.962 . S
H868 C854 0.960 . S
H869 C855 0.961 . S
H870 C855 0.961 . S
H871 C855 0.961 . S
H872 C856 0.931 . S
H873 C861 0.930 . S
H874 C862 0.956 1_556 S
H875 C862 0.961 . S
H876 C862 0.962 . S
H877 C863 0.958 . S
H878 C863 0.961 . S
H879 C863 0.960 . S
C880 C881 1.391 . S
C880 C882 1.394 . S
C880 H896 0.931 . S
C881 C880 1.391 . S
C881 C885 1.376 . S
C882 C880 1.394 . S
C882 C883 1.369 . S
C882 C886 1.531 . S
C883 C882 1.369 . S
C883 C884 1.410 . S
C883 C891 1.503 . S
C884 C883 1.410 . S
C884 C885 1.392 . S
C884 C887 1.511 . S
C885 C881 1.376 . S
C885 C884 1.392 . S
C885 H897 0.929 . S
C886 C882 1.531 . S
C886 H898 0.960 . S
C886 H899 0.962 . S
C886 H900 0.960 . S
C887 C884 1.511 . S
C887 H901 0.961 . S
C887 H902 0.961 . S
C887 H903 0.961 . S
C888 C889 1.370 . S
C888 C890 1.363 . S
C888 H904 0.931 . S
C889 C888 1.370 . S
C889 C893 1.408 . S
C890 C888 1.363 . S
C890 C891 1.370 . S
C890 C894 1.524 . S
C891 C883 1.503 . S
C891 C890 1.370 . S
C891 C892 1.403 . S
C892 C891 1.403 . S
C892 C893 1.404 . S
C892 C895 1.539 . S
C893 C889 1.408 . S
C893 C892 1.404 . S
C893 H905 0.930 . S
C894 C890 1.524 . S
C894 H906 0.956 . S
C894 H907 0.961 . S
C894 H908 0.961 . S
C895 C892 1.539 . S
C895 H909 0.958 . S
C895 H910 0.961 . S
C895 H911 0.960 . S
H896 C880 0.931 . S
H897 C885 0.929 . S
H898 C886 0.960 . S
H899 C886 0.962 . S
H900 C886 0.960 . S
H901 C887 0.961 . S
H902 C887 0.961 . S
H903 C887 0.961 . S
H904 C888 0.931 . S
H905 C893 0.930 . S
H906 C894 0.956 . S
H907 C894 0.961 . S
H908 C894 0.961 . S
H909 C895 0.958 . S
H910 C895 0.961 . S
H911 C895 0.960 . S
C912 C913 1.391 . S
C912 C914 1.394 . S
C912 H928 0.931 . S
C913 C912 1.391 . S
C913 C917 1.376 . S
C914 C912 1.394 . S
C914 C915 1.369 . S
C914 C918 1.531 . S
C915 C914 1.369 . S
C915 C916 1.410 . S
C915 C923 1.503 . S
C916 C915 1.410 . S
C916 C917 1.392 . S
C916 C919 1.511 . S
C917 C913 1.376 . S
C917 C916 1.392 . S
C917 H929 0.929 . S
C918 C914 1.531 . S
C918 H930 0.960 . S
C918 H931 0.962 . S
C918 H932 0.960 . S
C919 C916 1.511 . S
C919 H933 0.961 . S
C919 H934 0.961 . S
C919 H935 0.961 . S
C920 C921 1.370 . S
C920 C922 1.363 . S
C920 H936 0.931 . S
C921 C920 1.370 . S
C921 C925 1.408 . S
C922 C920 1.363 . S
C922 C923 1.370 . S
C922 C926 1.524 . S
C923 C915 1.503 . S
C923 C922 1.370 . S
C923 C924 1.403 . S
C924 C923 1.403 . S
C924 C925 1.404 . S
C924 C927 1.539 . S
C925 C921 1.408 . S
C925 C924 1.404 . S
C925 H937 0.930 . S
C926 C922 1.524 . S
C926 H938 0.956 . S
C926 H939 0.961 . S
C926 H940 0.961 . S
C927 C924 1.539 . S
C927 H941 0.958 . S
C927 H942 0.961 . S
C927 H943 0.960 . S
H928 C912 0.931 . S
H929 C917 0.929 . S
H930 C918 0.960 . S
H931 C918 0.962 . S
H932 C918 0.960 . S
H933 C919 0.961 . S
H934 C919 0.961 . S
H935 C919 0.961 . S
H936 C920 0.931 . S
H937 C925 0.930 . S
H938 C926 0.956 . S
H939 C926 0.961 . S
H940 C926 0.961 . S
H941 C927 0.958 . S
H942 C927 0.961 . S
H943 C927 0.960 . S
C944 C945 1.391 . S
C944 C946 1.394 . S
C944 H960 0.931 . S
C945 C944 1.391 . S
C945 C949 1.376 . S
C946 C944 1.394 . S
C946 C947 1.369 . S
C946 C950 1.531 . S
C947 C946 1.369 . S
C947 C948 1.410 . S
C947 C955 1.503 . S
C948 C947 1.410 . S
C948 C949 1.392 . S
C948 C951 1.511 . S
C949 C945 1.376 . S
C949 C948 1.392 . S
C949 H961 0.929 . S
C950 C946 1.531 . S
C950 H962 0.960 . S
C950 H963 0.962 . S
C950 H964 0.960 . S
C951 C948 1.511 . S
C951 H965 0.961 . S
C951 H966 0.961 . S
C951 H967 0.961 . S
C952 C953 1.370 . S
C952 C954 1.363 . S
C952 H968 0.931 . S
C953 C952 1.370 . S
C953 C957 1.408 . S
C954 C952 1.363 . S
C954 C955 1.370 . S
C954 C958 1.524 . S
C955 C947 1.503 . S
C955 C954 1.370 . S
C955 C956 1.403 . S
C956 C955 1.403 . S
C956 C957 1.404 . S
C956 C959 1.539 . S
C957 C953 1.408 . S
C957 C956 1.404 . S
C957 H969 0.930 . S
C958 C954 1.524 . S
C958 H970 0.956 . S
C958 H971 0.961 . S
C958 H972 0.961 . S
C959 C956 1.539 . S
C959 H973 0.958 . S
C959 H974 0.961 . S
C959 H975 0.960 . S
H960 C944 0.931 . S
H961 C949 0.929 . S
H962 C950 0.960 . S
H963 C950 0.962 . S
H964 C950 0.960 . S
H965 C951 0.961 . S
H966 C951 0.961 . S
H967 C951 0.961 . S
H968 C952 0.931 . S
H969 C957 0.930 . S
H970 C958 0.956 . S
H971 C958 0.961 . S
H972 C958 0.961 . S
H973 C959 0.958 . S
H974 C959 0.961 . S
H975 C959 0.960 . S
C976 C977 1.391 . S
C976 C978 1.394 . S
C976 H992 0.931 . S
C977 C976 1.391 . S
C977 C981 1.376 . S
C978 C976 1.394 . S
C978 C979 1.369 . S
C978 C982 1.531 . S
C979 C978 1.369 . S
C979 C980 1.410 . S
C979 C987 1.503 . S
C980 C979 1.410 . S
C980 C981 1.392 . S
C980 C983 1.511 . S
C981 C977 1.376 . S
C981 C980 1.392 . S
C981 H993 0.929 . S
C982 C978 1.531 . S
C982 H994 0.960 1_556 S
C982 H995 0.963 . S
C982 H996 0.961 . S
C983 C980 1.511 . S
C983 H997 0.961 . S
C983 H998 0.961 . S
C983 H999 0.961 . S
C984 C985 1.370 . S
C984 C986 1.363 1_554 S
C984 H1000 0.931 . S
C985 C984 1.370 . S
C985 C989 1.408 . S
C986 C984 1.363 1_556 S
C986 C987 1.370 . S
C986 C990 1.524 . S
C987 C979 1.503 . S
C987 C986 1.370 . S
C987 C988 1.403 1_556 S
C988 C987 1.403 1_554 S
C988 C989 1.404 . S
C988 C991 1.544 . S
C989 C985 1.408 . S
C989 C988 1.404 . S
C989 H1001 0.930 . S
C990 C986 1.524 . S
C990 H1002 0.956 . S
C990 H1003 0.961 . S
C990 H1004 0.961 . S
C991 C988 1.544 . S
C991 H1005 0.981 . S
C991 H1006 0.972 . S
C991 H1007 0.923 1_554 S
H992 C976 0.931 . S
H993 C981 0.929 . S
H994 C982 0.960 1_554 S
H995 C982 0.963 . S
H996 C982 0.961 . S
H997 C983 0.961 . S
H998 C983 0.961 . S
H999 C983 0.961 . S
H1000 C984 0.931 . S
H1001 C989 0.930 . S
H1002 C990 0.956 . S
H1003 C990 0.961 . S
H1004 C990 0.961 . S
H1005 C991 0.981 . S
H1006 C991 0.972 . S
H1007 C991 0.923 1_556 S
C1008 C1009 1.391 . S
C1008 C1010 1.394 . S
C1008 H1024 0.931 . S
C1009 C1008 1.391 . S
C1009 C1013 1.376 . S
C1010 C1008 1.394 . S
C1010 C1011 1.369 . S
C1010 C1014 1.531 . S
C1011 C1010 1.369 . S
C1011 C1012 1.410 . S
C1011 C1019 1.503 . S
C1012 C1011 1.410 . S
C1012 C1013 1.392 . S
C1012 C1015 1.511 . S
C1013 C1009 1.376 . S
C1013 C1012 1.392 . S
C1013 H1025 0.929 . S
C1014 C1010 1.531 . S
C1014 H1026 0.960 . S
C1014 H1027 0.962 . S
C1014 H1028 0.960 . S
C1015 C1012 1.511 . S
C1015 H1029 0.961 . S
C1015 H1030 0.961 . S
C1015 H1031 0.961 . S
C1016 C1017 1.370 . S
C1016 C1018 1.363 . S
C1016 H1032 0.931 1_545 S
C1017 C1016 1.370 . S
C1017 C1021 1.408 . S
C1018 C1016 1.363 . S
C1018 C1019 1.370 . S
C1018 C1022 1.524 . S
C1019 C1011 1.503 . S
C1019 C1018 1.370 . S
C1019 C1020 1.403 . S
C1020 C1019 1.403 . S
C1020 C1021 1.404 . S
C1020 C1023 1.539 . S
C1021 C1017 1.408 . S
C1021 C1020 1.404 . S
C1021 H1033 0.930 . S
C1022 C1018 1.524 . S
C1022 H1034 0.956 . S
C1022 H1035 0.961 . S
C1022 H1036 0.961 . S
C1023 C1020 1.539 . S
C1023 H1037 0.958 . S
C1023 H1038 0.961 . S
C1023 H1039 0.960 . S
H1024 C1008 0.931 . S
H1025 C1013 0.929 . S
H1026 C1014 0.960 . S
H1027 C1014 0.962 . S
H1028 C1014 0.960 . S
H1029 C1015 0.961 . S
H1030 C1015 0.961 . S
H1031 C1015 0.961 . S
H1032 C1016 0.931 1_565 S
H1033 C1021 0.930 . S
H1034 C1022 0.956 . S
H1035 C1022 0.961 . S
H1036 C1022 0.961 . S
H1037 C1023 0.958 . S
H1038 C1023 0.961 . S
H1039 C1023 0.960 . S
C1040 C1041 1.391 . S
C1040 C1042 1.394 . S
C1040 H1056 0.931 . S
C1041 C1040 1.391 . S
C1041 C1045 1.376 . S
C1042 C1040 1.394 . S
C1042 C1043 1.369 . S
C1042 C1046 1.531 . S
C1043 C1042 1.369 . S
C1043 C1044 1.410 . S
C1043 C1051 1.503 . S
C1044 C1043 1.410 . S
C1044 C1045 1.392 . S
C1044 C1047 1.511 . S
C1045 C1041 1.376 . S
C1045 C1044 1.392 . S
C1045 H1057 0.929 . S
C1046 C1042 1.531 . S
C1046 H1058 0.960 . S
C1046 H1059 0.962 . S
C1046 H1060 0.960 . S
C1047 C1044 1.511 . S
C1047 H1061 0.961 . S
C1047 H1062 0.961 . S
C1047 H1063 0.961 . S
C1048 C1049 1.370 . S
C1048 C1050 1.363 . S
C1048 H1064 0.931 . S
C1049 C1048 1.370 . S
C1049 C1053 1.408 . S
C1050 C1048 1.363 . S
C1050 C1051 1.370 . S
C1050 C1054 1.524 . S
C1051 C1043 1.503 . S
C1051 C1050 1.370 . S
C1051 C1052 1.403 . S
C1052 C1051 1.403 . S
C1052 C1053 1.404 . S
C1052 C1055 1.539 . S
C1053 C1049 1.408 . S
C1053 C1052 1.404 . S
C1053 H1065 0.930 . S
C1054 C1050 1.524 . S
C1054 H1066 0.956 . S
C1054 H1067 0.961 . S
C1054 H1068 0.961 . S
C1055 C1052 1.539 . S
C1055 H1069 0.958 . S
C1055 H1070 0.961 . S
C1055 H1071 0.960 . S
H1056 C1040 0.931 . S
H1057 C1045 0.929 . S
H1058 C1046 0.960 . S
H1059 C1046 0.962 . S
H1060 C1046 0.960 . S
H1061 C1047 0.961 . S
H1062 C1047 0.961 . S
H1063 C1047 0.961 . S
H1064 C1048 0.931 . S
H1065 C1053 0.930 . S
H1066 C1054 0.956 . S
H1067 C1054 0.961 . S
H1068 C1054 0.961 . S
H1069 C1055 0.958 . S
H1070 C1055 0.961 . S
H1071 C1055 0.960 . S
C1072 C1073 1.391 . S
C1072 C1074 1.394 . S
C1072 H1088 0.931 . S
C1073 C1072 1.391 . S
C1073 C1077 1.376 . S
C1074 C1072 1.394 . S
C1074 C1075 1.369 . S
C1074 C1078 1.531 . S
C1075 C1074 1.369 . S
C1075 C1076 1.410 . S
C1075 C1083 1.503 . S
C1076 C1075 1.410 . S
C1076 C1077 1.392 . S
C1076 C1079 1.511 . S
C1077 C1073 1.376 . S
C1077 C1076 1.392 . S
C1077 H1089 0.929 . S
C1078 C1074 1.531 . S
C1078 H1090 0.960 . S
C1078 H1091 0.962 . S
C1078 H1092 0.960 . S
C1079 C1076 1.511 . S
C1079 H1093 0.961 . S
C1079 H1094 0.961 . S
C1079 H1095 0.961 . S
C1080 C1081 1.370 . S
C1080 C1082 1.363 . S
C1080 H1096 0.931 1_565 S
C1081 C1080 1.370 . S
C1081 C1085 1.408 . S
C1082 C1080 1.363 . S
C1082 C1083 1.370 . S
C1082 C1086 1.524 . S
C1083 C1075 1.503 . S
C1083 C1082 1.370 . S
C1083 C1084 1.403 . S
C1084 C1083 1.403 . S
C1084 C1085 1.404 . S
C1084 C1087 1.539 . S
C1085 C1081 1.408 . S
C1085 C1084 1.404 . S
C1085 H1097 0.930 . S
C1086 C1082 1.524 . S
C1086 H1098 0.956 . S
C1086 H1099 0.961 . S
C1086 H1100 0.961 . S
C1087 C1084 1.539 . S
C1087 H1101 0.958 . S
C1087 H1102 0.961 . S
C1087 H1103 0.960 . S
H1088 C1072 0.931 . S
H1089 C1077 0.929 . S
H1090 C1078 0.960 . S
H1091 C1078 0.962 . S
H1092 C1078 0.960 . S
H1093 C1079 0.961 . S
H1094 C1079 0.961 . S
H1095 C1079 0.961 . S
H1096 C1080 0.931 1_545 S
H1097 C1085 0.930 . S
H1098 C1086 0.956 . S
H1099 C1086 0.961 . S
H1100 C1086 0.961 . S
H1101 C1087 0.958 . S
H1102 C1087 0.961 . S
H1103 C1087 0.960 . S
C1104 C1105 1.391 . S
C1104 C1106 1.394 . S
C1104 H1120 0.931 . S
C1105 C1104 1.391 . S
C1105 C1109 1.376 . S
C1106 C1104 1.394 . S
C1106 C1107 1.369 1_556 S
C1106 C1110 1.531 . S
C1107 C1106 1.369 1_554 S
C1107 C1108 1.410 . S
C1107 C1115 1.503 . S
C1108 C1107 1.410 . S
C1108 C1109 1.392 1_554 S
C1108 C1111 1.511 . S
C1109 C1105 1.376 . S
C1109 C1108 1.392 1_556 S
C1109 H1121 0.929 . S
C1110 C1106 1.531 . S
C1110 H1122 0.960 1_556 S
C1110 H1123 0.962 . S
C1110 H1124 0.960 . S
C1111 C1108 1.511 . S
C1111 H1125 0.961 . S
C1111 H1126 0.961 . S
C1111 H1127 0.961 . S
C1112 C1113 1.370 . S
C1112 C1114 1.363 . S
C1112 H1128 0.931 . S
C1113 C1112 1.370 . S
C1113 C1117 1.408 . S
C1114 C1112 1.363 . S
C1114 C1115 1.370 . S
C1114 C1118 1.524 . S
C1115 C1107 1.503 . S
C1115 C1114 1.370 . S
C1115 C1116 1.403 . S
C1116 C1115 1.403 . S
C1116 C1117 1.404 . S
C1116 C1119 1.539 . S
C1117 C1113 1.408 . S
C1117 C1116 1.404 . S
C1117 H1129 0.930 . S
C1118 C1114 1.524 . S
C1118 H1130 0.956 1_554 S
C1118 H1131 0.961 . S
C1118 H1132 0.961 . S
C1119 C1116 1.539 . S
C1119 H1133 0.958 . S
C1119 H1134 0.961 . S
C1119 H1135 0.960 . S
H1120 C1104 0.931 . S
H1121 C1109 0.929 . S
H1122 C1110 0.960 1_554 S
H1123 C1110 0.962 . S
H1124 C1110 0.960 . S
H1125 C1111 0.961 . S
H1126 C1111 0.961 . S
H1127 C1111 0.961 . S
H1128 C1112 0.931 . S
H1129 C1117 0.930 . S
H1130 C1118 0.956 1_556 S
H1131 C1118 0.961 . S
H1132 C1118 0.961 . S
H1133 C1119 0.958 . S
H1134 C1119 0.961 . S
H1135 C1119 0.960 . S
C1136 C1137 1.391 . S
C1136 C1138 1.394 . S
C1136 H1152 0.931 . S
C1137 C1136 1.391 . S
C1137 C1141 1.376 . S
C1138 C1136 1.394 . S
C1138 C1139 1.369 . S
C1138 C1142 1.531 . S
C1139 C1138 1.369 . S
C1139 C1140 1.410 . S
C1139 C1147 1.503 . S
C1140 C1139 1.410 . S
C1140 C1141 1.392 . S
C1140 C1143 1.511 . S
C1141 C1137 1.376 . S
C1141 C1140 1.392 . S
C1141 H1153 0.929 . S
C1142 C1138 1.531 . S
C1142 H1154 0.960 . S
C1142 H1155 0.962 . S
C1142 H1156 0.960 . S
C1143 C1140 1.511 . S
C1143 H1157 0.961 . S
C1143 H1158 0.961 . S
C1143 H1159 0.961 . S
C1144 C1145 1.370 . S
C1144 C1146 1.363 . S
C1144 H1160 0.931 . S
C1145 C1144 1.370 . S
C1145 C1149 1.408 . S
C1146 C1144 1.363 . S
C1146 C1147 1.370 . S
C1146 C1150 1.524 . S
C1147 C1139 1.503 . S
C1147 C1146 1.370 . S
C1147 C1148 1.403 . S
C1148 C1147 1.403 . S
C1148 C1149 1.404 . S
C1148 C1151 1.539 . S
C1149 C1145 1.408 . S
C1149 C1148 1.404 . S
C1149 H1161 0.930 . S
C1150 C1146 1.524 . S
C1150 H1162 0.956 . S
C1150 H1163 0.961 . S
C1150 H1164 0.961 . S
C1151 C1148 1.539 . S
C1151 H1165 0.958 . S
C1151 H1166 0.961 . S
C1151 H1167 0.960 . S
H1152 C1136 0.931 . S
H1153 C1141 0.929 . S
H1154 C1142 0.960 . S
H1155 C1142 0.962 . S
H1156 C1142 0.960 . S
H1157 C1143 0.961 . S
H1158 C1143 0.961 . S
H1159 C1143 0.961 . S
H1160 C1144 0.931 . S
H1161 C1149 0.930 . S
H1162 C1150 0.956 . S
H1163 C1150 0.961 . S
H1164 C1150 0.961 . S
H1165 C1151 0.958 . S
H1166 C1151 0.961 . S
H1167 C1151 0.960 . S
C1168 C1169 1.391 . S
C1168 C1170 1.394 . S
C1168 H1184 0.931 . S
C1169 C1168 1.391 . S
C1169 C1173 1.376 . S
C1170 C1168 1.394 . S
C1170 C1171 1.369 . S
C1170 C1174 1.531 . S
C1171 C1170 1.369 . S
C1171 C1172 1.410 . S
C1171 C1179 1.503 . S
C1172 C1171 1.410 . S
C1172 C1173 1.392 . S
C1172 C1175 1.511 . S
C1173 C1169 1.376 . S
C1173 C1172 1.392 . S
C1173 H1185 0.929 . S
C1174 C1170 1.531 . S
C1174 H1186 0.960 . S
C1174 H1187 0.962 . S
C1174 H1188 0.960 . S
C1175 C1172 1.511 . S
C1175 H1189 0.961 . S
C1175 H1190 0.961 . S
C1175 H1191 0.961 . S
C1176 C1177 1.370 . S
C1176 C1178 1.363 . S
C1176 H1192 0.931 . S
C1177 C1176 1.370 . S
C1177 C1181 1.408 . S
C1178 C1176 1.363 . S
C1178 C1179 1.370 . S
C1178 C1182 1.524 . S
C1179 C1171 1.503 . S
C1179 C1178 1.370 . S
C1179 C1180 1.403 . S
C1180 C1179 1.403 . S
C1180 C1181 1.404 . S
C1180 C1183 1.539 . S
C1181 C1177 1.408 . S
C1181 C1180 1.404 . S
C1181 H1193 0.930 . S
C1182 C1178 1.524 . S
C1182 H1194 0.956 . S
C1182 H1195 0.961 . S
C1182 H1196 0.961 . S
C1183 C1180 1.539 . S
C1183 H1197 0.958 . S
C1183 H1198 0.961 . S
C1183 H1199 0.960 . S
H1184 C1168 0.931 . S
H1185 C1173 0.929 . S
H1186 C1174 0.960 . S
H1187 C1174 0.962 . S
H1188 C1174 0.960 . S
H1189 C1175 0.961 . S
H1190 C1175 0.961 . S
H1191 C1175 0.961 . S
H1192 C1176 0.931 . S
H1193 C1181 0.930 . S
H1194 C1182 0.956 . S
H1195 C1182 0.961 . S
H1196 C1182 0.961 . S
H1197 C1183 0.958 . S
H1198 C1183 0.961 . S
H1199 C1183 0.960 . S
C1200 C1201 1.391 . S
C1200 C1202 1.394 . S
C1200 H1216 0.931 . S
C1201 C1200 1.391 . S
C1201 C1205 1.376 . S
C1202 C1200 1.394 . S
C1202 C1203 1.369 . S
C1202 C1206 1.531 . S
C1203 C1202 1.369 . S
C1203 C1204 1.410 . S
C1203 C1211 1.503 . S
C1204 C1203 1.410 . S
C1204 C1205 1.392 . S
C1204 C1207 1.511 . S
C1205 C1201 1.376 . S
C1205 C1204 1.392 . S
C1205 H1217 0.929 . S
C1206 C1202 1.531 . S
C1206 H1218 0.960 . S
C1206 H1219 0.962 . S
C1206 H1220 0.960 . S
C1207 C1204 1.511 . S
C1207 H1221 0.961 . S
C1207 H1222 0.961 . S
C1207 H1223 0.961 . S
C1208 C1209 1.370 . S
C1208 C1210 1.363 . S
C1208 H1224 0.931 . S
C1209 C1208 1.370 . S
C1209 C1213 1.408 . S
C1210 C1208 1.363 . S
C1210 C1211 1.370 . S
C1210 C1214 1.524 . S
C1211 C1203 1.503 . S
C1211 C1210 1.370 . S
C1211 C1212 1.403 . S
C1212 C1211 1.403 . S
C1212 C1213 1.404 . S
C1212 C1215 1.539 . S
C1213 C1209 1.408 . S
C1213 C1212 1.404 . S
C1213 H1225 0.930 . S
C1214 C1210 1.524 . S
C1214 H1226 0.956 . S
C1214 H1227 0.961 . S
C1214 H1228 0.961 . S
C1215 C1212 1.539 . S
C1215 H1229 0.958 . S
C1215 H1230 0.961 . S
C1215 H1231 0.960 . S
H1216 C1200 0.931 . S
H1217 C1205 0.929 . S
H1218 C1206 0.960 . S
H1219 C1206 0.962 . S
H1220 C1206 0.960 . S
H1221 C1207 0.961 . S
H1222 C1207 0.961 . S
H1223 C1207 0.961 . S
H1224 C1208 0.931 . S
H1225 C1213 0.930 . S
H1226 C1214 0.956 . S
H1227 C1214 0.961 . S
H1228 C1214 0.961 . S
H1229 C1215 0.958 . S
H1230 C1215 0.961 . S
H1231 C1215 0.960 . S
C1232 C1233 1.391 . S
C1232 C1234 1.394 . S
C1232 H1248 0.931 . S
C1233 C1232 1.391 . S
C1233 C1237 1.376 . S
C1234 C1232 1.394 . S
C1234 C1235 1.369 . S
C1234 C1238 1.531 . S
C1235 C1234 1.369 . S
C1235 C1236 1.410 . S
C1235 C1243 1.503 . S
C1236 C1235 1.410 . S
C1236 C1237 1.392 . S
C1236 C1239 1.511 . S
C1237 C1233 1.376 . S
C1237 C1236 1.392 . S
C1237 H1249 0.929 . S
C1238 C1234 1.531 . S
C1238 H1250 0.960 . S
C1238 H1251 0.962 . S
C1238 H1252 0.960 . S
C1239 C1236 1.511 . S
C1239 H1253 0.961 . S
C1239 H1254 0.961 . S
C1239 H1255 0.961 . S
C1240 C1241 1.370 . S
C1240 C1242 1.363 . S
C1240 H1256 0.931 . S
C1241 C1240 1.370 . S
C1241 C1245 1.408 . S
C1242 C1240 1.363 . S
C1242 C1243 1.370 . S
C1242 C1246 1.524 . S
C1243 C1235 1.503 . S
C1243 C1242 1.370 . S
C1243 C1244 1.403 . S
C1244 C1243 1.403 . S
C1244 C1245 1.404 . S
C1244 C1247 1.539 . S
C1245 C1241 1.408 . S
C1245 C1244 1.404 . S
C1245 H1257 0.930 . S
C1246 C1242 1.524 . S
C1246 H1258 0.956 . S
C1246 H1259 0.961 . S
C1246 H1260 0.961 . S
C1247 C1244 1.539 . S
C1247 H1261 0.958 . S
C1247 H1262 0.961 . S
C1247 H1263 0.960 . S
H1248 C1232 0.931 . S
H1249 C1237 0.929 . S
H1250 C1238 0.960 . S
H1251 C1238 0.962 . S
H1252 C1238 0.960 . S
H1253 C1239 0.961 . S
H1254 C1239 0.961 . S
H1255 C1239 0.961 . S
H1256 C1240 0.931 . S
H1257 C1245 0.930 . S
H1258 C1246 0.956 . S
H1259 C1246 0.961 . S
H1260 C1246 0.961 . S
H1261 C1247 0.958 . S
H1262 C1247 0.961 . S
H1263 C1247 0.960 . S
C1264 C1265 1.391 . S
C1264 C1266 1.394 . S
C1264 H1280 0.931 . S
C1265 C1264 1.391 . S
C1265 C1269 1.376 . S
C1266 C1264 1.394 . S
C1266 C1267 1.369 . S
C1266 C1270 1.531 . S
C1267 C1266 1.369 . S
C1267 C1268 1.410 . S
C1267 C1275 1.503 . S
C1268 C1267 1.410 . S
C1268 C1269 1.392 . S
C1268 C1271 1.511 . S
C1269 C1265 1.376 . S
C1269 C1268 1.392 . S
C1269 H1281 0.929 . S
C1270 C1266 1.531 . S
C1270 H1282 0.960 . S
C1270 H1283 0.962 . S
C1270 H1284 0.960 . S
C1271 C1268 1.511 . S
C1271 H1285 0.961 . S
C1271 H1286 0.961 . S
C1271 H1287 0.961 . S
C1272 C1273 1.370 . S
C1272 C1274 1.363 . S
C1272 H1288 0.931 . S
C1273 C1272 1.370 . S
C1273 C1277 1.408 . S
C1274 C1272 1.363 . S
C1274 C1275 1.370 . S
C1274 C1278 1.524 . S
C1275 C1267 1.503 . S
C1275 C1274 1.370 . S
C1275 C1276 1.403 . S
C1276 C1275 1.403 . S
C1276 C1277 1.404 . S
C1276 C1279 1.539 . S
C1277 C1273 1.408 . S
C1277 C1276 1.404 . S
C1277 H1289 0.930 . S
C1278 C1274 1.524 . S
C1278 H1290 0.956 . S
C1278 H1291 0.961 . S
C1278 H1292 0.961 . S
C1279 C1276 1.539 . S
C1279 H1293 0.958 . S
C1279 H1294 0.961 . S
C1279 H1295 0.960 . S
H1280 C1264 0.931 . S
H1281 C1269 0.929 . S
H1282 C1270 0.960 . S
H1283 C1270 0.962 . S
H1284 C1270 0.960 . S
H1285 C1271 0.961 . S
H1286 C1271 0.961 . S
H1287 C1271 0.961 . S
H1288 C1272 0.931 . S
H1289 C1277 0.930 . S
H1290 C1278 0.956 . S
H1291 C1278 0.961 . S
H1292 C1278 0.961 . S
H1293 C1279 0.958 . S
H1294 C1279 0.961 . S
H1295 C1279 0.960 . S
C1296 C1297 1.391 . S
C1296 C1298 1.394 . S
C1296 H1312 0.931 . S
C1297 C1296 1.391 . S
C1297 C1301 1.376 . S
C1298 C1296 1.394 . S
C1298 C1299 1.369 . S
C1298 C1302 1.531 1_554 S
C1299 C1298 1.369 . S
C1299 C1300 1.410 . S
C1299 C1307 1.503 1_554 S
C1300 C1299 1.410 . S
C1300 C1301 1.392 . S
C1300 C1303 1.511 . S
C1301 C1297 1.376 . S
C1301 C1300 1.392 . S
C1301 H1313 0.929 . S
C1302 C1298 1.531 1_556 S
C1302 H1314 0.960 . S
C1302 H1315 0.962 . S
C1302 H1316 0.960 . S
C1303 C1300 1.511 . S
C1303 H1317 0.961 . S
C1303 H1318 0.961 . S
C1303 H1319 0.961 . S
C1304 C1305 1.370 . S
C1304 C1306 1.363 . S
C1304 H1320 0.931 . S
C1305 C1304 1.370 . S
C1305 C1309 1.408 . S
C1306 C1304 1.363 . S
C1306 C1307 1.370 . S
C1306 C1310 1.524 1_556 S
C1307 C1299 1.503 1_556 S
C1307 C1306 1.370 . S
C1307 C1308 1.403 . S
C1308 C1307 1.403 . S
C1308 C1309 1.404 . S
C1308 C1311 1.539 . S
C1309 C1305 1.408 . S
C1309 C1308 1.404 . S
C1309 H1321 0.930 . S
C1310 C1306 1.524 1_554 S
C1310 H1322 0.956 . S
C1310 H1323 0.961 . S
C1310 H1324 0.961 . S
C1311 C1308 1.539 . S
C1311 H1325 0.958 . S
C1311 H1326 0.961 . S
C1311 H1327 0.986 . S
H1312 C1296 0.931 . S
H1313 C1301 0.929 . S
H1314 C1302 0.960 . S
H1315 C1302 0.962 . S
H1316 C1302 0.960 . S
H1317 C1303 0.961 . S
H1318 C1303 0.961 . S
H1319 C1303 0.961 . S
H1320 C1304 0.931 . S
H1321 C1309 0.930 . S
H1322 C1310 0.956 . S
H1323 C1310 0.961 . S
H1324 C1310 0.961 . S
H1325 C1311 0.958 . S
H1326 C1311 0.961 . S
H1327 C1311 0.986 . S
C1328 C1329 1.391 . S
C1328 C1330 1.394 . S
C1328 H1344 0.931 . S
C1329 C1328 1.391 . S
C1329 C1333 1.376 . S
C1330 C1328 1.394 . S
C1330 C1331 1.369 . S
C1330 C1334 1.531 . S
C1331 C1330 1.369 . S
C1331 C1332 1.410 . S
C1331 C1339 1.503 . S
C1332 C1331 1.410 . S
C1332 C1333 1.392 . S
C1332 C1335 1.511 . S
C1333 C1329 1.376 . S
C1333 C1332 1.392 . S
C1333 H1345 0.929 . S
C1334 C1330 1.531 . S
C1334 H1346 0.960 . S
C1334 H1347 0.962 . S
C1334 H1348 0.960 . S
C1335 C1332 1.511 . S
C1335 H1349 0.961 . S
C1335 H1350 0.961 . S
C1335 H1351 0.961 . S
C1336 C1337 1.370 . S
C1336 C1338 1.363 . S
C1336 H1352 0.931 . S
C1337 C1336 1.370 . S
C1337 C1341 1.408 . S
C1338 C1336 1.363 . S
C1338 C1339 1.370 . S
C1338 C1342 1.524 . S
C1339 C1331 1.503 . S
C1339 C1338 1.370 . S
C1339 C1340 1.403 . S
C1340 C1339 1.403 . S
C1340 C1341 1.404 . S
C1340 C1343 1.539 . S
C1341 C1337 1.408 . S
C1341 C1340 1.404 . S
C1341 H1353 0.930 . S
C1342 C1338 1.524 . S
C1342 H1354 0.956 . S
C1342 H1355 0.961 . S
C1342 H1356 0.961 . S
C1343 C1340 1.539 . S
C1343 H1357 0.958 . S
C1343 H1358 0.961 . S
C1343 H1359 0.960 . S
H1344 C1328 0.931 . S
H1345 C1333 0.929 . S
H1346 C1334 0.960 . S
H1347 C1334 0.962 . S
H1348 C1334 0.960 . S
H1349 C1335 0.961 . S
H1350 C1335 0.961 . S
H1351 C1335 0.961 . S
H1352 C1336 0.931 . S
H1353 C1341 0.930 . S
H1354 C1342 0.956 . S
H1355 C1342 0.961 . S
H1356 C1342 0.961 . S
H1357 C1343 0.958 . S
H1358 C1343 0.961 . S
H1359 C1343 0.960 . S
C1360 C1361 1.391 . S
C1360 C1362 1.394 . S
C1360 H1376 0.931 . S
C1361 C1360 1.391 . S
C1361 C1365 1.376 . S
C1362 C1360 1.394 . S
C1362 C1363 1.369 . S
C1362 C1366 1.531 . S
C1363 C1362 1.369 . S
C1363 C1364 1.410 . S
C1363 C1371 1.503 . S
C1364 C1363 1.410 . S
C1364 C1365 1.392 . S
C1364 C1367 1.511 . S
C1365 C1361 1.376 . S
C1365 C1364 1.392 . S
C1365 H1377 0.929 . S
C1366 C1362 1.531 . S
C1366 H1378 0.960 . S
C1366 H1379 0.962 . S
C1366 H1380 0.960 . S
C1367 C1364 1.511 . S
C1367 H1381 0.961 . S
C1367 H1382 0.961 . S
C1367 H1383 0.961 . S
C1368 C1369 1.370 . S
C1368 C1370 1.363 . S
C1368 H1384 0.931 . S
C1369 C1368 1.370 . S
C1369 C1373 1.408 . S
C1370 C1368 1.363 . S
C1370 C1371 1.370 . S
C1370 C1374 1.524 . S
C1371 C1363 1.503 . S
C1371 C1370 1.370 . S
C1371 C1372 1.403 . S
C1372 C1371 1.403 . S
C1372 C1373 1.404 . S
C1372 C1375 1.539 . S
C1373 C1369 1.408 . S
C1373 C1372 1.404 . S
C1373 H1385 0.930 . S
C1374 C1370 1.524 . S
C1374 H1386 0.956 . S
C1374 H1387 0.961 . S
C1374 H1388 0.961 . S
C1375 C1372 1.539 . S
C1375 H1389 0.958 . S
C1375 H1390 0.961 . S
C1375 H1391 0.960 . S
H1376 C1360 0.931 . S
H1377 C1365 0.929 . S
H1378 C1366 0.960 . S
H1379 C1366 0.962 . S
H1380 C1366 0.960 . S
H1381 C1367 0.961 . S
H1382 C1367 0.961 . S
H1383 C1367 0.961 . S
H1384 C1368 0.931 . S
H1385 C1373 0.930 . S
H1386 C1374 0.956 . S
H1387 C1374 0.961 . S
H1388 C1374 0.961 . S
H1389 C1375 0.958 . S
H1390 C1375 0.961 . S
H1391 C1375 0.960 . S
C1392 C1393 1.391 . S
C1392 C1394 1.394 . S
C1392 H1408 0.931 . S
C1393 C1392 1.391 . S
C1393 C1397 1.376 . S
C1394 C1392 1.394 . S
C1394 C1395 1.369 . S
C1394 C1398 1.531 . S
C1395 C1394 1.369 . S
C1395 C1396 1.410 . S
C1395 C1403 1.503 . S
C1396 C1395 1.410 . S
C1396 C1397 1.392 . S
C1396 C1399 1.511 . S
C1397 C1393 1.376 . S
C1397 C1396 1.392 . S
C1397 H1409 0.929 . S
C1398 C1394 1.531 . S
C1398 H1410 0.960 . S
C1398 H1411 0.962 . S
C1398 H1412 0.960 . S
C1399 C1396 1.511 . S
C1399 H1413 0.961 . S
C1399 H1414 0.961 . S
C1399 H1415 0.961 . S
C1400 C1401 1.370 . S
C1400 C1402 1.363 . S
C1400 H1416 0.931 . S
C1401 C1400 1.370 . S
C1401 C1405 1.408 . S
C1402 C1400 1.363 . S
C1402 C1403 1.370 . S
C1402 C1406 1.524 . S
C1403 C1395 1.503 . S
C1403 C1402 1.370 . S
C1403 C1404 1.403 . S
C1404 C1403 1.403 . S
C1404 C1405 1.404 . S
C1404 C1407 1.539 . S
C1405 C1401 1.408 . S
C1405 C1404 1.404 . S
C1405 H1417 0.930 . S
C1406 C1402 1.524 . S
C1406 H1418 0.956 . S
C1406 H1419 0.961 . S
C1406 H1420 0.961 . S
C1407 C1404 1.539 . S
C1407 H1421 0.958 . S
C1407 H1422 0.961 . S
C1407 H1423 0.960 . S
H1408 C1392 0.931 . S
H1409 C1397 0.929 . S
H1410 C1398 0.960 . S
H1411 C1398 0.962 . S
H1412 C1398 0.960 . S
H1413 C1399 0.961 . S
H1414 C1399 0.961 . S
H1415 C1399 0.961 . S
H1416 C1400 0.931 . S
H1417 C1405 0.930 . S
H1418 C1406 0.956 . S
H1419 C1406 0.961 . S
H1420 C1406 0.961 . S
H1421 C1407 0.958 . S
H1422 C1407 0.961 . S
H1423 C1407 0.960 . S
C1424 C1425 1.391 . S
C1424 C1426 1.394 . S
C1424 H1440 0.931 . S
C1425 C1424 1.391 . S
C1425 C1429 1.376 . S
C1426 C1424 1.394 . S
C1426 C1427 1.369 . S
C1426 C1430 1.531 . S
C1427 C1426 1.369 . S
C1427 C1428 1.410 1_554 S
C1427 C1435 1.503 1_554 S
C1428 C1427 1.410 1_556 S
C1428 C1429 1.392 1_556 S
C1428 C1431 1.511 . S
C1429 C1425 1.376 . S
C1429 C1428 1.392 1_554 S
C1429 H1441 0.929 . S
C1430 C1426 1.531 . S
C1430 H1442 0.960 . S
C1430 H1443 0.962 . S
C1430 H1444 0.960 . S
C1431 C1428 1.511 . S
C1431 H1445 0.961 . S
C1431 H1446 0.961 . S
C1431 H1447 0.961 . S
C1432 C1433 1.370 . S
C1432 C1434 1.363 . S
C1432 H1448 0.931 . S
C1433 C1432 1.370 . S
C1433 C1437 1.408 . S
C1434 C1432 1.363 . S
C1434 C1435 1.370 . S
C1434 C1438 1.524 . S
C1435 C1427 1.503 1_556 S
C1435 C1434 1.370 . S
C1435 C1436 1.403 . S
C1436 C1435 1.403 . S
C1436 C1437 1.404 . S
C1436 C1439 1.539 1_556 S
C1437 C1433 1.408 . S
C1437 C1436 1.404 . S
C1437 H1449 0.930 . S
C1438 C1434 1.524 . S
C1438 H1450 0.956 . S
C1438 H1451 0.961 . S
C1438 H1452 0.961 . S
C1439 C1436 1.539 1_554 S
C1439 H1453 0.958 . S
C1439 H1454 0.961 1_554 S
C1439 H1455 0.960 . S
H1440 C1424 0.931 . S
H1441 C1429 0.929 . S
H1442 C1430 0.960 . S
H1443 C1430 0.962 . S
H1444 C1430 0.960 . S
H1445 C1431 0.961 . S
H1446 C1431 0.961 . S
H1447 C1431 0.961 . S
H1448 C1432 0.931 . S
H1449 C1437 0.930 . S
H1450 C1438 0.956 . S
H1451 C1438 0.961 . S
H1452 C1438 0.961 . S
H1453 C1439 0.958 . S
H1454 C1439 0.961 1_556 S
H1455 C1439 0.960 . S
C1456 C1457 1.391 . S
C1456 C1458 1.394 . S
C1456 H1472 0.931 . S
C1457 C1456 1.391 . S
C1457 C1461 1.376 . S
C1458 C1456 1.394 . S
C1458 C1459 1.369 . S
C1458 C1462 1.531 . S
C1459 C1458 1.369 . S
C1459 C1460 1.410 . S
C1459 C1467 1.503 . S
C1460 C1459 1.410 . S
C1460 C1461 1.392 . S
C1460 C1463 1.511 . S
C1461 C1457 1.376 . S
C1461 C1460 1.392 . S
C1461 H1473 0.929 . S
C1462 C1458 1.531 . S
C1462 H1474 0.960 . S
C1462 H1475 0.962 . S
C1462 H1476 0.960 . S
C1463 C1460 1.511 . S
C1463 H1477 0.961 . S
C1463 H1478 0.961 . S
C1463 H1479 0.961 . S
C1464 C1465 1.370 . S
C1464 C1466 1.363 . S
C1464 H1480 0.931 . S
C1465 C1464 1.370 . S
C1465 C1469 1.408 . S
C1466 C1464 1.363 . S
C1466 C1467 1.370 . S
C1466 C1470 1.524 . S
C1467 C1459 1.503 . S
C1467 C1466 1.370 . S
C1467 C1468 1.403 . S
C1468 C1467 1.403 . S
C1468 C1469 1.404 . S
C1468 C1471 1.539 . S
C1469 C1465 1.408 . S
C1469 C1468 1.404 . S
C1469 H1481 0.930 . S
C1470 C1466 1.524 . S
C1470 H1482 0.956 . S
C1470 H1483 0.961 . S
C1470 H1484 0.961 . S
C1471 C1468 1.539 . S
C1471 H1485 0.958 . S
C1471 H1486 0.961 . S
C1471 H1487 0.960 . S
H1472 C1456 0.931 . S
H1473 C1461 0.929 . S
H1474 C1462 0.960 . S
H1475 C1462 0.962 . S
H1476 C1462 0.960 . S
H1477 C1463 0.961 . S
H1478 C1463 0.961 . S
H1479 C1463 0.961 . S
H1480 C1464 0.931 . S
H1481 C1469 0.930 . S
H1482 C1470 0.956 . S
H1483 C1470 0.961 . S
H1484 C1470 0.961 . S
H1485 C1471 0.958 . S
H1486 C1471 0.961 . S
H1487 C1471 0.960 . S
C1488 C1489 1.391 . S
C1488 C1490 1.394 . S
C1488 H1504 0.931 . S
C1489 C1488 1.391 . S
C1489 C1493 1.376 . S
C1490 C1488 1.394 . S
C1490 C1491 1.369 . S
C1490 C1494 1.531 . S
C1491 C1490 1.369 . S
C1491 C1492 1.410 . S
C1491 C1499 1.503 . S
C1492 C1491 1.410 . S
C1492 C1493 1.392 . S
C1492 C1495 1.511 . S
C1493 C1489 1.376 . S
C1493 C1492 1.392 . S
C1493 H1505 0.929 . S
C1494 C1490 1.531 . S
C1494 H1506 0.960 . S
C1494 H1507 0.962 . S
C1494 H1508 0.960 . S
C1495 C1492 1.511 . S
C1495 H1509 0.961 . S
C1495 H1510 0.961 . S
C1495 H1511 0.961 . S
C1496 C1497 1.370 . S
C1496 C1498 1.363 . S
C1496 H1512 0.931 . S
C1497 C1496 1.370 . S
C1497 C1501 1.408 . S
C1498 C1496 1.363 . S
C1498 C1499 1.370 . S
C1498 C1502 1.524 . S
C1499 C1491 1.503 . S
C1499 C1498 1.370 . S
C1499 C1500 1.403 . S
C1500 C1499 1.403 . S
C1500 C1501 1.404 . S
C1500 C1503 1.539 . S
C1501 C1497 1.408 . S
C1501 C1500 1.404 . S
C1501 H1513 0.930 . S
C1502 C1498 1.524 . S
C1502 H1514 0.956 . S
C1502 H1515 0.961 . S
C1502 H1516 0.961 . S
C1503 C1500 1.539 . S
C1503 H1517 0.958 . S
C1503 H1518 0.961 . S
C1503 H1519 0.960 . S
H1504 C1488 0.931 . S
H1505 C1493 0.929 . S
H1506 C1494 0.960 . S
H1507 C1494 0.962 . S
H1508 C1494 0.960 . S
H1509 C1495 0.961 . S
H1510 C1495 0.961 . S
H1511 C1495 0.961 . S
H1512 C1496 0.931 . S
H1513 C1501 0.930 . S
H1514 C1502 0.956 . S
H1515 C1502 0.961 . S
H1516 C1502 0.961 . S
H1517 C1503 0.958 . S
H1518 C1503 0.961 . S
H1519 C1503 0.960 . S
C1520 C1521 1.391 . S
C1520 C1522 1.394 . S
C1520 H1536 0.931 . S
C1521 C1520 1.391 . S
C1521 C1525 1.376 . S
C1522 C1520 1.394 . S
C1522 C1523 1.369 . S
C1522 C1526 1.531 . S
C1523 C1522 1.369 . S
C1523 C1524 1.410 . S
C1523 C1531 1.503 . S
C1524 C1523 1.410 . S
C1524 C1525 1.392 . S
C1524 C1527 1.511 . S
C1525 C1521 1.376 . S
C1525 C1524 1.392 . S
C1525 H1537 0.929 . S
C1526 C1522 1.531 . S
C1526 H1538 0.960 . S
C1526 H1539 0.962 . S
C1526 H1540 0.960 . S
C1527 C1524 1.511 . S
C1527 H1541 0.961 . S
C1527 H1542 0.961 . S
C1527 H1543 0.961 . S
C1528 C1529 1.370 . S
C1528 C1530 1.363 . S
C1528 H1544 0.931 . S
C1529 C1528 1.370 . S
C1529 C1533 1.408 . S
C1530 C1528 1.363 . S
C1530 C1531 1.370 . S
C1530 C1534 1.524 . S
C1531 C1523 1.503 . S
C1531 C1530 1.370 . S
C1531 C1532 1.403 . S
C1532 C1531 1.403 . S
C1532 C1533 1.404 . S
C1532 C1535 1.539 . S
C1533 C1529 1.408 . S
C1533 C1532 1.404 . S
C1533 H1545 0.930 . S
C1534 C1530 1.524 . S
C1534 H1546 0.956 . S
C1534 H1547 0.961 . S
C1534 H1548 0.961 . S
C1535 C1532 1.539 . S
C1535 H1549 0.958 . S
C1535 H1550 0.961 . S
C1535 H1551 0.960 . S
H1536 C1520 0.931 . S
H1537 C1525 0.929 . S
H1538 C1526 0.960 . S
H1539 C1526 0.962 . S
H1540 C1526 0.960 . S
H1541 C1527 0.961 . S
H1542 C1527 0.961 . S
H1543 C1527 0.961 . S
H1544 C1528 0.931 . S
H1545 C1533 0.930 . S
H1546 C1534 0.956 . S
H1547 C1534 0.961 . S
H1548 C1534 0.961 . S
H1549 C1535 0.958 . S
H1550 C1535 0.961 . S
H1551 C1535 0.960 . S
C1552 C1553 1.391 . S
C1552 C1554 1.394 . S
C1552 H1568 0.931 . S
C1553 C1552 1.391 . S
C1553 C1557 1.376 . S
C1554 C1552 1.394 . S
C1554 C1555 1.369 . S
C1554 C1558 1.531 . S
C1555 C1554 1.369 . S
C1555 C1556 1.410 . S
C1555 C1563 1.503 . S
C1556 C1555 1.410 . S
C1556 C1557 1.392 . S
C1556 C1559 1.511 . S
C1557 C1553 1.376 . S
C1557 C1556 1.392 . S
C1557 H1569 0.929 . S
C1558 C1554 1.531 . S
C1558 H1570 0.960 . S
C1558 H1571 0.962 . S
C1558 H1572 0.960 . S
C1559 C1556 1.511 . S
C1559 H1573 0.961 . S
C1559 H1574 0.961 . S
C1559 H1575 0.961 . S
C1560 C1561 1.370 . S
C1560 C1562 1.363 . S
C1560 H1576 0.931 . S
C1561 C1560 1.370 . S
C1561 C1565 1.408 . S
C1562 C1560 1.363 . S
C1562 C1563 1.370 1_554 S
C1562 C1566 1.524 . S
C1563 C1555 1.503 . S
C1563 C1562 1.370 1_556 S
C1563 C1564 1.403 . S
C1564 C1563 1.403 . S
C1564 C1565 1.404 1_556 S
C1564 C1567 1.539 . S
C1565 C1561 1.408 . S
C1565 C1564 1.404 1_554 S
C1565 H1577 0.930 . S
C1566 C1562 1.524 . S
C1566 H1578 0.956 . S
C1566 H1579 0.961 1_554 S
C1566 H1580 0.961 . S
C1567 C1564 1.539 . S
C1567 H1581 0.958 . S
C1567 H1582 0.961 . S
C1567 H1583 0.960 . S
H1568 C1552 0.931 . S
H1569 C1557 0.929 . S
H1570 C1558 0.960 . S
H1571 C1558 0.962 . S
H1572 C1558 0.960 . S
H1573 C1559 0.961 . S
H1574 C1559 0.961 . S
H1575 C1559 0.961 . S
H1576 C1560 0.931 . S
H1577 C1565 0.930 . S
H1578 C1566 0.956 . S
H1579 C1566 0.961 1_556 S
H1580 C1566 0.961 . S
H1581 C1567 0.958 . S
H1582 C1567 0.961 . S
H1583 C1567 0.960 . S
C1584 C1585 1.391 . S
C1584 C1586 1.394 . S
C1584 H1600 0.931 . S
C1585 C1584 1.391 . S
C1585 C1589 1.376 . S
C1586 C1584 1.394 . S
C1586 C1587 1.369 . S
C1586 C1590 1.531 . S
C1587 C1586 1.369 . S
C1587 C1588 1.410 . S
C1587 C1595 1.503 . S
C1588 C1587 1.410 . S
C1588 C1589 1.392 . S
C1588 C1591 1.511 . S
C1589 C1585 1.376 . S
C1589 C1588 1.392 . S
C1589 H1601 0.929 . S
C1590 C1586 1.531 . S
C1590 H1602 0.960 . S
C1590 H1603 0.962 . S
C1590 H1604 0.960 . S
C1591 C1588 1.511 . S
C1591 H1605 0.961 . S
C1591 H1606 0.961 . S
C1591 H1607 0.961 . S
C1592 C1593 1.370 . S
C1592 C1594 1.363 . S
C1592 H1608 0.931 . S
C1593 C1592 1.370 . S
C1593 C1597 1.408 . S
C1594 C1592 1.363 . S
C1594 C1595 1.370 . S
C1594 C1598 1.524 . S
C1595 C1587 1.503 . S
C1595 C1594 1.370 . S
C1595 C1596 1.403 . S
C1596 C1595 1.403 . S
C1596 C1597 1.404 . S
C1596 C1599 1.539 . S
C1597 C1593 1.408 . S
C1597 C1596 1.404 . S
C1597 H1609 0.930 . S
C1598 C1594 1.524 . S
C1598 H1610 0.956 . S
C1598 H1611 0.961 . S
C1598 H1612 0.961 . S
C1599 C1596 1.539 . S
C1599 H1613 0.958 . S
C1599 H1614 0.961 . S
C1599 H1615 0.960 . S
H1600 C1584 0.931 . S
H1601 C1589 0.929 . S
H1602 C1590 0.960 . S
H1603 C1590 0.962 . S
H1604 C1590 0.960 . S
H1605 C1591 0.961 . S
H1606 C1591 0.961 . S
H1607 C1591 0.961 . S
H1608 C1592 0.931 . S
H1609 C1597 0.930 . S
H1610 C1598 0.956 . S
H1611 C1598 0.961 . S
H1612 C1598 0.961 . S
H1613 C1599 0.958 . S
H1614 C1599 0.961 . S
H1615 C1599 0.960 . S
C1616 C1617 1.391 . S
C1616 C1618 1.394 . S
C1616 H1632 0.931 . S
C1617 C1616 1.391 . S
C1617 C1621 1.376 . S
C1618 C1616 1.394 . S
C1618 C1619 1.369 . S
C1618 C1622 1.531 . S
C1619 C1618 1.369 . S
C1619 C1620 1.410 . S
C1619 C1627 1.503 . S
C1620 C1619 1.410 . S
C1620 C1621 1.392 . S
C1620 C1623 1.511 . S
C1621 C1617 1.376 . S
C1621 C1620 1.392 . S
C1621 H1633 0.929 . S
C1622 C1618 1.531 . S
C1622 H1634 0.960 . S
C1622 H1635 0.962 . S
C1622 H1636 0.960 . S
C1623 C1620 1.511 . S
C1623 H1637 0.961 . S
C1623 H1638 0.961 . S
C1623 H1639 0.961 . S
C1624 C1625 1.370 . S
C1624 C1626 1.363 . S
C1624 H1640 0.931 . S
C1625 C1624 1.370 . S
C1625 C1629 1.408 . S
C1626 C1624 1.363 . S
C1626 C1627 1.370 . S
C1626 C1630 1.524 . S
C1627 C1619 1.503 . S
C1627 C1626 1.370 . S
C1627 C1628 1.403 . S
C1628 C1627 1.403 . S
C1628 C1629 1.404 . S
C1628 C1631 1.539 . S
C1629 C1625 1.408 . S
C1629 C1628 1.404 . S
C1629 H1641 0.930 . S
C1630 C1626 1.524 . S
C1630 H1642 0.956 . S
C1630 H1643 0.961 . S
C1630 H1644 0.961 . S
C1631 C1628 1.539 . S
C1631 H1645 0.958 . S
C1631 H1646 0.961 . S
C1631 H1647 0.960 . S
H1632 C1616 0.931 . S
H1633 C1621 0.929 . S
H1634 C1622 0.960 . S
H1635 C1622 0.962 . S
H1636 C1622 0.960 . S
H1637 C1623 0.961 . S
H1638 C1623 0.961 . S
H1639 C1623 0.961 . S
H1640 C1624 0.931 . S
H1641 C1629 0.930 . S
H1642 C1630 0.956 . S
H1643 C1630 0.961 . S
H1644 C1630 0.961 . S
H1645 C1631 0.958 . S
H1646 C1631 0.961 . S
H1647 C1631 0.960 . S
C1648 C1649 1.391 . S
C1648 C1650 1.394 . S
C1648 H1664 0.931 . S
C1649 C1648 1.391 . S
C1649 C1653 1.376 . S
C1650 C1648 1.394 . S
C1650 C1651 1.369 . S
C1650 C1654 1.531 . S
C1651 C1650 1.369 . S
C1651 C1652 1.410 . S
C1651 C1659 1.503 . S
C1652 C1651 1.410 . S
C1652 C1653 1.392 . S
C1652 C1655 1.511 . S
C1653 C1649 1.376 . S
C1653 C1652 1.392 . S
C1653 H1665 0.929 . S
C1654 C1650 1.531 . S
C1654 H1666 0.960 . S
C1654 H1667 0.962 . S
C1654 H1668 0.960 . S
C1655 C1652 1.511 . S
C1655 H1669 0.961 . S
C1655 H1670 0.961 . S
C1655 H1671 0.961 . S
C1656 C1657 1.370 . S
C1656 C1658 1.363 . S
C1656 H1672 0.931 . S
C1657 C1656 1.370 . S
C1657 C1661 1.408 . S
C1658 C1656 1.363 . S
C1658 C1659 1.370 . S
C1658 C1662 1.524 . S
C1659 C1651 1.503 . S
C1659 C1658 1.370 . S
C1659 C1660 1.403 . S
C1660 C1659 1.403 . S
C1660 C1661 1.404 . S
C1660 C1663 1.539 . S
C1661 C1657 1.408 . S
C1661 C1660 1.404 . S
C1661 H1673 0.930 . S
C1662 C1658 1.524 . S
C1662 H1674 0.956 . S
C1662 H1675 0.961 . S
C1662 H1676 0.961 . S
C1663 C1660 1.539 . S
C1663 H1677 0.958 . S
C1663 H1678 0.961 . S
C1663 H1679 0.960 . S
H1664 C1648 0.931 . S
H1665 C1653 0.929 . S
H1666 C1654 0.960 . S
H1667 C1654 0.962 . S
H1668 C1654 0.960 . S
H1669 C1655 0.961 . S
H1670 C1655 0.961 . S
H1671 C1655 0.961 . S
H1672 C1656 0.931 . S
H1673 C1661 0.930 . S
H1674 C1662 0.956 . S
H1675 C1662 0.961 . S
H1676 C1662 0.961 . S
H1677 C1663 0.958 . S
H1678 C1663 0.961 . S
H1679 C1663 0.960 . S
C1680 C1681 1.391 . S
C1680 C1682 1.394 . S
C1680 H1696 0.931 . S
C1681 C1680 1.391 . S
C1681 C1685 1.376 . S
C1682 C1680 1.394 . S
C1682 C1683 1.369 . S
C1682 C1686 1.531 . S
C1683 C1682 1.369 . S
C1683 C1684 1.410 . S
C1683 C1691 1.503 . S
C1684 C1683 1.410 . S
C1684 C1685 1.392 . S
C1684 C1687 1.511 . S
C1685 C1681 1.376 . S
C1685 C1684 1.392 . S
C1685 H1697 0.929 . S
C1686 C1682 1.531 . S
C1686 H1698 0.960 1_554 S
C1686 H1699 0.962 1_554 S
C1686 H1700 0.960 1_554 S
C1687 C1684 1.511 . S
C1687 H1701 0.961 . S
C1687 H1702 0.961 . S
C1687 H1703 0.961 . S
C1688 C1689 1.370 . S
C1688 C1690 1.363 1_556 S
C1688 H1704 0.931 . S
C1689 C1688 1.370 . S
C1689 C1693 1.408 . S
C1690 C1688 1.363 1_554 S
C1690 C1691 1.370 . S
C1690 C1694 1.524 . S
C1691 C1683 1.503 . S
C1691 C1690 1.370 . S
C1691 C1692 1.381 1_554 S
C1692 C1691 1.381 1_556 S
C1692 C1693 1.435 . S
C1692 C1695 1.531 1_556 S
C1693 C1689 1.408 . S
C1693 C1692 1.435 . S
C1693 H1705 0.930 . S
C1694 C1690 1.524 . S
C1694 H1706 0.956 . S
C1694 H1707 0.961 . S
C1694 H1708 0.961 . S
C1695 C1692 1.531 1_554 S
C1695 H1709 0.958 1_554 S
C1695 H1710 0.961 . S
C1695 H1711 0.960 . S
H1696 C1680 0.931 . S
H1697 C1685 0.929 . S
H1698 C1686 0.960 1_556 S
H1699 C1686 0.962 1_556 S
H1700 C1686 0.960 1_556 S
H1701 C1687 0.961 . S
H1702 C1687 0.961 . S
H1703 C1687 0.961 . S
H1704 C1688 0.931 . S
H1705 C1693 0.930 . S
H1706 C1694 0.956 . S
H1707 C1694 0.961 . S
H1708 C1694 0.961 . S
H1709 C1695 0.958 1_556 S
H1710 C1695 0.961 . S
H1711 C1695 0.960 . S
C1712 C1713 1.391 . S
C1712 C1714 1.394 . S
C1712 H1728 0.931 . S
C1713 C1712 1.391 . S
C1713 C1717 1.376 . S
C1714 C1712 1.394 . S
C1714 C1715 1.369 . S
C1714 C1718 1.531 . S
C1715 C1714 1.369 . S
C1715 C1716 1.410 . S
C1715 C1723 1.503 . S
C1716 C1715 1.410 . S
C1716 C1717 1.392 . S
C1716 C1719 1.511 . S
C1717 C1713 1.376 . S
C1717 C1716 1.392 . S
C1717 H1729 0.929 . S
C1718 C1714 1.531 . S
C1718 H1730 0.960 . S
C1718 H1731 0.962 . S
C1718 H1732 0.960 . S
C1719 C1716 1.511 . S
C1719 H1733 0.961 . S
C1719 H1734 0.961 . S
C1719 H1735 0.961 . S
C1720 C1721 1.370 . S
C1720 C1722 1.363 . S
C1720 H1736 0.931 . S
C1721 C1720 1.370 . S
C1721 C1725 1.408 . S
C1722 C1720 1.363 . S
C1722 C1723 1.370 . S
C1722 C1726 1.524 . S
C1723 C1715 1.503 . S
C1723 C1722 1.370 . S
C1723 C1724 1.403 . S
C1724 C1723 1.403 . S
C1724 C1725 1.404 . S
C1724 C1727 1.539 . S
C1725 C1721 1.408 . S
C1725 C1724 1.404 . S
C1725 H1737 0.930 . S
C1726 C1722 1.524 . S
C1726 H1738 0.956 . S
C1726 H1739 0.961 . S
C1726 H1740 0.961 . S
C1727 C1724 1.539 . S
C1727 H1741 0.958 . S
C1727 H1742 0.961 . S
C1727 H1743 0.960 . S
H1728 C1712 0.931 . S
H1729 C1717 0.929 . S
H1730 C1718 0.960 . S
H1731 C1718 0.962 . S
H1732 C1718 0.960 . S
H1733 C1719 0.961 . S
H1734 C1719 0.961 . S
H1735 C1719 0.961 . S
H1736 C1720 0.931 . S
H1737 C1725 0.930 . S
H1738 C1726 0.956 . S
H1739 C1726 0.961 . S
H1740 C1726 0.961 . S
H1741 C1727 0.958 . S
H1742 C1727 0.961 . S
H1743 C1727 0.960 . S
C1744 C1745 1.391 . S
C1744 C1746 1.394 . S
C1744 H1760 0.931 . S
C1745 C1744 1.391 . S
C1745 C1749 1.376 . S
C1746 C1744 1.394 . S
C1746 C1747 1.369 . S
C1746 C1750 1.531 . S
C1747 C1746 1.369 . S
C1747 C1748 1.410 . S
C1747 C1755 1.503 . S
C1748 C1747 1.410 . S
C1748 C1749 1.392 . S
C1748 C1751 1.511 . S
C1749 C1745 1.376 . S
C1749 C1748 1.392 . S
C1749 H1761 0.929 . S
C1750 C1746 1.531 . S
C1750 H1762 0.960 . S
C1750 H1763 0.962 . S
C1750 H1764 0.960 . S
C1751 C1748 1.511 . S
C1751 H1765 0.961 . S
C1751 H1766 0.961 . S
C1751 H1767 0.961 . S
C1752 C1753 1.370 . S
C1752 C1754 1.363 . S
C1752 H1768 0.931 . S
C1753 C1752 1.370 . S
C1753 C1757 1.408 . S
C1754 C1752 1.363 . S
C1754 C1755 1.370 . S
C1754 C1758 1.524 . S
C1755 C1747 1.503 . S
C1755 C1754 1.370 . S
C1755 C1756 1.403 . S
C1756 C1755 1.403 . S
C1756 C1757 1.404 . S
C1756 C1759 1.539 . S
C1757 C1753 1.408 . S
C1757 C1756 1.404 . S
C1757 H1769 0.930 . S
C1758 C1754 1.524 . S
C1758 H1770 0.956 . S
C1758 H1771 0.961 . S
C1758 H1772 0.961 . S
C1759 C1756 1.539 . S
C1759 H1773 0.958 . S
C1759 H1774 0.961 . S
C1759 H1775 0.960 . S
H1760 C1744 0.931 . S
H1761 C1749 0.929 . S
H1762 C1750 0.960 . S
H1763 C1750 0.962 . S
H1764 C1750 0.960 . S
H1765 C1751 0.961 . S
H1766 C1751 0.961 . S
H1767 C1751 0.961 . S
H1768 C1752 0.931 . S
H1769 C1757 0.930 . S
H1770 C1758 0.956 . S
H1771 C1758 0.961 . S
H1772 C1758 0.961 . S
H1773 C1759 0.958 . S
H1774 C1759 0.961 . S
H1775 C1759 0.960 . S
C1776 C1777 1.391 . S
C1776 C1778 1.394 . S
C1776 H1792 0.931 . S
C1777 C1776 1.391 . S
C1777 C1781 1.376 . S
C1778 C1776 1.394 . S
C1778 C1779 1.369 . S
C1778 C1782 1.531 . S
C1779 C1778 1.369 . S
C1779 C1780 1.410 . S
C1779 C1787 1.503 . S
C1780 C1779 1.410 . S
C1780 C1781 1.392 . S
C1780 C1783 1.511 . S
C1781 C1777 1.376 . S
C1781 C1780 1.392 . S
C1781 H1793 0.929 . S
C1782 C1778 1.531 . S
C1782 H1794 0.960 . S
C1782 H1795 0.962 . S
C1782 H1796 0.960 . S
C1783 C1780 1.511 . S
C1783 H1797 0.961 . S
C1783 H1798 0.961 . S
C1783 H1799 0.961 . S
C1784 C1785 1.370 . S
C1784 C1786 1.363 . S
C1784 H1800 0.931 . S
C1785 C1784 1.370 . S
C1785 C1789 1.408 . S
C1786 C1784 1.363 . S
C1786 C1787 1.370 . S
C1786 C1790 1.524 . S
C1787 C1779 1.503 . S
C1787 C1786 1.370 . S
C1787 C1788 1.403 . S
C1788 C1787 1.403 . S
C1788 C1789 1.404 . S
C1788 C1791 1.539 . S
C1789 C1785 1.408 . S
C1789 C1788 1.404 . S
C1789 H1801 0.930 . S
C1790 C1786 1.524 . S
C1790 H1802 0.956 . S
C1790 H1803 0.961 . S
C1790 H1804 0.961 . S
C1791 C1788 1.539 . S
C1791 H1805 0.958 . S
C1791 H1806 0.961 . S
C1791 H1807 0.960 . S
H1792 C1776 0.931 . S
H1793 C1781 0.929 . S
H1794 C1782 0.960 . S
H1795 C1782 0.962 . S
H1796 C1782 0.960 . S
H1797 C1783 0.961 . S
H1798 C1783 0.961 . S
H1799 C1783 0.961 . S
H1800 C1784 0.931 . S
H1801 C1789 0.930 . S
H1802 C1790 0.956 . S
H1803 C1790 0.961 . S
H1804 C1790 0.961 . S
H1805 C1791 0.958 . S
H1806 C1791 0.961 . S
H1807 C1791 0.960 . S
C1808 C1809 1.391 . S
C1808 C1810 1.394 . S
C1808 H1824 0.931 . S
C1809 C1808 1.391 . S
C1809 C1813 1.376 . S
C1810 C1808 1.394 . S
C1810 C1811 1.369 . S
C1810 C1814 1.531 . S
C1811 C1810 1.369 . S
C1811 C1812 1.410 . S
C1811 C1819 1.503 . S
C1812 C1811 1.410 . S
C1812 C1813 1.392 . S
C1812 C1815 1.511 . S
C1813 C1809 1.376 . S
C1813 C1812 1.392 . S
C1813 H1825 0.929 . S
C1814 C1810 1.531 . S
C1814 H1826 0.960 . S
C1814 H1827 0.962 . S
C1814 H1828 0.960 . S
C1815 C1812 1.511 . S
C1815 H1829 0.961 . S
C1815 H1830 0.961 . S
C1815 H1831 0.961 . S
C1816 C1817 1.370 . S
C1816 C1818 1.363 . S
C1816 H1832 0.931 . S
C1817 C1816 1.370 . S
C1817 C1821 1.408 . S
C1818 C1816 1.363 . S
C1818 C1819 1.370 . S
C1818 C1822 1.524 . S
C1819 C1811 1.503 . S
C1819 C1818 1.370 . S
C1819 C1820 1.403 . S
C1820 C1819 1.403 . S
C1820 C1821 1.404 . S
C1820 C1823 1.539 . S
C1821 C1817 1.408 . S
C1821 C1820 1.404 . S
C1821 H1833 0.930 . S
C1822 C1818 1.524 . S
C1822 H1834 0.956 . S
C1822 H1835 0.961 . S
C1822 H1836 0.961 . S
C1823 C1820 1.539 . S
C1823 H1837 0.958 . S
C1823 H1838 0.961 . S
C1823 H1839 0.960 . S
H1824 C1808 0.931 . S
H1825 C1813 0.929 . S
H1826 C1814 0.960 . S
H1827 C1814 0.962 . S
H1828 C1814 0.960 . S
H1829 C1815 0.961 . S
H1830 C1815 0.961 . S
H1831 C1815 0.961 . S
H1832 C1816 0.931 . S
H1833 C1821 0.930 . S
H1834 C1822 0.956 . S
H1835 C1822 0.961 . S
H1836 C1822 0.961 . S
H1837 C1823 0.958 . S
H1838 C1823 0.961 . S
H1839 C1823 0.960 . S
C1840 C1841 1.391 . S
C1840 C1842 1.394 . S
C1840 H1856 0.931 . S
C1841 C1840 1.391 . S
C1841 C1845 1.376 . S
C1842 C1840 1.394 . S
C1842 C1843 1.369 . S
C1842 C1846 1.531 . S
C1843 C1842 1.369 . S
C1843 C1844 1.410 . S
C1843 C1851 1.503 . S
C1844 C1843 1.410 . S
C1844 C1845 1.392 . S
C1844 C1847 1.511 . S
C1845 C1841 1.376 . S
C1845 C1844 1.392 . S
C1845 H1857 0.929 . S
C1846 C1842 1.531 . S
C1846 H1858 0.960 . S
C1846 H1859 0.962 . S
C1846 H1860 0.960 . S
C1847 C1844 1.511 . S
C1847 H1861 0.961 . S
C1847 H1862 0.961 . S
C1847 H1863 0.961 . S
C1848 C1849 1.370 . S
C1848 C1850 1.363 . S
C1848 H1864 0.931 . S
C1849 C1848 1.370 . S
C1849 C1853 1.408 . S
C1850 C1848 1.363 . S
C1850 C1851 1.370 . S
C1850 C1854 1.524 . S
C1851 C1843 1.503 . S
C1851 C1850 1.370 . S
C1851 C1852 1.403 . S
C1852 C1851 1.403 . S
C1852 C1853 1.404 . S
C1852 C1855 1.539 . S
C1853 C1849 1.408 . S
C1853 C1852 1.404 . S
C1853 H1865 0.930 . S
C1854 C1850 1.524 . S
C1854 H1866 0.956 . S
C1854 H1867 0.961 . S
C1854 H1868 0.961 . S
C1855 C1852 1.539 . S
C1855 H1869 0.958 . S
C1855 H1870 0.961 . S
C1855 H1871 0.960 . S
H1856 C1840 0.931 . S
H1857 C1845 0.929 . S
H1858 C1846 0.960 . S
H1859 C1846 0.962 . S
H1860 C1846 0.960 . S
H1861 C1847 0.961 . S
H1862 C1847 0.961 . S
H1863 C1847 0.961 . S
H1864 C1848 0.931 . S
H1865 C1853 0.930 . S
H1866 C1854 0.956 . S
H1867 C1854 0.961 . S
H1868 C1854 0.961 . S
H1869 C1855 0.958 . S
H1870 C1855 0.961 . S
H1871 C1855 0.960 . S
C1872 C1873 1.391 . S
C1872 C1874 1.394 . S
C1872 H1888 0.931 . S
C1873 C1872 1.391 . S
C1873 C1877 1.376 . S
C1874 C1872 1.394 . S
C1874 C1875 1.369 . S
C1874 C1878 1.531 . S
C1875 C1874 1.369 . S
C1875 C1876 1.410 . S
C1875 C1883 1.503 . S
C1876 C1875 1.410 . S
C1876 C1877 1.392 . S
C1876 C1879 1.511 . S
C1877 C1873 1.376 . S
C1877 C1876 1.392 . S
C1877 H1889 0.929 . S
C1878 C1874 1.531 . S
C1878 H1890 0.960 . S
C1878 H1891 0.962 . S
C1878 H1892 0.960 . S
C1879 C1876 1.511 . S
C1879 H1893 0.961 . S
C1879 H1894 0.961 . S
C1879 H1895 0.961 . S
C1880 C1881 1.370 . S
C1880 C1882 1.363 . S
C1880 H1896 0.931 . S
C1881 C1880 1.370 . S
C1881 C1885 1.408 . S
C1882 C1880 1.363 . S
C1882 C1883 1.370 . S
C1882 C1886 1.524 . S
C1883 C1875 1.503 . S
C1883 C1882 1.370 . S
C1883 C1884 1.403 . S
C1884 C1883 1.403 . S
C1884 C1885 1.404 . S
C1884 C1887 1.539 . S
C1885 C1881 1.408 . S
C1885 C1884 1.404 . S
C1885 H1897 0.930 . S
C1886 C1882 1.524 . S
C1886 H1898 0.956 . S
C1886 H1899 0.961 . S
C1886 H1900 0.961 . S
C1887 C1884 1.539 . S
C1887 H1901 0.958 . S
C1887 H1902 0.961 . S
C1887 H1903 0.960 . S
H1888 C1872 0.931 . S
H1889 C1877 0.929 . S
H1890 C1878 0.960 . S
H1891 C1878 0.962 . S
H1892 C1878 0.960 . S
H1893 C1879 0.961 . S
H1894 C1879 0.961 . S
H1895 C1879 0.961 . S
H1896 C1880 0.931 . S
H1897 C1885 0.930 . S
H1898 C1886 0.956 . S
H1899 C1886 0.961 . S
H1900 C1886 0.961 . S
H1901 C1887 0.958 . S
H1902 C1887 0.961 . S
H1903 C1887 0.960 . S
C1904 C1905 1.391 . S
C1904 C1906 1.394 . S
C1904 H1920 0.931 . S
C1905 C1904 1.391 . S
C1905 C1909 1.376 . S
C1906 C1904 1.394 . S
C1906 C1907 1.369 . S
C1906 C1910 1.531 . S
C1907 C1906 1.369 . S
C1907 C1908 1.410 . S
C1907 C1915 1.503 . S
C1908 C1907 1.410 . S
C1908 C1909 1.392 . S
C1908 C1911 1.511 . S
C1909 C1905 1.376 . S
C1909 C1908 1.392 . S
C1909 H1921 0.929 . S
C1910 C1906 1.531 . S
C1910 H1922 0.960 . S
C1910 H1923 0.962 . S
C1910 H1924 0.960 . S
C1911 C1908 1.511 . S
C1911 H1925 0.961 . S
C1911 H1926 0.961 . S
C1911 H1927 0.961 . S
C1912 C1913 1.370 . S
C1912 C1914 1.363 . S
C1912 H1928 0.931 . S
C1913 C1912 1.370 . S
C1913 C1917 1.408 . S
C1914 C1912 1.363 . S
C1914 C1915 1.370 . S
C1914 C1918 1.524 . S
C1915 C1907 1.503 . S
C1915 C1914 1.370 . S
C1915 C1916 1.403 . S
C1916 C1915 1.403 . S
C1916 C1917 1.404 . S
C1916 C1919 1.539 . S
C1917 C1913 1.408 . S
C1917 C1916 1.404 . S
C1917 H1929 0.930 . S
C1918 C1914 1.524 . S
C1918 H1930 0.956 . S
C1918 H1931 0.961 . S
C1918 H1932 0.961 . S
C1919 C1916 1.539 . S
C1919 H1933 0.958 . S
C1919 H1934 0.961 . S
C1919 H1935 0.960 . S
H1920 C1904 0.931 . S
H1921 C1909 0.929 . S
H1922 C1910 0.960 . S
H1923 C1910 0.962 . S
H1924 C1910 0.960 . S
H1925 C1911 0.961 . S
H1926 C1911 0.961 . S
H1927 C1911 0.961 . S
H1928 C1912 0.931 . S
H1929 C1917 0.930 . S
H1930 C1918 0.956 . S
H1931 C1918 0.961 . S
H1932 C1918 0.961 . S
H1933 C1919 0.958 . S
H1934 C1919 0.961 . S
H1935 C1919 0.960 . S
C1936 C1937 1.391 . S
C1936 C1938 1.394 . S
C1936 H1952 0.931 . S
C1937 C1936 1.391 . S
C1937 C1941 1.376 . S
C1938 C1936 1.394 . S
C1938 C1939 1.369 . S
C1938 C1942 1.531 . S
C1939 C1938 1.369 . S
C1939 C1940 1.410 . S
C1939 C1947 1.503 . S
C1940 C1939 1.410 . S
C1940 C1941 1.392 . S
C1940 C1943 1.511 . S
C1941 C1937 1.376 . S
C1941 C1940 1.392 . S
C1941 H1953 0.929 . S
C1942 C1938 1.531 . S
C1942 H1954 0.960 . S
C1942 H1955 0.962 . S
C1942 H1956 0.960 . S
C1943 C1940 1.511 . S
C1943 H1957 0.961 . S
C1943 H1958 0.961 . S
C1943 H1959 0.961 . S
C1944 C1945 1.370 . S
C1944 C1946 1.363 . S
C1944 H1960 0.931 . S
C1945 C1944 1.370 . S
C1945 C1949 1.408 . S
C1946 C1944 1.363 . S
C1946 C1947 1.370 . S
C1946 C1950 1.524 . S
C1947 C1939 1.503 . S
C1947 C1946 1.370 . S
C1947 C1948 1.403 . S
C1948 C1947 1.403 . S
C1948 C1949 1.404 . S
C1948 C1951 1.539 . S
C1949 C1945 1.408 . S
C1949 C1948 1.404 . S
C1949 H1961 0.930 . S
C1950 C1946 1.524 . S
C1950 H1962 0.956 . S
C1950 H1963 0.961 . S
C1950 H1964 0.961 . S
C1951 C1948 1.539 . S
C1951 H1965 0.958 . S
C1951 H1966 0.961 . S
C1951 H1967 0.960 . S
H1952 C1936 0.931 . S
H1953 C1941 0.929 . S
H1954 C1942 0.960 . S
H1955 C1942 0.962 . S
H1956 C1942 0.960 . S
H1957 C1943 0.961 . S
H1958 C1943 0.961 . S
H1959 C1943 0.961 . S
H1960 C1944 0.931 . S
H1961 C1949 0.930 . S
H1962 C1950 0.956 . S
H1963 C1950 0.961 . S
H1964 C1950 0.961 . S
H1965 C1951 0.958 . S
H1966 C1951 0.961 . S
H1967 C1951 0.960 . S
C1968 C1969 1.391 . S
C1968 C1970 1.394 . S
C1968 H1984 0.931 . S
C1969 C1968 1.391 . S
C1969 C1973 1.376 . S
C1970 C1968 1.394 . S
C1970 C1971 1.369 . S
C1970 C1974 1.531 . S
C1971 C1970 1.369 . S
C1971 C1972 1.410 . S
C1971 C1979 1.503 . S
C1972 C1971 1.410 . S
C1972 C1973 1.392 . S
C1972 C1975 1.511 . S
C1973 C1969 1.376 . S
C1973 C1972 1.392 . S
C1973 H1985 0.929 . S
C1974 C1970 1.531 . S
C1974 H1986 0.960 . S
C1974 H1987 0.962 . S
C1974 H1988 0.960 . S
C1975 C1972 1.511 . S
C1975 H1989 0.961 . S
C1975 H1990 0.961 . S
C1975 H1991 0.961 . S
C1976 C1977 1.370 . S
C1976 C1978 1.363 . S
C1976 H1992 0.931 . S
C1977 C1976 1.370 . S
C1977 C1981 1.408 . S
C1978 C1976 1.363 . S
C1978 C1979 1.370 . S
C1978 C1982 1.524 . S
C1979 C1971 1.503 . S
C1979 C1978 1.370 . S
C1979 C1980 1.403 . S
C1980 C1979 1.403 . S
C1980 C1981 1.404 . S
C1980 C1983 1.539 . S
C1981 C1977 1.408 . S
C1981 C1980 1.404 . S
C1981 H1993 0.930 . S
C1982 C1978 1.524 . S
C1982 H1994 0.956 . S
C1982 H1995 0.961 . S
C1982 H1996 0.961 . S
C1983 C1980 1.539 . S
C1983 H1997 0.958 . S
C1983 H1998 0.961 . S
C1983 H1999 0.960 . S
H1984 C1968 0.931 . S
H1985 C1973 0.929 . S
H1986 C1974 0.960 . S
H1987 C1974 0.962 . S
H1988 C1974 0.960 . S
H1989 C1975 0.961 . S
H1990 C1975 0.961 . S
H1991 C1975 0.961 . S
H1992 C1976 0.931 . S
H1993 C1981 0.930 . S
H1994 C1982 0.956 . S
H1995 C1982 0.961 . S
H1996 C1982 0.961 . S
H1997 C1983 0.958 . S
H1998 C1983 0.961 . S
H1999 C1983 0.960 . S
C2000 C2001 1.391 . S
C2000 C2002 1.394 . S
C2000 H2016 0.931 . S
C2001 C2000 1.391 . S
C2001 C2005 1.376 . S
C2002 C2000 1.394 . S
C2002 C2003 1.369 . S
C2002 C2006 1.531 . S
C2003 C2002 1.369 . S
C2003 C2004 1.410 . S
C2003 C2011 1.503 . S
C2004 C2003 1.410 . S
C2004 C2005 1.392 . S
C2004 C2007 1.511 . S
C2005 C2001 1.376 . S
C2005 C2004 1.392 . S
C2005 H2017 0.929 . S
C2006 C2002 1.531 . S
C2006 H2018 0.960 . S
C2006 H2019 0.962 . S
C2006 H2020 0.960 . S
C2007 C2004 1.511 . S
C2007 H2021 0.961 . S
C2007 H2022 0.961 . S
C2007 H2023 0.961 . S
C2008 C2009 1.370 . S
C2008 C2010 1.363 . S
C2008 H2024 0.931 . S
C2009 C2008 1.370 . S
C2009 C2013 1.408 . S
C2010 C2008 1.363 . S
C2010 C2011 1.370 . S
C2010 C2014 1.524 . S
C2011 C2003 1.503 . S
C2011 C2010 1.370 . S
C2011 C2012 1.403 . S
C2012 C2011 1.403 . S
C2012 C2013 1.404 . S
C2012 C2015 1.539 . S
C2013 C2009 1.408 . S
C2013 C2012 1.404 . S
C2013 H2025 0.930 . S
C2014 C2010 1.524 . S
C2014 H2026 0.956 . S
C2014 H2027 0.961 . S
C2014 H2028 0.961 . S
C2015 C2012 1.539 . S
C2015 H2029 0.958 . S
C2015 H2030 0.961 . S
C2015 H2031 0.960 . S
H2016 C2000 0.931 . S
H2017 C2005 0.929 . S
H2018 C2006 0.960 . S
H2019 C2006 0.962 . S
H2020 C2006 0.960 . S
H2021 C2007 0.961 . S
H2022 C2007 0.961 . S
H2023 C2007 0.961 . S
H2024 C2008 0.931 . S
H2025 C2013 0.930 . S
H2026 C2014 0.956 . S
H2027 C2014 0.961 . S
H2028 C2014 0.961 . S
H2029 C2015 0.958 . S
H2030 C2015 0.961 . S
H2031 C2015 0.960 . S
C2032 C2033 1.391 . S
C2032 C2034 1.394 . S
C2032 H2048 0.931 . S
C2033 C2032 1.391 . S
C2033 C2037 1.376 . S
C2034 C2032 1.394 . S
C2034 C2035 1.369 . S
C2034 C2038 1.531 . S
C2035 C2034 1.369 . S
C2035 C2036 1.410 . S
C2035 C2043 1.503 . S
C2036 C2035 1.410 . S
C2036 C2037 1.392 . S
C2036 C2039 1.511 . S
C2037 C2033 1.376 . S
C2037 C2036 1.392 . S
C2037 H2049 0.929 . S
C2038 C2034 1.531 . S
C2038 H2050 0.960 . S
C2038 H2051 0.962 . S
C2038 H2052 0.960 . S
C2039 C2036 1.511 . S
C2039 H2053 0.961 . S
C2039 H2054 0.961 . S
C2039 H2055 0.961 . S
C2040 C2041 1.370 . S
C2040 C2042 1.363 . S
C2040 H2056 0.931 . S
C2041 C2040 1.370 . S
C2041 C2045 1.408 . S
C2042 C2040 1.363 . S
C2042 C2043 1.370 . S
C2042 C2046 1.524 . S
C2043 C2035 1.503 . S
C2043 C2042 1.370 . S
C2043 C2044 1.403 . S
C2044 C2043 1.403 . S
C2044 C2045 1.404 . S
C2044 C2047 1.539 . S
C2045 C2041 1.408 . S
C2045 C2044 1.404 . S
C2045 H2057 0.930 . S
C2046 C2042 1.524 . S
C2046 H2058 0.956 . S
C2046 H2059 0.961 . S
C2046 H2060 0.961 . S
C2047 C2044 1.539 . S
C2047 H2061 0.958 . S
C2047 H2062 0.961 . S
C2047 H2063 0.960 . S
H2048 C2032 0.931 . S
H2049 C2037 0.929 . S
H2050 C2038 0.960 . S
H2051 C2038 0.962 . S
H2052 C2038 0.960 . S
H2053 C2039 0.961 . S
H2054 C2039 0.961 . S
H2055 C2039 0.961 . S
H2056 C2040 0.931 . S
H2057 C2045 0.930 . S
H2058 C2046 0.956 . S
H2059 C2046 0.961 . S
H2060 C2046 0.961 . S
H2061 C2047 0.958 . S
H2062 C2047 0.961 . S
H2063 C2047 0.960 . S
C2064 C2065 1.391 . S
C2064 C2066 1.394 . S
C2064 H2080 0.931 . S
C2065 C2064 1.391 . S
C2065 C2069 1.376 . S
C2066 C2064 1.394 . S
C2066 C2067 1.369 . S
C2066 C2070 1.531 . S
C2067 C2066 1.369 . S
C2067 C2068 1.410 . S
C2067 C2075 1.503 . S
C2068 C2067 1.410 . S
C2068 C2069 1.392 . S
C2068 C2071 1.511 . S
C2069 C2065 1.376 . S
C2069 C2068 1.392 . S
C2069 H2081 0.929 . S
C2070 C2066 1.531 . S
C2070 H2082 0.960 . S
C2070 H2083 0.962 . S
C2070 H2084 0.960 . S
C2071 C2068 1.511 . S
C2071 H2085 0.961 . S
C2071 H2086 0.961 . S
C2071 H2087 0.961 . S
C2072 C2073 1.370 . S
C2072 C2074 1.363 . S
C2072 H2088 0.931 . S
C2073 C2072 1.370 . S
C2073 C2077 1.408 . S
C2074 C2072 1.363 . S
C2074 C2075 1.370 . S
C2074 C2078 1.524 . S
C2075 C2067 1.503 . S
C2075 C2074 1.370 . S
C2075 C2076 1.403 . S
C2076 C2075 1.403 . S
C2076 C2077 1.404 . S
C2076 C2079 1.539 . S
C2077 C2073 1.408 . S
C2077 C2076 1.404 . S
C2077 H2089 0.930 . S
C2078 C2074 1.524 . S
C2078 H2090 0.956 . S
C2078 H2091 0.961 . S
C2078 H2092 0.961 . S
C2079 C2076 1.539 . S
C2079 H2093 0.958 . S
C2079 H2094 0.961 . S
C2079 H2095 0.960 . S
H2080 C2064 0.931 . S
H2081 C2069 0.929 . S
H2082 C2070 0.960 . S
H2083 C2070 0.962 . S
H2084 C2070 0.960 . S
H2085 C2071 0.961 . S
H2086 C2071 0.961 . S
H2087 C2071 0.961 . S
H2088 C2072 0.931 . S
H2089 C2077 0.930 . S
H2090 C2078 0.956 . S
H2091 C2078 0.961 . S
H2092 C2078 0.961 . S
H2093 C2079 0.958 . S
H2094 C2079 0.961 . S
H2095 C2079 0.960 . S
C2096 C2097 1.391 . S
C2096 C2098 1.394 . S
C2096 H2112 0.931 . S
C2097 C2096 1.391 . S
C2097 C2101 1.376 . S
C2098 C2096 1.394 . S
C2098 C2099 1.369 . S
C2098 C2102 1.531 . S
C2099 C2098 1.369 . S
C2099 C2100 1.410 . S
C2099 C2107 1.503 . S
C2100 C2099 1.410 . S
C2100 C2101 1.392 . S
C2100 C2103 1.511 . S
C2101 C2097 1.376 . S
C2101 C2100 1.392 . S
C2101 H2113 0.929 . S
C2102 C2098 1.531 . S
C2102 H2114 0.960 . S
C2102 H2115 0.962 . S
C2102 H2116 0.960 . S
C2103 C2100 1.511 . S
C2103 H2117 0.961 . S
C2103 H2118 0.961 . S
C2103 H2119 0.961 . S
C2104 C2105 1.370 . S
C2104 C2106 1.363 . S
C2104 H2120 0.931 . S
C2105 C2104 1.370 . S
C2105 C2109 1.408 . S
C2106 C2104 1.363 . S
C2106 C2107 1.370 . S
C2106 C2110 1.524 . S
C2107 C2099 1.503 . S
C2107 C2106 1.370 . S
C2107 C2108 1.403 . S
C2108 C2107 1.403 . S
C2108 C2109 1.404 . S
C2108 C2111 1.539 . S
C2109 C2105 1.408 . S
C2109 C2108 1.404 . S
C2109 H2121 0.930 . S
C2110 C2106 1.524 . S
C2110 H2122 0.956 . S
C2110 H2123 0.961 . S
C2110 H2124 0.961 . S
C2111 C2108 1.539 . S
C2111 H2125 0.958 . S
C2111 H2126 0.961 . S
C2111 H2127 0.960 . S
H2112 C2096 0.931 . S
H2113 C2101 0.929 . S
H2114 C2102 0.960 . S
H2115 C2102 0.962 . S
H2116 C2102 0.960 . S
H2117 C2103 0.961 . S
H2118 C2103 0.961 . S
H2119 C2103 0.961 . S
H2120 C2104 0.931 . S
H2121 C2109 0.930 . S
H2122 C2110 0.956 . S
H2123 C2110 0.961 . S
H2124 C2110 0.961 . S
H2125 C2111 0.958 . S
H2126 C2111 0.961 . S
H2127 C2111 0.960 . S
C2128 C2129 1.391 . S
C2128 C2130 1.394 . S
C2128 H2144 0.931 . S
C2129 C2128 1.391 . S
C2129 C2133 1.376 . S
C2130 C2128 1.394 . S
C2130 C2131 1.369 . S
C2130 C2134 1.531 . S
C2131 C2130 1.369 . S
C2131 C2132 1.410 . S
C2131 C2139 1.503 . S
C2132 C2131 1.410 . S
C2132 C2133 1.392 . S
C2132 C2135 1.511 . S
C2133 C2129 1.376 . S
C2133 C2132 1.392 . S
C2133 H2145 0.929 . S
C2134 C2130 1.531 . S
C2134 H2146 0.960 . S
C2134 H2147 0.962 . S
C2134 H2148 0.960 . S
C2135 C2132 1.511 . S
C2135 H2149 0.961 . S
C2135 H2150 0.961 . S
C2135 H2151 0.961 . S
C2136 C2137 1.370 . S
C2136 C2138 1.363 . S
C2136 H2152 0.931 . S
C2137 C2136 1.370 . S
C2137 C2141 1.408 . S
C2138 C2136 1.363 . S
C2138 C2139 1.370 . S
C2138 C2142 1.524 . S
C2139 C2131 1.503 . S
C2139 C2138 1.370 . S
C2139 C2140 1.403 . S
C2140 C2139 1.403 . S
C2140 C2141 1.404 . S
C2140 C2143 1.539 . S
C2141 C2137 1.408 . S
C2141 C2140 1.404 . S
C2141 H2153 0.930 . S
C2142 C2138 1.524 . S
C2142 H2154 0.956 . S
C2142 H2155 0.961 . S
C2142 H2156 0.961 . S
C2143 C2140 1.539 . S
C2143 H2157 0.958 . S
C2143 H2158 0.961 . S
C2143 H2159 0.960 . S
H2144 C2128 0.931 . S
H2145 C2133 0.929 . S
H2146 C2134 0.960 . S
H2147 C2134 0.962 . S
H2148 C2134 0.960 . S
H2149 C2135 0.961 . S
H2150 C2135 0.961 . S
H2151 C2135 0.961 . S
H2152 C2136 0.931 . S
H2153 C2141 0.930 . S
H2154 C2142 0.956 . S
H2155 C2142 0.961 . S
H2156 C2142 0.961 . S
H2157 C2143 0.958 . S
H2158 C2143 0.961 . S
H2159 C2143 0.960 . S
C2160 C2161 1.391 . S
C2160 C2162 1.394 . S
C2160 H2176 0.931 . S
C2161 C2160 1.391 . S
C2161 C2165 1.376 . S
C2162 C2160 1.394 . S
C2162 C2163 1.369 . S
C2162 C2166 1.531 . S
C2163 C2162 1.369 . S
C2163 C2164 1.410 . S
C2163 C2171 1.503 . S
C2164 C2163 1.410 . S
C2164 C2165 1.392 . S
C2164 C2167 1.511 . S
C2165 C2161 1.376 . S
C2165 C2164 1.392 . S
C2165 H2177 0.929 . S
C2166 C2162 1.531 . S
C2166 H2178 0.960 . S
C2166 H2179 0.962 . S
C2166 H2180 0.960 . S
C2167 C2164 1.511 . S
C2167 H2181 0.961 . S
C2167 H2182 0.961 . S
C2167 H2183 0.961 . S
C2168 C2169 1.370 . S
C2168 C2170 1.363 . S
C2168 H2184 0.931 . S
C2169 C2168 1.370 . S
C2169 C2173 1.408 . S
C2170 C2168 1.363 . S
C2170 C2171 1.370 . S
C2170 C2174 1.524 . S
C2171 C2163 1.503 . S
C2171 C2170 1.370 . S
C2171 C2172 1.403 . S
C2172 C2171 1.403 . S
C2172 C2173 1.404 . S
C2172 C2175 1.539 . S
C2173 C2169 1.408 . S
C2173 C2172 1.404 . S
C2173 H2185 0.930 . S
C2174 C2170 1.524 . S
C2174 H2186 0.956 . S
C2174 H2187 0.961 . S
C2174 H2188 0.961 . S
C2175 C2172 1.539 . S
C2175 H2189 0.958 . S
C2175 H2190 0.961 . S
C2175 H2191 0.960 . S
H2176 C2160 0.931 . S
H2177 C2165 0.929 . S
H2178 C2166 0.960 . S
H2179 C2166 0.962 . S
H2180 C2166 0.960 . S
H2181 C2167 0.961 . S
H2182 C2167 0.961 . S
H2183 C2167 0.961 . S
H2184 C2168 0.931 . S
H2185 C2173 0.930 . S
H2186 C2174 0.956 . S
H2187 C2174 0.961 . S
H2188 C2174 0.961 . S
H2189 C2175 0.958 . S
H2190 C2175 0.961 . S
H2191 C2175 0.960 . S
C2192 C2193 1.391 . S
C2192 C2194 1.394 . S
C2192 H2208 0.931 . S
C2193 C2192 1.391 . S
C2193 C2197 1.376 . S
C2194 C2192 1.394 . S
C2194 C2195 1.369 . S
C2194 C2198 1.531 . S
C2195 C2194 1.369 . S
C2195 C2196 1.410 . S
C2195 C2203 1.503 . S
C2196 C2195 1.410 . S
C2196 C2197 1.392 . S
C2196 C2199 1.511 . S
C2197 C2193 1.376 . S
C2197 C2196 1.392 . S
C2197 H2209 0.929 . S
C2198 C2194 1.531 . S
C2198 H2210 0.960 . S
C2198 H2211 0.962 . S
C2198 H2212 0.960 . S
C2199 C2196 1.511 . S
C2199 H2213 0.961 . S
C2199 H2214 0.961 . S
C2199 H2215 0.961 . S
C2200 C2201 1.370 . S
C2200 C2202 1.363 . S
C2200 H2216 0.931 . S
C2201 C2200 1.370 . S
C2201 C2205 1.408 . S
C2202 C2200 1.363 . S
C2202 C2203 1.370 . S
C2202 C2206 1.524 . S
C2203 C2195 1.503 . S
C2203 C2202 1.370 . S
C2203 C2204 1.403 . S
C2204 C2203 1.403 . S
C2204 C2205 1.404 . S
C2204 C2207 1.539 . S
C2205 C2201 1.408 . S
C2205 C2204 1.404 . S
C2205 H2217 0.930 . S
C2206 C2202 1.524 . S
C2206 H2218 0.956 . S
C2206 H2219 0.961 . S
C2206 H2220 0.961 . S
C2207 C2204 1.539 . S
C2207 H2221 0.958 . S
C2207 H2222 0.961 . S
C2207 H2223 0.960 . S
H2208 C2192 0.931 . S
H2209 C2197 0.929 . S
H2210 C2198 0.960 . S
H2211 C2198 0.962 . S
H2212 C2198 0.960 . S
H2213 C2199 0.961 . S
H2214 C2199 0.961 . S
H2215 C2199 0.961 . S
H2216 C2200 0.931 . S
H2217 C2205 0.930 . S
H2218 C2206 0.956 . S
H2219 C2206 0.961 . S
H2220 C2206 0.961 . S
H2221 C2207 0.958 . S
H2222 C2207 0.961 . S
H2223 C2207 0.960 . S
C2224 C2225 1.391 . S
C2224 C2226 1.394 . S
C2224 H2240 0.931 . S
C2225 C2224 1.391 . S
C2225 C2229 1.376 . S
C2226 C2224 1.394 . S
C2226 C2227 1.369 . S
C2226 C2230 1.531 . S
C2227 C2226 1.369 . S
C2227 C2228 1.410 . S
C2227 C2235 1.503 . S
C2228 C2227 1.410 . S
C2228 C2229 1.392 . S
C2228 C2231 1.511 . S
C2229 C2225 1.376 . S
C2229 C2228 1.392 . S
C2229 H2241 0.929 . S
C2230 C2226 1.531 . S
C2230 H2242 0.960 . S
C2230 H2243 0.962 . S
C2230 H2244 0.960 . S
C2231 C2228 1.511 . S
C2231 H2245 0.961 . S
C2231 H2246 0.961 . S
C2231 H2247 0.961 . S
C2232 C2233 1.370 . S
C2232 C2234 1.363 . S
C2232 H2248 0.931 . S
C2233 C2232 1.370 . S
C2233 C2237 1.408 . S
C2234 C2232 1.363 . S
C2234 C2235 1.370 . S
C2234 C2238 1.524 . S
C2235 C2227 1.503 . S
C2235 C2234 1.370 . S
C2235 C2236 1.403 . S
C2236 C2235 1.403 . S
C2236 C2237 1.404 . S
C2236 C2239 1.539 . S
C2237 C2233 1.408 . S
C2237 C2236 1.404 . S
C2237 H2249 0.930 . S
C2238 C2234 1.524 . S
C2238 H2250 0.956 . S
C2238 H2251 0.961 . S
C2238 H2252 0.961 . S
C2239 C2236 1.539 . S
C2239 H2253 0.958 . S
C2239 H2254 0.961 . S
C2239 H2255 0.960 . S
H2240 C2224 0.931 . S
H2241 C2229 0.929 . S
H2242 C2230 0.960 . S
H2243 C2230 0.962 . S
H2244 C2230 0.960 . S
H2245 C2231 0.961 . S
H2246 C2231 0.961 . S
H2247 C2231 0.961 . S
H2248 C2232 0.931 . S
H2249 C2237 0.930 . S
H2250 C2238 0.956 . S
H2251 C2238 0.961 . S
H2252 C2238 0.961 . S
H2253 C2239 0.958 . S
H2254 C2239 0.961 . S
H2255 C2239 0.960 . S
C465 C5 2.875 1_455 S
C473 C382 2.884 . S
C497 C324 2.881 . S
C505 C34 2.883 . S
C529 C63 2.875 . S
C537 C353 2.877 . S
C561 C92 2.873 . S
C569 C295 2.877 . S
C593 C440 2.885 . S
C601 C121 2.878 1_455 S
C625 C150 2.881 . S
C633 C266 2.883 . S
C657 C411 2.884 . S
C665 C179 2.879 . S
C689 C208 2.876 . S
C697 C237 2.877 . S
C721 C102 1.405 . S
C729 C3 1.436 . S
C753 C15 1.347 . S
C761 C32 1.426 . S
C785 C44 1.341 . S
C793 C61 1.426 . S
C817 C90 1.431 . S
C825 C73 1.378 . S
C849 C160 1.412 . S
C857 C119 1.438 . S
C881 C189 1.414 . S
C889 C148 1.440 . S
C913 C218 1.405 . S
C921 C177 1.437 . S
C945 C131 1.376 . S
C953 C206 1.429 . S
C977 C137 1.125 . S
C985 C269 1.370 . S
C1009 C253 1.118 . S
C1017 C124 1.367 1_545 S
C1041 C195 1.127 . S
C1049 C240 1.363 . S
C1073 C282 1.121 . S
C1081 C182 1.365 1_565 S
C1105 C298 1.340 . S
C1113 C21 1.216 . S
C1137 C66 1.350 1_545 S
C1145 C311 1.182 . S
C1169 C327 1.374 . S
C1177 C79 1.160 . S
C1201 C8 1.353 1_565 S
C1209 C340 1.181 . S
C1233 C334 1.413 . S
C1241 C351 1.440 . S
C1265 C363 1.371 . S
C1273 C293 1.430 . S
C1297 C380 1.447 . S
C1305 C305 1.396 . S
C1329 C322 1.432 . S
C1337 C392 1.386 . S
C1361 C409 1.415 . S
C1369 C247 1.366 . S
C1393 C450 1.395 . S
C1401 C235 1.435 . S
C1425 C276 1.344 . S
C1433 C438 1.427 . S
C1457 C421 1.405 . S
C1465 C264 1.437 . S
C1489 C211 1.352 . S
C1497 C427 1.180 . S
C1521 C414 1.362 . S
C1529 C166 1.190 . S
C1553 C456 1.202 . S
C1561 C153 1.361 . S
C1585 C224 1.231 . S
C1593 C443 1.352 . S
C1617 C37 1.348 . S
C1625 C369 1.208 . S
C1649 C50 1.247 . S
C1657 C385 1.353 . S
C1681 C398 1.131 . S
C1689 C95 1.367 . S
C1713 C356 1.354 . S
C1721 C108 1.201 . S
C1745 C158 0.750 . S
C1753 C13 0.827 . S
C1777 C187 0.834 . S
C1785 C42 0.786 . S
C1809 C216 0.891 . S
C1817 C71 0.813 . S
C1841 C100 0.760 . S
C1849 C129 0.832 . S
C1873 C126 1.619 . S
C1881 C300 1.647 . S
C1905 C242 1.632 . S
C1913 C68 1.630 . S
C1937 C329 1.625 . S
C1945 C184 1.630 . S
C1969 C10 1.624 . S
C1977 C271 1.649 . S
C2001 C361 0.732 . S
C2009 C245 0.806 . S
C2033 C303 0.733 . S
C2041 C448 0.812 . S
C2065 C390 0.861 . S
C2073 C274 0.794 . S
C2097 C419 0.895 . S
C2105 C332 0.835 . S
C2129 C39 1.658 . S
C2137 C416 1.642 . S
C2161 C387 1.639 . S
C2169 C155 1.649 . S
C2193 C97 1.613 . S
C2201 C445 1.635 . S
C2225 C213 1.642 . S
C2233 C358 1.631 . S
