# Generated by pormake.
# Topology sod, (4)-cn, num edge types: 1
# Building blocks:
#     Node 0, Type 0, BuildingBlock: TATPOV_clean_sbu_0, # of connection points: 4
#     Node 1, Type 0, BuildingBlock: TATPOV_clean_sbu_0, # of connection points: 4
#     Node 2, Type 0, BuildingBlock: TATPOV_clean_sbu_0, # of connection points: 4
#     Node 3, Type 0, BuildingBlock: TATPOV_clean_sbu_0, # of connection points: 4
#     Node 4, Type 0, BuildingBlock: TATPOV_clean_sbu_0, # of connection points: 4
#     Node 5, Type 0, BuildingBlock: TATPOV_clean_sbu_0, # of connection points: 4
#     Node 6, Type 0, BuildingBlock: TATPOV_clean_sbu_0, # of connection points: 4
#     Node 7, Type 0, BuildingBlock: TATPOV_clean_sbu_0, # of connection points: 4
#     Node 8, Type 0, BuildingBlock: TATPOV_clean_sbu_0, # of connection points: 4
#     Node 9, Type 0, BuildingBlock: TATPOV_clean_sbu_0, # of connection points: 4
#     Node 10, Type 0, BuildingBlock: TATPOV_clean_sbu_0, # of connection points: 4
#     Node 11, Type 0, BuildingBlock: TATPOV_clean_sbu_0, # of connection points: 4
#     Edge 12, Type (0, 0), BuildingBlock: OJICUG_clean_linker_0, # of connection points: 2
#     Edge 13, Type (0, 0), BuildingBlock: OJICUG_clean_linker_0, # of connection points: 2
#     Edge 14, Type (0, 0), BuildingBlock: OJICUG_clean_linker_0, # of connection points: 2
#     Edge 15, Type (0, 0), BuildingBlock: OJICUG_clean_linker_0, # of connection points: 2
#     Edge 16, Type (0, 0), BuildingBlock: OJICUG_clean_linker_0, # of connection points: 2
#     Edge 17, Type (0, 0), BuildingBlock: OJICUG_clean_linker_0, # of connection points: 2
#     Edge 18, Type (0, 0), BuildingBlock: OJICUG_clean_linker_0, # of connection points: 2
#     Edge 19, Type (0, 0), BuildingBlock: OJICUG_clean_linker_0, # of connection points: 2
#     Edge 20, Type (0, 0), BuildingBlock: OJICUG_clean_linker_0, # of connection points: 2
#     Edge 21, Type (0, 0), BuildingBlock: OJICUG_clean_linker_0, # of connection points: 2
#     Edge 22, Type (0, 0), BuildingBlock: OJICUG_clean_linker_0, # of connection points: 2
#     Edge 23, Type (0, 0), BuildingBlock: OJICUG_clean_linker_0, # of connection points: 2
#     Edge 24, Type (0, 0), BuildingBlock: OJICUG_clean_linker_0, # of connection points: 2
#     Edge 25, Type (0, 0), BuildingBlock: OJICUG_clean_linker_0, # of connection points: 2
#     Edge 26, Type (0, 0), BuildingBlock: OJICUG_clean_linker_0, # of connection points: 2
#     Edge 27, Type (0, 0), BuildingBlock: OJICUG_clean_linker_0, # of connection points: 2
#     Edge 28, Type (0, 0), BuildingBlock: OJICUG_clean_linker_0, # of connection points: 2
#     Edge 29, Type (0, 0), BuildingBlock: OJICUG_clean_linker_0, # of connection points: 2
#     Edge 30, Type (0, 0), BuildingBlock: OJICUG_clean_linker_0, # of connection points: 2
#     Edge 31, Type (0, 0), BuildingBlock: OJICUG_clean_linker_0, # of connection points: 2
#     Edge 32, Type (0, 0), BuildingBlock: OJICUG_clean_linker_0, # of connection points: 2
#     Edge 33, Type (0, 0), BuildingBlock: OJICUG_clean_linker_0, # of connection points: 2
#     Edge 34, Type (0, 0), BuildingBlock: OJICUG_clean_linker_0, # of connection points: 2
#     Edge 35, Type (0, 0), BuildingBlock: OJICUG_clean_linker_0, # of connection points: 2
# Relax obj value: 0.092
# Max RMSD: 0.145
# Mean RMSD: 0.125
data_MOF--net-sod--node1-TATPOV_clean_sbu_0--edge1-OJICUG_clean_linker_0
_symmetry_space_group_name_H-M    P1
_symmetry_Int_Tables_number       1
_symmetry_cell_setting            triclinic
loop_
_symmetry_equiv_pos_as_xyz
'x, y, z'
_cell_length_a     30.564466
_cell_length_b     30.737783
_cell_length_c     31.367243
_cell_angle_alpha  89.972097
_cell_angle_beta   90.41614
_cell_angle_gamma 92.179308
loop_
_atom_site_label
_atom_site_type_symbol
_atom_site_fract_x
_atom_site_fract_y
_atom_site_fract_z
_atom_type_partial_charge
Zn0 Zn 0.96282 0.21087 0.4258 0.0
Zn1 Zn 0.95041 0.25705 0.49771 0.0
O2 O 0.0128 0.23721 0.50558 0.0
O3 O 0.02496 0.20198 0.44593 0.0
O4 O 0.9397 0.29572 0.5489 0.0
O5 O 0.94948 0.26082 0.38822 0.0
O6 O 0.94369 0.29954 0.44684 0.0
C7 C 0.03808 0.21587 0.48202 0.0
C8 C 0.89598 0.17292 0.47922 0.0
O9 O 0.90609 0.20494 0.50369 0.0
O10 O 0.9147 0.16901 0.44365 0.0
C11 C 0.96151 0.29579 0.58368 0.0
O12 O -0.00718 0.26809 0.5887 0.0
C13 C 0.94348 0.29685 0.40622 0.0
Zn14 Zn 0.80204 0.92979 0.5704 0.0
Zn15 Zn 0.76038 0.92919 0.49307 0.0
O16 O 0.80571 0.88254 0.48378 0.0
O17 O 0.83811 0.88222 0.54693 0.0
O18 O 0.72782 0.93663 0.43754 0.0
O19 O 0.74543 0.91458 0.59936 0.0
O20 O 0.71187 0.9179 0.53716 0.0
C21 C 0.83431 0.86782 0.50921 0.0
C22 C 0.81055 0.01141 0.52654 0.0
O23 O 0.78879 0.9897 0.49855 0.0
O24 O 0.82062 0.99372 0.56159 0.0
C25 C 0.69359 0.91594 0.42421 0.0
O26 O 0.67781 0.88259 0.44621 0.0
C27 C 0.71047 0.91282 0.57749 0.0
Zn28 Zn 0.08163 0.79519 0.44048 0.0
Zn29 Zn 0.07446 0.74994 0.51484 0.0
O30 O 0.01381 0.77071 0.49984 0.0
O31 O 0.01645 0.8053 0.43856 0.0
O32 O 0.05951 0.71707 0.5686 0.0
O33 O 0.10617 0.74255 0.41451 0.0
O34 O 0.09737 0.70429 0.47355 0.0
C35 C -0.00531 0.79095 0.47009 0.0
C36 C 0.13381 0.83134 0.50996 0.0
O37 O 0.11789 0.79967 0.53186 0.0
O38 O 0.12299 0.83611 0.47126 0.0
C39 C 0.08211 0.6928 0.59224 0.0
O40 O 0.12337 0.68704 0.58311 0.0
C41 C 0.10933 0.70721 0.43478 0.0
Zn42 Zn 0.21651 0.07055 0.61494 0.0
Zn43 Zn 0.2634 0.07363 0.53875 0.0
O44 O 0.21595 0.11711 0.52794 0.0
O45 O 0.18085 0.11831 0.58915 0.0
O46 O 0.30153 0.07536 0.48584 0.0
O47 O 0.27196 0.08497 0.64743 0.0
O48 O 0.30684 0.08962 0.58618 0.0
C49 C 0.18601 0.1319 0.55128 0.0
C50 C 0.21565 0.98939 0.56862 0.0
O51 O 0.23941 0.01131 0.54254 0.0
O52 O 0.20111 0.00718 0.60181 0.0
C53 C 0.29903 0.04913 0.45437 0.0
O54 O 0.26826 0.01812 0.45373 0.0
C55 C 0.30682 0.09223 0.6267 0.0
Zn56 Zn 0.5275 0.08232 0.30646 0.0
Zn57 Zn 0.49488 0.01812 0.25907 0.0
O58 O 0.44291 0.02765 0.30075 0.0
O59 O 0.47237 0.08001 0.3408 0.0
O60 O 0.47491 0.97048 0.21687 0.0
O61 O 0.53352 0.12435 0.25855 0.0
O62 O 0.50954 0.07034 0.21763 0.0
C63 C 0.44041 0.05402 0.33212 0.0
C64 C 0.57805 0.00729 0.31442 0.0
O65 O 0.54757 0.99106 0.29063 0.0
O66 O 0.5784 0.04719 0.32435 0.0
C67 C 0.47716 0.92992 0.22455 0.0
O68 O 0.49016 0.91748 0.26252 0.0
C69 C 0.52363 0.10981 0.22193 0.0
Zn70 Zn 0.06199 0.57915 0.21984 0.0
Zn71 Zn 0.0286 0.51515 0.26869 0.0
O72 O 0.06472 0.48064 0.22643 0.0
O73 O 0.0838 0.533 0.18136 0.0
O74 O 0.00187 0.47024 0.30752 0.0
O75 O 0.09813 0.60136 0.26991 0.0
O76 O 0.06442 0.55253 0.3104 0.0
C77 C 0.08246 0.4932 0.19175 0.0
C78 C 0.96981 0.57784 0.21991 0.0
O79 O 0.97557 0.54396 0.24236 0.0
O80 O 0.00229 0.60114 0.20754 0.0
C81 C 0.97303 0.44221 0.29506 0.0
O82 O 0.96028 0.44203 0.25497 0.0
C83 C 0.09151 0.58461 0.3063 0.0
Zn84 Zn 0.56976 0.08062 0.69598 0.0
Zn85 Zn 0.53573 0.02171 0.75156 0.0
O86 O 0.56864 0.98277 0.71053 0.0
O87 O 0.58987 0.03037 0.66152 0.0
O88 O 0.51144 0.98041 0.79564 0.0
O89 O 0.606 0.10872 0.74324 0.0
O90 O 0.57238 0.06385 0.78786 0.0
C91 C 0.58631 0.99152 0.67478 0.0
C92 C 0.47684 0.08104 0.69996 0.0
O93 O 0.48209 0.04927 0.72537 0.0
O94 O 0.50957 0.1013 0.68395 0.0
C95 C 0.48327 0.95051 0.78621 0.0
O96 O 0.46927 0.94685 0.74662 0.0
C97 C 0.59876 0.09602 0.78103 0.0
Zn98 Zn 0.91174 0.52299 0.72329 0.0
Zn99 Zn 0.98088 0.50133 0.76941 0.0
O100 O 0.00494 0.55358 0.73391 0.0
O101 O 0.9465 0.57413 0.69902 0.0
O102 O 0.03281 0.48603 0.80683 0.0
O103 O 0.87482 0.53036 0.77508 0.0
O104 O 0.93258 0.51562 0.81399 0.0
C105 C 0.9869 0.5792 0.70772 0.0
C106 C 0.94114 0.43821 0.70163 0.0
O107 O 0.96931 0.44681 0.73104 0.0
O108 O 0.91242 0.46546 0.69264 0.0
C109 C 0.07205 0.48844 0.79339 0.0
O110 O 0.0793 0.49996 0.75365 0.0
C111 C 0.89254 0.52605 0.81133 0.0
Zn112 Zn 0.30187 0.45309 0.07054 0.0
Zn113 Zn 0.25404 0.4527 0.99722 0.0
O114 O 0.29878 0.40574 0.98438 0.0
O115 O 0.33581 0.405 0.04507 0.0
O116 O 0.21051 0.45252 0.94803 0.0
O117 O 0.25011 0.43745 0.10669 0.0
O118 O 0.21203 0.44105 0.04715 0.0
C119 C 0.32893 0.39049 0.00774 0.0
C120 C 0.30638 0.53525 0.0245 0.0
O121 O 0.28234 0.51436 0.99745 0.0
O122 O 0.31842 0.5168 0.05856 0.0
C123 C 0.21742 0.46729 0.91071 0.0
O124 O 0.25677 0.48262 0.90085 0.0
C125 C 0.21367 0.43524 0.08735 0.0
Zn126 Zn 0.56683 0.30994 0.92425 0.0
Zn127 Zn 0.56172 0.25683 0.99319 0.0
O128 O 0.49969 0.27866 0.98523 0.0
O129 O 0.50161 0.31926 0.92742 0.0
O130 O 0.55475 0.21434 0.0421 0.0
O131 O 0.59108 0.26235 0.88959 0.0
O132 O 0.58497 0.21877 0.94517 0.0
C133 C 0.48042 0.30253 0.95828 0.0
C134 C 0.62035 0.33917 0.99589 0.0
O135 O 0.60474 0.30528 0.01466 0.0
O136 O 0.60921 0.34774 0.95794 0.0
C137 C 0.54649 0.2281 0.07925 0.0
O138 O 0.5436 0.27018 0.08534 0.0
C139 C 0.59586 0.22547 0.90652 0.0
Zn140 Zn 0.71257 0.56519 0.12073 0.0
Zn141 Zn 0.76343 0.57088 0.04754 0.0
O142 O 0.71886 0.61738 0.03581 0.0
O143 O 0.68026 0.61586 0.09508 0.0
O144 O 0.80293 0.56868 0.99581 0.0
O145 O 0.76737 0.57586 0.15602 0.0
O146 O 0.80547 0.584 0.09687 0.0
C147 C 0.68798 0.63165 0.05838 0.0
C148 C 0.70896 0.4873 0.07062 0.0
O149 O 0.73517 0.51002 0.04754 0.0
O150 O 0.69386 0.50313 0.10452 0.0
C151 C 0.78625 0.55741 0.96005 0.0
O152 O 0.74365 0.55029 0.95731 0.0
C153 C 0.80335 0.58411 0.1374 0.0
Zn154 Zn 0.47321 0.72485 0.9292 0.0
Zn155 Zn 0.46134 0.77328 0.99886 0.0
O156 O 0.52204 0.74846 0.00916 0.0
O157 O 0.53396 0.71181 0.95032 0.0
O158 O 0.45438 0.81425 0.04948 0.0
O159 O 0.46393 0.7741 0.88972 0.0
O160 O 0.45806 0.81529 0.9467 0.0
C161 C 0.54664 0.72509 0.98675 0.0
C162 C 0.40162 0.69228 0.98002 0.0
O163 O 0.4126 0.72427 1.00436 0.0
O164 O 0.42201 0.68626 0.94569 0.0
C165 C 0.46157 0.80265 0.0878 0.0
O166 O 0.47176 0.7622 0.09534 0.0
C167 C 0.45884 0.81104 0.90619 0.0
C168 C 0.93228 0.33272 0.33585 0.0
C169 C 0.94224 0.33632 0.37958 0.0
H170 H 0.93362 0.36376 0.27478 0.0
C171 C 0.957 0.37676 0.39603 0.0
H172 H 0.92055 0.30196 0.32236 0.0
C173 C 0.96513 0.41195 0.36866 0.0
C174 C 0.95796 0.40745 0.32452 0.0
H175 H 0.96498 0.38047 0.42957 0.0
H176 H 0.97864 0.44216 0.38188 0.0
C177 C 0.93975 0.36809 0.3086 0.0
C178 C 0.68021 0.97594 0.37252 0.0
C179 C 0.66763 0.93486 0.38911 0.0
H180 H 0.66161 0.03087 0.33567 0.0
C181 C 0.62781 0.91492 0.37523 0.0
H182 H 0.71078 0.99219 0.3821 0.0
C183 C 0.59981 0.93705 0.34778 0.0
C184 C 0.61097 0.97965 0.33439 0.0
H185 H 0.61728 0.88319 0.38718 0.0
H186 H 0.56823 0.92206 0.33951 0.0
C187 C 0.65204 -0.00181 0.34583 0.0
C188 C 0.09085 0.59846 0.38473 0.0
C189 C 0.10921 0.60721 0.34446 0.0
H190 H 0.07742 0.62406 0.44654 0.0
C191 C 0.13839 0.64321 0.3397 0.0
H192 H 0.06886 0.57045 0.3896 0.0
C193 C 0.1434 0.67364 0.37235 0.0
C194 C 0.11937 0.66836 0.41009 0.0
H195 H 0.15398 0.65016 0.30941 0.0
H196 H 0.16242 0.70346 0.36631 0.0
C197 C 0.09596 0.629 0.41752 0.0
C198 C 0.36481 0.08564 0.42107 0.0
C199 C 0.33266 0.05182 0.42042 0.0
H200 H 0.42322 0.11304 0.39372 0.0
C201 C 0.33438 0.01987 0.38831 0.0
H202 H 0.36442 0.11098 0.44504 0.0
C203 C 0.3685 0.02099 0.35851 0.0
C204 C 0.40151 0.05407 0.3603 0.0
H205 H 0.31002 0.99338 0.38684 0.0
H206 H 0.36967 -0.00465 0.33492 0.0
C207 C 0.39867 0.08676 0.39149 0.0
C208 C 0.05865 0.60874 0.67885 0.0
C209 C 0.01325 0.61241 0.68396 0.0
H210 H 0.11633 0.63127 0.64558 0.0
C211 C -0.00793 0.64564 0.66221 0.0
H212 H 0.07587 0.58339 0.69519 0.0
C213 C 0.0151 0.67299 0.63411 0.0
C214 C 0.0599 0.66763 0.62672 0.0
H215 H 0.95722 0.64964 0.66576 0.0
H216 H -0.00278 0.6973 0.61694 0.0
C217 C 0.08178 0.63604 0.65033 0.0
C218 C 0.42695 0.11343 0.64668 0.0
C219 C 0.43259 0.09131 0.68543 0.0
H220 H 0.38214 0.13108 0.59753 0.0
C221 C 0.39565 0.07541 0.70768 0.0
H222 H 0.45484 0.12624 0.62892 0.0
C223 C 0.35394 0.07894 0.69001 0.0
C224 C 0.34878 0.09764 0.6495 0.0
H225 H 0.39911 0.05863 0.73783 0.0
H226 H 0.32618 0.06437 0.70675 0.0
C227 C 0.38538 0.11619 0.62865 0.0
C228 C 0.91875 0.357 0.61253 0.0
C229 C 0.95396 0.32922 0.61669 0.0
H230 H 0.88674 0.41243 0.63629 0.0
C231 C 0.98301 0.33528 0.65141 0.0
H232 H 0.89555 0.35309 0.58642 0.0
C233 C 0.97806 0.36963 0.68018 0.0
C234 C 0.94381 0.39848 0.67492 0.0
H235 H 0.01043 0.31436 0.65564 0.0
H236 H 0.00182 0.37434 0.7057 0.0
C237 C 0.91368 0.39107 0.6413 0.0
C238 C 0.63575 0.92958 0.66904 0.0
C239 C 0.60665 0.95772 0.64958 0.0
H240 H 0.69227 0.89165 0.66039 0.0
C241 C 0.60437 0.95991 0.60495 0.0
H242 H 0.63779 0.92729 0.70346 0.0
C243 C 0.63482 0.93891 0.58022 0.0
C244 C 0.66867 0.91663 0.60007 0.0
H245 H 0.5816 0.98106 0.58938 0.0
H246 H 0.63495 0.94479 0.54616 0.0
C247 C 0.66688 0.90924 0.64434 0.0
C248 C 0.41318 0.34202 0.9371 0.0
C249 C 0.43535 0.31612 0.96667 0.0
H250 H 0.36073 0.38542 0.92679 0.0
C251 C 0.41675 0.30859 0.00695 0.0
H252 H 0.42647 0.34809 0.90565 0.0
C253 C 0.37955 0.33025 0.01903 0.0
C254 C 0.35975 0.3592 0.99086 0.0
H255 H 0.43269 0.28857 0.03038 0.0
H256 H 0.36782 0.32639 0.05139 0.0
C257 C 0.3754 0.36319 0.94905 0.0
C258 C 0.32314 0.59524 0.97253 0.0
C259 C 0.32351 0.57985 0.01468 0.0
H260 H 0.34748 0.64349 0.92864 0.0
C261 C 0.34399 0.6059 0.04653 0.0
H262 H 0.30749 0.57616 0.94728 0.0
C263 C 0.36623 0.64505 0.03591 0.0
C264 C 0.36897 0.65836 0.99319 0.0
H265 H 0.34444 0.59513 0.07941 0.0
H266 H 0.38391 0.66314 0.06063 0.0
C267 C 0.34597 0.63388 0.96185 0.0
C268 C 0.64242 0.38117 0.06132 0.0
C269 C 0.64937 0.37087 0.01838 0.0
H270 H 0.65586 0.42679 0.11186 0.0
C271 C 0.68046 0.39543 0.99498 0.0
H272 H 0.61847 0.36267 0.07992 0.0
C273 C 0.70209 0.43157 0.01316 0.0
C274 C 0.69247 0.44437 0.05495 0.0
H275 H 0.68664 0.38782 0.96188 0.0
H276 H 0.72443 0.45087 0.99349 0.0
C277 C 0.66362 0.41796 0.07944 0.0
C278 C 0.62845 0.68458 0.06671 0.0
C279 C 0.65742 0.66295 0.04013 0.0
H280 H 0.57105 0.72212 0.07058 0.0
C281 C 0.65323 0.66737 0.99574 0.0
H282 H 0.63111 0.68208 0.10108 0.0
C283 C 0.6185 0.68987 0.97828 0.0
C284 C 0.58774 0.70894 0.00488 0.0
H285 H 0.67508 0.65117 0.97441 0.0
H286 H 0.61466 0.69068 0.94393 0.0
C287 C 0.59412 0.70766 0.04924 0.0
C288 C 0.47432 0.89013 0.89126 0.0
C289 C 0.45778 0.84919 0.87768 0.0
H290 H 0.49571 0.95451 0.87266 0.0
C291 C 0.44507 0.84353 0.83482 0.0
H292 H 0.48446 0.89535 0.92408 0.0
C293 C 0.45109 0.87735 0.80553 0.0
C294 C 0.4706 0.91731 0.81837 0.0
H295 H 0.43189 0.81236 0.82356 0.0
H296 H 0.44247 0.87137 0.77243 0.0
C297 C 0.48101 0.92384 0.86175 0.0
C298 C 0.1372 0.46025 0.89265 0.0
C299 C 0.1805 0.47015 0.87986 0.0
H300 H 0.06913 0.45832 0.87562 0.0
C301 C 0.18785 0.48446 0.83786 0.0
H302 H 0.13027 0.44916 0.92476 0.0
C303 C 0.15273 0.4895 0.80958 0.0
C304 C 0.10937 0.48066 0.82271 0.0
H305 H 0.22074 0.49228 0.82689 0.0
H306 H 0.1596 0.50113 0.77763 0.0
C307 C 0.10207 0.46559 0.86447 0.0
C308 C 0.59849 0.11384 0.8586 0.0
C309 C 0.61243 0.12431 0.81706 0.0
H310 H 0.5825 0.1382 0.92023 0.0
C311 C 0.63071 0.16608 0.80897 0.0
H312 H 0.58494 0.08167 0.86606 0.0
C313 C 0.62892 0.19845 0.83988 0.0
C314 C 0.60936 0.18937 0.87944 0.0
H315 H 0.6425 0.175 0.77756 0.0
H316 H 0.63982 0.23131 0.8316 0.0
C317 C 0.59701 0.14622 0.88968 0.0
C318 C 0.88564 0.53918 0.89049 0.0
C319 C 0.8661 0.53368 0.85002 0.0
H320 H 0.87588 0.5517 0.95706 0.0
C321 C 0.82039 0.53656 0.84628 0.0
H322 H 0.92076 0.53735 0.89446 0.0
C323 C 0.79482 0.5445 0.88193 0.0
C324 C 0.81419 0.55026 0.92235 0.0
H325 H 0.80412 0.53244 0.81567 0.0
H326 H 0.75972 0.54623 0.87769 0.0
C327 C 0.85996 0.54767 0.92628 0.0
C328 C 0.53391 0.18457 0.19148 0.0
C329 C 0.52848 0.13942 0.18477 0.0
H330 H 0.54355 0.24766 0.1637 0.0
C331 C 0.52862 0.12349 0.14278 0.0
H332 H 0.53378 0.19805 0.22338 0.0
C333 C 0.53474 0.15217 0.10835 0.0
C334 C 0.54021 0.19732 0.11527 0.0
H335 H 0.52461 0.0889 0.13657 0.0
H336 H 0.53498 0.13899 0.07633 0.0
C337 C 0.53944 0.21313 0.1572 0.0
C338 C 0.88853 0.56687 0.22231 0.0
C339 C 0.9258 0.58655 0.20344 0.0
H340 H 0.81987 0.55158 0.21639 0.0
C341 C 0.9212 0.61036 0.16552 0.0
H342 H 0.89117 0.54854 0.25167 0.0
C343 C 0.88068 0.6114 0.14499 0.0
C344 C 0.84396 0.58948 0.16252 0.0
H345 H 0.94937 0.62589 0.15024 0.0
H346 H 0.87844 0.62795 0.11459 0.0
C347 C 0.84777 0.56873 0.20221 0.0
C348 C 0.45546 0.87935 0.11516 0.0
C349 C 0.46191 0.83498 0.12317 0.0
H350 H 0.45497 0.94407 0.14068 0.0
C351 C 0.47077 0.82199 0.16527 0.0
H352 H 0.44851 0.89056 0.08317 0.0
C353 C 0.47442 0.85264 0.19824 0.0
C354 C 0.46935 0.89718 0.19006 0.0
H355 H 0.47578 0.78813 0.17274 0.0
H356 H 0.48217 0.84141 0.23004 0.0
C357 C 0.45916 0.91008 0.14819 0.0
C358 C 0.17436 0.4266 0.15655 0.0
C359 C 0.17308 0.43494 0.11245 0.0
H360 H 0.14464 0.4379 0.21706 0.0
C361 C 0.13515 0.45189 0.09439 0.0
H362 H 0.20298 0.41298 0.17123 0.0
C363 C 0.10227 0.46656 0.12065 0.0
C364 C 0.10637 0.46333 0.16507 0.0
H365 H 0.13293 0.45829 0.06049 0.0
H366 H 0.07564 0.48401 0.10649 0.0
C367 C 0.1409 0.44052 0.18278 0.0
C368 C 0.88725 0.81041 0.52316 0.0
C369 C 0.86785 0.8386 0.49405 0.0
H370 H 0.94221 0.77237 0.53798 0.0
C371 C 0.88666 0.84487 0.45372 0.0
H372 H 0.87313 0.80487 0.55439 0.0
C373 C 0.92688 0.82687 0.44446 0.0
C374 C 0.94838 0.80198 0.47529 0.0
H375 H 0.87234 0.86667 0.43082 0.0
H376 H 0.94232 0.8347 0.41431 0.0
C377 C 0.92695 0.79197 0.51376 0.0
C378 C 0.84336 0.11157 0.46314 0.0
C379 C 0.86655 0.13687 0.49358 0.0
H380 H 0.80699 0.05251 0.44982 0.0
C381 C 0.86696 0.1231 0.53627 0.0
H382 H 0.84246 0.12157 0.43001 0.0
C383 C 0.8473 0.08289 0.54762 0.0
C384 C 0.82641 0.05629 0.51652 0.0
H385 H 0.88494 0.14193 0.56027 0.0
H386 H 0.8499 0.07195 0.58034 0.0
C387 C 0.82319 0.0719 0.47453 0.0
C388 C 0.19309 0.88791 0.50411 0.0
C389 C 0.1622 0.86541 0.52954 0.0
H390 H 0.23501 0.94434 0.49696 0.0
C391 C 0.15405 0.8804 0.57083 0.0
H392 H 0.20022 0.8766 0.47227 0.0
C393 C 0.17349 0.9198 0.58486 0.0
C394 C 0.20162 0.94425 0.55785 0.0
H395 H 0.13024 0.86352 0.59093 0.0
H396 H 0.16464 0.93217 0.61582 0.0
C397 C 0.21289 0.92679 0.51825 0.0
C398 C 0.11091 0.18327 0.47168 0.0
C399 C 0.08075 0.20251 0.49878 0.0
H400 H 0.16864 0.14641 0.46711 0.0
C401 C 0.0894 0.20402 0.5428 0.0
H402 H 0.10534 0.18204 0.43754 0.0
C403 C 0.12539 0.18325 0.55975 0.0
C404 C 0.15369 0.16113 0.53293 0.0
H405 H 0.06693 0.21882 0.5645 0.0
H406 H 0.12987 0.18279 0.59404 0.0
C407 C 0.14726 0.16299 0.4886 0.0
loop_
_geom_bond_atom_site_label_1
_geom_bond_atom_site_label_2
_geom_bond_distance
_geom_bond_site_symmetry_2
_ccdc_geom_bond_type
Zn0 O3 2.031 . S
Zn0 O5 2.049 . S
Zn0 O10 2.067 1_455 S
Zn1 O2 1.962 . S
Zn1 O4 1.986 . S
Zn1 O6 1.996 . S
Zn1 O9 1.943 1_455 S
O2 Zn1 1.962 . S
O2 C7 1.254 . S
O3 Zn0 2.031 . S
O3 C7 1.269 . S
O4 Zn1 1.986 . S
O4 C11 1.262 . S
O5 Zn0 2.049 . S
O5 C13 1.260 . S
O6 Zn1 1.996 . S
O6 C13 1.257 . S
C7 O2 1.254 . S
C7 O3 1.269 . S
C8 O9 1.249 . S
C8 O10 1.270 . S
O9 Zn1 1.943 1_655 S
O9 C8 1.249 . S
O10 Zn0 2.067 1_655 S
O10 C8 1.270 . S
C11 O4 1.262 . S
C11 O12 1.232 . S
O12 C11 1.232 . S
C13 O5 1.260 . S
C13 O6 1.257 . S
Zn14 O17 2.031 1_545 S
Zn14 O19 2.049 . S
Zn14 O24 2.067 . S
Zn15 O16 1.962 1_545 S
Zn15 O18 1.986 . S
Zn15 O20 1.996 . S
Zn15 O23 1.943 . S
O16 Zn15 1.962 1_565 S
O16 C21 1.254 . S
O17 Zn14 2.031 1_565 S
O17 C21 1.269 . S
O18 Zn15 1.986 . S
O18 C25 1.262 . S
O19 Zn14 2.049 . S
O19 C27 1.260 . S
O20 Zn15 1.996 . S
O20 C27 1.257 . S
C21 O16 1.254 . S
C21 O17 1.269 . S
C22 O23 1.249 . S
C22 O24 1.270 . S
O23 Zn15 1.943 . S
O23 C22 1.249 . S
O24 Zn14 2.067 . S
O24 C22 1.270 . S
C25 O18 1.262 . S
C25 O26 1.232 . S
O26 C25 1.232 . S
C27 O19 1.260 . S
C27 O20 1.257 . S
Zn28 O31 2.031 1_455 S
Zn28 O33 2.049 . S
Zn28 O38 2.067 . S
Zn29 O30 1.962 1_455 S
Zn29 O32 1.986 . S
Zn29 O34 1.996 . S
Zn29 O37 1.943 . S
O30 Zn29 1.962 1_655 S
O30 C35 1.254 . S
O31 Zn28 2.031 1_655 S
O31 C35 1.269 . S
O32 Zn29 1.986 . S
O32 C39 1.262 . S
O33 Zn28 2.049 . S
O33 C41 1.260 . S
O34 Zn29 1.996 . S
O34 C41 1.257 . S
C35 O30 1.254 . S
C35 O31 1.269 . S
C36 O37 1.249 . S
C36 O38 1.270 . S
O37 Zn29 1.943 . S
O37 C36 1.249 . S
O38 Zn28 2.067 . S
O38 C36 1.270 . S
C39 O32 1.262 . S
C39 O40 1.232 . S
O40 C39 1.232 . S
C41 O33 1.260 . S
C41 O34 1.257 . S
Zn42 O45 2.031 . S
Zn42 O47 2.049 . S
Zn42 O52 2.067 1_545 S
Zn43 O44 1.962 . S
Zn43 O46 1.986 . S
Zn43 O48 1.996 . S
Zn43 O51 1.943 1_545 S
O44 Zn43 1.962 . S
O44 C49 1.254 . S
O45 Zn42 2.031 . S
O45 C49 1.269 . S
O46 Zn43 1.986 . S
O46 C53 1.262 . S
O47 Zn42 2.049 . S
O47 C55 1.260 . S
O48 Zn43 1.996 . S
O48 C55 1.257 . S
C49 O44 1.254 . S
C49 O45 1.269 . S
C50 O51 1.249 . S
C50 O52 1.270 . S
O51 Zn43 1.943 1_565 S
O51 C50 1.249 . S
O52 Zn42 2.067 1_565 S
O52 C50 1.270 . S
C53 O46 1.262 . S
C53 O54 1.232 . S
O54 C53 1.232 . S
C55 O47 1.260 . S
C55 O48 1.257 . S
Zn56 O59 2.031 . S
Zn56 O61 2.049 . S
Zn56 O66 2.067 . S
Zn57 O58 1.962 . S
Zn57 O60 1.986 1_545 S
Zn57 O62 1.996 . S
Zn57 O65 1.943 . S
O58 Zn57 1.962 . S
O58 C63 1.254 . S
O59 Zn56 2.031 . S
O59 C63 1.269 . S
O60 Zn57 1.986 1_565 S
O60 C67 1.262 . S
O61 Zn56 2.049 . S
O61 C69 1.260 . S
O62 Zn57 1.996 . S
O62 C69 1.257 . S
C63 O58 1.254 . S
C63 O59 1.269 . S
C64 O65 1.249 . S
C64 O66 1.270 . S
O65 Zn57 1.943 . S
O65 C64 1.249 . S
O66 Zn56 2.067 . S
O66 C64 1.270 . S
C67 O60 1.262 . S
C67 O68 1.232 . S
O68 C67 1.232 . S
C69 O61 1.260 . S
C69 O62 1.257 . S
Zn70 O73 2.031 . S
Zn70 O75 2.049 . S
Zn70 O80 2.067 1_455 S
Zn71 O72 1.962 . S
Zn71 O74 1.986 . S
Zn71 O76 1.996 . S
Zn71 O79 1.943 1_455 S
O72 Zn71 1.962 . S
O72 C77 1.254 . S
O73 Zn70 2.031 . S
O73 C77 1.269 . S
O74 Zn71 1.986 . S
O74 C81 1.262 . S
O75 Zn70 2.049 . S
O75 C83 1.260 . S
O76 Zn71 1.996 . S
O76 C83 1.257 . S
C77 O72 1.254 . S
C77 O73 1.269 . S
C78 O79 1.249 . S
C78 O80 1.270 . S
O79 Zn71 1.943 1_655 S
O79 C78 1.249 . S
O80 Zn70 2.067 1_655 S
O80 C78 1.270 . S
C81 O74 1.262 . S
C81 O82 1.232 . S
O82 C81 1.232 . S
C83 O75 1.260 . S
C83 O76 1.257 . S
Zn84 O87 2.031 . S
Zn84 O89 2.049 . S
Zn84 O94 2.067 . S
Zn85 O86 1.962 . S
Zn85 O88 1.986 1_545 S
Zn85 O90 1.996 . S
Zn85 O93 1.943 1_545 S
O86 Zn85 1.962 . S
O86 C91 1.256 . S
O87 Zn84 2.031 . S
O87 C91 1.269 . S
O88 Zn85 1.986 1_565 S
O88 C95 1.262 . S
O89 Zn84 2.049 . S
O89 C97 1.260 . S
O90 Zn85 1.996 . S
O90 C97 1.257 . S
C91 O86 1.256 . S
C91 O87 1.269 . S
C92 O93 1.249 1_545 S
C92 O94 1.270 . S
O93 Zn85 1.943 1_565 S
O93 C92 1.249 1_565 S
O94 Zn84 2.067 . S
O94 C92 1.270 . S
C95 O88 1.262 . S
C95 O96 1.232 . S
O96 C95 1.232 . S
C97 O89 1.260 . S
C97 O90 1.257 . S
Zn98 O101 2.031 . S
Zn98 O103 2.049 . S
Zn98 O108 2.067 . S
Zn99 O100 1.962 . S
Zn99 O102 1.986 . S
Zn99 O104 1.996 1_455 S
Zn99 O107 1.943 . S
O100 Zn99 1.962 . S
O100 C105 1.254 . S
O101 Zn98 2.031 . S
O101 C105 1.269 1_655 S
O102 Zn99 1.986 . S
O102 C109 1.262 . S
O103 Zn98 2.049 . S
O103 C111 1.260 . S
O104 Zn99 1.996 1_655 S
O104 C111 1.257 . S
C105 O100 1.254 . S
C105 O101 1.269 1_455 S
C106 O107 1.249 . S
C106 O108 1.270 1_455 S
O107 Zn99 1.943 . S
O107 C106 1.249 . S
O108 Zn98 2.067 . S
O108 C106 1.270 1_655 S
C109 O102 1.262 . S
C109 O110 1.232 . S
O110 C109 1.232 . S
C111 O103 1.260 . S
C111 O104 1.257 . S
Zn112 O115 2.031 . S
Zn112 O117 2.049 . S
Zn112 O122 2.067 . S
Zn113 O114 1.962 . S
Zn113 O116 1.986 . S
Zn113 O118 1.996 1_556 S
Zn113 O121 1.943 . S
O114 Zn113 1.962 . S
O114 C119 1.254 1_556 S
O115 Zn112 2.031 . S
O115 C119 1.269 . S
O116 Zn113 1.986 . S
O116 C123 1.262 . S
O117 Zn112 2.049 . S
O117 C125 1.260 . S
O118 Zn113 1.996 1_554 S
O118 C125 1.257 . S
C119 O114 1.254 1_554 S
C119 O115 1.269 . S
C120 O121 1.249 1_554 S
C120 O122 1.270 . S
O121 Zn113 1.943 . S
O121 C120 1.249 1_556 S
O122 Zn112 2.067 . S
O122 C120 1.270 . S
C123 O116 1.262 . S
C123 O124 1.232 . S
O124 C123 1.232 . S
C125 O117 1.260 . S
C125 O118 1.257 . S
Zn126 O129 2.031 . S
Zn126 O131 2.049 . S
Zn126 O136 2.067 . S
Zn127 O128 1.962 . S
Zn127 O130 1.986 . S
Zn127 O132 1.996 1_554 S
Zn127 O135 1.943 . S
O128 Zn127 1.962 . S
O128 C133 1.254 . S
O129 Zn126 2.031 . S
O129 C133 1.269 1_556 S
O130 Zn127 1.986 . S
O130 C137 1.262 . S
O131 Zn126 2.049 . S
O131 C139 1.260 . S
O132 Zn127 1.996 1_556 S
O132 C139 1.257 . S
C133 O128 1.254 . S
C133 O129 1.269 1_554 S
C134 O135 1.249 1_556 S
C134 O136 1.270 . S
O135 Zn127 1.943 . S
O135 C134 1.249 1_554 S
O136 Zn126 2.067 . S
O136 C134 1.270 . S
C137 O130 1.262 . S
C137 O138 1.232 . S
O138 C137 1.232 . S
C139 O131 1.260 . S
C139 O132 1.257 . S
Zn140 O143 2.031 . S
Zn140 O145 2.049 . S
Zn140 O150 2.067 . S
Zn141 O142 1.962 . S
Zn141 O144 1.986 . S
Zn141 O146 1.996 1_556 S
Zn141 O149 1.943 . S
O142 Zn141 1.962 . S
O142 C147 1.254 1_556 S
O143 Zn140 2.031 . S
O143 C147 1.269 . S
O144 Zn141 1.986 . S
O144 C151 1.262 . S
O145 Zn140 2.049 . S
O145 C153 1.260 . S
O146 Zn141 1.996 1_554 S
O146 C153 1.257 . S
C147 O142 1.254 1_554 S
C147 O143 1.269 . S
C148 O149 1.249 1_554 S
C148 O150 1.270 . S
O149 Zn141 1.943 . S
O149 C148 1.249 1_556 S
O150 Zn140 2.067 . S
O150 C148 1.270 . S
C151 O144 1.262 . S
C151 O152 1.232 . S
O152 C151 1.232 . S
C153 O145 1.260 . S
C153 O146 1.257 . S
Zn154 O157 2.031 . S
Zn154 O159 2.049 . S
Zn154 O164 2.067 . S
Zn155 O156 1.962 . S
Zn155 O158 1.986 . S
Zn155 O160 1.996 1_554 S
Zn155 O163 1.943 . S
O156 Zn155 1.962 . S
O156 C161 1.254 . S
O157 Zn154 2.031 . S
O157 C161 1.269 1_556 S
O158 Zn155 1.986 . S
O158 C165 1.262 . S
O159 Zn154 2.049 . S
O159 C167 1.260 . S
O160 Zn155 1.996 1_556 S
O160 C167 1.257 . S
C161 O156 1.254 . S
C161 O157 1.269 1_554 S
C162 O163 1.249 1_556 S
C162 O164 1.270 . S
O163 Zn155 1.943 . S
O163 C162 1.249 1_554 S
O164 Zn154 2.067 . S
O164 C162 1.270 . S
C165 O158 1.262 . S
C165 O166 1.232 . S
O166 C165 1.232 . S
C167 O159 1.260 . S
C167 O160 1.257 . S
C168 C169 1.387 . S
C168 H172 0.950 1_455 S
C168 C177 1.390 . S
C169 C168 1.387 . S
C169 C171 1.387 . S
H170 C177 0.950 1_655 S
C171 C169 1.387 . S
C171 C173 1.390 . S
C171 H175 0.950 . S
H172 C168 0.950 1_655 S
C173 C171 1.390 . S
C173 C174 1.387 . S
C173 H176 0.950 . S
C174 C173 1.387 . S
C174 C177 1.387 . S
H175 C171 0.950 . S
H176 C173 0.950 . S
C177 C168 1.390 . S
C177 H170 0.950 1_455 S
C177 C174 1.387 . S
C178 C179 1.387 . S
C178 H182 0.950 . S
C178 C187 1.390 . S
C179 C178 1.387 . S
C179 C181 1.387 1_545 S
H180 C187 0.950 . S
C181 C179 1.387 1_565 S
C181 C183 1.390 . S
C181 H185 0.950 . S
H182 C178 0.950 . S
C183 C181 1.390 . S
C183 C184 1.387 1_565 S
C183 H186 0.950 . S
C184 C183 1.387 1_545 S
C184 C187 1.387 . S
H185 C181 0.950 . S
H186 C183 0.950 . S
C187 C178 1.390 . S
C187 H180 0.950 . S
C187 C184 1.387 . S
C188 C189 1.387 . S
C188 H192 0.950 . S
C188 C197 1.390 . S
C189 C188 1.387 . S
C189 C191 1.387 1_455 S
H190 C197 0.950 . S
C191 C189 1.387 1_655 S
C191 C193 1.390 . S
C191 H195 0.950 . S
H192 C188 0.950 . S
C193 C191 1.390 . S
C193 C194 1.387 1_655 S
C193 H196 0.950 . S
C194 C193 1.387 1_455 S
C194 C197 1.387 . S
H195 C191 0.950 . S
H196 C193 0.950 . S
C197 C188 1.390 . S
C197 H190 0.950 . S
C197 C194 1.387 . S
C198 C199 1.387 . S
C198 H202 0.950 . S
C198 C207 1.390 . S
C199 C198 1.387 . S
C199 C201 1.387 1_545 S
H200 C207 0.950 . S
C201 C199 1.387 1_565 S
C201 C203 1.390 . S
C201 H205 0.950 . S
H202 C198 0.950 . S
C203 C201 1.390 . S
C203 C204 1.387 1_565 S
C203 H206 0.950 . S
C204 C203 1.387 1_545 S
C204 C207 1.387 . S
H205 C201 0.950 . S
H206 C203 0.950 . S
C207 C198 1.390 . S
C207 H200 0.950 . S
C207 C204 1.387 . S
C208 C209 1.387 . S
C208 H212 0.950 . S
C208 C217 1.390 . S
C209 C208 1.387 . S
C209 C211 1.387 1_455 S
H210 C217 0.950 . S
C211 C209 1.387 1_655 S
C211 C213 1.390 . S
C211 H215 0.950 . S
H212 C208 0.950 . S
C213 C211 1.390 . S
C213 C214 1.387 1_655 S
C213 H216 0.950 . S
C214 C213 1.387 1_455 S
C214 C217 1.387 . S
H215 C211 0.950 . S
H216 C213 0.950 . S
C217 C208 1.390 . S
C217 H210 0.950 . S
C217 C214 1.387 . S
C218 C219 1.387 . S
C218 H222 0.950 . S
C218 C227 1.390 . S
C219 C218 1.387 . S
C219 C221 1.387 1_545 S
H220 C227 0.950 . S
C221 C219 1.387 1_565 S
C221 C223 1.390 . S
C221 H225 0.950 . S
H222 C218 0.950 . S
C223 C221 1.390 . S
C223 C224 1.387 1_565 S
C223 H226 0.950 . S
C224 C223 1.387 1_545 S
C224 C227 1.387 . S
H225 C221 0.950 . S
H226 C223 0.950 . S
C227 C218 1.390 . S
C227 H220 0.950 . S
C227 C224 1.387 . S
C228 C229 1.387 1_655 S
C228 H232 0.950 . S
C228 C237 1.390 . S
C229 C228 1.387 1_455 S
C229 C231 1.387 . S
H230 C237 0.950 . S
C231 C229 1.387 . S
C231 C233 1.390 . S
C231 H235 0.950 . S
H232 C228 0.950 . S
C233 C231 1.390 . S
C233 C234 1.387 . S
C233 H236 0.950 . S
C234 C233 1.387 . S
C234 C237 1.387 1_455 S
H235 C231 0.950 . S
H236 C233 0.950 . S
C237 C228 1.390 . S
C237 H230 0.950 . S
C237 C234 1.387 1_655 S
C238 C239 1.387 1_565 S
C238 H242 0.950 . S
C238 C247 1.390 . S
C239 C238 1.387 1_545 S
C239 C241 1.387 . S
H240 C247 0.950 . S
C241 C239 1.387 . S
C241 C243 1.390 . S
C241 H245 0.950 . S
H242 C238 0.950 . S
C243 C241 1.390 . S
C243 C244 1.387 . S
C243 H246 0.950 . S
C244 C243 1.387 . S
C244 C247 1.387 1_545 S
H245 C241 0.950 . S
H246 C243 0.950 . S
C247 C238 1.390 . S
C247 H240 0.950 . S
C247 C244 1.387 1_565 S
C248 C249 1.387 1_556 S
C248 H252 0.950 . S
C248 C257 1.390 . S
C249 C248 1.387 1_554 S
C249 C251 1.387 . S
H250 C257 0.950 . S
C251 C249 1.387 . S
C251 C253 1.390 . S
C251 H255 0.950 . S
H252 C248 0.950 . S
C253 C251 1.390 . S
C253 C254 1.387 . S
C253 H256 0.950 . S
C254 C253 1.387 . S
C254 C257 1.387 1_554 S
H255 C251 0.950 . S
H256 C253 0.950 . S
C257 C248 1.390 . S
C257 H250 0.950 . S
C257 C254 1.387 1_556 S
C258 C259 1.387 1_556 S
C258 H262 0.950 . S
C258 C267 1.390 . S
C259 C258 1.387 1_554 S
C259 C261 1.387 . S
H260 C267 0.950 . S
C261 C259 1.387 . S
C261 C263 1.390 . S
C261 H265 0.950 . S
H262 C258 0.950 . S
C263 C261 1.390 . S
C263 C264 1.387 . S
C263 H266 0.950 . S
C264 C263 1.387 . S
C264 C267 1.387 1_554 S
H265 C261 0.950 . S
H266 C263 0.950 . S
C267 C258 1.390 . S
C267 H260 0.950 . S
C267 C264 1.387 1_556 S
C268 C269 1.387 . S
C268 H272 0.950 . S
C268 C277 1.390 . S
C269 C268 1.387 . S
C269 C271 1.387 1_554 S
H270 C277 0.950 . S
C271 C269 1.387 1_556 S
C271 C273 1.390 . S
C271 H275 0.950 . S
H272 C268 0.950 . S
C273 C271 1.390 . S
C273 C274 1.387 1_556 S
C273 H276 0.950 . S
C274 C273 1.387 1_554 S
C274 C277 1.387 . S
H275 C271 0.950 . S
H276 C273 0.950 . S
C277 C268 1.390 . S
C277 H270 0.950 . S
C277 C274 1.387 . S
C278 C279 1.387 . S
C278 H282 0.950 . S
C278 C287 1.390 . S
C279 C278 1.387 . S
C279 C281 1.387 1_554 S
H280 C287 0.950 . S
C281 C279 1.387 1_556 S
C281 C283 1.390 . S
C281 H285 0.950 . S
H282 C278 0.950 . S
C283 C281 1.390 . S
C283 C284 1.387 1_556 S
C283 H286 0.950 . S
C284 C283 1.387 1_554 S
C284 C287 1.387 . S
H285 C281 0.950 . S
H286 C283 0.950 . S
C287 C278 1.390 . S
C287 H280 0.950 . S
C287 C284 1.387 . S
C288 C289 1.387 . S
C288 H292 0.950 . S
C288 C297 1.390 . S
C289 C288 1.387 . S
C289 C291 1.387 . S
H290 C297 0.950 . S
C291 C289 1.387 . S
C291 C293 1.390 . S
C291 H295 0.950 . S
H292 C288 0.950 . S
C293 C291 1.390 . S
C293 C294 1.387 . S
C293 H296 0.950 . S
C294 C293 1.387 . S
C294 C297 1.387 . S
H295 C291 0.950 . S
H296 C293 0.950 . S
C297 C288 1.390 . S
C297 H290 0.950 . S
C297 C294 1.387 . S
C298 C299 1.387 . S
C298 H302 0.950 . S
C298 C307 1.390 . S
C299 C298 1.387 . S
C299 C301 1.387 . S
H300 C307 0.950 . S
C301 C299 1.387 . S
C301 C303 1.390 . S
C301 H305 0.950 . S
H302 C298 0.950 . S
C303 C301 1.390 . S
C303 C304 1.387 . S
C303 H306 0.950 . S
C304 C303 1.387 . S
C304 C307 1.387 . S
H305 C301 0.950 . S
H306 C303 0.950 . S
C307 C298 1.390 . S
C307 H300 0.950 . S
C307 C304 1.387 . S
C308 C309 1.387 . S
C308 H312 0.950 . S
C308 C317 1.390 . S
C309 C308 1.387 . S
C309 C311 1.387 . S
H310 C317 0.950 . S
C311 C309 1.387 . S
C311 C313 1.390 . S
C311 H315 0.950 . S
H312 C308 0.950 . S
C313 C311 1.390 . S
C313 C314 1.387 . S
C313 H316 0.950 . S
C314 C313 1.387 . S
C314 C317 1.387 . S
H315 C311 0.950 . S
H316 C313 0.950 . S
C317 C308 1.390 . S
C317 H310 0.950 . S
C317 C314 1.387 . S
C318 C319 1.387 . S
C318 H322 0.950 . S
C318 C327 1.390 . S
C319 C318 1.387 . S
C319 C321 1.387 . S
H320 C327 0.950 . S
C321 C319 1.387 . S
C321 C323 1.390 . S
C321 H325 0.950 . S
H322 C318 0.950 . S
C323 C321 1.390 . S
C323 C324 1.387 . S
C323 H326 0.950 . S
C324 C323 1.387 . S
C324 C327 1.387 . S
H325 C321 0.950 . S
H326 C323 0.950 . S
C327 C318 1.390 . S
C327 H320 0.950 . S
C327 C324 1.387 . S
C328 C329 1.387 . S
C328 H332 0.950 . S
C328 C337 1.390 . S
C329 C328 1.387 . S
C329 C331 1.387 . S
H330 C337 0.950 . S
C331 C329 1.387 . S
C331 C333 1.390 . S
C331 H335 0.950 . S
H332 C328 0.950 . S
C333 C331 1.390 . S
C333 C334 1.387 . S
C333 H336 0.950 . S
C334 C333 1.387 . S
C334 C337 1.387 . S
H335 C331 0.950 . S
H336 C333 0.950 . S
C337 C328 1.390 . S
C337 H330 0.950 . S
C337 C334 1.387 . S
C338 C339 1.387 . S
C338 H342 0.950 . S
C338 C347 1.390 . S
C339 C338 1.387 . S
C339 C341 1.387 . S
H340 C347 0.950 . S
C341 C339 1.387 . S
C341 C343 1.390 . S
C341 H345 0.950 . S
H342 C338 0.950 . S
C343 C341 1.390 . S
C343 C344 1.387 . S
C343 H346 0.950 . S
C344 C343 1.387 . S
C344 C347 1.387 . S
H345 C341 0.950 . S
H346 C343 0.950 . S
C347 C338 1.390 . S
C347 H340 0.950 . S
C347 C344 1.387 . S
C348 C349 1.387 . S
C348 H352 0.950 . S
C348 C357 1.390 . S
C349 C348 1.387 . S
C349 C351 1.387 . S
H350 C357 0.950 . S
C351 C349 1.387 . S
C351 C353 1.390 . S
C351 H355 0.950 . S
H352 C348 0.950 . S
C353 C351 1.390 . S
C353 C354 1.387 . S
C353 H356 0.950 . S
C354 C353 1.387 . S
C354 C357 1.387 . S
H355 C351 0.950 . S
H356 C353 0.950 . S
C357 C348 1.390 . S
C357 H350 0.950 . S
C357 C354 1.387 . S
C358 C359 1.387 . S
C358 H362 0.950 . S
C358 C367 1.390 . S
C359 C358 1.387 . S
C359 C361 1.387 . S
H360 C367 0.950 . S
C361 C359 1.387 . S
C361 C363 1.390 . S
C361 H365 0.950 . S
H362 C358 0.950 . S
C363 C361 1.390 . S
C363 C364 1.387 . S
C363 H366 0.950 . S
C364 C363 1.387 . S
C364 C367 1.387 . S
H365 C361 0.950 . S
H366 C363 0.950 . S
C367 C358 1.390 . S
C367 H360 0.950 . S
C367 C364 1.387 . S
C368 C369 1.387 . S
C368 H372 0.950 . S
C368 C377 1.390 . S
C369 C368 1.387 . S
C369 C371 1.387 . S
H370 C377 0.950 . S
C371 C369 1.387 . S
C371 C373 1.390 . S
C371 H375 0.950 . S
H372 C368 0.950 . S
C373 C371 1.390 . S
C373 C374 1.387 . S
C373 H376 0.950 . S
C374 C373 1.387 . S
C374 C377 1.387 . S
H375 C371 0.950 . S
H376 C373 0.950 . S
C377 C368 1.390 . S
C377 H370 0.950 . S
C377 C374 1.387 . S
C378 C379 1.387 . S
C378 H382 0.950 . S
C378 C387 1.390 . S
C379 C378 1.387 . S
C379 C381 1.387 . S
H380 C387 0.950 . S
C381 C379 1.387 . S
C381 C383 1.390 . S
C381 H385 0.950 . S
H382 C378 0.950 . S
C383 C381 1.390 . S
C383 C384 1.387 . S
C383 H386 0.950 . S
C384 C383 1.387 . S
C384 C387 1.387 . S
H385 C381 0.950 . S
H386 C383 0.950 . S
C387 C378 1.390 . S
C387 H380 0.950 . S
C387 C384 1.387 . S
C388 C389 1.387 . S
C388 H392 0.950 . S
C388 C397 1.390 . S
C389 C388 1.387 . S
C389 C391 1.387 . S
H390 C397 0.950 . S
C391 C389 1.387 . S
C391 C393 1.390 . S
C391 H395 0.950 . S
H392 C388 0.950 . S
C393 C391 1.390 . S
C393 C394 1.387 . S
C393 H396 0.950 . S
C394 C393 1.387 . S
C394 C397 1.387 . S
H395 C391 0.950 . S
H396 C393 0.950 . S
C397 C388 1.390 . S
C397 H390 0.950 . S
C397 C394 1.387 . S
C398 C399 1.387 . S
C398 H402 0.950 . S
C398 C407 1.390 . S
C399 C398 1.387 . S
C399 C401 1.387 . S
H400 C407 0.950 . S
C401 C399 1.387 . S
C401 C403 1.390 . S
C401 H405 0.950 . S
H402 C398 0.950 . S
C403 C401 1.390 . S
C403 C404 1.387 . S
C403 H406 0.950 . S
C404 C403 1.387 . S
C404 C407 1.387 . S
H405 C401 0.950 . S
H406 C403 0.950 . S
C407 C398 1.390 . S
C407 H400 0.950 . S
C407 C404 1.387 . S
C169 C13 1.361 . S
C174 C81 1.431 . S
C179 C25 1.339 . S
C184 C64 1.325 . S
C189 C83 1.372 . S
C194 C41 1.367 . S
C199 C53 1.370 . S
C204 C63 1.355 . S
C209 C105 1.422 . S
C214 C39 1.433 . S
C219 C92 1.468 . S
C224 C55 1.432 . S
C229 C11 1.421 . S
C234 C106 1.406 . S
C239 C91 1.463 . S
C244 C27 1.417 . S
C249 C133 1.346 . S
C254 C119 1.345 . S
C259 C120 1.270 . S
C264 C162 1.270 1_554 S
C269 C134 1.318 1_554 S
C274 C148 1.319 . S
C279 C147 1.351 . S
C284 C161 1.351 . S
C289 C167 1.382 . S
C294 C95 1.439 . S
C299 C123 1.231 . S
C304 C109 1.230 . S
C309 C97 1.426 . S
C314 C139 1.427 . S
C319 C111 1.275 . S
C324 C151 1.313 . S
C329 C69 1.315 . S
C334 C137 1.370 . S
C339 C78 1.533 . S
C344 C153 1.486 . S
C349 C165 1.304 . S
C354 C67 1.305 . S
C359 C125 1.433 . S
C364 C77 1.474 . S
C369 C21 1.437 . S
C374 C35 1.439 . S
C379 C8 1.369 . S
C384 C22 1.369 . S
C389 C36 1.437 . S
C394 C50 1.437 . S
C399 C7 1.443 . S
C404 C49 1.445 . S
