# Generated by pormake.
# Topology uoa, (4)-cn, num edge types: 1
# Building blocks:
#     Node 0, Type 0, BuildingBlock: NAWXER_clean_sbu_0, # of connection points: 4
#     Node 1, Type 0, BuildingBlock: NAWXER_clean_sbu_0, # of connection points: 4
#     Node 2, Type 0, BuildingBlock: NAWXER_clean_sbu_0, # of connection points: 4
#     Node 3, Type 0, BuildingBlock: NAWXER_clean_sbu_0, # of connection points: 4
#     Node 4, Type 0, BuildingBlock: NAWXER_clean_sbu_0, # of connection points: 4
#     Node 5, Type 0, BuildingBlock: NAWXER_clean_sbu_0, # of connection points: 4
#     Node 6, Type 0, BuildingBlock: NAWXER_clean_sbu_0, # of connection points: 4
#     Node 7, Type 0, BuildingBlock: NAWXER_clean_sbu_0, # of connection points: 4
#     Node 8, Type 0, BuildingBlock: NAWXER_clean_sbu_0, # of connection points: 4
#     Node 9, Type 0, BuildingBlock: NAWXER_clean_sbu_0, # of connection points: 4
#     Node 10, Type 0, BuildingBlock: NAWXER_clean_sbu_0, # of connection points: 4
#     Node 11, Type 0, BuildingBlock: NAWXER_clean_sbu_0, # of connection points: 4
#     Node 12, Type 0, BuildingBlock: NAWXER_clean_sbu_0, # of connection points: 4
#     Node 13, Type 0, BuildingBlock: NAWXER_clean_sbu_0, # of connection points: 4
#     Node 14, Type 0, BuildingBlock: NAWXER_clean_sbu_0, # of connection points: 4
#     Node 15, Type 0, BuildingBlock: NAWXER_clean_sbu_0, # of connection points: 4
#     Node 16, Type 0, BuildingBlock: NAWXER_clean_sbu_0, # of connection points: 4
#     Node 17, Type 0, BuildingBlock: NAWXER_clean_sbu_0, # of connection points: 4
#     Node 18, Type 0, BuildingBlock: NAWXER_clean_sbu_0, # of connection points: 4
#     Node 19, Type 0, BuildingBlock: NAWXER_clean_sbu_0, # of connection points: 4
#     Node 20, Type 0, BuildingBlock: NAWXER_clean_sbu_0, # of connection points: 4
#     Node 21, Type 0, BuildingBlock: NAWXER_clean_sbu_0, # of connection points: 4
#     Node 22, Type 0, BuildingBlock: NAWXER_clean_sbu_0, # of connection points: 4
#     Node 23, Type 0, BuildingBlock: NAWXER_clean_sbu_0, # of connection points: 4
#     Node 24, Type 0, BuildingBlock: NAWXER_clean_sbu_0, # of connection points: 4
#     Node 25, Type 0, BuildingBlock: NAWXER_clean_sbu_0, # of connection points: 4
#     Node 26, Type 0, BuildingBlock: NAWXER_clean_sbu_0, # of connection points: 4
#     Node 27, Type 0, BuildingBlock: NAWXER_clean_sbu_0, # of connection points: 4
#     Node 28, Type 0, BuildingBlock: NAWXER_clean_sbu_0, # of connection points: 4
#     Node 29, Type 0, BuildingBlock: NAWXER_clean_sbu_0, # of connection points: 4
#     Node 30, Type 0, BuildingBlock: NAWXER_clean_sbu_0, # of connection points: 4
#     Node 31, Type 0, BuildingBlock: NAWXER_clean_sbu_0, # of connection points: 4
#     Edge 32, Type (0, 0), BuildingBlock: XUDNAN_clean_linker_2, # of connection points: 2
#     Edge 33, Type (0, 0), BuildingBlock: XUDNAN_clean_linker_2, # of connection points: 2
#     Edge 34, Type (0, 0), BuildingBlock: XUDNAN_clean_linker_2, # of connection points: 2
#     Edge 35, Type (0, 0), BuildingBlock: XUDNAN_clean_linker_2, # of connection points: 2
#     Edge 36, Type (0, 0), BuildingBlock: XUDNAN_clean_linker_2, # of connection points: 2
#     Edge 37, Type (0, 0), BuildingBlock: XUDNAN_clean_linker_2, # of connection points: 2
#     Edge 38, Type (0, 0), BuildingBlock: XUDNAN_clean_linker_2, # of connection points: 2
#     Edge 39, Type (0, 0), BuildingBlock: XUDNAN_clean_linker_2, # of connection points: 2
#     Edge 40, Type (0, 0), BuildingBlock: XUDNAN_clean_linker_2, # of connection points: 2
#     Edge 41, Type (0, 0), BuildingBlock: XUDNAN_clean_linker_2, # of connection points: 2
#     Edge 42, Type (0, 0), BuildingBlock: XUDNAN_clean_linker_2, # of connection points: 2
#     Edge 43, Type (0, 0), BuildingBlock: XUDNAN_clean_linker_2, # of connection points: 2
#     Edge 44, Type (0, 0), BuildingBlock: XUDNAN_clean_linker_2, # of connection points: 2
#     Edge 45, Type (0, 0), BuildingBlock: XUDNAN_clean_linker_2, # of connection points: 2
#     Edge 46, Type (0, 0), BuildingBlock: XUDNAN_clean_linker_2, # of connection points: 2
#     Edge 47, Type (0, 0), BuildingBlock: XUDNAN_clean_linker_2, # of connection points: 2
#     Edge 48, Type (0, 0), BuildingBlock: XUDNAN_clean_linker_2, # of connection points: 2
#     Edge 49, Type (0, 0), BuildingBlock: XUDNAN_clean_linker_2, # of connection points: 2
#     Edge 50, Type (0, 0), BuildingBlock: XUDNAN_clean_linker_2, # of connection points: 2
#     Edge 51, Type (0, 0), BuildingBlock: XUDNAN_clean_linker_2, # of connection points: 2
#     Edge 52, Type (0, 0), BuildingBlock: XUDNAN_clean_linker_2, # of connection points: 2
#     Edge 53, Type (0, 0), BuildingBlock: XUDNAN_clean_linker_2, # of connection points: 2
#     Edge 54, Type (0, 0), BuildingBlock: XUDNAN_clean_linker_2, # of connection points: 2
#     Edge 55, Type (0, 0), BuildingBlock: XUDNAN_clean_linker_2, # of connection points: 2
#     Edge 56, Type (0, 0), BuildingBlock: XUDNAN_clean_linker_2, # of connection points: 2
#     Edge 57, Type (0, 0), BuildingBlock: XUDNAN_clean_linker_2, # of connection points: 2
#     Edge 58, Type (0, 0), BuildingBlock: XUDNAN_clean_linker_2, # of connection points: 2
#     Edge 59, Type (0, 0), BuildingBlock: XUDNAN_clean_linker_2, # of connection points: 2
#     Edge 60, Type (0, 0), BuildingBlock: XUDNAN_clean_linker_2, # of connection points: 2
#     Edge 61, Type (0, 0), BuildingBlock: XUDNAN_clean_linker_2, # of connection points: 2
#     Edge 62, Type (0, 0), BuildingBlock: XUDNAN_clean_linker_2, # of connection points: 2
#     Edge 63, Type (0, 0), BuildingBlock: XUDNAN_clean_linker_2, # of connection points: 2
#     Edge 64, Type (0, 0), BuildingBlock: XUDNAN_clean_linker_2, # of connection points: 2
#     Edge 65, Type (0, 0), BuildingBlock: XUDNAN_clean_linker_2, # of connection points: 2
#     Edge 66, Type (0, 0), BuildingBlock: XUDNAN_clean_linker_2, # of connection points: 2
#     Edge 67, Type (0, 0), BuildingBlock: XUDNAN_clean_linker_2, # of connection points: 2
#     Edge 68, Type (0, 0), BuildingBlock: XUDNAN_clean_linker_2, # of connection points: 2
#     Edge 69, Type (0, 0), BuildingBlock: XUDNAN_clean_linker_2, # of connection points: 2
#     Edge 70, Type (0, 0), BuildingBlock: XUDNAN_clean_linker_2, # of connection points: 2
#     Edge 71, Type (0, 0), BuildingBlock: XUDNAN_clean_linker_2, # of connection points: 2
#     Edge 72, Type (0, 0), BuildingBlock: XUDNAN_clean_linker_2, # of connection points: 2
#     Edge 73, Type (0, 0), BuildingBlock: XUDNAN_clean_linker_2, # of connection points: 2
#     Edge 74, Type (0, 0), BuildingBlock: XUDNAN_clean_linker_2, # of connection points: 2
#     Edge 75, Type (0, 0), BuildingBlock: XUDNAN_clean_linker_2, # of connection points: 2
#     Edge 76, Type (0, 0), BuildingBlock: XUDNAN_clean_linker_2, # of connection points: 2
#     Edge 77, Type (0, 0), BuildingBlock: XUDNAN_clean_linker_2, # of connection points: 2
#     Edge 78, Type (0, 0), BuildingBlock: XUDNAN_clean_linker_2, # of connection points: 2
#     Edge 79, Type (0, 0), BuildingBlock: XUDNAN_clean_linker_2, # of connection points: 2
#     Edge 80, Type (0, 0), BuildingBlock: XUDNAN_clean_linker_2, # of connection points: 2
#     Edge 81, Type (0, 0), BuildingBlock: XUDNAN_clean_linker_2, # of connection points: 2
#     Edge 82, Type (0, 0), BuildingBlock: XUDNAN_clean_linker_2, # of connection points: 2
#     Edge 83, Type (0, 0), BuildingBlock: XUDNAN_clean_linker_2, # of connection points: 2
#     Edge 84, Type (0, 0), BuildingBlock: XUDNAN_clean_linker_2, # of connection points: 2
#     Edge 85, Type (0, 0), BuildingBlock: XUDNAN_clean_linker_2, # of connection points: 2
#     Edge 86, Type (0, 0), BuildingBlock: XUDNAN_clean_linker_2, # of connection points: 2
#     Edge 87, Type (0, 0), BuildingBlock: XUDNAN_clean_linker_2, # of connection points: 2
#     Edge 88, Type (0, 0), BuildingBlock: XUDNAN_clean_linker_2, # of connection points: 2
#     Edge 89, Type (0, 0), BuildingBlock: XUDNAN_clean_linker_2, # of connection points: 2
#     Edge 90, Type (0, 0), BuildingBlock: XUDNAN_clean_linker_2, # of connection points: 2
#     Edge 91, Type (0, 0), BuildingBlock: XUDNAN_clean_linker_2, # of connection points: 2
#     Edge 92, Type (0, 0), BuildingBlock: XUDNAN_clean_linker_2, # of connection points: 2
#     Edge 93, Type (0, 0), BuildingBlock: XUDNAN_clean_linker_2, # of connection points: 2
#     Edge 94, Type (0, 0), BuildingBlock: XUDNAN_clean_linker_2, # of connection points: 2
#     Edge 95, Type (0, 0), BuildingBlock: XUDNAN_clean_linker_2, # of connection points: 2
# Relax obj value: 0.037
# Max RMSD: 0.224
# Mean RMSD: 0.224
data_MOF--net-uoa--node1-NAWXER_clean_sbu_0--edge1-XUDNAN_clean_linker_2
_symmetry_space_group_name_H-M    P1
_symmetry_Int_Tables_number       1
_symmetry_cell_setting            triclinic
loop_
_symmetry_equiv_pos_as_xyz
'x, y, z'
_cell_length_a     75.377097
_cell_length_b     75.343625
_cell_length_c     28.950489
_cell_angle_alpha  89.987652
_cell_angle_beta   89.988462
_cell_angle_gamma 90.018318
loop_
_atom_site_label
_atom_site_type_symbol
_atom_site_fract_x
_atom_site_fract_y
_atom_site_fract_z
_atom_type_partial_charge
C0 C 0.00976 0.08871 0.99568 0.0
C1 C 0.00324 0.09179 0.16265 0.0
O2 O 0.02423 0.0837 0.0152 0.0
Zn3 Zn 0.03341 0.082 0.08731 0.0
O4 O 0.99718 0.09461 0.02031 0.0
Zn5 Zn 0.00773 0.09084 0.07933 0.0
O6 O 0.02736 0.11177 0.08682 0.0
O7 O 0.05298 0.09787 0.09115 0.0
O8 O 0.99232 0.09496 0.13039 0.0
O9 O 0.01906 0.08679 0.15222 0.0
O10 O 0.03966 0.05751 0.09186 0.0
O11 O 0.01118 0.06209 0.07915 0.0
C12 C 0.0443 0.11226 0.09141 0.0
C13 C 0.02429 0.05135 0.08406 0.0
C14 C 0.19021 0.75966 0.30046 0.0
C15 C 0.13367 0.78873 0.32985 0.0
O16 O 0.17773 0.74875 0.31024 0.0
Zn17 Zn 0.15054 0.74946 0.33017 0.0
O18 O 0.18741 0.77625 0.30341 0.0
Zn19 Zn 0.16222 0.77458 0.31773 0.0
O20 O 0.16106 0.76683 0.38925 0.0
O21 O 0.15014 0.73968 0.3916 0.0
O22 O 0.1483 0.79603 0.31896 0.0
O23 O 0.13288 0.77181 0.33452 0.0
O24 O 0.14035 0.73557 0.28157 0.0
O25 O 0.15192 0.76089 0.25743 0.0
C26 C 0.15611 0.75322 0.41253 0.0
C27 C 0.14419 0.74607 0.24868 0.0
C28 C 0.4825 0.9095 0.65451 0.0
C29 C 0.49257 0.90274 0.49009 0.0
O30 O 0.46848 0.91278 0.63098 0.0
Zn31 Zn 0.46135 0.91429 0.55924 0.0
O32 O 0.49702 0.90644 0.63375 0.0
Zn33 Zn 0.48773 0.90712 0.57192 0.0
O34 O 0.48377 0.93509 0.55849 0.0
O35 O 0.45498 0.93859 0.54949 0.0
O36 O 0.5035 0.90052 0.52294 0.0
O37 O 0.47665 0.9077 0.49893 0.0
O38 O 0.44258 0.89746 0.55682 0.0
O39 O 0.46855 0.88542 0.57306 0.0
C40 C 0.47044 0.94521 0.55038 0.0
C41 C 0.45173 0.88386 0.56705 0.0
C42 C 0.30634 0.22811 0.77989 0.0
C43 C 0.36511 0.20755 0.82107 0.0
O44 O 0.31727 0.2412 0.78094 0.0
Zn45 Zn 0.3454 0.24428 0.79677 0.0
O46 O 0.31178 0.21271 0.79035 0.0
Zn47 Zn 0.33601 0.21859 0.80049 0.0
O48 O 0.33589 0.2331 0.86582 0.0
O49 O 0.34542 0.25992 0.84823 0.0
O50 O 0.35089 0.19897 0.81407 0.0
O51 O 0.36516 0.22448 0.81591 0.0
O52 O 0.35487 0.2541 0.74165 0.0
O53 O 0.34477 0.22691 0.732 0.0
C54 C 0.33993 0.24897 0.87823 0.0
C55 C 0.35183 0.24103 0.71527 0.0
C56 C 0.04436 0.87612 0.42575 0.0
C57 C 0.0114 0.93088 0.44931 0.0
O58 O 0.02809 0.87346 0.43665 0.0
Zn59 Zn 0.00497 0.88878 0.45261 0.0
O60 O 0.05029 0.89189 0.42357 0.0
Zn61 Zn 0.0283 0.90368 0.43873 0.0
O62 O 0.02445 0.8968 0.51033 0.0
O63 O 0.99911 0.88225 0.51538 0.0
O64 O 0.02784 0.92938 0.44054 0.0
O65 O 0.00183 0.91693 0.45397 0.0
O66 O 0.98925 0.88159 0.4035 0.0
O67 O 0.01211 0.89736 0.37904 0.0
C68 C 0.0127 0.88885 0.53482 0.0
C69 C 0.99778 0.88874 0.37048 0.0
C70 C 0.35961 0.75668 0.78251 0.0
C71 C 0.34517 0.75029 0.62012 0.0
O72 O 0.35209 0.77091 0.76781 0.0
Zn73 Zn 0.3423 0.77989 0.7004 0.0
O74 O 0.3626 0.74416 0.75437 0.0
Zn75 Zn 0.35214 0.7545 0.7011 0.0
O76 O 0.37121 0.77494 0.68057 0.0
O77 O 0.35627 0.79997 0.68642 0.0
O78 O 0.3514 0.73923 0.64883 0.0
O79 O 0.34118 0.76602 0.63382 0.0
O80 O 0.3183 0.78553 0.71313 0.0
O81 O 0.32413 0.75701 0.72024 0.0
C82 C 0.37052 0.79192 0.67652 0.0
C83 C 0.31313 0.77001 0.72316 0.0
C84 C 0.48294 0.10651 0.04401 0.0
C85 C 0.49671 0.10089 0.8804 0.0
O86 O 0.46975 0.10029 0.02118 0.0
Zn87 Zn 0.46458 0.09293 0.95034 0.0
O88 O 0.49733 0.11004 0.02316 0.0
Zn89 Zn 0.48981 0.10288 0.96244 0.0
O90 O 0.46942 0.12262 0.94402 0.0
O91 O 0.44483 0.10705 0.93555 0.0
O92 O 0.50687 0.10541 0.91332 0.0
O93 O 0.48078 0.09594 0.88929 0.0
O94 O 0.45956 0.06833 0.95394 0.0
O95 O 0.4874 0.07425 0.9708 0.0
C96 C 0.45274 0.1219 0.93456 0.0
C97 C 0.47473 0.06298 0.96652 0.0
C98 C 0.14524 0.24369 0.09778 0.0
C99 C 0.13489 0.2516 0.26197 0.0
O100 O 0.15122 0.23065 0.12159 0.0
Zn101 Zn 0.15338 0.22354 0.19319 0.0
O102 O 0.13857 0.25705 0.11809 0.0
Zn103 Zn 0.14031 0.24791 0.18 0.0
O104 O 0.16794 0.25011 0.19549 0.0
O105 O 0.17879 0.22321 0.20517 0.0
O106 O 0.13024 0.26175 0.22909 0.0
O107 O 0.1432 0.23712 0.25314 0.0
O108 O 0.14052 0.2015 0.19359 0.0
O109 O 0.12365 0.22466 0.17757 0.0
C110 C 0.18107 0.23992 0.20478 0.0
C111 C 0.12544 0.20784 0.18288 0.0
C112 C 0.9853 0.88648 0.03395 0.0
C113 C 0.0021 0.89449 0.87262 0.0
O114 O 0.99723 0.87843 0.01122 0.0
Zn115 Zn 0.99372 0.89073 0.95353 0.0
O116 O 0.97551 0.89809 0.01396 0.0
Zn117 Zn 0.97316 0.90897 0.94503 0.0
O118 O 0.9502 0.90218 0.92519 0.0
O119 O 0.9689 0.87963 0.92776 0.0
O120 O 0.98844 0.90374 0.88348 0.0
O121 O 0.01 0.88554 0.90355 0.0
O122 O 0.00015 0.91806 0.97168 0.0
O123 O 0.97625 0.93371 0.95537 0.0
C124 C 0.95349 0.8859 0.91816 0.0
C125 C 0.99201 0.93304 0.97058 0.0
C126 C 0.85708 0.22987 0.80428 0.0
C127 C 0.85795 0.24264 0.63983 0.0
O128 O 0.86478 0.24254 0.78341 0.0
Zn129 Zn 0.85673 0.23656 0.72229 0.0
O130 O 0.84752 0.21886 0.7814 0.0
Zn131 Zn 0.83965 0.21521 0.7103 0.0
O132 O 0.84778 0.19183 0.69971 0.0
O133 O 0.86967 0.21106 0.70917 0.0
O134 O 0.84834 0.229 0.64882 0.0
O135 O 0.86493 0.25132 0.67268 0.0
O136 O 0.82885 0.24285 0.72709 0.0
O137 O 0.81432 0.21819 0.71196 0.0
C138 C 0.86428 0.19513 0.70161 0.0
C139 C 0.81411 0.2345 0.72262 0.0
C140 C 0.49737 0.10666 0.3807 0.0
C141 C 0.512 0.10897 0.54462 0.0
O142 O 0.4886 0.11402 0.41292 0.0
Zn143 Zn 0.50451 0.10794 0.46257 0.0
O144 O 0.5117 0.09822 0.39027 0.0
Zn145 Zn 0.52732 0.0921 0.45073 0.0
O146 O 0.52575 0.06636 0.45532 0.0
O147 O 0.5004 0.07998 0.46879 0.0
O148 O 0.52346 0.10013 0.52131 0.0
O149 O 0.49886 0.11597 0.52411 0.0
O150 O 0.52821 0.12239 0.44426 0.0
O151 O 0.54975 0.10288 0.43497 0.0
C152 C 0.50937 0.06559 0.46562 0.0
C153 C 0.54443 0.11889 0.43429 0.0
C154 C 0.63177 0.80115 0.17029 0.0
C155 C 0.6917 0.78065 0.19224 0.0
O156 O 0.64618 0.80977 0.17342 0.0
Zn157 Zn 0.66126 0.79011 0.18106 0.0
O158 O 0.6319 0.78415 0.17524 0.0
Zn159 Zn 0.65259 0.7639 0.18702 0.0
O160 O 0.64653 0.75375 0.24655 0.0
O161 O 0.65498 0.78175 0.25049 0.0
O162 O 0.6809 0.7675 0.19443 0.0
O163 O 0.68579 0.79597 0.18308 0.0
O164 O 0.65711 0.77661 0.11629 0.0
O165 O 0.65021 0.74887 0.13272 0.0
C166 C 0.64967 0.76751 0.27054 0.0
C167 C 0.65295 0.76093 0.10296 0.0
C168 C 0.94742 0.10325 0.60564 0.0
C169 C 0.97241 0.04836 0.5529 0.0
O170 O 0.94036 0.08882 0.59299 0.0
Zn171 Zn 0.96106 0.07655 0.5779 0.0
O172 O 0.96433 0.1053 0.60209 0.0
Zn173 Zn 0.98627 0.0877 0.57992 0.0
O174 O 0.99632 0.09859 0.52441 0.0
O175 O 0.9694 0.08795 0.51385 0.0
O176 O 0.98504 0.05966 0.55853 0.0
O177 O 0.95663 0.0529 0.56185 0.0
O178 O 0.97431 0.07459 0.64346 0.0
O179 O 0.00061 0.08704 0.63638 0.0
C180 C 0.98325 0.09564 0.4978 0.0
C181 C 0.98916 0.07922 0.66143 0.0
C182 C 0.66058 0.23811 0.40339 0.0
C183 C 0.66074 0.2315 0.23574 0.0
O184 O 0.65822 0.25027 0.37363 0.0
Zn185 Zn 0.66186 0.23537 0.31944 0.0
O186 O 0.66516 0.22253 0.39027 0.0
Zn187 Zn 0.67049 0.20899 0.32663 0.0
O188 O 0.69521 0.20359 0.32808 0.0
O189 O 0.69033 0.23205 0.31649 0.0
O190 O 0.66579 0.21742 0.25688 0.0
O191 O 0.65689 0.2453 0.25892 0.0
O192 O 0.64105 0.21515 0.32802 0.0
O193 O 0.65481 0.18931 0.33229 0.0
C194 C 0.7012 0.21902 0.32033 0.0
C195 C 0.64048 0.19817 0.33294 0.0
C196 C 0.50602 0.90401 0.15398 0.0
C197 C 0.49753 0.89706 0.98872 0.0
O198 O 0.49261 0.89754 0.13339 0.0
Zn199 Zn 0.50141 0.90053 0.07146 0.0
O200 O 0.51894 0.91038 0.13042 0.0
Zn201 Zn 0.52603 0.91359 0.05925 0.0
O202 O 0.52666 0.93924 0.05078 0.0
O203 O 0.49974 0.92851 0.06122 0.0
O204 O 0.51213 0.90494 0.99859 0.0
O205 O 0.48733 0.89188 0.02098 0.0
O206 O 0.52423 0.88355 0.07109 0.0
O207 O 0.54777 0.90017 0.05714 0.0
C208 C 0.51001 0.94173 0.05339 0.0
C209 C 0.54105 0.88504 0.06583 0.0
C210 C 0.84188 0.77233 0.90901 0.0
C211 C 0.8428 0.76342 0.74279 0.0
O212 O 0.84488 0.75838 0.88588 0.0
Zn213 Zn 0.84137 0.76832 0.8255 0.0
O214 O 0.837 0.78651 0.88791 0.0
Zn215 Zn 0.83167 0.79361 0.81629 0.0
O216 O 0.80698 0.79863 0.8142 0.0
O217 O 0.81262 0.77003 0.81817 0.0
O218 O 0.83684 0.77894 0.75268 0.0
O219 O 0.84733 0.75303 0.77517 0.0
O220 O 0.86148 0.78959 0.82118 0.0
O221 O 0.84578 0.81381 0.80766 0.0
C222 C 0.80142 0.78279 0.81426 0.0
C223 C 0.86069 0.80641 0.81352 0.0
C224 C 0.51751 0.60337 0.48215 0.0
C225 C 0.50291 0.60208 0.6465 0.0
O226 O 0.5278 0.59293 0.50472 0.0
Zn227 Zn 0.53036 0.58399 0.57571 0.0
O228 O 0.50538 0.61177 0.50332 0.0
Zn229 Zn 0.51027 0.60244 0.56408 0.0
O230 O 0.53633 0.61363 0.58138 0.0
O231 O 0.5539 0.59044 0.59005 0.0
O232 O 0.49512 0.61023 0.61394 0.0
O233 O 0.51617 0.59202 0.63723 0.0
O234 O 0.52623 0.55897 0.57096 0.0
O235 O 0.50267 0.575 0.55427 0.0
C236 C 0.55174 0.60713 0.59035 0.0
C237 C 0.51021 0.55979 0.5578 0.0
C238 C 0.63367 0.29263 0.83751 0.0
C239 C 0.69313 0.27195 0.80469 0.0
O240 O 0.63358 0.27564 0.83364 0.0
Zn241 Zn 0.65377 0.25572 0.81791 0.0
O242 O 0.64808 0.30098 0.83158 0.0
Zn243 Zn 0.66308 0.28123 0.82085 0.0
O244 O 0.65562 0.27208 0.75144 0.0
O245 O 0.64529 0.24511 0.76312 0.0
O246 O 0.68733 0.28738 0.81335 0.0
O247 O 0.68229 0.25876 0.80501 0.0
O248 O 0.65298 0.24037 0.86952 0.0
O249 O 0.6627 0.26708 0.88725 0.0
C250 C 0.64881 0.25767 0.73554 0.0
C251 C 0.65848 0.25123 0.89963 0.0
C252 C 0.98392 0.40438 0.98591 0.0
C253 C 0.99704 0.40798 0.1512 0.0
O254 O 0.97035 0.40945 0.00933 0.0
Zn255 Zn 0.96426 0.4146 0.0817 0.0
O256 O 0.99817 0.40048 1.00696 0.0
Zn257 Zn 0.99004 0.40599 0.06858 0.0
O258 O 0.97096 0.38505 0.08434 0.0
O259 O 0.94535 0.39868 0.09427 0.0
O260 O 0.00718 0.40404 0.11774 0.0
O261 O 0.98082 0.41213 0.14286 0.0
O262 O 0.95779 0.43917 0.08042 0.0
O263 O 0.98577 0.43433 0.06227 0.0
C264 C 0.95427 0.38442 0.09352 0.0
C265 C 0.97271 0.4451 0.06734 0.0
C266 C 0.8451 0.74407 0.40675 0.0
C267 C 0.85557 0.74934 0.24082 0.0
O268 O 0.83717 0.73189 0.38368 0.0
Zn269 Zn 0.83414 0.72461 0.31188 0.0
O270 O 0.85415 0.75574 0.38555 0.0
Zn271 Zn 0.85087 0.74608 0.32416 0.0
O272 O 0.82326 0.75261 0.30996 0.0
O273 O 0.80937 0.72703 0.30199 0.0
O274 O 0.86267 0.75799 0.27361 0.0
O275 O 0.84504 0.73647 0.25029 0.0
O276 O 0.84231 0.70104 0.3109 0.0
O277 O 0.86347 0.71992 0.3296 0.0
C278 C 0.80897 0.74384 0.302 0.0
C279 C 0.85812 0.70385 0.32378 0.0
C280 C 0.51445 0.40109 0.02863 0.0
C281 C 0.50127 0.40369 0.86388 0.0
O282 O 0.52785 0.40666 1.00535 0.0
Zn283 Zn 0.53363 0.41192 0.933 0.0
O284 O 0.50032 0.39681 1.00756 0.0
Zn285 Zn 0.50834 0.40248 0.94625 0.0
O286 O 0.52834 0.38202 0.93152 0.0
O287 O 0.55312 0.39699 0.9208 0.0
O288 O 0.49127 0.3995 0.8974 0.0
O289 O 0.51729 0.40851 0.87208 0.0
O290 O 0.53929 0.43652 0.93284 0.0
O291 O 0.51144 0.43124 0.95129 0.0
C292 C 0.54505 0.38225 0.92232 0.0
C293 C 0.52423 0.44227 0.94523 0.0
C294 C 0.86109 0.24141 0.14121 0.0
C295 C 0.86765 0.25513 0.30455 0.0
O296 O 0.85345 0.25601 0.15231 0.0
Zn297 Zn 0.84901 0.27135 0.21397 0.0
O298 O 0.86867 0.23214 0.1721 0.0
Zn299 Zn 0.86434 0.24803 0.22303 0.0
O300 O 0.83654 0.24486 0.23449 0.0
O301 O 0.82341 0.27055 0.22228 0.0
O302 O 0.87361 0.24175 0.28283 0.0
O303 O 0.85867 0.26698 0.28302 0.0
O304 O 0.85995 0.29352 0.19771 0.0
O305 O 0.87913 0.27149 0.20384 0.0
C306 C 0.8224 0.25428 0.2335 0.0
C307 C 0.87581 0.28786 0.19504 0.0
C308 C 0.94495 0.6151 0.42772 0.0
C309 C 0.9852 0.56556 0.4423 0.0
O310 O 0.96103 0.62056 0.42321 0.0
Zn311 Zn 0.98716 0.60786 0.42664 0.0
O312 O 0.94206 0.59892 0.43706 0.0
Zn313 Zn 0.96568 0.59085 0.43508 0.0
O314 O 0.97702 0.60067 0.49888 0.0
O315 O 0.99878 0.61861 0.4785 0.0
O316 O 0.9684 0.56573 0.44114 0.0
O317 O 0.99379 0.58014 0.43707 0.0
O318 O 0.99724 0.61277 0.36696 0.0
O319 O 0.97308 0.59622 0.36406 0.0
C320 C 0.98984 0.61103 0.50999 0.0
C321 C 0.98554 0.60472 0.34346 0.0
C322 C 0.64663 0.74673 0.60633 0.0
C323 C 0.63932 0.73833 0.77135 0.0
O324 O 0.6566 0.73391 0.61997 0.0
Zn325 Zn 0.66171 0.7213 0.68694 0.0
O326 O 0.63678 0.75454 0.63533 0.0
Zn327 Zn 0.64285 0.74096 0.68839 0.0
O328 O 0.67007 0.74937 0.70356 0.0
O329 O 0.68638 0.72525 0.69604 0.0
O330 O 0.63076 0.74788 0.74303 0.0
O331 O 0.65117 0.72759 0.75589 0.0
O332 O 0.65573 0.69717 0.67752 0.0
O333 O 0.63234 0.71458 0.67418 0.0
C334 C 0.68527 0.74165 0.70543 0.0
C335 C 0.63921 0.69901 0.67144 0.0
C336 C 0.48094 0.39961 0.52842 0.0
C337 C 0.49454 0.40476 0.36434 0.0
O338 O 0.49496 0.39529 0.50694 0.0
Zn339 Zn 0.48725 0.40219 0.44618 0.0
O340 O 0.46769 0.40584 0.50571 0.0
Zn341 Zn 0.46212 0.41234 0.43404 0.0
O342 O 0.44242 0.39795 0.41962 0.0
O343 O 0.46702 0.38245 0.42761 0.0
O344 O 0.47858 0.4097 0.37293 0.0
O345 O 0.50444 0.39986 0.3974 0.0
O346 O 0.48468 0.43086 0.45432 0.0
O347 O 0.45694 0.43703 0.43665 0.0
C348 C 0.45034 0.38313 0.41827 0.0
C349 C 0.47213 0.44225 0.44958 0.0
C350 C 0.30802 0.72529 0.18963 0.0
C351 C 0.36483 0.69626 0.19359 0.0
O352 O 0.31239 0.70939 0.18149 0.0
Zn353 Zn 0.33715 0.71168 0.1895 0.0
O354 O 0.32017 0.73689 0.19712 0.0
Zn355 Zn 0.34907 0.73634 0.19956 0.0
O356 O 0.35628 0.75051 0.14627 0.0
O357 O 0.34645 0.72391 0.12741 0.0
O358 O 0.36715 0.71315 0.19717 0.0
O359 O 0.34931 0.69 0.18936 0.0
O360 O 0.34023 0.71954 0.26048 0.0
O361 O 0.3532 0.74577 0.26137 0.0
C362 C 0.35327 0.73882 0.11571 0.0
C363 C 0.34648 0.73274 0.28318 0.0
C364 C 0.05036 0.6086 0.9252 0.0
C365 C 0.00808 0.56147 0.94739 0.0
O366 O 0.05235 0.59254 0.93701 0.0
Zn367 Zn 0.02838 0.58592 0.93629 0.0
O368 O 0.03459 0.61491 0.92046 0.0
Zn369 Zn 0.00772 0.60347 0.92651 0.0
O370 O 0.99692 0.61595 0.97669 0.0
O371 O 0.01782 0.59743 0.99933 0.0
O372 O -0.00021 0.57618 0.94125 0.0
O373 O 0.02484 0.56123 0.94476 0.0
O374 O 0.02123 0.59066 0.86467 0.0
O375 O 0.99758 0.60789 0.86666 0.0
C376 C 0.00557 0.60865 0.00911 0.0
C377 C 0.00903 0.59934 0.84356 0.0
C378 C 0.13326 0.30247 0.69133 0.0
C379 C 0.18654 0.26631 0.69025 0.0
O380 O 0.14927 0.3071 0.69784 0.0
Zn381 Zn 0.15966 0.28436 0.68933 0.0
O382 O 0.12949 0.28612 0.68353 0.0
Zn383 Zn 0.14442 0.26144 0.67871 0.0
O384 O 0.13554 0.24763 0.72942 0.0
O385 O 0.15116 0.27096 0.75118 0.0
O386 O 0.17252 0.25692 0.68451 0.0
O387 O 0.18518 0.28305 0.69311 0.0
O388 O 0.15334 0.27869 0.61801 0.0
O389 O 0.13891 0.25317 0.61793 0.0
C390 C 0.14212 0.25709 0.76141 0.0
C391 C 0.14535 0.26625 0.59599 0.0
C392 C 0.50299 0.60094 0.14519 0.0
C393 C 0.48695 0.60751 0.98267 0.0
O394 O 0.5112 0.60931 0.1137 0.0
Zn395 Zn 0.49479 0.60417 0.06409 0.0
O396 O 0.48891 0.59219 0.13501 0.0
Zn397 Zn 0.47338 0.587 0.07358 0.0
O398 O 0.47551 0.56187 0.06468 0.0
O399 O 0.50016 0.57648 0.04974 0.0
O400 O 0.47605 0.59733 1.0041 0.0
O401 O 0.49966 0.61464 1.00462 0.0
O402 O 0.47025 0.61677 0.08824 0.0
O403 O 0.45079 0.59491 0.09274 0.0
C404 C 0.49152 0.56181 0.0512 0.0
C405 C 0.4546 0.61116 0.09833 0.0
C406 C 0.15418 0.72997 0.91456 0.0
C407 C 0.14991 0.73648 0.74816 0.0
O408 O 0.14681 0.74227 0.89159 0.0
Zn409 Zn 0.15244 0.73311 0.83143 0.0
O410 O 0.16275 0.71769 0.89342 0.0
Zn411 Zn 0.16885 0.71111 0.82235 0.0
O412 O 0.1941 0.71334 0.81814 0.0
O413 O 0.18041 0.73904 0.82462 0.0
O414 O 0.15974 0.72324 0.75911 0.0
O415 O 0.14263 0.74562 0.77972 0.0
O416 O 0.13894 0.70743 0.83136 0.0
O417 O 0.15998 0.68771 0.81812 0.0
C418 C 0.1948 0.73014 0.81953 0.0
C419 C 0.1438 0.69119 0.82618 0.0
C420 C 0.04907 0.39362 0.60368 0.0
C421 C 0.02484 0.45004 0.55972 0.0
O422 O 0.05621 0.40865 0.59793 0.0
Zn423 Zn 0.03586 0.42109 0.58006 0.0
O424 O 0.03258 0.39141 0.59364 0.0
Zn425 Zn 0.0115 0.40946 0.56894 0.0
O426 O 0.00461 0.40066 0.50893 0.0
O427 O 0.0311 0.41296 0.50904 0.0
O428 O 0.01269 0.43812 0.5562 0.0
O429 O 0.04003 0.44569 0.57439 0.0
O430 O 0.01926 0.41875 0.64141 0.0
O431 O 0.99399 0.40739 0.61727 0.0
C432 C 0.01833 0.40554 0.48694 0.0
C433 C 0.00352 0.41316 0.65015 0.0
C434 C 0.34175 0.26436 0.21543 0.0
C435 C 0.34277 0.2557 0.38239 0.0
O436 O 0.34608 0.25037 0.2372 0.0
Zn437 Zn 0.34105 0.25936 0.29874 0.0
O438 O 0.33639 0.27799 0.23796 0.0
Zn439 Zn 0.33174 0.28529 0.30835 0.0
O440 O 0.34671 0.30523 0.31497 0.0
O441 O 0.36146 0.28002 0.30854 0.0
O442 O 0.3377 0.27127 0.37063 0.0
O443 O 0.34533 0.24394 0.35168 0.0
O444 O 0.31238 0.26198 0.29627 0.0
O445 O 0.30701 0.29014 0.31071 0.0
C446 C 0.36138 0.29695 0.3147 0.0
C447 C 0.30128 0.27475 0.30135 0.0
H448 H 0.01539 0.09321 0.71848 0.0
H449 H 0.96889 0.05911 0.71873 0.0
H450 H 0.97067 0.05667 0.80311 0.0
H451 H 0.03855 0.07035 0.81565 0.0
H452 H 0.04711 0.09079 0.83912 0.0
H453 H 0.04337 0.08875 0.77784 0.0
H454 H 0.02333 0.11663 0.77993 0.0
H455 H 0.02689 0.11869 0.84119 0.0
H456 H 0.00463 0.11722 0.81876 0.0
H457 H 0.97499 0.06026 0.8866 0.0
H458 H 0.98306 0.06819 0.96644 0.0
H459 H 0.02771 0.09889 0.9159 0.0
C460 C 0.00584 0.08492 0.73625 0.0
C461 C 0.99199 0.07634 0.71171 0.0
C462 C 0.97961 0.06584 0.73646 0.0
C463 C 0.9805 0.06433 0.78454 0.0
C464 C 0.99397 0.07327 0.80774 0.0
C465 C 0.00658 0.0832 0.78467 0.0
C466 C 0.01917 0.09201 0.81882 0.0
C467 C 0.03818 0.08506 0.81247 0.0
C468 C 0.01845 0.11234 0.8144 0.0
C469 C 0.01133 0.08582 0.86451 0.0
C470 C 0.99679 0.075 0.85693 0.0
C471 C 0.9865 0.06848 0.89306 0.0
C472 C 0.99112 0.07313 0.93822 0.0
C473 C 0.006 0.08404 0.94714 0.0
C474 C 0.0164 0.09032 0.90987 0.0
H475 H 0.15093 0.75755 0.97566 0.0
H476 H 0.15197 0.70009 0.96687 0.0
H477 H 0.14658 0.69806 0.05093 0.0
H478 H 0.1749 0.7599 0.08218 0.0
H479 H 0.16275 0.77878 0.10362 0.0
H480 H 0.16533 0.77561 0.04237 0.0
H481 H 0.13116 0.77675 0.03248 0.0
H482 H 0.12849 0.77971 0.09386 0.0
H483 H 0.11742 0.76164 0.06496 0.0
H484 H 0.14092 0.70226 0.13551 0.0
H485 H 0.13971 0.71226 0.21664 0.0
H486 H 0.14437 0.76698 0.17122 0.0
C487 C 0.14992 0.74457 0.99151 0.0
C488 C 0.15176 0.72897 0.96498 0.0
C489 C 0.15067 0.71219 0.9868 0.0
C490 C 0.14746 0.71091 0.03437 0.0
C491 C 0.14562 0.72653 0.05961 0.0
C492 C 0.14712 0.74305 0.03914 0.0
C493 C 0.14601 0.75774 0.07472 0.0
C494 C 0.16328 0.76864 0.07578 0.0
C495 C 0.1298 0.76966 0.06597 0.0
C496 C 0.14374 0.7469 0.11837 0.0
C497 C 0.14319 0.72895 0.10877 0.0
C498 C 0.14134 0.71628 0.14351 0.0
C499 C 0.14055 0.7221 0.18945 0.0
C500 C 0.14194 0.74038 0.20021 0.0
C501 C 0.14323 0.75291 0.16404 0.0
H502 H 0.47906 0.90122 0.21734 0.0
H503 H 0.53634 0.90507 0.20489 0.0
H504 H 0.53922 0.90313 0.28958 0.0
H505 H 0.47575 0.92857 0.31773 0.0
H506 H 0.45795 0.91594 0.34323 0.0
H507 H 0.46047 0.91656 0.28142 0.0
H508 H 0.46174 0.88217 0.27951 0.0
H509 H 0.45934 0.88147 0.3414 0.0
H510 H 0.47796 0.87071 0.31418 0.0
H511 H 0.53597 0.90084 0.37533 0.0
H512 H 0.52656 0.9012 0.45707 0.0
H513 H 0.47142 0.90012 0.41374 0.0
C514 C 0.4922 0.90155 0.23249 0.0
C515 C 0.50747 0.90324 0.20468 0.0
C516 C 0.52444 0.90387 0.22567 0.0
C517 C 0.52624 0.90265 0.27368 0.0
C518 C 0.51093 0.90097 0.30017 0.0
C519 C 0.49422 0.90062 0.28044 0.0
C520 C 0.47989 0.89974 0.31696 0.0
C521 C 0.46781 0.91618 0.3147 0.0
C522 C 0.4691 0.88249 0.31275 0.0
C523 C 0.49116 0.89977 0.36021 0.0
C524 C 0.50903 0.90023 0.34976 0.0
C525 C 0.52201 0.90048 0.38402 0.0
C526 C 0.51655 0.90062 0.43029 0.0
C527 C 0.49828 0.90073 0.44168 0.0
C528 C 0.48548 0.90008 0.40608 0.0
H529 H 0.33159 0.23062 0.44582 0.0
H530 H 0.36693 0.27541 0.42637 0.0
H531 H 0.37591 0.27376 0.50809 0.0
H532 H 0.3157 0.24437 0.55341 0.0
H533 H 0.31401 0.22257 0.57873 0.0
H534 H 0.31233 0.22521 0.51712 0.0
H535 H 0.33807 0.20287 0.5056 0.0
H536 H 0.33981 0.20015 0.56732 0.0
H537 H 0.35898 0.20666 0.53417 0.0
H538 H 0.37877 0.26973 0.59168 0.0
H539 H 0.37472 0.26411 0.67473 0.0
H540 H 0.33709 0.22217 0.64326 0.0
C541 C 0.34155 0.2397 0.45878 0.0
C542 C 0.34879 0.25301 0.4301 0.0
C543 C 0.36138 0.26508 0.44808 0.0
C544 C 0.36661 0.26419 0.49429 0.0
C545 C 0.35904 0.2512 0.52217 0.0
C546 C 0.34676 0.23916 0.50538 0.0
C547 C 0.33937 0.2278 0.54426 0.0
C548 C 0.31916 0.23014 0.54863 0.0
C549 C 0.34436 0.20821 0.53742 0.0
C550 C 0.34905 0.23573 0.58539 0.0
C551 C 0.36051 0.24902 0.57153 0.0
C552 C 0.37005 0.25919 0.60304 0.0
C553 C 0.3676 0.25594 0.65015 0.0
C554 C 0.35568 0.24265 0.66542 0.0
C555 C 0.34655 0.23219 0.63253 0.0
H556 H 0.98078 0.89619 0.79682 0.0
H557 H 0.03563 0.88944 0.83831 0.0
H558 H 0.04443 0.88693 0.75601 0.0
H559 H 0.98221 0.86405 0.70487 0.0
H560 H 0.96738 0.87636 0.668 0.0
H561 H 0.96563 0.87837 0.72983 0.0
H562 H 0.96925 0.91248 0.72333 0.0
H563 H 0.97095 0.91059 0.66149 0.0
H564 H 0.98827 0.92149 0.6937 0.0
H565 H 0.0472 0.88674 0.66867 0.0
H566 H 0.04354 0.88643 0.58367 0.0
H567 H 0.98651 0.89043 0.60021 0.0
C568 C 0.99467 0.89435 0.78853 0.0
C569 C 0.0076 0.89327 0.82373 0.0
C570 C 0.02557 0.89041 0.81172 0.0
C571 C 0.03066 0.88898 0.76515 0.0
C572 C 0.01755 0.89006 0.73122 0.0
C573 C -0.00011 0.89246 0.74242 0.0
C574 C 0.98829 0.89246 0.69969 0.0
C575 C 0.9751 0.87688 0.70067 0.0
C576 C 0.97863 0.91032 0.69424 0.0
C577 C 0.00219 0.88993 0.66251 0.0
C578 C 0.01901 0.88877 0.68134 0.0
C579 C 0.03408 0.88739 0.65362 0.0
C580 C 0.03188 0.88724 0.60545 0.0
C581 C 0.01475 0.88813 0.58556 0.0
C582 C -0.00026 0.88934 0.61457 0.0
H583 H 0.34724 0.77565 0.85772 0.0
H584 H 0.38103 0.73136 0.81947 0.0
H585 H 0.38534 0.72414 0.9015 0.0
H586 H 0.37174 0.78774 0.96584 0.0
H587 H 0.35159 0.79301 0.99643 0.0
H588 H 0.35283 0.79625 0.9348 0.0
H589 H 0.3251 0.77638 0.92398 0.0
H590 H 0.32382 0.77299 0.98542 0.0
H591 H 0.32513 0.75417 0.94715 0.0
H592 H 0.38284 0.71897 0.98527 0.0
H593 H 0.37487 0.71721 0.06787 0.0
H594 H 0.34379 0.76534 0.05497 0.0
C595 C 0.35593 0.76475 0.86672 0.0
C596 C 0.36384 0.75411 0.83207 0.0
C597 C 0.37482 0.73971 0.84527 0.0
C598 C 0.3774 0.73551 0.89185 0.0
C599 C 0.36905 0.7459 0.92508 0.0
C600 C 0.35867 0.76034 0.91336 0.0
C601 C 0.35025 0.76849 0.95608 0.0
C602 C 0.35701 0.7875 0.96374 0.0
C603 C 0.32987 0.76797 0.95295 0.0
C604 C 0.35709 0.75602 0.99328 0.0
C605 C 0.36797 0.74315 0.97442 0.0
C606 C 0.37468 0.72919 1.00069 0.0
C607 C 0.37005 0.72826 0.04743 0.0
C608 C 0.35903 0.7413 0.06759 0.0
C609 C 0.35265 0.75551 0.04042 0.0
H610 H 0.50979 0.10497 0.10733 0.0
H611 H 0.45292 0.1123 0.09476 0.0
H612 H 0.45042 0.11434 0.17984 0.0
H613 H 0.50756 0.07663 0.20506 0.0
H614 H 0.52749 0.08511 0.23149 0.0
H615 H 0.52499 0.0858 0.16968 0.0
H616 H 0.53052 0.11976 0.17034 0.0
H617 H 0.53311 0.11916 0.23217 0.0
H618 H 0.51698 0.13378 0.20643 0.0
H619 H 0.45425 0.11539 0.26669 0.0
H620 H 0.46384 0.11345 0.34838 0.0
H621 H 0.51781 0.10334 0.30338 0.0
C622 C 0.49686 0.1073 0.12248 0.0
C623 C 0.48157 0.1087 0.09458 0.0
C624 C 0.46481 0.11128 0.11563 0.0
C625 C 0.46327 0.11249 0.16385 0.0
C626 C 0.47859 0.11085 0.19046 0.0
C627 C 0.49504 0.10817 0.17051 0.0
C628 C 0.50927 0.10569 0.20682 0.0
C629 C 0.51782 0.08721 0.20302 0.0
C630 C 0.5233 0.12048 0.20375 0.0
C631 C 0.49827 0.10737 0.25031 0.0
C632 C 0.48064 0.11056 0.24024 0.0
C633 C 0.46801 0.11283 0.27498 0.0
C634 C 0.47357 0.11173 0.32121 0.0
C635 C 0.49151 0.1081 0.33213 0.0
C636 C 0.50395 0.10592 0.29609 0.0
H637 H 0.14247 0.23914 0.53382 0.0
H638 H 0.14236 0.29654 0.54511 0.0
H639 H 0.13675 0.29898 0.46115 0.0
H640 H 0.16617 0.23781 0.42721 0.0
H641 H 0.1543 0.21882 0.40535 0.0
H642 H 0.15696 0.22173 0.46664 0.0
H643 H 0.12283 0.21994 0.47706 0.0
H644 H 0.12007 0.21721 0.41565 0.0
H645 H 0.10875 0.23494 0.4453 0.0
H646 H 0.13112 0.29507 0.37605 0.0
H647 H 0.12997 0.28531 0.29459 0.0
H648 H 0.13553 0.23055 0.33875 0.0
C649 C 0.14115 0.2522 0.51858 0.0
C650 C 0.14273 0.26766 0.54573 0.0
C651 C 0.14125 0.28455 0.52467 0.0
C652 C 0.13791 0.28606 0.47718 0.0
C653 C 0.13633 0.27054 0.45133 0.0
C654 C 0.13818 0.25394 0.47114 0.0
C655 C 0.13725 0.2394 0.4352 0.0
C656 C 0.15471 0.22883 0.4335 0.0
C657 C 0.12127 0.22715 0.44383 0.0
C658 C 0.13469 0.25041 0.39202 0.0
C659 C 0.13385 0.26832 0.40211 0.0
C660 C 0.13175 0.28108 0.3677 0.0
C661 C 0.131 0.27541 0.32159 0.0
C662 C 0.13266 0.25719 0.31045 0.0
C663 C 0.1342 0.24456 0.34627 0.0
H664 H 0.00517 0.91007 0.29644 0.0
H665 H 0.97762 0.86174 0.33505 0.0
H666 H 0.97052 0.85614 0.25287 0.0
H667 H 0.97412 0.92272 0.20417 0.0
H668 H 0.99149 0.93171 0.16833 0.0
H669 H 0.99368 0.93216 0.2303 0.0
H670 H 0.02366 0.91553 0.22383 0.0
H671 H 0.02151 0.91492 0.16194 0.0
H672 H 0.02456 0.89459 0.19378 0.0
H673 H 0.96905 0.85444 0.16533 0.0
H674 H 0.97074 0.85846 0.0802 0.0
H675 H 0.99736 0.90883 0.09989 0.0
C676 C 0.99748 0.89841 0.28764 0.0
C677 C 0.99198 0.8863 0.32205 0.0
C678 C 0.98187 0.87124 0.30923 0.0
C679 C 0.97784 0.86792 0.26265 0.0
C680 C 0.98372 0.87998 0.22944 0.0
C681 C 0.99305 0.89509 0.24148 0.0
C682 C 0.99785 0.90597 0.19929 0.0
C683 C 0.98874 0.92422 0.20061 0.0
C684 C 0.0181 0.90785 0.19445 0.0
C685 C 0.9902 0.89439 0.1615 0.0
C686 C 0.98216 0.8794 0.17949 0.0
C687 C 0.97504 0.86627 0.15093 0.0
C688 C 0.97609 0.8686 0.10282 0.0
C689 C 0.98399 0.884 0.08412 0.0
C690 C 0.99104 0.89705 0.11374 0.0
H691 H 0.86053 0.26279 0.0654 0.0
H692 H 0.86258 0.20753 0.10713 0.0
H693 H 0.86229 0.19842 0.02488 0.0
H694 H 0.83197 0.25779 0.96846 0.0
H695 H 0.84349 0.27384 0.93335 0.0
H696 H 0.84377 0.27586 0.99531 0.0
H697 H 0.87816 0.27594 0.99446 0.0
H698 H 0.87799 0.27392 0.93246 0.0
H699 H 0.88986 0.25794 0.96698 0.0
H700 H 0.8596 0.19552 0.93816 0.0
H701 H 0.85755 0.19901 0.85329 0.0
H702 H 0.85993 0.25621 0.8687 0.0
C703 C 0.86089 0.24876 0.05719 0.0
C704 C 0.8614 0.23582 0.09242 0.0
C705 C 0.86217 0.21762 0.0805 0.0
C706 C 0.86197 0.21235 0.03398 0.0
C707 C 0.86137 0.22547 1.00002 0.0
C708 C 0.86111 0.24331 0.01107 0.0
C709 C 0.86092 0.2548 0.96818 0.0
C710 C 0.84403 0.26624 0.96623 0.0
C711 C 0.87774 0.26632 0.96536 0.0
C712 C 0.86083 0.24065 0.93114 0.0
C713 C 0.86091 0.22381 0.95019 0.0
C714 C 0.8598 0.20863 0.92285 0.0
C715 C 0.85858 0.21073 0.8748 0.0
C716 C 0.85882 0.22785 0.85468 0.0
C717 C 0.86009 0.24296 0.88324 0.0
H718 H 0.47616 0.10395 0.80303 0.0
H719 H 0.53094 0.10129 0.84854 0.0
H720 H 0.54096 0.10422 0.76748 0.0
H721 H 0.48125 0.07947 0.69796 0.0
H722 H 0.46605 0.09318 0.66579 0.0
H723 H 0.46336 0.09068 0.72723 0.0
H724 H 0.46454 0.12485 0.73698 0.0
H725 H 0.46736 0.12746 0.67556 0.0
H726 H 0.48331 0.13699 0.71477 0.0
H727 H 0.54483 0.10595 0.681 0.0
H728 H 0.54233 0.10751 0.5959 0.0
H729 H 0.48509 0.11117 0.60776 0.0
C730 C 0.49027 0.10387 0.79593 0.0
C731 C 0.5028 0.10223 0.83198 0.0
C732 C 0.52114 0.10248 0.82139 0.0
C733 C 0.52694 0.10415 0.7755 0.0
C734 C 0.51422 0.10583 0.74079 0.0
C735 C 0.49628 0.10584 0.75051 0.0
C736 C 0.48533 0.1081 0.70704 0.0
C737 C 0.47329 0.09189 0.69904 0.0
C738 C 0.4745 0.12538 0.7087 0.0
C739 C 0.49991 0.10913 0.67118 0.0
C740 C 0.51649 0.1077 0.69132 0.0
C741 C 0.53194 0.10731 0.66492 0.0
C742 C 0.5304 0.1082 0.61668 0.0
C743 C 0.51355 0.10972 0.59542 0.0
C744 C 0.49816 0.11043 0.62317 0.0
H745 H 0.65425 0.72749 0.52737 0.0
H746 H 0.63874 0.77978 0.57554 0.0
H747 H 0.63771 0.79049 0.49519 0.0
H748 H 0.68162 0.74197 0.43139 0.0
H749 H 0.67446 0.72446 0.3933 0.0
H750 H 0.67467 0.72091 0.45484 0.0
H751 H 0.64142 0.71227 0.4523 0.0
H752 H 0.64109 0.71587 0.39078 0.0
H753 H 0.62561 0.72746 0.42741 0.0
H754 H 0.63907 0.79594 0.41069 0.0
H755 H 0.64133 0.79544 0.32566 0.0
H756 H 0.65389 0.73926 0.33011 0.0
C757 C 0.65079 0.74121 0.52089 0.0
C758 C 0.64667 0.75284 0.55772 0.0
C759 C 0.64192 0.77064 0.54788 0.0
C760 C 0.64133 0.77686 0.50236 0.0
C761 C 0.64528 0.76508 0.46682 0.0
C762 C 0.6498 0.7476 0.47533 0.0
C763 C 0.65285 0.73766 0.43038 0.0
C764 C 0.67204 0.73085 0.42731 0.0
C765 C 0.63944 0.72241 0.42491 0.0
C766 C 0.64943 0.75233 0.3955 0.0
C767 C 0.64525 0.76806 0.41746 0.0
C768 C 0.64219 0.78368 0.39301 0.0
C769 C 0.64352 0.78327 0.34477 0.0
C770 C 0.6476 0.7673 0.32134 0.0
C771 C 0.65045 0.75159 0.34711 0.0
H772 H 0.01206 0.09297 0.43959 0.0
H773 H 0.95599 0.1058 0.44284 0.0
H774 H 0.95567 0.10776 0.35779 0.0
H775 H 0.02391 0.12063 0.33733 0.0
H776 H 0.0391 0.10424 0.3151 0.0
H777 H 0.03558 0.10614 0.37649 0.0
H778 H 0.02722 0.07283 0.37999 0.0
H779 H 0.03048 0.07087 0.31859 0.0
H780 H 0.00955 0.06459 0.34391 0.0
H781 H 0.96053 0.10594 0.27335 0.0
H782 H 0.97036 0.10111 0.19341 0.0
H783 H 0.02332 0.08841 0.24259 0.0
C784 C -0.00011 0.09675 0.42234 0.0
C785 C 0.98409 0.09954 0.44776 0.0
C786 C 0.96825 0.1038 0.424 0.0
C787 C 0.96794 0.10493 0.37572 0.0
C788 C 0.98356 0.1016 0.35153 0.0
C789 C -0.00071 0.09767 0.37385 0.0
C790 C 0.0138 0.09334 0.33914 0.0
C791 C 0.029 0.1069 0.3422 0.0
C792 C 0.02066 0.07428 0.34582 0.0
C793 C 0.00368 0.0952 0.29402 0.0
C794 C 0.9863 0.10012 0.30218 0.0
C795 C 0.97415 0.10224 0.26645 0.0
C796 C 0.97989 0.0994 0.22106 0.0
C797 C 0.99764 0.09437 0.21145 0.0
C798 C 0.00968 0.09225 0.24865 0.0
H799 H 0.65948 0.26019 0.17612 0.0
H800 H 0.66024 0.20255 0.17984 0.0
H801 H 0.66014 0.20171 0.09493 0.0
H802 H 0.63082 0.26454 0.07586 0.0
H803 H 0.64263 0.28332 0.05254 0.0
H804 H 0.64228 0.27958 0.114 0.0
H805 H 0.67664 0.27975 0.11532 0.0
H806 H 0.6771 0.28337 0.05382 0.0
H807 H 0.68868 0.2647 0.07842 0.0
H808 H 0.65994 0.20668 0.01082 0.0
H809 H 0.65957 0.21725 0.9305 0.0
H810 H 0.65984 0.27184 0.97878 0.0
C811 C 0.65947 0.24741 0.15899 0.0
C812 C 0.65983 0.23142 0.18468 0.0
C813 C 0.66001 0.21497 0.161 0.0
C814 C 0.65995 0.21434 0.11273 0.0
C815 C 0.65981 0.23027 0.08847 0.0
C816 C 0.65958 0.24652 0.11055 0.0
C817 C 0.65977 0.26161 0.07571 0.0
C818 C 0.64287 0.27293 0.07978 0.0
C819 C 0.67655 0.27303 0.08116 0.0
C820 C 0.66009 0.25124 0.03075 0.0
C821 C 0.66006 0.23319 0.0392 0.0
C822 C 0.65999 0.22078 1.00367 0.0
C823 C 0.65977 0.22694 0.95813 0.0
C824 C 0.65972 0.24537 0.94831 0.0
C825 C 0.66005 0.25768 0.98522 0.0
H826 H 0.50966 0.90956 0.71767 0.0
H827 H 0.45246 0.90464 0.70545 0.0
H828 H 0.45028 0.89891 0.78913 0.0
H829 H 0.51602 0.87576 0.80354 0.0
H830 H 0.53284 0.88789 0.83453 0.0
H831 H 0.53006 0.89129 0.77336 0.0
H832 H 0.52581 0.92505 0.78672 0.0
H833 H 0.52883 0.92178 0.84781 0.0
H834 H 0.50909 0.93257 0.82672 0.0
H835 H 0.45437 0.89297 0.87378 0.0
H836 H 0.46411 0.89094 0.95513 0.0
H837 H 0.51843 0.90079 0.91228 0.0
C838 C 0.49668 0.90733 0.73265 0.0
C839 C 0.48124 0.90753 0.7051 0.0
C840 C 0.46447 0.90467 0.72598 0.0
C841 C 0.4631 0.90125 0.7734 0.0
C842 C 0.4786 0.9009 0.79949 0.0
C843 C 0.49504 0.90412 0.78003 0.0
C844 C 0.50955 0.90373 0.81612 0.0
C845 C 0.5229 0.88877 0.80628 0.0
C846 C 0.51886 0.92186 0.81954 0.0
C847 C 0.49868 0.89982 0.85886 0.0
C848 C 0.48089 0.89799 0.84847 0.0
C849 C 0.46826 0.89441 0.88241 0.0
C850 C 0.47393 0.89318 0.92844 0.0
C851 C 0.492 0.89573 0.93997 0.0
C852 C 0.50452 0.89879 0.90452 0.0
H853 H 0.84524 0.78366 0.66378 0.0
H854 H 0.84193 0.72926 0.7124 0.0
H855 H 0.84191 0.71861 0.63184 0.0
H856 H 0.81761 0.77879 0.56375 0.0
H857 H 0.83094 0.79295 0.52747 0.0
H858 H 0.83049 0.79647 0.58901 0.0
H859 H 0.86473 0.79372 0.59209 0.0
H860 H 0.86529 0.79026 0.53054 0.0
H861 H 0.87527 0.77421 0.5687 0.0
H862 H 0.84059 0.71388 0.54666 0.0
H863 H 0.84108 0.71509 0.4615 0.0
H864 H 0.84754 0.77229 0.46702 0.0
C865 C 0.84453 0.76952 0.65737 0.0
C866 C 0.84352 0.75727 0.69431 0.0
C867 C 0.84278 0.73886 0.68464 0.0
C868 C 0.84269 0.73269 0.639 0.0
C869 C 0.84361 0.74507 0.60338 0.0
C870 C 0.84478 0.76308 0.61191 0.0
C871 C 0.84619 0.77347 0.56716 0.0
C872 C 0.83036 0.78617 0.56153 0.0
C873 C 0.86393 0.78351 0.56447 0.0
C874 C 0.84544 0.75849 0.53221 0.0
C875 C 0.84375 0.74225 0.55396 0.0
C876 C 0.84209 0.7265 0.5292 0.0
C877 C 0.8423 0.72733 0.48087 0.0
C878 C 0.84443 0.74375 0.45776 0.0
C879 C 0.84608 0.75953 0.48385 0.0
H880 H 0.48233 0.60078 0.22256 0.0
H881 H 0.53707 0.6037 0.17715 0.0
H882 H 0.54693 0.6052 0.25876 0.0
H883 H 0.48722 0.63231 0.31591 0.0
H884 H 0.47192 0.62086 0.35337 0.0
H885 H 0.46933 0.61946 0.29162 0.0
H886 H 0.47041 0.58513 0.29629 0.0
H887 H 0.47295 0.58642 0.35804 0.0
H888 H 0.48902 0.5745 0.32393 0.0
H889 H 0.55068 0.6043 0.34589 0.0
H890 H 0.54797 0.60391 0.43122 0.0
H891 H 0.49068 0.60475 0.41894 0.0
C892 C 0.4964 0.60164 0.22987 0.0
C893 C 0.509 0.6019 0.19373 0.0
C894 C 0.52725 0.60342 0.20445 0.0
C895 C 0.53294 0.60425 0.25064 0.0
C896 C 0.52017 0.60396 0.28553 0.0
C897 C 0.50226 0.60295 0.27562 0.0
C898 C 0.49118 0.60349 0.31927 0.0
C899 C 0.47921 0.62002 0.32008 0.0
C900 C 0.48025 0.58637 0.32469 0.0
C901 C 0.50565 0.60469 0.35543 0.0
C902 C 0.5223 0.60473 0.33533 0.0
C903 C 0.53772 0.60458 0.36194 0.0
C904 C 0.53607 0.60434 0.41028 0.0
C905 C 0.51915 0.60465 0.43143 0.0
C906 C 0.50378 0.60498 0.40357 0.0
H907 H 0.67044 0.26451 0.46491 0.0
H908 H 0.63863 0.21686 0.45055 0.0
H909 H 0.62954 0.21912 0.53205 0.0
H910 H 0.68708 0.25356 0.5756 0.0
H911 H 0.68711 0.2759 0.59786 0.0
H912 H 0.6894 0.27213 0.53676 0.0
H913 H 0.66232 0.29244 0.52128 0.0
H914 H 0.65992 0.29622 0.58246 0.0
H915 H 0.6415 0.28776 0.54943 0.0
H916 H 0.62529 0.22494 0.6143 0.0
H917 H 0.62779 0.23267 0.69639 0.0
H918 H 0.66337 0.27604 0.66171 0.0
C919 C 0.66132 0.25482 0.479 0.0
C920 C 0.65507 0.24058 0.45169 0.0
C921 C 0.64351 0.22783 0.47116 0.0
C922 C 0.63818 0.22908 0.51723 0.0
C923 C 0.64469 0.24307 0.54361 0.0
C924 C 0.65612 0.25565 0.52561 0.0
C925 C 0.66242 0.26825 0.56321 0.0
C926 C 0.6827 0.2674 0.56867 0.0
C927 C 0.65616 0.2873 0.55351 0.0
C928 C 0.65301 0.26049 0.60505 0.0
C929 C 0.64263 0.24617 0.59246 0.0
C930 C 0.63326 0.23621 0.62468 0.0
C931 C 0.63481 0.24069 0.67129 0.0
C932 C 0.64576 0.25496 0.68554 0.0
C933 C 0.65471 0.26523 0.65181 0.0
H934 H 0.02314 0.41362 0.73011 0.0
H935 H 0.96907 0.41036 0.67935 0.0
H936 H 0.95818 0.40742 0.75955 0.0
H937 H 0.01807 0.38105 0.81923 0.0
H938 H 0.03229 0.39234 0.85976 0.0
H939 H 0.0358 0.39504 0.79862 0.0
H940 H 0.03319 0.42917 0.8073 0.0
H941 H 0.02981 0.42659 0.86852 0.0
H942 H 0.01377 0.43851 0.83433 0.0
H943 H 0.95315 0.40522 0.84563 0.0
H944 H 0.95444 0.40323 0.93082 0.0
H945 H 0.01189 0.40623 0.92517 0.0
C946 C 0.00899 0.4125 0.73589 0.0
C947 C 0.99693 0.41239 0.69843 0.0
C948 C 0.97854 0.41055 0.70747 0.0
C949 C 0.97223 0.40887 0.75292 0.0
C950 C 0.98448 0.40884 0.789 0.0
C951 C 0.00248 0.41055 0.781 0.0
C952 C 0.01288 0.40959 0.82578 0.0
C953 C 0.0255 0.39355 0.82583 0.0
C954 C 0.023 0.427 0.83449 0.0
C955 C 0.99793 0.40714 0.86024 0.0
C956 C 0.98164 0.40686 0.83835 0.0
C957 C 0.96584 0.40531 0.8631 0.0
C958 C 0.9667 0.40417 0.91148 0.0
C959 C 0.98325 0.40438 0.93467 0.0
C960 C 0.99904 0.40573 0.90846 0.0
H961 H 0.84819 0.73058 0.16194 0.0
H962 H 0.86649 0.78195 0.21021 0.0
H963 H 0.86519 0.79346 0.13034 0.0
H964 H 0.87266 0.7315 0.0517 0.0
H965 H 0.85508 0.72034 0.02105 0.0
H966 H 0.85847 0.71603 0.08162 0.0
H967 H 0.82574 0.7245 0.09781 0.0
H968 H 0.82231 0.72911 0.03745 0.0
H969 H 0.81766 0.74595 0.07996 0.0
H970 H 0.85873 0.8002 0.04637 0.0
H971 H 0.85163 0.80049 0.96287 0.0
H972 H 0.83933 0.7443 0.96883 0.0
C973 C 0.85224 0.74416 0.1556 0.0
C974 C 0.85746 0.75536 0.19234 0.0
C975 C 0.8626 0.77307 0.1826 0.0
C976 C 0.86179 0.77976 0.13737 0.0
C977 C 0.85609 0.7685 0.10215 0.0
C978 C 0.85178 0.75097 0.1106 0.0
C979 C 0.846 0.74165 0.06672 0.0
C980 C 0.85882 0.72649 0.05456 0.0
C981 C 0.82679 0.73491 0.07075 0.0
C982 C 0.84741 0.75677 0.03241 0.0
C983 C 0.85309 0.7722 0.05358 0.0
C984 C 0.85452 0.78813 0.02931 0.0
C985 C 0.85033 0.78821 0.98203 0.0
C986 C 0.84502 0.77241 0.95944 0.0
C987 C 0.84353 0.75653 0.98513 0.0
H988 H 0.48651 0.40098 0.08928 0.0
H989 H 0.54404 0.40058 0.08346 0.0
H990 H 0.54526 0.40115 0.16881 0.0
H991 H 0.48323 0.43151 0.18319 0.0
H992 H 0.46419 0.42089 0.20882 0.0
H993 H 0.46781 0.41943 0.14745 0.0
H994 H 0.46685 0.38509 0.15224 0.0
H995 H 0.46313 0.38645 0.2136 0.0
H996 H 0.48151 0.37371 0.19154 0.0
H997 H 0.54013 0.40166 0.25501 0.0
H998 H 0.52909 0.40317 0.33532 0.0
H999 H 0.47495 0.40486 0.28446 0.0
C1000 C 0.49937 0.40079 0.10596 0.0
C1001 C 0.5152 0.40057 0.07974 0.0
C1002 C 0.53175 0.40069 0.10287 0.0
C1003 C 0.53258 0.401 0.15132 0.0
C1004 C 0.51673 0.40139 0.17612 0.0
C1005 C 0.50043 0.40137 0.15423 0.0
C1006 C 0.48538 0.40255 0.18881 0.0
C1007 C 0.47452 0.41961 0.18163 0.0
C1008 C 0.47352 0.38596 0.1864 0.0
C1009 C 0.49574 0.40319 0.2336 0.0
C1010 C 0.51379 0.40236 0.22557 0.0
C1011 C 0.52602 0.40238 0.26168 0.0
C1012 C 0.51962 0.40324 0.30718 0.0
C1013 C 0.50117 0.40426 0.31618 0.0
C1014 C 0.48914 0.4043 0.27873 0.0
H1015 H 0.86563 0.22833 0.36756 0.0
H1016 H 0.87297 0.28518 0.35487 0.0
H1017 H 0.87308 0.28799 0.44008 0.0
H1018 H 0.83469 0.23102 0.45798 0.0
H1019 H 0.84205 0.21126 0.48738 0.0
H1020 H 0.84502 0.21331 0.42592 0.0
H1021 H 0.87877 0.20775 0.43514 0.0
H1022 H 0.87589 0.20553 0.49666 0.0
H1023 H 0.89145 0.22147 0.47402 0.0
H1024 H 0.87139 0.28464 0.52645 0.0
H1025 H 0.86618 0.27572 0.60758 0.0
H1026 H 0.85729 0.22145 0.56319 0.0
C1027 C 0.86775 0.24127 0.38287 0.0
C1028 C 0.86967 0.25651 0.35498 0.0
C1029 C 0.87171 0.27335 0.37592 0.0
C1030 C 0.87179 0.27505 0.42416 0.0
C1031 C 0.86952 0.25981 0.4508 0.0
C1032 C 0.86741 0.24325 0.43092 0.0
C1033 C 0.86354 0.22925 0.46708 0.0
C1034 C 0.84524 0.22072 0.4591 0.0
C1035 C 0.87829 0.21517 0.46829 0.0
C1036 C 0.86367 0.24053 0.51034 0.0
C1037 C 0.86743 0.25806 0.50031 0.0
C1038 C 0.86841 0.27095 0.53473 0.0
C1039 C 0.86544 0.26578 0.58064 0.0
C1040 C 0.8612 0.24795 0.59149 0.0
C1041 C 0.86031 0.23521 0.55579 0.0
H1042 H 0.98083 0.59986 0.7837 0.0
H1043 H 0.03825 0.60278 0.78967 0.0
H1044 H 0.03931 0.60817 0.70544 0.0
H1045 H 0.97956 0.57568 0.67536 0.0
H1046 H 0.95969 0.58655 0.65543 0.0
H1047 H 0.96348 0.58374 0.7164 0.0
H1048 H 0.95982 0.61764 0.72825 0.0
H1049 H 0.95626 0.62058 0.66719 0.0
H1050 H 0.97363 0.63274 0.69596 0.0
H1051 H 0.03402 0.61482 0.62179 0.0
H1052 H 0.02331 0.61708 0.54144 0.0
H1053 H 0.96953 0.60695 0.58809 0.0
C1054 C 0.99359 0.60159 0.76708 0.0
C1055 C 0.00947 0.60099 0.79289 0.0
C1056 C 0.02597 0.60309 0.77023 0.0
C1057 C 0.02668 0.60631 0.72258 0.0
C1058 C 0.01079 0.60702 0.69808 0.0
C1059 C 0.99458 0.6043 0.71927 0.0
C1060 C 0.97959 0.6046 0.68437 0.0
C1061 C 0.97002 0.58657 0.6828 0.0
C1062 C 0.96656 0.61979 0.69457 0.0
C1063 C 0.98991 0.60802 0.64032 0.0
C1064 C 0.00784 0.60974 0.64922 0.0
C1065 C 0.02003 0.61336 0.61431 0.0
C1066 C 0.0138 0.61476 0.56885 0.0
C1067 C 0.99561 0.61218 0.55863 0.0
C1068 C 0.98351 0.60895 0.59497 0.0
H1069 H 0.66588 0.73641 0.04008 0.0
H1070 H 0.62855 0.77971 0.05683 0.0
H1071 H 0.61899 0.77625 0.97585 0.0
H1072 H 0.67969 0.74939 0.92677 0.0
H1073 H 0.68237 0.72711 0.90524 0.0
H1074 H 0.68507 0.73157 0.96592 0.0
H1075 H 0.66125 0.70787 0.98489 0.0
H1076 H 0.65841 0.70343 0.92416 0.0
H1077 H 0.63956 0.70955 0.95901 0.0
H1078 H 0.61379 0.76888 0.89416 0.0
H1079 H 0.61555 0.7605 0.81236 0.0
H1080 H 0.65772 0.72314 0.8443 0.0
C1081 C 0.65557 0.74496 0.02656 0.0
C1082 C 0.64778 0.75823 0.05445 0.0
C1083 C 0.6346 0.76948 0.03575 0.0
C1084 C 0.62902 0.76753 0.98999 0.0
C1085 C 0.63694 0.75443 0.96312 0.0
C1086 C 0.65011 0.74348 0.98026 0.0
C1087 C 0.65744 0.7316 0.94234 0.0
C1088 C 0.67732 0.73514 0.93461 0.0
C1089 C 0.65395 0.71194 0.95326 0.0
C1090 C 0.64644 0.73776 0.90135 0.0
C1091 C 0.63449 0.75069 0.9146 0.0
C1092 C 0.62307 0.75876 0.88326 0.0
C1093 C 0.62418 0.75386 0.83676 0.0
C1094 C 0.63679 0.74117 0.82167 0.0
C1095 C 0.64785 0.73278 0.8547 0.0
H1096 H 0.52079 0.40327 0.78379 0.0
H1097 H 0.46671 0.40159 0.83517 0.0
H1098 H 0.45559 0.39962 0.75504 0.0
H1099 H 0.51226 0.42955 0.68284 0.0
H1100 H 0.52774 0.41757 0.64704 0.0
H1101 H 0.53135 0.419 0.70841 0.0
H1102 H 0.53257 0.38468 0.71339 0.0
H1103 H 0.52888 0.38314 0.65205 0.0
H1104 H 0.51428 0.37176 0.6915 0.0
H1105 H 0.45033 0.39899 0.66892 0.0
H1106 H 0.45143 0.39867 0.58352 0.0
H1107 H 0.50896 0.39912 0.58874 0.0
C1108 C 0.5066 0.40256 0.77821 0.0
C1109 C 0.49461 0.40268 0.81577 0.0
C1110 C 0.47615 0.40152 0.80696 0.0
C1111 C 0.4697 0.40041 0.76156 0.0
C1112 C 0.48188 0.40026 0.72534 0.0
C1113 C 0.49995 0.4012 0.73316 0.0
C1114 C 0.51023 0.40057 0.68821 0.0
C1115 C 0.52103 0.41769 0.68122 0.0
C1116 C 0.52219 0.38405 0.68618 0.0
C1117 C 0.49513 0.39928 0.65384 0.0
C1118 C 0.47888 0.39922 0.67592 0.0
C1119 C 0.46299 0.39886 0.65128 0.0
C1120 C 0.46374 0.39869 0.60281 0.0
C1121 C 0.48026 0.39866 0.5795 0.0
C1122 C 0.49612 0.3988 0.60555 0.0
H1123 H 0.34968 0.76083 0.34449 0.0
H1124 H 0.34122 0.70386 0.33762 0.0
H1125 H 0.33892 0.70263 0.42228 0.0
H1126 H 0.376 0.76087 0.4486 0.0
H1127 H 0.36633 0.78093 0.47132 0.0
H1128 H 0.36742 0.77751 0.40982 0.0
H1129 H 0.33346 0.78223 0.40399 0.0
H1130 H 0.33225 0.78556 0.46555 0.0
H1131 H 0.3188 0.76873 0.43847 0.0
H1132 H 0.33846 0.70702 0.50686 0.0
H1133 H 0.33951 0.71697 0.58787 0.0
H1134 H 0.34686 0.77136 0.54217 0.0
C1135 C 0.34742 0.74811 0.36089 0.0
C1136 C 0.34567 0.73243 0.33433 0.0
C1137 C 0.34256 0.71606 0.35709 0.0
C1138 C 0.34123 0.71521 0.40523 0.0
C1139 C 0.34287 0.73086 0.43035 0.0
C1140 C 0.34584 0.74703 0.40919 0.0
C1141 C 0.34695 0.76181 0.44479 0.0
C1142 C 0.36527 0.7708 0.44355 0.0
C1143 C 0.33197 0.77538 0.43777 0.0
C1144 C 0.34434 0.75133 0.48912 0.0
C1145 C 0.34205 0.73349 0.47975 0.0
C1146 C 0.3401 0.72096 0.51471 0.0
C1147 C 0.34073 0.72675 0.5606 0.0
C1148 C 0.34311 0.74493 0.57128 0.0
C1149 C 0.34471 0.75741 0.53497 0.0
H1150 H 0.02554 0.60426 0.08781 0.0
H1151 H 0.97291 0.61854 0.03968 0.0
H1152 H 0.96223 0.6193 0.12017 0.0
H1153 H 0.01264 0.57625 0.17911 0.0
H1154 H 0.02954 0.58347 0.21893 0.0
H1155 H 0.03344 0.58473 0.15766 0.0
H1156 H 0.04023 0.61834 0.16452 0.0
H1157 H 0.03657 0.61715 0.22595 0.0
H1158 H 0.02423 0.63279 0.19149 0.0
H1159 H 0.95642 0.61506 0.20444 0.0
H1160 H 0.95692 0.61082 0.28917 0.0
H1161 H 0.01377 0.60222 0.28412 0.0
C1162 C 0.01184 0.60781 0.09435 0.0
C1163 C 4e-05 0.61133 0.05756 0.0
C1164 C 0.98222 0.61593 0.06737 0.0
C1165 C 0.97599 0.61629 0.11295 0.0
C1166 C 0.98785 0.61239 0.14838 0.0
C1167 C 0.0055 0.60866 0.1398 0.0
C1168 C 0.01547 0.60516 0.18437 0.0
C1169 C 0.02323 0.58628 0.18503 0.0
C1170 C 0.02998 0.6192 0.19203 0.0
C1171 C 0.00056 0.60712 0.21916 0.0
C1172 C 0.9847 0.61106 0.19752 0.0
C1173 C 0.96881 0.61231 0.22191 0.0
C1174 C 0.96919 0.60975 0.26984 0.0
C1175 C 0.98539 0.60635 0.29283 0.0
C1176 C 0.00127 0.60506 0.26721 0.0
H1177 H 0.14401 0.2784 0.83751 0.0
H1178 H 0.13668 0.22365 0.79503 0.0
H1179 H 0.13678 0.2143 0.87691 0.0
H1180 H 0.17304 0.27049 0.93102 0.0
H1181 H 0.16359 0.28721 0.96812 0.0
H1182 H 0.16243 0.28973 0.90634 0.0
H1183 H 0.12822 0.29271 0.9109 0.0
H1184 H 0.12928 0.29041 0.97277 0.0
H1185 H 0.11547 0.27568 0.93939 0.0
H1186 H 0.14029 0.21073 0.96246 0.0
H1187 H 0.14305 0.21343 0.04713 0.0
H1188 H 0.14598 0.27074 0.0343 0.0
C1189 C 0.14227 0.26446 0.84551 0.0
C1190 C 0.14041 0.25171 0.81011 0.0
C1191 C 0.13804 0.23362 0.82176 0.0
C1192 C 0.13817 0.22819 0.86807 0.0
C1193 C 0.14037 0.24107 0.90213 0.0
C1194 C 0.14203 0.25886 0.89151 0.0
C1195 C 0.14397 0.27005 0.93467 0.0
C1196 C 0.16182 0.27995 0.93504 0.0
C1197 C 0.1283 0.28297 0.93972 0.0
C1198 C 0.14343 0.25571 0.97125 0.0
C1199 C 0.14155 0.23908 0.95168 0.0
C1200 C 0.14155 0.22369 0.97825 0.0
C1201 C 0.14325 0.22535 0.02622 0.0
C1202 C 0.14467 0.2423 0.04707 0.0
C1203 C 0.14476 0.25765 0.01918 0.0
H1204 H 0.5232 0.60083 0.72477 0.0
H1205 H 0.46923 0.6087 0.67717 0.0
H1206 H 0.45919 0.61197 0.75819 0.0
H1207 H 0.51337 0.5762 0.82679 0.0
H1208 H 0.53034 0.58666 0.86117 0.0
H1209 H 0.53311 0.58479 0.79959 0.0
H1210 H 0.53762 0.61882 0.79383 0.0
H1211 H 0.53481 0.6208 0.85541 0.0
H1212 H 0.52095 0.6335 0.81692 0.0
H1213 H 0.45483 0.61193 0.84514 0.0
H1214 H 0.45695 0.6113 0.93062 0.0
H1215 H 0.51412 0.60666 0.92066 0.0
C1216 C 0.50926 0.60321 0.73147 0.0
C1217 C 0.49693 0.60434 0.69484 0.0
C1218 C 0.47887 0.60777 0.70482 0.0
C1219 C 0.47305 0.60962 0.75068 0.0
C1220 C 0.48555 0.60841 0.78608 0.0
C1221 C 0.50332 0.60555 0.77693 0.0
C1222 C 0.51413 0.60523 0.82105 0.0
C1223 C 0.52327 0.58714 0.82752 0.0
C1224 C 0.52767 0.6205 0.82184 0.0
C1225 C 0.49964 0.60806 0.85656 0.0
C1226 C 0.4832 0.60967 0.83576 0.0
C1227 C 0.46766 0.61104 0.86174 0.0
C1228 C 0.46897 0.61067 0.91016 0.0
C1229 C 0.48571 0.60936 0.932 0.0
C1230 C 0.50121 0.60822 0.90476 0.0
H1231 H 0.15824 0.72565 0.47446 0.0
H1232 H 0.15232 0.78284 0.46516 0.0
H1233 H 0.14865 0.78451 0.54977 0.0
H1234 H 0.12714 0.71808 0.56577 0.0
H1235 H 0.14036 0.70144 0.59432 0.0
H1236 H 0.14227 0.70455 0.53282 0.0
H1237 H 0.17614 0.70959 0.54103 0.0
H1238 H 0.17436 0.70629 0.60247 0.0
H1239 H 0.18417 0.72637 0.5802 0.0
H1240 H 0.14394 0.77984 0.63447 0.0
H1241 H 0.14296 0.76971 0.71556 0.0
H1242 H 0.15418 0.71588 0.67089 0.0
C1243 C 0.15626 0.73851 0.49036 0.0
C1244 C 0.15553 0.75412 0.46339 0.0
C1245 C 0.15306 0.77074 0.4853 0.0
C1246 C 0.15081 0.77181 0.53325 0.0
C1247 C 0.15137 0.75617 0.55883 0.0
C1248 C 0.15439 0.73988 0.53835 0.0
C1249 C 0.15518 0.72522 0.57413 0.0
C1250 C 0.14035 0.71152 0.56627 0.0
C1251 C 0.17356 0.71635 0.57447 0.0
C1252 C 0.15201 0.73582 0.61781 0.0
C1253 C 0.14956 0.7536 0.60809 0.0
C1254 C 0.14599 0.76597 0.64261 0.0
C1255 C 0.14534 0.76007 0.68849 0.0
C1256 C 0.14854 0.74204 0.69942 0.0
C1257 C 0.15176 0.72976 0.6635 0.0
H1258 H 0.9777 0.4067 0.2318 0.0
H1259 H 0.03168 0.40763 0.17967 0.0
H1260 H 0.04306 0.40619 0.25961 0.0
H1261 H 0.98521 0.43332 0.33288 0.0
H1262 H 0.97042 0.42059 0.36889 0.0
H1263 H 0.96659 0.42187 0.30759 0.0
H1264 H 0.967 0.38753 0.3026 0.0
H1265 H 0.97093 0.38616 0.36387 0.0
H1266 H 0.98595 0.37551 0.32413 0.0
H1267 H 0.04857 0.40585 0.34577 0.0
H1268 H 0.04771 0.40567 0.43121 0.0
H1269 H 0.99023 0.40321 0.427 0.0
C1270 C 0.99191 0.40668 0.2372 0.0
C1271 C 0.0038 0.40738 0.19939 0.0
C1272 C 0.02231 0.40711 0.208 0.0
C1273 C 0.0289 0.4063 0.25333 0.0
C1274 C 0.01684 0.40554 0.28978 0.0
C1275 C 0.99873 0.40562 0.28221 0.0
C1276 C 0.98862 0.40448 0.32741 0.0
C1277 C 0.97703 0.42105 0.33461 0.0
C1278 C 0.97747 0.3874 0.32962 0.0
C1279 C 0.00385 0.40391 0.3616 0.0
C1280 C 0.02003 0.40463 0.33921 0.0
C1281 C 0.03598 0.40509 0.36363 0.0
C1282 C 0.03537 0.40498 0.41215 0.0
C1283 C 0.01894 0.40419 0.43581 0.0
C1284 C 0.00302 0.40346 0.40997 0.0
H1285 H 0.34235 0.23657 0.15318 0.0
H1286 H 0.34201 0.29411 0.16241 0.0
H1287 H 0.34102 0.29617 0.07763 0.0
H1288 H 0.36961 0.23348 0.04978 0.0
H1289 H 0.35733 0.21508 0.02609 0.0
H1290 H 0.35864 0.218 0.08775 0.0
H1291 H 0.32432 0.21798 0.09259 0.0
H1292 H 0.3229 0.21521 0.0309 0.0
H1293 H 0.31183 0.23359 0.0584 0.0
H1294 H 0.33996 0.29233 0.99281 0.0
H1295 H 0.3392 0.28273 0.91153 0.0
H1296 H 0.33922 0.22762 0.95558 0.0
C1297 C 0.34226 0.24958 0.13726 0.0
C1298 C 0.3423 0.26519 0.16442 0.0
C1299 C 0.34195 0.28197 0.14236 0.0
C1300 C 0.34139 0.2833 0.0942 0.0
C1301 C 0.34107 0.26771 0.06846 0.0
C1302 C 0.34152 0.25116 0.08901 0.0
C1303 C 0.3407 0.23657 0.05294 0.0
C1304 C 0.35758 0.22511 0.05422 0.0
C1305 C 0.32394 0.22517 0.05909 0.0
C1306 C 0.33977 0.24755 0.00907 0.0
C1307 C 0.34005 0.26548 0.019 0.0
C1308 C 0.33969 0.27833 0.9845 0.0
C1309 C 0.33925 0.27274 0.93844 0.0
C1310 C 0.33906 0.25444 0.92722 0.0
C1311 C 0.33913 0.2417 0.96312 0.0
H1312 H 0.99564 0.03476 0.04521 0.0
H1313 H 0.04795 0.02464 0.10211 0.0
H1314 H 0.04541 0.99311 0.0797 0.0
H1315 H 0.97563 0.99242 0.07779 0.0
H1316 H 0.96295 0.99096 0.02515 0.0
H1317 H 0.9685 0.01236 0.04879 0.0
H1318 H 0.98308 0.02118 0.97095 0.0
H1319 H 0.97776 -0.00027 0.94727 0.0
H1320 H 0.0004 0.00744 0.94723 0.0
H1321 H 0.03767 0.96292 0.04766 0.0
H1322 H 0.02477 0.93617 0.01129 0.0
H1323 H 0.97789 0.96649 0.97423 0.0
C1324 C 0.00642 0.02585 0.05384 0.0
C1325 C 0.02194 0.03213 0.07573 0.0
C1326 C 0.0359 0.0201 0.08554 0.0
C1327 C 0.03459 0.00218 0.07288 0.0
C1328 C 0.01928 0.99652 0.05032 0.0
C1329 C 0.0054 0.00798 0.04115 0.0
C1330 C 0.99067 0.99875 0.01502 0.0
C1331 C 0.97342 0.99861 0.04339 0.0
C1332 C 0.98782 0.00729 0.9673 0.0
C1333 C 0.99846 0.98031 0.01077 0.0
C1334 C 0.01495 0.97927 0.03137 0.0
C1335 C 0.02473 0.96356 0.03154 0.0
C1336 C 0.01734 0.94847 0.01062 0.0
C1337 C 0.00035 0.94922 0.98979 0.0
C1338 C 0.99092 0.96544 0.98972 0.0
H1339 H 0.22374 0.77485 0.29789 0.0
H1340 H 0.19354 0.72861 0.25475 0.0
H1341 H 0.21981 0.71671 0.2155 0.0
H1342 H 0.25144 0.77858 0.19476 0.0
H1343 H 0.27125 0.78432 0.22625 0.0
H1344 H 0.24978 0.79021 0.24901 0.0
H1345 H 0.25691 0.77359 0.32515 0.0
H1346 H 0.27845 0.76785 0.30281 0.0
H1347 H 0.26369 0.75066 0.32286 0.0
H1348 H 0.24862 0.70936 0.18186 0.0
H1349 H 0.28007 0.70501 0.16287 0.0
H1350 H 0.293 0.75504 0.22953 0.0
C1351 C 0.22272 0.76226 0.28004 0.0
C1352 C 0.20661 0.75265 0.27942 0.0
C1353 C 0.20578 0.73614 0.2561 0.0
C1354 C 0.22058 0.72932 0.23325 0.0
C1355 C 0.23621 0.73907 0.23429 0.0
C1356 C 0.23757 0.75503 0.25756 0.0
C1357 C 0.25645 0.76204 0.25569 0.0
C1358 C 0.25727 0.77985 0.22988 0.0
C1359 C 0.26434 0.76362 0.30453 0.0
C1360 C 0.26541 0.74739 0.22821 0.0
C1361 C 0.25333 0.73448 0.21567 0.0
C1362 C 0.25826 0.71936 0.19135 0.0
C1363 C 0.27618 0.71703 0.18073 0.0
C1364 C 0.28901 0.72967 0.19474 0.0
C1365 C 0.28347 0.74526 0.21789 0.0
H1366 H 0.5247 0.03274 0.48076 0.0
H1367 H 0.47388 0.05981 0.47424 0.0
H1368 H 0.45869 0.03214 0.49583 0.0
H1369 H 0.50928 0.99045 0.43492 0.0
H1370 H 0.52309 0.97743 0.47279 0.0
H1371 H 0.53009 0.99928 0.4553 0.0
H1372 H 0.53322 0.00838 0.54122 0.0
H1373 H 0.52609 0.9866 0.55896 0.0
H1374 H 0.51449 0.00597 0.57945 0.0
H1375 H 0.44884 0.002 0.51921 0.0
H1376 H 0.44488 0.97067 0.54137 0.0
H1377 H 0.50191 0.96278 0.53425 0.0
C1378 C 0.51037 0.03278 0.48342 0.0
C1379 C 0.5005 0.04848 0.47572 0.0
C1380 C 0.48176 0.048 0.48001 0.0
C1381 C 0.47298 0.03234 0.49228 0.0
C1382 C 0.48308 0.0172 0.5003 0.0
C1383 C 0.50134 0.01722 0.49593 0.0
C1384 C 0.50895 0.99909 0.50726 0.0
C1385 C 0.51841 0.99109 0.46505 0.0
C1386 C 0.52143 8e-05 0.54922 0.0
C1387 C 0.49211 0.98897 0.51871 0.0
C1388 C 0.47736 -0.00029 0.51438 0.0
C1389 C 0.46028 0.99343 0.52272 0.0
C1390 C 0.45818 0.97561 0.53535 0.0
C1391 C 0.47307 0.96426 0.5397 0.0
C1392 C 0.49026 0.97114 0.53156 0.0
H1393 H 0.28862 0.25954 0.76386 0.0
H1394 H 0.282 0.20227 0.76134 0.0
H1395 H 0.25129 0.20598 0.73409 0.0
H1396 H 0.24491 0.26934 0.80585 0.0
H1397 H 0.24242 0.28917 0.77163 0.0
H1398 H 0.26417 0.28206 0.78944 0.0
H1399 H 0.27445 0.28198 0.70402 0.0
H1400 H 0.25268 0.28898 0.68591 0.0
H1401 H 0.26233 0.26909 0.66212 0.0
H1402 H 0.2214 0.21562 0.70775 0.0
H1403 H 0.19337 0.23071 0.68856 0.0
H1404 H 0.21886 0.28183 0.70917 0.0
C1405 C 0.28072 0.24779 0.75748 0.0
C1406 C 0.28776 0.23061 0.76468 0.0
C1407 C 0.27693 0.21557 0.7562 0.0
C1408 C 0.25948 0.21752 0.74049 0.0
C1409 C 0.25298 0.2346 0.73354 0.0
C1410 C 0.26318 0.24949 0.74204 0.0
C1411 C 0.25268 0.26632 0.73325 0.0
C1412 C 0.25094 0.27737 0.77769 0.0
C1413 C 0.26104 0.27724 0.69398 0.0
C1414 C 0.23498 0.25852 0.71879 0.0
C1415 C 0.23553 0.2402 0.71884 0.0
C1416 C 0.22079 0.22997 0.70748 0.0
C1417 C 0.20493 0.23868 0.69654 0.0
C1418 C 0.20388 0.25746 0.69727 0.0
C1419 C 0.21923 0.26747 0.70801 0.0
H1420 H 0.02748 0.96266 0.47199 0.0
H1421 H 0.97635 0.93843 0.4434 0.0
H1422 H 0.96142 0.96639 0.46321 0.0
H1423 H 0.01393 0.98667 0.56961 0.0
H1424 H 0.02695 0.00624 0.55804 0.0
H1425 H 0.0342 0.98499 0.53682 0.0
H1426 H 0.03523 0.99736 0.45338 0.0
H1427 H 0.02816 0.01874 0.47441 0.0
H1428 H 0.01578 0.0078 0.42939 0.0
H1429 H 0.95171 0.99518 0.49221 0.0
H1430 H 0.94739 0.0247 0.52569 0.0
H1431 H 0.00453 0.03153 0.53616 0.0
C1432 C 0.01319 0.96342 0.46891 0.0
C1433 C 0.00306 0.94839 0.4561 0.0
C1434 C 0.98436 0.94975 0.45326 0.0
C1435 C 0.97574 0.96559 0.46433 0.0
C1436 C 0.986 0.97998 0.47808 0.0
C1437 C 0.0043 0.9792 0.4801 0.0
C1438 C 0.01192 0.99649 0.49847 0.0
C1439 C 0.02236 0.9934 0.5434 0.0
C1440 C 0.02345 0.00564 0.46171 0.0
C1441 C 0.99499 0.00684 0.50739 0.0
C1442 C 0.98027 0.99699 0.49506 0.0
C1443 C 0.9631 0.00315 0.50154 0.0
C1444 C 0.96082 0.01994 0.5209 0.0
C1445 C 0.97563 0.03049 0.5336 0.0
C1446 C 0.99297 0.02383 0.52661 0.0
H1447 H 0.22738 0.71532 0.80165 0.0
H1448 H 0.20062 0.76598 0.81811 0.0
H1449 H 0.22829 0.78154 0.79737 0.0
H1450 H 0.27059 0.72964 0.84671 0.0
H1451 H 0.2828 0.7164 0.80574 0.0
H1452 H 0.26121 0.70927 0.82501 0.0
H1453 H 0.25061 0.70766 0.73997 0.0
H1454 H 0.27209 0.71495 0.72045 0.0
H1455 H 0.25248 0.72703 0.70372 0.0
H1456 H 0.25797 0.79152 0.7699 0.0
H1457 H 0.28841 0.79554 0.74107 0.0
H1458 H 0.29623 0.73841 0.7428 0.0
C1459 C 0.22739 0.72969 0.80162 0.0
C1460 C 0.21182 0.73944 0.81163 0.0
C1461 C 0.21238 0.75823 0.81075 0.0
C1462 C 0.22803 0.76719 0.79895 0.0
C1463 C 0.24301 0.75717 0.78835 0.0
C1464 C 0.2429 0.73886 0.78996 0.0
C1465 C 0.2607 0.73127 0.77558 0.0
C1466 C 0.26934 0.72104 0.81566 0.0
C1467 C 0.25885 0.71954 0.73236 0.0
C1468 C 0.27074 0.7482 0.76496 0.0
C1469 C 0.26027 0.76297 0.77266 0.0
C1470 C 0.26636 0.78008 0.76411 0.0
C1471 C 0.28367 0.7822 0.74754 0.0
C1472 C 0.29475 0.76728 0.73969 0.0
C1473 C 0.28813 0.75007 0.74859 0.0
H1474 H 0.52683 0.97382 0.03584 0.0
H1475 H 0.47482 0.9494 0.04953 0.0
H1476 H 0.46072 0.97759 0.02872 0.0
H1477 H 0.51375 0.017 0.08331 0.0
H1478 H 0.52758 0.02944 0.04413 0.0
H1479 H 0.53393 0.00734 0.06128 0.0
H1480 H 0.53564 0.99802 0.97527 0.0
H1481 H 0.52916 0.02004 0.95787 0.0
H1482 H 0.51655 0.0011 0.93862 0.0
H1483 H 0.45199 0.00727 1.00251 0.0
H1484 H 0.44881 0.03832 0.9782 0.0
H1485 H 0.50606 0.04491 0.98358 0.0
C1486 C 0.51249 0.97448 0.03488 0.0
C1487 C 0.50197 0.95932 0.04429 0.0
C1488 C 0.48323 0.96075 0.04257 0.0
C1489 C 0.47503 0.97672 0.03065 0.0
C1490 C 0.48572 0.99127 0.02089 0.0
C1491 C 0.504 0.99047 0.02336 0.0
C1492 C 0.51219 0.0083 0.01114 0.0
C1493 C 0.52247 0.01597 0.05243 0.0
C1494 C 0.52408 0.00676 0.96817 0.0
C1495 C 0.49561 0.01907 1.001 0.0
C1496 C 0.48055 0.00886 1.00665 0.0
C1497 C 0.46365 0.01549 0.99829 0.0
C1498 C 0.46201 0.03315 0.98426 0.0
C1499 C 0.47717 0.0441 0.97904 0.0
C1500 C 0.49422 0.0369 0.98745 0.0
H1501 H 0.21359 0.2235 0.21796 0.0
H1502 H 0.18711 0.27468 0.22432 0.0
H1503 H 0.21453 0.28843 0.25274 0.0
H1504 H 0.24041 0.22894 0.31995 0.0
H1505 H 0.25978 0.21838 0.29589 0.0
H1506 H 0.23799 0.21211 0.27612 0.0
H1507 H 0.24704 0.21921 0.19177 0.0
H1508 H 0.2689 0.22534 0.21124 0.0
H1509 H 0.25587 0.24082 0.17806 0.0
H1510 H 0.24404 0.29676 0.28223 0.0
H1511 H 0.27534 0.29991 0.3044 0.0
H1512 H 0.28384 0.24382 0.27707 0.0
C1513 C 0.21362 0.2376 0.22517 0.0
C1514 C 0.19815 0.24798 0.2189 0.0
C1515 C 0.19875 0.26641 0.22859 0.0
C1516 C 0.21426 0.27438 0.24503 0.0
C1517 C 0.22916 0.26379 0.25134 0.0
C1518 C 0.22913 0.24587 0.24122 0.0
C1519 C 0.24727 0.23778 0.25001 0.0
C1520 C 0.2463 0.22345 0.28774 0.0
C1521 C 0.25524 0.23036 0.20509 0.0
C1522 C 0.25739 0.25399 0.26665 0.0
C1523 C 0.24657 0.26877 0.26751 0.0
C1524 C 0.25271 0.28531 0.28158 0.0
C1525 C 0.27053 0.28694 0.29425 0.0
C1526 C 0.28211 0.27213 0.29245 0.0
C1527 C 0.27534 0.25538 0.27896 0.0
H1528 H 0.78075 0.21977 0.72733 0.0
H1529 H 0.80903 0.26973 0.74114 0.0
H1530 H 0.78107 0.28462 0.76253 0.0
H1531 H 0.73995 0.23826 0.67973 0.0
H1532 H 0.72588 0.22304 0.71083 0.0
H1533 H 0.74798 0.21644 0.69446 0.0
H1534 H 0.75507 0.20902 0.77989 0.0
H1535 H 0.73305 0.21571 0.79657 0.0
H1536 H 0.75208 0.22584 0.8235 0.0
H1537 H 0.75052 0.2939 0.78489 0.0
H1538 H 0.71902 0.29728 0.80538 0.0
H1539 H 0.71031 0.24126 0.77788 0.0
C1540 C 0.78104 0.23388 0.73432 0.0
C1541 C 0.7971 0.2436 0.73241 0.0
C1542 C 0.79691 0.26201 0.74228 0.0
C1543 C 0.7811 0.27059 0.75449 0.0
C1544 C 0.76558 0.26059 0.75668 0.0
C1545 C 0.76538 0.24266 0.74672 0.0
C1546 C 0.74693 0.23494 0.75278 0.0
C1547 C 0.73976 0.22775 0.7067 0.0
C1548 C 0.74678 0.22053 0.79043 0.0
C1549 C 0.73684 0.25131 0.76807 0.0
C1550 C 0.74787 0.26594 0.76993 0.0
C1551 C 0.74172 0.28255 0.78341 0.0
C1552 C 0.72378 0.28431 0.79506 0.0
C1553 C 0.71214 0.26953 0.79329 0.0
C1554 C 0.71884 0.2528 0.77968 0.0
H1555 H 0.70847 0.7501 0.21955 0.0
H1556 H 0.71752 0.80617 0.19367 0.0
H1557 H 0.7483 0.80307 0.22134 0.0
H1558 H 0.7335 0.74739 0.32339 0.0
H1559 H 0.74231 0.72563 0.31141 0.0
H1560 H 0.72109 0.73204 0.28821 0.0
H1561 H 0.73201 0.7249 0.20533 0.0
H1562 H 0.75318 0.71823 0.22835 0.0
H1563 H 0.75209 0.73509 0.18425 0.0
H1564 H 0.77776 0.79413 0.25438 0.0
H1565 H 0.80462 0.77933 0.28451 0.0
H1566 H 0.77618 0.7292 0.28835 0.0
C1567 C 0.71696 0.7617 0.21919 0.0
C1568 C 0.71058 0.77837 0.20442 0.0
C1569 C 0.72212 0.79324 0.20474 0.0
C1570 C 0.73961 0.79164 0.22056 0.0
C1571 C 0.74535 0.7751 0.23582 0.0
C1572 C 0.73445 0.76035 0.23482 0.0
C1573 C 0.74388 0.74409 0.25309 0.0
C1574 C 0.73464 0.73687 0.29661 0.0
C1575 C 0.74538 0.72973 0.21551 0.0
C1576 C 0.76179 0.75201 0.26451 0.0
C1577 C 0.76234 0.76993 0.25458 0.0
C1578 C 0.77752 0.78009 0.26221 0.0
C1579 C 0.79267 0.77159 0.27954 0.0
C1580 C 0.7925 0.75313 0.28878 0.0
C1581 C 0.77674 0.74334 0.28169 0.0
H1582 H 0.71847 0.24936 0.29162 0.0
H1583 H 0.72748 0.19445 0.33111 0.0
H1584 H 0.75922 0.19779 0.31317 0.0
H1585 H 0.74833 0.24983 0.19624 0.0
H1586 H 0.75617 0.27211 0.20618 0.0
H1587 H 0.73414 0.26586 0.224 0.0
H1588 H 0.74108 0.27583 0.30771 0.0
H1589 H 0.76309 0.28225 0.29008 0.0
H1590 H 0.76016 0.26679 0.33699 0.0
H1591 H 0.78945 0.20639 0.28841 0.0
H1592 H 0.81712 0.22018 0.26152 0.0
H1593 H 0.78913 0.26978 0.2379 0.0
C1594 C 0.72716 0.2381 0.29702 0.0
C1595 C 0.72046 0.22164 0.31287 0.0
C1596 C 0.73226 0.2072 0.31907 0.0
C1597 C 0.75033 0.20894 0.30892 0.0
C1598 C 0.75643 0.22522 0.29266 0.0
C1599 C 0.74529 0.2396 0.287 0.0
C1600 C 0.75533 0.25552 0.26828 0.0
C1601 C 0.74806 0.26116 0.22086 0.0
C1602 C 0.75489 0.27101 0.30283 0.0
C1603 C 0.77383 0.24776 0.26412 0.0
C1604 C 0.77408 0.23026 0.27836 0.0
C1605 C 0.78948 0.22011 0.27737 0.0
C1606 C 0.80513 0.22809 0.26187 0.0
C1607 C 0.80535 0.2461 0.24757 0.0
C1608 C 0.78942 0.25601 0.24857 0.0
H1609 H 0.7188 0.72843 0.71745 0.0
H1610 H 0.68756 0.77654 0.73198 0.0
H1611 H 0.71361 0.79187 0.76505 0.0
H1612 H 0.74319 0.73283 0.82288 0.0
H1613 H 0.76358 0.72432 0.79907 0.0
H1614 H 0.74259 0.71715 0.77587 0.0
H1615 H 0.75225 0.72721 0.694 0.0
H1616 H 0.77334 0.73419 0.71683 0.0
H1617 H 0.75975 0.74968 0.68524 0.0
H1618 H 0.743 0.80187 0.79645 0.0
H1619 H 0.77408 0.80642 0.82031 0.0
H1620 H 0.78595 0.75155 0.7865 0.0
C1621 C 0.71743 0.74223 0.72726 0.0
C1622 C 0.70113 0.75131 0.722 0.0
C1623 C 0.69991 0.76933 0.7355 0.0
C1624 C 0.71461 0.77812 0.7545 0.0
C1625 C 0.73038 0.76868 0.75985 0.0
C1626 C 0.73191 0.75117 0.74637 0.0
C1627 C 0.75038 0.74406 0.75551 0.0
C1628 C 0.74989 0.72868 0.79041 0.0
C1629 C 0.75946 0.73846 0.7102 0.0
C1630 C 0.75906 0.76036 0.77607 0.0
C1631 C 0.74727 0.77439 0.7784 0.0
C1632 C 0.75233 0.79098 0.79492 0.0
C1633 C 0.77001 0.79341 0.80846 0.0
C1634 C 0.78242 0.77931 0.80549 0.0
C1635 C 0.77673 0.7625 0.7898 0.0
H1636 H 0.52322 0.52578 0.55508 0.0
H1637 H 0.47612 0.55702 0.52586 0.0
H1638 H 0.46137 0.53033 0.49473 0.0
H1639 H 0.52172 0.49934 0.45392 0.0
H1640 H 0.52917 0.4793 0.48187 0.0
H1641 H 0.5358 0.5006 0.50415 0.0
H1642 H 0.52296 0.49244 0.58446 0.0
H1643 H 0.51646 0.47103 0.56256 0.0
H1644 H 0.50019 0.48532 0.58902 0.0
H1645 H 0.45218 0.50063 0.46411 0.0
H1646 H 0.44856 0.46954 0.43939 0.0
H1647 H 0.50174 0.45763 0.48812 0.0
C1648 C 0.50973 0.52699 0.54268 0.0
C1649 C 0.50081 0.5435 0.54304 0.0
C1650 C 0.4832 0.54452 0.52612 0.0
C1651 C 0.47473 0.52944 0.50825 0.0
C1652 C 0.48402 0.51346 0.50762 0.0
C1653 C 0.50108 0.51209 0.52469 0.0
C1654 C 0.50822 0.49341 0.51928 0.0
C1655 C 0.5247 0.49316 0.48793 0.0
C1656 C 0.51218 0.48506 0.56665 0.0
C1657 C 0.49255 0.48452 0.49618 0.0
C1658 C 0.47874 0.49633 0.4898 0.0
C1659 C 0.46288 0.49124 0.46906 0.0
C1660 C 0.46098 0.47355 0.45503 0.0
C1661 C 0.47487 0.46113 0.46174 0.0
C1662 C 0.4909 0.4668 0.4823 0.0
H1663 H 0.00217 0.46137 0.03186 0.0
H1664 H 0.94743 0.47131 0.07082 0.0
H1665 H 0.94998 0.50198 0.04127 0.0
H1666 H 0.01912 0.50459 0.06168 0.0
H1667 H 0.03432 0.50516 0.01364 0.0
H1668 H 0.02805 0.48422 0.03873 0.0
H1669 H 0.0177 0.47321 0.95824 0.0
H1670 H 0.02371 0.49422 0.93302 0.0
H1671 H 0.00143 0.48587 0.92664 0.0
H1672 H 0.95851 0.53156 1.00571 0.0
H1673 H 0.97304 0.55812 0.97243 0.0
H1674 H 0.02188 0.52819 0.95671 0.0
C1675 C 0.99074 0.47001 0.03466 0.0
C1676 C 0.97461 0.46393 0.05376 0.0
C1677 C 0.95996 0.47568 0.05646 0.0
C1678 C 0.96124 0.4931 0.03958 0.0
C1679 C 0.97725 0.49854 0.0201 0.0
C1680 C 0.99177 0.48737 0.01794 0.0
C1681 C 0.00749 0.49638 0.99555 0.0
C1682 C 0.02316 0.49767 0.02943 0.0
C1683 C 0.01289 0.48685 0.95071 0.0
C1684 C -0.00041 0.51442 0.98564 0.0
C1685 C 0.98211 0.51542 0.99973 0.0
C1686 C 0.97219 0.53092 0.99452 0.0
C1687 C 0.98052 0.5459 0.97537 0.0
C1688 C 0.99858 0.54523 0.96191 0.0
C1689 C 0.00805 0.52916 0.96653 0.0
H1690 H 0.49525 0.45898 0.98355 0.0
H1691 H 0.54833 0.4688 0.93087 0.0
H1692 H 0.54578 0.50025 0.95304 0.0
H1693 H 0.47625 0.50111 0.94725 0.0
H1694 H 0.46265 0.50324 0.99816 0.0
H1695 H 0.46843 0.48155 0.97679 0.0
H1696 H 0.48154 0.47346 0.05682 0.0
H1697 H 0.47595 0.49518 0.07831 0.0
H1698 H 0.49851 0.48736 0.08169 0.0
H1699 H 0.53801 0.53036 0.98294 0.0
H1700 H 0.52484 0.55762 0.01528 0.0
H1701 H 0.47681 0.52841 0.04863 0.0
C1702 C 0.50626 0.46778 0.9762 0.0
C1703 C 0.52198 0.4614 0.95539 0.0
C1704 C 0.53614 0.47334 0.94674 0.0
C1705 C 0.53484 0.49125 0.95927 0.0
C1706 C 0.51931 0.49704 0.98041 0.0
C1707 C 0.50521 0.48573 0.98855 0.0
C1708 C 0.49009 0.49536 0.01221 0.0
C1709 C 0.47337 0.49531 0.98178 0.0
C1710 C 0.48631 0.48736 0.0601 0.0
C1711 C 0.49793 0.51382 0.01615 0.0
C1712 C 0.51481 0.51448 0.99768 0.0
C1713 C 0.52478 0.53005 0.99742 0.0
C1714 C 0.5172 0.54545 0.01602 0.0
C1715 C 0.4998 0.54518 0.03456 0.0
C1716 C 0.49015 0.52908 0.03482 0.0
H1717 H 0.9938 0.46513 0.52776 0.0
H1718 H 0.04938 0.47653 0.55447 0.0
H1719 H 0.04553 0.50656 0.52294 0.0
H1720 H 0.99046 0.48944 0.42085 0.0
H1721 H 0.96848 0.49774 0.43246 0.0
H1722 H 0.97545 0.47683 0.45656 0.0
H1723 H 0.96794 0.48808 0.53889 0.0
H1724 H 0.96077 0.50894 0.51498 0.0
H1725 H 0.97761 0.50854 0.55915 0.0
H1726 H 0.03607 0.53513 0.48803 0.0
H1727 H 0.02073 0.56166 0.45829 0.0
H1728 H 0.97112 0.53229 0.45537 0.0
C1729 C 0.00512 0.47397 0.52713 0.0
C1730 C 0.02188 0.46843 0.54354 0.0
C1731 C 0.03638 0.48043 0.54219 0.0
C1732 C 0.03438 0.49752 0.52411 0.0
C1733 C 0.01779 0.50249 0.50766 0.0
C1734 C 0.00335 0.49119 0.50942 0.0
C1735 C 0.98685 0.50015 0.49069 0.0
C1736 C 0.97991 0.49046 0.44758 0.0
C1737 C 0.97245 0.50151 0.52817 0.0
C1738 C 0.99431 0.51823 0.47845 0.0
C1739 C 0.01223 0.5192 0.48807 0.0
C1740 C 0.02204 0.53458 0.48031 0.0
C1741 C 0.01321 0.54955 0.46323 0.0
C1742 C 0.99473 0.54907 0.45446 0.0
C1743 C 0.98527 0.53307 0.46154 0.0
H1744 H 0.07942 0.11677 0.11184 0.0
H1745 H 0.03012 0.14585 0.09472 0.0
H1746 H 0.04538 0.17351 0.11806 0.0
H1747 H 0.09399 0.13938 0.21244 0.0
H1748 H 0.11709 0.13918 0.19634 0.0
H1749 H 0.10253 0.12188 0.17627 0.0
H1750 H 0.11111 0.12883 0.09144 0.0
H1751 H 0.12588 0.146 0.11128 0.0
H1752 H 0.10877 0.15116 0.06993 0.0
H1753 H 0.06607 0.19785 0.14468 0.0
H1754 H 0.09073 0.21719 0.16955 0.0
H1755 H 0.1261 0.17173 0.171 0.0
C1756 C 0.07182 0.12897 0.11244 0.0
C1757 C 0.05357 0.12915 0.10124 0.0
C1758 C 0.04413 0.1454 0.10294 0.0
C1759 C 0.05267 0.16115 0.11631 0.0
C1760 C 0.0706 0.16039 0.12797 0.0
C1761 C 0.08008 0.14472 0.12592 0.0
C1762 C 0.09915 0.14736 0.14078 0.0
C1763 C 0.10343 0.13629 0.18403 0.0
C1764 C 0.11198 0.14309 0.10098 0.0
C1765 C 0.09896 0.16699 0.15159 0.0
C1766 C 0.08239 0.17428 0.14396 0.0
C1767 C 0.07909 0.19227 0.15081 0.0
C1768 C 0.09318 0.20314 0.16505 0.0
C1769 C 0.11033 0.19596 0.17246 0.0
C1770 C 0.11312 0.17759 0.16615 0.0
H1771 H 0.13128 0.82512 0.33817 0.0
H1772 H 0.10025 0.77661 0.34675 0.0
H1773 H 0.0743 0.79386 0.37185 0.0
H1774 H 0.11329 0.84566 0.43791 0.0
H1775 H 0.11297 0.86776 0.41408 0.0
H1776 H 0.1291 0.8519 0.39406 0.0
H1777 H 0.11841 0.85637 0.30979 0.0
H1778 H 0.10238 0.8724 0.32949 0.0
H1779 H 0.09524 0.85349 0.29618 0.0
H1780 H 0.0523 0.81566 0.39974 0.0
H1781 H 0.0346 0.84131 0.42463 0.0
H1782 H 0.07943 0.87615 0.39796 0.0
C1783 C 0.11896 0.81817 0.34466 0.0
C1784 C 0.11781 0.7995 0.34045 0.0
C1785 C 0.10148 0.79089 0.34973 0.0
C1786 C 0.08664 0.80056 0.36407 0.0
C1787 C 0.08832 0.81885 0.36885 0.0
C1788 C 0.10396 0.82764 0.35909 0.0
C1789 C 0.10216 0.84739 0.36804 0.0
C1790 C 0.11515 0.85353 0.40577 0.0
C1791 C 0.10469 0.85804 0.3232 0.0
C1792 C 0.08312 0.84824 0.38474 0.0
C1793 C 0.07545 0.83158 0.38492 0.0
C1794 C 0.05809 0.8288 0.39951 0.0
C1795 C 0.04817 0.84349 0.41374 0.0
C1796 C 0.0556 0.86078 0.41324 0.0
C1797 C 0.07337 0.86312 0.39877 0.0
H1798 H 0.3696 0.82557 0.6432 0.0
H1799 H 0.40547 0.78152 0.66761 0.0
H1800 H 0.43041 0.79958 0.63705 0.0
H1801 H 0.38957 0.84035 0.53621 0.0
H1802 H 0.38567 0.86345 0.54884 0.0
H1803 H 0.37086 0.84676 0.57124 0.0
H1804 H 0.37617 0.85834 0.65449 0.0
H1805 H 0.39088 0.87511 0.63235 0.0
H1806 H 0.39853 0.85994 0.67618 0.0
H1807 H 0.45166 0.82374 0.60818 0.0
H1808 H 0.46694 0.85121 0.58308 0.0
H1809 H 0.41617 0.87819 0.57518 0.0
C1810 C 0.38269 0.81964 0.64218 0.0
C1811 C 0.38565 0.80219 0.65812 0.0
C1812 C 0.40294 0.7949 0.65563 0.0
C1813 C 0.41714 0.80504 0.63827 0.0
C1814 C 0.4137 0.82229 0.62299 0.0
C1815 C 0.39683 0.82942 0.62456 0.0
C1816 C 0.39646 0.84827 0.6069 0.0
C1817 C 0.38496 0.84979 0.5632 0.0
C1818 C 0.39014 0.86117 0.64474 0.0
C1819 C 0.41585 0.85088 0.59595 0.0
C1820 C 0.42566 0.83579 0.60529 0.0
C1821 C 0.44406 0.83554 0.60021 0.0
C1822 C 0.45262 0.85119 0.58592 0.0
C1823 C 0.44274 0.86681 0.57677 0.0
C1824 C 0.42411 0.86643 0.58115 0.0
H1825 H 0.41807 0.12333 0.90909 0.0
H1826 H 0.46468 0.15648 0.92687 0.0
H1827 H 0.44752 0.1825 0.89925 0.0
H1828 H 0.40299 0.14309 0.80513 0.0
H1829 H 0.37986 0.14091 0.81987 0.0
H1830 H 0.39576 0.12533 0.84239 0.0
H1831 H 0.38563 0.13253 0.92595 0.0
H1832 H 0.36961 0.14805 0.90369 0.0
H1833 H 0.38577 0.15524 0.94559 0.0
H1834 H 0.42458 0.20489 0.86847 0.0
H1835 H 0.39841 0.2212 0.83861 0.0
H1836 H 0.36794 0.17231 0.8406 0.0
C1837 C 0.42474 0.13605 0.90756 0.0
C1838 C 0.44272 0.13787 0.92031 0.0
C1839 C 0.45089 0.15478 0.91743 0.0
C1840 C 0.44125 0.16961 0.90171 0.0
C1841 C 0.42354 0.16723 0.88899 0.0
C1842 C 0.41543 0.15082 0.89188 0.0
C1843 C 0.39641 0.15145 0.87571 0.0
C1844 C 0.3936 0.13949 0.83325 0.0
C1845 C 0.3836 0.14653 0.91509 0.0
C1846 C 0.39496 0.17083 0.86316 0.0
C1847 C 0.41067 0.1798 0.87103 0.0
C1848 C 0.41224 0.19794 0.86216 0.0
C1849 C 0.39733 0.20709 0.84515 0.0
C1850 C 0.38114 0.19803 0.83711 0.0
C1851 C 0.38011 0.17965 0.84611 0.0
H1852 H 0.89078 0.80281 0.86666 0.0
H1853 H 0.86581 0.83604 0.76296 0.0
H1854 H 0.88897 0.85864 0.77376 0.0
H1855 H 0.90054 0.83612 0.94257 0.0
H1856 H 0.92188 0.82808 0.96136 0.0
H1857 H 0.90553 0.81273 0.94006 0.0
H1858 H 0.92765 0.80119 0.87857 0.0
H1859 H 0.94423 0.81631 0.90021 0.0
H1860 H 0.93823 0.81671 0.83995 0.0
H1861 H 0.91064 0.87955 0.8046 0.0
H1862 H 0.93251 0.89695 0.84859 0.0
H1863 H 0.9451 0.85061 0.9313 0.0
C1864 C 0.89068 0.81453 0.84499 0.0
C1865 C 0.87663 0.81769 0.81375 0.0
C1866 C 0.87652 0.8334 0.78697 0.0
C1867 C 0.88962 0.8463 0.79279 0.0
C1868 C 0.90282 0.84324 0.82536 0.0
C1869 C 0.90373 0.82766 0.85053 0.0
C1870 C 0.91849 0.8286 0.88618 0.0
C1871 C 0.91116 0.82625 0.93544 0.0
C1872 C 0.93301 0.81489 0.87558 0.0
C1873 C 0.92513 0.84738 0.8783 0.0
C1874 C 0.91589 0.85548 0.84285 0.0
C1875 C 0.91829 0.87327 0.83169 0.0
C1876 C 0.93058 0.88309 0.85717 0.0
C1877 C 0.94044 0.87506 0.89309 0.0
C1878 C 0.93785 0.85693 0.9035 0.0
H1879 H 0.94617 0.1401 0.59885 0.0
H1880 H 0.92297 0.09469 0.66862 0.0
H1881 H 0.90128 0.1141 0.70651 0.0
H1882 H 0.93841 0.17283 0.69489 0.0
H1883 H 0.93276 0.1905 0.65559 0.0
H1884 H 0.94829 0.17357 0.6382 0.0
H1885 H 0.92897 0.16677 0.56639 0.0
H1886 H 0.91336 0.18357 0.58367 0.0
H1887 H 0.9059 0.16114 0.57404 0.0
H1888 H 0.87996 0.13662 0.72857 0.0
H1889 H 0.8602 0.1624 0.73735 0.0
H1890 H 0.89648 0.19451 0.6563 0.0
C1891 C 0.93678 0.13444 0.62304 0.0
C1892 C 0.93619 0.11594 0.63093 0.0
C1893 C 0.92353 0.10883 0.66199 0.0
C1894 C 0.91122 0.11975 0.68389 0.0
C1895 C 0.9117 0.13781 0.6745 0.0
C1896 C 0.92414 0.14525 0.64518 0.0
C1897 C 0.92055 0.16496 0.63875 0.0
C1898 C 0.93592 0.17613 0.65802 0.0
C1899 C 0.91698 0.16936 0.58768 0.0
C1900 C 0.9039 0.16713 0.66785 0.0
C1901 C 0.89919 0.15124 0.68827 0.0
C1902 C 0.88364 0.14926 0.71362 0.0
C1903 C 0.87245 0.16392 0.71817 0.0
C1904 C 0.87695 0.18037 0.69786 0.0
C1905 C 0.89299 0.18211 0.67292 0.0
H1906 H 0.63498 0.16256 0.34668 0.0
H1907 H 0.60766 0.21329 0.3445 0.0
H1908 H 0.58006 0.19844 0.36953 0.0
H1909 H 0.59787 0.1358 0.30545 0.0
H1910 H 0.60334 0.11731 0.3423 0.0
H1911 H 0.62061 0.13185 0.32177 0.0
H1912 H 0.63045 0.13763 0.4062 0.0
H1913 H 0.61311 0.12327 0.42703 0.0
H1914 H 0.61451 0.14583 0.44743 0.0
H1915 H 0.55588 0.1783 0.39864 0.0
H1916 H 0.53643 0.15417 0.42599 0.0
H1917 H 0.57962 0.11656 0.40921 0.0
C1918 C 0.62315 0.17055 0.35083 0.0
C1919 C 0.62349 0.18911 0.34344 0.0
C1920 C 0.60772 0.19905 0.34965 0.0
C1921 C 0.59199 0.19074 0.36401 0.0
C1922 C 0.59223 0.17249 0.37185 0.0
C1923 C 0.60736 0.16249 0.36511 0.0
C1924 C 0.60421 0.14314 0.3769 0.0
C1925 C 0.60665 0.13133 0.33405 0.0
C1926 C 0.61629 0.13712 0.41676 0.0
C1927 C 0.58497 0.14384 0.39178 0.0
C1928 C 0.57831 0.16089 0.38859 0.0
C1929 C 0.56092 0.16488 0.40104 0.0
C1930 C 0.55 0.15107 0.4167 0.0
C1931 C 0.55647 0.13343 0.41981 0.0
C1932 C 0.57424 0.12987 0.40729 0.0
H1933 H 0.57668 0.88485 0.08431 0.0
H1934 H 0.53099 0.85021 0.07004 0.0
H1935 H 0.54913 0.82471 0.09532 0.0
H1936 H 0.61019 0.85287 0.04662 0.0
H1937 H 0.62625 0.86064 0.08808 0.0
H1938 H 0.60991 0.87571 0.06523 0.0
H1939 H 0.5999 0.88326 0.14865 0.0
H1940 H 0.61599 0.868 0.17172 0.0
H1941 H 0.59289 0.86563 0.18662 0.0
H1942 H 0.57209 0.80317 0.12578 0.0
H1943 H 0.59844 0.78726 0.1557 0.0
H1944 H 0.62837 0.83651 0.15211 0.0
C1945 C 0.57058 0.87184 0.08551 0.0
C1946 C 0.55246 0.8695 0.07491 0.0
C1947 C 0.54488 0.85231 0.07785 0.0
C1948 C 0.55506 0.83774 0.09226 0.0
C1949 C 0.57276 0.84061 0.10374 0.0
C1950 C 0.58048 0.85722 0.10023 0.0
C1951 C 0.59954 0.85693 0.11637 0.0
C1952 C 0.61222 0.86182 0.07671 0.0
C1953 C 0.60223 0.86918 0.15833 0.0
C1954 C 0.60131 0.83761 0.12972 0.0
C1955 C 0.58578 0.82836 0.12211 0.0
C1956 C 0.58435 0.81028 0.13182 0.0
C1957 C 0.59934 0.80137 0.14903 0.0
C1958 C 0.61544 0.81063 0.15648 0.0
C1959 C 0.61626 0.82902 0.14709 0.0
H1960 H 0.55217 0.6436 0.60206 0.0
H1961 H 0.58587 0.5968 0.60494 0.0
H1962 H 0.61138 0.61534 0.62612 0.0
H1963 H 0.58509 0.67346 0.55386 0.0
H1964 H 0.57826 0.69219 0.58827 0.0
H1965 H 0.56237 0.67535 0.57274 0.0
H1966 H 0.5548 0.67068 0.65919 0.0
H1967 H 0.5707 0.68746 0.675 0.0
H1968 H 0.57232 0.6655 0.69937 0.0
H1969 H 0.63312 0.63822 0.64749 0.0
H1970 H 0.65047 0.66474 0.66706 0.0
H1971 H 0.60334 0.69742 0.65103 0.0
C1972 C 0.56493 0.63729 0.60695 0.0
C1973 C 0.56697 0.61871 0.6018 0.0
C1974 C 0.58391 0.61097 0.6087 0.0
C1975 C 0.59853 0.62138 0.62076 0.0
C1976 C 0.59606 0.63955 0.62586 0.0
C1977 C 0.57977 0.64752 0.61914 0.0
C1978 C 0.58094 0.66741 0.62718 0.0
C1979 C 0.5764 0.67771 0.58287 0.0
C1980 C 0.56898 0.67309 0.66759 0.0
C1981 C 0.60043 0.66927 0.63944 0.0
C1982 C 0.60881 0.65297 0.63842 0.0
C1983 C 0.62675 0.65108 0.64838 0.0
C1984 C 0.63648 0.66627 0.65949 0.0
C1985 C 0.6283 0.68321 0.6606 0.0
C1986 C 0.60998 0.68467 0.65055 0.0
H1987 H 0.58003 0.37967 0.90052 0.0
H1988 H 0.53277 0.34763 0.92022 0.0
H1989 H 0.55007 0.32064 0.90033 0.0
H1990 H 0.59681 0.35638 0.80327 0.0
H1991 H 0.61964 0.35891 0.82052 0.0
H1992 H 0.60349 0.37528 0.83724 0.0
H1993 H 0.61194 0.37086 0.92333 0.0
H1994 H 0.62818 0.35453 0.90688 0.0
H1995 H 0.61115 0.34891 0.94807 0.0
H1996 H 0.57338 0.29706 0.87719 0.0
H1997 H 0.59993 0.27969 0.8542 0.0
H1998 H 0.63077 0.32832 0.8497 0.0
C1999 C 0.57322 0.36701 0.90092 0.0
C2000 C 0.55502 0.36577 0.91204 0.0
C2001 C 0.54672 0.34889 0.91191 0.0
C2002 C 0.55643 0.33352 0.9006 0.0
C2003 C 0.57438 0.33531 0.8895 0.0
C2004 C 0.58262 0.3517 0.88969 0.0
C2005 C 0.60191 0.35038 0.87627 0.0
C2006 C 0.60567 0.36086 0.83168 0.0
C2007 C 0.614 0.35653 0.91601 0.0
C2008 C 0.60339 0.33066 0.86841 0.0
C2009 C 0.58746 0.32207 0.87615 0.0
C2010 C 0.58589 0.3037 0.87104 0.0
C2011 C 0.60102 0.29395 0.85793 0.0
C2012 C 0.61744 0.30262 0.85005 0.0
C2013 C 0.61846 0.32122 0.8553 0.0
H2014 H 0.87362 0.32327 0.17319 0.0
H2015 H 0.91087 0.27947 0.18295 0.0
H2016 H 0.93494 0.29912 0.15593 0.0
H2017 H 0.89178 0.3427 0.07018 0.0
H2018 H 0.88807 0.3652 0.08895 0.0
H2019 H 0.87376 0.34768 0.10901 0.0
H2020 H 0.88065 0.35618 0.19391 0.0
H2021 H 0.8949 0.37379 0.1741 0.0
H2022 H 0.9034 0.35715 0.21297 0.0
H2023 H 0.95503 0.32368 0.1276 0.0
H2024 H 0.96964 0.35153 0.10291 0.0
H2025 H 0.91909 0.37896 0.11195 0.0
C2026 C 0.88683 0.31779 0.16977 0.0
C2027 C 0.89033 0.29982 0.18025 0.0
C2028 C 0.90784 0.2932 0.17522 0.0
C2029 C 0.92161 0.30424 0.15978 0.0
C2030 C 0.91767 0.32186 0.14949 0.0
C2031 C 0.90072 0.32861 0.15444 0.0
C2032 C 0.90001 0.34805 0.14152 0.0
C2033 C 0.88768 0.35108 0.09994 0.0
C2034 C 0.89441 0.35946 0.18311 0.0
C2035 C 0.91922 0.35121 0.12875 0.0
C2036 C 0.9292 0.33595 0.13334 0.0
C2037 C 0.94734 0.33572 0.12382 0.0
C2038 C 0.95551 0.35158 0.10972 0.0
C2039 C 0.94553 0.36743 0.10544 0.0
C2040 C 0.92712 0.36709 0.11478 0.0
H2041 H 0.94513 0.65097 0.40631 0.0
H2042 H 0.9102 0.60556 0.42464 0.0
H2043 H 0.88491 0.62342 0.39881 0.0
H2044 H 0.91268 0.68415 0.44631 0.0
H2045 H 0.91975 0.70067 0.40522 0.0
H2046 H 0.93536 0.68452 0.42655 0.0
H2047 H 0.94252 0.67521 0.34247 0.0
H2048 H 0.92677 0.69116 0.32089 0.0
H2049 H 0.92478 0.66811 0.30501 0.0
H2050 H 0.86399 0.64465 0.36559 0.0
H2051 H 0.847 0.66996 0.33624 0.0
H2052 H 0.89422 0.70302 0.34269 0.0
C2053 C 0.93211 0.64489 0.40548 0.0
C2054 C 0.92971 0.62681 0.41738 0.0
C2055 C 0.91246 0.61935 0.41576 0.0
C2056 C 0.89796 0.62936 0.40093 0.0
C2057 C 0.90083 0.64692 0.38836 0.0
C2058 C 0.91733 0.65481 0.39124 0.0
C2059 C 0.91646 0.67409 0.37592 0.0
C2060 C 0.92135 0.6866 0.41589 0.0
C2061 C 0.92834 0.67732 0.33355 0.0
C2062 C 0.89694 0.6756 0.36349 0.0
C2063 C 0.88833 0.65965 0.37058 0.0
C2064 C 0.87049 0.65731 0.36036 0.0
C2065 C 0.86098 0.67179 0.34337 0.0
C2066 C 0.86924 0.68853 0.33722 0.0
C2067 C 0.88753 0.69041 0.34716 0.0
H2068 H 0.36481 0.33248 0.32922 0.0
H2069 H 0.3952 0.28357 0.32626 0.0
H2070 H 0.42189 0.30013 0.35186 0.0
H2071 H 0.39961 0.36182 0.2894 0.0
H2072 H 0.39263 0.37959 0.32691 0.0
H2073 H 0.37661 0.36386 0.30567 0.0
H2074 H 0.36716 0.3568 0.38987 0.0
H2075 H 0.38329 0.37235 0.41139 0.0
H2076 H 0.38367 0.34964 0.43088 0.0
H2077 H 0.44513 0.32263 0.38127 0.0
H2078 H 0.46234 0.34861 0.40911 0.0
H2079 H 0.41556 0.38165 0.39353 0.0
C2080 C 0.3771 0.3252 0.3333 0.0
C2081 C 0.37792 0.30673 0.32549 0.0
C2082 C 0.39428 0.29776 0.33169 0.0
C2083 C 0.40949 0.30705 0.34638 0.0
C2084 C 0.40806 0.32525 0.35466 0.0
C2085 C 0.39225 0.33417 0.34804 0.0
C2086 C 0.3938 0.35356 0.36052 0.0
C2087 C 0.39047 0.3654 0.31809 0.0
C2088 C 0.38124 0.35836 0.40054 0.0
C2089 C 0.41295 0.35424 0.37548 0.0
C2090 C 0.42109 0.33787 0.37187 0.0
C2091 C 0.43885 0.3355 0.38411 0.0
C2092 C 0.44851 0.3503 0.40001 0.0
C2093 C 0.44032 0.36717 0.40364 0.0
C2094 C 0.42229 0.36898 0.39134 0.0
H2095 H 0.39651 0.6983 0.14627 0.0
H2096 H 0.36596 0.66543 0.24009 0.0
H2097 H 0.38761 0.64124 0.23104 0.0
H2098 H 0.406 0.66518 0.06817 0.0
H2099 H 0.42834 0.67191 0.05446 0.0
H2100 H 0.4125 0.6881 0.07415 0.0
H2101 H 0.43351 0.69716 0.14084 0.0
H2102 H 0.44957 0.68116 0.12095 0.0
H2103 H 0.44177 0.68041 0.17978 0.0
H2104 H 0.4089 0.61939 0.2034 0.0
H2105 H 0.43089 0.60105 0.16286 0.0
H2106 H 0.44905 0.64727 0.08677 0.0
C2107 C 0.39487 0.68624 0.16622 0.0
C2108 C 0.37976 0.68371 0.19438 0.0
C2109 C 0.37756 0.66758 0.21869 0.0
C2110 C 0.38978 0.6538 0.2138 0.0
C2111 C 0.40416 0.65634 0.18441 0.0
C2112 C 0.40698 0.67218 0.16138 0.0
C2113 C 0.42268 0.67061 0.12863 0.0
C2114 C 0.41703 0.67416 0.07839 0.0
C2115 C 0.43778 0.68308 0.14345 0.0
C2116 C 0.42773 0.65128 0.13578 0.0
C2117 C 0.41686 0.64344 0.16836 0.0
C2118 C 0.41776 0.62542 0.17851 0.0
C2119 C 0.43018 0.61509 0.15494 0.0
C2120 C 0.44166 0.62276 0.12178 0.0
C2121 C 0.44057 0.64115 0.11242 0.0
H2122 H 0.0532 0.64472 0.90758 0.0
H2123 H 0.08349 0.59564 0.91136 0.0
H2124 H 0.10965 0.61136 0.88222 0.0
H2125 H 0.07288 0.66278 0.80448 0.0
H2126 H 0.07375 0.68529 0.82539 0.0
H2127 H 0.05685 0.67039 0.84621 0.0
H2128 H 0.06676 0.67614 0.93059 0.0
H2129 H 0.08354 0.69124 0.91004 0.0
H2130 H 0.08966 0.67278 0.94631 0.0
H2131 H 0.13209 0.63134 0.85014 0.0
H2132 H 0.15143 0.6559 0.82634 0.0
H2133 H 0.10797 0.69304 0.84641 0.0
C2134 C 0.06538 0.63735 0.90252 0.0
C2135 C 0.06623 0.61893 0.91169 0.0
C2136 C 0.08245 0.60976 0.90481 0.0
C2137 C 0.0974 0.61853 0.88792 0.0
C2138 C 0.09607 0.63655 0.8785 0.0
C2139 C 0.08066 0.646 0.88625 0.0
C2140 C 0.0833 0.6655 0.87485 0.0
C2141 C 0.07096 0.67133 0.83538 0.0
C2142 C 0.08066 0.6771 0.91802 0.0
C2143 C 0.10257 0.66538 0.85948 0.0
C2144 C 0.1095 0.64844 0.86132 0.0
C2145 C 0.1269 0.64472 0.84875 0.0
C2146 C 0.13776 0.65879 0.83509 0.0
C2147 C 0.13127 0.67644 0.83461 0.0
C2148 C 0.11332 0.67971 0.84631 0.0
H2149 H 0.05347 0.35793 0.58332 0.0
H2150 H 0.06806 0.39932 0.68025 0.0
H2151 H 0.08841 0.37881 0.71961 0.0
H2152 H 0.05785 0.31959 0.66679 0.0
H2153 H 0.06734 0.3053 0.6234 0.0
H2154 H 0.05157 0.32217 0.60708 0.0
H2155 H 0.07424 0.335 0.54866 0.0
H2156 H 0.09007 0.31827 0.56494 0.0
H2157 H 0.09597 0.34141 0.56861 0.0
H2158 H 0.11016 0.35629 0.7409 0.0
H2159 H 0.13187 0.33186 0.74505 0.0
H2160 H 0.10365 0.30397 0.6365 0.0
C2161 C 0.06059 0.36239 0.61366 0.0
C2162 C 0.05923 0.38011 0.62902 0.0
C2163 C 0.06902 0.38576 0.66804 0.0
C2164 C 0.08052 0.37419 0.69079 0.0
C2165 C 0.0821 0.35698 0.67414 0.0
C2166 C 0.07238 0.35095 0.63673 0.0
C2167 C 0.07805 0.3323 0.62345 0.0
C2168 C 0.06279 0.31905 0.63062 0.0
C2169 C 0.085 0.33172 0.57347 0.0
C2170 C 0.09287 0.32919 0.65806 0.0
C2171 C 0.09479 0.34358 0.6872 0.0
C2172 C 0.10858 0.34473 0.71911 0.0
C2173 C 0.12088 0.33088 0.72106 0.0
C2174 C 0.11923 0.31603 0.69157 0.0
C2175 C 0.10488 0.31501 0.66024 0.0
loop_
_geom_bond_atom_site_label_1
_geom_bond_atom_site_label_2
_geom_bond_distance
_geom_bond_site_symmetry_2
_ccdc_geom_bond_type
C0 O2 1.247 . S
C0 O4 1.258 1_455 S
C1 O8 1.247 1_455 S
C1 O9 1.258 . S
O2 C0 1.247 . S
O2 Zn3 2.028 1_556 S
Zn3 O2 2.028 1_554 S
Zn3 O7 2.035 . S
Zn3 O9 2.035 . S
Zn3 O10 2.028 . S
O4 C0 1.258 1_655 S
O4 Zn5 2.035 1_556 S
Zn5 O4 2.035 1_554 S
Zn5 O6 2.028 1_655 S
Zn5 O8 2.028 . S
Zn5 O11 2.035 . S
O6 Zn5 2.028 1_455 S
O6 C12 1.247 . S
O7 Zn3 2.035 . S
O7 C12 1.258 . S
O8 C1 1.247 1_655 S
O8 Zn5 2.028 . S
O9 C1 1.258 . S
O9 Zn3 2.035 . S
O10 Zn3 2.028 . S
O10 C13 1.247 1_455 S
O11 Zn5 2.035 . S
O11 C13 1.258 . S
C12 O6 1.247 . S
C12 O7 1.258 . S
C13 O10 1.247 1_655 S
C13 O11 1.258 . S
C14 O16 1.247 . S
C14 O18 1.258 . S
C15 O22 1.247 . S
C15 O23 1.258 . S
O16 C14 1.247 . S
O16 Zn17 2.028 . S
Zn17 O16 2.028 . S
Zn17 O21 2.035 . S
Zn17 O23 2.035 . S
Zn17 O24 2.028 . S
O18 C14 1.258 . S
O18 Zn19 2.035 . S
Zn19 O18 2.035 . S
Zn19 O20 2.028 . S
Zn19 O22 2.028 . S
Zn19 O25 2.035 . S
O20 Zn19 2.028 . S
O20 C26 1.247 . S
O21 Zn17 2.035 . S
O21 C26 1.258 . S
O22 C15 1.247 . S
O22 Zn19 2.028 . S
O23 C15 1.258 . S
O23 Zn17 2.035 . S
O24 Zn17 2.028 . S
O24 C27 1.247 . S
O25 Zn19 2.035 . S
O25 C27 1.258 . S
C26 O20 1.247 . S
C26 O21 1.258 . S
C27 O24 1.247 . S
C27 O25 1.258 . S
C28 O30 1.247 . S
C28 O32 1.258 . S
C29 O36 1.247 . S
C29 O37 1.258 . S
O30 C28 1.247 . S
O30 Zn31 2.028 . S
Zn31 O30 2.028 . S
Zn31 O35 2.035 . S
Zn31 O37 2.035 . S
Zn31 O38 2.028 . S
O32 C28 1.258 . S
O32 Zn33 2.035 . S
Zn33 O32 2.035 . S
Zn33 O34 2.028 . S
Zn33 O36 2.028 . S
Zn33 O39 2.035 . S
O34 Zn33 2.028 . S
O34 C40 1.247 . S
O35 Zn31 2.035 . S
O35 C40 1.258 . S
O36 C29 1.247 . S
O36 Zn33 2.028 . S
O37 C29 1.258 . S
O37 Zn31 2.035 . S
O38 Zn31 2.028 . S
O38 C41 1.247 . S
O39 Zn33 2.035 . S
O39 C41 1.258 . S
C40 O34 1.247 . S
C40 O35 1.258 . S
C41 O38 1.247 . S
C41 O39 1.258 . S
C42 O44 1.247 . S
C42 O46 1.258 . S
C43 O50 1.247 . S
C43 O51 1.258 . S
O44 C42 1.247 . S
O44 Zn45 2.028 . S
Zn45 O44 2.028 . S
Zn45 O49 2.035 . S
Zn45 O51 2.035 . S
Zn45 O52 2.028 . S
O46 C42 1.258 . S
O46 Zn47 2.035 . S
Zn47 O46 2.035 . S
Zn47 O48 2.028 . S
Zn47 O50 2.028 . S
Zn47 O53 2.035 . S
O48 Zn47 2.028 . S
O48 C54 1.247 . S
O49 Zn45 2.035 . S
O49 C54 1.258 . S
O50 C43 1.247 . S
O50 Zn47 2.028 . S
O51 C43 1.258 . S
O51 Zn45 2.035 . S
O52 Zn45 2.028 . S
O52 C55 1.247 . S
O53 Zn47 2.035 . S
O53 C55 1.258 . S
C54 O48 1.247 . S
C54 O49 1.258 . S
C55 O52 1.247 . S
C55 O53 1.258 . S
C56 O58 1.247 . S
C56 O60 1.258 . S
C57 O64 1.247 1_655 S
C57 O65 1.258 . S
O58 C56 1.247 . S
O58 Zn59 2.028 1_455 S
Zn59 O58 2.028 1_655 S
Zn59 O63 2.035 . S
Zn59 O65 2.035 . S
Zn59 O66 2.028 . S
O60 C56 1.258 . S
O60 Zn61 2.035 . S
Zn61 O60 2.035 . S
Zn61 O62 2.028 . S
Zn61 O64 2.028 . S
Zn61 O67 2.035 . S
O62 Zn61 2.028 . S
O62 C68 1.247 . S
O63 Zn59 2.035 . S
O63 C68 1.258 1_655 S
O64 C57 1.247 1_455 S
O64 Zn61 2.028 . S
O65 C57 1.258 . S
O65 Zn59 2.035 . S
O66 Zn59 2.028 . S
O66 C69 1.247 1_655 S
O67 Zn61 2.035 . S
O67 C69 1.258 . S
C68 O62 1.247 . S
C68 O63 1.258 1_455 S
C69 O66 1.247 1_455 S
C69 O67 1.258 . S
C70 O72 1.247 . S
C70 O74 1.258 . S
C71 O78 1.247 . S
C71 O79 1.258 . S
O72 C70 1.247 . S
O72 Zn73 2.028 . S
Zn73 O72 2.028 . S
Zn73 O77 2.035 . S
Zn73 O79 2.035 . S
Zn73 O80 2.028 . S
O74 C70 1.258 . S
O74 Zn75 2.035 . S
Zn75 O74 2.035 . S
Zn75 O76 2.028 . S
Zn75 O78 2.028 . S
Zn75 O81 2.035 . S
O76 Zn75 2.028 . S
O76 C82 1.247 . S
O77 Zn73 2.035 . S
O77 C82 1.258 . S
O78 C71 1.247 . S
O78 Zn75 2.028 . S
O79 C71 1.258 . S
O79 Zn73 2.035 . S
O80 Zn73 2.028 . S
O80 C83 1.247 . S
O81 Zn75 2.035 . S
O81 C83 1.258 . S
C82 O76 1.247 . S
C82 O77 1.258 . S
C83 O80 1.247 . S
C83 O81 1.258 . S
C84 O86 1.247 . S
C84 O88 1.258 . S
C85 O92 1.247 . S
C85 O93 1.258 . S
O86 C84 1.247 . S
O86 Zn87 2.028 1_554 S
Zn87 O86 2.028 1_556 S
Zn87 O91 2.035 . S
Zn87 O93 2.035 . S
Zn87 O94 2.028 . S
O88 C84 1.258 . S
O88 Zn89 2.035 1_554 S
Zn89 O88 2.035 1_556 S
Zn89 O90 2.028 . S
Zn89 O92 2.028 . S
Zn89 O95 2.035 . S
O90 Zn89 2.028 . S
O90 C96 1.247 . S
O91 Zn87 2.035 . S
O91 C96 1.258 . S
O92 C85 1.247 . S
O92 Zn89 2.028 . S
O93 C85 1.258 . S
O93 Zn87 2.035 . S
O94 Zn87 2.028 . S
O94 C97 1.247 . S
O95 Zn89 2.035 . S
O95 C97 1.258 . S
C96 O90 1.247 . S
C96 O91 1.258 . S
C97 O94 1.247 . S
C97 O95 1.258 . S
C98 O100 1.247 . S
C98 O102 1.258 . S
C99 O106 1.247 . S
C99 O107 1.258 . S
O100 C98 1.247 . S
O100 Zn101 2.028 . S
Zn101 O100 2.028 . S
Zn101 O105 2.035 . S
Zn101 O107 2.035 . S
Zn101 O108 2.028 . S
O102 C98 1.258 . S
O102 Zn103 2.035 . S
Zn103 O102 2.035 . S
Zn103 O104 2.028 . S
Zn103 O106 2.028 . S
Zn103 O109 2.035 . S
O104 Zn103 2.028 . S
O104 C110 1.247 . S
O105 Zn101 2.035 . S
O105 C110 1.258 . S
O106 C99 1.247 . S
O106 Zn103 2.028 . S
O107 C99 1.258 . S
O107 Zn101 2.035 . S
O108 Zn101 2.028 . S
O108 C111 1.247 . S
O109 Zn103 2.035 . S
O109 C111 1.258 . S
C110 O104 1.247 . S
C110 O105 1.258 . S
C111 O108 1.247 . S
C111 O109 1.258 . S
C112 O114 1.247 1_655 S
C112 O116 1.258 . S
C113 O120 1.247 . S
C113 O121 1.258 1_655 S
O114 C112 1.247 1_455 S
O114 Zn115 2.028 1_554 S
Zn115 O114 2.028 1_556 S
Zn115 O119 2.035 1_455 S
Zn115 O121 2.035 . S
Zn115 O122 2.028 . S
O116 C112 1.258 . S
O116 Zn117 2.035 1_554 S
Zn117 O116 2.035 1_556 S
Zn117 O118 2.028 . S
Zn117 O120 2.028 . S
Zn117 O123 2.035 . S
O118 Zn117 2.028 . S
O118 C124 1.247 . S
O119 Zn115 2.035 1_655 S
O119 C124 1.258 . S
O120 C113 1.247 . S
O120 Zn117 2.028 . S
O121 C113 1.258 1_455 S
O121 Zn115 2.035 . S
O122 Zn115 2.028 . S
O122 C125 1.247 . S
O123 Zn117 2.035 . S
O123 C125 1.258 1_655 S
C124 O118 1.247 . S
C124 O119 1.258 . S
C125 O122 1.247 . S
C125 O123 1.258 1_455 S
C126 O128 1.247 . S
C126 O130 1.258 . S
C127 O134 1.247 . S
C127 O135 1.258 . S
O128 C126 1.247 . S
O128 Zn129 2.028 . S
Zn129 O128 2.028 . S
Zn129 O133 2.035 . S
Zn129 O135 2.035 . S
Zn129 O136 2.028 . S
O130 C126 1.258 . S
O130 Zn131 2.035 . S
Zn131 O130 2.035 . S
Zn131 O132 2.028 . S
Zn131 O134 2.028 . S
Zn131 O137 2.035 . S
O132 Zn131 2.028 . S
O132 C138 1.247 . S
O133 Zn129 2.035 . S
O133 C138 1.258 . S
O134 C127 1.247 . S
O134 Zn131 2.028 . S
O135 C127 1.258 . S
O135 Zn129 2.035 . S
O136 Zn129 2.028 . S
O136 C139 1.247 . S
O137 Zn131 2.035 . S
O137 C139 1.258 . S
C138 O132 1.247 . S
C138 O133 1.258 . S
C139 O136 1.247 . S
C139 O137 1.258 . S
C140 O142 1.247 . S
C140 O144 1.258 . S
C141 O148 1.247 . S
C141 O149 1.258 . S
O142 C140 1.247 . S
O142 Zn143 2.028 . S
Zn143 O142 2.028 . S
Zn143 O147 2.035 . S
Zn143 O149 2.035 . S
Zn143 O150 2.028 . S
O144 C140 1.258 . S
O144 Zn145 2.035 . S
Zn145 O144 2.035 . S
Zn145 O146 2.028 . S
Zn145 O148 2.028 . S
Zn145 O151 2.035 . S
O146 Zn145 2.028 . S
O146 C152 1.247 . S
O147 Zn143 2.035 . S
O147 C152 1.258 . S
O148 C141 1.247 . S
O148 Zn145 2.028 . S
O149 C141 1.258 . S
O149 Zn143 2.035 . S
O150 Zn143 2.028 . S
O150 C153 1.247 . S
O151 Zn145 2.035 . S
O151 C153 1.258 . S
C152 O146 1.247 . S
C152 O147 1.258 . S
C153 O150 1.247 . S
C153 O151 1.258 . S
C154 O156 1.247 . S
C154 O158 1.258 . S
C155 O162 1.247 . S
C155 O163 1.258 . S
O156 C154 1.247 . S
O156 Zn157 2.028 . S
Zn157 O156 2.028 . S
Zn157 O161 2.035 . S
Zn157 O163 2.035 . S
Zn157 O164 2.028 . S
O158 C154 1.258 . S
O158 Zn159 2.035 . S
Zn159 O158 2.035 . S
Zn159 O160 2.028 . S
Zn159 O162 2.028 . S
Zn159 O165 2.035 . S
O160 Zn159 2.028 . S
O160 C166 1.247 . S
O161 Zn157 2.035 . S
O161 C166 1.258 . S
O162 C155 1.247 . S
O162 Zn159 2.028 . S
O163 C155 1.258 . S
O163 Zn157 2.035 . S
O164 Zn157 2.028 . S
O164 C167 1.247 . S
O165 Zn159 2.035 . S
O165 C167 1.258 . S
C166 O160 1.247 . S
C166 O161 1.258 . S
C167 O164 1.247 . S
C167 O165 1.258 . S
C168 O170 1.247 . S
C168 O172 1.258 . S
C169 O176 1.247 . S
C169 O177 1.258 1_455 S
O170 C168 1.247 . S
O170 Zn171 2.028 . S
Zn171 O170 2.028 . S
Zn171 O175 2.035 . S
Zn171 O177 2.035 . S
Zn171 O178 2.028 . S
O172 C168 1.258 . S
O172 Zn173 2.035 1_655 S
Zn173 O172 2.035 1_455 S
Zn173 O174 2.028 . S
Zn173 O176 2.028 . S
Zn173 O179 2.035 . S
O174 Zn173 2.028 . S
O174 C180 1.247 1_455 S
O175 Zn171 2.035 . S
O175 C180 1.258 . S
O176 C169 1.247 . S
O176 Zn173 2.028 . S
O177 C169 1.258 1_655 S
O177 Zn171 2.035 . S
O178 Zn171 2.028 . S
O178 C181 1.247 . S
O179 Zn173 2.035 . S
O179 C181 1.258 1_455 S
C180 O174 1.247 1_655 S
C180 O175 1.258 . S
C181 O178 1.247 . S
C181 O179 1.258 1_655 S
C182 O184 1.247 . S
C182 O186 1.258 . S
C183 O190 1.247 . S
C183 O191 1.258 . S
O184 C182 1.247 . S
O184 Zn185 2.028 . S
Zn185 O184 2.028 . S
Zn185 O189 2.035 . S
Zn185 O191 2.035 . S
Zn185 O192 2.028 . S
O186 C182 1.258 . S
O186 Zn187 2.035 . S
Zn187 O186 2.035 . S
Zn187 O188 2.028 . S
Zn187 O190 2.028 . S
Zn187 O193 2.035 . S
O188 Zn187 2.028 . S
O188 C194 1.247 . S
O189 Zn185 2.035 . S
O189 C194 1.258 . S
O190 C183 1.247 . S
O190 Zn187 2.028 . S
O191 C183 1.258 . S
O191 Zn185 2.035 . S
O192 Zn185 2.028 . S
O192 C195 1.247 . S
O193 Zn187 2.035 . S
O193 C195 1.258 . S
C194 O188 1.247 . S
C194 O189 1.258 . S
C195 O192 1.247 . S
C195 O193 1.258 . S
C196 O198 1.247 . S
C196 O200 1.258 . S
C197 O204 1.247 . S
C197 O205 1.258 . S
O198 C196 1.247 . S
O198 Zn199 2.028 . S
Zn199 O198 2.028 . S
Zn199 O203 2.035 . S
Zn199 O205 2.035 1_554 S
Zn199 O206 2.028 . S
O200 C196 1.258 . S
O200 Zn201 2.035 . S
Zn201 O200 2.035 . S
Zn201 O202 2.028 . S
Zn201 O204 2.028 1_554 S
Zn201 O207 2.035 . S
O202 Zn201 2.028 . S
O202 C208 1.247 . S
O203 Zn199 2.035 . S
O203 C208 1.258 . S
O204 C197 1.247 . S
O204 Zn201 2.028 1_556 S
O205 C197 1.258 . S
O205 Zn199 2.035 1_556 S
O206 Zn199 2.028 . S
O206 C209 1.247 . S
O207 Zn201 2.035 . S
O207 C209 1.258 . S
C208 O202 1.247 . S
C208 O203 1.258 . S
C209 O206 1.247 . S
C209 O207 1.258 . S
C210 O212 1.247 . S
C210 O214 1.258 . S
C211 O218 1.247 . S
C211 O219 1.258 . S
O212 C210 1.247 . S
O212 Zn213 2.028 . S
Zn213 O212 2.028 . S
Zn213 O217 2.035 . S
Zn213 O219 2.035 . S
Zn213 O220 2.028 . S
O214 C210 1.258 . S
O214 Zn215 2.035 . S
Zn215 O214 2.035 . S
Zn215 O216 2.028 . S
Zn215 O218 2.028 . S
Zn215 O221 2.035 . S
O216 Zn215 2.028 . S
O216 C222 1.247 . S
O217 Zn213 2.035 . S
O217 C222 1.258 . S
O218 C211 1.247 . S
O218 Zn215 2.028 . S
O219 C211 1.258 . S
O219 Zn213 2.035 . S
O220 Zn213 2.028 . S
O220 C223 1.247 . S
O221 Zn215 2.035 . S
O221 C223 1.258 . S
C222 O216 1.247 . S
C222 O217 1.258 . S
C223 O220 1.247 . S
C223 O221 1.258 . S
C224 O226 1.247 . S
C224 O228 1.258 . S
C225 O232 1.247 . S
C225 O233 1.258 . S
O226 C224 1.247 . S
O226 Zn227 2.028 . S
Zn227 O226 2.028 . S
Zn227 O231 2.035 . S
Zn227 O233 2.035 . S
Zn227 O234 2.028 . S
O228 C224 1.258 . S
O228 Zn229 2.035 . S
Zn229 O228 2.035 . S
Zn229 O230 2.028 . S
Zn229 O232 2.028 . S
Zn229 O235 2.035 . S
O230 Zn229 2.028 . S
O230 C236 1.247 . S
O231 Zn227 2.035 . S
O231 C236 1.258 . S
O232 C225 1.247 . S
O232 Zn229 2.028 . S
O233 C225 1.258 . S
O233 Zn227 2.035 . S
O234 Zn227 2.028 . S
O234 C237 1.247 . S
O235 Zn229 2.035 . S
O235 C237 1.258 . S
C236 O230 1.247 . S
C236 O231 1.258 . S
C237 O234 1.247 . S
C237 O235 1.258 . S
C238 O240 1.247 . S
C238 O242 1.258 . S
C239 O246 1.247 . S
C239 O247 1.258 . S
O240 C238 1.247 . S
O240 Zn241 2.028 . S
Zn241 O240 2.028 . S
Zn241 O245 2.035 . S
Zn241 O247 2.035 . S
Zn241 O248 2.028 . S
O242 C238 1.258 . S
O242 Zn243 2.035 . S
Zn243 O242 2.035 . S
Zn243 O244 2.028 . S
Zn243 O246 2.028 . S
Zn243 O249 2.035 . S
O244 Zn243 2.028 . S
O244 C250 1.247 . S
O245 Zn241 2.035 . S
O245 C250 1.258 . S
O246 C239 1.247 . S
O246 Zn243 2.028 . S
O247 C239 1.258 . S
O247 Zn241 2.035 . S
O248 Zn241 2.028 . S
O248 C251 1.247 . S
O249 Zn243 2.035 . S
O249 C251 1.258 . S
C250 O244 1.247 . S
C250 O245 1.258 . S
C251 O248 1.247 . S
C251 O249 1.258 . S
C252 O254 1.247 . S
C252 O256 1.258 1_655 S
C253 O260 1.247 1_655 S
C253 O261 1.258 . S
O254 C252 1.247 . S
O254 Zn255 2.028 1_556 S
Zn255 O254 2.028 1_554 S
Zn255 O259 2.035 . S
Zn255 O261 2.035 . S
Zn255 O262 2.028 . S
O256 C252 1.258 1_455 S
O256 Zn257 2.035 1_556 S
Zn257 O256 2.035 1_554 S
Zn257 O258 2.028 1_455 S
Zn257 O260 2.028 . S
Zn257 O263 2.035 . S
O258 Zn257 2.028 1_655 S
O258 C264 1.247 . S
O259 Zn255 2.035 . S
O259 C264 1.258 . S
O260 C253 1.247 1_455 S
O260 Zn257 2.028 . S
O261 C253 1.258 . S
O261 Zn255 2.035 . S
O262 Zn255 2.028 . S
O262 C265 1.247 1_655 S
O263 Zn257 2.035 . S
O263 C265 1.258 . S
C264 O258 1.247 . S
C264 O259 1.258 . S
C265 O262 1.247 1_455 S
C265 O263 1.258 . S
C266 O268 1.247 . S
C266 O270 1.258 . S
C267 O274 1.247 . S
C267 O275 1.258 . S
O268 C266 1.247 . S
O268 Zn269 2.028 . S
Zn269 O268 2.028 . S
Zn269 O273 2.035 . S
Zn269 O275 2.035 . S
Zn269 O276 2.028 . S
O270 C266 1.258 . S
O270 Zn271 2.035 . S
Zn271 O270 2.035 . S
Zn271 O272 2.028 . S
Zn271 O274 2.028 . S
Zn271 O277 2.035 . S
O272 Zn271 2.028 . S
O272 C278 1.247 . S
O273 Zn269 2.035 . S
O273 C278 1.258 . S
O274 C267 1.247 . S
O274 Zn271 2.028 . S
O275 C267 1.258 . S
O275 Zn269 2.035 . S
O276 Zn269 2.028 . S
O276 C279 1.247 . S
O277 Zn271 2.035 . S
O277 C279 1.258 . S
C278 O272 1.247 . S
C278 O273 1.258 . S
C279 O276 1.247 . S
C279 O277 1.258 . S
C280 O282 1.247 . S
C280 O284 1.258 . S
C281 O288 1.247 . S
C281 O289 1.258 . S
O282 C280 1.247 . S
O282 Zn283 2.028 1_554 S
Zn283 O282 2.028 1_556 S
Zn283 O287 2.035 . S
Zn283 O289 2.035 . S
Zn283 O290 2.028 . S
O284 C280 1.258 . S
O284 Zn285 2.035 1_554 S
Zn285 O284 2.035 1_556 S
Zn285 O286 2.028 . S
Zn285 O288 2.028 . S
Zn285 O291 2.035 . S
O286 Zn285 2.028 . S
O286 C292 1.247 . S
O287 Zn283 2.035 . S
O287 C292 1.258 . S
O288 C281 1.247 . S
O288 Zn285 2.028 . S
O289 C281 1.258 . S
O289 Zn283 2.035 . S
O290 Zn283 2.028 . S
O290 C293 1.247 . S
O291 Zn285 2.035 . S
O291 C293 1.258 . S
C292 O286 1.247 . S
C292 O287 1.258 . S
C293 O290 1.247 . S
C293 O291 1.258 . S
C294 O296 1.247 . S
C294 O298 1.258 . S
C295 O302 1.247 . S
C295 O303 1.258 . S
O296 C294 1.247 . S
O296 Zn297 2.028 . S
Zn297 O296 2.028 . S
Zn297 O301 2.035 . S
Zn297 O303 2.035 . S
Zn297 O304 2.028 . S
O298 C294 1.258 . S
O298 Zn299 2.035 . S
Zn299 O298 2.035 . S
Zn299 O300 2.028 . S
Zn299 O302 2.028 . S
Zn299 O305 2.035 . S
O300 Zn299 2.028 . S
O300 C306 1.247 . S
O301 Zn297 2.035 . S
O301 C306 1.258 . S
O302 C295 1.247 . S
O302 Zn299 2.028 . S
O303 C295 1.258 . S
O303 Zn297 2.035 . S
O304 Zn297 2.028 . S
O304 C307 1.247 . S
O305 Zn299 2.035 . S
O305 C307 1.258 . S
C306 O300 1.247 . S
C306 O301 1.258 . S
C307 O304 1.247 . S
C307 O305 1.258 . S
C308 O310 1.247 . S
C308 O312 1.258 . S
C309 O316 1.247 1_455 S
C309 O317 1.258 . S
O310 C308 1.247 . S
O310 Zn311 2.028 1_655 S
Zn311 O310 2.028 1_455 S
Zn311 O315 2.035 . S
Zn311 O317 2.035 . S
Zn311 O318 2.028 . S
O312 C308 1.258 . S
O312 Zn313 2.035 . S
Zn313 O312 2.035 . S
Zn313 O314 2.028 . S
Zn313 O316 2.028 . S
Zn313 O319 2.035 . S
O314 Zn313 2.028 . S
O314 C320 1.247 . S
O315 Zn311 2.035 . S
O315 C320 1.258 1_455 S
O316 C309 1.247 1_655 S
O316 Zn313 2.028 . S
O317 C309 1.258 . S
O317 Zn311 2.035 . S
O318 Zn311 2.028 . S
O318 C321 1.247 1_455 S
O319 Zn313 2.035 . S
O319 C321 1.258 . S
C320 O314 1.247 . S
C320 O315 1.258 1_655 S
C321 O318 1.247 1_655 S
C321 O319 1.258 . S
C322 O324 1.247 . S
C322 O326 1.258 . S
C323 O330 1.247 . S
C323 O331 1.258 . S
O324 C322 1.247 . S
O324 Zn325 2.028 . S
Zn325 O324 2.028 . S
Zn325 O329 2.035 . S
Zn325 O331 2.035 . S
Zn325 O332 2.028 . S
O326 C322 1.258 . S
O326 Zn327 2.035 . S
Zn327 O326 2.035 . S
Zn327 O328 2.028 . S
Zn327 O330 2.028 . S
Zn327 O333 2.035 . S
O328 Zn327 2.028 . S
O328 C334 1.247 . S
O329 Zn325 2.035 . S
O329 C334 1.258 . S
O330 C323 1.247 . S
O330 Zn327 2.028 . S
O331 C323 1.258 . S
O331 Zn325 2.035 . S
O332 Zn325 2.028 . S
O332 C335 1.247 . S
O333 Zn327 2.035 . S
O333 C335 1.258 . S
C334 O328 1.247 . S
C334 O329 1.258 . S
C335 O332 1.247 . S
C335 O333 1.258 . S
C336 O338 1.247 . S
C336 O340 1.258 . S
C337 O344 1.247 . S
C337 O345 1.258 . S
O338 C336 1.247 . S
O338 Zn339 2.028 . S
Zn339 O338 2.028 . S
Zn339 O343 2.035 . S
Zn339 O345 2.035 . S
Zn339 O346 2.028 . S
O340 C336 1.258 . S
O340 Zn341 2.035 . S
Zn341 O340 2.035 . S
Zn341 O342 2.028 . S
Zn341 O344 2.028 . S
Zn341 O347 2.035 . S
O342 Zn341 2.028 . S
O342 C348 1.247 . S
O343 Zn339 2.035 . S
O343 C348 1.258 . S
O344 C337 1.247 . S
O344 Zn341 2.028 . S
O345 C337 1.258 . S
O345 Zn339 2.035 . S
O346 Zn339 2.028 . S
O346 C349 1.247 . S
O347 Zn341 2.035 . S
O347 C349 1.258 . S
C348 O342 1.247 . S
C348 O343 1.258 . S
C349 O346 1.247 . S
C349 O347 1.258 . S
C350 O352 1.247 . S
C350 O354 1.258 . S
C351 O358 1.247 . S
C351 O359 1.258 . S
O352 C350 1.247 . S
O352 Zn353 2.028 . S
Zn353 O352 2.028 . S
Zn353 O357 2.035 . S
Zn353 O359 2.035 . S
Zn353 O360 2.028 . S
O354 C350 1.258 . S
O354 Zn355 2.035 . S
Zn355 O354 2.035 . S
Zn355 O356 2.028 . S
Zn355 O358 2.028 . S
Zn355 O361 2.035 . S
O356 Zn355 2.028 . S
O356 C362 1.247 . S
O357 Zn353 2.035 . S
O357 C362 1.258 . S
O358 C351 1.247 . S
O358 Zn355 2.028 . S
O359 C351 1.258 . S
O359 Zn353 2.035 . S
O360 Zn353 2.028 . S
O360 C363 1.247 . S
O361 Zn355 2.035 . S
O361 C363 1.258 . S
C362 O356 1.247 . S
C362 O357 1.258 . S
C363 O360 1.247 . S
C363 O361 1.258 . S
C364 O366 1.247 . S
C364 O368 1.258 . S
C365 O372 1.247 . S
C365 O373 1.258 1_655 S
O366 C364 1.247 . S
O366 Zn367 2.028 . S
Zn367 O366 2.028 . S
Zn367 O371 2.035 1_556 S
Zn367 O373 2.035 . S
Zn367 O374 2.028 . S
O368 C364 1.258 . S
O368 Zn369 2.035 1_455 S
Zn369 O368 2.035 1_655 S
Zn369 O370 2.028 1_556 S
Zn369 O372 2.028 . S
Zn369 O375 2.035 . S
O370 Zn369 2.028 1_554 S
O370 C376 1.247 1_655 S
O371 Zn367 2.035 1_554 S
O371 C376 1.258 . S
O372 C365 1.247 . S
O372 Zn369 2.028 . S
O373 C365 1.258 1_455 S
O373 Zn367 2.035 . S
O374 Zn367 2.028 . S
O374 C377 1.247 . S
O375 Zn369 2.035 . S
O375 C377 1.258 1_655 S
C376 O370 1.247 1_455 S
C376 O371 1.258 . S
C377 O374 1.247 . S
C377 O375 1.258 1_455 S
C378 O380 1.247 . S
C378 O382 1.258 . S
C379 O386 1.247 . S
C379 O387 1.258 . S
O380 C378 1.247 . S
O380 Zn381 2.028 . S
Zn381 O380 2.028 . S
Zn381 O385 2.035 . S
Zn381 O387 2.035 . S
Zn381 O388 2.028 . S
O382 C378 1.258 . S
O382 Zn383 2.035 . S
Zn383 O382 2.035 . S
Zn383 O384 2.028 . S
Zn383 O386 2.028 . S
Zn383 O389 2.035 . S
O384 Zn383 2.028 . S
O384 C390 1.247 . S
O385 Zn381 2.035 . S
O385 C390 1.258 . S
O386 C379 1.247 . S
O386 Zn383 2.028 . S
O387 C379 1.258 . S
O387 Zn381 2.035 . S
O388 Zn381 2.028 . S
O388 C391 1.247 . S
O389 Zn383 2.035 . S
O389 C391 1.258 . S
C390 O384 1.247 . S
C390 O385 1.258 . S
C391 O388 1.247 . S
C391 O389 1.258 . S
C392 O394 1.247 . S
C392 O396 1.258 . S
C393 O400 1.247 . S
C393 O401 1.258 . S
O394 C392 1.247 . S
O394 Zn395 2.028 . S
Zn395 O394 2.028 . S
Zn395 O399 2.035 . S
Zn395 O401 2.035 1_554 S
Zn395 O402 2.028 . S
O396 C392 1.258 . S
O396 Zn397 2.035 . S
Zn397 O396 2.035 . S
Zn397 O398 2.028 . S
Zn397 O400 2.028 1_554 S
Zn397 O403 2.035 . S
O398 Zn397 2.028 . S
O398 C404 1.247 . S
O399 Zn395 2.035 . S
O399 C404 1.258 . S
O400 C393 1.247 . S
O400 Zn397 2.028 1_556 S
O401 C393 1.258 . S
O401 Zn395 2.035 1_556 S
O402 Zn395 2.028 . S
O402 C405 1.247 . S
O403 Zn397 2.035 . S
O403 C405 1.258 . S
C404 O398 1.247 . S
C404 O399 1.258 . S
C405 O402 1.247 . S
C405 O403 1.258 . S
C406 O408 1.247 . S
C406 O410 1.258 . S
C407 O414 1.247 . S
C407 O415 1.258 . S
O408 C406 1.247 . S
O408 Zn409 2.028 . S
Zn409 O408 2.028 . S
Zn409 O413 2.035 . S
Zn409 O415 2.035 . S
Zn409 O416 2.028 . S
O410 C406 1.258 . S
O410 Zn411 2.035 . S
Zn411 O410 2.035 . S
Zn411 O412 2.028 . S
Zn411 O414 2.028 . S
Zn411 O417 2.035 . S
O412 Zn411 2.028 . S
O412 C418 1.247 . S
O413 Zn409 2.035 . S
O413 C418 1.258 . S
O414 C407 1.247 . S
O414 Zn411 2.028 . S
O415 C407 1.258 . S
O415 Zn409 2.035 . S
O416 Zn409 2.028 . S
O416 C419 1.247 . S
O417 Zn411 2.035 . S
O417 C419 1.258 . S
C418 O412 1.247 . S
C418 O413 1.258 . S
C419 O416 1.247 . S
C419 O417 1.258 . S
C420 O422 1.247 . S
C420 O424 1.258 . S
C421 O428 1.247 . S
C421 O429 1.258 1_655 S
O422 C420 1.247 . S
O422 Zn423 2.028 . S
Zn423 O422 2.028 . S
Zn423 O427 2.035 . S
Zn423 O429 2.035 . S
Zn423 O430 2.028 . S
O424 C420 1.258 . S
O424 Zn425 2.035 1_455 S
Zn425 O424 2.035 1_655 S
Zn425 O426 2.028 . S
Zn425 O428 2.028 . S
Zn425 O431 2.035 . S
O426 Zn425 2.028 . S
O426 C432 1.247 1_655 S
O427 Zn423 2.035 . S
O427 C432 1.258 . S
O428 C421 1.247 . S
O428 Zn425 2.028 . S
O429 C421 1.258 1_455 S
O429 Zn423 2.035 . S
O430 Zn423 2.028 . S
O430 C433 1.247 . S
O431 Zn425 2.035 . S
O431 C433 1.258 1_655 S
C432 O426 1.247 1_455 S
C432 O427 1.258 . S
C433 O430 1.247 . S
C433 O431 1.258 1_455 S
C434 O436 1.247 . S
C434 O438 1.258 . S
C435 O442 1.247 . S
C435 O443 1.258 . S
O436 C434 1.247 . S
O436 Zn437 2.028 . S
Zn437 O436 2.028 . S
Zn437 O441 2.035 . S
Zn437 O443 2.035 . S
Zn437 O444 2.028 . S
O438 C434 1.258 . S
O438 Zn439 2.035 . S
Zn439 O438 2.035 . S
Zn439 O440 2.028 . S
Zn439 O442 2.028 . S
Zn439 O445 2.035 . S
O440 Zn439 2.028 . S
O440 C446 1.247 . S
O441 Zn437 2.035 . S
O441 C446 1.258 . S
O442 C435 1.247 . S
O442 Zn439 2.028 . S
O443 C435 1.258 . S
O443 Zn437 2.035 . S
O444 Zn437 2.028 . S
O444 C447 1.247 . S
O445 Zn439 2.035 . S
O445 C447 1.258 . S
C446 O440 1.247 . S
C446 O441 1.258 . S
C447 O444 1.247 . S
C447 O445 1.258 . S
H448 C460 0.924 1_455 S
H449 C462 0.930 . S
H450 C463 0.930 . S
H451 C467 0.959 . S
H452 C467 0.959 . S
H453 C467 0.961 . S
H454 C468 0.960 . S
H455 C468 0.961 1_455 S
H456 C468 0.959 . S
H457 C471 0.929 . S
H458 C472 0.939 . S
H459 C474 0.930 . S
C460 H448 0.924 1_655 S
C460 C461 1.406 . S
C460 C465 1.397 1_655 S
C461 C460 1.406 . S
C461 C462 1.376 . S
C462 H449 0.930 . S
C462 C461 1.376 . S
C462 C463 1.388 . S
C463 H450 0.930 . S
C463 C462 1.388 . S
C463 C464 1.390 . S
C464 C463 1.390 . S
C464 C465 1.377 1_655 S
C464 C470 1.465 . S
C465 C460 1.397 1_455 S
C465 C464 1.377 1_455 S
C465 C466 1.534 . S
C466 C465 1.534 . S
C466 C467 1.502 . S
C466 C468 1.561 1_455 S
C466 C469 1.526 . S
C467 H451 0.959 . S
C467 H452 0.959 . S
C467 H453 0.961 . S
C467 C466 1.502 . S
C468 H454 0.960 . S
C468 H455 0.961 1_655 S
C468 H456 0.959 . S
C468 C466 1.561 1_655 S
C469 C466 1.526 . S
C469 C470 1.396 1_455 S
C469 C474 1.390 . S
C470 C464 1.465 . S
C470 C469 1.396 1_655 S
C470 C471 1.399 . S
C471 H457 0.929 . S
C471 C470 1.399 . S
C471 C472 1.398 . S
C472 H458 0.939 . S
C472 C471 1.398 . S
C472 C473 1.370 1_655 S
C473 C472 1.370 1_455 S
C473 C474 1.387 . S
C474 H459 0.930 . S
C474 C469 1.390 . S
C474 C473 1.387 . S
H475 C487 0.930 . S
H476 C489 0.930 . S
H477 C490 0.930 . S
H478 C494 0.959 . S
H479 C494 0.959 . S
H480 C494 0.961 . S
H481 C495 0.960 . S
H482 C495 0.961 . S
H483 C495 0.959 . S
H484 C498 0.929 . S
H485 C499 0.931 . S
H486 C501 0.930 . S
C487 H475 0.930 . S
C487 C488 1.399 . S
C487 C492 1.399 1_556 S
C488 C487 1.399 . S
C488 C489 1.376 . S
C489 H476 0.930 . S
C489 C488 1.376 . S
C489 C490 1.388 1_556 S
C490 H477 0.930 . S
C490 C489 1.388 1_554 S
C490 C491 1.390 . S
C491 C490 1.390 . S
C491 C492 1.394 . S
C491 C497 1.465 . S
C492 C487 1.399 1_554 S
C492 C491 1.394 . S
C492 C493 1.516 . S
C493 C492 1.516 . S
C493 C494 1.502 . S
C493 C495 1.561 . S
C493 C496 1.526 . S
C494 H478 0.959 . S
C494 H479 0.959 . S
C494 H480 0.961 . S
C494 C493 1.502 . S
C495 H481 0.960 . S
C495 H482 0.961 . S
C495 H483 0.959 . S
C495 C493 1.561 . S
C496 C493 1.526 . S
C496 C497 1.396 . S
C496 C501 1.390 . S
C497 C491 1.465 . S
C497 C496 1.396 . S
C497 C498 1.399 . S
C498 H484 0.929 . S
C498 C497 1.399 . S
C498 C499 1.385 . S
C499 H485 0.931 . S
C499 C498 1.385 . S
C499 C500 1.389 . S
C500 C499 1.389 . S
C500 C501 1.387 . S
C501 H486 0.930 . S
C501 C496 1.390 . S
C501 C500 1.387 . S
H502 C514 0.930 . S
H503 C516 0.930 . S
H504 C517 0.930 . S
H505 C521 0.959 . S
H506 C521 0.959 . S
H507 C521 0.961 . S
H508 C522 0.960 . S
H509 C522 0.961 . S
H510 C522 0.959 . S
H511 C525 0.929 . S
H512 C526 0.931 . S
H513 C528 0.930 . S
C514 H502 0.930 . S
C514 C515 1.399 . S
C514 C519 1.399 . S
C515 C514 1.399 . S
C515 C516 1.376 . S
C516 H503 0.930 . S
C516 C515 1.376 . S
C516 C517 1.388 . S
C517 H504 0.930 . S
C517 C516 1.388 . S
C517 C518 1.390 . S
C518 C517 1.390 . S
C518 C519 1.394 . S
C518 C524 1.465 . S
C519 C514 1.399 . S
C519 C518 1.394 . S
C519 C520 1.516 . S
C520 C519 1.516 . S
C520 C521 1.502 . S
C520 C522 1.561 . S
C520 C523 1.526 . S
C521 H505 0.959 . S
C521 H506 0.959 . S
C521 H507 0.961 . S
C521 C520 1.502 . S
C522 H508 0.960 . S
C522 H509 0.961 . S
C522 H510 0.959 . S
C522 C520 1.561 . S
C523 C520 1.526 . S
C523 C524 1.396 . S
C523 C528 1.390 . S
C524 C518 1.465 . S
C524 C523 1.396 . S
C524 C525 1.399 . S
C525 H511 0.929 . S
C525 C524 1.399 . S
C525 C526 1.385 . S
C526 H512 0.931 . S
C526 C525 1.385 . S
C526 C527 1.389 . S
C527 C526 1.389 . S
C527 C528 1.387 . S
C528 H513 0.930 . S
C528 C523 1.390 . S
C528 C527 1.387 . S
H529 C541 0.930 . S
H530 C543 0.930 . S
H531 C544 0.930 . S
H532 C548 0.959 . S
H533 C548 0.959 . S
H534 C548 0.961 . S
H535 C549 0.960 . S
H536 C549 0.961 . S
H537 C549 0.959 . S
H538 C552 0.929 . S
H539 C553 0.931 . S
H540 C555 0.930 . S
C541 H529 0.930 . S
C541 C542 1.399 . S
C541 C546 1.399 . S
C542 C541 1.399 . S
C542 C543 1.376 . S
C543 H530 0.930 . S
C543 C542 1.376 . S
C543 C544 1.388 . S
C544 H531 0.930 . S
C544 C543 1.388 . S
C544 C545 1.390 . S
C545 C544 1.390 . S
C545 C546 1.394 . S
C545 C551 1.465 . S
C546 C541 1.399 . S
C546 C545 1.394 . S
C546 C547 1.516 . S
C547 C546 1.516 . S
C547 C548 1.502 . S
C547 C549 1.561 . S
C547 C550 1.526 . S
C548 H532 0.959 . S
C548 H533 0.959 . S
C548 H534 0.961 . S
C548 C547 1.502 . S
C549 H535 0.960 . S
C549 H536 0.961 . S
C549 H537 0.959 . S
C549 C547 1.561 . S
C550 C547 1.526 . S
C550 C551 1.396 . S
C550 C555 1.390 . S
C551 C545 1.465 . S
C551 C550 1.396 . S
C551 C552 1.399 . S
C552 H538 0.929 . S
C552 C551 1.399 . S
C552 C553 1.385 . S
C553 H539 0.931 . S
C553 C552 1.385 . S
C553 C554 1.389 . S
C554 C553 1.389 . S
C554 C555 1.387 . S
C555 H540 0.930 . S
C555 C550 1.390 . S
C555 C554 1.387 . S
H556 C568 0.930 1_455 S
H557 C570 0.930 . S
H558 C571 0.930 . S
H559 C575 0.959 . S
H560 C575 0.959 . S
H561 C575 0.961 . S
H562 C576 0.960 . S
H563 C576 0.961 . S
H564 C576 0.959 . S
H565 C579 0.929 . S
H566 C580 0.931 . S
H567 C582 0.930 . S
C568 H556 0.930 1_655 S
C568 C569 1.399 . S
C568 C573 1.402 . S
C569 C568 1.399 . S
C569 C570 1.376 . S
C570 H557 0.930 . S
C570 C569 1.376 . S
C570 C571 1.388 . S
C571 H558 0.930 . S
C571 C570 1.388 . S
C571 C572 1.390 . S
C572 C571 1.390 . S
C572 C573 1.403 . S
C572 C578 1.465 . S
C573 C568 1.402 . S
C573 C572 1.403 . S
C573 C574 1.506 1_655 S
C574 C573 1.506 1_455 S
C574 C575 1.502 . S
C574 C576 1.561 1_455 S
C574 C577 1.526 . S
C575 H559 0.959 . S
C575 H560 0.959 . S
C575 H561 0.961 . S
C575 C574 1.502 . S
C576 H562 0.960 . S
C576 H563 0.961 . S
C576 H564 0.959 . S
C576 C574 1.561 1_655 S
C577 C574 1.526 . S
C577 C578 1.396 1_455 S
C577 C582 1.390 . S
C578 C572 1.465 . S
C578 C577 1.396 1_655 S
C578 C579 1.399 . S
C579 H565 0.929 . S
C579 C578 1.399 . S
C579 C580 1.385 1_655 S
C580 H566 0.931 . S
C580 C579 1.385 1_455 S
C580 C581 1.389 . S
C581 C580 1.389 . S
C581 C582 1.387 . S
C582 H567 0.930 . S
C582 C577 1.390 . S
C582 C581 1.387 . S
H583 C595 0.930 . S
H584 C597 0.930 . S
H585 C598 0.930 . S
H586 C602 0.959 . S
H587 C602 0.959 . S
H588 C602 0.961 . S
H589 C603 0.960 . S
H590 C603 0.961 . S
H591 C603 0.959 . S
H592 C606 0.929 . S
H593 C607 0.931 . S
H594 C609 0.930 . S
C595 H583 0.930 . S
C595 C596 1.399 . S
C595 C600 1.399 . S
C596 C595 1.399 . S
C596 C597 1.376 . S
C597 H584 0.930 . S
C597 C596 1.376 . S
C597 C598 1.388 . S
C598 H585 0.930 . S
C598 C597 1.388 . S
C598 C599 1.390 . S
C599 C598 1.390 . S
C599 C600 1.394 . S
C599 C605 1.465 . S
C600 C595 1.399 . S
C600 C599 1.394 . S
C600 C601 1.516 . S
C601 C600 1.516 . S
C601 C602 1.502 . S
C601 C603 1.561 . S
C601 C604 1.526 . S
C602 H586 0.959 . S
C602 H587 0.959 . S
C602 H588 0.961 . S
C602 C601 1.502 . S
C603 H589 0.960 . S
C603 H590 0.961 . S
C603 H591 0.959 . S
C603 C601 1.561 . S
C604 C601 1.526 . S
C604 C605 1.396 . S
C604 C609 1.390 1_556 S
C605 C599 1.465 . S
C605 C604 1.396 . S
C605 C606 1.399 . S
C606 H592 0.929 . S
C606 C605 1.399 . S
C606 C607 1.385 1_556 S
C607 H593 0.931 . S
C607 C606 1.385 1_554 S
C607 C608 1.389 . S
C608 C607 1.389 . S
C608 C609 1.387 . S
C609 H594 0.930 . S
C609 C604 1.390 1_554 S
C609 C608 1.387 . S
H610 C622 0.930 . S
H611 C624 0.930 . S
H612 C625 0.930 . S
H613 C629 0.959 . S
H614 C629 0.959 . S
H615 C629 0.961 . S
H616 C630 0.960 . S
H617 C630 0.961 . S
H618 C630 0.959 . S
H619 C633 0.929 . S
H620 C634 0.931 . S
H621 C636 0.930 . S
C622 H610 0.930 . S
C622 C623 1.399 . S
C622 C627 1.399 . S
C623 C622 1.399 . S
C623 C624 1.376 . S
C624 H611 0.930 . S
C624 C623 1.376 . S
C624 C625 1.388 . S
C625 H612 0.930 . S
C625 C624 1.388 . S
C625 C626 1.390 . S
C626 C625 1.390 . S
C626 C627 1.394 . S
C626 C632 1.465 . S
C627 C622 1.399 . S
C627 C626 1.394 . S
C627 C628 1.516 . S
C628 C627 1.516 . S
C628 C629 1.502 . S
C628 C630 1.561 . S
C628 C631 1.526 . S
C629 H613 0.959 . S
C629 H614 0.959 . S
C629 H615 0.961 . S
C629 C628 1.502 . S
C630 H616 0.960 . S
C630 H617 0.961 . S
C630 H618 0.959 . S
C630 C628 1.561 . S
C631 C628 1.526 . S
C631 C632 1.396 . S
C631 C636 1.390 . S
C632 C626 1.465 . S
C632 C631 1.396 . S
C632 C633 1.399 . S
C633 H619 0.929 . S
C633 C632 1.399 . S
C633 C634 1.385 . S
C634 H620 0.931 . S
C634 C633 1.385 . S
C634 C635 1.389 . S
C635 C634 1.389 . S
C635 C636 1.387 . S
C636 H621 0.930 . S
C636 C631 1.390 . S
C636 C635 1.387 . S
H637 C649 0.930 . S
H638 C651 0.930 . S
H639 C652 0.930 . S
H640 C656 0.959 . S
H641 C656 0.959 . S
H642 C656 0.961 . S
H643 C657 0.960 . S
H644 C657 0.961 . S
H645 C657 0.959 . S
H646 C660 0.929 . S
H647 C661 0.931 . S
H648 C663 0.930 . S
C649 H637 0.930 . S
C649 C650 1.399 . S
C649 C654 1.399 . S
C650 C649 1.399 . S
C650 C651 1.376 . S
C651 H638 0.930 . S
C651 C650 1.376 . S
C651 C652 1.388 . S
C652 H639 0.930 . S
C652 C651 1.388 . S
C652 C653 1.390 . S
C653 C652 1.390 . S
C653 C654 1.394 . S
C653 C659 1.465 . S
C654 C649 1.399 . S
C654 C653 1.394 . S
C654 C655 1.516 . S
C655 C654 1.516 . S
C655 C656 1.502 . S
C655 C657 1.561 . S
C655 C658 1.526 . S
C656 H640 0.959 . S
C656 H641 0.959 . S
C656 H642 0.961 . S
C656 C655 1.502 . S
C657 H643 0.960 . S
C657 H644 0.961 . S
C657 H645 0.959 . S
C657 C655 1.561 . S
C658 C655 1.526 . S
C658 C659 1.396 . S
C658 C663 1.390 . S
C659 C653 1.465 . S
C659 C658 1.396 . S
C659 C660 1.399 . S
C660 H646 0.929 . S
C660 C659 1.399 . S
C660 C661 1.385 . S
C661 H647 0.931 . S
C661 C660 1.385 . S
C661 C662 1.389 . S
C662 C661 1.389 . S
C662 C663 1.387 . S
C663 H648 0.930 . S
C663 C658 1.390 . S
C663 C662 1.387 . S
H664 C676 0.930 1_655 S
H665 C678 0.930 . S
H666 C679 0.930 . S
H667 C683 0.959 . S
H668 C683 0.959 . S
H669 C683 0.961 . S
H670 C684 0.960 . S
H671 C684 0.961 . S
H672 C684 0.959 . S
H673 C687 0.929 . S
H674 C688 0.936 . S
H675 C690 0.930 . S
C676 H664 0.930 1_455 S
C676 C677 1.399 . S
C676 C681 1.401 . S
C677 C676 1.399 . S
C677 C678 1.376 . S
C678 H665 0.930 . S
C678 C677 1.376 . S
C678 C679 1.388 . S
C679 H666 0.930 . S
C679 C678 1.388 . S
C679 C680 1.390 . S
C680 C679 1.390 . S
C680 C681 1.402 . S
C680 C686 1.465 . S
C681 C676 1.401 . S
C681 C680 1.402 . S
C681 C682 1.508 1_455 S
C682 C681 1.508 1_655 S
C682 C683 1.502 . S
C682 C684 1.561 1_655 S
C682 C685 1.526 . S
C683 H667 0.959 . S
C683 H668 0.959 . S
C683 H669 0.961 . S
C683 C682 1.502 . S
C684 H670 0.960 . S
C684 H671 0.961 . S
C684 H672 0.959 . S
C684 C682 1.561 1_455 S
C685 C682 1.526 . S
C685 C686 1.396 1_655 S
C685 C690 1.390 . S
C686 C680 1.465 . S
C686 C685 1.396 1_455 S
C686 C687 1.399 . S
C687 H673 0.929 . S
C687 C686 1.399 . S
C687 C688 1.385 1_455 S
C688 H674 0.936 . S
C688 C687 1.385 1_655 S
C688 C689 1.389 . S
C689 C688 1.389 . S
C689 C690 1.387 . S
C690 H675 0.930 . S
C690 C685 1.390 . S
C690 C689 1.387 . S
H691 C703 0.930 . S
H692 C705 0.930 . S
H693 C706 0.927 1_556 S
H694 C710 0.959 . S
H695 C710 0.959 . S
H696 C710 0.961 . S
H697 C711 0.960 . S
H698 C711 0.961 . S
H699 C711 0.959 . S
H700 C714 0.929 . S
H701 C715 0.931 . S
H702 C717 0.930 . S
C703 H691 0.930 . S
C703 C704 1.399 . S
C703 C708 1.399 1_554 S
C704 C703 1.399 . S
C704 C705 1.376 . S
C705 H692 0.930 . S
C705 C704 1.376 . S
C705 C706 1.388 . S
C706 H693 0.927 1_554 S
C706 C705 1.388 . S
C706 C707 1.390 1_554 S
C707 C706 1.390 1_556 S
C707 C708 1.394 . S
C707 C713 1.465 . S
C708 C703 1.399 1_556 S
C708 C707 1.394 . S
C708 C709 1.516 . S
C709 C708 1.516 . S
C709 C710 1.502 . S
C709 C711 1.561 . S
C709 C712 1.526 . S
C710 H694 0.959 . S
C710 H695 0.959 . S
C710 H696 0.961 . S
C710 C709 1.502 . S
C711 H697 0.960 . S
C711 H698 0.961 . S
C711 H699 0.959 . S
C711 C709 1.561 . S
C712 C709 1.526 . S
C712 C713 1.396 . S
C712 C717 1.390 . S
C713 C707 1.465 . S
C713 C712 1.396 . S
C713 C714 1.399 . S
C714 H700 0.929 . S
C714 C713 1.399 . S
C714 C715 1.385 . S
C715 H701 0.931 . S
C715 C714 1.385 . S
C715 C716 1.389 . S
C716 C715 1.389 . S
C716 C717 1.387 . S
C717 H702 0.930 . S
C717 C712 1.390 . S
C717 C716 1.387 . S
H718 C730 0.930 . S
H719 C732 0.930 . S
H720 C733 0.930 . S
H721 C737 0.959 . S
H722 C737 0.959 . S
H723 C737 0.961 . S
H724 C738 0.960 . S
H725 C738 0.961 . S
H726 C738 0.959 . S
H727 C741 0.929 . S
H728 C742 0.931 . S
H729 C744 0.930 . S
C730 H718 0.930 . S
C730 C731 1.399 . S
C730 C735 1.399 . S
C731 C730 1.399 . S
C731 C732 1.376 . S
C732 H719 0.930 . S
C732 C731 1.376 . S
C732 C733 1.388 . S
C733 H720 0.930 . S
C733 C732 1.388 . S
C733 C734 1.390 . S
C734 C733 1.390 . S
C734 C735 1.394 . S
C734 C740 1.465 . S
C735 C730 1.399 . S
C735 C734 1.394 . S
C735 C736 1.516 . S
C736 C735 1.516 . S
C736 C737 1.502 . S
C736 C738 1.561 . S
C736 C739 1.526 . S
C737 H721 0.959 . S
C737 H722 0.959 . S
C737 H723 0.961 . S
C737 C736 1.502 . S
C738 H724 0.960 . S
C738 H725 0.961 . S
C738 H726 0.959 . S
C738 C736 1.561 . S
C739 C736 1.526 . S
C739 C740 1.396 . S
C739 C744 1.390 . S
C740 C734 1.465 . S
C740 C739 1.396 . S
C740 C741 1.399 . S
C741 H727 0.929 . S
C741 C740 1.399 . S
C741 C742 1.385 . S
C742 H728 0.931 . S
C742 C741 1.385 . S
C742 C743 1.389 . S
C743 C742 1.389 . S
C743 C744 1.387 . S
C744 H729 0.930 . S
C744 C739 1.390 . S
C744 C743 1.387 . S
H745 C757 0.930 . S
H746 C759 0.930 . S
H747 C760 0.930 . S
H748 C764 0.959 . S
H749 C764 0.959 . S
H750 C764 0.961 . S
H751 C765 0.960 . S
H752 C765 0.961 . S
H753 C765 0.959 . S
H754 C768 0.929 . S
H755 C769 0.931 . S
H756 C771 0.930 . S
C757 H745 0.930 . S
C757 C758 1.399 . S
C757 C762 1.399 . S
C758 C757 1.399 . S
C758 C759 1.376 . S
C759 H746 0.930 . S
C759 C758 1.376 . S
C759 C760 1.388 . S
C760 H747 0.930 . S
C760 C759 1.388 . S
C760 C761 1.390 . S
C761 C760 1.390 . S
C761 C762 1.394 . S
C761 C767 1.465 . S
C762 C757 1.399 . S
C762 C761 1.394 . S
C762 C763 1.516 . S
C763 C762 1.516 . S
C763 C764 1.502 . S
C763 C765 1.561 . S
C763 C766 1.526 . S
C764 H748 0.959 . S
C764 H749 0.959 . S
C764 H750 0.961 . S
C764 C763 1.502 . S
C765 H751 0.960 . S
C765 H752 0.961 . S
C765 H753 0.959 . S
C765 C763 1.561 . S
C766 C763 1.526 . S
C766 C767 1.396 . S
C766 C771 1.390 . S
C767 C761 1.465 . S
C767 C766 1.396 . S
C767 C768 1.399 . S
C768 H754 0.929 . S
C768 C767 1.399 . S
C768 C769 1.385 . S
C769 H755 0.931 . S
C769 C768 1.385 . S
C769 C770 1.389 . S
C770 C769 1.389 . S
C770 C771 1.387 . S
C771 H756 0.930 . S
C771 C766 1.390 . S
C771 C770 1.387 . S
H772 C784 0.930 1_455 S
H773 C786 0.930 . S
H774 C787 0.930 . S
H775 C791 0.959 . S
H776 C791 0.959 . S
H777 C791 0.961 . S
H778 C792 0.960 . S
H779 C792 0.955 1_455 S
H780 C792 0.959 . S
H781 C795 0.929 . S
H782 C796 0.931 . S
H783 C798 0.930 . S
C784 H772 0.930 1_655 S
C784 C785 1.399 . S
C784 C789 1.399 . S
C785 C784 1.399 . S
C785 C786 1.376 . S
C786 H773 0.930 . S
C786 C785 1.376 . S
C786 C787 1.388 . S
C787 H774 0.930 . S
C787 C786 1.388 . S
C787 C788 1.390 . S
C788 C787 1.390 . S
C788 C789 1.394 . S
C788 C794 1.465 . S
C789 C784 1.399 . S
C789 C788 1.394 . S
C789 C790 1.516 1_655 S
C790 C789 1.516 1_455 S
C790 C791 1.502 . S
C790 C792 1.561 1_455 S
C790 C793 1.526 . S
C791 H775 0.959 . S
C791 H776 0.959 . S
C791 H777 0.961 . S
C791 C790 1.502 . S
C792 H778 0.960 . S
C792 H779 0.955 1_655 S
C792 H780 0.959 . S
C792 C790 1.561 1_655 S
C793 C790 1.526 . S
C793 C794 1.396 1_455 S
C793 C798 1.390 . S
C794 C788 1.465 . S
C794 C793 1.396 1_655 S
C794 C795 1.399 . S
C795 H781 0.929 . S
C795 C794 1.399 . S
C795 C796 1.385 . S
C796 H782 0.931 . S
C796 C795 1.385 . S
C796 C797 1.389 1_655 S
C797 C796 1.389 1_455 S
C797 C798 1.387 . S
C798 H783 0.930 . S
C798 C793 1.390 . S
C798 C797 1.387 . S
H799 C811 0.930 . S
H800 C813 0.930 . S
H801 C814 0.930 . S
H802 C818 0.959 . S
H803 C818 0.959 . S
H804 C818 0.961 . S
H805 C819 0.960 . S
H806 C819 0.961 . S
H807 C819 0.959 . S
H808 C822 0.928 1_554 S
H809 C823 0.931 . S
H810 C825 0.930 . S
C811 H799 0.930 . S
C811 C812 1.399 . S
C811 C816 1.399 . S
C812 C811 1.399 . S
C812 C813 1.376 . S
C813 H800 0.930 . S
C813 C812 1.376 . S
C813 C814 1.388 . S
C814 H801 0.930 . S
C814 C813 1.388 . S
C814 C815 1.390 . S
C815 C814 1.390 . S
C815 C816 1.394 . S
C815 C821 1.465 . S
C816 C811 1.399 . S
C816 C815 1.394 . S
C816 C817 1.516 . S
C817 C816 1.516 . S
C817 C818 1.502 . S
C817 C819 1.561 . S
C817 C820 1.526 . S
C818 H802 0.959 . S
C818 H803 0.959 . S
C818 H804 0.961 . S
C818 C817 1.502 . S
C819 H805 0.960 . S
C819 H806 0.961 . S
C819 H807 0.959 . S
C819 C817 1.561 . S
C820 C817 1.526 . S
C820 C821 1.396 . S
C820 C825 1.390 1_554 S
C821 C815 1.465 . S
C821 C820 1.396 . S
C821 C822 1.399 1_554 S
C822 H808 0.928 1_556 S
C822 C821 1.399 1_556 S
C822 C823 1.385 . S
C823 H809 0.931 . S
C823 C822 1.385 . S
C823 C824 1.389 . S
C824 C823 1.389 . S
C824 C825 1.387 . S
C825 H810 0.930 . S
C825 C820 1.390 1_556 S
C825 C824 1.387 . S
H826 C838 0.930 . S
H827 C840 0.930 . S
H828 C841 0.930 . S
H829 C845 0.959 . S
H830 C845 0.959 . S
H831 C845 0.961 . S
H832 C846 0.960 . S
H833 C846 0.961 . S
H834 C846 0.959 . S
H835 C849 0.929 . S
H836 C850 0.931 . S
H837 C852 0.930 . S
C838 H826 0.930 . S
C838 C839 1.399 . S
C838 C843 1.399 . S
C839 C838 1.399 . S
C839 C840 1.376 . S
C840 H827 0.930 . S
C840 C839 1.376 . S
C840 C841 1.388 . S
C841 H828 0.930 . S
C841 C840 1.388 . S
C841 C842 1.390 . S
C842 C841 1.390 . S
C842 C843 1.394 . S
C842 C848 1.465 . S
C843 C838 1.399 . S
C843 C842 1.394 . S
C843 C844 1.516 . S
C844 C843 1.516 . S
C844 C845 1.502 . S
C844 C846 1.561 . S
C844 C847 1.526 . S
C845 H829 0.959 . S
C845 H830 0.959 . S
C845 H831 0.961 . S
C845 C844 1.502 . S
C846 H832 0.960 . S
C846 H833 0.961 . S
C846 H834 0.959 . S
C846 C844 1.561 . S
C847 C844 1.526 . S
C847 C848 1.396 . S
C847 C852 1.390 . S
C848 C842 1.465 . S
C848 C847 1.396 . S
C848 C849 1.399 . S
C849 H835 0.929 . S
C849 C848 1.399 . S
C849 C850 1.385 . S
C850 H836 0.931 . S
C850 C849 1.385 . S
C850 C851 1.389 . S
C851 C850 1.389 . S
C851 C852 1.387 . S
C852 H837 0.930 . S
C852 C847 1.390 . S
C852 C851 1.387 . S
H853 C865 0.930 . S
H854 C867 0.930 . S
H855 C868 0.930 . S
H856 C872 0.959 . S
H857 C872 0.959 . S
H858 C872 0.961 . S
H859 C873 0.960 . S
H860 C873 0.961 . S
H861 C873 0.959 . S
H862 C876 0.929 . S
H863 C877 0.931 . S
H864 C879 0.930 . S
C865 H853 0.930 . S
C865 C866 1.399 . S
C865 C870 1.399 . S
C866 C865 1.399 . S
C866 C867 1.376 . S
C867 H854 0.930 . S
C867 C866 1.376 . S
C867 C868 1.388 . S
C868 H855 0.930 . S
C868 C867 1.388 . S
C868 C869 1.390 . S
C869 C868 1.390 . S
C869 C870 1.394 . S
C869 C875 1.465 . S
C870 C865 1.399 . S
C870 C869 1.394 . S
C870 C871 1.516 . S
C871 C870 1.516 . S
C871 C872 1.502 . S
C871 C873 1.561 . S
C871 C874 1.526 . S
C872 H856 0.959 . S
C872 H857 0.959 . S
C872 H858 0.961 . S
C872 C871 1.502 . S
C873 H859 0.960 . S
C873 H860 0.961 . S
C873 H861 0.959 . S
C873 C871 1.561 . S
C874 C871 1.526 . S
C874 C875 1.396 . S
C874 C879 1.390 . S
C875 C869 1.465 . S
C875 C874 1.396 . S
C875 C876 1.399 . S
C876 H862 0.929 . S
C876 C875 1.399 . S
C876 C877 1.385 . S
C877 H863 0.931 . S
C877 C876 1.385 . S
C877 C878 1.389 . S
C878 C877 1.389 . S
C878 C879 1.387 . S
C879 H864 0.930 . S
C879 C874 1.390 . S
C879 C878 1.387 . S
H880 C892 0.930 . S
H881 C894 0.930 . S
H882 C895 0.930 . S
H883 C899 0.959 . S
H884 C899 0.959 . S
H885 C899 0.961 . S
H886 C900 0.960 . S
H887 C900 0.961 . S
H888 C900 0.959 . S
H889 C903 0.929 . S
H890 C904 0.931 . S
H891 C906 0.930 . S
C892 H880 0.930 . S
C892 C893 1.399 . S
C892 C897 1.399 . S
C893 C892 1.399 . S
C893 C894 1.376 . S
C894 H881 0.930 . S
C894 C893 1.376 . S
C894 C895 1.388 . S
C895 H882 0.930 . S
C895 C894 1.388 . S
C895 C896 1.390 . S
C896 C895 1.390 . S
C896 C897 1.394 . S
C896 C902 1.465 . S
C897 C892 1.399 . S
C897 C896 1.394 . S
C897 C898 1.516 . S
C898 C897 1.516 . S
C898 C899 1.502 . S
C898 C900 1.561 . S
C898 C901 1.526 . S
C899 H883 0.959 . S
C899 H884 0.959 . S
C899 H885 0.961 . S
C899 C898 1.502 . S
C900 H886 0.960 . S
C900 H887 0.961 . S
C900 H888 0.959 . S
C900 C898 1.561 . S
C901 C898 1.526 . S
C901 C902 1.396 . S
C901 C906 1.390 . S
C902 C896 1.465 . S
C902 C901 1.396 . S
C902 C903 1.399 . S
C903 H889 0.929 . S
C903 C902 1.399 . S
C903 C904 1.385 . S
C904 H890 0.931 . S
C904 C903 1.385 . S
C904 C905 1.389 . S
C905 C904 1.389 . S
C905 C906 1.387 . S
C906 H891 0.930 . S
C906 C901 1.390 . S
C906 C905 1.387 . S
H907 C919 0.930 . S
H908 C921 0.930 . S
H909 C922 0.930 . S
H910 C926 0.959 . S
H911 C926 0.959 . S
H912 C926 0.961 . S
H913 C927 0.960 . S
H914 C927 0.961 . S
H915 C927 0.959 . S
H916 C930 0.929 . S
H917 C931 0.931 . S
H918 C933 0.930 . S
C919 H907 0.930 . S
C919 C920 1.399 . S
C919 C924 1.399 . S
C920 C919 1.399 . S
C920 C921 1.376 . S
C921 H908 0.930 . S
C921 C920 1.376 . S
C921 C922 1.388 . S
C922 H909 0.930 . S
C922 C921 1.388 . S
C922 C923 1.390 . S
C923 C922 1.390 . S
C923 C924 1.394 . S
C923 C929 1.465 . S
C924 C919 1.399 . S
C924 C923 1.394 . S
C924 C925 1.516 . S
C925 C924 1.516 . S
C925 C926 1.502 . S
C925 C927 1.561 . S
C925 C928 1.526 . S
C926 H910 0.959 . S
C926 H911 0.959 . S
C926 H912 0.961 . S
C926 C925 1.502 . S
C927 H913 0.960 . S
C927 H914 0.961 . S
C927 H915 0.959 . S
C927 C925 1.561 . S
C928 C925 1.526 . S
C928 C929 1.396 . S
C928 C933 1.390 . S
C929 C923 1.465 . S
C929 C928 1.396 . S
C929 C930 1.399 . S
C930 H916 0.929 . S
C930 C929 1.399 . S
C930 C931 1.385 . S
C931 H917 0.931 . S
C931 C930 1.385 . S
C931 C932 1.389 . S
C932 C931 1.389 . S
C932 C933 1.387 . S
C933 H918 0.930 . S
C933 C928 1.390 . S
C933 C932 1.387 . S
H934 C946 0.930 . S
H935 C948 0.930 . S
H936 C949 0.930 . S
H937 C953 0.959 . S
H938 C953 0.959 . S
H939 C953 0.961 . S
H940 C954 0.960 . S
H941 C954 0.961 . S
H942 C954 0.959 . S
H943 C957 0.929 . S
H944 C958 0.931 . S
H945 C960 0.945 . S
C946 H934 0.930 . S
C946 C947 1.399 . S
C946 C951 1.399 . S
C947 C946 1.399 . S
C947 C948 1.376 1_455 S
C948 H935 0.930 . S
C948 C947 1.376 1_655 S
C948 C949 1.388 . S
C949 H936 0.930 . S
C949 C948 1.388 . S
C949 C950 1.390 . S
C950 C949 1.390 . S
C950 C951 1.394 1_655 S
C950 C956 1.465 . S
C951 C946 1.399 . S
C951 C950 1.394 1_455 S
C951 C952 1.516 . S
C952 C951 1.516 . S
C952 C953 1.502 . S
C952 C954 1.561 1_455 S
C952 C955 1.526 1_455 S
C953 H937 0.959 . S
C953 H938 0.959 . S
C953 H939 0.961 . S
C953 C952 1.502 . S
C954 H940 0.960 . S
C954 H941 0.961 . S
C954 H942 0.959 . S
C954 C952 1.561 1_655 S
C955 C952 1.526 1_655 S
C955 C956 1.396 . S
C955 C960 1.390 . S
C956 C950 1.465 . S
C956 C955 1.396 . S
C956 C957 1.399 . S
C957 H943 0.929 . S
C957 C956 1.399 . S
C957 C958 1.385 . S
C958 H944 0.931 . S
C958 C957 1.385 . S
C958 C959 1.389 . S
C959 C958 1.389 . S
C959 C960 1.387 . S
C960 H945 0.945 . S
C960 C955 1.390 . S
C960 C959 1.387 . S
H961 C973 0.930 . S
H962 C975 0.930 . S
H963 C976 0.930 . S
H964 C980 0.959 . S
H965 C980 0.959 . S
H966 C980 0.961 . S
H967 C981 0.960 . S
H968 C981 0.961 . S
H969 C981 0.959 . S
H970 C984 0.929 . S
H971 C985 0.931 . S
H972 C987 0.930 . S
C973 H961 0.930 . S
C973 C974 1.399 . S
C973 C978 1.399 . S
C974 C973 1.399 . S
C974 C975 1.376 . S
C975 H962 0.930 . S
C975 C974 1.376 . S
C975 C976 1.388 . S
C976 H963 0.930 . S
C976 C975 1.388 . S
C976 C977 1.390 . S
C977 C976 1.390 . S
C977 C978 1.394 . S
C977 C983 1.465 . S
C978 C973 1.399 . S
C978 C977 1.394 . S
C978 C979 1.516 . S
C979 C978 1.516 . S
C979 C980 1.502 . S
C979 C981 1.561 . S
C979 C982 1.526 . S
C980 H964 0.959 . S
C980 H965 0.959 . S
C980 H966 0.961 . S
C980 C979 1.502 . S
C981 H967 0.960 . S
C981 H968 0.961 . S
C981 H969 0.959 . S
C981 C979 1.561 . S
C982 C979 1.526 . S
C982 C983 1.396 . S
C982 C987 1.390 1_554 S
C983 C977 1.465 . S
C983 C982 1.396 . S
C983 C984 1.399 . S
C984 H970 0.929 . S
C984 C983 1.399 . S
C984 C985 1.385 1_554 S
C985 H971 0.931 . S
C985 C984 1.385 1_556 S
C985 C986 1.389 . S
C986 C985 1.389 . S
C986 C987 1.387 . S
C987 H972 0.930 . S
C987 C982 1.390 1_556 S
C987 C986 1.387 . S
H988 C1000 0.930 . S
H989 C1002 0.930 . S
H990 C1003 0.930 . S
H991 C1007 0.959 . S
H992 C1007 0.959 . S
H993 C1007 0.961 . S
H994 C1008 0.960 . S
H995 C1008 0.961 . S
H996 C1008 0.959 . S
H997 C1011 0.929 . S
H998 C1012 0.931 . S
H999 C1014 0.930 . S
C1000 H988 0.930 . S
C1000 C1001 1.399 . S
C1000 C1005 1.399 . S
C1001 C1000 1.399 . S
C1001 C1002 1.376 . S
C1002 H989 0.930 . S
C1002 C1001 1.376 . S
C1002 C1003 1.388 . S
C1003 H990 0.930 . S
C1003 C1002 1.388 . S
C1003 C1004 1.390 . S
C1004 C1003 1.390 . S
C1004 C1005 1.394 . S
C1004 C1010 1.465 . S
C1005 C1000 1.399 . S
C1005 C1004 1.394 . S
C1005 C1006 1.516 . S
C1006 C1005 1.516 . S
C1006 C1007 1.502 . S
C1006 C1008 1.561 . S
C1006 C1009 1.526 . S
C1007 H991 0.959 . S
C1007 H992 0.959 . S
C1007 H993 0.961 . S
C1007 C1006 1.502 . S
C1008 H994 0.960 . S
C1008 H995 0.961 . S
C1008 H996 0.959 . S
C1008 C1006 1.561 . S
C1009 C1006 1.526 . S
C1009 C1010 1.396 . S
C1009 C1014 1.390 . S
C1010 C1004 1.465 . S
C1010 C1009 1.396 . S
C1010 C1011 1.399 . S
C1011 H997 0.929 . S
C1011 C1010 1.399 . S
C1011 C1012 1.385 . S
C1012 H998 0.931 . S
C1012 C1011 1.385 . S
C1012 C1013 1.389 . S
C1013 C1012 1.389 . S
C1013 C1014 1.387 . S
C1014 H999 0.930 . S
C1014 C1009 1.390 . S
C1014 C1013 1.387 . S
H1015 C1027 0.930 . S
H1016 C1029 0.930 . S
H1017 C1030 0.930 . S
H1018 C1034 0.959 . S
H1019 C1034 0.959 . S
H1020 C1034 0.961 . S
H1021 C1035 0.960 . S
H1022 C1035 0.961 . S
H1023 C1035 0.959 . S
H1024 C1038 0.929 . S
H1025 C1039 0.931 . S
H1026 C1041 0.930 . S
C1027 H1015 0.930 . S
C1027 C1028 1.399 . S
C1027 C1032 1.399 . S
C1028 C1027 1.399 . S
C1028 C1029 1.376 . S
C1029 H1016 0.930 . S
C1029 C1028 1.376 . S
C1029 C1030 1.388 . S
C1030 H1017 0.930 . S
C1030 C1029 1.388 . S
C1030 C1031 1.390 . S
C1031 C1030 1.390 . S
C1031 C1032 1.394 . S
C1031 C1037 1.465 . S
C1032 C1027 1.399 . S
C1032 C1031 1.394 . S
C1032 C1033 1.516 . S
C1033 C1032 1.516 . S
C1033 C1034 1.502 . S
C1033 C1035 1.561 . S
C1033 C1036 1.526 . S
C1034 H1018 0.959 . S
C1034 H1019 0.959 . S
C1034 H1020 0.961 . S
C1034 C1033 1.502 . S
C1035 H1021 0.960 . S
C1035 H1022 0.961 . S
C1035 H1023 0.959 . S
C1035 C1033 1.561 . S
C1036 C1033 1.526 . S
C1036 C1037 1.396 . S
C1036 C1041 1.390 . S
C1037 C1031 1.465 . S
C1037 C1036 1.396 . S
C1037 C1038 1.399 . S
C1038 H1024 0.929 . S
C1038 C1037 1.399 . S
C1038 C1039 1.385 . S
C1039 H1025 0.931 . S
C1039 C1038 1.385 . S
C1039 C1040 1.389 . S
C1040 C1039 1.389 . S
C1040 C1041 1.387 . S
C1041 H1026 0.930 . S
C1041 C1036 1.390 . S
C1041 C1040 1.387 . S
H1042 C1054 0.961 . S
H1043 C1056 0.930 . S
H1044 C1057 0.930 . S
H1045 C1061 0.959 . S
H1046 C1061 0.959 . S
H1047 C1061 0.961 . S
H1048 C1062 0.960 . S
H1049 C1062 0.978 . S
H1050 C1062 0.923 1_455 S
H1051 C1065 0.929 . S
H1052 C1066 0.931 . S
H1053 C1068 0.930 . S
C1054 H1042 0.961 . S
C1054 C1055 1.368 1_655 S
C1054 C1059 1.402 . S
C1055 C1054 1.368 1_455 S
C1055 C1056 1.376 . S
C1056 H1043 0.930 . S
C1056 C1055 1.376 . S
C1056 C1057 1.388 . S
C1057 H1044 0.930 . S
C1057 C1056 1.388 . S
C1057 C1058 1.390 . S
C1058 C1057 1.390 . S
C1058 C1059 1.394 1_455 S
C1058 C1064 1.465 . S
C1059 C1054 1.402 . S
C1059 C1058 1.394 1_655 S
C1059 C1060 1.516 . S
C1060 C1059 1.516 . S
C1060 C1061 1.502 . S
C1060 C1062 1.580 . S
C1060 C1063 1.526 . S
C1061 H1045 0.959 . S
C1061 H1046 0.959 . S
C1061 H1047 0.961 . S
C1061 C1060 1.502 . S
C1062 H1048 0.960 . S
C1062 H1049 0.978 . S
C1062 H1050 0.923 1_655 S
C1062 C1060 1.580 . S
C1063 C1060 1.526 . S
C1063 C1064 1.396 1_655 S
C1063 C1068 1.390 . S
C1064 C1058 1.465 . S
C1064 C1063 1.396 1_455 S
C1064 C1065 1.399 . S
C1065 H1051 0.929 . S
C1065 C1064 1.399 . S
C1065 C1066 1.385 . S
C1066 H1052 0.931 . S
C1066 C1065 1.385 . S
C1066 C1067 1.389 1_455 S
C1067 C1066 1.389 1_655 S
C1067 C1068 1.387 . S
C1068 H1053 0.930 . S
C1068 C1063 1.390 . S
C1068 C1067 1.387 . S
H1069 C1081 0.930 . S
H1070 C1083 0.930 . S
H1071 C1084 0.930 . S
H1072 C1088 0.959 . S
H1073 C1088 0.959 . S
H1074 C1088 0.961 . S
H1075 C1089 0.960 . S
H1076 C1089 0.961 . S
H1077 C1089 0.959 . S
H1078 C1092 0.929 . S
H1079 C1093 0.931 . S
H1080 C1095 0.930 . S
C1081 H1069 0.930 . S
C1081 C1082 1.399 . S
C1081 C1086 1.399 1_554 S
C1082 C1081 1.399 . S
C1082 C1083 1.376 . S
C1083 H1070 0.930 . S
C1083 C1082 1.376 . S
C1083 C1084 1.388 1_554 S
C1084 H1071 0.930 . S
C1084 C1083 1.388 1_556 S
C1084 C1085 1.390 . S
C1085 C1084 1.390 . S
C1085 C1086 1.394 . S
C1085 C1091 1.465 . S
C1086 C1081 1.399 1_556 S
C1086 C1085 1.394 . S
C1086 C1087 1.516 . S
C1087 C1086 1.516 . S
C1087 C1088 1.502 . S
C1087 C1089 1.561 . S
C1087 C1090 1.526 . S
C1088 H1072 0.959 . S
C1088 H1073 0.959 . S
C1088 H1074 0.961 . S
C1088 C1087 1.502 . S
C1089 H1075 0.960 . S
C1089 H1076 0.961 . S
C1089 H1077 0.959 . S
C1089 C1087 1.561 . S
C1090 C1087 1.526 . S
C1090 C1091 1.396 . S
C1090 C1095 1.390 . S
C1091 C1085 1.465 . S
C1091 C1090 1.396 . S
C1091 C1092 1.399 . S
C1092 H1078 0.929 . S
C1092 C1091 1.399 . S
C1092 C1093 1.385 . S
C1093 H1079 0.931 . S
C1093 C1092 1.385 . S
C1093 C1094 1.389 . S
C1094 C1093 1.389 . S
C1094 C1095 1.387 . S
C1095 H1080 0.930 . S
C1095 C1090 1.390 . S
C1095 C1094 1.387 . S
H1096 C1108 0.930 . S
H1097 C1110 0.930 . S
H1098 C1111 0.930 . S
H1099 C1115 0.959 . S
H1100 C1115 0.959 . S
H1101 C1115 0.961 . S
H1102 C1116 0.960 . S
H1103 C1116 0.961 . S
H1104 C1116 0.959 . S
H1105 C1119 0.929 . S
H1106 C1120 0.931 . S
H1107 C1122 0.930 . S
C1108 H1096 0.930 . S
C1108 C1109 1.399 . S
C1108 C1113 1.399 . S
C1109 C1108 1.399 . S
C1109 C1110 1.376 . S
C1110 H1097 0.930 . S
C1110 C1109 1.376 . S
C1110 C1111 1.388 . S
C1111 H1098 0.930 . S
C1111 C1110 1.388 . S
C1111 C1112 1.390 . S
C1112 C1111 1.390 . S
C1112 C1113 1.394 . S
C1112 C1118 1.465 . S
C1113 C1108 1.399 . S
C1113 C1112 1.394 . S
C1113 C1114 1.516 . S
C1114 C1113 1.516 . S
C1114 C1115 1.502 . S
C1114 C1116 1.561 . S
C1114 C1117 1.526 . S
C1115 H1099 0.959 . S
C1115 H1100 0.959 . S
C1115 H1101 0.961 . S
C1115 C1114 1.502 . S
C1116 H1102 0.960 . S
C1116 H1103 0.961 . S
C1116 H1104 0.959 . S
C1116 C1114 1.561 . S
C1117 C1114 1.526 . S
C1117 C1118 1.396 . S
C1117 C1122 1.390 . S
C1118 C1112 1.465 . S
C1118 C1117 1.396 . S
C1118 C1119 1.399 . S
C1119 H1105 0.929 . S
C1119 C1118 1.399 . S
C1119 C1120 1.385 . S
C1120 H1106 0.931 . S
C1120 C1119 1.385 . S
C1120 C1121 1.389 . S
C1121 C1120 1.389 . S
C1121 C1122 1.387 . S
C1122 H1107 0.930 . S
C1122 C1117 1.390 . S
C1122 C1121 1.387 . S
H1123 C1135 0.930 . S
H1124 C1137 0.930 . S
H1125 C1138 0.930 . S
H1126 C1142 0.959 . S
H1127 C1142 0.959 . S
H1128 C1142 0.961 . S
H1129 C1143 0.960 . S
H1130 C1143 0.961 . S
H1131 C1143 0.959 . S
H1132 C1146 0.929 . S
H1133 C1147 0.931 . S
H1134 C1149 0.930 . S
C1135 H1123 0.930 . S
C1135 C1136 1.399 . S
C1135 C1140 1.399 . S
C1136 C1135 1.399 . S
C1136 C1137 1.376 . S
C1137 H1124 0.930 . S
C1137 C1136 1.376 . S
C1137 C1138 1.388 . S
C1138 H1125 0.930 . S
C1138 C1137 1.388 . S
C1138 C1139 1.390 . S
C1139 C1138 1.390 . S
C1139 C1140 1.394 . S
C1139 C1145 1.465 . S
C1140 C1135 1.399 . S
C1140 C1139 1.394 . S
C1140 C1141 1.516 . S
C1141 C1140 1.516 . S
C1141 C1142 1.502 . S
C1141 C1143 1.561 . S
C1141 C1144 1.526 . S
C1142 H1126 0.959 . S
C1142 H1127 0.959 . S
C1142 H1128 0.961 . S
C1142 C1141 1.502 . S
C1143 H1129 0.960 . S
C1143 H1130 0.961 . S
C1143 H1131 0.959 . S
C1143 C1141 1.561 . S
C1144 C1141 1.526 . S
C1144 C1145 1.396 . S
C1144 C1149 1.390 . S
C1145 C1139 1.465 . S
C1145 C1144 1.396 . S
C1145 C1146 1.399 . S
C1146 H1132 0.929 . S
C1146 C1145 1.399 . S
C1146 C1147 1.385 . S
C1147 H1133 0.931 . S
C1147 C1146 1.385 . S
C1147 C1148 1.389 . S
C1148 C1147 1.389 . S
C1148 C1149 1.387 . S
C1149 H1134 0.930 . S
C1149 C1144 1.390 . S
C1149 C1148 1.387 . S
H1150 C1162 0.930 . S
H1151 C1164 0.930 . S
H1152 C1165 0.929 1_655 S
H1153 C1169 0.959 . S
H1154 C1169 0.959 . S
H1155 C1169 0.961 . S
H1156 C1170 0.960 . S
H1157 C1170 0.961 . S
H1158 C1170 0.959 . S
H1159 C1173 0.929 . S
H1160 C1174 0.931 . S
H1161 C1176 0.930 . S
C1162 H1150 0.930 . S
C1162 C1163 1.399 . S
C1162 C1167 1.399 . S
C1163 C1162 1.399 . S
C1163 C1164 1.376 . S
C1164 H1151 0.930 . S
C1164 C1163 1.376 . S
C1164 C1165 1.388 . S
C1165 H1152 0.929 1_455 S
C1165 C1164 1.388 . S
C1165 C1166 1.392 . S
C1166 C1165 1.392 . S
C1166 C1167 1.397 . S
C1166 C1172 1.462 1_455 S
C1167 C1162 1.399 . S
C1167 C1166 1.397 . S
C1167 C1168 1.517 . S
C1168 C1167 1.517 . S
C1168 C1169 1.503 . S
C1168 C1170 1.559 1_455 S
C1168 C1171 1.525 1_455 S
C1169 H1153 0.959 . S
C1169 H1154 0.959 . S
C1169 H1155 0.961 . S
C1169 C1168 1.503 . S
C1170 H1156 0.960 . S
C1170 H1157 0.961 . S
C1170 H1158 0.959 . S
C1170 C1168 1.559 1_655 S
C1171 C1168 1.525 1_655 S
C1171 C1172 1.396 . S
C1171 C1176 1.390 . S
C1172 C1166 1.462 1_655 S
C1172 C1171 1.396 . S
C1172 C1173 1.399 . S
C1173 H1159 0.929 . S
C1173 C1172 1.399 . S
C1173 C1174 1.385 . S
C1174 H1160 0.931 . S
C1174 C1173 1.385 . S
C1174 C1175 1.389 . S
C1175 C1174 1.389 . S
C1175 C1176 1.387 . S
C1176 H1161 0.930 . S
C1176 C1171 1.390 . S
C1176 C1175 1.387 . S
H1177 C1189 0.930 . S
H1178 C1191 0.930 . S
H1179 C1192 0.930 . S
H1180 C1196 0.959 . S
H1181 C1196 0.959 . S
H1182 C1196 0.961 . S
H1183 C1197 0.960 . S
H1184 C1197 0.961 . S
H1185 C1197 0.959 . S
H1186 C1200 0.929 . S
H1187 C1201 0.931 . S
H1188 C1203 0.930 . S
C1189 H1177 0.930 . S
C1189 C1190 1.399 . S
C1189 C1194 1.399 . S
C1190 C1189 1.399 . S
C1190 C1191 1.376 . S
C1191 H1178 0.930 . S
C1191 C1190 1.376 . S
C1191 C1192 1.388 . S
C1192 H1179 0.930 . S
C1192 C1191 1.388 . S
C1192 C1193 1.390 . S
C1193 C1192 1.390 . S
C1193 C1194 1.394 . S
C1193 C1199 1.465 . S
C1194 C1189 1.399 . S
C1194 C1193 1.394 . S
C1194 C1195 1.516 . S
C1195 C1194 1.516 . S
C1195 C1196 1.502 . S
C1195 C1197 1.561 . S
C1195 C1198 1.526 . S
C1196 H1180 0.959 . S
C1196 H1181 0.959 . S
C1196 H1182 0.961 . S
C1196 C1195 1.502 . S
C1197 H1183 0.960 . S
C1197 H1184 0.961 . S
C1197 H1185 0.959 . S
C1197 C1195 1.561 . S
C1198 C1195 1.526 . S
C1198 C1199 1.396 . S
C1198 C1203 1.390 1_556 S
C1199 C1193 1.465 . S
C1199 C1198 1.396 . S
C1199 C1200 1.399 . S
C1200 H1186 0.929 . S
C1200 C1199 1.399 . S
C1200 C1201 1.385 1_556 S
C1201 H1187 0.931 . S
C1201 C1200 1.385 1_554 S
C1201 C1202 1.389 . S
C1202 C1201 1.389 . S
C1202 C1203 1.387 . S
C1203 H1188 0.930 . S
C1203 C1198 1.390 1_554 S
C1203 C1202 1.387 . S
H1204 C1216 0.930 . S
H1205 C1218 0.930 . S
H1206 C1219 0.930 . S
H1207 C1223 0.959 . S
H1208 C1223 0.959 . S
H1209 C1223 0.961 . S
H1210 C1224 0.960 . S
H1211 C1224 0.961 . S
H1212 C1224 0.959 . S
H1213 C1227 0.929 . S
H1214 C1228 0.931 . S
H1215 C1230 0.930 . S
C1216 H1204 0.930 . S
C1216 C1217 1.399 . S
C1216 C1221 1.399 . S
C1217 C1216 1.399 . S
C1217 C1218 1.376 . S
C1218 H1205 0.930 . S
C1218 C1217 1.376 . S
C1218 C1219 1.388 . S
C1219 H1206 0.930 . S
C1219 C1218 1.388 . S
C1219 C1220 1.390 . S
C1220 C1219 1.390 . S
C1220 C1221 1.394 . S
C1220 C1226 1.465 . S
C1221 C1216 1.399 . S
C1221 C1220 1.394 . S
C1221 C1222 1.516 . S
C1222 C1221 1.516 . S
C1222 C1223 1.502 . S
C1222 C1224 1.561 . S
C1222 C1225 1.526 . S
C1223 H1207 0.959 . S
C1223 H1208 0.959 . S
C1223 H1209 0.961 . S
C1223 C1222 1.502 . S
C1224 H1210 0.960 . S
C1224 H1211 0.961 . S
C1224 H1212 0.959 . S
C1224 C1222 1.561 . S
C1225 C1222 1.526 . S
C1225 C1226 1.396 . S
C1225 C1230 1.390 . S
C1226 C1220 1.465 . S
C1226 C1225 1.396 . S
C1226 C1227 1.399 . S
C1227 H1213 0.929 . S
C1227 C1226 1.399 . S
C1227 C1228 1.385 . S
C1228 H1214 0.931 . S
C1228 C1227 1.385 . S
C1228 C1229 1.389 . S
C1229 C1228 1.389 . S
C1229 C1230 1.387 . S
C1230 H1215 0.930 . S
C1230 C1225 1.390 . S
C1230 C1229 1.387 . S
H1231 C1243 0.930 . S
H1232 C1245 0.930 . S
H1233 C1246 0.930 . S
H1234 C1250 0.959 . S
H1235 C1250 0.959 . S
H1236 C1250 0.961 . S
H1237 C1251 0.960 . S
H1238 C1251 0.961 . S
H1239 C1251 0.959 . S
H1240 C1254 0.929 . S
H1241 C1255 0.931 . S
H1242 C1257 0.930 . S
C1243 H1231 0.930 . S
C1243 C1244 1.399 . S
C1243 C1248 1.399 . S
C1244 C1243 1.399 . S
C1244 C1245 1.376 . S
C1245 H1232 0.930 . S
C1245 C1244 1.376 . S
C1245 C1246 1.388 . S
C1246 H1233 0.930 . S
C1246 C1245 1.388 . S
C1246 C1247 1.390 . S
C1247 C1246 1.390 . S
C1247 C1248 1.394 . S
C1247 C1253 1.465 . S
C1248 C1243 1.399 . S
C1248 C1247 1.394 . S
C1248 C1249 1.516 . S
C1249 C1248 1.516 . S
C1249 C1250 1.502 . S
C1249 C1251 1.561 . S
C1249 C1252 1.526 . S
C1250 H1234 0.959 . S
C1250 H1235 0.959 . S
C1250 H1236 0.961 . S
C1250 C1249 1.502 . S
C1251 H1237 0.960 . S
C1251 H1238 0.961 . S
C1251 H1239 0.959 . S
C1251 C1249 1.561 . S
C1252 C1249 1.526 . S
C1252 C1253 1.396 . S
C1252 C1257 1.390 . S
C1253 C1247 1.465 . S
C1253 C1252 1.396 . S
C1253 C1254 1.399 . S
C1254 H1240 0.929 . S
C1254 C1253 1.399 . S
C1254 C1255 1.385 . S
C1255 H1241 0.931 . S
C1255 C1254 1.385 . S
C1255 C1256 1.389 . S
C1256 C1255 1.389 . S
C1256 C1257 1.387 . S
C1257 H1242 0.930 . S
C1257 C1252 1.390 . S
C1257 C1256 1.387 . S
H1258 C1270 0.930 . S
H1259 C1272 0.930 . S
H1260 C1273 0.930 . S
H1261 C1277 0.959 . S
H1262 C1277 0.959 . S
H1263 C1277 0.961 . S
H1264 C1278 0.960 . S
H1265 C1278 0.961 . S
H1266 C1278 0.959 . S
H1267 C1281 0.929 . S
H1268 C1282 0.931 . S
H1269 C1284 0.916 1_655 S
C1270 H1258 0.930 . S
C1270 C1271 1.399 . S
C1270 C1275 1.399 . S
C1271 C1270 1.399 . S
C1271 C1272 1.376 1_655 S
C1272 H1259 0.930 . S
C1272 C1271 1.376 1_455 S
C1272 C1273 1.388 . S
C1273 H1260 0.930 . S
C1273 C1272 1.388 . S
C1273 C1274 1.390 . S
C1274 C1273 1.390 . S
C1274 C1275 1.394 1_455 S
C1274 C1280 1.465 . S
C1275 C1270 1.399 . S
C1275 C1274 1.394 1_655 S
C1275 C1276 1.516 . S
C1276 C1275 1.516 . S
C1276 C1277 1.502 . S
C1276 C1278 1.561 1_655 S
C1276 C1279 1.526 1_655 S
C1277 H1261 0.959 . S
C1277 H1262 0.959 . S
C1277 H1263 0.961 . S
C1277 C1276 1.502 . S
C1278 H1264 0.960 . S
C1278 H1265 0.961 . S
C1278 H1266 0.959 . S
C1278 C1276 1.561 1_455 S
C1279 C1276 1.526 1_455 S
C1279 C1280 1.396 . S
C1279 C1284 1.390 . S
C1280 C1274 1.465 . S
C1280 C1279 1.396 . S
C1280 C1281 1.399 . S
C1281 H1267 0.929 . S
C1281 C1280 1.399 . S
C1281 C1282 1.385 . S
C1282 H1268 0.931 . S
C1282 C1281 1.385 . S
C1282 C1283 1.389 . S
C1283 C1282 1.389 . S
C1283 C1284 1.387 . S
C1284 H1269 0.916 1_455 S
C1284 C1279 1.390 . S
C1284 C1283 1.387 . S
H1285 C1297 0.930 . S
H1286 C1299 0.930 . S
H1287 C1300 0.930 . S
H1288 C1304 0.959 . S
H1289 C1304 0.959 . S
H1290 C1304 0.961 . S
H1291 C1305 0.960 . S
H1292 C1305 0.961 . S
H1293 C1305 0.959 . S
H1294 C1308 0.930 1_554 S
H1295 C1309 0.931 . S
H1296 C1311 0.930 . S
C1297 H1285 0.930 . S
C1297 C1298 1.399 . S
C1297 C1302 1.399 . S
C1298 C1297 1.399 . S
C1298 C1299 1.376 . S
C1299 H1286 0.930 . S
C1299 C1298 1.376 . S
C1299 C1300 1.388 . S
C1300 H1287 0.930 . S
C1300 C1299 1.388 . S
C1300 C1301 1.390 . S
C1301 C1300 1.390 . S
C1301 C1302 1.394 . S
C1301 C1307 1.465 . S
C1302 C1297 1.399 . S
C1302 C1301 1.394 . S
C1302 C1303 1.516 . S
C1303 C1302 1.516 . S
C1303 C1304 1.502 . S
C1303 C1305 1.561 . S
C1303 C1306 1.526 . S
C1304 H1288 0.959 . S
C1304 H1289 0.959 . S
C1304 H1290 0.961 . S
C1304 C1303 1.502 . S
C1305 H1291 0.960 . S
C1305 H1292 0.961 . S
C1305 H1293 0.959 . S
C1305 C1303 1.561 . S
C1306 C1303 1.526 . S
C1306 C1307 1.396 . S
C1306 C1311 1.390 1_554 S
C1307 C1301 1.465 . S
C1307 C1306 1.396 . S
C1307 C1308 1.401 1_554 S
C1308 H1294 0.930 1_556 S
C1308 C1307 1.401 1_556 S
C1308 C1309 1.383 . S
C1309 H1295 0.931 . S
C1309 C1308 1.383 . S
C1309 C1310 1.389 . S
C1310 C1309 1.389 . S
C1310 C1311 1.387 . S
C1311 H1296 0.930 . S
C1311 C1306 1.390 1_556 S
C1311 C1310 1.387 . S
H1312 C1324 0.930 . S
H1313 C1326 0.930 . S
H1314 C1327 0.930 . S
H1315 C1331 0.959 1_565 S
H1316 C1331 0.959 1_565 S
H1317 C1331 0.961 . S
H1318 C1332 0.960 . S
H1319 C1332 0.961 . S
H1320 C1332 0.959 1_455 S
H1321 C1335 0.929 . S
H1322 C1336 0.931 . S
H1323 C1338 0.930 . S
C1324 H1312 0.930 . S
C1324 C1325 1.399 1_556 S
C1324 C1329 1.399 . S
C1325 C1324 1.399 1_554 S
C1325 C1326 1.376 1_655 S
C1326 H1313 0.930 . S
C1326 C1325 1.376 1_455 S
C1326 C1327 1.388 . S
C1327 H1314 0.930 . S
C1327 C1326 1.388 . S
C1327 C1328 1.390 . S
C1328 C1327 1.390 . S
C1328 C1329 1.394 1_454 S
C1328 C1334 1.465 1_545 S
C1329 C1324 1.399 . S
C1329 C1328 1.394 1_656 S
C1329 C1330 1.516 . S
C1330 C1329 1.516 . S
C1330 C1331 1.502 . S
C1330 C1332 1.561 . S
C1330 C1333 1.526 1_545 S
C1331 H1315 0.959 1_545 S
C1331 H1316 0.959 1_545 S
C1331 H1317 0.961 . S
C1331 C1330 1.502 . S
C1332 H1318 0.960 . S
C1332 H1319 0.961 . S
C1332 H1320 0.959 1_655 S
C1332 C1330 1.561 . S
C1333 C1330 1.526 1_565 S
C1333 C1334 1.396 1_656 S
C1333 C1338 1.390 . S
C1334 C1328 1.465 1_565 S
C1334 C1333 1.396 1_454 S
C1334 C1335 1.399 . S
C1335 H1321 0.929 . S
C1335 C1334 1.399 . S
C1335 C1336 1.385 . S
C1336 H1322 0.931 . S
C1336 C1335 1.385 . S
C1336 C1337 1.389 1_554 S
C1337 C1336 1.389 1_556 S
C1337 C1338 1.387 1_455 S
C1338 H1323 0.930 . S
C1338 C1333 1.390 . S
C1338 C1337 1.387 1_655 S
H1339 C1351 0.930 . S
H1340 C1353 0.930 . S
H1341 C1354 0.930 . S
H1342 C1358 0.959 . S
H1343 C1358 0.959 . S
H1344 C1358 0.961 . S
H1345 C1359 0.960 . S
H1346 C1359 0.961 . S
H1347 C1359 0.959 . S
H1348 C1362 0.929 . S
H1349 C1363 0.931 . S
H1350 C1365 0.930 . S
C1351 H1339 0.930 . S
C1351 C1352 1.399 . S
C1351 C1356 1.399 . S
C1352 C1351 1.399 . S
C1352 C1353 1.376 . S
C1353 H1340 0.930 . S
C1353 C1352 1.376 . S
C1353 C1354 1.388 . S
C1354 H1341 0.930 . S
C1354 C1353 1.388 . S
C1354 C1355 1.390 . S
C1355 C1354 1.390 . S
C1355 C1356 1.394 . S
C1355 C1361 1.465 . S
C1356 C1351 1.399 . S
C1356 C1355 1.394 . S
C1356 C1357 1.516 . S
C1357 C1356 1.516 . S
C1357 C1358 1.502 . S
C1357 C1359 1.561 . S
C1357 C1360 1.526 . S
C1358 H1342 0.959 . S
C1358 H1343 0.959 . S
C1358 H1344 0.961 . S
C1358 C1357 1.502 . S
C1359 H1345 0.960 . S
C1359 H1346 0.961 . S
C1359 H1347 0.959 . S
C1359 C1357 1.561 . S
C1360 C1357 1.526 . S
C1360 C1361 1.396 . S
C1360 C1365 1.390 . S
C1361 C1355 1.465 . S
C1361 C1360 1.396 . S
C1361 C1362 1.399 . S
C1362 H1348 0.929 . S
C1362 C1361 1.399 . S
C1362 C1363 1.385 . S
C1363 H1349 0.931 . S
C1363 C1362 1.385 . S
C1363 C1364 1.389 . S
C1364 C1363 1.389 . S
C1364 C1365 1.387 . S
C1365 H1350 0.930 . S
C1365 C1360 1.390 . S
C1365 C1364 1.387 . S
H1366 C1378 0.930 . S
H1367 C1380 0.930 . S
H1368 C1381 0.930 . S
H1369 C1385 0.959 . S
H1370 C1385 0.959 . S
H1371 C1385 0.961 . S
H1372 C1386 0.960 . S
H1373 C1386 0.961 . S
H1374 C1386 0.959 . S
H1375 C1389 0.929 . S
H1376 C1390 0.931 . S
H1377 C1392 0.930 . S
C1378 H1366 0.930 . S
C1378 C1379 1.399 . S
C1378 C1383 1.399 . S
C1379 C1378 1.399 . S
C1379 C1380 1.376 . S
C1380 H1367 0.930 . S
C1380 C1379 1.376 . S
C1380 C1381 1.388 . S
C1381 H1368 0.930 . S
C1381 C1380 1.388 . S
C1381 C1382 1.390 . S
C1382 C1381 1.390 . S
C1382 C1383 1.394 . S
C1382 C1388 1.465 1_545 S
C1383 C1378 1.399 . S
C1383 C1382 1.394 . S
C1383 C1384 1.516 . S
C1384 C1383 1.516 . S
C1384 C1385 1.502 . S
C1384 C1386 1.561 . S
C1384 C1387 1.526 1_545 S
C1385 H1369 0.959 . S
C1385 H1370 0.959 . S
C1385 H1371 0.961 . S
C1385 C1384 1.502 . S
C1386 H1372 0.960 . S
C1386 H1373 0.961 . S
C1386 H1374 0.959 . S
C1386 C1384 1.561 . S
C1387 C1384 1.526 1_565 S
C1387 C1388 1.396 . S
C1387 C1392 1.390 . S
C1388 C1382 1.465 1_565 S
C1388 C1387 1.396 . S
C1388 C1389 1.399 . S
C1389 H1375 0.929 . S
C1389 C1388 1.399 . S
C1389 C1390 1.385 . S
C1390 H1376 0.931 . S
C1390 C1389 1.385 . S
C1390 C1391 1.389 . S
C1391 C1390 1.389 . S
C1391 C1392 1.387 . S
C1392 H1377 0.930 . S
C1392 C1387 1.390 . S
C1392 C1391 1.387 . S
H1393 C1405 0.930 . S
H1394 C1407 0.930 . S
H1395 C1408 0.930 . S
H1396 C1412 0.959 . S
H1397 C1412 0.959 . S
H1398 C1412 0.961 . S
H1399 C1413 0.960 . S
H1400 C1413 0.961 . S
H1401 C1413 0.959 . S
H1402 C1416 0.929 . S
H1403 C1417 0.931 . S
H1404 C1419 0.930 . S
C1405 H1393 0.930 . S
C1405 C1406 1.399 . S
C1405 C1410 1.399 . S
C1406 C1405 1.399 . S
C1406 C1407 1.376 . S
C1407 H1394 0.930 . S
C1407 C1406 1.376 . S
C1407 C1408 1.388 . S
C1408 H1395 0.930 . S
C1408 C1407 1.388 . S
C1408 C1409 1.390 . S
C1409 C1408 1.390 . S
C1409 C1410 1.394 . S
C1409 C1415 1.465 . S
C1410 C1405 1.399 . S
C1410 C1409 1.394 . S
C1410 C1411 1.516 . S
C1411 C1410 1.516 . S
C1411 C1412 1.502 . S
C1411 C1413 1.561 . S
C1411 C1414 1.526 . S
C1412 H1396 0.959 . S
C1412 H1397 0.959 . S
C1412 H1398 0.961 . S
C1412 C1411 1.502 . S
C1413 H1399 0.960 . S
C1413 H1400 0.961 . S
C1413 H1401 0.959 . S
C1413 C1411 1.561 . S
C1414 C1411 1.526 . S
C1414 C1415 1.396 . S
C1414 C1419 1.390 . S
C1415 C1409 1.465 . S
C1415 C1414 1.396 . S
C1415 C1416 1.399 . S
C1416 H1402 0.929 . S
C1416 C1415 1.399 . S
C1416 C1417 1.385 . S
C1417 H1403 0.931 . S
C1417 C1416 1.385 . S
C1417 C1418 1.389 . S
C1418 C1417 1.389 . S
C1418 C1419 1.387 . S
C1419 H1404 0.930 . S
C1419 C1414 1.390 . S
C1419 C1418 1.387 . S
H1420 C1432 0.930 . S
H1421 C1434 0.930 . S
H1422 C1435 0.930 . S
H1423 C1439 0.959 . S
H1424 C1439 0.959 . S
H1425 C1439 0.927 1_565 S
H1426 C1440 0.960 . S
H1427 C1440 0.961 . S
H1428 C1440 0.959 . S
H1429 C1443 0.930 1_655 S
H1430 C1444 0.931 . S
H1431 C1446 0.930 . S
C1432 H1420 0.930 . S
C1432 C1433 1.399 . S
C1432 C1437 1.399 . S
C1433 C1432 1.399 . S
C1433 C1434 1.376 . S
C1434 H1421 0.930 . S
C1434 C1433 1.376 . S
C1434 C1435 1.388 . S
C1435 H1422 0.930 . S
C1435 C1434 1.388 . S
C1435 C1436 1.390 . S
C1436 C1435 1.390 . S
C1436 C1437 1.394 . S
C1436 C1442 1.470 1_565 S
C1437 C1432 1.399 . S
C1437 C1436 1.394 . S
C1437 C1438 1.516 1_565 S
C1438 C1437 1.516 1_545 S
C1438 C1439 1.502 1_655 S
C1438 C1440 1.561 . S
C1438 C1441 1.520 1_655 S
C1439 H1423 0.959 . S
C1439 H1424 0.959 . S
C1439 H1425 0.927 1_545 S
C1439 C1438 1.502 1_455 S
C1440 H1426 0.960 . S
C1440 H1427 0.961 . S
C1440 H1428 0.959 . S
C1440 C1438 1.561 . S
C1441 C1438 1.520 1_455 S
C1441 C1442 1.393 1_455 S
C1441 C1446 1.397 . S
C1442 C1436 1.470 1_545 S
C1442 C1441 1.393 1_655 S
C1442 C1443 1.397 1_655 S
C1443 H1429 0.930 1_455 S
C1443 C1442 1.397 1_455 S
C1443 C1444 1.385 . S
C1444 H1430 0.931 . S
C1444 C1443 1.385 . S
C1444 C1445 1.389 . S
C1445 C1444 1.389 . S
C1445 C1446 1.387 . S
C1446 H1431 0.930 . S
C1446 C1441 1.397 . S
C1446 C1445 1.387 . S
H1447 C1459 0.930 . S
H1448 C1461 0.930 . S
H1449 C1462 0.930 . S
H1450 C1466 0.959 . S
H1451 C1466 0.959 . S
H1452 C1466 0.961 . S
H1453 C1467 0.960 . S
H1454 C1467 0.961 . S
H1455 C1467 0.959 . S
H1456 C1470 0.929 . S
H1457 C1471 0.931 . S
H1458 C1473 0.930 . S
C1459 H1447 0.930 . S
C1459 C1460 1.399 . S
C1459 C1464 1.399 . S
C1460 C1459 1.399 . S
C1460 C1461 1.376 . S
C1461 H1448 0.930 . S
C1461 C1460 1.376 . S
C1461 C1462 1.388 . S
C1462 H1449 0.930 . S
C1462 C1461 1.388 . S
C1462 C1463 1.390 . S
C1463 C1462 1.390 . S
C1463 C1464 1.394 . S
C1463 C1469 1.465 . S
C1464 C1459 1.399 . S
C1464 C1463 1.394 . S
C1464 C1465 1.516 . S
C1465 C1464 1.516 . S
C1465 C1466 1.502 . S
C1465 C1467 1.561 . S
C1465 C1468 1.526 . S
C1466 H1450 0.959 . S
C1466 H1451 0.959 . S
C1466 H1452 0.961 . S
C1466 C1465 1.502 . S
C1467 H1453 0.960 . S
C1467 H1454 0.961 . S
C1467 H1455 0.959 . S
C1467 C1465 1.561 . S
C1468 C1465 1.526 . S
C1468 C1469 1.396 . S
C1468 C1473 1.390 . S
C1469 C1463 1.465 . S
C1469 C1468 1.396 . S
C1469 C1470 1.399 . S
C1470 H1456 0.929 . S
C1470 C1469 1.399 . S
C1470 C1471 1.385 . S
C1471 H1457 0.931 . S
C1471 C1470 1.385 . S
C1471 C1472 1.389 . S
C1472 C1471 1.389 . S
C1472 C1473 1.387 . S
C1473 H1458 0.930 . S
C1473 C1468 1.390 . S
C1473 C1472 1.387 . S
H1474 C1486 0.930 . S
H1475 C1488 0.930 . S
H1476 C1489 0.930 . S
H1477 C1493 0.959 . S
H1478 C1493 0.959 . S
H1479 C1493 0.980 . S
H1480 C1494 0.960 1_565 S
H1481 C1494 0.961 . S
H1482 C1494 0.959 1_565 S
H1483 C1497 0.929 . S
H1484 C1498 0.931 . S
H1485 C1500 0.930 . S
C1486 H1474 0.930 . S
C1486 C1487 1.399 . S
C1486 C1491 1.399 . S
C1487 C1486 1.399 . S
C1487 C1488 1.376 1_554 S
C1488 H1475 0.930 . S
C1488 C1487 1.376 1_556 S
C1488 C1489 1.388 . S
C1489 H1476 0.930 . S
C1489 C1488 1.388 . S
C1489 C1490 1.390 . S
C1490 C1489 1.390 . S
C1490 C1491 1.394 1_556 S
C1490 C1496 1.465 1_565 S
C1491 C1486 1.399 . S
C1491 C1490 1.394 1_554 S
C1491 C1492 1.516 1_565 S
C1492 C1491 1.516 1_545 S
C1492 C1493 1.502 . S
C1492 C1494 1.561 . S
C1492 C1495 1.526 . S
C1493 H1477 0.959 . S
C1493 H1478 0.959 . S
C1493 H1479 0.980 . S
C1493 C1492 1.502 . S
C1494 H1480 0.960 1_545 S
C1494 H1481 0.961 . S
C1494 H1482 0.959 1_545 S
C1494 C1492 1.561 . S
C1495 C1492 1.526 . S
C1495 C1496 1.396 1_554 S
C1495 C1500 1.390 . S
C1496 C1490 1.465 1_545 S
C1496 C1495 1.396 1_556 S
C1496 C1497 1.399 . S
C1497 H1483 0.929 . S
C1497 C1496 1.399 . S
C1497 C1498 1.385 . S
C1498 H1484 0.931 . S
C1498 C1497 1.385 . S
C1498 C1499 1.389 . S
C1499 C1498 1.389 . S
C1499 C1500 1.387 1_556 S
C1500 H1485 0.930 . S
C1500 C1495 1.390 . S
C1500 C1499 1.387 1_554 S
H1501 C1513 0.930 . S
H1502 C1515 0.930 . S
H1503 C1516 0.930 . S
H1504 C1520 0.959 . S
H1505 C1520 0.959 . S
H1506 C1520 0.961 . S
H1507 C1521 0.960 . S
H1508 C1521 0.961 . S
H1509 C1521 0.959 . S
H1510 C1524 0.929 . S
H1511 C1525 0.931 . S
H1512 C1527 0.930 . S
C1513 H1501 0.930 . S
C1513 C1514 1.399 . S
C1513 C1518 1.399 . S
C1514 C1513 1.399 . S
C1514 C1515 1.376 . S
C1515 H1502 0.930 . S
C1515 C1514 1.376 . S
C1515 C1516 1.388 . S
C1516 H1503 0.930 . S
C1516 C1515 1.388 . S
C1516 C1517 1.390 . S
C1517 C1516 1.390 . S
C1517 C1518 1.394 . S
C1517 C1523 1.465 . S
C1518 C1513 1.399 . S
C1518 C1517 1.394 . S
C1518 C1519 1.516 . S
C1519 C1518 1.516 . S
C1519 C1520 1.502 . S
C1519 C1521 1.561 . S
C1519 C1522 1.526 . S
C1520 H1504 0.959 . S
C1520 H1505 0.959 . S
C1520 H1506 0.961 . S
C1520 C1519 1.502 . S
C1521 H1507 0.960 . S
C1521 H1508 0.961 . S
C1521 H1509 0.959 . S
C1521 C1519 1.561 . S
C1522 C1519 1.526 . S
C1522 C1523 1.396 . S
C1522 C1527 1.390 . S
C1523 C1517 1.465 . S
C1523 C1522 1.396 . S
C1523 C1524 1.399 . S
C1524 H1510 0.929 . S
C1524 C1523 1.399 . S
C1524 C1525 1.385 . S
C1525 H1511 0.931 . S
C1525 C1524 1.385 . S
C1525 C1526 1.389 . S
C1526 C1525 1.389 . S
C1526 C1527 1.387 . S
C1527 H1512 0.930 . S
C1527 C1522 1.390 . S
C1527 C1526 1.387 . S
H1528 C1540 0.930 . S
H1529 C1542 0.930 . S
H1530 C1543 0.930 . S
H1531 C1547 0.959 . S
H1532 C1547 0.959 . S
H1533 C1547 0.961 . S
H1534 C1548 0.960 . S
H1535 C1548 0.961 . S
H1536 C1548 0.959 . S
H1537 C1551 0.929 . S
H1538 C1552 0.931 . S
H1539 C1554 0.930 . S
C1540 H1528 0.930 . S
C1540 C1541 1.399 . S
C1540 C1545 1.399 . S
C1541 C1540 1.399 . S
C1541 C1542 1.376 . S
C1542 H1529 0.930 . S
C1542 C1541 1.376 . S
C1542 C1543 1.388 . S
C1543 H1530 0.930 . S
C1543 C1542 1.388 . S
C1543 C1544 1.390 . S
C1544 C1543 1.390 . S
C1544 C1545 1.394 . S
C1544 C1550 1.465 . S
C1545 C1540 1.399 . S
C1545 C1544 1.394 . S
C1545 C1546 1.516 . S
C1546 C1545 1.516 . S
C1546 C1547 1.502 . S
C1546 C1548 1.561 . S
C1546 C1549 1.526 . S
C1547 H1531 0.959 . S
C1547 H1532 0.959 . S
C1547 H1533 0.961 . S
C1547 C1546 1.502 . S
C1548 H1534 0.960 . S
C1548 H1535 0.961 . S
C1548 H1536 0.959 . S
C1548 C1546 1.561 . S
C1549 C1546 1.526 . S
C1549 C1550 1.396 . S
C1549 C1554 1.390 . S
C1550 C1544 1.465 . S
C1550 C1549 1.396 . S
C1550 C1551 1.399 . S
C1551 H1537 0.929 . S
C1551 C1550 1.399 . S
C1551 C1552 1.385 . S
C1552 H1538 0.931 . S
C1552 C1551 1.385 . S
C1552 C1553 1.389 . S
C1553 C1552 1.389 . S
C1553 C1554 1.387 . S
C1554 H1539 0.930 . S
C1554 C1549 1.390 . S
C1554 C1553 1.387 . S
H1555 C1567 0.930 . S
H1556 C1569 0.930 . S
H1557 C1570 0.930 . S
H1558 C1574 0.959 . S
H1559 C1574 0.959 . S
H1560 C1574 0.961 . S
H1561 C1575 0.960 . S
H1562 C1575 0.961 . S
H1563 C1575 0.959 . S
H1564 C1578 0.929 . S
H1565 C1579 0.931 . S
H1566 C1581 0.930 . S
C1567 H1555 0.930 . S
C1567 C1568 1.399 . S
C1567 C1572 1.399 . S
C1568 C1567 1.399 . S
C1568 C1569 1.376 . S
C1569 H1556 0.930 . S
C1569 C1568 1.376 . S
C1569 C1570 1.388 . S
C1570 H1557 0.930 . S
C1570 C1569 1.388 . S
C1570 C1571 1.390 . S
C1571 C1570 1.390 . S
C1571 C1572 1.394 . S
C1571 C1577 1.465 . S
C1572 C1567 1.399 . S
C1572 C1571 1.394 . S
C1572 C1573 1.516 . S
C1573 C1572 1.516 . S
C1573 C1574 1.502 . S
C1573 C1575 1.561 . S
C1573 C1576 1.526 . S
C1574 H1558 0.959 . S
C1574 H1559 0.959 . S
C1574 H1560 0.961 . S
C1574 C1573 1.502 . S
C1575 H1561 0.960 . S
C1575 H1562 0.961 . S
C1575 H1563 0.959 . S
C1575 C1573 1.561 . S
C1576 C1573 1.526 . S
C1576 C1577 1.396 . S
C1576 C1581 1.390 . S
C1577 C1571 1.465 . S
C1577 C1576 1.396 . S
C1577 C1578 1.399 . S
C1578 H1564 0.929 . S
C1578 C1577 1.399 . S
C1578 C1579 1.385 . S
C1579 H1565 0.931 . S
C1579 C1578 1.385 . S
C1579 C1580 1.389 . S
C1580 C1579 1.389 . S
C1580 C1581 1.387 . S
C1581 H1566 0.930 . S
C1581 C1576 1.390 . S
C1581 C1580 1.387 . S
H1582 C1594 0.930 . S
H1583 C1596 0.930 . S
H1584 C1597 0.930 . S
H1585 C1601 0.959 . S
H1586 C1601 0.959 . S
H1587 C1601 0.961 . S
H1588 C1602 0.960 . S
H1589 C1602 0.961 . S
H1590 C1602 0.959 . S
H1591 C1605 0.929 . S
H1592 C1606 0.931 . S
H1593 C1608 0.930 . S
C1594 H1582 0.930 . S
C1594 C1595 1.399 . S
C1594 C1599 1.399 . S
C1595 C1594 1.399 . S
C1595 C1596 1.376 . S
C1596 H1583 0.930 . S
C1596 C1595 1.376 . S
C1596 C1597 1.388 . S
C1597 H1584 0.930 . S
C1597 C1596 1.388 . S
C1597 C1598 1.390 . S
C1598 C1597 1.390 . S
C1598 C1599 1.394 . S
C1598 C1604 1.465 . S
C1599 C1594 1.399 . S
C1599 C1598 1.394 . S
C1599 C1600 1.516 . S
C1600 C1599 1.516 . S
C1600 C1601 1.502 . S
C1600 C1602 1.561 . S
C1600 C1603 1.526 . S
C1601 H1585 0.959 . S
C1601 H1586 0.959 . S
C1601 H1587 0.961 . S
C1601 C1600 1.502 . S
C1602 H1588 0.960 . S
C1602 H1589 0.961 . S
C1602 H1590 0.959 . S
C1602 C1600 1.561 . S
C1603 C1600 1.526 . S
C1603 C1604 1.396 . S
C1603 C1608 1.390 . S
C1604 C1598 1.465 . S
C1604 C1603 1.396 . S
C1604 C1605 1.399 . S
C1605 H1591 0.929 . S
C1605 C1604 1.399 . S
C1605 C1606 1.385 . S
C1606 H1592 0.931 . S
C1606 C1605 1.385 . S
C1606 C1607 1.389 . S
C1607 C1606 1.389 . S
C1607 C1608 1.387 . S
C1608 H1593 0.930 . S
C1608 C1603 1.390 . S
C1608 C1607 1.387 . S
H1609 C1621 0.930 . S
H1610 C1623 0.930 . S
H1611 C1624 0.930 . S
H1612 C1628 0.959 . S
H1613 C1628 0.959 . S
H1614 C1628 0.961 . S
H1615 C1629 0.960 . S
H1616 C1629 0.961 . S
H1617 C1629 0.959 . S
H1618 C1632 0.929 . S
H1619 C1633 0.931 . S
H1620 C1635 0.930 . S
C1621 H1609 0.930 . S
C1621 C1622 1.399 . S
C1621 C1626 1.399 . S
C1622 C1621 1.399 . S
C1622 C1623 1.376 . S
C1623 H1610 0.930 . S
C1623 C1622 1.376 . S
C1623 C1624 1.388 . S
C1624 H1611 0.930 . S
C1624 C1623 1.388 . S
C1624 C1625 1.390 . S
C1625 C1624 1.390 . S
C1625 C1626 1.394 . S
C1625 C1631 1.465 . S
C1626 C1621 1.399 . S
C1626 C1625 1.394 . S
C1626 C1627 1.516 . S
C1627 C1626 1.516 . S
C1627 C1628 1.502 . S
C1627 C1629 1.561 . S
C1627 C1630 1.526 . S
C1628 H1612 0.959 . S
C1628 H1613 0.959 . S
C1628 H1614 0.961 . S
C1628 C1627 1.502 . S
C1629 H1615 0.960 . S
C1629 H1616 0.961 . S
C1629 H1617 0.959 . S
C1629 C1627 1.561 . S
C1630 C1627 1.526 . S
C1630 C1631 1.396 . S
C1630 C1635 1.390 . S
C1631 C1625 1.465 . S
C1631 C1630 1.396 . S
C1631 C1632 1.399 . S
C1632 H1618 0.929 . S
C1632 C1631 1.399 . S
C1632 C1633 1.385 . S
C1633 H1619 0.931 . S
C1633 C1632 1.385 . S
C1633 C1634 1.389 . S
C1634 C1633 1.389 . S
C1634 C1635 1.387 . S
C1635 H1620 0.930 . S
C1635 C1630 1.390 . S
C1635 C1634 1.387 . S
H1636 C1648 0.930 . S
H1637 C1650 0.930 . S
H1638 C1651 0.930 . S
H1639 C1655 0.959 . S
H1640 C1655 0.959 . S
H1641 C1655 0.961 . S
H1642 C1656 0.960 . S
H1643 C1656 0.961 . S
H1644 C1656 0.959 . S
H1645 C1659 0.929 . S
H1646 C1660 0.931 . S
H1647 C1662 0.930 . S
C1648 H1636 0.930 . S
C1648 C1649 1.399 . S
C1648 C1653 1.399 . S
C1649 C1648 1.399 . S
C1649 C1650 1.376 . S
C1650 H1637 0.930 . S
C1650 C1649 1.376 . S
C1650 C1651 1.388 . S
C1651 H1638 0.930 . S
C1651 C1650 1.388 . S
C1651 C1652 1.390 . S
C1652 C1651 1.390 . S
C1652 C1653 1.394 . S
C1652 C1658 1.465 . S
C1653 C1648 1.399 . S
C1653 C1652 1.394 . S
C1653 C1654 1.516 . S
C1654 C1653 1.516 . S
C1654 C1655 1.502 . S
C1654 C1656 1.561 . S
C1654 C1657 1.526 . S
C1655 H1639 0.959 . S
C1655 H1640 0.959 . S
C1655 H1641 0.961 . S
C1655 C1654 1.502 . S
C1656 H1642 0.960 . S
C1656 H1643 0.961 . S
C1656 H1644 0.959 . S
C1656 C1654 1.561 . S
C1657 C1654 1.526 . S
C1657 C1658 1.396 . S
C1657 C1662 1.390 . S
C1658 C1652 1.465 . S
C1658 C1657 1.396 . S
C1658 C1659 1.399 . S
C1659 H1645 0.929 . S
C1659 C1658 1.399 . S
C1659 C1660 1.385 . S
C1660 H1646 0.931 . S
C1660 C1659 1.385 . S
C1660 C1661 1.389 . S
C1661 C1660 1.389 . S
C1661 C1662 1.387 . S
C1662 H1647 0.930 . S
C1662 C1657 1.390 . S
C1662 C1661 1.387 . S
H1663 C1675 0.930 1_556 S
H1664 C1677 0.930 . S
H1665 C1678 0.930 . S
H1666 C1682 0.959 1_554 S
H1667 C1682 0.959 . S
H1668 C1682 0.961 . S
H1669 C1683 0.960 . S
H1670 C1683 0.961 . S
H1671 C1683 0.959 . S
H1672 C1686 0.929 . S
H1673 C1687 0.931 1_554 S
H1674 C1689 0.930 . S
C1675 H1663 0.930 1_554 S
C1675 C1676 1.399 . S
C1675 C1680 1.399 1_554 S
C1676 C1675 1.399 . S
C1676 C1677 1.376 1_455 S
C1677 H1664 0.930 . S
C1677 C1676 1.376 1_655 S
C1677 C1678 1.388 . S
C1678 H1665 0.930 . S
C1678 C1677 1.388 . S
C1678 C1679 1.390 . S
C1679 C1678 1.390 . S
C1679 C1680 1.394 1_654 S
C1679 C1685 1.465 . S
C1680 C1675 1.399 1_556 S
C1680 C1679 1.394 1_456 S
C1680 C1681 1.516 . S
C1681 C1680 1.516 . S
C1681 C1682 1.502 . S
C1681 C1683 1.561 . S
C1681 C1684 1.526 . S
C1682 H1666 0.959 1_556 S
C1682 H1667 0.959 . S
C1682 H1668 0.961 . S
C1682 C1681 1.502 . S
C1683 H1669 0.960 . S
C1683 H1670 0.961 . S
C1683 H1671 0.959 . S
C1683 C1681 1.561 . S
C1684 C1681 1.526 . S
C1684 C1685 1.396 1_456 S
C1684 C1689 1.390 . S
C1685 C1679 1.465 . S
C1685 C1684 1.396 1_654 S
C1685 C1686 1.399 . S
C1686 H1672 0.929 . S
C1686 C1685 1.399 . S
C1686 C1687 1.385 1_554 S
C1687 H1673 0.931 1_556 S
C1687 C1686 1.385 1_556 S
C1687 C1688 1.389 . S
C1688 C1687 1.389 . S
C1688 C1689 1.387 1_655 S
C1689 H1674 0.930 . S
C1689 C1684 1.390 . S
C1689 C1688 1.387 1_455 S
H1690 C1702 0.930 . S
H1691 C1704 0.930 . S
H1692 C1705 0.930 . S
H1693 C1709 0.959 . S
H1694 C1709 0.959 . S
H1695 C1709 0.961 . S
H1696 C1710 0.960 . S
H1697 C1710 0.961 . S
H1698 C1710 0.959 . S
H1699 C1713 0.929 . S
H1700 C1714 0.931 . S
H1701 C1716 0.930 . S
C1702 H1690 0.930 . S
C1702 C1703 1.399 1_554 S
C1702 C1707 1.399 . S
C1703 C1702 1.399 1_556 S
C1703 C1704 1.376 . S
C1704 H1691 0.930 . S
C1704 C1703 1.376 . S
C1704 C1705 1.388 . S
C1705 H1692 0.930 . S
C1705 C1704 1.388 . S
C1705 C1706 1.390 . S
C1706 C1705 1.390 . S
C1706 C1707 1.394 1_556 S
C1706 C1712 1.465 . S
C1707 C1702 1.399 . S
C1707 C1706 1.394 1_554 S
C1707 C1708 1.516 . S
C1708 C1707 1.516 . S
C1708 C1709 1.502 . S
C1708 C1710 1.561 . S
C1708 C1711 1.526 . S
C1709 H1693 0.959 . S
C1709 H1694 0.959 . S
C1709 H1695 0.961 . S
C1709 C1708 1.502 . S
C1710 H1696 0.960 . S
C1710 H1697 0.961 . S
C1710 H1698 0.959 . S
C1710 C1708 1.561 . S
C1711 C1708 1.526 . S
C1711 C1712 1.396 1_554 S
C1711 C1716 1.390 . S
C1712 C1706 1.465 . S
C1712 C1711 1.396 1_556 S
C1712 C1713 1.399 . S
C1713 H1699 0.929 . S
C1713 C1712 1.399 . S
C1713 C1714 1.385 . S
C1714 H1700 0.931 . S
C1714 C1713 1.385 . S
C1714 C1715 1.389 1_556 S
C1715 C1714 1.389 1_554 S
C1715 C1716 1.387 . S
C1716 H1701 0.930 . S
C1716 C1711 1.390 . S
C1716 C1715 1.387 . S
H1717 C1729 0.930 . S
H1718 C1731 0.930 . S
H1719 C1732 0.930 . S
H1720 C1736 0.959 . S
H1721 C1736 0.959 . S
H1722 C1736 0.961 . S
H1723 C1737 0.958 1_655 S
H1724 C1737 0.959 1_655 S
H1725 C1737 0.967 . S
H1726 C1740 0.929 . S
H1727 C1741 0.931 . S
H1728 C1743 0.930 . S
C1729 H1717 0.930 . S
C1729 C1730 1.399 . S
C1729 C1734 1.399 . S
C1730 C1729 1.399 . S
C1730 C1731 1.376 1_655 S
C1731 H1718 0.930 . S
C1731 C1730 1.376 1_455 S
C1731 C1732 1.388 . S
C1732 H1719 0.930 . S
C1732 C1731 1.388 . S
C1732 C1733 1.390 . S
C1733 C1732 1.390 . S
C1733 C1734 1.394 1_455 S
C1733 C1739 1.465 . S
C1734 C1729 1.399 . S
C1734 C1733 1.394 1_655 S
C1734 C1735 1.516 . S
C1735 C1734 1.516 . S
C1735 C1736 1.502 . S
C1735 C1737 1.557 1_655 S
C1735 C1738 1.526 . S
C1736 H1720 0.959 . S
C1736 H1721 0.959 . S
C1736 H1722 0.961 . S
C1736 C1735 1.502 . S
C1737 H1723 0.958 1_455 S
C1737 H1724 0.959 1_455 S
C1737 H1725 0.967 . S
C1737 C1735 1.557 1_455 S
C1738 C1735 1.526 . S
C1738 C1739 1.396 1_655 S
C1738 C1743 1.390 . S
C1739 C1733 1.465 . S
C1739 C1738 1.396 1_455 S
C1739 C1740 1.399 . S
C1740 H1726 0.929 . S
C1740 C1739 1.399 . S
C1740 C1741 1.385 . S
C1741 H1727 0.931 . S
C1741 C1740 1.385 . S
C1741 C1742 1.389 . S
C1742 C1741 1.389 . S
C1742 C1743 1.387 1_455 S
C1743 H1728 0.930 . S
C1743 C1738 1.390 . S
C1743 C1742 1.387 1_655 S
H1744 C1756 0.930 . S
H1745 C1758 0.930 . S
H1746 C1759 0.930 . S
H1747 C1763 0.959 . S
H1748 C1763 0.959 . S
H1749 C1763 0.961 . S
H1750 C1764 0.960 . S
H1751 C1764 0.961 . S
H1752 C1764 0.959 . S
H1753 C1767 0.929 . S
H1754 C1768 0.931 . S
H1755 C1770 0.930 . S
C1756 H1744 0.930 . S
C1756 C1757 1.399 . S
C1756 C1761 1.399 . S
C1757 C1756 1.399 . S
C1757 C1758 1.376 . S
C1758 H1745 0.930 . S
C1758 C1757 1.376 . S
C1758 C1759 1.388 . S
C1759 H1746 0.930 . S
C1759 C1758 1.388 . S
C1759 C1760 1.390 . S
C1760 C1759 1.390 . S
C1760 C1761 1.394 . S
C1760 C1766 1.465 . S
C1761 C1756 1.399 . S
C1761 C1760 1.394 . S
C1761 C1762 1.516 . S
C1762 C1761 1.516 . S
C1762 C1763 1.502 . S
C1762 C1764 1.561 . S
C1762 C1765 1.526 . S
C1763 H1747 0.959 . S
C1763 H1748 0.959 . S
C1763 H1749 0.961 . S
C1763 C1762 1.502 . S
C1764 H1750 0.960 . S
C1764 H1751 0.961 . S
C1764 H1752 0.959 . S
C1764 C1762 1.561 . S
C1765 C1762 1.526 . S
C1765 C1766 1.396 . S
C1765 C1770 1.390 . S
C1766 C1760 1.465 . S
C1766 C1765 1.396 . S
C1766 C1767 1.399 . S
C1767 H1753 0.929 . S
C1767 C1766 1.399 . S
C1767 C1768 1.385 . S
C1768 H1754 0.931 . S
C1768 C1767 1.385 . S
C1768 C1769 1.389 . S
C1769 C1768 1.389 . S
C1769 C1770 1.387 . S
C1770 H1755 0.930 . S
C1770 C1765 1.390 . S
C1770 C1769 1.387 . S
H1771 C1783 0.930 . S
H1772 C1785 0.930 . S
H1773 C1786 0.930 . S
H1774 C1790 0.959 . S
H1775 C1790 0.959 . S
H1776 C1790 0.961 . S
H1777 C1791 0.960 . S
H1778 C1791 0.961 . S
H1779 C1791 0.959 . S
H1780 C1794 0.929 . S
H1781 C1795 0.931 . S
H1782 C1797 0.930 . S
C1783 H1771 0.930 . S
C1783 C1784 1.399 . S
C1783 C1788 1.399 . S
C1784 C1783 1.399 . S
C1784 C1785 1.376 . S
C1785 H1772 0.930 . S
C1785 C1784 1.376 . S
C1785 C1786 1.388 . S
C1786 H1773 0.930 . S
C1786 C1785 1.388 . S
C1786 C1787 1.390 . S
C1787 C1786 1.390 . S
C1787 C1788 1.394 . S
C1787 C1793 1.465 . S
C1788 C1783 1.399 . S
C1788 C1787 1.394 . S
C1788 C1789 1.516 . S
C1789 C1788 1.516 . S
C1789 C1790 1.502 . S
C1789 C1791 1.561 . S
C1789 C1792 1.526 . S
C1790 H1774 0.959 . S
C1790 H1775 0.959 . S
C1790 H1776 0.961 . S
C1790 C1789 1.502 . S
C1791 H1777 0.960 . S
C1791 H1778 0.961 . S
C1791 H1779 0.959 . S
C1791 C1789 1.561 . S
C1792 C1789 1.526 . S
C1792 C1793 1.396 . S
C1792 C1797 1.390 . S
C1793 C1787 1.465 . S
C1793 C1792 1.396 . S
C1793 C1794 1.399 . S
C1794 H1780 0.929 . S
C1794 C1793 1.399 . S
C1794 C1795 1.385 . S
C1795 H1781 0.931 . S
C1795 C1794 1.385 . S
C1795 C1796 1.389 . S
C1796 C1795 1.389 . S
C1796 C1797 1.387 . S
C1797 H1782 0.930 . S
C1797 C1792 1.390 . S
C1797 C1796 1.387 . S
H1798 C1810 0.930 . S
H1799 C1812 0.930 . S
H1800 C1813 0.930 . S
H1801 C1817 0.959 . S
H1802 C1817 0.959 . S
H1803 C1817 0.961 . S
H1804 C1818 0.960 . S
H1805 C1818 0.961 . S
H1806 C1818 0.959 . S
H1807 C1821 0.929 . S
H1808 C1822 0.931 . S
H1809 C1824 0.930 . S
C1810 H1798 0.930 . S
C1810 C1811 1.399 . S
C1810 C1815 1.399 . S
C1811 C1810 1.399 . S
C1811 C1812 1.376 . S
C1812 H1799 0.930 . S
C1812 C1811 1.376 . S
C1812 C1813 1.388 . S
C1813 H1800 0.930 . S
C1813 C1812 1.388 . S
C1813 C1814 1.390 . S
C1814 C1813 1.390 . S
C1814 C1815 1.394 . S
C1814 C1820 1.465 . S
C1815 C1810 1.399 . S
C1815 C1814 1.394 . S
C1815 C1816 1.516 . S
C1816 C1815 1.516 . S
C1816 C1817 1.502 . S
C1816 C1818 1.561 . S
C1816 C1819 1.526 . S
C1817 H1801 0.959 . S
C1817 H1802 0.959 . S
C1817 H1803 0.961 . S
C1817 C1816 1.502 . S
C1818 H1804 0.960 . S
C1818 H1805 0.961 . S
C1818 H1806 0.959 . S
C1818 C1816 1.561 . S
C1819 C1816 1.526 . S
C1819 C1820 1.396 . S
C1819 C1824 1.390 . S
C1820 C1814 1.465 . S
C1820 C1819 1.396 . S
C1820 C1821 1.399 . S
C1821 H1807 0.929 . S
C1821 C1820 1.399 . S
C1821 C1822 1.385 . S
C1822 H1808 0.931 . S
C1822 C1821 1.385 . S
C1822 C1823 1.389 . S
C1823 C1822 1.389 . S
C1823 C1824 1.387 . S
C1824 H1809 0.930 . S
C1824 C1819 1.390 . S
C1824 C1823 1.387 . S
H1825 C1837 0.930 . S
H1826 C1839 0.930 . S
H1827 C1840 0.930 . S
H1828 C1844 0.959 . S
H1829 C1844 0.959 . S
H1830 C1844 0.961 . S
H1831 C1845 0.960 . S
H1832 C1845 0.961 . S
H1833 C1845 0.959 . S
H1834 C1848 0.929 . S
H1835 C1849 0.931 . S
H1836 C1851 0.930 . S
C1837 H1825 0.930 . S
C1837 C1838 1.399 . S
C1837 C1842 1.399 . S
C1838 C1837 1.399 . S
C1838 C1839 1.376 . S
C1839 H1826 0.930 . S
C1839 C1838 1.376 . S
C1839 C1840 1.388 . S
C1840 H1827 0.930 . S
C1840 C1839 1.388 . S
C1840 C1841 1.390 . S
C1841 C1840 1.390 . S
C1841 C1842 1.394 . S
C1841 C1847 1.465 . S
C1842 C1837 1.399 . S
C1842 C1841 1.394 . S
C1842 C1843 1.516 . S
C1843 C1842 1.516 . S
C1843 C1844 1.502 . S
C1843 C1845 1.561 . S
C1843 C1846 1.526 . S
C1844 H1828 0.959 . S
C1844 H1829 0.959 . S
C1844 H1830 0.961 . S
C1844 C1843 1.502 . S
C1845 H1831 0.960 . S
C1845 H1832 0.961 . S
C1845 H1833 0.959 . S
C1845 C1843 1.561 . S
C1846 C1843 1.526 . S
C1846 C1847 1.396 . S
C1846 C1851 1.390 . S
C1847 C1841 1.465 . S
C1847 C1846 1.396 . S
C1847 C1848 1.399 . S
C1848 H1834 0.929 . S
C1848 C1847 1.399 . S
C1848 C1849 1.385 . S
C1849 H1835 0.931 . S
C1849 C1848 1.385 . S
C1849 C1850 1.389 . S
C1850 C1849 1.389 . S
C1850 C1851 1.387 . S
C1851 H1836 0.930 . S
C1851 C1846 1.390 . S
C1851 C1850 1.387 . S
H1852 C1864 0.930 . S
H1853 C1866 0.930 . S
H1854 C1867 0.930 . S
H1855 C1871 0.959 . S
H1856 C1871 0.959 . S
H1857 C1871 0.961 . S
H1858 C1872 0.960 . S
H1859 C1872 0.961 . S
H1860 C1872 0.959 . S
H1861 C1875 0.929 . S
H1862 C1876 0.931 . S
H1863 C1878 0.930 . S
C1864 H1852 0.930 . S
C1864 C1865 1.399 . S
C1864 C1869 1.399 . S
C1865 C1864 1.399 . S
C1865 C1866 1.376 . S
C1866 H1853 0.930 . S
C1866 C1865 1.376 . S
C1866 C1867 1.388 . S
C1867 H1854 0.930 . S
C1867 C1866 1.388 . S
C1867 C1868 1.390 . S
C1868 C1867 1.390 . S
C1868 C1869 1.394 . S
C1868 C1874 1.465 . S
C1869 C1864 1.399 . S
C1869 C1868 1.394 . S
C1869 C1870 1.516 . S
C1870 C1869 1.516 . S
C1870 C1871 1.502 . S
C1870 C1872 1.561 . S
C1870 C1873 1.526 . S
C1871 H1855 0.959 . S
C1871 H1856 0.959 . S
C1871 H1857 0.961 . S
C1871 C1870 1.502 . S
C1872 H1858 0.960 . S
C1872 H1859 0.961 . S
C1872 H1860 0.959 . S
C1872 C1870 1.561 . S
C1873 C1870 1.526 . S
C1873 C1874 1.396 . S
C1873 C1878 1.390 . S
C1874 C1868 1.465 . S
C1874 C1873 1.396 . S
C1874 C1875 1.399 . S
C1875 H1861 0.929 . S
C1875 C1874 1.399 . S
C1875 C1876 1.385 . S
C1876 H1862 0.931 . S
C1876 C1875 1.385 . S
C1876 C1877 1.389 . S
C1877 C1876 1.389 . S
C1877 C1878 1.387 . S
C1878 H1863 0.930 . S
C1878 C1873 1.390 . S
C1878 C1877 1.387 . S
H1879 C1891 0.930 . S
H1880 C1893 0.930 . S
H1881 C1894 0.930 . S
H1882 C1898 0.959 . S
H1883 C1898 0.959 . S
H1884 C1898 0.961 . S
H1885 C1899 0.960 . S
H1886 C1899 0.961 . S
H1887 C1899 0.959 . S
H1888 C1902 0.929 . S
H1889 C1903 0.931 . S
H1890 C1905 0.930 . S
C1891 H1879 0.930 . S
C1891 C1892 1.399 . S
C1891 C1896 1.399 . S
C1892 C1891 1.399 . S
C1892 C1893 1.376 . S
C1893 H1880 0.930 . S
C1893 C1892 1.376 . S
C1893 C1894 1.388 . S
C1894 H1881 0.930 . S
C1894 C1893 1.388 . S
C1894 C1895 1.390 . S
C1895 C1894 1.390 . S
C1895 C1896 1.394 . S
C1895 C1901 1.465 . S
C1896 C1891 1.399 . S
C1896 C1895 1.394 . S
C1896 C1897 1.516 . S
C1897 C1896 1.516 . S
C1897 C1898 1.502 . S
C1897 C1899 1.561 . S
C1897 C1900 1.526 . S
C1898 H1882 0.959 . S
C1898 H1883 0.959 . S
C1898 H1884 0.961 . S
C1898 C1897 1.502 . S
C1899 H1885 0.960 . S
C1899 H1886 0.961 . S
C1899 H1887 0.959 . S
C1899 C1897 1.561 . S
C1900 C1897 1.526 . S
C1900 C1901 1.396 . S
C1900 C1905 1.390 . S
C1901 C1895 1.465 . S
C1901 C1900 1.396 . S
C1901 C1902 1.399 . S
C1902 H1888 0.929 . S
C1902 C1901 1.399 . S
C1902 C1903 1.385 . S
C1903 H1889 0.931 . S
C1903 C1902 1.385 . S
C1903 C1904 1.389 . S
C1904 C1903 1.389 . S
C1904 C1905 1.387 . S
C1905 H1890 0.930 . S
C1905 C1900 1.390 . S
C1905 C1904 1.387 . S
H1906 C1918 0.930 . S
H1907 C1920 0.930 . S
H1908 C1921 0.930 . S
H1909 C1925 0.959 . S
H1910 C1925 0.959 . S
H1911 C1925 0.961 . S
H1912 C1926 0.960 . S
H1913 C1926 0.961 . S
H1914 C1926 0.959 . S
H1915 C1929 0.929 . S
H1916 C1930 0.931 . S
H1917 C1932 0.930 . S
C1918 H1906 0.930 . S
C1918 C1919 1.399 . S
C1918 C1923 1.399 . S
C1919 C1918 1.399 . S
C1919 C1920 1.376 . S
C1920 H1907 0.930 . S
C1920 C1919 1.376 . S
C1920 C1921 1.388 . S
C1921 H1908 0.930 . S
C1921 C1920 1.388 . S
C1921 C1922 1.390 . S
C1922 C1921 1.390 . S
C1922 C1923 1.394 . S
C1922 C1928 1.465 . S
C1923 C1918 1.399 . S
C1923 C1922 1.394 . S
C1923 C1924 1.516 . S
C1924 C1923 1.516 . S
C1924 C1925 1.502 . S
C1924 C1926 1.561 . S
C1924 C1927 1.526 . S
C1925 H1909 0.959 . S
C1925 H1910 0.959 . S
C1925 H1911 0.961 . S
C1925 C1924 1.502 . S
C1926 H1912 0.960 . S
C1926 H1913 0.961 . S
C1926 H1914 0.959 . S
C1926 C1924 1.561 . S
C1927 C1924 1.526 . S
C1927 C1928 1.396 . S
C1927 C1932 1.390 . S
C1928 C1922 1.465 . S
C1928 C1927 1.396 . S
C1928 C1929 1.399 . S
C1929 H1915 0.929 . S
C1929 C1928 1.399 . S
C1929 C1930 1.385 . S
C1930 H1916 0.931 . S
C1930 C1929 1.385 . S
C1930 C1931 1.389 . S
C1931 C1930 1.389 . S
C1931 C1932 1.387 . S
C1932 H1917 0.930 . S
C1932 C1927 1.390 . S
C1932 C1931 1.387 . S
H1933 C1945 0.930 . S
H1934 C1947 0.930 . S
H1935 C1948 0.930 . S
H1936 C1952 0.959 . S
H1937 C1952 0.959 . S
H1938 C1952 0.961 . S
H1939 C1953 0.960 . S
H1940 C1953 0.961 . S
H1941 C1953 0.959 . S
H1942 C1956 0.929 . S
H1943 C1957 0.931 . S
H1944 C1959 0.930 . S
C1945 H1933 0.930 . S
C1945 C1946 1.399 . S
C1945 C1950 1.399 . S
C1946 C1945 1.399 . S
C1946 C1947 1.376 . S
C1947 H1934 0.930 . S
C1947 C1946 1.376 . S
C1947 C1948 1.388 . S
C1948 H1935 0.930 . S
C1948 C1947 1.388 . S
C1948 C1949 1.390 . S
C1949 C1948 1.390 . S
C1949 C1950 1.394 . S
C1949 C1955 1.465 . S
C1950 C1945 1.399 . S
C1950 C1949 1.394 . S
C1950 C1951 1.516 . S
C1951 C1950 1.516 . S
C1951 C1952 1.502 . S
C1951 C1953 1.561 . S
C1951 C1954 1.526 . S
C1952 H1936 0.959 . S
C1952 H1937 0.959 . S
C1952 H1938 0.961 . S
C1952 C1951 1.502 . S
C1953 H1939 0.960 . S
C1953 H1940 0.961 . S
C1953 H1941 0.959 . S
C1953 C1951 1.561 . S
C1954 C1951 1.526 . S
C1954 C1955 1.396 . S
C1954 C1959 1.390 . S
C1955 C1949 1.465 . S
C1955 C1954 1.396 . S
C1955 C1956 1.399 . S
C1956 H1942 0.929 . S
C1956 C1955 1.399 . S
C1956 C1957 1.385 . S
C1957 H1943 0.931 . S
C1957 C1956 1.385 . S
C1957 C1958 1.389 . S
C1958 C1957 1.389 . S
C1958 C1959 1.387 . S
C1959 H1944 0.930 . S
C1959 C1954 1.390 . S
C1959 C1958 1.387 . S
H1960 C1972 0.930 . S
H1961 C1974 0.930 . S
H1962 C1975 0.930 . S
H1963 C1979 0.959 . S
H1964 C1979 0.959 . S
H1965 C1979 0.961 . S
H1966 C1980 0.960 . S
H1967 C1980 0.961 . S
H1968 C1980 0.959 . S
H1969 C1983 0.929 . S
H1970 C1984 0.931 . S
H1971 C1986 0.930 . S
C1972 H1960 0.930 . S
C1972 C1973 1.399 . S
C1972 C1977 1.399 . S
C1973 C1972 1.399 . S
C1973 C1974 1.376 . S
C1974 H1961 0.930 . S
C1974 C1973 1.376 . S
C1974 C1975 1.388 . S
C1975 H1962 0.930 . S
C1975 C1974 1.388 . S
C1975 C1976 1.390 . S
C1976 C1975 1.390 . S
C1976 C1977 1.394 . S
C1976 C1982 1.465 . S
C1977 C1972 1.399 . S
C1977 C1976 1.394 . S
C1977 C1978 1.516 . S
C1978 C1977 1.516 . S
C1978 C1979 1.502 . S
C1978 C1980 1.561 . S
C1978 C1981 1.526 . S
C1979 H1963 0.959 . S
C1979 H1964 0.959 . S
C1979 H1965 0.961 . S
C1979 C1978 1.502 . S
C1980 H1966 0.960 . S
C1980 H1967 0.961 . S
C1980 H1968 0.959 . S
C1980 C1978 1.561 . S
C1981 C1978 1.526 . S
C1981 C1982 1.396 . S
C1981 C1986 1.390 . S
C1982 C1976 1.465 . S
C1982 C1981 1.396 . S
C1982 C1983 1.399 . S
C1983 H1969 0.929 . S
C1983 C1982 1.399 . S
C1983 C1984 1.385 . S
C1984 H1970 0.931 . S
C1984 C1983 1.385 . S
C1984 C1985 1.389 . S
C1985 C1984 1.389 . S
C1985 C1986 1.387 . S
C1986 H1971 0.930 . S
C1986 C1981 1.390 . S
C1986 C1985 1.387 . S
H1987 C1999 0.930 . S
H1988 C2001 0.930 . S
H1989 C2002 0.930 . S
H1990 C2006 0.959 . S
H1991 C2006 0.959 . S
H1992 C2006 0.961 . S
H1993 C2007 0.960 . S
H1994 C2007 0.961 . S
H1995 C2007 0.959 . S
H1996 C2010 0.929 . S
H1997 C2011 0.931 . S
H1998 C2013 0.930 . S
C1999 H1987 0.930 . S
C1999 C2000 1.399 . S
C1999 C2004 1.399 . S
C2000 C1999 1.399 . S
C2000 C2001 1.376 . S
C2001 H1988 0.930 . S
C2001 C2000 1.376 . S
C2001 C2002 1.388 . S
C2002 H1989 0.930 . S
C2002 C2001 1.388 . S
C2002 C2003 1.390 . S
C2003 C2002 1.390 . S
C2003 C2004 1.394 . S
C2003 C2009 1.465 . S
C2004 C1999 1.399 . S
C2004 C2003 1.394 . S
C2004 C2005 1.516 . S
C2005 C2004 1.516 . S
C2005 C2006 1.502 . S
C2005 C2007 1.561 . S
C2005 C2008 1.526 . S
C2006 H1990 0.959 . S
C2006 H1991 0.959 . S
C2006 H1992 0.961 . S
C2006 C2005 1.502 . S
C2007 H1993 0.960 . S
C2007 H1994 0.961 . S
C2007 H1995 0.959 . S
C2007 C2005 1.561 . S
C2008 C2005 1.526 . S
C2008 C2009 1.396 . S
C2008 C2013 1.390 . S
C2009 C2003 1.465 . S
C2009 C2008 1.396 . S
C2009 C2010 1.399 . S
C2010 H1996 0.929 . S
C2010 C2009 1.399 . S
C2010 C2011 1.385 . S
C2011 H1997 0.931 . S
C2011 C2010 1.385 . S
C2011 C2012 1.389 . S
C2012 C2011 1.389 . S
C2012 C2013 1.387 . S
C2013 H1998 0.930 . S
C2013 C2008 1.390 . S
C2013 C2012 1.387 . S
H2014 C2026 0.930 . S
H2015 C2028 0.930 . S
H2016 C2029 0.930 . S
H2017 C2033 0.959 . S
H2018 C2033 0.959 . S
H2019 C2033 0.961 . S
H2020 C2034 0.960 . S
H2021 C2034 0.961 . S
H2022 C2034 0.959 . S
H2023 C2037 0.929 . S
H2024 C2038 0.931 . S
H2025 C2040 0.930 . S
C2026 H2014 0.930 . S
C2026 C2027 1.399 . S
C2026 C2031 1.399 . S
C2027 C2026 1.399 . S
C2027 C2028 1.376 . S
C2028 H2015 0.930 . S
C2028 C2027 1.376 . S
C2028 C2029 1.388 . S
C2029 H2016 0.930 . S
C2029 C2028 1.388 . S
C2029 C2030 1.390 . S
C2030 C2029 1.390 . S
C2030 C2031 1.394 . S
C2030 C2036 1.465 . S
C2031 C2026 1.399 . S
C2031 C2030 1.394 . S
C2031 C2032 1.516 . S
C2032 C2031 1.516 . S
C2032 C2033 1.502 . S
C2032 C2034 1.561 . S
C2032 C2035 1.526 . S
C2033 H2017 0.959 . S
C2033 H2018 0.959 . S
C2033 H2019 0.961 . S
C2033 C2032 1.502 . S
C2034 H2020 0.960 . S
C2034 H2021 0.961 . S
C2034 H2022 0.959 . S
C2034 C2032 1.561 . S
C2035 C2032 1.526 . S
C2035 C2036 1.396 . S
C2035 C2040 1.390 . S
C2036 C2030 1.465 . S
C2036 C2035 1.396 . S
C2036 C2037 1.399 . S
C2037 H2023 0.929 . S
C2037 C2036 1.399 . S
C2037 C2038 1.385 . S
C2038 H2024 0.931 . S
C2038 C2037 1.385 . S
C2038 C2039 1.389 . S
C2039 C2038 1.389 . S
C2039 C2040 1.387 . S
C2040 H2025 0.930 . S
C2040 C2035 1.390 . S
C2040 C2039 1.387 . S
H2041 C2053 0.930 . S
H2042 C2055 0.930 . S
H2043 C2056 0.930 . S
H2044 C2060 0.959 . S
H2045 C2060 0.959 . S
H2046 C2060 0.961 . S
H2047 C2061 0.960 . S
H2048 C2061 0.961 . S
H2049 C2061 0.959 . S
H2050 C2064 0.929 . S
H2051 C2065 0.931 . S
H2052 C2067 0.930 . S
C2053 H2041 0.930 . S
C2053 C2054 1.399 . S
C2053 C2058 1.399 . S
C2054 C2053 1.399 . S
C2054 C2055 1.376 . S
C2055 H2042 0.930 . S
C2055 C2054 1.376 . S
C2055 C2056 1.388 . S
C2056 H2043 0.930 . S
C2056 C2055 1.388 . S
C2056 C2057 1.390 . S
C2057 C2056 1.390 . S
C2057 C2058 1.394 . S
C2057 C2063 1.465 . S
C2058 C2053 1.399 . S
C2058 C2057 1.394 . S
C2058 C2059 1.516 . S
C2059 C2058 1.516 . S
C2059 C2060 1.502 . S
C2059 C2061 1.561 . S
C2059 C2062 1.526 . S
C2060 H2044 0.959 . S
C2060 H2045 0.959 . S
C2060 H2046 0.961 . S
C2060 C2059 1.502 . S
C2061 H2047 0.960 . S
C2061 H2048 0.961 . S
C2061 H2049 0.959 . S
C2061 C2059 1.561 . S
C2062 C2059 1.526 . S
C2062 C2063 1.396 . S
C2062 C2067 1.390 . S
C2063 C2057 1.465 . S
C2063 C2062 1.396 . S
C2063 C2064 1.399 . S
C2064 H2050 0.929 . S
C2064 C2063 1.399 . S
C2064 C2065 1.385 . S
C2065 H2051 0.931 . S
C2065 C2064 1.385 . S
C2065 C2066 1.389 . S
C2066 C2065 1.389 . S
C2066 C2067 1.387 . S
C2067 H2052 0.930 . S
C2067 C2062 1.390 . S
C2067 C2066 1.387 . S
H2068 C2080 0.930 . S
H2069 C2082 0.930 . S
H2070 C2083 0.930 . S
H2071 C2087 0.959 . S
H2072 C2087 0.959 . S
H2073 C2087 0.961 . S
H2074 C2088 0.960 . S
H2075 C2088 0.961 . S
H2076 C2088 0.959 . S
H2077 C2091 0.929 . S
H2078 C2092 0.931 . S
H2079 C2094 0.930 . S
C2080 H2068 0.930 . S
C2080 C2081 1.399 . S
C2080 C2085 1.399 . S
C2081 C2080 1.399 . S
C2081 C2082 1.376 . S
C2082 H2069 0.930 . S
C2082 C2081 1.376 . S
C2082 C2083 1.388 . S
C2083 H2070 0.930 . S
C2083 C2082 1.388 . S
C2083 C2084 1.390 . S
C2084 C2083 1.390 . S
C2084 C2085 1.394 . S
C2084 C2090 1.465 . S
C2085 C2080 1.399 . S
C2085 C2084 1.394 . S
C2085 C2086 1.516 . S
C2086 C2085 1.516 . S
C2086 C2087 1.502 . S
C2086 C2088 1.561 . S
C2086 C2089 1.526 . S
C2087 H2071 0.959 . S
C2087 H2072 0.959 . S
C2087 H2073 0.961 . S
C2087 C2086 1.502 . S
C2088 H2074 0.960 . S
C2088 H2075 0.961 . S
C2088 H2076 0.959 . S
C2088 C2086 1.561 . S
C2089 C2086 1.526 . S
C2089 C2090 1.396 . S
C2089 C2094 1.390 . S
C2090 C2084 1.465 . S
C2090 C2089 1.396 . S
C2090 C2091 1.399 . S
C2091 H2077 0.929 . S
C2091 C2090 1.399 . S
C2091 C2092 1.385 . S
C2092 H2078 0.931 . S
C2092 C2091 1.385 . S
C2092 C2093 1.389 . S
C2093 C2092 1.389 . S
C2093 C2094 1.387 . S
C2094 H2079 0.930 . S
C2094 C2089 1.390 . S
C2094 C2093 1.387 . S
H2095 C2107 0.930 . S
H2096 C2109 0.930 . S
H2097 C2110 0.930 . S
H2098 C2114 0.959 . S
H2099 C2114 0.959 . S
H2100 C2114 0.961 . S
H2101 C2115 0.960 . S
H2102 C2115 0.961 . S
H2103 C2115 0.959 . S
H2104 C2118 0.929 . S
H2105 C2119 0.931 . S
H2106 C2121 0.930 . S
C2107 H2095 0.930 . S
C2107 C2108 1.399 . S
C2107 C2112 1.399 . S
C2108 C2107 1.399 . S
C2108 C2109 1.376 . S
C2109 H2096 0.930 . S
C2109 C2108 1.376 . S
C2109 C2110 1.388 . S
C2110 H2097 0.930 . S
C2110 C2109 1.388 . S
C2110 C2111 1.390 . S
C2111 C2110 1.390 . S
C2111 C2112 1.394 . S
C2111 C2117 1.465 . S
C2112 C2107 1.399 . S
C2112 C2111 1.394 . S
C2112 C2113 1.516 . S
C2113 C2112 1.516 . S
C2113 C2114 1.502 . S
C2113 C2115 1.561 . S
C2113 C2116 1.526 . S
C2114 H2098 0.959 . S
C2114 H2099 0.959 . S
C2114 H2100 0.961 . S
C2114 C2113 1.502 . S
C2115 H2101 0.960 . S
C2115 H2102 0.961 . S
C2115 H2103 0.959 . S
C2115 C2113 1.561 . S
C2116 C2113 1.526 . S
C2116 C2117 1.396 . S
C2116 C2121 1.390 . S
C2117 C2111 1.465 . S
C2117 C2116 1.396 . S
C2117 C2118 1.399 . S
C2118 H2104 0.929 . S
C2118 C2117 1.399 . S
C2118 C2119 1.385 . S
C2119 H2105 0.931 . S
C2119 C2118 1.385 . S
C2119 C2120 1.389 . S
C2120 C2119 1.389 . S
C2120 C2121 1.387 . S
C2121 H2106 0.930 . S
C2121 C2116 1.390 . S
C2121 C2120 1.387 . S
H2122 C2134 0.930 . S
H2123 C2136 0.930 . S
H2124 C2137 0.930 . S
H2125 C2141 0.959 . S
H2126 C2141 0.959 . S
H2127 C2141 0.961 . S
H2128 C2142 0.960 . S
H2129 C2142 0.961 . S
H2130 C2142 0.959 . S
H2131 C2145 0.929 . S
H2132 C2146 0.931 . S
H2133 C2148 0.930 . S
C2134 H2122 0.930 . S
C2134 C2135 1.399 . S
C2134 C2139 1.399 . S
C2135 C2134 1.399 . S
C2135 C2136 1.376 . S
C2136 H2123 0.930 . S
C2136 C2135 1.376 . S
C2136 C2137 1.388 . S
C2137 H2124 0.930 . S
C2137 C2136 1.388 . S
C2137 C2138 1.390 . S
C2138 C2137 1.390 . S
C2138 C2139 1.394 . S
C2138 C2144 1.465 . S
C2139 C2134 1.399 . S
C2139 C2138 1.394 . S
C2139 C2140 1.516 . S
C2140 C2139 1.516 . S
C2140 C2141 1.502 . S
C2140 C2142 1.561 . S
C2140 C2143 1.526 . S
C2141 H2125 0.959 . S
C2141 H2126 0.959 . S
C2141 H2127 0.961 . S
C2141 C2140 1.502 . S
C2142 H2128 0.960 . S
C2142 H2129 0.961 . S
C2142 H2130 0.959 . S
C2142 C2140 1.561 . S
C2143 C2140 1.526 . S
C2143 C2144 1.396 . S
C2143 C2148 1.390 . S
C2144 C2138 1.465 . S
C2144 C2143 1.396 . S
C2144 C2145 1.399 . S
C2145 H2131 0.929 . S
C2145 C2144 1.399 . S
C2145 C2146 1.385 . S
C2146 H2132 0.931 . S
C2146 C2145 1.385 . S
C2146 C2147 1.389 . S
C2147 C2146 1.389 . S
C2147 C2148 1.387 . S
C2148 H2133 0.930 . S
C2148 C2143 1.390 . S
C2148 C2147 1.387 . S
H2149 C2161 0.930 . S
H2150 C2163 0.930 . S
H2151 C2164 0.930 . S
H2152 C2168 0.959 . S
H2153 C2168 0.959 . S
H2154 C2168 0.961 . S
H2155 C2169 0.960 . S
H2156 C2169 0.961 . S
H2157 C2169 0.959 . S
H2158 C2172 0.929 . S
H2159 C2173 0.931 . S
H2160 C2175 0.930 . S
C2161 H2149 0.930 . S
C2161 C2162 1.399 . S
C2161 C2166 1.399 . S
C2162 C2161 1.399 . S
C2162 C2163 1.376 . S
C2163 H2150 0.930 . S
C2163 C2162 1.376 . S
C2163 C2164 1.388 . S
C2164 H2151 0.930 . S
C2164 C2163 1.388 . S
C2164 C2165 1.390 . S
C2165 C2164 1.390 . S
C2165 C2166 1.394 . S
C2165 C2171 1.465 . S
C2166 C2161 1.399 . S
C2166 C2165 1.394 . S
C2166 C2167 1.516 . S
C2167 C2166 1.516 . S
C2167 C2168 1.502 . S
C2167 C2169 1.561 . S
C2167 C2170 1.526 . S
C2168 H2152 0.959 . S
C2168 H2153 0.959 . S
C2168 H2154 0.961 . S
C2168 C2167 1.502 . S
C2169 H2155 0.960 . S
C2169 H2156 0.961 . S
C2169 H2157 0.959 . S
C2169 C2167 1.561 . S
C2170 C2167 1.526 . S
C2170 C2171 1.396 . S
C2170 C2175 1.390 . S
C2171 C2165 1.465 . S
C2171 C2170 1.396 . S
C2171 C2172 1.399 . S
C2172 H2158 0.929 . S
C2172 C2171 1.399 . S
C2172 C2173 1.385 . S
C2173 H2159 0.931 . S
C2173 C2172 1.385 . S
C2173 C2174 1.389 . S
C2174 C2173 1.389 . S
C2174 C2175 1.387 . S
C2175 H2160 0.930 . S
C2175 C2170 1.390 . S
C2175 C2174 1.387 . S
C461 C181 1.436 . S
C473 C0 1.417 . S
C488 C406 1.430 . S
C500 C27 1.415 . S
C515 C196 1.435 . S
C527 C29 1.417 . S
C542 C435 1.432 . S
C554 C55 1.414 . S
C569 C113 1.434 . S
C581 C68 1.419 . S
C596 C70 1.416 . S
C608 C362 1.437 . S
C623 C84 1.433 . S
C635 C140 1.418 . S
C650 C391 1.433 . S
C662 C99 1.413 . S
C677 C69 1.432 . S
C689 C112 1.420 . S
C704 C294 1.409 . S
C716 C126 1.438 . S
C731 C85 1.413 . S
C743 C141 1.429 . S
C758 C322 1.417 . S
C770 C166 1.434 . S
C785 C180 1.436 . S
C797 C1 1.413 . S
C812 C183 1.438 . S
C824 C251 1.407 . S
C839 C28 1.431 . S
C851 C197 1.424 . S
C866 C211 1.417 . S
C878 C266 1.436 . S
C893 C392 1.428 . S
C905 C224 1.425 . S
C920 C182 1.435 . S
C932 C250 1.413 . S
C947 C433 1.412 . S
C959 C252 1.433 . S
C974 C267 1.421 . S
C986 C210 1.431 . S
C1001 C280 1.435 . S
C1013 C337 1.415 . S
C1028 C295 1.435 . S
C1040 C127 1.410 . S
C1055 C377 1.437 . S
C1067 C320 1.416 . S
C1082 C167 1.434 . S
C1094 C323 1.413 . S
C1109 C281 1.432 . S
C1121 C336 1.420 . S
C1136 C363 1.433 . S
C1148 C71 1.410 . S
C1163 C376 1.417 . S
C1175 C321 1.427 . S
C1190 C390 1.414 . S
C1202 C98 1.437 . S
C1217 C225 1.413 . S
C1229 C393 1.429 . S
C1244 C26 1.436 . S
C1256 C407 1.413 . S
C1271 C253 1.412 . S
C1283 C432 1.431 . S
C1298 C434 1.431 . S
C1310 C54 1.413 . S
C1325 C13 1.913 . S
C1337 C125 1.966 . S
C1352 C14 1.974 . S
C1364 C350 1.915 . S
C1379 C152 1.966 . S
C1391 C40 1.927 . S
C1406 C42 1.926 . S
C1418 C379 1.955 . S
C1433 C57 1.957 . S
C1445 C169 1.939 . S
C1460 C418 1.957 . S
C1472 C83 1.919 . S
C1487 C208 1.943 . S
C1499 C97 1.931 . S
C1514 C110 1.966 . S
C1526 C447 1.918 . S
C1541 C139 1.934 . S
C1553 C239 1.944 . S
C1568 C155 1.942 . S
C1580 C278 1.956 . S
C1595 C194 1.932 . S
C1607 C306 1.962 . S
C1622 C334 1.964 . S
C1634 C222 1.930 . S
C1649 C237 1.964 . S
C1661 C349 1.930 . S
C1676 C265 1.911 . S
C1688 C365 1.972 . S
C1703 C293 1.913 . S
C1715 C404 1.964 . S
C1730 C421 1.921 . S
C1742 C309 1.959 . S
C1757 C12 1.893 . S
C1769 C111 1.885 . S
C1784 C15 1.888 . S
C1796 C56 1.881 . S
C1811 C82 1.894 . S
C1823 C41 1.886 . S
C1838 C96 1.866 . S
C1850 C43 1.874 . S
C1865 C223 1.859 . S
C1877 C124 1.857 . S
C1892 C168 1.857 . S
C1904 C138 1.858 . S
C1919 C195 1.888 . S
C1931 C153 1.887 . S
C1946 C209 1.890 . S
C1958 C154 1.887 . S
C1973 C236 1.871 . S
C1985 C335 1.861 . S
C2000 C292 1.887 . S
C2012 C238 1.894 . S
C2027 C307 1.857 . S
C2039 C264 1.867 . S
C2054 C308 1.862 . S
C2066 C279 1.869 . S
C2081 C446 1.866 . S
C2093 C348 1.865 . S
C2108 C351 1.880 . S
C2120 C405 1.879 . S
C2135 C364 1.865 . S
C2147 C419 1.869 . S
C2162 C420 1.859 . S
C2174 C378 1.860 . S
