# Generated by pormake.
# Topology uov, (4)-cn, num edge types: 1
# Building blocks:
#     Node 0, Type 0, BuildingBlock: GALJAG_clean_sbu_0, # of connection points: 4
#     Node 1, Type 0, BuildingBlock: GALJAG_clean_sbu_0, # of connection points: 4
#     Node 2, Type 0, BuildingBlock: GALJAG_clean_sbu_0, # of connection points: 4
#     Node 3, Type 0, BuildingBlock: GALJAG_clean_sbu_0, # of connection points: 4
#     Node 4, Type 0, BuildingBlock: GALJAG_clean_sbu_0, # of connection points: 4
#     Node 5, Type 0, BuildingBlock: GALJAG_clean_sbu_0, # of connection points: 4
#     Node 6, Type 0, BuildingBlock: GALJAG_clean_sbu_0, # of connection points: 4
#     Node 7, Type 0, BuildingBlock: GALJAG_clean_sbu_0, # of connection points: 4
#     Edge 8, Type (0, 0), BuildingBlock: FUNLAD_clean_linker_1, # of connection points: 2
#     Edge 9, Type (0, 0), BuildingBlock: FUNLAD_clean_linker_1, # of connection points: 2
#     Edge 10, Type (0, 0), BuildingBlock: FUNLAD_clean_linker_1, # of connection points: 2
#     Edge 11, Type (0, 0), BuildingBlock: FUNLAD_clean_linker_1, # of connection points: 2
#     Edge 12, Type (0, 0), BuildingBlock: FUNLAD_clean_linker_1, # of connection points: 2
#     Edge 13, Type (0, 0), BuildingBlock: FUNLAD_clean_linker_1, # of connection points: 2
#     Edge 14, Type (0, 0), BuildingBlock: FUNLAD_clean_linker_1, # of connection points: 2
#     Edge 15, Type (0, 0), BuildingBlock: FUNLAD_clean_linker_1, # of connection points: 2
#     Edge 16, Type (0, 0), BuildingBlock: FUNLAD_clean_linker_1, # of connection points: 2
#     Edge 17, Type (0, 0), BuildingBlock: FUNLAD_clean_linker_1, # of connection points: 2
#     Edge 18, Type (0, 0), BuildingBlock: FUNLAD_clean_linker_1, # of connection points: 2
#     Edge 19, Type (0, 0), BuildingBlock: FUNLAD_clean_linker_1, # of connection points: 2
#     Edge 20, Type (0, 0), BuildingBlock: FUNLAD_clean_linker_1, # of connection points: 2
#     Edge 21, Type (0, 0), BuildingBlock: FUNLAD_clean_linker_1, # of connection points: 2
#     Edge 22, Type (0, 0), BuildingBlock: FUNLAD_clean_linker_1, # of connection points: 2
#     Edge 23, Type (0, 0), BuildingBlock: FUNLAD_clean_linker_1, # of connection points: 2
# Relax obj value: 0.177
# Max RMSD: 0.147
# Mean RMSD: 0.147
data_MOF--net-uov--node1-GALJAG_clean_sbu_0--edge1-FUNLAD_clean_linker_1
_symmetry_space_group_name_H-M    P1
_symmetry_Int_Tables_number       1
_symmetry_cell_setting            triclinic
loop_
_symmetry_equiv_pos_as_xyz
'x, y, z'
_cell_length_a     29.837516
_cell_length_b     29.872524
_cell_length_c     48.44146
_cell_angle_alpha  89.981736
_cell_angle_beta   89.993913
_cell_angle_gamma 90.011995
loop_
_atom_site_label
_atom_site_type_symbol
_atom_site_fract_x
_atom_site_fract_y
_atom_site_fract_z
_atom_type_partial_charge
In0 In 0.02073 0.24296 0.61167 0.0
O1 O 0.05575 0.31076 0.61215 0.0
O2 O 0.98852 0.30809 0.62651 0.0
C3 C 0.07371 0.20163 0.57468 0.0
C4 C 0.04406 0.20683 0.66062 0.0
C5 C 0.94378 0.22603 0.58442 0.0
O6 O 0.06861 0.2435 0.57505 0.0
O7 O 0.05308 0.18061 0.59337 0.0
O8 O 0.94974 0.21356 0.60904 0.0
O9 O 0.97571 0.24801 0.57411 0.0
C10 C 0.02259 0.33178 0.62161 0.0
O11 O 0.00464 0.20461 0.65133 0.0
O12 O 0.07145 0.22763 0.64548 0.0
In13 In 0.25089 0.92931 0.39666 0.0
O14 O 0.32482 0.91439 0.38809 0.0
O15 O 0.30088 0.98041 0.38061 0.0
C16 C 0.22699 0.85866 0.42801 0.0
C17 C 0.2097 0.91711 0.34795 0.0
C18 C 0.22565 0.99008 0.43455 0.0
O19 O 0.26521 0.87649 0.42975 0.0
O20 O 0.20225 0.8744 0.40935 0.0
O21 O 0.20547 0.98604 0.41176 0.0
O22 O 0.25884 0.96469 0.43775 0.0
C23 C 0.33367 0.95389 0.38051 0.0
O24 O 0.20013 0.94923 0.36385 0.0
O25 O 0.24037 0.89134 0.35647 0.0
In26 In 0.95332 0.75987 0.61541 0.0
O27 O 0.92243 0.69106 0.6089 0.0
O28 O 0.9848 0.69457 0.6302 0.0
C29 C 0.90185 0.80702 0.58021 0.0
C30 C 0.92255 0.7858 0.66516 0.0
C31 C 0.03352 0.77712 0.59199 0.0
O32 O 0.90791 0.76544 0.57769 0.0
O33 O 0.92053 0.82458 0.60085 0.0
O34 O 0.02571 0.78649 0.61696 0.0
O35 O 0.00151 0.75873 0.5794 0.0
C36 C 0.95375 0.67027 0.62076 0.0
O37 O 0.95914 0.80019 0.65545 0.0
O38 O 0.90209 0.75821 0.65006 0.0
In39 In 0.7566 0.04731 0.37831 0.0
O40 O 0.6812 0.06023 0.37621 0.0
O41 O 0.70568 0.99833 0.36062 0.0
C42 C 0.78217 0.11315 0.41301 0.0
C43 C 0.79061 0.07143 0.32911 0.0
C44 C 0.78741 0.97936 0.40957 0.0
O45 O 0.74331 0.09652 0.41362 0.0
O46 O 0.8072 0.09815 0.39425 0.0
O47 O 0.80324 0.98757 0.38596 0.0
O48 O 0.75591 0.00466 0.41701 0.0
C49 C 0.67222 0.02272 0.36556 0.0
O50 O 0.80359 0.03704 0.34195 0.0
O51 O 0.75994 0.09355 0.34086 0.0
In52 In 0.96228 0.25519 0.10915 0.0
O53 O 0.95439 0.21084 0.14732 0.0
O54 O 0.90478 0.26061 0.1398 0.0
C55 C 0.03676 0.21921 0.08673 0.0
C56 C 0.98744 0.33882 0.12257 0.0
C57 C 0.90654 0.23279 0.0677 0.0
O58 O 0.02133 0.20568 0.10954 0.0
O59 O 0.01534 0.25101 0.07588 0.0
O60 O 0.92303 0.27145 0.06995 0.0
O61 O 0.9171 0.20588 0.08669 0.0
C62 C 0.91835 0.2292 0.15502 0.0
O63 O 0.95279 0.33057 0.10855 0.0
O64 O 0.00927 0.30489 0.13022 0.0
In65 In 0.23851 0.0454 0.88064 0.0
O66 O 0.3138 0.05882 0.88199 0.0
O67 O 0.29133 -0.00096 0.86244 0.0
C68 C 0.20789 0.10213 0.91962 0.0
C69 C 0.21122 0.08306 0.83305 0.0
C70 C 0.20678 0.9701 0.90401 0.0
O71 O 0.2477 0.08783 0.91972 0.0
O72 O 0.18452 0.08947 0.89945 0.0
O73 O 0.19505 0.98189 0.88004 0.0
O74 O 0.23454 0.99571 0.91562 0.0
C75 C 0.32406 0.02298 0.86967 0.0
O76 O 0.19269 0.04864 0.84304 0.0
O77 O 0.24388 0.09805 0.84677 0.0
In78 In 0.05545 0.76719 0.11353 0.0
O79 O 0.07218 0.69311 0.11237 0.0
O80 O 0.01191 0.71296 0.13269 0.0
C81 C 0.11165 0.79461 0.07351 0.0
C82 C 0.09072 0.79168 0.16232 0.0
C83 C 0.98189 0.80042 0.08858 0.0
O84 O 0.09398 0.75626 0.07332 0.0
O85 O 0.10279 0.81806 0.09438 0.0
O86 O 0.00196 0.82167 0.10743 0.0
O87 O 0.99759 0.76216 0.08353 0.0
C88 C 0.03737 0.6814 0.12536 0.0
O89 O 0.05219 0.80447 0.15478 0.0
O90 O 0.11098 0.76678 0.14542 0.0
In91 In 0.7535 0.96619 0.88585 0.0
O92 O 0.80093 0.98244 0.8502 0.0
O93 O 0.77174 0.91749 0.85139 0.0
C94 C 0.76157 0.03988 0.9171 0.0
C95 C 0.66771 0.97606 0.8699 0.0
C96 C 0.78899 0.91048 0.92378 0.0
O97 O 0.78631 0.033 0.89633 0.0
O98 O 0.73209 0.01051 0.92144 0.0
O99 O 0.75058 0.90382 0.9136 0.0
O100 O 0.80956 0.94383 0.91414 0.0
C101 C 0.79761 0.94438 0.83914 0.0
O102 O 0.68028 0.94417 0.88521 0.0
O103 O 0.6985 0.00199 0.86201 0.0
H104 H 0.9262 0.60295 0.61346 0.0
C105 C 0.9543 0.62114 0.62233 0.0
H106 H 0.01688 0.61608 0.64253 0.0
H107 H 0.98222 0.41782 0.68428 0.0
H108 H 0.97914 0.45896 0.72746 0.0
H109 H 0.98046 0.54155 0.72779 0.0
H110 H 0.98513 0.58353 0.68498 0.0
C111 C 0.989 0.59844 0.63304 0.0
C112 C 0.98966 0.54868 0.6328 0.0
C113 C 0.98678 0.52473 0.65799 0.0
C114 C 0.98555 0.47714 0.65779 0.0
C115 C 0.98294 0.454 0.68326 0.0
C116 C 0.98118 0.47719 0.70818 0.0
C117 C 0.98194 0.52369 0.70837 0.0
C118 C 0.98466 0.54737 0.68364 0.0
H119 H 0.05382 0.39843 0.61931 0.0
C120 C 0.02327 0.3807 0.62481 0.0
H121 H 0.95616 0.3868 0.63832 0.0
H122 H 0.00185 0.584 0.581 0.0
H123 H 0.00242 0.54307 0.53783 0.0
H124 H 0.99396 0.46092 0.53725 0.0
H125 H 0.98588 0.41923 0.57987 0.0
C126 C 0.98677 0.40394 0.63229 0.0
C127 C 0.9872 0.45368 0.63241 0.0
C128 C 0.98978 0.47765 0.60716 0.0
C129 C 0.99228 0.52515 0.6074 0.0
C130 C 0.99775 0.54807 0.582 0.0
C131 C 0.99849 0.52495 0.55704 0.0
C132 C 0.99391 0.47871 0.55672 0.0
C133 C 0.98959 0.45516 0.5814 0.0
H134 H 0.62178 0.97367 0.35188 0.0
C135 C 0.62622 0.00634 0.36139 0.0
H136 H 0.59486 0.05963 0.38243 0.0
H137 H 0.42234 0.95385 0.32406 0.0
H138 H 0.45141 0.98191 0.28055 0.0
H139 H 0.52352 0.02226 0.27871 0.0
H140 H 0.56722 0.03438 0.3203 0.0
C141 C 0.59055 0.02816 0.3715 0.0
C142 C 0.54587 0.00621 0.37245 0.0
C143 C 0.52037 0.00031 0.34804 0.0
C144 C 0.47815 0.97827 0.34923 0.0
C145 C 0.45398 0.97152 0.32443 0.0
C146 C 0.4704 0.98724 0.29931 0.0
C147 C 0.51106 0.00985 0.29825 0.0
C148 C 0.5359 0.01642 0.32227 0.0
H149 H 0.38324 0.0044 0.3679 0.0
C150 C 0.37913 0.96952 0.37381 0.0
H151 H 0.41199 0.90923 0.38409 0.0
H152 H 0.58697 0.01107 0.42297 0.0
H153 H 0.5574 0.98405 0.4665 0.0
H154 H 0.48334 0.94751 0.46877 0.0
H155 H 0.43855 0.93752 0.42749 0.0
C156 C 0.41542 0.94353 0.37691 0.0
C157 C 0.4611 0.96322 0.37495 0.0
C158 C 0.48681 0.9688 0.39932 0.0
C159 C 0.52922 0.99036 0.39807 0.0
C160 C 0.55431 0.99533 0.42273 0.0
C161 C 0.53777 0.97992 0.44788 0.0
C162 C 0.49611 0.95931 0.44915 0.0
C163 C 0.47076 0.95376 0.42525 0.0
H164 H 0.03523 0.38906 0.13829 0.0
C165 C 0.00308 0.38461 0.1281 0.0
H166 H 0.94858 0.41602 0.10825 0.0
H167 H 0.0495 0.58405 0.17463 0.0
H168 H 0.02773 0.54643 0.21697 0.0
H169 H 0.99128 0.47232 0.21565 0.0
H170 H 0.97712 0.43506 0.17203 0.0
C171 C 0.97996 0.42039 0.11933 0.0
C172 C 0.99944 0.46608 0.12054 0.0
C173 C 0.00602 0.48792 0.14621 0.0
C174 C 0.02521 0.53148 0.14692 0.0
C175 C 0.03344 0.55172 0.17286 0.0
C176 C 0.02139 0.53036 0.19733 0.0
C177 C 0.00101 0.48857 0.19659 0.0
C178 C 0.9933 0.46744 0.1714 0.0
H179 H 0.9924 0.62696 0.13847 0.0
C180 C 0.02528 0.6343 0.12992 0.0
H181 H 0.08462 0.60789 0.11276 0.0
H182 H 0.99291 0.43272 0.06795 0.0
H183 H 0.01265 0.47121 0.02563 0.0
H184 H 0.04271 0.54811 0.02673 0.0
H185 H 0.05357 0.58678 0.07014 0.0
C186 C 0.05228 0.60072 0.1221 0.0
C187 C 0.03595 0.55374 0.12191 0.0
C188 C 0.02955 0.53178 0.09627 0.0
C189 C 0.01143 0.48783 0.0956 0.0
C190 C 0.0059 0.46641 0.0697 0.0
C191 C 0.01719 0.48807 0.04521 0.0
C192 C 0.03417 0.53133 0.04583 0.0
C193 C 0.04031 0.55311 0.07096 0.0
H194 H 0.3761 0.97476 0.85727 0.0
C195 C 0.37059 0.00812 0.86557 0.0
H196 H 0.4004 0.06604 0.88229 0.0
H197 H 0.57474 0.97298 0.92628 0.0
H198 H 0.5375 0.99417 0.9687 0.0
H199 H 0.46049 0.02411 0.96808 0.0
H200 H 0.42047 0.0335 0.92499 0.0
C201 C 0.40577 0.03325 0.87315 0.0
C202 C 0.45207 0.01467 0.87309 0.0
C203 C 0.47473 0.00865 0.89856 0.0
C204 C 0.51874 0.99044 0.89897 0.0
C205 C 0.54097 0.98589 0.92469 0.0
C206 C 0.52003 0.99802 0.94926 0.0
C207 C 0.47671 0.01494 0.94891 0.0
C208 C 0.45416 0.02025 0.92396 0.0
H209 H 0.61263 0.01607 0.85252 0.0
C210 C 0.62034 0.98574 0.86399 0.0
H211 H 0.5944 0.93181 0.88708 0.0
H212 H 0.42021 0.02603 0.82043 0.0
H213 H 0.45597 0.00141 0.77814 0.0
H214 H 0.52961 0.96388 0.77924 0.0
H215 H 0.5683 0.95163 0.82265 0.0
C216 C 0.58689 0.96114 0.87464 0.0
C217 C 0.53985 0.97773 0.87393 0.0
C218 C 0.5168 0.98274 0.8485 0.0
C219 C 0.47333 0.0023 0.848 0.0
C220 C 0.45234 0.00954 0.82216 0.0
C221 C 0.47266 0.99587 0.79768 0.0
C222 C 0.51419 0.9749 0.7983 0.0
C223 C 0.53617 0.96834 0.82334 0.0
H224 H 0.22837 0.01791 0.47644 0.0
C225 C 0.21051 0.01959 0.4569 0.0
H226 H 0.15533 0.04674 0.43546 0.0
H227 H 0.04007 0.08208 0.54218 0.0
H228 H 0.99694 0.02462 0.51906 0.0
H229 H 0.02674 0.98654 0.4777 0.0
H230 H 0.0991 0.00648 0.45897 0.0
C231 C 0.17449 0.0461 0.45454 0.0
C232 C 0.15667 0.07015 0.47907 0.0
C233 C 0.11431 0.05783 0.48993 0.0
C234 C 0.09785 0.07883 0.51423 0.0
C235 C 0.05484 0.06661 0.52417 0.0
C236 C 0.02958 0.03369 0.51104 0.0
C237 C 0.04623 0.01236 0.48774 0.0
C238 C 0.08793 0.02424 0.47716 0.0
H239 H 0.10953 0.19917 0.53503 0.0
C240 C 0.09861 0.17912 0.55252 0.0
H241 H 0.09382 0.11454 0.56978 0.0
H242 H 0.23669 0.10572 0.46188 0.0
H243 H 0.28291 0.15862 0.48701 0.0
H244 H 0.25843 0.1884 0.53205 0.0
H245 H 0.18706 0.16647 0.55178 0.0
C246 C 0.10567 0.13474 0.5526 0.0
C247 C 0.12425 0.11151 0.52794 0.0
C248 C 0.16733 0.12271 0.51758 0.0
C249 C 0.18279 0.10327 0.49256 0.0
C250 C 0.22435 0.11767 0.48153 0.0
C251 C 0.25108 0.14828 0.49564 0.0
C252 C 0.2372 0.16521 0.52092 0.0
C253 C 0.1959 0.15266 0.53188 0.0
H254 H 0.17698 0.81215 0.44474 0.0
C255 C 0.20846 0.82895 0.44932 0.0
H256 H 0.25179 0.8514 0.48083 0.0
H257 H 0.07249 0.86719 0.55236 0.0
H258 H 0.08618 0.94488 0.54079 0.0
H259 H 0.14913 0.96605 0.51045 0.0
H260 H 0.19784 0.90954 0.49085 0.0
C261 C 0.22254 0.83144 0.4756 0.0
C262 C 0.19131 0.81877 0.49817 0.0
C263 C 0.16454 0.85244 0.51061 0.0
C264 C 0.12913 0.84027 0.52878 0.0
C265 C 0.10079 0.87442 0.53918 0.0
C266 C 0.1081 0.91925 0.53258 0.0
C267 C 0.14341 0.93118 0.51541 0.0
C268 C 0.17122 0.89834 0.50436 0.0
H269 H 0.10185 0.80607 0.58954 0.0
C270 C 0.07582 0.78884 0.578 0.0
H271 H 0.05565 0.76243 0.53953 0.0
H272 H 0.23957 0.74711 0.47991 0.0
H273 H 0.22737 0.66908 0.49218 0.0
H274 H 0.16719 0.64779 0.52458 0.0
H275 H 0.11876 0.70426 0.54488 0.0
C276 C 0.08124 0.78061 0.55091 0.0
C277 C 0.12173 0.79447 0.53522 0.0
C278 C 0.15016 0.76113 0.5239 0.0
C279 C 0.18492 0.77331 0.50529 0.0
C280 C 0.21248 0.73941 0.49401 0.0
C281 C 0.20594 0.69461 0.50094 0.0
C282 C 0.17204 0.68263 0.51919 0.0
C283 C 0.14439 0.71534 0.53062 0.0
H284 H 0.834 0.92461 0.42035 0.0
C285 C 0.80613 0.9447 0.42777 0.0
H286 H 0.76289 0.95905 0.46119 0.0
H287 H 0.79384 0.77947 0.52627 0.0
H288 H 0.7192 0.76657 0.50803 0.0
H289 H 0.68652 0.81771 0.47346 0.0
H290 H 0.72821 0.8822 0.45701 0.0
C291 C 0.79127 0.93968 0.45376 0.0
C292 C 0.81232 0.90757 0.47322 0.0
C293 C 0.78773 0.86979 0.48235 0.0
C294 C 0.80676 0.84004 0.50203 0.0
C295 C 0.78116 0.80294 0.51115 0.0
C296 C 0.73825 0.79515 0.50087 0.0
C297 C 0.71984 0.82397 0.48143 0.0
C298 C 0.74411 0.8609 0.4722 0.0
H299 H 0.87172 0.86913 0.56435 0.0
C300 C 0.87826 0.83419 0.55954 0.0
H301 H 0.87538 0.78356 0.52912 0.0
H302 H 0.86707 0.97931 0.46207 0.0
H303 H 0.94248 0.99064 0.47885 0.0
H304 H 0.97821 0.9353 0.50974 0.0
H305 H 0.93787 0.86918 0.52454 0.0
C306 C 0.86908 0.81842 0.53422 0.0
C307 C 0.85037 0.84815 0.51246 0.0
C308 C 0.87567 0.88509 0.50254 0.0
C309 C 0.85612 0.91555 0.48349 0.0
C310 C 0.88087 0.95394 0.47552 0.0
C311 C 0.92426 0.96102 0.48514 0.0
C312 C 0.94421 0.93006 0.50263 0.0
C313 C 0.92046 0.8924 0.5112 0.0
H314 H 0.83241 0.15822 0.43108 0.0
C315 C 0.79973 0.14308 0.43453 0.0
H316 H 0.74974 0.1282 0.46404 0.0
H317 H 0.91629 0.132 0.54823 0.0
H318 H 0.90517 0.05227 0.54316 0.0
H319 H 0.84756 0.02269 0.51158 0.0
H320 H 0.80229 0.07281 0.48378 0.0
C321 C 0.78078 0.14582 0.4596 0.0
C322 C 0.80706 0.16431 0.48301 0.0
C323 C 0.83154 0.13465 0.50017 0.0
C324 C 0.86312 0.15186 0.51943 0.0
C325 C 0.89015 0.12119 0.53433 0.0
C326 C 0.88445 0.07514 0.53143 0.0
C327 C 0.85224 0.05846 0.5135 0.0
C328 C 0.82635 0.08765 0.49777 0.0
H329 H 0.87762 0.19408 0.5782 0.0
C330 C 0.90455 0.2122 0.56804 0.0
H331 H 0.93079 0.23609 0.53034 0.0
H332 H 0.76198 0.22965 0.45513 0.0
H333 H 0.77026 0.31 0.46136 0.0
H334 H 0.82279 0.34026 0.496 0.0
H335 H 0.86751 0.29052 0.52452 0.0
C336 C 0.90407 0.21759 0.54048 0.0
C337 C 0.8682 0.19891 0.52253 0.0
C338 C 0.84179 0.22847 0.50637 0.0
C339 C 0.81136 0.21112 0.48649 0.0
C340 C 0.78581 0.24127 0.47037 0.0
C341 C 0.79012 0.28738 0.47382 0.0
C342 C 0.8197 0.30441 0.49332 0.0
C343 C 0.84528 0.27549 0.50949 0.0
H344 H 0.74837 0.07691 0.95536 0.0
C345 C 0.77022 0.07529 0.93741 0.0
H346 H 0.83128 0.09641 0.9198 0.0
H347 H 0.79427 0.22802 0.03015 0.0
H348 H 0.73399 0.26094 0.00339 0.0
H349 H 0.71492 0.23168 0.95723 0.0
H350 H 0.75567 0.16876 0.93776 0.0
C351 C 0.80789 0.09971 0.93689 0.0
C352 C 0.82351 0.12215 0.96248 0.0
C353 C 0.80065 0.16002 0.97303 0.0
C354 C 0.81289 0.17802 0.99914 0.0
C355 C 0.78768 0.21416 0.00994 0.0
C356 C 0.75274 0.23317 0.99488 0.0
C357 C 0.7419 0.2166 0.96893 0.0
C358 C 0.76541 0.18039 0.95804 0.0
H359 H 0.88143 0.241 0.02523 0.0
C360 C 0.8816 0.21878 0.043 0.0
H361 H 0.86462 0.1553 0.05873 0.0
H362 H 0.87361 0.04854 0.94832 0.0
H363 H 0.93477 0.01647 0.97451 0.0
H364 H 0.95847 0.04983 0.0187 0.0
H365 H 0.92125 0.11537 0.03697 0.0
C366 C 0.8634 0.17783 0.04111 0.0
C367 C 0.84916 0.15908 0.01408 0.0
C368 C 0.87255 0.12164 0.00322 0.0
C369 C 0.8595 0.10298 0.97748 0.0
C370 C 0.88248 0.06464 0.96756 0.0
C371 C 0.9177 0.04579 0.98239 0.0
C372 C 0.93106 0.06457 0.00726 0.0
C373 C 0.9091 0.10213 0.01759 0.0
H374 H 0.15357 0.13913 0.93986 0.0
C375 C 0.18771 0.12716 0.94259 0.0
H376 H 0.24092 0.11814 0.971 0.0
H377 H 0.14854 0.26827 0.04796 0.0
H378 H 0.21464 0.30866 0.03251 0.0
H379 H 0.26591 0.27551 0.99816 0.0
H380 H 0.25147 0.20161 0.9791 0.0
C381 C 0.20704 0.13023 0.96755 0.0
C382 C 0.18066 0.14727 0.9914 0.0
C383 C 0.18984 0.19006 0.0025 0.0
C384 C 0.16004 0.20928 0.02211 0.0
C385 C 0.16978 0.25235 0.03274 0.0
C386 C 0.20766 0.2758 0.02412 0.0
C387 C 0.23655 0.25712 0.00479 0.0
C388 C 0.22787 0.21477 0.99399 0.0
H389 H 0.09172 0.16971 0.08281 0.0
C390 C 0.07484 0.19747 0.07271 0.0
H391 H 0.06994 0.23767 0.037 0.0
H392 H 0.15971 0.0604 0.97901 0.0
H393 H 0.09437 0.01926 0.99465 0.0
H394 H 0.03945 0.05426 0.02592 0.0
H395 H 0.04961 0.13022 0.04201 0.0
C396 C 0.08626 0.20934 0.04687 0.0
C397 C 0.1211 0.18563 0.03049 0.0
C398 C 0.1134 0.14155 0.02059 0.0
C399 C 0.14394 0.12199 0.00156 0.0
C400 C 0.13663 0.07738 0.9927 0.0
C401 C 0.09939 0.0533 0.0016 0.0
C402 C 0.06852 0.07301 0.01926 0.0
C403 C 0.07506 0.11666 0.02855 0.0
H404 H 0.15167 0.846 0.05254 0.0
C405 C 0.13566 0.81359 0.04981 0.0
H406 H 0.11467 0.76476 0.02085 0.0
H407 H 0.11754 0.95138 0.94902 0.0
H408 H 0.04238 0.95781 0.96746 0.0
H409 H 0.01349 0.90249 0.00083 0.0
H410 H 0.05988 0.84044 0.016 0.0
C411 C 0.13215 0.79615 0.02439 0.0
C412 C 0.14622 0.82327 0.00027 0.0
C413 C 0.11816 0.85837 0.99083 0.0
C414 C 0.13453 0.88966 0.97117 0.0
C415 C 0.10661 0.92586 0.96331 0.0
C416 C 0.06336 0.93012 0.97387 0.0
C417 C 0.04713 0.89908 0.99272 0.0
C418 C 0.07413 0.86368 0.00127 0.0
H419 H 0.16254 0.91078 0.90776 0.0
C420 C 0.18774 0.93086 0.91819 0.0
H421 H 0.22526 0.94113 0.9546 0.0
H422 H 0.20562 0.75627 0.01157 0.0
H423 H 0.27985 0.74719 0.99153 0.0
H424 H 0.30819 0.80078 0.95688 0.0
H425 H 0.26259 0.86378 0.94205 0.0
C426 C 0.19935 0.92165 0.94437 0.0
C427 C 0.17867 0.88499 0.96063 0.0
C428 C 0.20541 0.84798 0.96863 0.0
C429 C 0.18908 0.81699 0.98848 0.0
C430 C 0.21666 0.78076 0.99656 0.0
C431 C 0.2592 0.77515 0.9852 0.0
C432 C 0.27516 0.80535 0.96569 0.0
C433 C 0.24875 0.84142 0.95744 0.0
H434 H 0.7898 0.85291 0.95261 0.0
C435 C 0.80762 0.88292 0.94625 0.0
H436 H 0.86324 0.92529 0.95303 0.0
H437 H 0.8553 0.8211 0.07341 0.0
H438 H 0.7845 0.85948 0.0803 0.0
H439 H 0.75036 0.90372 0.04278 0.0
H440 H 0.78637 0.90926 0.99805 0.0
C441 C 0.84506 0.89558 0.95957 0.0
C442 C 0.86489 0.86882 0.98237 0.0
C443 C 0.84384 0.86696 0.00863 0.0
C444 C 0.86436 0.8429 0.03062 0.0
C445 C 0.84189 0.84013 0.0563 0.0
C446 C 0.80113 0.8618 0.06048 0.0
C447 C 0.78184 0.8866 0.03933 0.0
C448 C 0.8028 0.88932 0.01369 0.0
H449 H 0.94035 0.85654 0.07351 0.0
C450 C 0.94741 0.8211 0.07093 0.0
H451 H 0.93801 0.76345 0.04649 0.0
H452 H 0.91375 0.86556 0.93456 0.0
H453 H 0.98545 0.82887 0.92803 0.0
H454 H 0.0219 0.78857 0.96637 0.0
H455 H 0.98721 0.78505 0.01147 0.0
C456 C 0.92967 0.79852 0.04953 0.0
C457 C 0.9065 0.82202 0.02653 0.0
C458 C 0.92738 0.82368 0.00021 0.0
C459 C 0.90658 0.84718 0.97816 0.0
C460 C 0.92824 0.84847 0.95212 0.0
C461 C 0.96935 0.82744 0.94804 0.0
C462 C 0.98981 0.80466 0.96959 0.0
C463 C 0.96937 0.80282 0.99542 0.0
H464 H 0.03195 0.16683 0.69823 0.0
C465 C 0.05723 0.18519 0.6867 0.0
H466 H 0.12527 0.20488 0.68477 0.0
H467 H 0.13643 0.17176 0.81606 0.0
H468 H 0.11754 0.25063 0.81688 0.0
H469 H 0.09689 0.29036 0.77408 0.0
H470 H 0.09449 0.25116 0.7302 0.0
C471 C 0.09962 0.18647 0.69593 0.0
C472 C 0.11293 0.16265 0.72155 0.0
C473 C 0.11535 0.18626 0.74684 0.0
C474 C 0.12851 0.16361 0.77137 0.0
C475 C 0.12841 0.18757 0.7966 0.0
C476 C 0.11723 0.23284 0.79742 0.0
C477 C 0.10551 0.25519 0.77333 0.0
C478 C 0.10434 0.23231 0.74829 0.0
H479 H 0.21509 0.13301 0.79964 0.0
C480 C 0.19535 0.10542 0.8078 0.0
H481 H 0.137 0.06611 0.80326 0.0
H482 H 0.11175 0.10781 0.67631 0.0
H483 H 0.13098 0.02891 0.67524 0.0
H484 H 0.155 0.98975 0.71757 0.0
H485 H 0.15993 0.02919 0.76122 0.0
C486 C 0.15664 0.09407 0.79552 0.0
C487 C 0.14065 0.11766 0.7703 0.0
C488 C 0.13762 0.09395 0.74501 0.0
C489 C 0.12382 0.11651 0.72059 0.0
C490 C 0.12175 0.09223 0.69551 0.0
C491 C 0.13279 0.04695 0.69459 0.0
C492 C 0.14631 0.0249 0.71842 0.0
C493 C 0.1489 0.04796 0.74337 0.0
H494 H 0.1433 0.78889 0.19404 0.0
C495 C 0.1114 0.80426 0.18876 0.0
H496 H 0.06204 0.85115 0.20086 0.0
H497 H 0.15876 0.8022 0.32022 0.0
H498 H 0.11363 0.73482 0.31767 0.0
H499 H 0.069 0.71787 0.2761 0.0
H500 H 0.06921 0.7683 0.23681 0.0
C501 C 0.09307 0.83411 0.20607 0.0
C502 C 0.11666 0.84627 0.23204 0.0
C503 C 0.11603 0.81659 0.25485 0.0
C504 C 0.14172 0.82644 0.27881 0.0
C505 C 0.14023 0.79626 0.30138 0.0
C506 C 0.11434 0.75749 0.30023 0.0
C507 C 0.08923 0.74793 0.27683 0.0
C508 C 0.08982 0.77706 0.25437 0.0
H509 H 0.15834 0.93255 0.31662 0.0
C510 C 0.18545 0.90978 0.32187 0.0
H511 H 0.22118 0.85167 0.31059 0.0
H512 H 0.12311 0.91112 0.19242 0.0
H513 H 0.1691 0.9781 0.19444 0.0
H514 H 0.21604 0.99393 0.23521 0.0
H515 H 0.21702 0.94322 0.27425 0.0
C516 C 0.19517 0.87547 0.305 0.0
C517 C 0.16786 0.86607 0.27995 0.0
C518 C 0.16823 0.89594 0.25714 0.0
C519 C 0.14203 0.8863 0.23333 0.0
C520 C 0.1427 0.91671 0.2109 0.0
C521 C 0.16894 0.95525 0.21179 0.0
C522 C 0.19529 0.9642 0.23476 0.0
C523 C 0.19525 0.93494 0.25717 0.0
H524 H 0.87346 0.78401 0.699 0.0
C525 C 0.90355 0.80072 0.69162 0.0
H526 H 0.94902 0.85395 0.69825 0.0
H527 H 0.78827 0.94894 0.76481 0.0
H528 H 0.78381 0.98891 0.72141 0.0
H529 H 0.83141 0.96736 0.68196 0.0
H530 H 0.88341 0.90519 0.68565 0.0
C531 C 0.92024 0.8354 0.70587 0.0
C532 C 0.89651 0.85194 0.73085 0.0
C533 C 0.86773 0.8895 0.72876 0.0
C534 C 0.84131 0.90277 0.7518 0.0
C535 C 0.81057 0.93852 0.74845 0.0
C536 C 0.80734 0.96154 0.72352 0.0
C537 C 0.83405 0.94934 0.70129 0.0
C538 C 0.86377 0.91362 0.7037 0.0
H539 H 0.8467 0.95649 0.8059 0.0
C540 C 0.82295 0.93233 0.81413 0.0
H541 H 0.79484 0.86788 0.81019 0.0
H542 H 0.95049 0.78027 0.74201 0.0
H543 H 0.95649 0.74086 0.78569 0.0
H544 H 0.91215 0.76474 0.82608 0.0
H545 H 0.86148 0.82798 0.82305 0.0
C546 C 0.81762 0.89261 0.80157 0.0
C547 C 0.84515 0.87943 0.77724 0.0
C548 C 0.87475 0.84241 0.77944 0.0
C549 C 0.90041 0.82866 0.7562 0.0
C550 C 0.92988 0.79177 0.75897 0.0
C551 C 0.93379 0.76899 0.78394 0.0
C552 C 0.90883 0.78243 0.80668 0.0
C553 C 0.87972 0.81875 0.80461 0.0
H554 H 0.83899 0.06498 0.29504 0.0
C555 C 0.81163 0.08527 0.30298 0.0
H556 H 0.77318 0.14395 0.29775 0.0
H557 H 0.92534 0.24244 0.22982 0.0
H558 H 0.92306 0.28643 0.27183 0.0
H559 H 0.87593 0.26319 0.31114 0.0
H560 H 0.8309 0.19578 0.3087 0.0
C561 C 0.79941 0.12257 0.28948 0.0
C562 C 0.82481 0.13816 0.26482 0.0
C563 C 0.85033 0.17814 0.26644 0.0
C564 C 0.87717 0.1918 0.24367 0.0
C565 C 0.90354 0.23103 0.24622 0.0
C566 C 0.90278 0.25647 0.2703 0.0
C567 C 0.87628 0.24337 0.29244 0.0
C568 C 0.85049 0.2046 0.29072 0.0
H569 H 0.86334 0.23418 0.18518 0.0
C570 C 0.89318 0.21529 0.1797 0.0
H571 H 0.93411 0.15976 0.18934 0.0
H572 H 0.7753 0.06306 0.25352 0.0
H573 H 0.77712 0.01944 0.21133 0.0
H574 H 0.82527 0.04202 0.17233 0.0
H575 H 0.87163 0.10858 0.17523 0.0
C576 C 0.9054 0.18007 0.19514 0.0
C577 C 0.87791 0.16576 0.21919 0.0
C578 C 0.8519 0.12617 0.21742 0.0
C579 C 0.82484 0.11264 0.24012 0.0
C580 C 0.79763 0.07406 0.23729 0.0
C581 C 0.79806 0.0489 0.21308 0.0
C582 C 0.82511 0.06165 0.19111 0.0
C583 C 0.85164 0.09989 0.19308 0.0
loop_
_geom_bond_atom_site_label_1
_geom_bond_atom_site_label_2
_geom_bond_distance
_geom_bond_site_symmetry_2
_ccdc_geom_bond_type
In0 O1 2.294 . S
In0 O2 2.326 . S
In0 O6 2.266 . S
In0 O7 2.326 . S
In0 O8 2.266 . S
In0 O9 2.326 . S
In0 O11 2.294 . S
In0 O12 2.326 . S
O1 In0 2.294 . S
O1 C10 1.240 . S
O2 In0 2.326 . S
O2 C10 1.252 . S
C3 O6 1.252 . S
C3 O7 1.260 . S
C4 O11 1.240 . S
C4 O12 1.252 . S
C5 O8 1.252 . S
C5 O9 1.260 . S
O6 In0 2.266 . S
O6 C3 1.252 . S
O7 In0 2.326 . S
O7 C3 1.260 . S
O8 In0 2.266 . S
O8 C5 1.252 . S
O9 In0 2.326 . S
O9 C5 1.260 . S
C10 O1 1.240 . S
C10 O2 1.252 . S
O11 In0 2.294 . S
O11 C4 1.240 . S
O12 In0 2.326 . S
O12 C4 1.252 . S
In13 O14 2.294 . S
In13 O15 2.326 . S
In13 O19 2.266 . S
In13 O20 2.326 . S
In13 O21 2.266 . S
In13 O22 2.326 . S
In13 O24 2.294 . S
In13 O25 2.326 . S
O14 In13 2.294 . S
O14 C23 1.240 . S
O15 In13 2.326 . S
O15 C23 1.252 . S
C16 O19 1.252 . S
C16 O20 1.260 . S
C17 O24 1.240 . S
C17 O25 1.252 . S
C18 O21 1.252 . S
C18 O22 1.260 . S
O19 In13 2.266 . S
O19 C16 1.252 . S
O20 In13 2.326 . S
O20 C16 1.260 . S
O21 In13 2.266 . S
O21 C18 1.252 . S
O22 In13 2.326 . S
O22 C18 1.260 . S
C23 O14 1.240 . S
C23 O15 1.252 . S
O24 In13 2.294 . S
O24 C17 1.240 . S
O25 In13 2.326 . S
O25 C17 1.252 . S
In26 O27 2.294 . S
In26 O28 2.326 . S
In26 O32 2.266 . S
In26 O33 2.326 . S
In26 O34 2.266 . S
In26 O35 2.326 . S
In26 O37 2.294 . S
In26 O38 2.326 . S
O27 In26 2.294 . S
O27 C36 1.240 . S
O28 In26 2.326 . S
O28 C36 1.252 . S
C29 O32 1.252 . S
C29 O33 1.260 . S
C30 O37 1.240 . S
C30 O38 1.252 . S
C31 O34 1.252 . S
C31 O35 1.260 . S
O32 In26 2.266 . S
O32 C29 1.252 . S
O33 In26 2.326 . S
O33 C29 1.260 . S
O34 In26 2.266 . S
O34 C31 1.252 . S
O35 In26 2.326 . S
O35 C31 1.260 . S
C36 O27 1.240 . S
C36 O28 1.252 . S
O37 In26 2.294 . S
O37 C30 1.240 . S
O38 In26 2.326 . S
O38 C30 1.252 . S
In39 O40 2.294 . S
In39 O41 2.326 . S
In39 O45 2.266 . S
In39 O46 2.326 . S
In39 O47 2.266 . S
In39 O48 2.326 . S
In39 O50 2.294 . S
In39 O51 2.326 . S
O40 In39 2.294 . S
O40 C49 1.240 . S
O41 In39 2.326 . S
O41 C49 1.252 . S
C42 O45 1.252 . S
C42 O46 1.260 . S
C43 O50 1.240 . S
C43 O51 1.252 . S
C44 O47 1.252 . S
C44 O48 1.260 . S
O45 In39 2.266 . S
O45 C42 1.252 . S
O46 In39 2.326 . S
O46 C42 1.260 . S
O47 In39 2.266 . S
O47 C44 1.252 . S
O48 In39 2.326 . S
O48 C44 1.260 . S
C49 O40 1.240 . S
C49 O41 1.252 . S
O50 In39 2.294 . S
O50 C43 1.240 . S
O51 In39 2.326 . S
O51 C43 1.252 . S
In52 O53 2.294 . S
In52 O54 2.326 . S
In52 O58 2.266 . S
In52 O59 2.326 . S
In52 O60 2.266 . S
In52 O61 2.326 . S
In52 O63 2.294 . S
In52 O64 2.326 . S
O53 In52 2.294 . S
O53 C62 1.240 . S
O54 In52 2.326 . S
O54 C62 1.252 . S
C55 O58 1.252 . S
C55 O59 1.260 . S
C56 O63 1.240 . S
C56 O64 1.252 . S
C57 O60 1.252 . S
C57 O61 1.260 . S
O58 In52 2.266 . S
O58 C55 1.252 . S
O59 In52 2.326 . S
O59 C55 1.260 . S
O60 In52 2.266 . S
O60 C57 1.252 . S
O61 In52 2.326 . S
O61 C57 1.260 . S
C62 O53 1.240 . S
C62 O54 1.252 . S
O63 In52 2.294 . S
O63 C56 1.240 . S
O64 In52 2.326 . S
O64 C56 1.252 . S
In65 O66 2.294 . S
In65 O67 2.326 . S
In65 O71 2.266 . S
In65 O72 2.326 . S
In65 O73 2.266 . S
In65 O74 2.326 . S
In65 O76 2.294 . S
In65 O77 2.326 . S
O66 In65 2.294 . S
O66 C75 1.240 . S
O67 In65 2.326 . S
O67 C75 1.252 . S
C68 O71 1.252 . S
C68 O72 1.260 . S
C69 O76 1.240 . S
C69 O77 1.252 . S
C70 O73 1.252 . S
C70 O74 1.260 . S
O71 In65 2.266 . S
O71 C68 1.252 . S
O72 In65 2.326 . S
O72 C68 1.260 . S
O73 In65 2.266 . S
O73 C70 1.252 . S
O74 In65 2.326 . S
O74 C70 1.260 . S
C75 O66 1.240 . S
C75 O67 1.252 . S
O76 In65 2.294 . S
O76 C69 1.240 . S
O77 In65 2.326 . S
O77 C69 1.252 . S
In78 O79 2.294 . S
In78 O80 2.326 . S
In78 O84 2.266 . S
In78 O85 2.326 . S
In78 O86 2.266 . S
In78 O87 2.326 . S
In78 O89 2.294 . S
In78 O90 2.326 . S
O79 In78 2.294 . S
O79 C88 1.240 . S
O80 In78 2.326 . S
O80 C88 1.252 . S
C81 O84 1.252 . S
C81 O85 1.260 . S
C82 O89 1.240 . S
C82 O90 1.252 . S
C83 O86 1.252 . S
C83 O87 1.260 . S
O84 In78 2.266 . S
O84 C81 1.252 . S
O85 In78 2.326 . S
O85 C81 1.260 . S
O86 In78 2.266 . S
O86 C83 1.252 . S
O87 In78 2.326 . S
O87 C83 1.260 . S
C88 O79 1.240 . S
C88 O80 1.252 . S
O89 In78 2.294 . S
O89 C82 1.240 . S
O90 In78 2.326 . S
O90 C82 1.252 . S
In91 O92 2.294 . S
In91 O93 2.326 . S
In91 O97 2.266 . S
In91 O98 2.326 . S
In91 O99 2.266 . S
In91 O100 2.326 . S
In91 O102 2.294 . S
In91 O103 2.326 . S
O92 In91 2.294 . S
O92 C101 1.240 . S
O93 In91 2.326 . S
O93 C101 1.252 . S
C94 O97 1.252 . S
C94 O98 1.260 . S
C95 O102 1.240 . S
C95 O103 1.252 . S
C96 O99 1.252 . S
C96 O100 1.260 . S
O97 In91 2.266 . S
O97 C94 1.252 . S
O98 In91 2.326 . S
O98 C94 1.260 . S
O99 In91 2.266 . S
O99 C96 1.252 . S
O100 In91 2.326 . S
O100 C96 1.260 . S
C101 O92 1.240 . S
C101 O93 1.252 . S
O102 In91 2.294 . S
O102 C95 1.240 . S
O103 In91 2.326 . S
O103 C95 1.252 . S
H104 C105 0.951 . S
C105 H104 0.951 . S
C105 C111 1.265 . S
H106 C111 0.950 . S
H107 C115 0.949 . S
H108 C116 0.950 . S
H109 C117 0.951 . S
H110 C118 0.951 . S
C111 C105 1.265 . S
C111 H106 0.950 . S
C111 C112 1.478 . S
C112 C111 1.478 . S
C112 C113 1.397 1_655 S
C112 C129 1.394 . S
C113 C112 1.397 1_455 S
C113 C114 1.438 . S
C113 C118 1.429 . S
C114 C113 1.438 . S
C114 C115 1.428 . S
C114 C127 1.394 . S
C115 H107 0.949 . S
C115 C114 1.428 . S
C115 C116 1.345 . S
C116 H108 0.950 . S
C116 C115 1.345 . S
C116 C117 1.424 . S
C117 H109 0.951 . S
C117 C116 1.424 . S
C117 C118 1.347 . S
C118 H110 0.951 . S
C118 C113 1.429 . S
C118 C117 1.347 . S
H119 C120 0.951 . S
C120 H119 0.951 . S
C120 C126 1.265 . S
H121 C126 0.950 . S
H122 C130 0.949 . S
H123 C131 0.950 . S
H124 C132 0.951 . S
H125 C133 0.951 . S
C126 C120 1.265 . S
C126 H121 0.950 . S
C126 C127 1.478 . S
C127 C114 1.394 . S
C127 C126 1.478 . S
C127 C128 1.397 1_455 S
C128 C127 1.397 1_655 S
C128 C129 1.438 . S
C128 C133 1.429 . S
C129 C112 1.394 . S
C129 C128 1.438 . S
C129 C130 1.428 . S
C130 H122 0.949 . S
C130 C129 1.428 . S
C130 C131 1.345 . S
C131 H123 0.950 . S
C131 C130 1.345 . S
C131 C132 1.424 . S
C132 H124 0.951 . S
C132 C131 1.424 . S
C132 C133 1.347 . S
C133 H125 0.951 . S
C133 C128 1.429 . S
C133 C132 1.347 . S
H134 C135 0.951 . S
C135 H134 0.951 . S
C135 C141 1.265 . S
H136 C141 0.950 . S
H137 C145 0.949 . S
H138 C146 0.950 . S
H139 C147 0.951 . S
H140 C148 0.951 . S
C141 C135 1.265 . S
C141 H136 0.950 . S
C141 C142 1.478 . S
C142 C141 1.478 . S
C142 C143 1.397 . S
C142 C159 1.394 . S
C143 C142 1.397 . S
C143 C144 1.438 1_545 S
C143 C148 1.429 . S
C144 C143 1.438 1_565 S
C144 C145 1.428 . S
C144 C157 1.394 . S
C145 H137 0.949 . S
C145 C144 1.428 . S
C145 C146 1.345 1_565 S
C146 H138 0.950 . S
C146 C145 1.345 1_545 S
C146 C147 1.424 . S
C147 H139 0.951 . S
C147 C146 1.424 . S
C147 C148 1.347 . S
C148 H140 0.951 . S
C148 C143 1.429 . S
C148 C147 1.347 . S
H149 C150 0.951 . S
C150 H149 0.951 . S
C150 C156 1.265 . S
H151 C156 0.950 . S
H152 C160 0.949 . S
H153 C161 0.950 . S
H154 C162 0.951 . S
H155 C163 0.951 . S
C156 C150 1.265 . S
C156 H151 0.950 . S
C156 C157 1.478 . S
C157 C144 1.394 . S
C157 C156 1.478 . S
C157 C158 1.397 . S
C158 C157 1.397 . S
C158 C159 1.438 1_565 S
C158 C163 1.429 . S
C159 C142 1.394 . S
C159 C158 1.438 1_545 S
C159 C160 1.428 . S
C160 H152 0.949 . S
C160 C159 1.428 . S
C160 C161 1.345 1_545 S
C161 H153 0.950 . S
C161 C160 1.345 1_565 S
C161 C162 1.424 . S
C162 H154 0.951 . S
C162 C161 1.424 . S
C162 C163 1.347 . S
C163 H155 0.951 . S
C163 C158 1.429 . S
C163 C162 1.347 . S
H164 C165 0.951 . S
C165 H164 0.951 . S
C165 C171 1.265 . S
H166 C171 0.950 . S
H167 C175 0.949 . S
H168 C176 0.950 . S
H169 C177 0.951 . S
H170 C178 0.951 . S
C171 C165 1.265 . S
C171 H166 0.950 . S
C171 C172 1.478 . S
C172 C171 1.478 . S
C172 C173 1.397 . S
C172 C189 1.394 . S
C173 C172 1.397 . S
C173 C174 1.438 1_655 S
C173 C178 1.429 . S
C174 C173 1.438 1_455 S
C174 C175 1.428 . S
C174 C187 1.394 . S
C175 H167 0.949 . S
C175 C174 1.428 . S
C175 C176 1.345 1_455 S
C176 H168 0.950 . S
C176 C175 1.345 1_655 S
C176 C177 1.424 . S
C177 H169 0.951 . S
C177 C176 1.424 . S
C177 C178 1.347 . S
C178 H170 0.951 . S
C178 C173 1.429 . S
C178 C177 1.347 . S
H179 C180 0.951 . S
C180 H179 0.951 . S
C180 C186 1.265 . S
H181 C186 0.950 . S
H182 C190 0.949 . S
H183 C191 0.950 . S
H184 C192 0.951 . S
H185 C193 0.951 . S
C186 C180 1.265 . S
C186 H181 0.950 . S
C186 C187 1.478 . S
C187 C174 1.394 . S
C187 C186 1.478 . S
C187 C188 1.397 . S
C188 C187 1.397 . S
C188 C189 1.438 1_455 S
C188 C193 1.429 . S
C189 C172 1.394 . S
C189 C188 1.438 1_655 S
C189 C190 1.428 . S
C190 H182 0.949 . S
C190 C189 1.428 . S
C190 C191 1.345 1_655 S
C191 H183 0.950 . S
C191 C190 1.345 1_455 S
C191 C192 1.424 . S
C192 H184 0.951 . S
C192 C191 1.424 . S
C192 C193 1.347 . S
C193 H185 0.951 . S
C193 C188 1.429 . S
C193 C192 1.347 . S
H194 C195 0.951 . S
C195 H194 0.951 . S
C195 C201 1.265 . S
H196 C201 0.950 . S
H197 C205 0.949 . S
H198 C206 0.950 . S
H199 C207 0.951 . S
H200 C208 0.951 . S
C201 C195 1.265 . S
C201 H196 0.950 . S
C201 C202 1.478 . S
C202 C201 1.478 . S
C202 C203 1.397 . S
C202 C219 1.394 . S
C203 C202 1.397 . S
C203 C204 1.438 1_545 S
C203 C208 1.429 . S
C204 C203 1.438 1_565 S
C204 C205 1.428 . S
C204 C217 1.394 . S
C205 H197 0.949 . S
C205 C204 1.428 . S
C205 C206 1.345 1_565 S
C206 H198 0.950 . S
C206 C205 1.345 1_545 S
C206 C207 1.424 . S
C207 H199 0.951 . S
C207 C206 1.424 . S
C207 C208 1.347 . S
C208 H200 0.951 . S
C208 C203 1.429 . S
C208 C207 1.347 . S
H209 C210 0.951 . S
C210 H209 0.951 . S
C210 C216 1.265 . S
H211 C216 0.950 . S
H212 C220 0.949 . S
H213 C221 0.950 . S
H214 C222 0.951 . S
H215 C223 0.951 . S
C216 C210 1.265 . S
C216 H211 0.950 . S
C216 C217 1.478 . S
C217 C204 1.394 . S
C217 C216 1.478 . S
C217 C218 1.397 . S
C218 C217 1.397 . S
C218 C219 1.438 1_565 S
C218 C223 1.429 . S
C219 C202 1.394 . S
C219 C218 1.438 1_545 S
C219 C220 1.428 . S
C220 H212 0.949 . S
C220 C219 1.428 . S
C220 C221 1.345 1_545 S
C221 H213 0.950 . S
C221 C220 1.345 1_565 S
C221 C222 1.424 . S
C222 H214 0.951 . S
C222 C221 1.424 . S
C222 C223 1.347 . S
C223 H215 0.951 . S
C223 C218 1.429 . S
C223 C222 1.347 . S
H224 C225 0.951 1_565 S
C225 H224 0.951 1_545 S
C225 C231 1.265 . S
H226 C231 0.950 . S
H227 C235 0.949 . S
H228 C236 0.950 . S
H229 C237 0.951 . S
H230 C238 0.951 . S
C231 C225 1.265 . S
C231 H226 0.950 . S
C231 C232 1.478 . S
C232 C231 1.478 . S
C232 C233 1.397 . S
C232 C249 1.394 . S
C233 C232 1.397 . S
C233 C234 1.438 . S
C233 C238 1.429 . S
C234 C233 1.438 . S
C234 C235 1.428 . S
C234 C247 1.394 . S
C235 H227 0.949 . S
C235 C234 1.428 . S
C235 C236 1.345 . S
C236 H228 0.950 . S
C236 C235 1.345 . S
C236 C237 1.424 . S
C237 H229 0.951 . S
C237 C236 1.424 . S
C237 C238 1.347 . S
C238 H230 0.951 . S
C238 C233 1.429 . S
C238 C237 1.347 . S
H239 C240 0.951 . S
C240 H239 0.951 . S
C240 C246 1.265 . S
H241 C246 0.950 . S
H242 C250 0.949 . S
H243 C251 0.950 . S
H244 C252 0.951 . S
H245 C253 0.951 . S
C246 C240 1.265 . S
C246 H241 0.950 . S
C246 C247 1.478 . S
C247 C234 1.394 . S
C247 C246 1.478 . S
C247 C248 1.397 . S
C248 C247 1.397 . S
C248 C249 1.438 . S
C248 C253 1.429 . S
C249 C232 1.394 . S
C249 C248 1.438 . S
C249 C250 1.428 . S
C250 H242 0.949 . S
C250 C249 1.428 . S
C250 C251 1.345 . S
C251 H243 0.950 . S
C251 C250 1.345 . S
C251 C252 1.424 . S
C252 H244 0.951 . S
C252 C251 1.424 . S
C252 C253 1.347 . S
C253 H245 0.951 . S
C253 C248 1.429 . S
C253 C252 1.347 . S
H254 C255 0.951 . S
C255 H254 0.951 . S
C255 C261 1.265 . S
H256 C261 0.950 . S
H257 C265 0.949 . S
H258 C266 0.950 . S
H259 C267 0.951 . S
H260 C268 0.951 . S
C261 C255 1.265 . S
C261 H256 0.950 . S
C261 C262 1.478 . S
C262 C261 1.478 . S
C262 C263 1.397 . S
C262 C279 1.394 . S
C263 C262 1.397 . S
C263 C264 1.438 . S
C263 C268 1.429 . S
C264 C263 1.438 . S
C264 C265 1.428 . S
C264 C277 1.394 . S
C265 H257 0.949 . S
C265 C264 1.428 . S
C265 C266 1.345 . S
C266 H258 0.950 . S
C266 C265 1.345 . S
C266 C267 1.424 . S
C267 H259 0.951 . S
C267 C266 1.424 . S
C267 C268 1.347 . S
C268 H260 0.951 . S
C268 C263 1.429 . S
C268 C267 1.347 . S
H269 C270 0.951 . S
C270 H269 0.951 . S
C270 C276 1.265 . S
H271 C276 0.950 1_655 S
H272 C280 0.949 . S
H273 C281 0.950 . S
H274 C282 0.951 . S
H275 C283 0.951 . S
C276 C270 1.265 . S
C276 H271 0.950 1_455 S
C276 C277 1.478 . S
C277 C264 1.394 . S
C277 C276 1.478 . S
C277 C278 1.397 . S
C278 C277 1.397 . S
C278 C279 1.438 . S
C278 C283 1.429 . S
C279 C262 1.394 . S
C279 C278 1.438 . S
C279 C280 1.428 . S
C280 H272 0.949 . S
C280 C279 1.428 . S
C280 C281 1.345 . S
C281 H273 0.950 . S
C281 C280 1.345 . S
C281 C282 1.424 . S
C282 H274 0.951 . S
C282 C281 1.424 . S
C282 C283 1.347 . S
C283 H275 0.951 . S
C283 C278 1.429 . S
C283 C282 1.347 . S
H284 C285 0.951 . S
C285 H284 0.951 . S
C285 C291 1.265 . S
H286 C291 0.950 . S
H287 C295 0.949 . S
H288 C296 0.950 . S
H289 C297 0.951 . S
H290 C298 0.951 . S
C291 C285 1.265 . S
C291 H286 0.950 . S
C291 C292 1.478 . S
C292 C291 1.478 . S
C292 C293 1.397 . S
C292 C309 1.394 . S
C293 C292 1.397 . S
C293 C294 1.438 . S
C293 C298 1.429 . S
C294 C293 1.438 . S
C294 C295 1.428 . S
C294 C307 1.394 . S
C295 H287 0.949 . S
C295 C294 1.428 . S
C295 C296 1.345 . S
C296 H288 0.950 . S
C296 C295 1.345 . S
C296 C297 1.424 . S
C297 H289 0.951 . S
C297 C296 1.424 . S
C297 C298 1.347 . S
C298 H290 0.951 . S
C298 C293 1.429 . S
C298 C297 1.347 . S
H299 C300 0.951 . S
C300 H299 0.951 . S
C300 C306 1.265 . S
H301 C306 0.950 . S
H302 C310 0.949 1_545 S
H303 C311 0.950 1_545 S
H304 C312 0.951 . S
H305 C313 0.951 . S
C306 C300 1.265 . S
C306 H301 0.950 . S
C306 C307 1.478 . S
C307 C294 1.394 . S
C307 C306 1.478 . S
C307 C308 1.397 . S
C308 C307 1.397 . S
C308 C309 1.438 . S
C308 C313 1.429 . S
C309 C292 1.394 . S
C309 C308 1.438 . S
C309 C310 1.428 . S
C310 H302 0.949 1_565 S
C310 C309 1.428 . S
C310 C311 1.345 . S
C311 H303 0.950 1_565 S
C311 C310 1.345 . S
C311 C312 1.424 . S
C312 H304 0.951 . S
C312 C311 1.424 . S
C312 C313 1.347 . S
C313 H305 0.951 . S
C313 C308 1.429 . S
C313 C312 1.347 . S
H314 C315 0.951 . S
C315 H314 0.951 . S
C315 C321 1.265 . S
H316 C321 0.950 . S
H317 C325 0.949 . S
H318 C326 0.950 . S
H319 C327 0.951 . S
H320 C328 0.951 . S
C321 C315 1.265 . S
C321 H316 0.950 . S
C321 C322 1.478 . S
C322 C321 1.478 . S
C322 C323 1.397 . S
C322 C339 1.394 . S
C323 C322 1.397 . S
C323 C324 1.438 . S
C323 C328 1.429 . S
C324 C323 1.438 . S
C324 C325 1.428 . S
C324 C337 1.394 . S
C325 H317 0.949 . S
C325 C324 1.428 . S
C325 C326 1.345 . S
C326 H318 0.950 . S
C326 C325 1.345 . S
C326 C327 1.424 . S
C327 H319 0.951 . S
C327 C326 1.424 . S
C327 C328 1.347 . S
C328 H320 0.951 . S
C328 C323 1.429 . S
C328 C327 1.347 . S
H329 C330 0.951 . S
C330 H329 0.951 . S
C330 C336 1.265 . S
H331 C336 0.950 1_455 S
H332 C340 0.949 . S
H333 C341 0.950 . S
H334 C342 0.951 . S
H335 C343 0.951 . S
C336 C330 1.265 . S
C336 H331 0.950 1_655 S
C336 C337 1.478 . S
C337 C324 1.394 . S
C337 C336 1.478 . S
C337 C338 1.397 . S
C338 C337 1.397 . S
C338 C339 1.438 . S
C338 C343 1.429 . S
C339 C322 1.394 . S
C339 C338 1.438 . S
C339 C340 1.428 . S
C340 H332 0.949 . S
C340 C339 1.428 . S
C340 C341 1.345 . S
C341 H333 0.950 . S
C341 C340 1.345 . S
C341 C342 1.424 . S
C342 H334 0.951 . S
C342 C341 1.424 . S
C342 C343 1.347 . S
C343 H335 0.951 . S
C343 C338 1.429 . S
C343 C342 1.347 . S
H344 C345 0.951 . S
C345 H344 0.951 . S
C345 C351 1.265 . S
H346 C351 0.950 . S
H347 C355 0.949 1_554 S
H348 C356 0.950 . S
H349 C357 0.951 . S
H350 C358 0.951 . S
C351 C345 1.265 . S
C351 H346 0.950 . S
C351 C352 1.478 . S
C352 C351 1.478 . S
C352 C353 1.397 . S
C352 C369 1.394 1_556 S
C353 C352 1.397 . S
C353 C354 1.438 . S
C353 C358 1.429 . S
C354 C353 1.438 . S
C354 C355 1.428 . S
C354 C367 1.394 1_556 S
C355 H347 0.949 1_556 S
C355 C354 1.428 . S
C355 C356 1.345 . S
C356 H348 0.950 . S
C356 C355 1.345 . S
C356 C357 1.424 . S
C357 H349 0.951 . S
C357 C356 1.424 . S
C357 C358 1.347 . S
C358 H350 0.951 . S
C358 C353 1.429 . S
C358 C357 1.347 . S
H359 C360 0.951 . S
C360 H359 0.951 . S
C360 C366 1.265 . S
H361 C366 0.950 . S
H362 C370 0.933 1_566 S
H363 C371 0.950 . S
H364 C372 0.951 . S
H365 C373 0.951 . S
C366 C360 1.265 . S
C366 H361 0.950 . S
C366 C367 1.478 . S
C367 C354 1.394 1_554 S
C367 C366 1.478 . S
C367 C368 1.397 . S
C368 C367 1.397 . S
C368 C369 1.438 . S
C368 C373 1.429 . S
C369 C352 1.394 1_554 S
C369 C368 1.438 . S
C369 C370 1.451 . S
C370 H362 0.933 1_544 S
C370 C369 1.451 . S
C370 C371 1.337 1_545 S
C371 H363 0.950 . S
C371 C370 1.337 1_565 S
C371 C372 1.424 1_565 S
C372 H364 0.951 . S
C372 C371 1.424 1_545 S
C372 C373 1.347 . S
C373 H365 0.951 . S
C373 C368 1.429 . S
C373 C372 1.347 . S
H374 C375 0.951 . S
C375 H374 0.951 . S
C375 C381 1.265 . S
H376 C381 0.950 . S
H377 C385 0.949 . S
H378 C386 0.950 . S
H379 C387 0.951 . S
H380 C388 0.951 1_556 S
C381 C375 1.265 . S
C381 H376 0.950 . S
C381 C382 1.478 . S
C382 C381 1.478 . S
C382 C383 1.397 1_556 S
C382 C399 1.394 . S
C383 C382 1.397 1_554 S
C383 C384 1.438 . S
C383 C388 1.429 . S
C384 C383 1.438 . S
C384 C385 1.428 . S
C384 C397 1.394 . S
C385 H377 0.949 . S
C385 C384 1.428 . S
C385 C386 1.345 . S
C386 H378 0.950 . S
C386 C385 1.345 . S
C386 C387 1.424 . S
C387 H379 0.951 . S
C387 C386 1.424 . S
C387 C388 1.347 . S
C388 H380 0.951 1_554 S
C388 C383 1.429 . S
C388 C387 1.347 . S
H389 C390 0.951 . S
C390 H389 0.951 . S
C390 C396 1.265 . S
H391 C396 0.950 1_655 S
H392 C400 0.949 . S
H393 C401 0.950 . S
H394 C402 0.951 1_655 S
H395 C403 0.951 1_654 S
C396 C390 1.265 . S
C396 H391 0.950 1_455 S
C396 C397 1.478 . S
C397 C384 1.394 . S
C397 C396 1.478 . S
C397 C398 1.397 1_554 S
C398 C397 1.397 1_556 S
C398 C399 1.438 . S
C398 C403 1.429 . S
C399 C382 1.394 . S
C399 C398 1.438 . S
C399 C400 1.428 . S
C400 H392 0.949 . S
C400 C399 1.428 . S
C400 C401 1.345 . S
C401 H393 0.950 . S
C401 C400 1.345 . S
C401 C402 1.424 . S
C402 H394 0.951 1_455 S
C402 C401 1.424 . S
C402 C403 1.347 . S
C403 H395 0.951 1_456 S
C403 C398 1.429 . S
C403 C402 1.347 . S
H404 C405 0.951 . S
C405 H404 0.951 . S
C405 C411 1.265 . S
H406 C411 0.950 . S
H407 C415 0.949 1_545 S
H408 C416 0.943 1_546 S
H409 C417 0.951 . S
H410 C418 0.951 . S
C411 C405 1.265 . S
C411 H406 0.950 . S
C411 C412 1.478 . S
C412 C411 1.478 . S
C412 C413 1.397 . S
C412 C429 1.394 . S
C413 C412 1.397 . S
C413 C414 1.438 1_554 S
C413 C418 1.429 . S
C414 C413 1.438 1_556 S
C414 C415 1.428 . S
C414 C427 1.394 . S
C415 H407 0.949 1_565 S
C415 C414 1.428 . S
C415 C416 1.330 1_556 S
C416 H408 0.943 1_564 S
C416 C415 1.330 1_554 S
C416 C417 1.446 . S
C417 H409 0.951 . S
C417 C416 1.446 . S
C417 C418 1.347 . S
C418 H410 0.951 . S
C418 C413 1.429 . S
C418 C417 1.347 . S
H419 C420 0.951 . S
C420 H419 0.951 . S
C420 C426 1.265 . S
H421 C426 0.950 . S
H422 C430 0.949 . S
H423 C431 0.944 1_554 S
H424 C432 0.951 . S
H425 C433 0.951 . S
C426 C420 1.265 . S
C426 H421 0.950 . S
C426 C427 1.478 . S
C427 C414 1.394 . S
C427 C426 1.478 . S
C427 C428 1.397 . S
C428 C427 1.397 . S
C428 C429 1.438 1_556 S
C428 C433 1.429 . S
C429 C412 1.394 . S
C429 C428 1.438 1_554 S
C429 C430 1.428 . S
C430 H422 0.949 . S
C430 C429 1.428 . S
C430 C431 1.345 1_554 S
C431 H423 0.944 1_556 S
C431 C430 1.345 1_556 S
C431 C432 1.424 . S
C432 H424 0.951 . S
C432 C431 1.424 . S
C432 C433 1.347 . S
C433 H425 0.951 . S
C433 C428 1.429 . S
C433 C432 1.347 . S
H434 C435 0.951 . S
C435 H434 0.951 . S
C435 C441 1.265 . S
H436 C441 0.950 . S
H437 C445 0.949 . S
H438 C446 0.950 . S
H439 C447 0.951 . S
H440 C448 0.951 . S
C441 C435 1.265 . S
C441 H436 0.950 . S
C441 C442 1.478 . S
C442 C441 1.478 . S
C442 C443 1.397 1_556 S
C442 C459 1.394 . S
C443 C442 1.397 1_554 S
C443 C444 1.438 . S
C443 C448 1.429 . S
C444 C443 1.438 . S
C444 C445 1.428 . S
C444 C457 1.394 . S
C445 H437 0.949 . S
C445 C444 1.428 . S
C445 C446 1.345 . S
C446 H438 0.950 . S
C446 C445 1.345 . S
C446 C447 1.424 . S
C447 H439 0.951 . S
C447 C446 1.424 . S
C447 C448 1.347 . S
C448 H440 0.951 . S
C448 C443 1.429 . S
C448 C447 1.347 . S
H449 C450 0.951 . S
C450 H449 0.951 . S
C450 C456 1.265 . S
H451 C456 0.950 . S
H452 C460 0.949 . S
H453 C461 0.950 . S
H454 C462 0.951 . S
H455 C463 0.951 1_455 S
C456 C450 1.265 . S
C456 H451 0.950 . S
C456 C457 1.478 . S
C457 C444 1.394 . S
C457 C456 1.478 . S
C457 C458 1.397 1_554 S
C458 C457 1.397 1_556 S
C458 C459 1.438 . S
C458 C463 1.429 . S
C459 C442 1.394 . S
C459 C458 1.438 . S
C459 C460 1.428 . S
C460 H452 0.949 . S
C460 C459 1.428 . S
C460 C461 1.345 . S
C461 H453 0.950 . S
C461 C460 1.345 . S
C461 C462 1.424 1_655 S
C462 H454 0.951 . S
C462 C461 1.424 1_455 S
C462 C463 1.347 1_455 S
C463 H455 0.951 1_655 S
C463 C458 1.429 . S
C463 C462 1.347 1_655 S
H464 C465 0.951 . S
C465 H464 0.951 . S
C465 C471 1.265 . S
H466 C471 0.950 . S
H467 C475 0.949 . S
H468 C476 0.950 . S
H469 C477 0.951 . S
H470 C478 0.951 . S
C471 C465 1.265 . S
C471 H466 0.950 . S
C471 C472 1.478 . S
C472 C471 1.478 . S
C472 C473 1.397 . S
C472 C489 1.394 . S
C473 C472 1.397 . S
C473 C474 1.438 . S
C473 C478 1.429 . S
C474 C473 1.438 . S
C474 C475 1.428 . S
C474 C487 1.394 . S
C475 H467 0.949 . S
C475 C474 1.428 . S
C475 C476 1.345 . S
C476 H468 0.950 . S
C476 C475 1.345 . S
C476 C477 1.424 . S
C477 H469 0.951 . S
C477 C476 1.424 . S
C477 C478 1.347 . S
C478 H470 0.951 . S
C478 C473 1.429 . S
C478 C477 1.347 . S
H479 C480 0.951 . S
C480 H479 0.951 . S
C480 C486 1.265 . S
H481 C486 0.950 . S
H482 C490 0.949 . S
H483 C491 0.950 . S
H484 C492 0.951 . S
H485 C493 0.951 . S
C486 C480 1.265 . S
C486 H481 0.950 . S
C486 C487 1.478 . S
C487 C474 1.394 . S
C487 C486 1.478 . S
C487 C488 1.397 . S
C488 C487 1.397 . S
C488 C489 1.438 . S
C488 C493 1.429 . S
C489 C472 1.394 . S
C489 C488 1.438 . S
C489 C490 1.428 . S
C490 H482 0.949 . S
C490 C489 1.428 . S
C490 C491 1.345 . S
C491 H483 0.950 . S
C491 C490 1.345 . S
C491 C492 1.424 . S
C492 H484 0.951 . S
C492 C491 1.424 . S
C492 C493 1.347 . S
C493 H485 0.951 . S
C493 C488 1.429 . S
C493 C492 1.347 . S
H494 C495 0.951 . S
C495 H494 0.951 . S
C495 C501 1.265 . S
H496 C501 0.950 . S
H497 C505 0.949 . S
H498 C506 0.950 . S
H499 C507 0.951 . S
H500 C508 0.951 . S
C501 C495 1.265 . S
C501 H496 0.950 . S
C501 C502 1.478 . S
C502 C501 1.478 . S
C502 C503 1.397 . S
C502 C519 1.394 . S
C503 C502 1.397 . S
C503 C504 1.438 . S
C503 C508 1.429 . S
C504 C503 1.438 . S
C504 C505 1.428 . S
C504 C517 1.394 . S
C505 H497 0.949 . S
C505 C504 1.428 . S
C505 C506 1.345 . S
C506 H498 0.950 . S
C506 C505 1.345 . S
C506 C507 1.424 . S
C507 H499 0.951 . S
C507 C506 1.424 . S
C507 C508 1.347 . S
C508 H500 0.951 . S
C508 C503 1.429 . S
C508 C507 1.347 . S
H509 C510 0.951 . S
C510 H509 0.951 . S
C510 C516 1.265 . S
H511 C516 0.950 . S
H512 C520 0.949 . S
H513 C521 0.950 . S
H514 C522 0.951 . S
H515 C523 0.951 . S
C516 C510 1.265 . S
C516 H511 0.950 . S
C516 C517 1.478 . S
C517 C504 1.394 . S
C517 C516 1.478 . S
C517 C518 1.397 . S
C518 C517 1.397 . S
C518 C519 1.438 . S
C518 C523 1.429 . S
C519 C502 1.394 . S
C519 C518 1.438 . S
C519 C520 1.428 . S
C520 H512 0.949 . S
C520 C519 1.428 . S
C520 C521 1.345 . S
C521 H513 0.950 . S
C521 C520 1.345 . S
C521 C522 1.424 . S
C522 H514 0.951 . S
C522 C521 1.424 . S
C522 C523 1.347 . S
C523 H515 0.951 . S
C523 C518 1.429 . S
C523 C522 1.347 . S
H524 C525 0.951 . S
C525 H524 0.951 . S
C525 C531 1.265 . S
H526 C531 0.950 . S
H527 C535 0.949 . S
H528 C536 0.950 . S
H529 C537 0.951 . S
H530 C538 0.951 . S
C531 C525 1.265 . S
C531 H526 0.950 . S
C531 C532 1.478 . S
C532 C531 1.478 . S
C532 C533 1.397 . S
C532 C549 1.394 . S
C533 C532 1.397 . S
C533 C534 1.438 . S
C533 C538 1.429 . S
C534 C533 1.438 . S
C534 C535 1.428 . S
C534 C547 1.394 . S
C535 H527 0.949 . S
C535 C534 1.428 . S
C535 C536 1.345 . S
C536 H528 0.950 . S
C536 C535 1.345 . S
C536 C537 1.424 . S
C537 H529 0.951 . S
C537 C536 1.424 . S
C537 C538 1.347 . S
C538 H530 0.951 . S
C538 C533 1.429 . S
C538 C537 1.347 . S
H539 C540 0.951 . S
C540 H539 0.951 . S
C540 C546 1.265 . S
H541 C546 0.950 . S
H542 C550 0.949 . S
H543 C551 0.950 . S
H544 C552 0.951 . S
H545 C553 0.951 . S
C546 C540 1.265 . S
C546 H541 0.950 . S
C546 C547 1.478 . S
C547 C534 1.394 . S
C547 C546 1.478 . S
C547 C548 1.397 . S
C548 C547 1.397 . S
C548 C549 1.438 . S
C548 C553 1.429 . S
C549 C532 1.394 . S
C549 C548 1.438 . S
C549 C550 1.428 . S
C550 H542 0.949 . S
C550 C549 1.428 . S
C550 C551 1.345 . S
C551 H543 0.950 . S
C551 C550 1.345 . S
C551 C552 1.424 . S
C552 H544 0.951 . S
C552 C551 1.424 . S
C552 C553 1.347 . S
C553 H545 0.951 . S
C553 C548 1.429 . S
C553 C552 1.347 . S
H554 C555 0.951 . S
C555 H554 0.951 . S
C555 C561 1.265 . S
H556 C561 0.950 . S
H557 C565 0.949 . S
H558 C566 0.950 . S
H559 C567 0.951 . S
H560 C568 0.951 . S
C561 C555 1.265 . S
C561 H556 0.950 . S
C561 C562 1.478 . S
C562 C561 1.478 . S
C562 C563 1.397 . S
C562 C579 1.394 . S
C563 C562 1.397 . S
C563 C564 1.438 . S
C563 C568 1.429 . S
C564 C563 1.438 . S
C564 C565 1.428 . S
C564 C577 1.394 . S
C565 H557 0.949 . S
C565 C564 1.428 . S
C565 C566 1.345 . S
C566 H558 0.950 . S
C566 C565 1.345 . S
C566 C567 1.424 . S
C567 H559 0.951 . S
C567 C566 1.424 . S
C567 C568 1.347 . S
C568 H560 0.951 . S
C568 C563 1.429 . S
C568 C567 1.347 . S
H569 C570 0.951 . S
C570 H569 0.951 . S
C570 C576 1.265 . S
H571 C576 0.950 . S
H572 C580 0.949 . S
H573 C581 0.950 . S
H574 C582 0.951 . S
H575 C583 0.951 . S
C576 C570 1.265 . S
C576 H571 0.950 . S
C576 C577 1.478 . S
C577 C564 1.394 . S
C577 C576 1.478 . S
C577 C578 1.397 . S
C578 C577 1.397 . S
C578 C579 1.438 . S
C578 C583 1.429 . S
C579 C562 1.394 . S
C579 C578 1.438 . S
C579 C580 1.428 . S
C580 H572 0.949 . S
C580 C579 1.428 . S
C580 C581 1.345 . S
C581 H573 0.950 . S
C581 C580 1.345 . S
C581 C582 1.424 . S
C582 H574 0.951 . S
C582 C581 1.424 . S
C582 C583 1.347 . S
C583 H575 0.951 . S
C583 C578 1.429 . S
C583 C582 1.347 . S
C105 C36 1.606 . S
C120 C10 1.608 . S
C135 C49 1.546 . S
C150 C23 1.546 . S
C165 C56 1.546 . S
C180 C88 1.546 . S
C195 C75 1.546 . S
C210 C95 1.546 . S
C225 C18 1.068 1_545 S
C240 C3 1.059 . S
C255 C16 1.083 . S
C270 C31 1.122 1_455 S
C285 C44 1.118 1_565 S
C300 C29 1.123 . S
C315 C42 1.072 . S
C330 C5 1.120 1_655 S
C345 C94 1.077 1_545 S
C360 C57 1.034 . S
C375 C68 1.099 . S
C390 C55 1.123 1_455 S
C405 C81 1.120 . S
C420 C70 1.119 1_565 S
C435 C96 1.120 . S
C450 C83 1.119 1_655 S
C465 C4 1.712 . S
C480 C69 1.724 . S
C495 C82 1.705 . S
C510 C17 1.694 . S
C525 C30 1.710 . S
C540 C101 1.697 . S
C555 C43 1.695 . S
C570 C62 1.707 . S
