# Generated by pormake.
# Topology gsi, (4)-cn, num edge types: 1
# Building blocks:
#     Node 0, Type 0, BuildingBlock: KUFVIS_clean_sbu_0, # of connection points: 4
#     Node 1, Type 0, BuildingBlock: KUFVIS_clean_sbu_0, # of connection points: 4
#     Node 2, Type 0, BuildingBlock: KUFVIS_clean_sbu_0, # of connection points: 4
#     Node 3, Type 0, BuildingBlock: KUFVIS_clean_sbu_0, # of connection points: 4
#     Node 4, Type 0, BuildingBlock: KUFVIS_clean_sbu_0, # of connection points: 4
#     Node 5, Type 0, BuildingBlock: KUFVIS_clean_sbu_0, # of connection points: 4
#     Node 6, Type 0, BuildingBlock: KUFVIS_clean_sbu_0, # of connection points: 4
#     Node 7, Type 0, BuildingBlock: KUFVIS_clean_sbu_0, # of connection points: 4
#     Node 8, Type 0, BuildingBlock: KUFVIS_clean_sbu_0, # of connection points: 4
#     Node 9, Type 0, BuildingBlock: KUFVIS_clean_sbu_0, # of connection points: 4
#     Node 10, Type 0, BuildingBlock: KUFVIS_clean_sbu_0, # of connection points: 4
#     Node 11, Type 0, BuildingBlock: KUFVIS_clean_sbu_0, # of connection points: 4
#     Node 12, Type 0, BuildingBlock: KUFVIS_clean_sbu_0, # of connection points: 4
#     Node 13, Type 0, BuildingBlock: KUFVIS_clean_sbu_0, # of connection points: 4
#     Node 14, Type 0, BuildingBlock: KUFVIS_clean_sbu_0, # of connection points: 4
#     Node 15, Type 0, BuildingBlock: KUFVIS_clean_sbu_0, # of connection points: 4
#     Edge 16, Type (0, 0), BuildingBlock: ZUJKAS_clean_linker_0, # of connection points: 2
#     Edge 17, Type (0, 0), BuildingBlock: ZUJKAS_clean_linker_0, # of connection points: 2
#     Edge 18, Type (0, 0), BuildingBlock: ZUJKAS_clean_linker_0, # of connection points: 2
#     Edge 19, Type (0, 0), BuildingBlock: ZUJKAS_clean_linker_0, # of connection points: 2
#     Edge 20, Type (0, 0), BuildingBlock: ZUJKAS_clean_linker_0, # of connection points: 2
#     Edge 21, Type (0, 0), BuildingBlock: ZUJKAS_clean_linker_0, # of connection points: 2
#     Edge 22, Type (0, 0), BuildingBlock: ZUJKAS_clean_linker_0, # of connection points: 2
#     Edge 23, Type (0, 0), BuildingBlock: ZUJKAS_clean_linker_0, # of connection points: 2
#     Edge 24, Type (0, 0), BuildingBlock: ZUJKAS_clean_linker_0, # of connection points: 2
#     Edge 25, Type (0, 0), BuildingBlock: ZUJKAS_clean_linker_0, # of connection points: 2
#     Edge 26, Type (0, 0), BuildingBlock: ZUJKAS_clean_linker_0, # of connection points: 2
#     Edge 27, Type (0, 0), BuildingBlock: ZUJKAS_clean_linker_0, # of connection points: 2
#     Edge 28, Type (0, 0), BuildingBlock: ZUJKAS_clean_linker_0, # of connection points: 2
#     Edge 29, Type (0, 0), BuildingBlock: ZUJKAS_clean_linker_0, # of connection points: 2
#     Edge 30, Type (0, 0), BuildingBlock: ZUJKAS_clean_linker_0, # of connection points: 2
#     Edge 31, Type (0, 0), BuildingBlock: ZUJKAS_clean_linker_0, # of connection points: 2
#     Edge 32, Type (0, 0), BuildingBlock: ZUJKAS_clean_linker_0, # of connection points: 2
#     Edge 33, Type (0, 0), BuildingBlock: ZUJKAS_clean_linker_0, # of connection points: 2
#     Edge 34, Type (0, 0), BuildingBlock: ZUJKAS_clean_linker_0, # of connection points: 2
#     Edge 35, Type (0, 0), BuildingBlock: ZUJKAS_clean_linker_0, # of connection points: 2
#     Edge 36, Type (0, 0), BuildingBlock: ZUJKAS_clean_linker_0, # of connection points: 2
#     Edge 37, Type (0, 0), BuildingBlock: ZUJKAS_clean_linker_0, # of connection points: 2
#     Edge 38, Type (0, 0), BuildingBlock: ZUJKAS_clean_linker_0, # of connection points: 2
#     Edge 39, Type (0, 0), BuildingBlock: ZUJKAS_clean_linker_0, # of connection points: 2
#     Edge 40, Type (0, 0), BuildingBlock: ZUJKAS_clean_linker_0, # of connection points: 2
#     Edge 41, Type (0, 0), BuildingBlock: ZUJKAS_clean_linker_0, # of connection points: 2
#     Edge 42, Type (0, 0), BuildingBlock: ZUJKAS_clean_linker_0, # of connection points: 2
#     Edge 43, Type (0, 0), BuildingBlock: ZUJKAS_clean_linker_0, # of connection points: 2
#     Edge 44, Type (0, 0), BuildingBlock: ZUJKAS_clean_linker_0, # of connection points: 2
#     Edge 45, Type (0, 0), BuildingBlock: ZUJKAS_clean_linker_0, # of connection points: 2
#     Edge 46, Type (0, 0), BuildingBlock: ZUJKAS_clean_linker_0, # of connection points: 2
#     Edge 47, Type (0, 0), BuildingBlock: ZUJKAS_clean_linker_0, # of connection points: 2
# Relax obj value: 0.116
# Max RMSD: 0.168
# Mean RMSD: 0.121
data_MOF--net-gsi--node1-KUFVIS_clean_sbu_0--edge1-ZUJKAS_clean_linker_0
_symmetry_space_group_name_H-M    P1
_symmetry_Int_Tables_number       1
_symmetry_cell_setting            triclinic
loop_
_symmetry_equiv_pos_as_xyz
'x, y, z'
_cell_length_a     54.682753
_cell_length_b     53.232284
_cell_length_c     52.9301
_cell_angle_alpha  92.401881
_cell_angle_beta   91.868161
_cell_angle_gamma 95.936235
loop_
_atom_site_label
_atom_site_type_symbol
_atom_site_fract_x
_atom_site_fract_y
_atom_site_fract_z
_atom_type_partial_charge
Mn0 Mn 0.15928 0.15385 0.15463 0.0
Mn1 Mn 0.15123 0.16142 0.21746 0.0
C2 C 0.17836 0.1892 0.17742 0.0
C3 C 0.18044 0.13934 0.11989 0.0
C4 C 0.11323 0.1729 0.17783 0.0
O5 O 0.14663 0.1179 0.16412 0.0
O6 O 0.14199 0.12586 0.20573 0.0
C7 C 0.18993 0.13052 0.23515 0.0
N8 N 0.17968 0.15279 0.23568 0.0
C9 C 0.20851 0.1706 0.26856 0.0
C10 C 0.21936 0.14785 0.26841 0.0
C11 C 0.21011 0.12778 0.25153 0.0
C12 C 0.18873 0.17237 0.2515 0.0
H13 H 0.1827 0.11496 0.2224 0.0
C14 C 0.1408 0.11084 0.18614 0.0
O15 O 0.15767 0.14405 0.11769 0.0
O16 O 0.19058 0.14196 0.14249 0.0
N17 N 0.1595 0.19475 0.2321 0.0
C18 C 0.14717 0.21552 0.22953 0.0
C19 C 0.1535 0.23696 0.24565 0.0
C20 C 0.1722 0.2367 0.26442 0.0
C21 C 0.18503 0.21533 0.26635 0.0
C22 C 0.17774 0.19444 0.24992 0.0
H23 H 0.13227 0.21555 0.21564 0.0
O24 O 0.17436 0.18962 0.15315 0.0
O25 O 0.17112 0.16811 0.18776 0.0
O26 O 0.12501 0.16636 0.15858 0.0
O27 O 0.12133 0.17138 0.20053 0.0
C28 C 0.20446 0.21375 0.2842 0.0
C29 C 0.21644 0.19154 0.28503 0.0
H30 H 0.23478 0.14558 0.28118 0.0
H31 H 0.21838 0.11016 0.25129 0.0
H32 H 0.14365 0.25346 0.24396 0.0
H33 H 0.17648 0.25303 0.27727 0.0
H34 H 0.21041 0.2295 0.29734 0.0
H35 H 0.23156 0.19068 0.2986 0.0
Mn36 Mn 0.86439 0.34567 0.16713 0.0
Mn37 Mn 0.87186 0.33114 0.22828 0.0
C38 C 0.84123 0.31116 0.18278 0.0
C39 C 0.84452 0.36528 0.13463 0.0
C40 C 0.9081 0.31991 0.18817 0.0
O41 O 0.88034 0.3791 0.18381 0.0
O42 O 0.88401 0.36709 0.22409 0.0
C43 C 0.83713 0.36365 0.25161 0.0
N44 N 0.84479 0.34035 0.24735 0.0
C45 C 0.81324 0.32114 0.27313 0.0
C46 C 0.80505 0.34494 0.27785 0.0
C47 C 0.81703 0.36628 0.26701 0.0
C48 C 0.83343 0.3197 0.25773 0.0
H49 H 0.84623 0.38012 0.2433 0.0
C50 C 0.88624 0.38374 0.20729 0.0
O51 O 0.86652 0.35856 0.13227 0.0
O52 O 0.83473 0.36202 0.1564 0.0
N53 N 0.86028 0.29701 0.23505 0.0
C54 C 0.86943 0.27522 0.22731 0.0
C55 C 0.85935 0.25211 0.23631 0.0
C56 C 0.84001 0.25164 0.25316 0.0
C57 C 0.83062 0.27424 0.26052 0.0
C58 C 0.8417 0.29675 0.2513 0.0
H59 H 0.88441 0.27548 0.2145 0.0
O60 O 0.84541 0.31189 0.15881 0.0
O61 O 0.85151 0.33014 0.19691 0.0
O62 O 0.89682 0.32912 0.1698 0.0
O63 O 0.90043 0.32024 0.21066 0.0
C64 C 0.81053 0.27529 0.27641 0.0
C65 C 0.80178 0.29872 0.28261 0.0
H66 H 0.78945 0.34702 0.28958 0.0
H67 H 0.81077 0.3847 0.27049 0.0
H68 H 0.86655 0.2347 0.23038 0.0
H69 H 0.83239 0.23378 0.26018 0.0
H70 H 0.80143 0.25816 0.28366 0.0
H71 H 0.78604 0.29929 0.2944 0.0
Mn72 Mn 0.17128 0.86639 0.35733 0.0
Mn73 Mn 0.17762 0.80601 0.37158 0.0
C74 C 0.20316 0.84582 0.34112 0.0
C75 C 0.15551 0.89587 0.33122 0.0
C76 C 0.19206 0.85087 0.40824 0.0
O77 O 0.13729 0.85403 0.37028 0.0
O78 O 0.14343 0.81344 0.3763 0.0
C79 C 0.1461 0.77965 0.33003 0.0
N80 N 0.16825 0.78376 0.34285 0.0
C81 C 0.18514 0.75229 0.31666 0.0
C82 C 0.16249 0.74765 0.30321 0.0
C83 C 0.14292 0.76148 0.30986 0.0
C84 C 0.18727 0.77078 0.33643 0.0
H85 H 0.131 0.79017 0.33517 0.0
C86 C 0.1297 0.83151 0.37611 0.0
O87 O 0.16264 0.90177 0.35455 0.0
O88 O 0.15648 0.87257 0.32347 0.0
N89 N 0.20995 0.79607 0.36764 0.0
C90 C 0.23081 0.80342 0.38199 0.0
C91 C 0.25203 0.79128 0.37796 0.0
C92 C 0.25153 0.77158 0.35941 0.0
C93 C 0.22993 0.76448 0.34471 0.0
C94 C 0.20928 0.77708 0.34977 0.0
H95 H 0.2312 0.81824 0.3966 0.0
O96 O 0.20478 0.87033 0.34259 0.0
O97 O 0.18311 0.83419 0.34917 0.0
O98 O 0.18697 0.86809 0.39341 0.0
O99 O 0.18834 0.82731 0.4021 0.0
C100 C 0.22805 0.74537 0.32528 0.0
C101 C 0.20574 0.73945 0.31111 0.0
H102 H 0.15994 0.73361 0.28768 0.0
H103 H 0.12541 0.75806 0.29952 0.0
H104 H 0.26866 0.79691 0.38932 0.0
H105 H 0.26785 0.76202 0.35667 0.0
H106 H 0.24373 0.7353 0.32091 0.0
H107 H 0.20464 0.72499 0.29597 0.0
Mn108 Mn 0.85097 0.66022 0.37016 0.0
Mn109 Mn 0.86463 0.66698 0.30863 0.0
C110 C 0.83652 0.69253 0.34795 0.0
C111 C 0.82662 0.64396 0.40262 0.0
C112 C 0.89963 0.68654 0.35183 0.0
O113 O 0.86231 0.62576 0.36015 0.0
O114 O 0.87234 0.63371 0.32013 0.0
C115 C 0.82624 0.62763 0.28754 0.0
N116 N 0.83712 0.65187 0.28816 0.0
C117 C 0.8097 0.66272 0.25481 0.0
C118 C 0.79829 0.63784 0.25371 0.0
C119 C 0.80654 0.62025 0.27022 0.0
C120 C 0.82914 0.669 0.27257 0.0
H121 H 0.83253 0.61403 0.30014 0.0
C122 C 0.87078 0.61938 0.33888 0.0
O123 O 0.84969 0.65201 0.40655 0.0
O124 O 0.81795 0.64412 0.37949 0.0
N125 N 0.85828 0.69796 0.29392 0.0
C126 C 0.87112 0.72124 0.29754 0.0
C127 C 0.86546 0.74088 0.28219 0.0
C128 C 0.84685 0.73632 0.26312 0.0
C129 C 0.83395 0.71222 0.2597 0.0
C130 C 0.84065 0.69329 0.2753 0.0
H131 H 0.8857 0.72475 0.31191 0.0
O132 O 0.83829 0.69395 0.37247 0.0
O133 O 0.84266 0.67189 0.33687 0.0
O134 O 0.8862 0.67788 0.36945 0.0
O135 O 0.89347 0.68355 0.32835 0.0
C136 C 0.81468 0.70626 0.24142 0.0
C137 C 0.80245 0.68156 0.2391 0.0
H138 H 0.78313 0.63206 0.24034 0.0
H139 H 0.79779 0.60104 0.26955 0.0
H140 H 0.87551 0.75945 0.28494 0.0
H141 H 0.8426 0.75147 0.25123 0.0
H142 H 0.809 0.72057 0.22919 0.0
H143 H 0.7875 0.67725 0.22515 0.0
Mn144 Mn 0.36269 0.84685 0.66774 0.0
Mn145 Mn 0.36919 0.8347 0.72958 0.0
C146 C 0.34116 0.81163 0.68398 0.0
C147 C 0.34268 0.8647 0.63416 0.0
C148 C 0.40702 0.82366 0.6911 0.0
O149 O 0.37717 0.88128 0.68354 0.0
O150 O 0.38033 0.87058 0.7242 0.0
C151 C 0.33199 0.86656 0.74905 0.0
N152 N 0.34083 0.84361 0.74666 0.0
C153 C 0.30883 0.82453 0.77196 0.0
C154 C 0.29945 0.84798 0.7748 0.0
C155 C 0.31103 0.86906 0.7632 0.0
C156 C 0.32964 0.82314 0.75745 0.0
H157 H 0.34085 0.88284 0.74024 0.0
C158 C 0.38258 0.88676 0.70698 0.0
O159 O 0.36507 0.85884 0.63254 0.0
O160 O 0.33247 0.86145 0.65572 0.0
N161 N 0.35869 0.80073 0.73784 0.0
C162 C 0.36962 0.77932 0.73266 0.0
C163 C 0.36037 0.75656 0.743 0.0
C164 C 0.34018 0.75611 0.75876 0.0
C165 C 0.32918 0.77836 0.76377 0.0
C166 C 0.33928 0.8005 0.75304 0.0
H167 H 0.38539 0.77963 0.72087 0.0
O168 O 0.34539 0.8121 0.66002 0.0
O169 O 0.34987 0.83154 0.69764 0.0
O170 O 0.39583 0.83197 0.67212 0.0
O171 O 0.39881 0.82424 0.71342 0.0
C172 C 0.30864 0.77948 0.77902 0.0
C173 C 0.29829 0.80247 0.78287 0.0
H174 H 0.28333 0.85 0.78578 0.0
H175 H 0.30386 0.88721 0.76524 0.0
H176 H 0.36893 0.73945 0.73902 0.0
H177 H 0.33332 0.73856 0.76693 0.0
H178 H 0.30056 0.76275 0.78776 0.0
H179 H 0.28228 0.80301 0.79431 0.0
Mn180 Mn 0.87225 0.86688 0.86431 0.0
Mn181 Mn 0.84451 0.80845 0.8733 0.0
C182 C 0.86003 0.83923 0.82996 0.0
C183 C 0.87096 0.90962 0.85616 0.0
C184 C 0.89937 0.82251 0.88163 0.0
O185 O 0.86049 0.87035 0.90075 0.0
O186 O 0.84182 0.83079 0.9037 0.0
C187 C 0.79335 0.82196 0.87498 0.0
N188 N 0.81027 0.80804 0.86446 0.0
C189 C 0.77963 0.78623 0.83545 0.0
C190 C 0.76187 0.80026 0.84603 0.0
C191 C 0.76879 0.81828 0.8658 0.0
C192 C 0.80389 0.79101 0.8451 0.0
H193 H 0.79856 0.83577 0.89024 0.0
C194 C 0.84813 0.85326 0.91285 0.0
O195 O 0.89055 0.90146 0.86601 0.0
O196 O 0.85166 0.89333 0.85289 0.0
N197 N 0.84539 0.78476 0.8452 0.0
C198 C 0.86465 0.77248 0.83735 0.0
C199 C 0.86076 0.75358 0.81789 0.0
C200 C 0.83705 0.74724 0.80695 0.0
C201 C 0.81741 0.75976 0.81569 0.0
C202 C 0.8224 0.77839 0.83517 0.0
H203 H 0.88286 0.77703 0.8459 0.0
O204 O 0.87726 0.85758 0.82782 0.0
O205 O 0.85095 0.8375 0.85221 0.0
O206 O 0.89947 0.84543 0.87542 0.0
O207 O 0.87984 0.80713 0.88208 0.0
C208 C 0.79308 0.75442 0.80587 0.0
C209 C 0.77421 0.76766 0.81575 0.0
H210 H 0.74288 0.79736 0.83911 0.0
H211 H 0.7552 0.82923 0.87403 0.0
H212 H 0.87598 0.74387 0.81138 0.0
H213 H 0.83413 0.7327 0.7919 0.0
H214 H 0.78867 0.74022 0.79069 0.0
H215 H 0.75558 0.76341 0.80804 0.0
Mn216 Mn 0.15255 0.66353 0.86682 0.0
Mn217 Mn 0.18077 0.72219 0.87998 0.0
C218 C 0.16386 0.68967 0.83412 0.0
C219 C 0.15386 0.6205 0.85712 0.0
C220 C 0.12606 0.70843 0.88547 0.0
O221 O 0.1653 0.66142 0.9035 0.0
O222 O 0.18497 0.7007 0.90915 0.0
C223 C 0.23214 0.70917 0.88237 0.0
N224 N 0.21467 0.72254 0.87206 0.0
C225 C 0.24397 0.74342 0.84489 0.0
C226 C 0.26231 0.72999 0.85532 0.0
C227 C 0.25633 0.7127 0.87405 0.0
C228 C 0.22014 0.73889 0.85372 0.0
H229 H 0.22767 0.69591 0.89684 0.0
C230 C 0.17874 0.67852 0.9168 0.0
O231 O 0.13436 0.62899 0.8662 0.0
O232 O 0.17301 0.63676 0.85531 0.0
N233 N 0.17861 0.74506 0.85322 0.0
C234 C 0.15901 0.75718 0.84574 0.0
C235 C 0.16202 0.77546 0.82739 0.0
C236 C 0.18519 0.78129 0.81713 0.0
C237 C 0.20522 0.76902 0.82555 0.0
C238 C 0.20114 0.75109 0.84401 0.0
H239 H 0.14122 0.753 0.85374 0.0
O240 O 0.14648 0.67125 0.83061 0.0
O241 O 0.17362 0.69243 0.85688 0.0
O242 O 0.12565 0.68537 0.87769 0.0
O243 O 0.14574 0.72366 0.88791 0.0
C244 C 0.22907 0.77388 0.81638 0.0
C245 C 0.24841 0.76105 0.82601 0.0
H246 H 0.281 0.73273 0.849 0.0
H247 H 0.27035 0.70219 0.88212 0.0
H248 H 0.14653 0.78503 0.82117 0.0
H249 H 0.18741 0.7953 0.80289 0.0
H250 H 0.23274 0.78745 0.80193 0.0
H251 H 0.26665 0.76486 0.8188 0.0
Mn252 Mn 0.86346 0.16346 0.67162 0.0
Mn253 Mn 0.89692 0.19115 0.72199 0.0
C254 C 0.84416 0.18131 0.70537 0.0
C255 C 0.84346 0.16454 0.63192 0.0
C256 C 0.88694 0.13433 0.71327 0.0
O257 O 0.89795 0.17043 0.65744 0.0
O258 O 0.91762 0.19019 0.69206 0.0
C259 C 0.90627 0.24307 0.7039 0.0
N260 N 0.89737 0.22708 0.72165 0.0
C261 C 0.88652 0.26177 0.74815 0.0
C262 C 0.89563 0.27862 0.73019 0.0
C263 C 0.90547 0.26922 0.70794 0.0
C264 C 0.88771 0.23592 0.74304 0.0
H265 H 0.91389 0.23593 0.6868 0.0
C266 C 0.91703 0.18229 0.66883 0.0
O267 O 0.85022 0.14371 0.64039 0.0
O268 O 0.84946 0.18499 0.64594 0.0
N269 N 0.87888 0.19364 0.75218 0.0
C270 C 0.86987 0.17478 0.76704 0.0
C271 C 0.85964 0.18097 0.79016 0.0
C272 C 0.85887 0.20643 0.7978 0.0
C273 C 0.86782 0.22551 0.78198 0.0
C274 C 0.87814 0.2182 0.75933 0.0
H275 H 0.87072 0.15517 0.76146 0.0
O276 O 0.83231 0.16376 0.69059 0.0
O277 O 0.86695 0.18754 0.70021 0.0
O278 O 0.87384 0.13468 0.69293 0.0
O279 O 0.8972 0.15434 0.72488 0.0
C280 C 0.86687 0.25146 0.78776 0.0
C281 C 0.87604 0.26957 0.77077 0.0
H282 H 0.89505 0.2988 0.73322 0.0
H283 H 0.91248 0.2821 0.69396 0.0
H284 H 0.85258 0.16615 0.80218 0.0
H285 H 0.85121 0.2111 0.81581 0.0
H286 H 0.85887 0.25769 0.8051 0.0
H287 H 0.87488 0.28944 0.77525 0.0
Mn288 Mn 0.17457 0.36163 0.6643 0.0
Mn289 Mn 0.14431 0.33176 0.71118 0.0
C290 C 0.19616 0.34805 0.69875 0.0
C291 C 0.19442 0.36247 0.62564 0.0
C292 C 0.14959 0.38849 0.70768 0.0
O293 O 0.14069 0.35059 0.64723 0.0
O294 O 0.12268 0.33287 0.68073 0.0
C295 C 0.13716 0.28076 0.68571 0.0
N296 N 0.14538 0.29615 0.7061 0.0
C297 C 0.15574 0.26073 0.72953 0.0
C298 C 0.14734 0.24448 0.70881 0.0
C299 C 0.13815 0.25456 0.68675 0.0
C300 C 0.15466 0.2867 0.72723 0.0
H301 H 0.12981 0.28837 0.66883 0.0
C302 C 0.12217 0.33939 0.65778 0.0
O303 O 0.18523 0.38215 0.63512 0.0
O304 O 0.19117 0.34195 0.63808 0.0
N305 N 0.16239 0.32861 0.7422 0.0
C306 C 0.17011 0.3469 0.76033 0.0
C307 C 0.17975 0.33999 0.78363 0.0
C308 C 0.18079 0.31433 0.78828 0.0
C309 C 0.17254 0.29581 0.76942 0.0
C310 C 0.16329 0.30386 0.74652 0.0
H311 H 0.16882 0.36662 0.75709 0.0
O312 O 0.20588 0.36606 0.68533 0.0
O313 O 0.17416 0.33814 0.6916 0.0
O314 O 0.16062 0.38895 0.68676 0.0
O315 O 0.14274 0.36807 0.71841 0.0
C316 C 0.17307 0.26968 0.77246 0.0
C317 C 0.16498 0.25219 0.75242 0.0
H318 H 0.14786 0.22424 0.70964 0.0
H319 H 0.13162 0.24215 0.67068 0.0
H320 H 0.18608 0.35437 0.7981 0.0
H321 H 0.18799 0.30909 0.8064 0.0
H322 H 0.17986 0.26282 0.79006 0.0
H323 H 0.16582 0.23219 0.75486 0.0
Mn324 Mn 0.65377 0.16594 0.36874 0.0
Mn325 Mn 0.67846 0.22587 0.38271 0.0
C326 C 0.66503 0.19251 0.33661 0.0
C327 C 0.65705 0.12323 0.35907 0.0
C328 C 0.62413 0.2088 0.38637 0.0
O329 O 0.66588 0.16451 0.4057 0.0
O330 O 0.6831 0.2048 0.41221 0.0
C331 C 0.7311 0.21771 0.38807 0.0
N332 N 0.71289 0.22929 0.37667 0.0
C333 C 0.74187 0.2525 0.3508 0.0
C334 C 0.76094 0.24089 0.36233 0.0
C335 C 0.75552 0.2234 0.38103 0.0
C336 C 0.71791 0.24624 0.35873 0.0
H337 H 0.72703 0.20417 0.40239 0.0
C338 C 0.67806 0.18221 0.41946 0.0
O339 O 0.637 0.1308 0.36778 0.0
O340 O 0.67569 0.14024 0.3577 0.0
N341 N 0.67557 0.2478 0.35527 0.0
C342 C 0.65489 0.25587 0.34468 0.0
C343 C 0.65704 0.27299 0.32521 0.0
C344 C 0.6804 0.2816 0.31683 0.0
C345 C 0.70141 0.27281 0.3278 0.0
C346 C 0.69814 0.25604 0.34739 0.0
H347 H 0.63688 0.24931 0.35105 0.0
O348 O 0.64828 0.17355 0.3324 0.0
O349 O 0.67402 0.19575 0.35969 0.0
O350 O 0.62517 0.18594 0.37869 0.0
O351 O 0.64299 0.22501 0.38924 0.0
C352 C 0.72541 0.27971 0.31981 0.0
C353 C 0.74561 0.26953 0.33128 0.0
H354 H 0.77977 0.24507 0.3568 0.0
H355 H 0.77013 0.21428 0.38995 0.0
H356 H 0.64074 0.27954 0.3167 0.0
H357 H 0.68197 0.29484 0.30183 0.0
H358 H 0.72851 0.29254 0.3046 0.0
H359 H 0.76393 0.27461 0.32476 0.0
Mn360 Mn 0.65817 0.65734 0.65677 0.0
Mn361 Mn 0.65162 0.66402 0.71993 0.0
C362 C 0.67816 0.69213 0.67972 0.0
C363 C 0.67835 0.64294 0.6213 0.0
C364 C 0.61298 0.67662 0.6815 0.0
O365 O 0.64529 0.62136 0.66593 0.0
O366 O 0.64185 0.62867 0.70782 0.0
C367 C 0.69035 0.63247 0.73612 0.0
N368 N 0.68034 0.65486 0.73729 0.0
C369 C 0.71 0.67198 0.76969 0.0
C370 C 0.72062 0.64909 0.76889 0.0
C371 C 0.71084 0.6293 0.75193 0.0
C372 C 0.68989 0.67416 0.75318 0.0
H373 H 0.68272 0.61712 0.72331 0.0
C374 C 0.64001 0.61398 0.68797 0.0
O375 O 0.65567 0.64807 0.61971 0.0
O376 O 0.68895 0.64513 0.64369 0.0
N377 N 0.66047 0.69711 0.73493 0.0
C378 C 0.6483 0.71807 0.73301 0.0
C379 C 0.65515 0.73925 0.74933 0.0
C380 C 0.67423 0.73856 0.76759 0.0
C381 C 0.68691 0.71702 0.76883 0.0
C382 C 0.67908 0.69639 0.75225 0.0
H383 H 0.63312 0.71843 0.71952 0.0
O384 O 0.67368 0.69299 0.65557 0.0
O385 O 0.67086 0.67095 0.68984 0.0
O386 O 0.62425 0.67032 0.66182 0.0
O387 O 0.62151 0.67452 0.70395 0.0
C388 C 0.70669 0.71502 0.78613 0.0
C389 C 0.71847 0.69266 0.78629 0.0
H390 H 0.73628 0.6465 0.78122 0.0
H391 H 0.71893 0.61159 0.75119 0.0
H392 H 0.64542 0.75589 0.74817 0.0
H393 H 0.67893 0.7547 0.78061 0.0
H394 H 0.71306 0.73056 0.79937 0.0
H395 H 0.73387 0.69147 0.79944 0.0
Mn396 Mn 0.67068 0.36971 0.85982 0.0
Mn397 Mn 0.67241 0.30921 0.87641 0.0
C398 C 0.70081 0.34606 0.84477 0.0
C399 C 0.65714 0.39956 0.83269 0.0
C400 C 0.68988 0.35442 0.91157 0.0
O401 O 0.63605 0.36036 0.8725 0.0
O402 O 0.63909 0.31956 0.88105 0.0
C403 C 0.63908 0.28386 0.83574 0.0
N404 N 0.66135 0.28666 0.84837 0.0
C405 C 0.67578 0.25326 0.82267 0.0
C406 C 0.65295 0.24994 0.80945 0.0
C407 C 0.63456 0.26537 0.81596 0.0
C408 C 0.67926 0.27209 0.84211 0.0
H409 H 0.62488 0.29566 0.84072 0.0
C410 C 0.62699 0.3388 0.87963 0.0
O411 O 0.66458 0.40573 0.85588 0.0
O412 O 0.65675 0.37591 0.82556 0.0
N413 N 0.70363 0.29651 0.87271 0.0
C414 C 0.72488 0.30274 0.88676 0.0
C415 C 0.74509 0.28901 0.88274 0.0
C416 C 0.74318 0.26893 0.86449 0.0
C417 C 0.72117 0.26295 0.85015 0.0
C418 C 0.70156 0.27711 0.8552 0.0
H419 H 0.72636 0.31793 0.90107 0.0
O420 O 0.70423 0.37058 0.84545 0.0
O421 O 0.68003 0.33621 0.85295 0.0
O422 O 0.68595 0.3715 0.89612 0.0
O423 O 0.68472 0.33082 0.9062 0.0
C424 C 0.71792 0.24353 0.83104 0.0
C425 C 0.69531 0.23883 0.81717 0.0
H426 H 0.64938 0.23569 0.79419 0.0
H427 H 0.61692 0.26298 0.80578 0.0
H428 H 0.76204 0.29377 0.89382 0.0
H429 H 0.75874 0.25821 0.86169 0.0
H430 H 0.73278 0.23229 0.82665 0.0
H431 H 0.69316 0.2241 0.80228 0.0
Mn432 Mn 0.3498 0.16437 0.86842 0.0
Mn433 Mn 0.35757 0.17839 0.80715 0.0
C434 C 0.33292 0.19859 0.85186 0.0
C435 C 0.32784 0.14452 0.90075 0.0
C436 C 0.39645 0.19329 0.84845 0.0
O437 O 0.36067 0.13137 0.85317 0.0
O438 O 0.36611 0.14394 0.81349 0.0
C439 C 0.31741 0.14137 0.78542 0.0
N440 N 0.32838 0.16555 0.788 0.0
C441 C 0.2982 0.18016 0.75958 0.0
C442 C 0.28666 0.15539 0.75652 0.0
C443 C 0.29625 0.13594 0.76958 0.0
C444 C 0.31911 0.18446 0.77578 0.0
H445 H 0.32475 0.12635 0.79537 0.0
C446 C 0.36679 0.12746 0.83033 0.0
O447 O 0.35111 0.15224 0.90364 0.0
O448 O 0.31777 0.14682 0.87854 0.0
N449 N 0.35005 0.21102 0.79741 0.0
C450 C 0.36325 0.23392 0.80258 0.0
C451 C 0.35642 0.25529 0.79056 0.0
C452 C 0.33631 0.25285 0.77312 0.0
C453 C 0.32301 0.22914 0.7681 0.0
C454 C 0.33089 0.20845 0.78038 0.0
H455 H 0.37896 0.23585 0.81566 0.0
O456 O 0.33698 0.19759 0.87603 0.0
O457 O 0.33849 0.17945 0.83793 0.0
O458 O 0.38479 0.18246 0.86624 0.0
O459 O 0.38793 0.1929 0.82566 0.0
C460 C 0.30222 0.22522 0.75142 0.0
C461 C 0.28971 0.20078 0.74732 0.0
H462 H 0.27037 0.15111 0.74426 0.0
H463 H 0.2874 0.11679 0.76738 0.0
H464 H 0.36675 0.27355 0.79455 0.0
H465 H 0.33129 0.26929 0.76361 0.0
H466 H 0.29557 0.24092 0.74184 0.0
H467 H 0.27359 0.19804 0.73466 0.0
Mn468 Mn 0.37049 0.36765 0.36225 0.0
Mn469 Mn 0.34094 0.31023 0.3723 0.0
C470 C 0.35698 0.33993 0.32842 0.0
C471 C 0.37096 0.41049 0.35375 0.0
C472 C 0.39613 0.32219 0.37943 0.0
O473 O 0.3593 0.37213 0.3988 0.0
O474 O 0.33972 0.33308 0.4026 0.0
C475 C 0.29059 0.32579 0.37521 0.0
N476 N 0.30669 0.31113 0.36428 0.0
C477 C 0.27476 0.29013 0.33623 0.0
C478 C 0.25783 0.30494 0.34723 0.0
C479 C 0.26581 0.32293 0.36673 0.0
C480 C 0.29929 0.29411 0.34518 0.0
H481 H 0.2966 0.33954 0.3903 0.0
C482 C 0.34674 0.35556 0.41132 0.0
O483 O 0.39018 0.40145 0.36338 0.0
O484 O 0.351 0.39504 0.35084 0.0
N485 N 0.3403 0.2861 0.34436 0.0
C486 C 0.35879 0.27283 0.33622 0.0
C487 C 0.35377 0.25382 0.31699 0.0
C488 C 0.32974 0.24837 0.30661 0.0
C489 C 0.3109 0.26188 0.31568 0.0
C490 C 0.317 0.28061 0.33488 0.0
H491 H 0.37723 0.27668 0.34435 0.0
O492 O 0.37474 0.35763 0.32582 0.0
O493 O 0.348 0.33888 0.35077 0.0
O494 O 0.39688 0.34516 0.37323 0.0
O495 O 0.37619 0.30749 0.38026 0.0
C496 C 0.28627 0.25738 0.30653 0.0
C497 C 0.26822 0.27149 0.31681 0.0
H498 H 0.23867 0.30266 0.34087 0.0
H499 H 0.25287 0.33446 0.3753 0.0
H500 H 0.36838 0.24333 0.31024 0.0
H501 H 0.32595 0.23372 0.29177 0.0
H502 H 0.28101 0.24312 0.2916 0.0
H503 H 0.24936 0.26787 0.30964 0.0
Mn504 Mn 0.36533 0.66342 0.16859 0.0
Mn505 Mn 0.40093 0.69196 0.21713 0.0
C506 C 0.3477 0.68275 0.20262 0.0
C507 C 0.34388 0.66338 0.12954 0.0
C508 C 0.38955 0.63511 0.21054 0.0
O509 O 0.39908 0.6696 0.15281 0.0
O510 O 0.42062 0.689 0.1866 0.0
C511 C 0.41146 0.74278 0.19671 0.0
N512 N 0.40248 0.72787 0.2153 0.0
C513 C 0.39371 0.76412 0.2408 0.0
C514 C 0.40288 0.77987 0.22194 0.0
C515 C 0.41173 0.76914 0.19978 0.0
C516 C 0.3938 0.73799 0.23664 0.0
H517 H 0.41838 0.73465 0.17969 0.0
C518 C 0.41884 0.68082 0.16344 0.0
O519 O 0.35078 0.64279 0.13843 0.0
O520 O 0.35046 0.68421 0.14278 0.0
N521 N 0.38402 0.69643 0.24779 0.0
C522 C 0.37495 0.67855 0.2637 0.0
C523 C 0.36577 0.68613 0.28694 0.0
C524 C 0.36611 0.71196 0.29361 0.0
C525 C 0.37506 0.73002 0.2767 0.0
C526 C 0.38428 0.72134 0.25396 0.0
H527 H 0.37494 0.65866 0.25885 0.0
O528 O 0.33512 0.66482 0.18889 0.0
O529 O 0.37028 0.68842 0.19638 0.0
O530 O 0.37634 0.6351 0.19023 0.0
O531 O 0.40012 0.65529 0.22153 0.0
C532 C 0.37519 0.75628 0.28151 0.0
C533 C 0.38433 0.7733 0.26349 0.0
H534 H 0.40314 0.80022 0.22424 0.0
H535 H 0.41883 0.78117 0.18514 0.0
H536 H 0.35867 0.67209 0.29979 0.0
H537 H 0.35928 0.7177 0.31171 0.0
H538 H 0.36808 0.76356 0.2989 0.0
H539 H 0.38405 0.79343 0.26726 0.0
Mn540 Mn 0.67595 0.8629 0.16689 0.0
Mn541 Mn 0.63979 0.83606 0.21129 0.0
C542 C 0.6934 0.84768 0.2031 0.0
C543 C 0.69807 0.86207 0.12966 0.0
C544 C 0.6496 0.89259 0.20698 0.0
O545 O 0.6429 0.85429 0.14737 0.0
O546 O 0.62102 0.83706 0.17885 0.0
C547 C 0.63151 0.78422 0.18781 0.0
N548 N 0.63885 0.8001 0.20809 0.0
C549 C 0.64308 0.76514 0.23466 0.0
C550 C 0.6355 0.74838 0.21408 0.0
C551 C 0.6299 0.75797 0.19049 0.0
C552 C 0.64492 0.79108 0.23066 0.0
H553 H 0.62676 0.79152 0.1698 0.0
C554 C 0.62308 0.84368 0.15604 0.0
O555 O 0.68998 0.88255 0.13861 0.0
O556 O 0.69274 0.84171 0.14197 0.0
N557 N 0.65504 0.83322 0.24389 0.0
C558 C 0.66308 0.85192 0.26149 0.0
C559 C 0.66977 0.84553 0.28604 0.0
C560 C 0.66746 0.82007 0.29242 0.0
C561 C 0.65907 0.80116 0.274 0.0
C562 C 0.65317 0.80864 0.24973 0.0
H563 H 0.66417 0.87157 0.25689 0.0
O564 O 0.70558 0.86479 0.19034 0.0
O565 O 0.67139 0.83962 0.19426 0.0
O566 O 0.66296 0.89178 0.18774 0.0
O567 O 0.6397 0.87285 0.21695 0.0
C568 C 0.65615 0.7752 0.2788 0.0
C569 C 0.6486 0.75717 0.25904 0.0
H570 H 0.63389 0.72812 0.21619 0.0
H571 H 0.62404 0.74517 0.17451 0.0
H572 H 0.67626 0.86022 0.30015 0.0
H573 H 0.67227 0.81525 0.3115 0.0
H574 H 0.66009 0.76884 0.29753 0.0
H575 H 0.64699 0.73724 0.26284 0.0
H576 H 0.21733 0.18289 0.20859 0.0
H577 H 0.24761 0.2157 0.22821 0.0
H578 H 0.21032 0.27305 0.19241 0.0
H579 H 0.17933 0.24017 0.17348 0.0
H580 H 0.27682 0.25839 0.19642 0.0
H581 H 0.21731 0.29774 0.26651 0.0
H582 H 0.21929 0.26496 0.27104 0.0
H583 H 0.20497 0.27468 0.24235 0.0
C584 C 0.21518 0.20255 0.20556 0.0
C585 C 0.19547 0.20917 0.19046 0.0
C586 C 0.23268 0.22121 0.2164 0.0
C587 C 0.23106 0.24675 0.21186 0.0
C588 C 0.21172 0.25342 0.19628 0.0
H589 H 0.31518 0.35734 0.31299 0.0
H590 H 0.28735 0.34126 0.27788 0.0
C591 C 0.19404 0.23472 0.1856 0.0
C592 C 0.24981 0.26621 0.22353 0.0
H593 H 0.26084 0.30466 0.27624 0.0
C594 C 0.27341 0.26893 0.21371 0.0
C595 C 0.24509 0.28065 0.24542 0.0
C596 C 0.22013 0.27947 0.25667 0.0
C597 C 0.29272 0.28495 0.22594 0.0
C598 C 0.28863 0.29724 0.24952 0.0
C599 C 0.26455 0.29536 0.25838 0.0
C600 C 0.3087 0.31076 0.26639 0.0
C601 C 0.31689 0.28875 0.21298 0.0
C602 C 0.33115 0.30049 0.27081 0.0
C603 C 0.34791 0.31098 0.28994 0.0
C604 C 0.34161 0.33055 0.30613 0.0
C605 C 0.31995 0.34162 0.30112 0.0
C606 C 0.30401 0.33229 0.28108 0.0
H607 H 0.31382 0.2883 0.1921 0.0
H608 H 0.32753 0.30702 0.21904 0.0
H609 H 0.32795 0.27302 0.21729 0.0
H610 H 0.33526 0.28353 0.26059 0.0
H611 H 0.36499 0.30277 0.29311 0.0
H612 H 0.80641 0.32573 0.21318 0.0
H613 H 0.7723 0.29995 0.23015 0.0
H614 H 0.78878 0.2364 0.18246 0.0
H615 H 0.82563 0.26171 0.1685 0.0
H616 H 0.73311 0.27927 0.21538 0.0
H617 H 0.78431 0.1988 0.24242 0.0
H618 H 0.79948 0.22592 0.22831 0.0
H619 H 0.78094 0.20219 0.20898 0.0
C620 C 0.80347 0.30589 0.20731 0.0
C621 C 0.81977 0.2951 0.19129 0.0
C622 C 0.78344 0.29122 0.21643 0.0
C623 C 0.77818 0.26565 0.20848 0.0
C624 C 0.79306 0.25553 0.19018 0.0
H625 H 0.6466 0.20611 0.291 0.0
H626 H 0.67032 0.2198 0.25445 0.0
C627 C 0.81398 0.27005 0.18197 0.0
C628 C 0.75743 0.25028 0.22018 0.0
H629 H 0.74371 0.19811 0.25452 0.0
C630 C 0.7356 0.26158 0.22409 0.0
C631 C 0.75999 0.22661 0.23079 0.0
C632 C 0.78247 0.21272 0.22759 0.0
C633 C 0.71791 0.25177 0.24068 0.0
C634 C 0.72121 0.22889 0.25243 0.0
C635 C 0.74151 0.21602 0.24611 0.0
C636 C 0.70597 0.21946 0.2736 0.0
C637 C 0.69693 0.26709 0.24664 0.0
C638 C 0.7179 0.21327 0.29605 0.0
C639 C 0.7044 0.20445 0.31629 0.0
C640 C 0.67866 0.20289 0.31521 0.0
C641 C 0.66651 0.20829 0.29263 0.0
C642 C 0.68007 0.21629 0.27185 0.0
H643 H 0.70084 0.28708 0.24146 0.0
H644 H 0.68015 0.25887 0.23569 0.0
H645 H 0.69307 0.26695 0.26703 0.0
H646 H 0.7378 0.21522 0.29801 0.0
H647 H 0.71419 0.19872 0.33283 0.0
H648 H 0.35216 0.73356 0.20093 0.0
H649 H 0.32974 0.76352 0.2247 0.0
H650 H 0.28918 0.70156 0.26029 0.0
H651 H 0.31269 0.67153 0.23728 0.0
H652 H 0.28141 0.76811 0.22309 0.0
H653 H 0.31141 0.74809 0.32061 0.0
H654 H 0.32465 0.73507 0.29292 0.0
H655 H 0.29578 0.72091 0.30349 0.0
C656 C 0.339 0.72642 0.21444 0.0
C657 C 0.33482 0.70041 0.21816 0.0
C658 C 0.32595 0.74351 0.22772 0.0
C659 C 0.30804 0.73486 0.2446 0.0
C660 C 0.30336 0.70873 0.24787 0.0
H661 H 0.19033 0.81365 0.30117 0.0
H662 H 0.2172 0.78947 0.27596 0.0
C663 C 0.31666 0.6916 0.23469 0.0
C664 C 0.29384 0.75329 0.25799 0.0
H665 H 0.28002 0.7753 0.31659 0.0
C666 C 0.28102 0.76962 0.24358 0.0
C667 C 0.29357 0.75554 0.2847 0.0
C668 C 0.30725 0.7391 0.30141 0.0
C669 C 0.26751 0.78768 0.25515 0.0
C670 C 0.26673 0.78935 0.28184 0.0
C671 C 0.28024 0.77368 0.29619 0.0
C672 C 0.25089 0.80598 0.2954 0.0
C673 C 0.2545 0.80498 0.2387 0.0
C674 C 0.26083 0.82311 0.31494 0.0
C675 C 0.24539 0.83666 0.32963 0.0
C676 C 0.21984 0.83272 0.32531 0.0
C677 C 0.21001 0.81644 0.30516 0.0
C678 C 0.22537 0.80296 0.29049 0.0
H679 H 0.26341 0.80723 0.22024 0.0
H680 H 0.23522 0.79668 0.23476 0.0
H681 H 0.2542 0.82396 0.24815 0.0
H682 H 0.28048 0.82562 0.31912 0.0
H683 H 0.25329 0.84948 0.34488 0.0
H684 H 0.79949 0.68393 0.3126 0.0
H685 H 0.77755 0.71518 0.29126 0.0
H686 H 0.82084 0.77518 0.33509 0.0
H687 H 0.84401 0.74371 0.3552 0.0
H688 H 0.74944 0.74603 0.31245 0.0
H689 H 0.82423 0.80267 0.26603 0.0
H690 H 0.83056 0.77793 0.28664 0.0
H691 H 0.82577 0.80853 0.29968 0.0
C692 C 0.80486 0.70384 0.31697 0.0
C693 C 0.82412 0.71157 0.33455 0.0
C694 C 0.79215 0.7217 0.30505 0.0
C695 C 0.79789 0.74766 0.31111 0.0
C696 C 0.81661 0.75538 0.32945 0.0
H697 H 0.72444 0.86888 0.2413 0.0
H698 H 0.74891 0.84675 0.27133 0.0
C699 C 0.82968 0.73743 0.34105 0.0
C700 C 0.78264 0.766 0.29954 0.0
H701 H 0.78387 0.81664 0.26179 0.0
C702 C 0.75706 0.76142 0.30132 0.0
C703 C 0.79251 0.78686 0.28593 0.0
C704 C 0.81978 0.79414 0.28434 0.0
C705 C 0.74108 0.77615 0.28894 0.0
C706 C 0.75074 0.79565 0.27364 0.0
C707 C 0.77637 0.80132 0.27305 0.0
C708 C 0.73462 0.80924 0.25696 0.0
C709 C 0.71398 0.77098 0.29282 0.0
C710 C 0.71852 0.79558 0.23887 0.0
C711 C 0.70445 0.80816 0.22199 0.0
C712 C 0.70622 0.83465 0.2228 0.0
C713 C 0.72245 0.8484 0.24068 0.0
C714 C 0.73643 0.83579 0.25775 0.0
H715 H 0.71015 0.76086 0.31044 0.0
H716 H 0.7056 0.78902 0.29396 0.0
H717 H 0.70524 0.75899 0.27669 0.0
H718 H 0.71741 0.77515 0.23718 0.0
H719 H 0.69283 0.79718 0.20769 0.0
H720 H 0.33712 0.75991 0.68013 0.0
H721 H 0.30418 0.73067 0.69686 0.0
H722 H 0.26789 0.79434 0.72368 0.0
H723 H 0.30059 0.82328 0.70724 0.0
H724 H 0.29222 0.73126 0.74893 0.0
H725 H 0.21157 0.74592 0.68799 0.0
H726 H 0.2429 0.75325 0.67856 0.0
H727 H 0.22894 0.77501 0.69906 0.0
C728 C 0.32193 0.76747 0.68943 0.0
C729 C 0.32151 0.79368 0.69304 0.0
C730 C 0.30316 0.75087 0.69883 0.0
C731 C 0.28341 0.76038 0.71109 0.0
C732 C 0.28266 0.7866 0.7138 0.0
H733 H 0.15947 0.72763 0.80128 0.0
H734 H 0.1889 0.74134 0.76944 0.0
C735 C 0.30148 0.80309 0.70475 0.0
C736 C 0.26489 0.74346 0.7237 0.0
H737 H 0.20305 0.72975 0.72869 0.0
C738 C 0.27271 0.73088 0.74465 0.0
C739 C 0.23951 0.74247 0.7175 0.0
C740 C 0.23019 0.75468 0.69438 0.0
C741 C 0.25592 0.71968 0.76136 0.0
C742 C 0.23022 0.71953 0.75588 0.0
C743 C 0.22253 0.73027 0.73347 0.0
C744 C 0.21114 0.71009 0.77378 0.0
C745 C 0.26638 0.70967 0.78526 0.0
C746 C 0.21276 0.68747 0.78619 0.0
C747 C 0.19742 0.68123 0.80601 0.0
C748 C 0.17891 0.69641 0.8125 0.0
C749 C 0.17477 0.71681 0.79773 0.0
C750 C 0.19128 0.72418 0.7791 0.0
H751 H 0.28526 0.71868 0.79019 0.0
H752 H 0.25483 0.71279 0.80163 0.0
H753 H 0.26771 0.68911 0.78233 0.0
H754 H 0.22638 0.67496 0.7812 0.0
H755 H 0.20002 0.66449 0.81634 0.0
H756 H 0.71763 0.68475 0.70972 0.0
H757 H 0.7486 0.71686 0.72933 0.0
H758 H 0.7114 0.77546 0.69566 0.0
H759 H 0.67971 0.74326 0.67678 0.0
H760 H 0.77778 0.7595 0.69811 0.0
H761 H 0.71979 0.79962 0.76896 0.0
H762 H 0.72165 0.76699 0.77432 0.0
H763 H 0.70693 0.77605 0.74555 0.0
C764 C 0.71566 0.70453 0.70718 0.0
C765 C 0.69577 0.71168 0.69271 0.0
C766 C 0.73355 0.72279 0.718 0.0
C767 C 0.73214 0.74849 0.71408 0.0
C768 C 0.71263 0.7557 0.69907 0.0
H769 H 0.81865 0.8575 0.81473 0.0
H770 H 0.7904 0.84186 0.77982 0.0
C771 C 0.69456 0.73739 0.68842 0.0
C772 C 0.7513 0.76754 0.72573 0.0
H773 H 0.76363 0.80526 0.77878 0.0
C774 C 0.77477 0.76996 0.71557 0.0
C775 C 0.74711 0.78184 0.74788 0.0
C776 C 0.72234 0.78108 0.75952 0.0
C777 C 0.79443 0.7856 0.72765 0.0
C778 C 0.79084 0.79779 0.75142 0.0
C779 C 0.76693 0.79612 0.76071 0.0
C780 C 0.81125 0.81109 0.76801 0.0
C781 C 0.81844 0.78912 0.71437 0.0
C782 C 0.83362 0.80055 0.7721 0.0
C783 C 0.85063 0.81077 0.79114 0.0
C784 C 0.84466 0.83034 0.80751 0.0
C785 C 0.82316 0.84177 0.80271 0.0
C786 C 0.80697 0.83269 0.78279 0.0
H787 H 0.81512 0.78874 0.69353 0.0
H788 H 0.82935 0.80727 0.72035 0.0
H789 H 0.82935 0.77322 0.71849 0.0
H790 H 0.83744 0.78356 0.76174 0.0
H791 H 0.8676 0.80233 0.7941 0.0
H792 H 0.75063 0.34603 0.84902 0.0
H793 H 0.77619 0.3198 0.82375 0.0
H794 H 0.71145 0.28715 0.78065 0.0
H795 H 0.68615 0.31355 0.80552 0.0
H796 H 0.77166 0.26781 0.82063 0.0
H797 H 0.75944 0.30479 0.72536 0.0
H798 H 0.75161 0.32156 0.75384 0.0
H799 H 0.73089 0.29583 0.74003 0.0
C800 C 0.74205 0.33337 0.83398 0.0
C801 C 0.7165 0.33113 0.82953 0.0
C802 C 0.75656 0.31848 0.81958 0.0
C803 C 0.74573 0.30173 0.80016 0.0
C804 C 0.72027 0.30027 0.79519 0.0
H805 H 0.80803 0.16803 0.73826 0.0
H806 H 0.78327 0.19665 0.76156 0.0
C807 C 0.70581 0.31504 0.80961 0.0
C808 C 0.76066 0.28441 0.78634 0.0
H809 H 0.77693 0.26569 0.72735 0.0
C810 C 0.77277 0.26729 0.80026 0.0
C811 C 0.76236 0.28403 0.75974 0.0
C812 C 0.75058 0.30269 0.74386 0.0
C813 C 0.78607 0.24934 0.78838 0.0
C814 C 0.78757 0.24864 0.76172 0.0
C815 C 0.77573 0.26609 0.74778 0.0
C816 C 0.8023 0.23092 0.74794 0.0
C817 C 0.79853 0.23158 0.80469 0.0
C818 C 0.82062 0.24056 0.73195 0.0
C819 C 0.8343 0.22427 0.7184 0.0
C820 C 0.83043 0.19807 0.72105 0.0
C821 C 0.8118 0.18826 0.73658 0.0
C822 C 0.7978 0.20459 0.74994 0.0
H823 H 0.80233 0.23962 0.82431 0.0
H824 H 0.78634 0.21367 0.80568 0.0
H825 H 0.81602 0.2272 0.79664 0.0
H826 H 0.82431 0.26074 0.72986 0.0
H827 H 0.84777 0.23219 0.70558 0.0
H828 H 0.22565 0.3727 0.7364 0.0
H829 H 0.25039 0.3536 0.76868 0.0
H830 H 0.22627 0.27949 0.73527 0.0
H831 H 0.20169 0.29853 0.70315 0.0
H832 H 0.22069 0.28532 0.78887 0.0
H833 H 0.315 0.31961 0.76078 0.0
H834 H 0.29361 0.3428 0.7652 0.0
H835 H 0.28849 0.31959 0.73951 0.0
C836 C 0.2258 0.35236 0.73602 0.0
C837 C 0.21127 0.33692 0.71794 0.0
C838 C 0.23998 0.34151 0.7543 0.0
C839 C 0.24019 0.31515 0.75429 0.0
C840 C 0.22629 0.29986 0.73564 0.0
H841 H 0.29187 0.19087 0.82185 0.0
H842 H 0.26895 0.2227 0.80289 0.0
C843 C 0.21214 0.31069 0.71747 0.0
C844 C 0.25393 0.30308 0.77419 0.0
H845 H 0.31157 0.29284 0.79498 0.0
C846 C 0.24049 0.28706 0.79024 0.0
C847 C 0.27989 0.30582 0.77638 0.0
C848 C 0.29523 0.32276 0.75952 0.0
C849 C 0.25215 0.27267 0.80755 0.0
C850 C 0.27809 0.27375 0.80831 0.0
C851 C 0.29166 0.29134 0.79374 0.0
C852 C 0.29116 0.25473 0.82151 0.0
C853 C 0.2364 0.25631 0.82463 0.0
C854 C 0.3116 0.26204 0.83794 0.0
C855 C 0.32504 0.24373 0.84835 0.0
C856 C 0.31853 0.21801 0.84192 0.0
C857 C 0.29755 0.21069 0.82644 0.0
C858 C 0.28421 0.22887 0.81601 0.0
H859 H 0.21955 0.26523 0.82944 0.0
H860 H 0.23038 0.23789 0.81458 0.0
H861 H 0.24652 0.25285 0.84246 0.0
H862 H 0.31733 0.28186 0.84241 0.0
H863 H 0.34097 0.24965 0.8607 0.0
H864 H 0.15473 0.94664 0.3413 0.0
H865 H 0.14812 0.9791 0.31114 0.0
H866 H 0.13565 0.92175 0.25083 0.0
H867 H 0.14199 0.88912 0.28092 0.0
H868 H 0.17629 0.98941 0.2691 0.0
H869 H 0.07794 0.96423 0.24012 0.0
H870 H 0.09173 0.95253 0.26816 0.0
H871 H 0.09706 0.9388 0.23752 0.0
C872 C 0.15019 0.94086 0.32171 0.0
C873 C 0.14884 0.91525 0.31356 0.0
C874 C 0.14649 0.95946 0.30445 0.0
C875 C 0.14121 0.95288 0.27872 0.0
C876 C 0.13929 0.92727 0.27063 0.0
H877 H 0.16241 0.07037 0.16658 0.0
H878 H 0.16123 0.02852 0.18482 0.0
C879 C 0.14301 0.90864 0.28787 0.0
C880 C 0.13922 0.973 0.26028 0.0
H881 H 0.09968 0.99703 0.21848 0.0
C882 C 0.15959 0.99098 0.25791 0.0
C883 C 0.11739 0.97507 0.24573 0.0
C884 C 0.09467 0.95679 0.24806 0.0
C885 C 0.15865 0.01116 0.24175 0.0
C886 C 0.13683 0.01327 0.22719 0.0
C887 C 0.11651 0.99513 0.22931 0.0
C888 C 0.13397 0.03587 0.21218 0.0
C889 C 0.18068 0.0307 0.24119 0.0
C890 C 0.11797 0.05319 0.22042 0.0
C891 C 0.11855 0.0769 0.21001 0.0
C892 C 0.13498 0.08373 0.19095 0.0
C893 C 0.14938 0.06554 0.18104 0.0
C894 C 0.14893 0.04176 0.19166 0.0
H895 H 0.19443 0.02863 0.25669 0.0
H896 H 0.18978 0.02863 0.2229 0.0
H897 H 0.17492 0.05009 0.24281 0.0
H898 H 0.10622 0.04906 0.23614 0.0
H899 H 0.10726 0.09057 0.21804 0.0
H900 H 0.91831 0.40096 0.24607 0.0
H901 H 0.91983 0.44166 0.26958 0.0
H902 H 0.86718 0.46616 0.21594 0.0
H903 H 0.86642 0.42578 0.19175 0.0
H904 H 0.89914 0.50477 0.23176 0.0
H905 H 0.86546 0.45484 0.31556 0.0
H906 H 0.8943 0.4453 0.30572 0.0
H907 H 0.86733 0.43886 0.28509 0.0
C908 C 0.90763 0.41534 0.23888 0.0
C909 C 0.89224 0.41019 0.21708 0.0
C910 C 0.90821 0.43845 0.25256 0.0
C911 C 0.8929 0.45664 0.24513 0.0
C912 C 0.87894 0.45231 0.22226 0.0
H913 H 0.84108 0.57533 0.34151 0.0
H914 H 0.84731 0.53487 0.3199 0.0
C915 C 0.87869 0.42931 0.20829 0.0
C916 C 0.89059 0.47957 0.26171 0.0
H917 H 0.87753 0.49893 0.32181 0.0
C918 C 0.89442 0.50347 0.25144 0.0
C919 C 0.88376 0.47793 0.28728 0.0
C920 C 0.8772 0.45285 0.299 0.0
C921 C 0.89201 0.52571 0.26603 0.0
C922 C 0.8865 0.52415 0.29197 0.0
C923 C 0.88225 0.50022 0.30213 0.0
C924 C 0.88418 0.54711 0.3085 0.0
C925 C 0.89461 0.55059 0.25316 0.0
C926 C 0.90331 0.56692 0.31067 0.0
C927 C 0.89965 0.59 0.32277 0.0
C928 C 0.87712 0.59346 0.33372 0.0
C929 C 0.8588 0.57294 0.33367 0.0
C930 C 0.86228 0.54993 0.32108 0.0
H931 H 0.8913 0.54786 0.23235 0.0
H932 H 0.88157 0.56351 0.26058 0.0
H933 H 0.91363 0.55984 0.2566 0.0
H934 H 0.92067 0.56497 0.30191 0.0
H935 H 0.91397 0.60565 0.32238 0.0
H936 H 0.2782 0.13078 0.90077 0.0
H937 H 0.25259 0.12455 0.93751 0.0
H938 H 0.31737 0.13529 0.98695 0.0
H939 H 0.3432 0.14137 0.95026 0.0
H940 H 0.28093 0.09549 1.00076 0.0
H941 H 0.24104 0.18563 0.98486 0.0
H942 H 0.23842 0.16343 0.95815 0.0
H943 H 0.26829 0.17737 0.96953 0.0
C944 C 0.28708 0.13142 0.91941 0.0
C945 C 0.31277 0.13676 0.92255 0.0
C946 C 0.27237 0.12801 0.94042 0.0
C947 C 0.28301 0.12994 0.96503 0.0
C948 C 0.30874 0.13386 0.96816 0.0
H949 H 0.22965 0.1339 0.11826 0.0
H950 H 0.25407 0.12942 0.08075 0.0
C951 C 0.32349 0.13731 0.94714 0.0
C952 C 0.26727 0.12925 0.98749 0.0
H953 H 0.22477 0.1612 0.01771 0.0
C954 C 0.26864 0.10983 1.00449 0.0
C955 C 0.25125 0.14801 0.99239 0.0
C956 C 0.24972 0.16994 0.97544 0.0
C957 C 0.25413 0.10845 0.02602 0.0
C958 C 0.2382 0.1273 0.03098 0.0
C959 C 0.23684 0.14666 1.0139 0.0
C960 C 0.22312 0.1278 0.05396 0.0
C961 C 0.25568 0.08653 0.04295 0.0
C962 C 0.19754 0.12864 0.05156 0.0
C963 C 0.18354 0.13143 0.07301 0.0
C964 C 0.19481 0.13355 0.09738 0.0
C965 C 0.22032 0.1321 0.09981 0.0
C966 C 0.23433 0.12939 0.07833 0.0
H967 H 0.26266 0.07019 0.03279 0.0
H968 H 0.26863 0.0925 0.05918 0.0
H969 H 0.23745 0.08025 0.05049 0.0
H970 H 0.18844 0.12757 0.03299 0.0
H971 H 0.16396 0.13256 0.07042 0.0
H972 H 0.79584 0.37297 0.13237 0.0
H973 H 0.77024 0.37758 0.09445 0.0
H974 H 0.83436 0.37939 0.04901 0.0
H975 H 0.86005 0.37415 0.0868 0.0
H976 H 0.76872 0.41157 0.05616 0.0
H977 H 0.79124 0.31803 0.01863 0.0
H978 H 0.79927 0.32954 0.05065 0.0
H979 H 0.81753 0.34078 0.02498 0.0
C980 C 0.8046 0.37478 0.11438 0.0
C981 C 0.82997 0.37287 0.11258 0.0
C982 C 0.78991 0.37743 0.09269 0.0
C983 C 0.80027 0.37826 0.06878 0.0
C984 C 0.82586 0.37819 0.06717 0.0
H985 H 0.71911 0.39838 0.92565 0.0
H986 H 0.74544 0.40661 0.96414 0.0
C987 C 0.84056 0.37536 0.08883 0.0
C988 C 0.78404 0.37716 0.04552 0.0
H989 H 0.76614 0.3402 0.99249 0.0
C990 C 0.7682 0.39603 0.04215 0.0
C991 C 0.78307 0.35665 0.02746 0.0
C992 C 0.79849 0.33496 0.03063 0.0
C993 C 0.75144 0.39493 0.02123 0.0
C994 C 0.75075 0.37459 1.00304 0.0
C995 C 0.76673 0.35586 1.00637 0.0
C996 C 0.73294 0.37139 0.98095 0.0
C997 C 0.73411 0.41509 0.01922 0.0
C998 C 0.71702 0.34899 0.97759 0.0
C999 C 0.7022 0.34415 0.95559 0.0
C1000 C 0.70284 0.36163 0.93634 0.0
C1001 C 0.71797 0.38462 0.94019 0.0
C1002 C 0.73302 0.38938 0.96223 0.0
H1003 H 0.73283 0.42573 0.03756 0.0
H1004 H 0.74094 0.42873 1.00513 0.0
H1005 H 0.71538 0.40672 1.01279 0.0
H1006 H 0.71656 0.33484 0.99176 0.0
H1007 H 0.69071 0.3263 0.95338 0.0
H1008 H 0.35933 0.87448 0.58693 0.0
H1009 H 0.3346 0.88007 0.54858 0.0
H1010 H 0.26892 0.8748 0.59185 0.0
H1011 H 0.29356 0.87 0.63027 0.0
H1012 H 0.3012 0.84608 0.52737 0.0
H1013 H 0.25577 0.93213 0.54854 0.0
H1014 H 0.2815 0.92378 0.56751 0.0
H1015 H 0.25077 0.90971 0.57267 0.0
C1016 C 0.33969 0.87514 0.58838 0.0
C1017 C 0.32843 0.87181 0.61169 0.0
C1018 C 0.32555 0.87828 0.56641 0.0
C1019 C 0.29986 0.87815 0.56725 0.0
C1020 C 0.28872 0.87566 0.59069 0.0
H1021 H 0.19547 0.82143 0.44889 0.0
H1022 H 0.22138 0.83042 0.48719 0.0
C1023 C 0.30286 0.87273 0.61269 0.0
C1024 C 0.28452 0.87775 0.54339 0.0
H1025 H 0.23681 0.904 0.51484 0.0
C1026 C 0.28736 0.859 0.52456 0.0
C1027 C 0.26658 0.89474 0.53942 0.0
C1028 C 0.26364 0.91638 0.55801 0.0
C1029 C 0.27227 0.85615 0.50245 0.0
C1030 C 0.25331 0.87207 0.49925 0.0
C1031 C 0.25106 0.89152 0.51751 0.0
C1032 C 0.23535 0.86812 0.47735 0.0
C1033 C 0.27683 0.83603 0.4827 0.0
C1034 C 0.23344 0.88688 0.45969 0.0
C1035 C 0.2183 0.8819 0.43774 0.0
C1036 C 0.20485 0.85804 0.43312 0.0
C1037 C 0.20579 0.83989 0.45162 0.0
C1038 C 0.22072 0.84494 0.47353 0.0
H1039 H 0.29597 0.83088 0.4843 0.0
H1040 H 0.26419 0.81874 0.48543 0.0
H1041 H 0.27341 0.84237 0.46329 0.0
H1042 H 0.24442 0.90499 0.46238 0.0
H1043 H 0.21805 0.89628 0.42389 0.0
H1044 H 0.66086 0.63694 0.57209 0.0
H1045 H 0.68446 0.63142 0.53409 0.0
H1046 H 0.75075 0.63146 0.58052 0.0
H1047 H 0.72721 0.63644 0.61856 0.0
H1048 H 0.72114 0.6638 0.51778 0.0
H1049 H 0.75692 0.57177 0.53258 0.0
H1050 H 0.73243 0.58268 0.5508 0.0
H1051 H 0.764 0.59395 0.55891 0.0
C1052 C 0.68039 0.63532 0.57424 0.0
C1053 C 0.69211 0.63704 0.59841 0.0
C1054 C 0.69389 0.63222 0.55247 0.0
C1055 C 0.71939 0.63068 0.55435 0.0
C1056 C 0.73104 0.63196 0.5785 0.0
H1057 H 0.84008 0.64163 0.45264 0.0
H1058 H 0.81308 0.63647 0.48847 0.0
C1059 C 0.71755 0.63496 0.60028 0.0
C1060 C 0.73402 0.62966 0.53108 0.0
H1061 H 0.77607 0.59696 0.50083 0.0
C1062 C 0.73291 0.649 0.51394 0.0
C1063 C 0.7495 0.61041 0.52603 0.0
C1064 C 0.75064 0.58839 0.54292 0.0
C1065 C 0.74731 0.65005 0.49239 0.0
C1066 C 0.76305 0.63104 0.48757 0.0
C1067 C 0.764 0.61152 0.50452 0.0
C1068 C 0.77933 0.63174 0.46553 0.0
C1069 C 0.74616 0.672 0.4754 0.0
C1070 C 0.76939 0.63 0.44062 0.0
C1071 C 0.7848 0.63287 0.42005 0.0
C1072 C 0.81047 0.63752 0.42399 0.0
C1073 C 0.8204 0.63814 0.44891 0.0
C1074 C 0.80499 0.63519 0.46944 0.0
H1075 H 0.73731 0.68771 0.48459 0.0
H1076 H 0.76488 0.6794 0.46991 0.0
H1077 H 0.73523 0.66552 0.45788 0.0
H1078 H 0.74966 0.62694 0.43712 0.0
H1079 H 0.77653 0.63224 0.40113 0.0
H1080 H 0.92921 0.30997 0.14254 0.0
H1081 H 0.96297 0.28383 0.13491 0.0
H1082 H 0.97046 0.27292 0.21488 0.0
H1083 H 0.93704 0.29873 0.22275 0.0
H1084 H 0.01361 0.28834 0.15621 0.0
H1085 H 0.9588 0.20024 0.18191 0.0
H1086 H 0.94492 0.22841 0.17409 0.0
H1087 H 0.95874 0.22589 0.20505 0.0
C1088 C 0.93819 0.30222 0.15854 0.0
C1089 C 0.93017 0.3064 0.18326 0.0
C1090 C 0.95746 0.28724 0.15412 0.0
C1091 C 0.9689 0.27603 0.17428 0.0
C1092 C 0.96158 0.28096 0.19898 0.0
H1093 H 0.08124 0.1851 0.21389 0.0
H1094 H 0.04585 0.20895 0.20921 0.0
C1095 C 0.94248 0.2959 0.20343 0.0
C1096 C 0.98827 0.25882 0.16988 0.0
H1097 H 1.00224 0.19892 0.18031 0.0
C1098 C 1.01107 0.26867 0.16105 0.0
C1099 C 0.98486 0.23313 0.17615 0.0
C1100 C 0.96044 0.22117 0.18461 0.0
C1101 C 0.03098 0.2539 0.15971 0.0
C1102 C 0.02783 0.22847 0.16698 0.0
C1103 C 1.0047 0.21839 0.1748 0.0
C1104 C 0.04876 0.21273 0.16887 0.0
C1105 C 0.05556 0.26599 0.15181 0.0
C1106 C 0.06192 0.20625 0.14759 0.0
C1107 C 0.08234 0.19244 0.15018 0.0
C1108 C 0.08995 0.18483 0.17411 0.0
C1109 C 0.07609 0.19064 0.19515 0.0
C1110 C 0.05577 0.20433 0.19254 0.0
H1111 H 0.05611 0.28689 0.15144 0.0
H1112 H 0.07057 0.26125 0.16483 0.0
H1113 H 0.0592 0.25863 0.13252 0.0
H1114 H 0.05657 0.21209 0.12904 0.0
H1115 H 0.09252 0.18835 0.13355 0.0
H1116 H 0.90745 0.71995 0.39239 0.0
H1117 H 0.94238 0.7522 0.40054 0.0
H1118 H 0.97806 0.7228 0.33574 0.0
H1119 H 0.94245 0.69164 0.32665 0.0
H1120 H 0.98733 0.75285 0.41248 0.0
H1121 H 0.98419 0.79445 0.31917 0.0
H1122 H 0.96022 0.77135 0.32874 0.0
H1123 H 0.98763 0.7615 0.31489 0.0
C1124 C 0.92286 0.72028 0.38001 0.0
C1125 C 0.92225 0.70335 0.35885 0.0
C1126 C 0.94276 0.73883 0.38459 0.0
C1127 C 0.9626 0.74057 0.36829 0.0
C1128 C 0.96257 0.72267 0.34797 0.0
H1129 H 0.11035 0.78936 0.39837 0.0
H1130 H 0.06766 0.77281 0.39955 0.0
C1131 C 0.94239 0.70458 0.343 0.0
C1132 C 0.98367 0.76052 0.37291 0.0
H1133 H 0.02349 0.80165 0.34252 0.0
C1134 C 0.99492 0.76383 0.39723 0.0
C1135 C 0.9932 0.77579 0.35344 0.0
C1136 C 0.98044 0.7758 0.32772 0.0
C1137 C 0.01638 0.78043 0.40208 0.0
C1138 C 0.02759 0.79325 0.38183 0.0
C1139 C 0.0153 0.79148 0.35801 0.0
C1140 C 0.05333 0.80556 0.38401 0.0
C1141 C 0.02692 0.78374 0.42885 0.0
C1142 C 0.0599 0.82957 0.37453 0.0
C1143 C 0.08478 0.83903 0.37325 0.0
C1144 C 0.10341 0.82452 0.38129 0.0
C1145 C 0.09659 0.80111 0.39188 0.0
C1146 C 0.07199 0.79167 0.39292 0.0
H1147 H 1.01197 0.7826 0.44261 0.0
H1148 H 0.03839 0.76819 0.43265 0.0
H1149 H 0.03837 0.80212 0.43223 0.0
H1150 H 0.04585 0.84059 0.36734 0.0
H1151 H 0.08938 0.85705 0.36486 0.0
H1152 H 0.59148 0.69303 0.63806 0.0
H1153 H 0.55686 0.71887 0.63521 0.0
H1154 H 0.54813 0.71494 0.7156 0.0
H1155 H 0.58241 0.68935 0.71874 0.0
H1156 H 0.50595 0.71034 0.65147 0.0
H1157 H 0.55945 0.79179 0.70332 0.0
H1158 H 0.57376 0.76575 0.68928 0.0
H1159 H 0.55926 0.76258 0.71914 0.0
C1160 C 0.58197 0.69735 0.65509 0.0
C1161 C 0.58998 0.68921 0.67867 0.0
C1162 C 0.56223 0.7122 0.65342 0.0
C1163 C 0.55026 0.71927 0.67528 0.0
C1164 C 0.55742 0.71015 0.69856 0.0
H1165 H 0.43643 0.80453 0.72683 0.0
H1166 H 0.47136 0.7804 0.72018 0.0
C1167 C 0.57701 0.69536 0.70027 0.0
C1168 C 0.53074 0.73674 0.67425 0.0
H1169 H 0.51621 0.79362 0.69845 0.0
C1170 C 0.50824 0.7287 0.66142 0.0
C1171 C 0.53382 0.76073 0.68719 0.0
C1172 C 0.55795 0.7709 0.70033 0.0
C1173 C 0.48832 0.7435 0.66227 0.0
C1174 C 0.49117 0.76715 0.67595 0.0
C1175 C 0.51397 0.7755 0.68803 0.0
C1176 C 0.47033 0.78274 0.67947 0.0
C1177 C 0.46407 0.73318 0.64951 0.0
C1178 C 0.45837 0.79267 0.65883 0.0
C1179 C 0.43825 0.80662 0.66255 0.0
C1180 C 0.42975 0.81099 0.68704 0.0
C1181 C 0.44232 0.8016 0.70768 0.0
C1182 C 0.46236 0.78773 0.70394 0.0
H1183 H 0.46344 0.71267 0.64435 0.0
H1184 H 0.44859 0.73619 0.66198 0.0
H1185 H 0.46128 0.7433 0.63191 0.0
H1186 H 0.46449 0.78953 0.63982 0.0
H1187 H 0.42911 0.81355 0.64619 0.0
H1188 H 0.85752 0.08965 0.70401 0.0
H1189 H 0.85543 0.05215 0.72937 0.0
H1190 H 0.91695 0.08618 0.77633 0.0
H1191 H 0.91876 0.12396 0.75156 0.0
H1192 H 0.88679 0.01795 0.74079 0.0
H1193 H 0.86643 0.0709 0.82873 0.0
H1194 H 0.86607 0.08466 0.79817 0.0
H1195 H 0.89476 0.08299 0.81538 0.0
C1196 C 0.87083 0.08906 0.71952 0.0
C1197 C 0.88818 0.10999 0.72583 0.0
C1198 C 0.86954 0.06762 0.7341 0.0
C1199 C 0.88558 0.0666 0.75524 0.0
C1200 C 0.90384 0.08682 0.76064 0.0
H1201 H 0.9089 0.94773 0.85899 0.0
H1202 H 0.91205 0.98662 0.83545 0.0
C1203 C 0.90501 0.10834 0.74626 0.0
C1204 C 0.88297 0.04459 0.7718 0.0
H1205 H 0.87444 0.02815 0.833 0.0
C1206 C 0.88399 0.02021 0.76092 0.0
C1207 C 0.87914 0.04746 0.79811 0.0
C1208 C 0.87628 0.07287 0.81077 0.0
C1209 C 0.88172 0.99877 0.77564 0.0
C1210 C 0.8783 1.00174 0.80192 0.0
C1211 C 0.87724 0.02601 0.81286 0.0
C1212 C 0.87548 0.97964 0.81814 0.0
C1213 C 0.88321 0.97302 0.76313 0.0
C1214 C 0.85359 0.96334 0.81683 0.0
C1215 C 0.85163 0.94128 0.83043 0.0
C1216 C 0.87161 0.93502 0.8455 0.0
C1217 C 0.89316 0.952 0.84762 0.0
C1218 C 0.89503 0.97418 0.83413 0.0
H1219 H 0.88921 0.9742 0.74332 0.0
H1220 H 0.89621 0.9625 0.77401 0.0
H1221 H 0.86483 0.96199 0.76294 0.0
H1222 H 0.83824 0.96734 0.80473 0.0
H1223 H 0.83479 0.92862 0.82828 0.0
H1224 H 0.19209 0.59796 0.83742 0.0
H1225 H 0.18995 0.55782 0.8128 0.0
H1226 H 0.11246 0.54419 0.82617 0.0
H1227 H 0.11438 0.58442 0.85079 0.0
H1228 H 0.17368 0.50703 0.82477 0.0
H1229 H 0.11653 0.54224 0.74779 0.0
H1230 H 0.13302 0.56304 0.77185 0.0
H1231 H 0.10471 0.54496 0.77898 0.0
C1232 C 0.17465 0.58626 0.83548 0.0
C1233 C 0.15337 0.59446 0.84596 0.0
C1234 C 0.17346 0.56335 0.82134 0.0
C1235 C 0.15096 0.5483 0.81725 0.0
C1236 C 0.12992 0.55578 0.82873 0.0
H1237 H 0.12765 0.39503 0.75289 0.0
H1238 H 0.12746 0.434 0.7787 0.0
C1239 C 0.13111 0.57866 0.84298 0.0
C1240 C 0.14944 0.52522 0.80031 0.0
H1241 H 0.12425 0.49931 0.74396 0.0
C1242 C 0.16285 0.5053 0.80713 0.0
C1243 C 0.13562 0.52323 0.77709 0.0
C1244 C 0.12179 0.54455 0.76828 0.0
C1245 C 0.16245 0.48323 0.79156 0.0
C1246 C 0.14811 0.48096 0.76867 0.0
C1247 C 0.13505 0.50105 0.76162 0.0
C1248 C 0.1465 0.45778 0.7519 0.0
C1249 C 0.17766 0.46262 0.79952 0.0
C1250 C 0.15642 0.45839 0.72778 0.0
C1251 C 0.15655 0.43606 0.71281 0.0
C1252 C 0.1466 0.41274 0.72167 0.0
C1253 C 0.13562 0.41253 0.74541 0.0
C1254 C 0.13559 0.4348 0.76032 0.0
H1255 H 0.19181 0.46955 0.81444 0.0
H1256 H 0.16542 0.44704 0.80719 0.0
H1257 H 0.18698 0.45474 0.78309 0.0
H1258 H 0.16478 0.47602 0.72089 0.0
H1259 H 0.16514 0.43699 0.69467 0.0
H1260 H 0.71074 0.90192 0.10011 0.0
H1261 H 0.73745 0.90318 0.06391 0.0
H1262 H 0.74804 0.82479 0.07242 0.0
H1263 H 0.72098 0.82326 0.10844 0.0
H1264 H 0.78618 0.89478 0.06107 0.0
H1265 H 0.72796 0.82558 0.99797 0.0
H1266 H 0.71671 0.83945 0.02644 0.0
H1267 H 0.73517 0.81344 0.02813 0.0
C1268 C 0.71857 0.88486 0.09417 0.0
C1269 C 0.71355 0.86241 0.10708 0.0
C1270 C 0.73393 0.88565 0.0735 0.0
C1271 C 0.74455 0.86402 0.06519 0.0
C1272 C 0.73967 0.8416 0.07812 0.0
H1273 H 0.84139 0.82124 0.95097 0.0
H1274 H 0.81797 0.82673 0.98882 0.0
C1275 C 0.72425 0.84077 0.09878 0.0
C1276 C 0.76097 0.86501 0.04324 0.0
H1277 H 0.76874 0.83713 0.98516 0.0
C1278 C 0.78229 0.88231 0.04437 0.0
C1279 C 0.7558 0.84891 0.02134 0.0
C1280 C 0.73255 0.83097 0.0182 0.0
C1281 C 0.799 0.88325 0.02463 0.0
C1282 C 0.79414 0.86664 1.0031 0.0
C1283 C 0.77255 0.84977 1.00175 0.0
C1284 C 0.81155 0.86534 0.98215 0.0
C1285 C 0.82211 0.90139 0.02728 0.0
C1286 C 0.81654 0.88557 0.96614 0.0
C1287 C 0.83023 0.88253 0.94438 0.0
C1288 C 0.83884 0.85912 0.93823 0.0
C1289 C 0.83493 0.83949 0.9551 0.0
C1290 C 0.82146 0.84256 0.97674 0.0
H1291 H 0.82543 0.90947 0.04694 0.0
H1292 H 0.83833 0.89183 0.02164 0.0
H1293 H 0.8204 0.91721 1.01454 0.0
H1294 H 0.80881 0.90325 0.96975 0.0
H1295 H 0.83266 0.89788 0.93158 0.0
H1296 H 0.19536 0.71166 0.95554 0.0
H1297 H 0.22071 0.70376 0.99244 0.0
H1298 H 0.21359 0.62419 0.97117 0.0
H1299 H 0.18824 0.63204 0.93365 0.0
H1300 H 0.21347 0.67292 0.03359 0.0
H1301 H 0.28856 0.64402 0.97378 0.0
H1302 H 0.26315 0.65922 0.96104 0.0
H1303 H 0.25885 0.62644 0.96827 0.0
C1304 C 0.19885 0.69238 0.95881 0.0
C1305 C 0.18992 0.6725 0.94148 0.0
C1306 C 0.21337 0.6879 0.97998 0.0
C1307 C 0.21949 0.66349 0.98432 0.0
C1308 C 0.20948 0.64328 0.96792 0.0
H1309 H 0.32656 0.62236 0.09871 0.0
H1310 H 0.29596 0.62073 0.06366 0.0
C1311 C 0.19476 0.64774 0.94665 0.0
C1312 C 0.23728 0.65987 1.00539 0.0
H1313 H 0.29611 0.64618 0.01785 0.0
C1314 C 0.23146 0.66685 0.03018 0.0
C1315 C 0.2608 0.65203 1.00091 0.0
C1316 C 0.26842 0.64515 0.97458 0.0
C1317 C 0.24857 0.66654 0.05052 0.0
C1318 C 0.27234 0.65948 0.04593 0.0
C1319 C 0.27793 0.65171 0.0213 0.0
C1320 C 0.29181 0.66071 0.06637 0.0
C1321 C 0.24104 0.67379 0.07679 0.0
C1322 C 0.30023 0.68386 0.07904 0.0
C1323 C 0.31778 0.68488 0.09901 0.0
C1324 C 0.32735 0.66277 0.10666 0.0
C1325 C 0.31954 0.63974 0.09333 0.0
C1326 C 0.30201 0.63875 0.07332 0.0
H1327 H 0.22071 0.67191 0.07819 0.0
H1328 H 0.24892 0.66191 0.09109 0.0
H1329 H 0.24801 0.69381 0.08149 0.0
H1330 H 0.29301 0.70114 0.07363 0.0
H1331 H 0.32343 0.70293 0.1088 0.0
H1332 H 0.69468 0.21551 0.45824 0.0
H1333 H 0.72048 0.20777 0.49489 0.0
H1334 H 0.71395 0.12827 0.47343 0.0
H1335 H 0.6882 0.13592 0.43621 0.0
H1336 H 0.71391 0.1767 0.53601 0.0
H1337 H 0.78876 0.14874 0.47541 0.0
H1338 H 0.76309 0.16375 0.46299 0.0
H1339 H 0.75918 0.13088 0.46995 0.0
C1340 C 0.69839 0.19627 0.46142 0.0
C1341 C 0.6895 0.17636 0.4441 0.0
C1342 C 0.71318 0.1919 0.48244 0.0
C1343 C 0.7196 0.16755 0.48663 0.0
C1344 C 0.70962 0.14731 0.47027 0.0
H1345 H 0.82642 0.12428 0.59995 0.0
H1346 H 0.79612 0.1236 0.56472 0.0
C1347 C 0.69466 0.15167 0.44917 0.0
C1348 C 0.73759 0.16398 0.50753 0.0
H1349 H 0.7964 0.14997 0.51948 0.0
C1350 C 0.73188 0.17067 0.53242 0.0
C1351 C 0.76108 0.15618 0.50282 0.0
C1352 C 0.7686 0.14964 0.47636 0.0
C1353 C 0.74904 0.17001 0.55267 0.0
C1354 C 0.77276 0.16291 0.54786 0.0
C1355 C 0.77826 0.15552 0.5231 0.0
C1356 C 0.79222 0.16361 0.56826 0.0
C1357 C 0.74159 0.17687 0.57907 0.0
C1358 C 0.80073 0.18647 0.58141 0.0
C1359 C 0.8181 0.18694 0.60149 0.0
C1360 C 0.82742 0.16456 0.60875 0.0
C1361 C 0.81961 0.14186 0.59487 0.0
C1362 C 0.80224 0.14141 0.57476 0.0
H1363 H 0.72127 0.1751 0.58051 0.0
H1364 H 0.74941 0.16469 0.59312 0.0
H1365 H 0.74869 0.19681 0.58408 0.0
H1366 H 0.79367 0.20393 0.57636 0.0
H1367 H 0.82376 0.20476 0.6117 0.0
H1368 H 0.21765 0.32496 0.60268 0.0
H1369 H 0.24497 0.32839 0.56697 0.0
H1370 H 0.23276 0.4067 0.5611 0.0
H1371 H 0.20564 0.40351 0.597 0.0
H1372 H 0.23554 0.34148 0.51753 0.0
H1373 H 0.30793 0.41023 0.56471 0.0
H1374 H 0.28419 0.39306 0.58201 0.0
H1375 H 0.27739 0.41986 0.56451 0.0
C1376 C 0.22068 0.34289 0.59374 0.0
C1377 C 0.20949 0.36397 0.60278 0.0
C1378 C 0.23636 0.34485 0.57335 0.0
C1379 C 0.24132 0.36794 0.56163 0.0
C1380 C 0.22969 0.38885 0.57019 0.0
H1381 H 0.33019 0.40025 0.42816 0.0
H1382 H 0.30535 0.4061 0.46559 0.0
C1383 C 0.214 0.38691 0.59059 0.0
C1384 C 0.25832 0.36983 0.54019 0.0
H1385 H 0.31336 0.39872 0.52173 0.0
C1386 C 0.25251 0.35405 0.51847 0.0
C1387 C 0.28044 0.38637 0.5413 0.0
C1388 C 0.28806 0.40322 0.56444 0.0
C1389 C 0.26821 0.35416 0.49798 0.0
C1390 C 0.29059 0.37019 0.49934 0.0
C1391 C 0.2962 0.38647 0.52075 0.0
C1392 C 0.30887 0.36884 0.47926 0.0
C1393 C 0.26076 0.33698 0.475 0.0
C1394 C 0.32006 0.34656 0.47533 0.0
C1395 C 0.33416 0.34324 0.45418 0.0
C1396 C 0.3376 0.36222 0.43654 0.0
C1397 C 0.32807 0.3854 0.44154 0.0
C1398 C 0.31374 0.38868 0.4628 0.0
H1399 H 0.2407 0.33081 0.47415 0.0
H1400 H 0.26566 0.34652 0.45732 0.0
H1401 H 0.27068 0.31985 0.47582 0.0
H1402 H 0.31689 0.33118 0.488 0.0
H1403 H 0.34135 0.32521 0.45092 0.0
H1404 H 0.1164 0.74506 0.92053 0.0
H1405 H 0.07757 0.76354 0.92594 0.0
H1406 H 0.04434 0.71536 0.86379 0.0
H1407 H 0.08243 0.6957 0.85968 0.0
H1408 H 0.05409 0.7905 0.89877 0.0
H1409 H 0.99036 0.705 0.90985 0.0
H1410 H 0.0232 0.70403 0.91038 0.0
H1411 H 1.00565 0.70184 0.88071 0.0
C1412 C 0.10059 0.73809 0.90842 0.0
C1413 C 0.10231 0.71866 0.88997 0.0
C1414 C 0.0784 0.74872 0.91143 0.0
C1415 C 0.05761 0.74055 0.89567 0.0
C1416 C 0.05957 0.72137 0.87697 0.0
H1417 H 0.94245 0.8342 0.8584 0.0
H1418 H 0.98077 0.81494 0.86379 0.0
C1419 C 0.08149 0.71022 0.87448 0.0
C1420 C 0.03449 0.75314 0.89763 0.0
H1421 H 0.97182 0.7415 0.89583 0.0
C1422 C 0.03613 0.77971 0.89855 0.0
C1423 C 1.01089 0.73935 0.89798 0.0
C1424 C 1.00747 0.71101 0.89999 0.0
C1425 C 0.01503 0.79273 0.89889 0.0
C1426 C 0.99141 0.77886 0.89687 0.0
C1427 C 0.98978 0.75232 0.89689 0.0
C1428 C 0.96821 0.7913 0.89416 0.0
C1429 C 0.0185 0.82121 0.90194 0.0
C1430 C 0.94776 0.78383 0.90859 0.0
C1431 C 0.92545 0.79417 0.90479 0.0
C1432 C 0.92327 0.81263 0.88688 0.0
C1433 C 0.94377 0.82042 0.87274 0.0
C1434 C 0.96581 0.80952 0.87599 0.0
H1435 H 0.03583 0.8278 0.91288 0.0
H1436 H 0.01991 0.82931 0.88301 0.0
H1437 H 1.00298 0.82873 0.91175 0.0
H1438 H 0.94894 0.76977 0.92267 0.0
H1439 H 0.9099 0.78773 0.91587 0.0
H1440 H 0.07562 0.34086 0.67261 0.0
H1441 H 0.04002 0.3126 0.65706 0.0
H1442 H 0.08139 0.28721 0.59461 0.0
H1443 H 0.1176 0.31529 0.61074 0.0
H1444 H 1.0105 0.30127 0.61535 0.0
H1445 H 0.06852 0.2232 0.63285 0.0
H1446 H 0.0789 0.25564 0.64189 0.0
H1447 H 0.07848 0.24486 0.60923 0.0
C1448 C 0.07688 0.32996 0.65502 0.0
C1449 C 0.0994 0.33015 0.64297 0.0
C1450 C 0.0565 0.31371 0.64616 0.0
C1451 C 0.05817 0.29719 0.62506 0.0
C1452 C 0.07983 0.29933 0.6113 0.0
H1453 H 0.91982 0.19362 0.61856 0.0
H1454 H 0.95463 0.2178 0.59926 0.0
C1455 C 0.1004 0.3157 0.62025 0.0
C1456 C 0.03833 0.27598 0.62015 0.0
H1457 H 0.02624 0.2125 0.62782 0.0
C1458 C 0.01391 0.28173 0.61742 0.0
C1459 C 0.04282 0.25048 0.62309 0.0
C1460 C 0.06853 0.24303 0.6271 0.0
C1461 C 0.99389 0.26318 0.61958 0.0
C1462 C 0.99841 0.23792 0.62383 0.0
C1463 C 0.0228 0.2318 0.62445 0.0
C1464 C 0.97883 0.21901 0.63261 0.0
C1465 C 0.96823 0.27126 0.6195 0.0
C1466 C 0.98144 0.21003 0.657 0.0
C1467 C 0.96188 0.19596 0.6678 0.0
C1468 C 0.93913 0.19047 0.65452 0.0
C1469 C 0.93712 0.19748 0.62925 0.0
C1470 C 0.95689 0.21163 0.61835 0.0
H1471 H 0.96829 0.29215 0.6198 0.0
H1472 H 0.95784 0.26326 0.60216 0.0
H1473 H 0.95828 0.26411 0.63614 0.0
H1474 H 0.99816 0.21526 0.66838 0.0
H1475 H 0.96411 0.19069 0.68723 0.0
H1476 H 0.58203 0.19555 0.35797 0.0
H1477 H 0.54338 0.21479 0.3599 0.0
H1478 H 0.57201 0.26075 0.42551 0.0
H1479 H 0.61135 0.24284 0.42237 0.0
H1480 H 0.50872 0.21711 0.38984 0.0
H1481 H 0.55198 0.31525 0.38457 0.0
H1482 H 0.56927 0.28843 0.38086 0.0
H1483 H 0.563 0.30071 0.41201 0.0
C1484 C 0.57998 0.20966 0.3729 0.0
C1485 C 0.59972 0.21784 0.38992 0.0
C1486 C 0.55788 0.22071 0.37398 0.0
C1487 C 0.55485 0.23986 0.39242 0.0
C1488 C 0.5741 0.24685 0.41044 0.0
H1489 H 0.40618 0.28619 0.41262 0.0
H1490 H 0.44464 0.26682 0.41804 0.0
C1491 C 0.59649 0.23636 0.40886 0.0
C1492 C 0.53171 0.25257 0.39242 0.0
H1493 H 0.50965 0.31038 0.3938 0.0
C1494 C 0.50897 0.23752 0.39057 0.0
C1495 C 0.53183 0.27925 0.39292 0.0
C1496 C 0.55532 0.29682 0.39241 0.0
C1497 C 0.48654 0.24825 0.38898 0.0
C1498 C 0.48665 0.27493 0.39069 0.0
C1499 C 0.50938 0.28996 0.39278 0.0
C1500 C 0.46361 0.28776 0.38894 0.0
C1501 C 0.46315 0.23073 0.38435 0.0
C1502 C 0.46176 0.30719 0.37198 0.0
C1503 C 0.44017 0.31902 0.36968 0.0
C1504 C 0.4197 0.31136 0.38392 0.0
C1505 C 0.4216 0.29229 0.40122 0.0
C1506 C 0.44351 0.28098 0.40408 0.0
H1507 H 0.46685 0.2123 0.37543 0.0
H1508 H 0.45462 0.22683 0.40271 0.0
H1509 H 0.44976 0.23916 0.37192 0.0
H1510 H 0.47691 0.31293 0.36007 0.0
H1511 H 0.43919 0.33353 0.35604 0.0
H1512 H 0.60726 0.59331 0.72045 0.0
H1513 H 0.6068 0.55161 0.73802 0.0
H1514 H 0.66037 0.53168 0.68474 0.0
H1515 H 0.66096 0.57373 0.66705 0.0
H1516 H 0.6 0.49978 0.72025 0.0
H1517 H 0.69575 0.53149 0.7554 0.0
H1518 H 0.67578 0.55294 0.74229 0.0
H1519 H 0.69002 0.53152 0.72176 0.0
C1520 C 0.61831 0.57974 0.71187 0.0
C1521 C 0.63421 0.58679 0.69243 0.0
C1522 C 0.61808 0.55591 0.72199 0.0
C1523 C 0.6339 0.53872 0.71305 0.0
C1524 C 0.64823 0.54482 0.69213 0.0
H1525 H 0.64324 0.39225 0.7825 0.0
H1526 H 0.63681 0.42451 0.75201 0.0
C1527 C 0.64834 0.56872 0.68182 0.0
C1528 C 0.63733 0.51607 0.72778 0.0
H1529 H 0.67808 0.49234 0.7684 0.0
C1530 C 0.61715 0.49791 0.73052 0.0
C1531 C 0.65958 0.51399 0.7416 0.0
C1532 C 0.68152 0.53356 0.74038 0.0
C1533 C 0.61857 0.4779 0.74691 0.0
C1534 C 0.64081 0.47591 0.76078 0.0
C1535 C 0.66107 0.49385 0.75772 0.0
C1536 C 0.6433 0.45603 0.77939 0.0
C1537 C 0.59597 0.45966 0.75002 0.0
C1538 C 0.64925 0.46297 0.80493 0.0
C1539 C 0.65303 0.44458 0.82239 0.0
C1540 C 0.65107 0.41884 0.81466 0.0
C1541 C 0.64473 0.41189 0.78914 0.0
C1542 C 0.64096 0.43031 0.77167 0.0
H1543 H 0.57903 0.46703 0.74251 0.0
H1544 H 0.59808 0.44158 0.73951 0.0
H1545 H 0.5936 0.45559 0.77025 0.0
H1546 H 0.65122 0.4827 0.81132 0.0
H1547 H 0.65795 0.45061 0.84185 0.0
H1548 H 0.3952 0.11795 0.79073 0.0
H1549 H 0.40162 0.0772 0.77101 0.0
H1550 H 0.36124 0.03927 0.82953 0.0
H1551 H 0.35427 0.08047 0.84937 0.0
H1552 H 0.4232 0.03592 0.78665 0.0
H1553 H 0.32328 0.01167 0.76434 0.0
H1554 H 0.33607 0.04295 0.77541 0.0
H1555 H 0.33146 0.01815 0.7973 0.0
C1556 C 0.38783 0.10098 0.79965 0.0
C1557 C 0.37394 0.10249 0.82151 0.0
C1558 C 0.3916 0.07765 0.78832 0.0
C1559 C 0.38151 0.05516 0.79845 0.0
C1560 C 0.36878 0.05643 0.8211 0.0
H1561 H 0.40886 0.90392 0.74983 0.0
H1562 H 0.41058 0.94581 0.77052 0.0
C1563 C 0.36504 0.07995 0.83258 0.0
C1564 C 0.38359 0.03074 0.78437 0.0
H1565 H 0.34971 0.98138 0.75201 0.0
C1566 C 0.40713 0.02393 0.77916 0.0
C1567 C 0.36264 0.01542 0.77407 0.0
C1568 C 0.33691 0.02243 0.77781 0.0
C1569 C 0.41026 1.00213 0.76418 0.0
C1570 C 0.3893 0.98648 0.75442 0.0
C1571 C 0.36578 0.9934 0.75945 0.0
C1572 C 0.39121 0.96218 0.74006 0.0
C1573 C 0.43601 0.99632 0.75856 0.0
C1574 C 0.38005 0.9574 0.71576 0.0
C1575 C 0.37903 0.93327 0.70376 0.0
C1576 C 0.38887 0.91347 0.71606 0.0
C1577 C 0.40116 0.91876 0.73978 0.0
C1578 C 0.40224 0.94278 0.75165 0.0
H1579 H 0.44934 0.01358 0.76058 0.0
H1580 H 0.44188 0.98263 0.77218 0.0
H1581 H 0.43686 0.98782 0.73913 0.0
H1582 H 0.37134 0.97209 0.70649 0.0
H1583 H 0.36916 0.92975 0.68567 0.0
H1584 H 0.42447 0.22267 0.81679 0.0
H1585 H 0.46162 0.25099 0.82753 0.0
H1586 H 0.45963 0.22827 0.90468 0.0
H1587 H 0.42216 0.19981 0.89427 0.0
H1588 H 0.46653 0.29224 0.8691 0.0
H1589 H 0.5308 0.21818 0.87841 0.0
H1590 H 0.50192 0.21241 0.86052 0.0
H1591 H 0.50221 0.21399 0.89444 0.0
C1592 C 0.43192 0.22345 0.83605 0.0
C1593 C 0.42023 0.20883 0.85466 0.0
C1594 C 0.45312 0.2398 0.84215 0.0
C1595 C 0.46328 0.24172 0.86686 0.0
C1596 C 0.45204 0.22695 0.88545 0.0
H1597 H 0.60571 0.31521 0.91883 0.0
H1598 H 0.56335 0.29548 0.91942 0.0
C1599 C 0.43066 0.21066 0.87943 0.0
C1600 C 0.48573 0.25921 0.87298 0.0
H1601 H 0.54743 0.2604 0.88506 0.0
C1602 C 0.48425 0.28537 0.8728 0.0
C1603 C 0.50869 0.25012 0.87782 0.0
C1604 C 0.51125 0.22216 0.87772 0.0
C1605 C 0.50525 0.30278 0.87732 0.0
C1606 C 0.5284 0.29368 0.88148 0.0
C1607 C 0.5297 0.26745 0.88202 0.0
C1608 C 0.55184 0.31062 0.88415 0.0
C1609 C 0.50234 0.33066 0.87781 0.0
C1610 C 0.55917 0.32683 0.86483 0.0
C1611 C 0.58328 0.33869 0.86485 0.0
C1612 C 0.60048 0.33404 0.8839 0.0
C1613 C 0.59267 0.31926 0.90407 0.0
C1614 C 0.56854 0.30783 0.9043 0.0
H1615 H 0.48348 0.33434 0.88303 0.0
H1616 H 0.5158 0.3415 0.89137 0.0
H1617 H 0.50541 0.33779 0.85865 0.0
H1618 H 0.54689 0.32886 0.84876 0.0
H1619 H 0.58904 0.34951 0.84879 0.0
H1620 H 0.36771 0.58749 0.19586 0.0
H1621 H 0.36512 0.54956 0.22077 0.0
H1622 H 0.41052 0.59024 0.28023 0.0
H1623 H 0.41337 0.6281 0.25565 0.0
H1624 H 0.40449 0.52255 0.24378 0.0
H1625 H 0.34476 0.56384 0.314 0.0
H1626 H 0.34902 0.57614 0.28298 0.0
H1627 H 0.37255 0.58321 0.30743 0.0
C1628 C 0.37745 0.58832 0.21407 0.0
C1629 C 0.39063 0.61102 0.22372 0.0
C1630 C 0.37588 0.56662 0.22831 0.0
C1631 C 0.38727 0.56725 0.25252 0.0
C1632 C 0.40127 0.58947 0.26175 0.0
H1633 H 0.41209 0.44386 0.34981 0.0
H1634 H 0.41585 0.48243 0.32596 0.0
C1635 C 0.40298 0.61109 0.24753 0.0
C1636 C 0.38404 0.54495 0.26851 0.0
H1637 H 0.35889 0.52452 0.3233 0.0
C1638 C 0.39451 0.52294 0.26114 0.0
C1639 C 0.37079 0.54545 0.29103 0.0
C1640 C 0.35843 0.56832 0.29934 0.0
C1641 C 0.39247 0.50156 0.27597 0.0
C1642 C 0.37975 0.50228 0.29883 0.0
C1643 C 0.36886 0.52412 0.30593 0.0
C1644 C 0.37715 0.48028 0.31526 0.0
C1645 C 0.40367 0.4782 0.26694 0.0
C1646 C 0.35399 0.46686 0.31803 0.0
C1647 C 0.35176 0.44482 0.33169 0.0
C1648 C 0.37264 0.43591 0.34304 0.0
C1649 C 0.39563 0.45017 0.34134 0.0
C1650 C 0.39785 0.47212 0.32754 0.0
H1651 H 0.40836 0.47886 0.2467 0.0
H1652 H 0.42081 0.4766 0.2783 0.0
H1653 H 0.39089 0.46096 0.26951 0.0
H1654 H 0.33775 0.47293 0.30884 0.0
H1655 H 0.33379 0.43429 0.33261 0.0
H1656 H 0.69344 0.10511 0.33172 0.0
H1657 H 0.69111 0.0654 0.30646 0.0
H1658 H 0.6195 0.0431 0.33499 0.0
H1659 H 0.62138 0.08318 0.35978 0.0
H1660 H 0.68587 0.01587 0.31649 0.0
H1661 H 0.60466 0.0386 0.25964 0.0
H1662 H 0.62202 0.0615 0.2811 0.0
H1663 H 0.59963 0.03814 0.29295 0.0
C1664 C 0.67732 0.09162 0.33292 0.0
C1665 C 0.65748 0.09742 0.34758 0.0
C1666 C 0.67599 0.06893 0.31838 0.0
C1667 C 0.65484 0.05155 0.31826 0.0
C1668 C 0.63568 0.05656 0.33417 0.0
H1669 H 0.61817 0.90336 0.24427 0.0
H1670 H 0.61903 0.94247 0.27039 0.0
C1671 C 0.6369 0.07936 0.34855 0.0
C1672 C 0.65267 0.02862 0.30094 0.0
H1673 H 0.61729 0.99762 0.25246 0.0
C1674 C 0.67091 0.01195 0.30246 0.0
C1675 C 0.63324 0.02358 0.28243 0.0
C1676 C 0.6139 0.04151 0.2787 0.0
C1677 C 0.67004 0.99024 0.28628 0.0
C1678 C 0.65048 0.9851 0.26809 0.0
C1679 C 0.63222 1.00166 0.26651 0.0
C1680 C 0.64862 0.96237 0.25075 0.0
C1681 C 0.68986 0.97269 0.28885 0.0
C1682 C 0.66451 0.96095 0.23058 0.0
C1683 C 0.66394 0.93871 0.21539 0.0
C1684 C 0.64758 0.9174 0.22028 0.0
C1685 C 0.63104 0.91934 0.23996 0.0
C1686 C 0.6315 0.94165 0.25496 0.0
H1687 H 0.70199 0.97759 0.30597 0.0
H1688 H 0.6815 0.95284 0.28974 0.0
H1689 H 0.70136 0.97378 0.27196 0.0
H1690 H 0.67774 0.97687 0.22697 0.0
H1691 H 0.67701 0.9379 0.20052 0.0
H1692 H 0.62088 0.80453 0.12179 0.0
H1693 H 0.58342 0.77706 0.10993 0.0
H1694 H 0.53989 0.83305 0.14136 0.0
H1695 H 0.57759 0.85967 0.15477 0.0
H1696 H 0.53062 0.79253 0.16389 0.0
H1697 H 0.52585 0.76408 0.06235 0.0
H1698 H 0.55522 0.75907 0.07609 0.0
H1699 H 0.54634 0.79072 0.07505 0.0
C1700 C 0.60326 0.81156 0.12484 0.0
C1701 C 0.60208 0.83434 0.1389 0.0
C1702 C 0.58173 0.79576 0.11809 0.0
C1703 C 0.5586 0.80283 0.12469 0.0
C1704 C 0.55742 0.82704 0.13608 0.0
H1705 H 0.41816 0.70671 0.12024 0.0
H1706 H 0.45274 0.73523 0.10614 0.0
C1707 C 0.57897 0.84247 0.14345 0.0
C1708 C 0.53673 0.7835 0.12463 0.0
H1709 H 0.50405 0.73463 0.09 0.0
C1710 C 0.52464 0.78027 0.14749 0.0
C1711 C 0.52866 0.76729 0.10337 0.0
C1712 C 0.53956 0.77067 0.07779 0.0
C1713 C 0.50543 0.76107 0.14994 0.0
C1714 C 0.49851 0.74384 0.12924 0.0
C1715 C 0.50979 0.74749 0.10603 0.0
C1716 C 0.47957 0.72209 0.13201 0.0
C1717 C 0.49272 0.75941 0.17483 0.0
C1718 C 0.48356 0.70408 0.14992 0.0
C1719 C 0.46387 0.68798 0.15809 0.0
C1720 C 0.43994 0.68922 0.14808 0.0
C1721 C 0.4365 0.70504 0.12793 0.0
C1722 C 0.45621 0.7215 0.12001 0.0
H1723 H 0.49559 0.7776 0.18616 0.0
H1724 H 0.47262 0.75409 0.1718 0.0
H1725 H 0.50037 0.74474 0.1861 0.0
H1726 H 0.50151 0.70399 0.15918 0.0
H1727 H 0.46696 0.67614 0.1738 0.0
loop_
_geom_bond_atom_site_label_1
_geom_bond_atom_site_label_2
_geom_bond_distance
_geom_bond_site_symmetry_2
_ccdc_geom_bond_type
Mn0 O5 2.095 . S
Mn0 O15 2.162 . S
Mn0 O16 2.297 . S
Mn0 O24 2.385 . S
Mn0 O25 2.209 . S
Mn0 O26 2.094 . S
Mn1 O6 2.121 . S
Mn1 N8 2.257 . S
Mn1 N17 2.282 . S
Mn1 O25 2.215 . S
Mn1 O27 2.117 . S
C2 O24 1.234 . S
C2 O25 1.283 . S
C3 O15 1.281 . S
C3 O16 1.236 . S
C4 O26 1.240 . S
C4 O27 1.264 . S
O5 Mn0 2.095 . S
O5 C14 1.250 . S
O6 Mn1 2.121 . S
O6 C14 1.258 . S
C7 N8 1.326 . S
C7 C11 1.460 . S
C7 H13 0.929 . S
N8 Mn1 2.257 . S
N8 C7 1.326 . S
N8 C12 1.362 . S
C9 C10 1.258 . S
C9 C12 1.431 . S
C9 C29 1.449 . S
C10 C9 1.258 . S
C10 C11 1.477 . S
C10 H30 0.931 . S
C11 C7 1.460 . S
C11 C10 1.477 . S
C11 H31 0.930 . S
C12 N8 1.362 . S
C12 C9 1.431 . S
C12 C22 1.476 . S
H13 C7 0.929 . S
C14 O5 1.250 . S
C14 O6 1.258 . S
O15 Mn0 2.162 . S
O15 C3 1.281 . S
O16 Mn0 2.297 . S
O16 C3 1.236 . S
N17 Mn1 2.282 . S
N17 C18 1.328 . S
N17 C22 1.318 . S
C18 N17 1.328 . S
C18 C19 1.457 . S
C18 H23 0.929 . S
C19 C18 1.457 . S
C19 C20 1.291 . S
C19 H32 0.931 . S
C20 C19 1.291 . S
C20 C21 1.373 . S
C20 H33 0.929 . S
C21 C20 1.373 . S
C21 C22 1.396 . S
C21 C28 1.403 . S
C22 C12 1.476 . S
C22 N17 1.318 . S
C22 C21 1.396 . S
H23 C18 0.929 . S
O24 Mn0 2.385 . S
O24 C2 1.234 . S
O25 Mn0 2.209 . S
O25 Mn1 2.215 . S
O25 C2 1.283 . S
O26 Mn0 2.094 . S
O26 C4 1.240 . S
O27 Mn1 2.117 . S
O27 C4 1.264 . S
C28 C21 1.403 . S
C28 C29 1.399 . S
C28 H34 0.929 . S
C29 C9 1.449 . S
C29 C28 1.399 . S
C29 H35 0.930 . S
H30 C10 0.931 . S
H31 C11 0.930 . S
H32 C19 0.931 . S
H33 C20 0.929 . S
H34 C28 0.929 . S
H35 C29 0.930 . S
Mn36 O41 2.095 . S
Mn36 O51 2.162 . S
Mn36 O52 2.297 . S
Mn36 O60 2.385 . S
Mn36 O61 2.209 . S
Mn36 O62 2.094 . S
Mn37 O42 2.121 . S
Mn37 N44 2.257 . S
Mn37 N53 2.282 . S
Mn37 O61 2.215 . S
Mn37 O63 2.117 . S
C38 O60 1.234 . S
C38 O61 1.283 . S
C39 O51 1.281 . S
C39 O52 1.236 . S
C40 O62 1.240 . S
C40 O63 1.264 . S
O41 Mn36 2.095 . S
O41 C50 1.250 . S
O42 Mn37 2.121 . S
O42 C50 1.258 . S
C43 N44 1.326 . S
C43 C47 1.460 . S
C43 H49 0.929 . S
N44 Mn37 2.257 . S
N44 C43 1.326 . S
N44 C48 1.362 . S
C45 C46 1.258 . S
C45 C48 1.431 . S
C45 C65 1.449 . S
C46 C45 1.258 . S
C46 C47 1.477 . S
C46 H66 0.931 . S
C47 C43 1.460 . S
C47 C46 1.477 . S
C47 H67 0.930 . S
C48 N44 1.362 . S
C48 C45 1.431 . S
C48 C58 1.476 . S
H49 C43 0.929 . S
C50 O41 1.250 . S
C50 O42 1.258 . S
O51 Mn36 2.162 . S
O51 C39 1.281 . S
O52 Mn36 2.297 . S
O52 C39 1.236 . S
N53 Mn37 2.282 . S
N53 C54 1.328 . S
N53 C58 1.318 . S
C54 N53 1.328 . S
C54 C55 1.457 . S
C54 H59 0.929 . S
C55 C54 1.457 . S
C55 C56 1.291 . S
C55 H68 0.931 . S
C56 C55 1.291 . S
C56 C57 1.373 . S
C56 H69 0.929 . S
C57 C56 1.373 . S
C57 C58 1.396 . S
C57 C64 1.403 . S
C58 C48 1.476 . S
C58 N53 1.318 . S
C58 C57 1.396 . S
H59 C54 0.929 . S
O60 Mn36 2.385 . S
O60 C38 1.234 . S
O61 Mn36 2.209 . S
O61 Mn37 2.215 . S
O61 C38 1.283 . S
O62 Mn36 2.094 . S
O62 C40 1.240 . S
O63 Mn37 2.117 . S
O63 C40 1.264 . S
C64 C57 1.403 . S
C64 C65 1.399 . S
C64 H70 0.929 . S
C65 C45 1.449 . S
C65 C64 1.399 . S
C65 H71 0.930 . S
H66 C46 0.931 . S
H67 C47 0.930 . S
H68 C55 0.931 . S
H69 C56 0.929 . S
H70 C64 0.929 . S
H71 C65 0.930 . S
Mn72 O77 2.095 . S
Mn72 O87 2.162 . S
Mn72 O88 2.297 . S
Mn72 O96 2.385 . S
Mn72 O97 2.209 . S
Mn72 O98 2.094 . S
Mn73 O78 2.121 . S
Mn73 N80 2.257 . S
Mn73 N89 2.282 . S
Mn73 O97 2.215 . S
Mn73 O99 2.117 . S
C74 O96 1.234 . S
C74 O97 1.283 . S
C75 O87 1.281 . S
C75 O88 1.236 . S
C76 O98 1.240 . S
C76 O99 1.264 . S
O77 Mn72 2.095 . S
O77 C86 1.250 . S
O78 Mn73 2.121 . S
O78 C86 1.258 . S
C79 N80 1.326 . S
C79 C83 1.460 . S
C79 H85 0.929 . S
N80 Mn73 2.257 . S
N80 C79 1.326 . S
N80 C84 1.362 . S
C81 C82 1.258 . S
C81 C84 1.431 . S
C81 C101 1.449 . S
C82 C81 1.258 . S
C82 C83 1.477 . S
C82 H102 0.931 . S
C83 C79 1.460 . S
C83 C82 1.477 . S
C83 H103 0.930 . S
C84 N80 1.362 . S
C84 C81 1.431 . S
C84 C94 1.476 . S
H85 C79 0.929 . S
C86 O77 1.250 . S
C86 O78 1.258 . S
O87 Mn72 2.162 . S
O87 C75 1.281 . S
O88 Mn72 2.297 . S
O88 C75 1.236 . S
N89 Mn73 2.282 . S
N89 C90 1.328 . S
N89 C94 1.318 . S
C90 N89 1.328 . S
C90 C91 1.457 . S
C90 H95 0.929 . S
C91 C90 1.457 . S
C91 C92 1.291 . S
C91 H104 0.931 . S
C92 C91 1.291 . S
C92 C93 1.373 . S
C92 H105 0.929 . S
C93 C92 1.373 . S
C93 C94 1.396 . S
C93 C100 1.403 . S
C94 C84 1.476 . S
C94 N89 1.318 . S
C94 C93 1.396 . S
H95 C90 0.929 . S
O96 Mn72 2.385 . S
O96 C74 1.234 . S
O97 Mn72 2.209 . S
O97 Mn73 2.215 . S
O97 C74 1.283 . S
O98 Mn72 2.094 . S
O98 C76 1.240 . S
O99 Mn73 2.117 . S
O99 C76 1.264 . S
C100 C93 1.403 . S
C100 C101 1.399 . S
C100 H106 0.929 . S
C101 C81 1.449 . S
C101 C100 1.399 . S
C101 H107 0.930 . S
H102 C82 0.931 . S
H103 C83 0.930 . S
H104 C91 0.931 . S
H105 C92 0.929 . S
H106 C100 0.929 . S
H107 C101 0.930 . S
Mn108 O113 2.095 . S
Mn108 O123 2.162 . S
Mn108 O124 2.297 . S
Mn108 O132 2.385 . S
Mn108 O133 2.209 . S
Mn108 O134 2.094 . S
Mn109 O114 2.121 . S
Mn109 N116 2.257 . S
Mn109 N125 2.282 . S
Mn109 O133 2.215 . S
Mn109 O135 2.117 . S
C110 O132 1.234 . S
C110 O133 1.283 . S
C111 O123 1.281 . S
C111 O124 1.236 . S
C112 O134 1.240 . S
C112 O135 1.264 . S
O113 Mn108 2.095 . S
O113 C122 1.250 . S
O114 Mn109 2.121 . S
O114 C122 1.258 . S
C115 N116 1.326 . S
C115 C119 1.460 . S
C115 H121 0.929 . S
N116 Mn109 2.257 . S
N116 C115 1.326 . S
N116 C120 1.362 . S
C117 C118 1.258 . S
C117 C120 1.431 . S
C117 C137 1.449 . S
C118 C117 1.258 . S
C118 C119 1.477 . S
C118 H138 0.931 . S
C119 C115 1.460 . S
C119 C118 1.477 . S
C119 H139 0.930 . S
C120 N116 1.362 . S
C120 C117 1.431 . S
C120 C130 1.476 . S
H121 C115 0.929 . S
C122 O113 1.250 . S
C122 O114 1.258 . S
O123 Mn108 2.162 . S
O123 C111 1.281 . S
O124 Mn108 2.297 . S
O124 C111 1.236 . S
N125 Mn109 2.282 . S
N125 C126 1.328 . S
N125 C130 1.318 . S
C126 N125 1.328 . S
C126 C127 1.457 . S
C126 H131 0.929 . S
C127 C126 1.457 . S
C127 C128 1.291 . S
C127 H140 0.931 . S
C128 C127 1.291 . S
C128 C129 1.373 . S
C128 H141 0.929 . S
C129 C128 1.373 . S
C129 C130 1.396 . S
C129 C136 1.403 . S
C130 C120 1.476 . S
C130 N125 1.318 . S
C130 C129 1.396 . S
H131 C126 0.929 . S
O132 Mn108 2.385 . S
O132 C110 1.234 . S
O133 Mn108 2.209 . S
O133 Mn109 2.215 . S
O133 C110 1.283 . S
O134 Mn108 2.094 . S
O134 C112 1.240 . S
O135 Mn109 2.117 . S
O135 C112 1.264 . S
C136 C129 1.403 . S
C136 C137 1.399 . S
C136 H142 0.929 . S
C137 C117 1.449 . S
C137 C136 1.399 . S
C137 H143 0.930 . S
H138 C118 0.931 . S
H139 C119 0.930 . S
H140 C127 0.931 . S
H141 C128 0.929 . S
H142 C136 0.929 . S
H143 C137 0.930 . S
Mn144 O149 2.095 . S
Mn144 O159 2.162 . S
Mn144 O160 2.297 . S
Mn144 O168 2.385 . S
Mn144 O169 2.209 . S
Mn144 O170 2.094 . S
Mn145 O150 2.121 . S
Mn145 N152 2.257 . S
Mn145 N161 2.282 . S
Mn145 O169 2.215 . S
Mn145 O171 2.117 . S
C146 O168 1.234 . S
C146 O169 1.283 . S
C147 O159 1.281 . S
C147 O160 1.236 . S
C148 O170 1.240 . S
C148 O171 1.264 . S
O149 Mn144 2.095 . S
O149 C158 1.250 . S
O150 Mn145 2.121 . S
O150 C158 1.258 . S
C151 N152 1.326 . S
C151 C155 1.460 . S
C151 H157 0.929 . S
N152 Mn145 2.257 . S
N152 C151 1.326 . S
N152 C156 1.362 . S
C153 C154 1.258 . S
C153 C156 1.431 . S
C153 C173 1.449 . S
C154 C153 1.258 . S
C154 C155 1.477 . S
C154 H174 0.931 . S
C155 C151 1.460 . S
C155 C154 1.477 . S
C155 H175 0.930 . S
C156 N152 1.362 . S
C156 C153 1.431 . S
C156 C166 1.476 . S
H157 C151 0.929 . S
C158 O149 1.250 . S
C158 O150 1.258 . S
O159 Mn144 2.162 . S
O159 C147 1.281 . S
O160 Mn144 2.297 . S
O160 C147 1.236 . S
N161 Mn145 2.282 . S
N161 C162 1.328 . S
N161 C166 1.318 . S
C162 N161 1.328 . S
C162 C163 1.457 . S
C162 H167 0.929 . S
C163 C162 1.457 . S
C163 C164 1.291 . S
C163 H176 0.931 . S
C164 C163 1.291 . S
C164 C165 1.373 . S
C164 H177 0.929 . S
C165 C164 1.373 . S
C165 C166 1.396 . S
C165 C172 1.403 . S
C166 C156 1.476 . S
C166 N161 1.318 . S
C166 C165 1.396 . S
H167 C162 0.929 . S
O168 Mn144 2.385 . S
O168 C146 1.234 . S
O169 Mn144 2.209 . S
O169 Mn145 2.215 . S
O169 C146 1.283 . S
O170 Mn144 2.094 . S
O170 C148 1.240 . S
O171 Mn145 2.117 . S
O171 C148 1.264 . S
C172 C165 1.403 . S
C172 C173 1.399 . S
C172 H178 0.929 . S
C173 C153 1.449 . S
C173 C172 1.399 . S
C173 H179 0.930 . S
H174 C154 0.931 . S
H175 C155 0.930 . S
H176 C163 0.931 . S
H177 C164 0.929 . S
H178 C172 0.929 . S
H179 C173 0.930 . S
Mn180 O185 2.095 . S
Mn180 O195 2.162 . S
Mn180 O196 2.297 . S
Mn180 O204 2.385 . S
Mn180 O205 2.209 . S
Mn180 O206 2.094 . S
Mn181 O186 2.121 . S
Mn181 N188 2.257 . S
Mn181 N197 2.282 . S
Mn181 O205 2.215 . S
Mn181 O207 2.117 . S
C182 O204 1.234 . S
C182 O205 1.283 . S
C183 O195 1.281 . S
C183 O196 1.236 . S
C184 O206 1.240 . S
C184 O207 1.264 . S
O185 Mn180 2.095 . S
O185 C194 1.250 . S
O186 Mn181 2.121 . S
O186 C194 1.258 . S
C187 N188 1.326 . S
C187 C191 1.460 . S
C187 H193 0.929 . S
N188 Mn181 2.257 . S
N188 C187 1.326 . S
N188 C192 1.362 . S
C189 C190 1.258 . S
C189 C192 1.431 . S
C189 C209 1.449 . S
C190 C189 1.258 . S
C190 C191 1.477 . S
C190 H210 0.931 . S
C191 C187 1.460 . S
C191 C190 1.477 . S
C191 H211 0.930 . S
C192 N188 1.362 . S
C192 C189 1.431 . S
C192 C202 1.476 . S
H193 C187 0.929 . S
C194 O185 1.250 . S
C194 O186 1.258 . S
O195 Mn180 2.162 . S
O195 C183 1.281 . S
O196 Mn180 2.297 . S
O196 C183 1.236 . S
N197 Mn181 2.282 . S
N197 C198 1.328 . S
N197 C202 1.318 . S
C198 N197 1.328 . S
C198 C199 1.457 . S
C198 H203 0.929 . S
C199 C198 1.457 . S
C199 C200 1.291 . S
C199 H212 0.931 . S
C200 C199 1.291 . S
C200 C201 1.373 . S
C200 H213 0.929 . S
C201 C200 1.373 . S
C201 C202 1.396 . S
C201 C208 1.403 . S
C202 C192 1.476 . S
C202 N197 1.318 . S
C202 C201 1.396 . S
H203 C198 0.929 . S
O204 Mn180 2.385 . S
O204 C182 1.234 . S
O205 Mn180 2.209 . S
O205 Mn181 2.215 . S
O205 C182 1.283 . S
O206 Mn180 2.094 . S
O206 C184 1.240 . S
O207 Mn181 2.117 . S
O207 C184 1.264 . S
C208 C201 1.403 . S
C208 C209 1.399 . S
C208 H214 0.929 . S
C209 C189 1.449 . S
C209 C208 1.399 . S
C209 H215 0.930 . S
H210 C190 0.931 . S
H211 C191 0.930 . S
H212 C199 0.931 . S
H213 C200 0.929 . S
H214 C208 0.929 . S
H215 C209 0.930 . S
Mn216 O221 2.095 . S
Mn216 O231 2.162 . S
Mn216 O232 2.297 . S
Mn216 O240 2.385 . S
Mn216 O241 2.209 . S
Mn216 O242 2.094 . S
Mn217 O222 2.121 . S
Mn217 N224 2.257 . S
Mn217 N233 2.282 . S
Mn217 O241 2.215 . S
Mn217 O243 2.117 . S
C218 O240 1.234 . S
C218 O241 1.283 . S
C219 O231 1.281 . S
C219 O232 1.236 . S
C220 O242 1.240 . S
C220 O243 1.264 . S
O221 Mn216 2.095 . S
O221 C230 1.250 . S
O222 Mn217 2.121 . S
O222 C230 1.258 . S
C223 N224 1.326 . S
C223 C227 1.460 . S
C223 H229 0.929 . S
N224 Mn217 2.257 . S
N224 C223 1.326 . S
N224 C228 1.362 . S
C225 C226 1.258 . S
C225 C228 1.431 . S
C225 C245 1.449 . S
C226 C225 1.258 . S
C226 C227 1.477 . S
C226 H246 0.931 . S
C227 C223 1.460 . S
C227 C226 1.477 . S
C227 H247 0.930 . S
C228 N224 1.362 . S
C228 C225 1.431 . S
C228 C238 1.476 . S
H229 C223 0.929 . S
C230 O221 1.250 . S
C230 O222 1.258 . S
O231 Mn216 2.162 . S
O231 C219 1.281 . S
O232 Mn216 2.297 . S
O232 C219 1.236 . S
N233 Mn217 2.282 . S
N233 C234 1.328 . S
N233 C238 1.318 . S
C234 N233 1.328 . S
C234 C235 1.457 . S
C234 H239 0.929 . S
C235 C234 1.457 . S
C235 C236 1.291 . S
C235 H248 0.931 . S
C236 C235 1.291 . S
C236 C237 1.373 . S
C236 H249 0.929 . S
C237 C236 1.373 . S
C237 C238 1.396 . S
C237 C244 1.403 . S
C238 C228 1.476 . S
C238 N233 1.318 . S
C238 C237 1.396 . S
H239 C234 0.929 . S
O240 Mn216 2.385 . S
O240 C218 1.234 . S
O241 Mn216 2.209 . S
O241 Mn217 2.215 . S
O241 C218 1.283 . S
O242 Mn216 2.094 . S
O242 C220 1.240 . S
O243 Mn217 2.117 . S
O243 C220 1.264 . S
C244 C237 1.403 . S
C244 C245 1.399 . S
C244 H250 0.929 . S
C245 C225 1.449 . S
C245 C244 1.399 . S
C245 H251 0.930 . S
H246 C226 0.931 . S
H247 C227 0.930 . S
H248 C235 0.931 . S
H249 C236 0.929 . S
H250 C244 0.929 . S
H251 C245 0.930 . S
Mn252 O257 2.095 . S
Mn252 O267 2.162 . S
Mn252 O268 2.297 . S
Mn252 O276 2.385 . S
Mn252 O277 2.209 . S
Mn252 O278 2.094 . S
Mn253 O258 2.121 . S
Mn253 N260 2.257 . S
Mn253 N269 2.282 . S
Mn253 O277 2.215 . S
Mn253 O279 2.117 . S
C254 O276 1.234 . S
C254 O277 1.283 . S
C255 O267 1.281 . S
C255 O268 1.236 . S
C256 O278 1.240 . S
C256 O279 1.264 . S
O257 Mn252 2.095 . S
O257 C266 1.250 . S
O258 Mn253 2.121 . S
O258 C266 1.258 . S
C259 N260 1.326 . S
C259 C263 1.460 . S
C259 H265 0.929 . S
N260 Mn253 2.257 . S
N260 C259 1.326 . S
N260 C264 1.362 . S
C261 C262 1.258 . S
C261 C264 1.431 . S
C261 C281 1.449 . S
C262 C261 1.258 . S
C262 C263 1.477 . S
C262 H282 0.931 . S
C263 C259 1.460 . S
C263 C262 1.477 . S
C263 H283 0.930 . S
C264 N260 1.362 . S
C264 C261 1.431 . S
C264 C274 1.476 . S
H265 C259 0.929 . S
C266 O257 1.250 . S
C266 O258 1.258 . S
O267 Mn252 2.162 . S
O267 C255 1.281 . S
O268 Mn252 2.297 . S
O268 C255 1.236 . S
N269 Mn253 2.282 . S
N269 C270 1.328 . S
N269 C274 1.318 . S
C270 N269 1.328 . S
C270 C271 1.457 . S
C270 H275 0.929 . S
C271 C270 1.457 . S
C271 C272 1.291 . S
C271 H284 0.931 . S
C272 C271 1.291 . S
C272 C273 1.373 . S
C272 H285 0.929 . S
C273 C272 1.373 . S
C273 C274 1.396 . S
C273 C280 1.403 . S
C274 C264 1.476 . S
C274 N269 1.318 . S
C274 C273 1.396 . S
H275 C270 0.929 . S
O276 Mn252 2.385 . S
O276 C254 1.234 . S
O277 Mn252 2.209 . S
O277 Mn253 2.215 . S
O277 C254 1.283 . S
O278 Mn252 2.094 . S
O278 C256 1.240 . S
O279 Mn253 2.117 . S
O279 C256 1.264 . S
C280 C273 1.403 . S
C280 C281 1.399 . S
C280 H286 0.929 . S
C281 C261 1.449 . S
C281 C280 1.399 . S
C281 H287 0.930 . S
H282 C262 0.931 . S
H283 C263 0.930 . S
H284 C271 0.931 . S
H285 C272 0.929 . S
H286 C280 0.929 . S
H287 C281 0.930 . S
Mn288 O293 2.095 . S
Mn288 O303 2.162 . S
Mn288 O304 2.297 . S
Mn288 O312 2.385 . S
Mn288 O313 2.209 . S
Mn288 O314 2.094 . S
Mn289 O294 2.121 . S
Mn289 N296 2.257 . S
Mn289 N305 2.282 . S
Mn289 O313 2.215 . S
Mn289 O315 2.117 . S
C290 O312 1.234 . S
C290 O313 1.283 . S
C291 O303 1.281 . S
C291 O304 1.236 . S
C292 O314 1.240 . S
C292 O315 1.264 . S
O293 Mn288 2.095 . S
O293 C302 1.250 . S
O294 Mn289 2.121 . S
O294 C302 1.258 . S
C295 N296 1.326 . S
C295 C299 1.460 . S
C295 H301 0.929 . S
N296 Mn289 2.257 . S
N296 C295 1.326 . S
N296 C300 1.362 . S
C297 C298 1.258 . S
C297 C300 1.431 . S
C297 C317 1.449 . S
C298 C297 1.258 . S
C298 C299 1.477 . S
C298 H318 0.931 . S
C299 C295 1.460 . S
C299 C298 1.477 . S
C299 H319 0.930 . S
C300 N296 1.362 . S
C300 C297 1.431 . S
C300 C310 1.476 . S
H301 C295 0.929 . S
C302 O293 1.250 . S
C302 O294 1.258 . S
O303 Mn288 2.162 . S
O303 C291 1.281 . S
O304 Mn288 2.297 . S
O304 C291 1.236 . S
N305 Mn289 2.282 . S
N305 C306 1.328 . S
N305 C310 1.318 . S
C306 N305 1.328 . S
C306 C307 1.457 . S
C306 H311 0.929 . S
C307 C306 1.457 . S
C307 C308 1.291 . S
C307 H320 0.931 . S
C308 C307 1.291 . S
C308 C309 1.373 . S
C308 H321 0.929 . S
C309 C308 1.373 . S
C309 C310 1.396 . S
C309 C316 1.403 . S
C310 C300 1.476 . S
C310 N305 1.318 . S
C310 C309 1.396 . S
H311 C306 0.929 . S
O312 Mn288 2.385 . S
O312 C290 1.234 . S
O313 Mn288 2.209 . S
O313 Mn289 2.215 . S
O313 C290 1.283 . S
O314 Mn288 2.094 . S
O314 C292 1.240 . S
O315 Mn289 2.117 . S
O315 C292 1.264 . S
C316 C309 1.403 . S
C316 C317 1.399 . S
C316 H322 0.929 . S
C317 C297 1.449 . S
C317 C316 1.399 . S
C317 H323 0.930 . S
H318 C298 0.931 . S
H319 C299 0.930 . S
H320 C307 0.931 . S
H321 C308 0.929 . S
H322 C316 0.929 . S
H323 C317 0.930 . S
Mn324 O329 2.095 . S
Mn324 O339 2.162 . S
Mn324 O340 2.297 . S
Mn324 O348 2.385 . S
Mn324 O349 2.209 . S
Mn324 O350 2.094 . S
Mn325 O330 2.121 . S
Mn325 N332 2.257 . S
Mn325 N341 2.282 . S
Mn325 O349 2.215 . S
Mn325 O351 2.117 . S
C326 O348 1.234 . S
C326 O349 1.283 . S
C327 O339 1.281 . S
C327 O340 1.236 . S
C328 O350 1.240 . S
C328 O351 1.264 . S
O329 Mn324 2.095 . S
O329 C338 1.250 . S
O330 Mn325 2.121 . S
O330 C338 1.258 . S
C331 N332 1.326 . S
C331 C335 1.460 . S
C331 H337 0.929 . S
N332 Mn325 2.257 . S
N332 C331 1.326 . S
N332 C336 1.362 . S
C333 C334 1.258 . S
C333 C336 1.431 . S
C333 C353 1.449 . S
C334 C333 1.258 . S
C334 C335 1.477 . S
C334 H354 0.931 . S
C335 C331 1.460 . S
C335 C334 1.477 . S
C335 H355 0.930 . S
C336 N332 1.362 . S
C336 C333 1.431 . S
C336 C346 1.476 . S
H337 C331 0.929 . S
C338 O329 1.250 . S
C338 O330 1.258 . S
O339 Mn324 2.162 . S
O339 C327 1.281 . S
O340 Mn324 2.297 . S
O340 C327 1.236 . S
N341 Mn325 2.282 . S
N341 C342 1.328 . S
N341 C346 1.318 . S
C342 N341 1.328 . S
C342 C343 1.457 . S
C342 H347 0.929 . S
C343 C342 1.457 . S
C343 C344 1.291 . S
C343 H356 0.931 . S
C344 C343 1.291 . S
C344 C345 1.373 . S
C344 H357 0.929 . S
C345 C344 1.373 . S
C345 C346 1.396 . S
C345 C352 1.403 . S
C346 C336 1.476 . S
C346 N341 1.318 . S
C346 C345 1.396 . S
H347 C342 0.929 . S
O348 Mn324 2.385 . S
O348 C326 1.234 . S
O349 Mn324 2.209 . S
O349 Mn325 2.215 . S
O349 C326 1.283 . S
O350 Mn324 2.094 . S
O350 C328 1.240 . S
O351 Mn325 2.117 . S
O351 C328 1.264 . S
C352 C345 1.403 . S
C352 C353 1.399 . S
C352 H358 0.929 . S
C353 C333 1.449 . S
C353 C352 1.399 . S
C353 H359 0.930 . S
H354 C334 0.931 . S
H355 C335 0.930 . S
H356 C343 0.931 . S
H357 C344 0.929 . S
H358 C352 0.929 . S
H359 C353 0.930 . S
Mn360 O365 2.095 . S
Mn360 O375 2.162 . S
Mn360 O376 2.297 . S
Mn360 O384 2.385 . S
Mn360 O385 2.209 . S
Mn360 O386 2.094 . S
Mn361 O366 2.121 . S
Mn361 N368 2.257 . S
Mn361 N377 2.282 . S
Mn361 O385 2.215 . S
Mn361 O387 2.117 . S
C362 O384 1.234 . S
C362 O385 1.283 . S
C363 O375 1.281 . S
C363 O376 1.236 . S
C364 O386 1.240 . S
C364 O387 1.264 . S
O365 Mn360 2.095 . S
O365 C374 1.250 . S
O366 Mn361 2.121 . S
O366 C374 1.258 . S
C367 N368 1.326 . S
C367 C371 1.460 . S
C367 H373 0.929 . S
N368 Mn361 2.257 . S
N368 C367 1.326 . S
N368 C372 1.362 . S
C369 C370 1.258 . S
C369 C372 1.431 . S
C369 C389 1.449 . S
C370 C369 1.258 . S
C370 C371 1.477 . S
C370 H390 0.931 . S
C371 C367 1.460 . S
C371 C370 1.477 . S
C371 H391 0.930 . S
C372 N368 1.362 . S
C372 C369 1.431 . S
C372 C382 1.476 . S
H373 C367 0.929 . S
C374 O365 1.250 . S
C374 O366 1.258 . S
O375 Mn360 2.162 . S
O375 C363 1.281 . S
O376 Mn360 2.297 . S
O376 C363 1.236 . S
N377 Mn361 2.282 . S
N377 C378 1.328 . S
N377 C382 1.318 . S
C378 N377 1.328 . S
C378 C379 1.457 . S
C378 H383 0.929 . S
C379 C378 1.457 . S
C379 C380 1.291 . S
C379 H392 0.931 . S
C380 C379 1.291 . S
C380 C381 1.373 . S
C380 H393 0.929 . S
C381 C380 1.373 . S
C381 C382 1.396 . S
C381 C388 1.403 . S
C382 C372 1.476 . S
C382 N377 1.318 . S
C382 C381 1.396 . S
H383 C378 0.929 . S
O384 Mn360 2.385 . S
O384 C362 1.234 . S
O385 Mn360 2.209 . S
O385 Mn361 2.215 . S
O385 C362 1.283 . S
O386 Mn360 2.094 . S
O386 C364 1.240 . S
O387 Mn361 2.117 . S
O387 C364 1.264 . S
C388 C381 1.403 . S
C388 C389 1.399 . S
C388 H394 0.929 . S
C389 C369 1.449 . S
C389 C388 1.399 . S
C389 H395 0.930 . S
H390 C370 0.931 . S
H391 C371 0.930 . S
H392 C379 0.931 . S
H393 C380 0.929 . S
H394 C388 0.929 . S
H395 C389 0.930 . S
Mn396 O401 2.095 . S
Mn396 O411 2.162 . S
Mn396 O412 2.297 . S
Mn396 O420 2.385 . S
Mn396 O421 2.209 . S
Mn396 O422 2.094 . S
Mn397 O402 2.121 . S
Mn397 N404 2.257 . S
Mn397 N413 2.282 . S
Mn397 O421 2.215 . S
Mn397 O423 2.117 . S
C398 O420 1.234 . S
C398 O421 1.283 . S
C399 O411 1.281 . S
C399 O412 1.236 . S
C400 O422 1.240 . S
C400 O423 1.264 . S
O401 Mn396 2.095 . S
O401 C410 1.250 . S
O402 Mn397 2.121 . S
O402 C410 1.258 . S
C403 N404 1.326 . S
C403 C407 1.460 . S
C403 H409 0.929 . S
N404 Mn397 2.257 . S
N404 C403 1.326 . S
N404 C408 1.362 . S
C405 C406 1.258 . S
C405 C408 1.431 . S
C405 C425 1.449 . S
C406 C405 1.258 . S
C406 C407 1.477 . S
C406 H426 0.931 . S
C407 C403 1.460 . S
C407 C406 1.477 . S
C407 H427 0.930 . S
C408 N404 1.362 . S
C408 C405 1.431 . S
C408 C418 1.476 . S
H409 C403 0.929 . S
C410 O401 1.250 . S
C410 O402 1.258 . S
O411 Mn396 2.162 . S
O411 C399 1.281 . S
O412 Mn396 2.297 . S
O412 C399 1.236 . S
N413 Mn397 2.282 . S
N413 C414 1.328 . S
N413 C418 1.318 . S
C414 N413 1.328 . S
C414 C415 1.457 . S
C414 H419 0.929 . S
C415 C414 1.457 . S
C415 C416 1.291 . S
C415 H428 0.931 . S
C416 C415 1.291 . S
C416 C417 1.373 . S
C416 H429 0.929 . S
C417 C416 1.373 . S
C417 C418 1.396 . S
C417 C424 1.403 . S
C418 C408 1.476 . S
C418 N413 1.318 . S
C418 C417 1.396 . S
H419 C414 0.929 . S
O420 Mn396 2.385 . S
O420 C398 1.234 . S
O421 Mn396 2.209 . S
O421 Mn397 2.215 . S
O421 C398 1.283 . S
O422 Mn396 2.094 . S
O422 C400 1.240 . S
O423 Mn397 2.117 . S
O423 C400 1.264 . S
C424 C417 1.403 . S
C424 C425 1.399 . S
C424 H430 0.929 . S
C425 C405 1.449 . S
C425 C424 1.399 . S
C425 H431 0.930 . S
H426 C406 0.931 . S
H427 C407 0.930 . S
H428 C415 0.931 . S
H429 C416 0.929 . S
H430 C424 0.929 . S
H431 C425 0.930 . S
Mn432 O437 2.095 . S
Mn432 O447 2.162 . S
Mn432 O448 2.297 . S
Mn432 O456 2.385 . S
Mn432 O457 2.209 . S
Mn432 O458 2.094 . S
Mn433 O438 2.121 . S
Mn433 N440 2.257 . S
Mn433 N449 2.282 . S
Mn433 O457 2.215 . S
Mn433 O459 2.117 . S
C434 O456 1.234 . S
C434 O457 1.283 . S
C435 O447 1.281 . S
C435 O448 1.236 . S
C436 O458 1.240 . S
C436 O459 1.264 . S
O437 Mn432 2.095 . S
O437 C446 1.250 . S
O438 Mn433 2.121 . S
O438 C446 1.258 . S
C439 N440 1.326 . S
C439 C443 1.460 . S
C439 H445 0.929 . S
N440 Mn433 2.257 . S
N440 C439 1.326 . S
N440 C444 1.362 . S
C441 C442 1.258 . S
C441 C444 1.431 . S
C441 C461 1.449 . S
C442 C441 1.258 . S
C442 C443 1.477 . S
C442 H462 0.931 . S
C443 C439 1.460 . S
C443 C442 1.477 . S
C443 H463 0.930 . S
C444 N440 1.362 . S
C444 C441 1.431 . S
C444 C454 1.476 . S
H445 C439 0.929 . S
C446 O437 1.250 . S
C446 O438 1.258 . S
O447 Mn432 2.162 . S
O447 C435 1.281 . S
O448 Mn432 2.297 . S
O448 C435 1.236 . S
N449 Mn433 2.282 . S
N449 C450 1.328 . S
N449 C454 1.318 . S
C450 N449 1.328 . S
C450 C451 1.457 . S
C450 H455 0.929 . S
C451 C450 1.457 . S
C451 C452 1.291 . S
C451 H464 0.931 . S
C452 C451 1.291 . S
C452 C453 1.373 . S
C452 H465 0.929 . S
C453 C452 1.373 . S
C453 C454 1.396 . S
C453 C460 1.403 . S
C454 C444 1.476 . S
C454 N449 1.318 . S
C454 C453 1.396 . S
H455 C450 0.929 . S
O456 Mn432 2.385 . S
O456 C434 1.234 . S
O457 Mn432 2.209 . S
O457 Mn433 2.215 . S
O457 C434 1.283 . S
O458 Mn432 2.094 . S
O458 C436 1.240 . S
O459 Mn433 2.117 . S
O459 C436 1.264 . S
C460 C453 1.403 . S
C460 C461 1.399 . S
C460 H466 0.929 . S
C461 C441 1.449 . S
C461 C460 1.399 . S
C461 H467 0.930 . S
H462 C442 0.931 . S
H463 C443 0.930 . S
H464 C451 0.931 . S
H465 C452 0.929 . S
H466 C460 0.929 . S
H467 C461 0.930 . S
Mn468 O473 2.095 . S
Mn468 O483 2.162 . S
Mn468 O484 2.297 . S
Mn468 O492 2.385 . S
Mn468 O493 2.209 . S
Mn468 O494 2.094 . S
Mn469 O474 2.121 . S
Mn469 N476 2.257 . S
Mn469 N485 2.282 . S
Mn469 O493 2.215 . S
Mn469 O495 2.117 . S
C470 O492 1.234 . S
C470 O493 1.283 . S
C471 O483 1.281 . S
C471 O484 1.236 . S
C472 O494 1.240 . S
C472 O495 1.264 . S
O473 Mn468 2.095 . S
O473 C482 1.250 . S
O474 Mn469 2.121 . S
O474 C482 1.258 . S
C475 N476 1.326 . S
C475 C479 1.460 . S
C475 H481 0.929 . S
N476 Mn469 2.257 . S
N476 C475 1.326 . S
N476 C480 1.362 . S
C477 C478 1.258 . S
C477 C480 1.431 . S
C477 C497 1.449 . S
C478 C477 1.258 . S
C478 C479 1.477 . S
C478 H498 0.931 . S
C479 C475 1.460 . S
C479 C478 1.477 . S
C479 H499 0.930 . S
C480 N476 1.362 . S
C480 C477 1.431 . S
C480 C490 1.476 . S
H481 C475 0.929 . S
C482 O473 1.250 . S
C482 O474 1.258 . S
O483 Mn468 2.162 . S
O483 C471 1.281 . S
O484 Mn468 2.297 . S
O484 C471 1.236 . S
N485 Mn469 2.282 . S
N485 C486 1.328 . S
N485 C490 1.318 . S
C486 N485 1.328 . S
C486 C487 1.457 . S
C486 H491 0.929 . S
C487 C486 1.457 . S
C487 C488 1.291 . S
C487 H500 0.931 . S
C488 C487 1.291 . S
C488 C489 1.373 . S
C488 H501 0.929 . S
C489 C488 1.373 . S
C489 C490 1.396 . S
C489 C496 1.403 . S
C490 C480 1.476 . S
C490 N485 1.318 . S
C490 C489 1.396 . S
H491 C486 0.929 . S
O492 Mn468 2.385 . S
O492 C470 1.234 . S
O493 Mn468 2.209 . S
O493 Mn469 2.215 . S
O493 C470 1.283 . S
O494 Mn468 2.094 . S
O494 C472 1.240 . S
O495 Mn469 2.117 . S
O495 C472 1.264 . S
C496 C489 1.403 . S
C496 C497 1.399 . S
C496 H502 0.929 . S
C497 C477 1.449 . S
C497 C496 1.399 . S
C497 H503 0.930 . S
H498 C478 0.931 . S
H499 C479 0.930 . S
H500 C487 0.931 . S
H501 C488 0.929 . S
H502 C496 0.929 . S
H503 C497 0.930 . S
Mn504 O509 2.095 . S
Mn504 O519 2.162 . S
Mn504 O520 2.297 . S
Mn504 O528 2.385 . S
Mn504 O529 2.209 . S
Mn504 O530 2.094 . S
Mn505 O510 2.121 . S
Mn505 N512 2.257 . S
Mn505 N521 2.282 . S
Mn505 O529 2.215 . S
Mn505 O531 2.117 . S
C506 O528 1.234 . S
C506 O529 1.283 . S
C507 O519 1.281 . S
C507 O520 1.236 . S
C508 O530 1.240 . S
C508 O531 1.264 . S
O509 Mn504 2.095 . S
O509 C518 1.250 . S
O510 Mn505 2.121 . S
O510 C518 1.258 . S
C511 N512 1.326 . S
C511 C515 1.460 . S
C511 H517 0.929 . S
N512 Mn505 2.257 . S
N512 C511 1.326 . S
N512 C516 1.362 . S
C513 C514 1.258 . S
C513 C516 1.431 . S
C513 C533 1.449 . S
C514 C513 1.258 . S
C514 C515 1.477 . S
C514 H534 0.931 . S
C515 C511 1.460 . S
C515 C514 1.477 . S
C515 H535 0.930 . S
C516 N512 1.362 . S
C516 C513 1.431 . S
C516 C526 1.476 . S
H517 C511 0.929 . S
C518 O509 1.250 . S
C518 O510 1.258 . S
O519 Mn504 2.162 . S
O519 C507 1.281 . S
O520 Mn504 2.297 . S
O520 C507 1.236 . S
N521 Mn505 2.282 . S
N521 C522 1.328 . S
N521 C526 1.318 . S
C522 N521 1.328 . S
C522 C523 1.457 . S
C522 H527 0.929 . S
C523 C522 1.457 . S
C523 C524 1.291 . S
C523 H536 0.931 . S
C524 C523 1.291 . S
C524 C525 1.373 . S
C524 H537 0.929 . S
C525 C524 1.373 . S
C525 C526 1.396 . S
C525 C532 1.403 . S
C526 C516 1.476 . S
C526 N521 1.318 . S
C526 C525 1.396 . S
H527 C522 0.929 . S
O528 Mn504 2.385 . S
O528 C506 1.234 . S
O529 Mn504 2.209 . S
O529 Mn505 2.215 . S
O529 C506 1.283 . S
O530 Mn504 2.094 . S
O530 C508 1.240 . S
O531 Mn505 2.117 . S
O531 C508 1.264 . S
C532 C525 1.403 . S
C532 C533 1.399 . S
C532 H538 0.929 . S
C533 C513 1.449 . S
C533 C532 1.399 . S
C533 H539 0.930 . S
H534 C514 0.931 . S
H535 C515 0.930 . S
H536 C523 0.931 . S
H537 C524 0.929 . S
H538 C532 0.929 . S
H539 C533 0.930 . S
Mn540 O545 2.095 . S
Mn540 O555 2.162 . S
Mn540 O556 2.297 . S
Mn540 O564 2.385 . S
Mn540 O565 2.209 . S
Mn540 O566 2.094 . S
Mn541 O546 2.121 . S
Mn541 N548 2.257 . S
Mn541 N557 2.282 . S
Mn541 O565 2.215 . S
Mn541 O567 2.117 . S
C542 O564 1.234 . S
C542 O565 1.283 . S
C543 O555 1.281 . S
C543 O556 1.236 . S
C544 O566 1.240 . S
C544 O567 1.264 . S
O545 Mn540 2.095 . S
O545 C554 1.250 . S
O546 Mn541 2.121 . S
O546 C554 1.258 . S
C547 N548 1.326 . S
C547 C551 1.460 . S
C547 H553 0.929 . S
N548 Mn541 2.257 . S
N548 C547 1.326 . S
N548 C552 1.362 . S
C549 C550 1.258 . S
C549 C552 1.431 . S
C549 C569 1.449 . S
C550 C549 1.258 . S
C550 C551 1.477 . S
C550 H570 0.931 . S
C551 C547 1.460 . S
C551 C550 1.477 . S
C551 H571 0.930 . S
C552 N548 1.362 . S
C552 C549 1.431 . S
C552 C562 1.476 . S
H553 C547 0.929 . S
C554 O545 1.250 . S
C554 O546 1.258 . S
O555 Mn540 2.162 . S
O555 C543 1.281 . S
O556 Mn540 2.297 . S
O556 C543 1.236 . S
N557 Mn541 2.282 . S
N557 C558 1.328 . S
N557 C562 1.318 . S
C558 N557 1.328 . S
C558 C559 1.457 . S
C558 H563 0.929 . S
C559 C558 1.457 . S
C559 C560 1.291 . S
C559 H572 0.931 . S
C560 C559 1.291 . S
C560 C561 1.373 . S
C560 H573 0.929 . S
C561 C560 1.373 . S
C561 C562 1.396 . S
C561 C568 1.403 . S
C562 C552 1.476 . S
C562 N557 1.318 . S
C562 C561 1.396 . S
H563 C558 0.929 . S
O564 Mn540 2.385 . S
O564 C542 1.234 . S
O565 Mn540 2.209 . S
O565 Mn541 2.215 . S
O565 C542 1.283 . S
O566 Mn540 2.094 . S
O566 C544 1.240 . S
O567 Mn541 2.117 . S
O567 C544 1.264 . S
C568 C561 1.403 . S
C568 C569 1.399 . S
C568 H574 0.929 . S
C569 C549 1.449 . S
C569 C568 1.399 . S
C569 H575 0.930 . S
H570 C550 0.931 . S
H571 C551 0.930 . S
H572 C559 0.931 . S
H573 C560 0.929 . S
H574 C568 0.929 . S
H575 C569 0.930 . S
H576 C584 0.929 . S
H577 C586 0.930 . S
H578 C588 0.930 . S
H579 C591 0.929 . S
H580 C594 0.930 . S
H581 C596 0.960 . S
H582 C596 0.960 . S
H583 C596 0.960 . S
C584 H576 0.929 . S
C584 C585 1.377 . S
C584 C586 1.384 . S
C585 C584 1.377 . S
C585 C591 1.390 . S
C586 H577 0.930 . S
C586 C584 1.384 . S
C586 C587 1.372 . S
C587 C586 1.372 . S
C587 C588 1.400 . S
C587 C592 1.490 . S
C588 H578 0.930 . S
C588 C587 1.400 . S
C588 C591 1.386 . S
H589 C605 0.930 . S
H590 C606 0.931 . S
C591 H579 0.929 . S
C591 C585 1.390 . S
C591 C588 1.386 . S
C592 C587 1.490 . S
C592 C594 1.395 . S
C592 C595 1.403 . S
H593 C599 0.930 . S
C594 H580 0.930 . S
C594 C592 1.395 . S
C594 C597 1.403 . S
C595 C592 1.403 . S
C595 C596 1.524 . S
C595 C599 1.400 . S
C596 H581 0.960 . S
C596 H582 0.960 . S
C596 H583 0.960 . S
C596 C595 1.524 . S
C597 C594 1.403 . S
C597 C598 1.392 . S
C597 C601 1.495 . S
C598 C597 1.392 . S
C598 C599 1.385 . S
C598 C600 1.478 . S
C599 H593 0.930 . S
C599 C595 1.400 . S
C599 C598 1.385 . S
C600 C598 1.478 . S
C600 C602 1.381 . S
C600 C606 1.383 . S
C601 C597 1.495 . S
C601 H607 0.959 . S
C601 H608 0.961 . S
C601 H609 0.960 . S
C602 C600 1.381 . S
C602 C603 1.394 . S
C602 H610 0.930 . S
C603 C602 1.394 . S
C603 C604 1.383 . S
C603 H611 0.929 . S
C604 C603 1.383 . S
C604 C605 1.377 . S
C605 H589 0.930 . S
C605 C604 1.377 . S
C605 C606 1.379 . S
C606 H590 0.931 . S
C606 C600 1.383 . S
C606 C605 1.379 . S
H607 C601 0.959 . S
H608 C601 0.961 . S
H609 C601 0.960 . S
H610 C602 0.930 . S
H611 C603 0.929 . S
H612 C620 0.929 . S
H613 C622 0.930 . S
H614 C624 0.930 . S
H615 C627 0.929 . S
H616 C630 0.930 . S
H617 C632 0.960 . S
H618 C632 0.960 . S
H619 C632 0.960 . S
C620 H612 0.929 . S
C620 C621 1.377 . S
C620 C622 1.384 . S
C621 C620 1.377 . S
C621 C627 1.390 . S
C622 H613 0.930 . S
C622 C620 1.384 . S
C622 C623 1.372 . S
C623 C622 1.372 . S
C623 C624 1.400 . S
C623 C628 1.490 . S
C624 H614 0.930 . S
C624 C623 1.400 . S
C624 C627 1.386 . S
H625 C641 0.930 . S
H626 C642 0.931 . S
C627 H615 0.929 . S
C627 C621 1.390 . S
C627 C624 1.386 . S
C628 C623 1.490 . S
C628 C630 1.395 . S
C628 C631 1.403 . S
H629 C635 0.930 . S
C630 H616 0.930 . S
C630 C628 1.395 . S
C630 C633 1.403 . S
C631 C628 1.403 . S
C631 C632 1.524 . S
C631 C635 1.400 . S
C632 H617 0.960 . S
C632 H618 0.960 . S
C632 H619 0.960 . S
C632 C631 1.524 . S
C633 C630 1.403 . S
C633 C634 1.392 . S
C633 C637 1.495 . S
C634 C633 1.392 . S
C634 C635 1.385 . S
C634 C636 1.478 . S
C635 H629 0.930 . S
C635 C631 1.400 . S
C635 C634 1.385 . S
C636 C634 1.478 . S
C636 C638 1.381 . S
C636 C642 1.383 . S
C637 C633 1.495 . S
C637 H643 0.959 . S
C637 H644 0.961 . S
C637 H645 0.960 . S
C638 C636 1.381 . S
C638 C639 1.394 . S
C638 H646 0.930 . S
C639 C638 1.394 . S
C639 C640 1.383 . S
C639 H647 0.929 . S
C640 C639 1.383 . S
C640 C641 1.377 . S
C641 H625 0.930 . S
C641 C640 1.377 . S
C641 C642 1.379 . S
C642 H626 0.931 . S
C642 C636 1.383 . S
C642 C641 1.379 . S
H643 C637 0.959 . S
H644 C637 0.961 . S
H645 C637 0.960 . S
H646 C638 0.930 . S
H647 C639 0.929 . S
H648 C656 0.929 . S
H649 C658 0.930 . S
H650 C660 0.930 . S
H651 C663 0.929 . S
H652 C666 0.930 . S
H653 C668 0.960 . S
H654 C668 0.960 . S
H655 C668 0.960 . S
C656 H648 0.929 . S
C656 C657 1.377 . S
C656 C658 1.384 . S
C657 C656 1.377 . S
C657 C663 1.390 . S
C658 H649 0.930 . S
C658 C656 1.384 . S
C658 C659 1.372 . S
C659 C658 1.372 . S
C659 C660 1.400 . S
C659 C664 1.490 . S
C660 H650 0.930 . S
C660 C659 1.400 . S
C660 C663 1.386 . S
H661 C677 0.930 . S
H662 C678 0.931 . S
C663 H651 0.929 . S
C663 C657 1.390 . S
C663 C660 1.386 . S
C664 C659 1.490 . S
C664 C666 1.395 . S
C664 C667 1.403 . S
H665 C671 0.930 . S
C666 H652 0.930 . S
C666 C664 1.395 . S
C666 C669 1.403 . S
C667 C664 1.403 . S
C667 C668 1.524 . S
C667 C671 1.400 . S
C668 H653 0.960 . S
C668 H654 0.960 . S
C668 H655 0.960 . S
C668 C667 1.524 . S
C669 C666 1.403 . S
C669 C670 1.392 . S
C669 C673 1.495 . S
C670 C669 1.392 . S
C670 C671 1.385 . S
C670 C672 1.478 . S
C671 H665 0.930 . S
C671 C667 1.400 . S
C671 C670 1.385 . S
C672 C670 1.478 . S
C672 C674 1.381 . S
C672 C678 1.383 . S
C673 C669 1.495 . S
C673 H679 0.959 . S
C673 H680 0.961 . S
C673 H681 0.960 . S
C674 C672 1.381 . S
C674 C675 1.394 . S
C674 H682 0.930 . S
C675 C674 1.394 . S
C675 C676 1.383 . S
C675 H683 0.929 . S
C676 C675 1.383 . S
C676 C677 1.377 . S
C677 H661 0.930 . S
C677 C676 1.377 . S
C677 C678 1.379 . S
C678 H662 0.931 . S
C678 C672 1.383 . S
C678 C677 1.379 . S
H679 C673 0.959 . S
H680 C673 0.961 . S
H681 C673 0.960 . S
H682 C674 0.930 . S
H683 C675 0.929 . S
H684 C692 0.929 . S
H685 C694 0.930 . S
H686 C696 0.930 . S
H687 C699 0.929 . S
H688 C702 0.930 . S
H689 C704 0.960 . S
H690 C704 0.960 . S
H691 C704 0.960 . S
C692 H684 0.929 . S
C692 C693 1.377 . S
C692 C694 1.384 . S
C693 C692 1.377 . S
C693 C699 1.390 . S
C694 H685 0.930 . S
C694 C692 1.384 . S
C694 C695 1.372 . S
C695 C694 1.372 . S
C695 C696 1.400 . S
C695 C700 1.490 . S
C696 H686 0.930 . S
C696 C695 1.400 . S
C696 C699 1.386 . S
H697 C713 0.930 . S
H698 C714 0.931 . S
C699 H687 0.929 . S
C699 C693 1.390 . S
C699 C696 1.386 . S
C700 C695 1.490 . S
C700 C702 1.395 . S
C700 C703 1.403 . S
H701 C707 0.930 . S
C702 H688 0.930 . S
C702 C700 1.395 . S
C702 C705 1.403 . S
C703 C700 1.403 . S
C703 C704 1.524 . S
C703 C707 1.400 . S
C704 H689 0.960 . S
C704 H690 0.960 . S
C704 H691 0.960 . S
C704 C703 1.524 . S
C705 C702 1.403 . S
C705 C706 1.392 . S
C705 C709 1.495 . S
C706 C705 1.392 . S
C706 C707 1.385 . S
C706 C708 1.478 . S
C707 H701 0.930 . S
C707 C703 1.400 . S
C707 C706 1.385 . S
C708 C706 1.478 . S
C708 C710 1.381 . S
C708 C714 1.383 . S
C709 C705 1.495 . S
C709 H715 0.959 . S
C709 H716 0.961 . S
C709 H717 0.960 . S
C710 C708 1.381 . S
C710 C711 1.394 . S
C710 H718 0.930 . S
C711 C710 1.394 . S
C711 C712 1.383 . S
C711 H719 0.929 . S
C712 C711 1.383 . S
C712 C713 1.377 . S
C713 H697 0.930 . S
C713 C712 1.377 . S
C713 C714 1.379 . S
C714 H698 0.931 . S
C714 C708 1.383 . S
C714 C713 1.379 . S
H715 C709 0.959 . S
H716 C709 0.961 . S
H717 C709 0.960 . S
H718 C710 0.930 . S
H719 C711 0.929 . S
H720 C728 0.929 . S
H721 C730 0.930 . S
H722 C732 0.930 . S
H723 C735 0.929 . S
H724 C738 0.930 . S
H725 C740 0.960 . S
H726 C740 0.960 . S
H727 C740 0.960 . S
C728 H720 0.929 . S
C728 C729 1.377 . S
C728 C730 1.384 . S
C729 C728 1.377 . S
C729 C735 1.390 . S
C730 H721 0.930 . S
C730 C728 1.384 . S
C730 C731 1.372 . S
C731 C730 1.372 . S
C731 C732 1.400 . S
C731 C736 1.490 . S
C732 H722 0.930 . S
C732 C731 1.400 . S
C732 C735 1.386 . S
H733 C749 0.930 . S
H734 C750 0.931 . S
C735 H723 0.929 . S
C735 C729 1.390 . S
C735 C732 1.386 . S
C736 C731 1.490 . S
C736 C738 1.395 . S
C736 C739 1.403 . S
H737 C743 0.930 . S
C738 H724 0.930 . S
C738 C736 1.395 . S
C738 C741 1.403 . S
C739 C736 1.403 . S
C739 C740 1.524 . S
C739 C743 1.400 . S
C740 H725 0.960 . S
C740 H726 0.960 . S
C740 H727 0.960 . S
C740 C739 1.524 . S
C741 C738 1.403 . S
C741 C742 1.392 . S
C741 C745 1.495 . S
C742 C741 1.392 . S
C742 C743 1.385 . S
C742 C744 1.478 . S
C743 H737 0.930 . S
C743 C739 1.400 . S
C743 C742 1.385 . S
C744 C742 1.478 . S
C744 C746 1.381 . S
C744 C750 1.383 . S
C745 C741 1.495 . S
C745 H751 0.959 . S
C745 H752 0.961 . S
C745 H753 0.960 . S
C746 C744 1.381 . S
C746 C747 1.394 . S
C746 H754 0.930 . S
C747 C746 1.394 . S
C747 C748 1.383 . S
C747 H755 0.929 . S
C748 C747 1.383 . S
C748 C749 1.377 . S
C749 H733 0.930 . S
C749 C748 1.377 . S
C749 C750 1.379 . S
C750 H734 0.931 . S
C750 C744 1.383 . S
C750 C749 1.379 . S
H751 C745 0.959 . S
H752 C745 0.961 . S
H753 C745 0.960 . S
H754 C746 0.930 . S
H755 C747 0.929 . S
H756 C764 0.929 . S
H757 C766 0.930 . S
H758 C768 0.930 . S
H759 C771 0.929 . S
H760 C774 0.930 . S
H761 C776 0.960 . S
H762 C776 0.960 . S
H763 C776 0.960 . S
C764 H756 0.929 . S
C764 C765 1.377 . S
C764 C766 1.384 . S
C765 C764 1.377 . S
C765 C771 1.390 . S
C766 H757 0.930 . S
C766 C764 1.384 . S
C766 C767 1.372 . S
C767 C766 1.372 . S
C767 C768 1.400 . S
C767 C772 1.490 . S
C768 H758 0.930 . S
C768 C767 1.400 . S
C768 C771 1.386 . S
H769 C785 0.930 . S
H770 C786 0.931 . S
C771 H759 0.929 . S
C771 C765 1.390 . S
C771 C768 1.386 . S
C772 C767 1.490 . S
C772 C774 1.395 . S
C772 C775 1.403 . S
H773 C779 0.930 . S
C774 H760 0.930 . S
C774 C772 1.395 . S
C774 C777 1.403 . S
C775 C772 1.403 . S
C775 C776 1.524 . S
C775 C779 1.400 . S
C776 H761 0.960 . S
C776 H762 0.960 . S
C776 H763 0.960 . S
C776 C775 1.524 . S
C777 C774 1.403 . S
C777 C778 1.392 . S
C777 C781 1.495 . S
C778 C777 1.392 . S
C778 C779 1.385 . S
C778 C780 1.478 . S
C779 H773 0.930 . S
C779 C775 1.400 . S
C779 C778 1.385 . S
C780 C778 1.478 . S
C780 C782 1.381 . S
C780 C786 1.383 . S
C781 C777 1.495 . S
C781 H787 0.959 . S
C781 H788 0.961 . S
C781 H789 0.960 . S
C782 C780 1.381 . S
C782 C783 1.394 . S
C782 H790 0.930 . S
C783 C782 1.394 . S
C783 C784 1.383 . S
C783 H791 0.929 . S
C784 C783 1.383 . S
C784 C785 1.377 . S
C785 H769 0.930 . S
C785 C784 1.377 . S
C785 C786 1.379 . S
C786 H770 0.931 . S
C786 C780 1.383 . S
C786 C785 1.379 . S
H787 C781 0.959 . S
H788 C781 0.961 . S
H789 C781 0.960 . S
H790 C782 0.930 . S
H791 C783 0.929 . S
H792 C800 0.929 . S
H793 C802 0.930 . S
H794 C804 0.930 . S
H795 C807 0.929 . S
H796 C810 0.930 . S
H797 C812 0.960 . S
H798 C812 0.960 . S
H799 C812 0.960 . S
C800 H792 0.929 . S
C800 C801 1.377 . S
C800 C802 1.384 . S
C801 C800 1.377 . S
C801 C807 1.390 . S
C802 H793 0.930 . S
C802 C800 1.384 . S
C802 C803 1.372 . S
C803 C802 1.372 . S
C803 C804 1.400 . S
C803 C808 1.490 . S
C804 H794 0.930 . S
C804 C803 1.400 . S
C804 C807 1.386 . S
H805 C821 0.930 . S
H806 C822 0.931 . S
C807 H795 0.929 . S
C807 C801 1.390 . S
C807 C804 1.386 . S
C808 C803 1.490 . S
C808 C810 1.395 . S
C808 C811 1.403 . S
H809 C815 0.930 . S
C810 H796 0.930 . S
C810 C808 1.395 . S
C810 C813 1.403 . S
C811 C808 1.403 . S
C811 C812 1.524 . S
C811 C815 1.400 . S
C812 H797 0.960 . S
C812 H798 0.960 . S
C812 H799 0.960 . S
C812 C811 1.524 . S
C813 C810 1.403 . S
C813 C814 1.392 . S
C813 C817 1.495 . S
C814 C813 1.392 . S
C814 C815 1.385 . S
C814 C816 1.478 . S
C815 H809 0.930 . S
C815 C811 1.400 . S
C815 C814 1.385 . S
C816 C814 1.478 . S
C816 C818 1.381 . S
C816 C822 1.383 . S
C817 C813 1.495 . S
C817 H823 0.959 . S
C817 H824 0.961 . S
C817 H825 0.960 . S
C818 C816 1.381 . S
C818 C819 1.394 . S
C818 H826 0.930 . S
C819 C818 1.394 . S
C819 C820 1.383 . S
C819 H827 0.929 . S
C820 C819 1.383 . S
C820 C821 1.377 . S
C821 H805 0.930 . S
C821 C820 1.377 . S
C821 C822 1.379 . S
C822 H806 0.931 . S
C822 C816 1.383 . S
C822 C821 1.379 . S
H823 C817 0.959 . S
H824 C817 0.961 . S
H825 C817 0.960 . S
H826 C818 0.930 . S
H827 C819 0.929 . S
H828 C836 0.929 . S
H829 C838 0.930 . S
H830 C840 0.930 . S
H831 C843 0.929 . S
H832 C846 0.930 . S
H833 C848 0.960 . S
H834 C848 0.960 . S
H835 C848 0.960 . S
C836 H828 0.929 . S
C836 C837 1.377 . S
C836 C838 1.384 . S
C837 C836 1.377 . S
C837 C843 1.390 . S
C838 H829 0.930 . S
C838 C836 1.384 . S
C838 C839 1.372 . S
C839 C838 1.372 . S
C839 C840 1.400 . S
C839 C844 1.490 . S
C840 H830 0.930 . S
C840 C839 1.400 . S
C840 C843 1.386 . S
H841 C857 0.930 . S
H842 C858 0.931 . S
C843 H831 0.929 . S
C843 C837 1.390 . S
C843 C840 1.386 . S
C844 C839 1.490 . S
C844 C846 1.395 . S
C844 C847 1.403 . S
H845 C851 0.930 . S
C846 H832 0.930 . S
C846 C844 1.395 . S
C846 C849 1.403 . S
C847 C844 1.403 . S
C847 C848 1.524 . S
C847 C851 1.400 . S
C848 H833 0.960 . S
C848 H834 0.960 . S
C848 H835 0.960 . S
C848 C847 1.524 . S
C849 C846 1.403 . S
C849 C850 1.392 . S
C849 C853 1.495 . S
C850 C849 1.392 . S
C850 C851 1.385 . S
C850 C852 1.478 . S
C851 H845 0.930 . S
C851 C847 1.400 . S
C851 C850 1.385 . S
C852 C850 1.478 . S
C852 C854 1.381 . S
C852 C858 1.383 . S
C853 C849 1.495 . S
C853 H859 0.959 . S
C853 H860 0.961 . S
C853 H861 0.960 . S
C854 C852 1.381 . S
C854 C855 1.394 . S
C854 H862 0.930 . S
C855 C854 1.394 . S
C855 C856 1.383 . S
C855 H863 0.929 . S
C856 C855 1.383 . S
C856 C857 1.377 . S
C857 H841 0.930 . S
C857 C856 1.377 . S
C857 C858 1.379 . S
C858 H842 0.931 . S
C858 C852 1.383 . S
C858 C857 1.379 . S
H859 C853 0.959 . S
H860 C853 0.961 . S
H861 C853 0.960 . S
H862 C854 0.930 . S
H863 C855 0.929 . S
H864 C872 0.929 . S
H865 C874 0.930 . S
H866 C876 0.930 . S
H867 C879 0.929 . S
H868 C882 0.930 . S
H869 C884 0.960 . S
H870 C884 0.960 . S
H871 C884 0.960 . S
C872 H864 0.929 . S
C872 C873 1.377 . S
C872 C874 1.384 . S
C873 C872 1.377 . S
C873 C879 1.390 . S
C874 H865 0.930 . S
C874 C872 1.384 . S
C874 C875 1.372 . S
C875 C874 1.372 . S
C875 C876 1.400 . S
C875 C880 1.490 . S
C876 H866 0.930 . S
C876 C875 1.400 . S
C876 C879 1.386 . S
H877 C893 0.930 . S
H878 C894 0.931 . S
C879 H867 0.929 . S
C879 C873 1.390 . S
C879 C876 1.386 . S
C880 C875 1.490 . S
C880 C882 1.395 . S
C880 C883 1.403 . S
H881 C887 0.930 . S
C882 H868 0.930 . S
C882 C880 1.395 . S
C882 C885 1.403 1_565 S
C883 C880 1.403 . S
C883 C884 1.524 . S
C883 C887 1.400 1_565 S
C884 H869 0.960 . S
C884 H870 0.960 . S
C884 H871 0.960 . S
C884 C883 1.524 . S
C885 C882 1.403 1_545 S
C885 C886 1.392 . S
C885 C889 1.495 . S
C886 C885 1.392 . S
C886 C887 1.385 . S
C886 C888 1.478 . S
C887 H881 0.930 . S
C887 C883 1.400 1_545 S
C887 C886 1.385 . S
C888 C886 1.478 . S
C888 C890 1.381 . S
C888 C894 1.383 . S
C889 C885 1.495 . S
C889 H895 0.959 . S
C889 H896 0.961 . S
C889 H897 0.960 . S
C890 C888 1.381 . S
C890 C891 1.394 . S
C890 H898 0.930 . S
C891 C890 1.394 . S
C891 C892 1.383 . S
C891 H899 0.929 . S
C892 C891 1.383 . S
C892 C893 1.377 . S
C893 H877 0.930 . S
C893 C892 1.377 . S
C893 C894 1.379 . S
C894 H878 0.931 . S
C894 C888 1.383 . S
C894 C893 1.379 . S
H895 C889 0.959 . S
H896 C889 0.961 . S
H897 C889 0.960 . S
H898 C890 0.930 . S
H899 C891 0.929 . S
H900 C908 0.929 . S
H901 C910 0.930 . S
H902 C912 0.930 . S
H903 C915 0.929 . S
H904 C918 0.930 . S
H905 C920 0.960 . S
H906 C920 0.960 . S
H907 C920 0.960 . S
C908 H900 0.929 . S
C908 C909 1.377 . S
C908 C910 1.384 . S
C909 C908 1.377 . S
C909 C915 1.390 . S
C910 H901 0.930 . S
C910 C908 1.384 . S
C910 C911 1.372 . S
C911 C910 1.372 . S
C911 C912 1.400 . S
C911 C916 1.490 . S
C912 H902 0.930 . S
C912 C911 1.400 . S
C912 C915 1.386 . S
H913 C929 0.930 . S
H914 C930 0.931 . S
C915 H903 0.929 . S
C915 C909 1.390 . S
C915 C912 1.386 . S
C916 C911 1.490 . S
C916 C918 1.395 . S
C916 C919 1.403 . S
H917 C923 0.930 . S
C918 H904 0.930 . S
C918 C916 1.395 . S
C918 C921 1.403 . S
C919 C916 1.403 . S
C919 C920 1.524 . S
C919 C923 1.400 . S
C920 H905 0.960 . S
C920 H906 0.960 . S
C920 H907 0.960 . S
C920 C919 1.524 . S
C921 C918 1.403 . S
C921 C922 1.392 . S
C921 C925 1.495 . S
C922 C921 1.392 . S
C922 C923 1.385 . S
C922 C924 1.478 . S
C923 H917 0.930 . S
C923 C919 1.400 . S
C923 C922 1.385 . S
C924 C922 1.478 . S
C924 C926 1.381 . S
C924 C930 1.383 . S
C925 C921 1.495 . S
C925 H931 0.959 . S
C925 H932 0.961 . S
C925 H933 0.960 . S
C926 C924 1.381 . S
C926 C927 1.394 . S
C926 H934 0.930 . S
C927 C926 1.394 . S
C927 C928 1.383 . S
C927 H935 0.929 . S
C928 C927 1.383 . S
C928 C929 1.377 . S
C929 H913 0.930 . S
C929 C928 1.377 . S
C929 C930 1.379 . S
C930 H914 0.931 . S
C930 C924 1.383 . S
C930 C929 1.379 . S
H931 C925 0.959 . S
H932 C925 0.961 . S
H933 C925 0.960 . S
H934 C926 0.930 . S
H935 C927 0.929 . S
H936 C944 0.929 . S
H937 C946 0.930 . S
H938 C948 0.930 . S
H939 C951 0.929 . S
H940 C954 0.930 . S
H941 C956 0.960 . S
H942 C956 0.960 . S
H943 C956 0.960 . S
C944 H936 0.929 . S
C944 C945 1.377 . S
C944 C946 1.384 . S
C945 C944 1.377 . S
C945 C951 1.390 . S
C946 H937 0.930 . S
C946 C944 1.384 . S
C946 C947 1.372 . S
C947 C946 1.372 . S
C947 C948 1.400 . S
C947 C952 1.490 . S
C948 H938 0.930 . S
C948 C947 1.400 . S
C948 C951 1.386 . S
H949 C965 0.930 . S
H950 C966 0.931 . S
C951 H939 0.929 . S
C951 C945 1.390 . S
C951 C948 1.386 . S
C952 C947 1.490 . S
C952 C954 1.395 . S
C952 C955 1.403 . S
H953 C959 0.938 . S
C954 H940 0.930 . S
C954 C952 1.395 . S
C954 C957 1.403 1_556 S
C955 C952 1.403 . S
C955 C956 1.524 . S
C955 C959 1.375 1_556 S
C956 H941 0.960 . S
C956 H942 0.960 . S
C956 H943 0.960 . S
C956 C955 1.524 . S
C957 C954 1.403 1_554 S
C957 C958 1.392 . S
C957 C961 1.495 . S
C958 C957 1.392 . S
C958 C959 1.404 . S
C958 C960 1.478 . S
C959 H953 0.938 . S
C959 C955 1.375 1_554 S
C959 C958 1.404 . S
C960 C958 1.478 . S
C960 C962 1.381 . S
C960 C966 1.383 . S
C961 C957 1.495 . S
C961 H967 0.959 . S
C961 H968 0.961 . S
C961 H969 0.960 . S
C962 C960 1.381 . S
C962 C963 1.394 . S
C962 H970 0.930 . S
C963 C962 1.394 . S
C963 C964 1.383 . S
C963 H971 0.929 . S
C964 C963 1.383 . S
C964 C965 1.377 . S
C965 H949 0.930 . S
C965 C964 1.377 . S
C965 C966 1.379 . S
C966 H950 0.931 . S
C966 C960 1.383 . S
C966 C965 1.379 . S
H967 C961 0.959 . S
H968 C961 0.961 . S
H969 C961 0.960 . S
H970 C962 0.930 . S
H971 C963 0.929 . S
H972 C980 0.929 . S
H973 C982 0.930 . S
H974 C984 0.930 . S
H975 C987 0.929 . S
H976 C990 0.930 . S
H977 C992 0.960 1_556 S
H978 C992 0.960 . S
H979 C992 0.960 . S
C980 H972 0.929 . S
C980 C981 1.377 . S
C980 C982 1.384 . S
C981 C980 1.377 . S
C981 C987 1.390 . S
C982 H973 0.930 . S
C982 C980 1.384 . S
C982 C983 1.372 . S
C983 C982 1.372 . S
C983 C984 1.400 . S
C983 C988 1.490 . S
C984 H974 0.930 . S
C984 C983 1.400 . S
C984 C987 1.386 . S
H985 C1001 0.930 . S
H986 C1002 0.931 . S
C987 H975 0.929 . S
C987 C981 1.390 . S
C987 C984 1.386 . S
C988 C983 1.490 . S
C988 C990 1.395 . S
C988 C991 1.403 . S
H989 C995 0.930 . S
C990 H976 0.930 . S
C990 C988 1.395 . S
C990 C993 1.395 1_554 S
C991 C988 1.403 . S
C991 C992 1.524 . S
C991 C995 1.400 1_554 S
C992 H977 0.960 1_554 S
C992 H978 0.960 . S
C992 H979 0.960 . S
C992 C991 1.524 . S
C993 C990 1.395 1_556 S
C993 C994 1.400 . S
C993 C997 1.496 . S
C994 C993 1.400 . S
C994 C995 1.385 . S
C994 C996 1.478 . S
C995 H989 0.930 . S
C995 C991 1.400 1_556 S
C995 C994 1.385 . S
C996 C994 1.478 . S
C996 C998 1.381 . S
C996 C1002 1.383 . S
C997 C993 1.496 . S
C997 H1003 0.959 1_556 S
C997 H1004 0.961 . S
C997 H1005 0.960 . S
C998 C996 1.381 . S
C998 C999 1.394 . S
C998 H1006 0.930 . S
C999 C998 1.394 . S
C999 C1000 1.383 . S
C999 H1007 0.929 . S
C1000 C999 1.383 . S
C1000 C1001 1.377 . S
C1001 H985 0.930 . S
C1001 C1000 1.377 . S
C1001 C1002 1.379 . S
C1002 H986 0.931 . S
C1002 C996 1.383 . S
C1002 C1001 1.379 . S
H1003 C997 0.959 1_554 S
H1004 C997 0.961 . S
H1005 C997 0.960 . S
H1006 C998 0.930 . S
H1007 C999 0.929 . S
H1008 C1016 0.929 . S
H1009 C1018 0.930 . S
H1010 C1020 0.930 . S
H1011 C1023 0.929 . S
H1012 C1026 0.930 . S
H1013 C1028 0.960 . S
H1014 C1028 0.960 . S
H1015 C1028 0.960 . S
C1016 H1008 0.929 . S
C1016 C1017 1.377 . S
C1016 C1018 1.384 . S
C1017 C1016 1.377 . S
C1017 C1023 1.390 . S
C1018 H1009 0.930 . S
C1018 C1016 1.384 . S
C1018 C1019 1.372 . S
C1019 C1018 1.372 . S
C1019 C1020 1.400 . S
C1019 C1024 1.490 . S
C1020 H1010 0.930 . S
C1020 C1019 1.400 . S
C1020 C1023 1.386 . S
H1021 C1037 0.930 . S
H1022 C1038 0.931 . S
C1023 H1011 0.929 . S
C1023 C1017 1.390 . S
C1023 C1020 1.386 . S
C1024 C1019 1.490 . S
C1024 C1026 1.395 . S
C1024 C1027 1.403 . S
H1025 C1031 0.930 . S
C1026 H1012 0.930 . S
C1026 C1024 1.395 . S
C1026 C1029 1.403 . S
C1027 C1024 1.403 . S
C1027 C1028 1.524 . S
C1027 C1031 1.400 . S
C1028 H1013 0.960 . S
C1028 H1014 0.960 . S
C1028 H1015 0.960 . S
C1028 C1027 1.524 . S
C1029 C1026 1.403 . S
C1029 C1030 1.392 . S
C1029 C1033 1.495 . S
C1030 C1029 1.392 . S
C1030 C1031 1.385 . S
C1030 C1032 1.478 . S
C1031 H1025 0.930 . S
C1031 C1027 1.400 . S
C1031 C1030 1.385 . S
C1032 C1030 1.478 . S
C1032 C1034 1.381 . S
C1032 C1038 1.383 . S
C1033 C1029 1.495 . S
C1033 H1039 0.959 . S
C1033 H1040 0.961 . S
C1033 H1041 0.960 . S
C1034 C1032 1.381 . S
C1034 C1035 1.394 . S
C1034 H1042 0.930 . S
C1035 C1034 1.394 . S
C1035 C1036 1.383 . S
C1035 H1043 0.929 . S
C1036 C1035 1.383 . S
C1036 C1037 1.377 . S
C1037 H1021 0.930 . S
C1037 C1036 1.377 . S
C1037 C1038 1.379 . S
C1038 H1022 0.931 . S
C1038 C1032 1.383 . S
C1038 C1037 1.379 . S
H1039 C1033 0.959 . S
H1040 C1033 0.961 . S
H1041 C1033 0.960 . S
H1042 C1034 0.930 . S
H1043 C1035 0.929 . S
H1044 C1052 0.929 . S
H1045 C1054 0.930 . S
H1046 C1056 0.930 . S
H1047 C1059 0.929 . S
H1048 C1062 0.930 . S
H1049 C1064 0.960 . S
H1050 C1064 0.960 . S
H1051 C1064 0.960 . S
C1052 H1044 0.929 . S
C1052 C1053 1.377 . S
C1052 C1054 1.384 . S
C1053 C1052 1.377 . S
C1053 C1059 1.390 . S
C1054 H1045 0.930 . S
C1054 C1052 1.384 . S
C1054 C1055 1.372 . S
C1055 C1054 1.372 . S
C1055 C1056 1.400 . S
C1055 C1060 1.490 . S
C1056 H1046 0.930 . S
C1056 C1055 1.400 . S
C1056 C1059 1.386 . S
H1057 C1073 0.930 . S
H1058 C1074 0.931 . S
C1059 H1047 0.929 . S
C1059 C1053 1.390 . S
C1059 C1056 1.386 . S
C1060 C1055 1.490 . S
C1060 C1062 1.395 . S
C1060 C1063 1.403 . S
H1061 C1067 0.930 . S
C1062 H1048 0.930 . S
C1062 C1060 1.395 . S
C1062 C1065 1.403 . S
C1063 C1060 1.403 . S
C1063 C1064 1.524 . S
C1063 C1067 1.400 . S
C1064 H1049 0.960 . S
C1064 H1050 0.960 . S
C1064 H1051 0.960 . S
C1064 C1063 1.524 . S
C1065 C1062 1.403 . S
C1065 C1066 1.392 . S
C1065 C1069 1.495 . S
C1066 C1065 1.392 . S
C1066 C1067 1.385 . S
C1066 C1068 1.478 . S
C1067 H1061 0.930 . S
C1067 C1063 1.400 . S
C1067 C1066 1.385 . S
C1068 C1066 1.478 . S
C1068 C1070 1.381 . S
C1068 C1074 1.383 . S
C1069 C1065 1.495 . S
C1069 H1075 0.959 . S
C1069 H1076 0.961 . S
C1069 H1077 0.960 . S
C1070 C1068 1.381 . S
C1070 C1071 1.394 . S
C1070 H1078 0.930 . S
C1071 C1070 1.394 . S
C1071 C1072 1.383 . S
C1071 H1079 0.929 . S
C1072 C1071 1.383 . S
C1072 C1073 1.377 . S
C1073 H1057 0.930 . S
C1073 C1072 1.377 . S
C1073 C1074 1.379 . S
C1074 H1058 0.931 . S
C1074 C1068 1.383 . S
C1074 C1073 1.379 . S
H1075 C1069 0.959 . S
H1076 C1069 0.961 . S
H1077 C1069 0.960 . S
H1078 C1070 0.930 . S
H1079 C1071 0.929 . S
H1080 C1088 0.929 . S
H1081 C1090 0.930 . S
H1082 C1092 0.930 . S
H1083 C1095 0.929 . S
H1084 C1098 0.930 . S
H1085 C1100 0.960 . S
H1086 C1100 0.960 . S
H1087 C1100 0.960 . S
C1088 H1080 0.929 . S
C1088 C1089 1.377 . S
C1088 C1090 1.384 . S
C1089 C1088 1.377 . S
C1089 C1095 1.390 . S
C1090 H1081 0.930 . S
C1090 C1088 1.384 . S
C1090 C1091 1.372 . S
C1091 C1090 1.372 . S
C1091 C1092 1.400 . S
C1091 C1096 1.490 . S
C1092 H1082 0.930 . S
C1092 C1091 1.400 . S
C1092 C1095 1.386 . S
H1093 C1109 0.930 . S
H1094 C1110 0.931 . S
C1095 H1083 0.929 . S
C1095 C1089 1.390 . S
C1095 C1092 1.386 . S
C1096 C1091 1.490 . S
C1096 C1098 1.395 . S
C1096 C1099 1.403 . S
H1097 C1103 0.930 . S
C1098 H1084 0.930 . S
C1098 C1096 1.395 . S
C1098 C1101 1.403 1_655 S
C1099 C1096 1.403 . S
C1099 C1100 1.524 . S
C1099 C1103 1.400 . S
C1100 H1085 0.960 . S
C1100 H1086 0.960 . S
C1100 H1087 0.960 . S
C1100 C1099 1.524 . S
C1101 C1098 1.403 1_455 S
C1101 C1102 1.392 . S
C1101 C1105 1.495 . S
C1102 C1101 1.392 . S
C1102 C1103 1.385 1_455 S
C1102 C1104 1.478 . S
C1103 H1097 0.930 . S
C1103 C1099 1.400 . S
C1103 C1102 1.385 1_655 S
C1104 C1102 1.478 . S
C1104 C1106 1.381 . S
C1104 C1110 1.383 . S
C1105 C1101 1.495 . S
C1105 H1111 0.959 . S
C1105 H1112 0.961 . S
C1105 H1113 0.960 . S
C1106 C1104 1.381 . S
C1106 C1107 1.394 . S
C1106 H1114 0.930 . S
C1107 C1106 1.394 . S
C1107 C1108 1.383 . S
C1107 H1115 0.929 . S
C1108 C1107 1.383 . S
C1108 C1109 1.377 . S
C1109 H1093 0.930 . S
C1109 C1108 1.377 . S
C1109 C1110 1.379 . S
C1110 H1094 0.931 . S
C1110 C1104 1.383 . S
C1110 C1109 1.379 . S
H1111 C1105 0.959 . S
H1112 C1105 0.961 . S
H1113 C1105 0.960 . S
H1114 C1106 0.930 . S
H1115 C1107 0.929 . S
H1116 C1124 0.929 . S
H1117 C1126 0.930 . S
H1118 C1128 0.930 . S
H1119 C1131 0.929 . S
H1120 C1134 0.930 . S
H1121 C1136 0.960 . S
H1122 C1136 0.960 1_655 S
H1123 C1136 0.960 . S
C1124 H1116 0.929 . S
C1124 C1125 1.377 . S
C1124 C1126 1.384 . S
C1125 C1124 1.377 . S
C1125 C1131 1.390 . S
C1126 H1117 0.930 . S
C1126 C1124 1.384 . S
C1126 C1127 1.372 . S
C1127 C1126 1.372 . S
C1127 C1128 1.400 . S
C1127 C1132 1.490 . S
C1128 H1118 0.930 . S
C1128 C1127 1.400 . S
C1128 C1131 1.386 . S
H1129 C1145 0.930 . S
H1130 C1146 0.931 . S
C1131 H1119 0.929 . S
C1131 C1125 1.390 . S
C1131 C1128 1.386 . S
C1132 C1127 1.490 . S
C1132 C1134 1.395 . S
C1132 C1135 1.403 1_655 S
H1133 C1139 0.930 . S
C1134 H1120 0.930 . S
C1134 C1132 1.395 . S
C1134 C1137 1.403 1_655 S
C1135 C1132 1.403 1_455 S
C1135 C1136 1.524 . S
C1135 C1139 1.400 . S
C1136 H1121 0.960 . S
C1136 H1122 0.960 1_455 S
C1136 H1123 0.960 . S
C1136 C1135 1.524 . S
C1137 C1134 1.403 1_455 S
C1137 C1138 1.392 . S
C1137 C1141 1.495 . S
C1138 C1137 1.392 . S
C1138 C1139 1.385 . S
C1138 C1140 1.478 . S
C1139 H1133 0.930 . S
C1139 C1135 1.400 . S
C1139 C1138 1.385 . S
C1140 C1138 1.478 . S
C1140 C1142 1.381 . S
C1140 C1146 1.383 . S
C1141 C1137 1.495 . S
C1141 H1147 0.959 1_455 S
C1141 H1148 0.961 . S
C1141 H1149 0.960 . S
C1142 C1140 1.381 . S
C1142 C1143 1.394 . S
C1142 H1150 0.930 . S
C1143 C1142 1.394 . S
C1143 C1144 1.383 . S
C1143 H1151 0.929 . S
C1144 C1143 1.383 . S
C1144 C1145 1.377 . S
C1145 H1129 0.930 . S
C1145 C1144 1.377 . S
C1145 C1146 1.379 . S
C1146 H1130 0.931 . S
C1146 C1140 1.383 . S
C1146 C1145 1.379 . S
H1147 C1141 0.959 1_655 S
H1148 C1141 0.961 . S
H1149 C1141 0.960 . S
H1150 C1142 0.930 . S
H1151 C1143 0.929 . S
H1152 C1160 0.929 . S
H1153 C1162 0.930 . S
H1154 C1164 0.930 . S
H1155 C1167 0.929 . S
H1156 C1170 0.930 . S
H1157 C1172 0.960 . S
H1158 C1172 0.960 . S
H1159 C1172 0.960 . S
C1160 H1152 0.929 . S
C1160 C1161 1.377 . S
C1160 C1162 1.384 . S
C1161 C1160 1.377 . S
C1161 C1167 1.390 . S
C1162 H1153 0.930 . S
C1162 C1160 1.384 . S
C1162 C1163 1.372 . S
C1163 C1162 1.372 . S
C1163 C1164 1.400 . S
C1163 C1168 1.490 . S
C1164 H1154 0.930 . S
C1164 C1163 1.400 . S
C1164 C1167 1.386 . S
H1165 C1181 0.930 . S
H1166 C1182 0.931 . S
C1167 H1155 0.929 . S
C1167 C1161 1.390 . S
C1167 C1164 1.386 . S
C1168 C1163 1.490 . S
C1168 C1170 1.395 . S
C1168 C1171 1.403 . S
H1169 C1175 0.930 . S
C1170 H1156 0.930 . S
C1170 C1168 1.395 . S
C1170 C1173 1.403 . S
C1171 C1168 1.403 . S
C1171 C1172 1.524 . S
C1171 C1175 1.400 . S
C1172 H1157 0.960 . S
C1172 H1158 0.960 . S
C1172 H1159 0.960 . S
C1172 C1171 1.524 . S
C1173 C1170 1.403 . S
C1173 C1174 1.392 . S
C1173 C1177 1.495 . S
C1174 C1173 1.392 . S
C1174 C1175 1.385 . S
C1174 C1176 1.478 . S
C1175 H1169 0.930 . S
C1175 C1171 1.400 . S
C1175 C1174 1.385 . S
C1176 C1174 1.478 . S
C1176 C1178 1.381 . S
C1176 C1182 1.383 . S
C1177 C1173 1.495 . S
C1177 H1183 0.959 . S
C1177 H1184 0.961 . S
C1177 H1185 0.960 . S
C1178 C1176 1.381 . S
C1178 C1179 1.394 . S
C1178 H1186 0.930 . S
C1179 C1178 1.394 . S
C1179 C1180 1.383 . S
C1179 H1187 0.929 . S
C1180 C1179 1.383 . S
C1180 C1181 1.377 . S
C1181 H1165 0.930 . S
C1181 C1180 1.377 . S
C1181 C1182 1.379 . S
C1182 H1166 0.931 . S
C1182 C1176 1.383 . S
C1182 C1181 1.379 . S
H1183 C1177 0.959 . S
H1184 C1177 0.961 . S
H1185 C1177 0.960 . S
H1186 C1178 0.930 . S
H1187 C1179 0.929 . S
H1188 C1196 0.929 . S
H1189 C1198 0.930 . S
H1190 C1200 0.930 . S
H1191 C1203 0.929 . S
H1192 C1206 0.930 . S
H1193 C1208 0.960 . S
H1194 C1208 0.960 . S
H1195 C1208 0.960 . S
C1196 H1188 0.929 . S
C1196 C1197 1.377 . S
C1196 C1198 1.384 . S
C1197 C1196 1.377 . S
C1197 C1203 1.390 . S
C1198 H1189 0.930 . S
C1198 C1196 1.384 . S
C1198 C1199 1.372 . S
C1199 C1198 1.372 . S
C1199 C1200 1.400 . S
C1199 C1204 1.490 . S
C1200 H1190 0.930 . S
C1200 C1199 1.400 . S
C1200 C1203 1.386 . S
H1201 C1217 0.930 . S
H1202 C1218 0.931 . S
C1203 H1191 0.929 . S
C1203 C1197 1.390 . S
C1203 C1200 1.386 . S
C1204 C1199 1.490 . S
C1204 C1206 1.395 . S
C1204 C1207 1.403 . S
H1205 C1211 0.930 . S
C1206 H1192 0.930 . S
C1206 C1204 1.395 . S
C1206 C1209 1.403 1_545 S
C1207 C1204 1.403 . S
C1207 C1208 1.524 . S
C1207 C1211 1.400 . S
C1208 H1193 0.960 . S
C1208 H1194 0.960 . S
C1208 H1195 0.960 . S
C1208 C1207 1.524 . S
C1209 C1206 1.403 1_565 S
C1209 C1210 1.392 . S
C1209 C1213 1.495 . S
C1210 C1209 1.392 . S
C1210 C1211 1.385 1_565 S
C1210 C1212 1.478 . S
C1211 H1205 0.930 . S
C1211 C1207 1.400 . S
C1211 C1210 1.385 1_545 S
C1212 C1210 1.478 . S
C1212 C1214 1.381 . S
C1212 C1218 1.383 . S
C1213 C1209 1.495 . S
C1213 H1219 0.959 . S
C1213 H1220 0.961 . S
C1213 H1221 0.960 . S
C1214 C1212 1.381 . S
C1214 C1215 1.394 . S
C1214 H1222 0.930 . S
C1215 C1214 1.394 . S
C1215 C1216 1.383 . S
C1215 H1223 0.929 . S
C1216 C1215 1.383 . S
C1216 C1217 1.377 . S
C1217 H1201 0.930 . S
C1217 C1216 1.377 . S
C1217 C1218 1.379 . S
C1218 H1202 0.931 . S
C1218 C1212 1.383 . S
C1218 C1217 1.379 . S
H1219 C1213 0.959 . S
H1220 C1213 0.961 . S
H1221 C1213 0.960 . S
H1222 C1214 0.930 . S
H1223 C1215 0.929 . S
H1224 C1232 0.929 . S
H1225 C1234 0.930 . S
H1226 C1236 0.930 . S
H1227 C1239 0.929 . S
H1228 C1242 0.930 . S
H1229 C1244 0.960 . S
H1230 C1244 0.960 . S
H1231 C1244 0.960 . S
C1232 H1224 0.929 . S
C1232 C1233 1.377 . S
C1232 C1234 1.384 . S
C1233 C1232 1.377 . S
C1233 C1239 1.390 . S
C1234 H1225 0.930 . S
C1234 C1232 1.384 . S
C1234 C1235 1.372 . S
C1235 C1234 1.372 . S
C1235 C1236 1.400 . S
C1235 C1240 1.490 . S
C1236 H1226 0.930 . S
C1236 C1235 1.400 . S
C1236 C1239 1.386 . S
H1237 C1253 0.930 . S
H1238 C1254 0.931 . S
C1239 H1227 0.929 . S
C1239 C1233 1.390 . S
C1239 C1236 1.386 . S
C1240 C1235 1.490 . S
C1240 C1242 1.395 . S
C1240 C1243 1.403 . S
H1241 C1247 0.930 . S
C1242 H1228 0.930 . S
C1242 C1240 1.395 . S
C1242 C1245 1.403 . S
C1243 C1240 1.403 . S
C1243 C1244 1.524 . S
C1243 C1247 1.400 . S
C1244 H1229 0.960 . S
C1244 H1230 0.960 . S
C1244 H1231 0.960 . S
C1244 C1243 1.524 . S
C1245 C1242 1.403 . S
C1245 C1246 1.392 . S
C1245 C1249 1.495 . S
C1246 C1245 1.392 . S
C1246 C1247 1.385 . S
C1246 C1248 1.478 . S
C1247 H1241 0.930 . S
C1247 C1243 1.400 . S
C1247 C1246 1.385 . S
C1248 C1246 1.478 . S
C1248 C1250 1.381 . S
C1248 C1254 1.383 . S
C1249 C1245 1.495 . S
C1249 H1255 0.959 . S
C1249 H1256 0.961 . S
C1249 H1257 0.960 . S
C1250 C1248 1.381 . S
C1250 C1251 1.394 . S
C1250 H1258 0.930 . S
C1251 C1250 1.394 . S
C1251 C1252 1.383 . S
C1251 H1259 0.929 . S
C1252 C1251 1.383 . S
C1252 C1253 1.377 . S
C1253 H1237 0.930 . S
C1253 C1252 1.377 . S
C1253 C1254 1.379 . S
C1254 H1238 0.931 . S
C1254 C1248 1.383 . S
C1254 C1253 1.379 . S
H1255 C1249 0.959 . S
H1256 C1249 0.961 . S
H1257 C1249 0.960 . S
H1258 C1250 0.930 . S
H1259 C1251 0.929 . S
H1260 C1268 0.929 . S
H1261 C1270 0.930 . S
H1262 C1272 0.930 . S
H1263 C1275 0.929 . S
H1264 C1278 0.930 . S
H1265 C1280 0.960 . S
H1266 C1280 0.960 . S
H1267 C1280 0.960 1_554 S
C1268 H1260 0.929 . S
C1268 C1269 1.377 . S
C1268 C1270 1.384 . S
C1269 C1268 1.377 . S
C1269 C1275 1.390 . S
C1270 H1261 0.930 . S
C1270 C1268 1.384 . S
C1270 C1271 1.372 . S
C1271 C1270 1.372 . S
C1271 C1272 1.400 . S
C1271 C1276 1.490 . S
C1272 H1262 0.930 . S
C1272 C1271 1.400 . S
C1272 C1275 1.386 . S
H1273 C1289 0.930 . S
H1274 C1290 0.931 . S
C1275 H1263 0.929 . S
C1275 C1269 1.390 . S
C1275 C1272 1.386 . S
C1276 C1271 1.490 . S
C1276 C1278 1.395 . S
C1276 C1279 1.403 . S
H1277 C1283 0.930 . S
C1278 H1264 0.930 . S
C1278 C1276 1.395 . S
C1278 C1281 1.403 . S
C1279 C1276 1.403 . S
C1279 C1280 1.524 1_554 S
C1279 C1283 1.400 1_554 S
C1280 H1265 0.960 . S
C1280 H1266 0.960 . S
C1280 H1267 0.960 1_556 S
C1280 C1279 1.524 1_556 S
C1281 C1278 1.403 . S
C1281 C1282 1.392 1_554 S
C1281 C1285 1.495 . S
C1282 C1281 1.392 1_556 S
C1282 C1283 1.385 . S
C1282 C1284 1.478 . S
C1283 H1277 0.930 . S
C1283 C1279 1.400 1_556 S
C1283 C1282 1.385 . S
C1284 C1282 1.478 . S
C1284 C1286 1.381 . S
C1284 C1290 1.383 . S
C1285 C1281 1.495 . S
C1285 H1291 0.959 . S
C1285 H1292 0.961 . S
C1285 H1293 0.960 1_554 S
C1286 C1284 1.381 . S
C1286 C1287 1.394 . S
C1286 H1294 0.930 . S
C1287 C1286 1.394 . S
C1287 C1288 1.383 . S
C1287 H1295 0.929 . S
C1288 C1287 1.383 . S
C1288 C1289 1.377 . S
C1289 H1273 0.930 . S
C1289 C1288 1.377 . S
C1289 C1290 1.379 . S
C1290 H1274 0.931 . S
C1290 C1284 1.383 . S
C1290 C1289 1.379 . S
H1291 C1285 0.959 . S
H1292 C1285 0.961 . S
H1293 C1285 0.960 1_556 S
H1294 C1286 0.930 . S
H1295 C1287 0.929 . S
H1296 C1304 0.929 . S
H1297 C1306 0.930 . S
H1298 C1308 0.930 . S
H1299 C1311 0.929 . S
H1300 C1314 0.930 . S
H1301 C1316 0.960 . S
H1302 C1316 0.960 . S
H1303 C1316 0.960 . S
C1304 H1296 0.929 . S
C1304 C1305 1.377 . S
C1304 C1306 1.384 . S
C1305 C1304 1.377 . S
C1305 C1311 1.390 . S
C1306 H1297 0.930 . S
C1306 C1304 1.384 . S
C1306 C1307 1.372 . S
C1307 C1306 1.372 . S
C1307 C1308 1.400 . S
C1307 C1312 1.490 . S
C1308 H1298 0.930 . S
C1308 C1307 1.400 . S
C1308 C1311 1.386 . S
H1309 C1325 0.930 . S
H1310 C1326 0.931 . S
C1311 H1299 0.929 . S
C1311 C1305 1.390 . S
C1311 C1308 1.386 . S
C1312 C1307 1.490 . S
C1312 C1314 1.395 1_556 S
C1312 C1315 1.403 . S
H1313 C1319 0.930 . S
C1314 H1300 0.930 . S
C1314 C1312 1.395 1_554 S
C1314 C1317 1.403 . S
C1315 C1312 1.403 . S
C1315 C1316 1.524 . S
C1315 C1319 1.400 1_556 S
C1316 H1301 0.960 . S
C1316 H1302 0.960 . S
C1316 H1303 0.960 . S
C1316 C1315 1.524 . S
C1317 C1314 1.403 . S
C1317 C1318 1.392 . S
C1317 C1321 1.495 . S
C1318 C1317 1.392 . S
C1318 C1319 1.385 . S
C1318 C1320 1.478 . S
C1319 H1313 0.930 . S
C1319 C1315 1.400 1_554 S
C1319 C1318 1.385 . S
C1320 C1318 1.478 . S
C1320 C1322 1.381 . S
C1320 C1326 1.383 . S
C1321 C1317 1.495 . S
C1321 H1327 0.959 . S
C1321 H1328 0.961 . S
C1321 H1329 0.960 . S
C1322 C1320 1.381 . S
C1322 C1323 1.394 . S
C1322 H1330 0.930 . S
C1323 C1322 1.394 . S
C1323 C1324 1.383 . S
C1323 H1331 0.929 . S
C1324 C1323 1.383 . S
C1324 C1325 1.377 . S
C1325 H1309 0.930 . S
C1325 C1324 1.377 . S
C1325 C1326 1.379 . S
C1326 H1310 0.931 . S
C1326 C1320 1.383 . S
C1326 C1325 1.379 . S
H1327 C1321 0.959 . S
H1328 C1321 0.961 . S
H1329 C1321 0.960 . S
H1330 C1322 0.930 . S
H1331 C1323 0.929 . S
H1332 C1340 0.929 . S
H1333 C1342 0.930 . S
H1334 C1344 0.930 . S
H1335 C1347 0.929 . S
H1336 C1350 0.930 . S
H1337 C1352 0.960 . S
H1338 C1352 0.960 . S
H1339 C1352 0.960 . S
C1340 H1332 0.929 . S
C1340 C1341 1.377 . S
C1340 C1342 1.384 . S
C1341 C1340 1.377 . S
C1341 C1347 1.390 . S
C1342 H1333 0.930 . S
C1342 C1340 1.384 . S
C1342 C1343 1.372 . S
C1343 C1342 1.372 . S
C1343 C1344 1.400 . S
C1343 C1348 1.490 . S
C1344 H1334 0.930 . S
C1344 C1343 1.400 . S
C1344 C1347 1.386 . S
H1345 C1361 0.930 . S
H1346 C1362 0.931 . S
C1347 H1335 0.929 . S
C1347 C1341 1.390 . S
C1347 C1344 1.386 . S
C1348 C1343 1.490 . S
C1348 C1350 1.395 . S
C1348 C1351 1.403 . S
H1349 C1355 0.930 . S
C1350 H1336 0.930 . S
C1350 C1348 1.395 . S
C1350 C1353 1.403 . S
C1351 C1348 1.403 . S
C1351 C1352 1.524 . S
C1351 C1355 1.400 . S
C1352 H1337 0.960 . S
C1352 H1338 0.960 . S
C1352 H1339 0.960 . S
C1352 C1351 1.524 . S
C1353 C1350 1.403 . S
C1353 C1354 1.392 . S
C1353 C1357 1.495 . S
C1354 C1353 1.392 . S
C1354 C1355 1.385 . S
C1354 C1356 1.478 . S
C1355 H1349 0.930 . S
C1355 C1351 1.400 . S
C1355 C1354 1.385 . S
C1356 C1354 1.478 . S
C1356 C1358 1.381 . S
C1356 C1362 1.383 . S
C1357 C1353 1.495 . S
C1357 H1363 0.959 . S
C1357 H1364 0.961 . S
C1357 H1365 0.960 . S
C1358 C1356 1.381 . S
C1358 C1359 1.394 . S
C1358 H1366 0.930 . S
C1359 C1358 1.394 . S
C1359 C1360 1.383 . S
C1359 H1367 0.929 . S
C1360 C1359 1.383 . S
C1360 C1361 1.377 . S
C1361 H1345 0.930 . S
C1361 C1360 1.377 . S
C1361 C1362 1.379 . S
C1362 H1346 0.931 . S
C1362 C1356 1.383 . S
C1362 C1361 1.379 . S
H1363 C1357 0.959 . S
H1364 C1357 0.961 . S
H1365 C1357 0.960 . S
H1366 C1358 0.930 . S
H1367 C1359 0.929 . S
H1368 C1376 0.929 . S
H1369 C1378 0.930 . S
H1370 C1380 0.930 . S
H1371 C1383 0.929 . S
H1372 C1386 0.930 . S
H1373 C1388 0.960 . S
H1374 C1388 0.960 . S
H1375 C1388 0.960 . S
C1376 H1368 0.929 . S
C1376 C1377 1.377 . S
C1376 C1378 1.384 . S
C1377 C1376 1.377 . S
C1377 C1383 1.390 . S
C1378 H1369 0.930 . S
C1378 C1376 1.384 . S
C1378 C1379 1.372 . S
C1379 C1378 1.372 . S
C1379 C1380 1.400 . S
C1379 C1384 1.490 . S
C1380 H1370 0.930 . S
C1380 C1379 1.400 . S
C1380 C1383 1.386 . S
H1381 C1397 0.930 . S
H1382 C1398 0.931 . S
C1383 H1371 0.929 . S
C1383 C1377 1.390 . S
C1383 C1380 1.386 . S
C1384 C1379 1.490 . S
C1384 C1386 1.395 . S
C1384 C1387 1.403 . S
H1385 C1391 0.930 . S
C1386 H1372 0.930 . S
C1386 C1384 1.395 . S
C1386 C1389 1.403 . S
C1387 C1384 1.403 . S
C1387 C1388 1.524 . S
C1387 C1391 1.400 . S
C1388 H1373 0.960 . S
C1388 H1374 0.960 . S
C1388 H1375 0.960 . S
C1388 C1387 1.524 . S
C1389 C1386 1.403 . S
C1389 C1390 1.392 . S
C1389 C1393 1.495 . S
C1390 C1389 1.392 . S
C1390 C1391 1.385 . S
C1390 C1392 1.478 . S
C1391 H1385 0.930 . S
C1391 C1387 1.400 . S
C1391 C1390 1.385 . S
C1392 C1390 1.478 . S
C1392 C1394 1.381 . S
C1392 C1398 1.383 . S
C1393 C1389 1.495 . S
C1393 H1399 0.959 . S
C1393 H1400 0.961 . S
C1393 H1401 0.960 . S
C1394 C1392 1.381 . S
C1394 C1395 1.394 . S
C1394 H1402 0.930 . S
C1395 C1394 1.394 . S
C1395 C1396 1.383 . S
C1395 H1403 0.929 . S
C1396 C1395 1.383 . S
C1396 C1397 1.377 . S
C1397 H1381 0.930 . S
C1397 C1396 1.377 . S
C1397 C1398 1.379 . S
C1398 H1382 0.931 . S
C1398 C1392 1.383 . S
C1398 C1397 1.379 . S
H1399 C1393 0.959 . S
H1400 C1393 0.961 . S
H1401 C1393 0.960 . S
H1402 C1394 0.930 . S
H1403 C1395 0.929 . S
H1404 C1412 0.929 . S
H1405 C1414 0.930 . S
H1406 C1416 0.930 . S
H1407 C1419 0.929 . S
H1408 C1422 0.930 . S
H1409 C1424 0.960 . S
H1410 C1424 0.960 . S
H1411 C1424 0.960 . S
C1412 H1404 0.929 . S
C1412 C1413 1.377 . S
C1412 C1414 1.384 . S
C1413 C1412 1.377 . S
C1413 C1419 1.390 . S
C1414 H1405 0.930 . S
C1414 C1412 1.384 . S
C1414 C1415 1.372 . S
C1415 C1414 1.372 . S
C1415 C1416 1.400 . S
C1415 C1420 1.490 . S
C1416 H1406 0.930 . S
C1416 C1415 1.400 . S
C1416 C1419 1.386 . S
H1417 C1433 0.930 . S
H1418 C1434 0.931 . S
C1419 H1407 0.929 . S
C1419 C1413 1.390 . S
C1419 C1416 1.386 . S
C1420 C1415 1.490 . S
C1420 C1422 1.395 . S
C1420 C1423 1.403 1_455 S
H1421 C1427 0.930 . S
C1422 H1408 0.930 . S
C1422 C1420 1.395 . S
C1422 C1425 1.403 . S
C1423 C1420 1.403 1_655 S
C1423 C1424 1.524 . S
C1423 C1427 1.400 . S
C1424 H1409 0.960 . S
C1424 H1410 0.960 . S
C1424 H1411 0.960 . S
C1424 C1423 1.524 . S
C1425 C1422 1.403 . S
C1425 C1426 1.392 1_455 S
C1425 C1429 1.495 . S
C1426 C1425 1.392 1_655 S
C1426 C1427 1.385 . S
C1426 C1428 1.478 . S
C1427 H1421 0.930 . S
C1427 C1423 1.400 . S
C1427 C1426 1.385 . S
C1428 C1426 1.478 . S
C1428 C1430 1.381 . S
C1428 C1434 1.383 . S
C1429 C1425 1.495 . S
C1429 H1435 0.959 . S
C1429 H1436 0.961 . S
C1429 H1437 0.960 . S
C1430 C1428 1.381 . S
C1430 C1431 1.394 . S
C1430 H1438 0.930 . S
C1431 C1430 1.394 . S
C1431 C1432 1.383 . S
C1431 H1439 0.929 . S
C1432 C1431 1.383 . S
C1432 C1433 1.377 . S
C1433 H1417 0.930 . S
C1433 C1432 1.377 . S
C1433 C1434 1.379 . S
C1434 H1418 0.931 . S
C1434 C1428 1.383 . S
C1434 C1433 1.379 . S
H1435 C1429 0.959 . S
H1436 C1429 0.961 . S
H1437 C1429 0.960 . S
H1438 C1430 0.930 . S
H1439 C1431 0.929 . S
H1440 C1448 0.929 . S
H1441 C1450 0.930 . S
H1442 C1452 0.930 . S
H1443 C1455 0.929 . S
H1444 C1458 0.930 . S
H1445 C1460 0.960 . S
H1446 C1460 0.960 . S
H1447 C1460 0.960 . S
C1448 H1440 0.929 . S
C1448 C1449 1.377 . S
C1448 C1450 1.384 . S
C1449 C1448 1.377 . S
C1449 C1455 1.390 . S
C1450 H1441 0.930 . S
C1450 C1448 1.384 . S
C1450 C1451 1.372 . S
C1451 C1450 1.372 . S
C1451 C1452 1.400 . S
C1451 C1456 1.490 . S
C1452 H1442 0.930 . S
C1452 C1451 1.400 . S
C1452 C1455 1.386 . S
H1453 C1469 0.930 . S
H1454 C1470 0.931 . S
C1455 H1443 0.929 . S
C1455 C1449 1.390 . S
C1455 C1452 1.386 . S
C1456 C1451 1.490 . S
C1456 C1458 1.395 . S
C1456 C1459 1.403 . S
H1457 C1463 0.927 1_655 S
C1458 H1444 0.930 . S
C1458 C1456 1.395 . S
C1458 C1461 1.403 1_455 S
C1459 C1456 1.403 . S
C1459 C1460 1.524 . S
C1459 C1463 1.440 . S
C1460 H1445 0.960 . S
C1460 H1446 0.960 . S
C1460 H1447 0.960 . S
C1460 C1459 1.524 . S
C1461 C1458 1.403 1_655 S
C1461 C1462 1.392 . S
C1461 C1465 1.495 . S
C1462 C1461 1.392 . S
C1462 C1463 1.350 1_655 S
C1462 C1464 1.478 . S
C1463 H1457 0.927 1_455 S
C1463 C1459 1.440 . S
C1463 C1462 1.350 1_455 S
C1464 C1462 1.478 . S
C1464 C1466 1.381 . S
C1464 C1470 1.383 . S
C1465 C1461 1.495 . S
C1465 H1471 0.959 . S
C1465 H1472 0.961 . S
C1465 H1473 0.960 . S
C1466 C1464 1.381 . S
C1466 C1467 1.394 . S
C1466 H1474 0.930 . S
C1467 C1466 1.394 . S
C1467 C1468 1.383 . S
C1467 H1475 0.929 . S
C1468 C1467 1.383 . S
C1468 C1469 1.377 . S
C1469 H1453 0.930 . S
C1469 C1468 1.377 . S
C1469 C1470 1.379 . S
C1470 H1454 0.931 . S
C1470 C1464 1.383 . S
C1470 C1469 1.379 . S
H1471 C1465 0.959 . S
H1472 C1465 0.961 . S
H1473 C1465 0.960 . S
H1474 C1466 0.930 . S
H1475 C1467 0.929 . S
H1476 C1484 0.929 . S
H1477 C1486 0.930 . S
H1478 C1488 0.930 . S
H1479 C1491 0.929 . S
H1480 C1494 0.930 . S
H1481 C1496 0.960 . S
H1482 C1496 0.960 . S
H1483 C1496 0.960 . S
C1484 H1476 0.929 . S
C1484 C1485 1.377 . S
C1484 C1486 1.384 . S
C1485 C1484 1.377 . S
C1485 C1491 1.390 . S
C1486 H1477 0.930 . S
C1486 C1484 1.384 . S
C1486 C1487 1.372 . S
C1487 C1486 1.372 . S
C1487 C1488 1.400 . S
C1487 C1492 1.490 . S
C1488 H1478 0.930 . S
C1488 C1487 1.400 . S
C1488 C1491 1.386 . S
H1489 C1505 0.930 . S
H1490 C1506 0.931 . S
C1491 H1479 0.929 . S
C1491 C1485 1.390 . S
C1491 C1488 1.386 . S
C1492 C1487 1.490 . S
C1492 C1494 1.395 . S
C1492 C1495 1.403 . S
H1493 C1499 0.930 . S
C1494 H1480 0.930 . S
C1494 C1492 1.395 . S
C1494 C1497 1.403 . S
C1495 C1492 1.403 . S
C1495 C1496 1.524 . S
C1495 C1499 1.400 . S
C1496 H1481 0.960 . S
C1496 H1482 0.960 . S
C1496 H1483 0.960 . S
C1496 C1495 1.524 . S
C1497 C1494 1.403 . S
C1497 C1498 1.392 . S
C1497 C1501 1.495 . S
C1498 C1497 1.392 . S
C1498 C1499 1.385 . S
C1498 C1500 1.478 . S
C1499 H1493 0.930 . S
C1499 C1495 1.400 . S
C1499 C1498 1.385 . S
C1500 C1498 1.478 . S
C1500 C1502 1.381 . S
C1500 C1506 1.383 . S
C1501 C1497 1.495 . S
C1501 H1507 0.959 . S
C1501 H1508 0.961 . S
C1501 H1509 0.960 . S
C1502 C1500 1.381 . S
C1502 C1503 1.394 . S
C1502 H1510 0.930 . S
C1503 C1502 1.394 . S
C1503 C1504 1.383 . S
C1503 H1511 0.929 . S
C1504 C1503 1.383 . S
C1504 C1505 1.377 . S
C1505 H1489 0.930 . S
C1505 C1504 1.377 . S
C1505 C1506 1.379 . S
C1506 H1490 0.931 . S
C1506 C1500 1.383 . S
C1506 C1505 1.379 . S
H1507 C1501 0.959 . S
H1508 C1501 0.961 . S
H1509 C1501 0.960 . S
H1510 C1502 0.930 . S
H1511 C1503 0.929 . S
H1512 C1520 0.929 . S
H1513 C1522 0.930 . S
H1514 C1524 0.930 . S
H1515 C1527 0.929 . S
H1516 C1530 0.930 . S
H1517 C1532 0.960 . S
H1518 C1532 0.960 . S
H1519 C1532 0.960 . S
C1520 H1512 0.929 . S
C1520 C1521 1.377 . S
C1520 C1522 1.384 . S
C1521 C1520 1.377 . S
C1521 C1527 1.390 . S
C1522 H1513 0.930 . S
C1522 C1520 1.384 . S
C1522 C1523 1.372 . S
C1523 C1522 1.372 . S
C1523 C1524 1.400 . S
C1523 C1528 1.490 . S
C1524 H1514 0.930 . S
C1524 C1523 1.400 . S
C1524 C1527 1.386 . S
H1525 C1541 0.930 . S
H1526 C1542 0.931 . S
C1527 H1515 0.929 . S
C1527 C1521 1.390 . S
C1527 C1524 1.386 . S
C1528 C1523 1.490 . S
C1528 C1530 1.395 . S
C1528 C1531 1.403 . S
H1529 C1535 0.930 . S
C1530 H1516 0.930 . S
C1530 C1528 1.395 . S
C1530 C1533 1.403 . S
C1531 C1528 1.403 . S
C1531 C1532 1.524 . S
C1531 C1535 1.400 . S
C1532 H1517 0.960 . S
C1532 H1518 0.960 . S
C1532 H1519 0.960 . S
C1532 C1531 1.524 . S
C1533 C1530 1.403 . S
C1533 C1534 1.392 . S
C1533 C1537 1.495 . S
C1534 C1533 1.392 . S
C1534 C1535 1.385 . S
C1534 C1536 1.478 . S
C1535 H1529 0.930 . S
C1535 C1531 1.400 . S
C1535 C1534 1.385 . S
C1536 C1534 1.478 . S
C1536 C1538 1.381 . S
C1536 C1542 1.383 . S
C1537 C1533 1.495 . S
C1537 H1543 0.959 . S
C1537 H1544 0.961 . S
C1537 H1545 0.960 . S
C1538 C1536 1.381 . S
C1538 C1539 1.394 . S
C1538 H1546 0.930 . S
C1539 C1538 1.394 . S
C1539 C1540 1.383 . S
C1539 H1547 0.929 . S
C1540 C1539 1.383 . S
C1540 C1541 1.377 . S
C1541 H1525 0.930 . S
C1541 C1540 1.377 . S
C1541 C1542 1.379 . S
C1542 H1526 0.931 . S
C1542 C1536 1.383 . S
C1542 C1541 1.379 . S
H1543 C1537 0.959 . S
H1544 C1537 0.961 . S
H1545 C1537 0.960 . S
H1546 C1538 0.930 . S
H1547 C1539 0.929 . S
H1548 C1556 0.929 . S
H1549 C1558 0.930 . S
H1550 C1560 0.930 . S
H1551 C1563 0.929 . S
H1552 C1566 0.930 . S
H1553 C1568 0.960 . S
H1554 C1568 0.960 1_545 S
H1555 C1568 0.960 . S
C1556 H1548 0.929 . S
C1556 C1557 1.377 . S
C1556 C1558 1.384 . S
C1557 C1556 1.377 . S
C1557 C1563 1.390 . S
C1558 H1549 0.930 . S
C1558 C1556 1.384 . S
C1558 C1559 1.372 . S
C1559 C1558 1.372 . S
C1559 C1560 1.400 . S
C1559 C1564 1.490 . S
C1560 H1550 0.930 . S
C1560 C1559 1.400 . S
C1560 C1563 1.386 . S
H1561 C1577 0.930 . S
H1562 C1578 0.931 . S
C1563 H1551 0.929 . S
C1563 C1557 1.390 . S
C1563 C1560 1.386 . S
C1564 C1559 1.490 . S
C1564 C1566 1.395 . S
C1564 C1567 1.403 1_545 S
H1565 C1571 0.930 . S
C1566 H1552 0.930 . S
C1566 C1564 1.395 . S
C1566 C1569 1.403 1_545 S
C1567 C1564 1.403 1_565 S
C1567 C1568 1.524 . S
C1567 C1571 1.400 . S
C1568 H1553 0.960 . S
C1568 H1554 0.960 1_565 S
C1568 H1555 0.960 . S
C1568 C1567 1.524 . S
C1569 C1566 1.403 1_565 S
C1569 C1570 1.392 . S
C1569 C1573 1.495 . S
C1570 C1569 1.392 . S
C1570 C1571 1.385 . S
C1570 C1572 1.478 . S
C1571 H1565 0.930 . S
C1571 C1567 1.400 . S
C1571 C1570 1.385 . S
C1572 C1570 1.478 . S
C1572 C1574 1.381 . S
C1572 C1578 1.383 . S
C1573 C1569 1.495 . S
C1573 H1579 0.959 1_565 S
C1573 H1580 0.961 . S
C1573 H1581 0.960 . S
C1574 C1572 1.381 . S
C1574 C1575 1.394 . S
C1574 H1582 0.930 . S
C1575 C1574 1.394 . S
C1575 C1576 1.383 . S
C1575 H1583 0.929 . S
C1576 C1575 1.383 . S
C1576 C1577 1.377 . S
C1577 H1561 0.930 . S
C1577 C1576 1.377 . S
C1577 C1578 1.379 . S
C1578 H1562 0.931 . S
C1578 C1572 1.383 . S
C1578 C1577 1.379 . S
H1579 C1573 0.959 1_545 S
H1580 C1573 0.961 . S
H1581 C1573 0.960 . S
H1582 C1574 0.930 . S
H1583 C1575 0.929 . S
H1584 C1592 0.929 . S
H1585 C1594 0.930 . S
H1586 C1596 0.930 . S
H1587 C1599 0.929 . S
H1588 C1602 0.930 . S
H1589 C1604 0.960 . S
H1590 C1604 0.960 . S
H1591 C1604 0.960 . S
C1592 H1584 0.929 . S
C1592 C1593 1.377 . S
C1592 C1594 1.384 . S
C1593 C1592 1.377 . S
C1593 C1599 1.390 . S
C1594 H1585 0.930 . S
C1594 C1592 1.384 . S
C1594 C1595 1.372 . S
C1595 C1594 1.372 . S
C1595 C1596 1.400 . S
C1595 C1600 1.490 . S
C1596 H1586 0.930 . S
C1596 C1595 1.400 . S
C1596 C1599 1.386 . S
H1597 C1613 0.930 . S
H1598 C1614 0.931 . S
C1599 H1587 0.929 . S
C1599 C1593 1.390 . S
C1599 C1596 1.386 . S
C1600 C1595 1.490 . S
C1600 C1602 1.395 . S
C1600 C1603 1.403 . S
H1601 C1607 0.930 . S
C1602 H1588 0.930 . S
C1602 C1600 1.395 . S
C1602 C1605 1.403 . S
C1603 C1600 1.403 . S
C1603 C1604 1.524 . S
C1603 C1607 1.400 . S
C1604 H1589 0.960 . S
C1604 H1590 0.960 . S
C1604 H1591 0.960 . S
C1604 C1603 1.524 . S
C1605 C1602 1.403 . S
C1605 C1606 1.392 . S
C1605 C1609 1.495 . S
C1606 C1605 1.392 . S
C1606 C1607 1.385 . S
C1606 C1608 1.478 . S
C1607 H1601 0.930 . S
C1607 C1603 1.400 . S
C1607 C1606 1.385 . S
C1608 C1606 1.478 . S
C1608 C1610 1.381 . S
C1608 C1614 1.383 . S
C1609 C1605 1.495 . S
C1609 H1615 0.959 . S
C1609 H1616 0.961 . S
C1609 H1617 0.960 . S
C1610 C1608 1.381 . S
C1610 C1611 1.394 . S
C1610 H1618 0.930 . S
C1611 C1610 1.394 . S
C1611 C1612 1.383 . S
C1611 H1619 0.929 . S
C1612 C1611 1.383 . S
C1612 C1613 1.377 . S
C1613 H1597 0.930 . S
C1613 C1612 1.377 . S
C1613 C1614 1.379 . S
C1614 H1598 0.931 . S
C1614 C1608 1.383 . S
C1614 C1613 1.379 . S
H1615 C1609 0.959 . S
H1616 C1609 0.961 . S
H1617 C1609 0.960 . S
H1618 C1610 0.930 . S
H1619 C1611 0.929 . S
H1620 C1628 0.929 . S
H1621 C1630 0.930 . S
H1622 C1632 0.930 . S
H1623 C1635 0.929 . S
H1624 C1638 0.930 . S
H1625 C1640 0.960 . S
H1626 C1640 0.960 . S
H1627 C1640 0.960 . S
C1628 H1620 0.929 . S
C1628 C1629 1.377 . S
C1628 C1630 1.384 . S
C1629 C1628 1.377 . S
C1629 C1635 1.390 . S
C1630 H1621 0.930 . S
C1630 C1628 1.384 . S
C1630 C1631 1.372 . S
C1631 C1630 1.372 . S
C1631 C1632 1.400 . S
C1631 C1636 1.490 . S
C1632 H1622 0.930 . S
C1632 C1631 1.400 . S
C1632 C1635 1.386 . S
H1633 C1649 0.930 . S
H1634 C1650 0.931 . S
C1635 H1623 0.929 . S
C1635 C1629 1.390 . S
C1635 C1632 1.386 . S
C1636 C1631 1.490 . S
C1636 C1638 1.395 . S
C1636 C1639 1.403 . S
H1637 C1643 0.930 . S
C1638 H1624 0.930 . S
C1638 C1636 1.395 . S
C1638 C1641 1.403 . S
C1639 C1636 1.403 . S
C1639 C1640 1.524 . S
C1639 C1643 1.400 . S
C1640 H1625 0.960 . S
C1640 H1626 0.960 . S
C1640 H1627 0.960 . S
C1640 C1639 1.524 . S
C1641 C1638 1.403 . S
C1641 C1642 1.392 . S
C1641 C1645 1.495 . S
C1642 C1641 1.392 . S
C1642 C1643 1.385 . S
C1642 C1644 1.478 . S
C1643 H1637 0.930 . S
C1643 C1639 1.400 . S
C1643 C1642 1.385 . S
C1644 C1642 1.478 . S
C1644 C1646 1.381 . S
C1644 C1650 1.383 . S
C1645 C1641 1.495 . S
C1645 H1651 0.959 . S
C1645 H1652 0.961 . S
C1645 H1653 0.960 . S
C1646 C1644 1.381 . S
C1646 C1647 1.394 . S
C1646 H1654 0.930 . S
C1647 C1646 1.394 . S
C1647 C1648 1.383 . S
C1647 H1655 0.929 . S
C1648 C1647 1.383 . S
C1648 C1649 1.377 . S
C1649 H1633 0.930 . S
C1649 C1648 1.377 . S
C1649 C1650 1.379 . S
C1650 H1634 0.931 . S
C1650 C1644 1.383 . S
C1650 C1649 1.379 . S
H1651 C1645 0.959 . S
H1652 C1645 0.961 . S
H1653 C1645 0.960 . S
H1654 C1646 0.930 . S
H1655 C1647 0.929 . S
H1656 C1664 0.929 . S
H1657 C1666 0.930 . S
H1658 C1668 0.930 . S
H1659 C1671 0.929 . S
H1660 C1674 0.930 . S
H1661 C1676 0.960 . S
H1662 C1676 0.960 1_545 S
H1663 C1676 0.960 . S
C1664 H1656 0.929 . S
C1664 C1665 1.377 . S
C1664 C1666 1.384 . S
C1665 C1664 1.377 . S
C1665 C1671 1.390 . S
C1666 H1657 0.930 . S
C1666 C1664 1.384 . S
C1666 C1667 1.372 . S
C1667 C1666 1.372 . S
C1667 C1668 1.400 . S
C1667 C1672 1.490 . S
C1668 H1658 0.930 . S
C1668 C1667 1.400 . S
C1668 C1671 1.386 . S
H1669 C1685 0.930 . S
H1670 C1686 0.931 . S
C1671 H1659 0.929 . S
C1671 C1665 1.390 . S
C1671 C1668 1.386 . S
C1672 C1667 1.490 . S
C1672 C1674 1.395 . S
C1672 C1675 1.403 1_545 S
H1673 C1679 0.930 . S
C1674 H1660 0.930 . S
C1674 C1672 1.395 . S
C1674 C1677 1.403 1_545 S
C1675 C1672 1.403 1_565 S
C1675 C1676 1.524 . S
C1675 C1679 1.400 . S
C1676 H1661 0.960 . S
C1676 H1662 0.960 1_565 S
C1676 H1663 0.960 . S
C1676 C1675 1.524 . S
C1677 C1674 1.403 1_565 S
C1677 C1678 1.392 . S
C1677 C1681 1.495 . S
C1678 C1677 1.392 . S
C1678 C1679 1.385 . S
C1678 C1680 1.478 . S
C1679 H1673 0.930 . S
C1679 C1675 1.400 . S
C1679 C1678 1.385 . S
C1680 C1678 1.478 . S
C1680 C1682 1.381 . S
C1680 C1686 1.383 . S
C1681 C1677 1.495 . S
C1681 H1687 0.959 1_565 S
C1681 H1688 0.961 . S
C1681 H1689 0.960 . S
C1682 C1680 1.381 . S
C1682 C1683 1.394 . S
C1682 H1690 0.930 . S
C1683 C1682 1.394 . S
C1683 C1684 1.383 . S
C1683 H1691 0.929 . S
C1684 C1683 1.383 . S
C1684 C1685 1.377 . S
C1685 H1669 0.930 . S
C1685 C1684 1.377 . S
C1685 C1686 1.379 . S
C1686 H1670 0.931 . S
C1686 C1680 1.383 . S
C1686 C1685 1.379 . S
H1687 C1681 0.959 1_545 S
H1688 C1681 0.961 . S
H1689 C1681 0.960 . S
H1690 C1682 0.930 . S
H1691 C1683 0.929 . S
H1692 C1700 0.929 . S
H1693 C1702 0.930 . S
H1694 C1704 0.930 . S
H1695 C1707 0.929 . S
H1696 C1710 0.930 . S
H1697 C1712 0.960 . S
H1698 C1712 0.960 . S
H1699 C1712 0.960 . S
C1700 H1692 0.929 . S
C1700 C1701 1.377 . S
C1700 C1702 1.384 . S
C1701 C1700 1.377 . S
C1701 C1707 1.390 . S
C1702 H1693 0.930 . S
C1702 C1700 1.384 . S
C1702 C1703 1.372 . S
C1703 C1702 1.372 . S
C1703 C1704 1.400 . S
C1703 C1708 1.490 . S
C1704 H1694 0.930 . S
C1704 C1703 1.400 . S
C1704 C1707 1.386 . S
H1705 C1721 0.930 . S
H1706 C1722 0.931 . S
C1707 H1695 0.929 . S
C1707 C1701 1.390 . S
C1707 C1704 1.386 . S
C1708 C1703 1.490 . S
C1708 C1710 1.395 . S
C1708 C1711 1.403 . S
H1709 C1715 0.930 . S
C1710 H1696 0.930 . S
C1710 C1708 1.395 . S
C1710 C1713 1.403 . S
C1711 C1708 1.403 . S
C1711 C1712 1.524 . S
C1711 C1715 1.400 . S
C1712 H1697 0.960 . S
C1712 H1698 0.960 . S
C1712 H1699 0.960 . S
C1712 C1711 1.524 . S
C1713 C1710 1.403 . S
C1713 C1714 1.392 . S
C1713 C1717 1.495 . S
C1714 C1713 1.392 . S
C1714 C1715 1.385 . S
C1714 C1716 1.478 . S
C1715 H1709 0.930 . S
C1715 C1711 1.400 . S
C1715 C1714 1.385 . S
C1716 C1714 1.478 . S
C1716 C1718 1.381 . S
C1716 C1722 1.383 . S
C1717 C1713 1.495 . S
C1717 H1723 0.959 . S
C1717 H1724 0.961 . S
C1717 H1725 0.960 . S
C1718 C1716 1.381 . S
C1718 C1719 1.394 . S
C1718 H1726 0.930 . S
C1719 C1718 1.394 . S
C1719 C1720 1.383 . S
C1719 H1727 0.929 . S
C1720 C1719 1.383 . S
C1720 C1721 1.377 . S
C1721 H1705 0.930 . S
C1721 C1720 1.377 . S
C1721 C1722 1.379 . S
C1722 H1706 0.931 . S
C1722 C1716 1.383 . S
C1722 C1721 1.379 . S
H1723 C1717 0.959 . S
H1724 C1717 0.961 . S
H1725 C1717 0.960 . S
H1726 C1718 0.930 . S
H1727 C1719 0.929 . S
C585 C2 1.147 . S
C604 C470 1.138 . S
C621 C38 0.820 . S
C640 C326 0.816 . S
C657 C506 0.860 . S
C676 C74 0.858 . S
C693 C110 1.105 . S
C712 C542 1.108 . S
C729 C146 0.819 . S
C748 C218 0.821 . S
C765 C362 1.147 . S
C784 C182 1.138 . S
C801 C398 0.858 . S
C820 C254 0.860 . S
C837 C290 1.105 . S
C856 C434 1.103 . S
C873 C75 1.653 . S
C892 C14 1.543 . S
C909 C50 1.698 . S
C928 C122 1.663 . S
C945 C435 1.700 . S
C964 C3 1.700 . S
C981 C39 1.796 . S
C1000 C400 1.794 . S
C1017 C147 1.796 . S
C1036 C76 1.775 . S
C1053 C363 1.700 . S
C1072 C111 1.696 . S
C1089 C40 1.857 . S
C1108 C4 1.840 . S
C1125 C112 0.808 . S
C1144 C86 0.839 . S
C1161 C364 1.848 . S
C1180 C148 1.846 . S
C1197 C256 1.724 . S
C1216 C183 1.724 . S
C1233 C219 1.201 . S
C1252 C292 1.202 . S
C1269 C543 1.698 . S
C1288 C194 1.614 . S
C1305 C230 1.327 . S
C1324 C507 1.398 . S
C1341 C338 1.331 . S
C1360 C255 1.411 . S
C1377 C291 1.696 . S
C1396 C482 1.555 . S
C1413 C220 1.760 . S
C1432 C184 1.767 . S
C1449 C302 1.760 . S
C1468 C266 1.794 . S
C1485 C328 1.755 . S
C1504 C472 1.746 . S
C1521 C374 1.549 . S
C1540 C399 1.652 . S
C1557 C446 1.694 . S
C1576 C158 1.715 . S
C1593 C436 0.817 . S
C1612 C410 0.849 . S
C1629 C508 1.725 . S
C1648 C471 1.719 . S
C1665 C327 1.201 . S
C1684 C544 1.204 . S
C1701 C554 1.769 . S
C1720 C518 1.759 . S
