# Generated by pormake.
# Topology snp, (6)-cn, num edge types: 1
# Building blocks:
#     Node 0, Type 0, BuildingBlock: VOLQOD_clean_sbu_1, # of connection points: 6
#     Node 1, Type 0, BuildingBlock: VOLQOD_clean_sbu_1, # of connection points: 6
#     Node 2, Type 0, BuildingBlock: VOLQOD_clean_sbu_1, # of connection points: 6
#     Node 3, Type 0, BuildingBlock: VOLQOD_clean_sbu_1, # of connection points: 6
#     Edge 4, Type (0, 0), BuildingBlock: XIVTED_clean_linker_0, # of connection points: 2
#     Edge 5, Type (0, 0), BuildingBlock: XIVTED_clean_linker_0, # of connection points: 2
#     Edge 6, Type (0, 0), BuildingBlock: XIVTED_clean_linker_0, # of connection points: 2
#     Edge 7, Type (0, 0), BuildingBlock: XIVTED_clean_linker_0, # of connection points: 2
#     Edge 8, Type (0, 0), BuildingBlock: XIVTED_clean_linker_0, # of connection points: 2
#     Edge 9, Type (0, 0), BuildingBlock: XIVTED_clean_linker_0, # of connection points: 2
#     Edge 10, Type (0, 0), BuildingBlock: XIVTED_clean_linker_0, # of connection points: 2
#     Edge 11, Type (0, 0), BuildingBlock: XIVTED_clean_linker_0, # of connection points: 2
#     Edge 12, Type (0, 0), BuildingBlock: XIVTED_clean_linker_0, # of connection points: 2
#     Edge 13, Type (0, 0), BuildingBlock: XIVTED_clean_linker_0, # of connection points: 2
#     Edge 14, Type (0, 0), BuildingBlock: XIVTED_clean_linker_0, # of connection points: 2
#     Edge 15, Type (0, 0), BuildingBlock: XIVTED_clean_linker_0, # of connection points: 2
# Relax obj value: 0.790
# Max RMSD: 0.301
# Mean RMSD: 0.301
data_MOF--net-snp--node1-VOLQOD_clean_sbu_1--edge1-XIVTED_clean_linker_0
_symmetry_space_group_name_H-M    P1
_symmetry_Int_Tables_number       1
_symmetry_cell_setting            triclinic
loop_
_symmetry_equiv_pos_as_xyz
'x, y, z'
_cell_length_a     29.392951
_cell_length_b     29.173141
_cell_length_c     25.148379
_cell_angle_alpha  90.068831
_cell_angle_beta   90.519631
_cell_angle_gamma 102.62912
loop_
_atom_site_label
_atom_site_type_symbol
_atom_site_fract_x
_atom_site_fract_y
_atom_site_fract_z
_atom_type_partial_charge
O0 O 0.16554 0.06614 0.05918 0.0
Zn1 Zn 0.22319 0.0473 0.03812 0.0
O2 O 0.26434 0.10561 0.02216 0.0
Zn3 Zn 0.29789 0.09804 0.95942 0.0
Zn4 Zn 0.22492 0.14848 0.00621 0.0
Zn5 Zn 0.29993 0.12266 0.08601 0.0
O6 O 0.36117 0.09354 0.98449 0.0
O7 O 0.36593 0.11778 0.06945 0.0
O8 O 0.20839 0.00643 0.97324 0.0
O9 O 0.26255 0.04154 0.91682 0.0
O10 O 0.30387 0.15415 0.91102 0.0
O11 O 0.24842 0.18696 0.94291 0.0
O12 O 0.22802 0.19407 0.06592 0.0
O13 O 0.24262 0.01325 0.0996 0.0
O14 O 0.29269 0.18744 0.1097 0.0
O15 O 0.27588 0.07637 0.14607 0.0
C16 C 0.14281 0.07464 0.0188 0.0
C17 C 0.384 0.10399 0.02793 0.0
C18 C 0.28042 0.18604 0.90952 0.0
C19 C 0.22689 0.0092 0.92746 0.0
C20 C 0.25982 0.20889 0.10059 0.0
C21 C 0.25714 0.03258 0.14369 0.0
O22 O 0.16104 0.10884 0.98903 0.0
O23 O 0.09791 0.1626 0.4891 0.0
Zn24 Zn 0.04635 0.19793 0.49435 0.0
O25 O 0.07417 0.26418 0.4918 0.0
Zn26 Zn 0.06797 0.29194 0.55976 0.0
Zn27 Zn 0.13924 0.2691 0.47699 0.0
Zn28 Zn 0.0495 0.29409 0.43346 0.0
O29 O 0.04485 0.35099 0.5482 0.0
O30 O 0.02237 0.34601 0.46296 0.0
O31 O 0.0087 0.18066 0.56068 0.0
O32 O 0.02139 0.24791 0.6056 0.0
O33 O 0.12989 0.30397 0.59872 0.0
O34 O 0.1766 0.27567 0.54444 0.0
O35 O 0.16525 0.32268 0.42939 0.0
O36 O 0.0032 0.17924 0.43141 0.0
O37 O 0.10098 0.3237 0.38339 0.0
O38 O 0.00347 0.24656 0.38975 0.0
C39 C 0.12496 0.16974 0.44929 0.0
C40 C 0.02568 0.36635 0.50826 0.0
C41 C 0.16881 0.29313 0.58903 0.0
C42 C 0.00153 0.20461 0.6009 0.0
C43 C 0.14516 0.33542 0.3888 0.0
C44 C -0.01046 0.2021 0.39355 0.0
O45 O 0.14269 0.21149 0.435 0.0
O46 O 0.87464 0.92868 0.96386 0.0
Zn47 Zn 0.82906 0.96624 0.98453 0.0
O48 O 0.76804 0.92466 0.9851 0.0
Zn49 Zn 0.73206 0.94401 0.92771 0.0
Zn50 Zn 0.77194 0.85989 0.97152 0.0
Zn51 Zn 0.74001 0.92841 0.05483 0.0
O52 O 0.6831 0.97174 0.96013 0.0
O53 O 0.68208 0.95462 0.04655 0.0
O54 O 0.83582 0.01553 0.92796 0.0
O55 O 0.77146 0.99261 0.87971 0.0
O56 O 0.70199 0.88977 0.88066 0.0
O57 O 0.72719 0.82999 0.91521 0.0
O58 O 0.75975 0.82198 0.0372 0.0
O59 O 0.84693 -0.00115 0.05466 0.0
O60 O 0.72903 0.86551 0.09316 0.0
O61 O 0.7838 0.97384 0.10323 0.0
C62 C 0.87315 0.88707 0.94757 0.0
C63 C 0.66603 0.97285 0.00635 0.0
C64 C 0.70298 0.84636 0.88094 0.0
C65 C 0.81146 0.01947 0.88691 0.0
C66 C 0.74171 0.8275 0.08182 0.0
C67 C 0.82486 -0.00118 0.09798 0.0
O68 O 0.83572 0.85561 0.94661 0.0
O69 O 0.95344 0.9179 0.49944 0.0
Zn70 Zn -0.00633 0.8716 0.5135 0.0
O71 O 0.95705 0.80883 0.50599 0.0
Zn72 Zn 0.95281 0.7769 0.57338 0.0
Zn73 Zn 0.89662 0.81576 0.48422 0.0
Zn74 Zn 0.97804 0.77656 0.44704 0.0
O75 O 0.96656 0.71294 0.56046 0.0
O76 O -0.01075 0.71638 0.47572 0.0
O77 O 0.02468 0.8814 0.58507 0.0
O78 O -0.00022 0.81383 0.62734 0.0
O79 O 0.88704 0.77046 0.60167 0.0
O80 O 0.85422 0.81295 0.54551 0.0
O81 O 0.8659 0.76514 0.43558 0.0
O82 O 0.04443 0.88358 0.45909 0.0
O83 O 0.92769 0.75835 0.38946 0.0
O84 O 0.03619 0.81664 0.41403 0.0
C85 C 0.92924 0.9145 0.45684 0.0
C86 C 0.98155 0.69466 0.51984 0.0
C87 C 0.85298 0.78872 0.58776 0.0
C88 C 0.02509 0.85543 0.62567 0.0
C89 C 0.88354 0.7512 0.39442 0.0
C90 C 0.05761 0.85903 0.42281 0.0
O91 O 0.90607 0.87473 0.44145 0.0
H92 H 0.92845 0.84015 0.00193 0.0
H93 H 0.10737 0.06434 0.91675 0.0
H94 H 0.91888 0.91531 0.8567 0.0
H95 H 0.10352 0.99257 0.06737 0.0
H96 H 0.05559 0.99454 0.8789 0.0
H97 H 0.01211 0.87299 0.00509 0.0
C98 C 0.94453 0.86129 0.96889 0.0
C99 C 0.91706 0.87695 0.93029 0.0
C100 C 0.06652 0.99403 0.9201 0.0
C101 C 0.01115 0.91683 0.93531 0.0
C102 C 0.09532 0.03416 0.94199 0.0
C103 C 0.10856 0.03487 -0.0042 0.0
C104 C 0.05067 0.95457 0.95236 0.0
C105 C 0.09329 0.99411 0.02606 0.0
C106 C -0.00781 0.88088 0.97118 0.0
C107 C 0.93926 0.90384 0.88808 0.0
N108 N 0.06484 0.95589 0.00407 0.0
N109 N 0.98501 0.92489 0.89284 0.0
H110 H 0.92096 0.00543 0.45597 0.0
H111 H 0.08299 0.17395 0.35446 0.0
H112 H 0.97963 0.90424 0.37076 0.0
H113 H 0.14216 0.08166 0.45426 0.0
H114 H 0.02809 0.10585 0.31773 0.0
H115 H 0.97687 0.06842 0.41294 0.0
C116 C 0.94374 0.99666 0.42576 0.0
C117 C 0.94584 0.95002 0.41651 0.0
C118 C 0.05525 0.10041 0.34488 0.0
C119 C 0.01031 0.02129 0.36875 0.0
C120 C 0.08677 0.13912 0.36577 0.0
C121 C 0.11602 0.13307 0.40845 0.0
C122 C 0.05438 0.05594 0.36623 0.0
C123 C 0.11939 0.08751 0.42207 0.0
C124 C 0.9754 0.03248 0.40092 0.0
C125 C 0.97701 0.94013 0.37834 0.0
N126 N 0.08787 0.05042 0.40188 0.0
N127 N 0.00975 0.97561 0.35761 0.0
H128 H 0.6329 0.02531 0.93233 0.0
H129 H 0.43213 0.08285 0.11511 0.0
H130 H 0.61395 0.97938 0.09556 0.0
H131 H 0.44389 0.10751 0.94607 0.0
H132 H 0.50639 0.05737 0.11404 0.0
H133 H 0.57091 0.06711 0.9421 0.0
C134 C 0.61557 0.02381 0.97032 0.0
C135 C 0.6282 -0.00187 0.013 0.0
C136 C 0.49289 0.06898 0.07741 0.0
C137 C 0.55681 0.04633 0.02443 0.0
C138 C 0.45082 0.08378 0.07807 0.0
C139 C 0.43176 0.09658 0.03044 0.0
C140 C 0.51581 0.06749 0.0289 0.0
C141 C 0.45708 0.09715 0.9835 0.0
C142 C 0.58021 0.04797 0.97593 0.0
C143 C 0.60493 -0.00166 0.06147 0.0
N144 N 0.49762 0.08243 0.98387 0.0
N145 N 0.56994 0.02182 0.0658 0.0
H146 H -0.01021 0.41344 0.43025 0.0
H147 H 0.98133 0.63829 0.60758 0.0
H148 H 0.02762 0.42165 0.59705 0.0
H149 H -0.008 0.6388 0.43628 0.0
H150 H 0.98576 0.5552 0.60763 0.0
H151 H 0.97501 0.49211 0.43571 0.0
C152 C -0.00544 0.43155 0.4682 0.0
C153 C 0.01068 0.41118 0.51308 0.0
C154 C 0.98716 0.57377 0.5702 0.0
C155 C -0.0059 0.50144 0.51938 0.0
C156 C 0.98474 0.62105 0.57012 0.0
C157 C 0.98657 0.64555 0.5219 0.0
C158 C -0.0093 0.551 0.5217 0.0
C159 C -0.00917 0.62152 0.47448 0.0
C160 C 0.98633 0.47658 0.47119 0.0
C161 C 0.01575 0.43626 0.5613 0.0
N162 N -0.00743 0.57558 0.47561 0.0
N163 N 0.00782 0.48038 0.56313 0.0
H164 H 0.24053 0.35449 0.38126 0.0
H165 H 0.20096 0.26854 0.08521 0.0
H166 H 0.11594 0.35275 0.28829 0.0
H167 H 0.31127 0.24461 0.18898 0.0
H168 H 0.18581 0.32755 0.14718 0.0
H169 H 0.28214 0.34621 0.29972 0.0
C170 C 0.22223 0.35405 0.34361 0.0
C171 C 0.17399 0.35182 0.34179 0.0
C172 C 0.21394 0.31008 0.15589 0.0
C173 C 0.22134 0.34178 0.24866 0.0
C174 C 0.22248 0.27611 0.12069 0.0
C175 C 0.25639 0.25036 0.13288 0.0
C176 C 0.23914 0.31806 0.20389 0.0
C177 C 0.28401 0.26274 0.17863 0.0
C178 C 0.24606 0.34905 0.29703 0.0
C179 C 0.15268 0.35277 0.29176 0.0
N180 N 0.27411 0.29505 0.21308 0.0
N181 N 0.17615 0.34616 0.24717 0.0
H182 H -0.00541 0.23415 0.70356 0.0
H183 H 0.7883 0.01728 0.78092 0.0
H184 H 0.93566 0.12235 0.59409 0.0
H185 H 0.88348 0.09633 0.89664 0.0
H186 H 0.83106 0.06587 0.71031 0.0
H187 H 0.94348 0.19344 0.77318 0.0
C188 C 0.97072 0.20124 0.69404 0.0
C189 C 0.96967 0.18146 0.643 0.0
C190 C 0.84222 0.07279 0.75125 0.0
C191 C 0.91082 0.13509 0.72227 0.0
C192 C 0.81764 0.04536 0.79159 0.0
C193 C 0.8325 0.05259 0.84475 0.0
C194 C 0.88149 0.10812 0.76425 0.0
C195 C 0.87101 0.0893 0.85617 0.0
C196 C 0.94167 0.17801 0.73382 0.0
C197 C 0.93799 0.13868 0.63299 0.0
N198 N 0.89422 0.11563 0.81627 0.0
N199 N 0.9098 0.11697 0.67223 0.0
H200 H 0.7884 0.73528 0.39212 0.0
H201 H 0.78429 0.75308 0.07763 0.0
H202 H 0.90632 0.73189 0.29206 0.0
H203 H 0.70635 0.82361 0.18306 0.0
H204 H 0.8084 0.71213 0.15375 0.0
H205 H 0.73963 0.73329 0.31289 0.0
C206 C 0.80389 0.73281 0.35359 0.0
C207 C 0.85202 0.73539 0.34865 0.0
C208 C 0.78497 0.73558 0.15985 0.0
C209 C 0.796 0.73259 0.25817 0.0
C210 C 0.771 0.759 0.11649 0.0
C211 C 0.7443 0.79301 0.12419 0.0
C212 C 0.77156 0.74569 0.21103 0.0
C213 C 0.72775 0.79851 0.17541 0.0
C214 C 0.77589 0.73169 0.30847 0.0
C215 C 0.86968 0.73099 0.29771 0.0
N216 N 0.74232 0.77567 0.21713 0.0
N217 N 0.84179 0.73074 0.25423 0.0
H218 H 0.09873 0.93066 0.62428 0.0
H219 H 0.15172 0.93461 0.93521 0.0
H220 H 0.02494 0.82315 0.72909 0.0
H221 H 0.24494 0.01468 0.82053 0.0
H222 H 0.10426 0.89334 0.86211 0.0
H223 H 0.15099 0.96264 0.6972 0.0
C224 C 0.0934 0.91371 0.66272 0.0
C225 C 0.05709 0.87418 0.67049 0.0
C226 C 0.1355 0.91941 0.85301 0.0
C227 C 0.11731 0.91099 0.75475 0.0
C228 C 0.16275 0.943 0.89473 0.0
C229 C 0.20244 0.97845 0.88414 0.0
C230 C 0.14777 0.93157 0.80024 0.0
C231 C 0.21475 0.98774 0.8308 0.0
C232 C 0.12356 0.93193 0.70437 0.0
C233 C 0.05241 0.85365 0.72125 0.0
N234 N 0.18727 0.96486 0.79098 0.0
N235 N 0.08194 0.87254 0.76162 0.0
H236 H 0.69975 0.75262 0.8656 0.0
H237 H 0.77766 0.82909 0.57615 0.0
H238 H 0.67202 0.8746 0.78566 0.0
H239 H 0.83154 0.7313 0.67429 0.0
H240 H 0.71262 0.82359 0.63717 0.0
H241 H 0.7156 0.72069 0.77995 0.0
C242 C 0.69513 0.77192 0.8299 0.0
C243 C 0.68755 0.81774 0.83295 0.0
C244 C 0.7382 0.80263 0.6447 0.0
C245 C 0.70635 0.78178 0.73543 0.0
C246 C 0.77561 0.80603 0.61019 0.0
C247 C 0.81101 0.78184 0.62119 0.0
C248 C 0.73625 0.77497 0.69055 0.0
C249 C 0.80583 0.75168 0.66513 0.0
C250 C 0.70453 0.75374 0.78098 0.0
C251 C 0.68 0.8401 0.78533 0.0
N252 N 0.76956 0.74969 0.69869 0.0
N253 N 0.6914 0.82272 0.73842 0.0
H254 H 0.25132 0.06562 0.2452 0.0
H255 H 0.09698 0.81949 0.34071 0.0
H256 H 0.23054 0.93726 0.15381 0.0
H257 H 0.10768 0.95011 0.42593 0.0
H258 H 0.1568 0.85945 0.27958 0.0
H259 H 0.21117 0.02101 0.31991 0.0
C260 C 0.23942 0.02792 0.24126 0.0
C261 C 0.24374 0.00527 0.19288 0.0
C262 C 0.14638 0.87925 0.312 0.0
C263 C 0.19715 0.95413 0.27788 0.0
C264 C 0.11216 0.85643 0.34693 0.0
C265 C 0.09687 0.88147 0.38832 0.0
C266 C 0.16541 0.92755 0.31828 0.0
C267 C 0.11811 0.92932 0.39448 0.0
C268 C 0.21612 0.0025 0.2838 0.0
C269 C 0.22745 0.95631 0.1901 0.0
N270 N 0.15094 0.95085 0.35959 0.0
N271 N 0.20439 0.93252 0.23169 0.0
H272 H 0.24778 0.25751 0.59103 0.0
H273 H 0.25321 0.26946 0.90469 0.0
H274 H 0.16864 0.33489 0.6865 0.0
H275 H 0.31929 0.17806 0.81216 0.0
H276 H 0.24362 0.31304 0.82432 0.0
H277 H 0.29415 0.24771 0.66954 0.0
C278 C 0.24074 0.2733 0.62821 0.0
C279 C 0.20332 0.29584 0.6326 0.0
C280 C 0.26107 0.28404 0.82167 0.0
C281 C 0.25615 0.28458 0.72243 0.0
C282 C 0.26657 0.25914 0.86757 0.0
C283 C 0.28581 0.21925 0.86471 0.0
C284 C 0.27422 0.26845 0.77249 0.0
C285 C 0.30351 0.20813 0.81591 0.0
C286 C 0.26725 0.26765 0.67302 0.0
C287 C 0.19634 0.31618 0.68157 0.0
N288 N 0.29625 0.23193 0.77134 0.0
N289 N 0.22195 0.30935 0.72479 0.0
H290 H 0.7996 0.99449 0.20306 0.0
H291 H -0.0095 0.2234 0.28793 0.0
H292 H 0.90053 0.0726 0.09461 0.0
H293 H 0.92326 0.12043 0.40133 0.0
H294 H 0.94881 0.17466 0.21588 0.0
H295 H 0.83676 0.04571 0.27571 0.0
C296 C 0.82948 0.02243 0.19447 0.0
C297 C 0.84703 0.02915 0.14262 0.0
C298 C 0.94304 0.1628 0.25655 0.0
C299 C 0.88928 0.08816 0.22545 0.0
C300 C 0.96646 0.1908 0.29768 0.0
C301 C 0.96051 0.17569 0.35057 0.0
C302 C 0.91294 0.11968 0.26845 0.0
C303 C 0.92928 0.13296 0.36096 0.0
C304 C 0.8507 0.05156 0.23598 0.0
C305 C 0.88594 0.0659 0.13393 0.0
N306 N 0.90664 0.10639 0.32027 0.0
N307 N 0.90558 0.09411 0.17483 0.0
loop_
_geom_bond_atom_site_label_1
_geom_bond_atom_site_label_2
_geom_bond_distance
_geom_bond_site_symmetry_2
_ccdc_geom_bond_type
O0 Zn1 1.953 1_545 S
O0 C16 1.225 1_556 S
Zn1 O0 1.953 1_565 S
Zn1 O2 1.949 1_566 S
Zn1 O8 1.919 . S
Zn1 O13 1.924 1_556 S
O2 Zn1 1.949 1_544 S
O2 Zn3 1.923 1_554 S
O2 Zn4 1.950 . S
O2 Zn5 1.945 . S
Zn3 O2 1.923 1_556 S
Zn3 O6 1.933 . S
Zn3 O9 1.941 . S
Zn3 O10 1.965 . S
Zn4 O2 1.950 . S
Zn4 O11 1.938 1_554 S
Zn4 O12 1.906 . S
Zn4 O22 1.953 . S
Zn5 O2 1.945 . S
Zn5 O7 1.932 . S
Zn5 O14 1.977 . S
Zn5 O15 1.910 1_545 S
O6 Zn3 1.933 . S
O6 C17 1.226 1_556 S
O7 Zn5 1.932 . S
O7 C17 1.307 . S
O8 Zn1 1.919 . S
O8 C19 1.253 . S
O9 Zn3 1.941 . S
O9 C19 1.283 1_545 S
O10 Zn3 1.965 . S
O10 C18 1.303 . S
O11 Zn4 1.938 1_556 S
O11 C18 1.247 . S
O12 Zn4 1.906 . S
O12 C20 1.304 . S
O13 Zn1 1.924 1_554 S
O13 C21 1.311 . S
O14 Zn5 1.977 . S
O14 C20 1.272 . S
O15 Zn5 1.910 1_565 S
O15 C21 1.231 . S
C16 O0 1.225 1_554 S
C16 O22 1.298 . S
C17 O6 1.226 1_554 S
C17 O7 1.307 . S
C18 O10 1.303 . S
C18 O11 1.247 . S
C19 O8 1.253 . S
C19 O9 1.283 1_565 S
C20 O12 1.304 . S
C20 O14 1.272 . S
C21 O13 1.311 . S
C21 O15 1.231 . S
O22 Zn4 1.953 . S
O22 C16 1.298 . S
O23 Zn24 1.953 1_455 S
O23 C39 1.225 . S
Zn24 O23 1.953 1_655 S
Zn24 O25 1.949 1_655 S
Zn24 O31 1.919 . S
Zn24 O36 1.924 . S
O25 Zn24 1.949 1_455 S
O25 Zn26 1.923 . S
O25 Zn27 1.950 . S
O25 Zn28 1.945 . S
Zn26 O25 1.923 . S
Zn26 O29 1.933 . S
Zn26 O32 1.941 . S
Zn26 O33 1.965 . S
Zn27 O25 1.950 . S
Zn27 O34 1.938 . S
Zn27 O35 1.906 . S
Zn27 O45 1.953 . S
Zn28 O25 1.945 . S
Zn28 O30 1.932 . S
Zn28 O37 1.977 . S
Zn28 O38 1.910 1_455 S
O29 Zn26 1.933 . S
O29 C40 1.226 . S
O30 Zn28 1.932 . S
O30 C40 1.307 . S
O31 Zn24 1.919 . S
O31 C42 1.253 . S
O32 Zn26 1.941 . S
O32 C42 1.283 1_455 S
O33 Zn26 1.965 . S
O33 C41 1.303 . S
O34 Zn27 1.938 . S
O34 C41 1.247 . S
O35 Zn27 1.906 . S
O35 C43 1.304 . S
O36 Zn24 1.924 . S
O36 C44 1.311 . S
O37 Zn28 1.977 . S
O37 C43 1.272 . S
O38 Zn28 1.910 1_655 S
O38 C44 1.231 . S
C39 O23 1.225 . S
C39 O45 1.298 . S
C40 O29 1.226 . S
C40 O30 1.307 . S
C41 O33 1.303 . S
C41 O34 1.247 . S
C42 O31 1.253 . S
C42 O32 1.283 1_655 S
C43 O35 1.304 . S
C43 O37 1.272 . S
C44 O36 1.311 . S
C44 O38 1.231 . S
O45 Zn27 1.953 . S
O45 C39 1.298 . S
O46 Zn47 1.953 . S
O46 C62 1.225 1_556 S
Zn47 O46 1.953 . S
Zn47 O48 1.950 1_546 S
Zn47 O54 1.919 . S
Zn47 O59 1.924 1_556 S
O48 Zn47 1.950 1_564 S
O48 Zn49 1.923 1_554 S
O48 Zn50 1.948 . S
O48 Zn51 1.945 1_565 S
Zn49 O48 1.923 1_556 S
Zn49 O52 1.933 . S
Zn49 O55 1.941 1_565 S
Zn49 O56 1.965 . S
Zn50 O48 1.948 . S
Zn50 O57 1.938 1_554 S
Zn50 O58 1.906 . S
Zn50 O68 1.953 . S
Zn51 O48 1.945 1_545 S
Zn51 O53 1.932 . S
Zn51 O60 1.977 1_545 S
Zn51 O61 1.910 . S
O52 Zn49 1.933 . S
O52 C63 1.226 1_556 S
O53 Zn51 1.932 . S
O53 C63 1.307 1_545 S
O54 Zn47 1.919 . S
O54 C65 1.253 . S
O55 Zn49 1.941 1_545 S
O55 C65 1.283 . S
O56 Zn49 1.965 . S
O56 C64 1.303 . S
O57 Zn50 1.938 1_556 S
O57 C64 1.247 . S
O58 Zn50 1.906 . S
O58 C66 1.304 . S
O59 Zn47 1.924 1_554 S
O59 C67 1.311 . S
O60 Zn51 1.977 1_565 S
O60 C66 1.272 . S
O61 Zn51 1.910 . S
O61 C67 1.231 . S
C62 O46 1.225 1_554 S
C62 O68 1.298 1_545 S
C63 O52 1.226 1_554 S
C63 O53 1.307 1_565 S
C64 O56 1.303 . S
C64 O57 1.247 . S
C65 O54 1.253 . S
C65 O55 1.283 . S
C66 O58 1.304 . S
C66 O60 1.272 . S
C67 O59 1.311 . S
C67 O61 1.231 . S
O68 Zn50 1.953 . S
O68 C62 1.298 1_565 S
O69 Zn70 1.953 . S
O69 C85 1.225 . S
Zn70 O69 1.953 . S
Zn70 O71 1.950 1_455 S
Zn70 O77 1.919 . S
Zn70 O82 1.924 . S
O71 Zn70 1.950 1_655 S
O71 Zn72 1.923 . S
O71 Zn73 1.948 . S
O71 Zn74 1.945 1_655 S
Zn72 O71 1.923 . S
Zn72 O75 1.933 . S
Zn72 O78 1.941 1_655 S
Zn72 O79 1.965 . S
Zn73 O71 1.948 . S
Zn73 O80 1.938 . S
Zn73 O81 1.906 . S
Zn73 O91 1.953 . S
Zn74 O71 1.945 1_455 S
Zn74 O76 1.932 . S
Zn74 O83 1.977 1_455 S
Zn74 O84 1.910 . S
O75 Zn72 1.933 . S
O75 C86 1.226 . S
O76 Zn74 1.932 . S
O76 C86 1.307 1_455 S
O77 Zn70 1.919 . S
O77 C88 1.253 . S
O78 Zn72 1.941 1_455 S
O78 C88 1.283 . S
O79 Zn72 1.965 . S
O79 C87 1.303 . S
O80 Zn73 1.938 . S
O80 C87 1.247 . S
O81 Zn73 1.906 . S
O81 C89 1.304 . S
O82 Zn70 1.924 . S
O82 C90 1.311 . S
O83 Zn74 1.977 1_655 S
O83 C89 1.272 . S
O84 Zn74 1.910 . S
O84 C90 1.231 . S
C85 O69 1.225 . S
C85 O91 1.298 1_455 S
C86 O75 1.226 . S
C86 O76 1.307 1_655 S
C87 O79 1.303 . S
C87 O80 1.247 . S
C88 O77 1.253 . S
C88 O78 1.283 . S
C89 O81 1.304 . S
C89 O83 1.272 . S
C90 O82 1.311 . S
C90 O84 1.231 . S
O91 Zn73 1.953 . S
O91 C85 1.298 1_655 S
H92 C98 0.930 . S
H93 C102 0.930 . S
H94 C107 0.929 . S
H95 C105 0.929 1_565 S
H96 C100 0.929 . S
H97 C106 0.930 . S
C98 H92 0.930 . S
C98 C99 1.367 . S
C98 C106 1.378 . S
C99 C98 1.367 . S
C99 C107 1.433 1_564 S
C100 H96 0.929 . S
C100 C102 1.378 . S
C100 C104 1.350 1_556 S
C101 C104 1.463 . S
C101 C106 1.350 1_445 S
C101 N109 1.427 1_454 S
C102 H93 0.930 . S
C102 C100 1.378 . S
C102 C103 1.367 1_556 S
C103 C102 1.367 1_554 S
C103 C105 1.433 . S
C104 C100 1.350 1_554 S
C104 C101 1.463 . S
C104 N108 1.427 . S
C105 H95 0.929 1_545 S
C105 C103 1.433 . S
C105 N108 1.384 . S
C106 H97 0.930 . S
C106 C98 1.378 . S
C106 C101 1.350 1_665 S
C107 H94 0.929 . S
C107 C99 1.433 1_546 S
C107 N109 1.384 . S
N108 C104 1.427 . S
N108 C105 1.384 . S
N109 C101 1.427 1_656 S
N109 C107 1.384 . S
H110 C116 0.930 . S
H111 C120 0.930 . S
H112 C125 0.929 . S
H113 C123 0.929 . S
H114 C118 0.929 . S
H115 C124 0.929 . S
C116 H110 0.930 . S
C116 C117 1.367 1_455 S
C116 C124 1.378 . S
C117 C116 1.367 1_655 S
C117 C125 1.433 . S
C118 H114 0.929 . S
C118 C120 1.378 . S
C118 C122 1.350 . S
C119 C122 1.463 . S
C119 C124 1.350 1_545 S
C119 N127 1.427 1_545 S
C120 H111 0.930 . S
C120 C118 1.378 . S
C120 C121 1.367 . S
C121 C120 1.367 . S
C121 C123 1.433 . S
C122 C118 1.350 . S
C122 C119 1.463 . S
C122 N126 1.427 . S
C123 H113 0.929 . S
C123 C121 1.433 . S
C123 N126 1.384 . S
C124 H115 0.929 . S
C124 C116 1.378 . S
C124 C119 1.350 1_565 S
C125 H112 0.929 . S
C125 C117 1.433 . S
C125 N127 1.384 1_655 S
N126 C122 1.427 . S
N126 C123 1.384 . S
N127 C119 1.427 1_565 S
N127 C125 1.384 1_455 S
H128 C134 0.930 . S
H129 C138 0.930 . S
H130 C143 0.929 . S
H131 C141 0.929 1_565 S
H132 C136 0.929 . S
H133 C142 0.929 . S
C134 H128 0.930 . S
C134 C135 1.367 1_556 S
C134 C142 1.378 . S
C135 C134 1.367 1_554 S
C135 C143 1.433 1_565 S
C136 H132 0.929 . S
C136 C138 1.378 . S
C136 C140 1.350 . S
C137 C140 1.463 . S
C137 C142 1.350 1_544 S
C137 N145 1.427 . S
C138 H129 0.930 . S
C138 C136 1.378 . S
C138 C139 1.367 . S
C139 C138 1.367 . S
C139 C141 1.433 1_554 S
C140 C136 1.350 . S
C140 C137 1.463 . S
C140 N144 1.415 1_544 S
C141 H131 0.929 1_545 S
C141 C139 1.433 1_556 S
C141 N144 1.375 1_545 S
C142 H133 0.929 . S
C142 C134 1.378 . S
C142 C137 1.350 1_566 S
C143 H130 0.929 . S
C143 C135 1.433 1_545 S
C143 N145 1.384 . S
N144 C140 1.415 1_566 S
N144 C141 1.375 1_565 S
N145 C137 1.427 . S
N145 C143 1.384 . S
H146 C152 0.930 . S
H147 C156 0.930 . S
H148 C161 0.929 . S
H149 C159 0.929 . S
H150 C154 0.929 . S
H151 C160 0.929 1_655 S
C152 H146 0.930 . S
C152 C153 1.367 . S
C152 C160 1.378 . S
C153 C152 1.367 . S
C153 C161 1.433 . S
C154 H150 0.929 . S
C154 C156 1.378 . S
C154 C158 1.350 . S
C155 C158 1.463 . S
C155 C160 1.350 . S
C155 N163 1.427 . S
C156 H147 0.930 . S
C156 C154 1.378 . S
C156 C157 1.347 1_455 S
C157 C156 1.347 1_655 S
C157 C159 1.444 . S
C158 C154 1.350 . S
C158 C155 1.463 . S
C158 N162 1.427 1_455 S
C159 H149 0.929 . S
C159 C157 1.444 . S
C159 N162 1.384 . S
C160 H151 0.929 1_455 S
C160 C152 1.378 . S
C160 C155 1.350 . S
C161 H148 0.929 . S
C161 C153 1.433 . S
C161 N163 1.384 . S
N162 C158 1.427 1_655 S
N162 C159 1.384 . S
N163 C155 1.427 . S
N163 C161 1.384 . S
H164 C170 0.930 . S
H165 C174 0.930 . S
H166 C179 0.929 . S
H167 C177 0.929 . S
H168 C172 0.929 . S
H169 C178 0.929 . S
C170 H164 0.930 . S
C170 C171 1.367 . S
C170 C178 1.378 . S
C171 C170 1.367 . S
C171 C179 1.433 . S
C172 H168 0.929 . S
C172 C174 1.378 . S
C172 C176 1.350 . S
C173 C176 1.463 . S
C173 C178 1.350 . S
C173 N181 1.427 . S
C174 H165 0.930 . S
C174 C172 1.378 . S
C174 C175 1.367 . S
C175 C174 1.367 . S
C175 C177 1.433 . S
C176 C172 1.350 . S
C176 C173 1.463 . S
C176 N180 1.427 . S
C177 H167 0.929 . S
C177 C175 1.433 . S
C177 N180 1.384 . S
C178 H169 0.929 . S
C178 C170 1.378 . S
C178 C173 1.350 . S
C179 H166 0.929 . S
C179 C171 1.433 . S
C179 N181 1.384 . S
N180 C176 1.427 . S
N180 C177 1.384 . S
N181 C173 1.427 . S
N181 C179 1.384 . S
H182 C188 0.930 . S
H183 C192 0.930 . S
H184 C197 0.929 . S
H185 C195 0.929 . S
H186 C190 0.929 . S
H187 C196 0.929 . S
C188 H182 0.930 . S
C188 C189 1.367 . S
C188 C196 1.378 . S
C189 C188 1.367 . S
C189 C197 1.433 . S
C190 H186 0.929 . S
C190 C192 1.378 . S
C190 C194 1.350 . S
C191 C194 1.463 . S
C191 C196 1.350 . S
C191 N199 1.427 . S
C192 H183 0.930 . S
C192 C190 1.378 . S
C192 C193 1.367 . S
C193 C192 1.367 . S
C193 C195 1.433 . S
C194 C190 1.350 . S
C194 C191 1.463 . S
C194 N198 1.427 . S
C195 H185 0.929 . S
C195 C193 1.433 . S
C195 N198 1.384 . S
C196 H187 0.929 . S
C196 C188 1.378 . S
C196 C191 1.350 . S
C197 H184 0.929 . S
C197 C189 1.433 . S
C197 N199 1.384 . S
N198 C194 1.427 . S
N198 C195 1.384 . S
N199 C191 1.427 . S
N199 C197 1.384 . S
H200 C206 0.930 . S
H201 C210 0.930 . S
H202 C215 0.929 . S
H203 C213 0.929 . S
H204 C208 0.929 . S
H205 C214 0.929 . S
C206 H200 0.930 . S
C206 C207 1.367 . S
C206 C214 1.378 . S
C207 C206 1.367 . S
C207 C215 1.433 . S
C208 H204 0.929 . S
C208 C210 1.378 . S
C208 C212 1.350 . S
C209 C212 1.463 . S
C209 C214 1.350 . S
C209 N217 1.427 . S
C210 H201 0.930 . S
C210 C208 1.378 . S
C210 C211 1.367 . S
C211 C210 1.367 . S
C211 C213 1.433 . S
C212 C208 1.350 . S
C212 C209 1.463 . S
C212 N216 1.427 . S
C213 H203 0.929 . S
C213 C211 1.433 . S
C213 N216 1.384 . S
C214 H205 0.929 . S
C214 C206 1.378 . S
C214 C209 1.350 . S
C215 H202 0.929 . S
C215 C207 1.433 . S
C215 N217 1.384 . S
N216 C212 1.427 . S
N216 C213 1.384 . S
N217 C209 1.427 . S
N217 C215 1.384 . S
H218 C224 0.930 . S
H219 C228 0.930 . S
H220 C233 0.929 . S
H221 C231 0.929 . S
H222 C226 0.929 . S
H223 C232 0.929 . S
C224 H218 0.930 . S
C224 C225 1.367 . S
C224 C232 1.378 . S
C225 C224 1.367 . S
C225 C233 1.433 . S
C226 H222 0.929 . S
C226 C228 1.378 . S
C226 C230 1.350 . S
C227 C230 1.463 . S
C227 C232 1.350 . S
C227 N235 1.427 . S
C228 H219 0.930 . S
C228 C226 1.378 . S
C228 C229 1.367 . S
C229 C228 1.367 . S
C229 C231 1.433 . S
C230 C226 1.350 . S
C230 C227 1.463 . S
C230 N234 1.427 . S
C231 H221 0.929 . S
C231 C229 1.433 . S
C231 N234 1.384 . S
C232 H223 0.929 . S
C232 C224 1.378 . S
C232 C227 1.350 . S
C233 H220 0.929 . S
C233 C225 1.433 . S
C233 N235 1.384 . S
N234 C230 1.427 . S
N234 C231 1.384 . S
N235 C227 1.427 . S
N235 C233 1.384 . S
H236 C242 0.930 . S
H237 C246 0.930 . S
H238 C251 0.929 . S
H239 C249 0.929 . S
H240 C244 0.929 . S
H241 C250 0.929 . S
C242 H236 0.930 . S
C242 C243 1.367 . S
C242 C250 1.378 . S
C243 C242 1.367 . S
C243 C251 1.433 . S
C244 H240 0.929 . S
C244 C246 1.378 . S
C244 C248 1.350 . S
C245 C248 1.463 . S
C245 C250 1.350 . S
C245 N253 1.427 . S
C246 H237 0.930 . S
C246 C244 1.378 . S
C246 C247 1.367 . S
C247 C246 1.367 . S
C247 C249 1.433 . S
C248 C244 1.350 . S
C248 C245 1.463 . S
C248 N252 1.427 . S
C249 H239 0.929 . S
C249 C247 1.433 . S
C249 N252 1.384 . S
C250 H241 0.929 . S
C250 C242 1.378 . S
C250 C245 1.350 . S
C251 H238 0.929 . S
C251 C243 1.433 . S
C251 N253 1.384 . S
N252 C248 1.427 . S
N252 C249 1.384 . S
N253 C245 1.427 . S
N253 C251 1.384 . S
H254 C260 0.930 1_545 S
H255 C264 0.930 . S
H256 C269 0.929 . S
H257 C267 0.929 . S
H258 C262 0.929 . S
H259 C268 0.929 . S
C260 H254 0.930 1_565 S
C260 C261 1.367 . S
C260 C268 1.378 . S
C261 C260 1.367 . S
C261 C269 1.433 . S
C262 H258 0.929 . S
C262 C264 1.378 . S
C262 C266 1.350 . S
C263 C266 1.463 . S
C263 C268 1.350 . S
C263 N271 1.427 . S
C264 H255 0.930 . S
C264 C262 1.378 . S
C264 C265 1.367 . S
C265 C264 1.367 . S
C265 C267 1.433 . S
C266 C262 1.350 . S
C266 C263 1.463 . S
C266 N270 1.427 . S
C267 H257 0.929 . S
C267 C265 1.433 . S
C267 N270 1.384 . S
C268 H259 0.929 . S
C268 C260 1.378 . S
C268 C263 1.350 . S
C269 H256 0.929 . S
C269 C261 1.433 . S
C269 N271 1.384 . S
N270 C266 1.427 . S
N270 C267 1.384 . S
N271 C263 1.427 . S
N271 C269 1.384 . S
H272 C278 0.930 . S
H273 C282 0.930 . S
H274 C287 0.929 . S
H275 C285 0.929 . S
H276 C280 0.929 . S
H277 C286 0.929 . S
C278 H272 0.930 . S
C278 C279 1.367 . S
C278 C286 1.378 . S
C279 C278 1.367 . S
C279 C287 1.433 . S
C280 H276 0.929 . S
C280 C282 1.378 . S
C280 C284 1.350 . S
C281 C284 1.463 . S
C281 C286 1.350 . S
C281 N289 1.427 . S
C282 H273 0.930 . S
C282 C280 1.378 . S
C282 C283 1.367 . S
C283 C282 1.367 . S
C283 C285 1.433 . S
C284 C280 1.350 . S
C284 C281 1.463 . S
C284 N288 1.427 . S
C285 H275 0.929 . S
C285 C283 1.433 . S
C285 N288 1.384 . S
C286 H277 0.929 . S
C286 C278 1.378 . S
C286 C281 1.350 . S
C287 H274 0.929 . S
C287 C279 1.433 . S
C287 N289 1.384 . S
N288 C284 1.427 . S
N288 C285 1.384 . S
N289 C281 1.427 . S
N289 C287 1.384 . S
H290 C296 0.930 . S
H291 C300 0.930 . S
H292 C305 0.929 . S
H293 C303 0.929 . S
H294 C298 0.929 . S
H295 C304 0.929 . S
C296 H290 0.930 . S
C296 C297 1.367 . S
C296 C304 1.378 . S
C297 C296 1.367 . S
C297 C305 1.433 . S
C298 H294 0.929 . S
C298 C300 1.378 . S
C298 C302 1.350 . S
C299 C302 1.463 . S
C299 C304 1.350 . S
C299 N307 1.427 . S
C300 H291 0.930 . S
C300 C298 1.378 . S
C300 C301 1.367 . S
C301 C300 1.367 . S
C301 C303 1.433 . S
C302 C298 1.350 . S
C302 C299 1.463 . S
C302 N306 1.427 . S
C303 H293 0.929 . S
C303 C301 1.433 . S
C303 N306 1.384 . S
C304 H295 0.929 . S
C304 C296 1.378 . S
C304 C299 1.350 . S
C305 H292 0.929 . S
C305 C297 1.433 . S
C305 N307 1.384 . S
N306 C302 1.427 . S
N306 C303 1.384 . S
N307 C299 1.427 . S
N307 C305 1.384 . S
C99 C62 0.403 1_565 S
C103 C16 0.403 . S
C117 C85 0.385 1_655 S
C121 C39 0.388 . S
C135 C63 0.822 . S
C139 C17 0.822 . S
C153 C40 0.814 . S
C157 C86 0.820 . S
C171 C43 1.548 . S
C175 C20 1.558 . S
C189 C42 1.613 . S
C193 C65 1.594 . S
C207 C89 1.554 . S
C211 C66 1.553 . S
C225 C88 1.592 . S
C229 C19 1.611 . S
C243 C64 1.133 . S
C247 C87 1.135 . S
C261 C21 1.160 . S
C265 C90 1.161 . S
C279 C41 1.132 . S
C283 C18 1.134 . S
C297 C67 1.160 . S
C301 C44 1.161 . S
