# Generated by pormake.
# Topology vbe, (5)-cn, num edge types: 1
# Building blocks:
#     Node 0, Type 0, BuildingBlock: XOMCOT_clean_sbu_1, # of connection points: 5
#     Node 1, Type 0, BuildingBlock: XOMCOT_clean_sbu_1, # of connection points: 5
#     Node 2, Type 0, BuildingBlock: XOMCOT_clean_sbu_1, # of connection points: 5
#     Node 3, Type 0, BuildingBlock: XOMCOT_clean_sbu_1, # of connection points: 5
#     Node 4, Type 0, BuildingBlock: XOMCOT_clean_sbu_1, # of connection points: 5
#     Node 5, Type 0, BuildingBlock: XOMCOT_clean_sbu_1, # of connection points: 5
#     Node 6, Type 0, BuildingBlock: XOMCOT_clean_sbu_1, # of connection points: 5
#     Node 7, Type 0, BuildingBlock: XOMCOT_clean_sbu_1, # of connection points: 5
#     Node 8, Type 0, BuildingBlock: XOMCOT_clean_sbu_1, # of connection points: 5
#     Node 9, Type 0, BuildingBlock: XOMCOT_clean_sbu_1, # of connection points: 5
#     Node 10, Type 0, BuildingBlock: XOMCOT_clean_sbu_1, # of connection points: 5
#     Node 11, Type 0, BuildingBlock: XOMCOT_clean_sbu_1, # of connection points: 5
#     Node 12, Type 0, BuildingBlock: XOMCOT_clean_sbu_1, # of connection points: 5
#     Node 13, Type 0, BuildingBlock: XOMCOT_clean_sbu_1, # of connection points: 5
#     Node 14, Type 0, BuildingBlock: XOMCOT_clean_sbu_1, # of connection points: 5
#     Node 15, Type 0, BuildingBlock: XOMCOT_clean_sbu_1, # of connection points: 5
#     Edge 16, Type (0, 0), BuildingBlock: OJICUG_clean_linker_0, # of connection points: 2
#     Edge 17, Type (0, 0), BuildingBlock: OJICUG_clean_linker_0, # of connection points: 2
#     Edge 18, Type (0, 0), BuildingBlock: OJICUG_clean_linker_0, # of connection points: 2
#     Edge 19, Type (0, 0), BuildingBlock: OJICUG_clean_linker_0, # of connection points: 2
#     Edge 20, Type (0, 0), BuildingBlock: OJICUG_clean_linker_0, # of connection points: 2
#     Edge 21, Type (0, 0), BuildingBlock: OJICUG_clean_linker_0, # of connection points: 2
#     Edge 22, Type (0, 0), BuildingBlock: OJICUG_clean_linker_0, # of connection points: 2
#     Edge 23, Type (0, 0), BuildingBlock: OJICUG_clean_linker_0, # of connection points: 2
#     Edge 24, Type (0, 0), BuildingBlock: OJICUG_clean_linker_0, # of connection points: 2
#     Edge 25, Type (0, 0), BuildingBlock: OJICUG_clean_linker_0, # of connection points: 2
#     Edge 26, Type (0, 0), BuildingBlock: OJICUG_clean_linker_0, # of connection points: 2
#     Edge 27, Type (0, 0), BuildingBlock: OJICUG_clean_linker_0, # of connection points: 2
#     Edge 28, Type (0, 0), BuildingBlock: OJICUG_clean_linker_0, # of connection points: 2
#     Edge 29, Type (0, 0), BuildingBlock: OJICUG_clean_linker_0, # of connection points: 2
#     Edge 30, Type (0, 0), BuildingBlock: OJICUG_clean_linker_0, # of connection points: 2
#     Edge 31, Type (0, 0), BuildingBlock: OJICUG_clean_linker_0, # of connection points: 2
#     Edge 32, Type (0, 0), BuildingBlock: OJICUG_clean_linker_0, # of connection points: 2
#     Edge 33, Type (0, 0), BuildingBlock: OJICUG_clean_linker_0, # of connection points: 2
#     Edge 34, Type (0, 0), BuildingBlock: OJICUG_clean_linker_0, # of connection points: 2
#     Edge 35, Type (0, 0), BuildingBlock: OJICUG_clean_linker_0, # of connection points: 2
#     Edge 36, Type (0, 0), BuildingBlock: OJICUG_clean_linker_0, # of connection points: 2
#     Edge 37, Type (0, 0), BuildingBlock: OJICUG_clean_linker_0, # of connection points: 2
#     Edge 38, Type (0, 0), BuildingBlock: OJICUG_clean_linker_0, # of connection points: 2
#     Edge 39, Type (0, 0), BuildingBlock: OJICUG_clean_linker_0, # of connection points: 2
#     Edge 40, Type (0, 0), BuildingBlock: OJICUG_clean_linker_0, # of connection points: 2
#     Edge 41, Type (0, 0), BuildingBlock: OJICUG_clean_linker_0, # of connection points: 2
#     Edge 42, Type (0, 0), BuildingBlock: OJICUG_clean_linker_0, # of connection points: 2
#     Edge 43, Type (0, 0), BuildingBlock: OJICUG_clean_linker_0, # of connection points: 2
#     Edge 44, Type (0, 0), BuildingBlock: OJICUG_clean_linker_0, # of connection points: 2
#     Edge 45, Type (0, 0), BuildingBlock: OJICUG_clean_linker_0, # of connection points: 2
#     Edge 46, Type (0, 0), BuildingBlock: OJICUG_clean_linker_0, # of connection points: 2
#     Edge 47, Type (0, 0), BuildingBlock: OJICUG_clean_linker_0, # of connection points: 2
#     Edge 48, Type (0, 0), BuildingBlock: OJICUG_clean_linker_0, # of connection points: 2
#     Edge 49, Type (0, 0), BuildingBlock: OJICUG_clean_linker_0, # of connection points: 2
#     Edge 50, Type (0, 0), BuildingBlock: OJICUG_clean_linker_0, # of connection points: 2
#     Edge 51, Type (0, 0), BuildingBlock: OJICUG_clean_linker_0, # of connection points: 2
#     Edge 52, Type (0, 0), BuildingBlock: OJICUG_clean_linker_0, # of connection points: 2
#     Edge 53, Type (0, 0), BuildingBlock: OJICUG_clean_linker_0, # of connection points: 2
#     Edge 54, Type (0, 0), BuildingBlock: OJICUG_clean_linker_0, # of connection points: 2
#     Edge 55, Type (0, 0), BuildingBlock: OJICUG_clean_linker_0, # of connection points: 2
# Relax obj value: 0.498
# Max RMSD: 0.273
# Mean RMSD: 0.273
data_MOF--net-vbe--node1-XOMCOT_clean_sbu_1--edge1-OJICUG_clean_linker_0
_symmetry_space_group_name_H-M    P1
_symmetry_Int_Tables_number       1
_symmetry_cell_setting            triclinic
loop_
_symmetry_equiv_pos_as_xyz
'x, y, z'
_cell_length_a     30.851211
_cell_length_b     27.547831
_cell_length_c     42.682604
_cell_angle_alpha  89.848016
_cell_angle_beta   90.206483
_cell_angle_gamma 89.851492
loop_
_atom_site_label
_atom_site_type_symbol
_atom_site_fract_x
_atom_site_fract_y
_atom_site_fract_z
_atom_type_partial_charge
C0 C 0.12519 0.2986 0.33083 0.0
C1 C 0.13583 0.3302 0.30713 0.0
N2 N 0.10235 0.33293 0.28684 0.0
N3 N 0.08513 0.28071 0.32591 0.0
C4 C 0.07217 0.30212 0.29858 0.0
H5 H 0.1449 0.29066 0.35122 0.0
Co6 Co 0.05808 0.24263 0.3577 0.0
C7 C -0.02712 0.29096 0.3361 0.0
O8 O -0.02845 0.27275 0.30773 0.0
N9 N 0.03292 0.21021 0.39161 0.0
C10 C 0.02106 0.20674 0.44298 0.0
C11 C 0.03968 0.2327 0.41918 0.0
C12 C 0.00937 0.1704 0.3993 0.0
N13 N 0.00213 0.1673 0.43054 0.0
O14 O 0.11195 0.20367 0.36349 0.0
H15 H 0.05789 0.26596 0.42175 0.0
H16 H -0.00132 0.14339 0.38271 0.0
O17 O 0.00476 0.28146 0.3544 0.0
C18 C 0.11576 0.15766 0.36796 0.0
O19 O 0.08095 0.13065 0.36991 0.0
N20 N 0.03913 0.19675 0.32716 0.0
C21 C 0.01644 0.14025 0.27547 0.0
C22 C 0.05965 0.15244 0.28115 0.0
C23 C 0.06992 0.18214 0.30616 0.0
C24 C -0.00224 0.17967 0.32439 0.0
C25 C -0.01455 0.15214 0.2983 0.0
H26 H 0.10293 0.1948 0.3078 0.0
H27 H -0.02683 0.19051 0.34093 0.0
H28 H 0.04079 0.29709 0.28802 0.0
H29 H 0.16563 0.35068 0.30548 0.0
H30 H 0.0227 0.21544 0.46766 0.0
H31 H 0.08509 0.14254 0.26494 0.0
H32 H 0.95152 0.14361 0.29499 0.0
C33 C 0.31907 1.01048 0.27774 0.0
C34 C 0.31685 0.98283 0.25086 0.0
N35 N 0.32897 0.93697 0.25785 0.0
N36 N 0.33233 0.98253 0.30193 0.0
C37 C 0.33806 0.93797 0.28896 0.0
H38 H 0.31258 1.04897 0.27924 0.0
Co39 Co 0.34588 1.00513 0.34295 0.0
C40 C 0.36747 0.91523 0.38046 0.0
O41 O 0.38034 0.93965 0.40511 0.0
N42 N 0.35931 1.02832 0.38379 0.0
C43 C 0.35327 1.04786 0.43428 0.0
C44 C 0.33189 1.03013 0.40848 0.0
C45 C 0.39717 1.04547 0.39545 0.0
N46 N 0.39439 1.0574 0.42601 0.0
O47 O 0.28527 1.01297 0.35161 0.0
H48 H 0.29862 1.01798 0.40829 0.0
H49 H 0.427 1.04731 0.38239 0.0
O50 O 0.34826 0.93729 0.35778 0.0
C51 C 0.2785 1.05827 0.34665 0.0
O52 O 0.31111 1.08469 0.33671 0.0
N53 N 0.40391 1.00412 0.332 0.0
C54 C 0.46264 1.01143 0.28432 0.0
C55 C 0.45789 0.96726 0.30007 0.0
C56 C 0.42743 0.96415 0.32382 0.0
C57 C 0.41497 1.0489 0.32113 0.0
C58 C 0.4451 1.05359 0.29729 0.0
H59 H 0.41826 0.92857 0.33102 0.0
H60 H 0.39578 1.08016 0.32762 0.0
H61 H 0.35086 0.90735 0.30168 0.0
H62 H 0.30739 0.99588 0.22791 0.0
H63 H 0.33962 1.05298 0.45736 0.0
H64 H 0.47124 0.9341 0.29041 0.0
H65 H 0.44836 1.08837 0.28562 0.0
C66 C 0.59662 0.99736 0.15394 0.0
C67 C 0.59562 0.96545 0.17887 0.0
N68 N 0.5883 0.92034 0.16789 0.0
N69 N 0.59019 0.97296 0.12699 0.0
C70 C 0.58552 0.92597 0.13633 0.0
H71 H 0.59916 1.03639 0.15561 0.0
Co72 Co 0.57912 1.00353 0.08753 0.0
C73 C 0.54855 0.92434 0.04487 0.0
O74 O 0.54025 0.95338 0.02126 0.0
N75 N 0.56793 1.0349 0.04823 0.0
C76 C 0.57549 1.06187 -0.00083 0.0
C77 C 0.59654 1.04235 0.0247 0.0
C78 C 0.52973 1.051 0.03618 0.0
N79 N 0.53336 1.06689 0.0064 0.0
O80 O 0.64033 1.00566 0.0794 0.0
H81 H 0.63036 1.03216 0.02509 0.0
H82 H 0.49888 1.04722 0.04778 0.0
O83 O 0.57023 0.93931 0.06863 0.0
C84 C 0.65012 1.04869 0.08829 0.0
O85 O 0.61929 1.07557 0.10053 0.0
N86 N 0.52135 1.00732 0.09843 0.0
C87 C 0.47142 1.01824 0.15073 0.0
C88 C 0.47278 0.97321 0.13549 0.0
C89 C 0.49803 0.96854 0.10882 0.0
C90 C 0.51279 1.05289 0.10906 0.0
C91 C 0.48669 1.0594 0.13505 0.0
H92 H 0.50507 0.93234 0.10104 0.0
H93 H 0.53167 1.08325 0.10069 0.0
H94 H 0.57812 0.89668 0.12047 0.0
H95 H 0.59756 0.97537 0.20335 0.0
H96 H 0.58989 1.07014 -0.02329 0.0
H97 H 0.46091 0.94046 0.14657 0.0
H98 H 0.48462 0.09508 0.14555 0.0
C99 C 0.80643 0.26255 0.12501 0.0
C100 C 0.79714 0.29499 0.14836 0.0
N101 N 0.83347 0.3192 0.15566 0.0
N102 N 0.84893 0.26487 0.11728 0.0
C103 C 0.86434 0.30068 0.13646 0.0
H104 H 0.78256 0.23995 0.11379 0.0
Co105 Co 0.87291 0.23062 0.08142 0.0
C106 C 0.95789 0.27918 0.09941 0.0
O107 O 0.95926 0.26037 0.12773 0.0
N108 N 0.89392 0.20235 0.04433 0.0
C109 C 0.90723 0.20636 -0.0069 0.0
C110 C 0.89023 0.23022 0.01845 0.0
C111 C 0.91312 0.16107 0.03387 0.0
N112 N 0.92174 0.16276 0.00283 0.0
O113 O 0.82091 0.18843 0.07874 0.0
H114 H 0.87608 0.26618 0.01818 0.0
H115 H 0.92171 0.13058 0.04858 0.0
O116 O 0.92504 0.27173 0.08164 0.0
C117 C 0.81726 0.14219 0.07582 0.0
O118 O 0.85209 0.11492 0.07457 0.0
N119 N 0.90031 0.18388 0.10804 0.0
C120 C 0.94202 0.12909 0.15423 0.0
C121 C 0.89799 0.14064 0.15692 0.0
C122 C 0.87777 0.16767 0.13352 0.0
C123 C 0.94191 0.16831 0.1035 0.0
C124 C 0.96307 0.14009 0.12601 0.0
H125 H 0.84426 0.17744 0.13683 0.0
H126 H 0.96044 0.181 0.0837 0.0
H127 H 0.89643 0.31577 0.13512 0.0
H128 H 0.76558 0.30131 0.15861 0.0
H129 H 0.90838 0.21997 -0.03068 0.0
H130 H 0.88002 0.13292 0.17809 0.0
H131 H -0.00314 0.13092 0.12254 0.0
C132 C 0.80095 0.88218 0.59998 0.0
C133 C 0.79031 0.85058 0.62368 0.0
N134 N 0.82379 0.84784 0.64396 0.0
N135 N 0.84101 0.90006 0.6049 0.0
C136 C 0.85398 0.87865 0.63222 0.0
H137 H 0.78124 0.89012 0.57959 0.0
Co138 Co 0.86806 0.93814 0.57311 0.0
C139 C 0.95326 0.88979 0.59469 0.0
O140 O 0.9546 0.908 0.62307 0.0
N141 N 0.89322 0.97056 0.53919 0.0
C142 C 0.90507 0.97403 0.48783 0.0
C143 C 0.88646 0.94807 0.51162 0.0
C144 C 0.91677 1.01037 0.5315 0.0
N145 N 0.92401 1.01347 0.50027 0.0
O146 O 0.81419 0.97711 0.56732 0.0
H147 H 0.86825 0.91481 0.50906 0.0
H148 H 0.92746 1.03738 0.54809 0.0
O149 O 0.92137 0.8993 0.5764 0.0
C150 C 0.81039 1.02312 0.56285 0.0
O151 O 0.8452 1.05012 0.5609 0.0
N152 N 0.88702 0.98401 0.60364 0.0
C153 C 0.90974 1.0405 0.65533 0.0
C154 C 0.86652 1.02831 0.64966 0.0
C155 C 0.85624 0.99863 0.62464 0.0
C156 C 0.92839 1.00108 0.60641 0.0
C157 C 0.94072 1.02861 0.6325 0.0
H158 H 0.82323 0.98597 0.62301 0.0
H159 H 0.95298 0.99024 0.58987 0.0
H160 H 0.88536 0.88367 0.64278 0.0
H161 H 0.76051 0.8301 0.62533 0.0
H162 H 0.90344 0.96534 0.46314 0.0
H163 H 0.84108 1.03822 0.66588 0.0
H164 H -0.02535 1.03713 0.63581 0.0
C165 C 0.60706 0.17031 0.65304 0.0
C166 C 0.60928 0.19796 0.67991 0.0
N167 N 0.59719 0.24383 0.67293 0.0
N168 N 0.59382 0.19827 0.62885 0.0
C169 C 0.58811 0.24282 0.64182 0.0
H170 H 0.61354 0.13182 0.65154 0.0
Co171 Co 0.58027 0.17567 0.58782 0.0
C172 C 0.55867 0.26557 0.55032 0.0
O173 O 0.54579 0.24115 0.52567 0.0
N174 N 0.56684 0.15248 0.54699 0.0
C175 C 0.57288 0.13294 0.49649 0.0
C176 C 0.59426 0.15068 0.5223 0.0
C177 C 0.52898 0.13533 0.53532 0.0
N178 N 0.53177 0.1234 0.50476 0.0
O179 O 0.64088 0.16782 0.57917 0.0
H180 H 0.62753 0.16282 0.52249 0.0
H181 H 0.49915 0.13349 0.54839 0.0
O182 O 0.5779 0.24351 0.573 0.0
C183 C 0.64764 0.12252 0.58413 0.0
O184 O 0.61503 0.0961 0.59407 0.0
N185 N 0.52223 0.17669 0.59877 0.0
C186 C 0.46351 0.16936 0.64645 0.0
C187 C 0.46827 0.21355 0.63071 0.0
C188 C 0.49872 0.21666 0.60696 0.0
C189 C 0.51117 0.1319 0.60964 0.0
C190 C 0.48104 0.12721 0.63348 0.0
H191 H 0.5079 0.25224 0.59977 0.0
H192 H 0.53035 0.10064 0.60315 0.0
H193 H 0.57532 0.27346 0.6291 0.0
H194 H 0.61874 0.1849 0.70287 0.0
H195 H 0.58654 0.12783 0.47341 0.0
H196 H 0.45492 0.24671 0.64038 0.0
H197 H 0.47777 0.09243 0.64514 0.0
C198 C 0.32964 0.18334 0.77686 0.0
C199 C 0.33063 0.21525 0.75194 0.0
N200 N 0.33795 0.26036 0.76292 0.0
N201 N 0.33608 0.20772 0.80381 0.0
C202 C 0.34074 0.25472 0.79448 0.0
H203 H 0.32709 0.1443 0.77518 0.0
Co204 Co 0.34715 0.17714 0.84327 0.0
C205 C 0.37773 0.25632 0.88592 0.0
O206 O 0.3861 0.22725 0.90952 0.0
N207 N 0.35833 0.14576 0.88256 0.0
C208 C 0.35076 0.1188 0.93162 0.0
C209 C 0.32972 0.13834 0.9061 0.0
C210 C 0.39652 0.12962 0.8946 0.0
N211 N 0.39289 0.11374 0.92439 0.0
O212 O 0.28594 0.175 0.85139 0.0
H213 H 0.29591 0.14856 0.90571 0.0
H214 H 0.42737 0.13337 0.88301 0.0
O215 O 0.35602 0.24136 0.86218 0.0
C216 C 0.27614 0.13197 0.8425 0.0
O217 O 0.30697 0.1051 0.83026 0.0
N218 N 0.40492 0.17336 0.83237 0.0
C219 C 0.4548 0.16248 0.78005 0.0
C220 C 0.45346 0.20749 0.7953 0.0
C221 C 0.42823 0.21215 0.82199 0.0
C222 C 0.41347 0.1278 0.82173 0.0
C223 C 0.43955 0.12131 0.79572 0.0
H224 H 0.42119 0.24834 0.82978 0.0
H225 H 0.3946 0.09743 0.83009 0.0
H226 H 0.34814 0.28401 0.81034 0.0
H227 H 0.32868 0.20534 0.72746 0.0
H228 H 0.33635 0.11055 0.95409 0.0
H229 H 0.46532 0.24026 0.78423 0.0
H230 H 0.44161 1.08563 0.78521 0.0
C231 C 0.11977 0.91818 0.80573 0.0
C232 C 0.12904 0.88573 0.78237 0.0
N233 N 0.09271 0.86151 0.77509 0.0
N234 N 0.07728 0.91585 0.81349 0.0
C235 C 0.06186 0.88002 0.79432 0.0
H236 H 0.14364 0.9408 0.81692 0.0
Co237 Co 0.05332 0.95009 0.84935 0.0
C238 C -0.03168 0.90154 0.83137 0.0
O239 O -0.03304 0.92035 0.80305 0.0
N240 N 0.03232 0.97836 0.88645 0.0
C241 C 0.01904 0.97434 0.93768 0.0
C242 C 0.03602 0.95048 0.91233 0.0
C243 C 0.01313 1.01963 0.89692 0.0
N244 N 0.00453 1.01794 0.92796 0.0
O245 O 0.10533 0.99227 0.85203 0.0
H246 H 0.05017 0.91452 0.91259 0.0
H247 H 0.00455 1.05013 0.88221 0.0
O248 O 0.00119 0.90899 0.84914 0.0
C249 C 0.10898 1.0385 0.85496 0.0
O250 O 0.07416 1.06578 0.85621 0.0
N251 N 0.02591 0.99684 0.82274 0.0
C252 C -0.01581 1.05164 0.77656 0.0
C253 C 0.02822 1.04009 0.77387 0.0
C254 C 0.04845 1.01306 0.79726 0.0
C255 C -0.01569 1.01241 0.8273 0.0
C256 C -0.03685 1.04063 0.80479 0.0
H257 H 0.08196 1.00329 0.79394 0.0
H258 H -0.03421 0.99971 0.84709 0.0
H259 H 0.02977 0.86491 0.79568 0.0
H260 H 0.16059 0.87943 0.7721 0.0
H261 H 0.01789 0.96073 0.96147 0.0
H262 H 0.04618 1.04782 0.7527 0.0
H263 H 0.92936 1.0498 0.80826 0.0
C264 C 0.5296 0.67926 0.26027 0.0
C265 C 0.53719 0.70799 0.23436 0.0
N266 N 0.55232 0.75139 0.24394 0.0
N267 N 0.53924 0.7042 0.28659 0.0
C268 C 0.55403 0.74757 0.27566 0.0
H269 H 0.51767 0.64253 0.25944 0.0
Co270 Co 0.53403 0.68694 0.33015 0.0
C271 C 0.47847 0.7735 0.32461 0.0
O272 O 0.46644 0.75806 0.2968 0.0
N273 N 0.53004 0.67291 0.37288 0.0
C274 C 0.53301 0.68496 0.42427 0.0
C275 C 0.54522 0.7025 0.39553 0.0
C276 C 0.50924 0.63721 0.38842 0.0
N277 N 0.51003 0.64409 0.41972 0.0
O278 O 0.59345 0.70586 0.3364 0.0
H279 H 0.56273 0.73583 0.39133 0.0
H280 H 0.49177 0.60821 0.377 0.0
O281 O 0.5086 0.75103 0.33952 0.0
C282 C 0.60981 0.66306 0.33464 0.0
O283 O 0.5841 0.62687 0.32748 0.0
N284 N 0.47919 0.65908 0.32408 0.0
C285 C 0.40851 0.61404 0.29852 0.0
C286 C 0.44812 0.58912 0.30028 0.0
C287 C 0.48367 0.61365 0.31204 0.0
C288 C 0.43887 0.67419 0.33308 0.0
C289 C 0.40227 0.65235 0.3198 0.0
H290 H 0.51535 0.59801 0.30882 0.0
H291 H 0.43464 0.70459 0.34861 0.0
H292 H 0.56418 0.77661 0.29101 0.0
H293 H 0.53202 0.69731 0.21027 0.0
H294 H 0.53968 0.70166 0.44669 0.0
H295 H 0.45424 0.55644 0.28697 0.0
H296 H 0.37101 0.66998 0.32198 0.0
C297 C 0.81926 0.54204 0.27094 0.0
C298 C 0.81556 0.51738 0.24301 0.0
N299 N 0.83268 0.47267 0.24666 0.0
N300 N 0.83802 0.51306 0.29263 0.0
C301 C 0.846 0.471 0.27693 0.0
H302 H 0.80905 0.57902 0.27496 0.0
Co303 Co 0.84982 0.53045 0.33507 0.0
C304 C 0.84854 0.43484 0.37051 0.0
O305 O 0.8478 0.45407 0.39858 0.0
N306 N 0.86137 0.54808 0.37723 0.0
C307 C 0.85282 0.56813 0.42744 0.0
C308 C 0.83195 0.55553 0.40023 0.0
C309 C 0.89995 0.55691 0.39131 0.0
N310 N 0.89562 0.56896 0.42177 0.0
O311 O 0.78979 0.54369 0.34109 0.0
H312 H 0.79732 0.55096 0.39795 0.0
H313 H 0.93093 0.55376 0.37978 0.0
O314 O 0.84467 0.4619 0.34628 0.0
C315 C 0.78338 0.58943 0.33803 0.0
O316 O 0.81671 0.61749 0.3319 0.0
N317 N 0.90851 0.5232 0.3272 0.0
C318 C 0.95711 0.51446 0.27477 0.0
C319 C 0.95358 0.47458 0.29503 0.0
C320 C 0.92923 0.48019 0.32213 0.0
C321 C 0.92247 0.56444 0.31298 0.0
C322 C 0.94817 0.56094 0.28648 0.0
H323 H 0.92139 0.44832 0.3353 0.0
H324 H 0.90677 0.59865 0.31812 0.0
H325 H 0.86103 0.43949 0.28746 0.0
H326 H 0.80206 0.53171 0.22144 0.0
H327 H 0.83757 0.57623 0.44962 0.0
H328 H 0.96217 0.43823 0.28763 0.0
H329 H 0.95286 0.59297 0.2721 0.0
C330 C 0.09194 0.53872 0.15782 0.0
C331 C 0.09595 0.51795 0.18705 0.0
N332 N 0.09088 0.46949 0.18447 0.0
N333 N 0.08455 0.50387 0.13641 0.0
C334 C 0.08354 0.46206 0.15347 0.0
H335 H 0.09332 0.57711 0.15271 0.0
Co336 Co 0.07322 0.51602 0.09333 0.0
C337 C 0.08443 0.41732 0.06199 0.0
O338 O 0.08761 0.43354 0.03319 0.0
N339 N 0.06171 0.52906 0.05062 0.0
C340 C 0.07063 0.54848 0.00032 0.0
C341 C 0.09106 0.53354 0.02728 0.0
C342 C 0.02374 0.54215 0.0371 0.0
N343 N 0.02829 0.55415 0.00666 0.0
O344 O 0.13206 0.53526 0.08718 0.0
H345 H 0.12543 0.52659 0.02955 0.0
H346 H -0.00684 0.54361 0.04926 0.0
O347 O 0.08406 0.4471 0.08494 0.0
C348 C 0.13285 0.58178 0.08818 0.0
O349 O 0.09672 0.60518 0.09433 0.0
N350 N 0.01529 0.50376 0.1008 0.0
C351 C 0.9493 0.49529 0.1429 0.0
C352 C 0.96149 0.45484 0.12521 0.0
C353 C -0.00472 0.45995 0.104 0.0
C354 C -0.00327 0.54478 0.11223 0.0
C355 C 0.96248 0.5415 0.13298 0.0
H356 H 0.00821 0.42783 0.09378 0.0
H357 H 0.01258 0.57936 0.10885 0.0
H358 H 0.07703 0.42691 0.14349 0.0
H359 H 0.1012 0.53751 0.20867 0.0
H360 H 0.08601 0.55614 -0.0219 0.0
H361 H 0.95071 0.41873 0.1316 0.0
H362 H 0.95303 0.57399 0.14549 0.0
C363 C 0.32835 0.70206 0.15245 0.0
C364 C 0.32101 0.73106 0.1781 0.0
N365 N 0.33886 0.77494 0.17286 0.0
N366 N 0.35074 0.72714 0.13076 0.0
C367 C 0.3563 0.77173 0.14376 0.0
H368 H 0.31807 0.6648 0.14985 0.0
Co369 Co 0.36723 0.70115 0.09129 0.0
C370 C 0.4367 0.76168 0.06823 0.0
O371 O 0.45666 0.72025 0.06341 0.0
N372 N 0.38176 0.67719 0.05063 0.0
C373 C 0.38324 0.68027 -0.00156 0.0
C374 C 0.36719 0.70121 0.02495 0.0
C375 C 0.40717 0.6415 0.03875 0.0
N376 N 0.40861 0.64288 0.00706 0.0
O377 O 0.31071 0.71854 0.0754 0.0
H378 H 0.34761 0.7338 0.02538 0.0
H379 H 0.426 0.61649 0.0528 0.0
O380 O 0.39801 0.7622 0.07959 0.0
C381 C 0.29429 0.67581 0.07791 0.0
O382 O 0.31855 0.64055 0.08906 0.0
N383 N 0.41716 0.67496 0.11004 0.0
C384 C 0.42229 0.64031 0.1704 0.0
C385 C 0.44272 0.68422 0.16244 0.0
C386 C 0.43979 0.7012 0.13172 0.0
C387 C 0.40837 0.62726 0.1157 0.0
C388 C 0.40934 0.60944 0.14617 0.0
H389 H 0.44768 0.73881 0.12757 0.0
H390 H 0.3912 0.60592 0.09858 0.0
H391 H 0.37342 0.80104 0.13234 0.0
H392 H 0.3036 0.72052 0.199 0.0
H393 H 0.37861 0.69339 -0.02527 0.0
H394 H 0.45572 0.70804 0.18028 0.0
H395 H 0.39441 0.57467 0.15079 0.0
C396 C 0.39657 0.50148 0.67056 0.0
C397 C 0.389 0.47274 0.69647 0.0
N398 N 0.37387 0.42934 0.68688 0.0
N399 N 0.38693 0.47654 0.64423 0.0
C400 C 0.37215 0.43318 0.65516 0.0
H401 H 0.4085 0.53821 0.6714 0.0
Co402 Co 0.39211 0.49382 0.60068 0.0
C403 C 0.44769 0.40727 0.60619 0.0
O404 O 0.45973 0.42271 0.634 0.0
N405 N 0.39607 0.50788 0.55795 0.0
C406 C 0.39308 0.49585 0.50656 0.0
C407 C 0.38088 0.4783 0.5353 0.0
C408 C 0.41686 0.54359 0.54242 0.0
N409 N 0.41605 0.53671 0.51111 0.0
O410 O 0.33268 0.47489 0.59444 0.0
H411 H 0.36337 0.44496 0.53951 0.0
H412 H 0.43433 0.57258 0.55383 0.0
O413 O 0.41754 0.42975 0.59129 0.0
C414 C 0.31632 0.51769 0.59624 0.0
O415 O 0.34203 0.55387 0.60344 0.0
N416 N 0.44695 0.5217 0.60674 0.0
C417 C 0.51766 0.56674 0.63226 0.0
C418 C 0.47804 0.59165 0.63053 0.0
C419 C 0.44248 0.56712 0.61878 0.0
C420 C 0.48727 0.5066 0.59772 0.0
C421 C 0.52387 0.52843 0.61098 0.0
H422 H 0.41079 0.58276 0.62203 0.0
H423 H 0.49149 0.4762 0.58218 0.0
H424 H 0.36199 0.40414 0.63981 0.0
H425 H 0.39418 0.48342 0.72056 0.0
H426 H 0.38639 0.47915 0.48414 0.0
H427 H 0.47192 0.62433 0.64385 0.0
H428 H 0.55514 0.51081 0.60878 0.0
C429 C 0.10686 0.63867 0.65982 0.0
C430 C 0.11056 0.66332 0.68775 0.0
N431 N 0.09344 0.70803 0.68411 0.0
N432 N 0.0881 0.66765 0.63814 0.0
C433 C 0.08012 0.70971 0.65383 0.0
H434 H 0.11706 0.60168 0.65579 0.0
Co435 Co 0.0763 0.65027 0.59569 0.0
C436 C 0.07757 0.74589 0.56027 0.0
O437 O 0.0783 0.72667 0.53219 0.0
N438 N 0.06476 0.63265 0.55353 0.0
C439 C 0.07332 0.61262 0.50332 0.0
C440 C 0.09419 0.62521 0.53053 0.0
C441 C 0.02618 0.62382 0.53944 0.0
N442 N 0.03052 0.61177 0.50898 0.0
O443 O 0.13633 0.63703 0.58968 0.0
H444 H 0.12881 0.62979 0.53281 0.0
H445 H -0.0048 0.62696 0.55097 0.0
O446 O 0.08145 0.71882 0.58449 0.0
C447 C 0.14274 0.59129 0.59272 0.0
O448 O 0.10942 0.56323 0.59884 0.0
N449 N 0.01761 0.65751 0.60356 0.0
C450 C -0.03099 0.66623 0.65598 0.0
C451 C -0.02747 0.70612 0.63573 0.0
C452 C -0.00311 0.70052 0.60864 0.0
C453 C 0.00365 0.61627 0.61777 0.0
C454 C -0.02206 0.61976 0.64427 0.0
H455 H 0.00473 0.7324 0.59547 0.0
H456 H 0.01935 0.58207 0.61262 0.0
H457 H 0.06509 0.74122 0.64331 0.0
H458 H 0.12406 0.64898 0.70932 0.0
H459 H 0.08857 0.60452 0.48114 0.0
H460 H -0.03605 0.74246 0.64314 0.0
H461 H -0.02675 0.58772 0.65864 0.0
C462 C 0.83423 0.64204 0.77297 0.0
C463 C 0.83021 0.66281 0.74374 0.0
N464 N 0.83528 0.71127 0.74633 0.0
N465 N 0.84162 0.67688 0.79439 0.0
C466 C 0.84262 0.7187 0.77732 0.0
H467 H 0.83285 0.60365 0.77808 0.0
Co468 Co 0.85295 0.66473 0.83746 0.0
C469 C 0.84178 0.76343 0.86881 0.0
O470 O 0.83858 0.7472 0.89761 0.0
N471 N 0.86447 0.65169 0.88017 0.0
C472 C 0.85555 0.63226 0.93047 0.0
C473 C 0.83512 0.64721 0.90351 0.0
C474 C 0.90244 0.6386 0.89369 0.0
N475 N 0.89789 0.6266 0.92413 0.0
O476 O 0.79411 0.64551 0.84361 0.0
H477 H 0.80075 0.65416 0.90125 0.0
H478 H 0.93302 0.63714 0.88152 0.0
O479 O 0.84213 0.73365 0.84586 0.0
C480 C 0.7933 0.59899 0.84261 0.0
O481 O 0.82943 0.57558 0.83646 0.0
N482 N 0.91088 0.67698 0.82998 0.0
C483 C -0.02315 0.68541 0.78787 0.0
C484 C -0.03533 0.72587 0.80555 0.0
C485 C 0.9309 0.72077 0.82677 0.0
C486 C 0.92943 0.63595 0.81856 0.0
C487 C -0.03633 0.6392 0.7978 0.0
H488 H 0.91798 0.75291 0.83698 0.0
H489 H 0.91358 0.60137 0.82195 0.0
H490 H 0.84913 0.75385 0.7873 0.0
H491 H 0.82496 0.64326 0.72212 0.0
H492 H 0.84018 0.62461 0.95269 0.0
H493 H -0.02455 0.76197 0.79914 0.0
H494 H -0.02689 0.6067 0.78529 0.0
C495 C 0.59783 0.47872 0.77834 0.0
C496 C 0.60518 0.44973 0.75269 0.0
N497 N 0.58732 0.40585 0.75792 0.0
N498 N 0.57542 0.45364 0.80002 0.0
C499 C 0.56986 0.40906 0.78702 0.0
H500 H 0.60811 0.51599 0.78094 0.0
Co501 Co 0.55891 0.47963 0.83949 0.0
C502 C 0.48945 0.41909 0.86253 0.0
O503 O 0.46948 0.46051 0.86734 0.0
N504 N 0.54436 0.50359 0.88014 0.0
C505 C 0.54287 0.5005 0.93233 0.0
C506 C 0.55893 0.47957 0.90583 0.0
C507 C 0.51895 0.53927 0.89202 0.0
N508 N 0.5175 0.53788 0.92371 0.0
O509 O 0.61543 0.46227 0.85539 0.0
H510 H 0.57852 0.44699 0.90539 0.0
H511 H 0.50011 0.56428 0.87797 0.0
O512 O 0.52815 0.41858 0.85119 0.0
C513 C 0.63184 0.505 0.85288 0.0
O514 O 0.60757 0.54025 0.84173 0.0
N515 N 0.50898 0.5058 0.82073 0.0
C516 C 0.5039 0.54046 0.76036 0.0
C517 C 0.48347 0.49654 0.76832 0.0
C518 C 0.48638 0.47957 0.79904 0.0
C519 C 0.51777 0.55352 0.81507 0.0
C520 C 0.51683 0.57133 0.7846 0.0
H521 H 0.47848 0.44195 0.80319 0.0
H522 H 0.53492 0.57486 0.8322 0.0
H523 H 0.55273 0.37975 0.79843 0.0
H524 H 0.6226 0.46026 0.73179 0.0
H525 H 0.5475 0.48738 0.95604 0.0
H526 H 0.47049 0.47272 0.75048 0.0
H527 H 0.53175 0.6061 0.77998 0.0
C528 C 0.94886 0.09215 0.20815 0.0
C529 C -0.03262 0.11775 0.18293 0.0
H530 H 0.95022 1.07843 0.25765 0.0
C531 C 0.00665 0.14223 0.18777 0.0
H532 H 0.91905 1.07204 0.20504 0.0
C533 C 0.02419 0.14597 0.21758 0.0
C534 C 0.00324 0.12501 0.24351 0.0
H535 H 0.02176 0.16311 0.16928 0.0
H536 H 0.05203 0.16941 0.2204 0.0
C537 C -0.03342 0.09594 0.23829 0.0
C538 C 0.43779 0.98824 0.20004 0.0
C539 C 0.46697 1.01931 0.18504 0.0
H540 H 0.41531 0.96004 0.2435 0.0
C541 C 0.49684 1.04609 0.20316 0.0
H542 H 0.41461 0.96716 0.18674 0.0
C543 C 0.49705 1.04226 0.23566 0.0
C544 C 0.46827 1.01064 0.25037 0.0
H545 H 0.52091 1.06912 0.19229 0.0
H546 H 0.51944 1.06396 0.24929 0.0
C547 C 0.4387 0.98365 0.2324 0.0
C548 C 0.90201 1.03476 0.71322 0.0
C549 C 0.92294 1.05573 0.68729 0.0
H550 H 0.90445 1.01762 0.76152 0.0
C551 C 0.95961 1.0848 0.69251 0.0
H552 H 0.87416 1.01133 0.71041 0.0
C553 C -0.02267 1.08859 0.72265 0.0
C554 C 0.95882 1.06299 0.74787 0.0
H555 H -0.02404 0.10231 0.67315 0.0
H556 H 0.00715 0.1087 0.72575 0.0
C557 C 0.91954 1.03852 0.74304 0.0
C558 C 0.42912 0.13851 0.69511 0.0
C559 C 0.45789 0.17015 0.6804 0.0
H560 H 0.40529 0.11163 0.73849 0.0
C561 C 0.48747 0.19713 0.69838 0.0
H562 H 0.40673 0.11682 0.68149 0.0
C563 C 0.4884 0.19252 0.73073 0.0
C564 C 0.45923 0.16144 0.74573 0.0
H565 H 0.51085 0.22075 0.68727 0.0
H566 H 0.51159 0.21359 0.74403 0.0
C567 C 0.42935 0.13466 0.72761 0.0
C568 C 0.39246 0.57705 0.2465 0.0
C569 C 0.38908 0.61721 0.26671 0.0
H570 H 0.41036 0.55252 0.20093 0.0
C571 C 0.38563 0.66374 0.25327 0.0
H572 H 0.39335 0.54049 0.25591 0.0
C573 C 0.39558 0.67073 0.22191 0.0
C574 C 0.40758 0.63131 0.20296 0.0
H575 H 0.38138 0.69584 0.26754 0.0
H576 H 0.39594 0.70757 0.21307 0.0
C577 C 0.40297 0.58405 0.21502 0.0
C578 C -0.02304 0.46944 0.22601 0.0
C579 C 0.9533 0.50616 0.24081 0.0
H580 H -0.00763 0.43537 0.18275 0.0
C581 C 0.92131 0.53159 0.22371 0.0
H582 H 0.00095 0.44846 0.2388 0.0
C583 C 0.91512 0.52287 0.19203 0.0
C584 C 0.94157 0.48943 0.17661 0.0
H585 H 0.90108 0.55874 0.23472 0.0
H586 H 0.89212 0.545 0.17907 0.0
C587 C -0.02889 0.4611 0.19413 0.0
C588 C 0.53064 0.51005 0.70886 0.0
C589 C 0.51863 0.54946 0.72781 0.0
H590 H 0.54482 0.48495 0.66324 0.0
C591 C 0.52322 0.59673 0.71576 0.0
H592 H 0.53028 0.47321 0.7177 0.0
C593 C 0.53375 0.60374 0.68427 0.0
C594 C 0.53712 0.56358 0.66406 0.0
H595 H 0.51584 0.62825 0.72985 0.0
H596 H 0.53284 0.64031 0.67488 0.0
C597 C 0.5406 0.51705 0.6775 0.0
C598 C 0.011 0.6578 0.73873 0.0
C599 C -0.01544 0.69125 0.75415 0.0
H600 H 0.02503 0.62194 0.69603 0.0
C601 C 0.95501 0.71958 0.73663 0.0
H602 H 0.034 0.63568 0.75169 0.0
C603 C 0.94916 0.71124 0.70475 0.0
C604 C -0.02719 0.67452 0.68995 0.0
H605 H 0.93377 0.74532 0.74802 0.0
H606 H 0.92517 0.73222 0.69196 0.0
C607 C 0.00481 0.64909 0.70704 0.0
C608 C 0.11915 0.41219 0.26228 0.0
C609 C 0.09848 0.3668 0.2608 0.0
H610 H 0.1335 0.47936 0.23971 0.0
C611 C 0.07497 0.35543 0.23343 0.0
H612 H 0.13711 0.42265 0.283 0.0
C613 C 0.07293 0.38845 0.20808 0.0
C614 C 0.0935 0.43413 0.20984 0.0
H615 H 0.05882 0.32073 0.23142 0.0
H616 H 0.05478 0.37842 0.18737 0.0
C617 C 0.11664 0.44519 0.23738 0.0
C618 C 0.33964 0.86402 0.18303 0.0
C619 C 0.33864 0.81597 0.19422 0.0
H620 H 0.33719 0.93976 0.19407 0.0
C621 C 0.33587 0.80863 0.22686 0.0
H622 H 0.34165 0.8712 0.15814 0.0
C623 C 0.33325 0.84801 0.24759 0.0
C624 C 0.33307 0.89615 0.23641 0.0
H625 H 0.3357 0.77227 0.23651 0.0
H626 H 0.33047 0.84047 0.27238 0.0
C627 C 0.33664 0.90347 0.20377 0.0
C628 C 0.58812 0.83168 0.23587 0.0
C629 C 0.56231 0.79346 0.22445 0.0
H630 H 0.61719 0.90092 0.22699 0.0
C631 C 0.54599 0.79759 0.19359 0.0
H632 H 0.60187 0.82998 0.25919 0.0
C633 C 0.55497 0.83851 0.17494 0.0
C634 C 0.58047 0.87687 0.18652 0.0
H635 H 0.52542 0.76967 0.18385 0.0
H636 H 0.54095 0.8405 0.1517 0.0
C637 C 0.597 0.87262 0.21726 0.0
C638 C 0.86907 0.40107 0.22202 0.0
C639 C 0.83454 0.43472 0.22314 0.0
H640 H 0.89657 0.33855 0.19889 0.0
C641 C 0.80144 0.43091 0.20056 0.0
H642 H 0.89533 0.40331 0.23884 0.0
C643 C 0.80196 0.3939 0.17817 0.0
C644 C 0.83596 0.35984 0.17716 0.0
H645 H 0.77432 0.45591 0.20072 0.0
H646 H 0.77537 0.39163 0.16161 0.0
C647 C 0.87004 0.36435 0.199 0.0
C648 C 0.85323 0.7923 0.72271 0.0
C649 C 0.83266 0.74663 0.72096 0.0
H650 H 0.86734 0.86003 0.69938 0.0
C651 C 0.80951 0.73558 0.69342 0.0
H652 H 0.87139 0.80233 0.74343 0.0
C653 C 0.80699 0.76858 0.66852 0.0
C654 C 0.82766 0.81397 0.67 0.0
H655 H 0.79264 0.70141 0.6911 0.0
H656 H 0.78903 0.75812 0.6478 0.0
C657 C 0.85118 0.82533 0.69737 0.0
C658 C 0.58652 0.31677 0.74775 0.0
C659 C 0.58754 0.36483 0.73656 0.0
H660 H 0.58896 0.24103 0.7367 0.0
C661 C 0.59032 0.37216 0.70392 0.0
H662 H 0.58451 0.30959 0.77264 0.0
C663 C 0.59293 0.33279 0.68319 0.0
C664 C 0.5931 0.28464 0.69437 0.0
H665 H 0.5905 0.40852 0.69427 0.0
H666 H 0.59572 0.34032 0.65839 0.0
C667 C 0.58952 0.27732 0.72701 0.0
C668 C 0.33809 0.34904 0.69495 0.0
C669 C 0.3639 0.38726 0.70637 0.0
H670 H 0.30904 0.27979 0.70383 0.0
C671 C 0.38024 0.38312 0.73723 0.0
H672 H 0.32433 0.35074 0.67163 0.0
C673 C 0.37127 0.34219 0.75587 0.0
C674 C 0.34576 0.30384 0.74429 0.0
H675 H 0.4008 0.41104 0.74697 0.0
H676 H 0.38529 0.3402 0.77911 0.0
C677 C 0.32922 0.30809 0.71356 0.0
C678 C 0.12471 0.74979 0.73019 0.0
C679 C 0.0916 0.74598 0.70763 0.0
H680 H 0.15081 0.78908 0.76912 0.0
C681 C 0.05707 0.77962 0.70876 0.0
H682 H 0.15183 0.7248 0.73003 0.0
C683 C 0.05611 0.81635 0.73178 0.0
C684 C 0.09021 0.82087 0.7536 0.0
H685 H 0.03079 0.77738 0.69195 0.0
H686 H 0.02958 0.84215 0.73189 0.0
C687 C 0.12421 0.78681 0.75258 0.0
C688 C 0.96261 0.13761 0.47712 0.0
C689 C -0.01838 0.12858 0.44777 0.0
H690 H 0.92926 0.1083 0.51675 0.0
C691 C -0.01819 1.08089 0.43624 0.0
H692 H 0.96139 0.17403 0.48652 0.0
C693 C -0.03647 1.04316 0.45368 0.0
C694 C 0.94452 1.05219 0.48304 0.0
H695 H -0.00312 1.07247 0.41405 0.0
H696 H -0.03525 1.00675 0.44428 0.0
C697 C 0.94433 0.09988 0.49456 0.0
C698 C 0.4639 0.1003 0.43327 0.0
C699 C 0.42892 1.07433 0.44593 0.0
H700 H 0.52374 0.1368 0.44209 0.0
C701 C 0.42848 1.06462 0.47827 0.0
H702 H 0.4649 0.10903 0.40855 0.0
C703 C 0.46226 1.08049 0.4975 0.0
C704 C 0.49723 0.10647 0.48484 0.0
H705 H 0.40241 1.04399 0.48868 0.0
H706 H 0.46126 1.07176 0.52222 0.0
C707 C 0.49768 0.11617 0.4525 0.0
C708 C 0.4249 0.10991 -0.02248 0.0
C709 C 0.42799 0.101 0.9452 0.0
H710 H 0.45645 0.10718 0.0222 0.0
C711 C 0.46659 1.08125 0.93331 0.0
H712 H 0.39598 0.12599 -0.01263 0.0
C713 C 0.50134 1.07071 0.95327 0.0
C714 C 0.49825 1.07962 -0.01441 0.0
H715 H 0.46979 1.07343 0.90859 0.0
H716 H 0.53026 1.05463 0.94342 0.0
C717 C 0.45965 0.09936 -0.00252 0.0
C718 C -0.03477 0.13914 0.95662 0.0
C719 C 0.94271 0.12617 -0.016 0.0
H720 H 0.00301 0.11517 0.91764 0.0
C721 C 0.94089 1.07693 -0.00746 0.0
H722 H -0.03207 0.17676 0.94959 0.0
C723 C 0.96104 1.04157 -0.02583 0.0
C724 C -0.01643 1.05453 0.94679 0.0
H725 H 0.92326 1.06554 0.01315 0.0
H726 H 0.95835 1.00394 -0.0188 0.0
C727 C -0.01462 0.10377 0.93825 0.0
C728 C 0.47732 0.56759 0.4381 0.0
C729 C 0.48683 0.61679 0.44298 0.0
H730 H 0.44778 0.50337 0.45609 0.0
C731 C 0.47228 0.63934 0.47054 0.0
H732 H 0.48853 0.54908 0.4173 0.0
C733 C 0.44876 0.61322 0.49273 0.0
C734 C 0.43925 0.56402 0.48785 0.0
H735 H 0.4783 0.67744 0.47474 0.0
H736 H 0.43755 0.63173 0.51353 0.0
C737 C 0.45379 0.54147 0.46029 0.0
C738 C 0.95692 0.58155 0.49731 0.0
C739 C -0.00355 0.60095 0.48698 0.0
H740 H 0.89413 0.55542 0.48462 0.0
C741 C 0.00222 0.60965 0.4548 0.0
H742 H 0.95171 0.57367 0.52186 0.0
C743 C -0.03079 0.59917 0.43344 0.0
C744 C 0.92969 0.57977 0.44378 0.0
H745 H 0.032 0.62531 0.44614 0.0
H746 H -0.02557 0.60705 0.4089 0.0
C747 C 0.92391 0.57108 0.47595 0.0
C748 C 0.9594 0.5978 -0.00237 0.0
C749 C -0.00476 0.57221 -0.01416 0.0
H750 H 0.90065 0.63589 -0.01289 0.0
C751 C -0.00138 0.56501 0.95339 0.0
H752 H 0.95628 0.60478 0.02246 0.0
C753 C -0.03321 0.58296 0.93315 0.0
C754 C 0.93094 0.60855 0.94495 0.0
H755 H 0.02554 0.54486 0.94368 0.0
H756 H -0.03009 0.57597 0.90833 0.0
C757 C 0.92757 0.61575 -0.0226 0.0
C758 C 0.44997 0.58304 0.93432 0.0
C759 C 0.49049 0.5657 0.9444 0.0
H760 H 0.39152 0.61992 0.94679 0.0
C761 C 0.50331 0.57337 -0.02435 0.0
H762 H 0.43882 0.57681 0.91061 0.0
C763 C 0.47613 0.59772 -0.00355 0.0
C764 C 0.43561 0.61506 -0.01362 0.0
H765 H 0.53458 0.56085 -0.01602 0.0
H766 H 0.48729 0.60395 0.02016 0.0
C767 C 0.4228 0.60739 0.95512 0.0
C768 C 0.16164 1.08227 0.37004 0.0
C769 C 0.15828 0.13287 0.36519 0.0
H770 H 0.20208 1.0187 0.36795 0.0
C771 C 0.19497 0.15837 0.35525 0.0
H772 H 0.13392 1.06144 0.37775 0.0
C773 C 0.23373 0.13376 0.34947 0.0
C774 C 0.23692 1.08303 0.35358 0.0
H775 H 0.19351 0.19716 0.35114 0.0
H776 H 0.26117 0.15475 0.34142 0.0
C777 C 0.2006 1.0576 0.36433 0.0
C778 C 0.73653 0.14541 0.08189 0.0
C779 C 0.77422 0.11818 0.07675 0.0
H780 H 0.66835 0.1448 0.08949 0.0
C781 C 0.77061 1.06728 0.07372 0.0
H782 H 0.73786 0.18452 0.08397 0.0
C783 C 0.73031 1.04415 0.07664 0.0
C784 C 0.69298 1.07147 0.08295 0.0
H785 H 0.79902 1.0451 0.06954 0.0
H786 H 0.72857 1.00501 0.07473 0.0
C787 C 0.69657 0.12238 0.0851 0.0
C788 C 0.72556 0.12319 0.56647 0.0
C789 C 0.68923 0.09776 0.57721 0.0
H790 H 0.79224 0.11934 0.55307 0.0
C791 C 0.69241 1.04703 0.58131 0.0
H792 H 0.72407 0.16209 0.56285 0.0
C793 C 0.73118 1.02242 0.57554 0.0
C794 C 0.76787 1.04791 0.56562 0.0
H795 H 0.66497 1.02604 0.58935 0.0
H796 H 0.73263 0.98363 0.57966 0.0
C797 C 0.76451 0.09852 0.56077 0.0
C798 C 0.19596 0.13652 0.85415 0.0
C799 C 0.23328 0.1092 0.84784 0.0
H800 H 0.12724 0.13558 0.86125 0.0
C801 C 0.22968 1.05829 0.84567 0.0
H802 H 0.1977 0.17566 0.85607 0.0
C803 C 0.18971 1.03527 0.84887 0.0
C804 C 0.15203 1.0625 0.85402 0.0
H805 H 0.25789 1.03587 0.84127 0.0
H806 H 0.18838 0.99616 0.84679 0.0
C807 C 0.15565 0.1134 0.85706 0.0
C808 C 0.73202 0.65959 0.33096 0.0
C809 C 0.73986 0.6114 0.34095 0.0
H810 H 0.6841 0.71481 0.32139 0.0
C811 C 0.70556 0.58425 0.35306 0.0
H812 H 0.75808 0.68162 0.32175 0.0
C813 C 0.66386 0.60364 0.35343 0.0
C814 C 0.65532 0.65038 0.34135 0.0
H815 H 0.71065 0.54754 0.36149 0.0
H816 H 0.63773 0.5809 0.36183 0.0
C817 C 0.6899 0.67898 0.33108 0.0
C818 C 0.24273 0.61687 0.05685 0.0
C819 C 0.24926 0.66249 0.07095 0.0
H820 H 0.20169 0.55461 0.05232 0.0
C821 C 0.21525 0.68378 0.08766 0.0
H822 H 0.26883 0.5994 0.04417 0.0
C823 C 0.17669 0.65795 0.09233 0.0
C824 C 0.17208 0.61021 0.08087 0.0
H825 H 0.21989 0.71813 0.0995 0.0
H826 H 0.15155 0.67419 0.10656 0.0
C827 C 0.20479 0.59068 0.06211 0.0
C828 C 0.23623 0.50176 0.59971 0.0
C829 C 0.27083 0.53039 0.5895 0.0
H830 H 0.16803 0.49907 0.60896 0.0
C831 C 0.2623 0.57715 0.57745 0.0
H832 H 0.24202 0.46591 0.60936 0.0
C833 C 0.2206 0.59652 0.57778 0.0
C834 C 0.18628 0.56934 0.58983 0.0
H835 H 0.28845 0.59991 0.56909 0.0
H836 H 0.21551 0.63325 0.56938 0.0
C837 C 0.19411 0.52113 0.59979 0.0
C838 C 0.71087 0.49702 0.84314 0.0
C839 C 0.67687 0.51834 0.85985 0.0
H840 H 0.77457 0.50658 0.82424 0.0
C841 C 0.68341 0.56395 0.87394 0.0
H842 H 0.70622 0.46267 0.8313 0.0
C843 C 0.72136 0.59012 0.86869 0.0
C844 C 0.75407 0.57057 0.84992 0.0
H845 H 0.65731 0.58143 0.88662 0.0
H846 H 0.72447 0.6262 0.87847 0.0
C847 C 0.74944 0.52284 0.83847 0.0
C848 C 0.93696 0.34163 0.37752 0.0
C849 C 0.93632 0.32142 0.3473 0.0
H850 H 0.90829 0.39233 0.40922 0.0
C851 C 0.90067 0.33138 0.32764 0.0
H852 H -0.03656 0.33397 0.39354 0.0
C853 C 0.86842 0.36405 0.33696 0.0
C854 C 0.87143 0.38799 0.36592 0.0
H855 H 0.89852 0.3156 0.30448 0.0
H856 H 0.84278 0.37321 0.32058 0.0
C857 C 0.90479 0.37446 0.38678 0.0
C858 C 0.3764 0.84112 0.34759 0.0
C859 C 0.39086 0.86967 0.37268 0.0
H860 H 0.39321 0.79036 0.3119 0.0
C861 C 0.43322 0.86209 0.3843 0.0
H862 H 0.34371 0.84519 0.33862 0.0
C863 C 0.46175 0.83034 0.36907 0.0
C864 C 0.44855 0.80595 0.34186 0.0
H865 H 0.44557 0.88347 0.40361 0.0
H866 H 0.49463 0.82657 0.37775 0.0
C867 C 0.40508 0.8103 0.33201 0.0
C868 C 0.53458 0.84246 0.06774 0.0
C869 C 0.52057 0.88142 0.04916 0.0
H870 H 0.51816 0.77455 0.08886 0.0
C871 C 0.47725 0.88235 0.0384 0.0
H872 H 0.56749 0.84108 0.07662 0.0
C873 C 0.44854 0.84486 0.04612 0.0
C874 C 0.463 0.80566 0.06429 0.0
H875 H 0.46522 0.91266 0.02466 0.0
H876 H 0.41566 0.84574 0.03714 0.0
C877 C 0.50619 0.80481 0.07501 0.0
C878 C 0.03103 0.31751 0.10722 0.0
C879 C -0.00467 0.30763 0.08765 0.0
H880 H 0.08976 0.35787 0.1134 0.0
C881 C -0.00425 0.32548 0.05675 0.0
H882 H 0.03242 0.30331 0.13089 0.0
C883 C 0.02892 0.35632 0.04668 0.0
C884 C 0.06212 0.37042 0.06742 0.0
H885 H -0.03062 0.31758 0.04076 0.0
H886 H 0.02609 0.37276 0.02368 0.0
C887 C 0.06422 0.34833 0.09712 0.0
C888 C -0.01084 0.83912 0.55326 0.0
C889 C -0.01019 0.85933 0.58348 0.0
H890 H 0.01782 0.78842 0.52156 0.0
C891 C 0.02547 0.84935 0.60314 0.0
H892 H 0.96268 0.84679 0.53725 0.0
C893 C 0.0577 0.81668 0.59382 0.0
C894 C 0.05468 0.79274 0.56486 0.0
H895 H 0.02762 0.86513 0.62631 0.0
H896 H 0.08334 0.8075 0.6102 0.0
C897 C 0.02133 0.80628 0.54401 0.0
C898 C 0.52108 0.3705 0.59878 0.0
C899 C 0.47761 0.37484 0.58893 0.0
H900 H 0.58245 0.33562 0.59215 0.0
C901 C 0.4644 0.35044 0.56173 0.0
H902 H 0.53296 0.39044 0.61888 0.0
C903 C 0.49293 0.3187 0.5465 0.0
C904 C 0.5353 0.31113 0.5581 0.0
H905 H 0.43152 0.3542 0.55306 0.0
H906 H 0.48057 0.29731 0.52719 0.0
C907 C 0.54976 0.33968 0.58319 0.0
C908 C 0.39161 0.33824 0.86308 0.0
C909 C 0.40568 0.29927 0.88164 0.0
H910 H 0.40796 0.40617 0.84197 0.0
C911 C 0.44901 0.29837 0.89236 0.0
H912 H 0.35869 0.33959 0.85423 0.0
C913 C 0.47769 0.33588 0.88463 0.0
C914 C 0.46318 0.37509 0.86649 0.0
H915 H 0.46108 0.26805 0.90608 0.0
H916 H 0.51058 0.33502 0.89359 0.0
C917 C 0.41997 0.37591 0.85581 0.0
C918 C 0.86199 0.83241 0.83368 0.0
C919 C 0.8641 0.81032 0.86338 0.0
H920 H 0.89378 0.87743 0.79991 0.0
C921 C 0.89731 0.82442 0.88412 0.0
H922 H 0.83644 0.82288 0.81741 0.0
C923 C 0.93047 0.85525 0.87404 0.0
C924 C 0.93088 0.8731 0.84315 0.0
H925 H 0.90014 0.80797 0.90712 0.0
H926 H 0.95686 0.86315 0.89003 0.0
C927 C 0.89518 0.86323 0.82358 0.0
loop_
_geom_bond_atom_site_label_1
_geom_bond_atom_site_label_2
_geom_bond_distance
_geom_bond_site_symmetry_2
_ccdc_geom_bond_type
C0 C1 1.351 . S
C0 N3 1.368 . S
C0 H5 0.931 . S
C1 C0 1.351 . S
C1 N2 1.373 . S
C1 H29 0.930 . S
N2 C1 1.373 . S
N2 C4 1.340 . S
N3 C0 1.368 . S
N3 C4 1.321 . S
N3 Co6 2.135 . S
C4 N2 1.340 . S
C4 N3 1.321 . S
C4 H28 0.930 . S
H5 C0 0.931 . S
Co6 N3 2.135 . S
Co6 N9 2.121 . S
Co6 O14 2.055 . S
Co6 O17 2.039 . S
Co6 N20 2.140 . S
C7 O8 1.227 . S
C7 O17 1.265 . S
O8 C7 1.227 . S
N9 Co6 2.121 . S
N9 C11 1.375 . S
N9 C12 1.313 . S
C10 C11 1.338 . S
C10 N13 1.377 . S
C10 H30 0.930 1_455 S
C11 N9 1.375 . S
C11 C10 1.338 . S
C11 H15 0.931 . S
C12 N9 1.313 . S
C12 N13 1.344 . S
C12 H16 0.930 . S
N13 C10 1.377 . S
N13 C12 1.344 . S
O14 Co6 2.055 . S
O14 C18 1.253 . S
H15 C11 0.931 . S
H16 C12 0.930 . S
O17 Co6 2.039 . S
O17 C7 1.265 . S
C18 O14 1.253 . S
C18 O19 1.227 . S
O19 C18 1.227 . S
N20 Co6 2.140 . S
N20 C23 1.346 . S
N20 C24 1.345 . S
C21 C22 1.387 . S
C21 C25 1.391 . S
C22 C21 1.387 . S
C22 C23 1.369 . S
C22 H31 0.929 . S
C23 N20 1.346 . S
C23 C22 1.369 . S
C23 H26 0.928 . S
C24 N20 1.345 . S
C24 C25 1.371 . S
C24 H27 0.931 . S
C25 C21 1.391 . S
C25 C24 1.371 . S
C25 H32 0.930 . S
H26 C23 0.928 . S
H27 C24 0.931 . S
H28 C4 0.930 . S
H29 C1 0.930 . S
H30 C10 0.930 1_655 S
H31 C22 0.929 . S
H32 C25 0.930 . S
C33 C34 1.351 . S
C33 N36 1.368 . S
C33 H38 0.931 . S
C34 C33 1.351 . S
C34 N35 1.373 . S
C34 H62 0.930 . S
N35 C34 1.373 . S
N35 C37 1.340 . S
N36 C33 1.368 . S
N36 C37 1.321 . S
N36 Co39 2.135 . S
C37 N35 1.340 . S
C37 N36 1.321 . S
C37 H61 0.930 . S
H38 C33 0.931 . S
Co39 N36 2.135 . S
Co39 N42 2.121 . S
Co39 O47 2.055 . S
Co39 O50 2.039 . S
Co39 N53 2.140 . S
C40 O41 1.227 . S
C40 O50 1.265 . S
O41 C40 1.227 . S
N42 Co39 2.121 . S
N42 C44 1.375 . S
N42 C45 1.313 . S
C43 C44 1.338 . S
C43 N46 1.377 . S
C43 H63 0.930 . S
C44 N42 1.375 . S
C44 C43 1.338 . S
C44 H48 0.931 . S
C45 N42 1.313 . S
C45 N46 1.344 . S
C45 H49 0.930 . S
N46 C43 1.377 . S
N46 C45 1.344 . S
O47 Co39 2.055 . S
O47 C51 1.253 . S
H48 C44 0.931 . S
H49 C45 0.930 . S
O50 Co39 2.039 . S
O50 C40 1.265 . S
C51 O47 1.253 . S
C51 O52 1.227 . S
O52 C51 1.227 . S
N53 Co39 2.140 . S
N53 C56 1.346 . S
N53 C57 1.345 . S
C54 C55 1.387 . S
C54 C58 1.391 . S
C55 C54 1.387 . S
C55 C56 1.369 . S
C55 H64 0.929 . S
C56 N53 1.346 . S
C56 C55 1.369 . S
C56 H59 0.928 . S
C57 N53 1.345 . S
C57 C58 1.371 . S
C57 H60 0.931 . S
C58 C54 1.391 . S
C58 C57 1.371 . S
C58 H65 0.930 . S
H59 C56 0.928 . S
H60 C57 0.931 . S
H61 C37 0.930 . S
H62 C34 0.930 . S
H63 C43 0.930 . S
H64 C55 0.929 . S
H65 C58 0.930 . S
C66 C67 1.351 . S
C66 N69 1.368 . S
C66 H71 0.931 . S
C67 C66 1.351 . S
C67 N68 1.373 . S
C67 H95 0.930 . S
N68 C67 1.373 . S
N68 C70 1.340 . S
N69 C66 1.368 . S
N69 C70 1.321 . S
N69 Co72 2.135 . S
C70 N68 1.340 . S
C70 N69 1.321 . S
C70 H94 0.930 . S
H71 C66 0.931 . S
Co72 N69 2.135 . S
Co72 N75 2.121 . S
Co72 O80 2.055 . S
Co72 O83 2.039 . S
Co72 N86 2.140 . S
C73 O74 1.227 . S
C73 O83 1.265 . S
O74 C73 1.227 . S
N75 Co72 2.121 . S
N75 C77 1.375 . S
N75 C78 1.313 . S
C76 C77 1.338 . S
C76 N79 1.377 . S
C76 H96 0.930 . S
C77 N75 1.375 . S
C77 C76 1.338 . S
C77 H81 0.931 . S
C78 N75 1.313 . S
C78 N79 1.344 . S
C78 H82 0.930 . S
N79 C76 1.377 . S
N79 C78 1.344 . S
O80 Co72 2.055 . S
O80 C84 1.253 . S
H81 C77 0.931 . S
H82 C78 0.930 . S
O83 Co72 2.039 . S
O83 C73 1.265 . S
C84 O80 1.253 . S
C84 O85 1.227 . S
O85 C84 1.227 . S
N86 Co72 2.140 . S
N86 C89 1.346 . S
N86 C90 1.345 . S
C87 C88 1.387 . S
C87 C91 1.391 . S
C88 C87 1.387 . S
C88 C89 1.369 . S
C88 H97 0.929 . S
C89 N86 1.346 . S
C89 C88 1.369 . S
C89 H92 0.928 . S
C90 N86 1.345 . S
C90 C91 1.371 . S
C90 H93 0.931 . S
C91 C87 1.391 . S
C91 C90 1.371 . S
C91 H98 0.930 . S
H92 C89 0.928 . S
H93 C90 0.931 . S
H94 C70 0.930 . S
H95 C67 0.930 . S
H96 C76 0.930 . S
H97 C88 0.929 . S
H98 C91 0.930 . S
C99 C100 1.351 . S
C99 N102 1.368 . S
C99 H104 0.931 . S
C100 C99 1.351 . S
C100 N101 1.373 . S
C100 H128 0.930 . S
N101 C100 1.373 . S
N101 C103 1.340 . S
N102 C99 1.368 . S
N102 C103 1.321 . S
N102 Co105 2.135 . S
C103 N101 1.340 . S
C103 N102 1.321 . S
C103 H127 0.930 . S
H104 C99 0.931 . S
Co105 N102 2.135 . S
Co105 N108 2.121 . S
Co105 O113 2.055 . S
Co105 O116 2.039 . S
Co105 N119 2.140 . S
C106 O107 1.227 . S
C106 O116 1.265 . S
O107 C106 1.227 . S
N108 Co105 2.121 . S
N108 C110 1.375 . S
N108 C111 1.313 . S
C109 C110 1.338 . S
C109 N112 1.377 . S
C109 H129 0.930 1_655 S
C110 N108 1.375 . S
C110 C109 1.338 . S
C110 H114 0.931 . S
C111 N108 1.313 . S
C111 N112 1.344 . S
C111 H115 0.930 . S
N112 C109 1.377 . S
N112 C111 1.344 . S
O113 Co105 2.055 . S
O113 C117 1.253 . S
H114 C110 0.931 . S
H115 C111 0.930 . S
O116 Co105 2.039 . S
O116 C106 1.265 . S
C117 O113 1.253 . S
C117 O118 1.227 . S
O118 C117 1.227 . S
N119 Co105 2.140 . S
N119 C122 1.346 . S
N119 C123 1.345 . S
C120 C121 1.387 . S
C120 C124 1.391 . S
C121 C120 1.387 . S
C121 C122 1.369 . S
C121 H130 0.929 . S
C122 N119 1.346 . S
C122 C121 1.369 . S
C122 H125 0.928 . S
C123 N119 1.345 . S
C123 C124 1.371 . S
C123 H126 0.931 . S
C124 C120 1.391 . S
C124 C123 1.371 . S
C124 H131 0.930 . S
H125 C122 0.928 . S
H126 C123 0.931 . S
H127 C103 0.930 . S
H128 C100 0.930 . S
H129 C109 0.930 1_455 S
H130 C121 0.929 . S
H131 C124 0.930 . S
C132 C133 1.351 . S
C132 N135 1.368 . S
C132 H137 0.931 . S
C133 C132 1.351 . S
C133 N134 1.373 . S
C133 H161 0.930 . S
N134 C133 1.373 . S
N134 C136 1.340 . S
N135 C132 1.368 . S
N135 C136 1.321 . S
N135 Co138 2.135 . S
C136 N134 1.340 . S
C136 N135 1.321 . S
C136 H160 0.930 . S
H137 C132 0.931 . S
Co138 N135 2.135 . S
Co138 N141 2.121 . S
Co138 O146 2.055 . S
Co138 O149 2.039 . S
Co138 N152 2.140 . S
C139 O140 1.227 . S
C139 O149 1.265 . S
O140 C139 1.227 . S
N141 Co138 2.121 . S
N141 C143 1.375 . S
N141 C144 1.313 . S
C142 C143 1.338 . S
C142 N145 1.377 . S
C142 H162 0.930 1_655 S
C143 N141 1.375 . S
C143 C142 1.338 . S
C143 H147 0.931 . S
C144 N141 1.313 . S
C144 N145 1.344 . S
C144 H148 0.930 . S
N145 C142 1.377 . S
N145 C144 1.344 . S
O146 Co138 2.055 . S
O146 C150 1.253 . S
H147 C143 0.931 . S
H148 C144 0.930 . S
O149 Co138 2.039 . S
O149 C139 1.265 . S
C150 O146 1.253 . S
C150 O151 1.227 . S
O151 C150 1.227 . S
N152 Co138 2.140 . S
N152 C155 1.346 . S
N152 C156 1.345 . S
C153 C154 1.387 . S
C153 C157 1.391 . S
C154 C153 1.387 . S
C154 C155 1.369 . S
C154 H163 0.929 . S
C155 N152 1.346 . S
C155 C154 1.369 . S
C155 H158 0.928 . S
C156 N152 1.345 . S
C156 C157 1.371 . S
C156 H159 0.931 . S
C157 C153 1.391 . S
C157 C156 1.371 . S
C157 H164 0.930 . S
H158 C155 0.928 . S
H159 C156 0.931 . S
H160 C136 0.930 . S
H161 C133 0.930 . S
H162 C142 0.930 1_455 S
H163 C154 0.929 . S
H164 C157 0.930 . S
C165 C166 1.351 . S
C165 N168 1.368 . S
C165 H170 0.931 . S
C166 C165 1.351 . S
C166 N167 1.373 . S
C166 H194 0.930 . S
N167 C166 1.373 . S
N167 C169 1.340 . S
N168 C165 1.368 . S
N168 C169 1.321 . S
N168 Co171 2.135 . S
C169 N167 1.340 . S
C169 N168 1.321 . S
C169 H193 0.930 . S
H170 C165 0.931 . S
Co171 N168 2.135 . S
Co171 N174 2.121 . S
Co171 O179 2.055 . S
Co171 O182 2.039 . S
Co171 N185 2.140 . S
C172 O173 1.227 . S
C172 O182 1.265 . S
O173 C172 1.227 . S
N174 Co171 2.121 . S
N174 C176 1.375 . S
N174 C177 1.313 . S
C175 C176 1.338 . S
C175 N178 1.377 . S
C175 H195 0.930 . S
C176 N174 1.375 . S
C176 C175 1.338 . S
C176 H180 0.931 . S
C177 N174 1.313 . S
C177 N178 1.344 . S
C177 H181 0.930 . S
N178 C175 1.377 . S
N178 C177 1.344 . S
O179 Co171 2.055 . S
O179 C183 1.253 . S
H180 C176 0.931 . S
H181 C177 0.930 . S
O182 Co171 2.039 . S
O182 C172 1.265 . S
C183 O179 1.253 . S
C183 O184 1.227 . S
O184 C183 1.227 . S
N185 Co171 2.140 . S
N185 C188 1.346 . S
N185 C189 1.345 . S
C186 C187 1.387 . S
C186 C190 1.391 . S
C187 C186 1.387 . S
C187 C188 1.369 . S
C187 H196 0.929 . S
C188 N185 1.346 . S
C188 C187 1.369 . S
C188 H191 0.928 . S
C189 N185 1.345 . S
C189 C190 1.371 . S
C189 H192 0.931 . S
C190 C186 1.391 . S
C190 C189 1.371 . S
C190 H197 0.930 . S
H191 C188 0.928 . S
H192 C189 0.931 . S
H193 C169 0.930 . S
H194 C166 0.930 . S
H195 C175 0.930 . S
H196 C187 0.929 . S
H197 C190 0.930 . S
C198 C199 1.351 . S
C198 N201 1.368 . S
C198 H203 0.931 . S
C199 C198 1.351 . S
C199 N200 1.373 . S
C199 H227 0.930 . S
N200 C199 1.373 . S
N200 C202 1.340 . S
N201 C198 1.368 . S
N201 C202 1.321 . S
N201 Co204 2.135 . S
C202 N200 1.340 . S
C202 N201 1.321 . S
C202 H226 0.930 . S
H203 C198 0.931 . S
Co204 N201 2.135 . S
Co204 N207 2.121 . S
Co204 O212 2.055 . S
Co204 O215 2.039 . S
Co204 N218 2.140 . S
C205 O206 1.227 . S
C205 O215 1.265 . S
O206 C205 1.227 . S
N207 Co204 2.121 . S
N207 C209 1.375 . S
N207 C210 1.313 . S
C208 C209 1.338 . S
C208 N211 1.377 . S
C208 H228 0.930 . S
C209 N207 1.375 . S
C209 C208 1.338 . S
C209 H213 0.931 . S
C210 N207 1.313 . S
C210 N211 1.344 . S
C210 H214 0.930 . S
N211 C208 1.377 . S
N211 C210 1.344 . S
O212 Co204 2.055 . S
O212 C216 1.253 . S
H213 C209 0.931 . S
H214 C210 0.930 . S
O215 Co204 2.039 . S
O215 C205 1.265 . S
C216 O212 1.253 . S
C216 O217 1.227 . S
O217 C216 1.227 . S
N218 Co204 2.140 . S
N218 C221 1.346 . S
N218 C222 1.345 . S
C219 C220 1.387 . S
C219 C223 1.391 . S
C220 C219 1.387 . S
C220 C221 1.369 . S
C220 H229 0.929 . S
C221 N218 1.346 . S
C221 C220 1.369 . S
C221 H224 0.928 . S
C222 N218 1.345 . S
C222 C223 1.371 . S
C222 H225 0.931 . S
C223 C219 1.391 . S
C223 C222 1.371 . S
C223 H230 0.930 . S
H224 C221 0.928 . S
H225 C222 0.931 . S
H226 C202 0.930 . S
H227 C199 0.930 . S
H228 C208 0.930 . S
H229 C220 0.929 . S
H230 C223 0.930 . S
C231 C232 1.351 . S
C231 N234 1.368 . S
C231 H236 0.931 . S
C232 C231 1.351 . S
C232 N233 1.373 . S
C232 H260 0.930 . S
N233 C232 1.373 . S
N233 C235 1.340 . S
N234 C231 1.368 . S
N234 C235 1.321 . S
N234 Co237 2.135 . S
C235 N233 1.340 . S
C235 N234 1.321 . S
C235 H259 0.930 . S
H236 C231 0.931 . S
Co237 N234 2.135 . S
Co237 N240 2.121 . S
Co237 O245 2.055 . S
Co237 O248 2.039 . S
Co237 N251 2.140 . S
C238 O239 1.227 . S
C238 O248 1.265 . S
O239 C238 1.227 . S
N240 Co237 2.121 . S
N240 C242 1.375 . S
N240 C243 1.313 . S
C241 C242 1.338 . S
C241 N244 1.377 . S
C241 H261 0.930 1_455 S
C242 N240 1.375 . S
C242 C241 1.338 . S
C242 H246 0.931 . S
C243 N240 1.313 . S
C243 N244 1.344 . S
C243 H247 0.930 . S
N244 C241 1.377 . S
N244 C243 1.344 . S
O245 Co237 2.055 . S
O245 C249 1.253 . S
H246 C242 0.931 . S
H247 C243 0.930 . S
O248 Co237 2.039 . S
O248 C238 1.265 . S
C249 O245 1.253 . S
C249 O250 1.227 . S
O250 C249 1.227 . S
N251 Co237 2.140 . S
N251 C254 1.346 . S
N251 C255 1.345 . S
C252 C253 1.387 . S
C252 C256 1.391 . S
C253 C252 1.387 . S
C253 C254 1.369 . S
C253 H262 0.929 . S
C254 N251 1.346 . S
C254 C253 1.369 . S
C254 H257 0.928 . S
C255 N251 1.345 . S
C255 C256 1.371 . S
C255 H258 0.931 . S
C256 C252 1.391 . S
C256 C255 1.371 . S
C256 H263 0.930 . S
H257 C254 0.928 . S
H258 C255 0.931 . S
H259 C235 0.930 . S
H260 C232 0.930 . S
H261 C241 0.930 1_655 S
H262 C253 0.929 . S
H263 C256 0.930 . S
C264 C265 1.351 . S
C264 N267 1.368 . S
C264 H269 0.931 . S
C265 C264 1.351 . S
C265 N266 1.373 . S
C265 H293 0.930 . S
N266 C265 1.373 . S
N266 C268 1.340 . S
N267 C264 1.368 . S
N267 C268 1.321 . S
N267 Co270 2.135 . S
C268 N266 1.340 . S
C268 N267 1.321 . S
C268 H292 0.930 . S
H269 C264 0.931 . S
Co270 N267 2.135 . S
Co270 N273 2.121 . S
Co270 O278 2.055 . S
Co270 O281 2.039 . S
Co270 N284 2.140 . S
C271 O272 1.227 . S
C271 O281 1.265 . S
O272 C271 1.227 . S
N273 Co270 2.121 . S
N273 C275 1.375 . S
N273 C276 1.313 . S
C274 C275 1.338 . S
C274 N277 1.377 . S
C274 H294 0.930 . S
C275 N273 1.375 . S
C275 C274 1.338 . S
C275 H279 0.931 . S
C276 N273 1.313 . S
C276 N277 1.344 . S
C276 H280 0.930 . S
N277 C274 1.377 . S
N277 C276 1.344 . S
O278 Co270 2.055 . S
O278 C282 1.253 . S
H279 C275 0.931 . S
H280 C276 0.930 . S
O281 Co270 2.039 . S
O281 C271 1.265 . S
C282 O278 1.253 . S
C282 O283 1.227 . S
O283 C282 1.227 . S
N284 Co270 2.140 . S
N284 C287 1.346 . S
N284 C288 1.345 . S
C285 C286 1.387 . S
C285 C289 1.391 . S
C286 C285 1.387 . S
C286 C287 1.369 . S
C286 H295 0.929 . S
C287 N284 1.346 . S
C287 C286 1.369 . S
C287 H290 0.928 . S
C288 N284 1.345 . S
C288 C289 1.371 . S
C288 H291 0.931 . S
C289 C285 1.391 . S
C289 C288 1.371 . S
C289 H296 0.930 . S
H290 C287 0.928 . S
H291 C288 0.931 . S
H292 C268 0.930 . S
H293 C265 0.930 . S
H294 C274 0.930 . S
H295 C286 0.929 . S
H296 C289 0.930 . S
C297 C298 1.351 . S
C297 N300 1.368 . S
C297 H302 0.931 . S
C298 C297 1.351 . S
C298 N299 1.373 . S
C298 H326 0.930 . S
N299 C298 1.373 . S
N299 C301 1.340 . S
N300 C297 1.368 . S
N300 C301 1.321 . S
N300 Co303 2.135 . S
C301 N299 1.340 . S
C301 N300 1.321 . S
C301 H325 0.930 . S
H302 C297 0.931 . S
Co303 N300 2.135 . S
Co303 N306 2.121 . S
Co303 O311 2.055 . S
Co303 O314 2.039 . S
Co303 N317 2.140 . S
C304 O305 1.227 . S
C304 O314 1.265 . S
O305 C304 1.227 . S
N306 Co303 2.121 . S
N306 C308 1.375 . S
N306 C309 1.313 . S
C307 C308 1.338 . S
C307 N310 1.377 . S
C307 H327 0.930 1_655 S
C308 N306 1.375 . S
C308 C307 1.338 . S
C308 H312 0.931 . S
C309 N306 1.313 . S
C309 N310 1.344 . S
C309 H313 0.930 . S
N310 C307 1.377 . S
N310 C309 1.344 . S
O311 Co303 2.055 . S
O311 C315 1.253 . S
H312 C308 0.931 . S
H313 C309 0.930 . S
O314 Co303 2.039 . S
O314 C304 1.265 . S
C315 O311 1.253 . S
C315 O316 1.227 . S
O316 C315 1.227 . S
N317 Co303 2.140 . S
N317 C320 1.346 . S
N317 C321 1.345 . S
C318 C319 1.387 . S
C318 C322 1.391 . S
C319 C318 1.387 . S
C319 C320 1.369 . S
C319 H328 0.929 . S
C320 N317 1.346 . S
C320 C319 1.369 . S
C320 H323 0.928 . S
C321 N317 1.345 . S
C321 C322 1.371 . S
C321 H324 0.931 . S
C322 C318 1.391 . S
C322 C321 1.371 . S
C322 H329 0.930 . S
H323 C320 0.928 . S
H324 C321 0.931 . S
H325 C301 0.930 . S
H326 C298 0.930 . S
H327 C307 0.930 1_455 S
H328 C319 0.929 . S
H329 C322 0.930 . S
C330 C331 1.351 . S
C330 N333 1.368 . S
C330 H335 0.931 . S
C331 C330 1.351 . S
C331 N332 1.373 . S
C331 H359 0.930 . S
N332 C331 1.373 . S
N332 C334 1.340 . S
N333 C330 1.368 . S
N333 C334 1.321 . S
N333 Co336 2.135 . S
C334 N332 1.340 . S
C334 N333 1.321 . S
C334 H358 0.930 . S
H335 C330 0.931 . S
Co336 N333 2.135 . S
Co336 N339 2.121 . S
Co336 O344 2.055 . S
Co336 O347 2.039 . S
Co336 N350 2.140 . S
C337 O338 1.227 . S
C337 O347 1.265 . S
O338 C337 1.227 . S
N339 Co336 2.121 . S
N339 C341 1.375 . S
N339 C342 1.313 . S
C340 C341 1.338 . S
C340 N343 1.377 . S
C340 H360 0.930 1_455 S
C341 N339 1.375 . S
C341 C340 1.338 . S
C341 H345 0.931 . S
C342 N339 1.313 . S
C342 N343 1.344 . S
C342 H346 0.930 . S
N343 C340 1.377 . S
N343 C342 1.344 . S
O344 Co336 2.055 . S
O344 C348 1.253 . S
H345 C341 0.931 . S
H346 C342 0.930 . S
O347 Co336 2.039 . S
O347 C337 1.265 . S
C348 O344 1.253 . S
C348 O349 1.227 . S
O349 C348 1.227 . S
N350 Co336 2.140 . S
N350 C353 1.346 . S
N350 C354 1.345 . S
C351 C352 1.387 . S
C351 C355 1.391 . S
C352 C351 1.387 . S
C352 C353 1.369 . S
C352 H361 0.929 . S
C353 N350 1.346 . S
C353 C352 1.369 . S
C353 H356 0.928 . S
C354 N350 1.345 . S
C354 C355 1.371 . S
C354 H357 0.931 . S
C355 C351 1.391 . S
C355 C354 1.371 . S
C355 H362 0.930 . S
H356 C353 0.928 . S
H357 C354 0.931 . S
H358 C334 0.930 . S
H359 C331 0.930 . S
H360 C340 0.930 1_655 S
H361 C352 0.929 . S
H362 C355 0.930 . S
C363 C364 1.351 . S
C363 N366 1.368 . S
C363 H368 0.931 . S
C364 C363 1.351 . S
C364 N365 1.373 . S
C364 H392 0.930 . S
N365 C364 1.373 . S
N365 C367 1.340 . S
N366 C363 1.368 . S
N366 C367 1.321 . S
N366 Co369 2.135 . S
C367 N365 1.340 . S
C367 N366 1.321 . S
C367 H391 0.930 . S
H368 C363 0.931 . S
Co369 N366 2.135 . S
Co369 N372 2.121 . S
Co369 O377 2.055 . S
Co369 O380 2.039 . S
Co369 N383 2.140 . S
C370 O371 1.227 . S
C370 O380 1.265 . S
O371 C370 1.227 . S
N372 Co369 2.121 . S
N372 C374 1.375 . S
N372 C375 1.313 . S
C373 C374 1.338 . S
C373 N376 1.377 . S
C373 H393 0.930 . S
C374 N372 1.375 . S
C374 C373 1.338 . S
C374 H378 0.931 . S
C375 N372 1.313 . S
C375 N376 1.344 . S
C375 H379 0.930 . S
N376 C373 1.377 . S
N376 C375 1.344 . S
O377 Co369 2.055 . S
O377 C381 1.253 . S
H378 C374 0.931 . S
H379 C375 0.930 . S
O380 Co369 2.039 . S
O380 C370 1.265 . S
C381 O377 1.253 . S
C381 O382 1.227 . S
O382 C381 1.227 . S
N383 Co369 2.140 . S
N383 C386 1.346 . S
N383 C387 1.345 . S
C384 C385 1.387 . S
C384 C388 1.391 . S
C385 C384 1.387 . S
C385 C386 1.369 . S
C385 H394 0.929 . S
C386 N383 1.346 . S
C386 C385 1.369 . S
C386 H389 0.928 . S
C387 N383 1.345 . S
C387 C388 1.371 . S
C387 H390 0.931 . S
C388 C384 1.391 . S
C388 C387 1.371 . S
C388 H395 0.930 . S
H389 C386 0.928 . S
H390 C387 0.931 . S
H391 C367 0.930 . S
H392 C364 0.930 . S
H393 C373 0.930 . S
H394 C385 0.929 . S
H395 C388 0.930 . S
C396 C397 1.351 . S
C396 N399 1.368 . S
C396 H401 0.931 . S
C397 C396 1.351 . S
C397 N398 1.373 . S
C397 H425 0.930 . S
N398 C397 1.373 . S
N398 C400 1.340 . S
N399 C396 1.368 . S
N399 C400 1.321 . S
N399 Co402 2.135 . S
C400 N398 1.340 . S
C400 N399 1.321 . S
C400 H424 0.930 . S
H401 C396 0.931 . S
Co402 N399 2.135 . S
Co402 N405 2.121 . S
Co402 O410 2.055 . S
Co402 O413 2.039 . S
Co402 N416 2.140 . S
C403 O404 1.227 . S
C403 O413 1.265 . S
O404 C403 1.227 . S
N405 Co402 2.121 . S
N405 C407 1.375 . S
N405 C408 1.313 . S
C406 C407 1.338 . S
C406 N409 1.377 . S
C406 H426 0.930 . S
C407 N405 1.375 . S
C407 C406 1.338 . S
C407 H411 0.931 . S
C408 N405 1.313 . S
C408 N409 1.344 . S
C408 H412 0.930 . S
N409 C406 1.377 . S
N409 C408 1.344 . S
O410 Co402 2.055 . S
O410 C414 1.253 . S
H411 C407 0.931 . S
H412 C408 0.930 . S
O413 Co402 2.039 . S
O413 C403 1.265 . S
C414 O410 1.253 . S
C414 O415 1.227 . S
O415 C414 1.227 . S
N416 Co402 2.140 . S
N416 C419 1.346 . S
N416 C420 1.345 . S
C417 C418 1.387 . S
C417 C421 1.391 . S
C418 C417 1.387 . S
C418 C419 1.369 . S
C418 H427 0.929 . S
C419 N416 1.346 . S
C419 C418 1.369 . S
C419 H422 0.928 . S
C420 N416 1.345 . S
C420 C421 1.371 . S
C420 H423 0.931 . S
C421 C417 1.391 . S
C421 C420 1.371 . S
C421 H428 0.930 . S
H422 C419 0.928 . S
H423 C420 0.931 . S
H424 C400 0.930 . S
H425 C397 0.930 . S
H426 C406 0.930 . S
H427 C418 0.929 . S
H428 C421 0.930 . S
C429 C430 1.351 . S
C429 N432 1.368 . S
C429 H434 0.931 . S
C430 C429 1.351 . S
C430 N431 1.373 . S
C430 H458 0.930 . S
N431 C430 1.373 . S
N431 C433 1.340 . S
N432 C429 1.368 . S
N432 C433 1.321 . S
N432 Co435 2.135 . S
C433 N431 1.340 . S
C433 N432 1.321 . S
C433 H457 0.930 . S
H434 C429 0.931 . S
Co435 N432 2.135 . S
Co435 N438 2.121 . S
Co435 O443 2.055 . S
Co435 O446 2.039 . S
Co435 N449 2.140 . S
C436 O437 1.227 . S
C436 O446 1.265 . S
O437 C436 1.227 . S
N438 Co435 2.121 . S
N438 C440 1.375 . S
N438 C441 1.313 . S
C439 C440 1.338 . S
C439 N442 1.377 . S
C439 H459 0.930 1_455 S
C440 N438 1.375 . S
C440 C439 1.338 . S
C440 H444 0.931 . S
C441 N438 1.313 . S
C441 N442 1.344 . S
C441 H445 0.930 . S
N442 C439 1.377 . S
N442 C441 1.344 . S
O443 Co435 2.055 . S
O443 C447 1.253 . S
H444 C440 0.931 . S
H445 C441 0.930 . S
O446 Co435 2.039 . S
O446 C436 1.265 . S
C447 O443 1.253 . S
C447 O448 1.227 . S
O448 C447 1.227 . S
N449 Co435 2.140 . S
N449 C452 1.346 . S
N449 C453 1.345 . S
C450 C451 1.387 . S
C450 C454 1.391 . S
C451 C450 1.387 . S
C451 C452 1.369 . S
C451 H460 0.929 . S
C452 N449 1.346 . S
C452 C451 1.369 . S
C452 H455 0.928 . S
C453 N449 1.345 . S
C453 C454 1.371 . S
C453 H456 0.931 . S
C454 C450 1.391 . S
C454 C453 1.371 . S
C454 H461 0.930 . S
H455 C452 0.928 . S
H456 C453 0.931 . S
H457 C433 0.930 . S
H458 C430 0.930 . S
H459 C439 0.930 1_655 S
H460 C451 0.929 . S
H461 C454 0.930 . S
C462 C463 1.351 . S
C462 N465 1.368 . S
C462 H467 0.931 . S
C463 C462 1.351 . S
C463 N464 1.373 . S
C463 H491 0.930 . S
N464 C463 1.373 . S
N464 C466 1.340 . S
N465 C462 1.368 . S
N465 C466 1.321 . S
N465 Co468 2.135 . S
C466 N464 1.340 . S
C466 N465 1.321 . S
C466 H490 0.930 . S
H467 C462 0.931 . S
Co468 N465 2.135 . S
Co468 N471 2.121 . S
Co468 O476 2.055 . S
Co468 O479 2.039 . S
Co468 N482 2.140 . S
C469 O470 1.227 . S
C469 O479 1.265 . S
O470 C469 1.227 . S
N471 Co468 2.121 . S
N471 C473 1.375 . S
N471 C474 1.313 . S
C472 C473 1.338 . S
C472 N475 1.377 . S
C472 H492 0.930 1_655 S
C473 N471 1.375 . S
C473 C472 1.338 . S
C473 H477 0.931 . S
C474 N471 1.313 . S
C474 N475 1.344 . S
C474 H478 0.930 . S
N475 C472 1.377 . S
N475 C474 1.344 . S
O476 Co468 2.055 . S
O476 C480 1.253 . S
H477 C473 0.931 . S
H478 C474 0.930 . S
O479 Co468 2.039 . S
O479 C469 1.265 . S
C480 O476 1.253 . S
C480 O481 1.227 . S
O481 C480 1.227 . S
N482 Co468 2.140 . S
N482 C485 1.346 . S
N482 C486 1.345 . S
C483 C484 1.387 . S
C483 C487 1.391 . S
C484 C483 1.387 . S
C484 C485 1.369 . S
C484 H493 0.929 . S
C485 N482 1.346 . S
C485 C484 1.369 . S
C485 H488 0.928 . S
C486 N482 1.345 . S
C486 C487 1.371 . S
C486 H489 0.931 . S
C487 C483 1.391 . S
C487 C486 1.371 . S
C487 H494 0.930 . S
H488 C485 0.928 . S
H489 C486 0.931 . S
H490 C466 0.930 . S
H491 C463 0.930 . S
H492 C472 0.930 1_455 S
H493 C484 0.929 . S
H494 C487 0.930 . S
C495 C496 1.351 . S
C495 N498 1.368 . S
C495 H500 0.931 . S
C496 C495 1.351 . S
C496 N497 1.373 . S
C496 H524 0.930 . S
N497 C496 1.373 . S
N497 C499 1.340 . S
N498 C495 1.368 . S
N498 C499 1.321 . S
N498 Co501 2.135 . S
C499 N497 1.340 . S
C499 N498 1.321 . S
C499 H523 0.930 . S
H500 C495 0.931 . S
Co501 N498 2.135 . S
Co501 N504 2.121 . S
Co501 O509 2.055 . S
Co501 O512 2.039 . S
Co501 N515 2.140 . S
C502 O503 1.227 . S
C502 O512 1.265 . S
O503 C502 1.227 . S
N504 Co501 2.121 . S
N504 C506 1.375 . S
N504 C507 1.313 . S
C505 C506 1.338 . S
C505 N508 1.377 . S
C505 H525 0.930 . S
C506 N504 1.375 . S
C506 C505 1.338 . S
C506 H510 0.931 . S
C507 N504 1.313 . S
C507 N508 1.344 . S
C507 H511 0.930 . S
N508 C505 1.377 . S
N508 C507 1.344 . S
O509 Co501 2.055 . S
O509 C513 1.253 . S
H510 C506 0.931 . S
H511 C507 0.930 . S
O512 Co501 2.039 . S
O512 C502 1.265 . S
C513 O509 1.253 . S
C513 O514 1.227 . S
O514 C513 1.227 . S
N515 Co501 2.140 . S
N515 C518 1.346 . S
N515 C519 1.345 . S
C516 C517 1.387 . S
C516 C520 1.391 . S
C517 C516 1.387 . S
C517 C518 1.369 . S
C517 H526 0.929 . S
C518 N515 1.346 . S
C518 C517 1.369 . S
C518 H521 0.928 . S
C519 N515 1.345 . S
C519 C520 1.371 . S
C519 H522 0.931 . S
C520 C516 1.391 . S
C520 C519 1.371 . S
C520 H527 0.930 . S
H521 C518 0.928 . S
H522 C519 0.931 . S
H523 C499 0.930 . S
H524 C496 0.930 . S
H525 C505 0.930 . S
H526 C517 0.929 . S
H527 C520 0.930 . S
C528 C529 1.387 . S
C528 H532 0.950 . S
C528 C537 1.390 1_655 S
C529 C528 1.387 . S
C529 C531 1.387 . S
H530 C537 0.950 . S
C531 C529 1.387 . S
C531 C533 1.390 1_655 S
C531 H535 0.950 . S
H532 C528 0.950 . S
C533 C531 1.390 1_455 S
C533 C534 1.387 . S
C533 H536 0.950 . S
C534 C533 1.387 . S
C534 C537 1.387 . S
H535 C531 0.950 . S
H536 C533 0.950 . S
C537 C528 1.390 1_455 S
C537 H530 0.950 . S
C537 C534 1.387 . S
C538 C539 1.387 . S
C538 H542 0.950 . S
C538 C547 1.390 . S
C539 C538 1.387 . S
C539 C541 1.387 . S
H540 C547 0.950 . S
C541 C539 1.387 . S
C541 C543 1.390 . S
C541 H545 0.950 . S
H542 C538 0.950 . S
C543 C541 1.390 . S
C543 C544 1.387 . S
C543 H546 0.950 . S
C544 C543 1.387 . S
C544 C547 1.387 . S
H545 C541 0.950 . S
H546 C543 0.950 . S
C547 C538 1.390 . S
C547 H540 0.950 . S
C547 C544 1.387 . S
C548 C549 1.387 . S
C548 H552 0.950 . S
C548 C557 1.390 1_655 S
C549 C548 1.387 . S
C549 C551 1.387 . S
H550 C557 0.950 . S
C551 C549 1.387 . S
C551 C553 1.390 1_655 S
C551 H555 0.950 . S
H552 C548 0.950 . S
C553 C551 1.390 1_455 S
C553 C554 1.387 . S
C553 H556 0.950 . S
C554 C553 1.387 . S
C554 C557 1.387 . S
H555 C551 0.950 . S
H556 C553 0.950 . S
C557 C548 1.390 1_455 S
C557 H550 0.950 . S
C557 C554 1.387 . S
C558 C559 1.387 . S
C558 H562 0.950 . S
C558 C567 1.390 . S
C559 C558 1.387 . S
C559 C561 1.387 . S
H560 C567 0.950 . S
C561 C559 1.387 . S
C561 C563 1.390 . S
C561 H565 0.950 . S
H562 C558 0.950 . S
C563 C561 1.390 . S
C563 C564 1.387 . S
C563 H566 0.950 . S
C564 C563 1.387 . S
C564 C567 1.387 . S
H565 C561 0.950 . S
H566 C563 0.950 . S
C567 C558 1.390 . S
C567 H560 0.950 . S
C567 C564 1.387 . S
C568 C569 1.387 . S
C568 H572 0.950 . S
C568 C577 1.390 . S
C569 C568 1.387 . S
C569 C571 1.387 . S
H570 C577 0.950 . S
C571 C569 1.387 . S
C571 C573 1.390 . S
C571 H575 0.950 . S
H572 C568 0.950 . S
C573 C571 1.390 . S
C573 C574 1.387 . S
C573 H576 0.950 . S
C574 C573 1.387 . S
C574 C577 1.387 . S
H575 C571 0.950 . S
H576 C573 0.950 . S
C577 C568 1.390 . S
C577 H570 0.950 . S
C577 C574 1.387 . S
C578 C579 1.387 . S
C578 H582 0.950 . S
C578 C587 1.390 1_655 S
C579 C578 1.387 . S
C579 C581 1.387 . S
H580 C587 0.950 . S
C581 C579 1.387 . S
C581 C583 1.390 1_655 S
C581 H585 0.950 . S
H582 C578 0.950 . S
C583 C581 1.390 1_455 S
C583 C584 1.387 . S
C583 H586 0.950 . S
C584 C583 1.387 . S
C584 C587 1.387 . S
H585 C581 0.950 . S
H586 C583 0.950 . S
C587 C578 1.390 1_455 S
C587 H580 0.950 . S
C587 C584 1.387 . S
C588 C589 1.387 . S
C588 H592 0.950 . S
C588 C597 1.390 . S
C589 C588 1.387 . S
C589 C591 1.387 . S
H590 C597 0.950 . S
C591 C589 1.387 . S
C591 C593 1.390 . S
C591 H595 0.950 . S
H592 C588 0.950 . S
C593 C591 1.390 . S
C593 C594 1.387 . S
C593 H596 0.950 . S
C594 C593 1.387 . S
C594 C597 1.387 . S
H595 C591 0.950 . S
H596 C593 0.950 . S
C597 C588 1.390 . S
C597 H590 0.950 . S
C597 C594 1.387 . S
C598 C599 1.387 . S
C598 H602 0.950 . S
C598 C607 1.390 1_655 S
C599 C598 1.387 . S
C599 C601 1.387 . S
H600 C607 0.950 . S
C601 C599 1.387 . S
C601 C603 1.390 1_655 S
C601 H605 0.950 . S
H602 C598 0.950 . S
C603 C601 1.390 1_455 S
C603 C604 1.387 . S
C603 H606 0.950 . S
C604 C603 1.387 . S
C604 C607 1.387 . S
H605 C601 0.950 . S
H606 C603 0.950 . S
C607 C598 1.390 1_455 S
C607 H600 0.950 . S
C607 C604 1.387 . S
C608 C609 1.387 . S
C608 H612 0.950 . S
C608 C617 1.390 . S
C609 C608 1.387 . S
C609 C611 1.387 . S
H610 C617 0.950 . S
C611 C609 1.387 . S
C611 C613 1.390 . S
C611 H615 0.950 . S
H612 C608 0.950 . S
C613 C611 1.390 . S
C613 C614 1.387 . S
C613 H616 0.950 . S
C614 C613 1.387 . S
C614 C617 1.387 . S
H615 C611 0.950 . S
H616 C613 0.950 . S
C617 C608 1.390 . S
C617 H610 0.950 . S
C617 C614 1.387 . S
C618 C619 1.387 . S
C618 H622 0.950 . S
C618 C627 1.390 . S
C619 C618 1.387 . S
C619 C621 1.387 . S
H620 C627 0.950 . S
C621 C619 1.387 . S
C621 C623 1.390 . S
C621 H625 0.950 . S
H622 C618 0.950 . S
C623 C621 1.390 . S
C623 C624 1.387 . S
C623 H626 0.950 . S
C624 C623 1.387 . S
C624 C627 1.387 . S
H625 C621 0.950 . S
H626 C623 0.950 . S
C627 C618 1.390 . S
C627 H620 0.950 . S
C627 C624 1.387 . S
C628 C629 1.387 . S
C628 H632 0.950 . S
C628 C637 1.390 . S
C629 C628 1.387 . S
C629 C631 1.387 . S
H630 C637 0.950 . S
C631 C629 1.387 . S
C631 C633 1.390 . S
C631 H635 0.950 . S
H632 C628 0.950 . S
C633 C631 1.390 . S
C633 C634 1.387 . S
C633 H636 0.950 . S
C634 C633 1.387 . S
C634 C637 1.387 . S
H635 C631 0.950 . S
H636 C633 0.950 . S
C637 C628 1.390 . S
C637 H630 0.950 . S
C637 C634 1.387 . S
C638 C639 1.387 . S
C638 H642 0.950 . S
C638 C647 1.390 . S
C639 C638 1.387 . S
C639 C641 1.387 . S
H640 C647 0.950 . S
C641 C639 1.387 . S
C641 C643 1.390 . S
C641 H645 0.950 . S
H642 C638 0.950 . S
C643 C641 1.390 . S
C643 C644 1.387 . S
C643 H646 0.950 . S
C644 C643 1.387 . S
C644 C647 1.387 . S
H645 C641 0.950 . S
H646 C643 0.950 . S
C647 C638 1.390 . S
C647 H640 0.950 . S
C647 C644 1.387 . S
C648 C649 1.387 . S
C648 H652 0.950 . S
C648 C657 1.390 . S
C649 C648 1.387 . S
C649 C651 1.387 . S
H650 C657 0.950 . S
C651 C649 1.387 . S
C651 C653 1.390 . S
C651 H655 0.950 . S
H652 C648 0.950 . S
C653 C651 1.390 . S
C653 C654 1.387 . S
C653 H656 0.950 . S
C654 C653 1.387 . S
C654 C657 1.387 . S
H655 C651 0.950 . S
H656 C653 0.950 . S
C657 C648 1.390 . S
C657 H650 0.950 . S
C657 C654 1.387 . S
C658 C659 1.387 . S
C658 H662 0.950 . S
C658 C667 1.390 . S
C659 C658 1.387 . S
C659 C661 1.387 . S
H660 C667 0.950 . S
C661 C659 1.387 . S
C661 C663 1.390 . S
C661 H665 0.950 . S
H662 C658 0.950 . S
C663 C661 1.390 . S
C663 C664 1.387 . S
C663 H666 0.950 . S
C664 C663 1.387 . S
C664 C667 1.387 . S
H665 C661 0.950 . S
H666 C663 0.950 . S
C667 C658 1.390 . S
C667 H660 0.950 . S
C667 C664 1.387 . S
C668 C669 1.387 . S
C668 H672 0.950 . S
C668 C677 1.390 . S
C669 C668 1.387 . S
C669 C671 1.387 . S
H670 C677 0.950 . S
C671 C669 1.387 . S
C671 C673 1.390 . S
C671 H675 0.950 . S
H672 C668 0.950 . S
C673 C671 1.390 . S
C673 C674 1.387 . S
C673 H676 0.950 . S
C674 C673 1.387 . S
C674 C677 1.387 . S
H675 C671 0.950 . S
H676 C673 0.950 . S
C677 C668 1.390 . S
C677 H670 0.950 . S
C677 C674 1.387 . S
C678 C679 1.387 . S
C678 H682 0.950 . S
C678 C687 1.390 . S
C679 C678 1.387 . S
C679 C681 1.387 . S
H680 C687 0.950 . S
C681 C679 1.387 . S
C681 C683 1.390 . S
C681 H685 0.950 . S
H682 C678 0.950 . S
C683 C681 1.390 . S
C683 C684 1.387 . S
C683 H686 0.950 . S
C684 C683 1.387 . S
C684 C687 1.387 . S
H685 C681 0.950 . S
H686 C683 0.950 . S
C687 C678 1.390 . S
C687 H680 0.950 . S
C687 C684 1.387 . S
C688 C689 1.387 1_655 S
C688 H692 0.950 . S
C688 C697 1.390 . S
C689 C688 1.387 1_455 S
C689 C691 1.387 1_545 S
H690 C697 0.950 . S
C691 C689 1.387 1_565 S
C691 C693 1.390 . S
C691 H695 0.950 . S
H692 C688 0.950 . S
C693 C691 1.390 . S
C693 C694 1.387 1_455 S
C693 H696 0.950 . S
C694 C693 1.387 1_655 S
C694 C697 1.387 1_565 S
H695 C691 0.950 . S
H696 C693 0.950 . S
C697 C688 1.390 . S
C697 H690 0.950 . S
C697 C694 1.387 1_545 S
C698 C699 1.387 1_545 S
C698 H702 0.950 . S
C698 C707 1.390 . S
C699 C698 1.387 1_565 S
C699 C701 1.387 . S
H700 C707 0.950 . S
C701 C699 1.387 . S
C701 C703 1.390 . S
C701 H705 0.950 . S
H702 C698 0.950 . S
C703 C701 1.390 . S
C703 C704 1.387 1_565 S
C703 H706 0.950 . S
C704 C703 1.387 1_545 S
C704 C707 1.387 . S
H705 C701 0.950 . S
H706 C703 0.950 . S
C707 C698 1.390 . S
C707 H700 0.950 . S
C707 C704 1.387 . S
C708 C709 1.387 1_554 S
C708 H712 0.950 . S
C708 C717 1.390 . S
C709 C708 1.387 1_556 S
C709 C711 1.387 1_545 S
H710 C717 0.950 . S
C711 C709 1.387 1_565 S
C711 C713 1.390 . S
C711 H715 0.950 . S
H712 C708 0.950 . S
C713 C711 1.390 . S
C713 C714 1.387 1_556 S
C713 H716 0.950 . S
C714 C713 1.387 1_554 S
C714 C717 1.387 1_565 S
H715 C711 0.950 . S
H716 C713 0.950 . S
C717 C708 1.390 . S
C717 H710 0.950 . S
C717 C714 1.387 1_545 S
C718 C719 1.370 1_455 S
C718 H722 0.950 . S
C718 C727 1.407 1_554 S
C719 C718 1.370 1_655 S
C719 C721 1.387 1_545 S
H720 C727 0.950 . S
C721 C719 1.387 1_565 S
C721 C723 1.407 1_554 S
C721 H725 0.950 . S
H722 C718 0.950 . S
C723 C721 1.407 1_556 S
C723 C724 1.370 1_655 S
C723 H726 0.950 . S
C724 C723 1.370 1_455 S
C724 C727 1.387 1_565 S
H725 C721 0.950 . S
H726 C723 0.950 . S
C727 C718 1.407 1_556 S
C727 H720 0.950 . S
C727 C724 1.387 1_545 S
C728 C729 1.387 . S
C728 H732 0.950 . S
C728 C737 1.390 . S
C729 C728 1.387 . S
C729 C731 1.387 . S
H730 C737 0.950 . S
C731 C729 1.387 . S
C731 C733 1.390 . S
C731 H735 0.950 . S
H732 C728 0.950 . S
C733 C731 1.390 . S
C733 C734 1.387 . S
C733 H736 0.950 . S
C734 C733 1.387 . S
C734 C737 1.387 . S
H735 C731 0.950 . S
H736 C733 0.950 . S
C737 C728 1.390 . S
C737 H730 0.950 . S
C737 C734 1.387 . S
C738 C739 1.387 . S
C738 H742 0.950 . S
C738 C747 1.390 1_455 S
C739 C738 1.387 . S
C739 C741 1.387 . S
H740 C747 0.950 . S
C741 C739 1.387 . S
C741 C743 1.390 1_455 S
C741 H745 0.950 . S
H742 C738 0.950 . S
C743 C741 1.390 1_655 S
C743 C744 1.387 . S
C743 H746 0.950 . S
C744 C743 1.387 . S
C744 C747 1.387 . S
H745 C741 0.950 . S
H746 C743 0.950 . S
C747 C738 1.390 1_655 S
C747 H740 0.950 . S
C747 C744 1.387 . S
C748 C749 1.387 . S
C748 H752 0.950 . S
C748 C757 1.390 1_455 S
C749 C748 1.387 . S
C749 C751 1.387 1_554 S
H750 C757 0.950 . S
C751 C749 1.387 1_556 S
C751 C753 1.390 1_455 S
C751 H755 0.950 . S
H752 C748 0.950 . S
C753 C751 1.390 1_655 S
C753 C754 1.387 . S
C753 H756 0.950 . S
C754 C753 1.387 . S
C754 C757 1.387 1_556 S
H755 C751 0.950 . S
H756 C753 0.950 . S
C757 C748 1.390 1_655 S
C757 H750 0.950 . S
C757 C754 1.387 1_554 S
C758 C759 1.387 . S
C758 H762 0.950 . S
C758 C767 1.390 . S
C759 C758 1.387 . S
C759 C761 1.387 1_556 S
H760 C767 0.950 . S
C761 C759 1.387 1_554 S
C761 C763 1.390 . S
C761 H765 0.950 . S
H762 C758 0.950 . S
C763 C761 1.390 . S
C763 C764 1.387 . S
C763 H766 0.950 . S
C764 C763 1.387 . S
C764 C767 1.387 1_554 S
H765 C761 0.950 . S
H766 C763 0.950 . S
C767 C758 1.390 . S
C767 H760 0.950 . S
C767 C764 1.387 1_556 S
C768 C769 1.387 . S
C768 H772 0.950 . S
C768 C777 1.390 1_545 S
C769 C768 1.387 . S
C769 C771 1.387 . S
H770 C777 0.950 . S
C771 C769 1.387 . S
C771 C773 1.390 1_545 S
C771 H775 0.950 . S
H772 C768 0.950 . S
C773 C771 1.390 1_565 S
C773 C774 1.387 . S
C773 H776 0.950 . S
C774 C773 1.387 . S
C774 C777 1.387 . S
H775 C771 0.950 . S
H776 C773 0.950 . S
C777 C768 1.390 1_565 S
C777 H770 0.950 . S
C777 C774 1.387 . S
C778 C779 1.387 . S
C778 H782 0.950 . S
C778 C787 1.390 1_545 S
C779 C778 1.387 . S
C779 C781 1.387 . S
H780 C787 0.950 . S
C781 C779 1.387 . S
C781 C783 1.390 1_545 S
C781 H785 0.950 . S
H782 C778 0.950 . S
C783 C781 1.390 1_565 S
C783 C784 1.387 . S
C783 H786 0.950 . S
C784 C783 1.387 . S
C784 C787 1.387 . S
H785 C781 0.950 . S
H786 C783 0.950 . S
C787 C778 1.390 1_565 S
C787 H780 0.950 . S
C787 C784 1.387 . S
C788 C789 1.387 . S
C788 H792 0.950 . S
C788 C797 1.390 1_545 S
C789 C788 1.387 . S
C789 C791 1.387 . S
H790 C797 0.950 . S
C791 C789 1.387 . S
C791 C793 1.390 1_545 S
C791 H795 0.950 . S
H792 C788 0.950 . S
C793 C791 1.390 1_565 S
C793 C794 1.387 . S
C793 H796 0.950 . S
C794 C793 1.387 . S
C794 C797 1.387 . S
H795 C791 0.950 . S
H796 C793 0.950 . S
C797 C788 1.390 1_565 S
C797 H790 0.950 . S
C797 C794 1.387 . S
C798 C799 1.387 . S
C798 H802 0.950 . S
C798 C807 1.390 1_545 S
C799 C798 1.387 . S
C799 C801 1.387 . S
H800 C807 0.950 . S
C801 C799 1.387 . S
C801 C803 1.390 1_545 S
C801 H805 0.950 . S
H802 C798 0.950 . S
C803 C801 1.390 1_565 S
C803 C804 1.387 . S
C803 H806 0.950 . S
C804 C803 1.387 . S
C804 C807 1.387 . S
H805 C801 0.950 . S
H806 C803 0.950 . S
C807 C798 1.390 1_565 S
C807 H800 0.950 . S
C807 C804 1.387 . S
C808 C809 1.387 . S
C808 H812 0.950 . S
C808 C817 1.390 . S
C809 C808 1.387 . S
C809 C811 1.387 . S
H810 C817 0.950 . S
C811 C809 1.387 . S
C811 C813 1.390 . S
C811 H815 0.950 . S
H812 C808 0.950 . S
C813 C811 1.390 . S
C813 C814 1.387 . S
C813 H816 0.950 . S
C814 C813 1.387 . S
C814 C817 1.387 . S
H815 C811 0.950 . S
H816 C813 0.950 . S
C817 C808 1.390 . S
C817 H810 0.950 . S
C817 C814 1.387 . S
C818 C819 1.387 . S
C818 H822 0.950 . S
C818 C827 1.390 . S
C819 C818 1.387 . S
C819 C821 1.387 . S
H820 C827 0.950 . S
C821 C819 1.387 . S
C821 C823 1.390 . S
C821 H825 0.950 . S
H822 C818 0.950 . S
C823 C821 1.390 . S
C823 C824 1.387 . S
C823 H826 0.950 . S
C824 C823 1.387 . S
C824 C827 1.387 . S
H825 C821 0.950 . S
H826 C823 0.950 . S
C827 C818 1.390 . S
C827 H820 0.950 . S
C827 C824 1.387 . S
C828 C829 1.387 . S
C828 H832 0.950 . S
C828 C837 1.390 . S
C829 C828 1.387 . S
C829 C831 1.387 . S
H830 C837 0.950 . S
C831 C829 1.387 . S
C831 C833 1.390 . S
C831 H835 0.950 . S
H832 C828 0.950 . S
C833 C831 1.390 . S
C833 C834 1.387 . S
C833 H836 0.950 . S
C834 C833 1.387 . S
C834 C837 1.387 . S
H835 C831 0.950 . S
H836 C833 0.950 . S
C837 C828 1.390 . S
C837 H830 0.950 . S
C837 C834 1.387 . S
C838 C839 1.387 . S
C838 H842 0.950 . S
C838 C847 1.390 . S
C839 C838 1.387 . S
C839 C841 1.387 . S
H840 C847 0.950 . S
C841 C839 1.387 . S
C841 C843 1.390 . S
C841 H845 0.950 . S
H842 C838 0.950 . S
C843 C841 1.390 . S
C843 C844 1.387 . S
C843 H846 0.950 . S
C844 C843 1.387 . S
C844 C847 1.387 . S
H845 C841 0.950 . S
H846 C843 0.950 . S
C847 C838 1.390 . S
C847 H840 0.950 . S
C847 C844 1.387 . S
C848 C849 1.387 . S
C848 H852 0.950 . S
C848 C857 1.390 1_455 S
C849 C848 1.387 . S
C849 C851 1.387 . S
H850 C857 0.950 . S
C851 C849 1.387 . S
C851 C853 1.390 1_455 S
C851 H855 0.950 . S
H852 C848 0.950 . S
C853 C851 1.390 1_655 S
C853 C854 1.387 . S
C853 H856 0.950 . S
C854 C853 1.387 . S
C854 C857 1.387 . S
H855 C851 0.950 . S
H856 C853 0.950 . S
C857 C848 1.390 1_655 S
C857 H850 0.950 . S
C857 C854 1.387 . S
C858 C859 1.387 . S
C858 H862 0.950 . S
C858 C867 1.390 . S
C859 C858 1.387 . S
C859 C861 1.387 . S
H860 C867 0.950 . S
C861 C859 1.387 . S
C861 C863 1.390 . S
C861 H865 0.950 . S
H862 C858 0.950 . S
C863 C861 1.390 . S
C863 C864 1.387 . S
C863 H866 0.950 . S
C864 C863 1.387 . S
C864 C867 1.387 . S
H865 C861 0.950 . S
H866 C863 0.950 . S
C867 C858 1.390 . S
C867 H860 0.950 . S
C867 C864 1.387 . S
C868 C869 1.387 . S
C868 H872 0.950 . S
C868 C877 1.390 . S
C869 C868 1.387 . S
C869 C871 1.387 . S
H870 C877 0.950 . S
C871 C869 1.387 . S
C871 C873 1.390 . S
C871 H875 0.950 . S
H872 C868 0.950 . S
C873 C871 1.390 . S
C873 C874 1.387 . S
C873 H876 0.950 . S
C874 C873 1.387 . S
C874 C877 1.387 . S
H875 C871 0.950 . S
H876 C873 0.950 . S
C877 C868 1.390 . S
C877 H870 0.950 . S
C877 C874 1.387 . S
C878 C879 1.387 . S
C878 H882 0.950 . S
C878 C887 1.390 1_655 S
C879 C878 1.387 . S
C879 C881 1.387 . S
H880 C887 0.950 . S
C881 C879 1.387 . S
C881 C883 1.390 1_655 S
C881 H885 0.950 . S
H882 C878 0.950 . S
C883 C881 1.390 1_455 S
C883 C884 1.387 . S
C883 H886 0.950 . S
C884 C883 1.387 . S
C884 C887 1.387 . S
H885 C881 0.950 . S
H886 C883 0.950 . S
C887 C878 1.390 1_455 S
C887 H880 0.950 . S
C887 C884 1.387 . S
C888 C889 1.387 . S
C888 H892 0.950 . S
C888 C897 1.390 1_655 S
C889 C888 1.387 . S
C889 C891 1.387 . S
H890 C897 0.950 . S
C891 C889 1.387 . S
C891 C893 1.390 1_655 S
C891 H895 0.950 . S
H892 C888 0.950 . S
C893 C891 1.390 1_455 S
C893 C894 1.387 . S
C893 H896 0.950 . S
C894 C893 1.387 . S
C894 C897 1.387 . S
H895 C891 0.950 . S
H896 C893 0.950 . S
C897 C888 1.390 1_455 S
C897 H890 0.950 . S
C897 C894 1.387 . S
C898 C899 1.387 . S
C898 H902 0.950 . S
C898 C907 1.390 . S
C899 C898 1.387 . S
C899 C901 1.387 . S
H900 C907 0.950 . S
C901 C899 1.387 . S
C901 C903 1.390 . S
C901 H905 0.950 . S
H902 C898 0.950 . S
C903 C901 1.390 . S
C903 C904 1.387 . S
C903 H906 0.950 . S
C904 C903 1.387 . S
C904 C907 1.387 . S
H905 C901 0.950 . S
H906 C903 0.950 . S
C907 C898 1.390 . S
C907 H900 0.950 . S
C907 C904 1.387 . S
C908 C909 1.387 . S
C908 H912 0.950 . S
C908 C917 1.390 . S
C909 C908 1.387 . S
C909 C911 1.387 . S
H910 C917 0.950 . S
C911 C909 1.387 . S
C911 C913 1.390 . S
C911 H915 0.950 . S
H912 C908 0.950 . S
C913 C911 1.390 . S
C913 C914 1.387 . S
C913 H916 0.950 . S
C914 C913 1.387 . S
C914 C917 1.387 . S
H915 C911 0.950 . S
H916 C913 0.950 . S
C917 C908 1.390 . S
C917 H910 0.950 . S
C917 C914 1.387 . S
C918 C919 1.387 . S
C918 H922 0.950 . S
C918 C927 1.390 1_655 S
C919 C918 1.387 . S
C919 C921 1.387 . S
H920 C927 0.950 . S
C921 C919 1.387 . S
C921 C923 1.390 1_655 S
C921 H925 0.950 . S
H922 C918 0.950 . S
C923 C921 1.390 1_455 S
C923 C924 1.387 . S
C923 H926 0.950 . S
C924 C923 1.387 . S
C924 C927 1.387 . S
H925 C921 0.950 . S
H926 C923 0.950 . S
C927 C918 1.390 1_455 S
C927 H920 0.950 . S
C927 C924 1.387 . S
C529 C120 0.635 . S
C534 C21 0.635 . S
C539 C87 0.641 . S
C544 C54 0.641 . S
C549 C153 0.635 . S
C554 C252 0.635 . S
C559 C186 0.641 . S
C564 C219 0.641 . S
C569 C285 0.635 . S
C574 C384 0.635 . S
C579 C318 0.641 . S
C584 C351 0.641 . S
C589 C516 0.635 . S
C594 C417 0.635 . S
C599 C483 0.641 . S
C604 C450 0.641 . S
C609 N2 1.431 . S
C614 N332 1.431 . S
C619 N365 1.431 . S
C624 N35 1.431 . S
C629 N266 1.431 . S
C634 N68 1.431 . S
C639 N299 1.427 . S
C644 N101 1.427 . S
C649 N464 1.431 . S
C654 N134 1.431 . S
C659 N497 1.427 . S
C664 N167 1.427 . S
C669 N398 1.428 . S
C674 N200 1.428 . S
C679 N431 1.427 . S
C684 N233 1.427 . S
C689 N13 1.614 . S
C694 N145 1.614 . S
C699 N46 1.611 . S
C704 N178 1.611 . S
C709 N211 1.611 . S
C714 N79 1.611 . S
C719 N112 1.614 . S
C724 N244 1.614 . S
C729 N277 1.612 . S
C734 N409 1.612 . S
C739 N442 1.614 . S
C744 N310 1.614 . S
C749 N343 1.611 . S
C754 N475 1.611 . S
C759 N508 1.615 . S
C764 N376 1.615 . S
C769 C18 1.584 . S
C774 C51 1.584 . S
C779 C117 1.587 . S
C784 C84 1.587 . S
C789 C183 1.587 . S
C794 C150 1.587 . S
C799 C216 1.587 . S
C804 C249 1.587 . S
C809 C315 1.584 . S
C814 C282 1.584 . S
C819 C381 1.587 . S
C824 C348 1.587 . S
C829 C414 1.587 . S
C834 C447 1.587 . S
C839 C513 1.587 . S
C844 C480 1.587 . S
C849 C7 1.442 . S
C854 C304 1.442 . S
C859 C40 1.445 . S
C864 C271 1.445 . S
C869 C73 1.442 . S
C874 C370 1.442 . S
C879 C106 1.445 . S
C884 C337 1.445 . S
C889 C139 1.445 . S
C894 C436 1.445 . S
C899 C403 1.442 . S
C904 C172 1.442 . S
C909 C205 1.445 . S
C914 C502 1.445 . S
C919 C469 1.442 . S
C924 C238 1.442 . S
