# Generated by pormake.
# Topology uov, (4)-cn, num edge types: 1
# Building blocks:
#     Node 0, Type 0, BuildingBlock: GALJAG_clean_sbu_0, # of connection points: 4
#     Node 1, Type 0, BuildingBlock: GALJAG_clean_sbu_0, # of connection points: 4
#     Node 2, Type 0, BuildingBlock: GALJAG_clean_sbu_0, # of connection points: 4
#     Node 3, Type 0, BuildingBlock: GALJAG_clean_sbu_0, # of connection points: 4
#     Node 4, Type 0, BuildingBlock: GALJAG_clean_sbu_0, # of connection points: 4
#     Node 5, Type 0, BuildingBlock: GALJAG_clean_sbu_0, # of connection points: 4
#     Node 6, Type 0, BuildingBlock: GALJAG_clean_sbu_0, # of connection points: 4
#     Node 7, Type 0, BuildingBlock: GALJAG_clean_sbu_0, # of connection points: 4
#     Edge 8, Type (0, 0), BuildingBlock: EZIPEK_clean_linker_0, # of connection points: 2
#     Edge 9, Type (0, 0), BuildingBlock: EZIPEK_clean_linker_0, # of connection points: 2
#     Edge 10, Type (0, 0), BuildingBlock: EZIPEK_clean_linker_0, # of connection points: 2
#     Edge 11, Type (0, 0), BuildingBlock: EZIPEK_clean_linker_0, # of connection points: 2
#     Edge 12, Type (0, 0), BuildingBlock: EZIPEK_clean_linker_0, # of connection points: 2
#     Edge 13, Type (0, 0), BuildingBlock: EZIPEK_clean_linker_0, # of connection points: 2
#     Edge 14, Type (0, 0), BuildingBlock: EZIPEK_clean_linker_0, # of connection points: 2
#     Edge 15, Type (0, 0), BuildingBlock: EZIPEK_clean_linker_0, # of connection points: 2
#     Edge 16, Type (0, 0), BuildingBlock: EZIPEK_clean_linker_0, # of connection points: 2
#     Edge 17, Type (0, 0), BuildingBlock: EZIPEK_clean_linker_0, # of connection points: 2
#     Edge 18, Type (0, 0), BuildingBlock: EZIPEK_clean_linker_0, # of connection points: 2
#     Edge 19, Type (0, 0), BuildingBlock: EZIPEK_clean_linker_0, # of connection points: 2
#     Edge 20, Type (0, 0), BuildingBlock: EZIPEK_clean_linker_0, # of connection points: 2
#     Edge 21, Type (0, 0), BuildingBlock: EZIPEK_clean_linker_0, # of connection points: 2
#     Edge 22, Type (0, 0), BuildingBlock: EZIPEK_clean_linker_0, # of connection points: 2
#     Edge 23, Type (0, 0), BuildingBlock: EZIPEK_clean_linker_0, # of connection points: 2
# Relax obj value: 0.177
# Max RMSD: 0.147
# Mean RMSD: 0.147
data_MOF--net-uov--node1-GALJAG_clean_sbu_0--edge1-EZIPEK_clean_linker_0
_symmetry_space_group_name_H-M    P1
_symmetry_Int_Tables_number       1
_symmetry_cell_setting            triclinic
loop_
_symmetry_equiv_pos_as_xyz
'x, y, z'
_cell_length_a     21.236017
_cell_length_b     21.243226
_cell_length_c     33.960026
_cell_angle_alpha  90.013276
_cell_angle_beta   89.968652
_cell_angle_gamma 89.793332
loop_
_atom_site_label
_atom_site_type_symbol
_atom_site_fract_x
_atom_site_fract_y
_atom_site_fract_z
_atom_type_partial_charge
In0 In 0.0384 0.2421 0.61318 0.0
O1 O 0.07193 0.34318 0.60723 0.0
O2 O 0.99102 0.32603 0.64266 0.0
C3 C 0.10112 0.18674 0.55366 0.0
C4 C 0.08852 0.18859 0.67804 0.0
C5 C 0.92646 0.22138 0.57902 0.0
O6 O 0.10723 0.24459 0.56142 0.0
O7 O 0.06592 0.15665 0.57691 0.0
O8 O 0.93822 0.20222 0.61351 0.0
O9 O 0.96958 0.25325 0.56336 0.0
C10 C 0.02784 0.36583 0.62778 0.0
O11 O 0.03096 0.18377 0.66943 0.0
O12 O 0.12077 0.22104 0.65443 0.0
In13 In 0.24868 0.93986 0.38763 0.0
O14 O 0.35335 0.91833 0.38865 0.0
O15 O 0.32369 0.00358 0.36121 0.0
C16 C 0.21335 0.86547 0.44779 0.0
C17 C 0.20154 0.89154 0.32027 0.0
C18 C 0.20588 0.04155 0.42647 0.0
O19 O 0.27025 0.87018 0.43749 0.0
O20 O 0.17453 0.89484 0.42648 0.0
O21 O 0.18158 0.02398 0.39434 0.0
O22 O 0.2541 0.01115 0.43666 0.0
C23 C 0.36879 0.96865 0.37158 0.0
O24 O 0.19501 0.94861 0.32965 0.0
O25 O 0.23212 0.85865 0.34462 0.0
In26 In 0.96187 0.75567 0.61602 0.0
O27 O 0.92586 0.65529 0.61167 0.0
O28 O 0.01305 0.67083 0.64123 0.0
C29 C 0.89353 0.81682 0.56154 0.0
C30 C 0.91733 0.80359 0.68386 0.0
C31 C 0.06851 0.77965 0.57627 0.0
O32 O 0.89656 0.75739 0.56258 0.0
O33 O 0.92119 0.84453 0.58948 0.0
O34 O 0.06249 0.7947 0.61216 0.0
O35 O 0.02251 0.7505 0.56186 0.0
C36 C 0.97305 0.6318 0.62896 0.0
O37 O 0.97337 0.8125 0.67264 0.0
O38 O 0.88428 0.76989 0.66132 0.0
In39 In 0.74778 0.0673 0.39378 0.0
O40 O 0.64598 0.09833 0.38774 0.0
O41 O 0.67048 0.00528 0.36932 0.0
C42 C 0.77283 0.14391 0.45458 0.0
C43 C 0.79809 0.10789 0.32541 0.0
C44 C 0.79335 0.96868 0.4348 0.0
O45 O 0.71731 0.12744 0.44649 0.0
O46 O 0.8143 0.12569 0.43055 0.0
O47 O 0.82467 -0.00526 0.40774 0.0
O48 O 0.73797 0.98888 0.43869 0.0
C49 C 0.62788 0.04602 0.37429 0.0
O50 O 0.79111 0.05021 0.33314 0.0
O51 O 0.7795 0.14497 0.35206 0.0
In52 In 0.94934 0.2376 0.10839 0.0
O53 O 0.96243 0.20288 0.17169 0.0
O54 O 0.86914 0.21117 0.14964 0.0
C55 C 0.04598 0.18348 0.06962 0.0
C56 C 0.97301 0.35942 0.12224 0.0
C57 C 0.86964 0.2067 0.0506 0.0
O58 O 0.02485 0.16087 0.10137 0.0
O59 O 0.02181 0.23514 0.0595 0.0
O60 O 0.88542 0.2631 0.05673 0.0
O61 O 0.89071 0.16702 0.07495 0.0
C62 C 0.90425 0.19667 0.17818 0.0
O63 O 0.92085 0.34049 0.10917 0.0
O64 O 0.0132 0.31699 0.12911 0.0
In65 In 0.2338 0.00741 0.88135 0.0
O66 O 0.33544 0.03599 0.89083 0.0
O67 O 0.31795 0.95702 0.85362 0.0
C68 C 0.18643 0.06989 0.94374 0.0
C69 C 0.19357 0.06472 0.81499 0.0
C70 C 0.19406 0.89498 0.90903 0.0
O71 O 0.24497 0.06536 0.93788 0.0
O72 O 0.15243 0.04539 0.91753 0.0
O73 O 0.16278 0.92694 0.88452 0.0
O74 O 0.24603 0.91935 0.91813 0.0
C75 C 0.35802 0.992 0.8701 0.0
O76 O 0.19272 0.00569 0.81909 0.0
O77 O 0.2159 0.0947 0.8438 0.0
In78 In 0.03667 0.7484 0.11069 0.0
O79 O 0.07227 0.64798 0.10648 0.0
O80 O 0.98615 0.66424 0.13737 0.0
C81 C 0.09593 0.77795 0.04318 0.0
C82 C 0.09095 0.79343 0.17705 0.0
C83 C 0.92319 0.79053 0.08516 0.0
O84 O 0.09059 0.72198 0.05494 0.0
O85 O 0.07405 0.81927 0.06613 0.0
O86 O 0.96198 0.82485 0.10327 0.0
O87 O 0.94195 0.73465 0.08074 0.0
C88 C 0.02604 0.62491 0.12477 0.0
O89 O 0.03231 0.78642 0.17366 0.0
O90 O 0.12245 0.77791 0.1471 0.0
In91 In 0.74966 0.95058 0.89119 0.0
O92 O 0.79867 0.96633 0.8319 0.0
O93 O 0.78358 0.87202 0.85054 0.0
C94 C 0.7704 0.06275 0.92567 0.0
C95 C 0.62641 0.94859 0.87476 0.0
C96 C 0.78827 0.88879 0.95628 0.0
O97 O 0.81445 0.0285 0.91281 0.0
O98 O 0.71603 0.044 0.9171 0.0
O99 O 0.73092 0.8922 0.94674 0.0
O100 O 0.82594 0.91366 0.93226 0.0
C101 C 0.80521 0.90844 0.82463 0.0
O102 O 0.65295 0.90557 0.89454 0.0
O103 O 0.66259 0.99068 0.86153 0.0
C104 C 0.99318 0.53107 0.66551 0.0
C105 C 0.98571 0.56351 0.6293 0.0
C106 C 7e-05 0.46528 0.5929 0.0
C107 C 0.0139 0.43388 0.62874 0.0
N108 N 0.03129 0.43722 0.69882 0.0
N109 N -0.0039 0.56455 0.55839 0.0
C110 C 0.01242 0.46681 0.66507 0.0
C111 C 0.99296 0.53152 0.59292 0.0
N112 N 0.98006 0.56118 0.70016 0.0
N113 N 0.99088 0.43169 0.55902 0.0
H114 H 0.99264 0.61345 0.55688 0.0
H115 H 0.00851 0.54397 0.53162 0.0
H116 H -0.00582 0.38278 0.5576 0.0
H117 H 0.97368 0.45179 0.53317 0.0
H118 H 0.97838 0.53846 0.72729 0.0
H119 H 0.96577 0.60819 0.70144 0.0
H120 H 0.0375 0.46036 0.72556 0.0
H121 H 0.04563 0.3902 0.69945 0.0
C122 C 0.53111 0.01819 0.33595 0.0
C123 C 0.56085 0.0291 0.37267 0.0
C124 C 0.4626 0.00769 0.40753 0.0
C125 C 0.43437 0.99077 0.37124 0.0
N126 N 0.4412 0.97454 0.30119 0.0
N127 N 0.55904 0.02387 0.44377 0.0
C128 C 0.46835 -0.00519 0.33539 0.0
C129 C 0.52772 0.02125 0.40858 0.0
N130 N 0.56247 0.03156 0.30181 0.0
N131 N 0.42673 0.01287 0.44087 0.0
H132 H 0.60695 0.03368 0.44616 0.0
H133 H 0.53882 0.01086 0.47049 0.0
H134 H 0.37868 0.00318 0.44158 0.0
H135 H 0.44325 0.03232 0.46704 0.0
H136 H 0.54164 0.03052 0.27409 0.0
H137 H 0.60864 0.04826 0.30144 0.0
H138 H 0.46539 0.97011 0.27467 0.0
H139 H 0.395 0.9581 0.29986 0.0
C140 C -0.00314 0.45769 0.16027 0.0
C141 C 0.98878 0.4268 0.12362 0.0
C142 C 0.00082 0.52641 0.08852 0.0
C143 C 0.0137 0.55671 0.12485 0.0
N144 N 0.03206 0.55142 0.19475 0.0
N145 N -0.00446 0.42819 0.05267 0.0
C146 C 0.01391 0.52244 0.16068 0.0
C147 C -0.00566 0.46013 0.08766 0.0
N148 N 0.98631 0.42562 0.19453 0.0
N149 N 0.9919 0.56121 0.05505 0.0
H150 H 0.99125 0.37938 0.05069 0.0
H151 H 0.00665 0.44929 0.02588 0.0
H152 H -0.00469 0.61015 0.05429 0.0
H153 H 0.9753 0.54222 0.02878 0.0
H154 H 0.98486 0.44695 0.22211 0.0
H155 H 0.97455 0.37797 0.19516 0.0
H156 H 0.03944 0.52769 0.22117 0.0
H157 H 0.04437 0.59888 0.19594 0.0
C158 C 0.45583 0.96411 0.90673 0.0
C159 C 0.42606 0.977 0.87025 0.0
C160 C 0.52635 0.96019 0.83588 0.0
C161 C 0.55715 0.95533 0.87285 0.0
N162 N 0.55271 0.96612 0.94376 0.0
N163 N 0.43304 -0.00621 0.80018 0.0
C164 C 0.52235 0.96066 0.9084 0.0
C165 C 0.46122 0.97646 0.83471 0.0
N166 N 0.42051 0.95299 0.93969 0.0
N167 N 0.55899 0.94767 0.80206 0.0
H168 H 0.38549 0.00591 0.79829 0.0
H169 H 0.45765 0.00085 0.77404 0.0
H170 H 0.60655 0.93517 0.802 0.0
H171 H 0.53788 0.94432 0.77447 0.0
H172 H 0.43977 0.93673 0.96603 0.0
H173 H 0.37141 0.95344 0.93969 0.0
H174 H 0.52951 0.97721 0.96991 0.0
H175 H 0.60156 0.96615 0.94664 0.0
C176 C 0.11157 0.08263 0.46367 0.0
C177 C 0.17637 0.08757 0.45367 0.0
C178 C 0.19249 0.15991 0.50909 0.0
C179 C 0.12718 0.15729 0.5176 0.0
N180 N 0.0224 0.13321 0.49452 0.0
N181 N 0.27427 0.1438 0.46025 0.0
C182 C 0.08602 0.12416 0.49215 0.0
C183 C 0.21548 0.1305 0.47429 0.0
N184 N 0.07499 0.03562 0.44856 0.0
N185 N 0.23305 0.18742 0.53508 0.0
H186 H 0.29168 0.12453 0.43413 0.0
H187 H 0.30282 0.17877 0.47211 0.0
H188 H 0.21829 0.20852 0.56124 0.0
H189 H 0.28184 0.18451 0.53236 0.0
H190 H 0.02933 0.02707 0.45824 0.0
H191 H 0.09129 0.00092 0.4295 0.0
H192 H 0.99111 0.11563 0.47362 0.0
H193 H 0.00166 0.1643 0.51441 0.0
C194 C 0.18374 0.8796 0.5179 0.0
C195 C 0.19386 0.83822 0.48586 0.0
C196 C 0.14515 0.75321 0.52325 0.0
C197 C 0.12203 0.79814 0.55079 0.0
N198 N 0.11597 0.90711 0.57221 0.0
N199 N 0.18629 0.73491 0.45746 0.0
C200 C 0.1414 0.86202 0.5482 0.0
C201 C 0.17598 0.77442 0.48855 0.0
N202 N 0.21465 0.93579 0.51928 0.0
N203 N 0.13764 0.69042 0.53052 0.0
H204 H 0.21095 0.7489 0.43236 0.0
H205 H 0.16781 0.68964 0.45577 0.0
H206 H 0.11693 0.67378 0.55637 0.0
H207 H 0.15744 0.65519 0.51309 0.0
H208 H 0.21287 0.966 0.54344 0.0
H209 H 0.24826 0.94813 0.49835 0.0
H210 H 0.12264 0.95514 0.56767 0.0
H211 H 0.08409 0.89779 0.59467 0.0
C212 C 0.78965 0.8702 0.47575 0.0
C213 C 0.82172 0.92581 0.46431 0.0
C214 C 0.90538 0.90168 0.51122 0.0
C215 C 0.86883 0.85199 0.5271 0.0
N216 N 0.77086 0.79459 0.52787 0.0
N217 N 0.90179 0.00292 0.48008 0.0
C218 C 0.80953 0.83736 0.51018 0.0
C219 C 0.87738 0.94393 0.48434 0.0
N220 N 0.74103 0.84813 0.4534 0.0
N221 N 0.96777 0.90748 0.52038 0.0
H222 H 0.88257 0.03717 0.46179 0.0
H223 H 0.93689 0.02001 0.49864 0.0
H224 H 0.99201 0.87496 0.53763 0.0
H225 H -0.00292 0.94022 0.50677 0.0
H226 H 0.71974 0.80472 0.45828 0.0
H227 H 0.7262 0.87035 0.4276 0.0
H228 H 0.72459 0.78691 0.51895 0.0
H229 H 0.78277 0.77109 0.55377 0.0
C230 C 0.80789 0.23257 0.49773 0.0
C231 C 0.79112 0.16873 0.49343 0.0
C232 C 0.85083 0.14036 0.55223 0.0
C233 C 0.8697 0.20429 0.55609 0.0
N234 N 0.84949 0.31335 0.54091 0.0
N235 N 0.776 0.0676 0.52384 0.0
C236 C 0.84229 0.25121 0.53162 0.0
C237 C 0.80517 0.12478 0.52346 0.0
N238 N 0.793 0.27462 0.46877 0.0
N239 N 0.88 0.09355 0.57307 0.0
H240 H 0.74149 0.05558 0.50341 0.0
H241 H 0.78079 0.03537 0.54678 0.0
H242 H 0.91462 0.10118 0.59411 0.0
H243 H 0.8733 0.0459 0.56718 0.0
H244 H 0.8102 0.32045 0.46792 0.0
H245 H 0.76531 0.26231 0.44458 0.0
H246 H 0.82703 0.34971 0.52582 0.0
H247 H 0.87297 0.32792 0.56632 0.0
C248 C 0.75474 0.11144 0.9928 0.0
C249 C 0.78248 0.11358 0.95453 0.0
C250 C 0.86016 0.18987 0.97771 0.0
C251 C 0.83322 0.18646 0.01591 0.0
N252 N 0.74446 0.16146 0.05672 0.0
N253 N 0.84775 0.16834 0.90797 0.0
C254 C 0.77666 0.15333 0.02223 0.0
C255 C 0.83054 0.15762 0.94615 0.0
N256 N 0.71195 0.066 0.0025 0.0
N257 N 0.91611 0.22014 0.97201 0.0
H258 H 0.82591 0.14579 0.88435 0.0
H259 H 0.87871 0.20382 0.89959 0.0
H260 H 0.93898 0.24529 0.99408 0.0
H261 H 0.94189 0.21713 0.94598 0.0
H262 H 0.69715 0.0578 0.03128 0.0
H263 H 0.69495 0.03241 0.98302 0.0
H264 H 0.69964 0.14329 0.06166 0.0
H265 H 0.75994 0.19202 0.07875 0.0
C266 C 0.17169 0.15855 0.99238 0.0
C267 C 0.15883 0.09599 0.98032 0.0
C268 C 0.07562 0.08772 0.0299 0.0
C269 C 0.08996 0.14954 0.04314 0.0
N270 N 0.1619 0.237 0.04394 0.0
N271 N 0.11348 -0.00503 0.99592 0.0
C272 C 0.14148 0.18273 0.0266 0.0
C273 C 0.11561 0.05861 0.00182 0.0
N274 N 0.20978 0.19606 0.97008 0.0
N275 N 0.02165 0.0582 0.04164 0.0
H276 H 0.14365 0.97162 0.97653 0.0
H277 H 0.08692 0.96472 0.01343 0.0
H278 H 0.98919 0.07777 0.06111 0.0
H279 H 0.00593 0.01635 0.02906 0.0
H280 H 0.21504 0.24413 0.97508 0.0
H281 H 0.23227 0.18045 0.94458 0.0
H282 H 0.20274 0.26031 0.03537 0.0
H283 H 0.14153 0.25511 0.06954 0.0
C284 C 0.07736 0.81701 0.97471 0.0
C285 C 0.11988 0.79363 0.00358 0.0
C286 C 0.20796 0.80843 0.9581 0.0
C287 C 0.16724 0.84248 0.93283 0.0
N288 N 0.06221 0.84872 0.90667 0.0
N289 N 0.22487 0.76268 0.02275 0.0
C290 C 0.10131 0.83747 0.93781 0.0
C291 C 0.18487 0.78649 0.9949 0.0
N292 N 0.01442 0.8211 0.98296 0.0
N293 N 0.26804 0.7959 0.94597 0.0
H294 H 0.2094 0.74573 0.04989 0.0
H295 H 0.27367 0.76272 0.02001 0.0
H296 H 0.28377 0.80855 0.91792 0.0
H297 H 0.29963 0.76768 0.96142 0.0
H298 H 0.98224 0.8452 0.96537 0.0
H299 H -0.00549 0.80262 0.00853 0.0
H300 H 0.01366 0.84234 0.90758 0.0
H301 H 0.07939 0.85589 0.87827 0.0
C302 C 0.80502 0.79902 0.0034 0.0
C303 C 0.8096 0.86423 0.99483 0.0
C304 C 0.86149 0.8822 0.05834 0.0
C305 C 0.8684 0.81639 0.06269 0.0
N306 N 0.81988 0.71596 0.05178 0.0
N307 N 0.8396 0.96929 0.01459 0.0
C308 C 0.83165 0.77571 0.039 0.0
C309 C 0.83641 0.90639 0.02268 0.0
N310 N 0.77898 0.75901 0.97646 0.0
N311 N 0.87519 0.92099 0.08922 0.0
H312 H 0.81868 0.98937 0.9899 0.0
H313 H 0.86573 0.0011 0.03118 0.0
H314 H 0.88622 0.90338 0.11706 0.0
H315 H 0.86719 0.96937 0.08902 0.0
H316 H 0.7809 0.7102 0.97883 0.0
H317 H 0.75859 0.77452 0.95025 0.0
H318 H 0.78987 0.68481 0.03749 0.0
H319 H 0.83413 0.7005 0.07957 0.0
C320 C 0.0956 0.17515 0.7512 0.0
C321 C 0.11629 0.1576 0.71304 0.0
C322 C 0.19219 0.08352 0.74195 0.0
C323 C 0.16729 0.09676 0.77985 0.0
N324 N 0.08739 0.14644 0.82001 0.0
N325 N 0.17663 0.08799 0.67127 0.0
C326 C 0.1169 0.14034 0.78439 0.0
C327 C 0.16262 0.10988 0.70814 0.0
N328 N 0.05724 0.22646 0.75589 0.0
N329 N 0.24551 0.0477 0.73833 0.0
H330 H 0.15582 0.10582 0.64577 0.0
H331 H 0.2047 0.04853 0.66615 0.0
H332 H 0.26892 0.02813 0.76241 0.0
H333 H 0.26975 0.04201 0.71189 0.0
H334 H 0.04625 0.24573 0.78326 0.0
H335 H 0.04095 0.25345 0.73231 0.0
H336 H 0.04613 0.1723 0.824 0.0
H337 H 0.10052 0.12092 0.84493 0.0
C338 C 0.10941 0.78676 0.24996 0.0
C339 C 0.12048 0.8177 0.21357 0.0
C340 C 0.19133 0.89173 0.24665 0.0
C341 C 0.17466 0.8652 0.28354 0.0
N342 N 0.10913 0.79453 0.3211 0.0
N343 N 0.16309 0.90645 0.17817 0.0
C344 C 0.13142 0.81449 0.28546 0.0
C345 C 0.15918 0.87201 0.21209 0.0
N346 N 0.07999 0.72962 0.25053 0.0
N347 N 0.23952 0.9341 0.24436 0.0
H348 H 0.13934 0.89443 0.15239 0.0
H349 H 0.18504 0.95015 0.17663 0.0
H350 H 0.26511 0.94884 0.26888 0.0
H351 H 0.25816 0.94994 0.21779 0.0
H352 H 0.07671 0.70176 0.27568 0.0
H353 H 0.06419 0.70709 0.22513 0.0
H354 H 0.07238 0.76251 0.32401 0.0
H355 H 0.1231 0.81419 0.34783 0.0
C356 C 0.91591 0.81722 0.75736 0.0
C357 C 0.89098 0.83294 0.71987 0.0
C358 C 0.80864 0.89703 0.75114 0.0
C359 C 0.83598 0.88458 0.78844 0.0
N360 N 0.92236 0.84334 0.82677 0.0
N361 N 0.82227 0.89785 0.6803 0.0
C362 C 0.89162 0.84765 0.79149 0.0
C363 C 0.83977 0.87576 0.71652 0.0
N364 N 0.96088 0.77127 0.76056 0.0
N365 N 0.75152 0.92675 0.74881 0.0
H366 H 0.84441 0.88407 0.65426 0.0
H367 H 0.78987 0.93421 0.67633 0.0
H368 H 0.727 0.94293 0.77345 0.0
H369 H 0.72586 0.93065 0.7228 0.0
H370 H 0.97581 0.75279 0.78739 0.0
H371 H 0.97968 0.74768 0.73629 0.0
H372 H 0.96664 0.82274 0.82998 0.0
H373 H 0.90631 0.86545 0.85233 0.0
C374 C 0.88221 0.10322 0.27308 0.0
C375 C 0.82578 0.13055 0.28784 0.0
C376 C 0.82754 0.2074 0.2341 0.0
C377 C 0.87858 0.17458 0.21642 0.0
N378 N 0.94546 0.08218 0.21532 0.0
N379 N 0.73672 0.19955 0.27662 0.0
C380 C 0.90356 0.11992 0.23484 0.0
C381 C 0.79612 0.18017 0.26677 0.0
N382 N 0.91709 0.06341 0.29605 0.0
N383 N 0.8105 0.26579 0.22087 0.0
H384 H 0.71034 0.1787 0.29896 0.0
H385 H 0.71099 0.23144 0.25968 0.0
H386 H 0.83428 0.28908 0.19833 0.0
H387 H 0.77747 0.29396 0.23529 0.0
H388 H 0.96162 0.04721 0.28792 0.0
H389 H 0.90498 0.05211 0.32494 0.0
H390 H 0.96006 0.03856 0.22608 0.0
H391 H 0.96044 0.09091 0.18661 0.0
loop_
_geom_bond_atom_site_label_1
_geom_bond_atom_site_label_2
_geom_bond_distance
_geom_bond_site_symmetry_2
_ccdc_geom_bond_type
In0 O1 2.294 . S
In0 O2 2.326 . S
In0 O6 2.266 . S
In0 O7 2.326 . S
In0 O8 2.266 1_455 S
In0 O9 2.326 . S
In0 O11 2.294 . S
In0 O12 2.326 . S
O1 In0 2.294 . S
O1 C10 1.240 . S
O2 In0 2.326 . S
O2 C10 1.252 . S
C3 O6 1.252 . S
C3 O7 1.260 . S
C4 O11 1.240 . S
C4 O12 1.252 . S
C5 O8 1.252 . S
C5 O9 1.260 1_655 S
O6 In0 2.266 . S
O6 C3 1.252 . S
O7 In0 2.326 . S
O7 C3 1.260 . S
O8 In0 2.266 1_655 S
O8 C5 1.252 . S
O9 In0 2.326 . S
O9 C5 1.260 1_455 S
C10 O1 1.240 . S
C10 O2 1.252 . S
O11 In0 2.294 . S
O11 C4 1.240 . S
O12 In0 2.326 . S
O12 C4 1.252 . S
In13 O14 2.294 . S
In13 O15 2.326 . S
In13 O19 2.266 . S
In13 O20 2.326 . S
In13 O21 2.266 1_565 S
In13 O22 2.326 . S
In13 O24 2.294 . S
In13 O25 2.326 . S
O14 In13 2.294 . S
O14 C23 1.240 . S
O15 In13 2.326 . S
O15 C23 1.252 . S
C16 O19 1.252 . S
C16 O20 1.260 . S
C17 O24 1.240 . S
C17 O25 1.252 . S
C18 O21 1.252 . S
C18 O22 1.260 1_545 S
O19 In13 2.266 . S
O19 C16 1.252 . S
O20 In13 2.326 . S
O20 C16 1.260 . S
O21 In13 2.266 1_545 S
O21 C18 1.252 . S
O22 In13 2.326 . S
O22 C18 1.260 1_565 S
C23 O14 1.240 . S
C23 O15 1.252 . S
O24 In13 2.294 . S
O24 C17 1.240 . S
O25 In13 2.326 . S
O25 C17 1.252 . S
In26 O27 2.294 . S
In26 O28 2.326 . S
In26 O32 2.266 . S
In26 O33 2.326 . S
In26 O34 2.266 1_655 S
In26 O35 2.326 . S
In26 O37 2.294 . S
In26 O38 2.326 . S
O27 In26 2.294 . S
O27 C36 1.240 . S
O28 In26 2.326 . S
O28 C36 1.252 . S
C29 O32 1.252 . S
C29 O33 1.260 . S
C30 O37 1.240 . S
C30 O38 1.252 . S
C31 O34 1.252 . S
C31 O35 1.260 1_455 S
O32 In26 2.266 . S
O32 C29 1.252 . S
O33 In26 2.326 . S
O33 C29 1.260 . S
O34 In26 2.266 1_455 S
O34 C31 1.252 . S
O35 In26 2.326 . S
O35 C31 1.260 1_655 S
C36 O27 1.240 . S
C36 O28 1.252 . S
O37 In26 2.294 . S
O37 C30 1.240 . S
O38 In26 2.326 . S
O38 C30 1.252 . S
In39 O40 2.294 . S
In39 O41 2.326 . S
In39 O45 2.266 . S
In39 O46 2.326 . S
In39 O47 2.266 1_545 S
In39 O48 2.326 . S
In39 O50 2.294 . S
In39 O51 2.326 . S
O40 In39 2.294 . S
O40 C49 1.240 . S
O41 In39 2.326 . S
O41 C49 1.252 . S
C42 O45 1.252 . S
C42 O46 1.260 . S
C43 O50 1.240 . S
C43 O51 1.252 . S
C44 O47 1.252 . S
C44 O48 1.260 1_565 S
O45 In39 2.266 . S
O45 C42 1.252 . S
O46 In39 2.326 . S
O46 C42 1.260 . S
O47 In39 2.266 1_565 S
O47 C44 1.252 . S
O48 In39 2.326 . S
O48 C44 1.260 1_545 S
C49 O40 1.240 . S
C49 O41 1.252 . S
O50 In39 2.294 . S
O50 C43 1.240 . S
O51 In39 2.326 . S
O51 C43 1.252 . S
In52 O53 2.294 . S
In52 O54 2.326 . S
In52 O58 2.266 1_655 S
In52 O59 2.326 . S
In52 O60 2.266 . S
In52 O61 2.326 . S
In52 O63 2.294 . S
In52 O64 2.326 . S
O53 In52 2.294 . S
O53 C62 1.240 . S
O54 In52 2.326 . S
O54 C62 1.252 . S
C55 O58 1.252 . S
C55 O59 1.260 1_455 S
C56 O63 1.240 . S
C56 O64 1.252 . S
C57 O60 1.252 . S
C57 O61 1.260 . S
O58 In52 2.266 1_455 S
O58 C55 1.252 . S
O59 In52 2.326 . S
O59 C55 1.260 1_655 S
O60 In52 2.266 . S
O60 C57 1.252 . S
O61 In52 2.326 . S
O61 C57 1.260 . S
C62 O53 1.240 . S
C62 O54 1.252 . S
O63 In52 2.294 . S
O63 C56 1.240 . S
O64 In52 2.326 . S
O64 C56 1.252 . S
In65 O66 2.294 . S
In65 O67 2.326 . S
In65 O71 2.266 . S
In65 O72 2.326 . S
In65 O73 2.266 1_545 S
In65 O74 2.326 . S
In65 O76 2.294 . S
In65 O77 2.326 . S
O66 In65 2.294 . S
O66 C75 1.240 . S
O67 In65 2.326 . S
O67 C75 1.252 . S
C68 O71 1.252 . S
C68 O72 1.260 . S
C69 O76 1.240 . S
C69 O77 1.252 . S
C70 O73 1.252 . S
C70 O74 1.260 1_565 S
O71 In65 2.266 . S
O71 C68 1.252 . S
O72 In65 2.326 . S
O72 C68 1.260 . S
O73 In65 2.266 1_565 S
O73 C70 1.252 . S
O74 In65 2.326 . S
O74 C70 1.260 1_545 S
C75 O66 1.240 . S
C75 O67 1.252 . S
O76 In65 2.294 . S
O76 C69 1.240 . S
O77 In65 2.326 . S
O77 C69 1.252 . S
In78 O79 2.294 . S
In78 O80 2.326 . S
In78 O84 2.266 . S
In78 O85 2.326 . S
In78 O86 2.266 1_455 S
In78 O87 2.326 . S
In78 O89 2.294 . S
In78 O90 2.326 . S
O79 In78 2.294 . S
O79 C88 1.240 . S
O80 In78 2.326 . S
O80 C88 1.252 . S
C81 O84 1.252 . S
C81 O85 1.260 . S
C82 O89 1.240 . S
C82 O90 1.252 . S
C83 O86 1.252 . S
C83 O87 1.260 1_655 S
O84 In78 2.266 . S
O84 C81 1.252 . S
O85 In78 2.326 . S
O85 C81 1.260 . S
O86 In78 2.266 1_655 S
O86 C83 1.252 . S
O87 In78 2.326 . S
O87 C83 1.260 1_455 S
C88 O79 1.240 . S
C88 O80 1.252 . S
O89 In78 2.294 . S
O89 C82 1.240 . S
O90 In78 2.326 . S
O90 C82 1.252 . S
In91 O92 2.294 . S
In91 O93 2.326 . S
In91 O97 2.266 1_565 S
In91 O98 2.326 . S
In91 O99 2.266 . S
In91 O100 2.326 . S
In91 O102 2.294 . S
In91 O103 2.326 . S
O92 In91 2.294 . S
O92 C101 1.240 . S
O93 In91 2.326 . S
O93 C101 1.252 . S
C94 O97 1.252 . S
C94 O98 1.260 1_545 S
C95 O102 1.240 . S
C95 O103 1.252 . S
C96 O99 1.252 . S
C96 O100 1.260 . S
O97 In91 2.266 1_545 S
O97 C94 1.252 . S
O98 In91 2.326 . S
O98 C94 1.260 1_565 S
O99 In91 2.266 . S
O99 C96 1.252 . S
O100 In91 2.326 . S
O100 C96 1.260 . S
C101 O92 1.240 . S
C101 O93 1.252 . S
O102 In91 2.294 . S
O102 C95 1.240 . S
O103 In91 2.326 . S
O103 C95 1.252 . S
C104 C105 1.363 1_455 S
C104 C110 1.379 . S
C104 N112 1.356 1_455 S
C105 C104 1.363 1_655 S
C105 C111 1.363 . S
C106 C107 1.363 1_655 S
C106 C111 1.379 . S
C106 N113 1.356 1_655 S
C107 C106 1.363 1_455 S
C107 C110 1.363 . S
N108 C110 1.356 . S
N108 H120 0.984 . S
N108 H121 0.985 . S
N109 C111 1.356 . S
N109 H114 0.984 . S
N109 H115 0.985 . S
C110 C104 1.379 . S
C110 C107 1.363 . S
C110 N108 1.356 . S
C111 C105 1.363 . S
C111 C106 1.379 . S
C111 N109 1.356 . S
N112 C104 1.356 1_655 S
N112 H118 0.984 1_655 S
N112 H119 0.984 . S
N113 C106 1.356 1_455 S
N113 H116 0.984 . S
N113 H117 0.985 1_455 S
H114 N109 0.984 . S
H115 N109 0.985 . S
H116 N113 0.984 . S
H117 N113 0.985 1_655 S
H118 N112 0.984 1_455 S
H119 N112 0.984 . S
H120 N108 0.984 . S
H121 N108 0.985 . S
C122 C123 1.363 . S
C122 C128 1.379 . S
C122 N130 1.356 . S
C123 C122 1.363 . S
C123 C129 1.363 1_545 S
C124 C125 1.363 . S
C124 C129 1.379 . S
C124 N131 1.356 . S
C125 C124 1.363 . S
C125 C128 1.363 1_565 S
N126 C128 1.356 1_565 S
N126 H138 0.984 1_565 S
N126 H139 0.985 . S
N127 C129 1.356 1_545 S
N127 H132 0.984 . S
N127 H133 0.985 1_545 S
C128 C122 1.379 . S
C128 C125 1.363 1_545 S
C128 N126 1.356 1_545 S
C129 C123 1.363 1_565 S
C129 C124 1.379 . S
C129 N127 1.356 1_565 S
N130 C122 1.356 . S
N130 H136 0.984 . S
N130 H137 0.984 . S
N131 C124 1.356 . S
N131 H134 0.984 . S
N131 H135 0.985 . S
H132 N127 0.984 . S
H133 N127 0.985 1_565 S
H134 N131 0.984 . S
H135 N131 0.985 . S
H136 N130 0.984 . S
H137 N130 0.984 . S
H138 N126 0.984 1_545 S
H139 N126 0.985 . S
C140 C141 1.363 . S
C140 C146 1.379 . S
C140 N148 1.356 . S
C141 C140 1.363 . S
C141 C147 1.363 1_655 S
C142 C143 1.363 . S
C142 C147 1.379 . S
C142 N149 1.356 . S
C143 C142 1.363 . S
C143 C146 1.363 1_455 S
N144 C146 1.356 1_455 S
N144 H156 0.984 1_455 S
N144 H157 0.985 . S
N145 C147 1.356 1_655 S
N145 H150 0.984 . S
N145 H151 0.985 1_655 S
C146 C140 1.379 . S
C146 C143 1.363 1_655 S
C146 N144 1.356 1_655 S
C147 C141 1.363 1_455 S
C147 C142 1.379 . S
C147 N145 1.356 1_455 S
N148 C140 1.356 . S
N148 H154 0.984 . S
N148 H155 0.984 . S
N149 C142 1.356 . S
N149 H152 0.984 . S
N149 H153 0.985 . S
H150 N145 0.984 . S
H151 N145 0.985 1_455 S
H152 N149 0.984 . S
H153 N149 0.985 . S
H154 N148 0.984 . S
H155 N148 0.984 . S
H156 N144 0.984 1_655 S
H157 N144 0.985 . S
C158 C159 1.363 . S
C158 C164 1.379 . S
C158 N166 1.356 . S
C159 C158 1.363 . S
C159 C165 1.363 1_545 S
C160 C161 1.363 . S
C160 C165 1.379 . S
C160 N167 1.356 . S
C161 C160 1.363 . S
C161 C164 1.363 1_565 S
N162 C164 1.356 1_565 S
N162 H174 0.984 1_565 S
N162 H175 0.985 . S
N163 C165 1.356 1_545 S
N163 H168 0.984 . S
N163 H169 0.985 1_545 S
C164 C158 1.379 . S
C164 C161 1.363 1_545 S
C164 N162 1.356 1_545 S
C165 C159 1.363 1_565 S
C165 C160 1.379 . S
C165 N163 1.356 1_565 S
N166 C158 1.356 . S
N166 H172 0.984 . S
N166 H173 0.984 . S
N167 C160 1.356 . S
N167 H170 0.984 . S
N167 H171 0.985 . S
H168 N163 0.984 . S
H169 N163 0.985 1_565 S
H170 N167 0.984 . S
H171 N167 0.985 . S
H172 N166 0.984 . S
H173 N166 0.984 . S
H174 N162 0.984 1_545 S
H175 N162 0.985 . S
C176 C177 1.363 . S
C176 C182 1.379 . S
C176 N184 1.356 . S
C177 C176 1.363 . S
C177 C183 1.363 . S
C178 C179 1.363 . S
C178 C183 1.379 . S
C178 N185 1.356 . S
C179 C178 1.363 . S
C179 C182 1.363 . S
N180 C182 1.356 . S
N180 H192 0.984 . S
N180 H193 0.985 . S
N181 C183 1.356 . S
N181 H186 0.984 . S
N181 H187 0.985 . S
C182 C176 1.379 . S
C182 C179 1.363 . S
C182 N180 1.356 . S
C183 C177 1.363 . S
C183 C178 1.379 . S
C183 N181 1.356 . S
N184 C176 1.356 . S
N184 H190 0.984 . S
N184 H191 0.984 . S
N185 C178 1.356 . S
N185 H188 0.984 . S
N185 H189 0.985 . S
H186 N181 0.984 . S
H187 N181 0.985 . S
H188 N185 0.984 . S
H189 N185 0.985 . S
H190 N184 0.984 . S
H191 N184 0.984 . S
H192 N180 0.984 . S
H193 N180 0.985 . S
C194 C195 1.363 . S
C194 C200 1.379 . S
C194 N202 1.356 . S
C195 C194 1.363 . S
C195 C201 1.363 . S
C196 C197 1.363 . S
C196 C201 1.379 . S
C196 N203 1.356 . S
C197 C196 1.363 . S
C197 C200 1.363 . S
N198 C200 1.356 . S
N198 H210 0.984 . S
N198 H211 0.985 . S
N199 C201 1.356 . S
N199 H204 0.984 . S
N199 H205 0.985 . S
C200 C194 1.379 . S
C200 C197 1.363 . S
C200 N198 1.356 . S
C201 C195 1.363 . S
C201 C196 1.379 . S
C201 N199 1.356 . S
N202 C194 1.356 . S
N202 H208 0.984 . S
N202 H209 0.984 . S
N203 C196 1.356 . S
N203 H206 0.984 1_455 S
N203 H207 0.985 1_455 S
H204 N199 0.984 . S
H205 N199 0.985 . S
H206 N203 0.984 1_655 S
H207 N203 0.985 1_655 S
H208 N202 0.984 . S
H209 N202 0.984 . S
H210 N198 0.984 . S
H211 N198 0.985 . S
C212 C213 1.363 . S
C212 C218 1.379 . S
C212 N220 1.356 . S
C213 C212 1.363 . S
C213 C219 1.363 . S
C214 C215 1.363 . S
C214 C219 1.379 . S
C214 N221 1.356 . S
C215 C214 1.363 . S
C215 C218 1.363 . S
N216 C218 1.356 . S
N216 H228 0.984 . S
N216 H229 0.985 . S
N217 C219 1.356 1_545 S
N217 H222 0.984 . S
N217 H223 0.985 . S
C218 C212 1.379 . S
C218 C215 1.363 . S
C218 N216 1.356 . S
C219 C213 1.363 . S
C219 C214 1.379 . S
C219 N217 1.356 1_565 S
N220 C212 1.356 . S
N220 H226 0.984 . S
N220 H227 0.984 . S
N221 C214 1.356 . S
N221 H224 0.984 . S
N221 H225 0.985 . S
H222 N217 0.984 . S
H223 N217 0.985 . S
H224 N221 0.984 . S
H225 N221 0.985 . S
H226 N220 0.984 . S
H227 N220 0.984 . S
H228 N216 0.984 . S
H229 N216 0.985 . S
C230 C231 1.363 . S
C230 C236 1.379 . S
C230 N238 1.356 . S
C231 C230 1.363 . S
C231 C237 1.363 . S
C232 C233 1.363 . S
C232 C237 1.379 . S
C232 N239 1.356 . S
C233 C232 1.363 . S
C233 C236 1.363 . S
N234 C236 1.356 . S
N234 H246 0.984 . S
N234 H247 0.985 1_655 S
N235 C237 1.356 . S
N235 H240 0.984 . S
N235 H241 0.985 . S
C236 C230 1.379 . S
C236 C233 1.363 . S
C236 N234 1.356 . S
C237 C231 1.363 . S
C237 C232 1.379 . S
C237 N235 1.356 . S
N238 C230 1.356 . S
N238 H244 0.984 . S
N238 H245 0.984 . S
N239 C232 1.356 . S
N239 H242 0.984 . S
N239 H243 0.985 . S
H240 N235 0.984 . S
H241 N235 0.985 . S
H242 N239 0.984 . S
H243 N239 0.985 . S
H244 N238 0.984 . S
H245 N238 0.984 . S
H246 N234 0.984 . S
H247 N234 0.985 1_455 S
C248 C249 1.363 1_554 S
C248 C254 1.379 . S
C248 N256 1.356 1_545 S
C249 C248 1.363 1_556 S
C249 C255 1.363 . S
C250 C251 1.363 1_556 S
C250 C255 1.379 . S
C250 N257 1.356 . S
C251 C250 1.363 1_554 S
C251 C254 1.363 . S
N252 C254 1.356 . S
N252 H264 0.984 . S
N252 H265 0.985 . S
N253 C255 1.356 . S
N253 H258 0.984 . S
N253 H259 0.985 . S
C254 C248 1.379 . S
C254 C251 1.363 . S
C254 N252 1.356 . S
C255 C249 1.363 . S
C255 C250 1.379 . S
C255 N253 1.356 . S
N256 C248 1.356 1_565 S
N256 H262 0.984 . S
N256 H263 0.984 1_554 S
N257 C250 1.356 . S
N257 H260 0.984 1_556 S
N257 H261 0.985 . S
H258 N253 0.984 . S
H259 N253 0.985 . S
H260 N257 0.984 1_554 S
H261 N257 0.985 . S
H262 N256 0.984 . S
H263 N256 0.984 1_556 S
H264 N252 0.984 . S
H265 N252 0.985 . S
C266 C267 1.363 . S
C266 C272 1.379 1_556 S
C266 N274 1.356 . S
C267 C266 1.363 . S
C267 C273 1.363 . S
C268 C269 1.363 . S
C268 C273 1.379 1_554 S
C268 N275 1.356 . S
C269 C268 1.363 . S
C269 C272 1.363 . S
N270 C272 1.356 . S
N270 H282 0.984 . S
N270 H283 0.985 . S
N271 C273 1.356 . S
N271 H276 0.984 . S
N271 H277 0.985 . S
C272 C266 1.379 1_554 S
C272 C269 1.363 . S
C272 N270 1.356 . S
C273 C267 1.363 . S
C273 C268 1.379 1_556 S
C273 N271 1.356 . S
N274 C266 1.356 . S
N274 H280 0.984 . S
N274 H281 0.984 . S
N275 C268 1.356 . S
N275 H278 0.984 1_455 S
N275 H279 0.985 1_455 S
H276 N271 0.984 . S
H277 N271 0.985 . S
H278 N275 0.984 1_655 S
H279 N275 0.985 1_655 S
H280 N274 0.984 . S
H281 N274 0.984 . S
H282 N270 0.984 . S
H283 N270 0.985 . S
C284 C285 1.363 . S
C284 C290 1.379 1_554 S
C284 N292 1.356 . S
C285 C284 1.363 . S
C285 C291 1.363 . S
C286 C287 1.363 . S
C286 C291 1.379 1_556 S
C286 N293 1.356 . S
C287 C286 1.363 . S
C287 C290 1.363 . S
N288 C290 1.356 1_545 S
N288 H300 0.984 . S
N288 H301 0.985 . S
N289 C291 1.356 . S
N289 H294 0.984 . S
N289 H295 0.985 . S
C290 C284 1.379 1_556 S
C290 C287 1.363 . S
C290 N288 1.356 1_565 S
C291 C285 1.363 . S
C291 C286 1.379 1_554 S
C291 N289 1.356 . S
N292 C284 1.356 . S
N292 H298 0.984 . S
N292 H299 0.984 . S
N293 C286 1.356 . S
N293 H296 0.984 . S
N293 H297 0.985 . S
H294 N289 0.984 . S
H295 N289 0.985 . S
H296 N293 0.984 . S
H297 N293 0.985 . S
H298 N292 0.984 . S
H299 N292 0.984 . S
H300 N288 0.984 . S
H301 N288 0.985 . S
C302 C303 1.363 . S
C302 C308 1.379 1_556 S
C302 N310 1.356 . S
C303 C302 1.363 . S
C303 C309 1.363 . S
C304 C305 1.363 . S
C304 C309 1.379 1_554 S
C304 N311 1.356 . S
C305 C304 1.363 . S
C305 C308 1.363 . S
N306 C308 1.356 . S
N306 H318 0.984 . S
N306 H319 0.985 . S
N307 C309 1.356 . S
N307 H312 0.984 . S
N307 H313 0.985 . S
C308 C302 1.379 1_554 S
C308 C305 1.363 . S
C308 N306 1.356 . S
C309 C303 1.363 . S
C309 C304 1.379 1_556 S
C309 N307 1.356 . S
N310 C302 1.356 . S
N310 H316 0.984 . S
N310 H317 0.984 . S
N311 C304 1.356 . S
N311 H314 0.984 1_655 S
N311 H315 0.985 1_655 S
H312 N307 0.984 . S
H313 N307 0.985 . S
H314 N311 0.984 1_455 S
H315 N311 0.985 1_455 S
H316 N310 0.984 . S
H317 N310 0.984 . S
H318 N306 0.984 . S
H319 N306 0.985 . S
C320 C321 1.363 . S
C320 C326 1.379 . S
C320 N328 1.356 . S
C321 C320 1.363 . S
C321 C327 1.363 . S
C322 C323 1.363 . S
C322 C327 1.379 . S
C322 N329 1.356 . S
C323 C322 1.363 . S
C323 C326 1.363 . S
N324 C326 1.356 . S
N324 H336 0.984 . S
N324 H337 0.985 . S
N325 C327 1.356 . S
N325 H330 0.984 . S
N325 H331 0.985 . S
C326 C320 1.379 . S
C326 C323 1.363 . S
C326 N324 1.356 . S
C327 C321 1.363 . S
C327 C322 1.379 . S
C327 N325 1.356 . S
N328 C320 1.356 . S
N328 H334 0.984 . S
N328 H335 0.984 . S
N329 C322 1.356 . S
N329 H332 0.984 . S
N329 H333 0.985 . S
H330 N325 0.984 . S
H331 N325 0.985 . S
H332 N329 0.984 . S
H333 N329 0.985 . S
H334 N328 0.984 . S
H335 N328 0.984 . S
H336 N324 0.984 . S
H337 N324 0.985 . S
C338 C339 1.363 . S
C338 C344 1.379 . S
C338 N346 1.356 . S
C339 C338 1.363 . S
C339 C345 1.363 . S
C340 C341 1.363 . S
C340 C345 1.379 . S
C340 N347 1.356 . S
C341 C340 1.363 . S
C341 C344 1.363 . S
N342 C344 1.356 . S
N342 H354 0.984 . S
N342 H355 0.985 . S
N343 C345 1.356 . S
N343 H348 0.984 . S
N343 H349 0.985 . S
C344 C338 1.379 . S
C344 C341 1.363 . S
C344 N342 1.356 . S
C345 C339 1.363 . S
C345 C340 1.379 . S
C345 N343 1.356 . S
N346 C338 1.356 . S
N346 H352 0.984 . S
N346 H353 0.984 . S
N347 C340 1.356 . S
N347 H350 0.984 . S
N347 H351 0.985 . S
H348 N343 0.984 . S
H349 N343 0.985 . S
H350 N347 0.984 . S
H351 N347 0.985 . S
H352 N346 0.984 . S
H353 N346 0.984 . S
H354 N342 0.984 . S
H355 N342 0.985 . S
C356 C357 1.363 . S
C356 C362 1.379 . S
C356 N364 1.356 . S
C357 C356 1.363 . S
C357 C363 1.363 . S
C358 C359 1.363 . S
C358 C363 1.379 . S
C358 N365 1.356 . S
C359 C358 1.363 . S
C359 C362 1.363 . S
N360 C362 1.356 . S
N360 H372 0.984 . S
N360 H373 0.985 . S
N361 C363 1.356 . S
N361 H366 0.984 . S
N361 H367 0.985 . S
C362 C356 1.379 . S
C362 C359 1.363 . S
C362 N360 1.356 . S
C363 C357 1.363 . S
C363 C358 1.379 . S
C363 N361 1.356 . S
N364 C356 1.356 . S
N364 H370 0.984 . S
N364 H371 0.984 . S
N365 C358 1.356 . S
N365 H368 0.984 . S
N365 H369 0.985 . S
H366 N361 0.984 . S
H367 N361 0.985 . S
H368 N365 0.984 . S
H369 N365 0.985 . S
H370 N364 0.984 . S
H371 N364 0.984 . S
H372 N360 0.984 . S
H373 N360 0.985 . S
C374 C375 1.363 . S
C374 C380 1.379 . S
C374 N382 1.356 . S
C375 C374 1.363 . S
C375 C381 1.363 . S
C376 C377 1.363 . S
C376 C381 1.379 . S
C376 N383 1.356 . S
C377 C376 1.363 . S
C377 C380 1.363 . S
N378 C380 1.356 . S
N378 H390 0.984 . S
N378 H391 0.985 . S
N379 C381 1.356 . S
N379 H384 0.984 . S
N379 H385 0.985 . S
C380 C374 1.379 . S
C380 C377 1.363 . S
C380 N378 1.356 . S
C381 C375 1.363 . S
C381 C376 1.379 . S
C381 N379 1.356 . S
N382 C374 1.356 . S
N382 H388 0.984 . S
N382 H389 0.984 . S
N383 C376 1.356 . S
N383 H386 0.984 . S
N383 H387 0.985 . S
H384 N379 0.984 . S
H385 N379 0.985 . S
H386 N383 0.984 . S
H387 N383 0.985 . S
H388 N382 0.984 . S
H389 N382 0.984 . S
H390 N378 0.984 . S
H391 N378 0.985 . S
C105 C36 1.646 . S
C107 C10 1.646 . S
C123 C49 1.646 . S
C125 C23 1.646 . S
C141 C56 1.646 . S
C143 C88 1.646 . S
C159 C75 1.646 . S
C161 C95 1.646 . S
C177 C18 1.271 . S
C179 C3 1.242 . S
C195 C16 1.242 . S
C197 C31 1.271 . S
C213 C44 1.271 . S
C215 C29 1.242 . S
C231 C42 1.242 . S
C233 C5 1.271 . S
C249 C94 1.271 . S
C251 C57 1.242 . S
C267 C68 1.242 . S
C269 C55 1.271 . S
C285 C81 1.242 . S
C287 C70 1.271 . S
C303 C96 1.242 . S
C305 C83 1.271 . S
C321 C4 1.695 . S
C323 C69 1.695 . S
C339 C82 1.694 . S
C341 C17 1.694 . S
C357 C30 1.695 . S
C359 C101 1.695 . S
C375 C43 1.694 . S
C377 C62 1.694 . S
