# Generated by pormake.
# Topology tzs, (4)-cn, num edge types: 1
# Building blocks:
#     Node 0, Type 0, BuildingBlock: ICAMEG_clean_sbu_1, # of connection points: 4
#     Node 1, Type 0, BuildingBlock: ICAMEG_clean_sbu_1, # of connection points: 4
#     Node 2, Type 0, BuildingBlock: ICAMEG_clean_sbu_1, # of connection points: 4
#     Node 3, Type 0, BuildingBlock: ICAMEG_clean_sbu_1, # of connection points: 4
#     Node 4, Type 0, BuildingBlock: ICAMEG_clean_sbu_1, # of connection points: 4
#     Node 5, Type 0, BuildingBlock: ICAMEG_clean_sbu_1, # of connection points: 4
#     Node 6, Type 0, BuildingBlock: ICAMEG_clean_sbu_1, # of connection points: 4
#     Node 7, Type 0, BuildingBlock: ICAMEG_clean_sbu_1, # of connection points: 4
#     Node 8, Type 0, BuildingBlock: ICAMEG_clean_sbu_1, # of connection points: 4
#     Node 9, Type 0, BuildingBlock: ICAMEG_clean_sbu_1, # of connection points: 4
#     Node 10, Type 0, BuildingBlock: ICAMEG_clean_sbu_1, # of connection points: 4
#     Node 11, Type 0, BuildingBlock: ICAMEG_clean_sbu_1, # of connection points: 4
#     Node 12, Type 0, BuildingBlock: ICAMEG_clean_sbu_1, # of connection points: 4
#     Node 13, Type 0, BuildingBlock: ICAMEG_clean_sbu_1, # of connection points: 4
#     Node 14, Type 0, BuildingBlock: ICAMEG_clean_sbu_1, # of connection points: 4
#     Node 15, Type 0, BuildingBlock: ICAMEG_clean_sbu_1, # of connection points: 4
#     Edge 16, Type (0, 0), BuildingBlock: AJUNOK_clean_linker_0, # of connection points: 2
#     Edge 17, Type (0, 0), BuildingBlock: AJUNOK_clean_linker_0, # of connection points: 2
#     Edge 18, Type (0, 0), BuildingBlock: AJUNOK_clean_linker_0, # of connection points: 2
#     Edge 19, Type (0, 0), BuildingBlock: AJUNOK_clean_linker_0, # of connection points: 2
#     Edge 20, Type (0, 0), BuildingBlock: AJUNOK_clean_linker_0, # of connection points: 2
#     Edge 21, Type (0, 0), BuildingBlock: AJUNOK_clean_linker_0, # of connection points: 2
#     Edge 22, Type (0, 0), BuildingBlock: AJUNOK_clean_linker_0, # of connection points: 2
#     Edge 23, Type (0, 0), BuildingBlock: AJUNOK_clean_linker_0, # of connection points: 2
#     Edge 24, Type (0, 0), BuildingBlock: AJUNOK_clean_linker_0, # of connection points: 2
#     Edge 25, Type (0, 0), BuildingBlock: AJUNOK_clean_linker_0, # of connection points: 2
#     Edge 26, Type (0, 0), BuildingBlock: AJUNOK_clean_linker_0, # of connection points: 2
#     Edge 27, Type (0, 0), BuildingBlock: AJUNOK_clean_linker_0, # of connection points: 2
#     Edge 28, Type (0, 0), BuildingBlock: AJUNOK_clean_linker_0, # of connection points: 2
#     Edge 29, Type (0, 0), BuildingBlock: AJUNOK_clean_linker_0, # of connection points: 2
#     Edge 30, Type (0, 0), BuildingBlock: AJUNOK_clean_linker_0, # of connection points: 2
#     Edge 31, Type (0, 0), BuildingBlock: AJUNOK_clean_linker_0, # of connection points: 2
#     Edge 32, Type (0, 0), BuildingBlock: AJUNOK_clean_linker_0, # of connection points: 2
#     Edge 33, Type (0, 0), BuildingBlock: AJUNOK_clean_linker_0, # of connection points: 2
#     Edge 34, Type (0, 0), BuildingBlock: AJUNOK_clean_linker_0, # of connection points: 2
#     Edge 35, Type (0, 0), BuildingBlock: AJUNOK_clean_linker_0, # of connection points: 2
#     Edge 36, Type (0, 0), BuildingBlock: AJUNOK_clean_linker_0, # of connection points: 2
#     Edge 37, Type (0, 0), BuildingBlock: AJUNOK_clean_linker_0, # of connection points: 2
#     Edge 38, Type (0, 0), BuildingBlock: AJUNOK_clean_linker_0, # of connection points: 2
#     Edge 39, Type (0, 0), BuildingBlock: AJUNOK_clean_linker_0, # of connection points: 2
#     Edge 40, Type (0, 0), BuildingBlock: AJUNOK_clean_linker_0, # of connection points: 2
#     Edge 41, Type (0, 0), BuildingBlock: AJUNOK_clean_linker_0, # of connection points: 2
#     Edge 42, Type (0, 0), BuildingBlock: AJUNOK_clean_linker_0, # of connection points: 2
#     Edge 43, Type (0, 0), BuildingBlock: AJUNOK_clean_linker_0, # of connection points: 2
#     Edge 44, Type (0, 0), BuildingBlock: AJUNOK_clean_linker_0, # of connection points: 2
#     Edge 45, Type (0, 0), BuildingBlock: AJUNOK_clean_linker_0, # of connection points: 2
#     Edge 46, Type (0, 0), BuildingBlock: AJUNOK_clean_linker_0, # of connection points: 2
#     Edge 47, Type (0, 0), BuildingBlock: AJUNOK_clean_linker_0, # of connection points: 2
# Relax obj value: 0.141
# Max RMSD: 0.170
# Mean RMSD: 0.170
data_MOF--net-tzs--node1-ICAMEG_clean_sbu_1--edge1-AJUNOK_clean_linker_0
_symmetry_space_group_name_H-M    P1
_symmetry_Int_Tables_number       1
_symmetry_cell_setting            triclinic
loop_
_symmetry_equiv_pos_as_xyz
'x, y, z'
_cell_length_a     37.238289
_cell_length_b     37.258748
_cell_length_c     33.552846
_cell_angle_alpha  90.040995
_cell_angle_beta   90.274524
_cell_angle_gamma 89.913738
loop_
_atom_site_label
_atom_site_type_symbol
_atom_site_fract_x
_atom_site_fract_y
_atom_site_fract_z
_atom_type_partial_charge
Co0 Co 0.12582 0.39381 0.16766 0.0
Co1 Co 0.1626 0.36077 0.2528 0.0
O2 O 0.15962 0.35983 0.19371 0.0
C3 C 0.13973 0.33969 0.10212 0.0
O4 O 0.16264 0.32045 0.12296 0.0
C5 C 0.23922 0.34035 0.22807 0.0
O6 O 0.23274 0.3447 0.18994 0.0
O7 O 0.17762 0.41217 0.24944 0.0
O8 O 0.13097 0.42826 0.21257 0.0
H9 H 0.14262 0.41838 0.38622 0.0
H10 H 0.19789 0.37203 0.13317 0.0
O11 O 0.11882 0.36177 0.1196 0.0
H12 H 0.19192 0.50289 0.11721 0.0
H13 H 0.06949 0.46283 0.05397 0.0
H14 H 0.06578 0.43824 0.19826 0.0
H15 H 0.14248 0.47053 0.14884 0.0
H16 H 0.11226 0.42051 0.0846 0.0
O17 O 0.2147 0.34623 0.25357 0.0
H18 H 0.1384 0.41332 0.31309 0.0
H19 H 0.19444 0.31398 0.31655 0.0
H20 H 0.02471 0.48275 0.16944 0.0
H21 H 0.24732 0.40309 0.1006 0.0
H22 H 0.0256 0.49498 0.09664 0.0
H23 H 0.24483 0.46923 0.09223 0.0
O24 O 0.0853 0.36971 0.1967 0.0
H25 H 0.16596 0.23179 0.20863 0.0
H26 H 0.11082 0.31797 0.30159 0.0
H27 H 0.09232 0.25459 0.3034 0.0
H28 H 0.12016 0.21088 0.25687 0.0
H29 H 0.18316 0.29554 0.20739 0.0
H30 H 0.1994 0.31803 0.38971 0.0
H31 H 0.17325 0.37044 0.42507 0.0
O32 O 0.11006 0.37417 0.25722 0.0
C33 C 0.15897 0.43634 0.23226 0.0
C34 C 0.15403 0.39534 0.37119 0.0
C35 C 0.18586 0.33901 0.37314 0.0
N36 N 0.16579 0.36322 0.31055 0.0
C37 C 0.15169 0.39231 0.32977 0.0
C38 C 0.18298 0.33689 0.33169 0.0
C39 C 0.17121 0.36844 0.39296 0.0
C40 C 0.19548 0.40032 0.12873 0.0
N41 N 0.16576 0.41862 0.14126 0.0
C42 C 0.22411 0.41804 0.11061 0.0
C43 C 0.22277 0.45512 0.10605 0.0
C44 C 0.1931 0.47397 0.11996 0.0
C45 C 0.16494 0.45528 0.13774 0.0
C46 C 0.06839 0.45747 0.08564 0.0
C47 C 0.06674 0.44344 0.16662 0.0
C48 C 0.09218 0.43302 0.10307 0.0
N49 N 0.09135 0.42644 0.14318 0.0
C50 C 0.04308 0.46855 0.15036 0.0
C51 C 0.04381 0.4755 0.10958 0.0
C52 C 0.08259 0.36943 0.23483 0.0
C53 C 0.15377 0.25053 0.22921 0.0
C54 C 0.12294 0.29926 0.28109 0.0
C55 C 0.11241 0.26333 0.28233 0.0
C56 C 0.12804 0.23882 0.25624 0.0
N57 N 0.14846 0.31054 0.25475 0.0
C58 C 0.16358 0.2867 0.2288 0.0
Co59 Co 0.60796 0.13564 0.18157 0.0
Co60 Co 0.66616 0.15337 0.25817 0.0
O61 O 0.65228 0.15906 0.20127 0.0
C62 C 0.65424 0.14017 0.10625 0.0
O63 O 0.68135 0.15539 0.12483 0.0
C64 C 0.68159 0.2328 0.24506 0.0
O65 O 0.65663 0.23621 0.21762 0.0
O66 O 0.61918 0.17443 0.27488 0.0
O67 O 0.58537 0.14103 0.23424 0.0
H68 H 0.64504 0.11889 0.40096 0.0
H69 H 0.63717 0.20212 0.14268 0.0
O70 O 0.62712 0.12918 0.12582 0.0
H71 H 0.51116 0.23011 0.1737 0.0
H72 H 0.50506 0.11261 0.08663 0.0
H73 H 0.55953 0.08056 0.21603 0.0
H74 H 0.53675 0.17134 0.19124 0.0
H75 H 0.56175 0.14058 0.10844 0.0
O76 O 0.68843 0.20242 0.26066 0.0
H77 H 0.62944 0.12531 0.32986 0.0
H78 H 0.73173 0.17049 0.3064 0.0
H79 H 0.50234 0.05287 0.19594 0.0
H80 H 0.61246 0.26078 0.12384 0.0
H81 H 0.47456 0.06897 0.13075 0.0
H82 H 0.54894 0.27531 0.13935 0.0
O83 O 0.6275 0.08769 0.19866 0.0
H84 H 0.77902 0.15021 0.17711 0.0
H85 H 0.70865 0.08803 0.28023 0.0
H86 H 0.76613 0.06202 0.25808 0.0
H87 H 0.80182 0.09325 0.20628 0.0
H88 H 0.72117 0.17508 0.19989 0.0
H89 H 0.74836 0.16496 0.3773 0.0
H90 H 0.70491 0.13889 0.42515 0.0
O91 O 0.6452 0.10347 0.26002 0.0
C92 C 0.58884 0.16278 0.26301 0.0
C93 C 0.66425 0.13022 0.38041 0.0
C94 C 0.72222 0.15607 0.36713 0.0
N95 N 0.67961 0.14803 0.31389 0.0
C96 C 0.65555 0.13383 0.34008 0.0
C97 C 0.7126 0.15918 0.327 0.0
C98 C 0.69783 0.14146 0.39396 0.0
C99 C 0.60936 0.20751 0.14861 0.0
N100 N 0.58832 0.18245 0.16683 0.0
C101 C 0.59555 0.24114 0.13828 0.0
C102 C 0.55997 0.24933 0.1471 0.0
C103 C 0.53877 0.224 0.16633 0.0
C104 C 0.5535 0.19067 0.17617 0.0
C105 C 0.51696 0.10527 0.11497 0.0
C106 C 0.54789 0.08755 0.18751 0.0
C107 C 0.54928 0.12074 0.12731 0.0
N108 N 0.56428 0.11201 0.16332 0.0
C109 C 0.51542 0.07174 0.17628 0.0
C110 C 0.49987 0.08075 0.13976 0.0
C111 C 0.63582 0.07961 0.2347 0.0
C112 C 0.76375 0.13638 0.19976 0.0
C113 C 0.72389 0.10166 0.25748 0.0
C114 C 0.75649 0.08686 0.24516 0.0
C115 C 0.77651 0.10441 0.21611 0.0
N116 N 0.71164 0.1331 0.24139 0.0
C117 C 0.73104 0.15038 0.21281 0.0
Co118 Co 0.89029 0.6055 0.16782 0.0
Co119 Co 0.86444 0.65981 0.24396 0.0
O120 O 0.86456 0.64824 0.18667 0.0
C121 C 0.88685 0.65465 0.09535 0.0
O122 O 0.87084 0.68037 0.11532 0.0
C123 C 0.78563 0.67231 0.25475 0.0
O124 O 0.78398 0.64304 0.27638 0.0
O125 O 0.8435 0.61147 0.25586 0.0
O126 O 0.88191 0.58069 0.21859 0.0
H127 H 0.88064 0.63255 0.38969 0.0
H128 H 0.82422 0.63496 0.12687 0.0
O129 O 0.89946 0.62731 0.11364 0.0
H130 H 0.79969 0.50662 0.14751 0.0
H131 H 0.92203 0.506 0.07221 0.0
H132 H 0.94248 0.55625 0.20634 0.0
H133 H 0.8566 0.53285 0.17046 0.0
H134 H 0.89285 0.56256 0.09232 0.0
O135 O 0.81499 0.6815 0.23807 0.0
H136 H 0.8819 0.61949 0.31775 0.0
H137 H 0.84485 0.72461 0.29189 0.0
H138 H 0.96869 0.49799 0.18917 0.0
H139 H 0.76747 0.60964 0.10284 0.0
H140 H 0.95951 0.47264 0.1212 0.0
H141 H 0.75468 0.54493 0.11298 0.0
O142 O 0.93623 0.62573 0.19084 0.0
H143 H 0.87388 0.77574 0.1683 0.0
H144 H 0.92648 0.70216 0.27591 0.0
H145 H 0.95385 0.76042 0.25934 0.0
H146 H 0.92744 0.79774 0.2053 0.0
H147 H 0.84761 0.71706 0.18551 0.0
H148 H 0.84265 0.73884 0.36356 0.0
H149 H 0.86084 0.69265 0.41309 0.0
O150 O 0.91456 0.63978 0.25123 0.0
C151 C 0.85767 0.58207 0.24478 0.0
C152 C 0.87265 0.65293 0.36844 0.0
C153 C 0.85131 0.71254 0.35378 0.0
N154 N 0.86351 0.67122 0.30052 0.0
C155 C 0.87335 0.64566 0.32761 0.0
C156 C 0.85244 0.70429 0.3132 0.0
C157 C 0.86153 0.68663 0.38154 0.0
C158 C 0.81983 0.60666 0.13034 0.0
N159 N 0.84506 0.58528 0.14821 0.0
C160 C 0.78717 0.59249 0.11711 0.0
C161 C 0.77994 0.55623 0.12294 0.0
C162 C 0.80518 0.53473 0.14222 0.0
C163 C 0.83756 0.54981 0.15496 0.0
C164 C 0.9268 0.51697 0.10164 0.0
C165 C 0.93798 0.54552 0.17681 0.0
C166 C 0.91093 0.5494 0.1129 0.0
N167 N 0.91636 0.56315 0.15023 0.0
C168 C 0.95329 0.51253 0.16707 0.0
C169 C 0.94782 0.49826 0.12913 0.0
C170 C 0.94096 0.63289 0.22805 0.0
C171 C 0.8856 0.75975 0.19196 0.0
C172 C 0.91497 0.71807 0.25213 0.0
C173 C 0.93051 0.75113 0.243 0.0
C174 C 0.91567 0.77207 0.2127 0.0
N175 N 0.88539 0.70621 0.23172 0.0
C176 C 0.87078 0.72655 0.2019 0.0
Co177 Co 0.39376 0.89887 0.1503 0.0
Co178 Co 0.35825 0.86194 0.23275 0.0
O179 O 0.35905 0.86597 0.17439 0.0
C180 C 0.33832 0.88697 0.08473 0.0
O181 O 0.31936 0.86418 0.10576 0.0
C182 C 0.35127 0.78252 0.24447 0.0
O183 O 0.38121 0.78223 0.26531 0.0
O184 O 0.40986 0.84601 0.23104 0.0
O185 O 0.42735 0.89315 0.19604 0.0
H186 H 0.41207 0.87654 0.36927 0.0
H187 H 0.37109 0.82729 0.11566 0.0
O188 O 0.36273 0.90588 0.10142 0.0
H189 H 0.50253 0.82985 0.10331 0.0
H190 H 0.46771 0.95353 0.04007 0.0
H191 H 0.43361 0.96195 0.18146 0.0
H192 H 0.47061 0.88038 0.13381 0.0
H193 H 0.42568 0.90983 0.0692 0.0
O194 O 0.34098 0.81113 0.22695 0.0
H195 H 0.40963 0.88219 0.29616 0.0
H196 H 0.30753 0.83174 0.2937 0.0
H197 H 0.4758 0.00564 0.1538 0.0
H198 H 0.4018 0.77685 0.08409 0.0
H199 H 0.49322 1.00194 0.08252 0.0
H200 H 0.46815 0.77765 0.07755 0.0
O201 O 0.36944 0.93923 0.17949 0.0
H202 H 0.2308 0.86196 0.18297 0.0
H203 H 0.31481 0.91426 0.28079 0.0
H204 H 0.25183 0.93441 0.2798 0.0
H205 H 0.20921 0.90805 0.23075 0.0
H206 H 0.29421 0.84297 0.18467 0.0
H207 H 0.30888 0.8253 0.36676 0.0
H208 H 0.36142 0.84789 0.40511 0.0
O209 O 0.37294 0.91384 0.23983 0.0
C210 C 0.43478 0.86532 0.21627 0.0
C211 C 0.38905 0.86648 0.35291 0.0
C212 C 0.33116 0.83775 0.35149 0.0
N213 N 0.35856 0.85709 0.29051 0.0
C214 C 0.38755 0.86954 0.31145 0.0
C215 C 0.33058 0.84133 0.31006 0.0
C216 C 0.36063 0.85044 0.37299 0.0
C217 C 0.39958 0.82909 0.11166 0.0
N218 N 0.41836 0.85849 0.12442 0.0
C219 C 0.41705 0.79984 0.09427 0.0
C220 C 0.45426 0.8002 0.09078 0.0
C221 C 0.47352 0.82948 0.10513 0.0
C222 C 0.45511 0.85826 0.12222 0.0
C223 C 0.4602 0.95566 0.0711 0.0
C224 C 0.44065 0.96007 0.15037 0.0
C225 C 0.43623 0.93111 0.08772 0.0
N226 N 0.42706 0.9332 0.12708 0.0
C227 C 0.46469 0.98502 0.13482 0.0
C228 C 0.47451 0.98279 0.0949 0.0
C229 C 0.36907 0.94161 0.21772 0.0
C230 C 0.24909 0.87364 0.2045 0.0
C231 C 0.29665 0.90297 0.25907 0.0
C232 C 0.2609 0.91434 0.25879 0.0
C233 C 0.237 0.89952 0.23129 0.0
N234 N 0.30834 0.87747 0.23281 0.0
C235 C 0.28505 0.86297 0.20565 0.0
Co236 Co 0.1393 0.60417 0.35476 0.0
Co237 Co 0.16307 0.66 0.27938 0.0
O238 O 0.16511 0.64699 0.33627 0.0
C239 C 0.14634 0.65153 0.42857 0.0
O240 O 0.16127 0.67767 0.40837 0.0
C241 C 0.24133 0.673 0.26484 0.0
O242 O 0.24198 0.64458 0.24173 0.0
O243 O 0.18358 0.61207 0.26552 0.0
O244 O 0.14553 0.58047 0.30247 0.0
H245 H 0.13828 0.63616 0.13446 0.0
H246 H 0.20738 0.63138 0.3929 0.0
O247 O 0.13266 0.6247 0.4102 0.0
H248 H 0.22678 0.50191 0.37318 0.0
H249 H 0.10734 0.50324 0.44837 0.0
H250 H 0.08317 0.55861 0.31757 0.0
H251 H 0.171 0.53048 0.34987 0.0
H252 H 0.1391 0.55818 0.42809 0.0
O253 O 0.21278 0.68133 0.28378 0.0
H254 H 0.1398 0.62196 0.2062 0.0
H255 H 0.18316 0.72474 0.23171 0.0
H256 H 0.05238 0.50286 0.33554 0.0
H257 H 0.26359 0.60398 0.41603 0.0
H258 H 0.06445 0.47446 0.40148 0.0
H259 H 0.27366 0.53864 0.40658 0.0
O260 O 0.09323 0.62609 0.33467 0.0
H261 H 0.15652 0.7743 0.35854 0.0
H262 H 0.10046 0.70355 0.25076 0.0
H263 H 0.07405 0.76175 0.26979 0.0
H264 H 0.10219 0.79764 0.32394 0.0
H265 H 0.18185 0.71575 0.33883 0.0
H266 H 0.18254 0.74 0.16024 0.0
H267 H 0.15985 0.69553 0.11103 0.0
O268 O 0.11264 0.64038 0.27358 0.0
C269 C 0.16968 0.58246 0.27609 0.0
C270 C 0.1483 0.65574 0.15559 0.0
C271 C 0.17317 0.71399 0.17005 0.0
N272 N 0.16183 0.6724 0.22315 0.0
C273 C 0.14924 0.64784 0.19627 0.0
C274 C 0.17366 0.70515 0.21049 0.0
C275 C 0.16041 0.68905 0.14246 0.0
C276 C 0.21084 0.60292 0.38928 0.0
N277 N 0.18464 0.58244 0.37194 0.0
C278 C 0.24312 0.58754 0.40212 0.0
C279 C 0.24881 0.55093 0.39671 0.0
C280 C 0.22253 0.53032 0.37801 0.0
C281 C 0.19079 0.5467 0.36514 0.0
C282 C 0.10163 0.51543 0.41976 0.0
C283 C 0.0884 0.54683 0.34643 0.0
C284 C 0.11905 0.54696 0.40845 0.0
N285 N 0.11263 0.56211 0.37201 0.0
C286 C 0.07076 0.51514 0.35652 0.0
C287 C 0.07754 0.49931 0.39342 0.0
C288 C 0.0871 0.6337 0.2979 0.0
C289 C 0.14404 0.75894 0.33486 0.0
C290 C 0.11275 0.71886 0.27455 0.0
C291 C 0.09773 0.75187 0.28509 0.0
C292 C 0.11354 0.772 0.31546 0.0
N293 N 0.14273 0.70626 0.29366 0.0
C294 C 0.15831 0.72581 0.32352 0.0
Co295 Co 0.39105 0.13 0.358 0.0
Co296 Co 0.36717 0.16392 0.268 0.0
O297 O 0.36264 0.16528 0.32691 0.0
C298 C 0.33788 0.15502 0.41962 0.0
O299 O 0.3238 0.18131 0.39871 0.0
C300 C 0.34783 0.24183 0.28642 0.0
O301 O 0.35201 0.23683 0.32477 0.0
O302 O 0.4194 0.17516 0.2754 0.0
O303 O 0.42906 0.12936 0.31645 0.0
H304 H 0.43092 0.12936 0.14206 0.0
H305 H 0.37777 0.20771 0.38286 0.0
O306 O 0.35456 0.12938 0.40238 0.0
H307 H 0.50379 0.18394 0.41678 0.0
H308 H 0.44026 0.07009 0.48164 0.0
H309 H 0.42976 0.06337 0.33543 0.0
H310 H 0.46734 0.13753 0.38476 0.0
H311 H 0.40942 0.11784 0.44417 0.0
O312 O 0.35548 0.21666 0.26216 0.0
H313 H 0.42112 0.13118 0.21463 0.0
H314 H 0.32709 0.19413 0.19783 0.0
H315 H 0.46261 0.01627 0.37134 0.0
H316 H 0.41282 0.25451 0.41545 0.0
H317 H 0.46772 0.01887 0.44522 0.0
H318 H 0.4766 0.24301 0.43305 0.0
O319 O 0.36482 0.09061 0.32922 0.0
H320 H 0.23618 0.17655 0.30178 0.0
H321 H 0.324 0.1128 0.21811 0.0
H322 H 0.25981 0.09809 0.21192 0.0
H323 H 0.21528 0.1303 0.2537 0.0
H324 H 0.30063 0.18989 0.30757 0.0
H325 H 0.33607 0.1933 0.1251 0.0
H326 H 0.3882 0.16056 0.09673 0.0
O327 O 0.37719 0.11071 0.26838 0.0
C328 C 0.44076 0.15528 0.29561 0.0
C329 C 0.40809 0.14369 0.15405 0.0
C330 C 0.35491 0.17964 0.14454 0.0
N331 N 0.37358 0.16279 0.21055 0.0
C332 C 0.40238 0.14481 0.19514 0.0
C333 C 0.35007 0.18021 0.18579 0.0
C334 C 0.38413 0.16124 0.12864 0.0
C335 C 0.40453 0.20139 0.39166 0.0
N336 N 0.41885 0.16824 0.38449 0.0
C337 C 0.42476 0.22854 0.40963 0.0
C338 C 0.46054 0.22216 0.41933 0.0
C339 C 0.47572 0.18904 0.41036 0.0
C340 C 0.45457 0.16255 0.39254 0.0
C341 C 0.43819 0.06842 0.44954 0.0
C342 C 0.43211 0.06514 0.36745 0.0
C343 C 0.42025 0.09519 0.42818 0.0
N344 N 0.41739 0.09338 0.38756 0.0
C345 C 0.45064 0.03814 0.38774 0.0
C346 C 0.45355 0.03973 0.4291 0.0
C347 C 0.36824 0.08526 0.29174 0.0
C348 C 0.25528 0.16253 0.28317 0.0
C349 C 0.30494 0.12689 0.23652 0.0
C350 C 0.26854 0.11847 0.23282 0.0
C351 C 0.24358 0.13653 0.25625 0.0
N352 N 0.31626 0.15278 0.26262 0.0
C353 C 0.29191 0.17018 0.28611 0.0
Co354 Co 0.89184 0.39791 0.36511 0.0
Co355 Co 0.85957 0.35905 0.28078 0.0
O356 O 0.85731 0.36437 0.33952 0.0
C357 C 0.86561 0.35004 0.43265 0.0
O358 O 0.84635 0.32982 0.40874 0.0
C359 C 0.7817 0.34149 0.30078 0.0
O360 O 0.78656 0.34915 0.33854 0.0
O361 O 0.84846 0.41163 0.27671 0.0
O362 O 0.89434 0.42695 0.31532 0.0
H363 H 0.89812 0.39977 0.14492 0.0
H364 H 0.81522 0.3873 0.3904 0.0
O365 O 0.88866 0.37208 0.41852 0.0
H366 H 0.83375 0.51794 0.39226 0.0
H367 H 0.95108 0.47002 0.47561 0.0
H368 H 0.95881 0.43116 0.33567 0.0
H369 H 0.88308 0.47753 0.37443 0.0
H370 H 0.9049 0.43104 0.44658 0.0
O371 O 0.80672 0.34724 0.27583 0.0
H372 H 0.89497 0.40208 0.21825 0.0
H373 H 0.82837 0.30958 0.21908 0.0
H374 H 1.00564 0.46974 0.36338 0.0
H375 H 0.76495 0.4268 0.4074 0.0
H376 H 1.0021 0.49006 0.4339 0.0
H377 H 0.77396 0.49279 0.40889 0.0
O378 O 0.93205 0.36682 0.34439 0.0
H379 H 0.84675 0.2354 0.33992 0.0
H380 H 0.91142 0.30897 0.24171 0.0
H381 H 0.92619 0.24486 0.24831 0.0
H382 H 0.89355 0.20745 0.29747 0.0
H383 H 0.83326 0.29961 0.33282 0.0
H384 H 0.83051 0.30652 0.14575 0.0
H385 H 0.86573 0.35171 0.10816 0.0
O386 O 0.9129 0.3684 0.2812 0.0
C387 C 0.86861 0.43561 0.29224 0.0
C388 C 0.88275 0.37986 0.16096 0.0
C389 C 0.84477 0.32757 0.16143 0.0
N390 N 0.86169 0.35591 0.22302 0.0
C391 C 0.88092 0.38099 0.20251 0.0
C392 C 0.84355 0.32953 0.20297 0.0
C393 C 0.86455 0.35292 0.14036 0.0
C394 C 0.81968 0.41572 0.39063 0.0
N395 N 0.85279 0.42952 0.38227 0.0
C396 C 0.79093 0.43812 0.40047 0.0
C397 C 0.796 0.47511 0.40136 0.0
C398 C 0.82954 0.4892 0.39222 0.0
C399 C 0.85762 0.46596 0.38252 0.0
C400 C 0.9529 0.46166 0.44479 0.0
C401 C 0.95665 0.43966 0.36629 0.0
C402 C 0.92658 0.4395 0.4281 0.0
N403 N 0.92815 0.42925 0.38901 0.0
C404 C 0.98353 0.46162 0.38193 0.0
C405 C 0.98152 0.47287 0.42141 0.0
C406 C 0.93814 0.36426 0.30678 0.0
C407 C 0.86089 0.25132 0.31807 0.0
C408 C 0.89694 0.29299 0.26312 0.0
C409 C 0.90549 0.25663 0.26673 0.0
C410 C 0.8872 0.23567 0.29432 0.0
N411 N 0.87063 0.30811 0.28603 0.0
C412 C 0.8531 0.28778 0.31365 0.0
Co413 Co 0.59507 0.87944 0.35125 0.0
Co414 Co 0.65581 0.85579 0.28077 0.0
O415 O 0.63905 0.85377 0.33622 0.0
C416 C 0.64014 0.8747 0.42723 0.0
O417 O 0.66857 0.86495 0.40694 0.0
C418 C 0.67155 0.7787 0.26474 0.0
O419 O 0.64637 0.77908 0.23723 0.0
O420 O 0.60859 0.8355 0.26253 0.0
O421 O 0.57521 0.87407 0.29698 0.0
H422 H 0.64186 0.87722 0.13354 0.0
H423 H 0.6196 0.81337 0.39426 0.0
O424 O 0.61173 0.8849 0.40876 0.0
H425 H 0.49527 0.78786 0.35244 0.0
H426 H 0.48436 0.90611 0.43246 0.0
H427 H 0.55387 0.93888 0.31334 0.0
H428 H 0.52329 0.84568 0.33605 0.0
H429 H 0.5405 0.87461 0.41638 0.0
O430 O 0.67676 0.80623 0.28671 0.0
H431 H 0.62236 0.87569 0.20354 0.0
H432 H 0.72481 0.83777 0.23966 0.0
H433 H 0.49723 0.97038 0.32742 0.0
H434 H 0.59234 0.7556 0.41191 0.0
H435 H 0.46172 0.95366 0.38723 0.0
H436 H 0.52969 0.74238 0.39102 0.0
O437 O 0.61831 0.92581 0.33374 0.0
H438 H 0.76509 0.86129 0.36906 0.0
H439 H 0.70069 0.91891 0.25738 0.0
H440 H 0.75736 0.94517 0.28177 0.0
H441 H 0.79008 0.91624 0.3379 0.0
H442 H 0.70803 0.83617 0.3441 0.0
H443 H 0.7455 0.83841 0.17007 0.0
H444 H 0.70393 0.85842 0.11636 0.0
O445 O 0.63658 0.90616 0.27386 0.0
C446 C 0.57842 0.84978 0.27079 0.0
C447 C 0.66027 0.86849 0.15665 0.0
C448 C 0.7184 0.84671 0.17714 0.0
N449 N 0.67236 0.85689 0.22583 0.0
C450 C 0.64934 0.86765 0.19639 0.0
C451 C 0.7065 0.84632 0.21655 0.0
C452 C 0.69508 0.85794 0.14703 0.0
C453 C 0.59211 0.80845 0.3858 0.0
N454 N 0.57282 0.83373 0.36532 0.0
C455 C 0.57689 0.77538 0.39556 0.0
C456 C 0.54178 0.76793 0.38374 0.0
C457 C 0.52247 0.79342 0.36214 0.0
C458 C 0.53856 0.82619 0.35294 0.0
C459 C 0.49977 0.91393 0.40662 0.0
C460 C 0.53922 0.93205 0.33996 0.0
C461 C 0.5321 0.89667 0.39792 0.0
N462 N 0.55148 0.9057 0.36495 0.0
C463 C 0.50694 0.94988 0.34764 0.0
C464 C 0.48709 0.94061 0.38118 0.0
C465 C 0.62834 0.93179 0.29764 0.0
C466 C 0.7511 0.87413 0.34456 0.0
C467 C 0.71452 0.90633 0.28209 0.0
C468 C 0.74673 0.92124 0.29564 0.0
C469 C 0.76509 0.90498 0.3271 0.0
N470 N 0.70097 0.87601 0.29935 0.0
C471 C 0.71882 0.85997 0.33024 0.0
Co472 Co 0.90422 0.63054 0.84639 0.0
Co473 Co 0.84509 0.65274 0.77216 0.0
O474 O 0.86105 0.65745 0.82853 0.0
C475 C 0.86124 0.6395 0.92348 0.0
O476 O 0.83503 0.65719 0.90597 0.0
C477 C 0.82524 0.73085 0.79247 0.0
O478 O 0.84044 0.73004 0.82782 0.0
O479 O 0.89285 0.67074 0.75419 0.0
O480 O 0.92539 0.6341 0.79263 0.0
H481 H 0.86097 0.61566 0.62929 0.0
H482 H 0.88144 0.69978 0.88489 0.0
O483 O 0.88645 0.62576 0.90286 0.0
H484 H 0.00979 0.71477 0.85508 0.0
H485 H 0.00613 0.59585 0.93863 0.0
H486 H 0.94725 0.57225 0.80941 0.0
H487 H 0.97824 0.65958 0.83546 0.0
H488 H 0.9528 0.63059 0.91809 0.0
O489 O 0.82601 0.70335 0.76991 0.0
H490 H 0.87851 0.62167 0.69992 0.0
H491 H 0.78002 0.6745 0.72524 0.0
H492 H 1.00093 0.53769 0.82832 0.0
H493 H 0.91169 0.7556 0.90414 0.0
H494 H 0.03066 0.54902 0.89354 0.0
H495 H 0.97652 0.76344 0.88957 0.0
O496 O 0.88041 0.58445 0.83044 0.0
H497 H 0.73506 0.65423 0.85851 0.0
H498 H 0.79738 0.59157 0.74936 0.0
H499 H 0.7391 0.56879 0.77274 0.0
H500 H 0.7074 0.60029 0.82758 0.0
H501 H 0.79357 0.6758 0.83453 0.0
H502 H 0.76162 0.66938 0.6548 0.0
H503 H 0.80215 0.63963 0.6063 0.0
O504 O 0.86247 0.6015 0.76975 0.0
C505 C 0.92261 0.6566 0.76446 0.0
C506 C 0.84304 0.6286 0.65015 0.0
C507 C 0.7873 0.65878 0.66446 0.0
N508 N 0.83026 0.64821 0.71679 0.0
C509 C 0.85279 0.63202 0.69022 0.0
C510 C 0.79793 0.66168 0.70431 0.0
C511 C 0.81005 0.64208 0.63727 0.0
C512 C 0.90957 0.70248 0.87873 0.0
N513 N 0.92809 0.67551 0.86036 0.0
C514 C 0.92661 0.73445 0.88951 0.0
C515 C 0.96294 0.73888 0.88125 0.0
C516 C 0.98159 0.71161 0.8619 0.0
C517 C 0.96353 0.68025 0.85105 0.0
C518 C 0.99323 0.59037 0.9103 0.0
C519 C 0.95988 0.57749 0.83786 0.0
C520 C 0.96278 0.60973 0.89867 0.0
N521 N 0.94639 0.60315 0.86283 0.0
C522 C 0.99033 0.55771 0.84844 0.0
C523 C 0.00702 0.56416 0.88498 0.0
C524 C 0.87059 0.57696 0.79477 0.0
C525 C 0.74851 0.64038 0.83444 0.0
C526 C 0.78386 0.60541 0.7733 0.0
C527 C 0.7508 0.5924 0.78637 0.0
C528 C 0.73303 0.61009 0.81712 0.0
N529 N 0.79875 0.63535 0.79019 0.0
C530 C 0.78161 0.65261 0.82058 0.0
Co531 Co 0.36586 0.91019 0.83429 0.0
Co532 Co 0.34003 0.85244 0.76096 0.0
O533 O 0.33665 0.86841 0.8173 0.0
C534 C 0.3547 0.86835 0.91201 0.0
O535 O 0.3387 0.84156 0.89373 0.0
C536 C 0.26172 0.83432 0.78206 0.0
O537 O 0.26395 0.84661 0.81867 0.0
O538 O 0.32439 0.90141 0.74287 0.0
O539 O 0.36475 0.93006 0.77997 0.0
H540 H 0.37166 0.8683 0.61653 0.0
H541 H 0.29617 0.89247 0.8737 0.0
O542 O 0.3684 0.89389 0.89178 0.0
H543 H 0.2843 0.01853 0.83167 0.0
H544 H 0.4015 0.01733 0.91818 0.0
H545 H 0.42974 0.94547 0.79908 0.0
H546 H 0.33982 0.98492 0.8182 0.0
H547 H 0.36424 0.96518 0.89993 0.0
O548 O 0.28856 0.83609 0.75881 0.0
H549 H 0.36871 0.88556 0.68734 0.0
H550 H 0.31608 0.78778 0.71504 0.0
H551 H 0.46697 0.99769 0.81551 0.0
H552 H 0.24051 0.92521 0.88829 0.0
H553 H 0.45329 0.03406 0.87571 0.0
H554 H 0.23416 0.9888 0.86727 0.0
O555 O 0.41062 0.88283 0.81987 0.0
H556 H 0.33513 0.74227 0.84771 0.0
H557 H 0.39842 0.80185 0.73739 0.0
H558 H 0.41895 0.74248 0.76035 0.0
H559 H 0.38708 0.71211 0.81574 0.0
H560 H 0.31587 0.8018 0.82424 0.0
H561 H 0.31818 0.76955 0.64449 0.0
H562 H 0.34632 0.80984 0.59467 0.0
O563 O 0.39226 0.86689 0.75879 0.0
C564 C 0.34131 0.92979 0.75257 0.0
C565 C 0.35953 0.85039 0.63797 0.0
C566 C 0.32957 0.79497 0.65367 0.0
N567 N 0.34294 0.83749 0.70552 0.0
C568 C 0.3579 0.86 0.67816 0.0
C569 C 0.3285 0.80546 0.69362 0.0
C570 C 0.3453 0.81761 0.62573 0.0
C571 C 0.29416 0.9202 0.86507 0.0
N572 N 0.32192 0.9368 0.84604 0.0
C573 C 0.2623 0.9386 0.87314 0.0
C574 C 0.25871 0.97424 0.86126 0.0
C575 C 0.28682 0.99093 0.84134 0.0
C576 C 0.31825 0.97166 0.83376 0.0
C577 C 0.40818 1.00137 0.89229 0.0
C578 C 0.42373 0.9606 0.82566 0.0
C579 C 0.3875 0.97141 0.88219 0.0
N580 N 0.39547 0.95121 0.84938 0.0
C581 C 0.44492 0.9904 0.83473 0.0
C582 C 0.43715 0.01081 0.86839 0.0
C583 C 0.41742 0.87258 0.78413 0.0
C584 C 0.34906 0.75508 0.82333 0.0
C585 C 0.38437 0.78891 0.76154 0.0
C586 C 0.39613 0.75523 0.77438 0.0
C587 C 0.37825 0.73821 0.80544 0.0
N588 N 0.35541 0.80517 0.7789 0.0
C589 C 0.33807 0.78878 0.80969 0.0
Co590 Co 0.10556 0.37572 0.85708 0.0
Co591 Co 0.16032 0.34435 0.78435 0.0
O592 O 0.1462 0.34538 0.84072 0.0
C593 C 0.15316 0.36731 0.93047 0.0
O594 O 0.17863 0.35236 0.90928 0.0
C595 C 0.17095 0.26544 0.77169 0.0
O596 O 0.14395 0.26565 0.74639 0.0
O597 O 0.11126 0.32648 0.77086 0.0
O598 O 0.082 0.36942 0.80405 0.0
H599 H 0.13827 0.36181 0.63779 0.0
H600 H 0.1259 0.30747 0.89915 0.0
O601 O 0.12616 0.38181 0.91296 0.0
H602 H 0.99544 0.29921 0.87625 0.0
H603 H 0.0101 0.42425 0.94919 0.0
H604 H 0.06552 0.43435 0.81659 0.0
H605 H 0.02934 0.35119 0.85168 0.0
H606 H 0.0594 0.38381 0.92963 0.0
O607 O 0.17872 0.29375 0.79146 0.0
H608 H 0.12345 0.36442 0.70921 0.0
H609 H 0.22522 0.32028 0.73888 0.0
H610 H 0.01552 0.47438 0.83428 0.0
H611 H 0.09309 0.25491 0.92368 0.0
H612 H 0.98769 0.46994 0.90121 0.0
H613 H 0.02727 0.25051 0.9126 0.0
O614 O 0.13182 0.4188 0.8359 0.0
H615 H 0.27419 0.34639 0.86526 0.0
H616 H 0.20805 0.40296 0.75419 0.0
H617 H 0.26755 0.42626 0.77334 0.0
H618 H 0.30115 0.39784 0.82916 0.0
H619 H 0.21438 0.3242 0.8454 0.0
H620 H 0.24111 0.3169 0.6678 0.0
H621 H 0.19749 0.3379 0.61662 0.0
O622 O 0.14396 0.39562 0.77592 0.0
C623 C 0.08266 0.3436 0.77924 0.0
C624 C 0.15749 0.3525 0.65977 0.0
C625 C 0.21519 0.32732 0.67662 0.0
N626 N 0.17338 0.34239 0.72832 0.0
C627 C 0.14922 0.35386 0.70031 0.0
C628 C 0.206 0.32916 0.71687 0.0
C629 C 0.19072 0.3391 0.64793 0.0
C630 C 0.09728 0.30633 0.89466 0.0
N631 N 0.07952 0.33349 0.87551 0.0
C632 C 0.07882 0.2762 0.90839 0.0
C633 C 0.04191 0.27369 0.90209 0.0
C634 C 0.02405 0.30101 0.88176 0.0
C635 C 0.04344 0.33055 0.86812 0.0
C636 C 0.0223 0.42681 0.92012 0.0
C637 C 0.05366 0.43207 0.84578 0.0
C638 C 0.05061 0.40429 0.90913 0.0
N639 N 0.06601 0.40709 0.87236 0.0
C640 C 0.0253 0.45493 0.85565 0.0
C641 C 0.00965 0.45235 0.89316 0.0
C642 C 0.13959 0.42273 0.7989 0.0
C643 C 0.25983 0.35901 0.84088 0.0
C644 C 0.22227 0.39066 0.77878 0.0
C645 C 0.25607 0.40387 0.78936 0.0
C646 C 0.27492 0.38789 0.82064 0.0
N647 N 0.20762 0.36228 0.79876 0.0
C648 C 0.22596 0.34652 0.82947 0.0
Co649 Co 0.62696 0.10946 0.85917 0.0
Co650 Co 0.66456 0.1604 0.78652 0.0
O651 O 0.66074 0.14726 0.84317 0.0
C652 C 0.63653 0.15615 0.93308 0.0
O653 O 0.65679 0.17912 0.91388 0.0
C654 C 0.74286 0.16417 0.77226 0.0
O655 O 0.73784 0.13938 0.74495 0.0
O656 O 0.6781 0.10966 0.77411 0.0
O657 O 0.63277 0.08486 0.80734 0.0
H658 H 0.64845 0.13997 0.63943 0.0
H659 H 0.69546 0.12502 0.90408 0.0
O660 O 0.6202 0.13128 0.91401 0.0
H661 H 0.69668 0.99479 0.87941 0.0
H662 H 0.57035 0.01891 0.95133 0.0
H663 H 0.56614 0.07365 0.8177 0.0
H664 H 0.64652 0.03187 0.85516 0.0
H665 H 0.61461 0.06484 0.93209 0.0
O666 O 0.71673 0.17319 0.7948 0.0
H667 H 0.64312 0.12538 0.71079 0.0
H668 H 0.69622 0.22232 0.74176 0.0
H669 H 0.52195 0.02752 0.83537 0.0
H670 H 0.74564 0.08887 0.92939 0.0
H671 H 0.52357 0.99984 0.9027 0.0
H672 H 0.74664 0.02315 0.91721 0.0
O673 O 0.58638 0.13832 0.8354 0.0
H674 H 0.6722 0.27446 0.86598 0.0
H675 H 0.61104 0.21327 0.75444 0.0
H676 H 0.59331 0.27495 0.77225 0.0
H677 H 0.62409 0.30606 0.82827 0.0
H678 H 0.68878 0.21256 0.84749 0.0
H679 H 0.70215 0.23797 0.67075 0.0
H680 H 0.6781 0.19668 0.61898 0.0
O681 O 0.61218 0.14896 0.77645 0.0
C682 C 0.65905 0.08266 0.78354 0.0
C683 C 0.65896 0.15824 0.66169 0.0
C684 C 0.68902 0.21326 0.67927 0.0
N685 N 0.66893 0.17309 0.7305 0.0
C686 C 0.65598 0.15011 0.70217 0.0
C687 C 0.68548 0.20428 0.71946 0.0
C688 C 0.67558 0.19006 0.65025 0.0
C689 C 0.6948 0.09647 0.89955 0.0
N690 N 0.66684 0.08064 0.87972 0.0
C691 C 0.72372 0.07608 0.91358 0.0
C692 C 0.72434 0.03924 0.90663 0.0
C693 C 0.6963 0.02332 0.88552 0.0
C694 C 0.66781 0.04454 0.87203 0.0
C695 C 0.5691 0.03097 0.92202 0.0
C696 C 0.5671 0.06198 0.84714 0.0
C697 C 0.59387 0.05729 0.91112 0.0
N698 N 0.5926 0.07257 0.87411 0.0
C699 C 0.54194 0.03574 0.85696 0.0
C700 C 0.54292 0.02023 0.89471 0.0
C701 C 0.58411 0.1459 0.79809 0.0
C702 C 0.65862 0.26122 0.84147 0.0
C703 C 0.62435 0.22645 0.7791 0.0
C704 C 0.6143 0.26147 0.78893 0.0
C705 C 0.6316 0.27892 0.82033 0.0
N706 N 0.65099 0.2093 0.79989 0.0
C707 C 0.66796 0.2262 0.83081 0.0
Co708 Co 0.88946 0.38033 0.66379 0.0
Co709 Co 0.86382 0.3534 0.75521 0.0
O710 O 0.85704 0.35181 0.69716 0.0
C711 C 0.83388 0.36041 0.60283 0.0
O712 O 0.81932 0.33411 0.623 0.0
C713 C 0.85246 0.2731 0.74751 0.0
O714 O 0.88156 0.26923 0.72599 0.0
O715 O 0.91334 0.33417 0.74732 0.0
O716 O 0.92934 0.37596 0.7034 0.0
H717 H 0.93569 0.37584 0.87979 0.0
H718 H 0.86544 0.30229 0.65377 0.0
O719 O 0.85125 0.38521 0.62091 0.0
H720 H 0.98728 0.30664 0.59903 0.0
H721 H 0.93825 0.42879 0.53466 0.0
H722 H 0.93904 0.44093 0.68103 0.0
H723 H 0.96114 0.35988 0.63004 0.0
H724 H 0.90506 0.38625 0.57642 0.0
O725 O 0.84315 0.30396 0.76001 0.0
H726 H 0.92396 0.37603 0.80746 0.0
H727 H 0.821 0.33029 0.82598 0.0
H728 H 0.97333 0.48382 0.64032 0.0
H729 H 0.89038 0.24887 0.62272 0.0
H730 H 0.97253 0.47821 0.56642 0.0
H731 H 0.95174 0.25052 0.59432 0.0
O732 O 0.87106 0.42444 0.69201 0.0
H733 H 0.73132 0.35927 0.72715 0.0
H734 H 0.83143 0.41315 0.80291 0.0
H735 H 0.7705 0.43824 0.80978 0.0
H736 H 0.71988 0.41116 0.77186 0.0
H737 H 0.79282 0.33528 0.72078 0.0
H738 H 0.83166 0.32943 0.89857 0.0
H739 H 0.88929 0.35247 0.92594 0.0
O740 O 0.88251 0.4041 0.75331 0.0
C741 C 0.9373 0.35031 0.72698 0.0
C742 C 0.91041 0.36583 0.86826 0.0
C743 C 0.85204 0.33977 0.87878 0.0
N744 N 0.87168 0.35354 0.81247 0.0
C745 C 0.90358 0.36592 0.8273 0.0
C746 C 0.84618 0.34026 0.83763 0.0
C747 C 0.88438 0.3527 0.89412 0.0
C748 C 0.89093 0.30479 0.63929 0.0
N749 N 0.90929 0.33664 0.63887 0.0
C750 C 0.90551 0.27366 0.62265 0.0
C751 C 0.94 0.27449 0.60703 0.0
C752 C 0.95983 0.306 0.60944 0.0
C753 C 0.94431 0.33657 0.62628 0.0
C754 C 0.93861 0.4317 0.56676 0.0
C755 C 0.939 0.43798 0.649 0.0
C756 C 0.91948 0.40785 0.5906 0.0
N757 N 0.91967 0.41118 0.63122 0.0
C758 C 0.95843 0.46242 0.62607 0.0
C759 C 0.958 0.4593 0.58466 0.0
C760 C 0.87594 0.43 0.72942 0.0
C761 C 0.75315 0.37126 0.74388 0.0
C762 C 0.80961 0.40133 0.78612 0.0
C763 C 0.77513 0.4156 0.79023 0.0
C764 C 0.74675 0.40039 0.76895 0.0
N765 N 0.81568 0.37269 0.76153 0.0
C766 C 0.788 0.35774 0.74046 0.0
Co767 Co 0.61612 0.8951 0.66635 0.0
Co768 Co 0.64472 0.86031 0.75424 0.0
O769 O 0.64775 0.86102 0.69511 0.0
C770 C 0.63502 0.84351 0.59842 0.0
O771 O 0.66095 0.82649 0.61715 0.0
C772 C 0.72189 0.83719 0.73634 0.0
O773 O 0.71765 0.84272 0.69804 0.0
O774 O 0.65993 0.91182 0.75409 0.0
O775 O 0.61673 0.92883 0.7124 0.0
H776 H 0.611 0.91394 0.88628 0.0
H777 H 0.69184 0.87618 0.64069 0.0
O778 O 0.61347 0.86395 0.61729 0.0
H779 H 0.68308 0.00699 0.62632 0.0
H780 H 0.56509 0.95876 0.54623 0.0
H781 H 0.54972 0.93446 0.6895 0.0
H782 H 0.63194 0.97246 0.65116 0.0
H783 H 0.61079 0.92451 0.58344 0.0
O784 O 0.69657 0.84466 0.76042 0.0
H785 H 0.61355 0.91069 0.81296 0.0
H786 H 0.67118 0.81238 0.81985 0.0
H787 H 0.5034 0.96866 0.65325 0.0
H788 H 0.74322 0.90934 0.61492 0.0
H789 H 0.51002 0.97938 0.58068 0.0
H790 H 0.73928 0.9755 0.60738 0.0
O791 O 0.57415 0.86951 0.68979 0.0
H792 H 0.64875 0.73225 0.70631 0.0
H793 H 0.58835 0.8177 0.79606 0.0
H794 H 0.56858 0.7547 0.79439 0.0
H795 H 0.59901 0.71136 0.74949 0.0
H796 H 0.66731 0.79552 0.70847 0.0
H797 H 0.66959 0.81478 0.89323 0.0
H798 H 0.6392 0.86576 0.92695 0.0
O799 O 0.59205 0.87426 0.75298 0.0
C800 C 0.64225 0.93644 0.73622 0.0
C801 C 0.62424 0.89154 0.87195 0.0
C802 C 0.65715 0.83591 0.87585 0.0
N803 N 0.64236 0.86133 0.81207 0.0
C804 C 0.62571 0.88951 0.83042 0.0
C805 C 0.65807 0.83477 0.83426 0.0
C806 C 0.6401 0.86452 0.89474 0.0
C807 C 0.68891 0.90436 0.63619 0.0
N808 N 0.6575 0.92146 0.64517 0.0
C809 C 0.71859 0.92333 0.62212 0.0
C810 C 0.71645 0.96043 0.61806 0.0
C811 C 0.68494 0.97806 0.62858 0.0
C812 C 0.65583 0.95814 0.64242 0.0
C813 C 0.56155 0.95358 0.57771 0.0
C814 C 0.55334 0.93975 0.65816 0.0
C815 C 0.58735 0.93418 0.59899 0.0
N816 N 0.5829 0.92706 0.63867 0.0
C817 C 0.52691 0.95909 0.63776 0.0
C818 C 0.5308 0.96543 0.59713 0.0
C819 C 0.56718 0.86978 0.72707 0.0
C820 C 0.63551 0.75079 0.7263 0.0
C821 C 0.60187 0.79908 0.77649 0.0
C822 C 0.59049 0.76339 0.77566 0.0
C823 C 0.60755 0.7391 0.75046 0.0
N824 N 0.62971 0.81029 0.75313 0.0
C825 C 0.64614 0.7867 0.72789 0.0
Co826 Co 0.11369 0.61365 0.66324 0.0
Co827 Co 0.14418 0.64673 0.75112 0.0
O828 O 0.14618 0.64714 0.69189 0.0
C829 C 0.16902 0.63182 0.60044 0.0
O830 O 0.18693 0.65429 0.62321 0.0
C831 C 0.15996 0.72512 0.73137 0.0
O832 O 0.1463 0.72213 0.69547 0.0
O833 O 0.0927 0.66172 0.74668 0.0
O834 O 0.07831 0.61607 0.70745 0.0
H835 H 0.08483 0.61776 0.8812 0.0
H836 H 0.13344 0.6874 0.63203 0.0
O837 O 0.14672 0.6099 0.61583 0.0
H838 H 1.0029 0.67792 0.61314 0.0
H839 H 0.05281 0.5562 0.54466 0.0
H840 H 0.07312 0.54941 0.68973 0.0
H841 H 0.03674 0.62828 0.6432 0.0
H842 H 0.08727 0.60324 0.57944 0.0
O843 O 0.15946 0.69852 0.75512 0.0
H844 H 0.09132 0.61782 0.80811 0.0
H845 H 0.18883 0.67626 0.81816 0.0
H846 H 0.0383 0.50201 0.65628 0.0
H847 H 0.10091 0.73709 0.60107 0.0
H848 H 0.02849 0.50488 0.58308 0.0
H849 H 0.03493 0.73285 0.59134 0.0
O850 O 0.13896 0.57302 0.69065 0.0
H851 H 0.27391 0.65318 0.71174 0.0
H852 H 0.18608 0.59197 0.79757 0.0
H853 H 0.24964 0.57354 0.79998 0.0
H854 H 0.29411 0.60434 0.75698 0.0
H855 H 0.20998 0.67048 0.70995 0.0
H856 H 0.18326 0.67704 0.89135 0.0
H857 H 0.13105 0.64753 0.92336 0.0
O858 O 0.13086 0.59402 0.75211 0.0
C859 C 0.0693 0.64352 0.72754 0.0
C860 C 0.10777 0.63062 0.86763 0.0
C861 C 0.16298 0.66393 0.8733 0.0
N862 N 0.14053 0.6468 0.80885 0.0
C863 C 0.11163 0.63069 0.82624 0.0
C864 C 0.16594 0.66348 0.83182 0.0
C865 C 0.13369 0.64736 0.89125 0.0
C866 C 0.10524 0.68431 0.62694 0.0
N867 N 0.08781 0.65365 0.63794 0.0
C868 C 0.08668 0.71305 0.60976 0.0
C869 C 0.04968 0.71072 0.60442 0.0
C870 C 0.03174 0.67992 0.61657 0.0
C871 C 0.05126 0.6517 0.63346 0.0
C872 C 0.05724 0.55446 0.57651 0.0
C873 C 0.0688 0.55109 0.65794 0.0
C874 C 0.07705 0.58085 0.5963 0.0
N875 N 0.08295 0.57882 0.6365 0.0
C876 C 0.04897 0.52413 0.63915 0.0
C877 C 0.04341 0.52578 0.59811 0.0
C878 C 0.13741 0.56801 0.72834 0.0
C879 C 0.25482 0.63963 0.73071 0.0
C880 C 0.2052 0.60543 0.77864 0.0
C881 C 0.24119 0.59491 0.7802 0.0
C882 C 0.26612 0.61221 0.75607 0.0
N883 N 0.19433 0.63249 0.75382 0.0
C884 C 0.21859 0.64939 0.72992 0.0
Co885 Co 0.39808 0.1174 0.65506 0.0
Co886 Co 0.3621 0.1514 0.7387 0.0
O887 O 0.3635 0.15014 0.6802 0.0
C888 C 0.37271 0.16695 0.58936 0.0
O889 O 0.35082 0.18453 0.61289 0.0
C890 C 0.28236 0.15661 0.75275 0.0
O891 O 0.28279 0.12647 0.773 0.0
O892 O 0.34778 0.09954 0.73649 0.0
O893 O 0.39612 0.08457 0.70209 0.0
H894 H 0.3841 0.09746 0.87361 0.0
H895 H 0.31957 0.12895 0.63492 0.0
O896 O 0.3979 0.1474 0.60414 0.0
H897 H 0.34272 1.0014 0.60687 0.0
H898 H 0.47368 0.06562 0.54351 0.0
H899 H 0.45995 0.0776 0.68866 0.0
H900 H 0.3914 0.04005 0.62987 0.0
H901 H 0.42104 0.09561 0.57118 0.0
O902 O 0.3106 0.16753 0.7352 0.0
H903 H 0.38695 0.10063 0.80033 0.0
H904 H 0.33266 0.20081 0.80164 0.0
H905 H 0.5124 0.04645 0.66186 0.0
H906 H 0.27036 0.09082 0.61227 0.0
H907 H 0.52074 0.04201 0.5888 0.0
H908 H 0.28145 0.02645 0.59784 0.0
O909 O 0.43704 0.14603 0.68211 0.0
H910 H 0.35687 0.27893 0.6905 0.0
H911 H 0.41517 0.19569 0.78497 0.0
H912 H 0.43343 0.25921 0.78404 0.0
H913 H 0.40408 0.30139 0.7367 0.0
H914 H 0.33969 0.21508 0.6921 0.0
H915 H 0.32889 0.19871 0.87488 0.0
H916 H 0.35482 0.14674 0.91142 0.0
O917 O 0.41478 0.13852 0.74332 0.0
C918 C 0.36767 0.07563 0.72046 0.0
C919 C 0.37259 0.12021 0.85805 0.0
C920 C 0.34157 0.17699 0.85875 0.0
N921 N 0.35961 0.15072 0.79658 0.0
C922 C 0.37407 0.12213 0.81652 0.0
C923 C 0.34358 0.17797 0.81721 0.0
C924 C 0.35616 0.14785 0.87923 0.0
C925 C 0.3255 0.10137 0.6282 0.0
N926 N 0.35959 0.08783 0.63212 0.0
C927 C 0.29708 0.07968 0.61551 0.0
C928 C 0.30327 0.04358 0.60747 0.0
C929 C 0.33765 0.02959 0.61232 0.0
C930 C 0.36547 0.05207 0.62486 0.0
C931 C 0.47037 0.06754 0.57544 0.0
C932 C 0.4619 0.07415 0.65683 0.0
C933 C 0.44022 0.08443 0.5915 0.0
N934 N 0.43605 0.08767 0.63187 0.0
C935 C 0.49222 0.05688 0.64182 0.0
C936 C 0.4967 0.05408 0.60085 0.0
C937 C 0.44128 0.14505 0.72019 0.0
C938 C 0.3698 0.26084 0.71134 0.0
C939 C 0.40239 0.21377 0.7641 0.0
C940 C 0.41279 0.24976 0.7638 0.0
C941 C 0.39631 0.27341 0.73724 0.0
N942 N 0.37621 0.20163 0.73874 0.0
C943 C 0.36014 0.22465 0.71243 0.0
C944 C 0.31793 0.27537 0.23019 0.0
C945 C 0.3262 0.27284 0.27123 0.0
C946 C 0.2915 0.29911 0.21587 0.0
C947 C 0.27237 0.32157 0.24194 0.0
H948 H 0.33066 0.25764 0.20896 0.0
H949 H 0.28464 0.29826 0.18447 0.0
S950 S 0.28914 0.33151 0.35064 0.0
N951 N 0.31673 0.29917 0.33675 0.0
N952 N 0.26782 0.34418 0.30977 0.0
C953 C 0.28283 0.32191 0.28239 0.0
C954 C 0.30957 0.29756 0.29703 0.0
C955 C 0.74245 0.31485 0.24696 0.0
C956 C 0.7511 0.31827 0.28786 0.0
C957 C 0.71816 0.28857 0.23321 0.0
C958 C 0.70221 0.26427 0.25976 0.0
H959 H 0.7555 0.33179 0.22519 0.0
H960 H 0.7134 0.28603 0.20146 0.0
S961 S 0.71307 0.26328 0.36974 0.0
N962 N 0.73925 0.29633 0.35483 0.0
N963 N 0.69443 0.2469 0.32889 0.0
C964 C 0.70928 0.26841 0.30073 0.0
C965 C 0.73344 0.29544 0.31482 0.0
C966 C 0.76323 0.7347 0.26413 0.0
C967 C 0.75569 0.69842 0.25631 0.0
C968 C 0.73567 0.75989 0.26881 0.0
C969 C 0.69941 0.75026 0.2639 0.0
H970 H 0.79065 0.74375 0.26739 0.0
H971 H 0.74306 0.78734 0.27542 0.0
S972 S 0.66524 0.6588 0.24251 0.0
N973 N 0.70932 0.65379 0.24477 0.0
N974 N 0.65735 0.70188 0.25052 0.0
C975 C 0.6914 0.71416 0.25549 0.0
C976 C 0.71956 0.68809 0.25242 0.0
C977 C 0.28805 0.76252 0.25357 0.0
C978 C 0.32454 0.75335 0.24948 0.0
C979 C 0.26189 0.73645 0.26068 0.0
C980 C 0.27067 0.69978 0.26201 0.0
H981 H 0.27945 0.79023 0.25182 0.0
H982 H 0.23436 0.74522 0.26408 0.0
S983 S 0.36216 0.66124 0.25272 0.0
N984 N 0.36834 0.705 0.24846 0.0
N985 N 0.31852 0.65544 0.25879 0.0
C986 C 0.30697 0.69001 0.25756 0.0
C987 C 0.33402 0.71689 0.25201 0.0
C988 C 0.77078 0.79208 0.7244 0.0
C989 C 0.75261 0.8149 0.75099 0.0
C990 C 0.79534 0.76621 0.73811 0.0
C991 C 0.80326 0.76218 0.77903 0.0
H992 H 0.76471 0.79286 0.6928 0.0
H993 H 0.80743 0.74844 0.71638 0.0
S994 S 0.76618 0.81804 0.86074 0.0
N995 N 0.74672 0.83389 0.82006 0.0
N996 N 0.7929 0.78533 0.84574 0.0
C997 C 0.78699 0.78627 0.80577 0.0
C998 C 0.76167 0.81252 0.7918 0.0
C999 C 0.18759 0.76424 0.7843 0.0
C1000 C 0.18091 0.75749 0.74351 0.0
C1001 C 0.21179 0.79099 0.79679 0.0
C1002 C 0.23075 0.81179 0.769 0.0
H1003 H 0.17492 0.74786 0.80687 0.0
H1004 H 0.2172 0.79389 0.82838 0.0
S1005 S 0.22079 0.80732 0.65885 0.0
N1006 N 0.19343 0.77596 0.67551 0.0
N1007 N 0.23894 0.82587 0.69884 0.0
C1008 C 0.22288 0.80668 0.72821 0.0
C1009 C 0.19797 0.7797 0.71551 0.0
C1010 C 0.23462 0.24485 0.77167 0.0
C1011 C 0.19795 0.23605 0.76978 0.0
C1012 C 0.26123 0.2191 0.76483 0.0
C1013 C 0.25264 0.18281 0.75816 0.0
H1014 H 0.24306 0.27218 0.77723 0.0
H1015 H 0.28889 0.22792 0.76507 0.0
S1016 S 0.16077 0.14496 0.75276 0.0
N1017 N 0.15426 0.18828 0.76076 0.0
N1018 N 0.20476 0.13903 0.75141 0.0
C1019 C 0.21616 0.17317 0.75772 0.0
C1020 C 0.18876 0.19993 0.76274 0.0
C1021 C 0.77591 0.21975 0.79273 0.0
C1022 C 0.77495 0.18805 0.76993 0.0
C1023 C 0.8019 0.24619 0.78613 0.0
C1024 C 0.82842 0.24222 0.75658 0.0
H1025 H 0.75546 0.2251 0.81481 0.0
H1026 H 0.80042 0.27047 0.80377 0.0
S1027 S 0.8406 0.16256 0.69162 0.0
N1028 N 0.80502 0.15284 0.71872 0.0
N1029 N 0.8539 0.20267 0.70649 0.0
C1030 C 0.82924 0.20977 0.73516 0.0
C1031 C 0.80256 0.18272 0.74178 0.0
C1032 C 0.11973 0.3687 0.99557 0.0
C1033 C 0.15138 0.36053 0.97454 0.0
C1034 C 0.11551 0.35965 0.03585 0.0
C1035 C 0.14314 0.34291 0.05782 0.0
H1036 H 0.09767 0.38217 0.98096 0.0
H1037 H 0.09041 0.3666 0.05012 0.0
S1038 S 0.23223 0.31646 0.0179 0.0
N1039 N 0.21117 0.33434 0.97929 0.0
N1040 N 0.20381 0.31879 0.05543 0.0
C1041 C 0.17509 0.33453 0.03741 0.0
C1042 C 0.17916 0.3432 0.99593 0.0
C1043 C 0.66678 0.17143 0.99853 0.0
C1044 C 0.63912 0.15354 0.9776 0.0
C1045 C 0.67243 0.16604 0.03968 0.0
C1046 C 0.65092 0.14222 0.06177 0.0
H1047 H 0.68465 0.18948 0.98296 0.0
H1048 H 0.69356 0.1811 0.05434 0.0
S1049 S 0.57496 0.08838 0.02139 0.0
N1050 N 0.58908 0.11199 0.98299 0.0
N1051 N 0.60164 0.09945 0.05878 0.0
C1052 C 0.62353 0.12376 0.04103 0.0
C1053 C 0.6171 0.13008 0.99952 0.0
C1054 C 0.84852 0.66795 0.99037 0.0
C1055 C 0.86643 0.64161 0.96771 0.0
C1056 C 0.8563 0.6731 0.03114 0.0
C1057 C 0.88263 0.65242 0.05101 0.0
H1058 H 0.8286 0.68512 0.97646 0.0
H1059 H 0.84106 0.69311 0.04731 0.0
S1060 S 0.93761 0.58007 1.00535 0.0
N1061 N 0.91082 0.59361 0.96907 0.0
N1062 N 0.92771 0.60557 0.04397 0.0
C1063 C 0.90117 0.62647 0.02845 0.0
C1064 C 0.89245 0.62044 0.98742 0.0
C1065 C 0.32536 0.85381 0.02039 0.0
C1066 C 0.33862 0.88451 0.04022 0.0
C1067 C 0.33116 0.84833 0.97927 0.0
C1068 C 0.35126 0.87283 0.95636 0.0
H1069 H 0.31112 0.83336 0.03688 0.0
H1070 H 0.31992 0.82456 0.96547 0.0
S1071 S 0.3911 0.95801 0.99397 0.0
N1072 N 0.3699 0.94124 0.03269 0.0
N1073 N 0.38537 0.92848 0.95793 0.0
C1074 C 0.36489 0.90338 0.9762 0.0
C1075 C 0.35729 0.90989 0.01729 0.0
C1076 C 0.14946 0.61103 0.5328 0.0
C1077 C 0.16723 0.6369 0.55621 0.0
C1078 C 0.14123 0.6171 0.49262 0.0
C1079 C 0.15196 0.64859 0.47277 0.0
H1080 H 0.14096 0.58588 0.54582 0.0
H1081 H 0.12621 0.5966 0.47715 0.0
S1082 S 0.20025 0.72501 0.51985 0.0
N1083 N 0.19516 0.6959 0.55648 0.0
N1084 N 0.18195 0.70625 0.48005 0.0
C1085 C 0.17057 0.67456 0.49548 0.0
C1086 C 0.17798 0.66883 0.53712 0.0
C1087 C 0.35696 0.1947 0.5227 0.0
C1088 C 0.36318 0.16387 0.54607 0.0
C1089 C 0.34686 0.19197 0.48214 0.0
C1090 C 0.34186 0.15827 0.46368 0.0
H1091 H 0.36071 0.22108 0.53562 0.0
H1092 H 0.34422 0.21637 0.46483 0.0
S1093 S 0.34854 0.06961 0.51293 0.0
N1094 N 0.35929 0.09875 0.54799 0.0
N1095 N 0.34 0.09386 0.47295 0.0
C1096 C 0.34589 0.12752 0.48729 0.0
C1097 C 0.35665 0.13024 0.52809 0.0
C1098 C 0.85247 0.32163 0.49948 0.0
C1099 C 0.85565 0.35258 0.47572 0.0
C1100 C 0.8436 0.32407 0.54029 0.0
C1101 C 0.83731 0.35755 0.55874 0.0
H1102 H 0.85778 0.29545 0.48672 0.0
H1103 H 0.84304 0.29967 0.55781 0.0
S1104 S 0.83577 0.44594 0.50849 0.0
N1105 N 0.84653 0.41719 0.47309 0.0
N1106 N 0.83129 0.4217 0.54927 0.0
C1107 C 0.83858 0.38835 0.5349 0.0
C1108 C 0.84737 0.38588 0.49358 0.0
C1109 C 0.66709 0.84341 0.53225 0.0
C1110 C 0.63499 0.84664 0.55406 0.0
C1111 C 0.66873 0.85311 0.49163 0.0
C1112 C 0.63853 0.8671 0.47121 0.0
H1113 H 0.69146 0.83443 0.54691 0.0
H1114 H 0.69404 0.84988 0.47628 0.0
S1115 S 0.54751 0.87909 0.51465 0.0
N1116 N 0.57163 0.86194 0.5513 0.0
N1117 N 0.57551 0.88339 0.47707 0.0
C1118 C 0.60634 0.87023 0.49297 0.0
C1119 C 0.60434 0.85908 0.53366 0.0
C1120 C 0.14418 0.53667 0.23318 0.0
C1121 C 0.1747 0.54982 0.25275 0.0
C1122 C 0.13994 0.50009 0.22636 0.0
C1123 C 0.16629 0.47504 0.23836 0.0
H1124 H 0.12184 0.55442 0.22652 0.0
H1125 H 0.11482 0.49146 0.21314 0.0
S1126 S 0.25429 0.4972 0.2843 0.0
N1127 N 0.23371 0.53635 0.27984 0.0
N1128 N 0.22636 0.46692 0.26589 0.0
C1129 C 0.19845 0.48827 0.25488 0.0
C1130 C 0.2026 0.52587 0.26209 0.0
C1131 C 0.53288 0.19584 0.27593 0.0
C1132 C 0.55618 0.16758 0.28629 0.0
C1133 C 0.49546 0.1921 0.27951 0.0
C1134 C 0.4803 0.15984 0.29328 0.0
H1135 H 0.54339 0.21961 0.26153 0.0
H1136 H 0.47834 0.21404 0.26999 0.0
S1137 S 0.53088 0.07858 0.32593 0.0
N1138 N 0.56208 0.10765 0.3132 0.0
N1139 N 0.49244 0.09967 0.31885 0.0
C1140 C 0.5038 0.13226 0.3059 0.0
C1141 C 0.54159 0.13653 0.30306 0.0
C1142 C 0.82691 0.52463 0.25952 0.0
C1143 C 0.85447 0.54921 0.26827 0.0
C1144 C 0.83133 0.48774 0.26735 0.0
C1145 C 0.86387 0.47434 0.28304 0.0
H1146 H 0.8029 0.5336 0.2441 0.0
H1147 H 0.80959 0.46957 0.26008 0.0
S1148 S 0.94461 0.5286 0.30915 0.0
N1149 N 0.91456 0.55815 0.29409 0.0
N1150 N 0.92437 0.48941 0.30568 0.0
C1151 C 0.8913 0.49916 0.29222 0.0
C1152 C 0.8861 0.53643 0.28592 0.0
C1153 C 0.52129 0.82003 0.25214 0.0
C1154 C 0.5473 0.84642 0.24425 0.0
C1155 C 0.48488 0.8257 0.24235 0.0
C1156 C 0.47341 0.85817 0.22491 0.0
H1157 H 0.52862 0.79625 0.26887 0.0
H1158 H 0.4655 0.8052 0.24998 0.0
S1159 S 0.53234 0.93515 0.19764 0.0
N1160 N 0.55983 0.90481 0.21633 0.0
N1161 N 0.49228 0.91657 0.19939 0.0
C1162 C 0.4999 0.88389 0.21529 0.0
C1163 C 0.53664 0.87759 0.22428 0.0
C1164 C 0.85968 0.53117 0.74037 0.0
C1165 C 0.87154 0.53898 0.7796 0.0
C1166 C 0.86161 0.4963 0.72421 0.0
C1167 C 0.87554 0.4674 0.74636 0.0
H1168 H 0.84877 0.55221 0.72164 0.0
H1169 H 0.85178 0.49201 0.69415 0.0
S1170 S 0.91192 0.47325 0.84989 0.0
N1171 N 0.89845 0.51446 0.8398 0.0
N1172 N 0.90281 0.44955 0.80957 0.0
C1173 C 0.8879 0.47488 0.78551 0.0
C1174 C 0.88569 0.51036 0.80205 0.0
C1175 C 0.52067 0.87355 0.78189 0.0
C1176 C 0.52889 0.86913 0.74104 0.0
C1177 C 0.48492 0.87443 0.79568 0.0
C1178 C 0.45557 0.87067 0.76938 0.0
H1179 H 0.54205 0.87676 0.8036 0.0
H1180 H 0.48034 0.87822 0.82726 0.0
S1181 S 0.46221 0.85854 0.65927 0.0
N1182 N 0.50427 0.86102 0.6745 0.0
N1183 N 0.43781 0.8624 0.6999 0.0
C1184 C 0.46354 0.86598 0.72843 0.0
C1185 C 0.49986 0.86527 0.71444 0.0
C1186 C 0.13519 0.49058 0.80387 0.0
C1187 C 0.14034 0.45963 0.78045 0.0
C1188 C 0.13469 0.52518 0.78684 0.0
C1189 C 0.13921 0.53071 0.74545 0.0
H1190 H 0.13123 0.48817 0.83571 0.0
H1191 H 0.13038 0.5478 0.80654 0.0
S1192 S 0.1536 0.45894 0.67034 0.0
N1193 N 0.15019 0.4373 0.713 0.0
N1194 N 0.14915 0.50182 0.68154 0.0
C1195 C 0.14457 0.50007 0.72166 0.0
C1196 C 0.14515 0.46482 0.73896 0.0
C1197 C 0.48203 0.14421 0.78081 0.0
C1198 C 0.47808 0.14713 0.73893 0.0
C1199 C 0.51598 0.1444 0.79962 0.0
C1200 C 0.54792 0.14765 0.77764 0.0
H1201 H 0.45863 0.1413 0.79956 0.0
H1202 H 0.51709 0.14158 0.83172 0.0
S1203 S 0.55294 0.15613 0.66703 0.0
N1204 N 0.50955 0.15342 0.67616 0.0
N1205 N 0.57292 0.15408 0.71095 0.0
C1206 C 0.54434 0.15098 0.73568 0.0
C1207 C 0.5097 0.15065 0.71655 0.0
C1208 C 0.68661 0.02291 0.77224 0.0
C1209 C 0.66113 0.04902 0.76132 0.0
C1210 C 0.68071 0.98638 0.76378 0.0
C1211 C 0.64888 0.97499 0.74475 0.0
H1212 H 0.70992 0.03044 0.78978 0.0
H1213 H 0.70064 0.96694 0.77323 0.0
S1214 S 0.57418 0.03419 0.71062 0.0
N1215 N 0.60413 0.06185 0.72968 0.0
N1216 N 0.59176 0.9938 0.7153 0.0
C1217 C 0.62384 1.00146 0.73279 0.0
C1218 C 0.6304 0.03832 0.74052 0.0
C1219 C 0.96894 0.62885 0.72435 0.0
C1220 C 0.95506 0.66057 0.74065 0.0
C1221 C 0.00581 0.62403 0.72002 0.0
C1222 C 0.03039 0.65102 0.7312 0.0
H1223 H 0.95142 0.60613 0.71887 0.0
H1224 H 0.01503 0.59815 0.70947 0.0
S1225 S 0.00663 0.74219 0.76685 0.0
N1226 N 0.96764 0.72136 0.76251 0.0
N1227 N 0.03755 0.71292 0.75298 0.0
C1228 C 0.01658 0.68428 0.74376 0.0
C1229 C 0.97872 0.68902 0.74846 0.0
C1230 C 0.32358 0.02556 0.73309 0.0
C1231 C 0.35837 0.03684 0.72249 0.0
C1232 C 0.31512 0.98882 0.73601 0.0
C1233 C 0.34106 0.96233 0.72808 0.0
H1234 H 0.30321 0.04513 0.74075 0.0
H1235 H 0.2894 0.98123 0.74836 0.0
S1236 S 0.43464 0.97698 0.69567 0.0
N1237 N 0.41815 0.01765 0.702 0.0
N1238 N 0.4012 0.94946 0.70519 0.0
C1239 C 0.37451 0.97325 0.71358 0.0
C1240 C 0.38363 0.01024 0.71197 0.0
C1241 C 0.0372 0.36714 0.73334 0.0
C1242 C 0.04976 0.33821 0.75611 0.0
C1243 C 1.00109 0.36972 0.72254 0.0
C1244 C 0.97593 0.34379 0.73489 0.0
H1245 H 0.05497 0.38924 0.72622 0.0
H1246 H 0.99266 0.39343 0.70634 0.0
S1247 S 0.99697 0.2599 0.7898 0.0
N1248 N 0.03592 0.2809 0.78659 0.0
N1249 N 0.96733 0.28582 0.76689 0.0
C1250 C 0.98876 0.3133 0.75522 0.0
C1251 C 0.0259 0.31047 0.76565 0.0
C1252 C 0.36698 0.04356 0.23244 0.0
C1253 C 0.36634 0.04813 0.2743 0.0
C1254 C 0.36722 0.00939 0.21458 0.0
C1255 C 0.36756 0.97783 0.23757 0.0
H1256 H 0.36773 0.06664 0.21291 0.0
H1257 H 0.36778 0.00784 0.18235 0.0
S1258 S 0.36765 0.97442 0.34867 0.0
N1259 N 0.366 0.01765 0.33825 0.0
N1260 N 0.36848 0.95374 0.3052 0.0
C1261 C 0.36729 0.98194 0.27959 0.0
C1262 C 0.36615 0.01686 0.29775 0.0
C1263 C 0.98088 0.35948 0.24877 0.0
C1264 C 0.97575 0.36253 0.29045 0.0
C1265 C 0.01512 0.36135 0.23127 0.0
C1266 C 0.04628 0.36655 0.25439 0.0
H1267 H 0.95808 0.35617 0.22897 0.0
H1268 H 0.017 0.35912 0.19916 0.0
S1269 S 0.04837 0.37575 0.36513 0.0
N1270 N 1.00547 0.36998 0.35445 0.0
N1271 N 0.06943 0.37458 0.322 0.0
C1272 C 0.04168 0.3692 0.29627 0.0
C1273 C 0.00671 0.36685 0.31413 0.0
C1274 C 0.62899 0.9995 0.30632 0.0
C1275 C 0.62891 0.96938 0.28101 0.0
C1276 C 0.63113 0.0347 0.29102 0.0
C1277 C 0.63273 0.04168 0.24958 0.0
H1278 H 0.62801 0.99593 0.33833 0.0
H1279 H 0.63145 0.05669 0.31213 0.0
S1280 S 0.63154 0.97263 0.16994 0.0
N1281 N 0.6297 0.94944 0.21173 0.0
N1282 N 0.63291 0.01516 0.18356 0.0
C1283 C 0.63176 0.01193 0.22389 0.0
C1284 C 0.63012 0.97605 0.2394 0.0
C1285 C 0.04374 0.63404 0.23941 0.0
C1286 C 0.04949 0.63273 0.28115 0.0
C1287 C 0.00897 0.63346 0.22247 0.0
C1288 C 0.97804 0.63202 0.24637 0.0
H1289 H 0.06636 0.63549 0.21932 0.0
H1290 H 0.00638 0.6347 0.19034 0.0
S1291 S 0.97784 0.62702 0.35737 0.0
N1292 N 0.0208 0.62882 0.34579 0.0
N1293 N 0.95595 0.62838 0.31455 0.0
C1294 C 0.98344 0.6304 0.2882 0.0
C1295 C 0.01887 0.63056 0.30537 0.0
loop_
_geom_bond_atom_site_label_1
_geom_bond_atom_site_label_2
_geom_bond_distance
_geom_bond_site_symmetry_2
_ccdc_geom_bond_type
Co0 O2 2.143 . S
Co0 O8 2.074 . S
Co0 O11 2.093 . S
Co0 O24 2.097 . S
Co0 N41 2.151 . S
Co0 N49 2.214 . S
Co1 O2 2.160 . S
Co1 O7 2.058 . S
Co1 O17 2.057 . S
Co1 O32 2.037 . S
Co1 N36 2.145 . S
Co1 N57 2.257 . S
O2 Co0 2.143 . S
O2 Co1 2.160 . S
C3 O4 1.278 . S
C3 O11 1.224 . S
O4 C3 1.278 . S
C5 O6 1.245 . S
C5 O17 1.232 . S
O6 C5 1.245 . S
O7 Co1 2.058 . S
O7 C33 1.269 . S
O8 Co0 2.074 . S
O8 C33 1.257 . S
H9 C34 0.930 . S
H10 C40 0.930 . S
O11 Co0 2.093 . S
O11 C3 1.224 . S
H12 C44 0.929 . S
H13 C46 0.930 . S
H14 C47 0.930 . S
H15 C45 0.929 . S
H16 C48 0.928 . S
O17 Co1 2.057 . S
O17 C5 1.232 . S
H18 C37 0.929 . S
H19 C38 0.929 . S
H20 C50 0.931 . S
H21 C42 0.929 . S
H22 C51 0.930 . S
H23 C43 0.931 . S
O24 Co0 2.097 . S
O24 C52 1.214 . S
H25 C53 0.929 . S
H26 C54 0.929 . S
H27 C55 0.930 . S
H28 C56 0.929 . S
H29 C58 0.930 . S
H30 C35 0.930 . S
H31 C39 0.930 . S
O32 Co1 2.037 . S
O32 C52 1.234 . S
C33 O7 1.269 . S
C33 O8 1.257 . S
C34 H9 0.930 . S
C34 C37 1.388 . S
C34 C39 1.418 . S
C35 H30 0.930 . S
C35 C38 1.404 . S
C35 C39 1.353 . S
N36 Co1 2.145 . S
N36 C37 1.397 . S
N36 C38 1.334 . S
C37 H18 0.929 . S
C37 C34 1.388 . S
C37 N36 1.397 . S
C38 H19 0.929 . S
C38 C35 1.404 . S
C38 N36 1.334 . S
C39 H31 0.930 . S
C39 C34 1.418 . S
C39 C35 1.353 . S
C40 H10 0.930 . S
C40 N41 1.330 . S
C40 C42 1.446 . S
N41 Co0 2.151 . S
N41 C40 1.330 . S
N41 C45 1.418 . S
C42 H21 0.929 . S
C42 C40 1.446 . S
C42 C43 1.332 . S
C43 H23 0.931 . S
C43 C42 1.332 . S
C43 C44 1.267 . S
C44 H12 0.929 . S
C44 C43 1.267 . S
C44 C45 1.251 . S
C45 H15 0.929 . S
C45 N41 1.418 . S
C45 C44 1.251 . S
C46 H13 0.930 . S
C46 C48 1.406 . S
C46 C51 1.261 . S
C47 H14 0.930 . S
C47 N49 1.325 . S
C47 C50 1.357 . S
C48 H16 0.928 . S
C48 C46 1.406 . S
C48 N49 1.261 . S
N49 Co0 2.214 . S
N49 C47 1.325 . S
N49 C48 1.261 . S
C50 H20 0.931 . S
C50 C47 1.357 . S
C50 C51 1.312 . S
C51 H22 0.930 . S
C51 C46 1.261 . S
C51 C50 1.312 . S
C52 O24 1.214 . S
C52 O32 1.234 . S
C53 H25 0.929 . S
C53 C56 1.391 . S
C53 C58 1.391 . S
C54 H26 0.929 . S
C54 C55 1.390 . S
C54 N57 1.391 . S
C55 H27 0.930 . S
C55 C54 1.390 . S
C55 C56 1.392 . S
C56 H28 0.929 . S
C56 C53 1.391 . S
C56 C55 1.392 . S
N57 Co1 2.257 . S
N57 C54 1.391 . S
N57 C58 1.388 . S
C58 H29 0.930 . S
C58 C53 1.391 . S
C58 N57 1.388 . S
Co59 O61 2.143 . S
Co59 O67 2.074 . S
Co59 O70 2.093 . S
Co59 O83 2.097 . S
Co59 N100 2.151 . S
Co59 N108 2.214 . S
Co60 O61 2.160 . S
Co60 O66 2.058 . S
Co60 O76 2.057 . S
Co60 O91 2.037 . S
Co60 N95 2.145 . S
Co60 N116 2.257 . S
O61 Co59 2.143 . S
O61 Co60 2.160 . S
C62 O63 1.278 . S
C62 O70 1.224 . S
O63 C62 1.278 . S
C64 O65 1.245 . S
C64 O76 1.232 . S
O65 C64 1.245 . S
O66 Co60 2.058 . S
O66 C92 1.269 . S
O67 Co59 2.074 . S
O67 C92 1.257 . S
H68 C93 0.930 . S
H69 C99 0.930 . S
O70 Co59 2.093 . S
O70 C62 1.224 . S
H71 C103 0.929 . S
H72 C105 0.930 . S
H73 C106 0.930 . S
H74 C104 0.929 . S
H75 C107 0.928 . S
O76 Co60 2.057 . S
O76 C64 1.232 . S
H77 C96 0.929 . S
H78 C97 0.929 . S
H79 C109 0.931 . S
H80 C101 0.929 . S
H81 C110 0.930 . S
H82 C102 0.931 . S
O83 Co59 2.097 . S
O83 C111 1.214 . S
H84 C112 0.929 . S
H85 C113 0.929 . S
H86 C114 0.930 . S
H87 C115 0.929 . S
H88 C117 0.930 . S
H89 C94 0.930 . S
H90 C98 0.930 . S
O91 Co60 2.037 . S
O91 C111 1.234 . S
C92 O66 1.269 . S
C92 O67 1.257 . S
C93 H68 0.930 . S
C93 C96 1.388 . S
C93 C98 1.418 . S
C94 H89 0.930 . S
C94 C97 1.404 . S
C94 C98 1.353 . S
N95 Co60 2.145 . S
N95 C96 1.397 . S
N95 C97 1.334 . S
C96 H77 0.929 . S
C96 C93 1.388 . S
C96 N95 1.397 . S
C97 H78 0.929 . S
C97 C94 1.404 . S
C97 N95 1.334 . S
C98 H90 0.930 . S
C98 C93 1.418 . S
C98 C94 1.353 . S
C99 H69 0.930 . S
C99 N100 1.330 . S
C99 C101 1.446 . S
N100 Co59 2.151 . S
N100 C99 1.330 . S
N100 C104 1.418 . S
C101 H80 0.929 . S
C101 C99 1.446 . S
C101 C102 1.332 . S
C102 H82 0.931 . S
C102 C101 1.332 . S
C102 C103 1.267 . S
C103 H71 0.929 . S
C103 C102 1.267 . S
C103 C104 1.251 . S
C104 H74 0.929 . S
C104 N100 1.418 . S
C104 C103 1.251 . S
C105 H72 0.930 . S
C105 C107 1.406 . S
C105 C110 1.261 . S
C106 H73 0.930 . S
C106 N108 1.325 . S
C106 C109 1.357 . S
C107 H75 0.928 . S
C107 C105 1.406 . S
C107 N108 1.261 . S
N108 Co59 2.214 . S
N108 C106 1.325 . S
N108 C107 1.261 . S
C109 H79 0.931 . S
C109 C106 1.357 . S
C109 C110 1.312 . S
C110 H81 0.930 . S
C110 C105 1.261 . S
C110 C109 1.312 . S
C111 O83 1.214 . S
C111 O91 1.234 . S
C112 H84 0.929 . S
C112 C115 1.391 . S
C112 C117 1.391 . S
C113 H85 0.929 . S
C113 C114 1.390 . S
C113 N116 1.391 . S
C114 H86 0.930 . S
C114 C113 1.390 . S
C114 C115 1.392 . S
C115 H87 0.929 . S
C115 C112 1.391 . S
C115 C114 1.392 . S
N116 Co60 2.257 . S
N116 C113 1.391 . S
N116 C117 1.388 . S
C117 H88 0.930 . S
C117 C112 1.391 . S
C117 N116 1.388 . S
Co118 O120 2.143 . S
Co118 O126 2.074 . S
Co118 O129 2.093 . S
Co118 O142 2.097 . S
Co118 N159 2.151 . S
Co118 N167 2.214 . S
Co119 O120 2.160 . S
Co119 O125 2.058 . S
Co119 O135 2.057 . S
Co119 O150 2.037 . S
Co119 N154 2.145 . S
Co119 N175 2.257 . S
O120 Co118 2.143 . S
O120 Co119 2.160 . S
C121 O122 1.278 . S
C121 O129 1.224 . S
O122 C121 1.278 . S
C123 O124 1.245 . S
C123 O135 1.232 . S
O124 C123 1.245 . S
O125 Co119 2.058 . S
O125 C151 1.269 . S
O126 Co118 2.074 . S
O126 C151 1.257 . S
H127 C152 0.930 . S
H128 C158 0.930 . S
O129 Co118 2.093 . S
O129 C121 1.224 . S
H130 C162 0.929 . S
H131 C164 0.930 . S
H132 C165 0.930 . S
H133 C163 0.929 . S
H134 C166 0.928 . S
O135 Co119 2.057 . S
O135 C123 1.232 . S
H136 C155 0.929 . S
H137 C156 0.929 . S
H138 C168 0.931 . S
H139 C160 0.929 . S
H140 C169 0.930 . S
H141 C161 0.931 . S
O142 Co118 2.097 . S
O142 C170 1.214 . S
H143 C171 0.929 . S
H144 C172 0.929 . S
H145 C173 0.930 . S
H146 C174 0.929 . S
H147 C176 0.930 . S
H148 C153 0.930 . S
H149 C157 0.930 . S
O150 Co119 2.037 . S
O150 C170 1.234 . S
C151 O125 1.269 . S
C151 O126 1.257 . S
C152 H127 0.930 . S
C152 C155 1.388 . S
C152 C157 1.418 . S
C153 H148 0.930 . S
C153 C156 1.404 . S
C153 C157 1.353 . S
N154 Co119 2.145 . S
N154 C155 1.397 . S
N154 C156 1.334 . S
C155 H136 0.929 . S
C155 C152 1.388 . S
C155 N154 1.397 . S
C156 H137 0.929 . S
C156 C153 1.404 . S
C156 N154 1.334 . S
C157 H149 0.930 . S
C157 C152 1.418 . S
C157 C153 1.353 . S
C158 H128 0.930 . S
C158 N159 1.330 . S
C158 C160 1.446 . S
N159 Co118 2.151 . S
N159 C158 1.330 . S
N159 C163 1.418 . S
C160 H139 0.929 . S
C160 C158 1.446 . S
C160 C161 1.332 . S
C161 H141 0.931 . S
C161 C160 1.332 . S
C161 C162 1.267 . S
C162 H130 0.929 . S
C162 C161 1.267 . S
C162 C163 1.251 . S
C163 H133 0.929 . S
C163 N159 1.418 . S
C163 C162 1.251 . S
C164 H131 0.930 . S
C164 C166 1.406 . S
C164 C169 1.261 . S
C165 H132 0.930 . S
C165 N167 1.325 . S
C165 C168 1.357 . S
C166 H134 0.928 . S
C166 C164 1.406 . S
C166 N167 1.261 . S
N167 Co118 2.214 . S
N167 C165 1.325 . S
N167 C166 1.261 . S
C168 H138 0.931 . S
C168 C165 1.357 . S
C168 C169 1.312 . S
C169 H140 0.930 . S
C169 C164 1.261 . S
C169 C168 1.312 . S
C170 O142 1.214 . S
C170 O150 1.234 . S
C171 H143 0.929 . S
C171 C174 1.391 . S
C171 C176 1.391 . S
C172 H144 0.929 . S
C172 C173 1.390 . S
C172 N175 1.391 . S
C173 H145 0.930 . S
C173 C172 1.390 . S
C173 C174 1.392 . S
C174 H146 0.929 . S
C174 C171 1.391 . S
C174 C173 1.392 . S
N175 Co119 2.257 . S
N175 C172 1.391 . S
N175 C176 1.388 . S
C176 H147 0.930 . S
C176 C171 1.391 . S
C176 N175 1.388 . S
Co177 O179 2.143 . S
Co177 O185 2.074 . S
Co177 O188 2.093 . S
Co177 O201 2.097 . S
Co177 N218 2.151 . S
Co177 N226 2.214 . S
Co178 O179 2.160 . S
Co178 O184 2.058 . S
Co178 O194 2.057 . S
Co178 O209 2.037 . S
Co178 N213 2.145 . S
Co178 N234 2.257 . S
O179 Co177 2.143 . S
O179 Co178 2.160 . S
C180 O181 1.278 . S
C180 O188 1.224 . S
O181 C180 1.278 . S
C182 O183 1.245 . S
C182 O194 1.232 . S
O183 C182 1.245 . S
O184 Co178 2.058 . S
O184 C210 1.269 . S
O185 Co177 2.074 . S
O185 C210 1.257 . S
H186 C211 0.930 . S
H187 C217 0.930 . S
O188 Co177 2.093 . S
O188 C180 1.224 . S
H189 C221 0.929 . S
H190 C223 0.930 . S
H191 C224 0.930 . S
H192 C222 0.929 . S
H193 C225 0.928 . S
O194 Co178 2.057 . S
O194 C182 1.232 . S
H195 C214 0.929 . S
H196 C215 0.929 . S
H197 C227 0.931 . S
H198 C219 0.929 . S
H199 C228 0.930 . S
H200 C220 0.931 . S
O201 Co177 2.097 . S
O201 C229 1.214 . S
H202 C230 0.929 . S
H203 C231 0.929 . S
H204 C232 0.930 . S
H205 C233 0.929 . S
H206 C235 0.930 . S
H207 C212 0.930 . S
H208 C216 0.930 . S
O209 Co178 2.037 . S
O209 C229 1.234 . S
C210 O184 1.269 . S
C210 O185 1.257 . S
C211 H186 0.930 . S
C211 C214 1.388 . S
C211 C216 1.418 . S
C212 H207 0.930 . S
C212 C215 1.404 . S
C212 C216 1.353 . S
N213 Co178 2.145 . S
N213 C214 1.397 . S
N213 C215 1.334 . S
C214 H195 0.929 . S
C214 C211 1.388 . S
C214 N213 1.397 . S
C215 H196 0.929 . S
C215 C212 1.404 . S
C215 N213 1.334 . S
C216 H208 0.930 . S
C216 C211 1.418 . S
C216 C212 1.353 . S
C217 H187 0.930 . S
C217 N218 1.330 . S
C217 C219 1.446 . S
N218 Co177 2.151 . S
N218 C217 1.330 . S
N218 C222 1.418 . S
C219 H198 0.929 . S
C219 C217 1.446 . S
C219 C220 1.332 . S
C220 H200 0.931 . S
C220 C219 1.332 . S
C220 C221 1.267 . S
C221 H189 0.929 . S
C221 C220 1.267 . S
C221 C222 1.251 . S
C222 H192 0.929 . S
C222 N218 1.418 . S
C222 C221 1.251 . S
C223 H190 0.930 . S
C223 C225 1.406 . S
C223 C228 1.261 . S
C224 H191 0.930 . S
C224 N226 1.325 . S
C224 C227 1.357 . S
C225 H193 0.928 . S
C225 C223 1.406 . S
C225 N226 1.261 . S
N226 Co177 2.214 . S
N226 C224 1.325 . S
N226 C225 1.261 . S
C227 H197 0.931 . S
C227 C224 1.357 . S
C227 C228 1.312 . S
C228 H199 0.930 . S
C228 C223 1.261 . S
C228 C227 1.312 . S
C229 O201 1.214 . S
C229 O209 1.234 . S
C230 H202 0.929 . S
C230 C233 1.391 . S
C230 C235 1.391 . S
C231 H203 0.929 . S
C231 C232 1.390 . S
C231 N234 1.391 . S
C232 H204 0.930 . S
C232 C231 1.390 . S
C232 C233 1.392 . S
C233 H205 0.929 . S
C233 C230 1.391 . S
C233 C232 1.392 . S
N234 Co178 2.257 . S
N234 C231 1.391 . S
N234 C235 1.388 . S
C235 H206 0.930 . S
C235 C230 1.391 . S
C235 N234 1.388 . S
Co236 O238 2.143 . S
Co236 O244 2.074 . S
Co236 O247 2.093 . S
Co236 O260 2.097 . S
Co236 N277 2.151 . S
Co236 N285 2.214 . S
Co237 O238 2.160 . S
Co237 O243 2.058 . S
Co237 O253 2.057 . S
Co237 O268 2.037 . S
Co237 N272 2.145 . S
Co237 N293 2.257 . S
O238 Co236 2.143 . S
O238 Co237 2.160 . S
C239 O240 1.278 . S
C239 O247 1.224 . S
O240 C239 1.278 . S
C241 O242 1.245 . S
C241 O253 1.232 . S
O242 C241 1.245 . S
O243 Co237 2.058 . S
O243 C269 1.269 . S
O244 Co236 2.074 . S
O244 C269 1.257 . S
H245 C270 0.930 . S
H246 C276 0.930 . S
O247 Co236 2.093 . S
O247 C239 1.224 . S
H248 C280 0.929 . S
H249 C282 0.930 . S
H250 C283 0.930 . S
H251 C281 0.929 . S
H252 C284 0.928 . S
O253 Co237 2.057 . S
O253 C241 1.232 . S
H254 C273 0.929 . S
H255 C274 0.929 . S
H256 C286 0.931 . S
H257 C278 0.929 . S
H258 C287 0.930 . S
H259 C279 0.931 . S
O260 Co236 2.097 . S
O260 C288 1.214 . S
H261 C289 0.929 . S
H262 C290 0.929 . S
H263 C291 0.930 . S
H264 C292 0.929 . S
H265 C294 0.930 . S
H266 C271 0.930 . S
H267 C275 0.930 . S
O268 Co237 2.037 . S
O268 C288 1.234 . S
C269 O243 1.269 . S
C269 O244 1.257 . S
C270 H245 0.930 . S
C270 C273 1.388 . S
C270 C275 1.418 . S
C271 H266 0.930 . S
C271 C274 1.404 . S
C271 C275 1.353 . S
N272 Co237 2.145 . S
N272 C273 1.397 . S
N272 C274 1.334 . S
C273 H254 0.929 . S
C273 C270 1.388 . S
C273 N272 1.397 . S
C274 H255 0.929 . S
C274 C271 1.404 . S
C274 N272 1.334 . S
C275 H267 0.930 . S
C275 C270 1.418 . S
C275 C271 1.353 . S
C276 H246 0.930 . S
C276 N277 1.330 . S
C276 C278 1.446 . S
N277 Co236 2.151 . S
N277 C276 1.330 . S
N277 C281 1.418 . S
C278 H257 0.929 . S
C278 C276 1.446 . S
C278 C279 1.332 . S
C279 H259 0.931 . S
C279 C278 1.332 . S
C279 C280 1.267 . S
C280 H248 0.929 . S
C280 C279 1.267 . S
C280 C281 1.251 . S
C281 H251 0.929 . S
C281 N277 1.418 . S
C281 C280 1.251 . S
C282 H249 0.930 . S
C282 C284 1.406 . S
C282 C287 1.261 . S
C283 H250 0.930 . S
C283 N285 1.325 . S
C283 C286 1.357 . S
C284 H252 0.928 . S
C284 C282 1.406 . S
C284 N285 1.261 . S
N285 Co236 2.214 . S
N285 C283 1.325 . S
N285 C284 1.261 . S
C286 H256 0.931 . S
C286 C283 1.357 . S
C286 C287 1.312 . S
C287 H258 0.930 . S
C287 C282 1.261 . S
C287 C286 1.312 . S
C288 O260 1.214 . S
C288 O268 1.234 . S
C289 H261 0.929 . S
C289 C292 1.391 . S
C289 C294 1.391 . S
C290 H262 0.929 . S
C290 C291 1.390 . S
C290 N293 1.391 . S
C291 H263 0.930 . S
C291 C290 1.390 . S
C291 C292 1.392 . S
C292 H264 0.929 . S
C292 C289 1.391 . S
C292 C291 1.392 . S
N293 Co237 2.257 . S
N293 C290 1.391 . S
N293 C294 1.388 . S
C294 H265 0.930 . S
C294 C289 1.391 . S
C294 N293 1.388 . S
Co295 O297 2.143 . S
Co295 O303 2.074 . S
Co295 O306 2.093 . S
Co295 O319 2.097 . S
Co295 N336 2.151 . S
Co295 N344 2.214 . S
Co296 O297 2.160 . S
Co296 O302 2.058 . S
Co296 O312 2.057 . S
Co296 O327 2.037 . S
Co296 N331 2.145 . S
Co296 N352 2.257 . S
O297 Co295 2.143 . S
O297 Co296 2.160 . S
C298 O299 1.278 . S
C298 O306 1.224 . S
O299 C298 1.278 . S
C300 O301 1.245 . S
C300 O312 1.232 . S
O301 C300 1.245 . S
O302 Co296 2.058 . S
O302 C328 1.269 . S
O303 Co295 2.074 . S
O303 C328 1.257 . S
H304 C329 0.930 . S
H305 C335 0.930 . S
O306 Co295 2.093 . S
O306 C298 1.224 . S
H307 C339 0.929 . S
H308 C341 0.930 . S
H309 C342 0.930 . S
H310 C340 0.929 . S
H311 C343 0.928 . S
O312 Co296 2.057 . S
O312 C300 1.232 . S
H313 C332 0.929 . S
H314 C333 0.929 . S
H315 C345 0.931 . S
H316 C337 0.929 . S
H317 C346 0.930 . S
H318 C338 0.931 . S
O319 Co295 2.097 . S
O319 C347 1.214 . S
H320 C348 0.929 . S
H321 C349 0.929 . S
H322 C350 0.930 . S
H323 C351 0.929 . S
H324 C353 0.930 . S
H325 C330 0.930 . S
H326 C334 0.930 . S
O327 Co296 2.037 . S
O327 C347 1.234 . S
C328 O302 1.269 . S
C328 O303 1.257 . S
C329 H304 0.930 . S
C329 C332 1.388 . S
C329 C334 1.418 . S
C330 H325 0.930 . S
C330 C333 1.404 . S
C330 C334 1.353 . S
N331 Co296 2.145 . S
N331 C332 1.397 . S
N331 C333 1.334 . S
C332 H313 0.929 . S
C332 C329 1.388 . S
C332 N331 1.397 . S
C333 H314 0.929 . S
C333 C330 1.404 . S
C333 N331 1.334 . S
C334 H326 0.930 . S
C334 C329 1.418 . S
C334 C330 1.353 . S
C335 H305 0.930 . S
C335 N336 1.330 . S
C335 C337 1.446 . S
N336 Co295 2.151 . S
N336 C335 1.330 . S
N336 C340 1.418 . S
C337 H316 0.929 . S
C337 C335 1.446 . S
C337 C338 1.332 . S
C338 H318 0.931 . S
C338 C337 1.332 . S
C338 C339 1.267 . S
C339 H307 0.929 . S
C339 C338 1.267 . S
C339 C340 1.251 . S
C340 H310 0.929 . S
C340 N336 1.418 . S
C340 C339 1.251 . S
C341 H308 0.930 . S
C341 C343 1.406 . S
C341 C346 1.261 . S
C342 H309 0.930 . S
C342 N344 1.325 . S
C342 C345 1.357 . S
C343 H311 0.928 . S
C343 C341 1.406 . S
C343 N344 1.261 . S
N344 Co295 2.214 . S
N344 C342 1.325 . S
N344 C343 1.261 . S
C345 H315 0.931 . S
C345 C342 1.357 . S
C345 C346 1.312 . S
C346 H317 0.930 . S
C346 C341 1.261 . S
C346 C345 1.312 . S
C347 O319 1.214 . S
C347 O327 1.234 . S
C348 H320 0.929 . S
C348 C351 1.391 . S
C348 C353 1.391 . S
C349 H321 0.929 . S
C349 C350 1.390 . S
C349 N352 1.391 . S
C350 H322 0.930 . S
C350 C349 1.390 . S
C350 C351 1.392 . S
C351 H323 0.929 . S
C351 C348 1.391 . S
C351 C350 1.392 . S
N352 Co296 2.257 . S
N352 C349 1.391 . S
N352 C353 1.388 . S
C353 H324 0.930 . S
C353 C348 1.391 . S
C353 N352 1.388 . S
Co354 O356 2.143 . S
Co354 O362 2.074 . S
Co354 O365 2.093 . S
Co354 O378 2.097 . S
Co354 N395 2.151 . S
Co354 N403 2.214 . S
Co355 O356 2.160 . S
Co355 O361 2.058 . S
Co355 O371 2.057 . S
Co355 O386 2.037 . S
Co355 N390 2.145 . S
Co355 N411 2.257 . S
O356 Co354 2.143 . S
O356 Co355 2.160 . S
C357 O358 1.278 . S
C357 O365 1.224 . S
O358 C357 1.278 . S
C359 O360 1.245 . S
C359 O371 1.232 . S
O360 C359 1.245 . S
O361 Co355 2.058 . S
O361 C387 1.269 . S
O362 Co354 2.074 . S
O362 C387 1.257 . S
H363 C388 0.930 . S
H364 C394 0.930 . S
O365 Co354 2.093 . S
O365 C357 1.224 . S
H366 C398 0.929 . S
H367 C400 0.930 . S
H368 C401 0.930 . S
H369 C399 0.929 . S
H370 C402 0.928 . S
O371 Co355 2.057 . S
O371 C359 1.232 . S
H372 C391 0.929 . S
H373 C392 0.929 . S
H374 C404 0.931 . S
H375 C396 0.929 . S
H376 C405 0.930 . S
H377 C397 0.931 . S
O378 Co354 2.097 . S
O378 C406 1.214 . S
H379 C407 0.929 . S
H380 C408 0.929 . S
H381 C409 0.930 . S
H382 C410 0.929 . S
H383 C412 0.930 . S
H384 C389 0.930 . S
H385 C393 0.930 . S
O386 Co355 2.037 . S
O386 C406 1.234 . S
C387 O361 1.269 . S
C387 O362 1.257 . S
C388 H363 0.930 . S
C388 C391 1.388 . S
C388 C393 1.418 . S
C389 H384 0.930 . S
C389 C392 1.404 . S
C389 C393 1.353 . S
N390 Co355 2.145 . S
N390 C391 1.397 . S
N390 C392 1.334 . S
C391 H372 0.929 . S
C391 C388 1.388 . S
C391 N390 1.397 . S
C392 H373 0.929 . S
C392 C389 1.404 . S
C392 N390 1.334 . S
C393 H385 0.930 . S
C393 C388 1.418 . S
C393 C389 1.353 . S
C394 H364 0.930 . S
C394 N395 1.330 . S
C394 C396 1.446 . S
N395 Co354 2.151 . S
N395 C394 1.330 . S
N395 C399 1.418 . S
C396 H375 0.929 . S
C396 C394 1.446 . S
C396 C397 1.332 . S
C397 H377 0.931 . S
C397 C396 1.332 . S
C397 C398 1.267 . S
C398 H366 0.929 . S
C398 C397 1.267 . S
C398 C399 1.251 . S
C399 H369 0.929 . S
C399 N395 1.418 . S
C399 C398 1.251 . S
C400 H367 0.930 . S
C400 C402 1.406 . S
C400 C405 1.261 . S
C401 H368 0.930 . S
C401 N403 1.325 . S
C401 C404 1.357 . S
C402 H370 0.928 . S
C402 C400 1.406 . S
C402 N403 1.261 . S
N403 Co354 2.214 . S
N403 C401 1.325 . S
N403 C402 1.261 . S
C404 H374 0.931 . S
C404 C401 1.357 . S
C404 C405 1.312 . S
C405 H376 0.930 . S
C405 C400 1.261 . S
C405 C404 1.312 . S
C406 O378 1.214 . S
C406 O386 1.234 . S
C407 H379 0.929 . S
C407 C410 1.391 . S
C407 C412 1.391 . S
C408 H380 0.929 . S
C408 C409 1.390 . S
C408 N411 1.391 . S
C409 H381 0.930 . S
C409 C408 1.390 . S
C409 C410 1.392 . S
C410 H382 0.929 . S
C410 C407 1.391 . S
C410 C409 1.392 . S
N411 Co355 2.257 . S
N411 C408 1.391 . S
N411 C412 1.388 . S
C412 H383 0.930 . S
C412 C407 1.391 . S
C412 N411 1.388 . S
Co413 O415 2.143 . S
Co413 O421 2.074 . S
Co413 O424 2.093 . S
Co413 O437 2.097 . S
Co413 N454 2.151 . S
Co413 N462 2.214 . S
Co414 O415 2.160 . S
Co414 O420 2.058 . S
Co414 O430 2.057 . S
Co414 O445 2.037 . S
Co414 N449 2.145 . S
Co414 N470 2.257 . S
O415 Co413 2.143 . S
O415 Co414 2.160 . S
C416 O417 1.278 . S
C416 O424 1.224 . S
O417 C416 1.278 . S
C418 O419 1.245 . S
C418 O430 1.232 . S
O419 C418 1.245 . S
O420 Co414 2.058 . S
O420 C446 1.269 . S
O421 Co413 2.074 . S
O421 C446 1.257 . S
H422 C447 0.930 . S
H423 C453 0.930 . S
O424 Co413 2.093 . S
O424 C416 1.224 . S
H425 C457 0.929 . S
H426 C459 0.930 . S
H427 C460 0.930 . S
H428 C458 0.929 . S
H429 C461 0.928 . S
O430 Co414 2.057 . S
O430 C418 1.232 . S
H431 C450 0.929 . S
H432 C451 0.929 . S
H433 C463 0.931 . S
H434 C455 0.929 . S
H435 C464 0.930 . S
H436 C456 0.931 . S
O437 Co413 2.097 . S
O437 C465 1.214 . S
H438 C466 0.929 . S
H439 C467 0.929 . S
H440 C468 0.930 . S
H441 C469 0.929 . S
H442 C471 0.930 . S
H443 C448 0.930 . S
H444 C452 0.930 . S
O445 Co414 2.037 . S
O445 C465 1.234 . S
C446 O420 1.269 . S
C446 O421 1.257 . S
C447 H422 0.930 . S
C447 C450 1.388 . S
C447 C452 1.418 . S
C448 H443 0.930 . S
C448 C451 1.404 . S
C448 C452 1.353 . S
N449 Co414 2.145 . S
N449 C450 1.397 . S
N449 C451 1.334 . S
C450 H431 0.929 . S
C450 C447 1.388 . S
C450 N449 1.397 . S
C451 H432 0.929 . S
C451 C448 1.404 . S
C451 N449 1.334 . S
C452 H444 0.930 . S
C452 C447 1.418 . S
C452 C448 1.353 . S
C453 H423 0.930 . S
C453 N454 1.330 . S
C453 C455 1.446 . S
N454 Co413 2.151 . S
N454 C453 1.330 . S
N454 C458 1.418 . S
C455 H434 0.929 . S
C455 C453 1.446 . S
C455 C456 1.332 . S
C456 H436 0.931 . S
C456 C455 1.332 . S
C456 C457 1.267 . S
C457 H425 0.929 . S
C457 C456 1.267 . S
C457 C458 1.251 . S
C458 H428 0.929 . S
C458 N454 1.418 . S
C458 C457 1.251 . S
C459 H426 0.930 . S
C459 C461 1.406 . S
C459 C464 1.261 . S
C460 H427 0.930 . S
C460 N462 1.325 . S
C460 C463 1.357 . S
C461 H429 0.928 . S
C461 C459 1.406 . S
C461 N462 1.261 . S
N462 Co413 2.214 . S
N462 C460 1.325 . S
N462 C461 1.261 . S
C463 H433 0.931 . S
C463 C460 1.357 . S
C463 C464 1.312 . S
C464 H435 0.930 . S
C464 C459 1.261 . S
C464 C463 1.312 . S
C465 O437 1.214 . S
C465 O445 1.234 . S
C466 H438 0.929 . S
C466 C469 1.391 . S
C466 C471 1.391 . S
C467 H439 0.929 . S
C467 C468 1.390 . S
C467 N470 1.391 . S
C468 H440 0.930 . S
C468 C467 1.390 . S
C468 C469 1.392 . S
C469 H441 0.929 . S
C469 C466 1.391 . S
C469 C468 1.392 . S
N470 Co414 2.257 . S
N470 C467 1.391 . S
N470 C471 1.388 . S
C471 H442 0.930 . S
C471 C466 1.391 . S
C471 N470 1.388 . S
Co472 O474 2.143 . S
Co472 O480 2.074 . S
Co472 O483 2.093 . S
Co472 O496 2.097 . S
Co472 N513 2.151 . S
Co472 N521 2.214 . S
Co473 O474 2.160 . S
Co473 O479 2.058 . S
Co473 O489 2.057 . S
Co473 O504 2.037 . S
Co473 N508 2.145 . S
Co473 N529 2.257 . S
O474 Co472 2.143 . S
O474 Co473 2.160 . S
C475 O476 1.278 . S
C475 O483 1.224 . S
O476 C475 1.278 . S
C477 O478 1.245 . S
C477 O489 1.232 . S
O478 C477 1.245 . S
O479 Co473 2.058 . S
O479 C505 1.269 . S
O480 Co472 2.074 . S
O480 C505 1.257 . S
H481 C506 0.930 . S
H482 C512 0.930 . S
O483 Co472 2.093 . S
O483 C475 1.224 . S
H484 C516 0.929 1_455 S
H485 C518 0.930 . S
H486 C519 0.930 . S
H487 C517 0.929 . S
H488 C520 0.928 . S
O489 Co473 2.057 . S
O489 C477 1.232 . S
H490 C509 0.929 . S
H491 C510 0.929 . S
H492 C522 0.931 . S
H493 C514 0.929 . S
H494 C523 0.930 . S
H495 C515 0.931 . S
O496 Co472 2.097 . S
O496 C524 1.214 . S
H497 C525 0.929 . S
H498 C526 0.929 . S
H499 C527 0.930 . S
H500 C528 0.929 . S
H501 C530 0.930 . S
H502 C507 0.930 . S
H503 C511 0.930 . S
O504 Co473 2.037 . S
O504 C524 1.234 . S
C505 O479 1.269 . S
C505 O480 1.257 . S
C506 H481 0.930 . S
C506 C509 1.388 . S
C506 C511 1.418 . S
C507 H502 0.930 . S
C507 C510 1.404 . S
C507 C511 1.353 . S
N508 Co473 2.145 . S
N508 C509 1.397 . S
N508 C510 1.334 . S
C509 H490 0.929 . S
C509 C506 1.388 . S
C509 N508 1.397 . S
C510 H491 0.929 . S
C510 C507 1.404 . S
C510 N508 1.334 . S
C511 H503 0.930 . S
C511 C506 1.418 . S
C511 C507 1.353 . S
C512 H482 0.930 . S
C512 N513 1.330 . S
C512 C514 1.446 . S
N513 Co472 2.151 . S
N513 C512 1.330 . S
N513 C517 1.418 . S
C514 H493 0.929 . S
C514 C512 1.446 . S
C514 C515 1.332 . S
C515 H495 0.931 . S
C515 C514 1.332 . S
C515 C516 1.267 . S
C516 H484 0.929 1_655 S
C516 C515 1.267 . S
C516 C517 1.251 . S
C517 H487 0.929 . S
C517 N513 1.418 . S
C517 C516 1.251 . S
C518 H485 0.930 . S
C518 C520 1.406 1_455 S
C518 C523 1.261 . S
C519 H486 0.930 . S
C519 N521 1.325 . S
C519 C522 1.357 1_655 S
C520 H488 0.928 . S
C520 C518 1.406 1_655 S
C520 N521 1.261 . S
N521 Co472 2.214 . S
N521 C519 1.325 . S
N521 C520 1.261 . S
C522 H492 0.931 . S
C522 C519 1.357 1_455 S
C522 C523 1.312 . S
C523 H494 0.930 . S
C523 C518 1.261 . S
C523 C522 1.312 . S
C524 O496 1.214 . S
C524 O504 1.234 . S
C525 H497 0.929 . S
C525 C528 1.391 . S
C525 C530 1.391 . S
C526 H498 0.929 . S
C526 C527 1.390 . S
C526 N529 1.391 . S
C527 H499 0.930 . S
C527 C526 1.390 . S
C527 C528 1.392 . S
C528 H500 0.929 . S
C528 C525 1.391 . S
C528 C527 1.392 . S
N529 Co473 2.257 . S
N529 C526 1.391 . S
N529 C530 1.388 . S
C530 H501 0.930 . S
C530 C525 1.391 . S
C530 N529 1.388 . S
Co531 O533 2.143 . S
Co531 O539 2.074 . S
Co531 O542 2.093 . S
Co531 O555 2.097 . S
Co531 N572 2.151 . S
Co531 N580 2.214 . S
Co532 O533 2.160 . S
Co532 O538 2.058 . S
Co532 O548 2.057 . S
Co532 O563 2.037 . S
Co532 N567 2.145 . S
Co532 N588 2.257 . S
O533 Co531 2.143 . S
O533 Co532 2.160 . S
C534 O535 1.278 . S
C534 O542 1.224 . S
O535 C534 1.278 . S
C536 O537 1.245 . S
C536 O548 1.232 . S
O537 C536 1.245 . S
O538 Co532 2.058 . S
O538 C564 1.269 . S
O539 Co531 2.074 . S
O539 C564 1.257 . S
H540 C565 0.930 . S
H541 C571 0.930 . S
O542 Co531 2.093 . S
O542 C534 1.224 . S
H543 C575 0.929 1_545 S
H544 C577 0.930 . S
H545 C578 0.930 . S
H546 C576 0.929 . S
H547 C579 0.928 . S
O548 Co532 2.057 . S
O548 C536 1.232 . S
H549 C568 0.929 . S
H550 C569 0.929 . S
H551 C581 0.931 . S
H552 C573 0.929 . S
H553 C582 0.930 . S
H554 C574 0.931 . S
O555 Co531 2.097 . S
O555 C583 1.214 . S
H556 C584 0.929 . S
H557 C585 0.929 . S
H558 C586 0.930 . S
H559 C587 0.929 . S
H560 C589 0.930 . S
H561 C566 0.930 . S
H562 C570 0.930 . S
O563 Co532 2.037 . S
O563 C583 1.234 . S
C564 O538 1.269 . S
C564 O539 1.257 . S
C565 H540 0.930 . S
C565 C568 1.388 . S
C565 C570 1.418 . S
C566 H561 0.930 . S
C566 C569 1.404 . S
C566 C570 1.353 . S
N567 Co532 2.145 . S
N567 C568 1.397 . S
N567 C569 1.334 . S
C568 H549 0.929 . S
C568 C565 1.388 . S
C568 N567 1.397 . S
C569 H550 0.929 . S
C569 C566 1.404 . S
C569 N567 1.334 . S
C570 H562 0.930 . S
C570 C565 1.418 . S
C570 C566 1.353 . S
C571 H541 0.930 . S
C571 N572 1.330 . S
C571 C573 1.446 . S
N572 Co531 2.151 . S
N572 C571 1.330 . S
N572 C576 1.418 . S
C573 H552 0.929 . S
C573 C571 1.446 . S
C573 C574 1.332 . S
C574 H554 0.931 . S
C574 C573 1.332 . S
C574 C575 1.267 . S
C575 H543 0.929 1_565 S
C575 C574 1.267 . S
C575 C576 1.251 . S
C576 H546 0.929 . S
C576 N572 1.418 . S
C576 C575 1.251 . S
C577 H544 0.930 . S
C577 C579 1.406 1_545 S
C577 C582 1.261 . S
C578 H545 0.930 . S
C578 N580 1.325 . S
C578 C581 1.357 1_565 S
C579 H547 0.928 . S
C579 C577 1.406 1_565 S
C579 N580 1.261 . S
N580 Co531 2.214 . S
N580 C578 1.325 . S
N580 C579 1.261 . S
C581 H551 0.931 . S
C581 C578 1.357 1_545 S
C581 C582 1.312 . S
C582 H553 0.930 . S
C582 C577 1.261 . S
C582 C581 1.312 . S
C583 O555 1.214 . S
C583 O563 1.234 . S
C584 H556 0.929 . S
C584 C587 1.391 . S
C584 C589 1.391 . S
C585 H557 0.929 . S
C585 C586 1.390 . S
C585 N588 1.391 . S
C586 H558 0.930 . S
C586 C585 1.390 . S
C586 C587 1.392 . S
C587 H559 0.929 . S
C587 C584 1.391 . S
C587 C586 1.392 . S
N588 Co532 2.257 . S
N588 C585 1.391 . S
N588 C589 1.388 . S
C589 H560 0.930 . S
C589 C584 1.391 . S
C589 N588 1.388 . S
Co590 O592 2.143 . S
Co590 O598 2.074 . S
Co590 O601 2.093 . S
Co590 O614 2.097 . S
Co590 N631 2.151 . S
Co590 N639 2.214 . S
Co591 O592 2.160 . S
Co591 O597 2.058 . S
Co591 O607 2.057 . S
Co591 O622 2.037 . S
Co591 N626 2.145 . S
Co591 N647 2.257 . S
O592 Co590 2.143 . S
O592 Co591 2.160 . S
C593 O594 1.278 . S
C593 O601 1.224 . S
O594 C593 1.278 . S
C595 O596 1.245 . S
C595 O607 1.232 . S
O596 C595 1.245 . S
O597 Co591 2.058 . S
O597 C623 1.269 . S
O598 Co590 2.074 . S
O598 C623 1.257 . S
H599 C624 0.930 . S
H600 C630 0.930 . S
O601 Co590 2.093 . S
O601 C593 1.224 . S
H602 C634 0.929 1_655 S
H603 C636 0.930 . S
H604 C637 0.930 . S
H605 C635 0.929 . S
H606 C638 0.928 . S
O607 Co591 2.057 . S
O607 C595 1.232 . S
H608 C627 0.929 . S
H609 C628 0.929 . S
H610 C640 0.931 . S
H611 C632 0.929 . S
H612 C641 0.930 . S
H613 C633 0.931 . S
O614 Co590 2.097 . S
O614 C642 1.214 . S
H615 C643 0.929 . S
H616 C644 0.929 . S
H617 C645 0.930 . S
H618 C646 0.929 . S
H619 C648 0.930 . S
H620 C625 0.930 . S
H621 C629 0.930 . S
O622 Co591 2.037 . S
O622 C642 1.234 . S
C623 O597 1.269 . S
C623 O598 1.257 . S
C624 H599 0.930 . S
C624 C627 1.388 . S
C624 C629 1.418 . S
C625 H620 0.930 . S
C625 C628 1.404 . S
C625 C629 1.353 . S
N626 Co591 2.145 . S
N626 C627 1.397 . S
N626 C628 1.334 . S
C627 H608 0.929 . S
C627 C624 1.388 . S
C627 N626 1.397 . S
C628 H609 0.929 . S
C628 C625 1.404 . S
C628 N626 1.334 . S
C629 H621 0.930 . S
C629 C624 1.418 . S
C629 C625 1.353 . S
C630 H600 0.930 . S
C630 N631 1.330 . S
C630 C632 1.446 . S
N631 Co590 2.151 . S
N631 C630 1.330 . S
N631 C635 1.418 . S
C632 H611 0.929 . S
C632 C630 1.446 . S
C632 C633 1.332 . S
C633 H613 0.931 . S
C633 C632 1.332 . S
C633 C634 1.267 . S
C634 H602 0.929 1_455 S
C634 C633 1.267 . S
C634 C635 1.251 . S
C635 H605 0.929 . S
C635 N631 1.418 . S
C635 C634 1.251 . S
C636 H603 0.930 . S
C636 C638 1.406 1_655 S
C636 C641 1.261 . S
C637 H604 0.930 . S
C637 N639 1.325 . S
C637 C640 1.357 1_455 S
C638 H606 0.928 . S
C638 C636 1.406 1_455 S
C638 N639 1.261 . S
N639 Co590 2.214 . S
N639 C637 1.325 . S
N639 C638 1.261 . S
C640 H610 0.931 . S
C640 C637 1.357 1_655 S
C640 C641 1.312 . S
C641 H612 0.930 . S
C641 C636 1.261 . S
C641 C640 1.312 . S
C642 O614 1.214 . S
C642 O622 1.234 . S
C643 H615 0.929 . S
C643 C646 1.391 . S
C643 C648 1.391 . S
C644 H616 0.929 . S
C644 C645 1.390 . S
C644 N647 1.391 . S
C645 H617 0.930 . S
C645 C644 1.390 . S
C645 C646 1.392 . S
C646 H618 0.929 . S
C646 C643 1.391 . S
C646 C645 1.392 . S
N647 Co591 2.257 . S
N647 C644 1.391 . S
N647 C648 1.388 . S
C648 H619 0.930 . S
C648 C643 1.391 . S
C648 N647 1.388 . S
Co649 O651 2.143 . S
Co649 O657 2.074 . S
Co649 O660 2.093 . S
Co649 O673 2.097 . S
Co649 N690 2.151 . S
Co649 N698 2.214 . S
Co650 O651 2.160 . S
Co650 O656 2.058 . S
Co650 O666 2.057 . S
Co650 O681 2.037 . S
Co650 N685 2.145 . S
Co650 N706 2.257 . S
O651 Co649 2.143 . S
O651 Co650 2.160 . S
C652 O653 1.278 . S
C652 O660 1.224 . S
O653 C652 1.278 . S
C654 O655 1.245 . S
C654 O666 1.232 . S
O655 C654 1.245 . S
O656 Co650 2.058 . S
O656 C682 1.269 . S
O657 Co649 2.074 . S
O657 C682 1.257 . S
H658 C683 0.930 . S
H659 C689 0.930 . S
O660 Co649 2.093 . S
O660 C652 1.224 . S
H661 C693 0.929 1_565 S
H662 C695 0.930 . S
H663 C696 0.930 . S
H664 C694 0.929 . S
H665 C697 0.928 . S
O666 Co650 2.057 . S
O666 C654 1.232 . S
H667 C686 0.929 . S
H668 C687 0.929 . S
H669 C699 0.931 . S
H670 C691 0.929 . S
H671 C700 0.930 . S
H672 C692 0.931 . S
O673 Co649 2.097 . S
O673 C701 1.214 . S
H674 C702 0.929 . S
H675 C703 0.929 . S
H676 C704 0.930 . S
H677 C705 0.929 . S
H678 C707 0.930 . S
H679 C684 0.930 . S
H680 C688 0.930 . S
O681 Co650 2.037 . S
O681 C701 1.234 . S
C682 O656 1.269 . S
C682 O657 1.257 . S
C683 H658 0.930 . S
C683 C686 1.388 . S
C683 C688 1.418 . S
C684 H679 0.930 . S
C684 C687 1.404 . S
C684 C688 1.353 . S
N685 Co650 2.145 . S
N685 C686 1.397 . S
N685 C687 1.334 . S
C686 H667 0.929 . S
C686 C683 1.388 . S
C686 N685 1.397 . S
C687 H668 0.929 . S
C687 C684 1.404 . S
C687 N685 1.334 . S
C688 H680 0.930 . S
C688 C683 1.418 . S
C688 C684 1.353 . S
C689 H659 0.930 . S
C689 N690 1.330 . S
C689 C691 1.446 . S
N690 Co649 2.151 . S
N690 C689 1.330 . S
N690 C694 1.418 . S
C691 H670 0.929 . S
C691 C689 1.446 . S
C691 C692 1.332 . S
C692 H672 0.931 . S
C692 C691 1.332 . S
C692 C693 1.267 . S
C693 H661 0.929 1_545 S
C693 C692 1.267 . S
C693 C694 1.251 . S
C694 H664 0.929 . S
C694 N690 1.418 . S
C694 C693 1.251 . S
C695 H662 0.930 . S
C695 C697 1.406 1_565 S
C695 C700 1.261 . S
C696 H663 0.930 . S
C696 N698 1.325 . S
C696 C699 1.357 1_545 S
C697 H665 0.928 . S
C697 C695 1.406 1_545 S
C697 N698 1.261 . S
N698 Co649 2.214 . S
N698 C696 1.325 . S
N698 C697 1.261 . S
C699 H669 0.931 . S
C699 C696 1.357 1_565 S
C699 C700 1.312 . S
C700 H671 0.930 . S
C700 C695 1.261 . S
C700 C699 1.312 . S
C701 O673 1.214 . S
C701 O681 1.234 . S
C702 H674 0.929 . S
C702 C705 1.391 . S
C702 C707 1.391 . S
C703 H675 0.929 . S
C703 C704 1.390 . S
C703 N706 1.391 . S
C704 H676 0.930 . S
C704 C703 1.390 . S
C704 C705 1.392 . S
C705 H677 0.929 . S
C705 C702 1.391 . S
C705 C704 1.392 . S
N706 Co650 2.257 . S
N706 C703 1.391 . S
N706 C707 1.388 . S
C707 H678 0.930 . S
C707 C702 1.391 . S
C707 N706 1.388 . S
Co708 O710 2.143 . S
Co708 O716 2.074 . S
Co708 O719 2.093 . S
Co708 O732 2.097 . S
Co708 N749 2.151 . S
Co708 N757 2.214 . S
Co709 O710 2.160 . S
Co709 O715 2.058 . S
Co709 O725 2.057 . S
Co709 O740 2.037 . S
Co709 N744 2.145 . S
Co709 N765 2.257 . S
O710 Co708 2.143 . S
O710 Co709 2.160 . S
C711 O712 1.278 . S
C711 O719 1.224 . S
O712 C711 1.278 . S
C713 O714 1.245 . S
C713 O725 1.232 . S
O714 C713 1.245 . S
O715 Co709 2.058 . S
O715 C741 1.269 . S
O716 Co708 2.074 . S
O716 C741 1.257 . S
H717 C742 0.930 . S
H718 C748 0.930 . S
O719 Co708 2.093 . S
O719 C711 1.224 . S
H720 C752 0.929 1_455 S
H721 C754 0.930 . S
H722 C755 0.930 . S
H723 C753 0.929 . S
H724 C756 0.928 . S
O725 Co709 2.057 . S
O725 C713 1.232 . S
H726 C745 0.929 . S
H727 C746 0.929 . S
H728 C758 0.931 . S
H729 C750 0.929 . S
H730 C759 0.930 . S
H731 C751 0.931 . S
O732 Co708 2.097 . S
O732 C760 1.214 . S
H733 C761 0.929 . S
H734 C762 0.929 . S
H735 C763 0.930 . S
H736 C764 0.929 . S
H737 C766 0.930 . S
H738 C743 0.930 . S
H739 C747 0.930 . S
O740 Co709 2.037 . S
O740 C760 1.234 . S
C741 O715 1.269 . S
C741 O716 1.257 . S
C742 H717 0.930 . S
C742 C745 1.388 . S
C742 C747 1.418 . S
C743 H738 0.930 . S
C743 C746 1.404 . S
C743 C747 1.353 . S
N744 Co709 2.145 . S
N744 C745 1.397 . S
N744 C746 1.334 . S
C745 H726 0.929 . S
C745 C742 1.388 . S
C745 N744 1.397 . S
C746 H727 0.929 . S
C746 C743 1.404 . S
C746 N744 1.334 . S
C747 H739 0.930 . S
C747 C742 1.418 . S
C747 C743 1.353 . S
C748 H718 0.930 . S
C748 N749 1.330 . S
C748 C750 1.446 . S
N749 Co708 2.151 . S
N749 C748 1.330 . S
N749 C753 1.418 . S
C750 H729 0.929 . S
C750 C748 1.446 . S
C750 C751 1.332 . S
C751 H731 0.931 . S
C751 C750 1.332 . S
C751 C752 1.267 . S
C752 H720 0.929 1_655 S
C752 C751 1.267 . S
C752 C753 1.251 . S
C753 H723 0.929 . S
C753 N749 1.418 . S
C753 C752 1.251 . S
C754 H721 0.930 . S
C754 C756 1.406 1_455 S
C754 C759 1.261 . S
C755 H722 0.930 . S
C755 N757 1.325 . S
C755 C758 1.357 1_655 S
C756 H724 0.928 . S
C756 C754 1.406 1_655 S
C756 N757 1.261 . S
N757 Co708 2.214 . S
N757 C755 1.325 . S
N757 C756 1.261 . S
C758 H728 0.931 . S
C758 C755 1.357 1_455 S
C758 C759 1.312 . S
C759 H730 0.930 . S
C759 C754 1.261 . S
C759 C758 1.312 . S
C760 O732 1.214 . S
C760 O740 1.234 . S
C761 H733 0.929 . S
C761 C764 1.391 . S
C761 C766 1.391 . S
C762 H734 0.929 . S
C762 C763 1.390 . S
C762 N765 1.391 . S
C763 H735 0.930 . S
C763 C762 1.390 . S
C763 C764 1.392 . S
C764 H736 0.929 . S
C764 C761 1.391 . S
C764 C763 1.392 . S
N765 Co709 2.257 . S
N765 C762 1.391 . S
N765 C766 1.388 . S
C766 H737 0.930 . S
C766 C761 1.391 . S
C766 N765 1.388 . S
Co767 O769 2.143 . S
Co767 O775 2.074 . S
Co767 O778 2.093 . S
Co767 O791 2.097 . S
Co767 N808 2.151 . S
Co767 N816 2.214 . S
Co768 O769 2.160 . S
Co768 O774 2.058 . S
Co768 O784 2.057 . S
Co768 O799 2.037 . S
Co768 N803 2.145 . S
Co768 N824 2.257 . S
O769 Co767 2.143 . S
O769 Co768 2.160 . S
C770 O771 1.278 . S
C770 O778 1.224 . S
O771 C770 1.278 . S
C772 O773 1.245 . S
C772 O784 1.232 . S
O773 C772 1.245 . S
O774 Co768 2.058 . S
O774 C800 1.269 . S
O775 Co767 2.074 . S
O775 C800 1.257 . S
H776 C801 0.930 . S
H777 C807 0.930 . S
O778 Co767 2.093 . S
O778 C770 1.224 . S
H779 C811 0.929 1_545 S
H780 C813 0.930 . S
H781 C814 0.930 . S
H782 C812 0.929 . S
H783 C815 0.928 . S
O784 Co768 2.057 . S
O784 C772 1.232 . S
H785 C804 0.929 . S
H786 C805 0.929 . S
H787 C817 0.931 . S
H788 C809 0.929 . S
H789 C818 0.930 . S
H790 C810 0.931 . S
O791 Co767 2.097 . S
O791 C819 1.214 . S
H792 C820 0.929 . S
H793 C821 0.929 . S
H794 C822 0.930 . S
H795 C823 0.929 . S
H796 C825 0.930 . S
H797 C802 0.930 . S
H798 C806 0.930 . S
O799 Co768 2.037 . S
O799 C819 1.234 . S
C800 O774 1.269 . S
C800 O775 1.257 . S
C801 H776 0.930 . S
C801 C804 1.388 . S
C801 C806 1.418 . S
C802 H797 0.930 . S
C802 C805 1.404 . S
C802 C806 1.353 . S
N803 Co768 2.145 . S
N803 C804 1.397 . S
N803 C805 1.334 . S
C804 H785 0.929 . S
C804 C801 1.388 . S
C804 N803 1.397 . S
C805 H786 0.929 . S
C805 C802 1.404 . S
C805 N803 1.334 . S
C806 H798 0.930 . S
C806 C801 1.418 . S
C806 C802 1.353 . S
C807 H777 0.930 . S
C807 N808 1.330 . S
C807 C809 1.446 . S
N808 Co767 2.151 . S
N808 C807 1.330 . S
N808 C812 1.418 . S
C809 H788 0.929 . S
C809 C807 1.446 . S
C809 C810 1.332 . S
C810 H790 0.931 . S
C810 C809 1.332 . S
C810 C811 1.267 . S
C811 H779 0.929 1_565 S
C811 C810 1.267 . S
C811 C812 1.251 . S
C812 H782 0.929 . S
C812 N808 1.418 . S
C812 C811 1.251 . S
C813 H780 0.930 . S
C813 C815 1.406 1_545 S
C813 C818 1.261 . S
C814 H781 0.930 . S
C814 N816 1.325 . S
C814 C817 1.357 1_565 S
C815 H783 0.928 . S
C815 C813 1.406 1_565 S
C815 N816 1.261 . S
N816 Co767 2.214 . S
N816 C814 1.325 . S
N816 C815 1.261 . S
C817 H787 0.931 . S
C817 C814 1.357 1_545 S
C817 C818 1.312 . S
C818 H789 0.930 . S
C818 C813 1.261 . S
C818 C817 1.312 . S
C819 O791 1.214 . S
C819 O799 1.234 . S
C820 H792 0.929 . S
C820 C823 1.391 . S
C820 C825 1.391 . S
C821 H793 0.929 . S
C821 C822 1.390 . S
C821 N824 1.391 . S
C822 H794 0.930 . S
C822 C821 1.390 . S
C822 C823 1.392 . S
C823 H795 0.929 . S
C823 C820 1.391 . S
C823 C822 1.392 . S
N824 Co768 2.257 . S
N824 C821 1.391 . S
N824 C825 1.388 . S
C825 H796 0.930 . S
C825 C820 1.391 . S
C825 N824 1.388 . S
Co826 O828 2.143 . S
Co826 O834 2.074 . S
Co826 O837 2.093 . S
Co826 O850 2.097 . S
Co826 N867 2.151 . S
Co826 N875 2.214 . S
Co827 O828 2.160 . S
Co827 O833 2.058 . S
Co827 O843 2.057 . S
Co827 O858 2.037 . S
Co827 N862 2.145 . S
Co827 N883 2.257 . S
O828 Co826 2.143 . S
O828 Co827 2.160 . S
C829 O830 1.278 . S
C829 O837 1.224 . S
O830 C829 1.278 . S
C831 O832 1.245 . S
C831 O843 1.232 . S
O832 C831 1.245 . S
O833 Co827 2.058 . S
O833 C859 1.269 . S
O834 Co826 2.074 . S
O834 C859 1.257 . S
H835 C860 0.930 . S
H836 C866 0.930 . S
O837 Co826 2.093 . S
O837 C829 1.224 . S
H838 C870 0.929 1_655 S
H839 C872 0.930 . S
H840 C873 0.930 . S
H841 C871 0.929 . S
H842 C874 0.928 . S
O843 Co827 2.057 . S
O843 C831 1.232 . S
H844 C863 0.929 . S
H845 C864 0.929 . S
H846 C876 0.931 . S
H847 C868 0.929 . S
H848 C877 0.930 . S
H849 C869 0.931 . S
O850 Co826 2.097 . S
O850 C878 1.214 . S
H851 C879 0.929 . S
H852 C880 0.929 . S
H853 C881 0.930 . S
H854 C882 0.929 . S
H855 C884 0.930 . S
H856 C861 0.930 . S
H857 C865 0.930 . S
O858 Co827 2.037 . S
O858 C878 1.234 . S
C859 O833 1.269 . S
C859 O834 1.257 . S
C860 H835 0.930 . S
C860 C863 1.388 . S
C860 C865 1.418 . S
C861 H856 0.930 . S
C861 C864 1.404 . S
C861 C865 1.353 . S
N862 Co827 2.145 . S
N862 C863 1.397 . S
N862 C864 1.334 . S
C863 H844 0.929 . S
C863 C860 1.388 . S
C863 N862 1.397 . S
C864 H845 0.929 . S
C864 C861 1.404 . S
C864 N862 1.334 . S
C865 H857 0.930 . S
C865 C860 1.418 . S
C865 C861 1.353 . S
C866 H836 0.930 . S
C866 N867 1.330 . S
C866 C868 1.446 . S
N867 Co826 2.151 . S
N867 C866 1.330 . S
N867 C871 1.418 . S
C868 H847 0.929 . S
C868 C866 1.446 . S
C868 C869 1.332 . S
C869 H849 0.931 . S
C869 C868 1.332 . S
C869 C870 1.267 . S
C870 H838 0.929 1_455 S
C870 C869 1.267 . S
C870 C871 1.251 . S
C871 H841 0.929 . S
C871 N867 1.418 . S
C871 C870 1.251 . S
C872 H839 0.930 . S
C872 C874 1.406 1_655 S
C872 C877 1.261 . S
C873 H840 0.930 . S
C873 N875 1.325 . S
C873 C876 1.357 1_455 S
C874 H842 0.928 . S
C874 C872 1.406 1_455 S
C874 N875 1.261 . S
N875 Co826 2.214 . S
N875 C873 1.325 . S
N875 C874 1.261 . S
C876 H846 0.931 . S
C876 C873 1.357 1_655 S
C876 C877 1.312 . S
C877 H848 0.930 . S
C877 C872 1.261 . S
C877 C876 1.312 . S
C878 O850 1.214 . S
C878 O858 1.234 . S
C879 H851 0.929 . S
C879 C882 1.391 . S
C879 C884 1.391 . S
C880 H852 0.929 . S
C880 C881 1.390 . S
C880 N883 1.391 . S
C881 H853 0.930 . S
C881 C880 1.390 . S
C881 C882 1.392 . S
C882 H854 0.929 . S
C882 C879 1.391 . S
C882 C881 1.392 . S
N883 Co827 2.257 . S
N883 C880 1.391 . S
N883 C884 1.388 . S
C884 H855 0.930 . S
C884 C879 1.391 . S
C884 N883 1.388 . S
Co885 O887 2.143 . S
Co885 O893 2.074 . S
Co885 O896 2.093 . S
Co885 O909 2.097 . S
Co885 N926 2.151 . S
Co885 N934 2.214 . S
Co886 O887 2.160 . S
Co886 O892 2.058 . S
Co886 O902 2.057 . S
Co886 O917 2.037 . S
Co886 N921 2.145 . S
Co886 N942 2.257 . S
O887 Co885 2.143 . S
O887 Co886 2.160 . S
C888 O889 1.278 . S
C888 O896 1.224 . S
O889 C888 1.278 . S
C890 O891 1.245 . S
C890 O902 1.232 . S
O891 C890 1.245 . S
O892 Co886 2.058 . S
O892 C918 1.269 . S
O893 Co885 2.074 . S
O893 C918 1.257 . S
H894 C919 0.930 . S
H895 C925 0.930 . S
O896 Co885 2.093 . S
O896 C888 1.224 . S
H897 C929 0.929 1_565 S
H898 C931 0.930 . S
H899 C932 0.930 . S
H900 C930 0.929 . S
H901 C933 0.928 . S
O902 Co886 2.057 . S
O902 C890 1.232 . S
H903 C922 0.929 . S
H904 C923 0.929 . S
H905 C935 0.931 . S
H906 C927 0.929 . S
H907 C936 0.930 . S
H908 C928 0.931 . S
O909 Co885 2.097 . S
O909 C937 1.214 . S
H910 C938 0.929 . S
H911 C939 0.929 . S
H912 C940 0.930 . S
H913 C941 0.929 . S
H914 C943 0.930 . S
H915 C920 0.930 . S
H916 C924 0.930 . S
O917 Co886 2.037 . S
O917 C937 1.234 . S
C918 O892 1.269 . S
C918 O893 1.257 . S
C919 H894 0.930 . S
C919 C922 1.388 . S
C919 C924 1.418 . S
C920 H915 0.930 . S
C920 C923 1.404 . S
C920 C924 1.353 . S
N921 Co886 2.145 . S
N921 C922 1.397 . S
N921 C923 1.334 . S
C922 H903 0.929 . S
C922 C919 1.388 . S
C922 N921 1.397 . S
C923 H904 0.929 . S
C923 C920 1.404 . S
C923 N921 1.334 . S
C924 H916 0.930 . S
C924 C919 1.418 . S
C924 C920 1.353 . S
C925 H895 0.930 . S
C925 N926 1.330 . S
C925 C927 1.446 . S
N926 Co885 2.151 . S
N926 C925 1.330 . S
N926 C930 1.418 . S
C927 H906 0.929 . S
C927 C925 1.446 . S
C927 C928 1.332 . S
C928 H908 0.931 . S
C928 C927 1.332 . S
C928 C929 1.267 . S
C929 H897 0.929 1_545 S
C929 C928 1.267 . S
C929 C930 1.251 . S
C930 H900 0.929 . S
C930 N926 1.418 . S
C930 C929 1.251 . S
C931 H898 0.930 . S
C931 C933 1.406 1_565 S
C931 C936 1.261 . S
C932 H899 0.930 . S
C932 N934 1.325 . S
C932 C935 1.357 1_545 S
C933 H901 0.928 . S
C933 C931 1.406 1_545 S
C933 N934 1.261 . S
N934 Co885 2.214 . S
N934 C932 1.325 . S
N934 C933 1.261 . S
C935 H905 0.931 . S
C935 C932 1.357 1_565 S
C935 C936 1.312 . S
C936 H907 0.930 . S
C936 C931 1.261 . S
C936 C935 1.312 . S
C937 O909 1.214 . S
C937 O917 1.234 . S
C938 H910 0.929 . S
C938 C941 1.391 . S
C938 C943 1.391 . S
C939 H911 0.929 . S
C939 C940 1.390 . S
C939 N942 1.391 . S
C940 H912 0.930 . S
C940 C939 1.390 . S
C940 C941 1.392 . S
C941 H913 0.929 . S
C941 C938 1.391 . S
C941 C940 1.392 . S
N942 Co886 2.257 . S
N942 C939 1.391 . S
N942 C943 1.388 . S
C943 H914 0.930 . S
C943 C938 1.391 . S
C943 N942 1.388 . S
C944 C945 1.369 . S
C944 C946 1.419 . S
C944 H948 0.930 . S
C945 C944 1.369 . S
C945 C954 1.429 . S
C946 C944 1.419 . S
C946 C947 1.363 . S
C946 H949 0.929 . S
C947 C946 1.363 . S
C947 C953 1.428 . S
H948 C944 0.930 . S
H949 C946 0.929 . S
S950 N951 1.613 . S
S950 N952 1.610 . S
N951 S950 1.613 . S
N951 C954 1.350 . S
N952 S950 1.610 . S
N952 C953 1.351 . S
C953 C947 1.428 . S
C953 N952 1.351 . S
C953 C954 1.434 . S
C954 C945 1.429 . S
C954 N951 1.350 . S
C954 C953 1.434 . S
C955 C956 1.369 . S
C955 C957 1.419 . S
C955 H959 0.930 . S
C956 C955 1.369 . S
C956 C965 1.429 . S
C957 C955 1.419 . S
C957 C958 1.363 . S
C957 H960 0.929 . S
C958 C957 1.363 . S
C958 C964 1.428 . S
H959 C955 0.930 . S
H960 C957 0.929 . S
S961 N962 1.613 . S
S961 N963 1.610 . S
N962 S961 1.613 . S
N962 C965 1.350 . S
N963 S961 1.610 . S
N963 C964 1.351 . S
C964 C958 1.428 . S
C964 N963 1.351 . S
C964 C965 1.434 . S
C965 C956 1.429 . S
C965 N962 1.350 . S
C965 C964 1.434 . S
C966 C967 1.369 . S
C966 C968 1.419 . S
C966 H970 0.930 . S
C967 C966 1.369 . S
C967 C976 1.429 . S
C968 C966 1.419 . S
C968 C969 1.363 . S
C968 H971 0.929 . S
C969 C968 1.363 . S
C969 C975 1.428 . S
H970 C966 0.930 . S
H971 C968 0.929 . S
S972 N973 1.613 . S
S972 N974 1.610 . S
N973 S972 1.613 . S
N973 C976 1.350 . S
N974 S972 1.610 . S
N974 C975 1.351 . S
C975 C969 1.428 . S
C975 N974 1.351 . S
C975 C976 1.434 . S
C976 C967 1.429 . S
C976 N973 1.350 . S
C976 C975 1.434 . S
C977 C978 1.369 . S
C977 C979 1.419 . S
C977 H981 0.930 . S
C978 C977 1.369 . S
C978 C987 1.429 . S
C979 C977 1.419 . S
C979 C980 1.363 . S
C979 H982 0.929 . S
C980 C979 1.363 . S
C980 C986 1.428 . S
H981 C977 0.930 . S
H982 C979 0.929 . S
S983 N984 1.613 . S
S983 N985 1.610 . S
N984 S983 1.613 . S
N984 C987 1.350 . S
N985 S983 1.610 . S
N985 C986 1.351 . S
C986 C980 1.428 . S
C986 N985 1.351 . S
C986 C987 1.434 . S
C987 C978 1.429 . S
C987 N984 1.350 . S
C987 C986 1.434 . S
C988 C989 1.369 . S
C988 C990 1.419 . S
C988 H992 0.930 . S
C989 C988 1.369 . S
C989 C998 1.429 . S
C990 C988 1.419 . S
C990 C991 1.363 . S
C990 H993 0.929 . S
C991 C990 1.363 . S
C991 C997 1.428 . S
H992 C988 0.930 . S
H993 C990 0.929 . S
S994 N995 1.613 . S
S994 N996 1.610 . S
N995 S994 1.613 . S
N995 C998 1.350 . S
N996 S994 1.610 . S
N996 C997 1.351 . S
C997 C991 1.428 . S
C997 N996 1.351 . S
C997 C998 1.434 . S
C998 C989 1.429 . S
C998 N995 1.350 . S
C998 C997 1.434 . S
C999 C1000 1.369 . S
C999 C1001 1.419 . S
C999 H1003 0.930 . S
C1000 C999 1.369 . S
C1000 C1009 1.429 . S
C1001 C999 1.419 . S
C1001 C1002 1.363 . S
C1001 H1004 0.929 . S
C1002 C1001 1.363 . S
C1002 C1008 1.428 . S
H1003 C999 0.930 . S
H1004 C1001 0.929 . S
S1005 N1006 1.613 . S
S1005 N1007 1.610 . S
N1006 S1005 1.613 . S
N1006 C1009 1.350 . S
N1007 S1005 1.610 . S
N1007 C1008 1.351 . S
C1008 C1002 1.428 . S
C1008 N1007 1.351 . S
C1008 C1009 1.434 . S
C1009 C1000 1.429 . S
C1009 N1006 1.350 . S
C1009 C1008 1.434 . S
C1010 C1011 1.369 . S
C1010 C1012 1.419 . S
C1010 H1014 0.930 . S
C1011 C1010 1.369 . S
C1011 C1020 1.429 . S
C1012 C1010 1.419 . S
C1012 C1013 1.363 . S
C1012 H1015 0.929 . S
C1013 C1012 1.363 . S
C1013 C1019 1.428 . S
H1014 C1010 0.930 . S
H1015 C1012 0.929 . S
S1016 N1017 1.613 . S
S1016 N1018 1.610 . S
N1017 S1016 1.613 . S
N1017 C1020 1.350 . S
N1018 S1016 1.610 . S
N1018 C1019 1.351 . S
C1019 C1013 1.428 . S
C1019 N1018 1.351 . S
C1019 C1020 1.434 . S
C1020 C1011 1.429 . S
C1020 N1017 1.350 . S
C1020 C1019 1.434 . S
C1021 C1022 1.369 . S
C1021 C1023 1.419 . S
C1021 H1025 0.930 . S
C1022 C1021 1.369 . S
C1022 C1031 1.429 . S
C1023 C1021 1.419 . S
C1023 C1024 1.363 . S
C1023 H1026 0.929 . S
C1024 C1023 1.363 . S
C1024 C1030 1.428 . S
H1025 C1021 0.930 . S
H1026 C1023 0.929 . S
S1027 N1028 1.613 . S
S1027 N1029 1.610 . S
N1028 S1027 1.613 . S
N1028 C1031 1.350 . S
N1029 S1027 1.610 . S
N1029 C1030 1.351 . S
C1030 C1024 1.428 . S
C1030 N1029 1.351 . S
C1030 C1031 1.434 . S
C1031 C1022 1.429 . S
C1031 N1028 1.350 . S
C1031 C1030 1.434 . S
C1032 C1033 1.369 . S
C1032 C1034 1.419 1_556 S
C1032 H1036 0.930 . S
C1033 C1032 1.369 . S
C1033 C1042 1.429 . S
C1034 C1032 1.419 1_554 S
C1034 C1035 1.363 . S
C1034 H1037 0.929 . S
C1035 C1034 1.363 . S
C1035 C1041 1.428 . S
H1036 C1032 0.930 . S
H1037 C1034 0.929 . S
S1038 N1039 1.597 1_554 S
S1038 N1040 1.626 . S
N1039 S1038 1.597 1_556 S
N1039 C1042 1.350 . S
N1040 S1038 1.626 . S
N1040 C1041 1.351 . S
C1041 C1035 1.428 . S
C1041 N1040 1.351 . S
C1041 C1042 1.434 1_554 S
C1042 C1033 1.429 . S
C1042 N1039 1.350 . S
C1042 C1041 1.434 1_556 S
C1043 C1044 1.369 . S
C1043 C1045 1.419 1_556 S
C1043 H1047 0.930 . S
C1044 C1043 1.369 . S
C1044 C1053 1.429 . S
C1045 C1043 1.419 1_554 S
C1045 C1046 1.363 . S
C1045 H1048 0.929 . S
C1046 C1045 1.363 . S
C1046 C1052 1.428 . S
H1047 C1043 0.930 . S
H1048 C1045 0.929 . S
S1049 N1050 1.613 . S
S1049 N1051 1.610 1_556 S
N1050 S1049 1.613 . S
N1050 C1053 1.350 . S
N1051 S1049 1.610 1_554 S
N1051 C1052 1.351 . S
C1052 C1046 1.428 . S
C1052 N1051 1.351 . S
C1052 C1053 1.434 1_554 S
C1053 C1044 1.429 . S
C1053 N1050 1.350 . S
C1053 C1052 1.434 1_556 S
C1054 C1055 1.369 . S
C1054 C1056 1.419 1_556 S
C1054 H1058 0.930 . S
C1055 C1054 1.369 . S
C1055 C1064 1.429 . S
C1056 C1054 1.419 1_554 S
C1056 C1057 1.363 . S
C1056 H1059 0.929 . S
C1057 C1056 1.363 . S
C1057 C1063 1.428 . S
H1058 C1054 0.930 . S
H1059 C1056 0.929 . S
S1060 N1061 1.592 1_554 S
S1060 N1062 1.631 . S
N1061 S1060 1.592 1_556 S
N1061 C1064 1.350 . S
N1062 S1060 1.631 . S
N1062 C1063 1.351 . S
C1063 C1057 1.428 . S
C1063 N1062 1.351 . S
C1063 C1064 1.434 1_554 S
C1064 C1055 1.429 . S
C1064 N1061 1.350 . S
C1064 C1063 1.434 1_556 S
C1065 C1066 1.369 . S
C1065 C1067 1.419 1_554 S
C1065 H1069 0.930 . S
C1066 C1065 1.369 . S
C1066 C1075 1.429 . S
C1067 C1065 1.419 1_556 S
C1067 C1068 1.363 . S
C1067 H1070 0.929 . S
C1068 C1067 1.363 . S
C1068 C1074 1.428 . S
H1069 C1065 0.930 . S
H1070 C1067 0.929 . S
S1071 N1072 1.612 . S
S1071 N1073 1.612 1_554 S
N1072 S1071 1.612 . S
N1072 C1075 1.350 . S
N1073 S1071 1.612 1_556 S
N1073 C1074 1.351 . S
C1074 C1068 1.428 . S
C1074 N1073 1.351 . S
C1074 C1075 1.434 1_556 S
C1075 C1066 1.429 . S
C1075 N1072 1.350 . S
C1075 C1074 1.434 1_554 S
C1076 C1077 1.369 . S
C1076 C1078 1.419 . S
C1076 H1080 0.930 . S
C1077 C1076 1.369 . S
C1077 C1086 1.429 . S
C1078 C1076 1.419 . S
C1078 C1079 1.363 . S
C1078 H1081 0.929 . S
C1079 C1078 1.363 . S
C1079 C1085 1.428 . S
H1080 C1076 0.930 . S
H1081 C1078 0.929 . S
S1082 N1083 1.613 . S
S1082 N1084 1.610 . S
N1083 S1082 1.613 . S
N1083 C1086 1.350 . S
N1084 S1082 1.610 . S
N1084 C1085 1.351 . S
C1085 C1079 1.428 . S
C1085 N1084 1.351 . S
C1085 C1086 1.434 . S
C1086 C1077 1.429 . S
C1086 N1083 1.350 . S
C1086 C1085 1.434 . S
C1087 C1088 1.369 . S
C1087 C1089 1.419 . S
C1087 H1091 0.930 . S
C1088 C1087 1.369 . S
C1088 C1097 1.429 . S
C1089 C1087 1.419 . S
C1089 C1090 1.363 . S
C1089 H1092 0.929 . S
C1090 C1089 1.363 . S
C1090 C1096 1.428 . S
H1091 C1087 0.930 . S
H1092 C1089 0.929 . S
S1093 N1094 1.613 . S
S1093 N1095 1.610 . S
N1094 S1093 1.613 . S
N1094 C1097 1.350 . S
N1095 S1093 1.610 . S
N1095 C1096 1.351 . S
C1096 C1090 1.428 . S
C1096 N1095 1.351 . S
C1096 C1097 1.434 . S
C1097 C1088 1.429 . S
C1097 N1094 1.350 . S
C1097 C1096 1.434 . S
C1098 C1099 1.369 . S
C1098 C1100 1.419 . S
C1098 H1102 0.930 . S
C1099 C1098 1.369 . S
C1099 C1108 1.429 . S
C1100 C1098 1.419 . S
C1100 C1101 1.363 . S
C1100 H1103 0.929 . S
C1101 C1100 1.363 . S
C1101 C1107 1.428 . S
H1102 C1098 0.930 . S
H1103 C1100 0.929 . S
S1104 N1105 1.613 . S
S1104 N1106 1.610 . S
N1105 S1104 1.613 . S
N1105 C1108 1.350 . S
N1106 S1104 1.610 . S
N1106 C1107 1.351 . S
C1107 C1101 1.428 . S
C1107 N1106 1.351 . S
C1107 C1108 1.434 . S
C1108 C1099 1.429 . S
C1108 N1105 1.350 . S
C1108 C1107 1.434 . S
C1109 C1110 1.369 . S
C1109 C1111 1.419 . S
C1109 H1113 0.930 . S
C1110 C1109 1.369 . S
C1110 C1119 1.429 . S
C1111 C1109 1.419 . S
C1111 C1112 1.363 . S
C1111 H1114 0.929 . S
C1112 C1111 1.363 . S
C1112 C1118 1.428 . S
H1113 C1109 0.930 . S
H1114 C1111 0.929 . S
S1115 N1116 1.613 . S
S1115 N1117 1.610 . S
N1116 S1115 1.613 . S
N1116 C1119 1.350 . S
N1117 S1115 1.610 . S
N1117 C1118 1.351 . S
C1118 C1112 1.428 . S
C1118 N1117 1.351 . S
C1118 C1119 1.434 . S
C1119 C1110 1.429 . S
C1119 N1116 1.350 . S
C1119 C1118 1.434 . S
C1120 C1121 1.369 . S
C1120 C1122 1.419 . S
C1120 H1124 0.930 . S
C1121 C1120 1.369 . S
C1121 C1130 1.429 . S
C1122 C1120 1.419 . S
C1122 C1123 1.363 . S
C1122 H1125 0.929 . S
C1123 C1122 1.363 . S
C1123 C1129 1.428 . S
H1124 C1120 0.930 . S
H1125 C1122 0.929 . S
S1126 N1127 1.613 . S
S1126 N1128 1.610 . S
N1127 S1126 1.613 . S
N1127 C1130 1.350 . S
N1128 S1126 1.610 . S
N1128 C1129 1.351 . S
C1129 C1123 1.428 . S
C1129 N1128 1.351 . S
C1129 C1130 1.434 . S
C1130 C1121 1.429 . S
C1130 N1127 1.350 . S
C1130 C1129 1.434 . S
C1131 C1132 1.369 . S
C1131 C1133 1.419 . S
C1131 H1135 0.930 . S
C1132 C1131 1.369 . S
C1132 C1141 1.429 . S
C1133 C1131 1.419 . S
C1133 C1134 1.363 . S
C1133 H1136 0.929 . S
C1134 C1133 1.363 . S
C1134 C1140 1.428 . S
H1135 C1131 0.930 . S
H1136 C1133 0.929 . S
S1137 N1138 1.613 . S
S1137 N1139 1.610 . S
N1138 S1137 1.613 . S
N1138 C1141 1.350 . S
N1139 S1137 1.610 . S
N1139 C1140 1.351 . S
C1140 C1134 1.428 . S
C1140 N1139 1.351 . S
C1140 C1141 1.434 . S
C1141 C1132 1.429 . S
C1141 N1138 1.350 . S
C1141 C1140 1.434 . S
C1142 C1143 1.369 . S
C1142 C1144 1.419 . S
C1142 H1146 0.930 . S
C1143 C1142 1.369 . S
C1143 C1152 1.429 . S
C1144 C1142 1.419 . S
C1144 C1145 1.363 . S
C1144 H1147 0.929 . S
C1145 C1144 1.363 . S
C1145 C1151 1.428 . S
H1146 C1142 0.930 . S
H1147 C1144 0.929 . S
S1148 N1149 1.613 . S
S1148 N1150 1.610 . S
N1149 S1148 1.613 . S
N1149 C1152 1.350 . S
N1150 S1148 1.610 . S
N1150 C1151 1.351 . S
C1151 C1145 1.428 . S
C1151 N1150 1.351 . S
C1151 C1152 1.434 . S
C1152 C1143 1.429 . S
C1152 N1149 1.350 . S
C1152 C1151 1.434 . S
C1153 C1154 1.369 . S
C1153 C1155 1.419 . S
C1153 H1157 0.930 . S
C1154 C1153 1.369 . S
C1154 C1163 1.429 . S
C1155 C1153 1.419 . S
C1155 C1156 1.363 . S
C1155 H1158 0.929 . S
C1156 C1155 1.363 . S
C1156 C1162 1.428 . S
H1157 C1153 0.930 . S
H1158 C1155 0.929 . S
S1159 N1160 1.613 . S
S1159 N1161 1.610 . S
N1160 S1159 1.613 . S
N1160 C1163 1.350 . S
N1161 S1159 1.610 . S
N1161 C1162 1.351 . S
C1162 C1156 1.428 . S
C1162 N1161 1.351 . S
C1162 C1163 1.434 . S
C1163 C1154 1.429 . S
C1163 N1160 1.350 . S
C1163 C1162 1.434 . S
C1164 C1165 1.369 . S
C1164 C1166 1.419 . S
C1164 H1168 0.930 . S
C1165 C1164 1.369 . S
C1165 C1174 1.429 . S
C1166 C1164 1.419 . S
C1166 C1167 1.363 . S
C1166 H1169 0.929 . S
C1167 C1166 1.363 . S
C1167 C1173 1.428 . S
H1168 C1164 0.930 . S
H1169 C1166 0.929 . S
S1170 N1171 1.613 . S
S1170 N1172 1.610 . S
N1171 S1170 1.613 . S
N1171 C1174 1.350 . S
N1172 S1170 1.610 . S
N1172 C1173 1.351 . S
C1173 C1167 1.428 . S
C1173 N1172 1.351 . S
C1173 C1174 1.434 . S
C1174 C1165 1.429 . S
C1174 N1171 1.350 . S
C1174 C1173 1.434 . S
C1175 C1176 1.369 . S
C1175 C1177 1.419 . S
C1175 H1179 0.930 . S
C1176 C1175 1.369 . S
C1176 C1185 1.429 . S
C1177 C1175 1.419 . S
C1177 C1178 1.363 . S
C1177 H1180 0.929 . S
C1178 C1177 1.363 . S
C1178 C1184 1.428 . S
H1179 C1175 0.930 . S
H1180 C1177 0.929 . S
S1181 N1182 1.613 . S
S1181 N1183 1.610 . S
N1182 S1181 1.613 . S
N1182 C1185 1.350 . S
N1183 S1181 1.610 . S
N1183 C1184 1.351 . S
C1184 C1178 1.428 . S
C1184 N1183 1.351 . S
C1184 C1185 1.434 . S
C1185 C1176 1.429 . S
C1185 N1182 1.350 . S
C1185 C1184 1.434 . S
C1186 C1187 1.369 . S
C1186 C1188 1.419 . S
C1186 H1190 0.930 . S
C1187 C1186 1.369 . S
C1187 C1196 1.429 . S
C1188 C1186 1.419 . S
C1188 C1189 1.363 . S
C1188 H1191 0.929 . S
C1189 C1188 1.363 . S
C1189 C1195 1.428 . S
H1190 C1186 0.930 . S
H1191 C1188 0.929 . S
S1192 N1193 1.613 . S
S1192 N1194 1.610 . S
N1193 S1192 1.613 . S
N1193 C1196 1.350 . S
N1194 S1192 1.610 . S
N1194 C1195 1.351 . S
C1195 C1189 1.428 . S
C1195 N1194 1.351 . S
C1195 C1196 1.434 . S
C1196 C1187 1.429 . S
C1196 N1193 1.350 . S
C1196 C1195 1.434 . S
C1197 C1198 1.369 . S
C1197 C1199 1.419 . S
C1197 H1201 0.930 . S
C1198 C1197 1.369 . S
C1198 C1207 1.429 . S
C1199 C1197 1.419 . S
C1199 C1200 1.363 . S
C1199 H1202 0.929 . S
C1200 C1199 1.363 . S
C1200 C1206 1.428 . S
H1201 C1197 0.930 . S
H1202 C1199 0.929 . S
S1203 N1204 1.613 . S
S1203 N1205 1.610 . S
N1204 S1203 1.613 . S
N1204 C1207 1.350 . S
N1205 S1203 1.610 . S
N1205 C1206 1.351 . S
C1206 C1200 1.428 . S
C1206 N1205 1.351 . S
C1206 C1207 1.434 . S
C1207 C1198 1.429 . S
C1207 N1204 1.350 . S
C1207 C1206 1.434 . S
C1208 C1209 1.369 . S
C1208 C1210 1.419 1_545 S
C1208 H1212 0.930 . S
C1209 C1208 1.369 . S
C1209 C1218 1.429 . S
C1210 C1208 1.419 1_565 S
C1210 C1211 1.363 . S
C1210 H1213 0.929 . S
C1211 C1210 1.363 . S
C1211 C1217 1.428 . S
H1212 C1208 0.930 . S
H1213 C1210 0.929 . S
S1214 N1215 1.613 . S
S1214 N1216 1.610 1_545 S
N1215 S1214 1.613 . S
N1215 C1218 1.350 . S
N1216 S1214 1.610 1_565 S
N1216 C1217 1.351 . S
C1217 C1211 1.428 . S
C1217 N1216 1.351 . S
C1217 C1218 1.434 1_565 S
C1218 C1209 1.429 . S
C1218 N1215 1.350 . S
C1218 C1217 1.434 1_545 S
C1219 C1220 1.369 . S
C1219 C1221 1.419 1_655 S
C1219 H1223 0.930 . S
C1220 C1219 1.369 . S
C1220 C1229 1.429 . S
C1221 C1219 1.419 1_455 S
C1221 C1222 1.363 . S
C1221 H1224 0.929 . S
C1222 C1221 1.363 . S
C1222 C1228 1.428 . S
H1223 C1219 0.930 . S
H1224 C1221 0.929 . S
S1225 N1226 1.613 1_455 S
S1225 N1227 1.610 . S
N1226 S1225 1.613 1_655 S
N1226 C1229 1.350 . S
N1227 S1225 1.610 . S
N1227 C1228 1.351 . S
C1228 C1222 1.428 . S
C1228 N1227 1.351 . S
C1228 C1229 1.434 1_455 S
C1229 C1220 1.429 . S
C1229 N1226 1.350 . S
C1229 C1228 1.434 1_655 S
C1230 C1231 1.369 . S
C1230 C1232 1.419 1_545 S
C1230 H1234 0.930 . S
C1231 C1230 1.369 . S
C1231 C1240 1.429 . S
C1232 C1230 1.419 1_565 S
C1232 C1233 1.363 . S
C1232 H1235 0.929 . S
C1233 C1232 1.363 . S
C1233 C1239 1.428 . S
H1234 C1230 0.930 . S
H1235 C1232 0.929 . S
S1236 N1237 1.613 1_565 S
S1236 N1238 1.610 . S
N1237 S1236 1.613 1_545 S
N1237 C1240 1.350 . S
N1238 S1236 1.610 . S
N1238 C1239 1.351 . S
C1239 C1233 1.428 . S
C1239 N1238 1.351 . S
C1239 C1240 1.434 1_565 S
C1240 C1231 1.429 . S
C1240 N1237 1.350 . S
C1240 C1239 1.434 1_545 S
C1241 C1242 1.369 . S
C1241 C1243 1.419 1_455 S
C1241 H1245 0.930 . S
C1242 C1241 1.369 . S
C1242 C1251 1.429 . S
C1243 C1241 1.419 1_655 S
C1243 C1244 1.363 . S
C1243 H1246 0.929 . S
C1244 C1243 1.363 . S
C1244 C1250 1.428 . S
H1245 C1241 0.930 . S
H1246 C1243 0.929 . S
S1247 N1248 1.613 1_655 S
S1247 N1249 1.610 . S
N1248 S1247 1.613 1_455 S
N1248 C1251 1.350 . S
N1249 S1247 1.610 . S
N1249 C1250 1.351 . S
C1250 C1244 1.428 . S
C1250 N1249 1.351 . S
C1250 C1251 1.434 1_655 S
C1251 C1242 1.429 . S
C1251 N1248 1.350 . S
C1251 C1250 1.434 1_455 S
C1252 C1253 1.369 . S
C1252 C1254 1.419 1_545 S
C1252 H1256 0.930 . S
C1253 C1252 1.369 . S
C1253 C1262 1.448 . S
C1254 C1252 1.419 1_565 S
C1254 C1255 1.363 . S
C1254 H1257 0.929 . S
C1255 C1254 1.363 . S
C1255 C1261 1.428 . S
H1256 C1252 0.930 . S
H1257 C1254 0.929 . S
S1258 N1259 1.613 . S
S1258 N1260 1.610 . S
N1259 S1258 1.613 . S
N1259 C1262 1.348 1_565 S
N1260 S1258 1.610 . S
N1260 C1261 1.351 . S
C1261 C1255 1.428 . S
C1261 N1260 1.351 . S
C1261 C1262 1.414 1_565 S
C1262 C1253 1.448 . S
C1262 N1259 1.348 1_545 S
C1262 C1261 1.414 1_545 S
C1263 C1264 1.369 . S
C1263 C1265 1.419 1_655 S
C1263 H1267 0.930 . S
C1264 C1263 1.369 . S
C1264 C1273 1.429 . S
C1265 C1263 1.419 1_455 S
C1265 C1266 1.363 . S
C1265 H1268 0.929 . S
C1266 C1265 1.363 . S
C1266 C1272 1.428 . S
H1267 C1263 0.930 . S
H1268 C1265 0.929 . S
S1269 N1270 1.613 1_455 S
S1269 N1271 1.610 . S
N1270 S1269 1.613 1_655 S
N1270 C1273 1.350 . S
N1271 S1269 1.610 . S
N1271 C1272 1.351 . S
C1272 C1266 1.428 . S
C1272 N1271 1.351 . S
C1272 C1273 1.434 1_455 S
C1273 C1264 1.429 . S
C1273 N1270 1.350 . S
C1273 C1272 1.434 1_655 S
C1274 C1275 1.369 . S
C1274 C1276 1.419 1_565 S
C1274 H1278 0.931 . S
C1275 C1274 1.369 . S
C1275 C1284 1.429 . S
C1276 C1274 1.419 1_545 S
C1276 C1277 1.363 . S
C1276 H1279 0.929 . S
C1277 C1276 1.363 . S
C1277 C1283 1.434 . S
H1278 C1274 0.931 . S
H1279 C1276 0.929 . S
S1280 N1281 1.613 . S
S1280 N1282 1.610 . S
N1281 S1280 1.613 . S
N1281 C1284 1.350 . S
N1282 S1280 1.610 . S
N1282 C1283 1.350 1_565 S
C1283 C1277 1.434 . S
C1283 N1282 1.350 1_545 S
C1283 C1284 1.429 1_545 S
C1284 C1275 1.429 . S
C1284 N1281 1.350 . S
C1284 C1283 1.429 1_565 S
C1285 C1286 1.369 . S
C1285 C1287 1.419 1_455 S
C1285 H1289 0.930 . S
C1286 C1285 1.369 . S
C1286 C1295 1.429 . S
C1287 C1285 1.419 1_655 S
C1287 C1288 1.363 . S
C1287 H1290 0.929 . S
C1288 C1287 1.363 . S
C1288 C1294 1.428 . S
H1289 C1285 0.930 . S
H1290 C1287 0.929 . S
S1291 N1292 1.613 1_655 S
S1291 N1293 1.610 . S
N1292 S1291 1.613 1_455 S
N1292 C1295 1.350 . S
N1293 S1291 1.610 . S
N1293 C1294 1.351 . S
C1294 C1288 1.428 . S
C1294 N1293 1.351 . S
C1294 C1295 1.434 1_655 S
C1295 C1286 1.429 . S
C1295 N1292 1.350 . S
C1295 C1294 1.434 1_455 S
C945 C300 1.643 . S
C947 C5 1.640 . S
C956 C359 1.643 . S
C958 C64 1.639 . S
C967 C123 1.643 . S
C969 C418 1.641 . S
C978 C182 1.643 . S
C980 C241 1.640 . S
C989 C772 1.640 . S
C991 C477 1.643 . S
C1000 C831 1.643 . S
C1002 C536 1.640 . S
C1011 C595 1.641 . S
C1013 C890 1.643 . S
C1022 C654 1.639 . S
C1024 C713 1.642 . S
C1033 C593 1.566 . S
C1035 C3 1.566 . S
C1044 C652 1.562 . S
C1046 C62 1.564 . S
C1055 C475 1.563 . S
C1057 C121 1.562 . S
C1066 C180 1.562 . S
C1068 C534 1.562 . S
C1077 C829 1.564 . S
C1079 C239 1.566 . S
C1088 C888 1.562 . S
C1090 C298 1.564 . S
C1099 C357 1.562 . S
C1101 C711 1.564 . S
C1110 C770 1.562 . S
C1112 C416 1.562 . S
C1121 C269 0.951 . S
C1123 C33 0.950 . S
C1132 C92 0.948 . S
C1134 C328 0.944 . S
C1143 C151 0.941 . S
C1145 C387 0.950 . S
C1154 C446 0.951 . S
C1156 C210 0.943 . S
C1165 C524 2.116 . S
C1167 C760 2.118 . S
C1176 C819 2.117 . S
C1178 C583 2.116 . S
C1187 C642 2.115 . S
C1189 C878 2.118 . S
C1198 C937 2.118 . S
C1200 C701 2.117 . S
C1209 C682 0.950 . S
C1211 C800 0.943 . S
C1220 C505 0.947 . S
C1222 C859 0.952 . S
C1231 C918 0.942 . S
C1233 C564 0.952 . S
C1242 C623 0.946 . S
C1244 C741 0.952 . S
C1253 C347 2.118 . S
C1255 C229 2.116 . S
C1264 C406 2.117 . S
C1266 C52 2.115 . S
C1275 C465 2.115 . S
C1277 C111 2.118 . S
C1286 C288 2.118 . S
C1288 C170 2.117 . S
