# Generated by pormake.
# Topology afi, (4)-cn, num edge types: 1
# Building blocks:
#     Node 0, Type 0, BuildingBlock: QUQFOY_clean_sbu_1, # of connection points: 4
#     Node 1, Type 0, BuildingBlock: QUQFOY_clean_sbu_1, # of connection points: 4
#     Node 2, Type 0, BuildingBlock: QUQFOY_clean_sbu_1, # of connection points: 4
#     Node 3, Type 0, BuildingBlock: QUQFOY_clean_sbu_1, # of connection points: 4
#     Node 4, Type 0, BuildingBlock: QUQFOY_clean_sbu_1, # of connection points: 4
#     Node 5, Type 0, BuildingBlock: QUQFOY_clean_sbu_1, # of connection points: 4
#     Node 6, Type 0, BuildingBlock: QUQFOY_clean_sbu_1, # of connection points: 4
#     Node 7, Type 0, BuildingBlock: QUQFOY_clean_sbu_1, # of connection points: 4
#     Node 8, Type 0, BuildingBlock: QUQFOY_clean_sbu_1, # of connection points: 4
#     Node 9, Type 0, BuildingBlock: QUQFOY_clean_sbu_1, # of connection points: 4
#     Node 10, Type 0, BuildingBlock: QUQFOY_clean_sbu_1, # of connection points: 4
#     Node 11, Type 0, BuildingBlock: QUQFOY_clean_sbu_1, # of connection points: 4
#     Node 12, Type 0, BuildingBlock: QUQFOY_clean_sbu_1, # of connection points: 4
#     Node 13, Type 0, BuildingBlock: QUQFOY_clean_sbu_1, # of connection points: 4
#     Node 14, Type 0, BuildingBlock: QUQFOY_clean_sbu_1, # of connection points: 4
#     Node 15, Type 0, BuildingBlock: QUQFOY_clean_sbu_1, # of connection points: 4
#     Node 16, Type 0, BuildingBlock: QUQFOY_clean_sbu_1, # of connection points: 4
#     Node 17, Type 0, BuildingBlock: QUQFOY_clean_sbu_1, # of connection points: 4
#     Node 18, Type 0, BuildingBlock: QUQFOY_clean_sbu_1, # of connection points: 4
#     Node 19, Type 0, BuildingBlock: QUQFOY_clean_sbu_1, # of connection points: 4
#     Node 20, Type 0, BuildingBlock: QUQFOY_clean_sbu_1, # of connection points: 4
#     Node 21, Type 0, BuildingBlock: QUQFOY_clean_sbu_1, # of connection points: 4
#     Node 22, Type 0, BuildingBlock: QUQFOY_clean_sbu_1, # of connection points: 4
#     Node 23, Type 0, BuildingBlock: QUQFOY_clean_sbu_1, # of connection points: 4
#     Edge 24, Type (0, 0), BuildingBlock: AJUNOK_clean_linker_0, # of connection points: 2
#     Edge 25, Type (0, 0), BuildingBlock: AJUNOK_clean_linker_0, # of connection points: 2
#     Edge 26, Type (0, 0), BuildingBlock: AJUNOK_clean_linker_0, # of connection points: 2
#     Edge 27, Type (0, 0), BuildingBlock: AJUNOK_clean_linker_0, # of connection points: 2
#     Edge 28, Type (0, 0), BuildingBlock: AJUNOK_clean_linker_0, # of connection points: 2
#     Edge 29, Type (0, 0), BuildingBlock: AJUNOK_clean_linker_0, # of connection points: 2
#     Edge 30, Type (0, 0), BuildingBlock: AJUNOK_clean_linker_0, # of connection points: 2
#     Edge 31, Type (0, 0), BuildingBlock: AJUNOK_clean_linker_0, # of connection points: 2
#     Edge 32, Type (0, 0), BuildingBlock: AJUNOK_clean_linker_0, # of connection points: 2
#     Edge 33, Type (0, 0), BuildingBlock: AJUNOK_clean_linker_0, # of connection points: 2
#     Edge 34, Type (0, 0), BuildingBlock: AJUNOK_clean_linker_0, # of connection points: 2
#     Edge 35, Type (0, 0), BuildingBlock: AJUNOK_clean_linker_0, # of connection points: 2
#     Edge 36, Type (0, 0), BuildingBlock: AJUNOK_clean_linker_0, # of connection points: 2
#     Edge 37, Type (0, 0), BuildingBlock: AJUNOK_clean_linker_0, # of connection points: 2
#     Edge 38, Type (0, 0), BuildingBlock: AJUNOK_clean_linker_0, # of connection points: 2
#     Edge 39, Type (0, 0), BuildingBlock: AJUNOK_clean_linker_0, # of connection points: 2
#     Edge 40, Type (0, 0), BuildingBlock: AJUNOK_clean_linker_0, # of connection points: 2
#     Edge 41, Type (0, 0), BuildingBlock: AJUNOK_clean_linker_0, # of connection points: 2
#     Edge 42, Type (0, 0), BuildingBlock: AJUNOK_clean_linker_0, # of connection points: 2
#     Edge 43, Type (0, 0), BuildingBlock: AJUNOK_clean_linker_0, # of connection points: 2
#     Edge 44, Type (0, 0), BuildingBlock: AJUNOK_clean_linker_0, # of connection points: 2
#     Edge 45, Type (0, 0), BuildingBlock: AJUNOK_clean_linker_0, # of connection points: 2
#     Edge 46, Type (0, 0), BuildingBlock: AJUNOK_clean_linker_0, # of connection points: 2
#     Edge 47, Type (0, 0), BuildingBlock: AJUNOK_clean_linker_0, # of connection points: 2
#     Edge 48, Type (0, 0), BuildingBlock: AJUNOK_clean_linker_0, # of connection points: 2
#     Edge 49, Type (0, 0), BuildingBlock: AJUNOK_clean_linker_0, # of connection points: 2
#     Edge 50, Type (0, 0), BuildingBlock: AJUNOK_clean_linker_0, # of connection points: 2
#     Edge 51, Type (0, 0), BuildingBlock: AJUNOK_clean_linker_0, # of connection points: 2
#     Edge 52, Type (0, 0), BuildingBlock: AJUNOK_clean_linker_0, # of connection points: 2
#     Edge 53, Type (0, 0), BuildingBlock: AJUNOK_clean_linker_0, # of connection points: 2
#     Edge 54, Type (0, 0), BuildingBlock: AJUNOK_clean_linker_0, # of connection points: 2
#     Edge 55, Type (0, 0), BuildingBlock: AJUNOK_clean_linker_0, # of connection points: 2
#     Edge 56, Type (0, 0), BuildingBlock: AJUNOK_clean_linker_0, # of connection points: 2
#     Edge 57, Type (0, 0), BuildingBlock: AJUNOK_clean_linker_0, # of connection points: 2
#     Edge 58, Type (0, 0), BuildingBlock: AJUNOK_clean_linker_0, # of connection points: 2
#     Edge 59, Type (0, 0), BuildingBlock: AJUNOK_clean_linker_0, # of connection points: 2
#     Edge 60, Type (0, 0), BuildingBlock: AJUNOK_clean_linker_0, # of connection points: 2
#     Edge 61, Type (0, 0), BuildingBlock: AJUNOK_clean_linker_0, # of connection points: 2
#     Edge 62, Type (0, 0), BuildingBlock: AJUNOK_clean_linker_0, # of connection points: 2
#     Edge 63, Type (0, 0), BuildingBlock: AJUNOK_clean_linker_0, # of connection points: 2
#     Edge 64, Type (0, 0), BuildingBlock: AJUNOK_clean_linker_0, # of connection points: 2
#     Edge 65, Type (0, 0), BuildingBlock: AJUNOK_clean_linker_0, # of connection points: 2
#     Edge 66, Type (0, 0), BuildingBlock: AJUNOK_clean_linker_0, # of connection points: 2
#     Edge 67, Type (0, 0), BuildingBlock: AJUNOK_clean_linker_0, # of connection points: 2
#     Edge 68, Type (0, 0), BuildingBlock: AJUNOK_clean_linker_0, # of connection points: 2
#     Edge 69, Type (0, 0), BuildingBlock: AJUNOK_clean_linker_0, # of connection points: 2
#     Edge 70, Type (0, 0), BuildingBlock: AJUNOK_clean_linker_0, # of connection points: 2
#     Edge 71, Type (0, 0), BuildingBlock: AJUNOK_clean_linker_0, # of connection points: 2
# Relax obj value: 0.128
# Max RMSD: 0.167
# Mean RMSD: 0.167
data_MOF--net-afi--node1-QUQFOY_clean_sbu_1--edge1-AJUNOK_clean_linker_0
_symmetry_space_group_name_H-M    P1
_symmetry_Int_Tables_number       1
_symmetry_cell_setting            triclinic
loop_
_symmetry_equiv_pos_as_xyz
'x, y, z'
_cell_length_a     51.339901
_cell_length_b     51.298297
_cell_length_c     33.408426
_cell_angle_alpha  89.9894
_cell_angle_beta   89.999621
_cell_angle_gamma 119.89177
loop_
_atom_site_label
_atom_site_type_symbol
_atom_site_fract_x
_atom_site_fract_y
_atom_site_fract_z
_atom_type_partial_charge
O0 O 0.48903 0.12669 0.25677 0.0
Cd1 Cd 0.44703 0.12079 0.24662 0.0
Cd2 Cd 0.45099 0.09273 0.1758 0.0
O3 O 0.49279 0.10602 0.20079 0.0
O4 O 0.44328 0.14749 0.28649 0.0
O5 O 0.44158 0.15319 0.22117 0.0
C6 C 0.44087 0.16232 0.25701 0.0
C7 C 0.44988 0.09373 0.10491 0.0
C8 C 0.50376 0.11885 0.23409 0.0
C9 C 0.40261 0.05542 0.23743 0.0
O10 O 0.41461 0.0568 0.20356 0.0
O11 O 0.41188 0.0788 0.25888 0.0
O12 O 0.45359 0.07421 0.12437 0.0
O13 O 0.44654 0.11305 0.12575 0.0
O14 O 0.35583 0.48971 0.2578 0.0
Cd15 Cd 0.32122 0.44761 0.24436 0.0
Cd16 Cd 0.35528 0.45535 0.17581 0.0
O17 O 0.38176 0.49714 0.2022 0.0
O18 O 0.2886 0.44165 0.28175 0.0
O19 O 0.28436 0.44198 0.21594 0.0
C20 C 0.27272 0.43989 0.25092 0.0
C21 C 0.3515 0.45446 0.1052 0.0
C22 C 0.37858 0.50621 0.23635 0.0
C23 C 0.34525 0.40583 0.23498 0.0
O24 O 0.35685 0.4195 0.2023 0.0
O25 O 0.32913 0.41297 0.25588 0.0
O26 O 0.37572 0.45954 0.12326 0.0
O27 O 0.32896 0.44981 0.12732 0.0
O28 O 0.86221 0.35914 0.25883 0.0
Cd29 Cd 0.86836 0.3235 0.24619 0.0
Cd30 Cd 0.896 0.35815 0.17656 0.0
O31 O 0.88133 0.38512 0.20337 0.0
O32 O 0.84268 0.29295 0.28657 0.0
O33 O 0.83545 0.28566 0.22145 0.0
C34 C 0.82715 0.27579 0.25747 0.0
C35 C 0.89546 0.3572 0.10563 0.0
C36 C 0.86908 0.38212 0.23747 0.0
C37 C 0.93393 0.34604 0.23627 0.0
O38 O 0.93238 0.35805 0.20366 0.0
O39 O 0.91055 0.33037 0.25709 0.0
O40 O 0.91423 0.38041 0.1257 0.0
O41 O 0.87651 0.33399 0.12588 0.0
O42 O 0.50288 0.86538 0.25829 0.0
Cd43 Cd 0.54447 0.87162 0.24438 0.0
Cd44 Cd 0.53758 0.89973 0.17664 0.0
O45 O 0.496 0.88512 0.20344 0.0
O46 O 0.54944 0.84416 0.28148 0.0
O47 O 0.54908 0.83983 0.21564 0.0
C48 C 0.55081 0.82992 0.25053 0.0
C49 C 0.53807 0.8988 0.10576 0.0
C50 C 0.48679 0.87256 0.23739 0.0
C51 C 0.58754 0.93709 0.23644 0.0
O52 O 0.57401 0.93596 0.20397 0.0
O53 O 0.57981 0.91341 0.25666 0.0
O54 O 0.53371 0.9178 0.12551 0.0
O55 O 0.54226 0.87989 0.12633 0.0
O56 O 0.63463 0.50217 0.25897 0.0
Cd57 Cd 0.66942 0.54436 0.24635 0.0
Cd58 Cd 0.6356 0.53667 0.17675 0.0
O59 O 0.60904 0.49489 0.20308 0.0
O60 O 0.70056 0.55026 0.28633 0.0
O61 O 0.70749 0.55031 0.22108 0.0
C62 C 0.71772 0.5523 0.25697 0.0
C63 C 0.63925 0.53738 0.10613 0.0
C64 C 0.61202 0.48573 0.23727 0.0
C65 C 0.64527 0.58608 0.23586 0.0
O66 O 0.6339 0.57249 0.20306 0.0
O67 O 0.66121 0.57888 0.25705 0.0
O68 O 0.61505 0.5323 0.12426 0.0
O69 O 0.66187 0.54218 0.12817 0.0
O70 O 0.12824 0.63346 0.25824 0.0
Cd71 Cd 0.12222 0.66945 0.24772 0.0
Cd72 Cd 0.09661 0.63833 0.17544 0.0
O73 O 0.11067 0.61033 0.20054 0.0
O74 O 0.14817 0.69985 0.28801 0.0
O75 O 0.15483 0.70725 0.22276 0.0
C76 C 0.16342 0.71705 0.25875 0.0
C77 C 0.09922 0.64222 0.10475 0.0
C78 C 0.12218 0.61172 0.23477 0.0
C79 C 0.05721 0.64819 0.23537 0.0
O80 O 0.05967 0.63771 0.20192 0.0
O81 O 0.07987 0.66232 0.25801 0.0
O82 O 0.07976 0.61822 0.12289 0.0
O83 O 0.11758 0.66452 0.12682 0.0
O84 O 0.86488 0.50472 0.27705 0.0
Cd85 Cd 0.87174 0.54681 0.2893 0.0
Cd86 Cd 0.89804 0.54025 0.35957 0.0
O87 O 0.88245 0.49809 0.33411 0.0
O88 O 0.84474 0.55205 0.25167 0.0
O89 O 0.84029 0.55219 0.31749 0.0
C90 C 0.83054 0.55381 0.28243 0.0
C91 C 0.89709 0.54109 0.43048 0.0
C92 C 0.87057 0.48844 0.29994 0.0
C93 C 0.93716 0.58916 0.29912 0.0
O94 O 0.93507 0.57587 0.33217 0.0
O95 O 0.914 0.58163 0.27787 0.0
O96 O 0.91571 0.53611 0.41089 0.0
O97 O 0.87864 0.54586 0.40975 0.0
O98 O 0.35891 0.86552 0.27784 0.0
Cd99 Cd 0.32294 0.87112 0.29043 0.0
Cd100 Cd 0.35457 0.89661 0.36112 0.0
O101 O 0.38255 0.88283 0.33526 0.0
O102 O 0.29082 0.84374 0.25307 0.0
O103 O 0.2868 0.83907 0.31893 0.0
C104 C 0.27527 0.82929 0.28396 0.0
C105 C 0.3506 0.89333 0.43172 0.0
C106 C 0.38091 0.87157 0.30077 0.0
C107 C 0.34361 0.9359 0.30241 0.0
O108 O 0.35481 0.93359 0.33532 0.0
O109 O 0.32913 0.91313 0.28005 0.0
O110 O 0.37459 0.91303 0.41381 0.0
O111 O 0.32838 0.87509 0.40946 0.0
O112 O 0.49026 0.35829 0.27487 0.0
Cd113 Cd 0.44818 0.32309 0.28668 0.0
Cd114 Cd 0.45459 0.35441 0.35784 0.0
O115 O 0.4967 0.38156 0.33265 0.0
O116 O 0.44286 0.29054 0.24961 0.0
O117 O 0.44292 0.28658 0.31555 0.0
C118 C 0.44119 0.27488 0.2807 0.0
C119 C 0.45338 0.35054 0.42848 0.0
C120 C 0.50643 0.37987 0.29826 0.0
C121 C 0.40547 0.34556 0.29837 0.0
O122 O 0.41874 0.35608 0.3316 0.0
O123 O 0.41337 0.3308 0.27584 0.0
O124 O 0.4584 0.37473 0.41036 0.0
O125 O 0.44892 0.32802 0.40642 0.0
O126 O 0.12607 0.48801 0.27386 0.0
Cd127 Cd 0.11925 0.44605 0.28684 0.0
Cd128 Cd 0.09402 0.45473 0.35791 0.0
O129 O 0.10921 0.49623 0.33047 0.0
O130 O 0.14444 0.44002 0.24683 0.0
O131 O 0.15185 0.44085 0.31206 0.0
C132 C 0.15999 0.43866 0.27617 0.0
C133 C 0.09523 0.45505 0.42887 0.0
C134 C 0.12053 0.50486 0.29576 0.0
C135 C 0.05393 0.40428 0.29976 0.0
O136 O 0.05671 0.41847 0.3322 0.0
O137 O 0.07653 0.41128 0.27755 0.0
O138 O 0.07668 0.45993 0.4089 0.0
O139 O 0.11362 0.44999 0.40851 0.0
O140 O 0.63237 0.12568 0.27575 0.0
Cd141 Cd 0.66845 0.12093 0.29066 0.0
Cd142 Cd 0.63442 0.09493 0.36006 0.0
O143 O 0.60709 0.10877 0.33224 0.0
O144 O 0.70063 0.14809 0.25313 0.0
O145 O 0.70425 0.15377 0.31886 0.0
C146 C 0.7159 0.16314 0.28384 0.0
C147 C 0.6356 0.09655 0.43097 0.0
C148 C 0.6096 0.11949 0.29717 0.0
C149 C 0.64724 0.05613 0.30251 0.0
O150 O 0.63483 0.0582 0.33443 0.0
O151 O 0.66283 0.07911 0.28093 0.0
O152 O 0.6124 0.07737 0.41126 0.0
O153 O 0.65864 0.11536 0.41036 0.0
O154 O 0.5 0.63364 0.27471 0.0
Cd155 Cd 0.54217 0.66895 0.28569 0.0
Cd156 Cd 0.53551 0.63737 0.35792 0.0
O157 O 0.49345 0.61032 0.33252 0.0
O158 O 0.54749 0.69987 0.24565 0.0
O159 O 0.54793 0.7069 0.31097 0.0
C160 C 0.54958 0.71703 0.27507 0.0
C161 C 0.53677 0.64102 0.42862 0.0
C162 C 0.48379 0.61206 0.2981 0.0
C163 C 0.5847 0.64621 0.29847 0.0
O164 O 0.5714 0.63578 0.3317 0.0
O165 O 0.57684 0.6609 0.27573 0.0
O166 O 0.53171 0.61688 0.41034 0.0
O167 O 0.54114 0.66358 0.4067 0.0
O168 O 0.50064 0.86456 0.77668 0.0
Cd169 Cd 0.54267 0.87075 0.78743 0.0
Cd170 Cd 0.53687 0.89774 0.85927 0.0
O171 O 0.49476 0.88249 0.83395 0.0
O172 O 0.5472 0.84491 0.74684 0.0
O173 O 0.5479 0.83793 0.81198 0.0
C174 C 0.54912 0.82947 0.77592 0.0
C175 C 0.5379 0.89779 0.93025 0.0
C176 C 0.48477 0.87058 0.79988 0.0
C177 C 0.5857 0.93629 0.79827 0.0
O178 O 0.57268 0.93434 0.8315 0.0
O179 O 0.57771 0.91313 0.77678 0.0
O180 O 0.53312 0.91632 0.91003 0.0
O181 O 0.5423 0.87885 0.91014 0.0
O182 O 0.63245 0.50442 0.77695 0.0
Cd183 Cd 0.66779 0.54587 0.79162 0.0
Cd184 Cd 0.63405 0.53752 0.86044 0.0
O185 O 0.60686 0.49625 0.83301 0.0
O186 O 0.70055 0.5517 0.75454 0.0
O187 O 0.70386 0.54975 0.82033 0.0
C188 C 0.71584 0.55229 0.78547 0.0
C189 C 0.63825 0.53748 0.9309 0.0
C190 C 0.60968 0.48773 0.79828 0.0
C191 C 0.64546 0.5888 0.80369 0.0
O192 O 0.63333 0.57429 0.83566 0.0
O193 O 0.66115 0.58159 0.78195 0.0
O194 O 0.614 0.53289 0.91337 0.0
O195 O 0.66054 0.54205 0.90831 0.0
O196 O 0.12683 0.63588 0.77659 0.0
Cd197 Cd 0.11995 0.67089 0.79055 0.0
Cd198 Cd 0.09397 0.63696 0.859 0.0
O199 O 0.10881 0.61008 0.83238 0.0
O200 O 0.14667 0.70344 0.75314 0.0
O201 O 0.15162 0.70744 0.81893 0.0
C202 C 0.1611 0.7191 0.78394 0.0
C203 C 0.09777 0.64137 0.9295 0.0
C204 C 0.12068 0.6131 0.79799 0.0
C205 C 0.05443 0.64752 0.80062 0.0
O206 O 0.05654 0.63565 0.83305 0.0
O207 O 0.07761 0.66363 0.77964 0.0
O208 O 0.07836 0.61702 0.91196 0.0
O209 O 0.11541 0.66369 0.90689 0.0
O210 O 0.48998 0.12952 0.77551 0.0
Cd211 Cd 0.44779 0.12309 0.78551 0.0
Cd212 Cd 0.45353 0.09719 0.85851 0.0
O213 O 0.49573 0.11226 0.83343 0.0
O214 O 0.44326 0.14922 0.74542 0.0
O215 O 0.44215 0.15542 0.81073 0.0
C216 C 0.44105 0.16424 0.77483 0.0
C217 C 0.45195 0.09665 0.92948 0.0
C218 C 0.50582 0.12383 0.79921 0.0
C219 C 0.40472 0.05793 0.79767 0.0
O220 O 0.41766 0.06051 0.83113 0.0
O221 O 0.41299 0.08055 0.77497 0.0
O222 O 0.45697 0.07834 0.90918 0.0
O223 O 0.44787 0.11585 0.90947 0.0
O224 O 0.35761 0.49264 0.78137 0.0
Cd225 Cd 0.32227 0.45012 0.79138 0.0
Cd226 Cd 0.3558 0.45339 0.85942 0.0
O227 O 0.38574 0.49375 0.83221 0.0
O228 O 0.292 0.44627 0.75112 0.0
O229 O 0.28381 0.44366 0.81623 0.0
C230 C 0.27432 0.44322 0.78027 0.0
C231 C 0.35178 0.45332 0.92995 0.0
C232 C 0.3819 0.50574 0.80112 0.0
C233 C 0.3431 0.40485 0.79866 0.0
O234 O 0.35329 0.41575 0.8331 0.0
O235 O 0.32996 0.41543 0.7775 0.0
O236 O 0.37517 0.45575 0.91229 0.0
O237 O 0.33023 0.45089 0.90746 0.0
O238 O 0.8629 0.35869 0.77691 0.0
Cd239 Cd 0.87004 0.32379 0.79056 0.0
Cd240 Cd 0.89703 0.35849 0.85921 0.0
O241 O 0.88158 0.38479 0.83236 0.0
O242 O 0.84317 0.29115 0.75333 0.0
O243 O 0.83866 0.28711 0.81915 0.0
C244 C 0.82902 0.27542 0.78423 0.0
C245 C 0.89613 0.35734 0.93012 0.0
C246 C 0.86929 0.38157 0.79825 0.0
C247 C 0.93571 0.34732 0.79969 0.0
O248 O 0.9339 0.35925 0.83224 0.0
O249 O 0.91236 0.33122 0.779 0.0
O250 O 0.91472 0.38075 0.91021 0.0
O251 O 0.8776 0.33402 0.9097 0.0
O252 O 0.12727 0.49178 0.75862 0.0
Cd253 Cd 0.12075 0.44974 0.74692 0.0
Cd254 Cd 0.09494 0.4562 0.67537 0.0
O255 O 0.10987 0.49815 0.70123 0.0
O256 O 0.14774 0.44459 0.78476 0.0
O257 O 0.15238 0.44451 0.71896 0.0
C258 C 0.16205 0.44289 0.75408 0.0
C259 C 0.09558 0.4556 0.60439 0.0
C260 C 0.12148 0.50788 0.73552 0.0
C261 C 0.05561 0.40683 0.73536 0.0
O262 O 0.05806 0.42009 0.70217 0.0
O263 O 0.07835 0.41481 0.75768 0.0
O264 O 0.07692 0.46032 0.62434 0.0
O265 O 0.11432 0.45108 0.62478 0.0
O266 O 0.63405 0.12891 0.76151 0.0
Cd267 Cd 0.66931 0.12216 0.74895 0.0
Cd268 Cd 0.63576 0.09684 0.67747 0.0
O269 O 0.60927 0.1119 0.70475 0.0
O270 O 0.70043 0.14752 0.7889 0.0
O271 O 0.70699 0.15474 0.72363 0.0
C272 C 0.7173 0.16298 0.7595 0.0
C273 C 0.63637 0.09763 0.60648 0.0
C274 C 0.61176 0.12327 0.7394 0.0
C275 C 0.64628 0.05684 0.73589 0.0
O276 O 0.63505 0.05965 0.7033 0.0
O277 O 0.66152 0.0794 0.75831 0.0
O278 O 0.61313 0.07911 0.62669 0.0
O279 O 0.65979 0.11627 0.62662 0.0
O280 O 0.49728 0.63295 0.75039 0.0
Cd281 Cd 0.54004 0.66811 0.74124 0.0
Cd282 Cd 0.53824 0.63541 0.67424 0.0
O283 O 0.49779 0.60487 0.70063 0.0
O284 O 0.54352 0.69951 0.77923 0.0
O285 O 0.54717 0.70589 0.71366 0.0
C286 C 0.54716 0.71642 0.74879 0.0
C287 C 0.53865 0.64001 0.60382 0.0
C288 C 0.48493 0.60844 0.73099 0.0
C289 C 0.58588 0.64803 0.73603 0.0
O290 O 0.57588 0.63836 0.70109 0.0
O291 O 0.57445 0.66046 0.75697 0.0
O292 O 0.53659 0.61664 0.62115 0.0
O293 O 0.54063 0.66126 0.62659 0.0
O294 O 0.86246 0.50286 0.76012 0.0
Cd295 Cd 0.86894 0.54505 0.74965 0.0
Cd296 Cd 0.8949 0.53887 0.67697 0.0
O297 O 0.87981 0.49678 0.70248 0.0
O298 O 0.84307 0.54982 0.78991 0.0
O299 O 0.83654 0.55069 0.72466 0.0
C300 C 0.82792 0.55194 0.76062 0.0
C301 C 0.89505 0.53993 0.60597 0.0
C302 C 0.86819 0.48687 0.73673 0.0
C303 C 0.93418 0.58793 0.73747 0.0
O304 O 0.93165 0.57483 0.70414 0.0
O305 O 0.91151 0.57984 0.75999 0.0
O306 O 0.91344 0.53502 0.62626 0.0
O307 O 0.87608 0.54431 0.62601 0.0
O308 O 0.3565 0.86488 0.76039 0.0
Cd309 Cd 0.32128 0.87162 0.74741 0.0
Cd310 Cd 0.3549 0.89728 0.67752 0.0
O311 O 0.38179 0.88248 0.70413 0.0
O312 O 0.29028 0.84638 0.78756 0.0
O313 O 0.28346 0.83899 0.72238 0.0
C314 C 0.27328 0.83088 0.75832 0.0
C315 C 0.35081 0.89369 0.60696 0.0
C316 C 0.37906 0.87084 0.73863 0.0
C317 C 0.34475 0.93725 0.73575 0.0
O318 O 0.35633 0.93485 0.70323 0.0
O319 O 0.32886 0.91425 0.75717 0.0
O320 O 0.37508 0.91303 0.62471 0.0
O321 O 0.3284 0.876 0.62936 0.0
O322 O 0.48852 0.36028 0.75749 0.0
Cd323 Cd 0.44693 0.32446 0.74463 0.0
Cd324 Cd 0.45343 0.35615 0.67416 0.0
O325 O 0.49513 0.38399 0.70003 0.0
O326 O 0.44187 0.29197 0.78171 0.0
O327 O 0.4428 0.28834 0.71582 0.0
C328 C 0.44083 0.27654 0.75067 0.0
C329 C 0.4528 0.35154 0.60368 0.0
C330 C 0.50462 0.38226 0.73458 0.0
C331 C 0.40317 0.34566 0.73233 0.0
O332 O 0.41686 0.35692 0.69957 0.0
O333 O 0.4112 0.33092 0.75469 0.0
O334 O 0.45722 0.37578 0.62111 0.0
O335 O 0.44865 0.32942 0.62638 0.0
C336 C 0.36815 0.00012 0.22935 0.0
C337 C 0.38111 0.02553 0.25443 0.0
C338 C 0.35362 0.97098 0.24527 0.0
C339 C 0.35186 0.96611 0.2869 0.0
H340 H 0.37067 0.00268 0.19716 0.0
H341 H 0.34568 0.95224 0.22467 0.0
S342 S 0.37713 0.02474 0.36558 0.0
N343 N 0.38723 0.04373 0.32312 0.0
N344 N 0.36037 0.9889 0.35284 0.0
C345 C 0.3623 0.99119 0.31228 0.0
C346 C 0.37677 0.02091 0.29609 0.0
C347 C 0.38184 0.35761 0.24138 0.0
C348 C 0.38417 0.35472 0.28296 0.0
C349 C 0.3674 0.37248 0.2259 0.0
C350 C 0.35429 0.3846 0.25133 0.0
H351 H 0.39298 0.35016 0.22061 0.0
H352 H 0.36779 0.37574 0.19381 0.0
S353 S 0.34977 0.37838 0.36227 0.0
N354 N 0.36905 0.36189 0.34908 0.0
N355 N 0.34139 0.38936 0.32013 0.0
C356 C 0.35412 0.37946 0.29283 0.0
C357 C 0.36924 0.36468 0.3086 0.0
C358 C 0.98909 0.36645 0.22737 0.0
C359 C 0.96389 0.35424 0.25277 0.0
C360 C 0.01831 0.38037 0.24291 0.0
C361 C 0.02346 0.3831 0.2845 0.0
H362 H 0.9863 0.36659 0.19523 0.0
H363 H 0.03694 0.39092 0.22213 0.0
S364 S 0.96533 0.35088 0.36385 0.0
N365 N 0.94609 0.34245 0.32164 0.0
N366 N 0.00107 0.3692 0.35068 0.0
C367 C -0.00146 0.36896 0.31016 0.0
C368 C 0.96873 0.35434 0.29434 0.0
C369 C 0.62218 0.99236 0.22879 0.0
C370 C 0.60911 0.96683 0.25361 0.0
C371 C 0.63704 0.02141 0.245 0.0
C372 C 0.63888 0.02601 0.2867 0.0
H373 H 0.61958 0.98997 0.19657 0.0
H374 H 0.64511 0.04029 0.22463 0.0
S375 S 0.61274 0.96687 0.36474 0.0
N376 N 0.60258 0.94815 0.32209 0.0
N377 N 0.62994 0.0028 0.35239 0.0
C378 C 0.62812 0.00077 0.3118 0.0
C379 C 0.61341 0.97115 0.29532 0.0
C380 C 0.60852 0.63417 0.24173 0.0
C381 C 0.60606 0.63706 0.28328 0.0
C382 C 0.62305 0.61934 0.22643 0.0
C383 C 0.63612 0.60727 0.25202 0.0
H384 H 0.59742 0.64159 0.22083 0.0
H385 H 0.62277 0.61608 0.19435 0.0
S386 S 0.64031 0.61355 0.36297 0.0
N387 N 0.62101 0.62997 0.34955 0.0
N388 N 0.64885 0.60259 0.32095 0.0
C389 C 0.63615 0.61243 0.2935 0.0
C390 C 0.62095 0.62715 0.30908 0.0
C391 C 0.02182 0.63658 0.29253 0.0
C392 C 0.02695 0.63958 0.25094 0.0
C393 C 0.9926 0.62202 0.30811 0.0
C394 C 0.96738 0.61031 0.28277 0.0
H395 H 0.04038 0.64364 0.31323 0.0
H396 H 0.98979 0.61862 0.34017 0.0
S397 S 0.96899 0.61738 0.17191 0.0
N398 N 0.00468 0.63324 0.18497 0.0
N399 N 0.94972 0.60637 0.21408 0.0
C400 C 0.97232 0.61572 0.24129 0.0
C401 C 0.00211 0.63018 0.22542 0.0
C402 C 0.61969 0.99158 0.80771 0.0
C403 C 0.60716 0.96649 0.78206 0.0
C404 C 0.63467 0.02093 0.79246 0.0
C405 C 0.63728 0.02633 0.75093 0.0
H406 H 0.61663 0.9886 0.83981 0.0
H407 H 0.64237 0.03943 0.81341 0.0
S408 S 0.61277 0.96868 0.67103 0.0
N409 N 0.60191 0.94915 0.71303 0.0
N410 N 0.62957 0.00435 0.68456 0.0
C411 C 0.627 0.00156 0.72504 0.0
C412 C 0.61211 0.97163 0.74055 0.0
C413 C 0.63716 0.61526 0.74665 0.0
C414 C 0.63698 0.61066 0.78822 0.0
C415 C 0.62251 0.62957 0.73008 0.0
C416 C 0.60746 0.64023 0.75443 0.0
H417 H 0.64676 0.60581 0.72639 0.0
H418 H 0.62157 0.63075 0.69777 0.0
S419 S 0.6058 0.63928 0.86568 0.0
N420 N 0.62438 0.6218 0.85374 0.0
N421 N 0.59723 0.64917 0.8228 0.0
C422 C 0.60981 0.63855 0.79631 0.0
C423 C 0.62443 0.62361 0.81314 0.0
C424 C 0.96977 0.61109 0.79457 0.0
C425 C 0.96453 0.60923 0.75302 0.0
C426 C -0.00096 0.62536 0.80999 0.0
C427 C 0.0242 0.63876 0.78453 0.0
H428 H 0.95123 0.59966 0.81531 0.0
H429 H 0.00193 0.62458 0.84202 0.0
S430 S 0.02237 0.64463 0.67377 0.0
N431 N 0.98669 0.62516 0.68699 0.0
N432 N 0.04173 0.65253 0.71583 0.0
C433 C 0.01918 0.63945 0.74313 0.0
C434 C 0.98934 0.6245 0.72741 0.0
C435 C 0.38164 0.02206 0.74081 0.0
C436 C 0.38334 0.02754 0.78229 0.0
C437 C 0.36725 0.99267 0.7257 0.0
C438 C 0.35361 0.96764 0.7514 0.0
H439 H 0.39327 0.04048 0.71993 0.0
H440 H 0.36816 0.98958 0.69375 0.0
S441 S 0.3472 0.97018 0.86201 0.0
N442 N 0.36696 0.0058 0.84844 0.0
N443 N 0.3394 0.95054 0.8202 0.0
C444 C 0.35276 0.97293 0.79269 0.0
C445 C 0.3678 0.00288 0.80809 0.0
C446 C 0.36247 0.369 0.80553 0.0
C447 C 0.35115 0.38328 0.78082 0.0
C448 C 0.37703 0.3545 0.78929 0.0
C449 C 0.38122 0.35404 0.74769 0.0
H450 H 0.36162 0.37048 0.83781 0.0
H451 H 0.38695 0.34551 0.80977 0.0
S452 S 0.35091 0.38307 0.66956 0.0
N453 N 0.34122 0.39208 0.71224 0.0
N454 N 0.36903 0.3652 0.6819 0.0
C455 C 0.36764 0.3658 0.7225 0.0
C456 C 0.35245 0.38027 0.73902 0.0
C457 C 0.02029 0.3834 0.79267 0.0
C458 C 0.0253 0.38551 0.75106 0.0
C459 C 0.9911 0.36915 0.80839 0.0
C460 C 0.9658 0.35601 0.78317 0.0
H461 H 0.03894 0.39462 0.81328 0.0
H462 H 0.98839 0.36975 0.84049 0.0
S463 S 0.96699 0.35084 0.67227 0.0
N464 N 0.00275 0.37008 0.68516 0.0
N465 N 0.94787 0.34275 0.71455 0.0
C466 C 0.97058 0.35556 0.74166 0.0
C467 C 0.00033 0.37049 0.72565 0.0
C468 C 0.43891 0.20712 0.23144 0.0
C469 C 0.43863 0.18969 0.26409 0.0
C470 C 0.43897 0.23418 0.23723 0.0
C471 C 0.43876 0.24499 0.27591 0.0
H472 H 0.4397 0.20018 0.20105 0.0
H473 H 0.43979 0.24698 0.211 0.0
S474 S 0.43583 0.20682 0.37162 0.0
N475 N 0.43651 0.18442 0.3367 0.0
N476 N 0.43668 0.2353 0.34746 0.0
C477 C 0.43752 0.22735 0.30887 0.0
C478 C 0.43745 0.19972 0.303 0.0
C479 C 0.20522 0.43736 0.30116 0.0
C480 C 0.18722 0.43627 0.26877 0.0
C481 C 0.23235 0.43769 0.29499 0.0
C482 C 0.24269 0.43699 0.25617 0.0
H483 H 0.1987 0.43865 0.33161 0.0
H484 H 0.24562 0.4392 0.32101 0.0
S485 S 0.20288 0.43168 0.16112 0.0
N486 N 0.18085 0.43269 0.19632 0.0
N487 N 0.23189 0.43341 0.18485 0.0
C488 C 0.22445 0.43485 0.22351 0.0
C489 C 0.19673 0.43447 0.22977 0.0
C490 C 0.75567 0.2016 0.23945 0.0
C491 C 0.74532 0.19093 0.2784 0.0
C492 C 0.78242 0.22868 0.23302 0.0
C493 C 0.8 0.24625 0.26524 0.0
H494 H 0.74277 0.18924 0.21352 0.0
H495 H 0.78904 0.23609 0.20245 0.0
S496 S 0.78391 0.22753 0.37322 0.0
N497 N 0.7555 0.19947 0.34973 0.0
N498 N 0.80581 0.25032 0.33776 0.0
C499 C 0.79037 0.23547 0.30441 0.0
C500 C 0.76305 0.20786 0.31095 0.0
C501 C 0.55206 0.79108 0.29431 0.0
C502 C 0.55292 0.8023 0.25555 0.0
C503 C 0.55178 0.76394 0.3003 0.0
C504 C 0.55237 0.74685 0.26781 0.0
H505 H 0.55095 0.80301 0.32042 0.0
H506 H 0.55045 0.75605 0.33073 0.0
S507 S 0.55704 0.76735 0.16024 0.0
N508 N 0.55604 0.79499 0.18415 0.0
N509 N 0.5556 0.74399 0.19531 0.0
C510 C 0.55426 0.75827 0.22886 0.0
C511 C 0.55451 0.78597 0.22276 0.0
C512 C 0.76465 0.55445 0.23201 0.0
C513 C 0.74762 0.55536 0.26435 0.0
C514 C 0.7918 0.55481 0.23823 0.0
C515 C 0.80307 0.55608 0.27706 0.0
H516 H 0.75669 0.55275 0.20156 0.0
H517 H 0.80366 0.55339 0.21226 0.0
S518 S 0.76835 0.56135 0.37195 0.0
N519 N 0.74494 0.55948 0.33672 0.0
N520 N 0.79591 0.56008 0.34831 0.0
C521 C 0.78682 0.55809 0.30966 0.0
C522 C 0.75914 0.55775 0.30334 0.0
C523 C 0.20819 0.76394 0.23384 0.0
C524 C 0.19067 0.74658 0.26625 0.0
C525 C 0.23509 0.79092 0.23999 0.0
C526 C 0.24565 0.8017 0.27882 0.0
H527 H 0.20142 0.75643 0.20335 0.0
H528 H 0.24794 0.8031 0.21392 0.0
S529 S 0.20726 0.76573 0.37404 0.0
N530 N 0.18511 0.74288 0.33881 0.0
N531 N 0.2357 0.79355 0.35026 0.0
C532 C 0.22795 0.78502 0.31156 0.0
C533 C 0.20048 0.7575 0.30531 0.0
C534 C 0.54873 0.75622 0.79351 0.0
C535 C 0.55003 0.74643 0.75455 0.0
C536 C 0.54929 0.78344 0.80014 0.0
C537 C 0.55114 0.80205 0.76809 0.0
H538 H 0.54669 0.74251 0.81928 0.0
H539 H 0.54759 0.78956 0.83067 0.0
S540 S 0.55729 0.78789 0.66031 0.0
N541 N 0.55486 0.75834 0.6835 0.0
N542 N 0.55595 0.80953 0.69585 0.0
C543 C 0.55343 0.79304 0.72898 0.0
C544 C 0.55287 0.76525 0.72224 0.0
C545 C 0.75634 0.55449 0.74165 0.0
C546 C 0.74559 0.55448 0.78045 0.0
C547 C 0.78329 0.55442 0.73559 0.0
C548 C 0.80069 0.55437 0.76805 0.0
H549 H 0.74358 0.55394 0.71554 0.0
H550 H 0.79018 0.5538 0.70511 0.0
S551 S 0.78367 0.55646 0.8758 0.0
N552 N 0.75528 0.55596 0.85192 0.0
N553 N 0.80597 0.5559 0.84064 0.0
C554 C 0.79071 0.55532 0.80708 0.0
C555 C 0.76318 0.55535 0.81324 0.0
C556 C 0.22638 0.78609 0.73352 0.0
C557 C 0.24361 0.80383 0.76585 0.0
C558 C 0.19939 0.75921 0.73977 0.0
C559 C 0.18849 0.74888 0.77864 0.0
H560 H 0.23403 0.79263 0.70302 0.0
H561 H 0.18736 0.74615 0.71378 0.0
S562 S 0.22396 0.78803 0.87364 0.0
N563 N 0.24695 0.80994 0.83835 0.0
N564 N 0.19628 0.75937 0.84999 0.0
C565 C 0.20497 0.76685 0.81128 0.0
C566 C 0.23249 0.79431 0.80492 0.0
C567 C 0.43887 0.236 0.79427 0.0
C568 C 0.43868 0.24677 0.75555 0.0
C569 C 0.43889 0.20899 0.80016 0.0
C570 C 0.4387 0.19155 0.76759 0.0
H571 H 0.43959 0.24879 0.82046 0.0
H572 H 0.43965 0.20208 0.83059 0.0
S573 S 0.43606 0.20861 0.65998 0.0
N574 N 0.43678 0.23706 0.68403 0.0
N575 N 0.43675 0.18626 0.695 0.0
C576 C 0.43757 0.20155 0.72864 0.0
C577 C 0.43758 0.22914 0.72265 0.0
C578 C 0.20031 0.44107 0.79851 0.0
C579 C 0.1895 0.44054 0.75958 0.0
C580 C 0.2273 0.44113 0.80491 0.0
C581 C 0.24465 0.44067 0.77266 0.0
H582 H 0.18818 0.44208 0.82444 0.0
H583 H 0.23489 0.44222 0.83544 0.0
S584 S 0.22525 0.43684 0.66478 0.0
N585 N 0.19749 0.43785 0.68828 0.0
N586 N 0.24817 0.4379 0.7002 0.0
C587 C 0.23363 0.43912 0.73354 0.0
C588 C 0.2061 0.43906 0.72704 0.0
C589 C 0.79067 0.2351 0.74035 0.0
C590 C 0.80177 0.24549 0.77913 0.0
C591 C 0.76381 0.20805 0.73431 0.0
C592 C 0.74691 0.19019 0.76677 0.0
H593 H 0.80244 0.24825 0.71427 0.0
H594 H 0.75598 0.20148 0.70389 0.0
S595 S 0.76725 0.20605 0.87436 0.0
N596 N 0.79457 0.2349 0.8505 0.0
N597 N 0.74414 0.18402 0.83926 0.0
C598 C 0.75825 0.19976 0.80573 0.0
C599 C 0.78564 0.2274 0.81187 0.0
C600 C 0.44705 0.11606 0.03877 0.0
C601 C 0.44988 0.09393 0.06021 0.0
C602 C 0.44757 0.11678 0.99661 0.0
C603 C 0.45099 0.09543 0.97414 0.0
H604 H 0.44456 0.1331 0.05463 0.0
H605 H 0.44546 0.13434 0.98159 0.0
S606 S 0.45856 0.03224 1.01566 0.0
N607 N 0.45569 0.04973 0.05537 0.0
N608 N 0.45669 0.05109 0.97682 0.0
C609 C 0.45359 0.07303 0.99525 0.0
C610 C 0.45303 0.07228 0.03803 0.0
C611 C 0.37539 0.45749 0.99683 0.0
C612 C 0.35037 0.45346 0.97454 0.0
C613 C 0.37532 0.45777 0.03873 0.0
C614 C 0.35021 0.45398 0.06058 0.0
H615 H 0.39543 0.46052 0.98186 0.0
H616 H 0.3953 0.46097 0.05405 0.0
S617 S 0.27875 0.44261 1.01695 0.0
N618 N 0.29959 0.4456 0.97766 0.0
N619 N 0.29945 0.44606 0.0566 0.0
C620 C 0.32493 0.4499 0.03883 0.0
C621 C 0.32502 0.44967 0.99586 0.0
C622 C 0.87538 0.33215 0.99669 0.0
C623 C 0.89625 0.35754 0.97482 0.0
C624 C 0.87521 0.33212 0.03886 0.0
C625 C 0.89589 0.35748 0.06093 0.0
H626 H 0.85898 0.31209 0.98118 0.0
H627 H 0.85868 0.31204 0.05423 0.0
S628 S 0.95541 0.42976 0.01814 0.0
N629 N 0.9383 0.40876 0.97878 0.0
N630 N 0.93797 0.40871 0.05735 0.0
C631 C 0.91691 0.38299 0.03936 0.0
C632 C 0.91708 0.38302 0.99657 0.0
C633 C 0.54284 0.87801 0.03937 0.0
C634 C 0.53814 0.89888 0.06106 0.0
C635 C 0.54283 0.87778 0.9972 0.0
C636 C 0.5381 0.89841 0.97495 0.0
H637 H 0.54653 0.86164 0.05503 0.0
H638 H 0.54649 0.86124 0.98199 0.0
S639 S 0.52485 0.95788 1.01719 0.0
N640 N 0.52874 0.94086 0.05671 0.0
N641 N 0.52871 0.94044 0.97814 0.0
C642 C 0.53345 0.91944 0.99632 0.0
C643 C 0.53347 0.91967 0.03911 0.0
C644 C 0.61467 0.53222 0.03976 0.0
C645 C 0.64036 0.53757 0.06151 0.0
C646 C 0.61441 0.53221 0.99787 0.0
C647 C 0.63984 0.53754 0.97548 0.0
H648 H 0.59436 0.52799 0.05516 0.0
H649 H 0.59393 0.52799 0.98299 0.0
S650 S 0.71305 0.5527 0.01756 0.0
N651 N 0.6921 0.54831 0.05731 0.0
N652 N 0.69162 0.54828 0.97836 0.0
C653 C 0.66578 0.54289 0.99668 0.0
C654 C 0.66604 0.5429 0.03965 0.0
C655 C 0.07885 0.61775 0.99649 0.0
C656 C 0.09923 0.643 0.97408 0.0
C657 C 0.07919 0.61796 0.03839 0.0
C658 C 0.09995 0.64343 0.06013 0.0
H659 H 0.0623 0.59742 0.98163 0.0
H660 H 0.06289 0.59778 0.05379 0.0
S661 S 0.15832 0.71564 1.01614 0.0
N662 N 0.14094 0.69442 0.97695 0.0
N663 N 0.14159 0.6948 0.05589 0.0
C664 C 0.12055 0.66896 0.03825 0.0
C665 C 0.12019 0.66875 0.99528 0.0
C666 C 0.87551 0.54536 0.53892 0.0
C667 C 0.89592 0.5404 0.56128 0.0
C668 C 0.87603 0.54568 0.49675 0.0
C669 C 0.89698 0.54106 0.47518 0.0
H670 H 0.85891 0.54896 0.55404 0.0
H671 H 0.85979 0.5495 0.48099 0.0
S672 S 0.9556 0.52738 0.51937 0.0
N673 N 0.9379 0.53097 0.55832 0.0
N674 N 0.93887 0.53157 0.47976 0.0
C675 C 0.91759 0.5362 0.49724 0.0
C676 C 0.91706 0.53587 0.54003 0.0
C677 C 0.37472 0.91292 0.5402 0.0
C678 C 0.34938 0.89243 0.56236 0.0
C679 C 0.37467 0.91284 0.49831 0.0
C680 C 0.34928 0.89225 0.47632 0.0
H681 H 0.39499 0.92937 0.55527 0.0
H682 H 0.39491 0.92922 0.4831 0.0
S683 S 0.27692 0.83365 0.51958 0.0
N684 N 0.29799 0.85077 0.55899 0.0
N685 N 0.2979 0.85061 0.48004 0.0
C686 C 0.32368 0.87152 0.49794 0.0
C687 C 0.32372 0.87162 0.54091 0.0
C688 C 0.4575 0.37512 0.53666 0.0
C689 C 0.45264 0.34985 0.55911 0.0
C690 C 0.45763 0.37487 0.49478 0.0
C691 C 0.4529 0.34935 0.47309 0.0
H692 H 0.46129 0.39549 0.55149 0.0
H693 H 0.46152 0.39507 0.47935 0.0
S694 S 0.43908 0.27707 0.51719 0.0
N695 N 0.44293 0.29836 0.55635 0.0
N696 N 0.44317 0.2979 0.4774 0.0
C697 C 0.44798 0.3238 0.495 0.0
C698 C 0.44785 0.32405 0.53797 0.0
C699 C 0.11579 0.45045 0.53773 0.0
C700 C 0.09526 0.45548 0.55969 0.0
C701 C 0.11571 0.45033 0.49555 0.0
C702 C 0.09511 0.45525 0.47358 0.0
H703 H 0.1321 0.44658 0.55317 0.0
H704 H 0.13196 0.44636 0.48011 0.0
S705 S 0.0365 0.46942 0.51662 0.0
N706 N 0.05365 0.46545 0.55591 0.0
N707 N 0.05351 0.46523 0.47734 0.0
C708 C 0.07446 0.46028 0.49523 0.0
C709 C 0.07453 0.4604 0.53803 0.0
C710 C 0.66076 0.11794 0.49736 0.0
C711 C 0.63552 0.09664 0.47567 0.0
C712 C 0.66096 0.11819 0.53953 0.0
C713 C 0.63592 0.09716 0.56179 0.0
H714 H 0.68058 0.13461 0.48169 0.0
H715 H 0.68092 0.13504 0.55475 0.0
S716 S 0.56418 0.03637 0.51955 0.0
N717 N 0.58481 0.05377 0.48003 0.0
N718 N 0.58517 0.05424 0.5586 0.0
C719 C 0.61056 0.07571 0.54041 0.0
C720 C 0.61036 0.07545 0.49762 0.0
C721 C 0.53415 0.61707 0.49477 0.0
C722 C 0.53753 0.64217 0.47324 0.0
C723 C 0.53464 0.61684 0.53666 0.0
C724 C 0.53846 0.64167 0.55926 0.0
H725 H 0.5311 0.59722 0.4792 0.0
H726 H 0.53189 0.59681 0.55137 0.0
S727 S 0.54833 0.71323 0.51778 0.0
N728 N 0.54491 0.69276 0.47787 0.0
N729 N 0.54575 0.69229 0.5568 0.0
C730 C 0.54188 0.66703 0.53827 0.0
C731 C 0.54145 0.66729 0.49531 0.0
C732 C 0.54007 0.12732 0.28943 0.0
C733 C 0.53266 0.1222 0.24845 0.0
C734 C 0.56536 0.12711 0.30486 0.0
C735 C 0.58459 0.12236 0.27983 0.0
H736 H 0.52565 0.13047 0.31017 0.0
H737 H 0.56965 0.13031 0.33675 0.0
S738 S 0.57622 0.10918 0.17007 0.0
N739 N 0.54736 0.11317 0.18293 0.0
N740 N 0.59506 0.11321 0.21182 0.0
C741 C 0.57813 0.11829 0.23858 0.0
C742 C 0.55214 0.11809 0.22294 0.0
C743 C 0.45027 0.58184 0.24182 0.0
C744 C 0.45481 0.58713 0.28328 0.0
C745 C 0.425 0.5562 0.22684 0.0
C746 C 0.40298 0.53503 0.25266 0.0
H747 H 0.46702 0.59692 0.22067 0.0
H748 H 0.42314 0.5526 0.19477 0.0
S749 S 0.40263 0.54014 0.36366 0.0
N750 N 0.43408 0.5703 0.34984 0.0
N751 N 0.38633 0.52232 0.32185 0.0
C752 C 0.40639 0.54093 0.29415 0.0
C753 C 0.43237 0.56688 0.3094 0.0
C754 C 0.86659 0.45475 0.24341 0.0
C755 C 0.86615 0.45933 0.28491 0.0
C756 C 0.86647 0.42921 0.22825 0.0
C757 C 0.86538 0.40697 0.25395 0.0
H758 H 0.86838 0.47164 0.22238 0.0
H759 H 0.86795 0.42727 0.19615 0.0
S760 S 0.86082 0.40682 0.36504 0.0
N761 N 0.86248 0.43854 0.35139 0.0
N762 N 0.86176 0.3903 0.3231 0.0
C763 C 0.8633 0.4105 0.2955 0.0
C764 C 0.86385 0.43674 0.31092 0.0
C765 C 0.43685 0.86937 0.22862 0.0
C766 C 0.45826 0.86864 0.25413 0.0
C767 C 0.4112 0.86887 0.24398 0.0
C768 C 0.40618 0.86815 0.28552 0.0
H769 H 0.44017 0.87093 0.19649 0.0
H770 H 0.39582 0.8703 0.22308 0.0
S771 S 0.45429 0.86398 0.36521 0.0
N772 N 0.47178 0.86535 0.32312 0.0
N773 N 0.42382 0.86491 0.35184 0.0
C774 C 0.42685 0.86638 0.31135 0.0
C775 C 0.45278 0.86646 0.2957 0.0
C776 C 0.56556 0.43582 0.22739 0.0
C777 C 0.58751 0.45689 0.25338 0.0
C778 C 0.54019 0.41018 0.24218 0.0
C779 C 0.53548 0.40479 0.28361 0.0
H780 H 0.56756 0.43951 0.19534 0.0
H781 H 0.52349 0.39518 0.22092 0.0
S782 S 0.58738 0.45149 0.36438 0.0
N783 N 0.60388 0.46939 0.32269 0.0
N784 N 0.55595 0.42141 0.35031 0.0
C785 C 0.55783 0.42494 0.30989 0.0
C786 C 0.58391 0.45089 0.29484 0.0
C787 C 0.12567 0.58122 0.29069 0.0
C788 C 0.1257 0.58631 0.24925 0.0
C789 C 0.12502 0.55534 0.30548 0.0
C790 C 0.12486 0.5337 0.27948 0.0
H791 H 0.12485 0.5967 0.31202 0.0
H792 H 0.12395 0.55197 0.33759 0.0
S793 S 0.12784 0.5379 0.16832 0.0
N794 N 0.12762 0.56862 0.18243 0.0
N795 N 0.12685 0.52019 0.21005 0.0
C796 C 0.12648 0.5393 0.23794 0.0
C797 C 0.12674 0.5655 0.22289 0.0
C798 C 0.45078 0.86671 0.74381 0.0
C799 C 0.45572 0.86657 0.78526 0.0
C800 C 0.42541 0.86703 0.72896 0.0
C801 C 0.40369 0.86672 0.75492 0.0
H802 H 0.46728 0.86792 0.72255 0.0
H803 H 0.4232 0.86824 0.69686 0.0
S804 S 0.40454 0.86318 0.86604 0.0
N805 N 0.43576 0.86399 0.85201 0.0
N806 N 0.38784 0.86411 0.82428 0.0
C807 C 0.40755 0.86494 0.79644 0.0
C808 C 0.43363 0.86503 0.81155 0.0
C809 C 0.56293 0.43778 0.80683 0.0
C810 C 0.58503 0.45928 0.78138 0.0
C811 C 0.53774 0.41225 0.79141 0.0
C812 C 0.53334 0.40739 0.74986 0.0
H813 H 0.56475 0.44095 0.83898 0.0
H814 H 0.521 0.39683 0.8123 0.0
S815 S 0.58553 0.45562 0.67025 0.0
N816 N 0.60171 0.47294 0.71237 0.0
N817 N 0.55414 0.4252 0.68357 0.0
C818 C 0.55575 0.42811 0.72407 0.0
C819 C 0.58164 0.45394 0.73977 0.0
C820 C 0.12453 0.56669 0.80713 0.0
C821 C 0.1249 0.58859 0.78143 0.0
C822 C 0.125 0.54145 0.79198 0.0
C823 C 0.12535 0.53682 0.75048 0.0
H824 H 0.12317 0.56866 0.83925 0.0
H825 H 0.12374 0.5248 0.81305 0.0
S826 S 0.12893 0.58855 0.6703 0.0
N827 N 0.12776 0.60494 0.71226 0.0
N828 N 0.12817 0.55726 0.68396 0.0
C829 C 0.12694 0.55909 0.72445 0.0
C830 C 0.12688 0.58504 0.73986 0.0
C831 C 0.56559 0.12732 0.72913 0.0
C832 C 0.58709 0.12747 0.75537 0.0
C833 C 0.54018 0.12771 0.74363 0.0
C834 C 0.53495 0.12777 0.78501 0.0
H835 H 0.56801 0.12619 0.69706 0.0
H836 H 0.52387 0.12662 0.72213 0.0
S837 S 0.5855 0.1308 0.86647 0.0
N838 N 0.60244 0.12988 0.82494 0.0
N839 N 0.55443 0.13015 0.85203 0.0
C840 C 0.55683 0.12918 0.8116 0.0
C841 C 0.58295 0.12918 0.79684 0.0
C842 C 0.43059 0.52944 0.7656 0.0
C843 C 0.4076 0.53247 0.7838 0.0
C844 C 0.45492 0.55399 0.74713 0.0
C845 C 0.45739 0.58256 0.74704 0.0
H846 H 0.4296 0.50784 0.76538 0.0
H847 H 0.47236 0.55076 0.73384 0.0
S848 S 0.40248 0.6018 0.78995 0.0
N849 N 0.38791 0.56555 0.79947 0.0
N850 N 0.43446 0.6123 0.76622 0.0
C851 C 0.43444 0.58582 0.76513 0.0
C852 C 0.40927 0.56057 0.78311 0.0
C853 C 0.86508 0.42772 0.80777 0.0
C854 C 0.86489 0.40601 0.78188 0.0
C855 C 0.86455 0.45298 0.79285 0.0
C856 C 0.86432 0.45785 0.75138 0.0
H857 H 0.86636 0.42559 0.83987 0.0
H858 H 0.86568 0.46948 0.81408 0.0
S859 S 0.86123 0.40665 0.67077 0.0
N860 N 0.86231 0.39006 0.71259 0.0
N861 N 0.8618 0.4378 0.68469 0.0
C862 C 0.86288 0.43575 0.72516 0.0
C863 C 0.863 0.40977 0.74035 0.0
loop_
_geom_bond_atom_site_label_1
_geom_bond_atom_site_label_2
_geom_bond_distance
_geom_bond_site_symmetry_2
_ccdc_geom_bond_type
O0 Cd1 2.223 . S
O0 C8 1.315 . S
Cd1 O0 2.223 . S
Cd1 O4 2.297 . S
Cd1 O5 2.439 . S
Cd1 O11 2.240 . S
Cd2 O3 2.240 . S
Cd2 O10 2.223 . S
Cd2 O12 2.297 . S
Cd2 O13 2.439 . S
O3 Cd2 2.240 . S
O3 C8 1.279 . S
O4 Cd1 2.297 . S
O4 C6 1.247 . S
O5 Cd1 2.439 . S
O5 C6 1.208 . S
C6 O4 1.247 . S
C6 O5 1.208 . S
C7 O12 1.247 . S
C7 O13 1.208 . S
C8 O0 1.315 . S
C8 O3 1.279 . S
C9 O10 1.315 . S
C9 O11 1.279 . S
O10 Cd2 2.223 . S
O10 C9 1.315 . S
O11 Cd1 2.240 . S
O11 C9 1.279 . S
O12 Cd2 2.297 . S
O12 C7 1.247 . S
O13 Cd2 2.439 . S
O13 C7 1.208 . S
O14 Cd15 2.223 . S
O14 C22 1.315 . S
Cd15 O14 2.223 . S
Cd15 O18 2.297 . S
Cd15 O19 2.439 . S
Cd15 O25 2.240 . S
Cd16 O17 2.240 . S
Cd16 O24 2.223 . S
Cd16 O26 2.297 . S
Cd16 O27 2.439 . S
O17 Cd16 2.240 . S
O17 C22 1.279 . S
O18 Cd15 2.297 . S
O18 C20 1.247 . S
O19 Cd15 2.439 . S
O19 C20 1.208 . S
C20 O18 1.247 . S
C20 O19 1.208 . S
C21 O26 1.247 . S
C21 O27 1.208 . S
C22 O14 1.315 . S
C22 O17 1.279 . S
C23 O24 1.315 . S
C23 O25 1.279 . S
O24 Cd16 2.223 . S
O24 C23 1.315 . S
O25 Cd15 2.240 . S
O25 C23 1.279 . S
O26 Cd16 2.297 . S
O26 C21 1.247 . S
O27 Cd16 2.439 . S
O27 C21 1.208 . S
O28 Cd29 2.223 . S
O28 C36 1.315 . S
Cd29 O28 2.223 . S
Cd29 O32 2.297 . S
Cd29 O33 2.439 . S
Cd29 O39 2.240 . S
Cd30 O31 2.240 . S
Cd30 O38 2.223 . S
Cd30 O40 2.297 . S
Cd30 O41 2.439 . S
O31 Cd30 2.240 . S
O31 C36 1.279 . S
O32 Cd29 2.297 . S
O32 C34 1.247 . S
O33 Cd29 2.439 . S
O33 C34 1.208 . S
C34 O32 1.247 . S
C34 O33 1.208 . S
C35 O40 1.247 . S
C35 O41 1.208 . S
C36 O28 1.315 . S
C36 O31 1.279 . S
C37 O38 1.315 . S
C37 O39 1.279 . S
O38 Cd30 2.223 . S
O38 C37 1.315 . S
O39 Cd29 2.240 . S
O39 C37 1.279 . S
O40 Cd30 2.297 . S
O40 C35 1.247 . S
O41 Cd30 2.439 . S
O41 C35 1.208 . S
O42 Cd43 2.223 . S
O42 C50 1.315 . S
Cd43 O42 2.223 . S
Cd43 O46 2.297 . S
Cd43 O47 2.439 . S
Cd43 O53 2.240 . S
Cd44 O45 2.240 . S
Cd44 O52 2.223 . S
Cd44 O54 2.297 . S
Cd44 O55 2.439 . S
O45 Cd44 2.240 . S
O45 C50 1.279 . S
O46 Cd43 2.297 . S
O46 C48 1.247 . S
O47 Cd43 2.439 . S
O47 C48 1.208 . S
C48 O46 1.247 . S
C48 O47 1.208 . S
C49 O54 1.247 . S
C49 O55 1.208 . S
C50 O42 1.315 . S
C50 O45 1.279 . S
C51 O52 1.315 . S
C51 O53 1.279 . S
O52 Cd44 2.223 . S
O52 C51 1.315 . S
O53 Cd43 2.240 . S
O53 C51 1.279 . S
O54 Cd44 2.297 . S
O54 C49 1.247 . S
O55 Cd44 2.439 . S
O55 C49 1.208 . S
O56 Cd57 2.223 . S
O56 C64 1.315 . S
Cd57 O56 2.223 . S
Cd57 O60 2.297 . S
Cd57 O61 2.439 . S
Cd57 O67 2.240 . S
Cd58 O59 2.240 . S
Cd58 O66 2.223 . S
Cd58 O68 2.297 . S
Cd58 O69 2.439 . S
O59 Cd58 2.240 . S
O59 C64 1.279 . S
O60 Cd57 2.297 . S
O60 C62 1.247 . S
O61 Cd57 2.439 . S
O61 C62 1.208 . S
C62 O60 1.247 . S
C62 O61 1.208 . S
C63 O68 1.247 . S
C63 O69 1.208 . S
C64 O56 1.315 . S
C64 O59 1.279 . S
C65 O66 1.315 . S
C65 O67 1.279 . S
O66 Cd58 2.223 . S
O66 C65 1.315 . S
O67 Cd57 2.240 . S
O67 C65 1.279 . S
O68 Cd58 2.297 . S
O68 C63 1.247 . S
O69 Cd58 2.439 . S
O69 C63 1.208 . S
O70 Cd71 2.223 . S
O70 C78 1.315 . S
Cd71 O70 2.223 . S
Cd71 O74 2.297 . S
Cd71 O75 2.439 . S
Cd71 O81 2.240 . S
Cd72 O73 2.240 . S
Cd72 O80 2.223 . S
Cd72 O82 2.297 . S
Cd72 O83 2.439 . S
O73 Cd72 2.240 . S
O73 C78 1.279 . S
O74 Cd71 2.297 . S
O74 C76 1.247 . S
O75 Cd71 2.439 . S
O75 C76 1.208 . S
C76 O74 1.247 . S
C76 O75 1.208 . S
C77 O82 1.247 . S
C77 O83 1.208 . S
C78 O70 1.315 . S
C78 O73 1.279 . S
C79 O80 1.315 . S
C79 O81 1.279 . S
O80 Cd72 2.223 . S
O80 C79 1.315 . S
O81 Cd71 2.240 . S
O81 C79 1.279 . S
O82 Cd72 2.297 . S
O82 C77 1.247 . S
O83 Cd72 2.439 . S
O83 C77 1.208 . S
O84 Cd85 2.223 . S
O84 C92 1.315 . S
Cd85 O84 2.223 . S
Cd85 O88 2.297 . S
Cd85 O89 2.439 . S
Cd85 O95 2.240 . S
Cd86 O87 2.240 . S
Cd86 O94 2.223 . S
Cd86 O96 2.297 . S
Cd86 O97 2.439 . S
O87 Cd86 2.240 . S
O87 C92 1.279 . S
O88 Cd85 2.297 . S
O88 C90 1.247 . S
O89 Cd85 2.439 . S
O89 C90 1.208 . S
C90 O88 1.247 . S
C90 O89 1.208 . S
C91 O96 1.247 . S
C91 O97 1.208 . S
C92 O84 1.315 . S
C92 O87 1.279 . S
C93 O94 1.315 . S
C93 O95 1.279 . S
O94 Cd86 2.223 . S
O94 C93 1.315 . S
O95 Cd85 2.240 . S
O95 C93 1.279 . S
O96 Cd86 2.297 . S
O96 C91 1.247 . S
O97 Cd86 2.439 . S
O97 C91 1.208 . S
O98 Cd99 2.223 . S
O98 C106 1.315 . S
Cd99 O98 2.223 . S
Cd99 O102 2.297 . S
Cd99 O103 2.439 . S
Cd99 O109 2.240 . S
Cd100 O101 2.240 . S
Cd100 O108 2.223 . S
Cd100 O110 2.297 . S
Cd100 O111 2.439 . S
O101 Cd100 2.240 . S
O101 C106 1.279 . S
O102 Cd99 2.297 . S
O102 C104 1.247 . S
O103 Cd99 2.439 . S
O103 C104 1.208 . S
C104 O102 1.247 . S
C104 O103 1.208 . S
C105 O110 1.247 . S
C105 O111 1.208 . S
C106 O98 1.315 . S
C106 O101 1.279 . S
C107 O108 1.315 . S
C107 O109 1.279 . S
O108 Cd100 2.223 . S
O108 C107 1.315 . S
O109 Cd99 2.240 . S
O109 C107 1.279 . S
O110 Cd100 2.297 . S
O110 C105 1.247 . S
O111 Cd100 2.439 . S
O111 C105 1.208 . S
O112 Cd113 2.223 . S
O112 C120 1.315 . S
Cd113 O112 2.223 . S
Cd113 O116 2.297 . S
Cd113 O117 2.439 . S
Cd113 O123 2.240 . S
Cd114 O115 2.240 . S
Cd114 O122 2.223 . S
Cd114 O124 2.297 . S
Cd114 O125 2.439 . S
O115 Cd114 2.240 . S
O115 C120 1.279 . S
O116 Cd113 2.297 . S
O116 C118 1.247 . S
O117 Cd113 2.439 . S
O117 C118 1.208 . S
C118 O116 1.247 . S
C118 O117 1.208 . S
C119 O124 1.247 . S
C119 O125 1.208 . S
C120 O112 1.315 . S
C120 O115 1.279 . S
C121 O122 1.315 . S
C121 O123 1.279 . S
O122 Cd114 2.223 . S
O122 C121 1.315 . S
O123 Cd113 2.240 . S
O123 C121 1.279 . S
O124 Cd114 2.297 . S
O124 C119 1.247 . S
O125 Cd114 2.439 . S
O125 C119 1.208 . S
O126 Cd127 2.223 . S
O126 C134 1.315 . S
Cd127 O126 2.223 . S
Cd127 O130 2.297 . S
Cd127 O131 2.439 . S
Cd127 O137 2.240 . S
Cd128 O129 2.240 . S
Cd128 O136 2.223 . S
Cd128 O138 2.297 . S
Cd128 O139 2.439 . S
O129 Cd128 2.240 . S
O129 C134 1.279 . S
O130 Cd127 2.297 . S
O130 C132 1.247 . S
O131 Cd127 2.439 . S
O131 C132 1.208 . S
C132 O130 1.247 . S
C132 O131 1.208 . S
C133 O138 1.247 . S
C133 O139 1.208 . S
C134 O126 1.315 . S
C134 O129 1.279 . S
C135 O136 1.315 . S
C135 O137 1.279 . S
O136 Cd128 2.223 . S
O136 C135 1.315 . S
O137 Cd127 2.240 . S
O137 C135 1.279 . S
O138 Cd128 2.297 . S
O138 C133 1.247 . S
O139 Cd128 2.439 . S
O139 C133 1.208 . S
O140 Cd141 2.223 . S
O140 C148 1.315 . S
Cd141 O140 2.223 . S
Cd141 O144 2.297 . S
Cd141 O145 2.439 . S
Cd141 O151 2.240 . S
Cd142 O143 2.240 . S
Cd142 O150 2.223 . S
Cd142 O152 2.297 . S
Cd142 O153 2.439 . S
O143 Cd142 2.240 . S
O143 C148 1.279 . S
O144 Cd141 2.297 . S
O144 C146 1.247 . S
O145 Cd141 2.439 . S
O145 C146 1.208 . S
C146 O144 1.247 . S
C146 O145 1.208 . S
C147 O152 1.247 . S
C147 O153 1.208 . S
C148 O140 1.315 . S
C148 O143 1.279 . S
C149 O150 1.315 . S
C149 O151 1.279 . S
O150 Cd142 2.223 . S
O150 C149 1.315 . S
O151 Cd141 2.240 . S
O151 C149 1.279 . S
O152 Cd142 2.297 . S
O152 C147 1.247 . S
O153 Cd142 2.439 . S
O153 C147 1.208 . S
O154 Cd155 2.223 . S
O154 C162 1.315 . S
Cd155 O154 2.223 . S
Cd155 O158 2.297 . S
Cd155 O159 2.439 . S
Cd155 O165 2.240 . S
Cd156 O157 2.240 . S
Cd156 O164 2.223 . S
Cd156 O166 2.297 . S
Cd156 O167 2.439 . S
O157 Cd156 2.240 . S
O157 C162 1.279 . S
O158 Cd155 2.297 . S
O158 C160 1.247 . S
O159 Cd155 2.439 . S
O159 C160 1.208 . S
C160 O158 1.247 . S
C160 O159 1.208 . S
C161 O166 1.247 . S
C161 O167 1.208 . S
C162 O154 1.315 . S
C162 O157 1.279 . S
C163 O164 1.315 . S
C163 O165 1.279 . S
O164 Cd156 2.223 . S
O164 C163 1.315 . S
O165 Cd155 2.240 . S
O165 C163 1.279 . S
O166 Cd156 2.297 . S
O166 C161 1.247 . S
O167 Cd156 2.439 . S
O167 C161 1.208 . S
O168 Cd169 2.223 . S
O168 C176 1.315 . S
Cd169 O168 2.223 . S
Cd169 O172 2.297 . S
Cd169 O173 2.439 . S
Cd169 O179 2.240 . S
Cd170 O171 2.240 . S
Cd170 O178 2.223 . S
Cd170 O180 2.297 . S
Cd170 O181 2.439 . S
O171 Cd170 2.240 . S
O171 C176 1.279 . S
O172 Cd169 2.297 . S
O172 C174 1.247 . S
O173 Cd169 2.439 . S
O173 C174 1.208 . S
C174 O172 1.247 . S
C174 O173 1.208 . S
C175 O180 1.247 . S
C175 O181 1.208 . S
C176 O168 1.315 . S
C176 O171 1.279 . S
C177 O178 1.315 . S
C177 O179 1.279 . S
O178 Cd170 2.223 . S
O178 C177 1.315 . S
O179 Cd169 2.240 . S
O179 C177 1.279 . S
O180 Cd170 2.297 . S
O180 C175 1.247 . S
O181 Cd170 2.439 . S
O181 C175 1.208 . S
O182 Cd183 2.223 . S
O182 C190 1.315 . S
Cd183 O182 2.223 . S
Cd183 O186 2.297 . S
Cd183 O187 2.439 . S
Cd183 O193 2.240 . S
Cd184 O185 2.240 . S
Cd184 O192 2.223 . S
Cd184 O194 2.297 . S
Cd184 O195 2.439 . S
O185 Cd184 2.240 . S
O185 C190 1.279 . S
O186 Cd183 2.297 . S
O186 C188 1.247 . S
O187 Cd183 2.439 . S
O187 C188 1.208 . S
C188 O186 1.247 . S
C188 O187 1.208 . S
C189 O194 1.247 . S
C189 O195 1.208 . S
C190 O182 1.315 . S
C190 O185 1.279 . S
C191 O192 1.315 . S
C191 O193 1.279 . S
O192 Cd184 2.223 . S
O192 C191 1.315 . S
O193 Cd183 2.240 . S
O193 C191 1.279 . S
O194 Cd184 2.297 . S
O194 C189 1.247 . S
O195 Cd184 2.439 . S
O195 C189 1.208 . S
O196 Cd197 2.223 . S
O196 C204 1.315 . S
Cd197 O196 2.223 . S
Cd197 O200 2.297 . S
Cd197 O201 2.439 . S
Cd197 O207 2.240 . S
Cd198 O199 2.240 . S
Cd198 O206 2.223 . S
Cd198 O208 2.297 . S
Cd198 O209 2.439 . S
O199 Cd198 2.240 . S
O199 C204 1.279 . S
O200 Cd197 2.297 . S
O200 C202 1.247 . S
O201 Cd197 2.439 . S
O201 C202 1.208 . S
C202 O200 1.247 . S
C202 O201 1.208 . S
C203 O208 1.247 . S
C203 O209 1.208 . S
C204 O196 1.315 . S
C204 O199 1.279 . S
C205 O206 1.315 . S
C205 O207 1.279 . S
O206 Cd198 2.223 . S
O206 C205 1.315 . S
O207 Cd197 2.240 . S
O207 C205 1.279 . S
O208 Cd198 2.297 . S
O208 C203 1.247 . S
O209 Cd198 2.439 . S
O209 C203 1.208 . S
O210 Cd211 2.223 . S
O210 C218 1.315 . S
Cd211 O210 2.223 . S
Cd211 O214 2.297 . S
Cd211 O215 2.439 . S
Cd211 O221 2.240 . S
Cd212 O213 2.240 . S
Cd212 O220 2.223 . S
Cd212 O222 2.297 . S
Cd212 O223 2.439 . S
O213 Cd212 2.240 . S
O213 C218 1.279 . S
O214 Cd211 2.297 . S
O214 C216 1.247 . S
O215 Cd211 2.439 . S
O215 C216 1.208 . S
C216 O214 1.247 . S
C216 O215 1.208 . S
C217 O222 1.247 . S
C217 O223 1.208 . S
C218 O210 1.315 . S
C218 O213 1.279 . S
C219 O220 1.315 . S
C219 O221 1.279 . S
O220 Cd212 2.223 . S
O220 C219 1.315 . S
O221 Cd211 2.240 . S
O221 C219 1.279 . S
O222 Cd212 2.297 . S
O222 C217 1.247 . S
O223 Cd212 2.439 . S
O223 C217 1.208 . S
O224 Cd225 2.223 . S
O224 C232 1.315 . S
Cd225 O224 2.223 . S
Cd225 O228 2.297 . S
Cd225 O229 2.439 . S
Cd225 O235 2.240 . S
Cd226 O227 2.240 . S
Cd226 O234 2.223 . S
Cd226 O236 2.297 . S
Cd226 O237 2.439 . S
O227 Cd226 2.240 . S
O227 C232 1.279 . S
O228 Cd225 2.297 . S
O228 C230 1.247 . S
O229 Cd225 2.439 . S
O229 C230 1.208 . S
C230 O228 1.247 . S
C230 O229 1.208 . S
C231 O236 1.247 . S
C231 O237 1.208 . S
C232 O224 1.315 . S
C232 O227 1.279 . S
C233 O234 1.315 . S
C233 O235 1.279 . S
O234 Cd226 2.223 . S
O234 C233 1.315 . S
O235 Cd225 2.240 . S
O235 C233 1.279 . S
O236 Cd226 2.297 . S
O236 C231 1.247 . S
O237 Cd226 2.439 . S
O237 C231 1.208 . S
O238 Cd239 2.223 . S
O238 C246 1.315 . S
Cd239 O238 2.223 . S
Cd239 O242 2.297 . S
Cd239 O243 2.439 . S
Cd239 O249 2.240 . S
Cd240 O241 2.240 . S
Cd240 O248 2.223 . S
Cd240 O250 2.297 . S
Cd240 O251 2.439 . S
O241 Cd240 2.240 . S
O241 C246 1.279 . S
O242 Cd239 2.297 . S
O242 C244 1.247 . S
O243 Cd239 2.439 . S
O243 C244 1.208 . S
C244 O242 1.247 . S
C244 O243 1.208 . S
C245 O250 1.247 . S
C245 O251 1.208 . S
C246 O238 1.315 . S
C246 O241 1.279 . S
C247 O248 1.315 . S
C247 O249 1.279 . S
O248 Cd240 2.223 . S
O248 C247 1.315 . S
O249 Cd239 2.240 . S
O249 C247 1.279 . S
O250 Cd240 2.297 . S
O250 C245 1.247 . S
O251 Cd240 2.439 . S
O251 C245 1.208 . S
O252 Cd253 2.223 . S
O252 C260 1.315 . S
Cd253 O252 2.223 . S
Cd253 O256 2.297 . S
Cd253 O257 2.439 . S
Cd253 O263 2.240 . S
Cd254 O255 2.240 . S
Cd254 O262 2.223 . S
Cd254 O264 2.297 . S
Cd254 O265 2.439 . S
O255 Cd254 2.240 . S
O255 C260 1.279 . S
O256 Cd253 2.297 . S
O256 C258 1.247 . S
O257 Cd253 2.439 . S
O257 C258 1.208 . S
C258 O256 1.247 . S
C258 O257 1.208 . S
C259 O264 1.247 . S
C259 O265 1.208 . S
C260 O252 1.315 . S
C260 O255 1.279 . S
C261 O262 1.315 . S
C261 O263 1.279 . S
O262 Cd254 2.223 . S
O262 C261 1.315 . S
O263 Cd253 2.240 . S
O263 C261 1.279 . S
O264 Cd254 2.297 . S
O264 C259 1.247 . S
O265 Cd254 2.439 . S
O265 C259 1.208 . S
O266 Cd267 2.223 . S
O266 C274 1.315 . S
Cd267 O266 2.223 . S
Cd267 O270 2.297 . S
Cd267 O271 2.439 . S
Cd267 O277 2.240 . S
Cd268 O269 2.240 . S
Cd268 O276 2.223 . S
Cd268 O278 2.297 . S
Cd268 O279 2.439 . S
O269 Cd268 2.240 . S
O269 C274 1.279 . S
O270 Cd267 2.297 . S
O270 C272 1.247 . S
O271 Cd267 2.439 . S
O271 C272 1.208 . S
C272 O270 1.247 . S
C272 O271 1.208 . S
C273 O278 1.247 . S
C273 O279 1.208 . S
C274 O266 1.315 . S
C274 O269 1.279 . S
C275 O276 1.315 . S
C275 O277 1.279 . S
O276 Cd268 2.223 . S
O276 C275 1.315 . S
O277 Cd267 2.240 . S
O277 C275 1.279 . S
O278 Cd268 2.297 . S
O278 C273 1.247 . S
O279 Cd268 2.439 . S
O279 C273 1.208 . S
O280 Cd281 2.223 . S
O280 C288 1.315 . S
Cd281 O280 2.223 . S
Cd281 O284 2.297 . S
Cd281 O285 2.439 . S
Cd281 O291 2.240 . S
Cd282 O283 2.240 . S
Cd282 O290 2.223 . S
Cd282 O292 2.297 . S
Cd282 O293 2.439 . S
O283 Cd282 2.240 . S
O283 C288 1.279 . S
O284 Cd281 2.297 . S
O284 C286 1.247 . S
O285 Cd281 2.439 . S
O285 C286 1.208 . S
C286 O284 1.247 . S
C286 O285 1.208 . S
C287 O292 1.247 . S
C287 O293 1.208 . S
C288 O280 1.315 . S
C288 O283 1.279 . S
C289 O290 1.315 . S
C289 O291 1.279 . S
O290 Cd282 2.223 . S
O290 C289 1.315 . S
O291 Cd281 2.240 . S
O291 C289 1.279 . S
O292 Cd282 2.297 . S
O292 C287 1.247 . S
O293 Cd282 2.439 . S
O293 C287 1.208 . S
O294 Cd295 2.223 . S
O294 C302 1.315 . S
Cd295 O294 2.223 . S
Cd295 O298 2.297 . S
Cd295 O299 2.439 . S
Cd295 O305 2.240 . S
Cd296 O297 2.240 . S
Cd296 O304 2.223 . S
Cd296 O306 2.297 . S
Cd296 O307 2.439 . S
O297 Cd296 2.240 . S
O297 C302 1.279 . S
O298 Cd295 2.297 . S
O298 C300 1.247 . S
O299 Cd295 2.439 . S
O299 C300 1.208 . S
C300 O298 1.247 . S
C300 O299 1.208 . S
C301 O306 1.247 . S
C301 O307 1.208 . S
C302 O294 1.315 . S
C302 O297 1.279 . S
C303 O304 1.315 . S
C303 O305 1.279 . S
O304 Cd296 2.223 . S
O304 C303 1.315 . S
O305 Cd295 2.240 . S
O305 C303 1.279 . S
O306 Cd296 2.297 . S
O306 C301 1.247 . S
O307 Cd296 2.439 . S
O307 C301 1.208 . S
O308 Cd309 2.223 . S
O308 C316 1.315 . S
Cd309 O308 2.223 . S
Cd309 O312 2.297 . S
Cd309 O313 2.439 . S
Cd309 O319 2.240 . S
Cd310 O311 2.240 . S
Cd310 O318 2.223 . S
Cd310 O320 2.297 . S
Cd310 O321 2.439 . S
O311 Cd310 2.240 . S
O311 C316 1.279 . S
O312 Cd309 2.297 . S
O312 C314 1.247 . S
O313 Cd309 2.439 . S
O313 C314 1.208 . S
C314 O312 1.247 . S
C314 O313 1.208 . S
C315 O320 1.247 . S
C315 O321 1.208 . S
C316 O308 1.315 . S
C316 O311 1.279 . S
C317 O318 1.315 . S
C317 O319 1.279 . S
O318 Cd310 2.223 . S
O318 C317 1.315 . S
O319 Cd309 2.240 . S
O319 C317 1.279 . S
O320 Cd310 2.297 . S
O320 C315 1.247 . S
O321 Cd310 2.439 . S
O321 C315 1.208 . S
O322 Cd323 2.223 . S
O322 C330 1.315 . S
Cd323 O322 2.223 . S
Cd323 O326 2.297 . S
Cd323 O327 2.439 . S
Cd323 O333 2.240 . S
Cd324 O325 2.240 . S
Cd324 O332 2.223 . S
Cd324 O334 2.297 . S
Cd324 O335 2.439 . S
O325 Cd324 2.240 . S
O325 C330 1.279 . S
O326 Cd323 2.297 . S
O326 C328 1.247 . S
O327 Cd323 2.439 . S
O327 C328 1.208 . S
C328 O326 1.247 . S
C328 O327 1.208 . S
C329 O334 1.247 . S
C329 O335 1.208 . S
C330 O322 1.315 . S
C330 O325 1.279 . S
C331 O332 1.315 . S
C331 O333 1.279 . S
O332 Cd324 2.223 . S
O332 C331 1.315 . S
O333 Cd323 2.240 . S
O333 C331 1.279 . S
O334 Cd324 2.297 . S
O334 C329 1.247 . S
O335 Cd324 2.439 . S
O335 C329 1.208 . S
C336 C337 1.369 . S
C336 C338 1.419 1_545 S
C336 H340 0.939 . S
C337 C336 1.369 . S
C337 C346 1.429 . S
C338 C336 1.419 1_565 S
C338 C339 1.363 . S
C338 H341 0.929 . S
C339 C338 1.363 . S
C339 C345 1.425 . S
H340 C336 0.939 . S
H341 C338 0.929 . S
S342 N343 1.613 . S
S342 N344 1.610 . S
N343 S342 1.613 . S
N343 C346 1.350 . S
N344 S342 1.610 . S
N344 C345 1.352 1_545 S
C345 C339 1.425 . S
C345 N344 1.352 1_565 S
C345 C346 1.436 1_565 S
C346 C337 1.429 . S
C346 N343 1.350 . S
C346 C345 1.436 1_545 S
C347 C348 1.369 . S
C347 C349 1.419 . S
C347 H351 0.930 . S
C348 C347 1.369 . S
C348 C357 1.429 . S
C349 C347 1.419 . S
C349 C350 1.363 . S
C349 H352 0.929 . S
C350 C349 1.363 . S
C350 C356 1.428 . S
H351 C347 0.930 . S
H352 C349 0.929 . S
S353 N354 1.613 . S
S353 N355 1.610 . S
N354 S353 1.613 . S
N354 C357 1.350 . S
N355 S353 1.610 . S
N355 C356 1.351 . S
C356 C350 1.428 . S
C356 N355 1.351 . S
C356 C357 1.434 . S
C357 C348 1.429 . S
C357 N354 1.350 . S
C357 C356 1.434 . S
C358 C359 1.369 1_455 S
C358 C360 1.419 . S
C358 H362 0.930 . S
C359 C358 1.369 1_655 S
C359 C368 1.429 . S
C360 C358 1.419 . S
C360 C361 1.363 . S
C360 H363 0.929 . S
C361 C360 1.363 . S
C361 C367 1.428 1_455 S
H362 C358 0.930 . S
H363 C360 0.929 . S
S364 N365 1.613 . S
S364 N366 1.610 . S
N365 S364 1.613 . S
N365 C368 1.350 . S
N366 S364 1.610 . S
N366 C367 1.351 . S
C367 C361 1.428 1_655 S
C367 N366 1.351 . S
C367 C368 1.434 . S
C368 C359 1.429 . S
C368 N365 1.350 . S
C368 C367 1.434 . S
C369 C370 1.369 . S
C369 C371 1.419 1_565 S
C369 H373 0.930 . S
C370 C369 1.369 . S
C370 C379 1.429 . S
C371 C369 1.419 1_545 S
C371 C372 1.363 . S
C371 H374 0.929 . S
C372 C371 1.363 . S
C372 C378 1.428 . S
H373 C369 0.930 . S
H374 C371 0.929 . S
S375 N376 1.613 . S
S375 N377 1.610 1_565 S
N376 S375 1.613 . S
N376 C379 1.350 . S
N377 S375 1.610 1_545 S
N377 C378 1.351 . S
C378 C372 1.428 . S
C378 N377 1.351 . S
C378 C379 1.434 1_545 S
C379 C370 1.429 . S
C379 N376 1.350 . S
C379 C378 1.434 1_565 S
C380 C381 1.369 . S
C380 C382 1.419 . S
C380 H384 0.930 . S
C381 C380 1.369 . S
C381 C390 1.429 . S
C382 C380 1.419 . S
C382 C383 1.363 . S
C382 H385 0.929 . S
C383 C382 1.363 . S
C383 C389 1.428 . S
H384 C380 0.930 . S
H385 C382 0.929 . S
S386 N387 1.613 . S
S386 N388 1.610 . S
N387 S386 1.613 . S
N387 C390 1.350 . S
N388 S386 1.610 . S
N388 C389 1.351 . S
C389 C383 1.428 . S
C389 N388 1.351 . S
C389 C390 1.434 . S
C390 C381 1.429 . S
C390 N387 1.350 . S
C390 C389 1.434 . S
C391 C392 1.369 . S
C391 C393 1.417 . S
C391 H395 0.930 . S
C392 C391 1.369 . S
C392 C401 1.390 1_455 S
C393 C391 1.417 . S
C393 C394 1.366 1_455 S
C393 H396 0.928 . S
C394 C393 1.366 1_655 S
C394 C400 1.428 . S
H395 C391 0.930 . S
H396 C393 0.928 . S
S397 N398 1.613 . S
S397 N399 1.610 . S
N398 S397 1.613 . S
N398 C401 1.366 . S
N399 S397 1.610 . S
N399 C400 1.351 . S
C400 C394 1.428 . S
C400 N399 1.351 . S
C400 C401 1.461 . S
C401 C392 1.390 1_655 S
C401 N398 1.366 . S
C401 C400 1.461 . S
C402 C403 1.369 . S
C402 C404 1.419 1_565 S
C402 H406 0.930 . S
C403 C402 1.369 . S
C403 C412 1.429 . S
C404 C402 1.419 1_545 S
C404 C405 1.363 . S
C404 H407 0.929 . S
C405 C404 1.363 . S
C405 C411 1.436 . S
H406 C402 0.930 . S
H407 C404 0.929 . S
S408 N409 1.613 . S
S408 N410 1.610 . S
N409 S408 1.613 . S
N409 C412 1.350 . S
N410 S408 1.610 . S
N410 C411 1.355 1_565 S
C411 C405 1.436 . S
C411 N410 1.355 1_545 S
C411 C412 1.421 1_545 S
C412 C403 1.429 . S
C412 N409 1.350 . S
C412 C411 1.421 1_565 S
C413 C414 1.369 . S
C413 C415 1.419 . S
C413 H417 0.930 . S
C414 C413 1.369 . S
C414 C423 1.429 . S
C415 C413 1.419 . S
C415 C416 1.363 . S
C415 H418 0.929 . S
C416 C415 1.363 . S
C416 C422 1.428 . S
H417 C413 0.930 . S
H418 C415 0.929 . S
S419 N420 1.613 . S
S419 N421 1.610 . S
N420 S419 1.613 . S
N420 C423 1.350 . S
N421 S419 1.610 . S
N421 C422 1.351 . S
C422 C416 1.428 . S
C422 N421 1.351 . S
C422 C423 1.434 . S
C423 C414 1.429 . S
C423 N420 1.350 . S
C423 C422 1.434 . S
C424 C425 1.369 . S
C424 C426 1.448 . S
C424 H428 0.930 . S
C425 C424 1.369 . S
C425 C434 1.429 1_655 S
C426 C424 1.448 . S
C426 C427 1.323 1_655 S
C426 H429 0.942 . S
C427 C426 1.323 1_455 S
C427 C433 1.428 . S
H428 C424 0.930 . S
H429 C426 0.942 . S
S430 N431 1.613 . S
S430 N432 1.610 . S
N431 S430 1.613 . S
N431 C434 1.350 . S
N432 S430 1.610 . S
N432 C433 1.351 . S
C433 C427 1.428 . S
C433 N432 1.351 . S
C433 C434 1.434 . S
C434 C425 1.429 1_455 S
C434 N431 1.350 . S
C434 C433 1.434 . S
C435 C436 1.369 . S
C435 C437 1.419 1_545 S
C435 H439 0.930 . S
C436 C435 1.369 . S
C436 C445 1.429 . S
C437 C435 1.419 1_565 S
C437 C438 1.363 . S
C437 H440 0.929 . S
C438 C437 1.363 . S
C438 C444 1.428 . S
H439 C435 0.930 . S
H440 C437 0.929 . S
S441 N442 1.635 . S
S441 N443 1.610 . S
N442 S441 1.635 . S
N442 C445 1.361 1_565 S
N443 S441 1.610 . S
N443 C444 1.351 . S
C444 C438 1.428 . S
C444 N443 1.351 . S
C444 C445 1.434 1_565 S
C445 C436 1.429 . S
C445 N442 1.361 1_545 S
C445 C444 1.434 1_545 S
C446 C447 1.369 . S
C446 C448 1.419 . S
C446 H450 0.930 . S
C447 C446 1.369 . S
C447 C456 1.429 . S
C448 C446 1.419 . S
C448 C449 1.363 . S
C448 H451 0.929 . S
C449 C448 1.363 . S
C449 C455 1.428 . S
H450 C446 0.930 . S
H451 C448 0.929 . S
S452 N453 1.613 . S
S452 N454 1.610 . S
N453 S452 1.613 . S
N453 C456 1.350 . S
N454 S452 1.610 . S
N454 C455 1.351 . S
C455 C449 1.428 . S
C455 N454 1.351 . S
C455 C456 1.434 . S
C456 C447 1.429 . S
C456 N453 1.350 . S
C456 C455 1.434 . S
C457 C458 1.369 . S
C457 C459 1.419 1_455 S
C457 H461 0.930 . S
C458 C457 1.369 . S
C458 C467 1.429 . S
C459 C457 1.419 1_655 S
C459 C460 1.363 . S
C459 H462 0.929 . S
C460 C459 1.363 . S
C460 C466 1.428 . S
H461 C457 0.930 . S
H462 C459 0.929 . S
S463 N464 1.613 1_655 S
S463 N465 1.610 . S
N464 S463 1.613 1_455 S
N464 C467 1.350 . S
N465 S463 1.610 . S
N465 C466 1.351 . S
C466 C460 1.428 . S
C466 N465 1.351 . S
C466 C467 1.434 1_655 S
C467 C458 1.429 . S
C467 N464 1.350 . S
C467 C466 1.434 1_455 S
C468 C469 1.369 . S
C468 C470 1.419 . S
C468 H472 0.930 . S
C469 C468 1.369 . S
C469 C478 1.429 . S
C470 C468 1.419 . S
C470 C471 1.363 . S
C470 H473 0.929 . S
C471 C470 1.363 . S
C471 C477 1.428 . S
H472 C468 0.930 . S
H473 C470 0.929 . S
S474 N475 1.613 . S
S474 N476 1.610 . S
N475 S474 1.613 . S
N475 C478 1.350 . S
N476 S474 1.610 . S
N476 C477 1.351 . S
C477 C471 1.428 . S
C477 N476 1.351 . S
C477 C478 1.434 . S
C478 C469 1.429 . S
C478 N475 1.350 . S
C478 C477 1.434 . S
C479 C480 1.369 . S
C479 C481 1.419 . S
C479 H483 0.930 . S
C480 C479 1.369 . S
C480 C489 1.429 . S
C481 C479 1.419 . S
C481 C482 1.363 . S
C481 H484 0.929 . S
C482 C481 1.363 . S
C482 C488 1.428 . S
H483 C479 0.930 . S
H484 C481 0.929 . S
S485 N486 1.613 . S
S485 N487 1.610 . S
N486 S485 1.613 . S
N486 C489 1.350 . S
N487 S485 1.610 . S
N487 C488 1.351 . S
C488 C482 1.428 . S
C488 N487 1.351 . S
C488 C489 1.434 . S
C489 C480 1.429 . S
C489 N486 1.350 . S
C489 C488 1.434 . S
C490 C491 1.369 . S
C490 C492 1.419 . S
C490 H494 0.930 . S
C491 C490 1.369 . S
C491 C500 1.429 . S
C492 C490 1.419 . S
C492 C493 1.363 . S
C492 H495 0.929 . S
C493 C492 1.363 . S
C493 C499 1.428 . S
H494 C490 0.930 . S
H495 C492 0.929 . S
S496 N497 1.613 . S
S496 N498 1.610 . S
N497 S496 1.613 . S
N497 C500 1.350 . S
N498 S496 1.610 . S
N498 C499 1.351 . S
C499 C493 1.428 . S
C499 N498 1.351 . S
C499 C500 1.434 . S
C500 C491 1.429 . S
C500 N497 1.350 . S
C500 C499 1.434 . S
C501 C502 1.369 . S
C501 C503 1.419 . S
C501 H505 0.930 . S
C502 C501 1.369 . S
C502 C511 1.429 . S
C503 C501 1.419 . S
C503 C504 1.363 . S
C503 H506 0.929 . S
C504 C503 1.363 . S
C504 C510 1.428 . S
H505 C501 0.930 . S
H506 C503 0.929 . S
S507 N508 1.613 . S
S507 N509 1.610 . S
N508 S507 1.613 . S
N508 C511 1.350 . S
N509 S507 1.610 . S
N509 C510 1.351 . S
C510 C504 1.428 . S
C510 N509 1.351 . S
C510 C511 1.434 . S
C511 C502 1.429 . S
C511 N508 1.350 . S
C511 C510 1.434 . S
C512 C513 1.369 . S
C512 C514 1.419 . S
C512 H516 0.930 . S
C513 C512 1.369 . S
C513 C522 1.429 . S
C514 C512 1.419 . S
C514 C515 1.363 . S
C514 H517 0.929 . S
C515 C514 1.363 . S
C515 C521 1.428 . S
H516 C512 0.930 . S
H517 C514 0.929 . S
S518 N519 1.613 . S
S518 N520 1.610 . S
N519 S518 1.613 . S
N519 C522 1.350 . S
N520 S518 1.610 . S
N520 C521 1.351 . S
C521 C515 1.428 . S
C521 N520 1.351 . S
C521 C522 1.434 . S
C522 C513 1.429 . S
C522 N519 1.350 . S
C522 C521 1.434 . S
C523 C524 1.369 . S
C523 C525 1.419 . S
C523 H527 0.930 . S
C524 C523 1.369 . S
C524 C533 1.429 . S
C525 C523 1.419 . S
C525 C526 1.363 . S
C525 H528 0.929 . S
C526 C525 1.363 . S
C526 C532 1.428 . S
H527 C523 0.930 . S
H528 C525 0.929 . S
S529 N530 1.613 . S
S529 N531 1.610 . S
N530 S529 1.613 . S
N530 C533 1.350 . S
N531 S529 1.610 . S
N531 C532 1.351 . S
C532 C526 1.428 . S
C532 N531 1.351 . S
C532 C533 1.434 . S
C533 C524 1.429 . S
C533 N530 1.350 . S
C533 C532 1.434 . S
C534 C535 1.369 . S
C534 C536 1.419 . S
C534 H538 0.930 . S
C535 C534 1.369 . S
C535 C544 1.429 . S
C536 C534 1.419 . S
C536 C537 1.363 . S
C536 H539 0.929 . S
C537 C536 1.363 . S
C537 C543 1.428 . S
H538 C534 0.930 . S
H539 C536 0.929 . S
S540 N541 1.613 . S
S540 N542 1.610 . S
N541 S540 1.613 . S
N541 C544 1.350 . S
N542 S540 1.610 . S
N542 C543 1.351 . S
C543 C537 1.428 . S
C543 N542 1.351 . S
C543 C544 1.434 . S
C544 C535 1.429 . S
C544 N541 1.350 . S
C544 C543 1.434 . S
C545 C546 1.369 . S
C545 C547 1.419 . S
C545 H549 0.930 . S
C546 C545 1.369 . S
C546 C555 1.429 . S
C547 C545 1.419 . S
C547 C548 1.363 . S
C547 H550 0.929 . S
C548 C547 1.363 . S
C548 C554 1.428 . S
H549 C545 0.930 . S
H550 C547 0.929 . S
S551 N552 1.613 . S
S551 N553 1.610 . S
N552 S551 1.613 . S
N552 C555 1.350 . S
N553 S551 1.610 . S
N553 C554 1.351 . S
C554 C548 1.428 . S
C554 N553 1.351 . S
C554 C555 1.434 . S
C555 C546 1.429 . S
C555 N552 1.350 . S
C555 C554 1.434 . S
C556 C557 1.369 . S
C556 C558 1.419 . S
C556 H560 0.930 . S
C557 C556 1.369 . S
C557 C566 1.429 . S
C558 C556 1.419 . S
C558 C559 1.363 . S
C558 H561 0.929 . S
C559 C558 1.363 . S
C559 C565 1.428 . S
H560 C556 0.930 . S
H561 C558 0.929 . S
S562 N563 1.613 . S
S562 N564 1.610 . S
N563 S562 1.613 . S
N563 C566 1.350 . S
N564 S562 1.610 . S
N564 C565 1.351 . S
C565 C559 1.428 . S
C565 N564 1.351 . S
C565 C566 1.434 . S
C566 C557 1.429 . S
C566 N563 1.350 . S
C566 C565 1.434 . S
C567 C568 1.369 . S
C567 C569 1.419 . S
C567 H571 0.930 . S
C568 C567 1.369 . S
C568 C577 1.429 . S
C569 C567 1.419 . S
C569 C570 1.363 . S
C569 H572 0.929 . S
C570 C569 1.363 . S
C570 C576 1.428 . S
H571 C567 0.930 . S
H572 C569 0.929 . S
S573 N574 1.613 . S
S573 N575 1.610 . S
N574 S573 1.613 . S
N574 C577 1.350 . S
N575 S573 1.610 . S
N575 C576 1.351 . S
C576 C570 1.428 . S
C576 N575 1.351 . S
C576 C577 1.434 . S
C577 C568 1.429 . S
C577 N574 1.350 . S
C577 C576 1.434 . S
C578 C579 1.369 . S
C578 C580 1.419 . S
C578 H582 0.930 . S
C579 C578 1.369 . S
C579 C588 1.429 . S
C580 C578 1.419 . S
C580 C581 1.363 . S
C580 H583 0.929 . S
C581 C580 1.363 . S
C581 C587 1.428 . S
H582 C578 0.930 . S
H583 C580 0.929 . S
S584 N585 1.613 . S
S584 N586 1.610 . S
N585 S584 1.613 . S
N585 C588 1.350 . S
N586 S584 1.610 . S
N586 C587 1.351 . S
C587 C581 1.428 . S
C587 N586 1.351 . S
C587 C588 1.434 . S
C588 C579 1.429 . S
C588 N585 1.350 . S
C588 C587 1.434 . S
C589 C590 1.369 . S
C589 C591 1.419 . S
C589 H593 0.930 . S
C590 C589 1.369 . S
C590 C599 1.429 . S
C591 C589 1.419 . S
C591 C592 1.363 . S
C591 H594 0.929 . S
C592 C591 1.363 . S
C592 C598 1.428 . S
H593 C589 0.930 . S
H594 C591 0.929 . S
S595 N596 1.613 . S
S595 N597 1.610 . S
N596 S595 1.613 . S
N596 C599 1.350 . S
N597 S595 1.610 . S
N597 C598 1.351 . S
C598 C592 1.428 . S
C598 N597 1.351 . S
C598 C599 1.434 . S
C599 C590 1.429 . S
C599 N596 1.350 . S
C599 C598 1.434 . S
C600 C601 1.369 . S
C600 C602 1.419 1_554 S
C600 H604 0.930 . S
C601 C600 1.369 . S
C601 C610 1.429 . S
C602 C600 1.419 1_556 S
C602 C603 1.363 . S
C602 H605 0.929 . S
C603 C602 1.363 . S
C603 C609 1.428 . S
H604 C600 0.930 . S
H605 C602 0.929 . S
S606 N607 1.615 1_556 S
S606 N608 1.608 . S
N607 S606 1.615 1_554 S
N607 C610 1.350 . S
N608 S606 1.608 . S
N608 C609 1.351 . S
C609 C603 1.428 . S
C609 N608 1.351 . S
C609 C610 1.434 1_556 S
C610 C601 1.429 . S
C610 N607 1.350 . S
C610 C609 1.434 1_554 S
C611 C612 1.369 . S
C611 C613 1.419 1_556 S
C611 H615 0.930 . S
C612 C611 1.369 . S
C612 C621 1.429 . S
C613 C611 1.419 1_554 S
C613 C614 1.363 . S
C613 H616 0.929 . S
C614 C613 1.363 . S
C614 C620 1.428 . S
H615 C611 0.930 . S
H616 C613 0.929 . S
S617 N618 1.615 1_554 S
S617 N619 1.608 . S
N618 S617 1.615 1_556 S
N618 C621 1.350 . S
N619 S617 1.608 . S
N619 C620 1.351 . S
C620 C614 1.428 . S
C620 N619 1.351 . S
C620 C621 1.434 1_554 S
C621 C612 1.429 . S
C621 N618 1.350 . S
C621 C620 1.434 1_556 S
C622 C623 1.369 . S
C622 C624 1.419 1_556 S
C622 H626 0.930 . S
C623 C622 1.369 . S
C623 C632 1.429 . S
C624 C622 1.419 1_554 S
C624 C625 1.363 . S
C624 H627 0.929 . S
C625 C624 1.363 . S
C625 C631 1.428 . S
H626 C622 0.930 . S
H627 C624 0.929 . S
S628 N629 1.615 1_554 S
S628 N630 1.608 . S
N629 S628 1.615 1_556 S
N629 C632 1.350 . S
N630 S628 1.608 . S
N630 C631 1.351 . S
C631 C625 1.428 . S
C631 N630 1.351 . S
C631 C632 1.434 1_554 S
C632 C623 1.429 . S
C632 N629 1.350 . S
C632 C631 1.434 1_556 S
C633 C634 1.369 . S
C633 C635 1.419 1_554 S
C633 H637 0.930 . S
C634 C633 1.369 . S
C634 C643 1.429 . S
C635 C633 1.419 1_556 S
C635 C636 1.363 . S
C635 H638 0.929 . S
C636 C635 1.363 . S
C636 C642 1.428 . S
H637 C633 0.930 . S
H638 C635 0.929 . S
S639 N640 1.615 1_556 S
S639 N641 1.608 . S
N640 S639 1.615 1_554 S
N640 C643 1.350 . S
N641 S639 1.608 . S
N641 C642 1.351 . S
C642 C636 1.428 . S
C642 N641 1.351 . S
C642 C643 1.434 1_556 S
C643 C634 1.429 . S
C643 N640 1.350 . S
C643 C642 1.434 1_554 S
C644 C645 1.369 . S
C644 C646 1.419 1_554 S
C644 H648 0.930 . S
C645 C644 1.369 . S
C645 C654 1.429 . S
C646 C644 1.419 1_556 S
C646 C647 1.363 . S
C646 H649 0.929 . S
C647 C646 1.363 . S
C647 C653 1.428 . S
H648 C644 0.930 . S
H649 C646 0.929 . S
S650 N651 1.615 1_556 S
S650 N652 1.608 . S
N651 S650 1.615 1_554 S
N651 C654 1.350 . S
N652 S650 1.608 . S
N652 C653 1.351 . S
C653 C647 1.428 . S
C653 N652 1.351 . S
C653 C654 1.434 1_556 S
C654 C645 1.429 . S
C654 N651 1.350 . S
C654 C653 1.434 1_554 S
C655 C656 1.369 . S
C655 C657 1.419 1_556 S
C655 H659 0.930 . S
C656 C655 1.369 . S
C656 C665 1.429 . S
C657 C655 1.419 1_554 S
C657 C658 1.363 . S
C657 H660 0.929 . S
C658 C657 1.363 . S
C658 C664 1.428 . S
H659 C655 0.930 . S
H660 C657 0.929 . S
S661 N662 1.615 1_554 S
S661 N663 1.608 . S
N662 S661 1.615 1_556 S
N662 C665 1.350 . S
N663 S661 1.608 . S
N663 C664 1.351 . S
C664 C658 1.428 . S
C664 N663 1.351 . S
C664 C665 1.434 1_554 S
C665 C656 1.429 . S
C665 N662 1.350 . S
C665 C664 1.434 1_556 S
C666 C667 1.369 . S
C666 C668 1.419 . S
C666 H670 0.930 . S
C667 C666 1.369 . S
C667 C676 1.429 . S
C668 C666 1.419 . S
C668 C669 1.363 . S
C668 H671 0.929 . S
C669 C668 1.363 . S
C669 C675 1.428 . S
H670 C666 0.930 . S
H671 C668 0.929 . S
S672 N673 1.613 . S
S672 N674 1.610 . S
N673 S672 1.613 . S
N673 C676 1.350 . S
N674 S672 1.610 . S
N674 C675 1.351 . S
C675 C669 1.428 . S
C675 N674 1.351 . S
C675 C676 1.434 . S
C676 C667 1.429 . S
C676 N673 1.350 . S
C676 C675 1.434 . S
C677 C678 1.369 . S
C677 C679 1.419 . S
C677 H681 0.930 . S
C678 C677 1.369 . S
C678 C687 1.429 . S
C679 C677 1.419 . S
C679 C680 1.363 . S
C679 H682 0.929 . S
C680 C679 1.363 . S
C680 C686 1.428 . S
H681 C677 0.930 . S
H682 C679 0.929 . S
S683 N684 1.613 . S
S683 N685 1.610 . S
N684 S683 1.613 . S
N684 C687 1.350 . S
N685 S683 1.610 . S
N685 C686 1.351 . S
C686 C680 1.428 . S
C686 N685 1.351 . S
C686 C687 1.434 . S
C687 C678 1.429 . S
C687 N684 1.350 . S
C687 C686 1.434 . S
C688 C689 1.369 . S
C688 C690 1.419 . S
C688 H692 0.930 . S
C689 C688 1.369 . S
C689 C698 1.429 . S
C690 C688 1.419 . S
C690 C691 1.363 . S
C690 H693 0.929 . S
C691 C690 1.363 . S
C691 C697 1.428 . S
H692 C688 0.930 . S
H693 C690 0.929 . S
S694 N695 1.613 . S
S694 N696 1.610 . S
N695 S694 1.613 . S
N695 C698 1.350 . S
N696 S694 1.610 . S
N696 C697 1.351 . S
C697 C691 1.428 . S
C697 N696 1.351 . S
C697 C698 1.434 . S
C698 C689 1.429 . S
C698 N695 1.350 . S
C698 C697 1.434 . S
C699 C700 1.369 . S
C699 C701 1.419 . S
C699 H703 0.930 . S
C700 C699 1.369 . S
C700 C709 1.429 . S
C701 C699 1.419 . S
C701 C702 1.363 . S
C701 H704 0.929 . S
C702 C701 1.363 . S
C702 C708 1.428 . S
H703 C699 0.930 . S
H704 C701 0.929 . S
S705 N706 1.613 . S
S705 N707 1.610 . S
N706 S705 1.613 . S
N706 C709 1.350 . S
N707 S705 1.610 . S
N707 C708 1.351 . S
C708 C702 1.428 . S
C708 N707 1.351 . S
C708 C709 1.434 . S
C709 C700 1.429 . S
C709 N706 1.350 . S
C709 C708 1.434 . S
C710 C711 1.369 . S
C710 C712 1.419 . S
C710 H714 0.930 . S
C711 C710 1.369 . S
C711 C720 1.429 . S
C712 C710 1.419 . S
C712 C713 1.363 . S
C712 H715 0.929 . S
C713 C712 1.363 . S
C713 C719 1.428 . S
H714 C710 0.930 . S
H715 C712 0.929 . S
S716 N717 1.613 . S
S716 N718 1.610 . S
N717 S716 1.613 . S
N717 C720 1.350 . S
N718 S716 1.610 . S
N718 C719 1.351 . S
C719 C713 1.428 . S
C719 N718 1.351 . S
C719 C720 1.434 . S
C720 C711 1.429 . S
C720 N717 1.350 . S
C720 C719 1.434 . S
C721 C722 1.369 . S
C721 C723 1.419 . S
C721 H725 0.930 . S
C722 C721 1.369 . S
C722 C731 1.429 . S
C723 C721 1.419 . S
C723 C724 1.363 . S
C723 H726 0.929 . S
C724 C723 1.363 . S
C724 C730 1.428 . S
H725 C721 0.930 . S
H726 C723 0.929 . S
S727 N728 1.613 . S
S727 N729 1.610 . S
N728 S727 1.613 . S
N728 C731 1.350 . S
N729 S727 1.610 . S
N729 C730 1.351 . S
C730 C724 1.428 . S
C730 N729 1.351 . S
C730 C731 1.434 . S
C731 C722 1.429 . S
C731 N728 1.350 . S
C731 C730 1.434 . S
C732 C733 1.369 . S
C732 C734 1.419 . S
C732 H736 0.930 . S
C733 C732 1.369 . S
C733 C742 1.429 . S
C734 C732 1.419 . S
C734 C735 1.363 . S
C734 H737 0.929 . S
C735 C734 1.363 . S
C735 C741 1.428 . S
H736 C732 0.930 . S
H737 C734 0.929 . S
S738 N739 1.613 . S
S738 N740 1.610 . S
N739 S738 1.613 . S
N739 C742 1.350 . S
N740 S738 1.610 . S
N740 C741 1.351 . S
C741 C735 1.428 . S
C741 N740 1.351 . S
C741 C742 1.434 . S
C742 C733 1.429 . S
C742 N739 1.350 . S
C742 C741 1.434 . S
C743 C744 1.369 . S
C743 C745 1.419 . S
C743 H747 0.930 . S
C744 C743 1.369 . S
C744 C753 1.429 . S
C745 C743 1.419 . S
C745 C746 1.363 . S
C745 H748 0.929 . S
C746 C745 1.363 . S
C746 C752 1.428 . S
H747 C743 0.930 . S
H748 C745 0.929 . S
S749 N750 1.613 . S
S749 N751 1.610 . S
N750 S749 1.613 . S
N750 C753 1.350 . S
N751 S749 1.610 . S
N751 C752 1.351 . S
C752 C746 1.428 . S
C752 N751 1.351 . S
C752 C753 1.434 . S
C753 C744 1.429 . S
C753 N750 1.350 . S
C753 C752 1.434 . S
C754 C755 1.369 . S
C754 C756 1.419 . S
C754 H758 0.930 . S
C755 C754 1.369 . S
C755 C764 1.429 . S
C756 C754 1.419 . S
C756 C757 1.363 . S
C756 H759 0.929 . S
C757 C756 1.363 . S
C757 C763 1.428 . S
H758 C754 0.930 . S
H759 C756 0.929 . S
S760 N761 1.613 . S
S760 N762 1.610 . S
N761 S760 1.613 . S
N761 C764 1.350 . S
N762 S760 1.610 . S
N762 C763 1.351 . S
C763 C757 1.428 . S
C763 N762 1.351 . S
C763 C764 1.434 . S
C764 C755 1.429 . S
C764 N761 1.350 . S
C764 C763 1.434 . S
C765 C766 1.369 . S
C765 C767 1.419 . S
C765 H769 0.930 . S
C766 C765 1.369 . S
C766 C775 1.429 . S
C767 C765 1.419 . S
C767 C768 1.363 . S
C767 H770 0.929 . S
C768 C767 1.363 . S
C768 C774 1.428 . S
H769 C765 0.930 . S
H770 C767 0.929 . S
S771 N772 1.613 . S
S771 N773 1.610 . S
N772 S771 1.613 . S
N772 C775 1.350 . S
N773 S771 1.610 . S
N773 C774 1.351 . S
C774 C768 1.428 . S
C774 N773 1.351 . S
C774 C775 1.434 . S
C775 C766 1.429 . S
C775 N772 1.350 . S
C775 C774 1.434 . S
C776 C777 1.369 . S
C776 C778 1.419 . S
C776 H780 0.930 . S
C777 C776 1.369 . S
C777 C786 1.429 . S
C778 C776 1.419 . S
C778 C779 1.363 . S
C778 H781 0.929 . S
C779 C778 1.363 . S
C779 C785 1.428 . S
H780 C776 0.930 . S
H781 C778 0.929 . S
S782 N783 1.613 . S
S782 N784 1.610 . S
N783 S782 1.613 . S
N783 C786 1.350 . S
N784 S782 1.610 . S
N784 C785 1.351 . S
C785 C779 1.428 . S
C785 N784 1.351 . S
C785 C786 1.434 . S
C786 C777 1.429 . S
C786 N783 1.350 . S
C786 C785 1.434 . S
C787 C788 1.369 . S
C787 C789 1.419 . S
C787 H791 0.930 . S
C788 C787 1.369 . S
C788 C797 1.429 . S
C789 C787 1.419 . S
C789 C790 1.363 . S
C789 H792 0.929 . S
C790 C789 1.363 . S
C790 C796 1.428 . S
H791 C787 0.930 . S
H792 C789 0.929 . S
S793 N794 1.613 . S
S793 N795 1.610 . S
N794 S793 1.613 . S
N794 C797 1.350 . S
N795 S793 1.610 . S
N795 C796 1.351 . S
C796 C790 1.428 . S
C796 N795 1.351 . S
C796 C797 1.434 . S
C797 C788 1.429 . S
C797 N794 1.350 . S
C797 C796 1.434 . S
C798 C799 1.369 . S
C798 C800 1.419 . S
C798 H802 0.930 . S
C799 C798 1.369 . S
C799 C808 1.429 . S
C800 C798 1.419 . S
C800 C801 1.363 . S
C800 H803 0.929 . S
C801 C800 1.363 . S
C801 C807 1.428 . S
H802 C798 0.930 . S
H803 C800 0.929 . S
S804 N805 1.613 . S
S804 N806 1.610 . S
N805 S804 1.613 . S
N805 C808 1.350 . S
N806 S804 1.610 . S
N806 C807 1.351 . S
C807 C801 1.428 . S
C807 N806 1.351 . S
C807 C808 1.434 . S
C808 C799 1.429 . S
C808 N805 1.350 . S
C808 C807 1.434 . S
C809 C810 1.369 . S
C809 C811 1.419 . S
C809 H813 0.930 . S
C810 C809 1.369 . S
C810 C819 1.429 . S
C811 C809 1.419 . S
C811 C812 1.363 . S
C811 H814 0.929 . S
C812 C811 1.363 . S
C812 C818 1.428 . S
H813 C809 0.930 . S
H814 C811 0.929 . S
S815 N816 1.613 . S
S815 N817 1.610 . S
N816 S815 1.613 . S
N816 C819 1.350 . S
N817 S815 1.610 . S
N817 C818 1.351 . S
C818 C812 1.428 . S
C818 N817 1.351 . S
C818 C819 1.434 . S
C819 C810 1.429 . S
C819 N816 1.350 . S
C819 C818 1.434 . S
C820 C821 1.369 . S
C820 C822 1.419 . S
C820 H824 0.930 . S
C821 C820 1.369 . S
C821 C830 1.429 . S
C822 C820 1.419 . S
C822 C823 1.363 . S
C822 H825 0.929 . S
C823 C822 1.363 . S
C823 C829 1.428 . S
H824 C820 0.930 . S
H825 C822 0.929 . S
S826 N827 1.613 . S
S826 N828 1.610 . S
N827 S826 1.613 . S
N827 C830 1.350 . S
N828 S826 1.610 . S
N828 C829 1.351 . S
C829 C823 1.428 . S
C829 N828 1.351 . S
C829 C830 1.434 . S
C830 C821 1.429 . S
C830 N827 1.350 . S
C830 C829 1.434 . S
C831 C832 1.369 . S
C831 C833 1.419 . S
C831 H835 0.930 . S
C832 C831 1.369 . S
C832 C841 1.429 . S
C833 C831 1.419 . S
C833 C834 1.363 . S
C833 H836 0.929 . S
C834 C833 1.363 . S
C834 C840 1.428 . S
H835 C831 0.930 . S
H836 C833 0.929 . S
S837 N838 1.613 . S
S837 N839 1.610 . S
N838 S837 1.613 . S
N838 C841 1.350 . S
N839 S837 1.610 . S
N839 C840 1.351 . S
C840 C834 1.428 . S
C840 N839 1.351 . S
C840 C841 1.434 . S
C841 C832 1.429 . S
C841 N838 1.350 . S
C841 C840 1.434 . S
C842 C843 1.369 . S
C842 C844 1.419 . S
C842 H846 0.930 . S
C843 C842 1.369 . S
C843 C852 1.429 . S
C844 C842 1.419 . S
C844 C845 1.363 . S
C844 H847 0.929 . S
C845 C844 1.363 . S
C845 C851 1.428 . S
H846 C842 0.930 . S
H847 C844 0.929 . S
S848 N849 1.613 . S
S848 N850 1.610 . S
N849 S848 1.613 . S
N849 C852 1.350 . S
N850 S848 1.610 . S
N850 C851 1.351 . S
C851 C845 1.428 . S
C851 N850 1.351 . S
C851 C852 1.434 . S
C852 C843 1.429 . S
C852 N849 1.350 . S
C852 C851 1.434 . S
C853 C854 1.369 . S
C853 C855 1.419 . S
C853 H857 0.930 . S
C854 C853 1.369 . S
C854 C863 1.429 . S
C855 C853 1.419 . S
C855 C856 1.363 . S
C855 H858 0.929 . S
C856 C855 1.363 . S
C856 C862 1.428 . S
H857 C853 0.930 . S
H858 C855 0.929 . S
S859 N860 1.613 . S
S859 N861 1.610 . S
N860 S859 1.613 . S
N860 C863 1.350 . S
N861 S859 1.610 . S
N861 C862 1.351 . S
C862 C856 1.428 . S
C862 N861 1.351 . S
C862 C863 1.434 . S
C863 C854 1.429 . S
C863 N860 1.350 . S
C863 C862 1.434 . S
C337 C9 1.786 . S
C339 C107 1.787 . S
C348 C121 1.786 . S
C350 C23 1.785 . S
C359 C37 1.785 . S
C361 C135 1.787 . S
C370 C51 1.787 . S
C372 C149 1.788 . S
C381 C163 1.786 . S
C383 C65 1.785 . S
C392 C79 1.788 . S
C394 C93 1.787 . S
C403 C177 1.785 . S
C405 C275 1.786 . S
C414 C191 1.786 . S
C416 C289 1.785 . S
C425 C303 1.786 . S
C427 C205 1.785 . S
C436 C219 1.788 . S
C438 C317 1.786 . S
C447 C233 1.787 . S
C449 C331 1.788 . S
C458 C261 1.785 . S
C460 C247 1.785 . S
C469 C6 1.483 . S
C471 C118 1.488 . S
C480 C132 1.483 . S
C482 C20 1.486 . S
C491 C146 1.488 . S
C493 C34 1.487 . S
C502 C48 1.488 . S
C504 C160 1.487 . S
C513 C62 1.484 . S
C515 C90 1.489 . S
C524 C76 1.484 . S
C526 C104 1.489 . S
C535 C286 1.484 . S
C537 C174 1.484 . S
C546 C188 1.489 . S
C548 C300 1.483 . S
C557 C314 1.488 . S
C559 C202 1.488 . S
C568 C328 1.487 . S
C570 C216 1.483 . S
C579 C258 1.487 . S
C581 C230 1.483 . S
C590 C244 1.487 . S
C592 C272 1.483 . S
C601 C7 1.561 . S
C603 C217 1.561 . S
C612 C231 1.556 . S
C614 C21 1.557 . S
C623 C245 1.562 . S
C625 C35 1.561 . S
C634 C49 1.559 . S
C636 C175 1.560 . S
C645 C63 1.564 . S
C647 C189 1.563 . S
C656 C203 1.564 . S
C658 C77 1.563 . S
C667 C301 1.563 . S
C669 C91 1.563 . S
C678 C315 1.559 . S
C680 C105 1.560 . S
C689 C329 1.562 . S
C691 C119 1.562 . S
C700 C259 1.564 . S
C702 C133 1.563 . S
C711 C147 1.561 . S
C713 C273 1.561 . S
C722 C161 1.562 . S
C724 C287 1.561 . S
C733 C8 1.459 . S
C735 C148 1.458 . S
C744 C162 1.457 . S
C746 C22 1.459 . S
C755 C92 1.457 . S
C757 C36 1.459 . S
C766 C50 1.459 . S
C768 C106 1.458 . S
C777 C64 1.459 . S
C779 C120 1.458 . S
C788 C78 1.459 . S
C790 C134 1.458 . S
C799 C176 1.457 . S
C801 C316 1.459 . S
C810 C190 1.459 . S
C812 C330 1.457 . S
C821 C204 1.458 . S
C823 C260 1.459 . S
C832 C274 1.459 . S
C834 C218 1.458 . S
C843 C232 1.458 . S
C845 C288 1.458 . S
C854 C246 1.459 . S
C856 C302 1.458 . S
