# Generated by pormake.
# Topology umk, (4)-cn, num edge types: 1
# Building blocks:
#     Node 0, Type 0, BuildingBlock: CEKHIL_clean_sbu_0, # of connection points: 4
#     Node 1, Type 0, BuildingBlock: CEKHIL_clean_sbu_0, # of connection points: 4
#     Node 2, Type 0, BuildingBlock: CEKHIL_clean_sbu_0, # of connection points: 4
#     Node 3, Type 0, BuildingBlock: CEKHIL_clean_sbu_0, # of connection points: 4
#     Node 4, Type 0, BuildingBlock: CEKHIL_clean_sbu_0, # of connection points: 4
#     Node 5, Type 0, BuildingBlock: CEKHIL_clean_sbu_0, # of connection points: 4
#     Node 6, Type 0, BuildingBlock: CEKHIL_clean_sbu_0, # of connection points: 4
#     Node 7, Type 0, BuildingBlock: CEKHIL_clean_sbu_0, # of connection points: 4
#     Node 8, Type 0, BuildingBlock: CEKHIL_clean_sbu_0, # of connection points: 4
#     Node 9, Type 0, BuildingBlock: CEKHIL_clean_sbu_0, # of connection points: 4
#     Node 10, Type 0, BuildingBlock: CEKHIL_clean_sbu_0, # of connection points: 4
#     Node 11, Type 0, BuildingBlock: CEKHIL_clean_sbu_0, # of connection points: 4
#     Node 12, Type 0, BuildingBlock: CEKHIL_clean_sbu_0, # of connection points: 4
#     Node 13, Type 0, BuildingBlock: CEKHIL_clean_sbu_0, # of connection points: 4
#     Node 14, Type 0, BuildingBlock: CEKHIL_clean_sbu_0, # of connection points: 4
#     Node 15, Type 0, BuildingBlock: CEKHIL_clean_sbu_0, # of connection points: 4
#     Node 16, Type 0, BuildingBlock: CEKHIL_clean_sbu_0, # of connection points: 4
#     Node 17, Type 0, BuildingBlock: CEKHIL_clean_sbu_0, # of connection points: 4
#     Node 18, Type 0, BuildingBlock: CEKHIL_clean_sbu_0, # of connection points: 4
#     Node 19, Type 0, BuildingBlock: CEKHIL_clean_sbu_0, # of connection points: 4
#     Node 20, Type 0, BuildingBlock: CEKHIL_clean_sbu_0, # of connection points: 4
#     Node 21, Type 0, BuildingBlock: CEKHIL_clean_sbu_0, # of connection points: 4
#     Node 22, Type 0, BuildingBlock: CEKHIL_clean_sbu_0, # of connection points: 4
#     Node 23, Type 0, BuildingBlock: CEKHIL_clean_sbu_0, # of connection points: 4
#     Edge 24, Type (0, 0), BuildingBlock: XUDNAN_clean_linker_2, # of connection points: 2
#     Edge 25, Type (0, 0), BuildingBlock: XUDNAN_clean_linker_2, # of connection points: 2
#     Edge 26, Type (0, 0), BuildingBlock: XUDNAN_clean_linker_2, # of connection points: 2
#     Edge 27, Type (0, 0), BuildingBlock: XUDNAN_clean_linker_2, # of connection points: 2
#     Edge 28, Type (0, 0), BuildingBlock: XUDNAN_clean_linker_2, # of connection points: 2
#     Edge 29, Type (0, 0), BuildingBlock: XUDNAN_clean_linker_2, # of connection points: 2
#     Edge 30, Type (0, 0), BuildingBlock: XUDNAN_clean_linker_2, # of connection points: 2
#     Edge 31, Type (0, 0), BuildingBlock: XUDNAN_clean_linker_2, # of connection points: 2
#     Edge 32, Type (0, 0), BuildingBlock: XUDNAN_clean_linker_2, # of connection points: 2
#     Edge 33, Type (0, 0), BuildingBlock: XUDNAN_clean_linker_2, # of connection points: 2
#     Edge 34, Type (0, 0), BuildingBlock: XUDNAN_clean_linker_2, # of connection points: 2
#     Edge 35, Type (0, 0), BuildingBlock: XUDNAN_clean_linker_2, # of connection points: 2
#     Edge 36, Type (0, 0), BuildingBlock: XUDNAN_clean_linker_2, # of connection points: 2
#     Edge 37, Type (0, 0), BuildingBlock: XUDNAN_clean_linker_2, # of connection points: 2
#     Edge 38, Type (0, 0), BuildingBlock: XUDNAN_clean_linker_2, # of connection points: 2
#     Edge 39, Type (0, 0), BuildingBlock: XUDNAN_clean_linker_2, # of connection points: 2
#     Edge 40, Type (0, 0), BuildingBlock: XUDNAN_clean_linker_2, # of connection points: 2
#     Edge 41, Type (0, 0), BuildingBlock: XUDNAN_clean_linker_2, # of connection points: 2
#     Edge 42, Type (0, 0), BuildingBlock: XUDNAN_clean_linker_2, # of connection points: 2
#     Edge 43, Type (0, 0), BuildingBlock: XUDNAN_clean_linker_2, # of connection points: 2
#     Edge 44, Type (0, 0), BuildingBlock: XUDNAN_clean_linker_2, # of connection points: 2
#     Edge 45, Type (0, 0), BuildingBlock: XUDNAN_clean_linker_2, # of connection points: 2
#     Edge 46, Type (0, 0), BuildingBlock: XUDNAN_clean_linker_2, # of connection points: 2
#     Edge 47, Type (0, 0), BuildingBlock: XUDNAN_clean_linker_2, # of connection points: 2
#     Edge 48, Type (0, 0), BuildingBlock: XUDNAN_clean_linker_2, # of connection points: 2
#     Edge 49, Type (0, 0), BuildingBlock: XUDNAN_clean_linker_2, # of connection points: 2
#     Edge 50, Type (0, 0), BuildingBlock: XUDNAN_clean_linker_2, # of connection points: 2
#     Edge 51, Type (0, 0), BuildingBlock: XUDNAN_clean_linker_2, # of connection points: 2
#     Edge 52, Type (0, 0), BuildingBlock: XUDNAN_clean_linker_2, # of connection points: 2
#     Edge 53, Type (0, 0), BuildingBlock: XUDNAN_clean_linker_2, # of connection points: 2
#     Edge 54, Type (0, 0), BuildingBlock: XUDNAN_clean_linker_2, # of connection points: 2
#     Edge 55, Type (0, 0), BuildingBlock: XUDNAN_clean_linker_2, # of connection points: 2
#     Edge 56, Type (0, 0), BuildingBlock: XUDNAN_clean_linker_2, # of connection points: 2
#     Edge 57, Type (0, 0), BuildingBlock: XUDNAN_clean_linker_2, # of connection points: 2
#     Edge 58, Type (0, 0), BuildingBlock: XUDNAN_clean_linker_2, # of connection points: 2
#     Edge 59, Type (0, 0), BuildingBlock: XUDNAN_clean_linker_2, # of connection points: 2
#     Edge 60, Type (0, 0), BuildingBlock: XUDNAN_clean_linker_2, # of connection points: 2
#     Edge 61, Type (0, 0), BuildingBlock: XUDNAN_clean_linker_2, # of connection points: 2
#     Edge 62, Type (0, 0), BuildingBlock: XUDNAN_clean_linker_2, # of connection points: 2
#     Edge 63, Type (0, 0), BuildingBlock: XUDNAN_clean_linker_2, # of connection points: 2
#     Edge 64, Type (0, 0), BuildingBlock: XUDNAN_clean_linker_2, # of connection points: 2
#     Edge 65, Type (0, 0), BuildingBlock: XUDNAN_clean_linker_2, # of connection points: 2
#     Edge 66, Type (0, 0), BuildingBlock: XUDNAN_clean_linker_2, # of connection points: 2
#     Edge 67, Type (0, 0), BuildingBlock: XUDNAN_clean_linker_2, # of connection points: 2
#     Edge 68, Type (0, 0), BuildingBlock: XUDNAN_clean_linker_2, # of connection points: 2
#     Edge 69, Type (0, 0), BuildingBlock: XUDNAN_clean_linker_2, # of connection points: 2
#     Edge 70, Type (0, 0), BuildingBlock: XUDNAN_clean_linker_2, # of connection points: 2
#     Edge 71, Type (0, 0), BuildingBlock: XUDNAN_clean_linker_2, # of connection points: 2
# Relax obj value: 0.068
# Max RMSD: 0.047
# Mean RMSD: 0.047
data_MOF--net-umk--node1-CEKHIL_clean_sbu_0--edge1-XUDNAN_clean_linker_2
_symmetry_space_group_name_H-M    P1
_symmetry_Int_Tables_number       1
_symmetry_cell_setting            triclinic
loop_
_symmetry_equiv_pos_as_xyz
'x, y, z'
_cell_length_a     65.702741
_cell_length_b     65.894715
_cell_length_c     42.947225
_cell_angle_alpha  89.978116
_cell_angle_beta   90.014665
_cell_angle_gamma 120.11018
loop_
_atom_site_label
_atom_site_type_symbol
_atom_site_fract_x
_atom_site_fract_y
_atom_site_fract_z
_atom_type_partial_charge
Co0 Co 0.34137 0.47869 0.09043 0.0
O1 O 0.32285 0.49393 0.08934 0.0
O2 O 0.31786 0.46581 0.05703 0.0
C3 C 0.33953 0.47316 0.14282 0.0
O4 O 0.35713 0.45837 0.08582 0.0
Co5 Co 0.38901 0.50283 0.12676 0.0
O6 O 0.38675 0.47201 0.12075 0.0
C7 C 0.38558 0.52242 0.06678 0.0
C8 C 0.31142 0.48065 0.06597 0.0
C9 C 0.37336 0.45674 0.10091 0.0
O10 O 0.36537 0.50395 0.06154 0.0
O11 O 0.3966 0.52603 0.09259 0.0
O12 O 0.32219 0.4585 0.12534 0.0
O13 O 0.35568 0.49127 0.12854 0.0
Co14 Co 0.86545 0.3262 0.59182 0.0
O15 O 0.83223 0.30386 0.59033 0.0
O16 O 0.85741 0.30697 0.55403 0.0
C17 C 0.86979 0.31886 0.6421 0.0
O18 O 0.90162 0.34661 0.58746 0.0
Co19 Co 0.88377 0.36834 0.63781 0.0
O20 O 0.9141 0.36974 0.62994 0.0
C21 C 0.86182 0.37014 0.57877 0.0
C22 C 0.83591 0.29604 0.56458 0.0
C23 C 0.91823 0.36105 0.60588 0.0
O24 O 0.86029 0.35067 0.56991 0.0
O25 O 0.86942 0.37926 0.60561 0.0
O26 O 0.86994 0.30536 0.62018 0.0
O27 O 0.86511 0.33476 0.63315 0.0
Co28 Co 0.54781 0.86995 0.08792 0.0
O29 O 0.53844 0.8373 0.08075 0.0
O30 O 0.56221 0.86667 0.05022 0.0
C31 C 0.55568 0.87023 0.13935 0.0
O32 O 0.56273 0.90596 0.0883 0.0
Co33 Co 0.52002 0.88394 0.13297 0.0
O34 O 0.54723 0.91605 0.12788 0.0
C35 C 0.50053 0.86587 0.0707 0.0
C36 C 0.55148 0.84426 0.05597 0.0
C37 C 0.5621 0.92157 0.10586 0.0
O38 O 0.51961 0.86594 0.06329 0.0
O39 O 0.49669 0.87099 0.09801 0.0
O40 O 0.5712 0.87269 0.11863 0.0
O41 O 0.53558 0.86578 0.12836 0.0
Co42 Co 0.68025 0.54209 0.58512 0.0
O43 O 0.70184 0.53059 0.57762 0.0
O44 O 0.69751 0.55491 0.54661 0.0
C45 C 0.69006 0.55159 0.63599 0.0
O46 O 0.6607 0.55867 0.58534 0.0
Co47 Co 0.64004 0.51865 0.63405 0.0
O48 O 0.63722 0.54692 0.62749 0.0
C49 C 0.63674 0.49458 0.57452 0.0
C50 C 0.70834 0.54338 0.55264 0.0
C51 C 0.6461 0.56028 0.60391 0.0
O52 O 0.65411 0.51351 0.56309 0.0
O53 O 0.63026 0.49268 0.60301 0.0
O54 O 0.70286 0.56595 0.61409 0.0
O55 O 0.6732 0.53167 0.62644 0.0
Co56 Co 0.14948 0.68003 0.08721 0.0
O57 O 0.18307 0.70108 0.08644 0.0
O58 O 0.15863 0.70135 0.05144 0.0
C59 C 0.1455 0.68498 0.13866 0.0
O60 O 0.11331 0.66175 0.08209 0.0
Co61 Co 0.1283 0.63517 0.12807 0.0
O62 O 0.09897 0.63627 0.12205 0.0
C63 C 0.15042 0.6356 0.06814 0.0
C64 C 0.18009 0.71067 0.06186 0.0
C65 C 0.09602 0.64704 0.09939 0.0
O66 O 0.15294 0.65592 0.06181 0.0
O67 O 0.14234 0.62514 0.09415 0.0
O68 O 0.14628 0.69997 0.11834 0.0
O69 O 0.149 0.66878 0.12758 0.0
Co70 Co 0.47077 0.14321 0.5851 0.0
O71 O 0.48346 0.17647 0.57943 0.0
O72 O 0.45797 0.14935 0.54745 0.0
C73 C 0.46254 0.14233 0.6364 0.0
O74 O 0.45348 0.10698 0.58463 0.0
Co75 Co 0.49695 0.12677 0.63004 0.0
O76 O 0.46842 0.09576 0.62388 0.0
C77 C 0.51693 0.14474 0.56808 0.0
C78 C 0.47092 0.1715 0.55435 0.0
C79 C 0.45351 0.09093 0.60204 0.0
O80 O 0.49818 0.1453 0.56059 0.0
O81 O 0.52055 0.1395 0.59543 0.0
O82 O 0.44789 0.14188 0.61567 0.0
O83 O 0.48227 0.14567 0.62552 0.0
Co84 Co 0.54792 0.68172 0.91654 0.0
O85 O 0.53821 0.70486 0.91721 0.0
O86 O 0.55803 0.70009 0.95519 0.0
C87 C 0.56191 0.68978 0.86737 0.0
O88 O 0.56217 0.66024 0.92214 0.0
Co89 Co 0.52447 0.64102 0.86811 0.0
O90 O 0.54964 0.63485 0.88183 0.0
C91 C 0.49794 0.6404 0.92365 0.0
C92 C 0.54869 0.71189 0.94379 0.0
C93 C 0.56238 0.64374 0.906 0.0
O94 O 0.51682 0.65733 0.93591 0.0
O95 O 0.49699 0.63336 0.89563 0.0
O96 O 0.57502 0.70251 0.89023 0.0
O97 O 0.54065 0.67439 0.87453 0.0
Co98 Co 0.8651 0.53147 0.41998 0.0
O99 O 0.83201 0.52166 0.42474 0.0
O100 O 0.86064 0.54803 0.45426 0.0
C101 C 0.8671 0.53665 0.36746 0.0
O102 O 0.9013 0.54717 0.42159 0.0
Co103 Co 0.88082 0.5019 0.38087 0.0
O104 O 0.91295 0.52848 0.38854 0.0
C105 C 0.85645 0.48377 0.44029 0.0
C106 C 0.83835 0.53657 0.44751 0.0
C107 C 0.91757 0.54523 0.40728 0.0
O108 O 0.86062 0.50448 0.44808 0.0
O109 O 0.8605 0.4788 0.41307 0.0
O110 O 0.8682 0.55291 0.38569 0.0
O111 O 0.86259 0.51748 0.38123 0.0
Co112 Co 0.34063 0.86871 0.9182 0.0
O113 O 0.31742 0.83597 0.92546 0.0
O114 O 0.32482 0.86487 0.95785 0.0
C115 C 0.33035 0.86949 0.86788 0.0
O116 O 0.36192 0.90472 0.91826 0.0
Co117 Co 0.37973 0.88346 0.868 0.0
O118 O 0.38611 0.91565 0.87684 0.0
C119 C 0.38297 0.86214 0.9269 0.0
C120 C 0.31253 0.84259 0.95148 0.0
C121 C 0.37774 0.92068 0.90049 0.0
O122 O 0.36615 0.86438 0.93883 0.0
O123 O 0.38908 0.86648 0.89827 0.0
O124 O 0.31844 0.87179 0.89042 0.0
O125 O 0.3465 0.8651 0.87652 0.0
Co126 Co 0.47573 0.33374 0.41281 0.0
O127 O 0.48984 0.3143 0.41522 0.0
O128 O 0.46433 0.31318 0.44951 0.0
C129 C 0.46637 0.32712 0.36157 0.0
O130 O 0.45709 0.35124 0.41649 0.0
Co131 Co 0.49908 0.37751 0.36968 0.0
O132 O 0.46912 0.37712 0.37687 0.0
C133 C 0.52092 0.37929 0.43023 0.0
C134 C 0.47785 0.30512 0.44036 0.0
C135 C 0.45519 0.36643 0.39944 0.0
O136 O 0.50309 0.35914 0.43733 0.0
O137 O 0.52339 0.3889 0.40353 0.0
O138 O 0.45264 0.31235 0.38249 0.0
O139 O 0.48605 0.34398 0.37203 0.0
Co140 Co 0.15202 0.47526 0.91577 0.0
O141 O 0.18537 0.48815 0.92262 0.0
O142 O 0.15769 0.46452 0.95549 0.0
C143 C 0.15181 0.46436 0.86553 0.0
O144 O 0.11572 0.45788 0.91583 0.0
Co145 Co 0.13478 0.49733 0.86533 0.0
O146 O 0.10384 0.46893 0.87312 0.0
C147 C 0.15514 0.52264 0.92411 0.0
C148 C 0.17998 0.4768 0.94875 0.0
C149 C 0.09941 0.45588 0.89703 0.0
O150 O 0.15388 0.50407 0.9362 0.0
O151 O 0.15063 0.524 0.89543 0.0
O152 O 0.15106 0.45087 0.88814 0.0
O153 O 0.1547 0.48435 0.87411 0.0
Co154 Co 0.67657 0.14029 0.41768 0.0
O155 O 0.69916 0.17283 0.42675 0.0
O156 O 0.69154 0.14315 0.4578 0.0
C157 C 0.68862 0.14166 0.36806 0.0
O158 O 0.65564 0.10428 0.41565 0.0
Co159 Co 0.639 0.12641 0.36588 0.0
O160 O 0.63356 0.09429 0.37226 0.0
C161 C 0.63379 0.14606 0.42516 0.0
C162 C 0.7038 0.16561 0.45242 0.0
C163 C 0.64106 0.08873 0.39631 0.0
O164 O 0.65035 0.14367 0.43765 0.0
O165 O 0.62844 0.14231 0.39625 0.0
O166 O 0.69984 0.13856 0.39078 0.0
O167 O 0.67192 0.14542 0.37603 0.0
Co168 Co 0.68274 0.53894 0.91541 0.0
O169 O 0.7031 0.52582 0.92013 0.0
O170 O 0.70062 0.54954 0.95426 0.0
C171 C 0.69198 0.54984 0.86472 0.0
O172 O 0.66396 0.55634 0.91776 0.0
Co173 Co 0.64179 0.51667 0.8669 0.0
O174 O 0.63724 0.54312 0.87894 0.0
C175 C 0.63895 0.4913 0.92472 0.0
C176 C 0.71004 0.53701 0.9463 0.0
C177 C 0.64739 0.55675 0.90196 0.0
O178 O 0.65621 0.51007 0.93661 0.0
O179 O 0.63259 0.48986 0.89625 0.0
O180 O 0.7055 0.56333 0.88687 0.0
O181 O 0.67499 0.52993 0.87389 0.0
Co182 Co 0.14269 0.67439 0.41883 0.0
O183 O 0.17555 0.69725 0.42636 0.0
O184 O 0.14604 0.69263 0.45599 0.0
C185 C 0.14266 0.68225 0.36744 0.0
O186 O 0.10657 0.65364 0.41824 0.0
Co187 Co 0.12795 0.63277 0.37318 0.0
O188 O 0.09606 0.6285 0.37808 0.0
C189 C 0.14574 0.63083 0.43563 0.0
C190 C 0.16851 0.70407 0.45031 0.0
C191 C 0.09077 0.63776 0.4004 0.0
O192 O 0.14609 0.64993 0.44344 0.0
O193 O 0.14053 0.62211 0.40819 0.0
O194 O 0.14045 0.69526 0.38834 0.0
O195 O 0.14684 0.66639 0.37817 0.0
Co196 Co 0.47966 0.14605 0.91451 0.0
O197 O 0.48941 0.1789 0.91632 0.0
O198 O 0.46813 0.15337 0.95267 0.0
C199 C 0.46742 0.14162 0.86426 0.0
O200 O 0.46517 0.11013 0.91859 0.0
Co201 Co 0.50464 0.12992 0.86695 0.0
O202 O 0.47834 0.09839 0.87784 0.0
C203 C 0.52923 0.15429 0.92448 0.0
C204 C 0.4779 0.17479 0.94216 0.0
C205 C 0.46503 0.09383 0.90156 0.0
O206 O 0.51 0.15217 0.93572 0.0
O207 O 0.53106 0.14876 0.89648 0.0
O208 O 0.45366 0.1407 0.88659 0.0
O209 O 0.48831 0.147 0.87286 0.0
Co210 Co 0.33692 0.4725 0.4225 0.0
O211 O 0.31434 0.48321 0.42621 0.0
O212 O 0.3144 0.45556 0.45531 0.0
C213 C 0.33559 0.4689 0.36977 0.0
O214 O 0.35632 0.45573 0.425 0.0
Co215 Co 0.38407 0.50169 0.38647 0.0
O216 O 0.38692 0.47338 0.39192 0.0
C217 C 0.37613 0.51919 0.44538 0.0
C218 C 0.30456 0.46786 0.44832 0.0
C219 C 0.37403 0.45671 0.41044 0.0
O220 O 0.35897 0.4985 0.4522 0.0
O221 O 0.38634 0.5244 0.41886 0.0
O222 O 0.31937 0.45233 0.38672 0.0
O223 O 0.35028 0.48741 0.38484 0.0
Co224 Co 0.87423 0.33298 0.91895 0.0
O225 O 0.84141 0.3102 0.92665 0.0
O226 O 0.87047 0.31787 0.95908 0.0
C227 C 0.87469 0.32186 0.86925 0.0
O228 O 0.91035 0.35403 0.91839 0.0
Co229 Co 0.88909 0.37095 0.86703 0.0
O230 O 0.92088 0.37545 0.87439 0.0
C231 C 0.8675 0.37521 0.92506 0.0
C232 C 0.8481 0.30556 0.9528 0.0
C233 C 0.92614 0.36812 0.89888 0.0
O234 O 0.87007 0.35895 0.93814 0.0
O235 O 0.87177 0.38057 0.89622 0.0
O236 O 0.87697 0.31016 0.89208 0.0
O237 O 0.87049 0.33817 0.87737 0.0
Co238 Co 0.53568 0.86387 0.41766 0.0
O239 O 0.52591 0.83123 0.42593 0.0
O240 O 0.54735 0.86059 0.45783 0.0
C241 C 0.54719 0.8642 0.36777 0.0
O242 O 0.55061 0.89984 0.4166 0.0
Co243 Co 0.51187 0.87806 0.36604 0.0
O244 O 0.53893 0.91004 0.37302 0.0
C245 C 0.48679 0.85788 0.42514 0.0
C246 C 0.53733 0.83823 0.45202 0.0
C247 C 0.55186 0.91547 0.39724 0.0
O248 O 0.50565 0.85985 0.43747 0.0
O249 O 0.48531 0.86206 0.39637 0.0
O250 O 0.56121 0.86664 0.39067 0.0
O251 O 0.5265 0.85977 0.37588 0.0
Co252 Co 0.47257 0.33238 0.08169 0.0
O253 O 0.4832 0.30994 0.07546 0.0
O254 O 0.45912 0.3143 0.04397 0.0
C255 C 0.46416 0.32488 0.13296 0.0
O256 O 0.45638 0.35231 0.08096 0.0
Co257 Co 0.4982 0.37465 0.12667 0.0
O258 O 0.4691 0.37646 0.1223 0.0
C259 C 0.5192 0.37657 0.06527 0.0
C260 C 0.47041 0.3033 0.05043 0.0
C261 C 0.45505 0.36708 0.09946 0.0
O262 O 0.50067 0.35713 0.05754 0.0
O263 O 0.52217 0.38565 0.09243 0.0
O264 O 0.44919 0.31132 0.11202 0.0
O265 O 0.48416 0.34102 0.12234 0.0
Co266 Co 0.1436 0.46742 0.58626 0.0
O267 O 0.17666 0.47885 0.57786 0.0
O268 O 0.14736 0.45435 0.54764 0.0
C269 C 0.14474 0.4584 0.63709 0.0
O270 O 0.10738 0.45072 0.58729 0.0
Co271 Co 0.12714 0.49058 0.63585 0.0
O272 O 0.09581 0.46235 0.6296 0.0
C273 C 0.1478 0.51488 0.57628 0.0
C274 C 0.16987 0.46581 0.55309 0.0
C275 C 0.09119 0.449 0.60601 0.0
O276 O 0.14593 0.49598 0.56442 0.0
O277 O 0.14345 0.5166 0.60492 0.0
O278 O 0.14271 0.4438 0.61531 0.0
O279 O 0.14757 0.47814 0.62739 0.0
Co280 Co 0.68374 0.14721 0.09097 0.0
O281 O 0.70652 0.18017 0.08783 0.0
O282 O 0.7042 0.15351 0.05471 0.0
C283 C 0.68962 0.14509 0.14252 0.0
O284 O 0.66317 0.11108 0.08849 0.0
Co285 Co 0.6402 0.13095 0.13295 0.0
O286 O 0.63675 0.0996 0.12735 0.0
C287 C 0.64098 0.15134 0.07173 0.0
C288 C 0.715 0.17535 0.06362 0.0
C289 C 0.6468 0.09487 0.10548 0.0
O290 O 0.66037 0.15177 0.06523 0.0
O291 O 0.63097 0.1451 0.09835 0.0
O292 O 0.70341 0.14362 0.12217 0.0
O293 O 0.67412 0.1497 0.13141 0.0
Co294 Co 0.54045 0.67965 0.5942 0.0
O295 O 0.52936 0.70173 0.5943 0.0
O296 O 0.54983 0.69855 0.55589 0.0
C297 C 0.55457 0.68752 0.64327 0.0
O298 O 0.55613 0.65945 0.58792 0.0
Co299 Co 0.51826 0.63798 0.64104 0.0
O300 O 0.54665 0.63632 0.63034 0.0
C301 C 0.49234 0.63525 0.58383 0.0
C302 C 0.5396 0.70939 0.5677 0.0
C303 C 0.55883 0.6451 0.60575 0.0
O304 O 0.50991 0.65482 0.57425 0.0
O305 O 0.49176 0.62634 0.61052 0.0
O306 O 0.56718 0.70084 0.6205 0.0
O307 O 0.53341 0.67158 0.63624 0.0
Co308 Co 0.87091 0.53767 0.08812 0.0
O309 O 0.83699 0.52165 0.08614 0.0
O310 O 0.86035 0.55051 0.05472 0.0
C311 C 0.87374 0.54244 0.1407 0.0
O312 O 0.90708 0.55884 0.08411 0.0
Co313 Co 0.89536 0.51473 0.12477 0.0
O314 O 0.92366 0.54592 0.11901 0.0
C315 C 0.87275 0.49489 0.06458 0.0
C316 C 0.83898 0.53513 0.06296 0.0
C317 C 0.92517 0.56099 0.09916 0.0
O318 O 0.87062 0.51304 0.05907 0.0
O319 O 0.8801 0.49153 0.09057 0.0
O320 O 0.87096 0.5571 0.12345 0.0
O321 O 0.87252 0.52486 0.12604 0.0
Co322 Co 0.32969 0.86567 0.58736 0.0
O323 O 0.3073 0.83266 0.58072 0.0
O324 O 0.3104 0.86139 0.55088 0.0
C325 C 0.32298 0.86615 0.63912 0.0
O326 O 0.34982 0.90179 0.58728 0.0
Co327 Co 0.37268 0.88122 0.63102 0.0
O328 O 0.37662 0.91285 0.62562 0.0
C329 C 0.3733 0.86296 0.56855 0.0
C330 C 0.29969 0.83903 0.55691 0.0
C331 C 0.36639 0.91779 0.60418 0.0
O332 O 0.35401 0.86267 0.56161 0.0
O333 O 0.38258 0.86823 0.5957 0.0
O334 O 0.30915 0.86767 0.61881 0.0
O335 O 0.33885 0.86223 0.62762 0.0
H336 H 0.30471 0.45014 0.18747 0.0
H337 H 0.38039 0.48815 0.17387 0.0
H338 H 0.38641 0.48582 0.2295 0.0
H339 H 0.30579 0.47946 0.2556 0.0
H340 H 0.2824 0.45469 0.27564 0.0
H341 H 0.28311 0.45533 0.23375 0.0
H342 H 0.28215 0.41558 0.23285 0.0
H343 H 0.28132 0.41476 0.27483 0.0
H344 H 0.30397 0.41239 0.2543 0.0
H345 H 0.38544 0.48522 0.28543 0.0
H346 H 0.3775 0.4857 0.34072 0.0
H347 H 0.30237 0.44738 0.32284 0.0
C348 C 0.32246 0.45731 0.19624 0.0
C349 C 0.3421 0.46907 0.17611 0.0
C350 C 0.36507 0.47891 0.18852 0.0
C351 C 0.36871 0.47761 0.22025 0.0
C352 C 0.34919 0.46653 0.2396 0.0
C353 C 0.32647 0.45647 0.22836 0.0
C354 C 0.30894 0.44786 0.25522 0.0
C355 C 0.2942 0.46007 0.25503 0.0
C356 C 0.29316 0.42105 0.25423 0.0
C357 C 0.32554 0.45552 0.28307 0.0
C358 C 0.34862 0.46598 0.27313 0.0
C359 C 0.36744 0.47655 0.29364 0.0
C360 C 0.36271 0.47675 0.32522 0.0
C361 C 0.33933 0.46615 0.33639 0.0
C362 C 0.32041 0.45502 0.31504 0.0
H363 H 0.8734 0.34743 0.68986 0.0
H364 H 0.87575 0.28424 0.66912 0.0
H365 H 0.88014 0.27895 0.72547 0.0
H366 H 0.91562 0.36784 0.75414 0.0
H367 H 0.89954 0.37879 0.77554 0.0
H368 H 0.89874 0.3783 0.73361 0.0
H369 H 0.85314 0.35395 0.73511 0.0
H370 H 0.8538 0.35431 0.77696 0.0
H371 H 0.83889 0.32673 0.75649 0.0
H372 H 0.88143 0.2796 0.78566 0.0
H373 H 0.87941 0.28624 0.84232 0.0
H374 H 0.87595 0.34877 0.82089 0.0
C375 C 0.87516 0.33263 0.69702 0.0
C376 C 0.87425 0.31625 0.67517 0.0
C377 C 0.87649 0.29705 0.68556 0.0
C378 C 0.87901 0.29393 0.71748 0.0
C379 C 0.87943 0.31028 0.73853 0.0
C380 C 0.87771 0.32932 0.72853 0.0
C381 C 0.87743 0.34386 0.75546 0.0
C382 C 0.89913 0.36866 0.75463 0.0
C383 C 0.85445 0.34474 0.75603 0.0
C384 C 0.87868 0.32979 0.78235 0.0
C385 C 0.88007 0.31059 0.77241 0.0
C386 C 0.88056 0.29473 0.79362 0.0
C387 C 0.8794 0.2986 0.8257 0.0
C388 C 0.87756 0.31802 0.83601 0.0
C389 C 0.87746 0.3338 0.8139 0.0
H390 H 0.52062 0.86199 0.31788 0.0
H391 H 0.58962 0.87341 0.34249 0.0
H392 H 0.60029 0.87765 0.28645 0.0
H393 H 0.51214 0.82771 0.25057 0.0
H394 H 0.49724 0.83997 0.22915 0.0
H395 H 0.49575 0.83879 0.271 0.0
H396 H 0.51198 0.88366 0.27306 0.0
H397 H 0.51352 0.88499 0.23118 0.0
H398 H 0.53942 0.90323 0.254 0.0
H399 H 0.6025 0.87937 0.22662 0.0
H400 H 0.59602 0.87825 0.1696 0.0
H401 H 0.52555 0.86589 0.18592 0.0
C402 C 0.53806 0.86552 0.31162 0.0
C403 C 0.55432 0.86738 0.33457 0.0
C404 C 0.57691 0.87194 0.32528 0.0
C405 C 0.5831 0.87439 0.29352 0.0
C406 C 0.56653 0.87233 0.27147 0.0
C407 C 0.54449 0.86805 0.28026 0.0
C408 C 0.52958 0.86613 0.25235 0.0
C409 C 0.50737 0.8417 0.25068 0.0
C410 C 0.52326 0.88567 0.25268 0.0
C411 C 0.54651 0.86969 0.22628 0.0
C412 C 0.56779 0.87335 0.23761 0.0
C413 C 0.58592 0.87662 0.21758 0.0
C414 C 0.5821 0.87596 0.18524 0.0
C415 C 0.5603 0.87201 0.17331 0.0
C416 C 0.54244 0.86902 0.19425 0.0
H417 H 0.66448 0.52373 0.81644 0.0
H418 H 0.72714 0.59012 0.8371 0.0
H419 H 0.733 0.59909 0.78054 0.0
H420 H 0.68628 0.50994 0.74973 0.0
H421 H 0.65865 0.49673 0.72915 0.0
H422 H 0.65895 0.49654 0.77104 0.0
H423 H 0.63393 0.51692 0.77217 0.0
H424 H 0.6335 0.51712 0.73024 0.0
H425 H 0.64408 0.54415 0.75152 0.0
H426 H 0.73241 0.59954 0.72043 0.0
H427 H 0.72556 0.5914 0.66381 0.0
H428 H 0.66338 0.52459 0.6844 0.0
C429 C 0.67935 0.5403 0.80922 0.0
C430 C 0.69535 0.55627 0.83123 0.0
C431 C 0.71463 0.57766 0.82065 0.0
C432 C 0.71807 0.58288 0.78858 0.0
C433 C 0.70202 0.56655 0.76746 0.0
C434 C 0.683 0.54572 0.77752 0.0
C435 C 0.66858 0.53068 0.75047 0.0
C436 C 0.6681 0.50709 0.75008 0.0
C437 C 0.64354 0.52701 0.75115 0.0
C438 C 0.68257 0.54605 0.72344 0.0
C439 C 0.70173 0.56676 0.73352 0.0
C440 C 0.71738 0.58341 0.71239 0.0
C441 C 0.71336 0.57866 0.68028 0.0
C442 C 0.69394 0.55738 0.66965 0.0
C443 C 0.67837 0.54105 0.69168 0.0
H444 H 0.14598 0.65669 0.31932 0.0
H445 H 0.13415 0.71452 0.33919 0.0
H446 H 0.1316 0.72033 0.28275 0.0
H447 H 0.18252 0.68215 0.25341 0.0
H448 H 0.17093 0.65503 0.23207 0.0
H449 H 0.17052 0.65464 0.27397 0.0
H450 H 0.12548 0.626 0.2733 0.0
H451 H 0.12575 0.62628 0.23134 0.0
H452 H 0.1067 0.63387 0.25223 0.0
H453 H 0.13227 0.721 0.2239 0.0
H454 H 0.13607 0.71646 0.1674 0.0
H455 H 0.14711 0.65797 0.1861 0.0
C456 C 0.14266 0.67046 0.31183 0.0
C457 C 0.14025 0.68515 0.33367 0.0
C458 C 0.13602 0.70303 0.32289 0.0
C459 C 0.13452 0.70644 0.29087 0.0
C460 C 0.13717 0.69176 0.26993 0.0
C461 C 0.14107 0.67407 0.27998 0.0
C462 C 0.14398 0.66115 0.2527 0.0
C463 C 0.16844 0.66339 0.25307 0.0
C464 C 0.1243 0.63529 0.25238 0.0
C465 C 0.14148 0.67457 0.22573 0.0
C466 C 0.13744 0.69208 0.23613 0.0
C467 C 0.13526 0.70724 0.2155 0.0
C468 C 0.13746 0.70453 0.18345 0.0
C469 C 0.14182 0.68684 0.17233 0.0
C470 C 0.14362 0.67156 0.19385 0.0
H471 H 0.49322 0.14095 0.81501 0.0
H472 H 0.426 0.13445 0.83854 0.0
H473 H 0.41606 0.13155 0.78243 0.0
H474 H 0.50524 0.17713 0.75004 0.0
H475 H 0.51873 0.16388 0.72765 0.0
H476 H 0.51947 0.16333 0.7695 0.0
H477 H 0.49988 0.118 0.76859 0.0
H478 H 0.49919 0.11841 0.72666 0.0
H479 H 0.47243 0.10084 0.74823 0.0
H480 H 0.41499 0.13224 0.723 0.0
H481 H 0.42266 0.13584 0.66618 0.0
H482 H 0.49059 0.14183 0.68285 0.0
C483 C 0.47625 0.13858 0.80845 0.0
C484 C 0.46035 0.13788 0.83111 0.0
C485 C 0.43839 0.13492 0.82153 0.0
C486 C 0.43262 0.13327 0.78973 0.0
C487 C 0.44892 0.13444 0.76792 0.0
C488 C 0.47022 0.13685 0.77697 0.0
C489 C 0.48516 0.13864 0.74917 0.0
C490 C 0.50852 0.16214 0.7491 0.0
C491 C 0.48941 0.11772 0.74811 0.0
C492 C 0.46923 0.13744 0.72296 0.0
C493 C 0.44831 0.13482 0.73411 0.0
C494 C 0.43123 0.13408 0.71405 0.0
C495 C 0.43574 0.13617 0.68184 0.0
C496 C 0.45719 0.13908 0.67011 0.0
C497 C 0.47397 0.13952 0.69105 0.0
H498 H 0.54692 0.71007 0.69031 0.0
H499 H 0.58128 0.6705 0.66791 0.0
H500 H 0.59177 0.67107 0.72354 0.0
H501 H 0.58937 0.74647 0.75353 0.0
H502 H 0.56622 0.74626 0.77629 0.0
H503 H 0.56443 0.74538 0.73436 0.0
H504 H 0.5237 0.70739 0.73736 0.0
H505 H 0.52537 0.70815 0.77913 0.0
H506 H 0.52088 0.68242 0.75843 0.0
H507 H 0.59393 0.67186 0.78251 0.0
H508 H 0.5874 0.6727 0.83935 0.0
H509 H 0.55228 0.71235 0.82257 0.0
C510 C 0.55719 0.7021 0.69717 0.0
C511 C 0.56349 0.69038 0.67521 0.0
C512 C 0.57651 0.6797 0.68464 0.0
C513 C 0.58258 0.68002 0.71609 0.0
C514 C 0.57579 0.69145 0.7375 0.0
C515 C 0.56362 0.70255 0.72832 0.0
C516 C 0.55696 0.71223 0.75597 0.0
C517 C 0.57003 0.73919 0.75497 0.0
C518 C 0.53014 0.70192 0.75782 0.0
C519 C 0.56593 0.70359 0.78231 0.0
C520 C 0.57726 0.69211 0.77125 0.0
C521 C 0.5856 0.68127 0.7914 0.0
C522 C 0.58191 0.68187 0.82355 0.0
C523 C 0.56988 0.69306 0.83496 0.0
C524 C 0.5621 0.70426 0.8142 0.0
H525 H 0.85561 0.55917 0.32187 0.0
H526 H 0.89328 0.52167 0.33744 0.0
H527 H 0.90392 0.52547 0.2826 0.0
H528 H 0.82968 0.52966 0.25214 0.0
H529 H 0.83071 0.55418 0.23204 0.0
H530 H 0.8295 0.55296 0.27391 0.0
H531 H 0.86747 0.59358 0.27672 0.0
H532 H 0.86879 0.59491 0.23477 0.0
H533 H 0.89359 0.59811 0.25683 0.0
H534 H 0.90733 0.52885 0.22706 0.0
H535 H 0.90086 0.52891 0.17125 0.0
H536 H 0.85935 0.56256 0.18639 0.0
C537 C 0.86665 0.55241 0.3137 0.0
C538 C 0.87422 0.5407 0.33432 0.0
C539 C 0.88774 0.53117 0.3226 0.0
C540 C 0.89395 0.53328 0.29127 0.0
C541 C 0.88608 0.54456 0.27148 0.0
C542 C 0.87249 0.55376 0.28186 0.0
C543 C 0.86388 0.5621 0.25437 0.0
C544 C 0.83684 0.54893 0.25305 0.0
C545 C 0.87404 0.58876 0.25576 0.0
C546 C 0.87423 0.5554 0.22717 0.0
C547 C 0.88735 0.54579 0.23801 0.0
C548 C 0.8974 0.53665 0.21817 0.0
C549 C 0.89353 0.53672 0.1863 0.0
C550 C 0.87978 0.54592 0.17423 0.0
C551 C 0.87038 0.55589 0.19492 0.0
H552 H 0.35032 0.86411 0.68578 0.0
H553 H 0.29103 0.87448 0.66919 0.0
H554 H 0.28708 0.87803 0.72597 0.0
H555 H 0.32754 0.82891 0.75347 0.0
H556 H 0.3556 0.84129 0.77286 0.0
H557 H 0.35426 0.84067 0.73099 0.0
H558 H 0.38254 0.88566 0.72932 0.0
H559 H 0.38397 0.88642 0.77123 0.0
H560 H 0.37518 0.90465 0.75069 0.0
H561 H 0.28899 0.8791 0.78548 0.0
H562 H 0.29657 0.87733 0.84173 0.0
H563 H 0.35451 0.86627 0.81831 0.0
C564 C 0.33659 0.86728 0.69403 0.0
C565 C 0.32099 0.86903 0.67303 0.0
C566 C 0.30321 0.8731 0.68484 0.0
C567 C 0.30085 0.87517 0.71706 0.0
C568 C 0.31644 0.87319 0.73717 0.0
C569 C 0.334 0.86939 0.72604 0.0
C570 C 0.34818 0.86737 0.75239 0.0
C571 C 0.34627 0.84312 0.75242 0.0
C572 C 0.37399 0.88721 0.75081 0.0
C573 C 0.3357 0.87031 0.78016 0.0
C574 C 0.31751 0.87378 0.77103 0.0
C575 C 0.30328 0.87649 0.79283 0.0
C576 C 0.30769 0.87547 0.82472 0.0
C577 C 0.32613 0.8717 0.83444 0.0
C578 C 0.34032 0.86926 0.81171 0.0
H579 H 0.49386 0.35389 0.31311 0.0
H580 H 0.4256 0.29364 0.33413 0.0
H581 H 0.41661 0.2875 0.27784 0.0
H582 H 0.47512 0.37489 0.24625 0.0
H583 H 0.50195 0.38367 0.22504 0.0
H584 H 0.50224 0.38415 0.26699 0.0
H585 H 0.52058 0.35731 0.2675 0.0
H586 H 0.52028 0.35669 0.2256 0.0
H587 H 0.50589 0.32961 0.24726 0.0
H588 H 0.41596 0.28686 0.21878 0.0
H589 H 0.42386 0.29177 0.16209 0.0
H590 H 0.49262 0.35222 0.18019 0.0
C591 C 0.4769 0.33957 0.30591 0.0
C592 C 0.46039 0.32427 0.32801 0.0
C593 C 0.43849 0.30561 0.31761 0.0
C594 C 0.43322 0.302 0.28568 0.0
C595 C 0.45001 0.31723 0.26446 0.0
C596 C 0.47139 0.33569 0.27417 0.0
C597 C 0.48678 0.34898 0.24669 0.0
C598 C 0.49181 0.37443 0.24622 0.0
C599 C 0.50973 0.34808 0.24678 0.0
C600 C 0.4709 0.33492 0.21999 0.0
C601 C 0.4497 0.31677 0.23064 0.0
C602 C 0.43246 0.3011 0.21019 0.0
C603 C 0.43709 0.30401 0.17804 0.0
C604 C 0.45882 0.32236 0.16671 0.0
C605 C 0.4758 0.33805 0.18808 0.0
H606 H 0.14631 0.48626 0.68478 0.0
H607 H 0.14067 0.41898 0.66584 0.0
H608 H 0.14047 0.41197 0.72271 0.0
H609 H 0.1853 0.50213 0.74832 0.0
H610 H 0.17208 0.51615 0.76959 0.0
H611 H 0.17054 0.51493 0.72776 0.0
H612 H 0.12506 0.49476 0.73039 0.0
H613 H 0.12645 0.49598 0.77228 0.0
H614 H 0.10875 0.46828 0.75288 0.0
H615 H 0.14246 0.4136 0.78294 0.0
H616 H 0.14629 0.42363 0.83921 0.0
H617 H 0.15065 0.48982 0.81642 0.0
C618 C 0.14484 0.46992 0.69246 0.0
C619 C 0.14347 0.45314 0.67085 0.0
C620 C 0.14167 0.43206 0.682 0.0
C621 C 0.14155 0.42796 0.71425 0.0
C622 C 0.14314 0.44507 0.73494 0.0
C623 C 0.14466 0.46559 0.72431 0.0
C624 C 0.14676 0.48157 0.75086 0.0
C625 C 0.17005 0.50507 0.74901 0.0
C626 C 0.12549 0.48536 0.75164 0.0
C627 C 0.14653 0.46708 0.77826 0.0
C628 C 0.14431 0.446 0.76885 0.0
C629 C 0.1441 0.43003 0.79046 0.0
C630 C 0.14629 0.43585 0.82235 0.0
C631 C 0.14875 0.45748 0.83223 0.0
C632 C 0.14874 0.47311 0.80974 0.0
H633 H 0.6773 0.10918 0.32171 0.0
H634 H 0.7169 0.18356 0.34183 0.0
H635 H 0.72487 0.1922 0.28571 0.0
H636 H 0.71478 0.1114 0.25283 0.0
H637 H 0.68946 0.08933 0.23209 0.0
H638 H 0.69017 0.08877 0.27405 0.0
H639 H 0.65095 0.0891 0.27602 0.0
H640 H 0.65025 0.08997 0.2342 0.0
H641 H 0.6489 0.11233 0.25676 0.0
H642 H 0.72362 0.19319 0.22816 0.0
H643 H 0.71508 0.18635 0.17182 0.0
H644 H 0.67682 0.1113 0.18764 0.0
C645 C 0.68844 0.12715 0.31419 0.0
C646 C 0.69709 0.14576 0.33582 0.0
C647 C 0.71072 0.16916 0.32543 0.0
C648 C 0.71525 0.1742 0.29367 0.0
C649 C 0.70607 0.15557 0.27267 0.0
C650 C 0.69324 0.13247 0.28242 0.0
C651 C 0.68392 0.11593 0.25474 0.0
C652 C 0.69526 0.10044 0.25335 0.0
C653 C 0.6569 0.10096 0.25549 0.0
C654 C 0.69238 0.1334 0.22808 0.0
C655 C 0.70544 0.15615 0.23903 0.0
C656 C 0.71388 0.17547 0.21923 0.0
C657 C 0.7089 0.17146 0.18738 0.0
C658 C 0.69562 0.14838 0.17573 0.0
C659 C 0.68738 0.12909 0.19618 0.0
H660 H 0.19609 0.44612 0.96128 0.0
H661 H 0.20694 0.51494 0.98378 0.0
H662 H 0.24105 0.52276 0.01666 0.0
H663 H 0.21375 0.43413 0.03756 0.0
H664 H 0.22849 0.41984 0.02093 0.0
H665 H 0.20388 0.41886 1.00095 0.0
H666 H 0.22962 0.43638 0.95174 0.0
H667 H 0.25434 0.43758 0.97163 0.0
H668 H 0.25697 0.46379 0.95458 0.0
H669 H 0.27414 0.52365 0.04596 0.0
H670 H 0.30507 0.51814 0.06977 0.0
H671 H 0.27499 0.44928 0.02718 0.0
C672 C 0.20545 0.4626 0.9737 0.0
C673 C 0.1987 0.47983 0.97063 0.0
C674 C 0.21167 0.50146 0.98635 0.0
C675 C 0.23108 0.50605 0.00496 0.0
C676 C 0.2375 0.48889 0.00738 0.0
C677 C 0.22515 0.46758 0.99222 0.0
C678 C 0.23658 0.4527 0.99788 0.0
C679 C 0.21966 0.43004 0.01537 0.0
C680 C 0.24487 0.4473 0.96712 0.0
C681 C 0.25736 0.46907 0.0183 0.0
C682 C 0.2573 0.48973 0.02362 0.0
C683 C 0.27437 0.50755 0.04197 0.0
C684 C 0.2919 0.50421 0.05544 0.0
C685 C 0.29259 0.4833 0.05039 0.0
C686 C 0.27508 0.46552 0.03134 0.0
H687 H 0.73974 0.21042 0.43981 0.0
H688 H 0.71089 0.15817 0.51319 0.0
H689 H 0.74232 0.18554 0.54876 0.0
H690 H 0.80116 0.23213 0.45901 0.0
H691 H 0.81033 0.2622 0.4497 0.0
H692 H 0.78547 0.23869 0.42997 0.0
H693 H 0.75942 0.2559 0.44705 0.0
H694 H 0.7842 0.27949 0.46674 0.0
H695 H 0.75735 0.26121 0.48779 0.0
H696 H 0.77536 0.21913 0.57713 0.0
H697 H 0.80917 0.25605 0.59604 0.0
H698 H 0.81908 0.28619 0.50371 0.0
C699 C 0.74001 0.20476 0.46341 0.0
C700 C 0.7227 0.18215 0.47381 0.0
C701 C 0.72387 0.17535 0.50472 0.0
C702 C 0.74168 0.1908 0.52508 0.0
C703 C 0.75846 0.21291 0.5141 0.0
C704 C 0.75794 0.21986 0.48392 0.0
C705 C 0.77834 0.24453 0.47796 0.0
C706 C 0.7948 0.24437 0.45266 0.0
C707 C 0.76928 0.26127 0.46938 0.0
C708 C 0.79026 0.2505 0.50965 0.0
C709 C 0.77832 0.23199 0.53013 0.0
C710 C 0.78501 0.23359 0.5612 0.0
C711 C 0.80422 0.25463 0.57172 0.0
C712 C 0.81692 0.27379 0.55126 0.0
C713 C 0.81 0.27161 0.51967 0.0
H714 H 0.54264 0.79954 0.06958 0.0
H715 H 0.56534 0.85091 0.99516 0.0
H716 H 0.56804 0.82293 0.95957 0.0
H717 H 0.58147 0.77684 0.04832 0.0
H718 H 0.56039 0.74699 0.05863 0.0
H719 H 0.56014 0.77095 0.0785 0.0
H720 H 0.51636 0.75401 0.0637 0.0
H721 H 0.51647 0.73001 0.04379 0.0
H722 H 0.50773 0.74832 0.02336 0.0
H723 H 0.56573 0.78885 0.93116 0.0
H724 H 0.56142 0.75162 0.91212 0.0
H725 H 0.54328 0.72239 0.0052 0.0
C726 C 0.54822 0.80488 0.04579 0.0
C727 C 0.55369 0.82744 0.03509 0.0
C728 C 0.56112 0.83382 0.00391 0.0
C729 C 0.56267 0.818 0.9835 0.0
C730 C 0.55712 0.79594 0.9947 0.0
C731 C 0.55033 0.78941 0.02519 0.0
C732 C 0.54573 0.76466 0.03122 0.0
C733 C 0.56296 0.76488 0.05562 0.0
C734 C 0.52004 0.74829 0.0411 0.0
C735 C 0.55059 0.75816 0.9992 0.0
C736 C 0.55697 0.77651 0.97854 0.0
C737 C 0.56108 0.77452 0.94721 0.0
C738 C 0.55854 0.75326 0.93661 0.0
C739 C 0.55232 0.73424 0.95721 0.0
C740 C 0.54852 0.73681 0.98907 0.0
H741 H 0.7203 0.51 0.53782 0.0
H742 H 0.74217 0.58343 0.52526 0.0
H743 H 0.77816 0.58976 0.49822 0.0
H744 H 0.77676 0.51612 0.54999 0.0
H745 H 0.77106 0.49071 0.52748 0.0
H746 H 0.74713 0.49185 0.54623 0.0
H747 H 0.72556 0.48441 0.49336 0.0
H748 H 0.74932 0.48301 0.4745 0.0
H749 H 0.74056 0.50337 0.46081 0.0
H750 H 0.81361 0.58881 0.47711 0.0
H751 H 0.84269 0.5794 0.45491 0.0
H752 H 0.79581 0.50572 0.47466 0.0
C753 C 0.73262 0.52735 0.52912 0.0
C754 C 0.72855 0.5463 0.53374 0.0
C755 C 0.74491 0.56868 0.52182 0.0
C756 C 0.76547 0.57246 0.50663 0.0
C757 C 0.76916 0.55352 0.50278 0.0
C758 C 0.7529 0.53126 0.51293 0.0
C759 C 0.76061 0.51373 0.50443 0.0
C760 C 0.7641 0.50244 0.53378 0.0
C761 C 0.74296 0.49503 0.48193 0.0
C762 C 0.78393 0.52968 0.48843 0.0
C763 C 0.78872 0.55265 0.4883 0.0
C764 C 0.80985 0.57084 0.4766 0.0
C765 C 0.82632 0.56537 0.46422 0.0
C766 C 0.82138 0.54188 0.46288 0.0
C767 C 0.79988 0.52381 0.47511 0.0
H768 H 0.27417 0.7995 0.93689 0.0
H769 H 0.30838 0.84725 0.01397 0.0
H770 H 0.27785 0.81895 0.04977 0.0
H771 H 0.21429 0.77995 0.96292 0.0
H772 H 0.20286 0.7502 0.94979 0.0
H773 H 0.22758 0.77394 0.93014 0.0
H774 H 0.25201 0.75353 0.93921 0.0
H775 H 0.22738 0.72973 0.95887 0.0
H776 H 0.25544 0.74557 0.97822 0.0
H777 H 0.24531 0.78463 0.07772 0.0
H778 H 0.21083 0.74789 0.09572 0.0
H779 H 0.19481 0.72311 1.00045 0.0
C780 C 0.27522 0.80396 0.96133 0.0
C781 C 0.29382 0.82557 0.97271 0.0
C782 C 0.29437 0.83086 0.00473 0.0
C783 C 0.27711 0.81486 0.02525 0.0
C784 C 0.25907 0.79374 0.01334 0.0
C785 C 0.25777 0.78835 0.98207 0.0
C786 C 0.2361 0.76464 0.97532 0.0
C787 C 0.21921 0.76735 0.95323 0.0
C788 C 0.24316 0.74735 0.96213 0.0
C789 C 0.22561 0.75739 0.00776 0.0
C790 C 0.23937 0.77442 0.02931 0.0
C791 C 0.23424 0.77136 0.061 0.0
C792 C 0.21464 0.7504 0.07101 0.0
C793 C 0.19998 0.73282 0.04949 0.0
C794 C 0.20544 0.73646 0.01734 0.0
H795 H 0.44024 0.18787 0.54163 0.0
H796 H 0.50974 0.19911 0.52115 0.0
H797 H 0.51863 0.23424 0.49027 0.0
H798 H 0.43045 0.20832 0.46603 0.0
H799 H 0.41585 0.22262 0.48303 0.0
H800 H 0.41416 0.19734 0.50178 0.0
H801 H 0.43051 0.22131 0.55254 0.0
H802 H 0.4325 0.24673 0.53384 0.0
H803 H 0.45819 0.2485 0.55164 0.0
H804 H 0.52065 0.2682 0.46288 0.0
H805 H 0.51581 0.29955 0.4394 0.0
H806 H 0.44558 0.26874 0.47853 0.0
C807 C 0.45708 0.19752 0.53 0.0
C808 C 0.47421 0.19059 0.5331 0.0
C809 C 0.49633 0.20397 0.51851 0.0
C810 C 0.50154 0.22398 0.50107 0.0
C811 C 0.48453 0.23062 0.4987 0.0
C812 C 0.46272 0.21787 0.51265 0.0
C813 C 0.44811 0.22965 0.50716 0.0
C814 C 0.42582 0.21352 0.48838 0.0
C815 C 0.44197 0.23698 0.53814 0.0
C816 C 0.46519 0.251 0.48813 0.0
C817 C 0.48601 0.25098 0.4835 0.0
C818 C 0.50444 0.26842 0.46634 0.0
C819 C 0.50151 0.28619 0.45308 0.0
C820 C 0.48038 0.28674 0.45717 0.0
C821 C 0.46204 0.26898 0.4753 0.0
H822 H 0.83182 0.56813 0.03159 0.0
H823 H 0.7976 0.49456 0.05719 0.0
H824 H 0.76123 0.48768 0.03127 0.0
H825 H 0.78021 0.57397 0.04476 0.0
H826 H 0.78611 0.59379 0.01264 0.0
H827 H 0.81007 0.5932 0.03222 0.0
H828 H 0.82418 0.58523 0.97977 0.0
H829 H 0.80034 0.58592 0.96002 0.0
H830 H 0.80392 0.56064 0.95629 0.0
H831 H 0.72909 0.48793 1.00099 0.0
H832 H 0.70208 0.49592 0.97021 0.0
H833 H 0.75469 0.56979 0.96705 0.0
C834 C 0.81668 0.55059 0.03151 0.0
C835 C 0.81763 0.53182 0.04631 0.0
C836 C 0.79733 0.5092 0.0461 0.0
C837 C 0.77656 0.50509 0.03138 0.0
C838 C 0.77605 0.52386 0.01729 0.0
C839 C 0.79543 0.54623 0.0174 0.0
C840 C 0.78963 0.56332 1.00124 0.0
C841 C 0.79162 0.58219 0.02408 0.0
C842 C 0.80546 0.57443 0.97263 0.0
C843 C 0.76414 0.54696 0.99173 0.0
C844 C 0.75683 0.52424 1.00111 0.0
C845 C 0.7345 0.50569 0.99389 0.0
C846 C 0.71926 0.51037 0.97645 0.0
C847 C 0.72612 0.53346 0.96686 0.0
C848 C 0.74882 0.55206 0.9748 0.0
H849 H 0.21214 0.71608 0.47395 0.0
H850 H 0.16212 0.7404 0.46588 0.0
H851 H 0.1908 0.77811 0.49037 0.0
H852 H 0.23335 0.74211 0.55114 0.0
H853 H 0.26312 0.7489 0.54368 0.0
H854 H 0.23892 0.7242 0.52469 0.0
H855 H 0.25792 0.74111 0.47107 0.0
H856 H 0.28203 0.76599 0.48987 0.0
H857 H 0.26497 0.77043 0.46061 0.0
H858 H 0.22644 0.81455 0.5114 0.0
H859 H 0.2634 0.84432 0.53658 0.0
H860 H 0.28847 0.79475 0.53769 0.0
C861 C 0.20724 0.72933 0.47761 0.0
C862 C 0.18498 0.72545 0.46793 0.0
C863 C 0.17904 0.74303 0.4733 0.0
C864 C 0.19528 0.76455 0.48697 0.0
C865 C 0.21721 0.768 0.49595 0.0
C866 C 0.22298 0.75063 0.49229 0.0
C867 C 0.24721 0.75837 0.50568 0.0
C868 C 0.24554 0.74245 0.53292 0.0
C869 C 0.26402 0.75901 0.48029 0.0
C870 C 0.25433 0.78292 0.51689 0.0
C871 C 0.23695 0.78829 0.51045 0.0
C872 C 0.23999 0.81039 0.517 0.0
C873 C 0.26109 0.82725 0.5311 0.0
C874 C 0.27866 0.82178 0.53924 0.0
C875 C 0.2752 0.79931 0.53196 0.0
H876 H 0.48303 0.19142 0.00319 0.0
H877 H 0.46333 0.19995 0.90981 0.0
H878 H 0.45775 0.23232 0.92785 0.0
H879 H 0.44361 0.20651 0.04563 0.0
H880 H 0.46493 0.22281 0.07547 0.0
H881 H 0.46544 0.19879 0.05615 0.0
H882 H 0.50896 0.22643 0.04077 0.0
H883 H 0.50854 0.25053 0.05994 0.0
H884 H 0.51688 0.25299 0.01953 0.0
H885 H 0.45458 0.26396 0.95516 0.0
H886 H 0.45644 0.29478 0.98972 0.0
H887 H 0.481 0.26873 0.0652 0.0
C888 C 0.47714 0.19989 0.98682 0.0
C889 C 0.47328 0.19298 0.95514 0.0
C890 C 0.46623 0.20488 0.93417 0.0
C891 C 0.46297 0.22328 0.9442 0.0
C892 C 0.46718 0.22997 0.97533 0.0
C893 C 0.47428 0.21884 0.99638 0.0
C894 C 0.47904 0.23074 0.02806 0.0
C895 C 0.46225 0.21369 0.05279 0.0
C896 C 0.50489 0.24077 0.03763 0.0
C897 C 0.47362 0.25025 0.02134 0.0
C898 C 0.46649 0.24919 0.99086 0.0
C899 C 0.4602 0.26502 0.97908 0.0
C900 C 0.46128 0.28247 0.99891 0.0
C901 C 0.46896 0.2843 0.03011 0.0
C902 C 0.47522 0.26791 0.04139 0.0
H903 H 0.21585 0.4982 0.53836 0.0
H904 H 0.16198 0.42549 0.5251 0.0
H905 H 0.19071 0.41806 0.49769 0.0
H906 H 0.24264 0.50438 0.46117 0.0
H907 H 0.27207 0.52385 0.47502 0.0
H908 H 0.24734 0.52335 0.49392 0.0
H909 H 0.26067 0.51485 0.54668 0.0
H910 H 0.28531 0.5151 0.5279 0.0
H911 H 0.26476 0.48986 0.55016 0.0
H912 H 0.22638 0.41767 0.47647 0.0
H913 H 0.26464 0.42576 0.45466 0.0
H914 H 0.29435 0.49966 0.47525 0.0
C915 C 0.21012 0.48079 0.52941 0.0
C916 C 0.1867 0.46235 0.53395 0.0
C917 C 0.17977 0.43986 0.52173 0.0
C918 C 0.19602 0.43545 0.50631 0.0
C919 C 0.21904 0.45388 0.50255 0.0
C920 C 0.22596 0.47626 0.51301 0.0
C921 C 0.25152 0.49314 0.50466 0.0
C922 C 0.2535 0.51231 0.48236 0.0
C923 C 0.26644 0.50387 0.53411 0.0
C924 C 0.25801 0.47667 0.48845 0.0
C925 C 0.2391 0.45401 0.48802 0.0
C926 C 0.24116 0.43541 0.47617 0.0
C927 C 0.26296 0.44012 0.46401 0.0
C928 C 0.28227 0.4633 0.46304 0.0
C929 C 0.27972 0.48181 0.47537 0.0
H930 H 0.80309 0.27 0.93942 0.0
H931 H 0.8547 0.2983 0.01379 0.0
H932 H 0.82671 0.26707 0.04901 0.0
H933 H 0.75182 0.25303 0.98634 0.0
H934 H 0.73344 0.22631 0.96523 0.0
H935 H 0.75749 0.25083 0.94577 0.0
H936 H 0.77438 0.22437 0.92951 0.0
H937 H 0.75043 0.19977 0.94905 0.0
H938 H 0.7804 0.20856 0.95895 0.0
H939 H 0.7926 0.23433 0.07695 0.0
H940 H 0.75505 0.20112 0.09553 0.0
H941 H 0.72576 0.19166 0.0027 0.0
C942 C 0.80848 0.26964 0.96315 0.0
C943 C 0.83111 0.28674 0.97391 0.0
C944 C 0.83753 0.28547 0.00501 0.0
C945 C 0.82173 0.26777 0.02519 0.0
C946 C 0.79962 0.25119 0.01385 0.0
C947 C 0.79301 0.25182 0.98351 0.0
C948 C 0.76821 0.23169 0.97725 0.0
C949 C 0.75177 0.24103 0.96811 0.0
C950 C 0.76837 0.21512 0.9522 0.0
C951 C 0.76177 0.21984 0.00896 0.0
C952 C 0.7802 0.23152 0.02969 0.0
C953 C 0.77821 0.22487 0.06082 0.0
C954 C 0.75683 0.20598 0.07115 0.0
C955 C 0.73774 0.1936 0.05045 0.0
C956 C 0.74031 0.20046 0.01881 0.0
H957 H 0.53291 0.79513 0.43889 0.0
H958 H 0.54578 0.84376 0.51452 0.0
H959 H 0.54826 0.81627 0.55139 0.0
H960 H 0.49795 0.74153 0.4815 0.0
H961 H 0.51059 0.72585 0.46303 0.0
H962 H 0.50942 0.74907 0.44245 0.0
H963 H 0.55444 0.77008 0.43361 0.0
H964 H 0.55576 0.74693 0.45419 0.0
H965 H 0.57379 0.77695 0.46659 0.0
H966 H 0.54721 0.78295 0.58046 0.0
H967 H 0.54571 0.74706 0.59989 0.0
H968 H 0.53686 0.72046 0.50552 0.0
C969 C 0.53619 0.79993 0.46325 0.0
C970 C 0.53898 0.82158 0.4739 0.0
C971 C 0.54358 0.82734 0.50584 0.0
C972 C 0.54498 0.8118 0.52696 0.0
C973 C 0.54218 0.79067 0.51576 0.0
C974 C 0.53816 0.78479 0.48462 0.0
C975 C 0.53647 0.76118 0.47874 0.0
C976 C 0.51216 0.74335 0.46566 0.0
C977 C 0.5563 0.76396 0.45699 0.0
C978 C 0.53981 0.75456 0.51152 0.0
C979 C 0.54286 0.77184 0.53244 0.0
C980 C 0.54512 0.76946 0.56425 0.0
C981 C 0.54419 0.74895 0.57507 0.0
C982 C 0.54141 0.73105 0.55425 0.0
C983 C 0.53941 0.73401 0.52193 0.0
H984 H 0.39249 0.43959 0.14163 0.0
H985 H 0.36612 0.43035 0.04714 0.0
H986 H 0.38098 0.40287 0.03692 0.0
H987 H 0.4451 0.44288 0.12414 0.0
H988 H 0.44602 0.42769 0.15855 0.0
H989 H 0.4303 0.44349 0.15918 0.0
H990 H 0.39235 0.40587 0.1766 0.0
H991 H 0.40803 0.38995 0.17631 0.0
H992 H 0.38144 0.37944 0.15385 0.0
H993 H 0.40337 0.37931 0.03645 0.0
H994 H 0.42954 0.3628 0.04582 0.0
H995 H 0.44088 0.38912 0.1405 0.0
C996 C 0.38936 0.43147 0.11888 0.0
C997 C 0.3781 0.43716 0.09517 0.0
C998 C 0.37445 0.42609 0.06578 0.0
C999 C 0.38295 0.41054 0.05978 0.0
C1000 C 0.3948 0.40605 0.08352 0.0
C1001 C 0.39767 0.4161 0.11261 0.0
C1002 C 0.41226 0.41008 0.13382 0.0
C1003 C 0.43474 0.43236 0.14453 0.0
C1004 C 0.39764 0.39546 0.1618 0.0
C1005 C 0.41789 0.39559 0.11202 0.0
C1006 C 0.40752 0.39308 0.08318 0.0
C1007 C 0.4113 0.38104 0.0591 0.0
C1008 C 0.42619 0.37168 0.06463 0.0
C1009 C 0.43739 0.37466 0.09388 0.0
C1010 C 0.43272 0.38649 0.11782 0.0
H1011 H 0.05418 0.43509 0.64595 0.0
H1012 H 0.07067 0.42374 0.55205 0.0
H1013 H 0.02805 0.3975 0.54171 0.0
H1014 H 1.00512 0.37598 0.65903 0.0
H1015 H 0.98897 0.3865 0.68117 0.0
H1016 H 0.02066 0.40275 0.68114 0.0
H1017 H 0.02004 0.43989 0.66256 0.0
H1018 H 0.98841 0.42376 0.66248 0.0
H1019 H 1.00419 0.43851 0.62762 0.0
H1020 H 0.98193 0.37412 0.54141 0.0
H1021 H 0.93909 0.35686 0.55152 0.0
H1022 H 0.95505 0.38416 0.64576 0.0
C1023 C 0.049 0.42698 0.62322 0.0
C1024 C 0.06592 0.43161 0.59981 0.0
C1025 C 0.05813 0.42044 0.57047 0.0
C1026 C 0.03391 0.40552 0.56437 0.0
C1027 C 0.01769 0.40171 0.58795 0.0
C1028 C 0.02511 0.41207 0.61687 0.0
C1029 C 1.00457 0.40611 0.63819 0.0
C1030 C 1.00485 0.39199 0.66655 0.0
C1031 C 1.00429 0.42839 0.64828 0.0
C1032 C 0.98427 0.39114 0.6167 0.0
C1033 C 0.99193 0.38854 0.58782 0.0
C1034 C 0.97586 0.37596 0.56409 0.0
C1035 C 0.95153 0.36615 0.57002 0.0
C1036 C 0.94351 0.36913 0.59939 0.0
C1037 C 0.96033 0.38151 0.62294 0.0
H1038 H 0.56242 0.95846 0.13548 0.0
H1039 H 0.59892 0.94299 0.06341 0.0
H1040 H 0.62526 0.98573 0.05477 0.0
H1041 H 0.56384 0.00728 0.09741 0.0
H1042 H 0.56768 0.02309 0.13319 0.0
H1043 H 0.55236 0.99152 0.1334 0.0
H1044 H 0.58123 0.99224 0.17516 0.0
H1045 H 0.59663 0.02381 0.17509 0.0
H1046 H 0.61244 0.0085 0.1677 0.0
H1047 H 0.64778 0.03178 0.05454 0.0
H1048 H 0.66314 0.07439 0.06288 0.0
H1049 H 0.6107 0.05735 0.13497 0.0
C1050 C 0.57596 0.96386 0.11787 0.0
C1051 C 0.57853 0.94715 0.1002 0.0
C1052 C 0.59652 0.95533 0.07733 0.0
C1053 C 0.61159 0.97962 0.07226 0.0
C1054 C 0.60842 0.99555 0.09018 0.0
C1055 C 0.59094 0.98781 0.1125 0.0
C1056 C 0.59065 0.00803 0.12865 0.0
C1057 C 0.56725 0.00744 0.1228 0.0
C1058 C 0.59554 0.00814 0.16372 0.0
C1059 C 0.61083 0.02855 0.11223 0.0
C1060 C 0.62097 0.02125 0.09001 0.0
C1061 C 0.63989 0.03755 0.07196 0.0
C1062 C 0.64852 0.06176 0.07683 0.0
C1063 C 0.63827 0.06946 0.09962 0.0
C1064 C 0.61917 0.05237 0.11737 0.0
H1065 H 0.62558 0.57617 0.64488 0.0
H1066 H 0.648 0.58301 0.54861 0.0
H1067 H 0.63067 0.6083 0.53821 0.0
H1068 H 0.57097 0.57085 0.63109 0.0
H1069 H 0.57165 0.58724 0.66506 0.0
H1070 H 0.5877 0.57176 0.66489 0.0
H1071 H 0.62615 0.61028 0.67835 0.0
H1072 H 0.61017 0.62591 0.67866 0.0
H1073 H 0.63559 0.63573 0.65396 0.0
H1074 H 0.60707 0.63077 0.53837 0.0
H1075 H 0.58111 0.64737 0.54944 0.0
H1076 H 0.57591 0.62527 0.64568 0.0
C1077 C 0.62716 0.58316 0.62161 0.0
C1078 C 0.63814 0.57749 0.59756 0.0
C1079 C 0.6398 0.58717 0.56752 0.0
C1080 C 0.62994 0.60153 0.56139 0.0
C1081 C 0.61875 0.60631 0.58564 0.0
C1082 C 0.61763 0.59751 0.61523 0.0
C1083 C 0.60402 0.60416 0.63726 0.0
C1084 C 0.58231 0.5822 0.65032 0.0
C1085 C 0.61993 0.61996 0.66361 0.0
C1086 C 0.59703 0.61761 0.61544 0.0
C1087 C 0.60571 0.61896 0.58575 0.0
C1088 C 0.60042 0.62993 0.56167 0.0
C1089 C 0.5857 0.63937 0.56813 0.0
C1090 C 0.57629 0.63759 0.59837 0.0
C1091 C 0.58257 0.6269 0.62219 0.0
H1092 H 0.96079 0.58099 0.14075 0.0
H1093 H 0.9447 0.58479 0.04386 0.0
H1094 H 0.98728 0.61177 0.03346 0.0
H1095 H 0.01095 0.64201 0.14846 0.0
H1096 H 0.02646 0.63248 0.17371 0.0
H1097 H 0.99475 0.61707 0.17368 0.0
H1098 H 0.99413 0.57818 0.16195 0.0
H1099 H 0.02572 0.59343 0.16163 0.0
H1100 H 0.00952 0.57639 0.12826 0.0
H1101 H 0.03342 0.63454 0.03339 0.0
H1102 H 0.07597 0.64997 0.04371 0.0
H1103 H 0.05981 0.62985 0.1406 0.0
C1104 C 0.96608 0.58797 0.11744 0.0
C1105 C 0.94937 0.58084 0.09313 0.0
C1106 C 0.95711 0.59027 0.06295 0.0
C1107 C 0.98131 0.60551 0.05686 0.0
C1108 C 0.99746 0.61137 0.08129 0.0
C1109 C 0.98992 0.60304 0.1111 0.0
C1110 C 0.01036 0.60998 0.13305 0.0
C1111 C 0.01064 0.62636 0.15874 0.0
C1112 C 0.0099 0.5882 0.14701 0.0
C1113 C 0.03077 0.62288 0.1109 0.0
C1114 C 0.02325 0.62393 0.08119 0.0
C1115 C 0.03937 0.63403 0.05672 0.0
C1116 C 0.06355 0.64282 0.06277 0.0
C1117 C 0.07132 0.64112 0.09295 0.0
C1118 C 0.05458 0.63145 0.11722 0.0
H1119 H 0.45417 0.05385 0.62905 0.0
H1120 H 0.41441 0.06992 0.56269 0.0
H1121 H 0.38702 0.02715 0.55522 0.0
H1122 H 0.44948 1.00433 0.58878 0.0
H1123 H 0.44763 0.98886 0.62424 0.0
H1124 H 0.46345 0.02043 0.62377 0.0
H1125 H 0.43767 0.02082 0.66923 0.0
H1126 H 0.42176 0.98926 0.66984 0.0
H1127 H 0.40609 1.00502 0.66527 0.0
H1128 H 0.36374 0.98089 0.55594 0.0
H1129 H 0.34818 0.93829 0.56459 0.0
H1130 H 0.40455 0.95523 0.63052 0.0
C1131 C 0.4397 0.04863 0.61294 0.0
C1132 C 0.43648 0.06548 0.59659 0.0
C1133 C 0.41732 0.05747 0.57556 0.0
C1134 C 0.40166 0.03317 0.5712 0.0
C1135 C 0.40547 0.01712 0.58791 0.0
C1136 C 0.42418 0.02475 0.60828 0.0
C1137 C 0.42505 1.00453 0.62348 0.0
C1138 C 0.44774 1.00454 0.61452 0.0
C1139 C 0.42247 1.00494 0.65905 0.0
C1140 C 0.4037 0.98407 0.60893 0.0
C1141 C 0.39254 0.99141 0.58831 0.0
C1142 C 0.37245 0.97512 0.57209 0.0
C1143 C 0.36371 0.95092 0.57714 0.0
C1144 C 0.37499 0.9432 0.59836 0.0
C1145 C 0.39525 0.96025 0.61427 0.0
H1146 H 0.55526 0.60052 0.89199 0.0
H1147 H 0.60442 0.66481 0.93932 0.0
H1148 H 0.63139 0.64897 0.94732 0.0
H1149 H 0.56572 0.5605 0.93968 0.0
H1150 H 0.56227 0.54217 0.90666 0.0
H1151 H 0.54653 0.55801 0.90808 0.0
H1152 H 0.56451 0.5772 0.85483 0.0
H1153 H 0.58043 0.56161 0.85334 0.0
H1154 H 0.59604 0.59314 0.85022 0.0
H1155 H 0.65443 0.62574 0.9458 0.0
H1156 H 0.66979 0.5987 0.9353 0.0
H1157 H 0.60447 0.55111 0.88844 0.0
C1158 C 0.57155 0.61128 0.90444 0.0
C1159 C 0.57771 0.63398 0.91496 0.0
C1160 C 0.5992 0.6473 0.93125 0.0
C1161 C 0.61465 0.63844 0.93577 0.0
C1162 C 0.6082 0.61613 0.92421 0.0
C1163 C 0.58693 0.60274 0.90916 0.0
C1164 C 0.58408 0.57984 0.89751 0.0
C1165 C 0.56343 0.5589 0.91397 0.0
C1166 C 0.5811 0.57785 0.86187 0.0
C1167 C 0.60736 0.58251 0.90736 0.0
C1168 C 0.6211 0.60332 0.92311 0.0
C1169 C 0.64363 0.60938 0.93365 0.0
C1170 C 0.65225 0.59392 0.92762 0.0
C1171 C 0.63847 0.57281 0.91082 0.0
C1172 C 0.61566 0.56715 0.90108 0.0
H1173 H 0.95438 0.55153 0.37114 0.0
H1174 H 0.93845 0.57944 0.45315 0.0
H1175 H 0.98115 0.60768 0.46005 0.0
H1176 H 1.00597 0.55404 0.39942 0.0
H1177 H 0.02077 0.56208 0.36231 0.0
H1178 H 0.98917 0.54512 0.36382 0.0
H1179 H 0.98653 0.5763 0.32993 0.0
H1180 H 0.01816 0.59338 0.32832 0.0
H1181 H 1.00155 0.60651 0.34233 0.0
H1182 H 0.02711 0.63204 0.45832 0.0
H1183 H 0.06984 0.64949 0.44792 0.0
H1184 H 0.05349 0.60488 0.36657 0.0
C1185 C 0.95969 0.56353 0.39065 0.0
C1186 C 0.94292 0.56307 0.41175 0.0
C1187 C 0.95088 0.57939 0.43666 0.0
C1188 C 0.97513 0.59548 0.44075 0.0
C1189 C 0.99116 0.59519 0.41955 0.0
C1190 C 0.98356 0.57963 0.39489 0.0
C1191 C 1.0039 0.58233 0.37533 0.0
C1192 C 1.00501 0.55954 0.37523 0.0
C1193 C 1.00244 0.5901 0.34201 0.0
C1194 C 0.02434 0.60163 0.39296 0.0
C1195 C 0.01685 0.60902 0.41837 0.0
C1196 C 0.03302 0.6264 0.43834 0.0
C1197 C 0.0573 0.63625 0.43223 0.0
C1198 C 0.06523 0.62867 0.40638 0.0
C1199 C 0.04828 0.61125 0.38652 0.0
H1200 H 0.46636 0.05673 0.87571 0.0
H1201 H 0.42782 0.07292 0.94385 0.0
H1202 H 0.40123 0.03018 0.9528 0.0
H1203 H 0.41772 0.00803 0.84157 0.0
H1204 H 0.43309 0.9921 0.83561 0.0
H1205 H 0.44919 0.02366 0.83623 0.0
H1206 H 0.47597 0.02308 0.88018 0.0
H1207 H 0.45999 0.9915 0.87963 0.0
H1208 H 0.46281 0.00694 0.91545 0.0
H1209 H 0.37796 0.98398 0.95235 0.0
H1210 H 0.36146 0.94138 0.94262 0.0
H1211 H 0.41626 0.95794 0.87431 0.0
C1212 C 0.45242 0.05153 0.89268 0.0
C1213 C 0.44924 0.06841 0.90901 0.0
C1214 C 0.43073 0.06045 0.93107 0.0
C1215 C 0.41552 0.03616 0.93624 0.0
C1216 C 0.41912 0.02006 0.91931 0.0
C1217 C 0.43728 0.02765 0.89807 0.0
C1218 C 0.43763 0.00735 0.88222 0.0
C1219 C 0.43419 0.00782 0.84682 0.0
C1220 C 0.46045 0.00722 0.88984 0.0
C1221 C 0.41658 0.98692 0.89737 0.0
C1222 C 0.40607 0.99435 0.9189 0.0
C1223 C 0.38619 0.97814 0.93554 0.0
C1224 C 0.37691 0.95393 0.92988 0.0
C1225 C 0.38741 0.94611 0.90757 0.0
C1226 C 0.40757 0.96307 0.89139 0.0
H1227 H 0.39634 0.44383 0.3686 0.0
H1228 H 0.3661 0.42743 0.46121 0.0
H1229 H 0.38062 0.39931 0.46801 0.0
H1230 H 0.38408 0.38472 0.34864 0.0
H1231 H 0.41119 0.3959 0.32718 0.0
H1232 H 0.39658 0.4128 0.32947 0.0
H1233 H 0.43467 0.44812 0.35141 0.0
H1234 H 0.44936 0.43135 0.34924 0.0
H1235 H 0.44813 0.44419 0.38574 0.0
H1236 H 0.40268 0.37533 0.46527 0.0
H1237 H 0.42833 0.35862 0.45307 0.0
H1238 H 0.442 0.39103 0.36176 0.0
C1239 C 0.3925 0.43419 0.39029 0.0
C1240 C 0.38019 0.43797 0.41446 0.0
C1241 C 0.37541 0.42477 0.4423 0.0
C1242 C 0.38365 0.40881 0.44634 0.0
C1243 C 0.39626 0.40595 0.42212 0.0
C1244 C 0.40031 0.41819 0.3945 0.0
C1245 C 0.41491 0.41302 0.37221 0.0
C1246 C 0.40084 0.40088 0.34263 0.0
C1247 C 0.43814 0.4355 0.3642 0.0
C1248 C 0.41915 0.39643 0.39174 0.0
C1249 C 0.40823 0.39228 0.42042 0.0
C1250 C 0.41101 0.37832 0.44269 0.0
C1251 C 0.42557 0.36881 0.43555 0.0
C1252 C 0.43728 0.37344 0.40646 0.0
C1253 C 0.43342 0.38704 0.38427 0.0
H1254 H 0.06221 0.44283 0.85766 0.0
H1255 H 0.07897 0.43004 0.95075 0.0
H1256 H 0.03632 0.40418 0.96132 0.0
H1257 H 0.01288 0.44705 0.87763 0.0
H1258 H 0.99671 0.43289 0.84275 0.0
H1259 H 0.02835 0.4486 0.84224 0.0
H1260 H 0.02819 0.41138 0.82231 0.0
H1261 H 0.9965 0.39556 0.82262 0.0
H1262 H 0.01243 0.38436 0.84388 0.0
H1263 H 0.9904 0.38114 0.96191 0.0
H1264 H 0.94758 0.36393 0.95234 0.0
H1265 H 0.96283 0.39294 0.85892 0.0
C1266 C 0.0571 0.43448 0.88028 0.0
C1267 C 0.07412 0.4386 0.90339 0.0
C1268 C 0.06637 0.42715 0.93256 0.0
C1269 C 0.04214 0.41244 0.93878 0.0
C1270 C 0.02586 0.4092 0.91552 0.0
C1271 C 0.0332 0.41987 0.88678 0.0
C1272 C 0.01258 0.4145 0.86585 0.0
C1273 C 0.01264 0.4371 0.8566 0.0
C1274 C 0.01242 0.40062 0.83696 0.0
C1275 C 0.99232 0.39947 0.88737 0.0
C1276 C 1.00012 0.39635 0.91589 0.0
C1277 C 0.98422 0.38343 0.93955 0.0
C1278 C 0.95989 0.37368 0.93391 0.0
C1279 C 0.95165 0.37705 0.9049 0.0
C1280 C 0.96831 0.38997 0.88143 0.0
H1281 H 0.56005 0.95249 0.35977 0.0
H1282 H 0.5812 0.93655 0.44796 0.0
H1283 H 0.60753 0.97913 0.45729 0.0
H1284 H 0.6166 1.00139 0.33867 0.0
H1285 H 0.60403 0.0175 0.32125 0.0
H1286 H 0.58765 0.98592 0.3216 0.0
H1287 H 0.55296 0.98671 0.34916 0.0
H1288 H 0.56922 0.01828 0.3489 0.0
H1289 H 0.55821 1.00271 0.38511 0.0
H1290 H 0.63111 0.02472 0.45696 0.0
H1291 H 0.64877 0.06739 0.4471 0.0
H1292 H 0.61143 0.05184 0.35905 0.0
C1293 C 0.57022 0.95777 0.38108 0.0
C1294 C 0.56842 0.94096 0.40314 0.0
C1295 C 0.58221 0.94896 0.43064 0.0
C1296 C 0.59723 0.97316 0.43613 0.0
C1297 C 0.59839 0.9892 0.41388 0.0
C1298 C 0.58522 0.98169 0.38687 0.0
C1299 C 0.58907 1.00215 0.36669 0.0
C1300 C 0.59999 1.00171 0.33519 0.0
C1301 C 0.566 1.00248 0.36222 0.0
C1302 C 0.60635 0.0225 0.38656 0.0
C1303 C 0.61168 0.01485 0.41368 0.0
C1304 C 0.62706 0.03079 0.4357 0.0
C1305 C 0.63705 0.05504 0.42989 0.0
C1306 C 0.63159 0.06318 0.40229 0.0
C1307 C 0.61612 0.04646 0.38042 0.0
H1308 H 0.49549 0.63115 0.98639 0.0
H1309 H 0.45245 0.61685 0.90375 0.0
H1310 H 0.41781 0.58712 0.93262 0.0
H1311 H 0.4719 0.57366 0.00903 0.0
H1312 H 0.47268 0.57869 0.05038 0.0
H1313 H 0.49322 0.60164 0.02516 0.0
H1314 H 0.47938 0.62968 0.0458 0.0
H1315 H 0.45899 0.60689 0.07151 0.0
H1316 H 0.44854 0.62063 0.04461 0.0
H1317 H 0.38903 0.55515 0.96836 0.0
H1318 H 0.36819 0.52525 0.00928 0.0
H1319 H 0.43017 0.56043 0.06812 0.0
C1320 C 0.47859 0.62241 0.97476 0.0
C1321 C 0.47664 0.62648 0.94292 0.0
C1322 C 0.45434 0.61409 0.92821 0.0
C1323 C 0.43453 0.59716 0.9444 0.0
C1324 C 0.43722 0.59279 0.97539 0.0
C1325 C 0.45863 0.60527 0.99056 0.0
C1326 C 0.45729 0.59579 0.02308 0.0
C1327 C 0.47481 0.58692 0.02712 0.0
C1328 C 0.46128 0.61435 0.04771 0.0
C1329 C 0.43208 0.5757 0.02344 0.0
C1330 C 0.42068 0.57431 0.99587 0.0
C1331 C 0.39767 0.55628 0.99028 0.0
C1332 C 0.38599 0.53929 0.01358 0.0
C1333 C 0.39739 0.54042 0.04205 0.0
C1334 C 0.42072 0.55904 0.04684 0.0
H1335 H 0.87785 0.41732 0.57839 0.0
H1336 H 0.8309 0.35276 0.52964 0.0
H1337 H 0.81979 0.37502 0.49378 0.0
H1338 H 0.84268 0.44627 0.5699 0.0
H1339 H 0.86819 0.47472 0.56342 0.0
H1340 H 0.87045 0.45349 0.58743 0.0
H1341 H 0.90425 0.4568 0.55272 0.0
H1342 H 0.90229 0.47823 0.52894 0.0
H1343 H 0.89966 0.45219 0.51133 0.0
H1344 H 0.81566 0.40435 0.46161 0.0
H1345 H 0.82248 0.43887 0.43104 0.0
H1346 H 0.87298 0.48486 0.4996 0.0
C1347 C 0.86492 0.40777 0.56049 0.0
C1348 C 0.855 0.38321 0.55702 0.0
C1349 C 0.83866 0.37151 0.53277 0.0
C1350 C 0.8321 0.384 0.5125 0.0
C1351 C 0.84216 0.40818 0.51668 0.0
C1352 C 0.85844 0.41999 0.53984 0.0
C1353 C 0.86844 0.4463 0.53741 0.0
C1354 C 0.86205 0.45575 0.56626 0.0
C1355 C 0.89524 0.45912 0.53228 0.0
C1356 C 0.85563 0.44756 0.50876 0.0
C1357 C 0.84018 0.42528 0.49762 0.0
C1358 C 0.82747 0.42182 0.47031 0.0
C1359 C 0.83138 0.44155 0.45319 0.0
C1360 C 0.84797 0.4645 0.46324 0.0
C1361 C 0.85967 0.46756 0.49193 0.0
H1362 H 0.39357 0.8711 0.98954 0.0
H1363 H 0.40581 0.83942 0.90843 0.0
H1364 H 0.43509 0.83424 0.9377 0.0
H1365 H 0.45207 0.90387 0.01226 0.0
H1366 H 0.44688 0.9002 0.05363 0.0
H1367 H 0.4244 0.89856 0.02807 0.0
H1368 H 0.39482 0.85733 0.04953 0.0
H1369 H 0.41716 0.85895 0.07546 0.0
H1370 H 0.40242 0.83458 0.049 0.0
H1371 H 0.46647 0.83687 0.9731 0.0
H1372 H 0.49619 0.84499 0.01381 0.0
H1373 H 0.46371 0.87453 0.0725 0.0
C1374 C 0.40187 0.86239 0.97832 0.0
C1375 C 0.39729 0.85557 0.94671 0.0
C1376 C 0.40901 0.8448 0.93261 0.0
C1377 C 0.42568 0.84174 0.94905 0.0
C1378 C 0.43048 0.84943 0.97975 0.0
C1379 C 0.41875 0.85928 0.99445 0.0
C1380 C 0.42848 0.86751 0.02694 0.0
C1381 C 0.43855 0.89411 0.03041 0.0
C1382 C 0.40959 0.85377 0.0517 0.0
C1383 C 0.44783 0.86131 0.02777 0.0
C1384 C 0.44859 0.85078 1.00037 0.0
C1385 C 0.46583 0.84476 0.9949 0.0
C1386 C 0.48273 0.84955 0.0181 0.0
C1387 C 0.48226 0.86024 0.0465 0.0
C1388 C 0.46441 0.86601 0.05129 0.0
H1389 H 0.55621 0.4256 0.42888 0.0
H1390 H 0.52696 0.36286 0.48622 0.0
H1391 H 0.55644 0.38503 0.52684 0.0
H1392 H 0.61815 0.44945 0.45145 0.0
H1393 H 0.6242 0.47933 0.45156 0.0
H1394 H 0.60221 0.45813 0.42568 0.0
H1395 H 0.57127 0.4674 0.44847 0.0
H1396 H 0.59315 0.48865 0.47429 0.0
H1397 H 0.56609 0.4651 0.48988 0.0
H1398 H 0.58691 0.41427 0.56254 0.0
H1399 H 0.61534 0.44899 0.59221 0.0
H1400 H 0.62537 0.49328 0.51219 0.0
C1401 C 0.55619 0.41637 0.44976 0.0
C1402 C 0.53925 0.39236 0.45422 0.0
C1403 C 0.53969 0.38117 0.48217 0.0
C1404 C 0.55646 0.39361 0.50534 0.0
C1405 C 0.57274 0.41724 0.50025 0.0
C1406 C 0.57275 0.42855 0.4732 0.0
C1407 C 0.5912 0.45445 0.47446 0.0
C1408 C 0.61006 0.4607 0.44929 0.0
C1409 C 0.57974 0.4698 0.47162 0.0
C1410 C 0.60123 0.45605 0.50678 0.0
C1411 C 0.59045 0.43428 0.52103 0.0
C1412 C 0.59563 0.43134 0.55152 0.0
C1413 C 0.6118 0.45121 0.56819 0.0
C1414 C 0.62268 0.47383 0.55447 0.0
C1415 C 0.6177 0.47617 0.52307 0.0
H1416 H 0.14571 0.52407 0.98659 0.0
H1417 H 0.17705 0.56813 0.9054 0.0
H1418 H 0.18211 0.60246 0.93475 0.0
H1419 H 0.11251 0.5494 0.00935 0.0
H1420 H 0.11618 0.54775 0.05069 0.0
H1421 H 0.11783 0.52708 0.02497 0.0
H1422 H 0.15917 0.53889 0.04644 0.0
H1423 H 0.15756 0.55949 0.07248 0.0
H1424 H 0.182 0.5693 0.046 0.0
H1425 H 0.18008 0.63121 0.9707 0.0
H1426 H 0.17204 0.65262 0.01157 0.0
H1427 H 0.14183 0.59019 0.06962 0.0
C1428 C 0.15425 0.54107 0.97535 0.0
C1429 C 0.1611 0.54342 0.94374 0.0
C1430 C 0.17166 0.56589 0.92959 0.0
C1431 C 0.17467 0.58554 0.94608 0.0
C1432 C 0.16706 0.58256 0.97683 0.0
C1433 C 0.15723 0.56096 0.99148 0.0
C1434 C 0.14897 0.56231 0.024 0.0
C1435 C 0.12229 0.54565 0.02743 0.0
C1436 C 0.16275 0.5572 0.04869 0.0
C1437 C 0.1552 0.58782 0.02495 0.0
C1438 C 0.16579 0.59923 0.99761 0.0
C1439 C 0.17207 0.62257 0.9924 0.0
C1440 C 0.16734 0.63455 0.01575 0.0
C1441 C 0.15638 0.62322 0.04397 0.0
C1442 C 0.15045 0.59954 0.04855 0.0
H1443 H 0.55296 0.13496 0.57008 0.0
H1444 H 0.52168 0.16558 0.51109 0.0
H1445 H 0.55112 0.17285 0.47037 0.0
H1446 H 0.61437 0.17372 0.54658 0.0
H1447 H 0.62122 0.15044 0.54748 0.0
H1448 H 0.59906 0.1495 0.57315 0.0
H1449 H 0.56873 0.10854 0.55165 0.0
H1450 H 0.59078 0.10931 0.52604 0.0
H1451 H 0.56336 0.10475 0.51031 0.0
H1452 H 0.58204 0.17451 0.43502 0.0
H1453 H 0.61108 0.16878 0.40605 0.0
H1454 H 0.62252 0.13682 0.48757 0.0
C1455 C 0.55248 0.14353 0.5488 0.0
C1456 C 0.53503 0.14983 0.5439 0.0
C1457 C 0.53483 0.1606 0.51544 0.0
C1458 C 0.55157 0.16492 0.49224 0.0
C1459 C 0.56839 0.15835 0.49779 0.0
C1460 C 0.56895 0.14782 0.52532 0.0
C1461 C 0.58786 0.14101 0.52456 0.0
C1462 C 0.60675 0.15448 0.54942 0.0
C1463 C 0.57703 0.11432 0.52835 0.0
C1464 C 0.5976 0.14897 0.49204 0.0
C1465 C 0.58624 0.15915 0.4772 0.0
C1466 C 0.59117 0.16676 0.44648 0.0
C1467 C 0.6077 0.16337 0.43021 0.0
C1468 C 0.61915 0.15242 0.44456 0.0
C1469 C 0.61438 0.14561 0.47615 0.0
H1470 H 0.55563 0.42224 0.06787 0.0
H1471 H 0.52493 0.36033 0.00893 0.0
H1472 H 0.55541 0.38221 0.96923 0.0
H1473 H 0.56799 0.46303 0.00767 0.0
H1474 H 0.59521 0.48563 0.02422 0.0
H1475 H 0.57245 0.46452 0.04922 0.0
H1476 H 0.6019 0.45334 0.07249 0.0
H1477 H 0.62475 0.47437 0.04738 0.0
H1478 H 0.61748 0.44411 0.04693 0.0
H1479 H 0.58728 0.41119 0.93472 0.0
H1480 H 0.61692 0.44588 0.90609 0.0
H1481 H 0.62726 0.4895 0.98693 0.0
C1482 C 0.55548 0.41312 0.04683 0.0
C1483 C 0.53789 0.38944 0.04166 0.0
C1484 C 0.53816 0.3784 0.01351 0.0
C1485 C 0.55551 0.39065 0.99088 0.0
C1486 C 0.57248 0.41396 0.99671 0.0
C1487 C 0.57257 0.42514 0.02392 0.0
C1488 C 0.59177 0.45078 0.02344 0.0
C1489 C 0.58122 0.46694 0.02629 0.0
C1490 C 0.61006 0.45595 0.04909 0.0
C1491 C 0.60216 0.45243 0.99137 0.0
C1492 C 0.59091 0.43086 0.97659 0.0
C1493 C 0.59636 0.42809 0.94617 0.0
C1494 C 0.61322 0.44793 0.9301 0.0
C1495 C 0.62451 0.47037 0.94433 0.0
C1496 C 0.6193 0.47251 0.97568 0.0
H1497 H 0.13557 0.58502 0.43305 0.0
H1498 H 0.16739 0.64673 0.49234 0.0
H1499 H 0.1752 0.62442 0.53219 0.0
H1500 H 0.10604 0.54418 0.49297 0.0
H1501 H 0.11021 0.52138 0.47645 0.0
H1502 H 0.10919 0.54276 0.45145 0.0
H1503 H 0.14986 0.55346 0.42859 0.0
H1504 H 0.15107 0.53216 0.45369 0.0
H1505 H 0.17454 0.56229 0.4544 0.0
H1506 H 0.17749 0.59511 0.56655 0.0
H1507 H 0.1718 0.56023 0.595 0.0
H1508 H 0.13797 0.51692 0.51399 0.0
C1509 C 0.14452 0.59401 0.45421 0.0
C1510 C 0.15103 0.61776 0.45944 0.0
C1511 C 0.16226 0.62862 0.48775 0.0
C1512 C 0.16689 0.61611 0.51044 0.0
C1513 C 0.16016 0.59274 0.50452 0.0
C1514 C 0.1491 0.58174 0.47718 0.0
C1515 C 0.14213 0.556 0.47756 0.0
C1516 C 0.11531 0.54015 0.47443 0.0
C1517 C 0.15518 0.55067 0.45204 0.0
C1518 C 0.15058 0.55409 0.50971 0.0
C1519 C 0.16121 0.57562 0.52461 0.0
C1520 C 0.16938 0.57823 0.55503 0.0
C1521 C 0.16603 0.55827 0.571 0.0
C1522 C 0.1545 0.53584 0.55669 0.0
C1523 C 0.14721 0.53386 0.52532 0.0
H1524 H 0.59593 0.14396 0.07261 0.0
H1525 H 0.65859 0.17214 0.01493 0.0
H1526 H 0.63779 0.18052 0.97342 0.0
H1527 H 0.55556 0.11458 0.01296 0.0
H1528 H 0.53323 0.1203 0.02768 0.0
H1529 H 0.55383 0.11904 0.05407 0.0
H1530 H 0.5659 0.16064 0.07428 0.0
H1531 H 0.54537 0.16206 0.04778 0.0
H1532 H 0.57594 0.18461 0.04707 0.0
H1533 H 0.60941 0.18288 0.93683 0.0
H1534 H 0.57507 0.17704 0.90648 0.0
H1535 H 0.53048 0.1471 0.98762 0.0
C1536 C 0.60549 0.1523 0.0515 0.0
C1537 C 0.62903 0.15753 0.04719 0.0
C1538 C 0.64063 0.168 0.01889 0.0
C1539 C 0.62898 0.17295 0.99523 0.0
C1540 C 0.60575 0.16737 1.0002 0.0
C1541 C 0.5941 0.15723 0.02762 0.0
C1542 C 0.56859 0.15124 0.02617 0.0
C1543 C 0.55182 0.12472 0.03046 0.0
C1544 C 0.56367 0.16549 0.05026 0.0
C1545 C 0.56748 0.159 0.99329 0.0
C1546 C 0.58923 0.16858 0.97893 0.0
C1547 C 0.59239 0.17567 0.94794 0.0
C1548 C 0.57274 0.17226 0.93089 0.0
C1549 C 0.55009 0.16175 0.94473 0.0
C1550 C 0.54761 0.15564 0.97661 0.0
H1551 H 0.46169 0.5879 0.58444 0.0
H1552 H 0.47741 0.65166 0.5352 0.0
H1553 H 0.44403 0.62843 0.49959 0.0
H1554 H 0.44998 0.55333 0.51813 0.0
H1555 H 0.42692 0.52679 0.53549 0.0
H1556 H 0.4497 0.54877 0.55956 0.0
H1557 H 0.41805 0.55058 0.59354 0.0
H1558 H 0.39515 0.52873 0.56926 0.0
H1559 H 0.39689 0.55662 0.57545 0.0
H1560 H 0.41142 0.59829 0.46708 0.0
H1561 H 0.38521 0.56335 0.43599 0.0
H1562 H 0.39103 0.51865 0.50516 0.0
C1563 C 0.45781 0.59707 0.56658 0.0
C1564 C 0.47198 0.62168 0.56284 0.0
C1565 C 0.46675 0.63288 0.53859 0.0
C1566 C 0.4477 0.61984 0.51844 0.0
C1567 C 0.43414 0.5956 0.52276 0.0
C1568 C 0.4391 0.58429 0.54605 0.0
C1569 C 0.42354 0.55784 0.54355 0.0
C1570 C 0.43843 0.546 0.53889 0.0
C1571 C 0.40745 0.54786 0.57216 0.0
C1572 C 0.40947 0.55595 0.51462 0.0
C1573 C 0.41553 0.57801 0.50349 0.0
C1574 C 0.4063 0.58097 0.47583 0.0
C1575 C 0.39135 0.56101 0.4584 0.0
C1576 C 0.38581 0.53834 0.4685 0.0
C1577 C 0.39435 0.53571 0.49748 0.0
H1578 H 0.87566 0.38638 0.9874 0.0
H1579 H 0.8456 0.39841 0.90432 0.0
H1580 H 0.84095 0.42858 0.93193 0.0
H1581 H 0.83924 0.3972 0.04472 0.0
H1582 H 0.86355 0.41169 0.07144 0.0
H1583 H 0.86139 0.38873 0.04645 0.0
H1584 H 0.90324 0.41703 0.02531 0.0
H1585 H 0.9054 0.44014 0.04987 0.0
H1586 H 0.90953 0.44464 0.00842 0.0
H1587 H 0.84399 0.46093 0.96652 0.0
H1588 H 0.8525 0.49111 0.00678 0.0
H1589 H 0.88045 0.45779 0.06684 0.0
C1590 C 0.86739 0.39481 0.97538 0.0
C1591 C 0.86093 0.38996 0.94375 0.0
C1592 C 0.85071 0.40184 0.92858 0.0
C1593 C 0.84795 0.41902 0.94406 0.0
C1594 C 0.85537 0.42411 0.97484 0.0
C1595 C 0.8646 0.41216 0.99049 0.0
C1596 C 0.87277 0.42217 0.02276 0.0
C1597 C 0.85837 0.40386 0.04782 0.0
C1598 C 0.8993 0.43155 0.0268 0.0
C1599 C 0.86729 0.44194 0.02241 0.0
C1600 C 0.85711 0.44272 0.9947 0.0
C1601 C 0.85166 0.46029 0.98854 0.0
C1602 C 0.85666 0.47744 0.01145 0.0
C1603 C 0.86706 0.47689 0.04008 0.0
C1604 C 0.87228 0.45874 0.0454 0.0
H1605 H 0.48501 0.86684 0.48775 0.0
H1606 H 0.44121 0.83629 0.40606 0.0
H1607 H 0.40685 0.83183 0.43492 0.0
H1608 H 0.43884 0.83074 0.54646 0.0
H1609 H 0.44888 0.85499 0.57319 0.0
H1610 H 0.46949 0.85309 0.54738 0.0
H1611 H 0.48225 0.89463 0.52632 0.0
H1612 H 0.46153 0.89656 0.55177 0.0
H1613 H 0.46036 0.90056 0.51042 0.0
H1614 H 0.37816 0.83475 0.47029 0.0
H1615 H 0.35671 0.84284 0.51117 0.0
H1616 H 0.41866 0.87117 0.57026 0.0
C1617 C 0.46804 0.85856 0.4763 0.0
C1618 C 0.46583 0.85183 0.44466 0.0
C1619 C 0.44339 0.8416 0.43026 0.0
C1620 C 0.4237 0.83895 0.44647 0.0
C1621 C 0.4266 0.84652 0.47722 0.0
C1622 C 0.44811 0.85588 0.49217 0.0
C1623 C 0.44666 0.864 0.52472 0.0
C1624 C 0.45123 0.84985 0.5494 0.0
C1625 C 0.46371 0.89051 0.52851 0.0
C1626 C 0.42121 0.85827 0.52533 0.0
C1627 C 0.40991 0.84809 0.49776 0.0
C1628 C 0.38671 0.8424 0.4922 0.0
C1629 C 0.37469 0.84718 0.5155 0.0
C1630 C 0.38586 0.85752 0.54407 0.0
C1631 C 0.40943 0.86297 0.54891 0.0
loop_
_geom_bond_atom_site_label_1
_geom_bond_atom_site_label_2
_geom_bond_distance
_geom_bond_site_symmetry_2
_ccdc_geom_bond_type
Co0 O1 2.216 . S
Co0 O2 2.091 . S
Co0 O4 2.004 . S
Co0 O10 2.021 . S
Co0 O12 2.137 . S
Co0 O13 2.244 . S
O1 Co0 2.216 . S
O1 C8 1.247 . S
O2 Co0 2.091 . S
O2 C8 1.261 . S
C3 O12 1.247 . S
C3 O13 1.272 . S
O4 Co0 2.004 . S
O4 C9 1.259 . S
Co5 O6 2.061 . S
Co5 O11 2.052 . S
Co5 O13 2.135 . S
O6 Co5 2.061 . S
O6 C9 1.235 . S
C7 O10 1.238 . S
C7 O11 1.241 . S
C8 O1 1.247 . S
C8 O2 1.261 . S
C9 O4 1.259 . S
C9 O6 1.235 . S
O10 Co0 2.021 . S
O10 C7 1.238 . S
O11 Co5 2.052 . S
O11 C7 1.241 . S
O12 Co0 2.137 . S
O12 C3 1.247 . S
O13 Co0 2.244 . S
O13 C3 1.272 . S
O13 Co5 2.135 . S
Co14 O15 2.216 . S
Co14 O16 2.091 . S
Co14 O18 2.004 . S
Co14 O24 2.021 . S
Co14 O26 2.137 . S
Co14 O27 2.244 . S
O15 Co14 2.216 . S
O15 C22 1.247 . S
O16 Co14 2.091 . S
O16 C22 1.261 . S
C17 O26 1.247 . S
C17 O27 1.272 . S
O18 Co14 2.004 . S
O18 C23 1.259 . S
Co19 O20 2.061 . S
Co19 O25 2.052 . S
Co19 O27 2.135 . S
O20 Co19 2.061 . S
O20 C23 1.235 . S
C21 O24 1.238 . S
C21 O25 1.241 . S
C22 O15 1.247 . S
C22 O16 1.261 . S
C23 O18 1.259 . S
C23 O20 1.235 . S
O24 Co14 2.021 . S
O24 C21 1.238 . S
O25 Co19 2.052 . S
O25 C21 1.241 . S
O26 Co14 2.137 . S
O26 C17 1.247 . S
O27 Co14 2.244 . S
O27 C17 1.272 . S
O27 Co19 2.135 . S
Co28 O29 2.216 . S
Co28 O30 2.091 . S
Co28 O32 2.004 . S
Co28 O38 2.021 . S
Co28 O40 2.137 . S
Co28 O41 2.244 . S
O29 Co28 2.216 . S
O29 C36 1.247 . S
O30 Co28 2.091 . S
O30 C36 1.261 . S
C31 O40 1.247 . S
C31 O41 1.272 . S
O32 Co28 2.004 . S
O32 C37 1.259 . S
Co33 O34 2.061 . S
Co33 O39 2.052 . S
Co33 O41 2.135 . S
O34 Co33 2.061 . S
O34 C37 1.235 . S
C35 O38 1.238 . S
C35 O39 1.241 . S
C36 O29 1.247 . S
C36 O30 1.261 . S
C37 O32 1.259 . S
C37 O34 1.235 . S
O38 Co28 2.021 . S
O38 C35 1.238 . S
O39 Co33 2.052 . S
O39 C35 1.241 . S
O40 Co28 2.137 . S
O40 C31 1.247 . S
O41 Co28 2.244 . S
O41 C31 1.272 . S
O41 Co33 2.135 . S
Co42 O43 2.216 . S
Co42 O44 2.091 . S
Co42 O46 2.004 . S
Co42 O52 2.021 . S
Co42 O54 2.137 . S
Co42 O55 2.244 . S
O43 Co42 2.216 . S
O43 C50 1.247 . S
O44 Co42 2.091 . S
O44 C50 1.261 . S
C45 O54 1.247 . S
C45 O55 1.272 . S
O46 Co42 2.004 . S
O46 C51 1.259 . S
Co47 O48 2.061 . S
Co47 O53 2.052 . S
Co47 O55 2.135 . S
O48 Co47 2.061 . S
O48 C51 1.235 . S
C49 O52 1.238 . S
C49 O53 1.241 . S
C50 O43 1.247 . S
C50 O44 1.261 . S
C51 O46 1.259 . S
C51 O48 1.235 . S
O52 Co42 2.021 . S
O52 C49 1.238 . S
O53 Co47 2.052 . S
O53 C49 1.241 . S
O54 Co42 2.137 . S
O54 C45 1.247 . S
O55 Co42 2.244 . S
O55 C45 1.272 . S
O55 Co47 2.135 . S
Co56 O57 2.216 . S
Co56 O58 2.091 . S
Co56 O60 2.004 . S
Co56 O66 2.021 . S
Co56 O68 2.137 . S
Co56 O69 2.244 . S
O57 Co56 2.216 . S
O57 C64 1.247 . S
O58 Co56 2.091 . S
O58 C64 1.261 . S
C59 O68 1.247 . S
C59 O69 1.272 . S
O60 Co56 2.004 . S
O60 C65 1.259 . S
Co61 O62 2.061 . S
Co61 O67 2.052 . S
Co61 O69 2.135 . S
O62 Co61 2.061 . S
O62 C65 1.235 . S
C63 O66 1.238 . S
C63 O67 1.241 . S
C64 O57 1.247 . S
C64 O58 1.261 . S
C65 O60 1.259 . S
C65 O62 1.235 . S
O66 Co56 2.021 . S
O66 C63 1.238 . S
O67 Co61 2.052 . S
O67 C63 1.241 . S
O68 Co56 2.137 . S
O68 C59 1.247 . S
O69 Co56 2.244 . S
O69 C59 1.272 . S
O69 Co61 2.135 . S
Co70 O71 2.216 . S
Co70 O72 2.091 . S
Co70 O74 2.004 . S
Co70 O80 2.021 . S
Co70 O82 2.137 . S
Co70 O83 2.244 . S
O71 Co70 2.216 . S
O71 C78 1.247 . S
O72 Co70 2.091 . S
O72 C78 1.261 . S
C73 O82 1.247 . S
C73 O83 1.272 . S
O74 Co70 2.004 . S
O74 C79 1.259 . S
Co75 O76 2.061 . S
Co75 O81 2.052 . S
Co75 O83 2.135 . S
O76 Co75 2.061 . S
O76 C79 1.235 . S
C77 O80 1.238 . S
C77 O81 1.241 . S
C78 O71 1.247 . S
C78 O72 1.261 . S
C79 O74 1.259 . S
C79 O76 1.235 . S
O80 Co70 2.021 . S
O80 C77 1.238 . S
O81 Co75 2.052 . S
O81 C77 1.241 . S
O82 Co70 2.137 . S
O82 C73 1.247 . S
O83 Co70 2.244 . S
O83 C73 1.272 . S
O83 Co75 2.135 . S
Co84 O85 2.216 . S
Co84 O86 2.091 . S
Co84 O88 2.004 . S
Co84 O94 2.021 . S
Co84 O96 2.137 . S
Co84 O97 2.244 . S
O85 Co84 2.216 . S
O85 C92 1.247 . S
O86 Co84 2.091 . S
O86 C92 1.261 . S
C87 O96 1.247 . S
C87 O97 1.272 . S
O88 Co84 2.004 . S
O88 C93 1.259 . S
Co89 O90 2.061 . S
Co89 O95 2.052 . S
Co89 O97 2.135 . S
O90 Co89 2.061 . S
O90 C93 1.235 . S
C91 O94 1.238 . S
C91 O95 1.241 . S
C92 O85 1.247 . S
C92 O86 1.261 . S
C93 O88 1.259 . S
C93 O90 1.235 . S
O94 Co84 2.021 . S
O94 C91 1.238 . S
O95 Co89 2.052 . S
O95 C91 1.241 . S
O96 Co84 2.137 . S
O96 C87 1.247 . S
O97 Co84 2.244 . S
O97 C87 1.272 . S
O97 Co89 2.135 . S
Co98 O99 2.216 . S
Co98 O100 2.091 . S
Co98 O102 2.004 . S
Co98 O108 2.021 . S
Co98 O110 2.137 . S
Co98 O111 2.244 . S
O99 Co98 2.216 . S
O99 C106 1.247 . S
O100 Co98 2.091 . S
O100 C106 1.261 . S
C101 O110 1.247 . S
C101 O111 1.272 . S
O102 Co98 2.004 . S
O102 C107 1.259 . S
Co103 O104 2.061 . S
Co103 O109 2.052 . S
Co103 O111 2.135 . S
O104 Co103 2.061 . S
O104 C107 1.235 . S
C105 O108 1.238 . S
C105 O109 1.241 . S
C106 O99 1.247 . S
C106 O100 1.261 . S
C107 O102 1.259 . S
C107 O104 1.235 . S
O108 Co98 2.021 . S
O108 C105 1.238 . S
O109 Co103 2.052 . S
O109 C105 1.241 . S
O110 Co98 2.137 . S
O110 C101 1.247 . S
O111 Co98 2.244 . S
O111 C101 1.272 . S
O111 Co103 2.135 . S
Co112 O113 2.216 . S
Co112 O114 2.091 . S
Co112 O116 2.004 . S
Co112 O122 2.021 . S
Co112 O124 2.137 . S
Co112 O125 2.244 . S
O113 Co112 2.216 . S
O113 C120 1.247 . S
O114 Co112 2.091 . S
O114 C120 1.261 . S
C115 O124 1.247 . S
C115 O125 1.272 . S
O116 Co112 2.004 . S
O116 C121 1.259 . S
Co117 O118 2.061 . S
Co117 O123 2.052 . S
Co117 O125 2.135 . S
O118 Co117 2.061 . S
O118 C121 1.235 . S
C119 O122 1.238 . S
C119 O123 1.241 . S
C120 O113 1.247 . S
C120 O114 1.261 . S
C121 O116 1.259 . S
C121 O118 1.235 . S
O122 Co112 2.021 . S
O122 C119 1.238 . S
O123 Co117 2.052 . S
O123 C119 1.241 . S
O124 Co112 2.137 . S
O124 C115 1.247 . S
O125 Co112 2.244 . S
O125 C115 1.272 . S
O125 Co117 2.135 . S
Co126 O127 2.216 . S
Co126 O128 2.091 . S
Co126 O130 2.004 . S
Co126 O136 2.021 . S
Co126 O138 2.137 . S
Co126 O139 2.244 . S
O127 Co126 2.216 . S
O127 C134 1.247 . S
O128 Co126 2.091 . S
O128 C134 1.261 . S
C129 O138 1.247 . S
C129 O139 1.272 . S
O130 Co126 2.004 . S
O130 C135 1.259 . S
Co131 O132 2.061 . S
Co131 O137 2.052 . S
Co131 O139 2.135 . S
O132 Co131 2.061 . S
O132 C135 1.235 . S
C133 O136 1.238 . S
C133 O137 1.241 . S
C134 O127 1.247 . S
C134 O128 1.261 . S
C135 O130 1.259 . S
C135 O132 1.235 . S
O136 Co126 2.021 . S
O136 C133 1.238 . S
O137 Co131 2.052 . S
O137 C133 1.241 . S
O138 Co126 2.137 . S
O138 C129 1.247 . S
O139 Co126 2.244 . S
O139 C129 1.272 . S
O139 Co131 2.135 . S
Co140 O141 2.216 . S
Co140 O142 2.091 . S
Co140 O144 2.004 . S
Co140 O150 2.021 . S
Co140 O152 2.137 . S
Co140 O153 2.244 . S
O141 Co140 2.216 . S
O141 C148 1.247 . S
O142 Co140 2.091 . S
O142 C148 1.261 . S
C143 O152 1.247 . S
C143 O153 1.272 . S
O144 Co140 2.004 . S
O144 C149 1.259 . S
Co145 O146 2.061 . S
Co145 O151 2.052 . S
Co145 O153 2.135 . S
O146 Co145 2.061 . S
O146 C149 1.235 . S
C147 O150 1.238 . S
C147 O151 1.241 . S
C148 O141 1.247 . S
C148 O142 1.261 . S
C149 O144 1.259 . S
C149 O146 1.235 . S
O150 Co140 2.021 . S
O150 C147 1.238 . S
O151 Co145 2.052 . S
O151 C147 1.241 . S
O152 Co140 2.137 . S
O152 C143 1.247 . S
O153 Co140 2.244 . S
O153 C143 1.272 . S
O153 Co145 2.135 . S
Co154 O155 2.216 . S
Co154 O156 2.091 . S
Co154 O158 2.004 . S
Co154 O164 2.021 . S
Co154 O166 2.137 . S
Co154 O167 2.244 . S
O155 Co154 2.216 . S
O155 C162 1.247 . S
O156 Co154 2.091 . S
O156 C162 1.261 . S
C157 O166 1.247 . S
C157 O167 1.272 . S
O158 Co154 2.004 . S
O158 C163 1.259 . S
Co159 O160 2.061 . S
Co159 O165 2.052 . S
Co159 O167 2.135 . S
O160 Co159 2.061 . S
O160 C163 1.235 . S
C161 O164 1.238 . S
C161 O165 1.241 . S
C162 O155 1.247 . S
C162 O156 1.261 . S
C163 O158 1.259 . S
C163 O160 1.235 . S
O164 Co154 2.021 . S
O164 C161 1.238 . S
O165 Co159 2.052 . S
O165 C161 1.241 . S
O166 Co154 2.137 . S
O166 C157 1.247 . S
O167 Co154 2.244 . S
O167 C157 1.272 . S
O167 Co159 2.135 . S
Co168 O169 2.216 . S
Co168 O170 2.091 . S
Co168 O172 2.004 . S
Co168 O178 2.021 . S
Co168 O180 2.137 . S
Co168 O181 2.244 . S
O169 Co168 2.216 . S
O169 C176 1.247 . S
O170 Co168 2.091 . S
O170 C176 1.261 . S
C171 O180 1.247 . S
C171 O181 1.272 . S
O172 Co168 2.004 . S
O172 C177 1.259 . S
Co173 O174 2.061 . S
Co173 O179 2.052 . S
Co173 O181 2.135 . S
O174 Co173 2.061 . S
O174 C177 1.235 . S
C175 O178 1.238 . S
C175 O179 1.241 . S
C176 O169 1.247 . S
C176 O170 1.261 . S
C177 O172 1.259 . S
C177 O174 1.235 . S
O178 Co168 2.021 . S
O178 C175 1.238 . S
O179 Co173 2.052 . S
O179 C175 1.241 . S
O180 Co168 2.137 . S
O180 C171 1.247 . S
O181 Co168 2.244 . S
O181 C171 1.272 . S
O181 Co173 2.135 . S
Co182 O183 2.216 . S
Co182 O184 2.091 . S
Co182 O186 2.004 . S
Co182 O192 2.021 . S
Co182 O194 2.137 . S
Co182 O195 2.244 . S
O183 Co182 2.216 . S
O183 C190 1.247 . S
O184 Co182 2.091 . S
O184 C190 1.261 . S
C185 O194 1.247 . S
C185 O195 1.272 . S
O186 Co182 2.004 . S
O186 C191 1.259 . S
Co187 O188 2.061 . S
Co187 O193 2.052 . S
Co187 O195 2.135 . S
O188 Co187 2.061 . S
O188 C191 1.235 . S
C189 O192 1.238 . S
C189 O193 1.241 . S
C190 O183 1.247 . S
C190 O184 1.261 . S
C191 O186 1.259 . S
C191 O188 1.235 . S
O192 Co182 2.021 . S
O192 C189 1.238 . S
O193 Co187 2.052 . S
O193 C189 1.241 . S
O194 Co182 2.137 . S
O194 C185 1.247 . S
O195 Co182 2.244 . S
O195 C185 1.272 . S
O195 Co187 2.135 . S
Co196 O197 2.216 . S
Co196 O198 2.091 . S
Co196 O200 2.004 . S
Co196 O206 2.021 . S
Co196 O208 2.137 . S
Co196 O209 2.244 . S
O197 Co196 2.216 . S
O197 C204 1.247 . S
O198 Co196 2.091 . S
O198 C204 1.261 . S
C199 O208 1.247 . S
C199 O209 1.272 . S
O200 Co196 2.004 . S
O200 C205 1.259 . S
Co201 O202 2.061 . S
Co201 O207 2.052 . S
Co201 O209 2.135 . S
O202 Co201 2.061 . S
O202 C205 1.235 . S
C203 O206 1.238 . S
C203 O207 1.241 . S
C204 O197 1.247 . S
C204 O198 1.261 . S
C205 O200 1.259 . S
C205 O202 1.235 . S
O206 Co196 2.021 . S
O206 C203 1.238 . S
O207 Co201 2.052 . S
O207 C203 1.241 . S
O208 Co196 2.137 . S
O208 C199 1.247 . S
O209 Co196 2.244 . S
O209 C199 1.272 . S
O209 Co201 2.135 . S
Co210 O211 2.216 . S
Co210 O212 2.091 . S
Co210 O214 2.004 . S
Co210 O220 2.021 . S
Co210 O222 2.137 . S
Co210 O223 2.244 . S
O211 Co210 2.216 . S
O211 C218 1.247 . S
O212 Co210 2.091 . S
O212 C218 1.261 . S
C213 O222 1.247 . S
C213 O223 1.272 . S
O214 Co210 2.004 . S
O214 C219 1.259 . S
Co215 O216 2.061 . S
Co215 O221 2.052 . S
Co215 O223 2.135 . S
O216 Co215 2.061 . S
O216 C219 1.235 . S
C217 O220 1.238 . S
C217 O221 1.241 . S
C218 O211 1.247 . S
C218 O212 1.261 . S
C219 O214 1.259 . S
C219 O216 1.235 . S
O220 Co210 2.021 . S
O220 C217 1.238 . S
O221 Co215 2.052 . S
O221 C217 1.241 . S
O222 Co210 2.137 . S
O222 C213 1.247 . S
O223 Co210 2.244 . S
O223 C213 1.272 . S
O223 Co215 2.135 . S
Co224 O225 2.216 . S
Co224 O226 2.091 . S
Co224 O228 2.004 . S
Co224 O234 2.021 . S
Co224 O236 2.137 . S
Co224 O237 2.244 . S
O225 Co224 2.216 . S
O225 C232 1.247 . S
O226 Co224 2.091 . S
O226 C232 1.261 . S
C227 O236 1.247 . S
C227 O237 1.272 . S
O228 Co224 2.004 . S
O228 C233 1.259 . S
Co229 O230 2.061 . S
Co229 O235 2.052 . S
Co229 O237 2.135 . S
O230 Co229 2.061 . S
O230 C233 1.235 . S
C231 O234 1.238 . S
C231 O235 1.241 . S
C232 O225 1.247 . S
C232 O226 1.261 . S
C233 O228 1.259 . S
C233 O230 1.235 . S
O234 Co224 2.021 . S
O234 C231 1.238 . S
O235 Co229 2.052 . S
O235 C231 1.241 . S
O236 Co224 2.137 . S
O236 C227 1.247 . S
O237 Co224 2.244 . S
O237 C227 1.272 . S
O237 Co229 2.135 . S
Co238 O239 2.216 . S
Co238 O240 2.091 . S
Co238 O242 2.004 . S
Co238 O248 2.021 . S
Co238 O250 2.137 . S
Co238 O251 2.244 . S
O239 Co238 2.216 . S
O239 C246 1.247 . S
O240 Co238 2.091 . S
O240 C246 1.261 . S
C241 O250 1.247 . S
C241 O251 1.272 . S
O242 Co238 2.004 . S
O242 C247 1.259 . S
Co243 O244 2.061 . S
Co243 O249 2.052 . S
Co243 O251 2.135 . S
O244 Co243 2.061 . S
O244 C247 1.235 . S
C245 O248 1.238 . S
C245 O249 1.241 . S
C246 O239 1.247 . S
C246 O240 1.261 . S
C247 O242 1.259 . S
C247 O244 1.235 . S
O248 Co238 2.021 . S
O248 C245 1.238 . S
O249 Co243 2.052 . S
O249 C245 1.241 . S
O250 Co238 2.137 . S
O250 C241 1.247 . S
O251 Co238 2.244 . S
O251 C241 1.272 . S
O251 Co243 2.135 . S
Co252 O253 2.216 . S
Co252 O254 2.091 . S
Co252 O256 2.004 . S
Co252 O262 2.021 . S
Co252 O264 2.137 . S
Co252 O265 2.244 . S
O253 Co252 2.216 . S
O253 C260 1.247 . S
O254 Co252 2.091 . S
O254 C260 1.261 . S
C255 O264 1.247 . S
C255 O265 1.272 . S
O256 Co252 2.004 . S
O256 C261 1.259 . S
Co257 O258 2.061 . S
Co257 O263 2.052 . S
Co257 O265 2.135 . S
O258 Co257 2.061 . S
O258 C261 1.235 . S
C259 O262 1.238 . S
C259 O263 1.241 . S
C260 O253 1.247 . S
C260 O254 1.261 . S
C261 O256 1.259 . S
C261 O258 1.235 . S
O262 Co252 2.021 . S
O262 C259 1.238 . S
O263 Co257 2.052 . S
O263 C259 1.241 . S
O264 Co252 2.137 . S
O264 C255 1.247 . S
O265 Co252 2.244 . S
O265 C255 1.272 . S
O265 Co257 2.135 . S
Co266 O267 2.216 . S
Co266 O268 2.091 . S
Co266 O270 2.004 . S
Co266 O276 2.021 . S
Co266 O278 2.137 . S
Co266 O279 2.244 . S
O267 Co266 2.216 . S
O267 C274 1.247 . S
O268 Co266 2.091 . S
O268 C274 1.261 . S
C269 O278 1.247 . S
C269 O279 1.272 . S
O270 Co266 2.004 . S
O270 C275 1.259 . S
Co271 O272 2.061 . S
Co271 O277 2.052 . S
Co271 O279 2.135 . S
O272 Co271 2.061 . S
O272 C275 1.235 . S
C273 O276 1.238 . S
C273 O277 1.241 . S
C274 O267 1.247 . S
C274 O268 1.261 . S
C275 O270 1.259 . S
C275 O272 1.235 . S
O276 Co266 2.021 . S
O276 C273 1.238 . S
O277 Co271 2.052 . S
O277 C273 1.241 . S
O278 Co266 2.137 . S
O278 C269 1.247 . S
O279 Co266 2.244 . S
O279 C269 1.272 . S
O279 Co271 2.135 . S
Co280 O281 2.216 . S
Co280 O282 2.091 . S
Co280 O284 2.004 . S
Co280 O290 2.021 . S
Co280 O292 2.137 . S
Co280 O293 2.244 . S
O281 Co280 2.216 . S
O281 C288 1.247 . S
O282 Co280 2.091 . S
O282 C288 1.261 . S
C283 O292 1.247 . S
C283 O293 1.272 . S
O284 Co280 2.004 . S
O284 C289 1.259 . S
Co285 O286 2.061 . S
Co285 O291 2.052 . S
Co285 O293 2.135 . S
O286 Co285 2.061 . S
O286 C289 1.235 . S
C287 O290 1.238 . S
C287 O291 1.241 . S
C288 O281 1.247 . S
C288 O282 1.261 . S
C289 O284 1.259 . S
C289 O286 1.235 . S
O290 Co280 2.021 . S
O290 C287 1.238 . S
O291 Co285 2.052 . S
O291 C287 1.241 . S
O292 Co280 2.137 . S
O292 C283 1.247 . S
O293 Co280 2.244 . S
O293 C283 1.272 . S
O293 Co285 2.135 . S
Co294 O295 2.216 . S
Co294 O296 2.091 . S
Co294 O298 2.004 . S
Co294 O304 2.021 . S
Co294 O306 2.137 . S
Co294 O307 2.244 . S
O295 Co294 2.216 . S
O295 C302 1.247 . S
O296 Co294 2.091 . S
O296 C302 1.261 . S
C297 O306 1.247 . S
C297 O307 1.272 . S
O298 Co294 2.004 . S
O298 C303 1.259 . S
Co299 O300 2.061 . S
Co299 O305 2.052 . S
Co299 O307 2.135 . S
O300 Co299 2.061 . S
O300 C303 1.235 . S
C301 O304 1.238 . S
C301 O305 1.241 . S
C302 O295 1.247 . S
C302 O296 1.261 . S
C303 O298 1.259 . S
C303 O300 1.235 . S
O304 Co294 2.021 . S
O304 C301 1.238 . S
O305 Co299 2.052 . S
O305 C301 1.241 . S
O306 Co294 2.137 . S
O306 C297 1.247 . S
O307 Co294 2.244 . S
O307 C297 1.272 . S
O307 Co299 2.135 . S
Co308 O309 2.216 . S
Co308 O310 2.091 . S
Co308 O312 2.004 . S
Co308 O318 2.021 . S
Co308 O320 2.137 . S
Co308 O321 2.244 . S
O309 Co308 2.216 . S
O309 C316 1.247 . S
O310 Co308 2.091 . S
O310 C316 1.261 . S
C311 O320 1.247 . S
C311 O321 1.272 . S
O312 Co308 2.004 . S
O312 C317 1.259 . S
Co313 O314 2.061 . S
Co313 O319 2.052 . S
Co313 O321 2.135 . S
O314 Co313 2.061 . S
O314 C317 1.235 . S
C315 O318 1.238 . S
C315 O319 1.241 . S
C316 O309 1.247 . S
C316 O310 1.261 . S
C317 O312 1.259 . S
C317 O314 1.235 . S
O318 Co308 2.021 . S
O318 C315 1.238 . S
O319 Co313 2.052 . S
O319 C315 1.241 . S
O320 Co308 2.137 . S
O320 C311 1.247 . S
O321 Co308 2.244 . S
O321 C311 1.272 . S
O321 Co313 2.135 . S
Co322 O323 2.216 . S
Co322 O324 2.091 . S
Co322 O326 2.004 . S
Co322 O332 2.021 . S
Co322 O334 2.137 . S
Co322 O335 2.244 . S
O323 Co322 2.216 . S
O323 C330 1.247 . S
O324 Co322 2.091 . S
O324 C330 1.261 . S
C325 O334 1.247 . S
C325 O335 1.272 . S
O326 Co322 2.004 . S
O326 C331 1.259 . S
Co327 O328 2.061 . S
Co327 O333 2.052 . S
Co327 O335 2.135 . S
O328 Co327 2.061 . S
O328 C331 1.235 . S
C329 O332 1.238 . S
C329 O333 1.241 . S
C330 O323 1.247 . S
C330 O324 1.261 . S
C331 O326 1.259 . S
C331 O328 1.235 . S
O332 Co322 2.021 . S
O332 C329 1.238 . S
O333 Co327 2.052 . S
O333 C329 1.241 . S
O334 Co322 2.137 . S
O334 C325 1.247 . S
O335 Co322 2.244 . S
O335 C325 1.272 . S
O335 Co327 2.135 . S
H336 C348 0.930 . S
H337 C350 0.930 . S
H338 C351 0.930 . S
H339 C355 0.959 . S
H340 C355 0.959 . S
H341 C355 0.961 . S
H342 C356 0.960 . S
H343 C356 0.961 . S
H344 C356 0.959 . S
H345 C359 0.929 . S
H346 C360 0.931 . S
H347 C362 0.930 . S
C348 H336 0.930 . S
C348 C349 1.399 . S
C348 C353 1.399 . S
C349 C348 1.399 . S
C349 C350 1.376 . S
C350 H337 0.930 . S
C350 C349 1.376 . S
C350 C351 1.388 . S
C351 H338 0.930 . S
C351 C350 1.388 . S
C351 C352 1.390 . S
C352 C351 1.390 . S
C352 C353 1.394 . S
C352 C358 1.465 . S
C353 C348 1.399 . S
C353 C352 1.394 . S
C353 C354 1.516 . S
C354 C353 1.516 . S
C354 C355 1.502 . S
C354 C356 1.561 . S
C354 C357 1.526 . S
C355 H339 0.959 . S
C355 H340 0.959 . S
C355 H341 0.961 . S
C355 C354 1.502 . S
C356 H342 0.960 . S
C356 H343 0.961 . S
C356 H344 0.959 . S
C356 C354 1.561 . S
C357 C354 1.526 . S
C357 C358 1.396 . S
C357 C362 1.390 . S
C358 C352 1.465 . S
C358 C357 1.396 . S
C358 C359 1.399 . S
C359 H345 0.929 . S
C359 C358 1.399 . S
C359 C360 1.385 . S
C360 H346 0.931 . S
C360 C359 1.385 . S
C360 C361 1.389 . S
C361 C360 1.389 . S
C361 C362 1.387 . S
C362 H347 0.930 . S
C362 C357 1.390 . S
C362 C361 1.387 . S
H363 C375 0.930 . S
H364 C377 0.930 . S
H365 C378 0.930 . S
H366 C382 0.959 . S
H367 C382 0.959 . S
H368 C382 0.961 . S
H369 C383 0.960 . S
H370 C383 0.961 . S
H371 C383 0.959 . S
H372 C386 0.929 . S
H373 C387 0.931 . S
H374 C389 0.930 . S
C375 H363 0.930 . S
C375 C376 1.399 . S
C375 C380 1.399 . S
C376 C375 1.399 . S
C376 C377 1.376 . S
C377 H364 0.930 . S
C377 C376 1.376 . S
C377 C378 1.388 . S
C378 H365 0.930 . S
C378 C377 1.388 . S
C378 C379 1.390 . S
C379 C378 1.390 . S
C379 C380 1.394 . S
C379 C385 1.465 . S
C380 C375 1.399 . S
C380 C379 1.394 . S
C380 C381 1.516 . S
C381 C380 1.516 . S
C381 C382 1.502 . S
C381 C383 1.561 . S
C381 C384 1.526 . S
C382 H366 0.959 . S
C382 H367 0.959 . S
C382 H368 0.961 . S
C382 C381 1.502 . S
C383 H369 0.960 . S
C383 H370 0.961 . S
C383 H371 0.959 . S
C383 C381 1.561 . S
C384 C381 1.526 . S
C384 C385 1.396 . S
C384 C389 1.390 . S
C385 C379 1.465 . S
C385 C384 1.396 . S
C385 C386 1.399 . S
C386 H372 0.929 . S
C386 C385 1.399 . S
C386 C387 1.385 . S
C387 H373 0.931 . S
C387 C386 1.385 . S
C387 C388 1.389 . S
C388 C387 1.389 . S
C388 C389 1.387 . S
C389 H374 0.930 . S
C389 C384 1.390 . S
C389 C388 1.387 . S
H390 C402 0.930 . S
H391 C404 0.930 . S
H392 C405 0.930 . S
H393 C409 0.959 . S
H394 C409 0.959 . S
H395 C409 0.961 . S
H396 C410 0.960 . S
H397 C410 0.961 . S
H398 C410 0.959 . S
H399 C413 0.929 . S
H400 C414 0.931 . S
H401 C416 0.930 . S
C402 H390 0.930 . S
C402 C403 1.399 . S
C402 C407 1.399 . S
C403 C402 1.399 . S
C403 C404 1.376 . S
C404 H391 0.930 . S
C404 C403 1.376 . S
C404 C405 1.388 . S
C405 H392 0.930 . S
C405 C404 1.388 . S
C405 C406 1.390 . S
C406 C405 1.390 . S
C406 C407 1.394 . S
C406 C412 1.465 . S
C407 C402 1.399 . S
C407 C406 1.394 . S
C407 C408 1.516 . S
C408 C407 1.516 . S
C408 C409 1.502 . S
C408 C410 1.561 . S
C408 C411 1.526 . S
C409 H393 0.959 . S
C409 H394 0.959 . S
C409 H395 0.961 . S
C409 C408 1.502 . S
C410 H396 0.960 . S
C410 H397 0.961 . S
C410 H398 0.959 . S
C410 C408 1.561 . S
C411 C408 1.526 . S
C411 C412 1.396 . S
C411 C416 1.390 . S
C412 C406 1.465 . S
C412 C411 1.396 . S
C412 C413 1.399 . S
C413 H399 0.929 . S
C413 C412 1.399 . S
C413 C414 1.385 . S
C414 H400 0.931 . S
C414 C413 1.385 . S
C414 C415 1.389 . S
C415 C414 1.389 . S
C415 C416 1.387 . S
C416 H401 0.930 . S
C416 C411 1.390 . S
C416 C415 1.387 . S
H417 C429 0.930 . S
H418 C431 0.930 . S
H419 C432 0.930 . S
H420 C436 0.959 . S
H421 C436 0.959 . S
H422 C436 0.961 . S
H423 C437 0.960 . S
H424 C437 0.961 . S
H425 C437 0.959 . S
H426 C440 0.929 . S
H427 C441 0.931 . S
H428 C443 0.930 . S
C429 H417 0.930 . S
C429 C430 1.399 . S
C429 C434 1.399 . S
C430 C429 1.399 . S
C430 C431 1.376 . S
C431 H418 0.930 . S
C431 C430 1.376 . S
C431 C432 1.388 . S
C432 H419 0.930 . S
C432 C431 1.388 . S
C432 C433 1.390 . S
C433 C432 1.390 . S
C433 C434 1.394 . S
C433 C439 1.465 . S
C434 C429 1.399 . S
C434 C433 1.394 . S
C434 C435 1.516 . S
C435 C434 1.516 . S
C435 C436 1.502 . S
C435 C437 1.561 . S
C435 C438 1.526 . S
C436 H420 0.959 . S
C436 H421 0.959 . S
C436 H422 0.961 . S
C436 C435 1.502 . S
C437 H423 0.960 . S
C437 H424 0.961 . S
C437 H425 0.959 . S
C437 C435 1.561 . S
C438 C435 1.526 . S
C438 C439 1.396 . S
C438 C443 1.390 . S
C439 C433 1.465 . S
C439 C438 1.396 . S
C439 C440 1.399 . S
C440 H426 0.929 . S
C440 C439 1.399 . S
C440 C441 1.385 . S
C441 H427 0.931 . S
C441 C440 1.385 . S
C441 C442 1.389 . S
C442 C441 1.389 . S
C442 C443 1.387 . S
C443 H428 0.930 . S
C443 C438 1.390 . S
C443 C442 1.387 . S
H444 C456 0.930 . S
H445 C458 0.930 . S
H446 C459 0.930 . S
H447 C463 0.959 . S
H448 C463 0.959 . S
H449 C463 0.961 . S
H450 C464 0.960 . S
H451 C464 0.961 . S
H452 C464 0.959 . S
H453 C467 0.929 . S
H454 C468 0.931 . S
H455 C470 0.930 . S
C456 H444 0.930 . S
C456 C457 1.399 . S
C456 C461 1.399 . S
C457 C456 1.399 . S
C457 C458 1.376 . S
C458 H445 0.930 . S
C458 C457 1.376 . S
C458 C459 1.388 . S
C459 H446 0.930 . S
C459 C458 1.388 . S
C459 C460 1.390 . S
C460 C459 1.390 . S
C460 C461 1.394 . S
C460 C466 1.465 . S
C461 C456 1.399 . S
C461 C460 1.394 . S
C461 C462 1.516 . S
C462 C461 1.516 . S
C462 C463 1.502 . S
C462 C464 1.561 . S
C462 C465 1.526 . S
C463 H447 0.959 . S
C463 H448 0.959 . S
C463 H449 0.961 . S
C463 C462 1.502 . S
C464 H450 0.960 . S
C464 H451 0.961 . S
C464 H452 0.959 . S
C464 C462 1.561 . S
C465 C462 1.526 . S
C465 C466 1.396 . S
C465 C470 1.390 . S
C466 C460 1.465 . S
C466 C465 1.396 . S
C466 C467 1.399 . S
C467 H453 0.929 . S
C467 C466 1.399 . S
C467 C468 1.385 . S
C468 H454 0.931 . S
C468 C467 1.385 . S
C468 C469 1.389 . S
C469 C468 1.389 . S
C469 C470 1.387 . S
C470 H455 0.930 . S
C470 C465 1.390 . S
C470 C469 1.387 . S
H471 C483 0.930 . S
H472 C485 0.930 . S
H473 C486 0.930 . S
H474 C490 0.959 . S
H475 C490 0.959 . S
H476 C490 0.961 . S
H477 C491 0.960 . S
H478 C491 0.961 . S
H479 C491 0.959 . S
H480 C494 0.929 . S
H481 C495 0.931 . S
H482 C497 0.930 . S
C483 H471 0.930 . S
C483 C484 1.399 . S
C483 C488 1.399 . S
C484 C483 1.399 . S
C484 C485 1.376 . S
C485 H472 0.930 . S
C485 C484 1.376 . S
C485 C486 1.388 . S
C486 H473 0.930 . S
C486 C485 1.388 . S
C486 C487 1.390 . S
C487 C486 1.390 . S
C487 C488 1.394 . S
C487 C493 1.465 . S
C488 C483 1.399 . S
C488 C487 1.394 . S
C488 C489 1.516 . S
C489 C488 1.516 . S
C489 C490 1.502 . S
C489 C491 1.561 . S
C489 C492 1.526 . S
C490 H474 0.959 . S
C490 H475 0.959 . S
C490 H476 0.961 . S
C490 C489 1.502 . S
C491 H477 0.960 . S
C491 H478 0.961 . S
C491 H479 0.959 . S
C491 C489 1.561 . S
C492 C489 1.526 . S
C492 C493 1.396 . S
C492 C497 1.390 . S
C493 C487 1.465 . S
C493 C492 1.396 . S
C493 C494 1.399 . S
C494 H480 0.929 . S
C494 C493 1.399 . S
C494 C495 1.385 . S
C495 H481 0.931 . S
C495 C494 1.385 . S
C495 C496 1.389 . S
C496 C495 1.389 . S
C496 C497 1.387 . S
C497 H482 0.930 . S
C497 C492 1.390 . S
C497 C496 1.387 . S
H498 C510 0.930 . S
H499 C512 0.930 . S
H500 C513 0.930 . S
H501 C517 0.959 . S
H502 C517 0.959 . S
H503 C517 0.961 . S
H504 C518 0.960 . S
H505 C518 0.961 . S
H506 C518 0.959 . S
H507 C521 0.929 . S
H508 C522 0.931 . S
H509 C524 0.930 . S
C510 H498 0.930 . S
C510 C511 1.399 . S
C510 C515 1.399 . S
C511 C510 1.399 . S
C511 C512 1.376 . S
C512 H499 0.930 . S
C512 C511 1.376 . S
C512 C513 1.388 . S
C513 H500 0.930 . S
C513 C512 1.388 . S
C513 C514 1.390 . S
C514 C513 1.390 . S
C514 C515 1.394 . S
C514 C520 1.465 . S
C515 C510 1.399 . S
C515 C514 1.394 . S
C515 C516 1.516 . S
C516 C515 1.516 . S
C516 C517 1.502 . S
C516 C518 1.561 . S
C516 C519 1.526 . S
C517 H501 0.959 . S
C517 H502 0.959 . S
C517 H503 0.961 . S
C517 C516 1.502 . S
C518 H504 0.960 . S
C518 H505 0.961 . S
C518 H506 0.959 . S
C518 C516 1.561 . S
C519 C516 1.526 . S
C519 C520 1.396 . S
C519 C524 1.390 . S
C520 C514 1.465 . S
C520 C519 1.396 . S
C520 C521 1.399 . S
C521 H507 0.929 . S
C521 C520 1.399 . S
C521 C522 1.385 . S
C522 H508 0.931 . S
C522 C521 1.385 . S
C522 C523 1.389 . S
C523 C522 1.389 . S
C523 C524 1.387 . S
C524 H509 0.930 . S
C524 C519 1.390 . S
C524 C523 1.387 . S
H525 C537 0.930 . S
H526 C539 0.930 . S
H527 C540 0.930 . S
H528 C544 0.959 . S
H529 C544 0.959 . S
H530 C544 0.961 . S
H531 C545 0.960 . S
H532 C545 0.961 . S
H533 C545 0.959 . S
H534 C548 0.929 . S
H535 C549 0.931 . S
H536 C551 0.930 . S
C537 H525 0.930 . S
C537 C538 1.399 . S
C537 C542 1.399 . S
C538 C537 1.399 . S
C538 C539 1.376 . S
C539 H526 0.930 . S
C539 C538 1.376 . S
C539 C540 1.388 . S
C540 H527 0.930 . S
C540 C539 1.388 . S
C540 C541 1.390 . S
C541 C540 1.390 . S
C541 C542 1.394 . S
C541 C547 1.465 . S
C542 C537 1.399 . S
C542 C541 1.394 . S
C542 C543 1.516 . S
C543 C542 1.516 . S
C543 C544 1.502 . S
C543 C545 1.561 . S
C543 C546 1.526 . S
C544 H528 0.959 . S
C544 H529 0.959 . S
C544 H530 0.961 . S
C544 C543 1.502 . S
C545 H531 0.960 . S
C545 H532 0.961 . S
C545 H533 0.959 . S
C545 C543 1.561 . S
C546 C543 1.526 . S
C546 C547 1.396 . S
C546 C551 1.390 . S
C547 C541 1.465 . S
C547 C546 1.396 . S
C547 C548 1.399 . S
C548 H534 0.929 . S
C548 C547 1.399 . S
C548 C549 1.385 . S
C549 H535 0.931 . S
C549 C548 1.385 . S
C549 C550 1.389 . S
C550 C549 1.389 . S
C550 C551 1.387 . S
C551 H536 0.930 . S
C551 C546 1.390 . S
C551 C550 1.387 . S
H552 C564 0.930 . S
H553 C566 0.930 . S
H554 C567 0.930 . S
H555 C571 0.959 . S
H556 C571 0.959 . S
H557 C571 0.961 . S
H558 C572 0.960 . S
H559 C572 0.961 . S
H560 C572 0.959 . S
H561 C575 0.929 . S
H562 C576 0.931 . S
H563 C578 0.930 . S
C564 H552 0.930 . S
C564 C565 1.399 . S
C564 C569 1.399 . S
C565 C564 1.399 . S
C565 C566 1.376 . S
C566 H553 0.930 . S
C566 C565 1.376 . S
C566 C567 1.388 . S
C567 H554 0.930 . S
C567 C566 1.388 . S
C567 C568 1.390 . S
C568 C567 1.390 . S
C568 C569 1.394 . S
C568 C574 1.465 . S
C569 C564 1.399 . S
C569 C568 1.394 . S
C569 C570 1.516 . S
C570 C569 1.516 . S
C570 C571 1.502 . S
C570 C572 1.561 . S
C570 C573 1.526 . S
C571 H555 0.959 . S
C571 H556 0.959 . S
C571 H557 0.961 . S
C571 C570 1.502 . S
C572 H558 0.960 . S
C572 H559 0.961 . S
C572 H560 0.959 . S
C572 C570 1.561 . S
C573 C570 1.526 . S
C573 C574 1.396 . S
C573 C578 1.390 . S
C574 C568 1.465 . S
C574 C573 1.396 . S
C574 C575 1.399 . S
C575 H561 0.929 . S
C575 C574 1.399 . S
C575 C576 1.385 . S
C576 H562 0.931 . S
C576 C575 1.385 . S
C576 C577 1.389 . S
C577 C576 1.389 . S
C577 C578 1.387 . S
C578 H563 0.930 . S
C578 C573 1.390 . S
C578 C577 1.387 . S
H579 C591 0.930 . S
H580 C593 0.930 . S
H581 C594 0.930 . S
H582 C598 0.959 . S
H583 C598 0.959 . S
H584 C598 0.961 . S
H585 C599 0.960 . S
H586 C599 0.961 . S
H587 C599 0.959 . S
H588 C602 0.929 . S
H589 C603 0.931 . S
H590 C605 0.930 . S
C591 H579 0.930 . S
C591 C592 1.399 . S
C591 C596 1.399 . S
C592 C591 1.399 . S
C592 C593 1.376 . S
C593 H580 0.930 . S
C593 C592 1.376 . S
C593 C594 1.388 . S
C594 H581 0.930 . S
C594 C593 1.388 . S
C594 C595 1.390 . S
C595 C594 1.390 . S
C595 C596 1.394 . S
C595 C601 1.465 . S
C596 C591 1.399 . S
C596 C595 1.394 . S
C596 C597 1.516 . S
C597 C596 1.516 . S
C597 C598 1.502 . S
C597 C599 1.561 . S
C597 C600 1.526 . S
C598 H582 0.959 . S
C598 H583 0.959 . S
C598 H584 0.961 . S
C598 C597 1.502 . S
C599 H585 0.960 . S
C599 H586 0.961 . S
C599 H587 0.959 . S
C599 C597 1.561 . S
C600 C597 1.526 . S
C600 C601 1.396 . S
C600 C605 1.390 . S
C601 C595 1.465 . S
C601 C600 1.396 . S
C601 C602 1.399 . S
C602 H588 0.929 . S
C602 C601 1.399 . S
C602 C603 1.385 . S
C603 H589 0.931 . S
C603 C602 1.385 . S
C603 C604 1.389 . S
C604 C603 1.389 . S
C604 C605 1.387 . S
C605 H590 0.930 . S
C605 C600 1.390 . S
C605 C604 1.387 . S
H606 C618 0.930 . S
H607 C620 0.930 . S
H608 C621 0.930 . S
H609 C625 0.959 . S
H610 C625 0.959 . S
H611 C625 0.961 . S
H612 C626 0.960 . S
H613 C626 0.961 . S
H614 C626 0.959 . S
H615 C629 0.929 . S
H616 C630 0.931 . S
H617 C632 0.930 . S
C618 H606 0.930 . S
C618 C619 1.399 . S
C618 C623 1.399 . S
C619 C618 1.399 . S
C619 C620 1.376 . S
C620 H607 0.930 . S
C620 C619 1.376 . S
C620 C621 1.388 . S
C621 H608 0.930 . S
C621 C620 1.388 . S
C621 C622 1.390 . S
C622 C621 1.390 . S
C622 C623 1.394 . S
C622 C628 1.465 . S
C623 C618 1.399 . S
C623 C622 1.394 . S
C623 C624 1.516 . S
C624 C623 1.516 . S
C624 C625 1.502 . S
C624 C626 1.561 . S
C624 C627 1.526 . S
C625 H609 0.959 . S
C625 H610 0.959 . S
C625 H611 0.961 . S
C625 C624 1.502 . S
C626 H612 0.960 . S
C626 H613 0.961 . S
C626 H614 0.959 . S
C626 C624 1.561 . S
C627 C624 1.526 . S
C627 C628 1.396 . S
C627 C632 1.390 . S
C628 C622 1.465 . S
C628 C627 1.396 . S
C628 C629 1.399 . S
C629 H615 0.929 . S
C629 C628 1.399 . S
C629 C630 1.385 . S
C630 H616 0.931 . S
C630 C629 1.385 . S
C630 C631 1.389 . S
C631 C630 1.389 . S
C631 C632 1.387 . S
C632 H617 0.930 . S
C632 C627 1.390 . S
C632 C631 1.387 . S
H633 C645 0.930 . S
H634 C647 0.930 . S
H635 C648 0.930 . S
H636 C652 0.959 . S
H637 C652 0.959 . S
H638 C652 0.961 . S
H639 C653 0.960 . S
H640 C653 0.961 . S
H641 C653 0.959 . S
H642 C656 0.929 . S
H643 C657 0.931 . S
H644 C659 0.930 . S
C645 H633 0.930 . S
C645 C646 1.399 . S
C645 C650 1.399 . S
C646 C645 1.399 . S
C646 C647 1.376 . S
C647 H634 0.930 . S
C647 C646 1.376 . S
C647 C648 1.388 . S
C648 H635 0.930 . S
C648 C647 1.388 . S
C648 C649 1.390 . S
C649 C648 1.390 . S
C649 C650 1.394 . S
C649 C655 1.465 . S
C650 C645 1.399 . S
C650 C649 1.394 . S
C650 C651 1.516 . S
C651 C650 1.516 . S
C651 C652 1.502 . S
C651 C653 1.561 . S
C651 C654 1.526 . S
C652 H636 0.959 . S
C652 H637 0.959 . S
C652 H638 0.961 . S
C652 C651 1.502 . S
C653 H639 0.960 . S
C653 H640 0.961 . S
C653 H641 0.959 . S
C653 C651 1.561 . S
C654 C651 1.526 . S
C654 C655 1.396 . S
C654 C659 1.390 . S
C655 C649 1.465 . S
C655 C654 1.396 . S
C655 C656 1.399 . S
C656 H642 0.929 . S
C656 C655 1.399 . S
C656 C657 1.385 . S
C657 H643 0.931 . S
C657 C656 1.385 . S
C657 C658 1.389 . S
C658 C657 1.389 . S
C658 C659 1.387 . S
C659 H644 0.930 . S
C659 C654 1.390 . S
C659 C658 1.387 . S
H660 C672 0.930 . S
H661 C674 0.930 . S
H662 C675 0.930 . S
H663 C679 0.959 . S
H664 C679 0.959 . S
H665 C679 0.961 . S
H666 C680 0.960 . S
H667 C680 0.961 . S
H668 C680 0.959 . S
H669 C683 0.935 . S
H670 C684 0.931 . S
H671 C686 0.930 . S
C672 H660 0.930 . S
C672 C673 1.399 . S
C672 C677 1.399 . S
C673 C672 1.399 . S
C673 C674 1.376 . S
C674 H661 0.930 . S
C674 C673 1.376 . S
C674 C675 1.388 . S
C675 H662 0.930 . S
C675 C674 1.388 . S
C675 C676 1.390 . S
C676 C675 1.390 . S
C676 C677 1.394 . S
C676 C682 1.465 1_556 S
C677 C672 1.399 . S
C677 C676 1.394 . S
C677 C678 1.516 1_556 S
C678 C677 1.516 1_554 S
C678 C679 1.502 . S
C678 C680 1.561 1_554 S
C678 C681 1.526 . S
C679 H663 0.959 . S
C679 H664 0.959 . S
C679 H665 0.961 . S
C679 C678 1.502 . S
C680 H666 0.960 . S
C680 H667 0.961 . S
C680 H668 0.959 . S
C680 C678 1.561 1_556 S
C681 C678 1.526 . S
C681 C682 1.396 . S
C681 C686 1.390 . S
C682 C676 1.465 1_554 S
C682 C681 1.396 . S
C682 C683 1.399 . S
C683 H669 0.935 . S
C683 C682 1.399 . S
C683 C684 1.385 . S
C684 H670 0.931 . S
C684 C683 1.385 . S
C684 C685 1.389 . S
C685 C684 1.389 . S
C685 C686 1.387 . S
C686 H671 0.930 . S
C686 C681 1.390 . S
C686 C685 1.387 . S
H687 C699 0.930 . S
H688 C701 0.930 . S
H689 C702 0.930 . S
H690 C706 0.959 . S
H691 C706 0.959 . S
H692 C706 0.961 . S
H693 C707 0.960 . S
H694 C707 0.961 . S
H695 C707 0.959 . S
H696 C710 0.929 . S
H697 C711 0.931 . S
H698 C713 0.930 . S
C699 H687 0.930 . S
C699 C700 1.399 . S
C699 C704 1.399 . S
C700 C699 1.399 . S
C700 C701 1.376 . S
C701 H688 0.930 . S
C701 C700 1.376 . S
C701 C702 1.388 . S
C702 H689 0.930 . S
C702 C701 1.388 . S
C702 C703 1.390 . S
C703 C702 1.390 . S
C703 C704 1.394 . S
C703 C709 1.465 . S
C704 C699 1.399 . S
C704 C703 1.394 . S
C704 C705 1.516 . S
C705 C704 1.516 . S
C705 C706 1.502 . S
C705 C707 1.561 . S
C705 C708 1.526 . S
C706 H690 0.959 . S
C706 H691 0.959 . S
C706 H692 0.961 . S
C706 C705 1.502 . S
C707 H693 0.960 . S
C707 H694 0.961 . S
C707 H695 0.959 . S
C707 C705 1.561 . S
C708 C705 1.526 . S
C708 C709 1.396 . S
C708 C713 1.390 . S
C709 C703 1.465 . S
C709 C708 1.396 . S
C709 C710 1.399 . S
C710 H696 0.929 . S
C710 C709 1.399 . S
C710 C711 1.385 . S
C711 H697 0.931 . S
C711 C710 1.385 . S
C711 C712 1.389 . S
C712 C711 1.389 . S
C712 C713 1.387 . S
C713 H698 0.930 . S
C713 C708 1.390 . S
C713 C712 1.387 . S
H714 C726 0.930 . S
H715 C728 0.930 . S
H716 C729 0.930 . S
H717 C733 0.959 . S
H718 C733 0.959 . S
H719 C733 0.961 . S
H720 C734 0.960 . S
H721 C734 0.961 . S
H722 C734 0.959 . S
H723 C737 0.929 . S
H724 C738 0.931 . S
H725 C740 0.917 1_554 S
C726 H714 0.930 . S
C726 C727 1.399 . S
C726 C731 1.399 . S
C727 C726 1.399 . S
C727 C728 1.376 . S
C728 H715 0.930 . S
C728 C727 1.376 . S
C728 C729 1.388 1_554 S
C729 H716 0.930 . S
C729 C728 1.388 1_556 S
C729 C730 1.390 . S
C730 C729 1.390 . S
C730 C731 1.394 1_556 S
C730 C736 1.465 . S
C731 C726 1.399 . S
C731 C730 1.394 1_554 S
C731 C732 1.516 . S
C732 C731 1.516 . S
C732 C733 1.502 . S
C732 C734 1.561 . S
C732 C735 1.526 1_554 S
C733 H717 0.959 . S
C733 H718 0.959 . S
C733 H719 0.961 . S
C733 C732 1.502 . S
C734 H720 0.960 . S
C734 H721 0.961 . S
C734 H722 0.959 . S
C734 C732 1.561 . S
C735 C732 1.526 1_556 S
C735 C736 1.396 . S
C735 C740 1.390 . S
C736 C730 1.465 . S
C736 C735 1.396 . S
C736 C737 1.399 . S
C737 H723 0.929 . S
C737 C736 1.399 . S
C737 C738 1.385 . S
C738 H724 0.931 . S
C738 C737 1.385 . S
C738 C739 1.389 . S
C739 C738 1.389 . S
C739 C740 1.387 . S
C740 H725 0.917 1_556 S
C740 C735 1.390 . S
C740 C739 1.387 . S
H741 C753 0.930 . S
H742 C755 0.930 . S
H743 C756 0.930 . S
H744 C760 0.959 . S
H745 C760 0.959 . S
H746 C760 0.961 . S
H747 C761 0.960 . S
H748 C761 0.961 . S
H749 C761 0.959 . S
H750 C764 0.929 . S
H751 C765 0.931 . S
H752 C767 0.930 . S
C753 H741 0.930 . S
C753 C754 1.399 . S
C753 C758 1.399 . S
C754 C753 1.399 . S
C754 C755 1.376 . S
C755 H742 0.930 . S
C755 C754 1.376 . S
C755 C756 1.388 . S
C756 H743 0.930 . S
C756 C755 1.388 . S
C756 C757 1.390 . S
C757 C756 1.390 . S
C757 C758 1.394 . S
C757 C763 1.465 . S
C758 C753 1.399 . S
C758 C757 1.394 . S
C758 C759 1.516 . S
C759 C758 1.516 . S
C759 C760 1.502 . S
C759 C761 1.561 . S
C759 C762 1.526 . S
C760 H744 0.959 . S
C760 H745 0.959 . S
C760 H746 0.961 . S
C760 C759 1.502 . S
C761 H747 0.960 . S
C761 H748 0.961 . S
C761 H749 0.959 . S
C761 C759 1.561 . S
C762 C759 1.526 . S
C762 C763 1.396 . S
C762 C767 1.390 . S
C763 C757 1.465 . S
C763 C762 1.396 . S
C763 C764 1.399 . S
C764 H750 0.929 . S
C764 C763 1.399 . S
C764 C765 1.385 . S
C765 H751 0.931 . S
C765 C764 1.385 . S
C765 C766 1.389 . S
C766 C765 1.389 . S
C766 C767 1.387 . S
C767 H752 0.930 . S
C767 C762 1.390 . S
C767 C766 1.387 . S
H768 C780 0.930 . S
H769 C782 0.930 . S
H770 C783 0.930 . S
H771 C787 0.959 . S
H772 C787 0.959 . S
H773 C787 0.961 . S
H774 C788 0.960 . S
H775 C788 0.961 . S
H776 C788 0.959 . S
H777 C791 0.929 . S
H778 C792 0.931 . S
H779 C794 0.913 1_556 S
C780 H768 0.930 . S
C780 C781 1.399 . S
C780 C785 1.399 . S
C781 C780 1.399 . S
C781 C782 1.376 . S
C782 H769 0.930 . S
C782 C781 1.376 . S
C782 C783 1.388 1_556 S
C783 H770 0.930 . S
C783 C782 1.388 1_554 S
C783 C784 1.390 . S
C784 C783 1.390 . S
C784 C785 1.394 1_554 S
C784 C790 1.465 . S
C785 C780 1.399 . S
C785 C784 1.394 1_556 S
C785 C786 1.516 . S
C786 C785 1.516 . S
C786 C787 1.502 . S
C786 C788 1.561 . S
C786 C789 1.526 1_556 S
C787 H771 0.959 . S
C787 H772 0.959 . S
C787 H773 0.961 . S
C787 C786 1.502 . S
C788 H774 0.960 . S
C788 H775 0.961 . S
C788 H776 0.959 . S
C788 C786 1.561 . S
C789 C786 1.526 1_554 S
C789 C790 1.396 . S
C789 C794 1.390 . S
C790 C784 1.465 . S
C790 C789 1.396 . S
C790 C791 1.399 . S
C791 H777 0.929 . S
C791 C790 1.399 . S
C791 C792 1.385 . S
C792 H778 0.931 . S
C792 C791 1.385 . S
C792 C793 1.389 . S
C793 C792 1.389 . S
C793 C794 1.387 . S
C794 H779 0.913 1_554 S
C794 C789 1.390 . S
C794 C793 1.387 . S
H795 C807 0.930 . S
H796 C809 0.930 . S
H797 C810 0.930 . S
H798 C814 0.959 . S
H799 C814 0.959 . S
H800 C814 0.961 . S
H801 C815 0.960 . S
H802 C815 0.961 . S
H803 C815 0.959 . S
H804 C818 0.929 . S
H805 C819 0.931 . S
H806 C821 0.930 . S
C807 H795 0.930 . S
C807 C808 1.399 . S
C807 C812 1.399 . S
C808 C807 1.399 . S
C808 C809 1.376 . S
C809 H796 0.930 . S
C809 C808 1.376 . S
C809 C810 1.388 . S
C810 H797 0.930 . S
C810 C809 1.388 . S
C810 C811 1.390 . S
C811 C810 1.390 . S
C811 C812 1.394 . S
C811 C817 1.465 . S
C812 C807 1.399 . S
C812 C811 1.394 . S
C812 C813 1.516 . S
C813 C812 1.516 . S
C813 C814 1.502 . S
C813 C815 1.561 . S
C813 C816 1.526 . S
C814 H798 0.959 . S
C814 H799 0.959 . S
C814 H800 0.961 . S
C814 C813 1.502 . S
C815 H801 0.960 . S
C815 H802 0.961 . S
C815 H803 0.959 . S
C815 C813 1.561 . S
C816 C813 1.526 . S
C816 C817 1.396 . S
C816 C821 1.390 . S
C817 C811 1.465 . S
C817 C816 1.396 . S
C817 C818 1.399 . S
C818 H804 0.929 . S
C818 C817 1.399 . S
C818 C819 1.385 . S
C819 H805 0.931 . S
C819 C818 1.385 . S
C819 C820 1.389 . S
C820 C819 1.389 . S
C820 C821 1.387 . S
C821 H806 0.930 . S
C821 C816 1.390 . S
C821 C820 1.387 . S
H822 C834 0.930 . S
H823 C836 0.930 . S
H824 C837 0.930 1_556 S
H825 C841 0.959 . S
H826 C841 0.959 . S
H827 C841 0.961 . S
H828 C842 0.960 . S
H829 C842 0.961 . S
H830 C842 0.959 . S
H831 C845 0.929 . S
H832 C846 0.931 . S
H833 C848 0.930 . S
C834 H822 0.930 . S
C834 C835 1.399 . S
C834 C839 1.399 . S
C835 C834 1.399 . S
C835 C836 1.376 . S
C836 H823 0.930 . S
C836 C835 1.376 . S
C836 C837 1.388 . S
C837 H824 0.930 1_554 S
C837 C836 1.388 . S
C837 C838 1.394 . S
C838 C837 1.394 . S
C838 C839 1.412 . S
C838 C844 1.447 1_554 S
C839 C834 1.399 . S
C839 C838 1.412 . S
C839 C840 1.516 . S
C840 C839 1.516 . S
C840 C841 1.502 . S
C840 C842 1.561 1_554 S
C840 C843 1.526 1_554 S
C841 H825 0.959 . S
C841 H826 0.959 . S
C841 H827 0.961 . S
C841 C840 1.502 . S
C842 H828 0.960 . S
C842 H829 0.961 . S
C842 H830 0.959 . S
C842 C840 1.561 1_556 S
C843 C840 1.526 1_556 S
C843 C844 1.396 . S
C843 C848 1.390 . S
C844 C838 1.447 1_556 S
C844 C843 1.396 . S
C844 C845 1.399 . S
C845 H831 0.929 . S
C845 C844 1.399 . S
C845 C846 1.385 . S
C846 H832 0.931 . S
C846 C845 1.385 . S
C846 C847 1.389 . S
C847 C846 1.389 . S
C847 C848 1.387 . S
C848 H833 0.930 . S
C848 C843 1.390 . S
C848 C847 1.387 . S
H849 C861 0.930 . S
H850 C863 0.930 . S
H851 C864 0.930 . S
H852 C868 0.959 . S
H853 C868 0.959 . S
H854 C868 0.961 . S
H855 C869 0.960 . S
H856 C869 0.961 . S
H857 C869 0.959 . S
H858 C872 0.929 . S
H859 C873 0.931 . S
H860 C875 0.930 . S
C861 H849 0.930 . S
C861 C862 1.399 . S
C861 C866 1.399 . S
C862 C861 1.399 . S
C862 C863 1.376 . S
C863 H850 0.930 . S
C863 C862 1.376 . S
C863 C864 1.388 . S
C864 H851 0.930 . S
C864 C863 1.388 . S
C864 C865 1.390 . S
C865 C864 1.390 . S
C865 C866 1.394 . S
C865 C871 1.465 . S
C866 C861 1.399 . S
C866 C865 1.394 . S
C866 C867 1.516 . S
C867 C866 1.516 . S
C867 C868 1.502 . S
C867 C869 1.561 . S
C867 C870 1.526 . S
C868 H852 0.959 . S
C868 H853 0.959 . S
C868 H854 0.961 . S
C868 C867 1.502 . S
C869 H855 0.960 . S
C869 H856 0.961 . S
C869 H857 0.959 . S
C869 C867 1.561 . S
C870 C867 1.526 . S
C870 C871 1.396 . S
C870 C875 1.390 . S
C871 C865 1.465 . S
C871 C870 1.396 . S
C871 C872 1.399 . S
C872 H858 0.929 . S
C872 C871 1.399 . S
C872 C873 1.385 . S
C873 H859 0.931 . S
C873 C872 1.385 . S
C873 C874 1.389 . S
C874 C873 1.389 . S
C874 C875 1.387 . S
C875 H860 0.930 . S
C875 C870 1.390 . S
C875 C874 1.387 . S
H876 C888 0.930 . S
H877 C890 0.930 . S
H878 C891 0.930 . S
H879 C895 0.959 . S
H880 C895 0.959 . S
H881 C895 0.961 . S
H882 C896 0.960 . S
H883 C896 0.961 . S
H884 C896 0.959 . S
H885 C899 0.929 . S
H886 C900 0.931 . S
H887 C902 0.930 . S
C888 H876 0.930 . S
C888 C889 1.399 . S
C888 C893 1.399 . S
C889 C888 1.399 . S
C889 C890 1.376 . S
C890 H877 0.930 . S
C890 C889 1.376 . S
C890 C891 1.388 . S
C891 H878 0.930 . S
C891 C890 1.388 . S
C891 C892 1.390 . S
C892 C891 1.390 . S
C892 C893 1.394 . S
C892 C898 1.465 1_556 S
C893 C888 1.399 . S
C893 C892 1.394 . S
C893 C894 1.516 1_556 S
C894 C893 1.516 1_554 S
C894 C895 1.502 . S
C894 C896 1.561 . S
C894 C897 1.526 . S
C895 H879 0.959 . S
C895 H880 0.959 . S
C895 H881 0.961 . S
C895 C894 1.502 . S
C896 H882 0.960 . S
C896 H883 0.961 . S
C896 H884 0.959 . S
C896 C894 1.561 . S
C897 C894 1.526 . S
C897 C898 1.396 . S
C897 C902 1.390 . S
C898 C892 1.465 1_554 S
C898 C897 1.396 . S
C898 C899 1.399 1_554 S
C899 H885 0.929 . S
C899 C898 1.399 1_556 S
C899 C900 1.385 1_556 S
C900 H886 0.931 . S
C900 C899 1.385 1_554 S
C900 C901 1.389 . S
C901 C900 1.389 . S
C901 C902 1.387 . S
C902 H887 0.930 . S
C902 C897 1.390 . S
C902 C901 1.387 . S
H903 C915 0.930 . S
H904 C917 0.930 . S
H905 C918 0.930 . S
H906 C922 0.959 . S
H907 C922 0.959 . S
H908 C922 0.961 . S
H909 C923 0.960 . S
H910 C923 0.961 . S
H911 C923 0.959 . S
H912 C926 0.929 . S
H913 C927 0.931 . S
H914 C929 0.930 . S
C915 H903 0.930 . S
C915 C916 1.399 . S
C915 C920 1.399 . S
C916 C915 1.399 . S
C916 C917 1.376 . S
C917 H904 0.930 . S
C917 C916 1.376 . S
C917 C918 1.388 . S
C918 H905 0.930 . S
C918 C917 1.388 . S
C918 C919 1.390 . S
C919 C918 1.390 . S
C919 C920 1.394 . S
C919 C925 1.465 . S
C920 C915 1.399 . S
C920 C919 1.394 . S
C920 C921 1.516 . S
C921 C920 1.516 . S
C921 C922 1.502 . S
C921 C923 1.561 . S
C921 C924 1.526 . S
C922 H906 0.959 . S
C922 H907 0.959 . S
C922 H908 0.961 . S
C922 C921 1.502 . S
C923 H909 0.960 . S
C923 H910 0.961 . S
C923 H911 0.959 . S
C923 C921 1.561 . S
C924 C921 1.526 . S
C924 C925 1.396 . S
C924 C929 1.390 . S
C925 C919 1.465 . S
C925 C924 1.396 . S
C925 C926 1.399 . S
C926 H912 0.929 . S
C926 C925 1.399 . S
C926 C927 1.385 . S
C927 H913 0.931 . S
C927 C926 1.385 . S
C927 C928 1.389 . S
C928 C927 1.389 . S
C928 C929 1.387 . S
C929 H914 0.930 . S
C929 C924 1.390 . S
C929 C928 1.387 . S
H930 C942 0.930 . S
H931 C944 0.930 . S
H932 C945 0.930 . S
H933 C949 0.959 . S
H934 C949 0.959 . S
H935 C949 0.961 . S
H936 C950 0.960 . S
H937 C950 0.961 . S
H938 C950 0.959 . S
H939 C953 0.929 . S
H940 C954 0.931 . S
H941 C956 0.953 . S
C942 H930 0.930 . S
C942 C943 1.399 . S
C942 C947 1.399 . S
C943 C942 1.399 . S
C943 C944 1.376 . S
C944 H931 0.930 . S
C944 C943 1.376 . S
C944 C945 1.388 1_556 S
C945 H932 0.930 . S
C945 C944 1.388 1_554 S
C945 C946 1.390 . S
C946 C945 1.390 . S
C946 C947 1.394 1_554 S
C946 C952 1.465 . S
C947 C942 1.399 . S
C947 C946 1.394 1_556 S
C947 C948 1.516 . S
C948 C947 1.516 . S
C948 C949 1.502 . S
C948 C950 1.561 . S
C948 C951 1.526 1_556 S
C949 H933 0.959 . S
C949 H934 0.959 . S
C949 H935 0.961 . S
C949 C948 1.502 . S
C950 H936 0.960 . S
C950 H937 0.961 . S
C950 H938 0.959 . S
C950 C948 1.561 . S
C951 C948 1.526 1_554 S
C951 C952 1.396 . S
C951 C956 1.390 . S
C952 C946 1.465 . S
C952 C951 1.396 . S
C952 C953 1.399 . S
C953 H939 0.929 . S
C953 C952 1.399 . S
C953 C954 1.385 . S
C954 H940 0.931 . S
C954 C953 1.385 . S
C954 C955 1.389 . S
C955 C954 1.389 . S
C955 C956 1.387 . S
C956 H941 0.953 . S
C956 C951 1.390 . S
C956 C955 1.387 . S
H957 C969 0.930 . S
H958 C971 0.930 . S
H959 C972 0.930 . S
H960 C976 0.959 . S
H961 C976 0.959 . S
H962 C976 0.961 . S
H963 C977 0.960 . S
H964 C977 0.961 . S
H965 C977 0.959 . S
H966 C980 0.929 . S
H967 C981 0.931 . S
H968 C983 0.930 . S
C969 H957 0.930 . S
C969 C970 1.399 . S
C969 C974 1.399 . S
C970 C969 1.399 . S
C970 C971 1.376 . S
C971 H958 0.930 . S
C971 C970 1.376 . S
C971 C972 1.388 . S
C972 H959 0.930 . S
C972 C971 1.388 . S
C972 C973 1.390 . S
C973 C972 1.390 . S
C973 C974 1.394 . S
C973 C979 1.465 . S
C974 C969 1.399 . S
C974 C973 1.394 . S
C974 C975 1.516 . S
C975 C974 1.516 . S
C975 C976 1.502 . S
C975 C977 1.561 . S
C975 C978 1.526 . S
C976 H960 0.959 . S
C976 H961 0.959 . S
C976 H962 0.961 . S
C976 C975 1.502 . S
C977 H963 0.960 . S
C977 H964 0.961 . S
C977 H965 0.959 . S
C977 C975 1.561 . S
C978 C975 1.526 . S
C978 C979 1.396 . S
C978 C983 1.390 . S
C979 C973 1.465 . S
C979 C978 1.396 . S
C979 C980 1.399 . S
C980 H966 0.929 . S
C980 C979 1.399 . S
C980 C981 1.385 . S
C981 H967 0.931 . S
C981 C980 1.385 . S
C981 C982 1.389 . S
C982 C981 1.389 . S
C982 C983 1.387 . S
C983 H968 0.930 . S
C983 C978 1.390 . S
C983 C982 1.387 . S
H984 C996 0.930 . S
H985 C998 0.930 . S
H986 C999 0.930 . S
H987 C1003 0.959 . S
H988 C1003 0.959 . S
H989 C1003 0.961 . S
H990 C1004 0.960 . S
H991 C1004 0.961 . S
H992 C1004 0.959 . S
H993 C1007 0.929 . S
H994 C1008 0.931 . S
H995 C1010 0.930 . S
C996 H984 0.930 . S
C996 C997 1.399 . S
C996 C1001 1.399 . S
C997 C996 1.399 . S
C997 C998 1.376 . S
C998 H985 0.930 . S
C998 C997 1.376 . S
C998 C999 1.388 . S
C999 H986 0.930 . S
C999 C998 1.388 . S
C999 C1000 1.390 . S
C1000 C999 1.390 . S
C1000 C1001 1.394 . S
C1000 C1006 1.465 . S
C1001 C996 1.399 . S
C1001 C1000 1.394 . S
C1001 C1002 1.516 . S
C1002 C1001 1.516 . S
C1002 C1003 1.502 . S
C1002 C1004 1.561 . S
C1002 C1005 1.526 . S
C1003 H987 0.959 . S
C1003 H988 0.959 . S
C1003 H989 0.961 . S
C1003 C1002 1.502 . S
C1004 H990 0.960 . S
C1004 H991 0.961 . S
C1004 H992 0.959 . S
C1004 C1002 1.561 . S
C1005 C1002 1.526 . S
C1005 C1006 1.396 . S
C1005 C1010 1.390 . S
C1006 C1000 1.465 . S
C1006 C1005 1.396 . S
C1006 C1007 1.399 . S
C1007 H993 0.929 . S
C1007 C1006 1.399 . S
C1007 C1008 1.385 . S
C1008 H994 0.931 . S
C1008 C1007 1.385 . S
C1008 C1009 1.389 . S
C1009 C1008 1.389 . S
C1009 C1010 1.387 . S
C1010 H995 0.930 . S
C1010 C1005 1.390 . S
C1010 C1009 1.387 . S
H1011 C1023 0.930 . S
H1012 C1025 0.930 . S
H1013 C1026 0.930 . S
H1014 C1030 0.961 . S
H1015 C1030 0.972 . S
H1016 C1030 0.933 1_455 S
H1017 C1031 0.957 1_455 S
H1018 C1031 0.962 . S
H1019 C1031 0.961 . S
H1020 C1034 0.929 . S
H1021 C1035 0.931 . S
H1022 C1037 0.930 . S
C1023 H1011 0.930 . S
C1023 C1024 1.399 . S
C1023 C1028 1.399 . S
C1024 C1023 1.399 . S
C1024 C1025 1.376 . S
C1025 H1012 0.930 . S
C1025 C1024 1.376 . S
C1025 C1026 1.388 . S
C1026 H1013 0.930 . S
C1026 C1025 1.388 . S
C1026 C1027 1.390 . S
C1027 C1026 1.390 . S
C1027 C1028 1.394 . S
C1027 C1033 1.465 1_455 S
C1028 C1023 1.399 . S
C1028 C1027 1.394 . S
C1028 C1029 1.517 1_455 S
C1029 C1028 1.517 1_655 S
C1029 C1030 1.516 . S
C1029 C1031 1.561 . S
C1029 C1032 1.524 . S
C1030 H1014 0.961 . S
C1030 H1015 0.972 . S
C1030 H1016 0.933 1_655 S
C1030 C1029 1.516 . S
C1031 H1017 0.957 1_655 S
C1031 H1018 0.962 . S
C1031 H1019 0.961 . S
C1031 C1029 1.561 . S
C1032 C1029 1.524 . S
C1032 C1033 1.396 . S
C1032 C1037 1.390 . S
C1033 C1027 1.465 1_655 S
C1033 C1032 1.396 . S
C1033 C1034 1.399 . S
C1034 H1020 0.929 . S
C1034 C1033 1.399 . S
C1034 C1035 1.385 . S
C1035 H1021 0.931 . S
C1035 C1034 1.385 . S
C1035 C1036 1.389 . S
C1036 C1035 1.389 . S
C1036 C1037 1.387 . S
C1037 H1022 0.930 . S
C1037 C1032 1.390 . S
C1037 C1036 1.387 . S
H1038 C1050 0.930 . S
H1039 C1052 0.930 . S
H1040 C1053 0.930 . S
H1041 C1057 0.955 . S
H1042 C1057 0.975 . S
H1043 C1057 0.936 1_565 S
H1044 C1058 0.973 1_565 S
H1045 C1058 0.950 1_556 S
H1046 C1058 0.961 . S
H1047 C1061 0.929 . S
H1048 C1062 0.931 . S
H1049 C1064 0.930 . S
C1050 H1038 0.930 . S
C1050 C1051 1.399 . S
C1050 C1055 1.399 . S
C1051 C1050 1.399 . S
C1051 C1052 1.376 . S
C1052 H1039 0.930 . S
C1052 C1051 1.376 . S
C1052 C1053 1.388 . S
C1053 H1040 0.930 . S
C1053 C1052 1.388 . S
C1053 C1054 1.390 . S
C1054 C1053 1.390 . S
C1054 C1055 1.394 . S
C1054 C1060 1.465 1_565 S
C1055 C1050 1.399 . S
C1055 C1054 1.394 . S
C1055 C1056 1.517 1_565 S
C1056 C1055 1.517 1_545 S
C1056 C1057 1.516 . S
C1056 C1058 1.560 . S
C1056 C1059 1.525 . S
C1057 H1041 0.955 . S
C1057 H1042 0.975 . S
C1057 H1043 0.936 1_545 S
C1057 C1056 1.516 . S
C1058 H1044 0.973 1_545 S
C1058 H1045 0.950 1_554 S
C1058 H1046 0.961 . S
C1058 C1056 1.560 . S
C1059 C1056 1.525 . S
C1059 C1060 1.396 . S
C1059 C1064 1.390 . S
C1060 C1054 1.465 1_545 S
C1060 C1059 1.396 . S
C1060 C1061 1.399 . S
C1061 H1047 0.929 . S
C1061 C1060 1.399 . S
C1061 C1062 1.385 . S
C1062 H1048 0.931 . S
C1062 C1061 1.385 . S
C1062 C1063 1.389 . S
C1063 C1062 1.389 . S
C1063 C1064 1.387 . S
C1064 H1049 0.930 . S
C1064 C1059 1.390 . S
C1064 C1063 1.387 . S
H1065 C1077 0.930 . S
H1066 C1079 0.930 . S
H1067 C1080 0.930 . S
H1068 C1084 0.959 . S
H1069 C1084 0.959 . S
H1070 C1084 0.961 . S
H1071 C1085 0.960 . S
H1072 C1085 0.961 . S
H1073 C1085 0.959 . S
H1074 C1088 0.929 . S
H1075 C1089 0.931 . S
H1076 C1091 0.930 . S
C1077 H1065 0.930 . S
C1077 C1078 1.399 . S
C1077 C1082 1.399 . S
C1078 C1077 1.399 . S
C1078 C1079 1.376 . S
C1079 H1066 0.930 . S
C1079 C1078 1.376 . S
C1079 C1080 1.388 . S
C1080 H1067 0.930 . S
C1080 C1079 1.388 . S
C1080 C1081 1.390 . S
C1081 C1080 1.390 . S
C1081 C1082 1.394 . S
C1081 C1087 1.465 . S
C1082 C1077 1.399 . S
C1082 C1081 1.394 . S
C1082 C1083 1.516 . S
C1083 C1082 1.516 . S
C1083 C1084 1.502 . S
C1083 C1085 1.561 . S
C1083 C1086 1.526 . S
C1084 H1068 0.959 . S
C1084 H1069 0.959 . S
C1084 H1070 0.961 . S
C1084 C1083 1.502 . S
C1085 H1071 0.960 . S
C1085 H1072 0.961 . S
C1085 H1073 0.959 . S
C1085 C1083 1.561 . S
C1086 C1083 1.526 . S
C1086 C1087 1.396 . S
C1086 C1091 1.390 . S
C1087 C1081 1.465 . S
C1087 C1086 1.396 . S
C1087 C1088 1.399 . S
C1088 H1074 0.929 . S
C1088 C1087 1.399 . S
C1088 C1089 1.385 . S
C1089 H1075 0.931 . S
C1089 C1088 1.385 . S
C1089 C1090 1.389 . S
C1090 C1089 1.389 . S
C1090 C1091 1.387 . S
C1091 H1076 0.930 . S
C1091 C1086 1.390 . S
C1091 C1090 1.387 . S
H1092 C1104 0.930 . S
H1093 C1106 0.930 . S
H1094 C1107 0.930 . S
H1095 C1111 0.956 . S
H1096 C1111 0.975 . S
H1097 C1111 0.936 1_655 S
H1098 C1112 0.957 1_655 S
H1099 C1112 0.962 . S
H1100 C1112 0.961 . S
H1101 C1115 0.929 . S
H1102 C1116 0.931 . S
H1103 C1118 0.930 . S
C1104 H1092 0.930 . S
C1104 C1105 1.399 . S
C1104 C1109 1.399 . S
C1105 C1104 1.399 . S
C1105 C1106 1.376 . S
C1106 H1093 0.930 . S
C1106 C1105 1.376 . S
C1106 C1107 1.388 . S
C1107 H1094 0.930 . S
C1107 C1106 1.388 . S
C1107 C1108 1.390 . S
C1108 C1107 1.390 . S
C1108 C1109 1.394 . S
C1108 C1114 1.465 1_655 S
C1109 C1104 1.399 . S
C1109 C1108 1.394 . S
C1109 C1110 1.517 1_655 S
C1110 C1109 1.517 1_455 S
C1110 C1111 1.516 . S
C1110 C1112 1.560 . S
C1110 C1113 1.524 . S
C1111 H1095 0.956 . S
C1111 H1096 0.975 . S
C1111 H1097 0.936 1_455 S
C1111 C1110 1.516 . S
C1112 H1098 0.957 1_455 S
C1112 H1099 0.962 . S
C1112 H1100 0.961 . S
C1112 C1110 1.560 . S
C1113 C1110 1.524 . S
C1113 C1114 1.396 . S
C1113 C1118 1.390 . S
C1114 C1108 1.465 1_455 S
C1114 C1113 1.396 . S
C1114 C1115 1.399 . S
C1115 H1101 0.929 . S
C1115 C1114 1.399 . S
C1115 C1116 1.385 . S
C1116 H1102 0.931 . S
C1116 C1115 1.385 . S
C1116 C1117 1.389 . S
C1117 C1116 1.389 . S
C1117 C1118 1.387 . S
C1118 H1103 0.930 . S
C1118 C1113 1.390 . S
C1118 C1117 1.387 . S
H1119 C1131 0.930 . S
H1120 C1133 0.930 . S
H1121 C1134 0.930 . S
H1122 C1138 0.956 . S
H1123 C1138 0.975 . S
H1124 C1138 0.935 1_545 S
H1125 C1139 0.957 1_545 S
H1126 C1139 0.962 . S
H1127 C1139 0.961 . S
H1128 C1142 0.929 . S
H1129 C1143 0.931 . S
H1130 C1145 0.930 . S
C1131 H1119 0.930 . S
C1131 C1132 1.399 . S
C1131 C1136 1.399 . S
C1132 C1131 1.399 . S
C1132 C1133 1.376 . S
C1133 H1120 0.930 . S
C1133 C1132 1.376 . S
C1133 C1134 1.388 . S
C1134 H1121 0.930 . S
C1134 C1133 1.388 . S
C1134 C1135 1.390 . S
C1135 C1134 1.390 . S
C1135 C1136 1.394 . S
C1135 C1141 1.465 1_545 S
C1136 C1131 1.399 . S
C1136 C1135 1.394 . S
C1136 C1137 1.517 1_545 S
C1137 C1136 1.517 1_565 S
C1137 C1138 1.517 . S
C1137 C1139 1.560 . S
C1137 C1140 1.525 . S
C1138 H1122 0.956 . S
C1138 H1123 0.975 . S
C1138 H1124 0.935 1_565 S
C1138 C1137 1.517 . S
C1139 H1125 0.957 1_565 S
C1139 H1126 0.962 . S
C1139 H1127 0.961 . S
C1139 C1137 1.560 . S
C1140 C1137 1.525 . S
C1140 C1141 1.396 . S
C1140 C1145 1.390 . S
C1141 C1135 1.465 1_565 S
C1141 C1140 1.396 . S
C1141 C1142 1.399 . S
C1142 H1128 0.929 . S
C1142 C1141 1.399 . S
C1142 C1143 1.385 . S
C1143 H1129 0.931 . S
C1143 C1142 1.385 . S
C1143 C1144 1.389 . S
C1144 C1143 1.389 . S
C1144 C1145 1.387 . S
C1145 H1130 0.930 . S
C1145 C1140 1.390 . S
C1145 C1144 1.387 . S
H1146 C1158 0.930 . S
H1147 C1160 0.930 . S
H1148 C1161 0.930 . S
H1149 C1165 0.959 . S
H1150 C1165 0.959 . S
H1151 C1165 0.961 . S
H1152 C1166 0.960 . S
H1153 C1166 0.960 1_554 S
H1154 C1166 0.959 . S
H1155 C1169 0.929 . S
H1156 C1170 0.931 . S
H1157 C1172 0.930 . S
C1158 H1146 0.930 . S
C1158 C1159 1.399 . S
C1158 C1163 1.399 . S
C1159 C1158 1.399 . S
C1159 C1160 1.376 . S
C1160 H1147 0.930 . S
C1160 C1159 1.376 . S
C1160 C1161 1.388 . S
C1161 H1148 0.930 . S
C1161 C1160 1.388 . S
C1161 C1162 1.390 . S
C1162 C1161 1.390 . S
C1162 C1163 1.394 . S
C1162 C1168 1.465 . S
C1163 C1158 1.399 . S
C1163 C1162 1.394 . S
C1163 C1164 1.516 . S
C1164 C1163 1.516 . S
C1164 C1165 1.502 . S
C1164 C1166 1.561 . S
C1164 C1167 1.526 . S
C1165 H1149 0.959 . S
C1165 H1150 0.959 . S
C1165 H1151 0.961 . S
C1165 C1164 1.502 . S
C1166 H1152 0.960 . S
C1166 H1153 0.960 1_556 S
C1166 H1154 0.959 . S
C1166 C1164 1.561 . S
C1167 C1164 1.526 . S
C1167 C1168 1.396 . S
C1167 C1172 1.390 . S
C1168 C1162 1.465 . S
C1168 C1167 1.396 . S
C1168 C1169 1.399 . S
C1169 H1155 0.929 . S
C1169 C1168 1.399 . S
C1169 C1170 1.385 . S
C1170 H1156 0.931 . S
C1170 C1169 1.385 . S
C1170 C1171 1.389 . S
C1171 C1170 1.389 . S
C1171 C1172 1.387 . S
C1172 H1157 0.930 . S
C1172 C1167 1.390 . S
C1172 C1171 1.387 . S
H1173 C1185 0.930 . S
H1174 C1187 0.930 . S
H1175 C1188 0.930 . S
H1176 C1192 0.972 . S
H1177 C1192 0.980 . S
H1178 C1192 0.942 1_655 S
H1179 C1193 0.958 1_655 S
H1180 C1193 0.963 . S
H1181 C1193 0.958 . S
H1182 C1196 0.929 . S
H1183 C1197 0.931 . S
H1184 C1199 0.930 . S
C1185 H1173 0.930 . S
C1185 C1186 1.399 . S
C1185 C1190 1.399 . S
C1186 C1185 1.399 . S
C1186 C1187 1.376 . S
C1187 H1174 0.930 . S
C1187 C1186 1.376 . S
C1187 C1188 1.388 . S
C1188 H1175 0.930 . S
C1188 C1187 1.388 . S
C1188 C1189 1.390 . S
C1189 C1188 1.390 . S
C1189 C1190 1.394 . S
C1189 C1195 1.465 1_655 S
C1190 C1185 1.399 . S
C1190 C1189 1.394 . S
C1190 C1191 1.517 1_655 S
C1191 C1190 1.517 1_455 S
C1191 C1192 1.488 . S
C1191 C1193 1.563 . S
C1191 C1194 1.525 . S
C1192 H1176 0.972 . S
C1192 H1177 0.980 . S
C1192 H1178 0.942 1_455 S
C1192 C1191 1.488 . S
C1193 H1179 0.958 1_455 S
C1193 H1180 0.963 . S
C1193 H1181 0.958 . S
C1193 C1191 1.563 . S
C1194 C1191 1.525 . S
C1194 C1195 1.396 . S
C1194 C1199 1.390 . S
C1195 C1189 1.465 1_455 S
C1195 C1194 1.396 . S
C1195 C1196 1.399 . S
C1196 H1182 0.929 . S
C1196 C1195 1.399 . S
C1196 C1197 1.385 . S
C1197 H1183 0.931 . S
C1197 C1196 1.385 . S
C1197 C1198 1.389 . S
C1198 C1197 1.389 . S
C1198 C1199 1.387 . S
C1199 H1184 0.930 . S
C1199 C1194 1.390 . S
C1199 C1198 1.387 . S
H1200 C1212 0.930 . S
H1201 C1214 0.930 . S
H1202 C1215 0.930 . S
H1203 C1219 0.972 . S
H1204 C1219 0.979 . S
H1205 C1219 0.942 1_545 S
H1206 C1220 0.958 1_545 S
H1207 C1220 0.963 . S
H1208 C1220 0.958 . S
H1209 C1223 0.929 . S
H1210 C1224 0.931 . S
H1211 C1226 0.930 . S
C1212 H1200 0.930 . S
C1212 C1213 1.399 . S
C1212 C1217 1.399 . S
C1213 C1212 1.399 . S
C1213 C1214 1.376 . S
C1214 H1201 0.930 . S
C1214 C1213 1.376 . S
C1214 C1215 1.388 . S
C1215 H1202 0.930 . S
C1215 C1214 1.388 . S
C1215 C1216 1.390 . S
C1216 C1215 1.390 . S
C1216 C1217 1.394 . S
C1216 C1222 1.465 1_545 S
C1217 C1212 1.399 . S
C1217 C1216 1.394 . S
C1217 C1218 1.517 1_545 S
C1218 C1217 1.517 1_565 S
C1218 C1219 1.488 . S
C1218 C1220 1.563 . S
C1218 C1221 1.525 . S
C1219 H1203 0.972 . S
C1219 H1204 0.979 . S
C1219 H1205 0.942 1_565 S
C1219 C1218 1.488 . S
C1220 H1206 0.958 1_565 S
C1220 H1207 0.963 . S
C1220 H1208 0.958 . S
C1220 C1218 1.563 . S
C1221 C1218 1.525 . S
C1221 C1222 1.396 . S
C1221 C1226 1.390 . S
C1222 C1216 1.465 1_565 S
C1222 C1221 1.396 . S
C1222 C1223 1.399 . S
C1223 H1209 0.929 . S
C1223 C1222 1.399 . S
C1223 C1224 1.385 . S
C1224 H1210 0.931 . S
C1224 C1223 1.385 . S
C1224 C1225 1.389 . S
C1225 C1224 1.389 . S
C1225 C1226 1.387 . S
C1226 H1211 0.930 . S
C1226 C1221 1.390 . S
C1226 C1225 1.387 . S
H1227 C1239 0.930 . S
H1228 C1241 0.930 . S
H1229 C1242 0.930 . S
H1230 C1246 0.959 . S
H1231 C1246 0.959 . S
H1232 C1246 0.961 . S
H1233 C1247 0.960 . S
H1234 C1247 0.961 . S
H1235 C1247 0.959 . S
H1236 C1250 0.929 . S
H1237 C1251 0.931 . S
H1238 C1253 0.930 . S
C1239 H1227 0.930 . S
C1239 C1240 1.399 . S
C1239 C1244 1.399 . S
C1240 C1239 1.399 . S
C1240 C1241 1.376 . S
C1241 H1228 0.930 . S
C1241 C1240 1.376 . S
C1241 C1242 1.388 . S
C1242 H1229 0.930 . S
C1242 C1241 1.388 . S
C1242 C1243 1.390 . S
C1243 C1242 1.390 . S
C1243 C1244 1.394 . S
C1243 C1249 1.465 . S
C1244 C1239 1.399 . S
C1244 C1243 1.394 . S
C1244 C1245 1.516 . S
C1245 C1244 1.516 . S
C1245 C1246 1.502 . S
C1245 C1247 1.561 . S
C1245 C1248 1.526 . S
C1246 H1230 0.959 . S
C1246 H1231 0.959 . S
C1246 H1232 0.961 . S
C1246 C1245 1.502 . S
C1247 H1233 0.960 . S
C1247 H1234 0.961 . S
C1247 H1235 0.959 . S
C1247 C1245 1.561 . S
C1248 C1245 1.526 . S
C1248 C1249 1.396 . S
C1248 C1253 1.390 . S
C1249 C1243 1.465 . S
C1249 C1248 1.396 . S
C1249 C1250 1.399 . S
C1250 H1236 0.929 . S
C1250 C1249 1.399 . S
C1250 C1251 1.385 . S
C1251 H1237 0.931 . S
C1251 C1250 1.385 . S
C1251 C1252 1.389 . S
C1252 C1251 1.389 . S
C1252 C1253 1.387 . S
C1253 H1238 0.930 . S
C1253 C1248 1.390 . S
C1253 C1252 1.387 . S
H1254 C1266 0.930 . S
H1255 C1268 0.930 . S
H1256 C1269 0.930 . S
H1257 C1273 0.967 . S
H1258 C1273 0.970 . S
H1259 C1273 0.932 1_455 S
H1260 C1274 0.957 1_455 S
H1261 C1274 0.962 . S
H1262 C1274 0.960 . S
H1263 C1277 0.929 . S
H1264 C1278 0.931 . S
H1265 C1280 0.930 . S
C1266 H1254 0.930 . S
C1266 C1267 1.399 . S
C1266 C1271 1.399 . S
C1267 C1266 1.399 . S
C1267 C1268 1.376 . S
C1268 H1255 0.930 . S
C1268 C1267 1.376 . S
C1268 C1269 1.388 . S
C1269 H1256 0.930 . S
C1269 C1268 1.388 . S
C1269 C1270 1.390 . S
C1270 C1269 1.390 . S
C1270 C1271 1.394 . S
C1270 C1276 1.465 1_455 S
C1271 C1266 1.399 . S
C1271 C1270 1.394 . S
C1271 C1272 1.517 1_455 S
C1272 C1271 1.517 1_655 S
C1272 C1273 1.514 . S
C1272 C1274 1.562 . S
C1272 C1275 1.524 . S
C1273 H1257 0.967 . S
C1273 H1258 0.970 . S
C1273 H1259 0.932 1_655 S
C1273 C1272 1.514 . S
C1274 H1260 0.957 1_655 S
C1274 H1261 0.962 . S
C1274 H1262 0.960 . S
C1274 C1272 1.562 . S
C1275 C1272 1.524 . S
C1275 C1276 1.396 . S
C1275 C1280 1.390 . S
C1276 C1270 1.465 1_655 S
C1276 C1275 1.396 . S
C1276 C1277 1.399 . S
C1277 H1263 0.929 . S
C1277 C1276 1.399 . S
C1277 C1278 1.385 . S
C1278 H1264 0.931 . S
C1278 C1277 1.385 . S
C1278 C1279 1.389 . S
C1279 C1278 1.389 . S
C1279 C1280 1.387 . S
C1280 H1265 0.930 . S
C1280 C1275 1.390 . S
C1280 C1279 1.387 . S
H1281 C1293 0.930 . S
H1282 C1295 0.930 . S
H1283 C1296 0.930 . S
H1284 C1300 0.952 . S
H1285 C1300 0.978 . S
H1286 C1300 0.938 1_565 S
H1287 C1301 0.958 1_565 S
H1288 C1301 0.963 . S
H1289 C1301 0.961 . S
H1290 C1304 0.929 . S
H1291 C1305 0.931 . S
H1292 C1307 0.930 . S
C1293 H1281 0.930 . S
C1293 C1294 1.399 . S
C1293 C1298 1.399 . S
C1294 C1293 1.399 . S
C1294 C1295 1.376 . S
C1295 H1282 0.930 . S
C1295 C1294 1.376 . S
C1295 C1296 1.388 . S
C1296 H1283 0.930 . S
C1296 C1295 1.388 . S
C1296 C1297 1.390 . S
C1297 C1296 1.390 . S
C1297 C1298 1.394 . S
C1297 C1303 1.465 1_565 S
C1298 C1293 1.399 . S
C1298 C1297 1.394 . S
C1298 C1299 1.517 1_565 S
C1299 C1298 1.517 1_545 S
C1299 C1300 1.515 . S
C1299 C1301 1.559 . S
C1299 C1302 1.525 . S
C1300 H1284 0.952 . S
C1300 H1285 0.978 . S
C1300 H1286 0.938 1_545 S
C1300 C1299 1.515 . S
C1301 H1287 0.958 1_545 S
C1301 H1288 0.963 . S
C1301 H1289 0.961 . S
C1301 C1299 1.559 . S
C1302 C1299 1.525 . S
C1302 C1303 1.396 . S
C1302 C1307 1.390 . S
C1303 C1297 1.465 1_545 S
C1303 C1302 1.396 . S
C1303 C1304 1.399 . S
C1304 H1290 0.929 . S
C1304 C1303 1.399 . S
C1304 C1305 1.385 . S
C1305 H1291 0.931 . S
C1305 C1304 1.385 . S
C1305 C1306 1.389 . S
C1306 C1305 1.389 . S
C1306 C1307 1.387 . S
C1307 H1292 0.930 . S
C1307 C1302 1.390 . S
C1307 C1306 1.387 . S
H1308 C1320 0.930 1_554 S
H1309 C1322 0.930 . S
H1310 C1323 0.930 . S
H1311 C1327 0.959 . S
H1312 C1327 0.959 . S
H1313 C1327 0.961 . S
H1314 C1328 0.960 . S
H1315 C1328 0.961 . S
H1316 C1328 0.959 . S
H1317 C1331 0.929 . S
H1318 C1332 0.931 1_556 S
H1319 C1334 0.930 . S
C1320 H1308 0.930 1_556 S
C1320 C1321 1.399 . S
C1320 C1325 1.399 1_556 S
C1321 C1320 1.399 . S
C1321 C1322 1.376 . S
C1322 H1309 0.930 . S
C1322 C1321 1.376 . S
C1322 C1323 1.388 . S
C1323 H1310 0.930 . S
C1323 C1322 1.388 . S
C1323 C1324 1.390 . S
C1324 C1323 1.390 . S
C1324 C1325 1.394 1_556 S
C1324 C1330 1.465 . S
C1325 C1320 1.399 1_554 S
C1325 C1324 1.394 1_554 S
C1325 C1326 1.516 . S
C1326 C1325 1.516 . S
C1326 C1327 1.502 . S
C1326 C1328 1.561 . S
C1326 C1329 1.526 . S
C1327 H1311 0.959 . S
C1327 H1312 0.959 . S
C1327 H1313 0.961 . S
C1327 C1326 1.502 . S
C1328 H1314 0.960 . S
C1328 H1315 0.961 . S
C1328 H1316 0.959 . S
C1328 C1326 1.561 . S
C1329 C1326 1.526 . S
C1329 C1330 1.396 1_554 S
C1329 C1334 1.390 . S
C1330 C1324 1.465 . S
C1330 C1329 1.396 1_556 S
C1330 C1331 1.399 . S
C1331 H1317 0.929 . S
C1331 C1330 1.399 . S
C1331 C1332 1.385 1_556 S
C1332 H1318 0.931 1_554 S
C1332 C1331 1.385 1_554 S
C1332 C1333 1.389 . S
C1333 C1332 1.389 . S
C1333 C1334 1.387 . S
C1334 H1319 0.930 . S
C1334 C1329 1.390 . S
C1334 C1333 1.387 . S
H1335 C1347 0.930 . S
H1336 C1349 0.930 . S
H1337 C1350 0.930 . S
H1338 C1354 0.959 . S
H1339 C1354 0.959 . S
H1340 C1354 0.961 . S
H1341 C1355 0.960 . S
H1342 C1355 0.961 . S
H1343 C1355 0.959 . S
H1344 C1358 0.929 . S
H1345 C1359 0.931 . S
H1346 C1361 0.930 . S
C1347 H1335 0.930 . S
C1347 C1348 1.399 . S
C1347 C1352 1.399 . S
C1348 C1347 1.399 . S
C1348 C1349 1.376 . S
C1349 H1336 0.930 . S
C1349 C1348 1.376 . S
C1349 C1350 1.388 . S
C1350 H1337 0.930 . S
C1350 C1349 1.388 . S
C1350 C1351 1.390 . S
C1351 C1350 1.390 . S
C1351 C1352 1.394 . S
C1351 C1357 1.465 . S
C1352 C1347 1.399 . S
C1352 C1351 1.394 . S
C1352 C1353 1.516 . S
C1353 C1352 1.516 . S
C1353 C1354 1.502 . S
C1353 C1355 1.561 . S
C1353 C1356 1.526 . S
C1354 H1338 0.959 . S
C1354 H1339 0.959 . S
C1354 H1340 0.961 . S
C1354 C1353 1.502 . S
C1355 H1341 0.960 . S
C1355 H1342 0.961 . S
C1355 H1343 0.959 . S
C1355 C1353 1.561 . S
C1356 C1353 1.526 . S
C1356 C1357 1.396 . S
C1356 C1361 1.390 . S
C1357 C1351 1.465 . S
C1357 C1356 1.396 . S
C1357 C1358 1.399 . S
C1358 H1344 0.929 . S
C1358 C1357 1.399 . S
C1358 C1359 1.385 . S
C1359 H1345 0.931 . S
C1359 C1358 1.385 . S
C1359 C1360 1.389 . S
C1360 C1359 1.389 . S
C1360 C1361 1.387 . S
C1361 H1346 0.930 . S
C1361 C1356 1.390 . S
C1361 C1360 1.387 . S
H1362 C1374 0.930 . S
H1363 C1376 0.930 . S
H1364 C1377 0.930 . S
H1365 C1381 0.929 1_556 S
H1366 C1381 0.959 . S
H1367 C1381 0.961 . S
H1368 C1382 0.960 . S
H1369 C1382 0.961 . S
H1370 C1382 0.959 . S
H1371 C1385 0.929 . S
H1372 C1386 0.931 . S
H1373 C1388 0.930 . S
C1374 H1362 0.930 . S
C1374 C1375 1.399 . S
C1374 C1379 1.412 . S
C1375 C1374 1.399 . S
C1375 C1376 1.376 . S
C1376 H1363 0.930 . S
C1376 C1375 1.376 . S
C1376 C1377 1.388 . S
C1377 H1364 0.930 . S
C1377 C1376 1.388 . S
C1377 C1378 1.390 . S
C1378 C1377 1.390 . S
C1378 C1379 1.408 . S
C1378 C1384 1.461 1_556 S
C1379 C1374 1.412 . S
C1379 C1378 1.408 . S
C1379 C1380 1.490 1_556 S
C1380 C1379 1.490 1_554 S
C1380 C1381 1.502 . S
C1380 C1382 1.561 . S
C1380 C1383 1.526 . S
C1381 H1365 0.929 1_554 S
C1381 H1366 0.959 . S
C1381 H1367 0.961 . S
C1381 C1380 1.502 . S
C1382 H1368 0.960 . S
C1382 H1369 0.961 . S
C1382 H1370 0.959 . S
C1382 C1380 1.561 . S
C1383 C1380 1.526 . S
C1383 C1384 1.404 . S
C1383 C1388 1.390 . S
C1384 C1378 1.461 1_554 S
C1384 C1383 1.404 . S
C1384 C1385 1.397 1_554 S
C1385 H1371 0.929 . S
C1385 C1384 1.397 1_556 S
C1385 C1386 1.385 1_556 S
C1386 H1372 0.931 . S
C1386 C1385 1.385 1_554 S
C1386 C1387 1.389 . S
C1387 C1386 1.389 . S
C1387 C1388 1.387 . S
C1388 H1373 0.930 . S
C1388 C1383 1.390 . S
C1388 C1387 1.387 . S
H1389 C1401 0.930 . S
H1390 C1403 0.930 . S
H1391 C1404 0.930 . S
H1392 C1408 0.959 . S
H1393 C1408 0.959 . S
H1394 C1408 0.961 . S
H1395 C1409 0.960 . S
H1396 C1409 0.961 . S
H1397 C1409 0.959 . S
H1398 C1412 0.929 . S
H1399 C1413 0.931 . S
H1400 C1415 0.930 . S
C1401 H1389 0.930 . S
C1401 C1402 1.399 . S
C1401 C1406 1.399 . S
C1402 C1401 1.399 . S
C1402 C1403 1.376 . S
C1403 H1390 0.930 . S
C1403 C1402 1.376 . S
C1403 C1404 1.388 . S
C1404 H1391 0.930 . S
C1404 C1403 1.388 . S
C1404 C1405 1.390 . S
C1405 C1404 1.390 . S
C1405 C1406 1.394 . S
C1405 C1411 1.465 . S
C1406 C1401 1.399 . S
C1406 C1405 1.394 . S
C1406 C1407 1.516 . S
C1407 C1406 1.516 . S
C1407 C1408 1.502 . S
C1407 C1409 1.561 . S
C1407 C1410 1.526 . S
C1408 H1392 0.959 . S
C1408 H1393 0.959 . S
C1408 H1394 0.961 . S
C1408 C1407 1.502 . S
C1409 H1395 0.960 . S
C1409 H1396 0.961 . S
C1409 H1397 0.959 . S
C1409 C1407 1.561 . S
C1410 C1407 1.526 . S
C1410 C1411 1.396 . S
C1410 C1415 1.390 . S
C1411 C1405 1.465 . S
C1411 C1410 1.396 . S
C1411 C1412 1.399 . S
C1412 H1398 0.929 . S
C1412 C1411 1.399 . S
C1412 C1413 1.385 . S
C1413 H1399 0.931 . S
C1413 C1412 1.385 . S
C1413 C1414 1.389 . S
C1414 C1413 1.389 . S
C1414 C1415 1.387 . S
C1415 H1400 0.930 . S
C1415 C1410 1.390 . S
C1415 C1414 1.387 . S
H1416 C1428 0.930 1_554 S
H1417 C1430 0.930 . S
H1418 C1431 0.930 . S
H1419 C1435 0.959 . S
H1420 C1435 0.959 . S
H1421 C1435 0.961 . S
H1422 C1436 0.960 . S
H1423 C1436 0.961 . S
H1424 C1436 0.959 . S
H1425 C1439 0.929 . S
H1426 C1440 0.931 1_556 S
H1427 C1442 0.930 . S
C1428 H1416 0.930 1_556 S
C1428 C1429 1.399 . S
C1428 C1433 1.399 1_556 S
C1429 C1428 1.399 . S
C1429 C1430 1.376 . S
C1430 H1417 0.930 . S
C1430 C1429 1.376 . S
C1430 C1431 1.388 . S
C1431 H1418 0.930 . S
C1431 C1430 1.388 . S
C1431 C1432 1.390 . S
C1432 C1431 1.390 . S
C1432 C1433 1.394 1_556 S
C1432 C1438 1.465 . S
C1433 C1428 1.399 1_554 S
C1433 C1432 1.394 1_554 S
C1433 C1434 1.516 . S
C1434 C1433 1.516 . S
C1434 C1435 1.502 . S
C1434 C1436 1.561 . S
C1434 C1437 1.526 . S
C1435 H1419 0.959 . S
C1435 H1420 0.959 . S
C1435 H1421 0.961 . S
C1435 C1434 1.502 . S
C1436 H1422 0.960 . S
C1436 H1423 0.961 . S
C1436 H1424 0.959 . S
C1436 C1434 1.561 . S
C1437 C1434 1.526 . S
C1437 C1438 1.396 1_554 S
C1437 C1442 1.390 . S
C1438 C1432 1.465 . S
C1438 C1437 1.396 1_556 S
C1438 C1439 1.399 . S
C1439 H1425 0.929 . S
C1439 C1438 1.399 . S
C1439 C1440 1.385 1_556 S
C1440 H1426 0.931 1_554 S
C1440 C1439 1.385 1_554 S
C1440 C1441 1.389 . S
C1441 C1440 1.389 . S
C1441 C1442 1.387 . S
C1442 H1427 0.930 . S
C1442 C1437 1.390 . S
C1442 C1441 1.387 . S
H1443 C1455 0.930 . S
H1444 C1457 0.930 . S
H1445 C1458 0.930 . S
H1446 C1462 0.959 . S
H1447 C1462 0.959 . S
H1448 C1462 0.961 . S
H1449 C1463 0.960 . S
H1450 C1463 0.961 . S
H1451 C1463 0.959 . S
H1452 C1466 0.929 . S
H1453 C1467 0.931 . S
H1454 C1469 0.930 . S
C1455 H1443 0.930 . S
C1455 C1456 1.399 . S
C1455 C1460 1.399 . S
C1456 C1455 1.399 . S
C1456 C1457 1.376 . S
C1457 H1444 0.930 . S
C1457 C1456 1.376 . S
C1457 C1458 1.388 . S
C1458 H1445 0.930 . S
C1458 C1457 1.388 . S
C1458 C1459 1.390 . S
C1459 C1458 1.390 . S
C1459 C1460 1.394 . S
C1459 C1465 1.465 . S
C1460 C1455 1.399 . S
C1460 C1459 1.394 . S
C1460 C1461 1.516 . S
C1461 C1460 1.516 . S
C1461 C1462 1.502 . S
C1461 C1463 1.561 . S
C1461 C1464 1.526 . S
C1462 H1446 0.959 . S
C1462 H1447 0.959 . S
C1462 H1448 0.961 . S
C1462 C1461 1.502 . S
C1463 H1449 0.960 . S
C1463 H1450 0.961 . S
C1463 H1451 0.959 . S
C1463 C1461 1.561 . S
C1464 C1461 1.526 . S
C1464 C1465 1.396 . S
C1464 C1469 1.390 . S
C1465 C1459 1.465 . S
C1465 C1464 1.396 . S
C1465 C1466 1.399 . S
C1466 H1452 0.929 . S
C1466 C1465 1.399 . S
C1466 C1467 1.385 . S
C1467 H1453 0.931 . S
C1467 C1466 1.385 . S
C1467 C1468 1.389 . S
C1468 C1467 1.389 . S
C1468 C1469 1.387 . S
C1469 H1454 0.930 . S
C1469 C1464 1.390 . S
C1469 C1468 1.387 . S
H1470 C1482 0.930 . S
H1471 C1484 0.930 . S
H1472 C1485 0.930 . S
H1473 C1489 0.959 . S
H1474 C1489 0.959 . S
H1475 C1489 0.961 . S
H1476 C1490 0.960 . S
H1477 C1490 0.961 . S
H1478 C1490 0.959 . S
H1479 C1493 0.929 . S
H1480 C1494 0.931 . S
H1481 C1496 0.939 . S
C1482 H1470 0.930 . S
C1482 C1483 1.399 . S
C1482 C1487 1.399 . S
C1483 C1482 1.399 . S
C1483 C1484 1.376 . S
C1484 H1471 0.930 . S
C1484 C1483 1.376 . S
C1484 C1485 1.388 1_554 S
C1485 H1472 0.930 . S
C1485 C1484 1.388 1_556 S
C1485 C1486 1.392 . S
C1486 C1485 1.392 . S
C1486 C1487 1.385 1_556 S
C1486 C1492 1.470 . S
C1487 C1482 1.399 . S
C1487 C1486 1.385 1_554 S
C1487 C1488 1.516 . S
C1488 C1487 1.516 . S
C1488 C1489 1.502 . S
C1488 C1490 1.561 . S
C1488 C1491 1.516 1_554 S
C1489 H1473 0.959 . S
C1489 H1474 0.959 . S
C1489 H1475 0.961 . S
C1489 C1488 1.502 . S
C1490 H1476 0.960 . S
C1490 H1477 0.961 . S
C1490 H1478 0.959 . S
C1490 C1488 1.561 . S
C1491 C1488 1.516 1_556 S
C1491 C1492 1.402 . S
C1491 C1496 1.393 . S
C1492 C1486 1.470 . S
C1492 C1491 1.402 . S
C1492 C1493 1.399 . S
C1493 H1479 0.929 . S
C1493 C1492 1.399 . S
C1493 C1494 1.385 . S
C1494 H1480 0.931 . S
C1494 C1493 1.385 . S
C1494 C1495 1.389 . S
C1495 C1494 1.389 . S
C1495 C1496 1.387 . S
C1496 H1481 0.939 . S
C1496 C1491 1.393 . S
C1496 C1495 1.387 . S
H1497 C1509 0.930 . S
H1498 C1511 0.930 . S
H1499 C1512 0.930 . S
H1500 C1516 0.959 . S
H1501 C1516 0.959 . S
H1502 C1516 0.961 . S
H1503 C1517 0.960 . S
H1504 C1517 0.961 . S
H1505 C1517 0.959 . S
H1506 C1520 0.929 . S
H1507 C1521 0.931 . S
H1508 C1523 0.930 . S
C1509 H1497 0.930 . S
C1509 C1510 1.399 . S
C1509 C1514 1.399 . S
C1510 C1509 1.399 . S
C1510 C1511 1.376 . S
C1511 H1498 0.930 . S
C1511 C1510 1.376 . S
C1511 C1512 1.388 . S
C1512 H1499 0.930 . S
C1512 C1511 1.388 . S
C1512 C1513 1.390 . S
C1513 C1512 1.390 . S
C1513 C1514 1.394 . S
C1513 C1519 1.465 . S
C1514 C1509 1.399 . S
C1514 C1513 1.394 . S
C1514 C1515 1.516 . S
C1515 C1514 1.516 . S
C1515 C1516 1.502 . S
C1515 C1517 1.561 . S
C1515 C1518 1.526 . S
C1516 H1500 0.959 . S
C1516 H1501 0.959 . S
C1516 H1502 0.961 . S
C1516 C1515 1.502 . S
C1517 H1503 0.960 . S
C1517 H1504 0.961 . S
C1517 H1505 0.959 . S
C1517 C1515 1.561 . S
C1518 C1515 1.526 . S
C1518 C1519 1.396 . S
C1518 C1523 1.390 . S
C1519 C1513 1.465 . S
C1519 C1518 1.396 . S
C1519 C1520 1.399 . S
C1520 H1506 0.929 . S
C1520 C1519 1.399 . S
C1520 C1521 1.385 . S
C1521 H1507 0.931 . S
C1521 C1520 1.385 . S
C1521 C1522 1.389 . S
C1522 C1521 1.389 . S
C1522 C1523 1.387 . S
C1523 H1508 0.930 . S
C1523 C1518 1.390 . S
C1523 C1522 1.387 . S
H1524 C1536 0.930 . S
H1525 C1538 0.930 . S
H1526 C1539 0.930 1_556 S
H1527 C1543 0.959 . S
H1528 C1543 0.959 . S
H1529 C1543 0.961 . S
H1530 C1544 0.960 . S
H1531 C1544 0.961 . S
H1532 C1544 0.959 . S
H1533 C1547 0.929 . S
H1534 C1548 0.931 . S
H1535 C1550 0.930 . S
C1536 H1524 0.930 . S
C1536 C1537 1.399 . S
C1536 C1541 1.399 . S
C1537 C1536 1.399 . S
C1537 C1538 1.376 . S
C1538 H1525 0.930 . S
C1538 C1537 1.376 . S
C1538 C1539 1.388 . S
C1539 H1526 0.930 1_554 S
C1539 C1538 1.388 . S
C1539 C1540 1.392 . S
C1540 C1539 1.392 . S
C1540 C1541 1.402 . S
C1540 C1546 1.456 1_554 S
C1541 C1536 1.399 . S
C1541 C1540 1.402 . S
C1541 C1542 1.516 . S
C1542 C1541 1.516 . S
C1542 C1543 1.502 . S
C1542 C1544 1.561 1_554 S
C1542 C1545 1.526 1_554 S
C1543 H1527 0.959 . S
C1543 H1528 0.959 . S
C1543 H1529 0.961 . S
C1543 C1542 1.502 . S
C1544 H1530 0.960 . S
C1544 H1531 0.961 . S
C1544 H1532 0.959 . S
C1544 C1542 1.561 1_556 S
C1545 C1542 1.526 1_556 S
C1545 C1546 1.396 . S
C1545 C1550 1.390 . S
C1546 C1540 1.456 1_556 S
C1546 C1545 1.396 . S
C1546 C1547 1.399 . S
C1547 H1533 0.929 . S
C1547 C1546 1.399 . S
C1547 C1548 1.385 . S
C1548 H1534 0.931 . S
C1548 C1547 1.385 . S
C1548 C1549 1.389 . S
C1549 C1548 1.389 . S
C1549 C1550 1.387 . S
C1550 H1535 0.930 . S
C1550 C1545 1.390 . S
C1550 C1549 1.387 . S
H1551 C1563 0.930 . S
H1552 C1565 0.930 . S
H1553 C1566 0.930 . S
H1554 C1570 0.959 . S
H1555 C1570 0.959 . S
H1556 C1570 0.961 . S
H1557 C1571 0.960 . S
H1558 C1571 0.961 . S
H1559 C1571 0.959 . S
H1560 C1574 0.929 . S
H1561 C1575 0.931 . S
H1562 C1577 0.930 . S
C1563 H1551 0.930 . S
C1563 C1564 1.399 . S
C1563 C1568 1.399 . S
C1564 C1563 1.399 . S
C1564 C1565 1.376 . S
C1565 H1552 0.930 . S
C1565 C1564 1.376 . S
C1565 C1566 1.388 . S
C1566 H1553 0.930 . S
C1566 C1565 1.388 . S
C1566 C1567 1.390 . S
C1567 C1566 1.390 . S
C1567 C1568 1.394 . S
C1567 C1573 1.465 . S
C1568 C1563 1.399 . S
C1568 C1567 1.394 . S
C1568 C1569 1.516 . S
C1569 C1568 1.516 . S
C1569 C1570 1.502 . S
C1569 C1571 1.561 . S
C1569 C1572 1.526 . S
C1570 H1554 0.959 . S
C1570 H1555 0.959 . S
C1570 H1556 0.961 . S
C1570 C1569 1.502 . S
C1571 H1557 0.960 . S
C1571 H1558 0.961 . S
C1571 H1559 0.959 . S
C1571 C1569 1.561 . S
C1572 C1569 1.526 . S
C1572 C1573 1.396 . S
C1572 C1577 1.390 . S
C1573 C1567 1.465 . S
C1573 C1572 1.396 . S
C1573 C1574 1.399 . S
C1574 H1560 0.929 . S
C1574 C1573 1.399 . S
C1574 C1575 1.385 . S
C1575 H1561 0.931 . S
C1575 C1574 1.385 . S
C1575 C1576 1.389 . S
C1576 C1575 1.389 . S
C1576 C1577 1.387 . S
C1577 H1562 0.930 . S
C1577 C1572 1.390 . S
C1577 C1576 1.387 . S
H1578 C1590 0.930 1_554 S
H1579 C1592 0.930 . S
H1580 C1593 0.930 . S
H1581 C1597 0.959 . S
H1582 C1597 0.959 . S
H1583 C1597 0.961 . S
H1584 C1598 0.960 . S
H1585 C1598 0.961 . S
H1586 C1598 0.959 . S
H1587 C1601 0.929 . S
H1588 C1602 0.931 . S
H1589 C1604 0.930 . S
C1590 H1578 0.930 1_556 S
C1590 C1591 1.399 . S
C1590 C1595 1.399 1_556 S
C1591 C1590 1.399 . S
C1591 C1592 1.376 . S
C1592 H1579 0.930 . S
C1592 C1591 1.376 . S
C1592 C1593 1.388 . S
C1593 H1580 0.930 . S
C1593 C1592 1.388 . S
C1593 C1594 1.390 . S
C1594 C1593 1.390 . S
C1594 C1595 1.394 1_556 S
C1594 C1600 1.465 . S
C1595 C1590 1.399 1_554 S
C1595 C1594 1.394 1_554 S
C1595 C1596 1.516 . S
C1596 C1595 1.516 . S
C1596 C1597 1.502 . S
C1596 C1598 1.561 . S
C1596 C1599 1.526 . S
C1597 H1581 0.959 . S
C1597 H1582 0.959 . S
C1597 H1583 0.961 . S
C1597 C1596 1.502 . S
C1598 H1584 0.960 . S
C1598 H1585 0.961 . S
C1598 H1586 0.959 . S
C1598 C1596 1.561 . S
C1599 C1596 1.526 . S
C1599 C1600 1.396 1_554 S
C1599 C1604 1.390 . S
C1600 C1594 1.465 . S
C1600 C1599 1.396 1_556 S
C1600 C1601 1.399 . S
C1601 H1587 0.929 . S
C1601 C1600 1.399 . S
C1601 C1602 1.385 . S
C1602 H1588 0.931 . S
C1602 C1601 1.385 . S
C1602 C1603 1.389 1_556 S
C1603 C1602 1.389 1_554 S
C1603 C1604 1.387 . S
C1604 H1589 0.930 . S
C1604 C1599 1.390 . S
C1604 C1603 1.387 . S
H1605 C1617 0.930 . S
H1606 C1619 0.930 . S
H1607 C1620 0.930 . S
H1608 C1624 0.959 . S
H1609 C1624 0.959 . S
H1610 C1624 0.961 . S
H1611 C1625 0.960 . S
H1612 C1625 0.961 . S
H1613 C1625 0.959 . S
H1614 C1628 0.929 . S
H1615 C1629 0.931 . S
H1616 C1631 0.930 . S
C1617 H1605 0.930 . S
C1617 C1618 1.399 . S
C1617 C1622 1.399 . S
C1618 C1617 1.399 . S
C1618 C1619 1.376 . S
C1619 H1606 0.930 . S
C1619 C1618 1.376 . S
C1619 C1620 1.388 . S
C1620 H1607 0.930 . S
C1620 C1619 1.388 . S
C1620 C1621 1.390 . S
C1621 C1620 1.390 . S
C1621 C1622 1.394 . S
C1621 C1627 1.465 . S
C1622 C1617 1.399 . S
C1622 C1621 1.394 . S
C1622 C1623 1.516 . S
C1623 C1622 1.516 . S
C1623 C1624 1.502 . S
C1623 C1625 1.561 . S
C1623 C1626 1.526 . S
C1624 H1608 0.959 . S
C1624 H1609 0.959 . S
C1624 H1610 0.961 . S
C1624 C1623 1.502 . S
C1625 H1611 0.960 . S
C1625 H1612 0.961 . S
C1625 H1613 0.959 . S
C1625 C1623 1.561 . S
C1626 C1623 1.526 . S
C1626 C1627 1.396 . S
C1626 C1631 1.390 . S
C1627 C1621 1.465 . S
C1627 C1626 1.396 . S
C1627 C1628 1.399 . S
C1628 H1614 0.929 . S
C1628 C1627 1.399 . S
C1628 C1629 1.385 . S
C1629 H1615 0.931 . S
C1629 C1628 1.385 . S
C1629 C1630 1.389 . S
C1630 C1629 1.389 . S
C1630 C1631 1.387 . S
C1631 H1616 0.930 . S
C1631 C1626 1.390 . S
C1631 C1630 1.387 . S
C349 C3 1.484 . S
C361 C213 1.486 . S
C376 C17 1.497 . S
C388 C227 1.497 . S
C403 C241 1.483 . S
C415 C31 1.486 . S
C430 C171 1.494 . S
C442 C45 1.496 . S
C457 C185 1.488 . S
C469 C59 1.491 . S
C484 C199 1.495 . S
C496 C73 1.497 . S
C511 C297 1.490 . S
C523 C87 1.488 . S
C538 C101 1.484 . S
C550 C311 1.487 . S
C565 C325 1.497 . S
C577 C115 1.497 . S
C592 C129 1.497 . S
C604 C255 1.497 . S
C619 C269 1.481 . S
C631 C143 1.483 . S
C646 C157 1.494 . S
C658 C283 1.496 . S
C673 C148 1.378 . S
C685 C8 1.371 . S
C700 C162 1.365 . S
C712 C22 1.381 . S
C727 C36 1.367 . S
C739 C92 1.380 . S
C754 C50 1.365 . S
C766 C106 1.375 . S
C781 C120 1.367 . S
C793 C64 1.380 . S
C808 C78 1.374 . S
C820 C134 1.376 . S
C835 C316 1.367 . S
C847 C176 1.377 . S
C862 C190 1.380 . S
C874 C330 1.365 . S
C889 C204 1.376 . S
C901 C260 1.369 . S
C916 C274 1.377 . S
C928 C218 1.367 . S
C943 C232 1.364 . S
C955 C288 1.381 . S
C970 C246 1.364 . S
C982 C302 1.381 . S
C997 C9 1.426 . S
C1009 C261 1.424 . S
C1024 C275 1.373 . S
C1036 C23 1.381 . S
C1051 C37 1.364 . S
C1063 C289 1.366 . S
C1078 C51 1.423 . S
C1090 C303 1.417 . S
C1105 C317 1.383 . S
C1117 C65 1.392 . S
C1132 C79 1.364 . S
C1144 C331 1.366 . S
C1159 C93 1.365 . S
C1171 C177 1.366 . S
C1186 C107 1.426 . S
C1198 C191 1.422 . S
C1213 C205 1.398 . S
C1225 C121 1.389 . S
C1240 C219 1.373 . S
C1252 C135 1.381 . S
C1267 C149 1.375 . S
C1279 C233 1.370 . S
C1294 C247 1.392 . S
C1306 C163 1.402 . S
C1321 C91 1.448 . S
C1333 C7 1.482 . S
C1348 C21 1.442 . S
C1360 C105 1.404 . S
C1375 C119 1.460 . S
C1387 C35 1.478 . S
C1402 C133 1.442 . S
C1414 C49 1.404 . S
C1429 C147 1.444 . S
C1441 C63 1.482 . S
C1456 C77 1.479 . S
C1468 C161 1.459 . S
C1483 C259 1.475 . S
C1495 C175 1.444 . S
C1510 C189 1.478 . S
C1522 C273 1.409 . S
C1537 C287 1.444 . S
C1549 C203 1.411 . S
C1564 C301 1.463 . S
C1576 C217 1.459 . S
C1591 C231 1.403 . S
C1603 C315 1.464 . S
C1618 C245 1.440 . S
C1630 C329 1.477 . S
