# Generated by pormake.
# Topology ecs, (8)-cn, num edge types: 1
# Building blocks:
#     Node 0, Type 0, BuildingBlock: TAGTUT_clean_sbu_3, # of connection points: 8
#     Node 1, Type 0, BuildingBlock: TAGTUT_clean_sbu_3, # of connection points: 8
#     Node 2, Type 0, BuildingBlock: TAGTUT_clean_sbu_3, # of connection points: 8
#     Node 3, Type 0, BuildingBlock: TAGTUT_clean_sbu_3, # of connection points: 8
#     Node 4, Type 0, BuildingBlock: TAGTUT_clean_sbu_3, # of connection points: 8
#     Node 5, Type 0, BuildingBlock: TAGTUT_clean_sbu_3, # of connection points: 8
#     Node 6, Type 0, BuildingBlock: TAGTUT_clean_sbu_3, # of connection points: 8
#     Node 7, Type 0, BuildingBlock: TAGTUT_clean_sbu_3, # of connection points: 8
#     Node 8, Type 0, BuildingBlock: TAGTUT_clean_sbu_3, # of connection points: 8
#     Node 9, Type 0, BuildingBlock: TAGTUT_clean_sbu_3, # of connection points: 8
#     Node 10, Type 0, BuildingBlock: TAGTUT_clean_sbu_3, # of connection points: 8
#     Node 11, Type 0, BuildingBlock: TAGTUT_clean_sbu_3, # of connection points: 8
#     Edge 12, Type (0, 0), BuildingBlock: ZUJKAS_clean_linker_0, # of connection points: 2
#     Edge 13, Type (0, 0), BuildingBlock: ZUJKAS_clean_linker_0, # of connection points: 2
#     Edge 14, Type (0, 0), BuildingBlock: ZUJKAS_clean_linker_0, # of connection points: 2
#     Edge 15, Type (0, 0), BuildingBlock: ZUJKAS_clean_linker_0, # of connection points: 2
#     Edge 16, Type (0, 0), BuildingBlock: ZUJKAS_clean_linker_0, # of connection points: 2
#     Edge 17, Type (0, 0), BuildingBlock: ZUJKAS_clean_linker_0, # of connection points: 2
#     Edge 18, Type (0, 0), BuildingBlock: ZUJKAS_clean_linker_0, # of connection points: 2
#     Edge 19, Type (0, 0), BuildingBlock: ZUJKAS_clean_linker_0, # of connection points: 2
#     Edge 20, Type (0, 0), BuildingBlock: ZUJKAS_clean_linker_0, # of connection points: 2
#     Edge 21, Type (0, 0), BuildingBlock: ZUJKAS_clean_linker_0, # of connection points: 2
#     Edge 22, Type (0, 0), BuildingBlock: ZUJKAS_clean_linker_0, # of connection points: 2
#     Edge 23, Type (0, 0), BuildingBlock: ZUJKAS_clean_linker_0, # of connection points: 2
#     Edge 24, Type (0, 0), BuildingBlock: ZUJKAS_clean_linker_0, # of connection points: 2
#     Edge 25, Type (0, 0), BuildingBlock: ZUJKAS_clean_linker_0, # of connection points: 2
#     Edge 26, Type (0, 0), BuildingBlock: ZUJKAS_clean_linker_0, # of connection points: 2
#     Edge 27, Type (0, 0), BuildingBlock: ZUJKAS_clean_linker_0, # of connection points: 2
#     Edge 28, Type (0, 0), BuildingBlock: ZUJKAS_clean_linker_0, # of connection points: 2
#     Edge 29, Type (0, 0), BuildingBlock: ZUJKAS_clean_linker_0, # of connection points: 2
#     Edge 30, Type (0, 0), BuildingBlock: ZUJKAS_clean_linker_0, # of connection points: 2
#     Edge 31, Type (0, 0), BuildingBlock: ZUJKAS_clean_linker_0, # of connection points: 2
#     Edge 32, Type (0, 0), BuildingBlock: ZUJKAS_clean_linker_0, # of connection points: 2
#     Edge 33, Type (0, 0), BuildingBlock: ZUJKAS_clean_linker_0, # of connection points: 2
#     Edge 34, Type (0, 0), BuildingBlock: ZUJKAS_clean_linker_0, # of connection points: 2
#     Edge 35, Type (0, 0), BuildingBlock: ZUJKAS_clean_linker_0, # of connection points: 2
#     Edge 36, Type (0, 0), BuildingBlock: ZUJKAS_clean_linker_0, # of connection points: 2
#     Edge 37, Type (0, 0), BuildingBlock: ZUJKAS_clean_linker_0, # of connection points: 2
#     Edge 38, Type (0, 0), BuildingBlock: ZUJKAS_clean_linker_0, # of connection points: 2
#     Edge 39, Type (0, 0), BuildingBlock: ZUJKAS_clean_linker_0, # of connection points: 2
#     Edge 40, Type (0, 0), BuildingBlock: ZUJKAS_clean_linker_0, # of connection points: 2
#     Edge 41, Type (0, 0), BuildingBlock: ZUJKAS_clean_linker_0, # of connection points: 2
#     Edge 42, Type (0, 0), BuildingBlock: ZUJKAS_clean_linker_0, # of connection points: 2
#     Edge 43, Type (0, 0), BuildingBlock: ZUJKAS_clean_linker_0, # of connection points: 2
#     Edge 44, Type (0, 0), BuildingBlock: ZUJKAS_clean_linker_0, # of connection points: 2
#     Edge 45, Type (0, 0), BuildingBlock: ZUJKAS_clean_linker_0, # of connection points: 2
#     Edge 46, Type (0, 0), BuildingBlock: ZUJKAS_clean_linker_0, # of connection points: 2
#     Edge 47, Type (0, 0), BuildingBlock: ZUJKAS_clean_linker_0, # of connection points: 2
#     Edge 48, Type (0, 0), BuildingBlock: ZUJKAS_clean_linker_0, # of connection points: 2
#     Edge 49, Type (0, 0), BuildingBlock: ZUJKAS_clean_linker_0, # of connection points: 2
#     Edge 50, Type (0, 0), BuildingBlock: ZUJKAS_clean_linker_0, # of connection points: 2
#     Edge 51, Type (0, 0), BuildingBlock: ZUJKAS_clean_linker_0, # of connection points: 2
#     Edge 52, Type (0, 0), BuildingBlock: ZUJKAS_clean_linker_0, # of connection points: 2
#     Edge 53, Type (0, 0), BuildingBlock: ZUJKAS_clean_linker_0, # of connection points: 2
#     Edge 54, Type (0, 0), BuildingBlock: ZUJKAS_clean_linker_0, # of connection points: 2
#     Edge 55, Type (0, 0), BuildingBlock: ZUJKAS_clean_linker_0, # of connection points: 2
#     Edge 56, Type (0, 0), BuildingBlock: ZUJKAS_clean_linker_0, # of connection points: 2
#     Edge 57, Type (0, 0), BuildingBlock: ZUJKAS_clean_linker_0, # of connection points: 2
#     Edge 58, Type (0, 0), BuildingBlock: ZUJKAS_clean_linker_0, # of connection points: 2
#     Edge 59, Type (0, 0), BuildingBlock: ZUJKAS_clean_linker_0, # of connection points: 2
# Relax obj value: 0.345
# Max RMSD: 0.276
# Mean RMSD: 0.276
data_MOF--net-ecs--node1-TAGTUT_clean_sbu_3--edge1-ZUJKAS_clean_linker_0
_symmetry_space_group_name_H-M    P1
_symmetry_Int_Tables_number       1
_symmetry_cell_setting            triclinic
loop_
_symmetry_equiv_pos_as_xyz
'x, y, z'
_cell_length_a     64.821019
_cell_length_b     64.810208
_cell_length_c     34.263667
_cell_angle_alpha  90.001704
_cell_angle_beta   89.967264
_cell_angle_gamma 120.01167
loop_
_atom_site_label
_atom_site_type_symbol
_atom_site_fract_x
_atom_site_fract_y
_atom_site_fract_z
_atom_type_partial_charge
C0 C 0.44558 0.29918 0.07909 0.0
C1 C 0.47155 0.38139 0.0058 0.0
C2 C 0.47135 0.40534 0.12076 0.0
Mg3 Mg 0.45633 0.29115 0.16813 0.0
Mg4 Mg 0.50212 0.33192 0.21776 0.0
O5 O 0.47483 0.32458 0.18901 0.0
Mg6 Mg 0.47824 0.34186 0.13901 0.0
O7 O 0.47868 0.35655 0.08754 0.0
Mg8 Mg 0.44447 0.34877 0.08575 0.0
Mg9 Mg 0.50143 0.3884 0.08138 0.0
C10 C 0.50919 0.38348 0.20569 0.0
O11 O 0.5167 0.3504 0.1264 0.0
O12 O 0.45356 0.27859 0.23287 0.0
O13 O 0.53223 0.38456 0.09165 0.0
O14 O 0.49047 0.28838 0.15898 0.0
O15 O 0.48484 0.30767 0.26504 0.0
O16 O 0.52205 0.32019 0.18444 0.0
O17 O 0.44065 0.33428 0.14891 0.0
O18 O 0.42452 0.29761 0.17456 0.0
C19 C 0.4228 0.31569 0.16363 0.0
C20 C 0.46571 0.28733 0.26432 0.0
O21 O 0.49585 0.37714 0.17512 0.0
O22 O 0.45264 0.36463 0.02209 0.0
O23 O 0.51444 0.36944 0.22399 0.0
O24 O 0.45344 0.38619 0.10794 0.0
O25 O 0.49158 0.3926 0.02357 0.0
O26 O 0.49223 0.40809 0.12015 0.0
O27 O 0.46108 0.30685 0.10656 0.0
O28 O 0.43739 0.31209 0.06535 0.0
C29 C 0.51298 0.30097 0.16469 0.0
C30 C 0.53406 0.36788 0.10852 0.0
C31 C 0.69585 0.1457 0.07226 0.0
C32 C 0.61106 0.08874 0.00354 0.0
C33 C 0.58899 0.06896 0.11918 0.0
Mg34 Mg 0.70496 0.16662 0.16075 0.0
Mg35 Mg 0.66565 0.1772 0.20347 0.0
O36 O 0.67149 0.15429 0.18092 0.0
Mg37 Mg 0.65403 0.13934 0.13152 0.0
O38 O 0.63868 0.12385 0.08095 0.0
Mg39 Mg 0.64501 0.09633 0.08221 0.0
Mg40 Mg 0.60669 0.11489 0.07725 0.0
C41 C 0.61266 0.13492 0.19218 0.0
O42 O 0.64618 0.16955 0.11646 0.0
O43 O 0.71669 0.17771 0.22528 0.0
O44 O 0.61058 0.14963 0.08602 0.0
O45 O 0.71167 0.2047 0.14698 0.0
O46 O 0.68948 0.18548 0.25224 0.0
O47 O 0.67986 0.20699 0.16528 0.0
O48 O 0.65984 0.10856 0.14464 0.0
O49 O 0.69612 0.1278 0.17144 0.0
C50 C 0.67754 0.10834 0.1609 0.0
C51 C 0.70853 0.18413 0.25424 0.0
O52 O 0.61911 0.12451 0.16705 0.0
O53 O 0.62814 0.0869 0.01931 0.0
O54 O 0.62707 0.15536 0.20707 0.0
O55 O 0.60757 0.06935 0.10564 0.0
O56 O 0.60067 0.09855 0.02099 0.0
O57 O 0.58729 0.08768 0.11901 0.0
O58 O 0.6891 0.15484 0.09909 0.0
O59 O 0.68202 0.12439 0.06002 0.0
C60 C 0.69981 0.21562 0.14792 0.0
C61 C 0.62779 0.16872 0.10062 0.0
C62 C 0.88481 0.56882 0.1646 0.0
C63 C 0.81038 0.51994 0.25788 0.0
C64 C 0.77937 0.47981 0.15108 0.0
Mg65 Mg 0.89898 0.55136 0.08509 0.0
Mg66 Mg 0.88224 0.49501 0.07428 0.0
O67 O 0.87239 0.51719 0.08136 0.0
Mg68 Mg 0.85623 0.51493 0.1323 0.0
O69 O 0.84062 0.51535 0.18224 0.0
Mg70 Mg 0.82679 0.53546 0.16423 0.0
Mg71 Mg 0.81912 0.48599 0.20491 0.0
C72 C 0.82846 0.46057 0.09579 0.0
O73 O 0.87267 0.4957 0.16643 0.0
O74 O 0.90937 0.54642 0.02132 0.0
O75 O 0.8431 0.47171 0.20766 0.0
O76 O 0.92675 0.54145 0.10655 0.0
O77 O 0.89876 0.50751 0.01852 0.0
O78 O 0.90945 0.5024 0.11578 0.0
O79 O 0.83925 0.53381 0.10164 0.0
O80 O 0.87017 0.55958 0.06515 0.0
C81 C 0.84857 0.55093 0.07679 0.0
C82 C 0.90813 0.52835 0.00342 0.0
O83 O 0.82721 0.47707 0.11459 0.0
O84 O 0.81576 0.53455 0.22918 0.0
O85 O 0.84773 0.46343 0.08027 0.0
O86 O 0.78951 0.5026 0.15025 0.0
O87 O 0.81019 0.50012 0.25508 0.0
O88 O 0.78898 0.46912 0.16759 0.0
O89 O 0.88574 0.55171 0.14755 0.0
O90 O 0.86488 0.56664 0.17571 0.0
C91 C 0.92776 0.52312 0.11761 0.0
C92 C 0.86365 0.47897 0.19211 0.0
C93 C 0.29474 0.44278 0.42843 0.0
C94 C 0.37325 0.47364 0.50957 0.0
C95 C 0.40442 0.47635 0.39862 0.0
Mg96 Mg 0.28751 0.45278 0.33877 0.0
Mg97 Mg 0.32721 0.50038 0.29208 0.0
O98 O 0.32133 0.47316 0.31951 0.0
Mg99 Mg 0.33795 0.47768 0.37049 0.0
O100 O 0.35177 0.47902 0.42295 0.0
Mg101 Mg 0.34637 0.44557 0.42585 0.0
Mg102 Mg 0.38228 0.50342 0.4336 0.0
C103 C 0.3804 0.51293 0.30881 0.0
O104 O 0.34455 0.51587 0.38084 0.0
O105 O 0.27643 0.44969 0.27319 0.0
O106 O 0.37781 0.53306 0.41783 0.0
O107 O 0.28058 0.4845 0.34669 0.0
O108 O 0.30479 0.48252 0.24292 0.0
O109 O 0.31235 0.51757 0.3248 0.0
O110 O 0.33325 0.44095 0.36166 0.0
O111 O 0.297 0.42297 0.33419 0.0
C112 C 0.31551 0.42249 0.34644 0.0
C113 C 0.28528 0.46248 0.24232 0.0
O114 O 0.37414 0.49757 0.33666 0.0
O115 O 0.36004 0.45416 0.49079 0.0
O116 O 0.36552 0.51714 0.29078 0.0
O117 O 0.38515 0.4573 0.40781 0.0
O118 O 0.38302 0.49418 0.4933 0.0
O119 O 0.40581 0.49665 0.40011 0.0
O120 O 0.30203 0.45863 0.40144 0.0
O121 O 0.30841 0.43568 0.44275 0.0
C122 C 0.29239 0.50715 0.34233 0.0
C123 C 0.36151 0.53405 0.39818 0.0
C124 C 0.56558 0.88924 0.34046 0.0
C125 C 0.52744 0.8227 0.23193 0.0
C126 C 0.48041 0.78165 0.32831 0.0
Mg127 Mg 0.54154 0.89567 0.41986 0.0
Mg128 Mg 0.48372 0.87321 0.42485 0.0
O129 O 0.50849 0.86713 0.41698 0.0
Mg130 Mg 0.51046 0.85571 0.36379 0.0
O131 O 0.51535 0.84496 0.31201 0.0
Mg132 Mg 0.53548 0.83109 0.32983 0.0
Mg133 Mg 0.48889 0.82526 0.28154 0.0
C134 C 0.45479 0.82109 0.39194 0.0
O135 O 0.49031 0.87229 0.33165 0.0
O136 O 0.53203 0.90034 0.48469 0.0
O137 O 0.47163 0.84631 0.28258 0.0
O138 O 0.52924 0.92219 0.40119 0.0
O139 O 0.49229 0.88542 0.48364 0.0
O140 O 0.49028 0.90279 0.38952 0.0
O141 O 0.52982 0.83884 0.39337 0.0
O142 O 0.55194 0.86783 0.43596 0.0
C143 C 0.54554 0.84742 0.4206 0.0
C144 C 0.51233 0.89562 0.50152 0.0
O145 O 0.47308 0.82328 0.37372 0.0
O146 O 0.53912 0.82454 0.2634 0.0
O147 O 0.45484 0.8381 0.41114 0.0
O148 O 0.50282 0.79243 0.33569 0.0
O149 O 0.50791 0.82317 0.23211 0.0
O150 O 0.47093 0.79174 0.30964 0.0
O151 O 0.54684 0.88792 0.35567 0.0
O152 O 0.5655 0.8706 0.32723 0.0
C153 C 0.51035 0.922 0.38971 0.0
C154 C 0.47544 0.86446 0.30306 0.0
C155 C 0.10554 0.67881 0.34314 0.0
C156 C 0.17135 0.70149 0.23305 0.0
C157 C 0.21089 0.6954 0.33177 0.0
Mg158 Mg 0.09864 0.65043 0.42527 0.0
Mg159 Mg 0.11866 0.6131 0.43498 0.0
O160 O 0.12571 0.64361 0.42209 0.0
Mg161 Mg 0.13685 0.65501 0.36792 0.0
O162 O 0.14769 0.66915 0.31492 0.0
Mg163 Mg 0.16331 0.7038 0.33038 0.0
Mg164 Mg 0.16677 0.66065 0.28624 0.0
C165 C 0.16913 0.63155 0.39761 0.0
O166 O 0.11808 0.61731 0.33832 0.0
O167 O 0.09432 0.63846 0.49125 0.0
O168 O 0.14386 0.62259 0.28978 0.0
O169 O 0.06996 0.61151 0.41042 0.0
O170 O 0.10989 0.61421 0.49471 0.0
O171 O 0.0874 0.58959 0.40355 0.0
O172 O 0.15591 0.692 0.39467 0.0
O173 O 0.12867 0.68838 0.43846 0.0
C174 C 0.14905 0.70082 0.42192 0.0
C175 C 0.10009 0.62505 0.51061 0.0
O176 O 0.16781 0.64774 0.37804 0.0
O177 O 0.16963 0.71218 0.26352 0.0
O178 O 0.15216 0.61621 0.41899 0.0
O179 O 0.20123 0.70831 0.33644 0.0
O180 O 0.17033 0.68125 0.23502 0.0
O181 O 0.19993 0.67509 0.31541 0.0
O182 O 0.10595 0.66132 0.35999 0.0
O183 O 0.12447 0.69617 0.32801 0.0
C184 C 0.06892 0.59173 0.40219 0.0
C185 C 0.12543 0.60918 0.3105 0.0
C186 C 0.54455 0.69621 0.92104 0.0
C187 C 0.51319 0.61847 0.00425 0.0
C188 C 0.51281 0.5869 0.89489 0.0
Mg189 Mg 0.53743 0.70326 0.83005 0.0
Mg190 Mg 0.49335 0.66291 0.7768 0.0
O191 O 0.51854 0.66956 0.81027 0.0
Mg192 Mg 0.51229 0.65285 0.86167 0.0
O193 O 0.50949 0.63919 0.91487 0.0
Mg194 Mg 0.5429 0.64508 0.92112 0.0
Mg195 Mg 0.48474 0.60914 0.92695 0.0
C196 C 0.48321 0.61058 0.79474 0.0
O197 O 0.47363 0.64597 0.8685 0.0
O198 O 0.54341 0.71517 0.76448 0.0
O199 O 0.4557 0.61402 0.90841 0.0
O200 O 0.50416 0.70791 0.83288 0.0
O201 O 0.5135 0.68614 0.72994 0.0
O202 O 0.47341 0.67682 0.80415 0.0
O203 O 0.54952 0.65834 0.85685 0.0
O204 O 0.56799 0.69478 0.82988 0.0
C205 C 0.56833 0.67632 0.84286 0.0
C206 C 0.53276 0.7063 0.73189 0.0
O207 O 0.49481 0.61681 0.8272 0.0
O208 O 0.53286 0.6313 0.98575 0.0
O209 O 0.47986 0.625 0.77358 0.0
O210 O 0.53184 0.60633 0.9036 0.0
O211 O 0.49278 0.60902 0.98763 0.0
O212 O 0.49237 0.58522 0.89651 0.0
O213 O 0.52967 0.68858 0.8926 0.0
O214 O 0.55157 0.68289 0.93712 0.0
C215 C 0.48204 0.69606 0.82378 0.0
C216 C 0.4552 0.62987 0.88668 0.0
C217 C 0.3176 0.89118 0.84269 0.0
C218 C 0.29447 0.82659 0.73132 0.0
C219 C 0.29993 0.78546 0.82743 0.0
Mg220 Mg 0.3463 0.89739 0.92409 0.0
Mg221 Mg 0.38358 0.87713 0.93312 0.0
O222 O 0.35308 0.87029 0.92024 0.0
Mg223 Mg 0.34133 0.85942 0.86616 0.0
O224 O 0.32694 0.84889 0.81327 0.0
Mg225 Mg 0.29236 0.83354 0.82895 0.0
Mg226 Mg 0.33547 0.83025 0.78333 0.0
C227 C 0.36569 0.82728 0.89344 0.0
O228 O 0.37853 0.87853 0.8362 0.0
O229 O 0.35859 0.90145 0.98983 0.0
O230 O 0.37365 0.85431 0.78521 0.0
O231 O 0.38503 0.92607 0.90806 0.0
O232 O 0.38234 0.88531 0.99323 0.0
O233 O 0.40714 0.90872 0.90237 0.0
O234 O 0.30441 0.84008 0.89335 0.0
O235 O 0.30843 0.86721 0.93773 0.0
C236 C 0.29585 0.84686 0.92114 0.0
C237 C 0.37173 0.89532 0.00917 0.0
O238 O 0.34918 0.82863 0.87483 0.0
O239 O 0.28383 0.82805 0.76208 0.0
O240 O 0.38087 0.84399 0.91539 0.0
O241 O 0.28752 0.79556 0.83305 0.0
O242 O 0.31464 0.82744 0.73286 0.0
O243 O 0.32038 0.79634 0.81133 0.0
O244 O 0.33505 0.89047 0.85905 0.0
O245 O 0.30002 0.87236 0.82787 0.0
C246 C 0.40474 0.92702 0.89966 0.0
C247 C 0.38667 0.8724 0.80686 0.0
C248 C 0.14448 0.45184 0.9296 0.0
C249 C 0.09418 0.48516 0.00293 0.0
C250 C 0.06582 0.48042 0.88975 0.0
Mg251 Mg 0.16056 0.45818 0.83914 0.0
Mg252 Mg 0.16368 0.50083 0.78266 0.0
O253 O 0.14521 0.47594 0.81681 0.0
Mg254 Mg 0.13397 0.48274 0.86684 0.0
O255 O 0.12219 0.4865 0.91867 0.0
Mg256 Mg 0.09479 0.45304 0.92548 0.0
Mg257 Mg 0.11496 0.51067 0.92317 0.0
C258 C 0.12132 0.51088 0.79718 0.0
O259 O 0.16527 0.52119 0.87289 0.0
O260 O 0.16739 0.45138 0.77436 0.0
O261 O 0.14941 0.53986 0.90665 0.0
O262 O 0.19829 0.49241 0.84147 0.0
O263 O 0.16772 0.48027 0.7376 0.0
O264 O 0.19704 0.52214 0.81061 0.0
O265 O 0.10279 0.44525 0.86276 0.0
O266 O 0.1217 0.42689 0.83898 0.0
C267 C 0.10254 0.42636 0.85062 0.0
C268 C 0.16911 0.46133 0.74106 0.0
O269 O 0.11572 0.49956 0.8299 0.0
O270 O 0.08964 0.46495 0.98836 0.0
O271 O 0.13921 0.51402 0.77658 0.0
O272 O 0.06673 0.46251 0.90341 0.0
O273 O 0.10391 0.50441 0.98282 0.0
O274 O 0.08435 0.50101 0.88833 0.0
O275 O 0.15231 0.46638 0.90067 0.0
O276 O 0.12399 0.44521 0.94486 0.0
C277 C 0.20806 0.51438 0.83124 0.0
C278 C 0.16669 0.53989 0.88838 0.0
C279 C 0.67369 0.56682 0.65935 0.0
C280 C 0.70847 0.53059 0.75974 0.0
C281 C 0.69478 0.48102 0.66281 0.0
Mg282 Mg 0.63827 0.54148 0.58546 0.0
Mg283 Mg 0.60114 0.48361 0.58551 0.0
O284 O 0.63262 0.50797 0.58851 0.0
Mg285 Mg 0.64958 0.51085 0.63855 0.0
O286 O 0.66869 0.51674 0.68704 0.0
Mg287 Mg 0.70129 0.5363 0.66321 0.0
Mg288 Mg 0.66387 0.4909 0.7177 0.0
C289 C 0.62562 0.45443 0.61278 0.0
O290 O 0.61529 0.49186 0.67728 0.0
O291 O 0.61975 0.53092 0.52398 0.0
O292 O 0.62604 0.47575 0.7261 0.0
O293 O 0.60161 0.53129 0.61173 0.0
O294 O 0.59454 0.49133 0.52762 0.0
O295 O 0.58098 0.49245 0.62433 0.0
O296 O 0.68359 0.52886 0.60274 0.0
O297 O 0.6745 0.54973 0.56121 0.0
C298 C 0.689 0.54317 0.57372 0.0
C299 C 0.60363 0.51112 0.50901 0.0
O300 O 0.64314 0.473 0.62808 0.0
O301 O 0.71593 0.54173 0.72708 0.0
O302 O 0.60757 0.4544 0.59731 0.0
O303 O 0.70603 0.50335 0.65507 0.0
O304 O 0.68879 0.51087 0.76267 0.0
O305 O 0.67647 0.47167 0.68477 0.0
O306 O 0.65526 0.54788 0.64687 0.0
O307 O 0.69284 0.56673 0.6688 0.0
C308 C 0.58317 0.5131 0.62568 0.0
C309 C 0.61048 0.47898 0.70827 0.0
C310 C 0.42825 0.10712 0.66444 0.0
C311 C 0.47014 0.1753 0.76913 0.0
C312 C 0.51854 0.21185 0.67138 0.0
Mg313 Mg 0.45079 0.09707 0.58657 0.0
Mg314 Mg 0.50773 0.11437 0.58433 0.0
O315 O 0.48494 0.12374 0.5889 0.0
Mg316 Mg 0.48384 0.13702 0.64077 0.0
O317 O 0.48013 0.14973 0.69158 0.0
Mg318 Mg 0.46177 0.16511 0.6721 0.0
Mg319 Mg 0.50723 0.16864 0.72156 0.0
C320 C 0.54021 0.16679 0.61442 0.0
O321 O 0.50105 0.11857 0.67503 0.0
O322 O 0.45998 0.09065 0.52292 0.0
O323 O 0.5195 0.14319 0.72584 0.0
O324 O 0.4595 0.06837 0.60773 0.0
O325 O 0.49887 0.10136 0.52573 0.0
O326 O 0.49796 0.08475 0.62176 0.0
O327 O 0.46692 0.15569 0.6093 0.0
O328 O 0.44343 0.12661 0.5679 0.0
C329 C 0.45123 0.14756 0.58206 0.0
C330 C 0.47912 0.09303 0.50715 0.0
O331 O 0.52233 0.16708 0.62994 0.0
O332 O 0.4585 0.17315 0.73754 0.0
O333 O 0.53878 0.14833 0.59805 0.0
O334 O 0.49606 0.20224 0.66547 0.0
O335 O 0.48921 0.17397 0.76954 0.0
O336 O 0.52747 0.20112 0.68991 0.0
O337 O 0.44631 0.10679 0.64976 0.0
O338 O 0.4298 0.12669 0.6763 0.0
C339 C 0.47705 0.06671 0.62103 0.0
C340 C 0.51425 0.12453 0.70563 0.0
C341 C 0.89214 0.32085 0.65949 0.0
C342 C 0.81903 0.29097 0.75468 0.0
C343 C 0.78612 0.30389 0.65333 0.0
Mg344 Mg 0.90635 0.35647 0.58458 0.0
Mg345 Mg 0.89033 0.3969 0.58265 0.0
O346 O 0.88012 0.36454 0.5849 0.0
Mg347 Mg 0.86373 0.34786 0.63422 0.0
O348 O 0.84785 0.32902 0.6819 0.0
Mg349 Mg 0.83398 0.29599 0.65923 0.0
Mg350 Mg 0.8267 0.33561 0.70854 0.0
C351 C 0.83642 0.37657 0.60527 0.0
O352 O 0.88006 0.3818 0.67323 0.0
O353 O 0.91644 0.37474 0.52288 0.0
O354 O 0.85002 0.37372 0.71507 0.0
O355 O 0.93445 0.3927 0.61131 0.0
O356 O 0.90668 0.40361 0.52613 0.0
O357 O 0.91745 0.41426 0.62522 0.0
O358 O 0.84654 0.31364 0.59869 0.0
O359 O 0.87713 0.321 0.55961 0.0
C360 C 0.85552 0.30748 0.57079 0.0
C361 C 0.91551 0.39252 0.50803 0.0
O362 O 0.83491 0.35775 0.62059 0.0
O363 O 0.82276 0.28238 0.72329 0.0
O364 O 0.85585 0.3937 0.59137 0.0
O365 O 0.79666 0.29188 0.64781 0.0
O366 O 0.81996 0.3112 0.75551 0.0
O367 O 0.79552 0.32288 0.67364 0.0
O368 O 0.89313 0.33972 0.6457 0.0
O369 O 0.87209 0.30247 0.66839 0.0
C370 C 0.93542 0.41127 0.62628 0.0
C371 C 0.87058 0.38803 0.70046 0.0
H372 H 0.56121 0.32147 0.17475 0.0
H373 H 0.58625 0.30457 0.15755 0.0
H374 H 0.52606 0.24471 0.10328 0.0
H375 H 0.5007 0.26118 0.12088 0.0
H376 H 0.54809 0.23222 0.1603 0.0
H377 H 0.61451 0.29642 0.0553 0.0
H378 H 0.61195 0.30946 0.09999 0.0
H379 H 0.58716 0.29613 0.06688 0.0
C380 C 0.55333 0.30488 0.15862 0.0
C381 C 0.52883 0.29247 0.14974 0.0
C382 C 0.56776 0.29538 0.14852 0.0
C383 C 0.55802 0.27349 0.12898 0.0
C384 C 0.53388 0.26166 0.11835 0.0
H385 H 0.61151 0.18552 0.04303 0.0
H386 H 0.59856 0.21497 0.04986 0.0
C387 C 0.51941 0.27108 0.12853 0.0
C388 C 0.57212 0.26149 0.12373 0.0
H389 H 0.62146 0.26593 0.07958 0.0
C390 C 0.56411 0.23958 0.14261 0.0
C391 C 0.59305 0.27125 0.10076 0.0
C392 C 0.60212 0.29452 0.07927 0.0
C393 C 0.57636 0.22701 0.13898 0.0
C394 C 0.59736 0.2368 0.11627 0.0
C395 C 0.60548 0.25872 0.09734 0.0
C396 C 0.6099 0.22336 0.10995 0.0
C397 C 0.56645 0.20307 0.15879 0.0
C398 C 0.62127 0.21906 0.14113 0.0
C399 C 0.62861 0.20224 0.13731 0.0
C400 C 0.62484 0.18974 0.10216 0.0
C401 C 0.61475 0.19513 0.0703 0.0
C402 C 0.60746 0.21196 0.0741 0.0
H403 H 0.54803 0.19632 0.16975 0.0
H404 H 0.56635 0.18971 0.13839 0.0
H405 H 0.57793 0.2047 0.18398 0.0
H406 H 0.62315 0.22766 0.16906 0.0
H407 H 0.63572 0.19791 0.16257 0.0
H408 H 0.8078 0.43509 0.03056 0.0
H409 H 0.77742 0.39282 0.02716 0.0
H410 H 0.77395 0.38994 0.15311 0.0
H411 H 0.80319 0.43246 0.15619 0.0
H412 H 0.78387 0.35943 0.04971 0.0
H413 H 0.70567 0.34843 0.13035 0.0
H414 H 0.72932 0.37738 0.11538 0.0
H415 H 0.73139 0.36431 0.16068 0.0
C416 C 0.79981 0.42549 0.05733 0.0
C417 C 0.80744 0.4368 0.0936 0.0
C418 C 0.78257 0.4014 0.05543 0.0
C419 C 0.77315 0.38817 0.08984 0.0
C420 C 0.78029 0.39982 0.1261 0.0
H421 H 0.74653 0.24965 0.14083 0.0
H422 H 0.76239 0.29077 0.11923 0.0
C423 C 0.79711 0.42407 0.12793 0.0
C424 C 0.75874 0.3618 0.0882 0.0
H425 H 0.71192 0.3141 0.13171 0.0
C426 C 0.7678 0.34952 0.06694 0.0
C427 C 0.73746 0.3487 0.10982 0.0
C428 C 0.7253 0.36046 0.12991 0.0
C429 C 0.75709 0.32467 0.06883 0.0
C430 C 0.73742 0.31186 0.094 0.0
C431 C 0.72736 0.32393 0.11308 0.0
C432 C 0.72804 0.28635 0.10319 0.0
C433 C 0.76719 0.31255 0.04409 0.0
C434 C 0.70345 0.27023 0.10198 0.0
C435 C 0.69436 0.24695 0.11539 0.0
C436 C 0.7097 0.2393 0.12983 0.0
C437 C 0.73436 0.25507 0.12947 0.0
C438 C 0.74343 0.27852 0.11683 0.0
H439 H 0.77492 0.32259 0.0166 0.0
H440 H 0.78178 0.31209 0.06028 0.0
H441 H 0.75343 0.29402 0.03654 0.0
H442 H 0.69122 0.27582 0.0916 0.0
H443 H 0.6753 0.23504 0.11497 0.0
H444 H 0.75861 0.43416 0.12394 0.0
H445 H 0.7172 0.40873 0.10369 0.0
H446 H 0.70376 0.46663 0.12491 0.0
H447 H 0.74535 0.4924 0.14305 0.0
H448 H 0.67913 0.39294 0.14443 0.0
H449 H 0.67083 0.44431 0.02392 0.0
H450 H 0.69943 0.45146 0.04366 0.0
H451 H 0.68219 0.46325 0.06577 0.0
C452 C 0.74691 0.44157 0.12346 0.0
C453 C 0.7552 0.46528 0.1349 0.0
C454 C 0.72325 0.42701 0.11198 0.0
C455 C 0.70738 0.43581 0.1122 0.0
C456 C 0.71578 0.4596 0.12319 0.0
H457 H 0.56172 0.3699 0.16945 0.0
H458 H 0.60374 0.38105 0.16617 0.0
C459 C 0.73955 0.47431 0.13383 0.0
C460 C 0.68167 0.41976 0.10421 0.0
H461 H 0.63425 0.41868 0.05965 0.0
C462 C 0.66936 0.39831 0.12523 0.0
C463 C 0.66891 0.42622 0.07825 0.0
C464 C 0.68114 0.44743 0.05132 0.0
C465 C 0.64447 0.38411 0.12311 0.0
C466 C 0.63151 0.39211 0.10067 0.0
C467 C 0.644 0.41265 0.07754 0.0
C468 C 0.60518 0.38086 0.10288 0.0
C469 C 0.63242 0.36082 0.14512 0.0
C470 C 0.59185 0.37692 0.06858 0.0
C471 C 0.56817 0.37146 0.07057 0.0
C472 C 0.55725 0.3692 0.10686 0.0
C473 C 0.56985 0.37131 0.1412 0.0
C474 C 0.5938 0.37747 0.13925 0.0
H475 H 0.64396 0.35268 0.14604 0.0
H476 H 0.62927 0.36417 0.17571 0.0
H477 H 0.6151 0.34788 0.13175 0.0
H478 H 0.60014 0.37935 0.0402 0.0
H479 H 0.55861 0.36986 0.04376 0.0
H480 H 0.18439 0.621 0.33136 0.0
H481 H 0.21192 0.60548 0.32732 0.0
H482 H 0.22765 0.6197 0.45005 0.0
H483 H 0.19931 0.63426 0.45436 0.0
H484 H 0.25859 0.61977 0.34407 0.0
H485 H 0.1968 0.54781 0.44444 0.0
H486 H 0.18974 0.56899 0.42332 0.0
H487 H 0.20966 0.57731 0.46431 0.0
C488 C 0.19431 0.62142 0.35709 0.0
C489 C 0.18994 0.6287 0.39314 0.0
C490 C 0.20994 0.61255 0.35484 0.0
C491 C 0.22132 0.61094 0.38863 0.0
C492 C 0.21858 0.62031 0.4239 0.0
H493 H 0.31677 0.55233 0.37031 0.0
H494 H 0.30105 0.57855 0.38616 0.0
C495 C 0.20264 0.62878 0.42629 0.0
C496 C 0.23368 0.59701 0.38765 0.0
H497 H 0.23023 0.54606 0.42252 0.0
C498 C 0.25257 0.60374 0.36138 0.0
C499 C 0.22539 0.57589 0.40985 0.0
C500 C 0.20416 0.56689 0.43681 0.0
C501 C 0.26318 0.58966 0.35614 0.0
C502 C 0.25504 0.56866 0.37867 0.0
C503 C 0.23649 0.56224 0.40552 0.0
C504 C 0.26445 0.55227 0.37309 0.0
C505 C 0.28222 0.59688 0.32528 0.0
C506 C 0.24892 0.52834 0.363 0.0
C507 C 0.25784 0.51316 0.35488 0.0
C508 C 0.28245 0.52183 0.35625 0.0
C509 C 0.2978 0.54541 0.36821 0.0
C510 C 0.28886 0.56043 0.37704 0.0
H511 H 0.28179 0.60956 0.30392 0.0
H512 H 0.29999 0.60585 0.33944 0.0
H513 H 0.28018 0.58111 0.30914 0.0
H514 H 0.22996 0.52163 0.36016 0.0
H515 H 0.24565 0.49504 0.34576 0.0
H516 H 0.37326 0.56835 0.45272 0.0
H517 H 0.38667 0.61039 0.4408 0.0
H518 H 0.37088 0.59549 0.31828 0.0
H519 H 0.35794 0.55344 0.33008 0.0
H520 H 0.41704 0.62912 0.33255 0.0
H521 H 0.35704 0.65132 0.41439 0.0
H522 H 0.36741 0.63526 0.44336 0.0
H523 H 0.34883 0.62112 0.40159 0.0
C524 C 0.37194 0.57397 0.42349 0.0
C525 C 0.36425 0.55772 0.39239 0.0
C526 C 0.37945 0.59792 0.41674 0.0
C527 C 0.37945 0.60599 0.37875 0.0
C528 C 0.37071 0.58953 0.34788 0.0
H529 H 0.43239 0.75407 0.31763 0.0
H530 H 0.40733 0.7117 0.33094 0.0
C531 C 0.36317 0.56554 0.35465 0.0
C532 C 0.39206 0.63185 0.37064 0.0
H533 H 0.3956 0.68422 0.3976 0.0
C534 C 0.41218 0.64115 0.34638 0.0
C535 C 0.38559 0.64744 0.38856 0.0
C536 C 0.36339 0.63827 0.41312 0.0
C537 C 0.42648 0.66572 0.34045 0.0
C538 C 0.42081 0.68143 0.36011 0.0
C539 C 0.40019 0.67212 0.38328 0.0
C540 C 0.43572 0.70755 0.35573 0.0
C541 C 0.44742 0.67459 0.31294 0.0
C542 C 0.45987 0.71942 0.36645 0.0
C543 C 0.47441 0.74372 0.35861 0.0
C544 C 0.46493 0.75652 0.34017 0.0
C545 C 0.4404 0.74475 0.33145 0.0
C546 C 0.42596 0.72051 0.33916 0.0
H547 H 0.44556 0.66036 0.29269 0.0
H548 H 0.44946 0.68991 0.29541 0.0
H549 H 0.46396 0.68057 0.33013 0.0
H550 H 0.46758 0.70977 0.38012 0.0
H551 H 0.49312 0.7523 0.36617 0.0
H552 H 0.23128 0.66872 0.34958 0.0
H553 H 0.27217 0.68259 0.36986 0.0
H554 H 0.28737 0.75538 0.36218 0.0
H555 H 0.24597 0.74143 0.34424 0.0
H556 H 0.31111 0.70676 0.33243 0.0
H557 H 0.31725 0.7583 0.46402 0.0
H558 H 0.28912 0.73878 0.44082 0.0
H559 H 0.30758 0.76899 0.42385 0.0
C560 C 0.24322 0.68766 0.35291 0.0
C561 C 0.2354 0.70399 0.34556 0.0
C562 C 0.26662 0.69557 0.3644 0.0
C563 C 0.2828 0.72002 0.3682 0.0
C564 C 0.27504 0.73639 0.36074 0.0
H565 H 0.42985 0.80003 0.32654 0.0
H566 H 0.38781 0.76939 0.32377 0.0
C567 C 0.25143 0.72844 0.35014 0.0
C568 C 0.30813 0.7285 0.37735 0.0
H569 H 0.35462 0.7698 0.43108 0.0
C570 C 0.32055 0.72022 0.35455 0.0
C571 C 0.32037 0.74543 0.40704 0.0
C572 C 0.30776 0.75313 0.43558 0.0
C573 C 0.34517 0.72963 0.35889 0.0
C574 C 0.35781 0.74849 0.38555 0.0
C575 C 0.3451 0.7556 0.4101 0.0
C576 C 0.38419 0.76277 0.38618 0.0
C577 C 0.3573 0.71932 0.33469 0.0
C578 C 0.39635 0.76913 0.422 0.0
C579 C 0.42011 0.78722 0.42361 0.0
C580 C 0.4322 0.79868 0.38934 0.0
C581 C 0.42082 0.79103 0.3532 0.0
C582 C 0.39684 0.77339 0.35165 0.0
H583 H 0.34513 0.7 0.32942 0.0
H584 H 0.36209 0.72826 0.30581 0.0
H585 H 0.37372 0.7217 0.34899 0.0
H586 H 0.38703 0.76119 0.449 0.0
H587 H 0.4287 0.79307 0.45178 0.0
H588 H 0.43511 0.67771 0.80459 0.0
H589 H 0.40992 0.69497 0.81802 0.0
H590 H 0.46728 0.75209 0.88214 0.0
H591 H 0.49277 0.73509 0.86873 0.0
H592 H 0.3952 0.70801 0.88766 0.0
H593 H 0.45236 0.78557 0.79318 0.0
H594 H 0.45435 0.75878 0.79351 0.0
H595 H 0.46827 0.78061 0.8315 0.0
C596 C 0.44235 0.69381 0.8219 0.0
C597 C 0.46611 0.70525 0.83506 0.0
C598 C 0.42787 0.7036 0.82959 0.0
C599 C 0.43693 0.72499 0.85039 0.0
C600 C 0.46017 0.73577 0.86537 0.0
H601 H 0.37513 0.80267 0.94764 0.0
H602 H 0.38809 0.77367 0.93532 0.0
C603 C 0.47469 0.72603 0.85768 0.0
C604 C 0.42267 0.73687 0.85428 0.0
H605 H 0.42297 0.78809 0.83079 0.0
C606 C 0.40114 0.72546 0.8751 0.0
C607 C 0.43022 0.75933 0.83697 0.0
C608 C 0.45244 0.77173 0.8122 0.0
C609 C 0.38739 0.73648 0.88038 0.0
C610 C 0.39565 0.7595 0.8648 0.0
C611 C 0.41674 0.77046 0.84283 0.0
C612 C 0.38371 0.7734 0.87264 0.0
C613 C 0.3642 0.72343 0.90248 0.0
C614 C 0.37693 0.7828 0.8415 0.0
C615 C 0.36969 0.79945 0.84851 0.0
C616 C 0.36907 0.80683 0.88674 0.0
C617 C 0.3751 0.79686 0.91798 0.0
C618 C 0.38231 0.7802 0.91099 0.0
H619 H 0.35697 0.70386 0.90204 0.0
H620 H 0.36729 0.72934 0.93338 0.0
H621 H 0.35066 0.72731 0.89014 0.0
H622 H 0.37823 0.77803 0.81167 0.0
H623 H 0.36579 0.80745 0.82394 0.0
H624 H 0.18668 0.56442 0.82203 0.0
H625 H 0.21761 0.60638 0.81777 0.0
H626 H 0.22741 0.60825 0.94271 0.0
H627 H 0.19527 0.56674 0.94698 0.0
H628 H 0.22013 0.64148 0.92467 0.0
H629 H 0.28734 0.64711 0.82065 0.0
H630 H 0.25862 0.63085 0.79826 0.0
H631 H 0.26513 0.61911 0.84134 0.0
C632 C 0.19602 0.57372 0.84829 0.0
C633 C 0.18882 0.56267 0.88478 0.0
C634 C 0.21383 0.59762 0.8459 0.0
C635 C 0.22508 0.61053 0.87991 0.0
C636 C 0.21899 0.59874 0.91609 0.0
H637 H 0.32464 0.76234 0.84142 0.0
H638 H 0.30889 0.72093 0.86057 0.0
C639 C 0.20076 0.57507 0.91855 0.0
C640 C 0.24014 0.63687 0.87845 0.0
H641 H 0.28271 0.68234 0.8242 0.0
C642 C 0.2342 0.65039 0.90324 0.0
C643 C 0.25886 0.64871 0.85121 0.0
C644 C 0.26801 0.63563 0.82675 0.0
C645 C 0.24547 0.67522 0.90003 0.0
C646 C 0.2623 0.68678 0.86988 0.0
C647 C 0.26934 0.67346 0.84669 0.0
C648 C 0.27203 0.71237 0.86082 0.0
C649 C 0.23909 0.68868 0.92905 0.0
C650 C 0.25663 0.72145 0.85456 0.0
C651 C 0.26571 0.74536 0.84473 0.0
C652 C 0.29032 0.76045 0.83965 0.0
C653 C 0.30566 0.75124 0.84534 0.0
C654 C 0.29664 0.72751 0.85615 0.0
H655 H 0.23384 0.67926 0.95757 0.0
H656 H 0.25415 0.70701 0.934 0.0
H657 H 0.2236 0.6898 0.91798 0.0
H658 H 0.23751 0.70995 0.85654 0.0
H659 H 0.25341 0.75184 0.84001 0.0
H660 H 0.23406 0.56213 0.81548 0.0
H661 H 0.2768 0.58852 0.82459 0.0
H662 H 0.28195 0.53142 0.87946 0.0
H663 H 0.23921 0.50462 0.86997 0.0
H664 H 0.30731 0.60262 0.8918 0.0
H665 H 0.32723 0.55111 0.78383 0.0
H666 H 0.29801 0.54782 0.78895 0.0
H667 H 0.30789 0.53331 0.82268 0.0
C668 C 0.24418 0.55516 0.82983 0.0
C669 C 0.23326 0.53109 0.84138 0.0
C670 C 0.26859 0.57035 0.83513 0.0
C671 C 0.2825 0.56178 0.85207 0.0
C672 C 0.27149 0.5382 0.86568 0.0
H673 H 0.42109 0.61867 0.94143 0.0
H674 H 0.37972 0.60802 0.93038 0.0
C675 C 0.24707 0.52295 0.86034 0.0
C676 C 0.3087 0.577 0.85344 0.0
H677 H 0.3598 0.57965 0.82167 0.0
C678 C 0.31885 0.59777 0.87627 0.0
C679 C 0.32363 0.57097 0.83219 0.0
C680 C 0.31369 0.54972 0.8052 0.0
C681 C 0.34369 0.61196 0.88011 0.0
C682 C 0.35855 0.60498 0.86091 0.0
C683 C 0.34836 0.58493 0.83649 0.0
C684 C 0.3844 0.61645 0.86874 0.0
C685 C 0.35383 0.63412 0.90492 0.0
C686 C 0.40085 0.62502 0.83783 0.0
C687 C 0.42452 0.631 0.84409 0.0
C688 C 0.43196 0.62835 0.88127 0.0
C689 C 0.41578 0.62097 0.91252 0.0
C690 C 0.3922 0.61511 0.90632 0.0
H691 H 0.34129 0.64106 0.90709 0.0
H692 H 0.35701 0.62979 0.93486 0.0
H693 H 0.37106 0.64835 0.89299 0.0
H694 H 0.39507 0.62585 0.8085 0.0
H695 H 0.43645 0.63597 0.81936 0.0
H696 H 0.73156 0.49348 0.61172 0.0
H697 H 0.74944 0.4696 0.5927 0.0
H698 H 0.69666 0.41046 0.66015 0.0
H699 H 0.67825 0.4339 0.67856 0.0
H700 H 0.76851 0.4541 0.6483 0.0
H701 H 0.7011 0.37727 0.56228 0.0
H702 H 0.69909 0.40374 0.57068 0.0
H703 H 0.69029 0.38147 0.60814 0.0
C704 C 0.72347 0.47525 0.62194 0.0
C705 C 0.70376 0.46574 0.64724 0.0
C706 C 0.73364 0.4616 0.6109 0.0
C707 C 0.72429 0.43826 0.62489 0.0
C708 C 0.70388 0.42828 0.64845 0.0
H709 H 0.80512 0.36729 0.66448 0.0
H710 H 0.77401 0.37827 0.66749 0.0
C711 C 0.69356 0.44184 0.6593 0.0
C712 C 0.73788 0.42578 0.61948 0.0
H713 H 0.73494 0.375 0.58451 0.0
C714 C 0.76121 0.43689 0.63411 0.0
C715 C 0.72816 0.40322 0.60129 0.0
C716 C 0.70335 0.39078 0.58438 0.0
C717 C 0.77513 0.42606 0.63111 0.0
C718 C 0.7654 0.40349 0.61325 0.0
C719 C 0.74213 0.39227 0.59845 0.0
C720 C 0.77998 0.39212 0.60862 0.0
C721 C 0.80025 0.43883 0.64687 0.0
C722 C 0.79308 0.39589 0.57423 0.0
C723 C 0.81081 0.38973 0.57253 0.0
C724 C 0.81541 0.37948 0.60506 0.0
C725 C 0.80144 0.3746 0.63876 0.0
C726 C 0.78378 0.38091 0.64055 0.0
H727 H 0.80568 0.45706 0.65741 0.0
H728 H 0.80168 0.42848 0.67149 0.0
H729 H 0.81295 0.44015 0.6239 0.0
H730 H 0.79052 0.40484 0.54957 0.0
H731 H 0.82152 0.39375 0.54632 0.0
H732 H 0.62367 0.42868 0.67622 0.0
H733 H 0.61539 0.38752 0.67656 0.0
H734 H 0.62055 0.38893 0.55073 0.0
H735 H 0.62697 0.42952 0.55055 0.0
H736 H 0.58252 0.35346 0.56799 0.0
H737 H 0.6473 0.3501 0.66652 0.0
H738 H 0.63388 0.36431 0.69252 0.0
H739 H 0.65112 0.37806 0.64903 0.0
C740 C 0.62359 0.42028 0.64883 0.0
C741 C 0.62577 0.43193 0.61337 0.0
C742 C 0.61914 0.39684 0.64897 0.0
C743 C 0.61759 0.38503 0.61366 0.0
C744 C 0.62158 0.39754 0.57835 0.0
H745 H 0.56607 0.23263 0.65438 0.0
H746 H 0.59267 0.27354 0.63227 0.0
C747 C 0.62529 0.42069 0.57819 0.0
C748 C 0.60789 0.35882 0.61334 0.0
H749 H 0.60732 0.31383 0.66585 0.0
C750 C 0.58845 0.34488 0.58875 0.0
C751 C 0.61583 0.34729 0.63937 0.0
C752 C 0.63838 0.36082 0.66291 0.0
C753 C 0.57561 0.32001 0.59176 0.0
C754 C 0.58152 0.30878 0.62157 0.0
C755 C 0.60221 0.32244 0.64381 0.0
C756 C 0.56534 0.28347 0.63233 0.0
C757 C 0.5556 0.30618 0.56323 0.0
C758 C 0.54116 0.2754 0.63982 0.0
C759 C 0.52586 0.25195 0.65138 0.0
C760 C 0.53458 0.23625 0.65706 0.0
C761 C 0.55885 0.24435 0.65014 0.0
C762 C 0.57407 0.26772 0.63761 0.0
H763 H 0.55974 0.3152 0.53437 0.0
H764 H 0.55218 0.28774 0.55908 0.0
H765 H 0.5391 0.3054 0.57415 0.0
H766 H 0.53414 0.2874 0.6375 0.0
H767 H 0.50735 0.24633 0.65706 0.0
H768 H 0.5718 0.17926 0.67306 0.0
H769 H 0.61356 0.21102 0.67213 0.0
H770 H 0.6031 0.23359 0.55889 0.0
H771 H 0.56133 0.20122 0.55954 0.0
H772 H 0.64021 0.22688 0.55825 0.0
H773 H 0.64835 0.28195 0.68603 0.0
H774 H 0.63493 0.25134 0.70047 0.0
H775 H 0.61977 0.26032 0.66627 0.0
C776 C 0.57838 0.19145 0.64853 0.0
C777 C 0.56366 0.18817 0.61652 0.0
C778 C 0.60213 0.20964 0.64805 0.0
C779 C 0.61137 0.22492 0.61567 0.0
C780 C 0.59628 0.22211 0.58424 0.0
H781 H 0.76216 0.32833 0.64615 0.0
H782 H 0.72066 0.31267 0.62792 0.0
C783 C 0.57253 0.20377 0.58463 0.0
C784 C 0.63733 0.24171 0.61297 0.0
H785 H 0.68457 0.28177 0.66695 0.0
C786 C 0.64991 0.2393 0.58158 0.0
C787 C 0.64998 0.2583 0.64286 0.0
C788 C 0.63747 0.26331 0.67552 0.0
C789 C 0.6749 0.25177 0.58076 0.0
C790 C 0.68756 0.26646 0.61276 0.0
C791 C 0.67493 0.27017 0.64269 0.0
C792 C 0.71364 0.27678 0.61745 0.0
C793 C 0.68737 0.24879 0.54586 0.0
C794 C 0.72375 0.26199 0.61677 0.0
C795 C 0.74771 0.27108 0.62639 0.0
C796 C 0.76182 0.29497 0.63789 0.0
C797 C 0.75183 0.30987 0.63742 0.0
C798 C 0.72804 0.30092 0.62709 0.0
H799 H 0.67646 0.24515 0.51903 0.0
H800 H 0.70505 0.26485 0.54085 0.0
H801 H 0.68993 0.23328 0.55072 0.0
H802 H 0.71288 0.24316 0.61054 0.0
H803 H 0.7548 0.25908 0.62671 0.0
H804 H 0.54937 0.58026 0.91891 0.0
H805 H 0.54182 0.54612 0.95875 0.0
H806 H 0.46905 0.50843 0.9185 0.0
H807 H 0.47664 0.54204 0.87764 0.0
H808 H 0.50936 0.54007 0.01587 0.0
H809 H 0.47947 0.45367 0.94119 0.0
H810 H 0.49863 0.48199 0.91791 0.0
H811 H 0.46709 0.47072 0.92164 0.0
C812 C 0.53217 0.56418 0.91651 0.0
C813 C 0.51318 0.56431 0.8969 0.0
C814 C 0.52783 0.5447 0.9397 0.0
C815 C 0.50469 0.52509 0.94254 0.0
C816 C 0.48705 0.52339 0.91692 0.0
H817 H 0.43292 0.4104 0.10252 0.0
H818 H 0.43816 0.44504 0.06652 0.0
C819 C 0.49145 0.54275 0.89347 0.0
C820 C 0.49768 0.50977 0.97762 0.0
H821 H 0.46991 0.45208 0.00808 0.0
C822 C 0.50092 0.52081 0.01424 0.0
C823 C 0.48617 0.48473 0.97531 0.0
C824 C 0.48278 0.47204 0.93694 0.0
C825 C 0.49293 0.5074 0.04869 0.0
C826 C 0.48155 0.48235 0.04641 0.0
C827 C 0.4782 0.47133 0.00974 0.0
C828 C 0.4754 0.46703 0.08139 0.0
C829 C 0.49651 0.52016 0.08705 0.0
C830 C 0.49378 0.46902 0.10552 0.0
C831 C 0.49073 0.4493 0.12667 0.0
C832 C 0.46961 0.42723 0.12236 0.0
C833 C 0.44973 0.4269 0.10521 0.0
C834 C 0.45272 0.4467 0.08434 0.0
H835 H 0.49848 0.53803 0.0827 0.0
H836 H 0.48143 0.50971 0.10731 0.0
H837 H 0.5131 0.52275 0.10096 0.0
H838 H 0.51142 0.48455 0.10396 0.0
H839 H 0.50617 0.4504 0.14091 0.0
H840 H 0.54444 0.0603 0.13958 0.0
H841 H 0.50986 0.03318 0.10094 0.0
H842 H 0.54752 -0.00153 0.05885 0.0
H843 H 0.58197 0.02521 0.09759 0.0
H844 H 0.52326 0.04193 0.02164 0.0
H845 H 0.47798 0.94552 0.05572 0.0
H846 H 0.49698 0.96804 0.09045 0.0
H847 H 0.50975 0.95877 0.05254 0.0
C848 C 0.54492 0.04602 0.12393 0.0
C849 C 0.56644 0.04588 0.11949 0.0
C850 C 0.52515 0.03063 0.10158 0.0
C851 C 0.52657 0.01453 0.07594 0.0
C852 C 0.54619 0.01101 0.0781 0.0
H853 H 0.44899 0.93702 0.87539 0.0
H854 H 0.48485 0.96564 0.90998 0.0
C855 C 0.56594 0.02637 0.10051 0.0
C856 C 0.51093 0.00597 0.04137 0.0
H857 H 0.47258 0.95613 0.99094 0.0
C858 C 0.51193 0.02315 0.01508 0.0
C859 C 0.49684 0.98156 0.03241 0.0
C860 C 0.49515 0.96242 0.05946 0.0
C861 C 0.49902 0.01648 0.98008 0.0
C862 C 0.48466 0.99208 0.97147 0.0
C863 C 0.48389 0.97492 0.9975 0.0
C864 C 0.46815 0.98344 0.93802 0.0
C865 C 0.501 0.03546 0.95236 0.0
C866 C 0.4478 0.98581 0.93914 0.0
C867 C 0.42725 0.96948 0.9193 0.0
C868 C 0.42688 0.95039 0.89917 0.0
C869 C 0.4486 0.95114 0.89174 0.0
C870 C 0.46913 0.96746 0.91158 0.0
H871 H 0.51702 0.05301 0.95847 0.0
H872 H 0.50177 0.0304 0.92165 0.0
H873 H 0.48503 0.03743 0.95554 0.0
H874 H 0.44673 -0.00189 0.95931 0.0
H875 H 0.41092 0.96973 0.92491 0.0
H876 H 0.93818 0.48824 0.13659 0.0
H877 H 0.96487 0.48144 0.09544 0.0
H878 H -0.00336 0.55341 0.05214 0.0
H879 H 0.97044 0.5605 0.09348 0.0
H880 H 0.95368 0.48467 0.01757 0.0
H881 H 0.05039 0.53817 0.04477 0.0
H882 H 0.02879 0.53683 0.0795 0.0
H883 H 0.03773 0.55705 0.03884 0.0
C884 C 0.95181 0.50309 0.12012 0.0
C885 C 0.95117 0.52439 0.11627 0.0
C886 C 0.96692 0.49908 0.0963 0.0
C887 C 0.98198 0.51662 0.06965 0.0
C888 C 0.98489 0.53951 0.07213 0.0
H889 H 0.05606 0.51486 0.86488 0.0
H890 H 0.02836 0.52292 0.90053 0.0
C891 C 0.96986 0.54355 0.09607 0.0
C892 C 0.98994 0.50963 0.03418 0.0
H893 H 0.03863 0.52214 0.97942 0.0
C894 C 0.9723 0.49268 0.00938 0.0
C895 C 0.01409 0.52066 0.023 0.0
C896 C 0.03379 0.53904 0.04819 0.0
C897 C 0.97823 0.48624 0.97384 0.0
C898 C 0.0024 0.4969 0.96307 0.0
C899 C 0.02 0.51417 0.98753 0.0
C900 C 0.01047 0.48863 0.92928 0.0
C901 C 0.95863 0.46823 0.94806 0.0
C902 C 0.00763 0.46571 0.93024 0.0
C903 C 0.02339 0.46098 0.90967 0.0
C904 C 0.04253 0.47945 0.88913 0.0
C905 C 0.04203 0.50055 0.88167 0.0
C906 C 0.02625 0.50527 0.90219 0.0
H907 H 0.94146 0.46761 0.95384 0.0
H908 H 0.96323 0.4723 0.91671 0.0
H909 H 0.95607 0.45028 0.95415 0.0
H910 H 0.99545 0.45253 0.95077 0.0
H911 H 0.02277 0.44422 0.91509 0.0
H912 H 0.41132 0.43998 0.42299 0.0
H913 H 0.44443 0.44815 0.46597 0.0
H914 H 0.48232 0.52094 0.426 0.0
H915 H 0.44944 0.51292 0.38243 0.0
H916 H 0.51191 0.50329 0.45463 0.0
H917 H 0.43939 0.48876 0.55693 0.0
H918 H 0.43274 0.46338 0.52709 0.0
H919 H 0.43672 0.49023 0.50476 0.0
C920 C 0.4272 0.45739 0.42155 0.0
C921 C 0.42714 0.47629 0.40141 0.0
C922 C 0.44601 0.46209 0.44661 0.0
C923 C 0.46498 0.48547 0.45069 0.0
C924 C 0.46735 0.50294 0.4241 0.0
H925 H 0.57785 0.55239 0.61816 0.0
H926 H 0.54388 0.54926 0.58259 0.0
C927 C 0.44858 0.49824 0.39893 0.0
C928 C 0.47957 0.49264 0.48647 0.0
H929 H 0.47591 0.49648 0.58554 0.0
C930 C 0.50415 0.50196 0.48323 0.0
C931 C 0.46927 0.49137 0.52358 0.0
C932 C 0.44312 0.48313 0.52842 0.0
C933 C 0.51869 0.50909 0.51644 0.0
C934 C 0.50827 0.50698 0.55375 0.0
C935 C 0.48376 0.49817 0.55689 0.0
C936 C 0.52241 0.51108 0.58957 0.0
C937 C 0.54497 0.51794 0.51142 0.0
C938 C 0.5199 0.49125 0.61007 0.0
C939 C 0.53918 0.49302 0.63095 0.0
C940 C 0.56117 0.51446 0.63 0.0
C941 C 0.56148 0.53535 0.61774 0.0
C942 C 0.5421 0.5336 0.59713 0.0
H943 H 0.54956 0.51629 0.48081 0.0
H944 H 0.55537 0.53704 0.5196 0.0
H945 H 0.55059 0.50788 0.53073 0.0
H946 H 0.50443 0.4738 0.60552 0.0
H947 H 0.53799 0.47675 0.64181 0.0
H948 H 0.54722 0.9668 0.40667 0.0
H949 H 0.54069 0.99406 0.44676 0.0
H950 H 0.46599 0.95558 0.41781 0.0
H951 H 0.47241 0.92875 0.37661 0.0
H952 H 0.48313 0.00344 0.44062 0.0
H953 H 0.50862 0.95463 0.54597 0.0
H954 H 0.53037 0.9718 0.50955 0.0
H955 H 0.50272 0.94624 0.49518 0.0
C956 C 0.52963 0.96488 0.40697 0.0
C957 C 0.50998 0.94462 0.39083 0.0
C958 C 0.5259 0.98037 0.43032 0.0
C959 C 0.50263 0.97573 0.43706 0.0
C960 C 0.48399 0.95887 0.41393 0.0
H961 H 0.43736 0.02319 0.60664 0.0
H962 H 0.44042 0.99341 0.56754 0.0
C963 C 0.48775 0.94358 0.39021 0.0
C964 C 0.4969 0.98453 0.47284 0.0
H965 H 0.4965 0.9802 0.57229 0.0
C966 C 0.48603 -0.00158 0.46943 0.0
C967 C 0.50039 0.97749 0.51031 0.0
C968 C 0.51097 0.96155 0.51568 0.0
C969 C 0.47921 0.00618 0.50264 0.0
C970 C 0.48285 -0.00073 0.54019 0.0
C971 C 0.49348 0.98515 0.54351 0.0
C972 C 0.47841 0.00911 0.57605 0.0
C973 C 0.469 0.02244 0.49715 0.0
C974 C 0.49792 0.02512 0.59867 0.0
C975 C 0.49608 0.04175 0.622 0.0
C976 C 0.47498 0.04293 0.62134 0.0
C977 C 0.45419 0.02343 0.60615 0.0
C978 C 0.45595 0.00653 0.58332 0.0
H979 H 0.47127 0.02922 0.46676 0.0
H980 H 0.44963 0.01249 0.50356 0.0
H981 H 0.47759 0.03789 0.51734 0.0
H982 H 0.51527 0.0268 0.59456 0.0
H983 H 0.51221 0.0559 0.63501 0.0
H984 H 0.97898 0.41787 0.60452 0.0
H985 H 0.00691 0.45422 0.57103 0.0
H986 H 0.97374 0.49088 0.62323 0.0
H987 H 0.94554 0.45447 0.6568 0.0
H988 H 0.96192 0.47655 0.54241 0.0
H989 H 0.05972 0.52566 0.56736 0.0
H990 H 0.04559 0.49374 0.57111 0.0
H991 H 0.0384 0.50996 0.60574 0.0
C992 C 0.9785 0.43398 0.61104 0.0
C993 C 0.959 0.43295 0.63091 0.0
C994 C 0.9946 0.45488 0.59171 0.0
C995 C 0.99168 0.47488 0.59347 0.0
C996 C 0.97588 0.47538 0.62091 0.0
H997 H 0.02711 0.58617 0.43117 0.0
H998 H 0.00181 0.55251 0.47281 0.0
C999 C 0.95979 0.45449 0.64023 0.0
C1000 C -0.00133 0.49082 0.55929 0.0
H1001 H 0.04617 0.53008 0.50495 0.0
C1002 C 0.98036 0.48855 0.53446 0.0
C1003 C 0.02264 0.5059 0.54866 0.0
C1004 C 0.04279 0.50918 0.57468 0.0
C1005 C 0.98545 0.50084 0.49893 0.0
C1006 C 0.00942 0.51581 0.4882 0.0
C1007 C 0.02774 0.51822 0.51312 0.0
C1008 C 0.01628 0.53069 0.45276 0.0
C1009 C 0.96528 0.49746 0.47284 0.0
C1010 C 0.03084 0.52844 0.42484 0.0
C1011 C 0.04524 0.54764 0.40065 0.0
C1012 C 0.04576 0.56947 0.40546 0.0
C1013 C 0.02764 0.56984 0.42756 0.0
C1014 C 0.01317 0.55058 0.45167 0.0
H1015 H 0.94842 0.4809 0.48012 0.0
H1016 H 0.96234 0.51281 0.47651 0.0
H1017 H 0.96969 0.49677 0.44172 0.0
H1018 H 0.03309 0.51296 0.42486 0.0
H1019 H 0.0585 0.54656 0.38288 0.0
H1020 H 0.49733 0.42536 0.97486 0.0
H1021 H 0.50376 0.43609 0.90633 0.0
H1022 H 0.45187 0.36397 0.87459 0.0
H1023 H 0.44552 0.35294 0.94419 0.0
H1024 H 0.49424 0.37843 0.84036 0.0
H1025 H 0.47147 0.44797 0.81607 0.0
H1026 H 0.48998 0.45658 0.85844 0.0
H1027 H 0.4614 0.42941 0.85918 0.0
C1028 C 0.48681 0.41186 0.9534 0.0
C1029 C 0.47109 0.38826 0.96482 0.0
C1030 C 0.49027 0.41811 0.91411 0.0
C1031 C 0.47802 0.40097 0.88515 0.0
C1032 C 0.46126 0.37758 0.89646 0.0
H1033 H 0.56687 0.45689 0.67123 0.0
H1034 H 0.52737 0.43489 0.70262 0.0
C1035 C 0.45762 0.3713 0.93615 0.0
C1036 C 0.48639 0.40701 0.84417 0.0
H1037 H 0.51011 0.45553 0.7841 0.0
C1038 C 0.49674 0.39468 0.82694 0.0
C1039 C 0.4895 0.42805 0.82613 0.0
C1040 C 0.47719 0.44101 0.84093 0.0
C1041 C 0.51278 0.40465 0.79574 0.0
C1042 C 0.51857 0.4274 0.78169 0.0
C1043 C 0.50585 0.43819 0.79531 0.0
C1044 C 0.54142 0.44233 0.76139 0.0
C1045 C 0.52551 0.3921 0.78085 0.0
C1046 C 0.56208 0.45404 0.78412 0.0
C1047 C 0.58434 0.46656 0.76649 0.0
C1048 C 0.58645 0.4678 0.72567 0.0
C1049 C 0.56568 0.45672 0.70272 0.0
C1050 C 0.5432 0.44399 0.72055 0.0
H1051 H 0.51578 0.37285 0.78845 0.0
H1052 H 0.52774 0.39401 0.74867 0.0
H1053 H 0.54353 0.40036 0.79413 0.0
H1054 H 0.56099 0.45292 0.8157 0.0
H1055 H 0.60003 0.47496 0.78489 0.0
H1056 H 0.636 0.08354 0.94253 0.0
H1057 H 0.62308 0.07536 0.87391 0.0
H1058 H 0.55469 0.06621 0.90664 0.0
H1059 H 0.56705 0.07351 0.97436 0.0
H1060 H 0.55033 0.03605 0.84771 0.0
H1061 H 0.62248 0.12882 0.81411 0.0
H1062 H 0.63074 0.10791 0.83206 0.0
H1063 H 0.61573 0.11828 0.86371 0.0
C1064 C 0.61804 0.07921 0.93502 0.0
C1065 C 0.60275 0.07977 0.96359 0.0
C1066 C 0.61074 0.07471 0.89583 0.0
C1067 C 0.58812 0.07078 0.88495 0.0
C1068 C 0.57227 0.06935 0.91413 0.0
H1069 H 0.50351 0.10252 0.77505 0.0
H1070 H 0.52194 0.08179 0.80584 0.0
C1071 C 0.57947 0.07377 0.95291 0.0
C1072 C 0.58131 0.07109 0.84365 0.0
H1073 H 0.58966 0.11168 0.77297 0.0
C1074 C 0.55936 0.05228 0.83058 0.0
C1075 C 0.59318 0.09216 0.82094 0.0
C1076 C 0.61679 0.11304 0.83325 0.0
C1077 C 0.54768 0.05511 0.79829 0.0
C1078 C 0.55827 0.07722 0.77865 0.0
C1079 C 0.58155 0.09478 0.78836 0.0
C1080 C 0.54376 0.08477 0.7559 0.0
C1081 C 0.52323 0.03516 0.78749 0.0
C1082 C 0.54967 0.09308 0.71732 0.0
C1083 C 0.5388 0.1047 0.69944 0.0
C1084 C 0.52248 0.10864 0.72047 0.0
C1085 C 0.51598 0.09953 0.75835 0.0
C1086 C 0.52636 0.08754 0.77578 0.0
H1087 H 0.52121 0.01754 0.79476 0.0
H1088 H 0.50966 0.03708 0.80438 0.0
H1089 H 0.51961 0.03561 0.7559 0.0
H1090 H 0.56334 0.09146 0.70177 0.0
H1091 H 0.54417 0.11185 0.67026 0.0
H1092 H 0.91897 0.41646 0.70956 0.0
H1093 H 0.93954 0.4532 0.74851 0.0
H1094 H 0.8725 0.45031 0.76902 0.0
H1095 H 0.85199 0.4139 0.73038 0.0
H1096 H 0.9157 0.49916 0.75632 0.0
H1097 H 0.92494 0.44251 0.86981 0.0
H1098 H 0.93603 0.44326 0.82135 0.0
H1099 H 0.90455 0.42939 0.82952 0.0
C1100 C 0.90878 0.42408 0.72148 0.0
C1101 C 0.88386 0.41222 0.71737 0.0
C1102 C 0.92052 0.44499 0.74378 0.0
C1103 C 0.90747 0.45431 0.76184 0.0
C1104 C 0.88288 0.44342 0.75527 0.0
H1105 H 0.88644 0.52893 0.93649 0.0
H1106 H 0.8941 0.51781 0.87231 0.0
C1107 C 0.87117 0.42252 0.73342 0.0
C1108 C 0.91821 0.47315 0.79197 0.0
H1109 H 0.92985 0.47903 0.88944 0.0
C1110 C 0.91949 0.49513 0.78527 0.0
C1111 C 0.92328 0.46789 0.82957 0.0
C1112 C 0.92212 0.4445 0.83837 0.0
C1113 C 0.92443 0.51145 0.81581 0.0
C1114 C 0.92733 0.50522 0.85421 0.0
C1115 C 0.92772 0.48395 0.86014 0.0
C1116 C 0.92657 0.51832 0.8894 0.0
C1117 C 0.92588 0.5349 0.80667 0.0
C1118 C 0.94244 0.52285 0.92051 0.0
C1119 C 0.93774 0.52877 0.95741 0.0
C1120 C 0.91738 0.53072 0.96361 0.0
C1121 C 0.90263 0.52823 0.93197 0.0
C1122 C 0.90709 0.52193 0.89519 0.0
H1123 H 0.93353 0.54124 0.77714 0.0
H1124 H 0.90765 0.53242 0.80665 0.0
H1125 H 0.93689 0.54883 0.82836 0.0
H1126 H 0.95745 0.52 0.91702 0.0
H1127 H 0.949 0.53003 0.98174 0.0
H1128 H 0.46255 0.56738 0.83341 0.0
H1129 H 0.44376 0.52753 0.803 0.0
H1130 H 0.46542 0.56041 0.68954 0.0
H1131 H 0.48399 0.59955 0.7194 0.0
H1132 H 0.40655 0.51187 0.75217 0.0
H1133 H 0.4782 0.50606 0.67694 0.0
H1134 H 0.48408 0.52623 0.71737 0.0
H1135 H 0.4821 0.53502 0.66814 0.0
C1136 C 0.46382 0.56592 0.80214 0.0
C1137 C 0.47459 0.58648 0.7787 0.0
C1138 C 0.4531 0.54322 0.7848 0.0
C1139 C 0.45358 0.54093 0.74399 0.0
C1140 C 0.46536 0.56158 0.72108 0.0
H1141 H 0.37294 0.50327 0.56408 0.0
H1142 H 0.38795 0.50876 0.63045 0.0
C1143 C 0.4757 0.58401 0.73818 0.0
C1144 C 0.43878 0.51782 0.72378 0.0
H1145 H 0.44042 0.49114 0.63901 0.0
C1146 C 0.41396 0.50657 0.72839 0.0
C1147 C 0.44825 0.51025 0.69335 0.0
C1148 C 0.47466 0.5199 0.68904 0.0
C1149 C 0.39858 0.49079 0.69995 0.0
C1150 C 0.40832 0.48654 0.66601 0.0
C1151 C 0.43288 0.49481 0.66456 0.0
C1152 C 0.39482 0.47932 0.62881 0.0
C1153 C 0.3721 0.48049 0.70483 0.0
C1154 C 0.39344 0.46076 0.60562 0.0
C1155 C 0.38456 0.45745 0.56734 0.0
C1156 C 0.37766 0.47313 0.55166 0.0
C1157 C 0.37811 0.49093 0.57553 0.0
C1158 C 0.38651 0.49393 0.61365 0.0
H1159 H 0.36699 0.47681 0.73609 0.0
H1160 H 0.3671 0.49364 0.69453 0.0
H1161 H 0.36185 0.46377 0.68788 0.0
H1162 H 0.40015 0.44954 0.61651 0.0
H1163 H 0.38466 0.4438 0.54923 0.0
H1164 H 0.42539 0.87175 0.83606 0.0
H1165 H 0.46426 0.88787 0.80339 0.0
H1166 H 0.44141 0.92013 0.71597 0.0
H1167 H 0.40318 0.90452 0.74892 0.0
H1168 H 0.46685 0.87273 0.73446 0.0
H1169 H 0.50973 0.9698 0.72106 0.0
H1170 H 0.48684 0.95352 0.75703 0.0
H1171 H 0.47907 0.95754 0.7081 0.0
C1172 C 0.42929 0.88329 0.81094 0.0
C1173 C 0.41164 0.88728 0.7951 0.0
C1174 C 0.4514 0.8924 0.7922 0.0
C1175 C 0.45603 0.90556 0.75742 0.0
C1176 C 0.43877 0.91077 0.74333 0.0
H1177 H 0.47917 0.90325 0.53572 0.0
H1178 H 0.47524 0.91031 0.6041 0.0
C1179 C 0.4168 0.90171 0.76201 0.0
C1180 C 0.47611 0.90962 0.7314 0.0
H1181 H 0.51196 0.94852 0.66139 0.0
C1182 C 0.47758 0.88961 0.71965 0.0
C1183 C 0.4904 0.93163 0.71219 0.0
C1184 C 0.49158 0.95434 0.72569 0.0
C1185 C 0.4904 0.89029 0.68617 0.0
C1186 C 0.50198 0.91147 0.66399 0.0
C1187 C 0.50288 0.93221 0.67828 0.0
C1188 C 0.5073 0.91057 0.62224 0.0
C1189 C 0.48928 0.86767 0.67222 0.0
C1190 C 0.527 0.90882 0.60957 0.0
C1191 C 0.52946 0.9049 0.56989 0.0
C1192 C 0.51199 0.90228 0.54279 0.0
C1193 C 0.4928 0.90483 0.55578 0.0
C1194 C 0.4906 0.90908 0.59489 0.0
H1195 H 0.48069 0.85302 0.69391 0.0
H1196 H 0.47904 0.86177 0.64454 0.0
H1197 H 0.50753 0.87102 0.66618 0.0
H1198 H 0.54003 0.90983 0.63042 0.0
H1199 H 0.54441 0.90298 0.56073 0.0
H1200 H 0.10169 0.53453 0.83493 0.0
H1201 H 0.08224 0.5547 0.80404 0.0
H1202 H 0.09001 0.52942 0.69151 0.0
H1203 H 0.10858 0.50903 0.72208 0.0
H1204 H 0.10474 0.59057 0.75266 0.0
H1205 H 0.02517 0.52121 0.67703 0.0
H1206 H 0.0368 0.51548 0.72121 0.0
H1207 H 0.04897 0.51472 0.6744 0.0
C1208 C 0.09828 0.53253 0.80386 0.0
C1209 C 0.10643 0.52008 0.78088 0.0
C1210 C 0.08731 0.54414 0.78621 0.0
C1211 C 0.0841 0.54312 0.74549 0.0
C1212 C 0.09142 0.52982 0.72303 0.0
H1213 H 0.13023 0.62605 0.56529 0.0
H1214 H 0.12058 0.61069 0.63145 0.0
C1215 C 0.1024 0.51843 0.74049 0.0
C1216 C 0.07714 0.55888 0.72487 0.0
H1217 H 0.04906 0.55851 0.6406 0.0
C1218 C 0.09186 0.5836 0.72909 0.0
C1219 C 0.05982 0.55004 0.6949 0.0
C1220 C 0.04157 0.52391 0.69189 0.0
C1221 C 0.09214 0.59935 0.70072 0.0
C1222 C 0.07782 0.59004 0.66698 0.0
C1223 C 0.06058 0.56571 0.66587 0.0
C1224 C 0.08421 0.60368 0.62982 0.0
C1225 C 0.10912 0.62568 0.7057 0.0
C1226 C 0.06705 0.60508 0.60659 0.0
C1227 C 0.07268 0.61406 0.56836 0.0
C1228 C 0.09535 0.62122 0.55283 0.0
C1229 C 0.11269 0.62083 0.57674 0.0
C1230 C 0.10721 0.6122 0.61474 0.0
H1231 H 0.11041 0.63079 0.73693 0.0
H1232 H 0.12718 0.62995 0.69606 0.0
H1233 H 0.10349 0.63651 0.68841 0.0
H1234 H 0.04909 0.59827 0.6174 0.0
H1235 H 0.0589 0.61383 0.55017 0.0
H1236 H 0.40274 0.55688 0.277 0.0
H1237 H 0.44009 0.57581 0.2414 0.0
H1238 H 0.45271 0.51877 0.2742 0.0
H1239 H 0.41447 0.49917 0.30964 0.0
H1240 H 0.48759 0.59211 0.25499 0.0
H1241 H 0.44867 0.51321 0.15569 0.0
H1242 H 0.43073 0.51677 0.19235 0.0
H1243 H 0.45252 0.50878 0.20635 0.0
C1244 C 0.41357 0.54845 0.27719 0.0
C1245 C 0.4054 0.52623 0.29524 0.0
C1246 C 0.43507 0.55942 0.25703 0.0
C1247 C 0.44899 0.54849 0.25434 0.0
C1248 C 0.44199 0.52728 0.27522 0.0
H1249 H 0.53605 0.59803 0.04054 0.0
H1250 H 0.52884 0.58219 0.10766 0.0
C1251 C 0.42026 0.5162 0.29567 0.0
C1252 C 0.4688 0.55825 0.22555 0.0
H1253 H 0.47895 0.54905 0.13117 0.0
C1254 C 0.48632 0.58246 0.22841 0.0
C1255 C 0.46723 0.54567 0.19082 0.0
C1256 C 0.44878 0.5197 0.18574 0.0
C1257 C 0.50057 0.5949 0.19623 0.0
C1258 C 0.49721 0.58285 0.16043 0.0
C1259 C 0.48159 0.55817 0.15878 0.0
C1260 C 0.50559 0.59593 0.12303 0.0
C1261 C 0.51787 0.62123 0.19987 0.0
C1262 C 0.49513 0.60905 0.10974 0.0
C1263 C 0.49886 0.61765 0.07156 0.0
C1264 C 0.51348 0.61367 0.04616 0.0
C1265 C 0.52509 0.6017 0.05997 0.0
C1266 C 0.52092 0.59261 0.09812 0.0
H1267 H 0.52369 0.62629 0.23059 0.0
H1268 H 0.53378 0.62668 0.18119 0.0
H1269 H 0.50901 0.63124 0.19021 0.0
H1270 H 0.48286 0.61139 0.12817 0.0
H1271 H 0.48951 0.62656 0.06132 0.0
H1272 H 0.38533 0.93706 0.04855 0.0
H1273 H 0.40027 0.94591 0.11626 0.0
H1274 H 0.38197 0.87262 0.13136 0.0
H1275 H 0.36757 0.86394 0.06427 0.0
H1276 H 0.37296 0.89712 0.20007 0.0
H1277 H 0.46448 0.94444 0.13666 0.0
H1278 H 0.4425 0.95212 0.12172 0.0
H1279 H 0.43958 0.92427 0.10675 0.0
C1280 C 0.38384 0.92277 0.06691 0.0
C1281 C 0.37535 0.89983 0.05144 0.0
C1282 C 0.39247 0.92785 0.10537 0.0
C1283 C 0.39229 0.90991 0.12867 0.0
C1284 C 0.38216 0.88667 0.11394 0.0
H1285 H 0.43061 0.84336 0.27513 0.0
H1286 H 0.4105 0.86228 0.24493 0.0
C1287 C 0.37397 0.88173 0.07563 0.0
C1288 C 0.40523 0.91516 0.16626 0.0
H1289 H 0.46007 0.92802 0.19884 0.0
C1290 C 0.39215 0.90469 0.20035 0.0
C1291 C 0.43028 0.92539 0.16682 0.0
C1292 C 0.44519 0.93726 0.13115 0.0
C1293 C 0.40317 0.90191 0.23362 0.0
C1294 C 0.42769 0.90909 0.23216 0.0
C1295 C 0.44123 0.92225 0.19988 0.0
C1296 C 0.43811 0.89837 0.25828 0.0
C1297 C 0.38812 0.88983 0.26903 0.0
C1298 C 0.46045 0.91225 0.27622 0.0
C1299 C 0.4722 0.90131 0.29348 0.0
C1300 C 0.4619 0.87639 0.29227 0.0
C1301 C 0.43905 0.86261 0.27627 0.0
C1302 C 0.42734 0.87345 0.25944 0.0
H1303 H 0.37439 0.89513 0.27307 0.0
H1304 H 0.37861 0.87023 0.26467 0.0
H1305 H 0.39906 0.89423 0.29594 0.0
H1306 H 0.46925 0.93152 0.27525 0.0
H1307 H 0.48988 0.91233 0.30541 0.0
H1308 H 0.07073 0.44928 0.05789 0.0
H1309 H 0.05992 0.45385 0.1251 0.0
H1310 H 0.09267 0.52967 0.10723 0.0
H1311 H 0.10313 0.52544 0.04135 0.0
H1312 H 0.0884 0.4797 0.18711 0.0
H1313 H 0.02916 0.5147 0.15202 0.0
H1314 H 0.03674 0.499 0.11636 0.0
H1315 H 0.05577 0.53065 0.12361 0.0
C1316 C 0.07548 0.46687 0.06835 0.0
C1317 C 0.0877 0.48694 0.04396 0.0
C1318 C 0.06921 0.46943 0.10666 0.0
C1319 C 0.07483 0.49202 0.12081 0.0
C1320 C 0.08735 0.51195 0.09664 0.0
H1321 H 0.1443 0.58369 0.28126 0.0
H1322 H 0.1236 0.54578 0.24818 0.0
C1323 C 0.09357 0.50946 0.05884 0.0
C1324 C 0.06962 0.49596 0.1615 0.0
H1325 H 0.05588 0.53363 0.20909 0.0
C1326 C 0.0805 0.49077 0.19238 0.0
C1327 C 0.05835 0.50944 0.16919 0.0
C1328 C 0.04408 0.51346 0.13849 0.0
C1329 C 0.08358 0.50179 0.22895 0.0
C1330 C 0.0764 0.519 0.23405 0.0
C1331 C 0.06216 0.52109 0.2052 0.0
C1332 C 0.08811 0.53867 0.26307 0.0
C1333 C 0.0959 0.49602 0.26085 0.0
C1334 C 0.07529 0.54764 0.28327 0.0
C1335 C 0.08734 0.56994 0.30189 0.0
C1336 C 0.11232 0.58361 0.3001 0.0
C1337 C 0.12502 0.57369 0.28277 0.0
C1338 C 0.1131 0.55165 0.2643 0.0
H1339 H 0.08935 0.47657 0.26137 0.0
H1340 H 0.11531 0.50513 0.25477 0.0
H1341 H 0.09296 0.50158 0.29002 0.0
H1342 H 0.056 0.53809 0.28261 0.0
H1343 H 0.07712 0.57717 0.31505 0.0
H1344 H 0.52921 0.42759 0.17011 0.0
H1345 H 0.5465 0.46657 0.20344 0.0
H1346 H 0.52472 0.43055 0.31446 0.0
H1347 H 0.50773 0.39217 0.28176 0.0
H1348 H 0.51749 0.47324 0.30058 0.0
H1349 H 0.60885 0.48816 0.27426 0.0
H1350 H 0.58767 0.48049 0.23503 0.0
H1351 H 0.58377 0.45834 0.27023 0.0
C1352 C 0.5277 0.42816 0.20151 0.0
C1353 C 0.51726 0.40699 0.22349 0.0
C1354 C 0.53763 0.45033 0.22046 0.0
C1355 C 0.53685 0.45135 0.26138 0.0
C1356 C 0.52539 0.43014 0.28286 0.0
H1357 H 0.56235 0.47644 0.47795 0.0
H1358 H 0.54812 0.47283 0.41166 0.0
C1359 C 0.51584 0.40823 0.26418 0.0
C1360 C 0.54979 0.47387 0.28355 0.0
H1361 H 0.60241 0.50336 0.33269 0.0
C1362 C 0.53634 0.48077 0.30655 0.0
C1363 C 0.57442 0.48394 0.29095 0.0
C1364 C 0.5897 0.47753 0.26636 0.0
C1365 C 0.54617 0.49484 0.33996 0.0
C1366 C 0.5698 0.50169 0.35079 0.0
C1367 C 0.58419 0.49783 0.32462 0.0
C1368 C 0.5775 0.50658 0.39212 0.0
C1369 C 0.53048 0.50029 0.36537 0.0
C1370 C 0.59904 0.52668 0.40335 0.0
C1371 C 0.60739 0.52882 0.44181 0.0
C1372 C 0.59456 0.51057 0.46912 0.0
C1373 C 0.57285 0.49075 0.45769 0.0
C1374 C 0.56444 0.48883 0.4198 0.0
H1375 H 0.51793 0.50317 0.34725 0.0
H1376 H 0.51965 0.48485 0.38477 0.0
H1377 H 0.54114 0.51629 0.38376 0.0
H1378 H 0.6096 0.54038 0.3822 0.0
H1379 H 0.62421 0.54426 0.44972 0.0
H1380 H 0.5059 0.07651 0.47394 0.0
H1381 H 0.51354 0.07519 0.40464 0.0
H1382 H 0.46204 0.09646 0.37648 0.0
H1383 H 0.4538 0.0973 0.44647 0.0
H1384 H 0.48111 0.05431 0.32846 0.0
H1385 H 0.53422 0.15287 0.34937 0.0
H1386 H 0.52602 0.13303 0.39068 0.0
H1387 H 0.50368 0.13642 0.36545 0.0
C1388 C 0.49563 0.08021 0.45301 0.0
C1389 C 0.47942 0.08724 0.46555 0.0
C1390 C 0.4999 0.07927 0.41341 0.0
C1391 C 0.48841 0.08579 0.38558 0.0
C1392 C 0.47094 0.0912 0.39767 0.0
H1393 H 0.58183 0.15148 0.18838 0.0
H1394 H 0.54408 0.13594 0.2236 0.0
C1395 C 0.46628 0.0917 0.43755 0.0
C1396 C 0.49831 0.09118 0.34562 0.0
H1397 H 0.54317 0.13693 0.29552 0.0
C1398 C 0.49422 0.07242 0.32048 0.0
C1399 C 0.51525 0.1148 0.33532 0.0
C1400 C 0.52022 0.13556 0.36145 0.0
C1401 C 0.50764 0.07664 0.28609 0.0
C1402 C 0.52623 0.10008 0.27769 0.0
C1403 C 0.52903 0.11893 0.30166 0.0
C1404 C 0.54493 0.10545 0.24773 0.0
C1405 C 0.50195 0.05586 0.25967 0.0
C1406 C 0.55746 0.09288 0.24766 0.0
C1407 C 0.57859 0.10135 0.22637 0.0
C1408 C 0.58792 0.12291 0.20597 0.0
C1409 C 0.57485 0.13477 0.20406 0.0
C1410 C 0.55333 0.12591 0.22423 0.0
H1411 H 0.4825 0.04293 0.25969 0.0
H1412 H 0.50779 0.06165 0.22919 0.0
H1413 H 0.511 0.04633 0.27078 0.0
H1414 H 0.55198 0.07754 0.26633 0.0
H1415 H 0.58862 0.09212 0.22852 0.0
H1416 H 0.91177 0.50193 0.20413 0.0
H1417 H 0.9332 0.48785 0.24537 0.0
H1418 H 0.86924 0.41952 0.25662 0.0
H1419 H 0.84765 0.4336 0.21636 0.0
H1420 H 0.90754 0.46971 0.32479 0.0
H1421 H 0.92916 0.40716 0.24861 0.0
H1422 H 0.92844 0.43146 0.22381 0.0
H1423 H 0.90113 0.40525 0.23707 0.0
C1424 C 0.90255 0.48364 0.21421 0.0
C1425 C 0.878 0.46891 0.20752 0.0
C1426 C 0.91481 0.47562 0.23768 0.0
C1427 C 0.9028 0.4526 0.25374 0.0
C1428 C 0.87888 0.43721 0.24402 0.0
H1429 H 0.89592 0.36662 0.44256 0.0
H1430 H 0.89893 0.38306 0.37703 0.0
C1431 C 0.86653 0.44533 0.22128 0.0
C1432 C 0.91305 0.44638 0.28718 0.0
H1433 H 0.92937 0.40654 0.31821 0.0
C1434 C 0.91289 0.45631 0.32338 0.0
C1435 C 0.91942 0.42855 0.28504 0.0
C1436 C 0.91974 0.41748 0.24655 0.0
C1437 C 0.91755 0.44791 0.35801 0.0
C1438 C 0.92379 0.42982 0.35621 0.0
C1439 C 0.9249 0.42057 0.31962 0.0
C1440 C 0.92659 0.41875 0.39235 0.0
C1441 C 0.91396 0.45735 0.39621 0.0
C1442 C 0.94224 0.43291 0.42203 0.0
C1443 C 0.94008 0.42367 0.45961 0.0
C1444 C 0.92302 0.39986 0.46755 0.0
C1445 C 0.9094 0.38495 0.43687 0.0
C1446 C 0.91109 0.39438 0.39949 0.0
H1447 H 0.90313 0.46615 0.39254 0.0
H1448 H 0.905 0.44289 0.41807 0.0
H1449 H 0.93154 0.47083 0.40789 0.0
H1450 H 0.95482 0.45158 0.41693 0.0
H1451 H 0.95068 0.43549 0.483 0.0
H1452 H 0.28171 0.37986 0.31565 0.0
H1453 H 0.28812 0.34869 0.28836 0.0
H1454 H 0.36125 0.38697 0.3269 0.0
H1455 H 0.35491 0.41783 0.35496 0.0
H1456 H 0.31756 0.35686 0.2294 0.0
H1457 H 0.3448 0.31992 0.35051 0.0
H1458 H 0.33009 0.33697 0.35872 0.0
H1459 H 0.36192 0.3518 0.35174 0.0
C1460 C 0.29898 0.38132 0.31929 0.0
C1461 C 0.31788 0.40149 0.33713 0.0
C1462 C 0.30259 0.36346 0.30367 0.0
C1463 C 0.32509 0.36539 0.3058 0.0
C1464 C 0.34357 0.38478 0.32567 0.0
H1465 H 0.41416 0.35231 0.15108 0.0
H1466 H 0.38349 0.35788 0.18167 0.0
C1467 C 0.33996 0.40256 0.34148 0.0
C1468 C 0.33046 0.34938 0.28255 0.0
H1469 H 0.36196 0.32027 0.28657 0.0
C1470 C 0.32669 0.34828 0.24204 0.0
C1471 C 0.34188 0.33771 0.29895 0.0
C1472 C 0.34464 0.33645 0.34245 0.0
C1473 C 0.33601 0.33775 0.21723 0.0
C1474 C 0.34985 0.32859 0.23333 0.0
C1475 C 0.35167 0.32767 0.27408 0.0
C1476 C 0.36528 0.32303 0.20886 0.0
C1477 C 0.33166 0.33737 0.17393 0.0
C1478 C 0.36514 0.30146 0.21349 0.0
C1479 C 0.38293 0.29831 0.19631 0.0
C1480 C 0.40128 0.3168 0.1745 0.0
C1481 C 0.40037 0.33772 0.16773 0.0
C1482 C 0.38266 0.34086 0.18498 0.0
H1483 H 0.31413 0.33592 0.16801 0.0
H1484 H 0.34559 0.35433 0.16081 0.0
H1485 H 0.3322 0.32234 0.15937 0.0
H1486 H 0.35193 0.28751 0.23191 0.0
H1487 H 0.38302 0.28192 0.20198 0.0
H1488 H 0.56833 0.93251 0.34776 0.0
H1489 H 0.59862 0.97017 0.32002 0.0
H1490 H 0.64021 0.93794 0.28619 0.0
H1491 H 0.60949 0.89977 0.31284 0.0
H1492 H 0.6462 0.00085 0.32805 0.0
H1493 H 0.6262 0.95753 0.18181 0.0
H1494 H 0.60846 0.94279 0.22424 0.0
H1495 H 0.63716 0.94531 0.21788 0.0
C1496 C 0.5841 0.93344 0.33511 0.0
C1497 C 0.58623 0.91298 0.33174 0.0
C1498 C 0.60145 0.95505 0.31927 0.0
C1499 C 0.62134 0.95667 0.30009 0.0
C1500 C 0.62465 0.93687 0.29989 0.0
H1501 H 0.70999 0.10025 0.19939 0.0
H1502 H 0.70228 0.06307 0.23063 0.0
C1503 C 0.60714 0.91512 0.31535 0.0
C1504 C 0.63704 0.97842 0.27734 0.0
H1505 H 0.65066 -0.00113 0.18369 0.0
C1506 C 0.64761 0.00048 0.29654 0.0
C1507 C 0.63867 0.97777 0.23617 0.0
C1508 C 0.62691 0.95464 0.21363 0.0
C1509 C 0.65844 0.02196 0.27558 0.0
C1510 C 0.65925 0.02128 0.23432 0.0
C1511 C 0.65009 -0.00074 0.21531 0.0
C1512 C 0.66587 0.04271 0.21032 0.0
C1513 C 0.66728 0.04505 0.29764 0.0
C1514 C 0.64849 0.04314 0.1865 0.0
C1515 C 0.65291 0.06416 0.1682 0.0
C1516 C 0.67479 0.08526 0.17355 0.0
C1517 C 0.69283 0.08438 0.19507 0.0
C1518 C 0.68842 0.0632 0.21318 0.0
H1519 H 0.66162 0.04205 0.32872 0.0
H1520 H 0.68703 0.05525 0.29684 0.0
H1521 H 0.66063 0.05614 0.28397 0.0
H1522 H 0.63099 0.02748 0.18368 0.0
H1523 H 0.63867 0.0641 0.15163 0.0
H1524 H 0.06247 0.6488 0.37688 0.0
H1525 H 0.02334 0.63807 0.35046 0.0
H1526 H 0.05671 0.69216 0.26184 0.0
H1527 H 0.09581 0.70351 0.28866 0.0
H1528 H 0.01147 0.68442 0.28479 0.0
H1529 H 0.01099 0.60059 0.24844 0.0
H1530 H 0.01329 0.60713 0.29967 0.0
H1531 H 0.037 0.62648 0.26728 0.0
C1532 C 0.06145 0.65887 0.35249 0.0
C1533 C 0.08223 0.67657 0.33421 0.0
C1534 C 0.0391 0.65272 0.33743 0.0
C1535 C 0.03728 0.66388 0.30357 0.0
C1536 C 0.0578 0.68322 0.28783 0.0
H1537 H 0.92897 0.58588 0.13294 0.0
H1538 H 0.96689 0.61409 0.16305 0.0
C1539 C 0.08015 0.68963 0.30318 0.0
C1540 C 0.01486 0.65308 0.28105 0.0
H1541 H 0.97692 0.60258 0.23149 0.0
C1542 C 0.00381 0.66653 0.2731 0.0
C1543 C 0.00538 0.62998 0.26501 0.0
C1544 C 0.01736 0.61526 0.27014 0.0
C1545 C 0.98317 0.65722 0.24997 0.0
C1546 C 0.97331 0.63382 0.23504 0.0
C1547 C 0.98454 0.62056 0.24284 0.0
C1548 C 0.95097 0.62202 0.21217 0.0
C1549 C 0.9724 0.67264 0.24117 0.0
C1550 C 0.9295 0.618 0.22883 0.0
C1551 C 0.90779 0.60213 0.21132 0.0
C1552 C 0.90729 0.58967 0.17741 0.0
C1553 C 0.92883 0.59505 0.15927 0.0
C1554 C 0.9505 0.61119 0.17642 0.0
H1555 H 0.98578 0.69188 0.24399 0.0
H1556 H 0.96477 0.66927 0.21129 0.0
H1557 H 0.95787 0.6685 0.26233 0.0
H1558 H 0.92938 0.62575 0.25677 0.0
H1559 H 0.89144 0.59824 0.22606 0.0
H1560 H 0.57343 0.63738 0.85487 0.0
H1561 H 0.60355 0.63017 0.8261 0.0
H1562 H 0.64104 0.70219 0.78215 0.0
H1563 H 0.61068 0.70951 0.8103 0.0
H1564 H 0.62958 0.67022 0.72481 0.0
H1565 H 0.67167 0.64724 0.84391 0.0
H1566 H 0.63988 0.63057 0.84854 0.0
H1567 H 0.65528 0.66259 0.85263 0.0
C1568 C 0.58843 0.65196 0.84013 0.0
C1569 C 0.58941 0.67391 0.83436 0.0
C1570 C 0.60579 0.64784 0.82389 0.0
C1571 C 0.62461 0.66568 0.8021 0.0
C1572 C 0.62666 0.6882 0.7989 0.0
H1573 H 0.70746 0.60868 0.69242 0.0
H1574 H 0.70098 0.63927 0.72202 0.0
C1575 C 0.60926 0.69233 0.81504 0.0
C1576 C 0.6396 0.65946 0.77779 0.0
H1577 H 0.66952 0.62873 0.78078 0.0
C1578 C 0.63887 0.66171 0.73709 0.0
C1579 C 0.65205 0.64873 0.79372 0.0
C1580 C 0.65499 0.64739 0.83714 0.0
C1581 C 0.64854 0.65171 0.71189 0.0
C1582 C 0.65879 0.63881 0.72785 0.0
C1583 C 0.66133 0.63835 0.76851 0.0
C1584 C 0.66424 0.62326 0.70359 0.0
C1585 C 0.64692 0.65434 0.66844 0.0
C1586 C 0.64592 0.6045 0.68243 0.0
C1587 C 0.64953 0.58701 0.66541 0.0
C1588 C 0.67148 0.58779 0.66968 0.0
C1589 C 0.69029 0.60745 0.68873 0.0
C1590 C 0.68664 0.62497 0.70572 0.0
H1591 H 0.64707 0.67115 0.66137 0.0
H1592 H 0.66184 0.65419 0.65274 0.0
H1593 H 0.62989 0.63933 0.65753 0.0
H1594 H 0.62833 0.60254 0.68107 0.0
H1595 H 0.63467 0.57217 0.65096 0.0
H1596 H 0.3561 0.93535 0.85555 0.0
H1597 H 0.36307 0.97277 0.8276 0.0
H1598 H 0.29147 0.93783 0.78193 0.0
H1599 H 0.28447 0.90001 0.80909 0.0
H1600 H 0.32273 0.95972 0.72575 0.0
H1601 H 0.34574 0.02302 0.84735 0.0
H1602 H 0.36301 0.00849 0.85083 0.0
H1603 H 0.33101 0.99121 0.85513 0.0
C1604 C 0.34155 0.93568 0.84059 0.0
C1605 C 0.31982 0.91459 0.83413 0.0
C1606 C 0.34553 0.95721 0.8248 0.0
C1607 C 0.32773 0.95818 0.80287 0.0
C1608 C 0.30543 0.9375 0.79881 0.0
H1609 H 0.38747 0.10027 0.70029 0.0
H1610 H 0.35611 0.06321 0.7289 0.0
C1611 C 0.30147 0.91589 0.81439 0.0
C1612 C 0.33383 0.97974 0.77949 0.0
H1613 H 0.3649 0.04035 0.78472 0.0
C1614 C 0.33138 0.97735 0.73874 0.0
C1615 C 0.34465 0.00273 0.79627 0.0
C1616 C 0.34599 0.00646 0.83985 0.0
C1617 C 0.34135 0.99737 0.71426 0.0
C1618 C 0.35456 0.0203 0.73098 0.0
C1619 C 0.35512 0.02274 0.77178 0.0
C1620 C 0.37044 0.04156 0.70733 0.0
C1621 C 0.33832 0.99368 0.67072 0.0
C1622 C 0.3885 0.04155 0.68471 0.0
C1623 C 0.40635 0.06263 0.66815 0.0
C1624 C 0.40673 0.08425 0.67442 0.0
C1625 C 0.38779 0.08396 0.69503 0.0
C1626 C 0.36985 0.0628 0.71146 0.0
H1627 H 0.32106 0.97754 0.66362 0.0
H1628 H 0.33912 0.00927 0.65577 0.0
H1629 H 0.35272 0.99091 0.65901 0.0
H1630 H 0.38969 0.02554 0.68183 0.0
H1631 H 0.42063 0.06215 0.6525 0.0
H1632 H 0.89754 0.28545 0.69338 0.0
H1633 H 0.93317 0.2902 0.72629 0.0
H1634 H 0.97242 0.36343 0.68831 0.0
H1635 H 0.93736 0.35873 0.65461 0.0
H1636 H -0.00023 0.34213 0.68836 0.0
H1637 H 0.95085 0.32638 0.82906 0.0
H1638 H 0.93862 0.30261 0.79397 0.0
H1639 H 0.93897 0.32995 0.78364 0.0
C1640 C 0.91392 0.30241 0.69128 0.0
C1641 C 0.91447 0.32188 0.67201 0.0
C1642 C 0.9342 0.30511 0.71033 0.0
C1643 C 0.95521 0.32734 0.71064 0.0
C1644 C 0.95632 0.34615 0.68869 0.0
H1645 H 0.0583 0.42153 0.85595 0.0
H1646 H 0.02185 0.3903 0.8266 0.0
C1647 C 0.93619 0.34344 0.66945 0.0
C1648 C 0.9754 0.33222 0.73658 0.0
H1649 H 0.99198 0.34225 0.83237 0.0
C1650 C -0.0019 0.34166 0.7199 0.0
C1651 C 0.97304 0.33161 0.77772 0.0
C1652 C 0.94913 0.32225 0.79736 0.0
C1653 C 0.0187 0.35232 0.74303 0.0
C1654 C 0.01639 0.35288 0.78409 0.0
C1655 C 0.99361 0.34169 0.80093 0.0
C1656 C 0.03703 0.36861 0.80895 0.0
C1657 C 0.04268 0.36467 0.72301 0.0
C1658 C 0.05728 0.36611 0.81083 0.0
C1659 C 0.07836 0.38418 0.82724 0.0
C1660 C 0.07934 0.40485 0.8424 0.0
C1661 C 0.05829 0.40602 0.84417 0.0
C1662 C 0.03736 0.38811 0.82742 0.0
H1663 H 0.04108 0.3657 0.69088 0.0
H1664 H 0.0538 0.38304 0.73445 0.0
H1665 H 0.05213 0.35467 0.7288 0.0
H1666 H 0.05717 0.35085 0.79771 0.0
H1667 H 0.09418 0.38255 0.82602 0.0
H1668 H 0.48477 0.17234 0.84246 0.0
H1669 H 0.47394 0.1835 0.90378 0.0
H1670 H 0.42621 0.20035 0.84218 0.0
H1671 H 0.43664 0.18879 0.78051 0.0
H1672 H 0.48312 0.22851 0.91707 0.0
H1673 H 0.38684 0.16515 0.93789 0.0
H1674 H 0.40505 0.1595 0.90453 0.0
H1675 H 0.39386 0.17883 0.89053 0.0
C1676 C 0.4717 0.17809 0.84191 0.0
C1677 C 0.46173 0.17991 0.8065 0.0
C1678 C 0.46544 0.18433 0.87706 0.0
C1679 C 0.4491 0.19249 0.8776 0.0
C1680 C 0.43846 0.19356 0.84254 0.0
H1681 H 0.41707 0.27995 0.01526 0.0
H1682 H 0.41548 0.24924 0.97241 0.0
C1683 C 0.4446 0.18716 0.80726 0.0
C1684 C 0.44568 0.20283 0.91384 0.0
H1685 H 0.40357 0.20128 0.97555 0.0
C1686 C 0.4658 0.22229 0.93034 0.0
C1687 C 0.42303 0.19469 0.93087 0.0
C1688 C 0.40098 0.17324 0.91528 0.0
C1689 C 0.4638 0.23463 0.96228 0.0
C1690 C 0.44106 0.22694 0.97874 0.0
C1691 C 0.42098 0.20699 0.96303 0.0
C1692 C 0.43769 0.24119 0.00911 0.0
C1693 C 0.48591 0.25662 0.97664 0.0
C1694 C 0.44961 0.24586 0.04503 0.0
C1695 C 0.45082 0.26369 0.0695 0.0
C1696 C 0.43992 0.2769 0.05849 0.0
C1697 C 0.42596 0.27039 0.02441 0.0
C1698 C 0.42493 0.25273 0.99989 0.0
H1699 H 0.50102 0.26268 0.95586 0.0
H1700 H 0.48234 0.2715 0.98136 0.0
H1701 H 0.49152 0.25262 0.00489 0.0
H1702 H 0.45914 0.23674 0.05302 0.0
H1703 H 0.4614 0.26799 0.09583 0.0
H1704 H 0.72794 0.19313 0.08383 0.0
H1705 H 0.7578 0.22021 0.03726 0.0
H1706 H 0.74261 0.16081 0.96233 0.0
H1707 H 0.71318 0.13356 0.00894 0.0
H1708 H 0.79115 0.19754 0.96087 0.0
H1709 H 0.72817 0.23139 0.93923 0.0
H1710 H 0.73925 0.23391 0.98804 0.0
H1711 H 0.7204 0.20494 0.96724 0.0
C1712 C 0.73138 0.18572 0.058 0.0
C1713 C 0.71771 0.16124 0.04968 0.0
C1714 C 0.74842 0.20125 0.03135 0.0
C1715 C 0.75189 0.19253 0.99594 0.0
C1716 C 0.74002 0.1679 0.98938 0.0
H1717 H 0.80516 0.24369 0.76449 0.0
H1718 H 0.79224 0.22071 0.82525 0.0
C1719 C 0.72312 0.15235 0.01607 0.0
C1720 C 0.76516 0.20894 0.96357 0.0
H1721 H 0.76228 0.24787 0.89991 0.0
C1722 C 0.78503 0.20874 0.94768 0.0
C1723 C 0.75689 0.22327 0.94621 0.0
C1724 C 0.7349 0.22334 0.96073 0.0
C1725 C 0.79694 0.22264 0.91486 0.0
C1726 C 0.78845 0.23671 0.89731 0.0
C1727 C 0.7688 0.23712 0.91357 0.0
C1728 C 0.7991 0.25087 0.86149 0.0
C1729 C 0.81853 0.22225 0.8994 0.0
C1730 C 0.80711 0.27535 0.86171 0.0
C1731 C 0.81411 0.28839 0.82711 0.0
C1732 C 0.81326 0.27721 0.79147 0.0
C1733 C 0.80606 0.25283 0.79146 0.0
C1734 C 0.79887 0.23971 0.8262 0.0
H1735 H 0.82657 0.21609 0.92192 0.0
H1736 H 0.81315 0.20975 0.87436 0.0
H1737 H 0.83226 0.24017 0.88904 0.0
H1738 H 0.80734 0.28427 0.8886 0.0
H1739 H 0.81979 0.30719 0.8283 0.0
H1740 H 0.80001 0.52619 0.06941 0.0
H1741 H 0.77687 0.53333 0.02034 0.0
H1742 H 0.8395 0.59899 0.98726 0.0
H1743 H 0.86288 0.59185 0.0357 0.0
H1744 H 0.76849 0.5721 0.99651 0.0
H1745 H 0.8234 0.55415 0.89162 0.0
H1746 H 0.82279 0.54816 0.94313 0.0
H1747 H 0.83943 0.57821 0.92536 0.0
C1748 C 0.8087 0.54252 0.05256 0.0
C1749 C 0.83337 0.5582 0.05574 0.0
C1750 C 0.79545 0.54657 0.02454 0.0
C1751 C 0.80667 0.5664 0.99969 0.0
C1752 C 0.83067 0.58337 0.00575 0.0
H1753 H 0.75278 0.57052 0.76693 0.0
H1754 H 0.77731 0.58484 0.82597 0.0
C1755 C 0.84397 0.57926 0.03345 0.0
C1756 C 0.79428 0.56735 0.96414 0.0
H1757 H 0.79285 0.55909 0.86565 0.0
C1758 C 0.77394 0.56957 0.96781 0.0
C1759 C 0.80154 0.5641 0.92676 0.0
C1760 C 0.82286 0.56084 0.92125 0.0
C1761 C 0.76026 0.56803 0.93499 0.0
C1762 C 0.76692 0.56368 0.89789 0.0
C1763 C 0.78786 0.56254 0.8941 0.0
C1764 C 0.75111 0.55729 0.86346 0.0
C1765 C 0.73865 0.57074 0.94046 0.0
C1766 C 0.72833 0.53709 0.865 0.0
C1767 C 0.71438 0.52885 0.83149 0.0
C1768 C 0.72298 0.5405 0.79549 0.0
C1769 C 0.74563 0.56111 0.79413 0.0
C1770 C 0.75962 0.56936 0.82784 0.0
H1771 H 0.7408 0.58215 0.9661 0.0
H1772 H 0.73519 0.57859 0.9142 0.0
H1773 H 0.72284 0.55295 0.94584 0.0
H1774 H 0.72167 0.52708 0.89185 0.0
H1775 H 0.69703 0.51294 0.83375 0.0
H1776 H 0.26951 0.46633 0.43105 0.0
H1777 H 0.23895 0.45999 0.47923 0.0
H1778 H 0.23833 0.39684 0.52047 0.0
H1779 H 0.26904 0.40317 0.4729 0.0
H1780 H 0.19192 0.42 0.50566 0.0
H1781 H 0.26622 0.44636 0.6114 0.0
H1782 H 0.27117 0.45067 0.5595 0.0
H1783 H 0.2597 0.42151 0.58027 0.0
C1784 C 0.2623 0.45066 0.44948 0.0
C1785 C 0.272 0.43551 0.44877 0.0
C1786 C 0.24486 0.44708 0.47702 0.0
C1787 C 0.23683 0.42824 0.50386 0.0
C1788 C 0.24462 0.41168 0.50036 0.0
H1789 H 0.17727 0.42368 0.73493 0.0
H1790 H 0.1892 0.41056 0.67635 0.0
C1791 C 0.26214 0.41534 0.47314 0.0
C1792 C 0.22325 0.42797 0.53875 0.0
H1793 H 0.22956 0.43883 0.63669 0.0
C1794 C 0.2 0.4239 0.5344 0.0
C1795 C 0.23391 0.43303 0.57617 0.0
C1796 C 0.25917 0.43833 0.58233 0.0
C1797 C 0.18717 0.42502 0.56663 0.0
C1798 C 0.19814 0.43086 0.60384 0.0
C1799 C 0.22112 0.4342 0.60823 0.0
C1800 C 0.18735 0.43607 0.63787 0.0
C1801 C 0.16205 0.42004 0.56048 0.0
C1802 C 0.18219 0.45462 0.63562 0.0
C1803 C 0.17541 0.46213 0.66889 0.0
C1804 C 0.17388 0.45145 0.70537 0.0
C1805 C 0.17829 0.43232 0.70737 0.0
C1806 C 0.18507 0.42477 0.67391 0.0
H1807 H 0.15357 0.408 0.53517 0.0
H1808 H 0.15086 0.41186 0.58677 0.0
H1809 H 0.16245 0.43704 0.5542 0.0
H1810 H 0.18445 0.46405 0.60844 0.0
H1811 H 0.17213 0.4769 0.66612 0.0
H1812 H 0.57354 0.74965 0.72152 0.0
H1813 H 0.58585 0.77418 0.66236 0.0
H1814 H 0.52494 0.71937 0.60107 0.0
H1815 H 0.51288 0.69456 0.65926 0.0
H1816 H 0.56504 0.74113 0.55425 0.0
H1817 H 0.54956 0.80776 0.6315 0.0
H1818 H 0.57134 0.80204 0.65344 0.0
H1819 H 0.54063 0.77885 0.65185 0.0
C1820 C 0.56294 0.74269 0.69532 0.0
C1821 C 0.542 0.72028 0.69541 0.0
C1822 C 0.56997 0.75676 0.66157 0.0
C1823 C 0.55603 0.74877 0.62759 0.0
C1824 C 0.53592 0.72591 0.627 0.0
H1825 H 0.52357 0.79868 0.42143 0.0
H1826 H 0.53149 0.77466 0.4675 0.0
C1827 C 0.52899 0.7118 0.66048 0.0
C1828 C 0.5609 0.76473 0.59365 0.0
H1829 H 0.56021 0.81486 0.56566 0.0
C1830 C 0.5643 0.75743 0.55673 0.0
C1831 C 0.55973 0.78588 0.59696 0.0
C1832 C 0.55492 0.79408 0.63544 0.0
C1833 C 0.56614 0.77054 0.52292 0.0
C1834 C 0.56434 0.79131 0.52622 0.0
C1835 C 0.56176 0.799 0.56326 0.0
C1836 C 0.56316 0.80457 0.4919 0.0
C1837 C 0.56974 0.76194 0.484 0.0
C1838 C 0.57873 0.82923 0.48944 0.0
C1839 C 0.57407 0.84299 0.46353 0.0
C1840 C 0.55374 0.83234 0.43959 0.0
C1841 C 0.53941 0.80738 0.43942 0.0
C1842 C 0.54398 0.79361 0.46567 0.0
H1843 H 0.57794 0.75054 0.48745 0.0
H1844 H 0.55219 0.75112 0.46962 0.0
H1845 H 0.58119 0.77714 0.46455 0.0
H1846 H 0.59361 0.83803 0.50939 0.0
H1847 H 0.58558 0.86217 0.46401 0.0
H1848 H 0.31399 0.82886 0.65969 0.0
H1849 H 0.2937 0.81775 0.59685 0.0
H1850 H 0.22819 0.80372 0.65227 0.0
H1851 H 0.24842 0.81514 0.71543 0.0
H1852 H 0.25702 0.77293 0.58337 0.0
H1853 H 0.22806 0.8385 0.55294 0.0
H1854 H 0.25088 0.84383 0.5883 0.0
H1855 H 0.2199 0.82566 0.60082 0.0
C1856 C 0.29535 0.82381 0.65854 0.0
C1857 C 0.28277 0.82267 0.69274 0.0
C1858 C 0.28382 0.81756 0.6225 0.0
C1859 C 0.25952 0.81014 0.61979 0.0
C1860 C 0.24709 0.80991 0.65354 0.0
H1861 H 0.14092 0.72405 0.48106 0.0
H1862 H 0.17076 0.75532 0.52218 0.0
C1863 C 0.25865 0.81626 0.6897 0.0
C1864 C 0.24656 0.79963 0.58293 0.0
H1865 H 0.2081 0.80167 0.5171 0.0
C1866 C 0.24669 0.77947 0.56838 0.0
C1867 C 0.23307 0.8082 0.56359 0.0
C1868 C 0.23311 0.83038 0.57697 0.0
C1869 C 0.23265 0.76679 0.53632 0.0
C1870 C 0.2185 0.77488 0.51766 0.0
C1871 C 0.21908 0.79561 0.53127 0.0
C1872 C 0.2008 0.76023 0.48753 0.0
C1873 C 0.23201 0.74403 0.52437 0.0
C1874 C 0.2077 0.75362 0.45302 0.0
C1875 C 0.19062 0.73542 0.42954 0.0
C1876 C 0.1664 0.72378 0.44012 0.0
C1877 C 0.15944 0.73233 0.47236 0.0
C1878 C 0.17649 0.75033 0.49589 0.0
H1879 H 0.24029 0.73797 0.54661 0.0
H1880 H 0.21339 0.72951 0.51955 0.0
H1881 H 0.24199 0.74704 0.49666 0.0
H1882 H 0.22637 0.7615 0.44553 0.0
H1883 H 0.19659 0.72951 0.40464 0.0
H1884 H 0.52553 0.72507 0.90771 0.0
H1885 H 0.52959 0.75742 0.94967 0.0
H1886 H 0.58104 0.75075 0.02024 0.0
H1887 H 0.57755 0.71896 0.97818 0.0
H1888 H 0.51591 0.74719 0.02444 0.0
H1889 H 0.60873 0.82188 0.02185 0.0
H1890 H 0.59677 0.79941 0.98413 0.0
H1891 H 0.60751 0.79391 0.02919 0.0
C1892 C 0.53835 0.73107 0.93131 0.0
C1893 C 0.55095 0.71919 0.93994 0.0
C1894 C 0.54064 0.74956 0.95529 0.0
C1895 C 0.5557 0.7566 0.98802 0.0
C1896 C 0.56968 0.74602 0.99477 0.0
H1897 H 0.55932 0.80726 0.21892 0.0
H1898 H 0.56818 0.79505 0.1563 0.0
C1899 C 0.56744 0.7276 0.97084 0.0
C1900 C 0.55362 0.77147 0.01889 0.0
H1901 H 0.58606 0.81817 0.0805 0.0
C1902 C 0.53116 0.76304 0.03611 0.0
C1903 C 0.57359 0.79194 0.03443 0.0
C1904 C 0.59796 0.80243 0.01615 0.0
C1905 C 0.52829 0.77378 0.06952 0.0
C1906 C 0.54837 0.79382 0.08577 0.0
C1907 C 0.57074 0.80276 0.06797 0.0
C1908 C 0.54632 0.80487 0.12223 0.0
C1909 C 0.50395 0.76286 0.08824 0.0
C1910 C 0.53185 0.81523 0.12344 0.0
C1911 C 0.52657 0.82196 0.15904 0.0
C1912 C 0.53589 0.8187 0.19409 0.0
C1913 C 0.55178 0.8099 0.19247 0.0
C1914 C 0.55691 0.80297 0.15675 0.0
H1915 H 0.49167 0.74466 0.077 0.0
H1916 H 0.50527 0.76187 0.12043 0.0
H1917 H 0.49596 0.77415 0.08184 0.0
H1918 H 0.52384 0.81719 0.09698 0.0
H1919 H 0.51458 0.82906 0.15917 0.0
H1920 H 0.27289 0.8549 0.98085 0.0
H1921 H 0.2421 0.82503 0.02269 0.0
H1922 H 0.23593 0.76935 0.94625 0.0
H1923 H 0.26743 0.79918 0.9046 0.0
H1924 H 0.19577 0.78729 0.01826 0.0
H1925 H 0.26035 0.75614 0.04715 0.0
H1926 H 0.26842 0.78292 0.01994 0.0
H1927 H 0.25102 0.75423 0.99733 0.0
C1928 C 0.26471 0.83635 0.97236 0.0
C1929 C 0.27312 0.82941 0.93991 0.0
C1930 C 0.24699 0.81928 0.99631 0.0
C1931 C 0.23723 0.79496 0.98818 0.0
C1932 C 0.2437 0.78804 0.95355 0.0
H1933 H 0.17012 0.68207 0.16171 0.0
H1934 H 0.18128 0.70227 0.09874 0.0
C1935 C 0.26161 0.80514 0.92963 0.0
C1936 C 0.22286 0.7773 0.0186 0.0
H1937 H 0.22557 0.73923 0.08446 0.0
C1938 C 0.20206 0.7765 0.03242 0.0
C1939 C 0.23124 0.76339 0.03724 0.0
C1940 C 0.25406 0.76425 0.02499 0.0
C1941 C 0.18968 0.76251 0.0649 0.0
C1942 C 0.19855 0.74928 0.08424 0.0
C1943 C 0.21879 0.74938 0.06949 0.0
C1944 C 0.18825 0.73634 0.12126 0.0
C1945 C 0.16738 0.76219 0.07841 0.0
C1946 C 0.18817 0.74873 0.15484 0.0
C1947 C 0.18176 0.73722 0.19105 0.0
C1948 C 0.17562 0.71318 0.19436 0.0
C1949 C 0.17493 0.70065 0.16036 0.0
C1950 C 0.18121 0.71213 0.12424 0.0
H1951 H 0.15901 0.7669 0.05432 0.0
H1952 H 0.15417 0.74443 0.09011 0.0
H1953 H 0.17203 0.77554 0.10198 0.0
H1954 H 0.19407 0.76757 0.15339 0.0
H1955 H 0.18255 0.74742 0.21662 0.0
H1956 H 0.19323 0.47529 0.93072 0.0
H1957 H 0.21802 0.46831 0.97659 0.0
H1958 H 0.15575 0.40512 0.01884 0.0
H1959 H 0.13086 0.41235 0.97392 0.0
H1960 H 0.17808 0.43745 0.07529 0.0
H1961 H 0.24447 0.42405 0.99458 0.0
H1962 H 0.24332 0.4498 0.97844 0.0
H1963 H 0.21777 0.42061 0.97189 0.0
C1964 C 0.18496 0.45948 0.94887 0.0
C1965 C 0.16009 0.44456 0.94924 0.0
C1966 C 0.19917 0.45542 0.97495 0.0
C1967 C 0.18873 0.43615 0.00112 0.0
C1968 C 0.16416 0.4201 0.99895 0.0
H1969 H 0.24338 0.42106 0.2273 0.0
H1970 H 0.21983 0.41047 0.16722 0.0
C1971 C 0.14996 0.42429 0.97332 0.0
C1972 C 0.20239 0.43517 0.03502 0.0
H1973 H 0.25354 0.43606 0.06187 0.0
C1974 C 0.19433 0.43666 0.07239 0.0
C1975 C 0.2237 0.43439 0.03112 0.0
C1976 C 0.23272 0.43189 0.99184 0.0
C1977 C 0.20747 0.43841 0.10588 0.0
C1978 C 0.22907 0.43819 0.102 0.0
C1979 C 0.23689 0.43608 0.06473 0.0
C1980 C 0.24472 0.4424 0.13605 0.0
C1981 C 0.19869 0.44175 0.14493 0.0
C1982 C 0.26696 0.46329 0.13771 0.0
C1983 C 0.2805 0.46932 0.1718 0.0
C1984 C 0.27203 0.45458 0.20499 0.0
C1985 C 0.2503 0.43297 0.20249 0.0
C1986 C 0.2368 0.42689 0.16821 0.0
H1987 H 0.18445 0.44642 0.1418 0.0
H1988 H 0.19128 0.42492 0.16184 0.0
H1989 H 0.21353 0.45599 0.16205 0.0
H1990 H 0.27339 0.47547 0.11317 0.0
H1991 H 0.29724 0.48601 0.17246 0.0
H1992 H 0.83383 0.56232 0.29629 0.0
H1993 H 0.82404 0.57201 0.36036 0.0
H1994 H 0.76194 0.50167 0.36633 0.0
H1995 H 0.77296 0.49146 0.30418 0.0
H1996 H 0.79162 0.57753 0.38474 0.0
H1997 H 0.78388 0.5033 0.47244 0.0
H1998 H 0.79604 0.50879 0.42375 0.0
H1999 H 0.7643 0.49053 0.43171 0.0
C2000 C 0.81827 0.54892 0.31173 0.0
C2001 C 0.8042 0.52613 0.29571 0.0
C2002 C 0.81268 0.55442 0.34832 0.0
C2003 C 0.79258 0.53738 0.36902 0.0
C2004 C 0.77817 0.51481 0.35216 0.0
H2005 H 0.69699 0.55854 0.49869 0.0
H2006 H 0.7276 0.56141 0.45509 0.0
C2007 C 0.78424 0.50906 0.31632 0.0
C2008 C 0.78543 0.54363 0.40656 0.0
H2009 H 0.75829 0.51932 0.49328 0.0
C2010 C 0.7849 0.565 0.40883 0.0
C2011 C 0.77756 0.52803 0.43911 0.0
C2012 C 0.78081 0.50658 0.44172 0.0
C2013 C 0.77479 0.57009 0.44099 0.0
C2014 C 0.76361 0.55272 0.47062 0.0
C2015 C 0.76614 0.53242 0.47014 0.0
C2016 C 0.74678 0.55368 0.49915 0.0
C2017 C 0.77599 0.59394 0.44235 0.0
C2018 C 0.74668 0.54767 0.53866 0.0
C2019 C 0.72844 0.54514 0.56369 0.0
C2020 C 0.71019 0.54889 0.54972 0.0
C2021 C 0.71094 0.55588 0.51068 0.0
C2022 C 0.72872 0.55781 0.48562 0.0
H2023 H 0.7932 0.60809 0.43019 0.0
H2024 H 0.76162 0.5933 0.42387 0.0
H2025 H 0.7741 0.59901 0.47253 0.0
H2026 H 0.76028 0.54421 0.54985 0.0
H2027 H 0.7283 0.53967 0.59361 0.0
H2028 H 0.48906 0.2985 0.33417 0.0
H2029 H 0.47799 0.27453 0.39333 0.0
H2030 H 0.41349 0.22107 0.33801 0.0
H2031 H 0.42467 0.24476 0.27796 0.0
H2032 H 0.43874 0.25624 0.44299 0.0
H2033 H 0.44693 0.18434 0.36843 0.0
H2034 H 0.45723 0.21315 0.34647 0.0
H2035 H 0.42598 0.19147 0.34702 0.0
C2036 C 0.47242 0.2817 0.33445 0.0
C2037 C 0.45791 0.2734 0.30102 0.0
C2038 C 0.46609 0.26808 0.36846 0.0
C2039 C 0.44511 0.24591 0.36987 0.0
C2040 C 0.42999 0.23798 0.33724 0.0
H2041 H 0.41121 0.13443 0.53949 0.0
H2042 H 0.40477 0.15908 0.49282 0.0
C2043 C 0.43639 0.25155 0.30298 0.0
C2044 C 0.44017 0.23061 0.40468 0.0
H2045 H 0.43758 0.17928 0.43497 0.0
C2046 C 0.43821 0.23927 0.44129 0.0
C2047 C 0.43963 0.20856 0.40231 0.0
C2048 C 0.44274 0.19884 0.36406 0.0
C2049 C 0.43608 0.22658 0.47573 0.0
C2050 C 0.43616 0.20486 0.47336 0.0
C2051 C 0.43736 0.19589 0.43665 0.0
C2052 C 0.43682 0.19174 0.50826 0.0
C2053 C 0.43396 0.23658 0.51428 0.0
C2054 C 0.45642 0.20218 0.53371 0.0
C2055 C 0.46009 0.18812 0.56071 0.0
C2056 C 0.44438 0.1634 0.56203 0.0
C2057 C 0.42375 0.15341 0.53879 0.0
C2058 C 0.42001 0.16746 0.51216 0.0
H2059 H 0.42687 0.24892 0.51046 0.0
H2060 H 0.42219 0.22214 0.53471 0.0
H2061 H 0.45188 0.24678 0.52774 0.0
H2062 H 0.46984 0.2208 0.53075 0.0
H2063 H 0.47618 0.19628 0.57815 0.0
H2064 H 0.72088 0.22375 0.29649 0.0
H2065 H 0.74343 0.23597 0.35733 0.0
H2066 H 0.74651 0.17089 0.35791 0.0
H2067 H 0.7256 0.15969 0.29501 0.0
H2068 H 0.73504 0.21952 0.42603 0.0
H2069 H 0.81433 0.21556 0.37494 0.0
H2070 H 0.79104 0.2118 0.34212 0.0
H2071 H 0.78717 0.1875 0.37274 0.0
C2072 C 0.72663 0.21222 0.30951 0.0
C2073 C 0.72188 0.191 0.29108 0.0
C2074 C 0.73939 0.2191 0.34438 0.0
C2075 C 0.74709 0.20457 0.36213 0.0
C2076 C 0.74156 0.18285 0.34428 0.0
H2077 H 0.81311 0.26762 0.59044 0.0
H2078 H 0.78531 0.23639 0.54587 0.0
C2079 C 0.72949 0.17636 0.30854 0.0
C2080 C 0.76102 0.21266 0.39902 0.0
H2081 H 0.8146 0.22706 0.43976 0.0
C2082 C 0.75245 0.22115 0.42907 0.0
C2083 C 0.78365 0.21456 0.4032 0.0
C2084 C 0.79471 0.20708 0.37144 0.0
C2085 C 0.76655 0.23322 0.46153 0.0
C2086 C 0.78942 0.23561 0.46527 0.0
C2087 C 0.79712 0.2253 0.43685 0.0
C2088 C 0.80714 0.25188 0.49436 0.0
C2089 C 0.75738 0.24473 0.4897 0.0
C2090 C 0.82937 0.26997 0.48095 0.0
C2091 C 0.84555 0.2871 0.50648 0.0
C2092 C 0.83972 0.28693 0.546 0.0
C2093 C 0.81793 0.2683 0.56 0.0
C2094 C 0.80194 0.25062 0.53446 0.0
H2095 H 0.74195 0.24565 0.47764 0.0
H2096 H 0.7514 0.23408 0.51695 0.0
H2097 H 0.77154 0.2631 0.49716 0.0
H2098 H 0.83392 0.27146 0.45024 0.0
H2099 H 0.86213 0.30125 0.49465 0.0
loop_
_geom_bond_atom_site_label_1
_geom_bond_atom_site_label_2
_geom_bond_distance
_geom_bond_site_symmetry_2
_ccdc_geom_bond_type
C0 O27 1.312 . S
C0 O28 1.208 . S
C1 O22 1.331 . S
C1 O25 1.244 1_556 S
C2 O24 1.264 . S
C2 O26 1.273 . S
Mg3 O5 1.936 . S
Mg3 O12 2.081 . S
Mg3 O14 2.023 . S
Mg3 O18 2.031 . S
Mg3 O27 2.291 . S
Mg4 O5 1.963 . S
Mg4 O15 1.942 . S
Mg4 O16 1.955 . S
Mg4 O23 1.986 . S
O5 Mg3 1.936 . S
O5 Mg4 1.963 . S
O5 Mg6 1.915 . S
Mg6 O5 1.915 . S
Mg6 O7 1.915 . S
Mg6 O11 2.013 . S
Mg6 O17 2.114 . S
Mg6 O21 2.013 . S
Mg6 O27 2.114 . S
O7 Mg6 1.915 . S
O7 Mg8 1.936 . S
O7 Mg9 1.963 . S
Mg8 O7 1.936 . S
Mg8 O17 2.291 . S
Mg8 O22 2.081 1_554 S
Mg8 O24 2.023 . S
Mg8 O28 2.031 . S
Mg9 O7 1.963 . S
Mg9 O13 1.986 . S
Mg9 O25 1.942 . S
Mg9 O26 1.955 . S
C10 O21 1.191 . S
C10 O23 1.307 . S
O11 Mg6 2.013 . S
O11 C30 1.191 . S
O12 Mg3 2.081 . S
O12 C20 1.331 . S
O13 Mg9 1.986 . S
O13 C30 1.307 . S
O14 Mg3 2.023 . S
O14 C29 1.264 . S
O15 Mg4 1.942 . S
O15 C20 1.244 . S
O16 Mg4 1.955 . S
O16 C29 1.273 . S
O17 Mg6 2.114 . S
O17 Mg8 2.291 . S
O17 C19 1.312 . S
O18 Mg3 2.031 . S
O18 C19 1.208 . S
C19 O17 1.312 . S
C19 O18 1.208 . S
C20 O12 1.331 . S
C20 O15 1.244 . S
O21 Mg6 2.013 . S
O21 C10 1.191 . S
O22 C1 1.331 . S
O22 Mg8 2.081 1_556 S
O23 Mg4 1.986 . S
O23 C10 1.307 . S
O24 C2 1.264 . S
O24 Mg8 2.023 . S
O25 C1 1.244 1_554 S
O25 Mg9 1.942 . S
O26 C2 1.273 . S
O26 Mg9 1.955 . S
O27 C0 1.312 . S
O27 Mg3 2.291 . S
O27 Mg6 2.114 . S
O28 C0 1.208 . S
O28 Mg8 2.031 . S
C29 O14 1.264 . S
C29 O16 1.273 . S
C30 O11 1.191 . S
C30 O13 1.307 . S
C31 O58 1.312 . S
C31 O59 1.208 . S
C32 O53 1.331 . S
C32 O56 1.244 1_556 S
C33 O55 1.264 . S
C33 O57 1.273 . S
Mg34 O36 1.936 . S
Mg34 O43 2.081 . S
Mg34 O45 2.023 . S
Mg34 O49 2.031 . S
Mg34 O58 2.291 . S
Mg35 O36 1.963 . S
Mg35 O46 1.942 . S
Mg35 O47 1.955 . S
Mg35 O54 1.986 . S
O36 Mg34 1.936 . S
O36 Mg35 1.963 . S
O36 Mg37 1.915 . S
Mg37 O36 1.915 . S
Mg37 O38 1.915 . S
Mg37 O42 2.013 . S
Mg37 O48 2.114 . S
Mg37 O52 2.013 . S
Mg37 O58 2.114 . S
O38 Mg37 1.915 . S
O38 Mg39 1.936 . S
O38 Mg40 1.963 . S
Mg39 O38 1.936 . S
Mg39 O48 2.291 . S
Mg39 O53 2.081 1_554 S
Mg39 O55 2.023 . S
Mg39 O59 2.031 . S
Mg40 O38 1.963 . S
Mg40 O44 1.986 . S
Mg40 O56 1.942 . S
Mg40 O57 1.955 . S
C41 O52 1.191 . S
C41 O54 1.307 . S
O42 Mg37 2.013 . S
O42 C61 1.191 . S
O43 Mg34 2.081 . S
O43 C51 1.331 . S
O44 Mg40 1.986 . S
O44 C61 1.307 . S
O45 Mg34 2.023 . S
O45 C60 1.264 . S
O46 Mg35 1.942 . S
O46 C51 1.244 . S
O47 Mg35 1.955 . S
O47 C60 1.273 . S
O48 Mg37 2.114 . S
O48 Mg39 2.291 . S
O48 C50 1.312 . S
O49 Mg34 2.031 . S
O49 C50 1.208 . S
C50 O48 1.312 . S
C50 O49 1.208 . S
C51 O43 1.331 . S
C51 O46 1.244 . S
O52 Mg37 2.013 . S
O52 C41 1.191 . S
O53 C32 1.331 . S
O53 Mg39 2.081 1_556 S
O54 Mg35 1.986 . S
O54 C41 1.307 . S
O55 C33 1.264 . S
O55 Mg39 2.023 . S
O56 C32 1.244 1_554 S
O56 Mg40 1.942 . S
O57 C33 1.273 . S
O57 Mg40 1.955 . S
O58 C31 1.312 . S
O58 Mg34 2.291 . S
O58 Mg37 2.114 . S
O59 C31 1.208 . S
O59 Mg39 2.031 . S
C60 O45 1.264 . S
C60 O47 1.273 . S
C61 O42 1.191 . S
C61 O44 1.307 . S
C62 O89 1.312 . S
C62 O90 1.208 . S
C63 O84 1.331 . S
C63 O87 1.244 . S
C64 O86 1.264 . S
C64 O88 1.273 . S
Mg65 O67 1.936 . S
Mg65 O74 2.081 1_554 S
Mg65 O76 2.023 . S
Mg65 O80 2.031 . S
Mg65 O89 2.291 . S
Mg66 O67 1.963 . S
Mg66 O77 1.942 . S
Mg66 O78 1.955 . S
Mg66 O85 1.986 . S
O67 Mg65 1.936 . S
O67 Mg66 1.963 . S
O67 Mg68 1.915 . S
Mg68 O67 1.915 . S
Mg68 O69 1.915 . S
Mg68 O73 2.013 . S
Mg68 O79 2.114 . S
Mg68 O83 2.013 . S
Mg68 O89 2.114 . S
O69 Mg68 1.915 . S
O69 Mg70 1.936 . S
O69 Mg71 1.963 . S
Mg70 O69 1.936 . S
Mg70 O79 2.291 . S
Mg70 O84 2.081 . S
Mg70 O86 2.023 . S
Mg70 O90 2.031 . S
Mg71 O69 1.963 . S
Mg71 O75 1.986 . S
Mg71 O87 1.942 . S
Mg71 O88 1.955 . S
C72 O83 1.191 . S
C72 O85 1.307 . S
O73 Mg68 2.013 . S
O73 C92 1.191 . S
O74 Mg65 2.081 1_556 S
O74 C82 1.331 . S
O75 Mg71 1.986 . S
O75 C92 1.307 . S
O76 Mg65 2.023 . S
O76 C91 1.264 . S
O77 Mg66 1.942 . S
O77 C82 1.244 1_554 S
O78 Mg66 1.955 . S
O78 C91 1.273 . S
O79 Mg68 2.114 . S
O79 Mg70 2.291 . S
O79 C81 1.312 . S
O80 Mg65 2.031 . S
O80 C81 1.208 . S
C81 O79 1.312 . S
C81 O80 1.208 . S
C82 O74 1.331 . S
C82 O77 1.244 1_556 S
O83 Mg68 2.013 . S
O83 C72 1.191 . S
O84 C63 1.331 . S
O84 Mg70 2.081 . S
O85 Mg66 1.986 . S
O85 C72 1.307 . S
O86 C64 1.264 . S
O86 Mg70 2.023 . S
O87 C63 1.244 . S
O87 Mg71 1.942 . S
O88 C64 1.273 . S
O88 Mg71 1.955 . S
O89 C62 1.312 . S
O89 Mg65 2.291 . S
O89 Mg68 2.114 . S
O90 C62 1.208 . S
O90 Mg70 2.031 . S
C91 O76 1.264 . S
C91 O78 1.273 . S
C92 O73 1.191 . S
C92 O75 1.307 . S
C93 O120 1.312 . S
C93 O121 1.208 . S
C94 O115 1.331 . S
C94 O118 1.244 . S
C95 O117 1.264 . S
C95 O119 1.273 . S
Mg96 O98 1.936 . S
Mg96 O105 2.081 . S
Mg96 O107 2.023 . S
Mg96 O111 2.031 . S
Mg96 O120 2.291 . S
Mg97 O98 1.963 . S
Mg97 O108 1.942 . S
Mg97 O109 1.955 . S
Mg97 O116 1.986 . S
O98 Mg96 1.936 . S
O98 Mg97 1.963 . S
O98 Mg99 1.915 . S
Mg99 O98 1.915 . S
Mg99 O100 1.915 . S
Mg99 O104 2.013 . S
Mg99 O110 2.114 . S
Mg99 O114 2.013 . S
Mg99 O120 2.114 . S
O100 Mg99 1.915 . S
O100 Mg101 1.936 . S
O100 Mg102 1.963 . S
Mg101 O100 1.936 . S
Mg101 O110 2.291 . S
Mg101 O115 2.081 . S
Mg101 O117 2.023 . S
Mg101 O121 2.031 . S
Mg102 O100 1.963 . S
Mg102 O106 1.986 . S
Mg102 O118 1.942 . S
Mg102 O119 1.955 . S
C103 O114 1.191 . S
C103 O116 1.307 . S
O104 Mg99 2.013 . S
O104 C123 1.191 . S
O105 Mg96 2.081 . S
O105 C113 1.331 . S
O106 Mg102 1.986 . S
O106 C123 1.307 . S
O107 Mg96 2.023 . S
O107 C122 1.264 . S
O108 Mg97 1.942 . S
O108 C113 1.244 . S
O109 Mg97 1.955 . S
O109 C122 1.273 . S
O110 Mg99 2.114 . S
O110 Mg101 2.291 . S
O110 C112 1.312 . S
O111 Mg96 2.031 . S
O111 C112 1.208 . S
C112 O110 1.312 . S
C112 O111 1.208 . S
C113 O105 1.331 . S
C113 O108 1.244 . S
O114 Mg99 2.013 . S
O114 C103 1.191 . S
O115 C94 1.331 . S
O115 Mg101 2.081 . S
O116 Mg97 1.986 . S
O116 C103 1.307 . S
O117 C95 1.264 . S
O117 Mg101 2.023 . S
O118 C94 1.244 . S
O118 Mg102 1.942 . S
O119 C95 1.273 . S
O119 Mg102 1.955 . S
O120 C93 1.312 . S
O120 Mg96 2.291 . S
O120 Mg99 2.114 . S
O121 C93 1.208 . S
O121 Mg101 2.031 . S
C122 O107 1.264 . S
C122 O109 1.273 . S
C123 O104 1.191 . S
C123 O106 1.307 . S
C124 O151 1.312 . S
C124 O152 1.208 . S
C125 O146 1.331 . S
C125 O149 1.244 . S
C126 O148 1.264 . S
C126 O150 1.273 . S
Mg127 O129 1.936 . S
Mg127 O136 2.081 . S
Mg127 O138 2.023 . S
Mg127 O142 2.031 . S
Mg127 O151 2.291 . S
Mg128 O129 1.963 . S
Mg128 O139 1.942 . S
Mg128 O140 1.955 . S
Mg128 O147 1.986 . S
O129 Mg127 1.936 . S
O129 Mg128 1.963 . S
O129 Mg130 1.915 . S
Mg130 O129 1.915 . S
Mg130 O131 1.915 . S
Mg130 O135 2.013 . S
Mg130 O141 2.114 . S
Mg130 O145 2.013 . S
Mg130 O151 2.114 . S
O131 Mg130 1.915 . S
O131 Mg132 1.936 . S
O131 Mg133 1.963 . S
Mg132 O131 1.936 . S
Mg132 O141 2.291 . S
Mg132 O146 2.081 . S
Mg132 O148 2.023 . S
Mg132 O152 2.031 . S
Mg133 O131 1.963 . S
Mg133 O137 1.986 . S
Mg133 O149 1.942 . S
Mg133 O150 1.955 . S
C134 O145 1.191 . S
C134 O147 1.307 . S
O135 Mg130 2.013 . S
O135 C154 1.191 . S
O136 Mg127 2.081 . S
O136 C144 1.331 . S
O137 Mg133 1.986 . S
O137 C154 1.307 . S
O138 Mg127 2.023 . S
O138 C153 1.264 . S
O139 Mg128 1.942 . S
O139 C144 1.244 . S
O140 Mg128 1.955 . S
O140 C153 1.273 . S
O141 Mg130 2.114 . S
O141 Mg132 2.291 . S
O141 C143 1.312 . S
O142 Mg127 2.031 . S
O142 C143 1.208 . S
C143 O141 1.312 . S
C143 O142 1.208 . S
C144 O136 1.331 . S
C144 O139 1.244 . S
O145 Mg130 2.013 . S
O145 C134 1.191 . S
O146 C125 1.331 . S
O146 Mg132 2.081 . S
O147 Mg128 1.986 . S
O147 C134 1.307 . S
O148 C126 1.264 . S
O148 Mg132 2.023 . S
O149 C125 1.244 . S
O149 Mg133 1.942 . S
O150 C126 1.273 . S
O150 Mg133 1.955 . S
O151 C124 1.312 . S
O151 Mg127 2.291 . S
O151 Mg130 2.114 . S
O152 C124 1.208 . S
O152 Mg132 2.031 . S
C153 O138 1.264 . S
C153 O140 1.273 . S
C154 O135 1.191 . S
C154 O137 1.307 . S
C155 O182 1.312 . S
C155 O183 1.208 . S
C156 O177 1.331 . S
C156 O180 1.244 . S
C157 O179 1.264 . S
C157 O181 1.273 . S
Mg158 O160 1.936 . S
Mg158 O167 2.081 . S
Mg158 O169 2.023 . S
Mg158 O173 2.031 . S
Mg158 O182 2.291 . S
Mg159 O160 1.963 . S
Mg159 O170 1.942 . S
Mg159 O171 1.955 . S
Mg159 O178 1.986 . S
O160 Mg158 1.936 . S
O160 Mg159 1.963 . S
O160 Mg161 1.915 . S
Mg161 O160 1.915 . S
Mg161 O162 1.915 . S
Mg161 O166 2.013 . S
Mg161 O172 2.114 . S
Mg161 O176 2.013 . S
Mg161 O182 2.114 . S
O162 Mg161 1.915 . S
O162 Mg163 1.936 . S
O162 Mg164 1.963 . S
Mg163 O162 1.936 . S
Mg163 O172 2.291 . S
Mg163 O177 2.081 . S
Mg163 O179 2.023 . S
Mg163 O183 2.031 . S
Mg164 O162 1.963 . S
Mg164 O168 1.986 . S
Mg164 O180 1.942 . S
Mg164 O181 1.955 . S
C165 O176 1.191 . S
C165 O178 1.307 . S
O166 Mg161 2.013 . S
O166 C185 1.191 . S
O167 Mg158 2.081 . S
O167 C175 1.331 . S
O168 Mg164 1.986 . S
O168 C185 1.307 . S
O169 Mg158 2.023 . S
O169 C184 1.264 . S
O170 Mg159 1.942 . S
O170 C175 1.244 . S
O171 Mg159 1.955 . S
O171 C184 1.273 . S
O172 Mg161 2.114 . S
O172 Mg163 2.291 . S
O172 C174 1.312 . S
O173 Mg158 2.031 . S
O173 C174 1.208 . S
C174 O172 1.312 . S
C174 O173 1.208 . S
C175 O167 1.331 . S
C175 O170 1.244 . S
O176 Mg161 2.013 . S
O176 C165 1.191 . S
O177 C156 1.331 . S
O177 Mg163 2.081 . S
O178 Mg159 1.986 . S
O178 C165 1.307 . S
O179 C157 1.264 . S
O179 Mg163 2.023 . S
O180 C156 1.244 . S
O180 Mg164 1.942 . S
O181 C157 1.273 . S
O181 Mg164 1.955 . S
O182 C155 1.312 . S
O182 Mg158 2.291 . S
O182 Mg161 2.114 . S
O183 C155 1.208 . S
O183 Mg163 2.031 . S
C184 O169 1.264 . S
C184 O171 1.273 . S
C185 O166 1.191 . S
C185 O168 1.307 . S
C186 O213 1.312 . S
C186 O214 1.208 . S
C187 O208 1.331 . S
C187 O211 1.244 1_554 S
C188 O210 1.264 . S
C188 O212 1.273 . S
Mg189 O191 1.936 . S
Mg189 O198 2.081 . S
Mg189 O200 2.023 . S
Mg189 O204 2.031 . S
Mg189 O213 2.291 . S
Mg190 O191 1.963 . S
Mg190 O201 1.942 . S
Mg190 O202 1.955 . S
Mg190 O209 1.986 . S
O191 Mg189 1.936 . S
O191 Mg190 1.963 . S
O191 Mg192 1.915 . S
Mg192 O191 1.915 . S
Mg192 O193 1.915 . S
Mg192 O197 2.013 . S
Mg192 O203 2.114 . S
Mg192 O207 2.013 . S
Mg192 O213 2.114 . S
O193 Mg192 1.915 . S
O193 Mg194 1.936 . S
O193 Mg195 1.963 . S
Mg194 O193 1.936 . S
Mg194 O203 2.291 . S
Mg194 O208 2.081 1_556 S
Mg194 O210 2.023 . S
Mg194 O214 2.031 . S
Mg195 O193 1.963 . S
Mg195 O199 1.986 . S
Mg195 O211 1.942 . S
Mg195 O212 1.955 . S
C196 O207 1.191 . S
C196 O209 1.307 . S
O197 Mg192 2.013 . S
O197 C216 1.191 . S
O198 Mg189 2.081 . S
O198 C206 1.331 . S
O199 Mg195 1.986 . S
O199 C216 1.307 . S
O200 Mg189 2.023 . S
O200 C215 1.264 . S
O201 Mg190 1.942 . S
O201 C206 1.244 . S
O202 Mg190 1.955 . S
O202 C215 1.273 . S
O203 Mg192 2.114 . S
O203 Mg194 2.291 . S
O203 C205 1.312 . S
O204 Mg189 2.031 . S
O204 C205 1.208 . S
C205 O203 1.312 . S
C205 O204 1.208 . S
C206 O198 1.331 . S
C206 O201 1.244 . S
O207 Mg192 2.013 . S
O207 C196 1.191 . S
O208 C187 1.331 . S
O208 Mg194 2.081 1_554 S
O209 Mg190 1.986 . S
O209 C196 1.307 . S
O210 C188 1.264 . S
O210 Mg194 2.023 . S
O211 C187 1.244 1_556 S
O211 Mg195 1.942 . S
O212 C188 1.273 . S
O212 Mg195 1.955 . S
O213 C186 1.312 . S
O213 Mg189 2.291 . S
O213 Mg192 2.114 . S
O214 C186 1.208 . S
O214 Mg194 2.031 . S
C215 O200 1.264 . S
C215 O202 1.273 . S
C216 O197 1.191 . S
C216 O199 1.307 . S
C217 O244 1.312 . S
C217 O245 1.208 . S
C218 O239 1.331 . S
C218 O242 1.244 . S
C219 O241 1.264 . S
C219 O243 1.273 . S
Mg220 O222 1.936 . S
Mg220 O229 2.081 1_556 S
Mg220 O231 2.023 . S
Mg220 O235 2.031 . S
Mg220 O244 2.291 . S
Mg221 O222 1.963 . S
Mg221 O232 1.942 . S
Mg221 O233 1.955 . S
Mg221 O240 1.986 . S
O222 Mg220 1.936 . S
O222 Mg221 1.963 . S
O222 Mg223 1.915 . S
Mg223 O222 1.915 . S
Mg223 O224 1.915 . S
Mg223 O228 2.013 . S
Mg223 O234 2.114 . S
Mg223 O238 2.013 . S
Mg223 O244 2.114 . S
O224 Mg223 1.915 . S
O224 Mg225 1.936 . S
O224 Mg226 1.963 . S
Mg225 O224 1.936 . S
Mg225 O234 2.291 . S
Mg225 O239 2.081 . S
Mg225 O241 2.023 . S
Mg225 O245 2.031 . S
Mg226 O224 1.963 . S
Mg226 O230 1.986 . S
Mg226 O242 1.942 . S
Mg226 O243 1.955 . S
C227 O238 1.191 . S
C227 O240 1.307 . S
O228 Mg223 2.013 . S
O228 C247 1.191 . S
O229 Mg220 2.081 1_554 S
O229 C237 1.331 . S
O230 Mg226 1.986 . S
O230 C247 1.307 . S
O231 Mg220 2.023 . S
O231 C246 1.264 . S
O232 Mg221 1.942 . S
O232 C237 1.244 1_556 S
O233 Mg221 1.955 . S
O233 C246 1.273 . S
O234 Mg223 2.114 . S
O234 Mg225 2.291 . S
O234 C236 1.312 . S
O235 Mg220 2.031 . S
O235 C236 1.208 . S
C236 O234 1.312 . S
C236 O235 1.208 . S
C237 O229 1.331 . S
C237 O232 1.244 1_554 S
O238 Mg223 2.013 . S
O238 C227 1.191 . S
O239 C218 1.331 . S
O239 Mg225 2.081 . S
O240 Mg221 1.986 . S
O240 C227 1.307 . S
O241 C219 1.264 . S
O241 Mg225 2.023 . S
O242 C218 1.244 . S
O242 Mg226 1.942 . S
O243 C219 1.273 . S
O243 Mg226 1.955 . S
O244 C217 1.312 . S
O244 Mg220 2.291 . S
O244 Mg223 2.114 . S
O245 C217 1.208 . S
O245 Mg225 2.031 . S
C246 O231 1.264 . S
C246 O233 1.273 . S
C247 O228 1.191 . S
C247 O230 1.307 . S
C248 O275 1.312 . S
C248 O276 1.208 . S
C249 O270 1.331 . S
C249 O273 1.244 1_554 S
C250 O272 1.264 . S
C250 O274 1.273 . S
Mg251 O253 1.936 . S
Mg251 O260 2.081 . S
Mg251 O262 2.023 . S
Mg251 O266 2.031 . S
Mg251 O275 2.291 . S
Mg252 O253 1.963 . S
Mg252 O263 1.942 . S
Mg252 O264 1.955 . S
Mg252 O271 1.986 . S
O253 Mg251 1.936 . S
O253 Mg252 1.963 . S
O253 Mg254 1.915 . S
Mg254 O253 1.915 . S
Mg254 O255 1.915 . S
Mg254 O259 2.013 . S
Mg254 O265 2.114 . S
Mg254 O269 2.013 . S
Mg254 O275 2.114 . S
O255 Mg254 1.915 . S
O255 Mg256 1.936 . S
O255 Mg257 1.963 . S
Mg256 O255 1.936 . S
Mg256 O265 2.291 . S
Mg256 O270 2.081 1_556 S
Mg256 O272 2.023 . S
Mg256 O276 2.031 . S
Mg257 O255 1.963 . S
Mg257 O261 1.986 . S
Mg257 O273 1.942 . S
Mg257 O274 1.955 . S
C258 O269 1.191 . S
C258 O271 1.307 . S
O259 Mg254 2.013 . S
O259 C278 1.191 . S
O260 Mg251 2.081 . S
O260 C268 1.331 . S
O261 Mg257 1.986 . S
O261 C278 1.307 . S
O262 Mg251 2.023 . S
O262 C277 1.264 . S
O263 Mg252 1.942 . S
O263 C268 1.244 . S
O264 Mg252 1.955 . S
O264 C277 1.273 . S
O265 Mg254 2.114 . S
O265 Mg256 2.291 . S
O265 C267 1.312 . S
O266 Mg251 2.031 . S
O266 C267 1.208 . S
C267 O265 1.312 . S
C267 O266 1.208 . S
C268 O260 1.331 . S
C268 O263 1.244 . S
O269 Mg254 2.013 . S
O269 C258 1.191 . S
O270 C249 1.331 . S
O270 Mg256 2.081 1_554 S
O271 Mg252 1.986 . S
O271 C258 1.307 . S
O272 C250 1.264 . S
O272 Mg256 2.023 . S
O273 C249 1.244 1_556 S
O273 Mg257 1.942 . S
O274 C250 1.273 . S
O274 Mg257 1.955 . S
O275 C248 1.312 . S
O275 Mg251 2.291 . S
O275 Mg254 2.114 . S
O276 C248 1.208 . S
O276 Mg256 2.031 . S
C277 O262 1.264 . S
C277 O264 1.273 . S
C278 O259 1.191 . S
C278 O261 1.307 . S
C279 O306 1.312 . S
C279 O307 1.208 . S
C280 O301 1.331 . S
C280 O304 1.244 . S
C281 O303 1.264 . S
C281 O305 1.273 . S
Mg282 O284 1.936 . S
Mg282 O291 2.081 . S
Mg282 O293 2.023 . S
Mg282 O297 2.031 . S
Mg282 O306 2.291 . S
Mg283 O284 1.963 . S
Mg283 O294 1.942 . S
Mg283 O295 1.955 . S
Mg283 O302 1.986 . S
O284 Mg282 1.936 . S
O284 Mg283 1.963 . S
O284 Mg285 1.915 . S
Mg285 O284 1.915 . S
Mg285 O286 1.915 . S
Mg285 O290 2.013 . S
Mg285 O296 2.114 . S
Mg285 O300 2.013 . S
Mg285 O306 2.114 . S
O286 Mg285 1.915 . S
O286 Mg287 1.936 . S
O286 Mg288 1.963 . S
Mg287 O286 1.936 . S
Mg287 O296 2.291 . S
Mg287 O301 2.081 . S
Mg287 O303 2.023 . S
Mg287 O307 2.031 . S
Mg288 O286 1.963 . S
Mg288 O292 1.986 . S
Mg288 O304 1.942 . S
Mg288 O305 1.955 . S
C289 O300 1.191 . S
C289 O302 1.307 . S
O290 Mg285 2.013 . S
O290 C309 1.191 . S
O291 Mg282 2.081 . S
O291 C299 1.331 . S
O292 Mg288 1.986 . S
O292 C309 1.307 . S
O293 Mg282 2.023 . S
O293 C308 1.264 . S
O294 Mg283 1.942 . S
O294 C299 1.244 . S
O295 Mg283 1.955 . S
O295 C308 1.273 . S
O296 Mg285 2.114 . S
O296 Mg287 2.291 . S
O296 C298 1.312 . S
O297 Mg282 2.031 . S
O297 C298 1.208 . S
C298 O296 1.312 . S
C298 O297 1.208 . S
C299 O291 1.331 . S
C299 O294 1.244 . S
O300 Mg285 2.013 . S
O300 C289 1.191 . S
O301 C280 1.331 . S
O301 Mg287 2.081 . S
O302 Mg283 1.986 . S
O302 C289 1.307 . S
O303 C281 1.264 . S
O303 Mg287 2.023 . S
O304 C280 1.244 . S
O304 Mg288 1.942 . S
O305 C281 1.273 . S
O305 Mg288 1.955 . S
O306 C279 1.312 . S
O306 Mg282 2.291 . S
O306 Mg285 2.114 . S
O307 C279 1.208 . S
O307 Mg287 2.031 . S
C308 O293 1.264 . S
C308 O295 1.273 . S
C309 O290 1.191 . S
C309 O292 1.307 . S
C310 O337 1.312 . S
C310 O338 1.208 . S
C311 O332 1.331 . S
C311 O335 1.244 . S
C312 O334 1.264 . S
C312 O336 1.273 . S
Mg313 O315 1.936 . S
Mg313 O322 2.081 . S
Mg313 O324 2.023 . S
Mg313 O328 2.031 . S
Mg313 O337 2.291 . S
Mg314 O315 1.963 . S
Mg314 O325 1.942 . S
Mg314 O326 1.955 . S
Mg314 O333 1.986 . S
O315 Mg313 1.936 . S
O315 Mg314 1.963 . S
O315 Mg316 1.915 . S
Mg316 O315 1.915 . S
Mg316 O317 1.915 . S
Mg316 O321 2.013 . S
Mg316 O327 2.114 . S
Mg316 O331 2.013 . S
Mg316 O337 2.114 . S
O317 Mg316 1.915 . S
O317 Mg318 1.936 . S
O317 Mg319 1.963 . S
Mg318 O317 1.936 . S
Mg318 O327 2.291 . S
Mg318 O332 2.081 . S
Mg318 O334 2.023 . S
Mg318 O338 2.031 . S
Mg319 O317 1.963 . S
Mg319 O323 1.986 . S
Mg319 O335 1.942 . S
Mg319 O336 1.955 . S
C320 O331 1.191 . S
C320 O333 1.307 . S
O321 Mg316 2.013 . S
O321 C340 1.191 . S
O322 Mg313 2.081 . S
O322 C330 1.331 . S
O323 Mg319 1.986 . S
O323 C340 1.307 . S
O324 Mg313 2.023 . S
O324 C339 1.264 . S
O325 Mg314 1.942 . S
O325 C330 1.244 . S
O326 Mg314 1.955 . S
O326 C339 1.273 . S
O327 Mg316 2.114 . S
O327 Mg318 2.291 . S
O327 C329 1.312 . S
O328 Mg313 2.031 . S
O328 C329 1.208 . S
C329 O327 1.312 . S
C329 O328 1.208 . S
C330 O322 1.331 . S
C330 O325 1.244 . S
O331 Mg316 2.013 . S
O331 C320 1.191 . S
O332 C311 1.331 . S
O332 Mg318 2.081 . S
O333 Mg314 1.986 . S
O333 C320 1.307 . S
O334 C312 1.264 . S
O334 Mg318 2.023 . S
O335 C311 1.244 . S
O335 Mg319 1.942 . S
O336 C312 1.273 . S
O336 Mg319 1.955 . S
O337 C310 1.312 . S
O337 Mg313 2.291 . S
O337 Mg316 2.114 . S
O338 C310 1.208 . S
O338 Mg318 2.031 . S
C339 O324 1.264 . S
C339 O326 1.273 . S
C340 O321 1.191 . S
C340 O323 1.307 . S
C341 O368 1.312 . S
C341 O369 1.208 . S
C342 O363 1.331 . S
C342 O366 1.244 . S
C343 O365 1.264 . S
C343 O367 1.273 . S
Mg344 O346 1.936 . S
Mg344 O353 2.081 . S
Mg344 O355 2.023 . S
Mg344 O359 2.031 . S
Mg344 O368 2.291 . S
Mg345 O346 1.963 . S
Mg345 O356 1.942 . S
Mg345 O357 1.955 . S
Mg345 O364 1.986 . S
O346 Mg344 1.936 . S
O346 Mg345 1.963 . S
O346 Mg347 1.915 . S
Mg347 O346 1.915 . S
Mg347 O348 1.915 . S
Mg347 O352 2.013 . S
Mg347 O358 2.114 . S
Mg347 O362 2.013 . S
Mg347 O368 2.114 . S
O348 Mg347 1.915 . S
O348 Mg349 1.936 . S
O348 Mg350 1.963 . S
Mg349 O348 1.936 . S
Mg349 O358 2.291 . S
Mg349 O363 2.081 . S
Mg349 O365 2.023 . S
Mg349 O369 2.031 . S
Mg350 O348 1.963 . S
Mg350 O354 1.986 . S
Mg350 O366 1.942 . S
Mg350 O367 1.955 . S
C351 O362 1.191 . S
C351 O364 1.307 . S
O352 Mg347 2.013 . S
O352 C371 1.191 . S
O353 Mg344 2.081 . S
O353 C361 1.331 . S
O354 Mg350 1.986 . S
O354 C371 1.307 . S
O355 Mg344 2.023 . S
O355 C370 1.264 . S
O356 Mg345 1.942 . S
O356 C361 1.244 . S
O357 Mg345 1.955 . S
O357 C370 1.273 . S
O358 Mg347 2.114 . S
O358 Mg349 2.291 . S
O358 C360 1.312 . S
O359 Mg344 2.031 . S
O359 C360 1.208 . S
C360 O358 1.312 . S
C360 O359 1.208 . S
C361 O353 1.331 . S
C361 O356 1.244 . S
O362 Mg347 2.013 . S
O362 C351 1.191 . S
O363 C342 1.331 . S
O363 Mg349 2.081 . S
O364 Mg345 1.986 . S
O364 C351 1.307 . S
O365 C343 1.264 . S
O365 Mg349 2.023 . S
O366 C342 1.244 . S
O366 Mg350 1.942 . S
O367 C343 1.273 . S
O367 Mg350 1.955 . S
O368 C341 1.312 . S
O368 Mg344 2.291 . S
O368 Mg347 2.114 . S
O369 C341 1.208 . S
O369 Mg349 2.031 . S
C370 O355 1.264 . S
C370 O357 1.273 . S
C371 O352 1.191 . S
C371 O354 1.307 . S
H372 C380 0.929 . S
H373 C382 0.930 . S
H374 C384 0.930 . S
H375 C387 0.929 . S
H376 C390 0.930 . S
H377 C392 0.960 . S
H378 C392 0.960 . S
H379 C392 0.960 . S
C380 H372 0.929 . S
C380 C381 1.377 . S
C380 C382 1.384 . S
C381 C380 1.377 . S
C381 C387 1.390 . S
C382 H373 0.930 . S
C382 C380 1.384 . S
C382 C383 1.372 . S
C383 C382 1.372 . S
C383 C384 1.400 . S
C383 C388 1.490 . S
C384 H374 0.930 . S
C384 C383 1.400 . S
C384 C387 1.386 . S
H385 C401 0.930 . S
H386 C402 0.931 . S
C387 H375 0.929 . S
C387 C381 1.390 . S
C387 C384 1.386 . S
C388 C383 1.490 . S
C388 C390 1.395 . S
C388 C391 1.403 . S
H389 C395 0.930 . S
C390 H376 0.930 . S
C390 C388 1.395 . S
C390 C393 1.403 . S
C391 C388 1.403 . S
C391 C392 1.524 . S
C391 C395 1.400 . S
C392 H377 0.960 . S
C392 H378 0.960 . S
C392 H379 0.960 . S
C392 C391 1.524 . S
C393 C390 1.403 . S
C393 C394 1.392 . S
C393 C397 1.495 . S
C394 C393 1.392 . S
C394 C395 1.385 . S
C394 C396 1.478 . S
C395 H389 0.930 . S
C395 C391 1.400 . S
C395 C394 1.385 . S
C396 C394 1.478 . S
C396 C398 1.381 . S
C396 C402 1.383 . S
C397 C393 1.495 . S
C397 H403 0.959 . S
C397 H404 0.961 . S
C397 H405 0.960 . S
C398 C396 1.381 . S
C398 C399 1.394 . S
C398 H406 0.930 . S
C399 C398 1.394 . S
C399 C400 1.383 . S
C399 H407 0.929 . S
C400 C399 1.383 . S
C400 C401 1.377 . S
C401 H385 0.930 . S
C401 C400 1.377 . S
C401 C402 1.379 . S
C402 H386 0.931 . S
C402 C396 1.383 . S
C402 C401 1.379 . S
H403 C397 0.959 . S
H404 C397 0.961 . S
H405 C397 0.960 . S
H406 C398 0.930 . S
H407 C399 0.929 . S
H408 C416 0.929 . S
H409 C418 0.930 . S
H410 C420 0.930 . S
H411 C423 0.929 . S
H412 C426 0.930 . S
H413 C428 0.960 . S
H414 C428 0.960 . S
H415 C428 0.960 . S
C416 H408 0.929 . S
C416 C417 1.377 . S
C416 C418 1.384 . S
C417 C416 1.377 . S
C417 C423 1.390 . S
C418 H409 0.930 . S
C418 C416 1.384 . S
C418 C419 1.372 . S
C419 C418 1.372 . S
C419 C420 1.400 . S
C419 C424 1.490 . S
C420 H410 0.930 . S
C420 C419 1.400 . S
C420 C423 1.386 . S
H421 C437 0.930 . S
H422 C438 0.931 . S
C423 H411 0.929 . S
C423 C417 1.390 . S
C423 C420 1.386 . S
C424 C419 1.490 . S
C424 C426 1.395 . S
C424 C427 1.403 . S
H425 C431 0.930 . S
C426 H412 0.930 . S
C426 C424 1.395 . S
C426 C429 1.403 . S
C427 C424 1.403 . S
C427 C428 1.524 . S
C427 C431 1.400 . S
C428 H413 0.960 . S
C428 H414 0.960 . S
C428 H415 0.960 . S
C428 C427 1.524 . S
C429 C426 1.403 . S
C429 C430 1.392 . S
C429 C433 1.495 . S
C430 C429 1.392 . S
C430 C431 1.385 . S
C430 C432 1.478 . S
C431 H425 0.930 . S
C431 C427 1.400 . S
C431 C430 1.385 . S
C432 C430 1.478 . S
C432 C434 1.381 . S
C432 C438 1.383 . S
C433 C429 1.495 . S
C433 H439 0.959 . S
C433 H440 0.961 . S
C433 H441 0.960 . S
C434 C432 1.381 . S
C434 C435 1.394 . S
C434 H442 0.930 . S
C435 C434 1.394 . S
C435 C436 1.383 . S
C435 H443 0.929 . S
C436 C435 1.383 . S
C436 C437 1.377 . S
C437 H421 0.930 . S
C437 C436 1.377 . S
C437 C438 1.379 . S
C438 H422 0.931 . S
C438 C432 1.383 . S
C438 C437 1.379 . S
H439 C433 0.959 . S
H440 C433 0.961 . S
H441 C433 0.960 . S
H442 C434 0.930 . S
H443 C435 0.929 . S
H444 C452 0.929 . S
H445 C454 0.930 . S
H446 C456 0.930 . S
H447 C459 0.929 . S
H448 C462 0.930 . S
H449 C464 0.960 . S
H450 C464 0.960 . S
H451 C464 0.960 . S
C452 H444 0.929 . S
C452 C453 1.377 . S
C452 C454 1.384 . S
C453 C452 1.377 . S
C453 C459 1.390 . S
C454 H445 0.930 . S
C454 C452 1.384 . S
C454 C455 1.372 . S
C455 C454 1.372 . S
C455 C456 1.400 . S
C455 C460 1.490 . S
C456 H446 0.930 . S
C456 C455 1.400 . S
C456 C459 1.386 . S
H457 C473 0.930 . S
H458 C474 0.931 . S
C459 H447 0.929 . S
C459 C453 1.390 . S
C459 C456 1.386 . S
C460 C455 1.490 . S
C460 C462 1.395 . S
C460 C463 1.403 . S
H461 C467 0.930 . S
C462 H448 0.930 . S
C462 C460 1.395 . S
C462 C465 1.403 . S
C463 C460 1.403 . S
C463 C464 1.524 . S
C463 C467 1.400 . S
C464 H449 0.960 . S
C464 H450 0.960 . S
C464 H451 0.960 . S
C464 C463 1.524 . S
C465 C462 1.403 . S
C465 C466 1.392 . S
C465 C469 1.495 . S
C466 C465 1.392 . S
C466 C467 1.385 . S
C466 C468 1.478 . S
C467 H461 0.930 . S
C467 C463 1.400 . S
C467 C466 1.385 . S
C468 C466 1.478 . S
C468 C470 1.381 . S
C468 C474 1.383 . S
C469 C465 1.495 . S
C469 H475 0.959 . S
C469 H476 0.961 . S
C469 H477 0.960 . S
C470 C468 1.381 . S
C470 C471 1.394 . S
C470 H478 0.930 . S
C471 C470 1.394 . S
C471 C472 1.383 . S
C471 H479 0.929 . S
C472 C471 1.383 . S
C472 C473 1.377 . S
C473 H457 0.930 . S
C473 C472 1.377 . S
C473 C474 1.379 . S
C474 H458 0.931 . S
C474 C468 1.383 . S
C474 C473 1.379 . S
H475 C469 0.959 . S
H476 C469 0.961 . S
H477 C469 0.960 . S
H478 C470 0.930 . S
H479 C471 0.929 . S
H480 C488 0.929 . S
H481 C490 0.930 . S
H482 C492 0.930 . S
H483 C495 0.929 . S
H484 C498 0.930 . S
H485 C500 0.960 . S
H486 C500 0.960 . S
H487 C500 0.960 . S
C488 H480 0.929 . S
C488 C489 1.377 . S
C488 C490 1.384 . S
C489 C488 1.377 . S
C489 C495 1.390 . S
C490 H481 0.930 . S
C490 C488 1.384 . S
C490 C491 1.372 . S
C491 C490 1.372 . S
C491 C492 1.400 . S
C491 C496 1.490 . S
C492 H482 0.930 . S
C492 C491 1.400 . S
C492 C495 1.386 . S
H493 C509 0.930 . S
H494 C510 0.931 . S
C495 H483 0.929 . S
C495 C489 1.390 . S
C495 C492 1.386 . S
C496 C491 1.490 . S
C496 C498 1.395 . S
C496 C499 1.403 . S
H497 C503 0.930 . S
C498 H484 0.930 . S
C498 C496 1.395 . S
C498 C501 1.403 . S
C499 C496 1.403 . S
C499 C500 1.524 . S
C499 C503 1.400 . S
C500 H485 0.960 . S
C500 H486 0.960 . S
C500 H487 0.960 . S
C500 C499 1.524 . S
C501 C498 1.403 . S
C501 C502 1.392 . S
C501 C505 1.495 . S
C502 C501 1.392 . S
C502 C503 1.385 . S
C502 C504 1.478 . S
C503 H497 0.930 . S
C503 C499 1.400 . S
C503 C502 1.385 . S
C504 C502 1.478 . S
C504 C506 1.381 . S
C504 C510 1.383 . S
C505 C501 1.495 . S
C505 H511 0.959 . S
C505 H512 0.961 . S
C505 H513 0.960 . S
C506 C504 1.381 . S
C506 C507 1.394 . S
C506 H514 0.930 . S
C507 C506 1.394 . S
C507 C508 1.383 . S
C507 H515 0.929 . S
C508 C507 1.383 . S
C508 C509 1.377 . S
C509 H493 0.930 . S
C509 C508 1.377 . S
C509 C510 1.379 . S
C510 H494 0.931 . S
C510 C504 1.383 . S
C510 C509 1.379 . S
H511 C505 0.959 . S
H512 C505 0.961 . S
H513 C505 0.960 . S
H514 C506 0.930 . S
H515 C507 0.929 . S
H516 C524 0.929 . S
H517 C526 0.930 . S
H518 C528 0.930 . S
H519 C531 0.929 . S
H520 C534 0.930 . S
H521 C536 0.960 . S
H522 C536 0.960 . S
H523 C536 0.960 . S
C524 H516 0.929 . S
C524 C525 1.377 . S
C524 C526 1.384 . S
C525 C524 1.377 . S
C525 C531 1.390 . S
C526 H517 0.930 . S
C526 C524 1.384 . S
C526 C527 1.372 . S
C527 C526 1.372 . S
C527 C528 1.400 . S
C527 C532 1.490 . S
C528 H518 0.930 . S
C528 C527 1.400 . S
C528 C531 1.386 . S
H529 C545 0.930 . S
H530 C546 0.931 . S
C531 H519 0.929 . S
C531 C525 1.390 . S
C531 C528 1.386 . S
C532 C527 1.490 . S
C532 C534 1.395 . S
C532 C535 1.403 . S
H533 C539 0.930 . S
C534 H520 0.930 . S
C534 C532 1.395 . S
C534 C537 1.403 . S
C535 C532 1.403 . S
C535 C536 1.524 . S
C535 C539 1.400 . S
C536 H521 0.960 . S
C536 H522 0.960 . S
C536 H523 0.960 . S
C536 C535 1.524 . S
C537 C534 1.403 . S
C537 C538 1.392 . S
C537 C541 1.495 . S
C538 C537 1.392 . S
C538 C539 1.385 . S
C538 C540 1.478 . S
C539 H533 0.930 . S
C539 C535 1.400 . S
C539 C538 1.385 . S
C540 C538 1.478 . S
C540 C542 1.381 . S
C540 C546 1.383 . S
C541 C537 1.495 . S
C541 H547 0.959 . S
C541 H548 0.961 . S
C541 H549 0.960 . S
C542 C540 1.381 . S
C542 C543 1.394 . S
C542 H550 0.930 . S
C543 C542 1.394 . S
C543 C544 1.383 . S
C543 H551 0.929 . S
C544 C543 1.383 . S
C544 C545 1.377 . S
C545 H529 0.930 . S
C545 C544 1.377 . S
C545 C546 1.379 . S
C546 H530 0.931 . S
C546 C540 1.383 . S
C546 C545 1.379 . S
H547 C541 0.959 . S
H548 C541 0.961 . S
H549 C541 0.960 . S
H550 C542 0.930 . S
H551 C543 0.929 . S
H552 C560 0.929 . S
H553 C562 0.930 . S
H554 C564 0.930 . S
H555 C567 0.929 . S
H556 C570 0.930 . S
H557 C572 0.960 . S
H558 C572 0.960 . S
H559 C572 0.960 . S
C560 H552 0.929 . S
C560 C561 1.377 . S
C560 C562 1.384 . S
C561 C560 1.377 . S
C561 C567 1.390 . S
C562 H553 0.930 . S
C562 C560 1.384 . S
C562 C563 1.372 . S
C563 C562 1.372 . S
C563 C564 1.400 . S
C563 C568 1.490 . S
C564 H554 0.930 . S
C564 C563 1.400 . S
C564 C567 1.386 . S
H565 C581 0.930 . S
H566 C582 0.931 . S
C567 H555 0.929 . S
C567 C561 1.390 . S
C567 C564 1.386 . S
C568 C563 1.490 . S
C568 C570 1.395 . S
C568 C571 1.403 . S
H569 C575 0.930 . S
C570 H556 0.930 . S
C570 C568 1.395 . S
C570 C573 1.403 . S
C571 C568 1.403 . S
C571 C572 1.524 . S
C571 C575 1.400 . S
C572 H557 0.960 . S
C572 H558 0.960 . S
C572 H559 0.960 . S
C572 C571 1.524 . S
C573 C570 1.403 . S
C573 C574 1.392 . S
C573 C577 1.495 . S
C574 C573 1.392 . S
C574 C575 1.385 . S
C574 C576 1.478 . S
C575 H569 0.930 . S
C575 C571 1.400 . S
C575 C574 1.385 . S
C576 C574 1.478 . S
C576 C578 1.381 . S
C576 C582 1.383 . S
C577 C573 1.495 . S
C577 H583 0.959 . S
C577 H584 0.961 . S
C577 H585 0.960 . S
C578 C576 1.381 . S
C578 C579 1.394 . S
C578 H586 0.930 . S
C579 C578 1.394 . S
C579 C580 1.383 . S
C579 H587 0.929 . S
C580 C579 1.383 . S
C580 C581 1.377 . S
C581 H565 0.930 . S
C581 C580 1.377 . S
C581 C582 1.379 . S
C582 H566 0.931 . S
C582 C576 1.383 . S
C582 C581 1.379 . S
H583 C577 0.959 . S
H584 C577 0.961 . S
H585 C577 0.960 . S
H586 C578 0.930 . S
H587 C579 0.929 . S
H588 C596 0.929 . S
H589 C598 0.930 . S
H590 C600 0.930 . S
H591 C603 0.929 . S
H592 C606 0.930 . S
H593 C608 0.960 . S
H594 C608 0.960 . S
H595 C608 0.960 . S
C596 H588 0.929 . S
C596 C597 1.377 . S
C596 C598 1.384 . S
C597 C596 1.377 . S
C597 C603 1.390 . S
C598 H589 0.930 . S
C598 C596 1.384 . S
C598 C599 1.372 . S
C599 C598 1.372 . S
C599 C600 1.400 . S
C599 C604 1.490 . S
C600 H590 0.930 . S
C600 C599 1.400 . S
C600 C603 1.386 . S
H601 C617 0.930 . S
H602 C618 0.931 . S
C603 H591 0.929 . S
C603 C597 1.390 . S
C603 C600 1.386 . S
C604 C599 1.490 . S
C604 C606 1.395 . S
C604 C607 1.403 . S
H605 C611 0.930 . S
C606 H592 0.930 . S
C606 C604 1.395 . S
C606 C609 1.403 . S
C607 C604 1.403 . S
C607 C608 1.524 . S
C607 C611 1.400 . S
C608 H593 0.960 . S
C608 H594 0.960 . S
C608 H595 0.960 . S
C608 C607 1.524 . S
C609 C606 1.403 . S
C609 C610 1.392 . S
C609 C613 1.495 . S
C610 C609 1.392 . S
C610 C611 1.385 . S
C610 C612 1.478 . S
C611 H605 0.930 . S
C611 C607 1.400 . S
C611 C610 1.385 . S
C612 C610 1.478 . S
C612 C614 1.381 . S
C612 C618 1.383 . S
C613 C609 1.495 . S
C613 H619 0.959 . S
C613 H620 0.961 . S
C613 H621 0.960 . S
C614 C612 1.381 . S
C614 C615 1.394 . S
C614 H622 0.930 . S
C615 C614 1.394 . S
C615 C616 1.383 . S
C615 H623 0.929 . S
C616 C615 1.383 . S
C616 C617 1.377 . S
C617 H601 0.930 . S
C617 C616 1.377 . S
C617 C618 1.379 . S
C618 H602 0.931 . S
C618 C612 1.383 . S
C618 C617 1.379 . S
H619 C613 0.959 . S
H620 C613 0.961 . S
H621 C613 0.960 . S
H622 C614 0.930 . S
H623 C615 0.929 . S
H624 C632 0.929 . S
H625 C634 0.930 . S
H626 C636 0.930 . S
H627 C639 0.929 . S
H628 C642 0.930 . S
H629 C644 0.960 . S
H630 C644 0.960 . S
H631 C644 0.960 . S
C632 H624 0.929 . S
C632 C633 1.377 . S
C632 C634 1.384 . S
C633 C632 1.377 . S
C633 C639 1.390 . S
C634 H625 0.930 . S
C634 C632 1.384 . S
C634 C635 1.372 . S
C635 C634 1.372 . S
C635 C636 1.400 . S
C635 C640 1.490 . S
C636 H626 0.930 . S
C636 C635 1.400 . S
C636 C639 1.386 . S
H637 C653 0.930 . S
H638 C654 0.931 . S
C639 H627 0.929 . S
C639 C633 1.390 . S
C639 C636 1.386 . S
C640 C635 1.490 . S
C640 C642 1.395 . S
C640 C643 1.403 . S
H641 C647 0.930 . S
C642 H628 0.930 . S
C642 C640 1.395 . S
C642 C645 1.403 . S
C643 C640 1.403 . S
C643 C644 1.524 . S
C643 C647 1.400 . S
C644 H629 0.960 . S
C644 H630 0.960 . S
C644 H631 0.960 . S
C644 C643 1.524 . S
C645 C642 1.403 . S
C645 C646 1.392 . S
C645 C649 1.495 . S
C646 C645 1.392 . S
C646 C647 1.385 . S
C646 C648 1.478 . S
C647 H641 0.930 . S
C647 C643 1.400 . S
C647 C646 1.385 . S
C648 C646 1.478 . S
C648 C650 1.381 . S
C648 C654 1.383 . S
C649 C645 1.495 . S
C649 H655 0.959 . S
C649 H656 0.961 . S
C649 H657 0.960 . S
C650 C648 1.381 . S
C650 C651 1.394 . S
C650 H658 0.930 . S
C651 C650 1.394 . S
C651 C652 1.383 . S
C651 H659 0.929 . S
C652 C651 1.383 . S
C652 C653 1.377 . S
C653 H637 0.930 . S
C653 C652 1.377 . S
C653 C654 1.379 . S
C654 H638 0.931 . S
C654 C648 1.383 . S
C654 C653 1.379 . S
H655 C649 0.959 . S
H656 C649 0.961 . S
H657 C649 0.960 . S
H658 C650 0.930 . S
H659 C651 0.929 . S
H660 C668 0.929 . S
H661 C670 0.930 . S
H662 C672 0.930 . S
H663 C675 0.929 . S
H664 C678 0.930 . S
H665 C680 0.960 . S
H666 C680 0.960 . S
H667 C680 0.960 . S
C668 H660 0.929 . S
C668 C669 1.377 . S
C668 C670 1.384 . S
C669 C668 1.377 . S
C669 C675 1.390 . S
C670 H661 0.930 . S
C670 C668 1.384 . S
C670 C671 1.372 . S
C671 C670 1.372 . S
C671 C672 1.400 . S
C671 C676 1.490 . S
C672 H662 0.930 . S
C672 C671 1.400 . S
C672 C675 1.386 . S
H673 C689 0.930 . S
H674 C690 0.931 . S
C675 H663 0.929 . S
C675 C669 1.390 . S
C675 C672 1.386 . S
C676 C671 1.490 . S
C676 C678 1.395 . S
C676 C679 1.403 . S
H677 C683 0.930 . S
C678 H664 0.930 . S
C678 C676 1.395 . S
C678 C681 1.403 . S
C679 C676 1.403 . S
C679 C680 1.524 . S
C679 C683 1.400 . S
C680 H665 0.960 . S
C680 H666 0.960 . S
C680 H667 0.960 . S
C680 C679 1.524 . S
C681 C678 1.403 . S
C681 C682 1.392 . S
C681 C685 1.495 . S
C682 C681 1.392 . S
C682 C683 1.385 . S
C682 C684 1.478 . S
C683 H677 0.930 . S
C683 C679 1.400 . S
C683 C682 1.385 . S
C684 C682 1.478 . S
C684 C686 1.381 . S
C684 C690 1.383 . S
C685 C681 1.495 . S
C685 H691 0.959 . S
C685 H692 0.961 . S
C685 H693 0.960 . S
C686 C684 1.381 . S
C686 C687 1.394 . S
C686 H694 0.930 . S
C687 C686 1.394 . S
C687 C688 1.383 . S
C687 H695 0.929 . S
C688 C687 1.383 . S
C688 C689 1.377 . S
C689 H673 0.930 . S
C689 C688 1.377 . S
C689 C690 1.379 . S
C690 H674 0.931 . S
C690 C684 1.383 . S
C690 C689 1.379 . S
H691 C685 0.959 . S
H692 C685 0.961 . S
H693 C685 0.960 . S
H694 C686 0.930 . S
H695 C687 0.929 . S
H696 C704 0.929 . S
H697 C706 0.930 . S
H698 C708 0.930 . S
H699 C711 0.929 . S
H700 C714 0.930 . S
H701 C716 0.960 . S
H702 C716 0.960 . S
H703 C716 0.960 . S
C704 H696 0.929 . S
C704 C705 1.377 . S
C704 C706 1.384 . S
C705 C704 1.377 . S
C705 C711 1.390 . S
C706 H697 0.930 . S
C706 C704 1.384 . S
C706 C707 1.372 . S
C707 C706 1.372 . S
C707 C708 1.400 . S
C707 C712 1.490 . S
C708 H698 0.930 . S
C708 C707 1.400 . S
C708 C711 1.386 . S
H709 C725 0.930 . S
H710 C726 0.931 . S
C711 H699 0.929 . S
C711 C705 1.390 . S
C711 C708 1.386 . S
C712 C707 1.490 . S
C712 C714 1.395 . S
C712 C715 1.403 . S
H713 C719 0.930 . S
C714 H700 0.930 . S
C714 C712 1.395 . S
C714 C717 1.403 . S
C715 C712 1.403 . S
C715 C716 1.524 . S
C715 C719 1.400 . S
C716 H701 0.960 . S
C716 H702 0.960 . S
C716 H703 0.960 . S
C716 C715 1.524 . S
C717 C714 1.403 . S
C717 C718 1.392 . S
C717 C721 1.495 . S
C718 C717 1.392 . S
C718 C719 1.385 . S
C718 C720 1.478 . S
C719 H713 0.930 . S
C719 C715 1.400 . S
C719 C718 1.385 . S
C720 C718 1.478 . S
C720 C722 1.381 . S
C720 C726 1.383 . S
C721 C717 1.495 . S
C721 H727 0.959 . S
C721 H728 0.961 . S
C721 H729 0.960 . S
C722 C720 1.381 . S
C722 C723 1.394 . S
C722 H730 0.930 . S
C723 C722 1.394 . S
C723 C724 1.383 . S
C723 H731 0.929 . S
C724 C723 1.383 . S
C724 C725 1.377 . S
C725 H709 0.930 . S
C725 C724 1.377 . S
C725 C726 1.379 . S
C726 H710 0.931 . S
C726 C720 1.383 . S
C726 C725 1.379 . S
H727 C721 0.959 . S
H728 C721 0.961 . S
H729 C721 0.960 . S
H730 C722 0.930 . S
H731 C723 0.929 . S
H732 C740 0.929 . S
H733 C742 0.930 . S
H734 C744 0.930 . S
H735 C747 0.929 . S
H736 C750 0.930 . S
H737 C752 0.960 . S
H738 C752 0.960 . S
H739 C752 0.960 . S
C740 H732 0.929 . S
C740 C741 1.377 . S
C740 C742 1.384 . S
C741 C740 1.377 . S
C741 C747 1.390 . S
C742 H733 0.930 . S
C742 C740 1.384 . S
C742 C743 1.372 . S
C743 C742 1.372 . S
C743 C744 1.400 . S
C743 C748 1.490 . S
C744 H734 0.930 . S
C744 C743 1.400 . S
C744 C747 1.386 . S
H745 C761 0.930 . S
H746 C762 0.931 . S
C747 H735 0.929 . S
C747 C741 1.390 . S
C747 C744 1.386 . S
C748 C743 1.490 . S
C748 C750 1.395 . S
C748 C751 1.403 . S
H749 C755 0.930 . S
C750 H736 0.930 . S
C750 C748 1.395 . S
C750 C753 1.403 . S
C751 C748 1.403 . S
C751 C752 1.524 . S
C751 C755 1.400 . S
C752 H737 0.960 . S
C752 H738 0.960 . S
C752 H739 0.960 . S
C752 C751 1.524 . S
C753 C750 1.403 . S
C753 C754 1.392 . S
C753 C757 1.495 . S
C754 C753 1.392 . S
C754 C755 1.385 . S
C754 C756 1.478 . S
C755 H749 0.930 . S
C755 C751 1.400 . S
C755 C754 1.385 . S
C756 C754 1.478 . S
C756 C758 1.381 . S
C756 C762 1.383 . S
C757 C753 1.495 . S
C757 H763 0.959 . S
C757 H764 0.961 . S
C757 H765 0.960 . S
C758 C756 1.381 . S
C758 C759 1.394 . S
C758 H766 0.930 . S
C759 C758 1.394 . S
C759 C760 1.383 . S
C759 H767 0.929 . S
C760 C759 1.383 . S
C760 C761 1.377 . S
C761 H745 0.930 . S
C761 C760 1.377 . S
C761 C762 1.379 . S
C762 H746 0.931 . S
C762 C756 1.383 . S
C762 C761 1.379 . S
H763 C757 0.959 . S
H764 C757 0.961 . S
H765 C757 0.960 . S
H766 C758 0.930 . S
H767 C759 0.929 . S
H768 C776 0.929 . S
H769 C778 0.930 . S
H770 C780 0.930 . S
H771 C783 0.929 . S
H772 C786 0.930 . S
H773 C788 0.960 . S
H774 C788 0.960 . S
H775 C788 0.960 . S
C776 H768 0.929 . S
C776 C777 1.377 . S
C776 C778 1.384 . S
C777 C776 1.377 . S
C777 C783 1.390 . S
C778 H769 0.930 . S
C778 C776 1.384 . S
C778 C779 1.372 . S
C779 C778 1.372 . S
C779 C780 1.400 . S
C779 C784 1.490 . S
C780 H770 0.930 . S
C780 C779 1.400 . S
C780 C783 1.386 . S
H781 C797 0.930 . S
H782 C798 0.931 . S
C783 H771 0.929 . S
C783 C777 1.390 . S
C783 C780 1.386 . S
C784 C779 1.490 . S
C784 C786 1.395 . S
C784 C787 1.403 . S
H785 C791 0.930 . S
C786 H772 0.930 . S
C786 C784 1.395 . S
C786 C789 1.403 . S
C787 C784 1.403 . S
C787 C788 1.524 . S
C787 C791 1.400 . S
C788 H773 0.960 . S
C788 H774 0.960 . S
C788 H775 0.960 . S
C788 C787 1.524 . S
C789 C786 1.403 . S
C789 C790 1.392 . S
C789 C793 1.495 . S
C790 C789 1.392 . S
C790 C791 1.385 . S
C790 C792 1.478 . S
C791 H785 0.930 . S
C791 C787 1.400 . S
C791 C790 1.385 . S
C792 C790 1.478 . S
C792 C794 1.381 . S
C792 C798 1.383 . S
C793 C789 1.495 . S
C793 H799 0.959 . S
C793 H800 0.961 . S
C793 H801 0.960 . S
C794 C792 1.381 . S
C794 C795 1.394 . S
C794 H802 0.930 . S
C795 C794 1.394 . S
C795 C796 1.383 . S
C795 H803 0.929 . S
C796 C795 1.383 . S
C796 C797 1.377 . S
C797 H781 0.930 . S
C797 C796 1.377 . S
C797 C798 1.379 . S
C798 H782 0.931 . S
C798 C792 1.383 . S
C798 C797 1.379 . S
H799 C793 0.959 . S
H800 C793 0.961 . S
H801 C793 0.960 . S
H802 C794 0.930 . S
H803 C795 0.929 . S
H804 C812 0.929 . S
H805 C814 0.930 . S
H806 C816 0.930 . S
H807 C819 0.929 . S
H808 C822 0.930 . S
H809 C824 0.960 . S
H810 C824 0.960 . S
H811 C824 0.960 . S
C812 H804 0.929 . S
C812 C813 1.377 . S
C812 C814 1.384 . S
C813 C812 1.377 . S
C813 C819 1.390 . S
C814 H805 0.930 . S
C814 C812 1.384 . S
C814 C815 1.372 . S
C815 C814 1.372 . S
C815 C816 1.400 . S
C815 C820 1.490 . S
C816 H806 0.930 . S
C816 C815 1.400 . S
C816 C819 1.386 . S
H817 C833 0.930 . S
H818 C834 0.931 . S
C819 H807 0.929 . S
C819 C813 1.390 . S
C819 C816 1.386 . S
C820 C815 1.490 . S
C820 C822 1.395 1_556 S
C820 C823 1.403 . S
H821 C827 0.931 . S
C822 H808 0.930 . S
C822 C820 1.395 1_554 S
C822 C825 1.403 . S
C823 C820 1.403 . S
C823 C824 1.524 . S
C823 C827 1.411 . S
C824 H809 0.960 . S
C824 H810 0.960 . S
C824 H811 0.960 . S
C824 C823 1.524 . S
C825 C822 1.403 . S
C825 C826 1.392 . S
C825 C829 1.495 . S
C826 C825 1.392 . S
C826 C827 1.374 1_554 S
C826 C828 1.478 . S
C827 H821 0.931 . S
C827 C823 1.411 . S
C827 C826 1.374 1_556 S
C828 C826 1.478 . S
C828 C830 1.381 . S
C828 C834 1.383 . S
C829 C825 1.495 . S
C829 H835 0.959 . S
C829 H836 0.961 . S
C829 H837 0.960 . S
C830 C828 1.381 . S
C830 C831 1.394 . S
C830 H838 0.930 . S
C831 C830 1.394 . S
C831 C832 1.383 . S
C831 H839 0.929 . S
C832 C831 1.383 . S
C832 C833 1.377 . S
C833 H817 0.930 . S
C833 C832 1.377 . S
C833 C834 1.379 . S
C834 H818 0.931 . S
C834 C828 1.383 . S
C834 C833 1.379 . S
H835 C829 0.959 . S
H836 C829 0.961 . S
H837 C829 0.960 . S
H838 C830 0.930 . S
H839 C831 0.929 . S
H840 C848 0.929 . S
H841 C850 0.930 . S
H842 C852 0.956 . S
H843 C855 0.929 . S
H844 C858 0.930 . S
H845 C860 0.960 . S
H846 C860 0.960 1_554 S
H847 C860 0.960 1_545 S
C848 H840 0.929 . S
C848 C849 1.377 . S
C848 C850 1.384 . S
C849 C848 1.377 . S
C849 C855 1.390 . S
C850 H841 0.930 . S
C850 C848 1.384 . S
C850 C851 1.372 . S
C851 C850 1.372 . S
C851 C852 1.400 . S
C851 C856 1.490 . S
C852 H842 0.956 . S
C852 C851 1.400 . S
C852 C855 1.386 . S
H853 C869 0.930 . S
H854 C870 0.931 . S
C855 H843 0.929 . S
C855 C849 1.390 . S
C855 C852 1.386 . S
C856 C851 1.490 . S
C856 C858 1.395 . S
C856 C859 1.367 1_544 S
H857 C863 0.930 . S
C858 H844 0.930 . S
C858 C856 1.395 . S
C858 C861 1.412 . S
C859 C856 1.367 1_566 S
C859 C860 1.553 . S
C859 C863 1.409 . S
C860 H845 0.960 . S
C860 H846 0.960 1_556 S
C860 H847 0.960 1_565 S
C860 C859 1.553 . S
C861 C858 1.412 . S
C861 C862 1.361 1_544 S
C861 C865 1.520 . S
C862 C861 1.361 1_566 S
C862 C863 1.385 . S
C862 C864 1.478 . S
C863 H857 0.930 . S
C863 C859 1.409 . S
C863 C862 1.385 . S
C864 C862 1.478 . S
C864 C866 1.381 . S
C864 C870 1.383 . S
C865 C861 1.520 . S
C865 H871 0.959 . S
C865 H872 0.961 1_554 S
C865 H873 0.960 1_545 S
C866 C864 1.381 . S
C866 C867 1.394 . S
C866 H874 0.930 1_556 S
C867 C866 1.394 . S
C867 C868 1.383 . S
C867 H875 0.929 . S
C868 C867 1.383 . S
C868 C869 1.377 . S
C869 H853 0.930 . S
C869 C868 1.377 . S
C869 C870 1.379 . S
C870 H854 0.931 . S
C870 C864 1.383 . S
C870 C869 1.379 . S
H871 C865 0.959 . S
H872 C865 0.961 1_556 S
H873 C865 0.960 1_565 S
H874 C866 0.930 1_554 S
H875 C867 0.929 . S
H876 C884 0.929 . S
H877 C886 0.930 . S
H878 C888 0.930 . S
H879 C891 0.929 . S
H880 C894 0.930 . S
H881 C896 0.960 . S
H882 C896 0.960 1_554 S
H883 C896 0.960 1_655 S
C884 H876 0.929 . S
C884 C885 1.377 . S
C884 C886 1.384 . S
C885 C884 1.377 . S
C885 C891 1.390 . S
C886 H877 0.930 . S
C886 C884 1.384 . S
C886 C887 1.372 . S
C887 C886 1.372 . S
C887 C888 1.400 . S
C887 C892 1.490 . S
C888 H878 0.930 . S
C888 C887 1.400 . S
C888 C891 1.386 . S
H889 C905 0.930 . S
H890 C906 0.931 . S
C891 H879 0.929 . S
C891 C885 1.390 . S
C891 C888 1.386 . S
C892 C887 1.490 . S
C892 C894 1.395 . S
C892 C895 1.407 1_655 S
H893 C899 0.930 . S
C894 H880 0.930 . S
C894 C892 1.395 . S
C894 C897 1.403 . S
C895 C892 1.407 1_455 S
C895 C896 1.523 1_554 S
C895 C899 1.396 1_554 S
C896 H881 0.960 . S
C896 H882 0.960 1_556 S
C896 H883 0.960 1_455 S
C896 C895 1.523 1_556 S
C897 C894 1.403 . S
C897 C898 1.392 1_654 S
C897 C901 1.495 . S
C898 C897 1.392 1_456 S
C898 C899 1.385 . S
C898 C900 1.478 . S
C899 H893 0.930 . S
C899 C895 1.396 1_556 S
C899 C898 1.385 . S
C900 C898 1.478 . S
C900 C902 1.381 . S
C900 C906 1.383 . S
C901 C897 1.495 . S
C901 H907 0.959 . S
C901 H908 0.961 1_554 S
C901 H909 0.960 1_655 S
C902 C900 1.381 . S
C902 C903 1.394 . S
C902 H910 0.930 1_556 S
C903 C902 1.394 . S
C903 C904 1.383 . S
C903 H911 0.929 . S
C904 C903 1.383 . S
C904 C905 1.377 . S
C905 H889 0.930 . S
C905 C904 1.377 . S
C905 C906 1.379 . S
C906 H890 0.931 . S
C906 C900 1.383 . S
C906 C905 1.379 . S
H907 C901 0.959 . S
H908 C901 0.961 1_556 S
H909 C901 0.960 1_455 S
H910 C902 0.930 1_554 S
H911 C903 0.929 . S
H912 C920 0.929 . S
H913 C922 0.930 . S
H914 C924 0.930 . S
H915 C927 0.929 . S
H916 C930 0.930 . S
H917 C932 0.960 . S
H918 C932 0.960 . S
H919 C932 0.960 . S
C920 H912 0.929 . S
C920 C921 1.377 . S
C920 C922 1.384 . S
C921 C920 1.377 . S
C921 C927 1.390 . S
C922 H913 0.930 . S
C922 C920 1.384 . S
C922 C923 1.372 . S
C923 C922 1.372 . S
C923 C924 1.400 . S
C923 C928 1.490 . S
C924 H914 0.930 . S
C924 C923 1.400 . S
C924 C927 1.386 . S
H925 C941 0.930 . S
H926 C942 0.931 . S
C927 H915 0.929 . S
C927 C921 1.390 . S
C927 C924 1.386 . S
C928 C923 1.490 . S
C928 C930 1.395 . S
C928 C931 1.403 . S
H929 C935 0.930 . S
C930 H916 0.930 . S
C930 C928 1.395 . S
C930 C933 1.403 . S
C931 C928 1.403 . S
C931 C932 1.524 . S
C931 C935 1.400 . S
C932 H917 0.960 . S
C932 H918 0.960 . S
C932 H919 0.960 . S
C932 C931 1.524 . S
C933 C930 1.403 . S
C933 C934 1.392 . S
C933 C937 1.495 . S
C934 C933 1.392 . S
C934 C935 1.385 . S
C934 C936 1.478 . S
C935 H929 0.930 . S
C935 C931 1.400 . S
C935 C934 1.385 . S
C936 C934 1.478 . S
C936 C938 1.381 . S
C936 C942 1.383 . S
C937 C933 1.495 . S
C937 H943 0.959 . S
C937 H944 0.961 . S
C937 H945 0.960 . S
C938 C936 1.381 . S
C938 C939 1.394 . S
C938 H946 0.930 . S
C939 C938 1.394 . S
C939 C940 1.383 . S
C939 H947 0.929 . S
C940 C939 1.383 . S
C940 C941 1.377 . S
C941 H925 0.930 . S
C941 C940 1.377 . S
C941 C942 1.379 . S
C942 H926 0.931 . S
C942 C936 1.383 . S
C942 C941 1.379 . S
H943 C937 0.959 . S
H944 C937 0.961 . S
H945 C937 0.960 . S
H946 C938 0.930 . S
H947 C939 0.929 . S
H948 C956 0.929 . S
H949 C958 0.930 . S
H950 C960 0.930 . S
H951 C963 0.929 . S
H952 C966 0.930 . S
H953 C968 0.937 1_545 S
H954 C968 0.961 1_545 S
H955 C968 1.010 . S
C956 H948 0.929 . S
C956 C957 1.377 . S
C956 C958 1.384 . S
C957 C956 1.377 . S
C957 C963 1.390 . S
C958 H949 0.930 . S
C958 C956 1.384 . S
C958 C959 1.372 . S
C959 C958 1.372 . S
C959 C960 1.400 . S
C959 C964 1.490 . S
C960 H950 0.930 . S
C960 C959 1.400 . S
C960 C963 1.386 . S
H961 C977 0.930 . S
H962 C978 0.931 . S
C963 H951 0.929 . S
C963 C957 1.390 . S
C963 C960 1.386 . S
C964 C959 1.490 . S
C964 C966 1.395 . S
C964 C967 1.403 . S
H965 C971 0.930 . S
C966 H952 0.930 . S
C966 C964 1.395 . S
C966 C969 1.403 1_565 S
C967 C964 1.403 . S
C967 C968 1.499 . S
C967 C971 1.400 1_565 S
C968 H953 0.937 1_565 S
C968 H954 0.961 1_565 S
C968 H955 1.010 . S
C968 C967 1.499 . S
C969 C966 1.403 1_545 S
C969 C970 1.392 . S
C969 C973 1.495 . S
C970 C969 1.392 . S
C970 C971 1.385 . S
C970 C972 1.478 . S
C971 H965 0.930 . S
C971 C967 1.400 1_545 S
C971 C970 1.385 . S
C972 C970 1.478 . S
C972 C974 1.381 . S
C972 C978 1.383 . S
C973 C969 1.495 . S
C973 H979 0.959 1_545 S
C973 H980 0.961 1_545 S
C973 H981 0.960 . S
C974 C972 1.381 . S
C974 C975 1.394 . S
C974 H982 0.930 . S
C975 C974 1.394 . S
C975 C976 1.383 . S
C975 H983 0.929 . S
C976 C975 1.383 . S
C976 C977 1.377 . S
C977 H961 0.930 . S
C977 C976 1.377 . S
C977 C978 1.379 . S
C978 H962 0.931 . S
C978 C972 1.383 . S
C978 C977 1.379 . S
H979 C973 0.959 1_565 S
H980 C973 0.961 1_565 S
H981 C973 0.960 . S
H982 C974 0.930 . S
H983 C975 0.929 . S
H984 C992 0.929 . S
H985 C994 0.930 . S
H986 C996 0.930 . S
H987 C999 0.929 . S
H988 C1002 0.930 . S
H989 C1004 0.960 . S
H990 C1004 0.960 . S
H991 C1004 0.960 . S
C992 H984 0.929 . S
C992 C993 1.377 . S
C992 C994 1.384 . S
C993 C992 1.377 . S
C993 C999 1.390 . S
C994 H985 0.930 . S
C994 C992 1.384 . S
C994 C995 1.372 . S
C995 C994 1.372 . S
C995 C996 1.400 . S
C995 C1000 1.490 . S
C996 H986 0.930 . S
C996 C995 1.400 . S
C996 C999 1.386 . S
H997 C1013 0.930 . S
H998 C1014 0.931 . S
C999 H987 0.929 . S
C999 C993 1.390 . S
C999 C996 1.386 . S
C1000 C995 1.490 . S
C1000 C1002 1.395 . S
C1000 C1003 1.403 1_655 S
H1001 C1007 0.930 . S
C1002 H988 0.930 . S
C1002 C1000 1.395 . S
C1002 C1005 1.403 . S
C1003 C1000 1.403 1_455 S
C1003 C1004 1.524 . S
C1003 C1007 1.400 . S
C1004 H989 0.960 . S
C1004 H990 0.960 . S
C1004 H991 0.960 . S
C1004 C1003 1.524 . S
C1005 C1002 1.403 . S
C1005 C1006 1.392 1_655 S
C1005 C1009 1.495 . S
C1006 C1005 1.392 1_455 S
C1006 C1007 1.385 . S
C1006 C1008 1.478 . S
C1007 H1001 0.930 . S
C1007 C1003 1.400 . S
C1007 C1006 1.385 . S
C1008 C1006 1.478 . S
C1008 C1010 1.381 . S
C1008 C1014 1.383 . S
C1009 C1005 1.495 . S
C1009 H1015 0.959 . S
C1009 H1016 0.961 . S
C1009 H1017 0.960 . S
C1010 C1008 1.381 . S
C1010 C1011 1.394 . S
C1010 H1018 0.930 . S
C1011 C1010 1.394 . S
C1011 C1012 1.383 . S
C1011 H1019 0.929 . S
C1012 C1011 1.383 . S
C1012 C1013 1.377 . S
C1013 H997 0.930 . S
C1013 C1012 1.377 . S
C1013 C1014 1.379 . S
C1014 H998 0.931 . S
C1014 C1008 1.383 . S
C1014 C1013 1.379 . S
H1015 C1009 0.959 . S
H1016 C1009 0.961 . S
H1017 C1009 0.960 . S
H1018 C1010 0.930 . S
H1019 C1011 0.929 . S
H1020 C1028 0.929 . S
H1021 C1030 0.930 . S
H1022 C1032 0.930 . S
H1023 C1035 0.929 . S
H1024 C1038 0.930 . S
H1025 C1040 0.960 . S
H1026 C1040 0.960 . S
H1027 C1040 0.960 . S
C1028 H1020 0.929 . S
C1028 C1029 1.377 . S
C1028 C1030 1.384 . S
C1029 C1028 1.377 . S
C1029 C1035 1.390 . S
C1030 H1021 0.930 . S
C1030 C1028 1.384 . S
C1030 C1031 1.372 . S
C1031 C1030 1.372 . S
C1031 C1032 1.400 . S
C1031 C1036 1.490 . S
C1032 H1022 0.930 . S
C1032 C1031 1.400 . S
C1032 C1035 1.386 . S
H1033 C1049 0.930 . S
H1034 C1050 0.931 . S
C1035 H1023 0.929 . S
C1035 C1029 1.390 . S
C1035 C1032 1.386 . S
C1036 C1031 1.490 . S
C1036 C1038 1.395 . S
C1036 C1039 1.403 . S
H1037 C1043 0.930 . S
C1038 H1024 0.930 . S
C1038 C1036 1.395 . S
C1038 C1041 1.403 . S
C1039 C1036 1.403 . S
C1039 C1040 1.524 . S
C1039 C1043 1.400 . S
C1040 H1025 0.960 . S
C1040 H1026 0.960 . S
C1040 H1027 0.960 . S
C1040 C1039 1.524 . S
C1041 C1038 1.403 . S
C1041 C1042 1.392 . S
C1041 C1045 1.495 . S
C1042 C1041 1.392 . S
C1042 C1043 1.385 . S
C1042 C1044 1.478 . S
C1043 H1037 0.930 . S
C1043 C1039 1.400 . S
C1043 C1042 1.385 . S
C1044 C1042 1.478 . S
C1044 C1046 1.381 . S
C1044 C1050 1.383 . S
C1045 C1041 1.495 . S
C1045 H1051 0.959 . S
C1045 H1052 0.961 . S
C1045 H1053 0.960 . S
C1046 C1044 1.381 . S
C1046 C1047 1.394 . S
C1046 H1054 0.930 . S
C1047 C1046 1.394 . S
C1047 C1048 1.383 . S
C1047 H1055 0.929 . S
C1048 C1047 1.383 . S
C1048 C1049 1.377 . S
C1049 H1033 0.930 . S
C1049 C1048 1.377 . S
C1049 C1050 1.379 . S
C1050 H1034 0.931 . S
C1050 C1044 1.383 . S
C1050 C1049 1.379 . S
H1051 C1045 0.959 . S
H1052 C1045 0.961 . S
H1053 C1045 0.960 . S
H1054 C1046 0.930 . S
H1055 C1047 0.929 . S
H1056 C1064 0.929 . S
H1057 C1066 0.930 . S
H1058 C1068 0.930 . S
H1059 C1071 0.929 . S
H1060 C1074 0.930 . S
H1061 C1076 0.960 . S
H1062 C1076 0.960 . S
H1063 C1076 0.960 . S
C1064 H1056 0.929 . S
C1064 C1065 1.377 . S
C1064 C1066 1.384 . S
C1065 C1064 1.377 . S
C1065 C1071 1.390 . S
C1066 H1057 0.930 . S
C1066 C1064 1.384 . S
C1066 C1067 1.372 . S
C1067 C1066 1.372 . S
C1067 C1068 1.400 . S
C1067 C1072 1.490 . S
C1068 H1058 0.930 . S
C1068 C1067 1.400 . S
C1068 C1071 1.386 . S
H1069 C1085 0.930 . S
H1070 C1086 0.931 . S
C1071 H1059 0.929 . S
C1071 C1065 1.390 . S
C1071 C1068 1.386 . S
C1072 C1067 1.490 . S
C1072 C1074 1.395 . S
C1072 C1075 1.403 . S
H1073 C1079 0.930 . S
C1074 H1060 0.930 . S
C1074 C1072 1.395 . S
C1074 C1077 1.403 . S
C1075 C1072 1.403 . S
C1075 C1076 1.524 . S
C1075 C1079 1.400 . S
C1076 H1061 0.960 . S
C1076 H1062 0.960 . S
C1076 H1063 0.960 . S
C1076 C1075 1.524 . S
C1077 C1074 1.403 . S
C1077 C1078 1.392 . S
C1077 C1081 1.495 . S
C1078 C1077 1.392 . S
C1078 C1079 1.385 . S
C1078 C1080 1.478 . S
C1079 H1073 0.930 . S
C1079 C1075 1.400 . S
C1079 C1078 1.385 . S
C1080 C1078 1.478 . S
C1080 C1082 1.381 . S
C1080 C1086 1.383 . S
C1081 C1077 1.495 . S
C1081 H1087 0.959 . S
C1081 H1088 0.961 . S
C1081 H1089 0.960 . S
C1082 C1080 1.381 . S
C1082 C1083 1.394 . S
C1082 H1090 0.930 . S
C1083 C1082 1.394 . S
C1083 C1084 1.383 . S
C1083 H1091 0.929 . S
C1084 C1083 1.383 . S
C1084 C1085 1.377 . S
C1085 H1069 0.930 . S
C1085 C1084 1.377 . S
C1085 C1086 1.379 . S
C1086 H1070 0.931 . S
C1086 C1080 1.383 . S
C1086 C1085 1.379 . S
H1087 C1081 0.959 . S
H1088 C1081 0.961 . S
H1089 C1081 0.960 . S
H1090 C1082 0.930 . S
H1091 C1083 0.929 . S
H1092 C1100 0.929 . S
H1093 C1102 0.930 . S
H1094 C1104 0.930 . S
H1095 C1107 0.929 . S
H1096 C1110 0.930 . S
H1097 C1112 0.960 . S
H1098 C1112 0.960 . S
H1099 C1112 0.960 . S
C1100 H1092 0.929 . S
C1100 C1101 1.377 . S
C1100 C1102 1.384 . S
C1101 C1100 1.377 . S
C1101 C1107 1.390 . S
C1102 H1093 0.930 . S
C1102 C1100 1.384 . S
C1102 C1103 1.372 . S
C1103 C1102 1.372 . S
C1103 C1104 1.400 . S
C1103 C1108 1.490 . S
C1104 H1094 0.930 . S
C1104 C1103 1.400 . S
C1104 C1107 1.386 . S
H1105 C1121 0.930 . S
H1106 C1122 0.931 . S
C1107 H1095 0.929 . S
C1107 C1101 1.390 . S
C1107 C1104 1.386 . S
C1108 C1103 1.490 . S
C1108 C1110 1.395 . S
C1108 C1111 1.403 . S
H1109 C1115 0.930 . S
C1110 H1096 0.930 . S
C1110 C1108 1.395 . S
C1110 C1113 1.403 . S
C1111 C1108 1.403 . S
C1111 C1112 1.524 . S
C1111 C1115 1.400 . S
C1112 H1097 0.960 . S
C1112 H1098 0.960 . S
C1112 H1099 0.960 . S
C1112 C1111 1.524 . S
C1113 C1110 1.403 . S
C1113 C1114 1.392 . S
C1113 C1117 1.495 . S
C1114 C1113 1.392 . S
C1114 C1115 1.385 . S
C1114 C1116 1.478 . S
C1115 H1109 0.930 . S
C1115 C1111 1.400 . S
C1115 C1114 1.385 . S
C1116 C1114 1.478 . S
C1116 C1118 1.381 . S
C1116 C1122 1.383 . S
C1117 C1113 1.495 . S
C1117 H1123 0.959 . S
C1117 H1124 0.961 . S
C1117 H1125 0.960 . S
C1118 C1116 1.381 . S
C1118 C1119 1.394 . S
C1118 H1126 0.930 . S
C1119 C1118 1.394 . S
C1119 C1120 1.383 . S
C1119 H1127 0.929 . S
C1120 C1119 1.383 . S
C1120 C1121 1.377 . S
C1121 H1105 0.930 . S
C1121 C1120 1.377 . S
C1121 C1122 1.379 . S
C1122 H1106 0.931 . S
C1122 C1116 1.383 . S
C1122 C1121 1.379 . S
H1123 C1117 0.959 . S
H1124 C1117 0.961 . S
H1125 C1117 0.960 . S
H1126 C1118 0.930 . S
H1127 C1119 0.929 . S
H1128 C1136 0.929 . S
H1129 C1138 0.930 . S
H1130 C1140 0.930 . S
H1131 C1143 0.929 . S
H1132 C1146 0.930 . S
H1133 C1148 0.960 . S
H1134 C1148 0.960 . S
H1135 C1148 0.960 . S
C1136 H1128 0.929 . S
C1136 C1137 1.377 . S
C1136 C1138 1.384 . S
C1137 C1136 1.377 . S
C1137 C1143 1.390 . S
C1138 H1129 0.930 . S
C1138 C1136 1.384 . S
C1138 C1139 1.372 . S
C1139 C1138 1.372 . S
C1139 C1140 1.400 . S
C1139 C1144 1.490 . S
C1140 H1130 0.930 . S
C1140 C1139 1.400 . S
C1140 C1143 1.386 . S
H1141 C1157 0.930 . S
H1142 C1158 0.931 . S
C1143 H1131 0.929 . S
C1143 C1137 1.390 . S
C1143 C1140 1.386 . S
C1144 C1139 1.490 . S
C1144 C1146 1.395 . S
C1144 C1147 1.403 . S
H1145 C1151 0.930 . S
C1146 H1132 0.930 . S
C1146 C1144 1.395 . S
C1146 C1149 1.403 . S
C1147 C1144 1.403 . S
C1147 C1148 1.524 . S
C1147 C1151 1.400 . S
C1148 H1133 0.960 . S
C1148 H1134 0.960 . S
C1148 H1135 0.960 . S
C1148 C1147 1.524 . S
C1149 C1146 1.403 . S
C1149 C1150 1.392 . S
C1149 C1153 1.495 . S
C1150 C1149 1.392 . S
C1150 C1151 1.385 . S
C1150 C1152 1.478 . S
C1151 H1145 0.930 . S
C1151 C1147 1.400 . S
C1151 C1150 1.385 . S
C1152 C1150 1.478 . S
C1152 C1154 1.381 . S
C1152 C1158 1.383 . S
C1153 C1149 1.495 . S
C1153 H1159 0.959 . S
C1153 H1160 0.961 . S
C1153 H1161 0.960 . S
C1154 C1152 1.381 . S
C1154 C1155 1.394 . S
C1154 H1162 0.930 . S
C1155 C1154 1.394 . S
C1155 C1156 1.383 . S
C1155 H1163 0.929 . S
C1156 C1155 1.383 . S
C1156 C1157 1.377 . S
C1157 H1141 0.930 . S
C1157 C1156 1.377 . S
C1157 C1158 1.379 . S
C1158 H1142 0.931 . S
C1158 C1152 1.383 . S
C1158 C1157 1.379 . S
H1159 C1153 0.959 . S
H1160 C1153 0.961 . S
H1161 C1153 0.960 . S
H1162 C1154 0.930 . S
H1163 C1155 0.929 . S
H1164 C1172 0.929 . S
H1165 C1174 0.930 . S
H1166 C1176 0.930 . S
H1167 C1179 0.929 . S
H1168 C1182 0.930 . S
H1169 C1184 0.960 . S
H1170 C1184 0.960 . S
H1171 C1184 0.960 . S
C1172 H1164 0.929 . S
C1172 C1173 1.377 . S
C1172 C1174 1.384 . S
C1173 C1172 1.377 . S
C1173 C1179 1.390 . S
C1174 H1165 0.930 . S
C1174 C1172 1.384 . S
C1174 C1175 1.372 . S
C1175 C1174 1.372 . S
C1175 C1176 1.400 . S
C1175 C1180 1.490 . S
C1176 H1166 0.930 . S
C1176 C1175 1.400 . S
C1176 C1179 1.386 . S
H1177 C1193 0.930 . S
H1178 C1194 0.931 . S
C1179 H1167 0.929 . S
C1179 C1173 1.390 . S
C1179 C1176 1.386 . S
C1180 C1175 1.490 . S
C1180 C1182 1.395 . S
C1180 C1183 1.403 . S
H1181 C1187 0.930 . S
C1182 H1168 0.930 . S
C1182 C1180 1.395 . S
C1182 C1185 1.403 . S
C1183 C1180 1.403 . S
C1183 C1184 1.524 . S
C1183 C1187 1.400 . S
C1184 H1169 0.960 . S
C1184 H1170 0.960 . S
C1184 H1171 0.960 . S
C1184 C1183 1.524 . S
C1185 C1182 1.403 . S
C1185 C1186 1.392 . S
C1185 C1189 1.495 . S
C1186 C1185 1.392 . S
C1186 C1187 1.385 . S
C1186 C1188 1.478 . S
C1187 H1181 0.930 . S
C1187 C1183 1.400 . S
C1187 C1186 1.385 . S
C1188 C1186 1.478 . S
C1188 C1190 1.381 . S
C1188 C1194 1.383 . S
C1189 C1185 1.495 . S
C1189 H1195 0.959 . S
C1189 H1196 0.961 . S
C1189 H1197 0.960 . S
C1190 C1188 1.381 . S
C1190 C1191 1.394 . S
C1190 H1198 0.930 . S
C1191 C1190 1.394 . S
C1191 C1192 1.383 . S
C1191 H1199 0.929 . S
C1192 C1191 1.383 . S
C1192 C1193 1.377 . S
C1193 H1177 0.930 . S
C1193 C1192 1.377 . S
C1193 C1194 1.379 . S
C1194 H1178 0.931 . S
C1194 C1188 1.383 . S
C1194 C1193 1.379 . S
H1195 C1189 0.959 . S
H1196 C1189 0.961 . S
H1197 C1189 0.960 . S
H1198 C1190 0.930 . S
H1199 C1191 0.929 . S
H1200 C1208 0.929 . S
H1201 C1210 0.930 . S
H1202 C1212 0.930 . S
H1203 C1215 0.929 . S
H1204 C1218 0.930 . S
H1205 C1220 0.960 . S
H1206 C1220 0.960 . S
H1207 C1220 0.960 . S
C1208 H1200 0.929 . S
C1208 C1209 1.377 . S
C1208 C1210 1.384 . S
C1209 C1208 1.377 . S
C1209 C1215 1.390 . S
C1210 H1201 0.930 . S
C1210 C1208 1.384 . S
C1210 C1211 1.372 . S
C1211 C1210 1.372 . S
C1211 C1212 1.400 . S
C1211 C1216 1.490 . S
C1212 H1202 0.930 . S
C1212 C1211 1.400 . S
C1212 C1215 1.386 . S
H1213 C1229 0.930 . S
H1214 C1230 0.931 . S
C1215 H1203 0.929 . S
C1215 C1209 1.390 . S
C1215 C1212 1.386 . S
C1216 C1211 1.490 . S
C1216 C1218 1.395 . S
C1216 C1219 1.403 . S
H1217 C1223 0.930 . S
C1218 H1204 0.930 . S
C1218 C1216 1.395 . S
C1218 C1221 1.403 . S
C1219 C1216 1.403 . S
C1219 C1220 1.524 . S
C1219 C1223 1.400 . S
C1220 H1205 0.960 . S
C1220 H1206 0.960 . S
C1220 H1207 0.960 . S
C1220 C1219 1.524 . S
C1221 C1218 1.403 . S
C1221 C1222 1.392 . S
C1221 C1225 1.495 . S
C1222 C1221 1.392 . S
C1222 C1223 1.385 . S
C1222 C1224 1.478 . S
C1223 H1217 0.930 . S
C1223 C1219 1.400 . S
C1223 C1222 1.385 . S
C1224 C1222 1.478 . S
C1224 C1226 1.381 . S
C1224 C1230 1.383 . S
C1225 C1221 1.495 . S
C1225 H1231 0.959 . S
C1225 H1232 0.961 . S
C1225 H1233 0.960 . S
C1226 C1224 1.381 . S
C1226 C1227 1.394 . S
C1226 H1234 0.930 . S
C1227 C1226 1.394 . S
C1227 C1228 1.383 . S
C1227 H1235 0.929 . S
C1228 C1227 1.383 . S
C1228 C1229 1.377 . S
C1229 H1213 0.930 . S
C1229 C1228 1.377 . S
C1229 C1230 1.379 . S
C1230 H1214 0.931 . S
C1230 C1224 1.383 . S
C1230 C1229 1.379 . S
H1231 C1225 0.959 . S
H1232 C1225 0.961 . S
H1233 C1225 0.960 . S
H1234 C1226 0.930 . S
H1235 C1227 0.929 . S
H1236 C1244 0.929 . S
H1237 C1246 0.930 . S
H1238 C1248 0.930 . S
H1239 C1251 0.929 . S
H1240 C1254 0.930 . S
H1241 C1256 0.960 . S
H1242 C1256 0.960 . S
H1243 C1256 0.960 . S
C1244 H1236 0.929 . S
C1244 C1245 1.377 . S
C1244 C1246 1.384 . S
C1245 C1244 1.377 . S
C1245 C1251 1.390 . S
C1246 H1237 0.930 . S
C1246 C1244 1.384 . S
C1246 C1247 1.372 . S
C1247 C1246 1.372 . S
C1247 C1248 1.400 . S
C1247 C1252 1.490 . S
C1248 H1238 0.930 . S
C1248 C1247 1.400 . S
C1248 C1251 1.386 . S
H1249 C1265 0.930 . S
H1250 C1266 0.931 . S
C1251 H1239 0.929 . S
C1251 C1245 1.390 . S
C1251 C1248 1.386 . S
C1252 C1247 1.490 . S
C1252 C1254 1.395 . S
C1252 C1255 1.403 . S
H1253 C1259 0.930 . S
C1254 H1240 0.930 . S
C1254 C1252 1.395 . S
C1254 C1257 1.403 . S
C1255 C1252 1.403 . S
C1255 C1256 1.524 . S
C1255 C1259 1.400 . S
C1256 H1241 0.960 . S
C1256 H1242 0.960 . S
C1256 H1243 0.960 . S
C1256 C1255 1.524 . S
C1257 C1254 1.403 . S
C1257 C1258 1.392 . S
C1257 C1261 1.495 . S
C1258 C1257 1.392 . S
C1258 C1259 1.385 . S
C1258 C1260 1.478 . S
C1259 H1253 0.930 . S
C1259 C1255 1.400 . S
C1259 C1258 1.385 . S
C1260 C1258 1.478 . S
C1260 C1262 1.381 . S
C1260 C1266 1.383 . S
C1261 C1257 1.495 . S
C1261 H1267 0.959 . S
C1261 H1268 0.961 . S
C1261 H1269 0.960 . S
C1262 C1260 1.381 . S
C1262 C1263 1.394 . S
C1262 H1270 0.930 . S
C1263 C1262 1.394 . S
C1263 C1264 1.383 . S
C1263 H1271 0.929 . S
C1264 C1263 1.383 . S
C1264 C1265 1.377 . S
C1265 H1249 0.930 . S
C1265 C1264 1.377 . S
C1265 C1266 1.379 . S
C1266 H1250 0.931 . S
C1266 C1260 1.383 . S
C1266 C1265 1.379 . S
H1267 C1261 0.959 . S
H1268 C1261 0.961 . S
H1269 C1261 0.960 . S
H1270 C1262 0.930 . S
H1271 C1263 0.929 . S
H1272 C1280 0.929 . S
H1273 C1282 0.930 . S
H1274 C1284 0.930 . S
H1275 C1287 0.929 . S
H1276 C1290 0.930 . S
H1277 C1292 0.960 . S
H1278 C1292 0.960 . S
H1279 C1292 0.960 . S
C1280 H1272 0.929 . S
C1280 C1281 1.377 . S
C1280 C1282 1.384 . S
C1281 C1280 1.377 . S
C1281 C1287 1.390 . S
C1282 H1273 0.930 . S
C1282 C1280 1.384 . S
C1282 C1283 1.372 . S
C1283 C1282 1.372 . S
C1283 C1284 1.400 . S
C1283 C1288 1.490 . S
C1284 H1274 0.930 . S
C1284 C1283 1.400 . S
C1284 C1287 1.386 . S
H1285 C1301 0.930 . S
H1286 C1302 0.931 . S
C1287 H1275 0.929 . S
C1287 C1281 1.390 . S
C1287 C1284 1.386 . S
C1288 C1283 1.490 . S
C1288 C1290 1.395 . S
C1288 C1291 1.403 . S
H1289 C1295 0.930 . S
C1290 H1276 0.930 . S
C1290 C1288 1.395 . S
C1290 C1293 1.403 . S
C1291 C1288 1.403 . S
C1291 C1292 1.524 . S
C1291 C1295 1.400 . S
C1292 H1277 0.960 . S
C1292 H1278 0.960 . S
C1292 H1279 0.960 . S
C1292 C1291 1.524 . S
C1293 C1290 1.403 . S
C1293 C1294 1.392 . S
C1293 C1297 1.495 . S
C1294 C1293 1.392 . S
C1294 C1295 1.385 . S
C1294 C1296 1.478 . S
C1295 H1289 0.930 . S
C1295 C1291 1.400 . S
C1295 C1294 1.385 . S
C1296 C1294 1.478 . S
C1296 C1298 1.381 . S
C1296 C1302 1.383 . S
C1297 C1293 1.495 . S
C1297 H1303 0.959 . S
C1297 H1304 0.961 . S
C1297 H1305 0.960 . S
C1298 C1296 1.381 . S
C1298 C1299 1.394 . S
C1298 H1306 0.930 . S
C1299 C1298 1.394 . S
C1299 C1300 1.383 . S
C1299 H1307 0.929 . S
C1300 C1299 1.383 . S
C1300 C1301 1.377 . S
C1301 H1285 0.930 . S
C1301 C1300 1.377 . S
C1301 C1302 1.379 . S
C1302 H1286 0.931 . S
C1302 C1296 1.383 . S
C1302 C1301 1.379 . S
H1303 C1297 0.959 . S
H1304 C1297 0.961 . S
H1305 C1297 0.960 . S
H1306 C1298 0.930 . S
H1307 C1299 0.929 . S
H1308 C1316 0.929 . S
H1309 C1318 0.930 . S
H1310 C1320 0.930 . S
H1311 C1323 0.929 . S
H1312 C1326 0.930 . S
H1313 C1328 0.960 . S
H1314 C1328 0.960 . S
H1315 C1328 0.960 . S
C1316 H1308 0.929 . S
C1316 C1317 1.377 . S
C1316 C1318 1.384 . S
C1317 C1316 1.377 . S
C1317 C1323 1.390 . S
C1318 H1309 0.930 . S
C1318 C1316 1.384 . S
C1318 C1319 1.372 . S
C1319 C1318 1.372 . S
C1319 C1320 1.400 . S
C1319 C1324 1.490 . S
C1320 H1310 0.930 . S
C1320 C1319 1.400 . S
C1320 C1323 1.386 . S
H1321 C1337 0.930 . S
H1322 C1338 0.931 . S
C1323 H1311 0.929 . S
C1323 C1317 1.390 . S
C1323 C1320 1.386 . S
C1324 C1319 1.490 . S
C1324 C1326 1.395 . S
C1324 C1327 1.403 . S
H1325 C1331 0.930 . S
C1326 H1312 0.930 . S
C1326 C1324 1.395 . S
C1326 C1329 1.403 . S
C1327 C1324 1.403 . S
C1327 C1328 1.524 . S
C1327 C1331 1.400 . S
C1328 H1313 0.960 . S
C1328 H1314 0.960 . S
C1328 H1315 0.960 . S
C1328 C1327 1.524 . S
C1329 C1326 1.403 . S
C1329 C1330 1.392 . S
C1329 C1333 1.495 . S
C1330 C1329 1.392 . S
C1330 C1331 1.385 . S
C1330 C1332 1.478 . S
C1331 H1325 0.930 . S
C1331 C1327 1.400 . S
C1331 C1330 1.385 . S
C1332 C1330 1.478 . S
C1332 C1334 1.381 . S
C1332 C1338 1.383 . S
C1333 C1329 1.495 . S
C1333 H1339 0.959 . S
C1333 H1340 0.961 . S
C1333 H1341 0.960 . S
C1334 C1332 1.381 . S
C1334 C1335 1.394 . S
C1334 H1342 0.930 . S
C1335 C1334 1.394 . S
C1335 C1336 1.383 . S
C1335 H1343 0.929 . S
C1336 C1335 1.383 . S
C1336 C1337 1.377 . S
C1337 H1321 0.930 . S
C1337 C1336 1.377 . S
C1337 C1338 1.379 . S
C1338 H1322 0.931 . S
C1338 C1332 1.383 . S
C1338 C1337 1.379 . S
H1339 C1333 0.959 . S
H1340 C1333 0.961 . S
H1341 C1333 0.960 . S
H1342 C1334 0.930 . S
H1343 C1335 0.929 . S
H1344 C1352 0.929 . S
H1345 C1354 0.930 . S
H1346 C1356 0.930 . S
H1347 C1359 0.929 . S
H1348 C1362 0.930 . S
H1349 C1364 0.960 . S
H1350 C1364 0.960 . S
H1351 C1364 0.960 . S
C1352 H1344 0.929 . S
C1352 C1353 1.377 . S
C1352 C1354 1.384 . S
C1353 C1352 1.377 . S
C1353 C1359 1.390 . S
C1354 H1345 0.930 . S
C1354 C1352 1.384 . S
C1354 C1355 1.372 . S
C1355 C1354 1.372 . S
C1355 C1356 1.400 . S
C1355 C1360 1.490 . S
C1356 H1346 0.930 . S
C1356 C1355 1.400 . S
C1356 C1359 1.386 . S
H1357 C1373 0.930 . S
H1358 C1374 0.931 . S
C1359 H1347 0.929 . S
C1359 C1353 1.390 . S
C1359 C1356 1.386 . S
C1360 C1355 1.490 . S
C1360 C1362 1.395 . S
C1360 C1363 1.403 . S
H1361 C1367 0.930 . S
C1362 H1348 0.930 . S
C1362 C1360 1.395 . S
C1362 C1365 1.403 . S
C1363 C1360 1.403 . S
C1363 C1364 1.524 . S
C1363 C1367 1.400 . S
C1364 H1349 0.960 . S
C1364 H1350 0.960 . S
C1364 H1351 0.960 . S
C1364 C1363 1.524 . S
C1365 C1362 1.403 . S
C1365 C1366 1.392 . S
C1365 C1369 1.495 . S
C1366 C1365 1.392 . S
C1366 C1367 1.385 . S
C1366 C1368 1.478 . S
C1367 H1361 0.930 . S
C1367 C1363 1.400 . S
C1367 C1366 1.385 . S
C1368 C1366 1.478 . S
C1368 C1370 1.381 . S
C1368 C1374 1.383 . S
C1369 C1365 1.495 . S
C1369 H1375 0.959 . S
C1369 H1376 0.961 . S
C1369 H1377 0.960 . S
C1370 C1368 1.381 . S
C1370 C1371 1.394 . S
C1370 H1378 0.930 . S
C1371 C1370 1.394 . S
C1371 C1372 1.383 . S
C1371 H1379 0.929 . S
C1372 C1371 1.383 . S
C1372 C1373 1.377 . S
C1373 H1357 0.930 . S
C1373 C1372 1.377 . S
C1373 C1374 1.379 . S
C1374 H1358 0.931 . S
C1374 C1368 1.383 . S
C1374 C1373 1.379 . S
H1375 C1369 0.959 . S
H1376 C1369 0.961 . S
H1377 C1369 0.960 . S
H1378 C1370 0.930 . S
H1379 C1371 0.929 . S
H1380 C1388 0.929 . S
H1381 C1390 0.930 . S
H1382 C1392 0.930 . S
H1383 C1395 0.929 . S
H1384 C1398 0.930 . S
H1385 C1400 0.960 . S
H1386 C1400 0.960 . S
H1387 C1400 0.960 . S
C1388 H1380 0.929 . S
C1388 C1389 1.377 . S
C1388 C1390 1.384 . S
C1389 C1388 1.377 . S
C1389 C1395 1.390 . S
C1390 H1381 0.930 . S
C1390 C1388 1.384 . S
C1390 C1391 1.372 . S
C1391 C1390 1.372 . S
C1391 C1392 1.400 . S
C1391 C1396 1.490 . S
C1392 H1382 0.930 . S
C1392 C1391 1.400 . S
C1392 C1395 1.386 . S
H1393 C1409 0.930 . S
H1394 C1410 0.931 . S
C1395 H1383 0.929 . S
C1395 C1389 1.390 . S
C1395 C1392 1.386 . S
C1396 C1391 1.490 . S
C1396 C1398 1.395 . S
C1396 C1399 1.403 . S
H1397 C1403 0.930 . S
C1398 H1384 0.930 . S
C1398 C1396 1.395 . S
C1398 C1401 1.403 . S
C1399 C1396 1.403 . S
C1399 C1400 1.524 . S
C1399 C1403 1.400 . S
C1400 H1385 0.960 . S
C1400 H1386 0.960 . S
C1400 H1387 0.960 . S
C1400 C1399 1.524 . S
C1401 C1398 1.403 . S
C1401 C1402 1.392 . S
C1401 C1405 1.495 . S
C1402 C1401 1.392 . S
C1402 C1403 1.385 . S
C1402 C1404 1.478 . S
C1403 H1397 0.930 . S
C1403 C1399 1.400 . S
C1403 C1402 1.385 . S
C1404 C1402 1.478 . S
C1404 C1406 1.381 . S
C1404 C1410 1.383 . S
C1405 C1401 1.495 . S
C1405 H1411 0.959 . S
C1405 H1412 0.961 . S
C1405 H1413 0.960 . S
C1406 C1404 1.381 . S
C1406 C1407 1.394 . S
C1406 H1414 0.930 . S
C1407 C1406 1.394 . S
C1407 C1408 1.383 . S
C1407 H1415 0.929 . S
C1408 C1407 1.383 . S
C1408 C1409 1.377 . S
C1409 H1393 0.930 . S
C1409 C1408 1.377 . S
C1409 C1410 1.379 . S
C1410 H1394 0.931 . S
C1410 C1404 1.383 . S
C1410 C1409 1.379 . S
H1411 C1405 0.959 . S
H1412 C1405 0.961 . S
H1413 C1405 0.960 . S
H1414 C1406 0.930 . S
H1415 C1407 0.929 . S
H1416 C1424 0.929 . S
H1417 C1426 0.930 . S
H1418 C1428 0.930 . S
H1419 C1431 0.929 . S
H1420 C1434 0.930 . S
H1421 C1436 0.960 . S
H1422 C1436 0.960 . S
H1423 C1436 0.960 . S
C1424 H1416 0.929 . S
C1424 C1425 1.377 . S
C1424 C1426 1.384 . S
C1425 C1424 1.377 . S
C1425 C1431 1.390 . S
C1426 H1417 0.930 . S
C1426 C1424 1.384 . S
C1426 C1427 1.372 . S
C1427 C1426 1.372 . S
C1427 C1428 1.400 . S
C1427 C1432 1.490 . S
C1428 H1418 0.930 . S
C1428 C1427 1.400 . S
C1428 C1431 1.386 . S
H1429 C1445 0.930 . S
H1430 C1446 0.931 . S
C1431 H1419 0.929 . S
C1431 C1425 1.390 . S
C1431 C1428 1.386 . S
C1432 C1427 1.490 . S
C1432 C1434 1.395 . S
C1432 C1435 1.403 . S
H1433 C1439 0.930 . S
C1434 H1420 0.930 . S
C1434 C1432 1.395 . S
C1434 C1437 1.403 . S
C1435 C1432 1.403 . S
C1435 C1436 1.524 . S
C1435 C1439 1.400 . S
C1436 H1421 0.960 . S
C1436 H1422 0.960 . S
C1436 H1423 0.960 . S
C1436 C1435 1.524 . S
C1437 C1434 1.403 . S
C1437 C1438 1.392 . S
C1437 C1441 1.495 . S
C1438 C1437 1.392 . S
C1438 C1439 1.385 . S
C1438 C1440 1.478 . S
C1439 H1433 0.930 . S
C1439 C1435 1.400 . S
C1439 C1438 1.385 . S
C1440 C1438 1.478 . S
C1440 C1442 1.381 . S
C1440 C1446 1.383 . S
C1441 C1437 1.495 . S
C1441 H1447 0.959 . S
C1441 H1448 0.961 . S
C1441 H1449 0.960 . S
C1442 C1440 1.381 . S
C1442 C1443 1.394 . S
C1442 H1450 0.930 . S
C1443 C1442 1.394 . S
C1443 C1444 1.383 . S
C1443 H1451 0.929 . S
C1444 C1443 1.383 . S
C1444 C1445 1.377 . S
C1445 H1429 0.930 . S
C1445 C1444 1.377 . S
C1445 C1446 1.379 . S
C1446 H1430 0.931 . S
C1446 C1440 1.383 . S
C1446 C1445 1.379 . S
H1447 C1441 0.959 . S
H1448 C1441 0.961 . S
H1449 C1441 0.960 . S
H1450 C1442 0.930 . S
H1451 C1443 0.929 . S
H1452 C1460 0.929 . S
H1453 C1462 0.930 . S
H1454 C1464 0.930 . S
H1455 C1467 0.929 . S
H1456 C1470 0.930 . S
H1457 C1472 0.960 . S
H1458 C1472 0.960 . S
H1459 C1472 0.960 . S
C1460 H1452 0.929 . S
C1460 C1461 1.377 . S
C1460 C1462 1.384 . S
C1461 C1460 1.377 . S
C1461 C1467 1.390 . S
C1462 H1453 0.930 . S
C1462 C1460 1.384 . S
C1462 C1463 1.372 . S
C1463 C1462 1.372 . S
C1463 C1464 1.400 . S
C1463 C1468 1.490 . S
C1464 H1454 0.930 . S
C1464 C1463 1.400 . S
C1464 C1467 1.386 . S
H1465 C1481 0.930 . S
H1466 C1482 0.931 . S
C1467 H1455 0.929 . S
C1467 C1461 1.390 . S
C1467 C1464 1.386 . S
C1468 C1463 1.490 . S
C1468 C1470 1.395 . S
C1468 C1471 1.403 . S
H1469 C1475 0.930 . S
C1470 H1456 0.930 . S
C1470 C1468 1.395 . S
C1470 C1473 1.403 . S
C1471 C1468 1.403 . S
C1471 C1472 1.524 . S
C1471 C1475 1.400 . S
C1472 H1457 0.960 . S
C1472 H1458 0.960 . S
C1472 H1459 0.960 . S
C1472 C1471 1.524 . S
C1473 C1470 1.403 . S
C1473 C1474 1.392 . S
C1473 C1477 1.495 . S
C1474 C1473 1.392 . S
C1474 C1475 1.385 . S
C1474 C1476 1.478 . S
C1475 H1469 0.930 . S
C1475 C1471 1.400 . S
C1475 C1474 1.385 . S
C1476 C1474 1.478 . S
C1476 C1478 1.381 . S
C1476 C1482 1.383 . S
C1477 C1473 1.495 . S
C1477 H1483 0.959 . S
C1477 H1484 0.961 . S
C1477 H1485 0.960 . S
C1478 C1476 1.381 . S
C1478 C1479 1.394 . S
C1478 H1486 0.930 . S
C1479 C1478 1.394 . S
C1479 C1480 1.383 . S
C1479 H1487 0.929 . S
C1480 C1479 1.383 . S
C1480 C1481 1.377 . S
C1481 H1465 0.930 . S
C1481 C1480 1.377 . S
C1481 C1482 1.379 . S
C1482 H1466 0.931 . S
C1482 C1476 1.383 . S
C1482 C1481 1.379 . S
H1483 C1477 0.959 . S
H1484 C1477 0.961 . S
H1485 C1477 0.960 . S
H1486 C1478 0.930 . S
H1487 C1479 0.929 . S
H1488 C1496 0.929 . S
H1489 C1498 0.930 . S
H1490 C1500 0.930 . S
H1491 C1503 0.929 . S
H1492 C1506 0.936 1_565 S
H1493 C1508 0.960 . S
H1494 C1508 0.960 . S
H1495 C1508 0.960 . S
C1496 H1488 0.929 . S
C1496 C1497 1.377 . S
C1496 C1498 1.384 . S
C1497 C1496 1.377 . S
C1497 C1503 1.390 . S
C1498 H1489 0.930 . S
C1498 C1496 1.384 . S
C1498 C1499 1.372 . S
C1499 C1498 1.372 . S
C1499 C1500 1.400 . S
C1499 C1504 1.490 . S
C1500 H1490 0.930 . S
C1500 C1499 1.400 . S
C1500 C1503 1.386 . S
H1501 C1517 0.930 . S
H1502 C1518 0.931 . S
C1503 H1491 0.929 . S
C1503 C1497 1.390 . S
C1503 C1500 1.386 . S
C1504 C1499 1.490 . S
C1504 C1506 1.361 1_565 S
C1504 C1507 1.403 . S
H1505 C1511 0.930 . S
C1506 H1492 0.936 1_545 S
C1506 C1504 1.361 1_545 S
C1506 C1509 1.431 . S
C1507 C1504 1.403 . S
C1507 C1508 1.524 . S
C1507 C1511 1.400 1_565 S
C1508 H1493 0.960 . S
C1508 H1494 0.960 . S
C1508 H1495 0.960 . S
C1508 C1507 1.524 . S
C1509 C1506 1.431 . S
C1509 C1510 1.392 . S
C1509 C1513 1.495 . S
C1510 C1509 1.392 . S
C1510 C1511 1.385 . S
C1510 C1512 1.478 . S
C1511 H1505 0.930 . S
C1511 C1507 1.400 1_545 S
C1511 C1510 1.385 . S
C1512 C1510 1.478 . S
C1512 C1514 1.381 . S
C1512 C1518 1.383 . S
C1513 C1509 1.495 . S
C1513 H1519 0.959 . S
C1513 H1520 0.961 . S
C1513 H1521 0.960 . S
C1514 C1512 1.381 . S
C1514 C1515 1.394 . S
C1514 H1522 0.930 . S
C1515 C1514 1.394 . S
C1515 C1516 1.383 . S
C1515 H1523 0.929 . S
C1516 C1515 1.383 . S
C1516 C1517 1.377 . S
C1517 H1501 0.930 . S
C1517 C1516 1.377 . S
C1517 C1518 1.379 . S
C1518 H1502 0.931 . S
C1518 C1512 1.383 . S
C1518 C1517 1.379 . S
H1519 C1513 0.959 . S
H1520 C1513 0.961 . S
H1521 C1513 0.960 . S
H1522 C1514 0.930 . S
H1523 C1515 0.929 . S
H1524 C1532 0.929 . S
H1525 C1534 0.930 . S
H1526 C1536 0.930 . S
H1527 C1539 0.929 . S
H1528 C1542 0.921 . S
H1529 C1544 0.960 . S
H1530 C1544 0.960 . S
H1531 C1544 0.960 . S
C1532 H1524 0.929 . S
C1532 C1533 1.377 . S
C1532 C1534 1.384 . S
C1533 C1532 1.377 . S
C1533 C1539 1.390 . S
C1534 H1525 0.930 . S
C1534 C1532 1.384 . S
C1534 C1535 1.372 . S
C1535 C1534 1.372 . S
C1535 C1536 1.400 . S
C1535 C1540 1.490 . S
C1536 H1526 0.930 . S
C1536 C1535 1.400 . S
C1536 C1539 1.386 . S
H1537 C1553 0.930 . S
H1538 C1554 0.931 . S
C1539 H1527 0.929 . S
C1539 C1533 1.390 . S
C1539 C1536 1.386 . S
C1540 C1535 1.490 . S
C1540 C1542 1.448 . S
C1540 C1543 1.403 . S
H1541 C1547 0.930 . S
C1542 H1528 0.921 . S
C1542 C1540 1.448 . S
C1542 C1545 1.361 1_455 S
C1543 C1540 1.403 . S
C1543 C1544 1.524 . S
C1543 C1547 1.400 1_455 S
C1544 H1529 0.960 . S
C1544 H1530 0.960 . S
C1544 H1531 0.960 . S
C1544 C1543 1.524 . S
C1545 C1542 1.361 1_655 S
C1545 C1546 1.392 . S
C1545 C1549 1.495 . S
C1546 C1545 1.392 . S
C1546 C1547 1.385 . S
C1546 C1548 1.478 . S
C1547 H1541 0.930 . S
C1547 C1543 1.400 1_655 S
C1547 C1546 1.385 . S
C1548 C1546 1.478 . S
C1548 C1550 1.381 . S
C1548 C1554 1.383 . S
C1549 C1545 1.495 . S
C1549 H1555 0.959 . S
C1549 H1556 0.961 . S
C1549 H1557 0.960 . S
C1550 C1548 1.381 . S
C1550 C1551 1.394 . S
C1550 H1558 0.930 . S
C1551 C1550 1.394 . S
C1551 C1552 1.383 . S
C1551 H1559 0.929 . S
C1552 C1551 1.383 . S
C1552 C1553 1.377 . S
C1553 H1537 0.930 . S
C1553 C1552 1.377 . S
C1553 C1554 1.379 . S
C1554 H1538 0.931 . S
C1554 C1548 1.383 . S
C1554 C1553 1.379 . S
H1555 C1549 0.959 . S
H1556 C1549 0.961 . S
H1557 C1549 0.960 . S
H1558 C1550 0.930 . S
H1559 C1551 0.929 . S
H1560 C1568 0.929 . S
H1561 C1570 0.930 . S
H1562 C1572 0.930 . S
H1563 C1575 0.929 . S
H1564 C1578 0.930 . S
H1565 C1580 0.960 . S
H1566 C1580 0.960 . S
H1567 C1580 0.960 . S
C1568 H1560 0.929 . S
C1568 C1569 1.377 . S
C1568 C1570 1.384 . S
C1569 C1568 1.377 . S
C1569 C1575 1.390 . S
C1570 H1561 0.930 . S
C1570 C1568 1.384 . S
C1570 C1571 1.372 . S
C1571 C1570 1.372 . S
C1571 C1572 1.400 . S
C1571 C1576 1.490 . S
C1572 H1562 0.930 . S
C1572 C1571 1.400 . S
C1572 C1575 1.386 . S
H1573 C1589 0.930 . S
H1574 C1590 0.931 . S
C1575 H1563 0.929 . S
C1575 C1569 1.390 . S
C1575 C1572 1.386 . S
C1576 C1571 1.490 . S
C1576 C1578 1.395 . S
C1576 C1579 1.403 . S
H1577 C1583 0.930 . S
C1578 H1564 0.930 . S
C1578 C1576 1.395 . S
C1578 C1581 1.403 . S
C1579 C1576 1.403 . S
C1579 C1580 1.524 . S
C1579 C1583 1.400 . S
C1580 H1565 0.960 . S
C1580 H1566 0.960 . S
C1580 H1567 0.960 . S
C1580 C1579 1.524 . S
C1581 C1578 1.403 . S
C1581 C1582 1.392 . S
C1581 C1585 1.495 . S
C1582 C1581 1.392 . S
C1582 C1583 1.385 . S
C1582 C1584 1.478 . S
C1583 H1577 0.930 . S
C1583 C1579 1.400 . S
C1583 C1582 1.385 . S
C1584 C1582 1.478 . S
C1584 C1586 1.381 . S
C1584 C1590 1.383 . S
C1585 C1581 1.495 . S
C1585 H1591 0.959 . S
C1585 H1592 0.961 . S
C1585 H1593 0.960 . S
C1586 C1584 1.381 . S
C1586 C1587 1.394 . S
C1586 H1594 0.930 . S
C1587 C1586 1.394 . S
C1587 C1588 1.383 . S
C1587 H1595 0.929 . S
C1588 C1587 1.383 . S
C1588 C1589 1.377 . S
C1589 H1573 0.930 . S
C1589 C1588 1.377 . S
C1589 C1590 1.379 . S
C1590 H1574 0.931 . S
C1590 C1584 1.383 . S
C1590 C1589 1.379 . S
H1591 C1585 0.959 . S
H1592 C1585 0.961 . S
H1593 C1585 0.960 . S
H1594 C1586 0.930 . S
H1595 C1587 0.929 . S
H1596 C1604 0.929 . S
H1597 C1606 0.930 . S
H1598 C1608 0.930 . S
H1599 C1611 0.929 . S
H1600 C1614 0.930 . S
H1601 C1616 0.916 1_545 S
H1602 C1616 0.960 . S
H1603 C1616 0.979 . S
C1604 H1596 0.929 . S
C1604 C1605 1.377 . S
C1604 C1606 1.384 . S
C1605 C1604 1.377 . S
C1605 C1611 1.390 . S
C1606 H1597 0.930 . S
C1606 C1604 1.384 . S
C1606 C1607 1.372 . S
C1607 C1606 1.372 . S
C1607 C1608 1.400 . S
C1607 C1612 1.490 . S
C1608 H1598 0.930 . S
C1608 C1607 1.400 . S
C1608 C1611 1.386 . S
H1609 C1625 0.930 . S
H1610 C1626 0.931 . S
C1611 H1599 0.929 . S
C1611 C1605 1.390 . S
C1611 C1608 1.386 . S
C1612 C1607 1.490 . S
C1612 C1614 1.395 . S
C1612 C1615 1.403 . S
H1613 C1619 0.930 . S
C1614 H1600 0.930 . S
C1614 C1612 1.395 . S
C1614 C1617 1.372 1_565 S
C1615 C1612 1.403 . S
C1615 C1616 1.541 . S
C1615 C1619 1.400 1_565 S
C1616 H1601 0.916 1_565 S
C1616 H1602 0.960 . S
C1616 H1603 0.979 . S
C1616 C1615 1.541 . S
C1617 C1614 1.372 1_545 S
C1617 C1618 1.442 . S
C1617 C1621 1.478 . S
C1618 C1617 1.442 . S
C1618 C1619 1.385 . S
C1618 C1620 1.478 . S
C1619 H1613 0.930 . S
C1619 C1615 1.400 1_545 S
C1619 C1618 1.385 . S
C1620 C1618 1.478 . S
C1620 C1622 1.381 . S
C1620 C1626 1.383 . S
C1621 C1617 1.478 . S
C1621 H1627 0.959 1_545 S
C1621 H1628 0.961 . S
C1621 H1629 0.960 . S
C1622 C1620 1.381 . S
C1622 C1623 1.394 . S
C1622 H1630 0.930 . S
C1623 C1622 1.394 . S
C1623 C1624 1.383 . S
C1623 H1631 0.929 . S
C1624 C1623 1.383 . S
C1624 C1625 1.377 . S
C1625 H1609 0.930 . S
C1625 C1624 1.377 . S
C1625 C1626 1.379 . S
C1626 H1610 0.931 . S
C1626 C1620 1.383 . S
C1626 C1625 1.379 . S
H1627 C1621 0.959 1_565 S
H1628 C1621 0.961 . S
H1629 C1621 0.960 . S
H1630 C1622 0.930 . S
H1631 C1623 0.929 . S
H1632 C1640 0.929 . S
H1633 C1642 0.930 . S
H1634 C1644 0.930 . S
H1635 C1647 0.929 . S
H1636 C1650 0.930 . S
H1637 C1652 0.960 . S
H1638 C1652 0.960 . S
H1639 C1652 0.960 . S
C1640 H1632 0.929 . S
C1640 C1641 1.377 . S
C1640 C1642 1.384 . S
C1641 C1640 1.377 . S
C1641 C1647 1.390 . S
C1642 H1633 0.930 . S
C1642 C1640 1.384 . S
C1642 C1643 1.372 . S
C1643 C1642 1.372 . S
C1643 C1644 1.400 . S
C1643 C1648 1.490 . S
C1644 H1634 0.930 . S
C1644 C1643 1.400 . S
C1644 C1647 1.386 . S
H1645 C1661 0.930 . S
H1646 C1662 0.931 . S
C1647 H1635 0.929 . S
C1647 C1641 1.390 . S
C1647 C1644 1.386 . S
C1648 C1643 1.490 . S
C1648 C1650 1.395 . S
C1648 C1651 1.403 . S
H1649 C1655 0.930 . S
C1650 H1636 0.930 . S
C1650 C1648 1.395 . S
C1650 C1653 1.403 1_655 S
C1651 C1648 1.403 . S
C1651 C1652 1.524 . S
C1651 C1655 1.400 1_655 S
C1652 H1637 0.960 . S
C1652 H1638 0.960 . S
C1652 H1639 0.960 . S
C1652 C1651 1.524 . S
C1653 C1650 1.403 1_455 S
C1653 C1654 1.392 . S
C1653 C1657 1.495 . S
C1654 C1653 1.392 . S
C1654 C1655 1.385 . S
C1654 C1656 1.478 . S
C1655 H1649 0.930 . S
C1655 C1651 1.400 1_455 S
C1655 C1654 1.385 . S
C1656 C1654 1.478 . S
C1656 C1658 1.381 . S
C1656 C1662 1.383 . S
C1657 C1653 1.495 . S
C1657 H1663 0.959 . S
C1657 H1664 0.961 . S
C1657 H1665 0.960 . S
C1658 C1656 1.381 . S
C1658 C1659 1.394 . S
C1658 H1666 0.930 . S
C1659 C1658 1.394 . S
C1659 C1660 1.383 . S
C1659 H1667 0.929 . S
C1660 C1659 1.383 . S
C1660 C1661 1.377 . S
C1661 H1645 0.930 . S
C1661 C1660 1.377 . S
C1661 C1662 1.379 . S
C1662 H1646 0.931 . S
C1662 C1656 1.383 . S
C1662 C1661 1.379 . S
H1663 C1657 0.959 . S
H1664 C1657 0.961 . S
H1665 C1657 0.960 . S
H1666 C1658 0.930 . S
H1667 C1659 0.929 . S
H1668 C1676 0.929 . S
H1669 C1678 0.930 . S
H1670 C1680 0.930 . S
H1671 C1683 0.929 . S
H1672 C1686 0.930 . S
H1673 C1688 0.960 . S
H1674 C1688 0.960 . S
H1675 C1688 0.960 . S
C1676 H1668 0.929 . S
C1676 C1677 1.377 . S
C1676 C1678 1.384 . S
C1677 C1676 1.377 . S
C1677 C1683 1.390 . S
C1678 H1669 0.930 . S
C1678 C1676 1.384 . S
C1678 C1679 1.372 . S
C1679 C1678 1.372 . S
C1679 C1680 1.400 . S
C1679 C1684 1.490 . S
C1680 H1670 0.930 . S
C1680 C1679 1.400 . S
C1680 C1683 1.386 . S
H1681 C1697 0.930 . S
H1682 C1698 0.931 . S
C1683 H1671 0.929 . S
C1683 C1677 1.390 . S
C1683 C1680 1.386 . S
C1684 C1679 1.490 . S
C1684 C1686 1.395 . S
C1684 C1687 1.403 . S
H1685 C1691 0.930 . S
C1686 H1672 0.930 . S
C1686 C1684 1.395 . S
C1686 C1689 1.403 . S
C1687 C1684 1.403 . S
C1687 C1688 1.524 . S
C1687 C1691 1.400 . S
C1688 H1673 0.960 . S
C1688 H1674 0.960 . S
C1688 H1675 0.960 . S
C1688 C1687 1.524 . S
C1689 C1686 1.403 . S
C1689 C1690 1.392 . S
C1689 C1693 1.495 . S
C1690 C1689 1.392 . S
C1690 C1691 1.385 . S
C1690 C1692 1.478 . S
C1691 H1685 0.930 . S
C1691 C1687 1.400 . S
C1691 C1690 1.385 . S
C1692 C1690 1.478 . S
C1692 C1694 1.381 . S
C1692 C1698 1.383 . S
C1693 C1689 1.495 . S
C1693 H1699 0.959 . S
C1693 H1700 0.961 . S
C1693 H1701 0.960 . S
C1694 C1692 1.381 . S
C1694 C1695 1.394 1_556 S
C1694 H1702 0.930 . S
C1695 C1694 1.394 1_554 S
C1695 C1696 1.383 . S
C1695 H1703 0.929 . S
C1696 C1695 1.383 . S
C1696 C1697 1.377 1_554 S
C1697 H1681 0.930 . S
C1697 C1696 1.377 1_556 S
C1697 C1698 1.379 . S
C1698 H1682 0.931 . S
C1698 C1692 1.383 . S
C1698 C1697 1.379 . S
H1699 C1693 0.959 . S
H1700 C1693 0.961 . S
H1701 C1693 0.960 . S
H1702 C1694 0.930 . S
H1703 C1695 0.929 . S
H1704 C1712 0.929 . S
H1705 C1714 0.930 . S
H1706 C1716 0.930 . S
H1707 C1719 0.929 . S
H1708 C1722 0.930 . S
H1709 C1724 0.960 . S
H1710 C1724 0.960 . S
H1711 C1724 0.960 . S
C1712 H1704 0.929 . S
C1712 C1713 1.377 . S
C1712 C1714 1.384 1_554 S
C1713 C1712 1.377 . S
C1713 C1719 1.390 1_554 S
C1714 H1705 0.930 . S
C1714 C1712 1.384 1_556 S
C1714 C1715 1.372 . S
C1715 C1714 1.372 . S
C1715 C1716 1.400 . S
C1715 C1720 1.490 . S
C1716 H1706 0.930 . S
C1716 C1715 1.400 . S
C1716 C1719 1.386 . S
H1717 C1733 0.930 . S
H1718 C1734 0.931 . S
C1719 H1707 0.929 . S
C1719 C1713 1.390 1_556 S
C1719 C1716 1.386 . S
C1720 C1715 1.490 . S
C1720 C1722 1.395 . S
C1720 C1723 1.403 . S
H1721 C1727 0.930 . S
C1722 H1708 0.930 . S
C1722 C1720 1.395 . S
C1722 C1725 1.403 . S
C1723 C1720 1.403 . S
C1723 C1724 1.524 . S
C1723 C1727 1.400 . S
C1724 H1709 0.960 . S
C1724 H1710 0.960 . S
C1724 H1711 0.960 . S
C1724 C1723 1.524 . S
C1725 C1722 1.403 . S
C1725 C1726 1.392 . S
C1725 C1729 1.495 . S
C1726 C1725 1.392 . S
C1726 C1727 1.385 . S
C1726 C1728 1.478 . S
C1727 H1721 0.930 . S
C1727 C1723 1.400 . S
C1727 C1726 1.385 . S
C1728 C1726 1.478 . S
C1728 C1730 1.381 . S
C1728 C1734 1.383 . S
C1729 C1725 1.495 . S
C1729 H1735 0.959 . S
C1729 H1736 0.961 . S
C1729 H1737 0.960 . S
C1730 C1728 1.381 . S
C1730 C1731 1.394 . S
C1730 H1738 0.930 . S
C1731 C1730 1.394 . S
C1731 C1732 1.383 . S
C1731 H1739 0.929 . S
C1732 C1731 1.383 . S
C1732 C1733 1.377 . S
C1733 H1717 0.930 . S
C1733 C1732 1.377 . S
C1733 C1734 1.379 . S
C1734 H1718 0.931 . S
C1734 C1728 1.383 . S
C1734 C1733 1.379 . S
H1735 C1729 0.959 . S
H1736 C1729 0.961 . S
H1737 C1729 0.960 . S
H1738 C1730 0.930 . S
H1739 C1731 0.929 . S
H1740 C1748 0.929 . S
H1741 C1750 0.930 . S
H1742 C1752 0.930 . S
H1743 C1755 0.929 . S
H1744 C1758 0.930 . S
H1745 C1760 0.960 . S
H1746 C1760 0.960 . S
H1747 C1760 0.960 . S
C1748 H1740 0.929 . S
C1748 C1749 1.377 . S
C1748 C1750 1.384 1_554 S
C1749 C1748 1.377 . S
C1749 C1755 1.390 1_554 S
C1750 H1741 0.930 . S
C1750 C1748 1.384 1_556 S
C1750 C1751 1.372 . S
C1751 C1750 1.372 . S
C1751 C1752 1.400 . S
C1751 C1756 1.490 . S
C1752 H1742 0.930 . S
C1752 C1751 1.400 . S
C1752 C1755 1.386 . S
H1753 C1769 0.930 . S
H1754 C1770 0.931 . S
C1755 H1743 0.929 . S
C1755 C1749 1.390 1_556 S
C1755 C1752 1.386 . S
C1756 C1751 1.490 . S
C1756 C1758 1.395 . S
C1756 C1759 1.403 . S
H1757 C1763 0.930 . S
C1758 H1744 0.930 . S
C1758 C1756 1.395 . S
C1758 C1761 1.403 . S
C1759 C1756 1.403 . S
C1759 C1760 1.524 . S
C1759 C1763 1.400 . S
C1760 H1745 0.960 . S
C1760 H1746 0.960 . S
C1760 H1747 0.960 . S
C1760 C1759 1.524 . S
C1761 C1758 1.403 . S
C1761 C1762 1.392 . S
C1761 C1765 1.495 . S
C1762 C1761 1.392 . S
C1762 C1763 1.385 . S
C1762 C1764 1.478 . S
C1763 H1757 0.930 . S
C1763 C1759 1.400 . S
C1763 C1762 1.385 . S
C1764 C1762 1.478 . S
C1764 C1766 1.381 . S
C1764 C1770 1.383 . S
C1765 C1761 1.495 . S
C1765 H1771 0.959 . S
C1765 H1772 0.961 . S
C1765 H1773 0.960 . S
C1766 C1764 1.381 . S
C1766 C1767 1.394 . S
C1766 H1774 0.930 . S
C1767 C1766 1.394 . S
C1767 C1768 1.383 . S
C1767 H1775 0.929 . S
C1768 C1767 1.383 . S
C1768 C1769 1.377 . S
C1769 H1753 0.930 . S
C1769 C1768 1.377 . S
C1769 C1770 1.379 . S
C1770 H1754 0.931 . S
C1770 C1764 1.383 . S
C1770 C1769 1.379 . S
H1771 C1765 0.959 . S
H1772 C1765 0.961 . S
H1773 C1765 0.960 . S
H1774 C1766 0.930 . S
H1775 C1767 0.929 . S
H1776 C1784 0.929 . S
H1777 C1786 0.930 . S
H1778 C1788 0.930 . S
H1779 C1791 0.929 . S
H1780 C1794 0.930 . S
H1781 C1796 0.960 . S
H1782 C1796 0.960 . S
H1783 C1796 0.960 . S
C1784 H1776 0.929 . S
C1784 C1785 1.377 . S
C1784 C1786 1.384 . S
C1785 C1784 1.377 . S
C1785 C1791 1.390 . S
C1786 H1777 0.930 . S
C1786 C1784 1.384 . S
C1786 C1787 1.372 . S
C1787 C1786 1.372 . S
C1787 C1788 1.400 . S
C1787 C1792 1.490 . S
C1788 H1778 0.930 . S
C1788 C1787 1.400 . S
C1788 C1791 1.386 . S
H1789 C1805 0.930 . S
H1790 C1806 0.931 . S
C1791 H1779 0.929 . S
C1791 C1785 1.390 . S
C1791 C1788 1.386 . S
C1792 C1787 1.490 . S
C1792 C1794 1.395 . S
C1792 C1795 1.403 . S
H1793 C1799 0.930 . S
C1794 H1780 0.930 . S
C1794 C1792 1.395 . S
C1794 C1797 1.403 . S
C1795 C1792 1.403 . S
C1795 C1796 1.524 . S
C1795 C1799 1.400 . S
C1796 H1781 0.960 . S
C1796 H1782 0.960 . S
C1796 H1783 0.960 . S
C1796 C1795 1.524 . S
C1797 C1794 1.403 . S
C1797 C1798 1.392 . S
C1797 C1801 1.495 . S
C1798 C1797 1.392 . S
C1798 C1799 1.385 . S
C1798 C1800 1.478 . S
C1799 H1793 0.930 . S
C1799 C1795 1.400 . S
C1799 C1798 1.385 . S
C1800 C1798 1.478 . S
C1800 C1802 1.381 . S
C1800 C1806 1.383 . S
C1801 C1797 1.495 . S
C1801 H1807 0.959 . S
C1801 H1808 0.961 . S
C1801 H1809 0.960 . S
C1802 C1800 1.381 . S
C1802 C1803 1.394 . S
C1802 H1810 0.930 . S
C1803 C1802 1.394 . S
C1803 C1804 1.383 . S
C1803 H1811 0.929 . S
C1804 C1803 1.383 . S
C1804 C1805 1.377 . S
C1805 H1789 0.930 . S
C1805 C1804 1.377 . S
C1805 C1806 1.379 . S
C1806 H1790 0.931 . S
C1806 C1800 1.383 . S
C1806 C1805 1.379 . S
H1807 C1801 0.959 . S
H1808 C1801 0.961 . S
H1809 C1801 0.960 . S
H1810 C1802 0.930 . S
H1811 C1803 0.929 . S
H1812 C1820 0.929 . S
H1813 C1822 0.930 . S
H1814 C1824 0.930 . S
H1815 C1827 0.929 . S
H1816 C1830 0.930 . S
H1817 C1832 0.960 . S
H1818 C1832 0.960 . S
H1819 C1832 0.960 . S
C1820 H1812 0.929 . S
C1820 C1821 1.377 . S
C1820 C1822 1.384 . S
C1821 C1820 1.377 . S
C1821 C1827 1.390 . S
C1822 H1813 0.930 . S
C1822 C1820 1.384 . S
C1822 C1823 1.372 . S
C1823 C1822 1.372 . S
C1823 C1824 1.400 . S
C1823 C1828 1.490 . S
C1824 H1814 0.930 . S
C1824 C1823 1.400 . S
C1824 C1827 1.386 . S
H1825 C1841 0.930 . S
H1826 C1842 0.931 . S
C1827 H1815 0.929 . S
C1827 C1821 1.390 . S
C1827 C1824 1.386 . S
C1828 C1823 1.490 . S
C1828 C1830 1.395 . S
C1828 C1831 1.403 . S
H1829 C1835 0.930 . S
C1830 H1816 0.930 . S
C1830 C1828 1.395 . S
C1830 C1833 1.403 . S
C1831 C1828 1.403 . S
C1831 C1832 1.524 . S
C1831 C1835 1.400 . S
C1832 H1817 0.960 . S
C1832 H1818 0.960 . S
C1832 H1819 0.960 . S
C1832 C1831 1.524 . S
C1833 C1830 1.403 . S
C1833 C1834 1.392 . S
C1833 C1837 1.495 . S
C1834 C1833 1.392 . S
C1834 C1835 1.385 . S
C1834 C1836 1.478 . S
C1835 H1829 0.930 . S
C1835 C1831 1.400 . S
C1835 C1834 1.385 . S
C1836 C1834 1.478 . S
C1836 C1838 1.381 . S
C1836 C1842 1.383 . S
C1837 C1833 1.495 . S
C1837 H1843 0.959 . S
C1837 H1844 0.961 . S
C1837 H1845 0.960 . S
C1838 C1836 1.381 . S
C1838 C1839 1.394 . S
C1838 H1846 0.930 . S
C1839 C1838 1.394 . S
C1839 C1840 1.383 . S
C1839 H1847 0.929 . S
C1840 C1839 1.383 . S
C1840 C1841 1.377 . S
C1841 H1825 0.930 . S
C1841 C1840 1.377 . S
C1841 C1842 1.379 . S
C1842 H1826 0.931 . S
C1842 C1836 1.383 . S
C1842 C1841 1.379 . S
H1843 C1837 0.959 . S
H1844 C1837 0.961 . S
H1845 C1837 0.960 . S
H1846 C1838 0.930 . S
H1847 C1839 0.929 . S
H1848 C1856 0.929 . S
H1849 C1858 0.930 . S
H1850 C1860 0.930 . S
H1851 C1863 0.929 . S
H1852 C1866 0.930 . S
H1853 C1868 0.960 . S
H1854 C1868 0.960 . S
H1855 C1868 0.960 . S
C1856 H1848 0.929 . S
C1856 C1857 1.377 . S
C1856 C1858 1.384 . S
C1857 C1856 1.377 . S
C1857 C1863 1.390 . S
C1858 H1849 0.930 . S
C1858 C1856 1.384 . S
C1858 C1859 1.372 . S
C1859 C1858 1.372 . S
C1859 C1860 1.400 . S
C1859 C1864 1.490 . S
C1860 H1850 0.930 . S
C1860 C1859 1.400 . S
C1860 C1863 1.386 . S
H1861 C1877 0.930 . S
H1862 C1878 0.931 . S
C1863 H1851 0.929 . S
C1863 C1857 1.390 . S
C1863 C1860 1.386 . S
C1864 C1859 1.490 . S
C1864 C1866 1.395 . S
C1864 C1867 1.403 . S
H1865 C1871 0.930 . S
C1866 H1852 0.930 . S
C1866 C1864 1.395 . S
C1866 C1869 1.403 . S
C1867 C1864 1.403 . S
C1867 C1868 1.524 . S
C1867 C1871 1.400 . S
C1868 H1853 0.960 . S
C1868 H1854 0.960 . S
C1868 H1855 0.960 . S
C1868 C1867 1.524 . S
C1869 C1866 1.403 . S
C1869 C1870 1.392 . S
C1869 C1873 1.495 . S
C1870 C1869 1.392 . S
C1870 C1871 1.385 . S
C1870 C1872 1.478 . S
C1871 H1865 0.930 . S
C1871 C1867 1.400 . S
C1871 C1870 1.385 . S
C1872 C1870 1.478 . S
C1872 C1874 1.381 . S
C1872 C1878 1.383 . S
C1873 C1869 1.495 . S
C1873 H1879 0.959 . S
C1873 H1880 0.961 . S
C1873 H1881 0.960 . S
C1874 C1872 1.381 . S
C1874 C1875 1.394 . S
C1874 H1882 0.930 . S
C1875 C1874 1.394 . S
C1875 C1876 1.383 . S
C1875 H1883 0.929 . S
C1876 C1875 1.383 . S
C1876 C1877 1.377 . S
C1877 H1861 0.930 . S
C1877 C1876 1.377 . S
C1877 C1878 1.379 . S
C1878 H1862 0.931 . S
C1878 C1872 1.383 . S
C1878 C1877 1.379 . S
H1879 C1873 0.959 . S
H1880 C1873 0.961 . S
H1881 C1873 0.960 . S
H1882 C1874 0.930 . S
H1883 C1875 0.929 . S
H1884 C1892 0.929 . S
H1885 C1894 0.930 . S
H1886 C1896 0.930 . S
H1887 C1899 0.929 . S
H1888 C1902 0.930 . S
H1889 C1904 0.960 . S
H1890 C1904 0.960 . S
H1891 C1904 0.960 . S
C1892 H1884 0.929 . S
C1892 C1893 1.377 . S
C1892 C1894 1.384 1_556 S
C1893 C1892 1.377 . S
C1893 C1899 1.390 1_556 S
C1894 H1885 0.930 . S
C1894 C1892 1.384 1_554 S
C1894 C1895 1.372 . S
C1895 C1894 1.372 . S
C1895 C1896 1.400 . S
C1895 C1900 1.490 . S
C1896 H1886 0.930 . S
C1896 C1895 1.400 . S
C1896 C1899 1.386 . S
H1897 C1913 0.930 . S
H1898 C1914 0.931 . S
C1899 H1887 0.929 . S
C1899 C1893 1.390 1_554 S
C1899 C1896 1.386 . S
C1900 C1895 1.490 . S
C1900 C1902 1.395 . S
C1900 C1903 1.403 . S
H1901 C1907 0.930 . S
C1902 H1888 0.930 . S
C1902 C1900 1.395 . S
C1902 C1905 1.403 . S
C1903 C1900 1.403 . S
C1903 C1904 1.524 . S
C1903 C1907 1.400 . S
C1904 H1889 0.960 . S
C1904 H1890 0.960 . S
C1904 H1891 0.960 . S
C1904 C1903 1.524 . S
C1905 C1902 1.403 . S
C1905 C1906 1.392 . S
C1905 C1909 1.495 . S
C1906 C1905 1.392 . S
C1906 C1907 1.385 . S
C1906 C1908 1.478 . S
C1907 H1901 0.930 . S
C1907 C1903 1.400 . S
C1907 C1906 1.385 . S
C1908 C1906 1.478 . S
C1908 C1910 1.381 . S
C1908 C1914 1.383 . S
C1909 C1905 1.495 . S
C1909 H1915 0.959 . S
C1909 H1916 0.961 . S
C1909 H1917 0.960 . S
C1910 C1908 1.381 . S
C1910 C1911 1.394 . S
C1910 H1918 0.930 . S
C1911 C1910 1.394 . S
C1911 C1912 1.383 . S
C1911 H1919 0.929 . S
C1912 C1911 1.383 . S
C1912 C1913 1.377 . S
C1913 H1897 0.930 . S
C1913 C1912 1.377 . S
C1913 C1914 1.379 . S
C1914 H1898 0.931 . S
C1914 C1908 1.383 . S
C1914 C1913 1.379 . S
H1915 C1909 0.959 . S
H1916 C1909 0.961 . S
H1917 C1909 0.960 . S
H1918 C1910 0.930 . S
H1919 C1911 0.929 . S
H1920 C1928 0.929 . S
H1921 C1930 0.930 . S
H1922 C1932 0.930 . S
H1923 C1935 0.929 . S
H1924 C1938 0.930 . S
H1925 C1940 0.960 . S
H1926 C1940 0.960 . S
H1927 C1940 0.960 . S
C1928 H1920 0.929 . S
C1928 C1929 1.377 1_554 S
C1928 C1930 1.384 . S
C1929 C1928 1.377 1_556 S
C1929 C1935 1.390 . S
C1930 H1921 0.930 . S
C1930 C1928 1.384 . S
C1930 C1931 1.372 . S
C1931 C1930 1.372 . S
C1931 C1932 1.400 . S
C1931 C1936 1.490 . S
C1932 H1922 0.930 . S
C1932 C1931 1.400 . S
C1932 C1935 1.386 1_554 S
H1933 C1949 0.930 . S
H1934 C1950 0.931 . S
C1935 H1923 0.929 . S
C1935 C1929 1.390 . S
C1935 C1932 1.386 1_556 S
C1936 C1931 1.490 . S
C1936 C1938 1.395 . S
C1936 C1939 1.403 . S
H1937 C1943 0.930 . S
C1938 H1924 0.930 . S
C1938 C1936 1.395 . S
C1938 C1941 1.403 . S
C1939 C1936 1.403 . S
C1939 C1940 1.524 . S
C1939 C1943 1.400 . S
C1940 H1925 0.960 . S
C1940 H1926 0.960 . S
C1940 H1927 0.960 . S
C1940 C1939 1.524 . S
C1941 C1938 1.403 . S
C1941 C1942 1.392 . S
C1941 C1945 1.495 . S
C1942 C1941 1.392 . S
C1942 C1943 1.385 . S
C1942 C1944 1.478 . S
C1943 H1937 0.930 . S
C1943 C1939 1.400 . S
C1943 C1942 1.385 . S
C1944 C1942 1.478 . S
C1944 C1946 1.381 . S
C1944 C1950 1.383 . S
C1945 C1941 1.495 . S
C1945 H1951 0.959 . S
C1945 H1952 0.961 . S
C1945 H1953 0.960 . S
C1946 C1944 1.381 . S
C1946 C1947 1.394 . S
C1946 H1954 0.930 . S
C1947 C1946 1.394 . S
C1947 C1948 1.383 . S
C1947 H1955 0.929 . S
C1948 C1947 1.383 . S
C1948 C1949 1.377 . S
C1949 H1933 0.930 . S
C1949 C1948 1.377 . S
C1949 C1950 1.379 . S
C1950 H1934 0.931 . S
C1950 C1944 1.383 . S
C1950 C1949 1.379 . S
H1951 C1945 0.959 . S
H1952 C1945 0.961 . S
H1953 C1945 0.960 . S
H1954 C1946 0.930 . S
H1955 C1947 0.929 . S
H1956 C1964 0.929 . S
H1957 C1966 0.930 . S
H1958 C1968 0.930 . S
H1959 C1971 0.929 1_556 S
H1960 C1974 0.930 . S
H1961 C1976 0.960 . S
H1962 C1976 0.960 . S
H1963 C1976 0.960 . S
C1964 H1956 0.929 . S
C1964 C1965 1.377 1_554 S
C1964 C1966 1.384 . S
C1965 C1964 1.377 1_556 S
C1965 C1971 1.390 1_556 S
C1966 H1957 0.930 . S
C1966 C1964 1.384 . S
C1966 C1967 1.372 . S
C1967 C1966 1.372 . S
C1967 C1968 1.400 . S
C1967 C1972 1.490 . S
C1968 H1958 0.930 . S
C1968 C1967 1.400 . S
C1968 C1971 1.386 . S
H1969 C1985 0.930 . S
H1970 C1986 0.931 . S
C1971 H1959 0.929 1_554 S
C1971 C1965 1.390 1_554 S
C1971 C1968 1.386 . S
C1972 C1967 1.490 . S
C1972 C1974 1.395 . S
C1972 C1975 1.403 . S
H1973 C1979 0.930 . S
C1974 H1960 0.930 . S
C1974 C1972 1.395 . S
C1974 C1977 1.403 . S
C1975 C1972 1.403 . S
C1975 C1976 1.524 . S
C1975 C1979 1.400 . S
C1976 H1961 0.960 . S
C1976 H1962 0.960 . S
C1976 H1963 0.960 . S
C1976 C1975 1.524 . S
C1977 C1974 1.403 . S
C1977 C1978 1.392 . S
C1977 C1981 1.495 . S
C1978 C1977 1.392 . S
C1978 C1979 1.385 . S
C1978 C1980 1.478 . S
C1979 H1973 0.930 . S
C1979 C1975 1.400 . S
C1979 C1978 1.385 . S
C1980 C1978 1.478 . S
C1980 C1982 1.381 . S
C1980 C1986 1.383 . S
C1981 C1977 1.495 . S
C1981 H1987 0.959 . S
C1981 H1988 0.961 . S
C1981 H1989 0.960 . S
C1982 C1980 1.381 . S
C1982 C1983 1.394 . S
C1982 H1990 0.930 . S
C1983 C1982 1.394 . S
C1983 C1984 1.383 . S
C1983 H1991 0.929 . S
C1984 C1983 1.383 . S
C1984 C1985 1.377 . S
C1985 H1969 0.930 . S
C1985 C1984 1.377 . S
C1985 C1986 1.379 . S
C1986 H1970 0.931 . S
C1986 C1980 1.383 . S
C1986 C1985 1.379 . S
H1987 C1981 0.959 . S
H1988 C1981 0.961 . S
H1989 C1981 0.960 . S
H1990 C1982 0.930 . S
H1991 C1983 0.929 . S
H1992 C2000 0.929 . S
H1993 C2002 0.930 . S
H1994 C2004 0.930 . S
H1995 C2007 0.929 . S
H1996 C2010 0.930 . S
H1997 C2012 0.960 . S
H1998 C2012 0.960 . S
H1999 C2012 0.960 . S
C2000 H1992 0.929 . S
C2000 C2001 1.377 . S
C2000 C2002 1.384 . S
C2001 C2000 1.377 . S
C2001 C2007 1.390 . S
C2002 H1993 0.930 . S
C2002 C2000 1.384 . S
C2002 C2003 1.372 . S
C2003 C2002 1.372 . S
C2003 C2004 1.400 . S
C2003 C2008 1.490 . S
C2004 H1994 0.930 . S
C2004 C2003 1.400 . S
C2004 C2007 1.386 . S
H2005 C2021 0.930 . S
H2006 C2022 0.931 . S
C2007 H1995 0.929 . S
C2007 C2001 1.390 . S
C2007 C2004 1.386 . S
C2008 C2003 1.490 . S
C2008 C2010 1.395 . S
C2008 C2011 1.403 . S
H2009 C2015 0.930 . S
C2010 H1996 0.930 . S
C2010 C2008 1.395 . S
C2010 C2013 1.403 . S
C2011 C2008 1.403 . S
C2011 C2012 1.524 . S
C2011 C2015 1.400 . S
C2012 H1997 0.960 . S
C2012 H1998 0.960 . S
C2012 H1999 0.960 . S
C2012 C2011 1.524 . S
C2013 C2010 1.403 . S
C2013 C2014 1.392 . S
C2013 C2017 1.495 . S
C2014 C2013 1.392 . S
C2014 C2015 1.385 . S
C2014 C2016 1.478 . S
C2015 H2009 0.930 . S
C2015 C2011 1.400 . S
C2015 C2014 1.385 . S
C2016 C2014 1.478 . S
C2016 C2018 1.381 . S
C2016 C2022 1.383 . S
C2017 C2013 1.495 . S
C2017 H2023 0.959 . S
C2017 H2024 0.961 . S
C2017 H2025 0.960 . S
C2018 C2016 1.381 . S
C2018 C2019 1.394 . S
C2018 H2026 0.930 . S
C2019 C2018 1.394 . S
C2019 C2020 1.383 . S
C2019 H2027 0.929 . S
C2020 C2019 1.383 . S
C2020 C2021 1.377 . S
C2021 H2005 0.930 . S
C2021 C2020 1.377 . S
C2021 C2022 1.379 . S
C2022 H2006 0.931 . S
C2022 C2016 1.383 . S
C2022 C2021 1.379 . S
H2023 C2017 0.959 . S
H2024 C2017 0.961 . S
H2025 C2017 0.960 . S
H2026 C2018 0.930 . S
H2027 C2019 0.929 . S
H2028 C2036 0.929 . S
H2029 C2038 0.930 . S
H2030 C2040 0.930 . S
H2031 C2043 0.929 . S
H2032 C2046 0.930 . S
H2033 C2048 0.960 . S
H2034 C2048 0.960 . S
H2035 C2048 0.960 . S
C2036 H2028 0.929 . S
C2036 C2037 1.377 . S
C2036 C2038 1.384 . S
C2037 C2036 1.377 . S
C2037 C2043 1.390 . S
C2038 H2029 0.930 . S
C2038 C2036 1.384 . S
C2038 C2039 1.372 . S
C2039 C2038 1.372 . S
C2039 C2040 1.400 . S
C2039 C2044 1.490 . S
C2040 H2030 0.930 . S
C2040 C2039 1.400 . S
C2040 C2043 1.386 . S
H2041 C2057 0.930 . S
H2042 C2058 0.931 . S
C2043 H2031 0.929 . S
C2043 C2037 1.390 . S
C2043 C2040 1.386 . S
C2044 C2039 1.490 . S
C2044 C2046 1.395 . S
C2044 C2047 1.403 . S
H2045 C2051 0.930 . S
C2046 H2032 0.930 . S
C2046 C2044 1.395 . S
C2046 C2049 1.403 . S
C2047 C2044 1.403 . S
C2047 C2048 1.524 . S
C2047 C2051 1.400 . S
C2048 H2033 0.960 . S
C2048 H2034 0.960 . S
C2048 H2035 0.960 . S
C2048 C2047 1.524 . S
C2049 C2046 1.403 . S
C2049 C2050 1.392 . S
C2049 C2053 1.495 . S
C2050 C2049 1.392 . S
C2050 C2051 1.385 . S
C2050 C2052 1.478 . S
C2051 H2045 0.930 . S
C2051 C2047 1.400 . S
C2051 C2050 1.385 . S
C2052 C2050 1.478 . S
C2052 C2054 1.381 . S
C2052 C2058 1.383 . S
C2053 C2049 1.495 . S
C2053 H2059 0.959 . S
C2053 H2060 0.961 . S
C2053 H2061 0.960 . S
C2054 C2052 1.381 . S
C2054 C2055 1.394 . S
C2054 H2062 0.930 . S
C2055 C2054 1.394 . S
C2055 C2056 1.383 . S
C2055 H2063 0.929 . S
C2056 C2055 1.383 . S
C2056 C2057 1.377 . S
C2057 H2041 0.930 . S
C2057 C2056 1.377 . S
C2057 C2058 1.379 . S
C2058 H2042 0.931 . S
C2058 C2052 1.383 . S
C2058 C2057 1.379 . S
H2059 C2053 0.959 . S
H2060 C2053 0.961 . S
H2061 C2053 0.960 . S
H2062 C2054 0.930 . S
H2063 C2055 0.929 . S
H2064 C2072 0.929 . S
H2065 C2074 0.930 . S
H2066 C2076 0.930 . S
H2067 C2079 0.929 . S
H2068 C2082 0.930 . S
H2069 C2084 0.960 . S
H2070 C2084 0.960 . S
H2071 C2084 0.960 . S
C2072 H2064 0.929 . S
C2072 C2073 1.377 . S
C2072 C2074 1.384 . S
C2073 C2072 1.377 . S
C2073 C2079 1.390 . S
C2074 H2065 0.930 . S
C2074 C2072 1.384 . S
C2074 C2075 1.372 . S
C2075 C2074 1.372 . S
C2075 C2076 1.400 . S
C2075 C2080 1.490 . S
C2076 H2066 0.930 . S
C2076 C2075 1.400 . S
C2076 C2079 1.386 . S
H2077 C2093 0.930 . S
H2078 C2094 0.931 . S
C2079 H2067 0.929 . S
C2079 C2073 1.390 . S
C2079 C2076 1.386 . S
C2080 C2075 1.490 . S
C2080 C2082 1.395 . S
C2080 C2083 1.403 . S
H2081 C2087 0.930 . S
C2082 H2068 0.930 . S
C2082 C2080 1.395 . S
C2082 C2085 1.403 . S
C2083 C2080 1.403 . S
C2083 C2084 1.524 . S
C2083 C2087 1.400 . S
C2084 H2069 0.960 . S
C2084 H2070 0.960 . S
C2084 H2071 0.960 . S
C2084 C2083 1.524 . S
C2085 C2082 1.403 . S
C2085 C2086 1.392 . S
C2085 C2089 1.495 . S
C2086 C2085 1.392 . S
C2086 C2087 1.385 . S
C2086 C2088 1.478 . S
C2087 H2081 0.930 . S
C2087 C2083 1.400 . S
C2087 C2086 1.385 . S
C2088 C2086 1.478 . S
C2088 C2090 1.381 . S
C2088 C2094 1.383 . S
C2089 C2085 1.495 . S
C2089 H2095 0.959 . S
C2089 H2096 0.961 . S
C2089 H2097 0.960 . S
C2090 C2088 1.381 . S
C2090 C2091 1.394 . S
C2090 H2098 0.930 . S
C2091 C2090 1.394 . S
C2091 C2092 1.383 . S
C2091 H2099 0.929 . S
C2092 C2091 1.383 . S
C2092 C2093 1.377 . S
C2093 H2077 0.930 . S
C2093 C2092 1.377 . S
C2093 C2094 1.379 . S
C2094 H2078 0.931 . S
C2094 C2088 1.383 . S
C2094 C2093 1.379 . S
H2095 C2089 0.959 . S
H2096 C2089 0.961 . S
H2097 C2089 0.960 . S
H2098 C2090 0.930 . S
H2099 C2091 0.929 . S
C381 C29 1.336 . S
C400 C61 1.182 . S
C417 C72 1.240 . S
C436 C60 1.352 . S
C453 C64 1.343 . S
C472 C30 1.272 . S
C489 C165 1.222 . S
C508 C122 1.320 . S
C525 C123 1.239 . S
C544 C126 1.350 . S
C561 C157 1.342 . S
C580 C134 1.263 . S
C597 C215 1.338 . S
C616 C227 1.276 . S
C633 C278 1.231 . S
C652 C219 1.352 . S
C669 C277 1.339 . S
C688 C216 1.273 . S
C705 C281 1.339 . S
C724 C351 1.191 . S
C741 C289 1.230 . S
C760 C312 1.353 . S
C777 C320 1.223 . S
C796 C343 1.352 . S
C813 C188 0.956 . S
C832 C2 0.947 . S
C849 C33 0.956 . S
C868 C246 0.947 . S
C885 C91 0.957 . S
C904 C250 0.959 . S
C921 C95 0.948 . S
C940 C308 0.897 . S
C957 C153 0.955 . S
C976 C339 0.937 . S
C993 C370 0.939 . S
C1012 C184 0.994 . S
C1029 C1 0.851 . S
C1048 C309 0.803 . S
C1065 C32 0.865 . S
C1084 C340 0.896 . S
C1101 C371 0.846 . S
C1120 C82 0.861 . S
C1137 C196 0.857 . S
C1156 C94 0.892 . S
C1173 C247 0.853 . S
C1192 C144 0.870 . S
C1209 C258 0.857 . S
C1228 C175 0.886 . S
C1245 C103 0.840 . S
C1264 C187 0.891 . S
C1281 C237 0.852 . S
C1300 C154 0.854 . S
C1317 C249 0.851 . S
C1336 C185 0.861 . S
C1353 C10 0.845 . S
C1372 C299 0.837 . S
C1389 C330 0.850 . S
C1408 C41 0.878 . S
C1425 C92 0.858 . S
C1444 C361 0.834 . S
C1461 C112 2.057 . S
C1480 C19 2.059 . S
C1497 C124 2.051 . S
C1516 C50 2.036 . S
C1533 C155 2.053 . S
C1552 C62 2.051 . S
C1569 C205 2.056 . S
C1588 C279 2.049 . S
C1605 C217 2.056 . S
C1624 C310 2.050 . S
C1641 C341 2.053 . S
C1660 C267 2.048 . S
C1677 C311 1.363 . S
C1696 C0 1.494 . S
C1713 C31 1.501 . S
C1732 C342 1.397 . S
C1749 C81 1.499 . S
C1768 C280 1.384 . S
C1785 C93 1.497 . S
C1804 C268 1.356 . S
C1821 C206 1.355 . S
C1840 C143 1.504 . S
C1857 C218 1.361 . S
C1876 C174 1.491 . S
C1893 C186 1.499 . S
C1912 C125 1.353 . S
C1929 C236 1.497 . S
C1948 C156 1.389 . S
C1965 C248 1.501 . S
C1984 C113 1.315 . S
C2001 C63 1.363 . S
C2020 C298 1.486 . S
C2037 C20 1.348 . S
C2056 C329 1.508 . S
C2073 C51 1.349 . S
C2092 C360 1.507 . S
