# Generated by pormake.
# Topology sra, (4)-cn, num edge types: 1
# Building blocks:
#     Node 0, Type 0, BuildingBlock: NAHDIM_clean_sbu_0, # of connection points: 4
#     Node 1, Type 0, BuildingBlock: NAHDIM_clean_sbu_0, # of connection points: 4
#     Node 2, Type 0, BuildingBlock: NAHDIM_clean_sbu_0, # of connection points: 4
#     Node 3, Type 0, BuildingBlock: NAHDIM_clean_sbu_0, # of connection points: 4
#     Node 4, Type 0, BuildingBlock: NAHDIM_clean_sbu_0, # of connection points: 4
#     Node 5, Type 0, BuildingBlock: NAHDIM_clean_sbu_0, # of connection points: 4
#     Node 6, Type 0, BuildingBlock: NAHDIM_clean_sbu_0, # of connection points: 4
#     Node 7, Type 0, BuildingBlock: NAHDIM_clean_sbu_0, # of connection points: 4
#     Edge 8, Type (0, 0), BuildingBlock: KIFKEQ_clean_linker_1, # of connection points: 2
#     Edge 9, Type (0, 0), BuildingBlock: KIFKEQ_clean_linker_1, # of connection points: 2
#     Edge 10, Type (0, 0), BuildingBlock: KIFKEQ_clean_linker_1, # of connection points: 2
#     Edge 11, Type (0, 0), BuildingBlock: KIFKEQ_clean_linker_1, # of connection points: 2
#     Edge 12, Type (0, 0), BuildingBlock: KIFKEQ_clean_linker_1, # of connection points: 2
#     Edge 13, Type (0, 0), BuildingBlock: KIFKEQ_clean_linker_1, # of connection points: 2
#     Edge 14, Type (0, 0), BuildingBlock: KIFKEQ_clean_linker_1, # of connection points: 2
#     Edge 15, Type (0, 0), BuildingBlock: KIFKEQ_clean_linker_1, # of connection points: 2
#     Edge 16, Type (0, 0), BuildingBlock: KIFKEQ_clean_linker_1, # of connection points: 2
#     Edge 17, Type (0, 0), BuildingBlock: KIFKEQ_clean_linker_1, # of connection points: 2
#     Edge 18, Type (0, 0), BuildingBlock: KIFKEQ_clean_linker_1, # of connection points: 2
#     Edge 19, Type (0, 0), BuildingBlock: KIFKEQ_clean_linker_1, # of connection points: 2
#     Edge 20, Type (0, 0), BuildingBlock: KIFKEQ_clean_linker_1, # of connection points: 2
#     Edge 21, Type (0, 0), BuildingBlock: KIFKEQ_clean_linker_1, # of connection points: 2
#     Edge 22, Type (0, 0), BuildingBlock: KIFKEQ_clean_linker_1, # of connection points: 2
#     Edge 23, Type (0, 0), BuildingBlock: KIFKEQ_clean_linker_1, # of connection points: 2
# Relax obj value: 0.091
# Max RMSD: 0.091
# Mean RMSD: 0.091
data_MOF--net-sra--node1-NAHDIM_clean_sbu_0--edge1-KIFKEQ_clean_linker_1
_symmetry_space_group_name_H-M    P1
_symmetry_Int_Tables_number       1
_symmetry_cell_setting            triclinic
loop_
_symmetry_equiv_pos_as_xyz
'x, y, z'
_cell_length_a     25.587847
_cell_length_b     49.293172
_cell_length_c     42.104107
_cell_angle_alpha  89.886567
_cell_angle_beta   90.144958
_cell_angle_gamma 89.879689
loop_
_atom_site_label
_atom_site_type_symbol
_atom_site_fract_x
_atom_site_fract_y
_atom_site_fract_z
_atom_type_partial_charge
C0 C 0.99211 0.04339 0.09637 0.0
O1 O 0.97679 0.03073 0.1222 0.0
O2 O 0.94253 0.07834 0.16411 0.0
Zn3 Zn 0.01033 0.08558 0.14125 0.0
O4 O 0.07317 0.07222 0.16548 0.0
C5 C 0.98141 0.142 0.13104 0.0
O6 O 0.93402 0.13214 0.12785 0.0
O7 O 0.00845 0.06764 0.09852 0.0
C8 C 0.08347 0.08223 0.19257 0.0
O9 O 0.05072 0.09975 0.20509 0.0
C10 C 0.93707 0.06279 0.18797 0.0
O11 O 0.9779 0.0499 0.19953 0.0
O12 O 0.0193 0.12586 0.13613 0.0
C13 C 0.00168 0.44495 0.09372 0.0
O14 O 0.98706 0.45746 0.11976 0.0
O15 O 0.08496 0.4098 0.16032 0.0
Zn16 Zn 0.01752 0.40104 0.13749 0.0
O17 O 0.95309 0.4115 0.16219 0.0
C18 C 0.03595 0.34404 0.1485 0.0
O19 O 0.0629 0.35337 0.17271 0.0
O20 O 0.01664 0.4204 0.09544 0.0
C21 C 0.94482 0.40324 0.19034 0.0
O22 O 0.98077 0.38867 0.20481 0.0
C23 C 0.09033 0.42613 0.18343 0.0
O24 O 0.04937 0.43924 0.19426 0.0
O25 O 0.01374 0.36074 0.12976 0.0
C26 C 0.99426 0.94714 0.88504 0.0
O27 O 0.98669 0.9607 0.85853 0.0
O28 O 0.94061 0.90916 0.81721 0.0
Zn29 Zn 0.00767 0.9029 0.84157 0.0
O30 O 0.07109 0.91606 0.818 0.0
C31 C 0.99614 0.8457 0.83012 0.0
O32 O 0.96874 0.85467 0.80583 0.0
O33 O 0.00385 0.92187 0.8837 0.0
C34 C 0.07915 0.90977 0.78918 0.0
O35 O 0.04369 0.89565 0.77384 0.0
C36 C 0.93144 0.92809 0.79741 0.0
O37 O 0.96789 0.94609 0.79136 0.0
O38 O 0.01658 0.86269 0.8491 0.0
C39 C -0.00275 0.54295 0.88283 0.0
O40 O 0.98723 0.52987 0.85635 0.0
O41 O 0.07514 0.5789 0.81671 0.0
Zn42 Zn 0.00843 0.58792 0.83989 0.0
O43 O 0.94403 0.57874 0.81418 0.0
C44 C 0.04538 0.64346 0.84998 0.0
O45 O 0.09236 0.63274 0.84849 0.0
O46 O 0.0073 0.56816 0.88161 0.0
C47 C 0.92917 0.59616 0.79373 0.0
O48 O 0.95805 0.6178 0.78898 0.0
C49 C 0.07756 0.56902 0.78889 0.0
O50 O 0.03413 0.56361 0.77349 0.0
O51 O 0.00563 0.62815 0.84794 0.0
C52 C 0.49531 0.54355 0.59421 0.0
O53 O 0.47731 0.53127 0.61964 0.0
O54 O 0.43548 0.57979 0.6584 0.0
Zn55 Zn 0.50418 0.58854 0.63732 0.0
O56 O 0.56602 0.57943 0.66526 0.0
C57 C 0.4774 0.64551 0.64217 0.0
O58 O 0.44347 0.63638 0.66295 0.0
O59 O 0.50959 0.56816 0.59619 0.0
C60 C 0.5752 0.59439 0.68918 0.0
O61 O 0.54234 0.61405 0.69593 0.0
C62 C 0.4302 0.56569 0.68349 0.0
O63 O 0.47175 0.55511 0.69713 0.0
O64 O 0.50693 0.62875 0.62787 0.0
C65 C 0.54822 0.93766 0.58935 0.0
O66 O 0.58859 0.94087 0.60828 0.0
O67 O 0.57273 0.90808 0.666 0.0
Zn68 Zn 0.50671 0.9035 0.64034 0.0
O69 O 0.4437 0.91714 0.66387 0.0
C70 C 0.53371 0.84747 0.62849 0.0
O71 O 0.58144 0.8572 0.62741 0.0
O72 O 0.51051 0.92269 0.59813 0.0
C73 C 0.43644 0.91121 0.6929 0.0
O74 O 0.4725 0.89734 0.7082 0.0
C75 C 0.58614 0.92942 0.68079 0.0
O76 O 0.55556 0.95085 0.67987 0.0
O77 O 0.49571 0.86361 0.6331 0.0
C78 C 0.50374 0.44674 0.38314 0.0
O79 O 0.49378 0.46005 0.35673 0.0
O80 O 0.44568 0.41121 0.31659 0.0
Zn81 Zn 0.51286 0.40219 0.33983 0.0
O82 O 0.57753 0.41263 0.31544 0.0
C83 C 0.49168 0.34505 0.33076 0.0
O84 O 0.46215 0.35417 0.30749 0.0
O85 O 0.51327 0.42147 0.38178 0.0
C86 C 0.58772 0.40211 0.28862 0.0
O87 O 0.55383 0.38538 0.27578 0.0
C88 C 0.44162 0.42557 0.29159 0.0
O89 O 0.48372 0.43627 0.27898 0.0
O90 O 0.51647 0.36187 0.34795 0.0
C91 C 0.51712 0.04181 0.38377 0.0
O92 O 0.51051 0.0291 0.35665 0.0
O93 O 0.5802 0.0799 0.3176 0.0
Zn94 Zn 0.51379 0.08679 0.34192 0.0
O95 O 0.44976 0.07388 0.31863 0.0
C96 C 0.54366 0.14295 0.35161 0.0
O97 O 0.59122 0.13288 0.35251 0.0
O98 O 0.51926 0.06756 0.38381 0.0
C99 C 0.43949 0.083 0.29107 0.0
O100 O 0.47277 0.09956 0.27739 0.0
C101 C 0.58572 0.06354 0.29455 0.0
O102 O 0.5454 0.04951 0.28445 0.0
O103 O 0.50514 0.12699 0.3482 0.0
H104 H 0.9784 0.31787 0.10302 0.0
H105 H 0.07936 0.30322 0.18374 0.0
H106 H 0.96643 0.26907 0.09665 0.0
H107 H 0.06673 0.25457 0.17763 0.0
H108 H 0.0739 0.16867 0.13941 0.0
H109 H 0.08831 0.21744 0.14156 0.0
H110 H 0.92381 0.23134 0.1247 0.0
H111 H 0.9094 0.18248 0.12204 0.0
C112 C -0.00189 0.30426 0.11937 0.0
C113 C 0.02983 0.31445 0.1439 0.0
C114 C 0.99099 0.27631 0.11581 0.0
C115 C 0.0156 0.25795 0.13663 0.0
C116 C 0.04776 0.26815 0.16093 0.0
C117 C 0.05476 0.29607 0.16454 0.0
C118 C 0.0408 0.1821 0.13595 0.0
C119 C 0.99043 0.17166 0.13067 0.0
C120 C 0.04905 0.21006 0.13738 0.0
C121 C 0.00717 0.22827 0.13349 0.0
C122 C 0.95698 0.21786 0.1275 0.0
C123 C 0.94868 0.18985 0.12614 0.0
H124 H 0.05904 0.82005 0.87367 0.0
H125 H 0.94968 0.80456 0.79745 0.0
H126 H 0.07098 0.7712 0.88104 0.0
H127 H 0.96195 0.75596 0.80471 0.0
H128 H 0.95369 0.67178 0.84743 0.0
H129 H 0.94194 0.72074 0.84477 0.0
H130 H 0.10898 0.73179 0.85143 0.0
H131 H 0.12094 0.68264 0.85439 0.0
C132 C 0.03752 0.80626 0.85853 0.0
C133 C 0.00334 0.81619 0.835 0.0
C134 C 0.04458 0.77831 0.86267 0.0
C135 C 0.01725 0.75977 0.84354 0.0
C136 C 0.983 0.76974 0.82011 0.0
C137 C 0.97623 0.79761 0.81583 0.0
C138 C 0.98798 0.6846 0.84862 0.0
C139 C 0.03832 0.67327 0.85096 0.0
C140 C 0.9812 0.71266 0.8469 0.0
C141 C 0.02455 0.73009 0.84761 0.0
C142 C 0.07481 0.71886 0.85101 0.0
C143 C 0.08165 0.69071 0.85257 0.0
H144 H 0.42431 0.68644 0.67147 0.0
H145 H 0.54421 0.67147 0.6015 0.0
H146 H 0.4372 0.73505 0.66549 0.0
H147 H 0.55628 0.72027 0.59499 0.0
H148 H 0.60648 0.80693 0.62407 0.0
H149 H 0.59137 0.75813 0.62497 0.0
H150 H 0.42479 0.77227 0.62887 0.0
H151 H 0.43991 0.82103 0.62873 0.0
C152 C 0.45305 0.69352 0.65455 0.0
C153 C 0.48334 0.67506 0.63704 0.0
C154 C 0.46023 0.72143 0.65097 0.0
C155 C 0.49778 0.73158 0.62974 0.0
C156 C 0.5275 0.71311 0.61183 0.0
C157 C 0.52035 0.68516 0.61544 0.0
C158 C 0.56662 0.79963 0.6249 0.0
C159 C 0.52445 0.81788 0.62656 0.0
C160 C 0.55793 0.77164 0.62523 0.0
C161 C 0.50686 0.76128 0.62717 0.0
C162 C 0.46464 0.77957 0.62791 0.0
C163 C 0.47333 0.80753 0.62765 0.0
H164 H 0.44308 0.30395 0.29895 0.0
H165 H 0.55365 0.31927 0.37457 0.0
H166 H 0.45498 0.25531 0.30629 0.0
H167 H 0.56491 0.27051 0.3822 0.0
H168 H 0.61707 0.18301 0.35687 0.0
H169 H 0.60325 0.23191 0.35366 0.0
H170 H 0.43697 0.21904 0.3444 0.0
H171 H 0.45075 0.17018 0.34711 0.0
C172 C 0.46965 0.29695 0.3173 0.0
C173 C 0.49749 0.31551 0.33612 0.0
C174 C 0.47623 0.26905 0.32163 0.0
C175 C 0.51086 0.25904 0.34485 0.0
C176 C 0.53836 0.27759 0.36389 0.0
C177 C 0.53168 0.30552 0.35961 0.0
C178 C 0.57753 0.19061 0.35437 0.0
C179 C 0.53507 0.17267 0.35208 0.0
C180 C 0.56958 0.21865 0.35269 0.0
C181 C 0.51903 0.22935 0.3486 0.0
C182 C 0.47647 0.21142 0.34707 0.0
C183 C 0.48438 0.18341 0.34882 0.0
H184 H 0.35326 0.05999 0.31822 0.0
H185 H 0.4102 0.09329 0.22983 0.0
H186 H 0.26634 0.0551 0.29478 0.0
H187 H 0.32338 0.08829 0.20649 0.0
H188 H 0.16927 0.05739 0.16704 0.0
H189 H 0.25604 0.05293 0.19086 0.0
H190 H 0.19926 0.09003 0.27697 0.0
H191 H 0.11258 0.0946 0.25323 0.0
C192 C 0.34745 0.06591 0.29367 0.0
C193 C 0.38851 0.07722 0.27593 0.0
C194 C 0.29765 0.06321 0.28034 0.0
C195 C 0.28812 0.07141 0.24889 0.0
C196 C 0.32971 0.08159 0.23072 0.0
C197 C 0.37934 0.0846 0.24415 0.0
C198 C 0.17509 0.06424 0.19122 0.0
C199 C 0.13417 0.07655 0.20819 0.0
C200 C 0.22481 0.0618 0.20476 0.0
C201 C 0.23439 0.07125 0.23567 0.0
C202 C 0.19289 0.08238 0.25317 0.0
C203 C 0.14334 0.08514 0.23951 0.0
H204 H 0.61746 0.38807 0.2286 0.0
H205 H 0.67407 0.42646 0.31419 0.0
H206 H 0.70412 0.39212 0.20506 0.0
H207 H 0.76082 0.43045 0.29054 0.0
H208 H 0.91701 0.39293 0.25183 0.0
H209 H 0.83008 0.39637 0.27524 0.0
H210 H 0.76912 0.42699 0.1864 0.0
H211 H 0.85601 0.42359 0.16289 0.0
C212 C 0.64823 0.39762 0.24227 0.0
C213 C 0.63894 0.40681 0.27332 0.0
C214 C 0.6978 0.40007 0.22871 0.0
C215 C 0.73925 0.41152 0.24602 0.0
C216 C 0.72969 0.42133 0.27677 0.0
C217 C 0.67995 0.41915 0.29022 0.0
C218 C 0.88521 0.40067 0.23738 0.0
C219 C 0.89337 0.40781 0.20545 0.0
C220 C 0.83549 0.40278 0.25085 0.0
C221 C 0.7928 0.41183 0.23258 0.0
C222 C 0.80123 0.4197 0.20093 0.0
C223 C 0.85105 0.41787 0.18755 0.0
H224 H 0.10881 0.89991 0.72797 0.0
H225 H 0.16525 0.93279 0.81673 0.0
H226 H 0.19567 0.90493 0.70514 0.0
H227 H 0.25207 0.93802 0.7937 0.0
H228 H 0.40769 0.90134 0.75432 0.0
H229 H 0.32074 0.90559 0.7773 0.0
H230 H 0.26256 0.93819 0.6887 0.0
H231 H 0.34943 0.93373 0.66553 0.0
C232 C 0.13953 0.90857 0.74248 0.0
C233 C 0.13019 0.91571 0.77425 0.0
C234 C 0.18927 0.91159 0.72933 0.0
C235 C 0.2308 0.92174 0.74769 0.0
C236 C 0.221 0.92984 0.7791 0.0
C237 C 0.17117 0.92695 0.79221 0.0
C238 C 0.37655 0.90975 0.73985 0.0
C239 C 0.38542 0.91694 0.70801 0.0
C240 C 0.32675 0.91232 0.75308 0.0
C241 C 0.28471 0.92205 0.73472 0.0
C242 C 0.29405 0.93029 0.70329 0.0
C243 C 0.3439 0.92785 0.6901 0.0
H244 H 0.61399 0.62896 0.73375 0.0
H245 H 0.649 0.55409 0.68484 0.0
H246 H 0.69945 0.62746 0.75929 0.0
H247 H 0.73479 0.55262 0.71078 0.0
H248 H 0.86418 0.5519 0.79167 0.0
H249 H 0.77696 0.54939 0.76751 0.0
H250 H 0.79138 0.63239 0.73595 0.0
H251 H 0.87808 0.63493 0.75962 0.0
C252 C 0.63963 0.61201 0.7287 0.0
C253 C 0.62484 0.59176 0.70705 0.0
C254 C 0.68868 0.61125 0.74323 0.0
C255 C 0.72383 0.59008 0.73673 0.0
C256 C 0.70833 0.56914 0.71621 0.0
C257 C 0.65935 0.57005 0.70132 0.0
C258 C 0.84879 0.56952 0.77938 0.0
C259 C 0.87796 0.59363 0.77763 0.0
C260 C 0.79902 0.56804 0.76553 0.0
C261 C 0.77735 0.59079 0.75019 0.0
C262 C 0.8069 0.61468 0.74803 0.0
C263 C 0.85672 0.61604 0.76142 0.0
H264 H 0.63244 0.97272 0.71041 0.0
H265 H 0.65387 0.88742 0.69055 0.0
H266 H 0.7157 0.97323 0.73909 0.0
H267 H 0.73685 0.88806 0.71883 0.0
H268 H 0.85145 0.89175 0.8014 0.0
H269 H 0.76775 0.89303 0.77391 0.0
H270 H 0.81141 0.96825 0.72849 0.0
H271 H 0.89538 0.96718 0.75634 0.0
C272 C 0.65484 0.95411 0.71214 0.0
C273 C 0.63642 0.93002 0.69827 0.0
C274 C 0.70264 0.95445 0.7284 0.0
C275 C 0.73272 0.93066 0.73131 0.0
C276 C 0.71425 0.90663 0.71738 0.0
C277 C 0.66677 0.90632 0.70102 0.0
C278 C 0.84328 0.90863 0.78564 0.0
C279 C 0.88023 0.92933 0.781 0.0
C280 C 0.79536 0.90928 0.76975 0.0
C281 C 0.78308 0.93066 0.74891 0.0
C282 C 0.81962 0.95161 0.7446 0.0
C283 C 0.86781 0.9509 0.7604 0.0
H284 H 0.40537 0.54128 0.73996 0.0
H285 H 0.33656 0.58334 0.65991 0.0
H286 H 0.31963 0.53884 0.76516 0.0
H287 H 0.25127 0.58115 0.68525 0.0
H288 H 0.09732 0.55348 0.72768 0.0
H289 H 0.18221 0.54938 0.70176 0.0
H290 H 0.2589 0.57173 0.78936 0.0
H291 H 0.17431 0.57554 0.81537 0.0
C292 C 0.37198 0.54986 0.72765 0.0
C293 C 0.37788 0.56262 0.698 0.0
C294 C 0.32292 0.54857 0.74216 0.0
C295 C 0.27871 0.55988 0.72724 0.0
C296 C 0.28443 0.57198 0.69721 0.0
C297 C 0.33344 0.57338 0.68278 0.0
C298 C 0.1323 0.5573 0.74148 0.0
C299 C 0.129 0.56498 0.77355 0.0
C300 C 0.18091 0.55507 0.72659 0.0
C301 C 0.22726 0.56031 0.74349 0.0
C302 C 0.22398 0.56727 0.77577 0.0
C303 C 0.17542 0.56963 0.79061 0.0
H304 H 0.60774 0.04117 0.23665 0.0
H305 H 0.68023 0.07973 0.31761 0.0
H306 H 0.69296 0.03846 0.21051 0.0
H307 H 0.7651 0.07675 0.29159 0.0
H308 H 0.91482 0.04238 0.24682 0.0
H309 H 0.82941 0.04009 0.27265 0.0
H310 H 0.75698 0.07435 0.18896 0.0
H311 H 0.8422 0.07689 0.16317 0.0
C312 C 0.64185 0.04886 0.24894 0.0
C313 C 0.63727 0.06077 0.27911 0.0
C314 C 0.69049 0.04739 0.23395 0.0
C315 C 0.73551 0.05737 0.24908 0.0
C316 C 0.73109 0.06869 0.27953 0.0
C317 C 0.68244 0.07054 0.2943 0.0
C318 C 0.88063 0.04924 0.23386 0.0
C319 C 0.88525 0.05995 0.20304 0.0
C320 C 0.83185 0.04802 0.24868 0.0
C321 C 0.78672 0.05707 0.23278 0.0
C322 C 0.79112 0.06704 0.20164 0.0
C323 C 0.83994 0.06865 0.187 0.0
H324 H 0.185 0.40973 0.16065 0.0
H325 H 0.11287 0.44956 0.24075 0.0
H326 H 0.26989 0.41264 0.18687 0.0
H327 H 0.19808 0.45233 0.26703 0.0
H328 H 0.34563 0.41424 0.31645 0.0
H329 H 0.26084 0.41738 0.29004 0.0
H330 H 0.33575 0.44766 0.20536 0.0
H331 H 0.42079 0.44464 0.23179 0.0
C332 C 0.18729 0.41926 0.18377 0.0
C333 C 0.14214 0.42931 0.19869 0.0
C334 C 0.236 0.42107 0.19868 0.0
C335 C 0.24056 0.43269 0.22899 0.0
C336 C 0.1956 0.44311 0.24375 0.0
C337 C 0.1469 0.44162 0.22864 0.0
C338 C 0.34404 0.42176 0.29227 0.0
C339 C 0.38998 0.42907 0.27615 0.0
C340 C 0.29542 0.42372 0.27724 0.0
C341 C 0.29174 0.43272 0.24564 0.0
C342 C 0.33753 0.44047 0.22967 0.0
C343 C 0.38614 0.43884 0.24485 0.0
H344 H 0.02629 0.06264 0.03914 0.0
H345 H 0.95522 0.99265 0.08328 0.0
H346 H 0.026 0.0393 0.98821 0.0
H347 H 0.95377 0.96957 0.03218 0.0
H348 H 0.01479 0.92589 0.94379 0.0
H349 H 0.01355 0.94931 -0.00533 0.0
H350 H 0.96696 0.02343 0.94737 0.0
H351 H 0.96944 0.00018 0.89637 0.0
C352 C 0.0103 0.04234 0.03795 0.0
C353 C 0.99091 0.02947 0.06529 0.0
C354 C 0.00984 0.02902 0.0087 0.0
C355 C 0.98987 0.00256 0.00611 0.0
C356 C 0.97012 0.98979 0.03344 0.0
C357 C 0.97069 0.00309 0.0627 0.0
C358 C 0.00422 0.94718 0.94424 0.0
C359 C 0.99235 0.96119 0.91602 0.0
C360 C 0.00321 0.96057 0.97344 0.0
C361 C 0.99016 0.98825 0.97509 0.0
C362 C 0.9779 0.0022 0.94687 0.0
C363 C 0.97905 0.98883 0.91766 0.0
H364 H 0.02134 0.56351 0.94128 0.0
H365 H 0.97331 0.48977 0.89425 0.0
H366 H 0.02255 0.53972 -0.008 0.0
H367 H 0.9733 0.46612 0.94515 0.0
H368 H 0.03451 0.42596 0.03612 0.0
H369 H 0.03339 0.44964 0.98527 0.0
H370 H 0.96402 0.51966 0.03028 0.0
H371 H 0.9663 0.49624 0.08127 0.0
C372 C 0.01075 0.54225 0.94178 0.0
C373 C -0.00272 0.52853 0.9137 0.0
C374 C 0.01114 0.52864 0.97091 0.0
C375 C -0.00205 0.50101 0.97267 0.0
C376 C 0.98434 0.48731 0.94458 0.0
C377 C 0.98406 0.50091 0.91542 0.0
C378 C 0.01903 0.44641 0.03518 0.0
C379 C 0.00059 0.45923 0.06277 0.0
C380 C 0.01809 0.45993 0.00598 0.0
C381 C -0.00141 0.48655 0.00368 0.0
C382 C 0.97999 0.49931 0.03129 0.0
C383 C 0.98104 0.48582 0.0605 0.0
H384 H 0.52617 0.42554 0.44168 0.0
H385 H 0.48075 0.49999 0.39466 0.0
H386 H 0.52569 0.44886 0.49264 0.0
H387 H 0.47911 0.52314 0.44572 0.0
H388 H 0.53399 0.56244 0.5379 0.0
H389 H 0.53737 0.53892 0.48712 0.0
H390 H 0.4648 0.46877 0.52991 0.0
H391 H 0.4625 0.49205 0.58089 0.0
C392 C 0.5159 0.44686 0.44222 0.0
C393 C 0.5035 0.46091 0.41409 0.0
C394 C 0.51533 0.46019 0.47147 0.0
C395 C 0.50229 0.48786 0.47328 0.0
C396 C 0.49002 0.50191 0.44512 0.0
C397 C 0.49066 0.48859 0.41586 0.0
C398 C 0.51885 0.54197 0.53651 0.0
C399 C 0.49795 0.52913 0.56346 0.0
C400 C 0.52052 0.52855 0.50734 0.0
C401 C 0.50123 0.50199 0.50442 0.0
C402 C 0.48059 0.48909 0.53143 0.0
C403 C 0.47901 0.5025 0.56063 0.0
H404 H 0.61558 0.97594 0.56638 0.0
H405 H 0.47456 0.93217 0.54275 0.0
H406 H 0.60924 0.0008 0.51629 0.0
H407 H 0.46815 0.95716 0.4929 0.0
H408 H 0.50575 0.98722 0.39238 0.0
H409 H 0.51518 0.96154 0.44163 0.0
H410 H 0.5502 0.03552 0.4921 0.0
H411 H 0.54118 0.06127 0.44281 0.0
C412 C 0.58334 0.97156 0.55049 0.0
C413 C 0.54553 0.95211 0.55857 0.0
C414 C 0.57957 0.98591 0.52191 0.0
C415 C 0.53815 0.98096 0.50073 0.0
C416 C 0.50078 0.96124 0.50861 0.0
C417 C 0.50434 0.94702 0.53725 0.0
C418 C 0.5155 -0.00197 0.41396 0.0
C419 C 0.52263 0.02629 0.4137 0.0
C420 C 0.52068 0.98332 0.44218 0.0
C421 C 0.53343 -0.00347 0.4707 0.0
C422 C 0.5409 0.02476 0.47041 0.0
C423 C 0.53538 0.03951 0.44222 0.0
loop_
_geom_bond_atom_site_label_1
_geom_bond_atom_site_label_2
_geom_bond_distance
_geom_bond_site_symmetry_2
_ccdc_geom_bond_type
C0 O1 1.160 1_455 S
C0 O7 1.185 . S
O1 C0 1.160 1_655 S
O2 Zn3 1.899 1_655 S
O2 C10 1.284 . S
Zn3 O2 1.899 1_455 S
Zn3 O4 2.032 . S
Zn3 O7 2.086 . S
Zn3 O12 1.977 . S
O4 Zn3 2.032 . S
O4 C8 1.278 . S
C5 O6 1.203 1_455 S
C5 O12 1.267 . S
O6 C5 1.203 1_655 S
O7 C0 1.185 . S
O7 Zn3 2.086 . S
C8 O4 1.278 . S
C8 O9 1.211 . S
O9 C8 1.211 . S
C10 O2 1.284 . S
C10 O11 1.273 . S
O11 C10 1.273 . S
O12 Zn3 1.977 . S
O12 C5 1.267 . S
C13 O14 1.160 . S
C13 O20 1.185 . S
O14 C13 1.160 . S
O15 Zn16 1.899 . S
O15 C23 1.284 . S
Zn16 O15 1.899 . S
Zn16 O17 2.032 1_455 S
Zn16 O20 2.086 . S
Zn16 O25 1.977 . S
O17 Zn16 2.032 1_655 S
O17 C21 1.278 . S
C18 O19 1.203 . S
C18 O25 1.267 . S
O19 C18 1.203 . S
O20 C13 1.185 . S
O20 Zn16 2.086 . S
C21 O17 1.278 . S
C21 O22 1.211 . S
O22 C21 1.211 . S
C23 O15 1.284 . S
C23 O24 1.273 . S
O24 C23 1.273 . S
O25 Zn16 1.977 . S
O25 C18 1.267 . S
C26 O27 1.160 1_455 S
C26 O33 1.185 . S
O27 C26 1.160 1_655 S
O28 Zn29 1.899 1_655 S
O28 C36 1.284 . S
Zn29 O28 1.899 1_455 S
Zn29 O30 2.032 . S
Zn29 O33 2.086 . S
Zn29 O38 1.977 . S
O30 Zn29 2.032 . S
O30 C34 1.278 . S
C31 O32 1.203 1_455 S
C31 O38 1.267 . S
O32 C31 1.203 1_655 S
O33 C26 1.185 . S
O33 Zn29 2.086 . S
C34 O30 1.278 . S
C34 O35 1.211 . S
O35 C34 1.211 . S
C36 O28 1.284 . S
C36 O37 1.273 . S
O37 C36 1.273 . S
O38 Zn29 1.977 . S
O38 C31 1.267 . S
C39 O40 1.160 . S
C39 O46 1.185 . S
O40 C39 1.160 . S
O41 Zn42 1.899 . S
O41 C49 1.284 . S
Zn42 O41 1.899 . S
Zn42 O43 2.032 1_455 S
Zn42 O46 2.086 . S
Zn42 O51 1.977 . S
O43 Zn42 2.032 1_655 S
O43 C47 1.278 . S
C44 O45 1.203 . S
C44 O51 1.267 . S
O45 C44 1.203 . S
O46 C39 1.185 . S
O46 Zn42 2.086 . S
C47 O43 1.278 . S
C47 O48 1.211 . S
O48 C47 1.211 . S
C49 O41 1.284 . S
C49 O50 1.273 . S
O50 C49 1.273 . S
O51 Zn42 1.977 . S
O51 C44 1.267 . S
C52 O53 1.160 . S
C52 O59 1.185 . S
O53 C52 1.160 . S
O54 Zn55 1.899 . S
O54 C62 1.284 . S
Zn55 O54 1.899 . S
Zn55 O56 2.032 . S
Zn55 O59 2.086 . S
Zn55 O64 1.977 . S
O56 Zn55 2.032 . S
O56 C60 1.278 . S
C57 O58 1.203 . S
C57 O64 1.267 . S
O58 C57 1.203 . S
O59 C52 1.185 . S
O59 Zn55 2.086 . S
C60 O56 1.278 . S
C60 O61 1.211 . S
O61 C60 1.211 . S
C62 O54 1.284 . S
C62 O63 1.273 . S
O63 C62 1.273 . S
O64 Zn55 1.977 . S
O64 C57 1.267 . S
C65 O66 1.160 . S
C65 O72 1.185 . S
O66 C65 1.160 . S
O67 Zn68 1.899 . S
O67 C75 1.284 . S
Zn68 O67 1.899 . S
Zn68 O69 2.032 . S
Zn68 O72 2.086 . S
Zn68 O77 1.977 . S
O69 Zn68 2.032 . S
O69 C73 1.278 . S
C70 O71 1.203 . S
C70 O77 1.267 . S
O71 C70 1.203 . S
O72 C65 1.185 . S
O72 Zn68 2.086 . S
C73 O69 1.278 . S
C73 O74 1.211 . S
O74 C73 1.211 . S
C75 O67 1.284 . S
C75 O76 1.273 . S
O76 C75 1.273 . S
O77 Zn68 1.977 . S
O77 C70 1.267 . S
C78 O79 1.160 . S
C78 O85 1.185 . S
O79 C78 1.160 . S
O80 Zn81 1.899 . S
O80 C88 1.284 . S
Zn81 O80 1.899 . S
Zn81 O82 2.032 . S
Zn81 O85 2.086 . S
Zn81 O90 1.977 . S
O82 Zn81 2.032 . S
O82 C86 1.278 . S
C83 O84 1.203 . S
C83 O90 1.267 . S
O84 C83 1.203 . S
O85 C78 1.185 . S
O85 Zn81 2.086 . S
C86 O82 1.278 . S
C86 O87 1.211 . S
O87 C86 1.211 . S
C88 O80 1.284 . S
C88 O89 1.273 . S
O89 C88 1.273 . S
O90 Zn81 1.977 . S
O90 C83 1.267 . S
C91 O92 1.160 . S
C91 O98 1.185 . S
O92 C91 1.160 . S
O93 Zn94 1.899 . S
O93 C101 1.284 . S
Zn94 O93 1.899 . S
Zn94 O95 2.032 . S
Zn94 O98 2.086 . S
Zn94 O103 1.977 . S
O95 Zn94 2.032 . S
O95 C99 1.278 . S
C96 O97 1.203 . S
C96 O103 1.267 . S
O97 C96 1.203 . S
O98 C91 1.185 . S
O98 Zn94 2.086 . S
C99 O95 1.278 . S
C99 O100 1.211 . S
O100 C99 1.211 . S
C101 O93 1.284 . S
C101 O102 1.273 . S
O102 C101 1.273 . S
O103 Zn94 1.977 . S
O103 C96 1.267 . S
H104 C112 0.950 . S
H105 C117 0.950 . S
H106 C114 0.950 . S
H107 C116 0.950 . S
H108 C118 0.950 . S
H109 C120 0.950 . S
H110 C122 0.950 . S
H111 C123 0.950 . S
C112 H104 0.950 . S
C112 C113 1.386 1_655 S
C112 C114 1.391 . S
C113 C112 1.386 1_455 S
C113 C117 1.393 . S
C114 H106 0.950 . S
C114 C112 1.391 . S
C114 C115 1.400 1_655 S
C115 C114 1.400 1_455 S
C115 C116 1.398 . S
C115 C121 1.491 . S
C116 H107 0.950 . S
C116 C115 1.398 . S
C116 C117 1.391 . S
C117 H105 0.950 . S
C117 C113 1.393 . S
C117 C116 1.391 . S
C118 H108 0.950 . S
C118 C119 1.386 . S
C118 C120 1.391 . S
C119 C118 1.386 . S
C119 C123 1.393 1_455 S
C120 H109 0.950 . S
C120 C118 1.391 . S
C120 C121 1.400 . S
C121 C115 1.491 . S
C121 C120 1.400 . S
C121 C122 1.398 1_455 S
C122 H110 0.950 . S
C122 C121 1.398 1_655 S
C122 C123 1.391 . S
C123 H111 0.950 . S
C123 C119 1.393 1_655 S
C123 C122 1.391 . S
H124 C132 0.950 . S
H125 C137 0.950 . S
H126 C134 0.950 . S
H127 C136 0.950 . S
H128 C138 0.950 . S
H129 C140 0.950 . S
H130 C142 0.950 . S
H131 C143 0.950 . S
C132 H124 0.950 . S
C132 C133 1.386 . S
C132 C134 1.391 . S
C133 C132 1.386 . S
C133 C137 1.393 1_455 S
C134 H126 0.950 . S
C134 C132 1.391 . S
C134 C135 1.400 . S
C135 C134 1.400 . S
C135 C136 1.398 1_455 S
C135 C141 1.491 . S
C136 H127 0.950 . S
C136 C135 1.398 1_655 S
C136 C137 1.391 . S
C137 H125 0.950 . S
C137 C133 1.393 1_655 S
C137 C136 1.391 . S
C138 H128 0.950 . S
C138 C139 1.386 1_655 S
C138 C140 1.391 . S
C139 C138 1.386 1_455 S
C139 C143 1.393 . S
C140 H129 0.950 . S
C140 C138 1.391 . S
C140 C141 1.400 1_655 S
C141 C135 1.491 . S
C141 C140 1.400 1_455 S
C141 C142 1.398 . S
C142 H130 0.950 . S
C142 C141 1.398 . S
C142 C143 1.391 . S
C143 H131 0.950 . S
C143 C139 1.393 . S
C143 C142 1.391 . S
H144 C152 0.950 . S
H145 C157 0.950 . S
H146 C154 0.950 . S
H147 C156 0.950 . S
H148 C158 0.950 . S
H149 C160 0.950 . S
H150 C162 0.950 . S
H151 C163 0.950 . S
C152 H144 0.950 . S
C152 C153 1.386 . S
C152 C154 1.391 . S
C153 C152 1.386 . S
C153 C157 1.393 . S
C154 H146 0.950 . S
C154 C152 1.391 . S
C154 C155 1.400 . S
C155 C154 1.400 . S
C155 C156 1.398 . S
C155 C161 1.491 . S
C156 H147 0.950 . S
C156 C155 1.398 . S
C156 C157 1.391 . S
C157 H145 0.950 . S
C157 C153 1.393 . S
C157 C156 1.391 . S
C158 H148 0.950 . S
C158 C159 1.386 . S
C158 C160 1.391 . S
C159 C158 1.386 . S
C159 C163 1.393 . S
C160 H149 0.950 . S
C160 C158 1.391 . S
C160 C161 1.400 . S
C161 C155 1.491 . S
C161 C160 1.400 . S
C161 C162 1.398 . S
C162 H150 0.950 . S
C162 C161 1.398 . S
C162 C163 1.391 . S
C163 H151 0.950 . S
C163 C159 1.393 . S
C163 C162 1.391 . S
H164 C172 0.950 . S
H165 C177 0.950 . S
H166 C174 0.950 . S
H167 C176 0.950 . S
H168 C178 0.950 . S
H169 C180 0.950 . S
H170 C182 0.950 . S
H171 C183 0.950 . S
C172 H164 0.950 . S
C172 C173 1.386 . S
C172 C174 1.391 . S
C173 C172 1.386 . S
C173 C177 1.393 . S
C174 H166 0.950 . S
C174 C172 1.391 . S
C174 C175 1.400 . S
C175 C174 1.400 . S
C175 C176 1.398 . S
C175 C181 1.491 . S
C176 H167 0.950 . S
C176 C175 1.398 . S
C176 C177 1.391 . S
C177 H165 0.950 . S
C177 C173 1.393 . S
C177 C176 1.391 . S
C178 H168 0.950 . S
C178 C179 1.386 . S
C178 C180 1.391 . S
C179 C178 1.386 . S
C179 C183 1.393 . S
C180 H169 0.950 . S
C180 C178 1.391 . S
C180 C181 1.400 . S
C181 C175 1.491 . S
C181 C180 1.400 . S
C181 C182 1.398 . S
C182 H170 0.950 . S
C182 C181 1.398 . S
C182 C183 1.391 . S
C183 H171 0.950 . S
C183 C179 1.393 . S
C183 C182 1.391 . S
H184 C192 0.950 . S
H185 C197 0.950 . S
H186 C194 0.950 . S
H187 C196 0.950 . S
H188 C198 0.950 . S
H189 C200 0.950 . S
H190 C202 0.950 . S
H191 C203 0.950 . S
C192 H184 0.950 . S
C192 C193 1.386 . S
C192 C194 1.391 . S
C193 C192 1.386 . S
C193 C197 1.393 . S
C194 H186 0.950 . S
C194 C192 1.391 . S
C194 C195 1.400 . S
C195 C194 1.400 . S
C195 C196 1.398 . S
C195 C201 1.491 . S
C196 H187 0.950 . S
C196 C195 1.398 . S
C196 C197 1.391 . S
C197 H185 0.950 . S
C197 C193 1.393 . S
C197 C196 1.391 . S
C198 H188 0.950 . S
C198 C199 1.386 . S
C198 C200 1.391 . S
C199 C198 1.386 . S
C199 C203 1.393 . S
C200 H189 0.950 . S
C200 C198 1.391 . S
C200 C201 1.400 . S
C201 C195 1.491 . S
C201 C200 1.400 . S
C201 C202 1.398 . S
C202 H190 0.950 . S
C202 C201 1.398 . S
C202 C203 1.391 . S
C203 H191 0.950 . S
C203 C199 1.393 . S
C203 C202 1.391 . S
H204 C212 0.950 . S
H205 C217 0.950 . S
H206 C214 0.950 . S
H207 C216 0.950 . S
H208 C218 0.950 . S
H209 C220 0.950 . S
H210 C222 0.950 . S
H211 C223 0.950 . S
C212 H204 0.950 . S
C212 C213 1.386 . S
C212 C214 1.391 . S
C213 C212 1.386 . S
C213 C217 1.393 . S
C214 H206 0.950 . S
C214 C212 1.391 . S
C214 C215 1.400 . S
C215 C214 1.400 . S
C215 C216 1.398 . S
C215 C221 1.491 . S
C216 H207 0.950 . S
C216 C215 1.398 . S
C216 C217 1.391 . S
C217 H205 0.950 . S
C217 C213 1.393 . S
C217 C216 1.391 . S
C218 H208 0.950 . S
C218 C219 1.386 . S
C218 C220 1.391 . S
C219 C218 1.386 . S
C219 C223 1.393 . S
C220 H209 0.950 . S
C220 C218 1.391 . S
C220 C221 1.400 . S
C221 C215 1.491 . S
C221 C220 1.400 . S
C221 C222 1.398 . S
C222 H210 0.950 . S
C222 C221 1.398 . S
C222 C223 1.391 . S
C223 H211 0.950 . S
C223 C219 1.393 . S
C223 C222 1.391 . S
H224 C232 0.950 . S
H225 C237 0.950 . S
H226 C234 0.950 . S
H227 C236 0.950 . S
H228 C238 0.950 . S
H229 C240 0.950 . S
H230 C242 0.950 . S
H231 C243 0.950 . S
C232 H224 0.950 . S
C232 C233 1.386 . S
C232 C234 1.391 . S
C233 C232 1.386 . S
C233 C237 1.393 . S
C234 H226 0.950 . S
C234 C232 1.391 . S
C234 C235 1.400 . S
C235 C234 1.400 . S
C235 C236 1.398 . S
C235 C241 1.491 . S
C236 H227 0.950 . S
C236 C235 1.398 . S
C236 C237 1.391 . S
C237 H225 0.950 . S
C237 C233 1.393 . S
C237 C236 1.391 . S
C238 H228 0.950 . S
C238 C239 1.386 . S
C238 C240 1.391 . S
C239 C238 1.386 . S
C239 C243 1.393 . S
C240 H229 0.950 . S
C240 C238 1.391 . S
C240 C241 1.400 . S
C241 C235 1.491 . S
C241 C240 1.400 . S
C241 C242 1.398 . S
C242 H230 0.950 . S
C242 C241 1.398 . S
C242 C243 1.391 . S
C243 H231 0.950 . S
C243 C239 1.393 . S
C243 C242 1.391 . S
H244 C252 0.950 . S
H245 C257 0.950 . S
H246 C254 0.950 . S
H247 C256 0.950 . S
H248 C258 0.950 . S
H249 C260 0.950 . S
H250 C262 0.950 . S
H251 C263 0.950 . S
C252 H244 0.950 . S
C252 C253 1.386 . S
C252 C254 1.391 . S
C253 C252 1.386 . S
C253 C257 1.393 . S
C254 H246 0.950 . S
C254 C252 1.391 . S
C254 C255 1.400 . S
C255 C254 1.400 . S
C255 C256 1.398 . S
C255 C261 1.491 . S
C256 H247 0.950 . S
C256 C255 1.398 . S
C256 C257 1.391 . S
C257 H245 0.950 . S
C257 C253 1.393 . S
C257 C256 1.391 . S
C258 H248 0.950 . S
C258 C259 1.386 . S
C258 C260 1.391 . S
C259 C258 1.386 . S
C259 C263 1.393 . S
C260 H249 0.950 . S
C260 C258 1.391 . S
C260 C261 1.400 . S
C261 C255 1.491 . S
C261 C260 1.400 . S
C261 C262 1.398 . S
C262 H250 0.950 . S
C262 C261 1.398 . S
C262 C263 1.391 . S
C263 H251 0.950 . S
C263 C259 1.393 . S
C263 C262 1.391 . S
H264 C272 0.950 . S
H265 C277 0.950 . S
H266 C274 0.950 . S
H267 C276 0.950 . S
H268 C278 0.950 . S
H269 C280 0.950 . S
H270 C282 0.950 . S
H271 C283 0.950 . S
C272 H264 0.950 . S
C272 C273 1.386 . S
C272 C274 1.391 . S
C273 C272 1.386 . S
C273 C277 1.393 . S
C274 H266 0.950 . S
C274 C272 1.391 . S
C274 C275 1.400 . S
C275 C274 1.400 . S
C275 C276 1.398 . S
C275 C281 1.491 . S
C276 H267 0.950 . S
C276 C275 1.398 . S
C276 C277 1.391 . S
C277 H265 0.950 . S
C277 C273 1.393 . S
C277 C276 1.391 . S
C278 H268 0.950 . S
C278 C279 1.386 . S
C278 C280 1.391 . S
C279 C278 1.386 . S
C279 C283 1.393 . S
C280 H269 0.950 . S
C280 C278 1.391 . S
C280 C281 1.400 . S
C281 C275 1.491 . S
C281 C280 1.400 . S
C281 C282 1.398 . S
C282 H270 0.950 . S
C282 C281 1.398 . S
C282 C283 1.391 . S
C283 H271 0.950 . S
C283 C279 1.393 . S
C283 C282 1.391 . S
H284 C292 0.950 . S
H285 C297 0.950 . S
H286 C294 0.950 . S
H287 C296 0.950 . S
H288 C298 0.950 . S
H289 C300 0.950 . S
H290 C302 0.950 . S
H291 C303 0.950 . S
C292 H284 0.950 . S
C292 C293 1.386 . S
C292 C294 1.391 . S
C293 C292 1.386 . S
C293 C297 1.393 . S
C294 H286 0.950 . S
C294 C292 1.391 . S
C294 C295 1.400 . S
C295 C294 1.400 . S
C295 C296 1.398 . S
C295 C301 1.491 . S
C296 H287 0.950 . S
C296 C295 1.398 . S
C296 C297 1.391 . S
C297 H285 0.950 . S
C297 C293 1.393 . S
C297 C296 1.391 . S
C298 H288 0.950 . S
C298 C299 1.386 . S
C298 C300 1.391 . S
C299 C298 1.386 . S
C299 C303 1.393 . S
C300 H289 0.950 . S
C300 C298 1.391 . S
C300 C301 1.400 . S
C301 C295 1.491 . S
C301 C300 1.400 . S
C301 C302 1.398 . S
C302 H290 0.950 . S
C302 C301 1.398 . S
C302 C303 1.391 . S
C303 H291 0.950 . S
C303 C299 1.393 . S
C303 C302 1.391 . S
H304 C312 0.950 . S
H305 C317 0.950 . S
H306 C314 0.950 . S
H307 C316 0.950 . S
H308 C318 0.950 . S
H309 C320 0.950 . S
H310 C322 0.950 . S
H311 C323 0.950 . S
C312 H304 0.950 . S
C312 C313 1.386 . S
C312 C314 1.391 . S
C313 C312 1.386 . S
C313 C317 1.393 . S
C314 H306 0.950 . S
C314 C312 1.391 . S
C314 C315 1.400 . S
C315 C314 1.400 . S
C315 C316 1.398 . S
C315 C321 1.491 . S
C316 H307 0.950 . S
C316 C315 1.398 . S
C316 C317 1.391 . S
C317 H305 0.950 . S
C317 C313 1.393 . S
C317 C316 1.391 . S
C318 H308 0.950 . S
C318 C319 1.386 . S
C318 C320 1.391 . S
C319 C318 1.386 . S
C319 C323 1.393 . S
C320 H309 0.950 . S
C320 C318 1.391 . S
C320 C321 1.400 . S
C321 C315 1.491 . S
C321 C320 1.400 . S
C321 C322 1.398 . S
C322 H310 0.950 . S
C322 C321 1.398 . S
C322 C323 1.391 . S
C323 H311 0.950 . S
C323 C319 1.393 . S
C323 C322 1.391 . S
H324 C332 0.950 . S
H325 C337 0.950 . S
H326 C334 0.950 . S
H327 C336 0.950 . S
H328 C338 0.950 . S
H329 C340 0.950 . S
H330 C342 0.950 . S
H331 C343 0.950 . S
C332 H324 0.950 . S
C332 C333 1.386 . S
C332 C334 1.391 . S
C333 C332 1.386 . S
C333 C337 1.393 . S
C334 H326 0.950 . S
C334 C332 1.391 . S
C334 C335 1.400 . S
C335 C334 1.400 . S
C335 C336 1.398 . S
C335 C341 1.491 . S
C336 H327 0.950 . S
C336 C335 1.398 . S
C336 C337 1.391 . S
C337 H325 0.950 . S
C337 C333 1.393 . S
C337 C336 1.391 . S
C338 H328 0.950 . S
C338 C339 1.386 . S
C338 C340 1.391 . S
C339 C338 1.386 . S
C339 C343 1.393 . S
C340 H329 0.950 . S
C340 C338 1.391 . S
C340 C341 1.400 . S
C341 C335 1.491 . S
C341 C340 1.400 . S
C341 C342 1.398 . S
C342 H330 0.950 . S
C342 C341 1.398 . S
C342 C343 1.391 . S
C343 H331 0.950 . S
C343 C339 1.393 . S
C343 C342 1.391 . S
H344 C352 0.950 . S
H345 C357 0.950 . S
H346 C354 0.950 1_556 S
H347 C356 0.950 . S
H348 C358 0.950 . S
H349 C360 0.950 1_554 S
H350 C362 0.950 1_655 S
H351 C363 0.950 1_655 S
C352 H344 0.950 . S
C352 C353 1.386 . S
C352 C354 1.391 . S
C353 C352 1.386 . S
C353 C357 1.393 . S
C354 H346 0.950 1_554 S
C354 C352 1.391 . S
C354 C355 1.400 . S
C355 C354 1.400 . S
C355 C356 1.398 1_545 S
C355 C361 1.491 1_544 S
C356 H347 0.950 . S
C356 C355 1.398 1_565 S
C356 C357 1.391 1_565 S
C357 H345 0.950 . S
C357 C353 1.393 . S
C357 C356 1.391 1_545 S
C358 H348 0.950 . S
C358 C359 1.386 . S
C358 C360 1.391 . S
C359 C358 1.386 . S
C359 C363 1.393 . S
C360 H349 0.950 1_556 S
C360 C358 1.391 . S
C360 C361 1.400 . S
C361 C355 1.491 1_566 S
C361 C360 1.400 . S
C361 C362 1.398 1_565 S
C362 H350 0.950 1_455 S
C362 C361 1.398 1_545 S
C362 C363 1.391 1_545 S
C363 H351 0.950 1_455 S
C363 C359 1.393 . S
C363 C362 1.391 1_565 S
H364 C372 0.950 . S
H365 C377 0.950 . S
H366 C374 0.950 . S
H367 C376 0.950 . S
H368 C378 0.950 . S
H369 C380 0.950 . S
H370 C382 0.950 . S
H371 C383 0.950 . S
C372 H364 0.950 . S
C372 C373 1.386 1_655 S
C372 C374 1.391 . S
C373 C372 1.386 1_455 S
C373 C377 1.393 . S
C374 H366 0.950 . S
C374 C372 1.391 . S
C374 C375 1.400 1_655 S
C375 C374 1.400 1_455 S
C375 C376 1.398 . S
C375 C381 1.491 1_556 S
C376 H367 0.950 . S
C376 C375 1.398 . S
C376 C377 1.391 . S
C377 H365 0.950 . S
C377 C373 1.393 . S
C377 C376 1.391 . S
C378 H368 0.950 . S
C378 C379 1.386 . S
C378 C380 1.391 . S
C379 C378 1.386 . S
C379 C383 1.393 1_455 S
C380 H369 0.950 . S
C380 C378 1.391 . S
C380 C381 1.400 . S
C381 C375 1.491 1_554 S
C381 C380 1.400 . S
C381 C382 1.398 1_455 S
C382 H370 0.950 . S
C382 C381 1.398 1_655 S
C382 C383 1.391 . S
C383 H371 0.950 . S
C383 C379 1.393 1_655 S
C383 C382 1.391 . S
H384 C392 0.950 . S
H385 C397 0.950 . S
H386 C394 0.950 . S
H387 C396 0.950 . S
H388 C398 0.950 . S
H389 C400 0.950 . S
H390 C402 0.950 . S
H391 C403 0.950 . S
C392 H384 0.950 . S
C392 C393 1.386 . S
C392 C394 1.391 . S
C393 C392 1.386 . S
C393 C397 1.393 . S
C394 H386 0.950 . S
C394 C392 1.391 . S
C394 C395 1.400 . S
C395 C394 1.400 . S
C395 C396 1.398 . S
C395 C401 1.491 . S
C396 H387 0.950 . S
C396 C395 1.398 . S
C396 C397 1.391 . S
C397 H385 0.950 . S
C397 C393 1.393 . S
C397 C396 1.391 . S
C398 H388 0.950 . S
C398 C399 1.386 . S
C398 C400 1.391 . S
C399 C398 1.386 . S
C399 C403 1.393 . S
C400 H389 0.950 . S
C400 C398 1.391 . S
C400 C401 1.400 . S
C401 C395 1.491 . S
C401 C400 1.400 . S
C401 C402 1.398 . S
C402 H390 0.950 . S
C402 C401 1.398 . S
C402 C403 1.391 . S
C403 H391 0.950 . S
C403 C399 1.393 . S
C403 C402 1.391 . S
H404 C412 0.950 . S
H405 C417 0.950 . S
H406 C414 0.940 1_545 S
H407 C416 0.950 . S
H408 C418 0.950 . S
H409 C420 0.940 1_565 S
H410 C422 0.950 . S
H411 C423 0.950 . S
C412 H404 0.950 . S
C412 C413 1.386 . S
C412 C414 1.391 . S
C413 C412 1.386 . S
C413 C417 1.393 . S
C414 H406 0.940 1_565 S
C414 C412 1.391 . S
C414 C415 1.400 . S
C415 C414 1.400 . S
C415 C416 1.398 . S
C415 C421 1.491 1_565 S
C416 H407 0.950 . S
C416 C415 1.398 . S
C416 C417 1.391 . S
C417 H405 0.950 . S
C417 C413 1.393 . S
C417 C416 1.391 . S
C418 H408 0.950 . S
C418 C419 1.386 . S
C418 C420 1.391 . S
C419 C418 1.386 . S
C419 C423 1.393 . S
C420 H409 0.940 1_545 S
C420 C418 1.391 . S
C420 C421 1.400 . S
C421 C415 1.491 1_545 S
C421 C420 1.400 . S
C421 C422 1.398 . S
C422 H410 0.950 . S
C422 C421 1.398 . S
C422 C423 1.391 . S
C423 H411 0.950 . S
C423 C419 1.393 . S
C423 C422 1.391 . S
C113 C18 1.425 . S
C119 C5 1.404 . S
C133 C31 1.423 . S
C139 C44 1.405 . S
C153 C57 1.410 . S
C159 C70 1.428 . S
C173 C83 1.412 . S
C179 C96 1.427 . S
C193 C99 1.288 . S
C199 C8 1.318 . S
C213 C86 1.319 . S
C219 C21 1.288 . S
C233 C34 1.314 . S
C239 C73 1.292 . S
C253 C60 1.316 . S
C259 C47 1.291 . S
C273 C75 1.426 . S
C279 C36 1.428 . S
C293 C62 1.428 . S
C299 C49 1.433 . S
C313 C101 1.429 . S
C319 C10 1.435 . S
C333 C23 1.436 . S
C339 C88 1.431 . S
C353 C0 1.274 . S
C359 C26 1.253 . S
C373 C39 1.268 . S
C379 C13 1.254 . S
C393 C78 1.274 . S
C399 C52 1.256 . S
C413 C65 1.264 . S
C419 C91 1.269 . S
