# Generated by pormake.
# Topology npo, (4)-cn, num edge types: 1
# Building blocks:
#     Node 0, Type 0, BuildingBlock: TATPOV_clean_sbu_0, # of connection points: 4
#     Node 1, Type 0, BuildingBlock: TATPOV_clean_sbu_0, # of connection points: 4
#     Node 2, Type 0, BuildingBlock: TATPOV_clean_sbu_0, # of connection points: 4
#     Node 3, Type 0, BuildingBlock: TATPOV_clean_sbu_0, # of connection points: 4
#     Node 4, Type 0, BuildingBlock: TATPOV_clean_sbu_0, # of connection points: 4
#     Node 5, Type 0, BuildingBlock: TATPOV_clean_sbu_0, # of connection points: 4
#     Edge 6, Type (0, 0), BuildingBlock: FUNLAD_clean_linker_1, # of connection points: 2
#     Edge 7, Type (0, 0), BuildingBlock: FUNLAD_clean_linker_1, # of connection points: 2
#     Edge 8, Type (0, 0), BuildingBlock: FUNLAD_clean_linker_1, # of connection points: 2
#     Edge 9, Type (0, 0), BuildingBlock: FUNLAD_clean_linker_1, # of connection points: 2
#     Edge 10, Type (0, 0), BuildingBlock: FUNLAD_clean_linker_1, # of connection points: 2
#     Edge 11, Type (0, 0), BuildingBlock: FUNLAD_clean_linker_1, # of connection points: 2
#     Edge 12, Type (0, 0), BuildingBlock: FUNLAD_clean_linker_1, # of connection points: 2
#     Edge 13, Type (0, 0), BuildingBlock: FUNLAD_clean_linker_1, # of connection points: 2
#     Edge 14, Type (0, 0), BuildingBlock: FUNLAD_clean_linker_1, # of connection points: 2
#     Edge 15, Type (0, 0), BuildingBlock: FUNLAD_clean_linker_1, # of connection points: 2
#     Edge 16, Type (0, 0), BuildingBlock: FUNLAD_clean_linker_1, # of connection points: 2
#     Edge 17, Type (0, 0), BuildingBlock: FUNLAD_clean_linker_1, # of connection points: 2
# Relax obj value: 0.180
# Max RMSD: 0.204
# Mean RMSD: 0.193
data_MOF--net-npo--node1-TATPOV_clean_sbu_0--edge1-FUNLAD_clean_linker_1
_symmetry_space_group_name_H-M    P1
_symmetry_Int_Tables_number       1
_symmetry_cell_setting            triclinic
loop_
_symmetry_equiv_pos_as_xyz
'x, y, z'
_cell_length_a     45.265516
_cell_length_b     42.960397
_cell_length_c     26.413996
_cell_angle_alpha  90.71461
_cell_angle_beta   89.889944
_cell_angle_gamma 121.87872
loop_
_atom_site_label
_atom_site_type_symbol
_atom_site_fract_x
_atom_site_fract_y
_atom_site_fract_z
_atom_type_partial_charge
Zn0 Zn 0.56874 0.14836 0.17871 0.0
Zn1 Zn 0.52951 0.10711 0.25396 0.0
O2 O 0.51035 0.14081 0.24534 0.0
O3 O 0.54689 0.17835 0.18814 0.0
O4 O 0.50256 0.07472 0.31214 0.0
O5 O 0.5472 0.10577 0.13087 0.0
O6 O 0.51726 0.07046 0.1946 0.0
C7 C 0.5216 0.16897 0.21784 0.0
C8 C 0.60989 0.15323 0.26155 0.0
O9 O 0.57997 0.13375 0.28143 0.0
O10 O 0.61263 0.16209 0.21552 0.0
C11 C 0.50485 0.08873 0.35572 0.0
O12 O 0.52373 0.12448 0.3618 0.0
C13 C 0.52571 0.07438 0.14803 0.0
Zn14 Zn 0.39847 0.53829 0.59216 0.0
Zn15 Zn 0.4308 0.52558 0.66764 0.0
O16 O 0.37878 0.49773 0.68835 0.0
O17 O 0.35377 0.51387 0.6318 0.0
O18 O 0.45351 0.51951 0.72993 0.0
O19 O 0.41183 0.51005 0.54563 0.0
O20 O 0.44417 0.50626 0.60485 0.0
C21 C 0.35213 0.49738 0.67207 0.0
C22 C 0.45323 0.60414 0.6374 0.0
O23 O 0.45467 0.58144 0.66612 0.0
O24 O 0.43166 0.59289 0.60102 0.0
C25 C 0.44916 0.53317 0.7703 0.0
O26 O 0.43086 0.54873 0.7682 0.0
C27 C 0.43343 0.50146 0.55904 0.0
Zn28 Zn 0.84464 0.43655 0.44905 0.0
Zn29 Zn 0.88967 0.45489 0.37142 0.0
O30 O 0.86426 0.48181 0.35455 0.0
O31 O 0.82561 0.46443 0.41567 0.0
O32 O 0.92307 0.4676 0.31322 0.0
O33 O 0.88486 0.46077 0.49814 0.0
O34 O 0.92106 0.47155 0.43526 0.0
C35 C 0.83876 0.4818 0.37523 0.0
C36 C 0.83288 0.37452 0.39013 0.0
O37 O 0.85767 0.39919 0.36397 0.0
O38 O 0.82292 0.38307 0.42989 0.0
C39 C 0.91173 0.45441 0.26917 0.0
O40 O 0.87805 0.43296 0.26151 0.0
C41 C 0.91534 0.47247 0.48241 0.0
Zn42 Zn 0.4435 0.8364 0.79297 0.0
Zn43 Zn 0.43519 0.87167 0.72373 0.0
O44 O 0.38442 0.82978 0.73376 0.0
O45 O 0.39493 0.79378 0.77867 0.0
O46 O 0.4336 0.90114 0.6665 0.0
O47 O 0.45106 0.87295 0.84629 0.0
O48 O 0.45423 0.90829 0.78426 0.0
C49 C 0.37383 0.79919 0.75494 0.0
C50 C 0.48521 0.84344 0.713 0.0
O51 O 0.46603 0.85367 0.69352 0.0
O52 O 0.48419 0.83839 0.76015 0.0
C53 C 0.41989 0.88531 0.62451 0.0
O54 O 0.40554 0.8497 0.62002 0.0
C55 C 0.45675 0.90342 0.83117 0.0
Zn56 Zn 0.61395 0.46428 0.09677 0.0
Zn57 Zn 0.59542 0.49224 0.17061 0.0
O58 O 0.64871 0.51852 0.18085 0.0
O59 O 0.66087 0.48532 0.131 0.0
O60 O 0.57895 0.50765 0.23207 0.0
O61 O 0.60518 0.49331 0.04652 0.0
O62 O 0.57864 0.50609 0.10586 0.0
C63 C 0.67008 0.50993 0.16486 0.0
C64 C 0.56173 0.40919 0.15687 0.0
O65 O 0.56974 0.43713 0.18418 0.0
O66 O 0.57492 0.41288 0.11347 0.0
C67 C 0.59187 0.50695 0.27456 0.0
O68 O 0.61673 0.49988 0.27568 0.0
C69 C 0.58674 0.50615 0.05944 0.0
Zn70 Zn 0.14188 0.54168 0.94146 0.0
Zn71 Zn 0.10529 0.51541 0.85518 0.0
O72 O 0.13708 0.49479 0.8507 0.0
O73 O 0.17217 0.52271 0.91571 0.0
O74 O 0.07895 0.50028 0.789 0.0
O75 O 0.09811 0.51097 0.98163 0.0
O76 O 0.06747 0.49459 0.91088 0.0
C77 C 0.16385 0.50237 0.87659 0.0
C78 C 0.14991 0.59829 0.87818 0.0
O79 O 0.13287 0.57123 0.84789 0.0
O80 O 0.15533 0.59318 0.92339 0.0
C81 C 0.09558 0.50522 0.74797 0.0
O82 O 0.129 0.51764 0.74977 0.0
C83 C 0.06893 0.49468 0.95911 0.0
H84 H 0.47958 0.17926 0.23691 0.0
C85 C 0.50483 0.19054 0.21912 0.0
H86 H 0.54535 0.2341 0.17847 0.0
H87 H 0.48777 0.31095 0.06659 0.0
H88 H 0.48404 0.26996 0.99977 0.0
H89 H 0.48829 0.21639 0.01901 0.0
H90 H 0.49653 0.20378 0.1057 0.0
C91 C 0.52037 0.22343 0.19695 0.0
C92 C 0.50383 0.24498 0.18947 0.0
C93 C 0.49762 0.25119 0.13919 0.0
C94 C 0.49512 0.28199 0.12826 0.0
C95 C 0.49039 0.28837 0.07729 0.0
C96 C 0.48792 0.26481 0.03847 0.0
C97 C 0.4903 0.23464 0.04928 0.0
C98 C 0.49517 0.22781 0.09901 0.0
H99 H 0.55309 0.36704 0.21039 0.0
C100 C 0.54148 0.37259 0.17855 0.0
H101 H 0.50195 0.35235 0.12413 0.0
H102 H 0.50715 0.23549 0.29142 0.0
H103 H 0.50172 0.27092 0.35917 0.0
H104 H 0.49254 0.32134 0.33996 0.0
H105 H 0.48991 0.33733 0.25235 0.0
C106 C 0.5124 0.34554 0.15609 0.0
C107 C 0.49912 0.30641 0.16802 0.0
C108 C 0.49764 0.2955 0.21889 0.0
C109 C 0.5012 0.26534 0.22983 0.0
C110 C 0.50346 0.25745 0.28098 0.0
C111 C 0.50036 0.27758 0.32019 0.0
C112 C 0.49527 0.30603 0.30939 0.0
C113 C 0.49398 0.31506 0.25929 0.0
H114 H 0.31272 0.45585 0.72389 0.0
C115 C 0.31992 0.48019 0.70226 0.0
H116 H 0.30926 0.52075 0.68404 0.0
H117 H 0.15723 0.46273 0.72937 0.0
H118 H 0.15847 0.46694 0.63836 0.0
H119 H 0.20891 0.47583 0.58985 0.0
H120 H 0.25882 0.48139 0.63261 0.0
C121 C 0.30116 0.49615 0.7057 0.0
C122 C 0.26816 0.48123 0.73492 0.0
C123 C 0.23819 0.47582 0.70935 0.0
C124 C 0.20853 0.46925 0.73726 0.0
C125 C 0.18017 0.46676 0.71056 0.0
C126 C 0.1805 0.46919 0.65802 0.0
C127 C 0.20891 0.47428 0.63073 0.0
C128 C 0.23748 0.47762 0.65584 0.0
H129 H 0.21574 0.51076 0.86865 0.0
C130 C 0.18878 0.49309 0.85673 0.0
H131 H 0.15344 0.44971 0.8093 0.0
H132 H 0.32133 0.4919 0.79825 0.0
H133 H 0.3168 0.47881 0.88758 0.0
H134 H 0.26159 0.45656 0.9329 0.0
H135 H 0.21098 0.44904 0.88905 0.0
C136 C 0.18047 0.46725 0.82075 0.0
C137 C 0.20822 0.46641 0.7908 0.0
C138 C 0.23631 0.46688 0.81547 0.0
C139 C 0.2671 0.47638 0.78819 0.0
C140 C 0.29638 0.48192 0.8157 0.0
C141 C 0.29428 0.4749 0.86736 0.0
C142 C 0.26327 0.4626 0.89296 0.0
C143 C 0.23457 0.45869 0.86752 0.0
H144 H 0.63804 0.17185 0.33439 0.0
C145 C 0.64126 0.17031 0.29381 0.0
H146 H 0.6763 0.18847 0.23273 0.0
H147 H 0.76324 0.3461 0.3314 0.0
H148 H 0.73349 0.35577 0.26336 0.0
H149 H 0.6892 0.3038 0.21159 0.0
H150 H 0.67428 0.24191 0.22804 0.0
C151 C 0.67315 0.18948 0.27342 0.0
C152 C 0.70219 0.22037 0.30203 0.0
C153 C 0.71141 0.2566 0.29066 0.0
C154 C 0.73744 0.28659 0.31973 0.0
C155 C 0.74464 0.3223 0.30948 0.0
C156 C 0.7275 0.32829 0.2707 0.0
C157 C 0.70255 0.29905 0.24163 0.0
C158 C 0.69433 0.26359 0.25147 0.0
H159 H 0.81942 0.33163 0.33229 0.0
C160 C 0.81234 0.33694 0.36934 0.0
H161 H 0.77389 0.31664 0.4264 0.0
H162 H 0.69155 0.15451 0.33167 0.0
H163 H 0.72173 0.14468 0.39975 0.0
H164 H 0.76752 0.1969 0.44968 0.0
H165 H 0.78346 0.2593 0.43188 0.0
C166 C 0.78176 0.31183 0.38971 0.0
C167 C 0.75504 0.28035 0.35896 0.0
C168 C 0.74605 0.2442 0.36999 0.0
C169 C 0.71954 0.21409 0.3414 0.0
C170 C 0.71122 0.17825 0.35273 0.0
C171 C 0.72842 0.17228 0.39153 0.0
C172 C 0.75422 0.2017 0.41964 0.0
C173 C 0.76309 0.23733 0.40911 0.0
H174 H 0.48973 0.81899 0.64261 0.0
C175 C 0.50109 0.8283 0.68016 0.0
H176 H 0.53094 0.82466 0.73786 0.0
H177 H 0.43439 0.65361 0.70827 0.0
H178 H 0.41689 0.66378 0.79 0.0
H179 H 0.44308 0.72625 0.82569 0.0
H180 H 0.48638 0.7787 0.77926 0.0
C181 C 0.51944 0.8151 0.70046 0.0
C182 C 0.51117 0.77814 0.68409 0.0
C183 C 0.48766 0.74751 0.71369 0.0
C184 C 0.4738 0.71142 0.69425 0.0
C185 C 0.44752 0.68154 0.72223 0.0
C186 C 0.43679 0.68698 0.76914 0.0
C187 C 0.45142 0.72212 0.78912 0.0
C188 C 0.47634 0.7521 0.76182 0.0
H189 H 0.49148 0.65185 0.68304 0.0
C190 C 0.47465 0.6435 0.64987 0.0
H191 H 0.45403 0.66064 0.59241 0.0
H192 H 0.55788 0.83088 0.62063 0.0
H193 H 0.57733 0.82081 0.53952 0.0
H194 H 0.55526 0.75808 0.50719 0.0
H195 H 0.51348 0.70503 0.55546 0.0
C196 C 0.47039 0.66829 0.62598 0.0
C197 C 0.48537 0.706 0.64682 0.0
C198 C 0.50999 0.73659 0.61833 0.0
C199 C 0.52278 0.77275 0.63692 0.0
C200 C 0.54716 0.80288 0.60775 0.0
C201 C 0.55861 0.79746 0.56137 0.0
C202 C 0.54619 0.76213 0.54317 0.0
C203 C 0.52219 0.73193 0.57118 0.0
H204 H 0.71734 0.55403 0.20422 0.0
C205 C 0.70461 0.52623 0.18908 0.0
H206 H 0.70502 0.47773 0.18137 0.0
H207 H 0.85159 0.51196 0.2179 0.0
H208 H 0.84398 0.49666 0.12863 0.0
H209 H 0.79542 0.49279 0.08069 0.0
H210 H 0.75376 0.50359 0.1223 0.0
C211 C 0.71847 0.50559 0.19656 0.0
C212 C 0.75228 0.5185 0.2229 0.0
C213 C 0.7776 0.5141 0.19764 0.0
C214 C 0.8062 0.51739 0.22502 0.0
C215 C 0.82965 0.5104 0.19922 0.0
C216 C 0.82563 0.50161 0.14775 0.0
C217 C 0.79828 0.49938 0.12077 0.0
C218 C 0.77446 0.50547 0.1452 0.0
H219 H 0.79395 0.48683 0.36098 0.0
C220 C 0.82053 0.49705 0.3491 0.0
H221 H 0.85992 0.52951 0.2972 0.0
H222 H 0.70888 0.52858 0.28569 0.0
H223 H 0.72172 0.55316 0.37096 0.0
H224 H 0.77669 0.56907 0.41303 0.0
H225 H 0.81838 0.55855 0.37017 0.0
C226 C 0.83348 0.51955 0.30925 0.0
C227 C 0.81009 0.52634 0.27743 0.0
C228 C 0.78794 0.53645 0.30047 0.0
C229 C 0.75784 0.53048 0.27437 0.0
C230 C 0.73354 0.53537 0.30158 0.0
C231 C 0.7404 0.54912 0.35107 0.0
C232 C 0.77123 0.55787 0.37488 0.0
C233 C 0.79476 0.55151 0.3501 0.0
H234 H 0.33082 0.74321 0.76726 0.0
C235 C 0.33686 0.77033 0.75647 0.0
H236 H 0.31607 0.80402 0.74617 0.0
H237 H 0.16577 0.65196 0.73151 0.0
H238 H 0.16953 0.67595 0.64734 0.0
H239 H 0.22231 0.7332 0.6204 0.0
H240 H 0.27156 0.76719 0.67794 0.0
C241 C 0.31108 0.77708 0.75534 0.0
C242 C 0.27626 0.74842 0.77435 0.0
C243 C 0.24785 0.72913 0.74064 0.0
C244 C 0.21771 0.69581 0.75601 0.0
C245 C 0.18953 0.6771 0.72155 0.0
C246 C 0.19133 0.69062 0.6732 0.0
C247 C 0.22105 0.72288 0.65803 0.0
C248 C 0.24912 0.74202 0.69122 0.0
H249 H 0.17285 0.65791 0.88477 0.0
C250 C 0.16855 0.63589 0.85913 0.0
H251 H 0.18402 0.62157 0.792 0.0
H252 H 0.32101 0.78549 0.85267 0.0
H253 H 0.31975 0.76128 0.93588 0.0
H254 H 0.27332 0.69844 0.95795 0.0
H255 H 0.22746 0.6605 0.89863 0.0
C256 C 0.18762 0.64371 0.81688 0.0
C257 C 0.21658 0.68147 0.80464 0.0
C258 C 0.24477 0.70186 0.83916 0.0
C259 C 0.27339 0.73651 0.82487 0.0
C260 C 0.29973 0.75805 0.86104 0.0
C261 C 0.29924 0.7446 0.90886 0.0
C262 C 0.27299 0.70935 0.92137 0.0
C263 C 0.24625 0.68801 0.88699 0.0
H264 H 0.47608 0.96073 0.85451 0.0
C265 C 0.46643 0.93322 0.86815 0.0
H266 H 0.45423 0.89933 0.93192 0.0
H267 H 0.55772 0.02394 0.08194 0.0
H268 H 0.58446 0.98797 0.07283 0.0
H269 H 0.5621 0.93733 0.0102 0.0
H270 H 0.51296 0.92242 0.9563 0.0
C271 C 0.46355 0.92673 0.91812 0.0
C272 C 0.47613 0.9567 0.95629 0.0
C273 C 0.50467 0.96468 0.98786 0.0
C274 C 0.51751 0.99375 0.024 0.0
C275 C 0.5466 0.00182 0.05425 0.0
C276 C 0.5623 0.98147 0.04931 0.0
C277 C 0.54972 0.95297 0.01406 0.0
C278 C 0.52137 0.94463 0.98346 0.0
H279 H 0.49428 0.01508 0.12936 0.0
C280 C 0.51046 0.04231 0.1137 0.0
H281 H 0.53147 0.07347 0.04724 0.0
H282 H 0.41793 0.94521 0.90648 0.0
H283 H 0.39118 0.98116 0.91596 0.0
H284 H 0.41483 0.03306 0.9767 0.0
H285 H 0.46519 0.04901 0.02876 0.0
C286 C 0.51633 0.04638 0.06367 0.0
C287 C 0.50162 0.01454 0.02852 0.0
C288 C 0.47272 0.00619 0.99766 0.0
C289 C 0.45961 0.97685 0.96189 0.0
C290 C 0.42973 0.968 0.93307 0.0
C291 C 0.41393 0.98825 0.93841 0.0
C292 C 0.42722 0.01743 0.97266 0.0
C293 C 0.45619 0.02635 1.00218 0.0
H294 H 0.59284 0.51497 0.35715 0.0
C295 C 0.57772 0.51073 0.323 0.0
H296 H 0.52926 0.49841 0.29384 0.0
H297 H 0.45206 0.42814 0.5003 0.0
H298 H 0.43347 0.37331 0.44936 0.0
H299 H 0.45897 0.37731 0.36525 0.0
H300 H 0.50322 0.43609 0.33156 0.0
C301 C 0.54576 0.50528 0.32712 0.0
C302 C 0.53038 0.5032 0.37787 0.0
C303 C 0.50412 0.46868 0.39668 0.0
C304 C 0.48911 0.46638 0.44496 0.0
C305 C 0.46367 0.43147 0.46337 0.0
C306 C 0.45295 0.39979 0.43467 0.0
C307 C 0.46733 0.40203 0.38734 0.0
C308 C 0.49267 0.43597 0.36841 0.0
H309 H 0.4353 0.48228 0.48242 0.0
C310 C 0.44879 0.49043 0.51874 0.0
H311 H 0.49624 0.50823 0.55638 0.0
H312 H 0.57983 0.57364 0.35289 0.0
H313 H 0.59904 0.62826 0.40431 0.0
H314 H 0.57324 0.62435 0.48811 0.0
H315 H 0.52814 0.56589 0.52099 0.0
C316 C 0.48135 0.49734 0.52149 0.0
C317 C 0.49996 0.49867 0.47406 0.0
C318 C 0.52693 0.53309 0.45584 0.0
C319 C 0.542 0.53537 0.4076 0.0
C320 C 0.56797 0.57023 0.38963 0.0
C321 C 0.57912 0.60186 0.41864 0.0
C322 C 0.56457 0.59966 0.4658 0.0
C323 C 0.5387 0.56582 0.48427 0.0
H324 H 0.0117 0.4646 0.96938 0.0
C325 C 0.03658 0.47842 0.98911 0.0
H326 H 0.0625 0.49848 0.0594 0.0
H327 H 0.94617 0.51553 0.16069 0.0
H328 H 0.98328 0.57726 0.12935 0.0
H329 H 0.03135 0.59207 0.07072 0.0
H330 H 0.04235 0.5451 0.04265 0.0
C331 C 0.03766 0.48324 0.03967 0.0
C332 C 0.00615 0.47303 0.06997 0.0
C333 C 0.00035 0.50087 0.08654 0.0
C334 C 0.9731 0.49251 0.12114 0.0
C335 C 0.96721 0.52062 0.13574 0.0
C336 C 0.98815 0.55612 0.11772 0.0
C337 C 0.01518 0.56444 0.08467 0.0
C338 C 0.02129 0.53725 0.06902 0.0
H339 H 0.96411 0.48132 0.23559 0.0
C340 C 0.93654 0.4629 0.22752 0.0
H341 H 0.89899 0.42899 0.17241 0.0
H342 H 0.00883 0.41293 0.0429 0.0
H343 H 0.97076 0.35078 0.07247 0.0
H344 H 0.92377 0.33628 0.13307 0.0
H345 H 0.91455 0.38378 0.16458 0.0
C346 C 0.92632 0.44842 0.18069 0.0
C347 C 0.95223 0.45648 0.14008 0.0
C348 C 0.95678 0.4282 0.12128 0.0
C349 C 0.98386 0.43652 0.08624 0.0
C350 C 0.98853 0.40803 0.06926 0.0
C351 C 0.96689 0.37226 0.08597 0.0
C352 C 0.94043 0.3641 0.12009 0.0
C353 C 0.93539 0.39163 0.13782 0.0
H354 H 0.49483 0.07858 0.4374 0.0
C355 C 0.48961 0.06531 0.40037 0.0
H356 H 0.4676 0.01498 0.36033 0.0
H357 H 0.48875 0.93527 0.54336 0.0
H358 H 0.5314 0.93962 0.48367 0.0
H359 H 0.54316 0.97416 0.40463 0.0
H360 H 0.51244 0.00468 0.38499 0.0
C361 C 0.47189 0.02855 0.39697 0.0
C362 C 0.46274 0.00582 0.44313 0.0
C363 C 0.48039 0.98741 0.45343 0.0
C364 C 0.4733 0.96712 0.49868 0.0
C365 C 0.49237 0.95027 0.50899 0.0
C366 C 0.51715 0.95275 0.47518 0.0
C367 C 0.52379 0.97222 0.43072 0.0
C368 C 0.50585 0.98953 0.41987 0.0
H369 H 0.41332 0.89216 0.54354 0.0
C370 C 0.42332 0.90678 0.57939 0.0
H371 H 0.4505 0.95875 0.61591 0.0
H372 H 0.42212 0.03515 0.4327 0.0
H373 H 0.37942 0.03083 0.4926 0.0
H374 H 0.36777 -0.00364 0.57173 0.0
H375 H 0.39863 0.96581 0.59132 0.0
C376 C 0.44069 0.94357 0.58045 0.0
C377 C 0.44806 0.96469 0.53306 0.0
C378 C 0.43027 0.98289 0.52263 0.0
C379 C 0.43738 0.00323 0.47737 0.0
C380 C 0.41839 0.02013 0.4671 0.0
C381 C 0.39364 0.01767 0.50102 0.0
C382 C 0.38705 -0.00178 0.54555 0.0
C383 C 0.40498 0.98087 0.55637 0.0
H384 H 0.46016 0.54588 0.85155 0.0
C385 C 0.46458 0.53284 0.81936 0.0
H386 H 0.48753 0.50341 0.79489 0.0
H387 H 0.5775 0.58553 0.0048 0.0
H388 H 0.60278 0.64165 0.95661 0.0
H389 H 0.58095 0.64157 0.87107 0.0
H390 H 0.53354 0.58556 0.83336 0.0
C391 C 0.48367 0.51768 0.82597 0.0
C392 C 0.49792 0.51784 0.87696 0.0
C393 C 0.52616 0.55075 0.89801 0.0
C394 C 0.53952 0.55061 0.94672 0.0
C395 C 0.56707 0.58398 0.96739 0.0
C396 C 0.58168 0.61639 0.94026 0.0
C397 C 0.56932 0.61636 0.89215 0.0
C398 C 0.54195 0.58402 0.87105 0.0
H399 H 0.58606 0.52394 0.98223 0.0
C400 C 0.57296 0.51813 0.01859 0.0
H401 H 0.52727 0.50709 0.05604 0.0
H402 H 0.4429 0.45049 0.84859 0.0
H403 H 0.41808 0.39436 0.89648 0.0
H404 H 0.44203 0.39381 0.98004 0.0
H405 H 0.49076 0.44936 0.0164 0.0
C406 C 0.54225 0.51583 0.02128 0.0
C407 C 0.52527 0.51743 0.97378 0.0
C408 C 0.49657 0.48472 0.9532 0.0
C409 C 0.48296 0.48493 0.90473 0.0
C410 C 0.4544 0.45183 0.88505 0.0
C411 C 0.43988 0.41941 0.91215 0.0
C412 C 0.45335 0.41911 0.9592 0.0
C413 C 0.48137 0.45124 0.97964 0.0
H414 H 0.09335 0.50269 0.66443 0.0
C415 C 0.0786 0.50006 0.69835 0.0
H416 H 0.0325 0.49421 0.72752 0.0
H417 H 0.00041 0.55624 0.5346 0.0
H418 H 0.02665 0.61042 0.58909 0.0
H419 H 0.05559 0.61221 0.66911 0.0
H420 H 0.05858 0.55993 0.69506 0.0
C421 C 0.04676 0.49487 0.69399 0.0
C422 C 0.03184 0.49463 0.64378 0.0
C423 C 0.0301 0.52531 0.62942 0.0
C424 C 0.01309 0.52416 0.58363 0.0
C425 C 0.0123 0.55542 0.56966 0.0
C426 C 0.02746 0.58675 0.60039 0.0
C427 C 0.04378 0.58776 0.64542 0.0
C428 C 0.04522 0.55752 0.65994 0.0
H429 H 0.93707 0.48721 0.55936 0.0
C430 C 0.94323 0.48448 0.52035 0.0
H431 H 0.9798 0.48311 0.47205 0.0
H432 H 0.03222 0.43186 0.65885 0.0
H433 H 0.00792 0.37875 0.60278 0.0
H434 H 0.97871 0.37691 0.52306 0.0
H435 H 0.97359 0.42816 0.49895 0.0
C436 C 0.97388 0.48789 0.51019 0.0
C437 C -0.00265 0.4921 0.55272 0.0
C438 C 0.00101 0.46232 0.56545 0.0
C439 C 0.01809 0.46347 0.61126 0.0
C440 C 0.02004 0.43271 0.62415 0.0
C441 C 0.00607 0.40196 0.5924 0.0
C442 C 0.9896 0.40092 0.54753 0.0
C443 C 0.98686 0.43057 0.53414 0.0
loop_
_geom_bond_atom_site_label_1
_geom_bond_atom_site_label_2
_geom_bond_distance
_geom_bond_site_symmetry_2
_ccdc_geom_bond_type
Zn0 O3 2.031 . S
Zn0 O5 2.049 . S
Zn0 O10 2.067 . S
Zn1 O2 1.962 . S
Zn1 O4 1.986 . S
Zn1 O6 1.996 . S
Zn1 O9 1.943 . S
O2 Zn1 1.962 . S
O2 C7 1.254 . S
O3 Zn0 2.031 . S
O3 C7 1.269 . S
O4 Zn1 1.986 . S
O4 C11 1.262 . S
O5 Zn0 2.049 . S
O5 C13 1.260 . S
O6 Zn1 1.996 . S
O6 C13 1.257 . S
C7 O2 1.254 . S
C7 O3 1.269 . S
C8 O9 1.249 . S
C8 O10 1.270 . S
O9 Zn1 1.943 . S
O9 C8 1.249 . S
O10 Zn0 2.067 . S
O10 C8 1.270 . S
C11 O4 1.262 . S
C11 O12 1.232 . S
O12 C11 1.232 . S
C13 O5 1.260 . S
C13 O6 1.257 . S
Zn14 O17 2.031 . S
Zn14 O19 2.049 . S
Zn14 O24 2.067 . S
Zn15 O16 1.962 . S
Zn15 O18 1.986 . S
Zn15 O20 1.996 . S
Zn15 O23 1.943 . S
O16 Zn15 1.962 . S
O16 C21 1.254 . S
O17 Zn14 2.031 . S
O17 C21 1.269 . S
O18 Zn15 1.986 . S
O18 C25 1.262 . S
O19 Zn14 2.049 . S
O19 C27 1.260 . S
O20 Zn15 1.996 . S
O20 C27 1.257 . S
C21 O16 1.254 . S
C21 O17 1.269 . S
C22 O23 1.249 . S
C22 O24 1.270 . S
O23 Zn15 1.943 . S
O23 C22 1.249 . S
O24 Zn14 2.067 . S
O24 C22 1.270 . S
C25 O18 1.262 . S
C25 O26 1.232 . S
O26 C25 1.232 . S
C27 O19 1.260 . S
C27 O20 1.257 . S
Zn28 O31 2.031 . S
Zn28 O33 2.049 . S
Zn28 O38 2.067 . S
Zn29 O30 1.962 . S
Zn29 O32 1.986 . S
Zn29 O34 1.996 . S
Zn29 O37 1.943 . S
O30 Zn29 1.962 . S
O30 C35 1.254 . S
O31 Zn28 2.031 . S
O31 C35 1.269 . S
O32 Zn29 1.986 . S
O32 C39 1.262 . S
O33 Zn28 2.049 . S
O33 C41 1.260 . S
O34 Zn29 1.996 . S
O34 C41 1.257 . S
C35 O30 1.254 . S
C35 O31 1.269 . S
C36 O37 1.249 . S
C36 O38 1.270 . S
O37 Zn29 1.943 . S
O37 C36 1.249 . S
O38 Zn28 2.067 . S
O38 C36 1.270 . S
C39 O32 1.262 . S
C39 O40 1.232 . S
O40 C39 1.232 . S
C41 O33 1.260 . S
C41 O34 1.257 . S
Zn42 O45 2.031 . S
Zn42 O47 2.049 . S
Zn42 O52 2.067 . S
Zn43 O44 1.962 . S
Zn43 O46 1.986 . S
Zn43 O48 1.996 . S
Zn43 O51 1.943 . S
O44 Zn43 1.962 . S
O44 C49 1.254 . S
O45 Zn42 2.031 . S
O45 C49 1.269 . S
O46 Zn43 1.986 . S
O46 C53 1.262 . S
O47 Zn42 2.049 . S
O47 C55 1.260 . S
O48 Zn43 1.996 . S
O48 C55 1.257 . S
C49 O44 1.254 . S
C49 O45 1.269 . S
C50 O51 1.249 . S
C50 O52 1.270 . S
O51 Zn43 1.943 . S
O51 C50 1.249 . S
O52 Zn42 2.067 . S
O52 C50 1.270 . S
C53 O46 1.262 . S
C53 O54 1.232 . S
O54 C53 1.232 . S
C55 O47 1.260 . S
C55 O48 1.257 . S
Zn56 O59 2.031 . S
Zn56 O61 2.049 . S
Zn56 O66 2.067 . S
Zn57 O58 1.962 . S
Zn57 O60 1.986 . S
Zn57 O62 1.996 . S
Zn57 O65 1.943 . S
O58 Zn57 1.962 . S
O58 C63 1.254 . S
O59 Zn56 2.031 . S
O59 C63 1.269 . S
O60 Zn57 1.986 . S
O60 C67 1.262 . S
O61 Zn56 2.049 . S
O61 C69 1.260 . S
O62 Zn57 1.996 . S
O62 C69 1.257 . S
C63 O58 1.254 . S
C63 O59 1.269 . S
C64 O65 1.249 . S
C64 O66 1.270 . S
O65 Zn57 1.943 . S
O65 C64 1.249 . S
O66 Zn56 2.067 . S
O66 C64 1.270 . S
C67 O60 1.262 . S
C67 O68 1.232 . S
O68 C67 1.232 . S
C69 O61 1.260 . S
C69 O62 1.257 . S
Zn70 O73 2.031 . S
Zn70 O75 2.049 . S
Zn70 O80 2.067 . S
Zn71 O72 1.962 . S
Zn71 O74 1.986 . S
Zn71 O76 1.996 . S
Zn71 O79 1.943 . S
O72 Zn71 1.962 . S
O72 C77 1.254 . S
O73 Zn70 2.031 . S
O73 C77 1.269 . S
O74 Zn71 1.986 . S
O74 C81 1.262 . S
O75 Zn70 2.049 . S
O75 C83 1.260 . S
O76 Zn71 1.996 . S
O76 C83 1.257 . S
C77 O72 1.254 . S
C77 O73 1.269 . S
C78 O79 1.249 . S
C78 O80 1.270 . S
O79 Zn71 1.943 . S
O79 C78 1.249 . S
O80 Zn70 2.067 . S
O80 C78 1.270 . S
C81 O74 1.262 . S
C81 O82 1.232 . S
O82 C81 1.232 . S
C83 O75 1.260 . S
C83 O76 1.257 . S
H84 C85 0.951 . S
C85 H84 0.951 . S
C85 C91 1.265 . S
H86 C91 0.950 . S
H87 C95 0.949 . S
H88 C96 0.950 . S
H89 C97 0.951 . S
H90 C98 0.951 . S
C91 C85 1.265 . S
C91 H86 0.950 . S
C91 C92 1.478 . S
C92 C91 1.478 . S
C92 C93 1.397 . S
C92 C109 1.394 . S
C93 C92 1.397 . S
C93 C94 1.438 . S
C93 C98 1.429 . S
C94 C93 1.438 . S
C94 C95 1.428 . S
C94 C107 1.394 . S
C95 H87 0.949 . S
C95 C94 1.428 . S
C95 C96 1.345 . S
C96 H88 0.950 . S
C96 C95 1.345 . S
C96 C97 1.424 . S
C97 H89 0.951 . S
C97 C96 1.424 . S
C97 C98 1.347 . S
C98 H90 0.951 . S
C98 C93 1.429 . S
C98 C97 1.347 . S
H99 C100 0.951 . S
C100 H99 0.951 . S
C100 C106 1.265 . S
H101 C106 0.950 . S
H102 C110 0.949 . S
H103 C111 0.950 . S
H104 C112 0.951 . S
H105 C113 0.951 . S
C106 C100 1.265 . S
C106 H101 0.950 . S
C106 C107 1.478 . S
C107 C94 1.394 . S
C107 C106 1.478 . S
C107 C108 1.397 . S
C108 C107 1.397 . S
C108 C109 1.438 . S
C108 C113 1.429 . S
C109 C92 1.394 . S
C109 C108 1.438 . S
C109 C110 1.428 . S
C110 H102 0.949 . S
C110 C109 1.428 . S
C110 C111 1.345 . S
C111 H103 0.950 . S
C111 C110 1.345 . S
C111 C112 1.424 . S
C112 H104 0.951 . S
C112 C111 1.424 . S
C112 C113 1.347 . S
C113 H105 0.951 . S
C113 C108 1.429 . S
C113 C112 1.347 . S
H114 C115 0.951 . S
C115 H114 0.951 . S
C115 C121 1.265 . S
H116 C121 0.950 . S
H117 C125 0.949 . S
H118 C126 0.950 . S
H119 C127 0.951 . S
H120 C128 0.951 . S
C121 C115 1.265 . S
C121 H116 0.950 . S
C121 C122 1.478 . S
C122 C121 1.478 . S
C122 C123 1.397 . S
C122 C139 1.394 . S
C123 C122 1.397 . S
C123 C124 1.438 . S
C123 C128 1.429 . S
C124 C123 1.438 . S
C124 C125 1.428 . S
C124 C137 1.394 . S
C125 H117 0.949 . S
C125 C124 1.428 . S
C125 C126 1.345 . S
C126 H118 0.950 . S
C126 C125 1.345 . S
C126 C127 1.424 . S
C127 H119 0.951 . S
C127 C126 1.424 . S
C127 C128 1.347 . S
C128 H120 0.951 . S
C128 C123 1.429 . S
C128 C127 1.347 . S
H129 C130 0.951 . S
C130 H129 0.951 . S
C130 C136 1.265 . S
H131 C136 0.950 . S
H132 C140 0.949 . S
H133 C141 0.950 . S
H134 C142 0.951 . S
H135 C143 0.951 . S
C136 C130 1.265 . S
C136 H131 0.950 . S
C136 C137 1.478 . S
C137 C124 1.394 . S
C137 C136 1.478 . S
C137 C138 1.397 . S
C138 C137 1.397 . S
C138 C139 1.438 . S
C138 C143 1.429 . S
C139 C122 1.394 . S
C139 C138 1.438 . S
C139 C140 1.428 . S
C140 H132 0.949 . S
C140 C139 1.428 . S
C140 C141 1.345 . S
C141 H133 0.950 . S
C141 C140 1.345 . S
C141 C142 1.424 . S
C142 H134 0.951 . S
C142 C141 1.424 . S
C142 C143 1.347 . S
C143 H135 0.951 . S
C143 C138 1.429 . S
C143 C142 1.347 . S
H144 C145 0.951 . S
C145 H144 0.951 . S
C145 C151 1.265 . S
H146 C151 0.950 . S
H147 C155 0.949 . S
H148 C156 0.950 . S
H149 C157 0.951 . S
H150 C158 0.951 . S
C151 C145 1.265 . S
C151 H146 0.950 . S
C151 C152 1.478 . S
C152 C151 1.478 . S
C152 C153 1.397 . S
C152 C169 1.394 . S
C153 C152 1.397 . S
C153 C154 1.438 . S
C153 C158 1.429 . S
C154 C153 1.438 . S
C154 C155 1.428 . S
C154 C167 1.394 . S
C155 H147 0.949 . S
C155 C154 1.428 . S
C155 C156 1.345 . S
C156 H148 0.950 . S
C156 C155 1.345 . S
C156 C157 1.424 . S
C157 H149 0.951 . S
C157 C156 1.424 . S
C157 C158 1.347 . S
C158 H150 0.951 . S
C158 C153 1.429 . S
C158 C157 1.347 . S
H159 C160 0.951 . S
C160 H159 0.951 . S
C160 C166 1.265 . S
H161 C166 0.950 . S
H162 C170 0.949 . S
H163 C171 0.950 . S
H164 C172 0.951 . S
H165 C173 0.951 . S
C166 C160 1.265 . S
C166 H161 0.950 . S
C166 C167 1.478 . S
C167 C154 1.394 . S
C167 C166 1.478 . S
C167 C168 1.397 . S
C168 C167 1.397 . S
C168 C169 1.438 . S
C168 C173 1.429 . S
C169 C152 1.394 . S
C169 C168 1.438 . S
C169 C170 1.428 . S
C170 H162 0.949 . S
C170 C169 1.428 . S
C170 C171 1.345 . S
C171 H163 0.950 . S
C171 C170 1.345 . S
C171 C172 1.424 . S
C172 H164 0.951 . S
C172 C171 1.424 . S
C172 C173 1.347 . S
C173 H165 0.951 . S
C173 C168 1.429 . S
C173 C172 1.347 . S
H174 C175 0.951 . S
C175 H174 0.951 . S
C175 C181 1.265 . S
H176 C181 0.950 . S
H177 C185 0.949 . S
H178 C186 0.950 . S
H179 C187 0.951 . S
H180 C188 0.951 . S
C181 C175 1.265 . S
C181 H176 0.950 . S
C181 C182 1.478 . S
C182 C181 1.478 . S
C182 C183 1.397 . S
C182 C199 1.394 . S
C183 C182 1.397 . S
C183 C184 1.438 . S
C183 C188 1.429 . S
C184 C183 1.438 . S
C184 C185 1.428 . S
C184 C197 1.394 . S
C185 H177 0.949 . S
C185 C184 1.428 . S
C185 C186 1.345 . S
C186 H178 0.950 . S
C186 C185 1.345 . S
C186 C187 1.424 . S
C187 H179 0.951 . S
C187 C186 1.424 . S
C187 C188 1.347 . S
C188 H180 0.951 . S
C188 C183 1.429 . S
C188 C187 1.347 . S
H189 C190 0.951 . S
C190 H189 0.951 . S
C190 C196 1.265 . S
H191 C196 0.950 . S
H192 C200 0.949 . S
H193 C201 0.950 . S
H194 C202 0.951 . S
H195 C203 0.951 . S
C196 C190 1.265 . S
C196 H191 0.950 . S
C196 C197 1.478 . S
C197 C184 1.394 . S
C197 C196 1.478 . S
C197 C198 1.397 . S
C198 C197 1.397 . S
C198 C199 1.438 . S
C198 C203 1.429 . S
C199 C182 1.394 . S
C199 C198 1.438 . S
C199 C200 1.428 . S
C200 H192 0.949 . S
C200 C199 1.428 . S
C200 C201 1.345 . S
C201 H193 0.950 . S
C201 C200 1.345 . S
C201 C202 1.424 . S
C202 H194 0.951 . S
C202 C201 1.424 . S
C202 C203 1.347 . S
C203 H195 0.951 . S
C203 C198 1.429 . S
C203 C202 1.347 . S
H204 C205 0.951 . S
C205 H204 0.951 . S
C205 C211 1.265 . S
H206 C211 0.950 . S
H207 C215 0.949 . S
H208 C216 0.950 . S
H209 C217 0.951 . S
H210 C218 0.951 . S
C211 C205 1.265 . S
C211 H206 0.950 . S
C211 C212 1.478 . S
C212 C211 1.478 . S
C212 C213 1.397 . S
C212 C229 1.394 . S
C213 C212 1.397 . S
C213 C214 1.438 . S
C213 C218 1.429 . S
C214 C213 1.438 . S
C214 C215 1.428 . S
C214 C227 1.394 . S
C215 H207 0.949 . S
C215 C214 1.428 . S
C215 C216 1.345 . S
C216 H208 0.950 . S
C216 C215 1.345 . S
C216 C217 1.424 . S
C217 H209 0.951 . S
C217 C216 1.424 . S
C217 C218 1.347 . S
C218 H210 0.951 . S
C218 C213 1.429 . S
C218 C217 1.347 . S
H219 C220 0.951 . S
C220 H219 0.951 . S
C220 C226 1.265 . S
H221 C226 0.950 . S
H222 C230 0.949 . S
H223 C231 0.950 . S
H224 C232 0.951 . S
H225 C233 0.951 . S
C226 C220 1.265 . S
C226 H221 0.950 . S
C226 C227 1.478 . S
C227 C214 1.394 . S
C227 C226 1.478 . S
C227 C228 1.397 . S
C228 C227 1.397 . S
C228 C229 1.438 . S
C228 C233 1.429 . S
C229 C212 1.394 . S
C229 C228 1.438 . S
C229 C230 1.428 . S
C230 H222 0.949 . S
C230 C229 1.428 . S
C230 C231 1.345 . S
C231 H223 0.950 . S
C231 C230 1.345 . S
C231 C232 1.424 . S
C232 H224 0.951 . S
C232 C231 1.424 . S
C232 C233 1.347 . S
C233 H225 0.951 . S
C233 C228 1.429 . S
C233 C232 1.347 . S
H234 C235 0.951 . S
C235 H234 0.951 . S
C235 C241 1.265 . S
H236 C241 0.950 . S
H237 C245 0.949 . S
H238 C246 0.950 . S
H239 C247 0.951 . S
H240 C248 0.951 . S
C241 C235 1.265 . S
C241 H236 0.950 . S
C241 C242 1.478 . S
C242 C241 1.478 . S
C242 C243 1.397 . S
C242 C259 1.394 . S
C243 C242 1.397 . S
C243 C244 1.438 . S
C243 C248 1.429 . S
C244 C243 1.438 . S
C244 C245 1.428 . S
C244 C257 1.394 . S
C245 H237 0.949 . S
C245 C244 1.428 . S
C245 C246 1.345 . S
C246 H238 0.950 . S
C246 C245 1.345 . S
C246 C247 1.424 . S
C247 H239 0.951 . S
C247 C246 1.424 . S
C247 C248 1.347 . S
C248 H240 0.951 . S
C248 C243 1.429 . S
C248 C247 1.347 . S
H249 C250 0.951 . S
C250 H249 0.951 . S
C250 C256 1.265 . S
H251 C256 0.950 . S
H252 C260 0.949 . S
H253 C261 0.950 . S
H254 C262 0.951 . S
H255 C263 0.951 . S
C256 C250 1.265 . S
C256 H251 0.950 . S
C256 C257 1.478 . S
C257 C244 1.394 . S
C257 C256 1.478 . S
C257 C258 1.397 . S
C258 C257 1.397 . S
C258 C259 1.438 . S
C258 C263 1.429 . S
C259 C242 1.394 . S
C259 C258 1.438 . S
C259 C260 1.428 . S
C260 H252 0.949 . S
C260 C259 1.428 . S
C260 C261 1.345 . S
C261 H253 0.950 . S
C261 C260 1.345 . S
C261 C262 1.424 . S
C262 H254 0.951 . S
C262 C261 1.424 . S
C262 C263 1.347 . S
C263 H255 0.951 . S
C263 C258 1.429 . S
C263 C262 1.347 . S
H264 C265 0.951 . S
C265 H264 0.951 . S
C265 C271 1.265 . S
H266 C271 0.950 . S
H267 C275 0.949 . S
H268 C276 0.950 . S
H269 C277 0.951 1_556 S
H270 C278 0.951 . S
C271 C265 1.265 . S
C271 H266 0.950 . S
C271 C272 1.478 . S
C272 C271 1.478 . S
C272 C273 1.397 . S
C272 C289 1.394 . S
C273 C272 1.397 . S
C273 C274 1.438 1_566 S
C273 C278 1.429 . S
C274 C273 1.438 1_544 S
C274 C275 1.428 . S
C274 C287 1.394 . S
C275 H267 0.949 . S
C275 C274 1.428 . S
C275 C276 1.345 . S
C276 H268 0.950 . S
C276 C275 1.345 . S
C276 C277 1.424 1_545 S
C277 H269 0.951 1_554 S
C277 C276 1.424 1_565 S
C277 C278 1.347 1_554 S
C278 H270 0.951 . S
C278 C273 1.429 . S
C278 C277 1.347 1_556 S
H279 C280 0.951 . S
C280 H279 0.951 . S
C280 C286 1.265 . S
H281 C286 0.950 . S
H282 C290 0.949 . S
H283 C291 0.950 . S
H284 C292 0.951 1_554 S
H285 C293 0.951 . S
C286 C280 1.265 . S
C286 H281 0.950 . S
C286 C287 1.478 . S
C287 C274 1.394 . S
C287 C286 1.478 . S
C287 C288 1.397 . S
C288 C287 1.397 . S
C288 C289 1.438 1_544 S
C288 C293 1.429 . S
C289 C272 1.394 . S
C289 C288 1.438 1_566 S
C289 C290 1.428 . S
C290 H282 0.949 . S
C290 C289 1.428 . S
C290 C291 1.345 . S
C291 H283 0.950 . S
C291 C290 1.345 . S
C291 C292 1.424 1_565 S
C292 H284 0.951 1_556 S
C292 C291 1.424 1_545 S
C292 C293 1.347 1_556 S
C293 H285 0.951 . S
C293 C288 1.429 . S
C293 C292 1.347 1_554 S
H294 C295 0.951 . S
C295 H294 0.951 . S
C295 C301 1.265 . S
H296 C301 0.950 . S
H297 C305 0.949 . S
H298 C306 0.950 . S
H299 C307 0.951 . S
H300 C308 0.951 . S
C301 C295 1.265 . S
C301 H296 0.950 . S
C301 C302 1.478 . S
C302 C301 1.478 . S
C302 C303 1.397 . S
C302 C319 1.394 . S
C303 C302 1.397 . S
C303 C304 1.438 . S
C303 C308 1.429 . S
C304 C303 1.438 . S
C304 C305 1.428 . S
C304 C317 1.394 . S
C305 H297 0.949 . S
C305 C304 1.428 . S
C305 C306 1.345 . S
C306 H298 0.950 . S
C306 C305 1.345 . S
C306 C307 1.424 . S
C307 H299 0.951 . S
C307 C306 1.424 . S
C307 C308 1.347 . S
C308 H300 0.951 . S
C308 C303 1.429 . S
C308 C307 1.347 . S
H309 C310 0.951 . S
C310 H309 0.951 . S
C310 C316 1.265 . S
H311 C316 0.950 . S
H312 C320 0.949 . S
H313 C321 0.950 . S
H314 C322 0.951 . S
H315 C323 0.951 . S
C316 C310 1.265 . S
C316 H311 0.950 . S
C316 C317 1.478 . S
C317 C304 1.394 . S
C317 C316 1.478 . S
C317 C318 1.397 . S
C318 C317 1.397 . S
C318 C319 1.438 . S
C318 C323 1.429 . S
C319 C302 1.394 . S
C319 C318 1.438 . S
C319 C320 1.428 . S
C320 H312 0.949 . S
C320 C319 1.428 . S
C320 C321 1.345 . S
C321 H313 0.950 . S
C321 C320 1.345 . S
C321 C322 1.424 . S
C322 H314 0.951 . S
C322 C321 1.424 . S
C322 C323 1.347 . S
C323 H315 0.951 . S
C323 C318 1.429 . S
C323 C322 1.347 . S
H324 C325 0.951 . S
C325 H324 0.951 . S
C325 C331 1.265 . S
H326 C331 0.950 . S
H327 C335 0.949 1_655 S
H328 C336 0.950 . S
H329 C337 0.951 . S
H330 C338 0.951 . S
C331 C325 1.265 . S
C331 H326 0.950 . S
C331 C332 1.478 . S
C332 C331 1.478 . S
C332 C333 1.397 . S
C332 C349 1.394 1_455 S
C333 C332 1.397 . S
C333 C334 1.438 1_556 S
C333 C338 1.429 . S
C334 C333 1.438 1_554 S
C334 C335 1.428 . S
C334 C347 1.394 1_455 S
C335 H327 0.949 1_455 S
C335 C334 1.428 . S
C335 C336 1.345 . S
C336 H328 0.950 . S
C336 C335 1.345 . S
C336 C337 1.424 . S
C337 H329 0.951 . S
C337 C336 1.424 . S
C337 C338 1.347 1_554 S
C338 H330 0.951 . S
C338 C333 1.429 . S
C338 C337 1.347 1_556 S
H339 C340 0.951 . S
C340 H339 0.951 . S
C340 C346 1.265 . S
H341 C346 0.950 . S
H342 C350 0.949 1_455 S
H343 C351 0.950 . S
H344 C352 0.951 . S
H345 C353 0.951 1_554 S
C346 C340 1.265 . S
C346 H341 0.950 . S
C346 C347 1.478 . S
C347 C334 1.394 1_655 S
C347 C346 1.478 . S
C347 C348 1.397 1_554 S
C348 C347 1.397 1_556 S
C348 C349 1.438 . S
C348 C353 1.429 . S
C349 C332 1.394 1_655 S
C349 C348 1.438 . S
C349 C350 1.428 . S
C350 H342 0.949 1_655 S
C350 C349 1.428 . S
C350 C351 1.345 . S
C351 H343 0.950 . S
C351 C350 1.345 . S
C351 C352 1.424 . S
C352 H344 0.951 . S
C352 C351 1.424 . S
C352 C353 1.347 . S
C353 H345 0.951 1_556 S
C353 C348 1.429 . S
C353 C352 1.347 . S
H354 C355 0.951 . S
C355 H354 0.951 . S
C355 C361 1.265 . S
H356 C361 0.950 . S
H357 C365 0.949 . S
H358 C366 0.950 . S
H359 C367 0.951 . S
H360 C368 0.942 1_545 S
C361 C355 1.265 . S
C361 H356 0.950 . S
C361 C362 1.478 . S
C362 C361 1.478 . S
C362 C363 1.397 1_545 S
C362 C379 1.394 . S
C363 C362 1.397 1_565 S
C363 C364 1.438 . S
C363 C368 1.429 . S
C364 C363 1.438 . S
C364 C365 1.428 . S
C364 C377 1.394 . S
C365 H357 0.949 . S
C365 C364 1.428 . S
C365 C366 1.345 . S
C366 H358 0.950 . S
C366 C365 1.345 . S
C366 C367 1.424 . S
C367 H359 0.951 . S
C367 C366 1.424 . S
C367 C368 1.347 . S
C368 H360 0.942 1_565 S
C368 C363 1.429 . S
C368 C367 1.347 . S
H369 C370 0.951 . S
C370 H369 0.951 . S
C370 C376 1.265 . S
H371 C376 0.950 . S
H372 C380 0.949 . S
H373 C381 0.950 . S
H374 C382 0.951 . S
H375 C383 0.942 1_565 S
C376 C370 1.265 . S
C376 H371 0.950 . S
C376 C377 1.478 . S
C377 C364 1.394 . S
C377 C376 1.478 . S
C377 C378 1.397 1_565 S
C378 C377 1.397 1_545 S
C378 C379 1.438 . S
C378 C383 1.429 . S
C379 C362 1.394 . S
C379 C378 1.438 . S
C379 C380 1.428 . S
C380 H372 0.949 . S
C380 C379 1.428 . S
C380 C381 1.345 . S
C381 H373 0.950 . S
C381 C380 1.345 . S
C381 C382 1.424 . S
C382 H374 0.951 . S
C382 C381 1.424 . S
C382 C383 1.347 . S
C383 H375 0.942 1_545 S
C383 C378 1.429 . S
C383 C382 1.347 . S
H384 C385 0.951 . S
C385 H384 0.951 . S
C385 C391 1.265 . S
H386 C391 0.950 . S
H387 C395 0.949 . S
H388 C396 0.950 . S
H389 C397 0.951 . S
H390 C398 0.951 . S
C391 C385 1.265 . S
C391 H386 0.950 . S
C391 C392 1.478 . S
C392 C391 1.478 . S
C392 C393 1.405 . S
C392 C409 1.394 . S
C393 C392 1.405 . S
C393 C394 1.426 1_556 S
C393 C398 1.432 . S
C394 C393 1.426 1_554 S
C394 C395 1.428 . S
C394 C407 1.394 . S
C395 H387 0.949 . S
C395 C394 1.428 . S
C395 C396 1.345 . S
C396 H388 0.950 . S
C396 C395 1.345 . S
C396 C397 1.424 . S
C397 H389 0.951 . S
C397 C396 1.424 . S
C397 C398 1.347 1_554 S
C398 H390 0.951 . S
C398 C393 1.432 . S
C398 C397 1.347 1_556 S
H399 C400 0.951 . S
C400 H399 0.951 . S
C400 C406 1.265 . S
H401 C406 0.950 . S
H402 C410 0.949 . S
H403 C411 0.950 . S
H404 C412 0.951 . S
H405 C413 0.951 . S
C406 C400 1.265 . S
C406 H401 0.950 . S
C406 C407 1.478 . S
C407 C394 1.394 . S
C407 C406 1.478 . S
C407 C408 1.397 . S
C408 C407 1.397 . S
C408 C409 1.438 1_554 S
C408 C413 1.429 . S
C409 C392 1.394 . S
C409 C408 1.438 1_556 S
C409 C410 1.428 . S
C410 H402 0.949 . S
C410 C409 1.428 . S
C410 C411 1.345 . S
C411 H403 0.950 . S
C411 C410 1.345 . S
C411 C412 1.424 1_556 S
C412 H404 0.951 . S
C412 C411 1.424 1_554 S
C412 C413 1.347 . S
C413 H405 0.951 . S
C413 C408 1.429 . S
C413 C412 1.347 . S
H414 C415 0.951 . S
C415 H414 0.951 . S
C415 C421 1.265 . S
H416 C421 0.950 . S
H417 C425 0.949 . S
H418 C426 0.950 . S
H419 C427 0.951 . S
H420 C428 0.951 . S
C421 C415 1.265 . S
C421 H416 0.950 . S
C421 C422 1.478 . S
C422 C421 1.478 . S
C422 C423 1.397 . S
C422 C439 1.394 1_455 S
C423 C422 1.397 . S
C423 C424 1.438 1_455 S
C423 C428 1.429 . S
C424 C423 1.438 1_655 S
C424 C425 1.428 . S
C424 C437 1.394 . S
C425 H417 0.949 . S
C425 C424 1.428 . S
C425 C426 1.345 . S
C426 H418 0.950 . S
C426 C425 1.345 . S
C426 C427 1.424 1_655 S
C427 H419 0.951 . S
C427 C426 1.424 1_455 S
C427 C428 1.347 . S
C428 H420 0.951 . S
C428 C423 1.429 . S
C428 C427 1.347 . S
H429 C430 0.951 . S
C430 H429 0.951 . S
C430 C436 1.265 . S
H431 C436 0.950 . S
H432 C440 0.952 . S
H433 C441 0.950 . S
H434 C442 0.951 . S
H435 C443 0.951 . S
C436 C430 1.265 . S
C436 H431 0.950 . S
C436 C437 1.478 . S
C437 C424 1.394 . S
C437 C436 1.478 . S
C437 C438 1.397 . S
C438 C437 1.397 . S
C438 C439 1.438 . S
C438 C443 1.429 . S
C439 C422 1.394 1_655 S
C439 C438 1.438 . S
C439 C440 1.422 1_655 S
C440 H432 0.952 . S
C440 C439 1.422 1_455 S
C440 C441 1.347 1_455 S
C441 H433 0.950 . S
C441 C440 1.347 1_655 S
C441 C442 1.424 . S
C442 H434 0.951 . S
C442 C441 1.424 . S
C442 C443 1.347 . S
C443 H435 0.951 . S
C443 C438 1.429 . S
C443 C442 1.347 . S
C85 C7 1.047 . S
C100 C64 0.961 . S
C115 C21 1.023 . S
C130 C77 0.913 . S
C145 C8 0.968 . S
C160 C36 1.030 . S
C175 C50 0.971 . S
C190 C22 1.032 . S
C205 C63 1.046 . S
C220 C35 0.965 . S
C235 C49 0.935 . S
C250 C78 1.039 . S
C265 C55 1.334 . S
C280 C13 1.341 . S
C295 C67 1.367 . S
C310 C27 1.214 . S
C325 C83 1.348 . S
C340 C39 1.390 . S
C355 C11 1.348 . S
C370 C53 1.350 . S
C385 C25 1.355 . S
C400 C69 1.221 . S
C415 C81 1.367 . S
C430 C41 1.213 . S
