# Generated by pormake.
# Topology vbm, (6)-cn, num edge types: 1
# Building blocks:
#     Node 0, Type 0, BuildingBlock: JUFBIX_clean_sbu_0, # of connection points: 6
#     Node 1, Type 0, BuildingBlock: JUFBIX_clean_sbu_0, # of connection points: 6
#     Node 2, Type 0, BuildingBlock: JUFBIX_clean_sbu_0, # of connection points: 6
#     Node 3, Type 0, BuildingBlock: JUFBIX_clean_sbu_0, # of connection points: 6
#     Node 4, Type 0, BuildingBlock: JUFBIX_clean_sbu_0, # of connection points: 6
#     Node 5, Type 0, BuildingBlock: JUFBIX_clean_sbu_0, # of connection points: 6
#     Node 6, Type 0, BuildingBlock: JUFBIX_clean_sbu_0, # of connection points: 6
#     Node 7, Type 0, BuildingBlock: JUFBIX_clean_sbu_0, # of connection points: 6
#     Node 8, Type 0, BuildingBlock: JUFBIX_clean_sbu_0, # of connection points: 6
#     Node 9, Type 0, BuildingBlock: JUFBIX_clean_sbu_0, # of connection points: 6
#     Node 10, Type 0, BuildingBlock: JUFBIX_clean_sbu_0, # of connection points: 6
#     Node 11, Type 0, BuildingBlock: JUFBIX_clean_sbu_0, # of connection points: 6
#     Node 12, Type 0, BuildingBlock: JUFBIX_clean_sbu_0, # of connection points: 6
#     Node 13, Type 0, BuildingBlock: JUFBIX_clean_sbu_0, # of connection points: 6
#     Node 14, Type 0, BuildingBlock: JUFBIX_clean_sbu_0, # of connection points: 6
#     Node 15, Type 0, BuildingBlock: JUFBIX_clean_sbu_0, # of connection points: 6
#     Edge 16, Type (0, 0), BuildingBlock: XIVTED_clean_linker_0, # of connection points: 2
#     Edge 17, Type (0, 0), BuildingBlock: XIVTED_clean_linker_0, # of connection points: 2
#     Edge 18, Type (0, 0), BuildingBlock: XIVTED_clean_linker_0, # of connection points: 2
#     Edge 19, Type (0, 0), BuildingBlock: XIVTED_clean_linker_0, # of connection points: 2
#     Edge 20, Type (0, 0), BuildingBlock: XIVTED_clean_linker_0, # of connection points: 2
#     Edge 21, Type (0, 0), BuildingBlock: XIVTED_clean_linker_0, # of connection points: 2
#     Edge 22, Type (0, 0), BuildingBlock: XIVTED_clean_linker_0, # of connection points: 2
#     Edge 23, Type (0, 0), BuildingBlock: XIVTED_clean_linker_0, # of connection points: 2
#     Edge 24, Type (0, 0), BuildingBlock: XIVTED_clean_linker_0, # of connection points: 2
#     Edge 25, Type (0, 0), BuildingBlock: XIVTED_clean_linker_0, # of connection points: 2
#     Edge 26, Type (0, 0), BuildingBlock: XIVTED_clean_linker_0, # of connection points: 2
#     Edge 27, Type (0, 0), BuildingBlock: XIVTED_clean_linker_0, # of connection points: 2
#     Edge 28, Type (0, 0), BuildingBlock: XIVTED_clean_linker_0, # of connection points: 2
#     Edge 29, Type (0, 0), BuildingBlock: XIVTED_clean_linker_0, # of connection points: 2
#     Edge 30, Type (0, 0), BuildingBlock: XIVTED_clean_linker_0, # of connection points: 2
#     Edge 31, Type (0, 0), BuildingBlock: XIVTED_clean_linker_0, # of connection points: 2
#     Edge 32, Type (0, 0), BuildingBlock: XIVTED_clean_linker_0, # of connection points: 2
#     Edge 33, Type (0, 0), BuildingBlock: XIVTED_clean_linker_0, # of connection points: 2
#     Edge 34, Type (0, 0), BuildingBlock: XIVTED_clean_linker_0, # of connection points: 2
#     Edge 35, Type (0, 0), BuildingBlock: XIVTED_clean_linker_0, # of connection points: 2
#     Edge 36, Type (0, 0), BuildingBlock: XIVTED_clean_linker_0, # of connection points: 2
#     Edge 37, Type (0, 0), BuildingBlock: XIVTED_clean_linker_0, # of connection points: 2
#     Edge 38, Type (0, 0), BuildingBlock: XIVTED_clean_linker_0, # of connection points: 2
#     Edge 39, Type (0, 0), BuildingBlock: XIVTED_clean_linker_0, # of connection points: 2
#     Edge 40, Type (0, 0), BuildingBlock: XIVTED_clean_linker_0, # of connection points: 2
#     Edge 41, Type (0, 0), BuildingBlock: XIVTED_clean_linker_0, # of connection points: 2
#     Edge 42, Type (0, 0), BuildingBlock: XIVTED_clean_linker_0, # of connection points: 2
#     Edge 43, Type (0, 0), BuildingBlock: XIVTED_clean_linker_0, # of connection points: 2
#     Edge 44, Type (0, 0), BuildingBlock: XIVTED_clean_linker_0, # of connection points: 2
#     Edge 45, Type (0, 0), BuildingBlock: XIVTED_clean_linker_0, # of connection points: 2
#     Edge 46, Type (0, 0), BuildingBlock: XIVTED_clean_linker_0, # of connection points: 2
#     Edge 47, Type (0, 0), BuildingBlock: XIVTED_clean_linker_0, # of connection points: 2
#     Edge 48, Type (0, 0), BuildingBlock: XIVTED_clean_linker_0, # of connection points: 2
#     Edge 49, Type (0, 0), BuildingBlock: XIVTED_clean_linker_0, # of connection points: 2
#     Edge 50, Type (0, 0), BuildingBlock: XIVTED_clean_linker_0, # of connection points: 2
#     Edge 51, Type (0, 0), BuildingBlock: XIVTED_clean_linker_0, # of connection points: 2
#     Edge 52, Type (0, 0), BuildingBlock: XIVTED_clean_linker_0, # of connection points: 2
#     Edge 53, Type (0, 0), BuildingBlock: XIVTED_clean_linker_0, # of connection points: 2
#     Edge 54, Type (0, 0), BuildingBlock: XIVTED_clean_linker_0, # of connection points: 2
#     Edge 55, Type (0, 0), BuildingBlock: XIVTED_clean_linker_0, # of connection points: 2
#     Edge 56, Type (0, 0), BuildingBlock: XIVTED_clean_linker_0, # of connection points: 2
#     Edge 57, Type (0, 0), BuildingBlock: XIVTED_clean_linker_0, # of connection points: 2
#     Edge 58, Type (0, 0), BuildingBlock: XIVTED_clean_linker_0, # of connection points: 2
#     Edge 59, Type (0, 0), BuildingBlock: XIVTED_clean_linker_0, # of connection points: 2
#     Edge 60, Type (0, 0), BuildingBlock: XIVTED_clean_linker_0, # of connection points: 2
#     Edge 61, Type (0, 0), BuildingBlock: XIVTED_clean_linker_0, # of connection points: 2
#     Edge 62, Type (0, 0), BuildingBlock: XIVTED_clean_linker_0, # of connection points: 2
#     Edge 63, Type (0, 0), BuildingBlock: XIVTED_clean_linker_0, # of connection points: 2
# Relax obj value: 0.015
# Max RMSD: 0.061
# Mean RMSD: 0.061
data_MOF--net-vbm--node1-JUFBIX_clean_sbu_0--edge1-XIVTED_clean_linker_0
_symmetry_space_group_name_H-M    P1
_symmetry_Int_Tables_number       1
_symmetry_cell_setting            triclinic
loop_
_symmetry_equiv_pos_as_xyz
'x, y, z'
_cell_length_a     78.415703
_cell_length_b     15.096403
_cell_length_c     59.558214
_cell_angle_alpha  90.019037
_cell_angle_beta   90.006157
_cell_angle_gamma 89.929412
loop_
_atom_site_label
_atom_site_type_symbol
_atom_site_fract_x
_atom_site_fract_y
_atom_site_fract_z
_atom_type_partial_charge
Co0 Co 0.16591 0.09433 0.13133 0.0
C1 C 0.14827 0.07846 0.17249 0.0
Co2 Co 0.13763 0.09382 0.12917 0.0
C3 C 0.20223 0.13684 0.12763 0.0
C4 C 0.19724 0.02161 0.14748 0.0
N5 N 0.18941 0.08522 0.13537 0.0
N6 N 0.21773 0.10731 0.13435 0.0
C7 C 0.21456 0.03479 0.14684 0.0
H8 H 0.20021 0.19458 0.11719 0.0
H9 H 0.19074 0.96923 0.15643 0.0
C10 C 0.15537 0.10678 0.08793 0.0
N11 N 0.11412 0.10506 0.12469 0.0
C12 C 0.10042 0.05711 0.13141 0.0
C13 C 0.10753 0.16897 0.1114 0.0
N14 N 0.08571 0.0888 0.12253 0.0
C15 C 0.09023 0.15913 0.11003 0.0
C16 C 0.15297 0.26193 0.13355 0.0
O17 O 0.16882 0.10341 0.0998 0.0
O18 O 0.14091 0.10365 0.09755 0.0
O19 O 0.1391 0.21902 0.13209 0.0
O20 O 0.16701 0.21975 0.1338 0.0
O21 O 0.13473 0.08276 0.16072 0.0
H22 H 0.11493 0.21877 0.10273 0.0
H23 H 0.10127 -0.00147 0.14183 0.0
O24 O 0.16272 0.0845 0.16287 0.0
O25 O 0.16446 0.9691 0.12872 0.0
O26 O 0.13651 0.96851 0.12645 0.0
C27 C 0.15057 0.92631 0.12699 0.0
H28 H 0.22405 -0.0048 0.15542 0.0
H29 H 0.08161 0.19986 0.10027 0.0
Co30 Co 0.88481 0.88455 0.13135 0.0
C31 C 0.90227 0.89928 0.17267 0.0
Co32 Co 0.9131 0.88276 0.12945 0.0
C33 C 0.84836 0.84455 0.12747 0.0
C34 C 0.85361 0.96019 0.14707 0.0
N35 N 0.8613 0.89548 0.13517 0.0
N36 N 0.83293 0.87564 0.13401 0.0
C37 C 0.83627 0.9484 0.14634 0.0
H38 H 0.85023 0.78619 0.1172 0.0
H39 H 0.86023 0.01236 0.15596 0.0
C40 C 0.89557 0.87099 0.08805 0.0
N41 N 0.9366 0.86989 0.12523 0.0
C42 C 0.95032 0.91831 0.13169 0.0
C43 C 0.94317 0.80493 0.11224 0.0
N44 N 0.965 0.8858 0.12296 0.0
C45 C 0.96047 0.81463 0.11078 0.0
C46 C 0.89725 0.71585 0.13371 0.0
O47 O 0.88206 0.87551 0.09978 0.0
O48 O 0.90998 0.87297 0.09782 0.0
O49 O 0.91125 0.75763 0.13238 0.0
O50 O 0.88334 0.75919 0.13384 0.0
O51 O 0.91584 0.8938 0.16102 0.0
H52 H 0.93574 0.75486 0.10369 0.0
H53 H 0.94948 0.97806 0.14169 0.0
O54 O 0.88785 0.89433 0.16294 0.0
O55 O 0.88662 0.00971 0.12875 0.0
O56 O 0.91458 0.008 0.12672 0.0
C57 C 0.90065 0.05137 0.12714 0.0
H58 H 0.82686 0.98909 0.15476 0.0
H59 H 0.96909 0.77373 0.10104 0.0
Co60 Co 0.16565 0.88444 0.3758 0.0
C61 C 0.14775 0.90004 0.33475 0.0
Co62 Co 0.13739 0.88514 0.37816 0.0
C63 C 0.20235 0.84152 0.37739 0.0
C64 C 0.19621 0.95719 0.35819 0.0
N65 N 0.18912 0.89403 0.37122 0.0
N66 N 0.21727 0.86946 0.36842 0.0
C67 C 0.21339 0.94215 0.3564 0.0
H68 H 0.20096 0.78183 0.38729 0.0
H69 H 0.18921 0.00934 0.3498 0.0
C70 C 0.15528 0.87236 0.41926 0.0
N71 N 0.11394 0.87436 0.38251 0.0
C72 C 0.10051 0.91847 0.37358 0.0
C73 C 0.10688 0.81179 0.39573 0.0
N74 N 0.08542 0.88468 0.38059 0.0
C75 C 0.08947 0.8178 0.39455 0.0
C76 C 0.15273 0.71693 0.37377 0.0
O77 O 0.16874 0.87542 0.40735 0.0
O78 O 0.14079 0.87565 0.40969 0.0
O79 O 0.13887 0.75998 0.37539 0.0
O80 O 0.16678 0.75895 0.37333 0.0
O81 O 0.13433 0.8957 0.34667 0.0
H82 H 0.11399 0.76405 0.40554 0.0
H83 H 0.10177 0.97292 0.36188 0.0
O84 O 0.16225 0.89415 0.34423 0.0
O85 O 0.16416 0.00964 0.37843 0.0
O86 O 0.13622 0.01049 0.38077 0.0
C87 C 0.15027 0.05258 0.38018 0.0
H88 H 0.22234 0.98047 0.34654 0.0
H89 H 0.08046 0.77675 0.40355 0.0
Co90 Co 0.88586 0.09591 0.37613 0.0
C91 C 0.90315 0.07943 0.33487 0.0
Co92 Co 0.91412 0.09524 0.37819 0.0
C93 C 0.84944 0.13801 0.38016 0.0
C94 C 0.85455 0.02169 0.36072 0.0
N95 N 0.86232 0.08644 0.37249 0.0
N96 N 0.83397 0.10716 0.37376 0.0
C97 C 0.83722 0.034 0.36153 0.0
H98 H 0.85138 0.1966 0.39032 0.0
H99 H 0.86109 0.96906 0.35188 0.0
C100 C 0.8968 0.10873 0.41953 0.0
N101 N 0.93763 0.1062 0.38193 0.0
C102 C 0.95098 0.061 0.37311 0.0
C103 C 0.94483 0.16995 0.39467 0.0
N104 N 0.96614 0.0953 0.3797 0.0
C105 C 0.96223 0.16363 0.39329 0.0
C106 C 0.89871 0.26342 0.37384 0.0
O107 O 0.88329 0.10559 0.40774 0.0
O108 O 0.91123 0.10521 0.40982 0.0
O109 O 0.91259 0.22039 0.37535 0.0
O110 O 0.88468 0.22136 0.37356 0.0
O111 O 0.91666 0.08417 0.34662 0.0
H112 H 0.93784 0.21857 0.40434 0.0
H113 H 0.9496 0.00524 0.36182 0.0
O114 O 0.88871 0.08542 0.34451 0.0
O115 O 0.88739 0.97074 0.37885 0.0
O116 O 0.91534 0.9699 0.38087 0.0
C117 C 0.90129 0.92781 0.38047 0.0
H118 H 0.82775 -0.00661 0.35323 0.0
H119 H 0.97133 0.20533 0.40194 0.0
Co120 Co 0.91426 0.88421 0.8782 0.0
C121 C 0.89673 0.87087 0.91957 0.0
Co122 Co 0.88602 0.8841 0.87625 0.0
C123 C 0.95141 0.9202 0.87584 0.0
C124 C 0.94431 0.80772 0.89564 0.0
N125 N 0.93772 0.87223 0.88254 0.0
N126 N 0.96612 0.88793 0.88457 0.0
C127 C 0.96161 0.81721 0.89692 0.0
H128 H 0.95056 0.9792 0.86558 0.0
H129 H 0.93691 0.75778 0.90426 0.0
C130 C 0.90353 0.90049 0.83498 0.0
N131 N 0.86255 0.89391 0.87236 0.0
C132 C 0.84974 0.84216 0.88002 0.0
C133 C 0.85473 0.95816 0.86045 0.0
N134 N 0.83425 0.87222 0.87346 0.0
C135 C 0.83741 0.94522 0.86115 0.0
C136 C 0.90146 0.05191 0.88063 0.0
O137 O 0.91708 0.8956 0.8467 0.0
O138 O 0.8891 0.89454 0.84464 0.0
O139 O 0.88756 0.0092 0.87899 0.0
O140 O 0.91551 0.00958 0.88102 0.0
O141 O 0.88321 0.87452 0.90785 0.0
H142 H 0.86123 0.01077 0.85159 0.0
H143 H 0.85176 0.78391 0.89028 0.0
O144 O 0.91112 0.87403 0.90978 0.0
O145 O 0.91269 0.75914 0.87518 0.0
O146 O 0.88479 0.75862 0.87364 0.0
C147 C 0.89881 0.71632 0.87377 0.0
H148 H 0.97025 0.776 0.90654 0.0
H149 H 0.82791 0.98524 0.8527 0.0
Co150 Co 0.13826 0.09835 0.87781 0.0
C151 C 0.15541 0.11006 0.91945 0.0
Co152 Co 0.16652 0.09631 0.8763 0.0
C153 C 0.10116 0.06251 0.87525 0.0
C154 C 0.10811 0.17671 0.89453 0.0
N155 N 0.11478 0.11143 0.88173 0.0
N156 N 0.08642 0.09502 0.88378 0.0
C157 C 0.09081 0.16668 0.89585 0.0
H158 H 0.10209 0.00232 0.86544 0.0
H159 H 0.11546 0.22707 0.90308 0.0
C160 C 0.14938 0.08162 0.83475 0.0
N161 N 0.19 0.08533 0.8728 0.0
C162 C 0.2028 0.13729 0.88041 0.0
C163 C 0.19786 0.02043 0.86114 0.0
N164 N 0.21831 0.1068 0.87405 0.0
C165 C 0.21518 0.03323 0.86193 0.0
C166 C 0.15064 0.92961 0.88032 0.0
O167 O 0.13574 0.08727 0.84625 0.0
O168 O 0.16373 0.08645 0.84465 0.0
O169 O 0.16468 0.97122 0.87889 0.0
O170 O 0.13672 0.97305 0.88055 0.0
O171 O 0.16903 0.1054 0.90794 0.0
H172 H 0.19137 0.96762 0.85233 0.0
H173 H 0.20077 0.19615 0.89045 0.0
O174 O 0.1411 0.10821 0.90944 0.0
O175 O 0.14013 0.22341 0.87488 0.0
O176 O 0.16804 0.22173 0.87381 0.0
C177 C 0.15415 0.26514 0.87373 0.0
H178 H 0.08211 0.2075 0.90548 0.0
H179 H 0.22469 -0.00719 0.85364 0.0
Co180 Co 0.9139 0.09686 0.6297 0.0
C181 C 0.89709 0.10911 0.58799 0.0
Co182 Co 0.88558 0.09543 0.63112 0.0
C183 C 0.95084 0.0634 0.63514 0.0
C184 C 0.9447 0.17378 0.61408 0.0
N185 N 0.93748 0.10905 0.62647 0.0
N186 N 0.96601 0.09836 0.62881 0.0
C187 C 0.9621 0.1676 0.61553 0.0
H188 H 0.94946 0.00664 0.64609 0.0
H189 H 0.93771 0.22276 0.60452 0.0
C190 C 0.9024 0.0803 0.67277 0.0
N191 N 0.86198 0.08474 0.63425 0.0
C192 C 0.84907 0.13627 0.62659 0.0
C193 C 0.85419 0.01923 0.64572 0.0
N194 N 0.83358 0.10469 0.63271 0.0
C195 C 0.83685 0.03106 0.64475 0.0
C196 C 0.90149 0.9284 0.62715 0.0
O197 O 0.91606 0.08591 0.66131 0.0
O198 O 0.88807 0.08526 0.66282 0.0
O199 O 0.88744 0.97025 0.62846 0.0
O200 O 0.91542 0.9716 0.62703 0.0
O201 O 0.88343 0.10485 0.59944 0.0
H202 H 0.86073 0.96652 0.65452 0.0
H203 H 0.85101 0.19548 0.61668 0.0
O204 O 0.9114 0.1067 0.59804 0.0
O205 O 0.91204 0.22201 0.63253 0.0
O206 O 0.88411 0.2208 0.63365 0.0
C207 C 0.89802 0.26396 0.6337 0.0
H208 H 0.97119 0.20993 0.60708 0.0
H209 H 0.82739 0.98983 0.65285 0.0
Co210 Co 0.13743 0.8868 0.62923 0.0
C211 C 0.15449 0.8745 0.5877 0.0
Co212 Co 0.16574 0.88829 0.63095 0.0
C213 C 0.10049 0.91985 0.63458 0.0
C214 C 0.10669 0.81064 0.61314 0.0
N215 N 0.11387 0.87476 0.62577 0.0
N216 N 0.08533 0.88517 0.62808 0.0
C217 C 0.08928 0.81666 0.61457 0.0
H218 H 0.10185 0.97594 0.64577 0.0
H219 H 0.1137 0.7621 0.60347 0.0
C220 C 0.14868 0.90344 0.67241 0.0
N221 N 0.18932 0.89886 0.6343 0.0
C222 C 0.20224 0.84744 0.62665 0.0
C223 C 0.19707 0.96415 0.6459 0.0
N224 N 0.21771 0.87887 0.63291 0.0
C225 C 0.21441 0.95229 0.64502 0.0
C226 C 0.14988 0.05529 0.62683 0.0
O227 O 0.1351 0.89768 0.66081 0.0
O228 O 0.16308 0.89859 0.66261 0.0
O229 O 0.16392 0.01346 0.62827 0.0
O230 O 0.13595 0.01208 0.62657 0.0
O231 O 0.16808 0.87877 0.59929 0.0
H232 H 0.1905 0.01677 0.65471 0.0
H233 H 0.20033 0.78845 0.61663 0.0
O234 O 0.14012 0.87699 0.59759 0.0
O235 O 0.13925 0.76166 0.63203 0.0
O236 O 0.16717 0.76291 0.6335 0.0
C237 C 0.15326 0.71974 0.63337 0.0
H238 H 0.08021 0.77466 0.60596 0.0
H239 H 0.22385 -0.00662 0.65322 0.0
Co240 Co 0.66548 0.5964 0.13069 0.0
C241 C 0.64841 0.58152 0.17211 0.0
Co242 Co 0.63721 0.59827 0.12889 0.0
C243 C 0.70192 0.63774 0.1266 0.0
C244 C 0.69685 0.52021 0.14553 0.0
N245 N 0.68905 0.58579 0.13406 0.0
N246 N 0.7174 0.60636 0.13283 0.0
C247 C 0.71418 0.53242 0.14474 0.0
H248 H 0.69996 0.69711 0.11674 0.0
H249 H 0.69032 0.46721 0.1542 0.0
C250 C 0.65427 0.61022 0.08739 0.0
N251 N 0.61368 0.61019 0.12545 0.0
C252 C 0.60042 0.56422 0.13417 0.0
C253 C 0.60636 0.67427 0.11292 0.0
N254 N 0.58518 0.5982 0.12771 0.0
C255 C 0.58897 0.66727 0.11432 0.0
C256 C 0.65297 0.76514 0.13307 0.0
O257 O 0.66785 0.60588 0.09902 0.0
O258 O 0.63989 0.60795 0.09725 0.0
O259 O 0.63896 0.7234 0.13168 0.0
O260 O 0.66688 0.72178 0.13325 0.0
O261 O 0.63485 0.58752 0.16048 0.0
H262 H 0.61327 0.7233 0.10331 0.0
H263 H 0.60192 0.50785 0.14523 0.0
O264 O 0.66282 0.58612 0.16235 0.0
O265 O 0.66372 0.47125 0.12799 0.0
O266 O 0.63577 0.47299 0.12624 0.0
C267 C 0.64969 0.42959 0.12652 0.0
H268 H 0.72365 0.49125 0.15287 0.0
H269 H 0.5798 0.70888 0.10574 0.0
Co270 Co 0.38547 0.38634 0.13062 0.0
C271 C 0.40261 0.4027 0.17199 0.0
Co272 Co 0.41374 0.38685 0.1287 0.0
C273 C 0.34918 0.34225 0.12666 0.0
C274 C 0.35394 0.45992 0.1457 0.0
N275 N 0.3619 0.39515 0.13413 0.0
N276 N 0.33361 0.37219 0.13301 0.0
C277 C 0.33665 0.44623 0.14499 0.0
H278 H 0.3513 0.28321 0.11673 0.0
H279 H 0.36033 0.51334 0.15439 0.0
C280 C 0.39655 0.37342 0.08726 0.0
N281 N 0.43729 0.37652 0.12511 0.0
C282 C 0.45051 0.42256 0.13394 0.0
C283 C 0.44467 0.31319 0.1124 0.0
N284 N 0.46577 0.38928 0.12737 0.0
C285 C 0.46205 0.32067 0.11379 0.0
C286 C 0.39848 0.21875 0.13296 0.0
O287 O 0.38302 0.37668 0.099 0.0
O288 O 0.41097 0.37684 0.09703 0.0
O289 O 0.41235 0.26165 0.13152 0.0
O290 O 0.38443 0.26092 0.13317 0.0
O291 O 0.41617 0.39798 0.16032 0.0
H292 H 0.43781 0.26421 0.1027 0.0
H293 H 0.44896 0.47833 0.14519 0.0
O294 O 0.38821 0.39678 0.16225 0.0
O295 O 0.38687 0.51157 0.12793 0.0
O296 O 0.41483 0.51215 0.12603 0.0
C297 C 0.40077 0.55437 0.12638 0.0
H298 H 0.32707 0.48647 0.15322 0.0
H299 H 0.47126 0.27961 0.1051 0.0
Co300 Co 0.6665 0.3861 0.37565 0.0
C301 C 0.64902 0.40244 0.33436 0.0
Co302 Co 0.63822 0.38682 0.37756 0.0
C303 C 0.70293 0.34488 0.37957 0.0
C304 C 0.69771 0.46001 0.35975 0.0
N305 N 0.69 0.3958 0.37177 0.0
N306 N 0.71837 0.37557 0.37301 0.0
C307 C 0.71505 0.44798 0.36053 0.0
H308 H 0.70104 0.28692 0.38997 0.0
H309 H 0.69111 0.51211 0.35079 0.0
C310 C 0.65577 0.37334 0.41895 0.0
N311 N 0.61471 0.37526 0.38188 0.0
C312 C 0.60102 0.42379 0.37532 0.0
C313 C 0.60812 0.31069 0.39492 0.0
N314 N 0.58631 0.39179 0.38408 0.0
C315 C 0.59082 0.32069 0.39631 0.0
C316 C 0.6537 0.21861 0.37321 0.0
O317 O 0.66929 0.37672 0.40721 0.0
O318 O 0.64137 0.37669 0.40918 0.0
O319 O 0.63982 0.26166 0.37457 0.0
O320 O 0.66774 0.26065 0.37311 0.0
O321 O 0.63544 0.39816 0.34602 0.0
H322 H 0.61551 0.26043 0.40347 0.0
H323 H 0.60188 0.48308 0.36517 0.0
O324 O 0.66343 0.39621 0.34408 0.0
O325 O 0.66493 0.51129 0.37833 0.0
O326 O 0.63698 0.51215 0.38036 0.0
C327 C 0.65103 0.55422 0.37996 0.0
H328 H 0.72448 0.48831 0.35208 0.0
H329 H 0.58219 0.27968 0.40596 0.0
Co330 Co 0.38552 0.59654 0.37531 0.0
C331 C 0.40367 0.58191 0.33428 0.0
Co332 Co 0.41378 0.59806 0.37764 0.0
C333 C 0.34874 0.63611 0.37698 0.0
C334 C 0.35519 0.52201 0.35734 0.0
N335 N 0.36211 0.58524 0.37051 0.0
N336 N 0.33386 0.60719 0.36808 0.0
C337 C 0.33794 0.53538 0.35579 0.0
H338 H 0.34997 0.69515 0.38717 0.0
H339 H 0.36233 0.47068 0.34883 0.0
C340 C 0.3956 0.60985 0.41873 0.0
N341 N 0.43718 0.61088 0.38257 0.0
C342 C 0.45103 0.56357 0.37601 0.0
C343 C 0.44351 0.67482 0.39605 0.0
N344 N 0.46558 0.59565 0.38518 0.0
C345 C 0.46082 0.66552 0.39772 0.0
C346 C 0.39794 0.76511 0.37316 0.0
O347 O 0.38218 0.60544 0.40681 0.0
O348 O 0.4101 0.60769 0.40917 0.0
O349 O 0.41194 0.72317 0.37472 0.0
O350 O 0.38403 0.72194 0.37281 0.0
O351 O 0.41711 0.5872 0.34618 0.0
H352 H 0.43592 0.72409 0.40468 0.0
H353 H 0.45038 0.50501 0.36555 0.0
O354 O 0.38917 0.58699 0.34378 0.0
O355 O 0.38735 0.47138 0.37795 0.0
O356 O 0.41528 0.47279 0.38038 0.0
C357 C 0.40136 0.42956 0.37975 0.0
H358 H 0.32907 0.49612 0.34604 0.0
H359 H 0.46928 0.70603 0.40775 0.0
Co360 Co 0.4141 0.38436 0.87709 0.0
C361 C 0.39694 0.37092 0.91875 0.0
Co362 Co 0.38584 0.38417 0.8756 0.0
C363 C 0.45129 0.42051 0.87453 0.0
C364 C 0.44424 0.30679 0.8939 0.0
N365 N 0.43761 0.3721 0.88109 0.0
N366 N 0.46602 0.38767 0.88306 0.0
C367 C 0.46154 0.31617 0.89514 0.0
H368 H 0.4504 0.48029 0.86456 0.0
H369 H 0.43687 0.25646 0.90242 0.0
C370 C 0.40295 0.4007 0.83405 0.0
N371 N 0.36234 0.39409 0.87207 0.0
C372 C 0.34959 0.34205 0.8798 0.0
C373 C 0.35441 0.45852 0.86034 0.0
N374 N 0.33405 0.37208 0.87344 0.0
C375 C 0.33711 0.44539 0.8612 0.0
C376 C 0.40135 0.55201 0.87977 0.0
O377 O 0.41662 0.39601 0.84553 0.0
O378 O 0.38862 0.39454 0.84397 0.0
O379 O 0.38743 0.50929 0.87831 0.0
O380 O 0.4154 0.50969 0.87995 0.0
O381 O 0.38331 0.37464 0.90723 0.0
H382 H 0.36084 0.51132 0.85147 0.0
H383 H 0.35169 0.28355 0.88994 0.0
O384 O 0.41124 0.37398 0.90875 0.0
O385 O 0.41246 0.25928 0.87403 0.0
O386 O 0.38455 0.2587 0.87302 0.0
C387 C 0.39857 0.21643 0.87287 0.0
H388 H 0.4702 0.27448 0.90458 0.0
H389 H 0.32754 0.48547 0.85291 0.0
Co390 Co 0.63836 0.59663 0.87746 0.0
C391 C 0.65578 0.60974 0.91892 0.0
Co392 Co 0.66661 0.59687 0.87565 0.0
C393 C 0.60126 0.5598 0.87495 0.0
C394 C 0.6082 0.67265 0.89475 0.0
N395 N 0.61488 0.60837 0.88164 0.0
N396 N 0.58652 0.59157 0.88366 0.0
C397 C 0.5909 0.66236 0.89606 0.0
H398 H 0.6022 0.5005 0.8648 0.0
H399 H 0.61553 0.72268 0.90345 0.0
C400 C 0.64926 0.58076 0.83429 0.0
N401 N 0.69009 0.5872 0.87189 0.0
C402 C 0.70287 0.63896 0.87965 0.0
C403 C 0.69796 0.52304 0.85999 0.0
N404 N 0.71839 0.60898 0.87315 0.0
C405 C 0.71527 0.53603 0.86078 0.0
C406 C 0.65118 0.429 0.87987 0.0
O407 O 0.63566 0.58536 0.84591 0.0
O408 O 0.66365 0.58673 0.84406 0.0
O409 O 0.66509 0.47173 0.8783 0.0
O410 O 0.63713 0.47128 0.88022 0.0
O411 O 0.66932 0.60622 0.90724 0.0
H412 H 0.69149 0.47047 0.85107 0.0
H413 H 0.70083 0.69716 0.88992 0.0
O414 O 0.6414 0.60666 0.90909 0.0
O415 O 0.63992 0.72174 0.87452 0.0
O416 O 0.66782 0.72233 0.87313 0.0
C417 C 0.65379 0.76459 0.8732 0.0
H418 H 0.58219 0.70254 0.90585 0.0
H419 H 0.7248 0.49609 0.85237 0.0
Co420 Co 0.41374 0.59816 0.62864 0.0
C421 C 0.39652 0.61172 0.58723 0.0
Co422 Co 0.38545 0.59886 0.63059 0.0
C423 C 0.45057 0.56249 0.63378 0.0
C424 C 0.44463 0.67179 0.61227 0.0
N425 N 0.4373 0.60846 0.62499 0.0
N426 N 0.46581 0.59581 0.62716 0.0
C427 C 0.46202 0.66439 0.6136 0.0
H428 H 0.44907 0.50675 0.64504 0.0
H429 H 0.43772 0.72074 0.60259 0.0
C430 C 0.4027 0.5823 0.67193 0.0
N431 N 0.36186 0.58988 0.63416 0.0
C432 C 0.34898 0.64155 0.6265 0.0
C433 C 0.35406 0.52523 0.64593 0.0
N434 N 0.33349 0.61082 0.6329 0.0
C435 C 0.33673 0.53766 0.64513 0.0
C436 C 0.40081 0.43073 0.6263 0.0
O437 O 0.41622 0.58714 0.66019 0.0
O438 O 0.38825 0.58826 0.66228 0.0
O439 O 0.38691 0.47367 0.62786 0.0
O440 O 0.41487 0.4728 0.62596 0.0
O441 O 0.38296 0.60858 0.59892 0.0
H442 H 0.36059 0.47256 0.65476 0.0
H443 H 0.35093 0.70012 0.61635 0.0
O444 O 0.41091 0.60814 0.59703 0.0
O445 O 0.41228 0.72334 0.63147 0.0
O446 O 0.38436 0.72432 0.63318 0.0
C447 C 0.3984 0.76636 0.63294 0.0
H448 H 0.47118 0.70549 0.60489 0.0
H449 H 0.32727 0.49709 0.65342 0.0
Co450 Co 0.63749 0.38483 0.62886 0.0
C451 C 0.65461 0.37127 0.5874 0.0
Co452 Co 0.66579 0.38408 0.6307 0.0
C453 C 0.60066 0.42072 0.63403 0.0
C454 C 0.60658 0.3109 0.61266 0.0
N455 N 0.61392 0.37448 0.6253 0.0
N456 N 0.58541 0.38731 0.62747 0.0
C457 C 0.58919 0.3184 0.61399 0.0
H458 H 0.60217 0.47676 0.6452 0.0
H459 H 0.61347 0.26175 0.60303 0.0
C460 C 0.64865 0.4006 0.67209 0.0
N461 N 0.68939 0.39316 0.63418 0.0
C462 C 0.70228 0.34157 0.62648 0.0
C463 C 0.6972 0.45784 0.64595 0.0
N464 N 0.71777 0.37239 0.63285 0.0
C465 C 0.71452 0.44551 0.64511 0.0
C466 C 0.6504 0.55224 0.6265 0.0
O467 O 0.63509 0.39586 0.66042 0.0
O468 O 0.66306 0.39463 0.66237 0.0
O469 O 0.66431 0.50929 0.62799 0.0
O470 O 0.63635 0.51018 0.62621 0.0
O471 O 0.6682 0.37438 0.59904 0.0
H472 H 0.69067 0.51044 0.65481 0.0
H473 H 0.70033 0.28299 0.61632 0.0
O474 O 0.64024 0.37486 0.59725 0.0
O475 O 0.63897 0.25966 0.63168 0.0
O476 O 0.6669 0.25865 0.63326 0.0
C477 C 0.65285 0.21662 0.63308 0.0
H478 H 0.58001 0.27717 0.60533 0.0
H479 H 0.72399 0.48613 0.6534 0.0
H480 H 0.22516 0.28096 0.12698 0.0
H481 H 0.32629 0.19727 0.1276 0.0
H482 H 0.2482 0.02228 0.13238 0.0
H483 H 0.30316 0.45644 0.12973 0.0
H484 H 0.29782 0.1314 0.12459 0.0
H485 H 0.25363 0.34588 0.12323 0.0
C486 C 0.23617 0.2377 0.12711 0.0
C487 C 0.23427 0.14609 0.13023 0.0
C488 C 0.29899 0.20276 0.12558 0.0
C489 C 0.26694 0.21994 0.12612 0.0
C490 C 0.31526 0.24036 0.12715 0.0
C491 C 0.31712 0.33248 0.12916 0.0
C492 C 0.28448 0.25766 0.12589 0.0
C493 C 0.30232 0.38506 0.12866 0.0
C494 C 0.25245 0.27481 0.12511 0.0
C495 C 0.24906 0.09336 0.13044 0.0
N496 N 0.28666 0.34699 0.12718 0.0
N497 N 0.26473 0.13099 0.12853 0.0
H498 H 0.8028 0.96345 0.13127 0.0
H499 H 0.74751 0.51927 0.12903 0.0
H500 H 0.82489 0.70213 0.12746 0.0
H501 H 0.72536 0.78079 0.12787 0.0
H502 H 0.77586 0.58499 0.12625 0.0
H503 H 0.77443 0.89833 0.12787 0.0
C504 C 0.80169 0.89228 0.12967 0.0
C505 C 0.81628 0.83813 0.1299 0.0
C506 C 0.76482 0.62815 0.12644 0.0
C507 C 0.78372 0.76286 0.12591 0.0
C508 C 0.74861 0.59063 0.12813 0.0
C509 C 0.73401 0.64462 0.12894 0.0
C510 C 0.76655 0.72063 0.12569 0.0
C511 C 0.73622 0.73664 0.12724 0.0
C512 C 0.78547 0.85514 0.12762 0.0
C513 C 0.81404 0.74644 0.12729 0.0
N514 N 0.75219 0.77176 0.12592 0.0
N515 N 0.79807 0.71167 0.12563 0.0
H516 H 0.31855 0.68373 0.40428 0.0
H517 H 0.23803 0.84264 0.33323 0.0
H518 H 0.31126 0.6226 0.33427 0.0
H519 H 0.23393 0.80044 0.40453 0.0
H520 H 0.26672 0.77974 0.33392 0.0
H521 H 0.28934 0.74543 0.40551 0.0
C522 C 0.31084 0.68388 0.3892 0.0
C523 C 0.31724 0.64776 0.36917 0.0
C524 C 0.25957 0.78376 0.34945 0.0
C525 C 0.28415 0.71796 0.37038 0.0
C526 C 0.24323 0.81982 0.34905 0.0
C527 C 0.23367 0.82657 0.36884 0.0
C528 C 0.26662 0.75536 0.36988 0.0
C529 C 0.24092 0.79556 0.38891 0.0
C530 C 0.2942 0.71822 0.38994 0.0
C531 C 0.30675 0.64885 0.3501 0.0
N532 N 0.25709 0.76192 0.389 0.0
N533 N 0.29082 0.6837 0.35114 0.0
H534 H 0.80394 0.01969 0.37738 0.0
H535 H 0.7484 0.46349 0.37603 0.0
H536 H 0.82593 0.28122 0.37937 0.0
H537 H 0.72646 0.2021 0.37956 0.0
H538 H 0.7768 0.39845 0.37948 0.0
H539 H 0.77555 0.08513 0.38044 0.0
C540 C 0.8028 0.091 0.37852 0.0
C541 C 0.81735 0.1451 0.37786 0.0
C542 C 0.76579 0.35522 0.37967 0.0
C543 C 0.78478 0.22077 0.38142 0.0
C544 C 0.74956 0.39232 0.37759 0.0
C545 C 0.73501 0.3381 0.37725 0.0
C546 C 0.7676 0.26292 0.38128 0.0
C547 C 0.73729 0.24642 0.3798 0.0
C548 C 0.78657 0.12834 0.38038 0.0
C549 C 0.81509 0.23701 0.37988 0.0
N550 N 0.75327 0.21167 0.38148 0.0
N551 N 0.79911 0.27198 0.38133 0.0
H552 H 0.72579 0.78307 0.87974 0.0
H553 H 0.82682 0.69815 0.87998 0.0
H554 H 0.74878 0.52383 0.87588 0.0
H555 H 0.80385 0.9574 0.87603 0.0
H556 H 0.79834 0.63312 0.88343 0.0
H557 H 0.75426 0.84813 0.88333 0.0
C558 C 0.7368 0.73975 0.87993 0.0
C559 C 0.73489 0.64793 0.87727 0.0
C560 C 0.79954 0.70433 0.88194 0.0
C561 C 0.76754 0.72185 0.88119 0.0
C562 C 0.81582 0.74148 0.88012 0.0
C563 C 0.81773 0.8333 0.87748 0.0
C564 C 0.78507 0.7594 0.88124 0.0
C565 C 0.80297 0.88618 0.87759 0.0
C566 C 0.75307 0.77692 0.88183 0.0
C567 C 0.74966 0.59506 0.87745 0.0
N568 N 0.78729 0.84852 0.87932 0.0
N569 N 0.76533 0.63273 0.87926 0.0
H570 H 0.32674 0.19778 0.87987 0.0
H571 H 0.22567 0.28121 0.88022 0.0
H572 H 0.3036 0.45671 0.87631 0.0
H573 H 0.24877 0.02211 0.87676 0.0
H574 H 0.25411 0.34669 0.88354 0.0
H575 H 0.29832 0.13225 0.88348 0.0
C576 C 0.31571 0.24093 0.88013 0.0
C577 C 0.31756 0.33282 0.87755 0.0
C578 C 0.25295 0.27543 0.88218 0.0
C579 C 0.28496 0.25834 0.88149 0.0
C580 C 0.2367 0.238 0.88044 0.0
C581 C 0.23482 0.14607 0.87798 0.0
C582 C 0.26745 0.22053 0.88158 0.0
C583 C 0.24961 0.09339 0.87818 0.0
C584 C 0.29947 0.20349 0.88204 0.0
C585 C 0.30277 0.38546 0.87781 0.0
N586 N 0.26527 0.13133 0.87983 0.0
N587 N 0.28712 0.34752 0.87963 0.0
H588 H 0.74779 0.46021 0.62938 0.0
H589 H 0.80357 0.0168 0.629 0.0
H590 H 0.72592 0.19848 0.62693 0.0
H591 H 0.8254 0.27873 0.62717 0.0
H592 H 0.77515 0.08178 0.62588 0.0
H593 H 0.7762 0.39523 0.6262 0.0
C594 C 0.74896 0.38895 0.62812 0.0
C595 C 0.73442 0.33468 0.62869 0.0
C596 C 0.78613 0.12517 0.626 0.0
C597 C 0.76706 0.2595 0.62497 0.0
C598 C 0.80239 0.0881 0.62789 0.0
C599 C 0.81693 0.14241 0.62861 0.0
C600 C 0.78428 0.21757 0.62495 0.0
C601 C 0.81459 0.2343 0.62661 0.0
C602 C 0.76521 0.35187 0.62619 0.0
C603 C 0.73673 0.24285 0.62651 0.0
N604 N 0.79859 0.26898 0.6251 0.0
N605 N 0.75274 0.20813 0.62497 0.0
H606 H 0.24774 0.96675 0.62947 0.0
H607 H 0.30346 0.52316 0.62938 0.0
H608 H 0.22589 0.70495 0.62711 0.0
H609 H 0.32537 0.78481 0.62712 0.0
H610 H 0.27506 0.58831 0.62625 0.0
H611 H 0.27616 0.90174 0.62633 0.0
C612 C 0.24891 0.89548 0.62824 0.0
C613 C 0.23437 0.84119 0.62882 0.0
C614 C 0.28605 0.63162 0.62627 0.0
C615 C 0.26701 0.76601 0.62513 0.0
C616 C 0.3023 0.59444 0.62817 0.0
C617 C 0.31685 0.64864 0.62877 0.0
C618 C 0.28423 0.72401 0.62511 0.0
C619 C 0.31455 0.7405 0.62666 0.0
C620 C 0.26517 0.85839 0.62633 0.0
C621 C 0.23669 0.74935 0.62667 0.0
N622 N 0.29855 0.77532 0.62515 0.0
N623 N 0.2527 0.71465 0.62515 0.0
H624 H 0.11927 0.92918 0.30862 0.0
H625 H 0.17499 0.06624 0.20154 0.0
H626 H 0.17425 0.91821 0.30551 0.0
H627 H 0.12012 0.04423 0.19888 0.0
H628 H 0.17435 0.02054 0.24062 0.0
H629 H 0.11873 0.97568 0.26912 0.0
C630 C 0.1312 0.93568 0.29961 0.0
C631 C 0.14683 0.91977 0.31043 0.0
C632 C 0.16241 0.02582 0.23158 0.0
C633 C 0.1463 0.97403 0.26545 0.0
C634 C 0.16275 0.05245 0.20922 0.0
C635 C 0.14758 0.05901 0.19684 0.0
C636 C 0.14678 0.00543 0.24183 0.0
C637 C 0.13213 0.04018 0.2078 0.0
C638 C 0.13088 0.96255 0.27711 0.0
C639 C 0.16189 0.92968 0.29795 0.0
N640 N 0.13212 0.01396 0.22969 0.0
N641 N 0.16123 0.95649 0.27623 0.0
H642 H 0.93149 0.05045 0.30853 0.0
H643 H 0.87549 0.91377 0.2016 0.0
H644 H 0.87649 0.05998 0.30589 0.0
H645 H 0.93041 0.93176 0.19918 0.0
H646 H 0.87615 0.9598 0.24067 0.0
H647 H 0.93188 0.00345 0.26907 0.0
C648 C 0.91952 0.04351 0.29962 0.0
C649 C 0.90393 0.05922 0.31056 0.0
C650 C 0.8881 0.95354 0.23169 0.0
C651 C 0.90429 0.00439 0.26561 0.0
C652 C 0.88774 0.92673 0.20933 0.0
C653 C 0.90293 0.91893 0.19702 0.0
C654 C 0.90376 0.97288 0.24199 0.0
C655 C 0.9184 0.93676 0.20804 0.0
C656 C 0.91976 0.01634 0.27715 0.0
C657 C 0.88882 0.04872 0.29822 0.0
N658 N 0.91842 0.96319 0.22992 0.0
N659 N 0.88939 0.02168 0.27651 0.0
H660 H 0.87548 0.06242 0.7014 0.0
H661 H 0.93179 0.93066 0.80858 0.0
H662 H 0.93049 0.05079 0.69952 0.0
H663 H 0.8768 0.91882 0.80605 0.0
H664 H 0.93203 0.97753 0.76913 0.0
H665 H 0.87617 0.01646 0.74052 0.0
C666 C 0.88775 0.05089 0.70926 0.0
C667 C 0.90296 0.06047 0.6971 0.0
C668 C 0.91994 0.96419 0.77723 0.0
C669 C 0.90383 0.00665 0.74208 0.0
C670 C 0.91979 0.93707 0.7997 0.0
C671 C 0.90425 0.92073 0.81067 0.0
C672 C 0.90444 0.97539 0.76572 0.0
C673 C 0.8891 0.93058 0.79836 0.0
C674 C 0.88812 0.02413 0.73163 0.0
C675 C 0.91845 0.04438 0.70826 0.0
N676 N 0.88959 0.95754 0.77664 0.0
N677 N 0.91849 0.01799 0.73013 0.0
H678 H 0.1763 0.06622 0.80605 0.0
H679 H 0.12039 0.93023 0.69895 0.0
H680 H 0.12134 0.05014 0.80802 0.0
H681 H 0.17542 0.92455 0.70121 0.0
H682 H 0.12002 0.97661 0.73843 0.0
H683 H 0.17575 0.02059 0.76692 0.0
C684 C 0.16407 0.05377 0.79821 0.0
C685 C 0.14884 0.06202 0.8104 0.0
C686 C 0.13215 0.96473 0.73027 0.0
C687 C 0.14813 0.00856 0.76539 0.0
C688 C 0.13237 0.93789 0.70778 0.0
C689 C 0.14796 0.92342 0.69673 0.0
C690 C 0.14762 0.97752 0.74173 0.0
C691 C 0.16309 0.93484 0.70898 0.0
C692 C 0.16377 0.02721 0.77583 0.0
C693 C 0.1334 0.04479 0.79925 0.0
N694 N 0.16253 0.96148 0.73073 0.0
N695 N 0.13343 0.0186 0.77737 0.0
H696 H 0.67583 0.41453 0.30541 0.0
H697 H 0.62007 0.55598 0.19863 0.0
H698 H 0.62096 0.43726 0.30787 0.0
H699 H 0.67511 0.559 0.20093 0.0
H700 H 0.61963 0.50935 0.23808 0.0
H701 H 0.67526 0.46034 0.26632 0.0
C702 C 0.66361 0.42849 0.29769 0.0
C703 C 0.64841 0.42207 0.31001 0.0
C704 C 0.63178 0.52072 0.22994 0.0
C705 C 0.6477 0.47576 0.26502 0.0
C706 C 0.63204 0.54768 0.20746 0.0
C707 C 0.64765 0.56147 0.19642 0.0
C708 C 0.64723 0.50707 0.24139 0.0
C709 C 0.66276 0.54926 0.20868 0.0
C710 C 0.66331 0.45516 0.27532 0.0
C711 C 0.63298 0.44117 0.299 0.0
N712 N 0.66216 0.52248 0.23041 0.0
N713 N 0.63302 0.46744 0.27712 0.0
H714 H 0.43207 0.55136 0.30804 0.0
H715 H 0.37585 0.41842 0.20094 0.0
H716 H 0.37711 0.56504 0.30512 0.0
H717 H 0.4308 0.43438 0.19845 0.0
H718 H 0.37663 0.46438 0.24003 0.0
H719 H 0.43243 0.50477 0.26852 0.0
C720 C 0.42011 0.54545 0.29907 0.0
C721 C 0.40454 0.56213 0.30995 0.0
C722 C 0.38855 0.4577 0.23102 0.0
C723 C 0.40485 0.50778 0.26495 0.0
C724 C 0.38813 0.43092 0.20866 0.0
C725 C 0.40329 0.42256 0.19633 0.0
C726 C 0.40426 0.47641 0.24132 0.0
C727 C 0.4188 0.43985 0.20733 0.0
C728 C 0.42033 0.5185 0.27656 0.0
C729 C 0.38943 0.55293 0.29751 0.0
N730 N 0.41889 0.46621 0.22921 0.0
N731 N 0.38998 0.52608 0.27579 0.0
H732 H 0.37591 0.41501 0.8055 0.0
H733 H 0.43113 0.5554 0.69819 0.0
H734 H 0.43083 0.43454 0.8072 0.0
H735 H 0.37611 0.56043 0.70097 0.0
H736 H 0.43174 0.5083 0.73759 0.0
H737 H 0.37623 0.46158 0.76644 0.0
C738 C 0.38809 0.42841 0.79761 0.0
C739 C 0.40338 0.42084 0.80971 0.0
C740 C 0.41956 0.5202 0.72957 0.0
C741 C 0.40381 0.47539 0.76477 0.0
C742 C 0.4192 0.54744 0.70711 0.0
C743 C 0.40354 0.56195 0.69623 0.0
C744 C 0.40416 0.50699 0.74116 0.0
C745 C 0.38849 0.55016 0.70861 0.0
C746 C 0.38825 0.45552 0.77527 0.0
C747 C 0.41874 0.43931 0.79851 0.0
N748 N 0.38919 0.52308 0.73032 0.0
N749 N 0.41857 0.46599 0.77666 0.0
H750 H 0.67612 0.56706 0.80545 0.0
H751 H 0.62032 0.42794 0.69854 0.0
H752 H 0.62121 0.54715 0.80772 0.0
H753 H 0.67535 0.4217 0.70097 0.0
H754 H 0.6199 0.47482 0.73797 0.0
H755 H 0.67556 0.52094 0.76636 0.0
C756 C 0.66389 0.55367 0.79768 0.0
C757 C 0.64868 0.56097 0.80995 0.0
C758 C 0.63204 0.46269 0.72986 0.0
C759 C 0.64798 0.50694 0.76498 0.0
C760 C 0.6323 0.43558 0.70739 0.0
C761 C 0.6479 0.42081 0.6964 0.0
C762 C 0.6475 0.4755 0.74135 0.0
C763 C 0.66301 0.4322 0.70869 0.0
C764 C 0.6636 0.52681 0.77532 0.0
C765 C 0.63325 0.54256 0.79889 0.0
N766 N 0.66242 0.45915 0.73041 0.0
N767 N 0.63329 0.51612 0.77702 0.0
H768 H 0.12847 0.12967 0.9479 0.0
H769 H 0.18381 0.10429 0.06078 0.0
H770 H 0.18332 0.10384 0.94757 0.0
H771 H 0.12889 0.12339 0.05858 0.0
H772 H 0.18443 0.1102 0.0196 0.0
H773 H 0.12892 0.13398 0.98866 0.0
C774 C 0.14065 0.12504 0.9564 0.0
C775 C 0.15589 0.11593 0.94425 0.0
C776 C 0.17227 0.1133 0.02818 0.0
C777 C 0.15649 0.12068 0.99123 0.0
C778 C 0.17191 0.10999 0.05167 0.0
C779 C 0.15627 0.11295 0.06316 0.0
C780 C 0.15689 0.11976 0.01616 0.0
C781 C 0.14124 0.12047 0.05049 0.0
C782 C 0.1409 0.12753 0.97976 0.0
C783 C 0.17127 0.11072 0.95627 0.0
N784 N 0.14194 0.12343 0.02775 0.0
N785 N 0.17118 0.11285 0.97914 0.0
H786 H 0.92346 0.8512 0.94836 0.0
H787 H 0.86731 0.87536 0.06055 0.0
H788 H 0.8686 0.87598 0.94731 0.0
H789 H 0.9222 0.85295 0.059 0.0
H790 H 0.86697 0.87012 0.01935 0.0
H791 H 0.92269 0.84595 0.9891 0.0
C792 C 0.9112 0.85542 0.9567 0.0
C793 C 0.89606 0.86451 0.94435 0.0
C794 C 0.87906 0.86612 0.02809 0.0
C795 C 0.8951 0.85866 0.99132 0.0
C796 C 0.87927 0.86905 0.05158 0.0
C797 C 0.89482 0.865 0.06326 0.0
C798 C 0.89451 0.859 0.01625 0.0
C799 C 0.90991 0.85673 0.05077 0.0
C800 C 0.91078 0.85236 0.98004 0.0
C801 C 0.88058 0.86913 0.95617 0.0
N802 N 0.90936 0.85422 0.02802 0.0
N803 N 0.88049 0.8665 0.97903 0.0
H804 H 0.18365 0.8766 0.4466 0.0
H805 H 0.12772 0.85416 0.55901 0.0
H806 H 0.12877 0.85467 0.44844 0.0
H807 H 0.18255 0.87974 0.55987 0.0
H808 H 0.12843 0.84815 0.51826 0.0
H809 H 0.18409 0.8719 0.48782 0.0
C810 C 0.17173 0.87049 0.45563 0.0
C811 C 0.15615 0.86649 0.44404 0.0
C812 C 0.14035 0.85493 0.52728 0.0
C813 C 0.15656 0.8611 0.49104 0.0
C814 C 0.13995 0.85842 0.55063 0.0
C815 C 0.1551 0.86795 0.56292 0.0
C816 C 0.15601 0.86121 0.51596 0.0
C817 C 0.17056 0.87259 0.55106 0.0
C818 C 0.17199 0.86788 0.47913 0.0
C819 C 0.14109 0.85847 0.4566 0.0
N820 N 0.17062 0.86951 0.5282 0.0
N821 N 0.14169 0.85626 0.47934 0.0
H822 H 0.92405 0.12794 0.55952 0.0
H823 H 0.86845 0.10681 0.44681 0.0
H824 H 0.86917 0.10466 0.55991 0.0
H825 H 0.92338 0.12471 0.44875 0.0
H826 H 0.86795 0.11216 0.48799 0.0
H827 H 0.92355 0.13327 0.51874 0.0
C828 C 0.91186 0.12407 0.55103 0.0
C829 C 0.89663 0.11537 0.5632 0.0
C830 C 0.88009 0.11514 0.47935 0.0
C831 C 0.89596 0.12133 0.51623 0.0
C832 C 0.88038 0.11215 0.45586 0.0
C833 C 0.89598 0.11488 0.4443 0.0
C834 C 0.8955 0.12102 0.4913 0.0
C835 C 0.91105 0.12196 0.4569 0.0
C836 C 0.91158 0.12715 0.52767 0.0
C837 C 0.88122 0.11117 0.5512 0.0
N838 N 0.91042 0.12457 0.47965 0.0
N839 N 0.88128 0.11386 0.52835 0.0
H840 H 0.62753 0.62924 0.05854 0.0
H841 H 0.68396 0.6069 0.94655 0.0
H842 H 0.68241 0.60532 0.0597 0.0
H843 H 0.62903 0.62643 0.94783 0.0
H844 H 0.68417 0.61216 0.98774 0.0
H845 H 0.62835 0.63442 0.01778 0.0
C846 C 0.63979 0.62519 0.05022 0.0
C847 C 0.65492 0.61638 0.0626 0.0
C848 C 0.6721 0.61552 0.97895 0.0
C849 C 0.65596 0.62216 0.01564 0.0
C850 C 0.67197 0.61259 0.95546 0.0
C851 C 0.65645 0.61582 0.94371 0.0
C852 C 0.65661 0.62183 0.99072 0.0
C853 C 0.6413 0.6233 0.95612 0.0
C854 C 0.64025 0.6282 0.02687 0.0
C855 C 0.67043 0.61194 0.05082 0.0
N856 N 0.64178 0.62585 0.97888 0.0
N857 N 0.67055 0.61456 0.02796 0.0
H858 H 0.4239 0.3531 0.94727 0.0
H859 H 0.36822 0.37449 0.05992 0.0
H860 H 0.36898 0.37483 0.9468 0.0
H861 H 0.42318 0.358 0.05806 0.0
H862 H 0.36776 0.36862 0.01876 0.0
H863 H 0.42338 0.34845 0.98805 0.0
C864 C 0.41169 0.35675 0.95575 0.0
C865 C 0.39645 0.36482 0.94355 0.0
C866 C 0.37989 0.36607 0.02741 0.0
C867 C 0.39578 0.35967 0.99054 0.0
C868 C 0.38017 0.36937 0.05089 0.0
C869 C 0.39577 0.36715 0.06248 0.0
C870 C 0.39532 0.36041 0.01547 0.0
C871 C 0.41085 0.36034 0.0499 0.0
C872 C 0.41141 0.35407 0.97911 0.0
C873 C 0.38104 0.36878 0.95553 0.0
N874 N 0.41024 0.35741 0.02715 0.0
N875 N 0.3811 0.36649 0.97839 0.0
H876 H 0.68403 0.37525 0.44646 0.0
H877 H 0.62782 0.35326 0.55862 0.0
H878 H 0.62909 0.3569 0.44795 0.0
H879 H 0.68272 0.37509 0.55964 0.0
H880 H 0.62857 0.34836 0.51786 0.0
H881 H 0.68434 0.36939 0.48764 0.0
C882 C 0.67205 0.36971 0.45541 0.0
C883 C 0.6565 0.367 0.44372 0.0
C884 C 0.64049 0.35405 0.52692 0.0
C885 C 0.65677 0.36027 0.49072 0.0
C886 C 0.64008 0.3569 0.55027 0.0
C887 C 0.65524 0.36508 0.56261 0.0
C888 C 0.65618 0.35964 0.51564 0.0
C889 C 0.67072 0.36897 0.55079 0.0
C890 C 0.67224 0.36642 0.4789 0.0
C891 C 0.64138 0.35966 0.45619 0.0
N892 N 0.6708 0.36656 0.52792 0.0
N893 N 0.64191 0.35676 0.47894 0.0
H894 H 0.42323 0.63154 0.55844 0.0
H895 H 0.36723 0.60502 0.4461 0.0
H896 H 0.36839 0.60624 0.55947 0.0
H897 H 0.42208 0.62912 0.44791 0.0
H898 H 0.36679 0.61082 0.48732 0.0
H899 H 0.42246 0.63648 0.5177 0.0
C900 C 0.41098 0.62713 0.55009 0.0
C901 C 0.39585 0.61798 0.56244 0.0
C902 C 0.37889 0.61507 0.47863 0.0
C903 C 0.39488 0.62344 0.51546 0.0
C904 C 0.37915 0.61181 0.45513 0.0
C905 C 0.39472 0.61613 0.44352 0.0
C906 C 0.39431 0.62281 0.49053 0.0
C907 C 0.40977 0.62506 0.45607 0.0
C908 C 0.41055 0.63002 0.52675 0.0
C909 C 0.38037 0.61314 0.55061 0.0
N910 N 0.40917 0.62788 0.47881 0.0
N911 N 0.38028 0.61557 0.52774 0.0
H912 H 0.98551 0.91205 0.08765 0.0
H913 H 0.06896 0.02595 0.15936 0.0
H914 H 0.98308 0.94067 0.1595 0.0
H915 H 0.06367 0.07175 0.08833 0.0
H916 H 0.03871 0.97955 0.16074 0.0
H917 H 1.01525 0.95817 0.08836 0.0
C918 C 0.9913 0.92887 0.1036 0.0
C919 C 0.98189 0.92287 0.12352 0.0
C920 C 0.04425 -0.00027 0.1449 0.0
C921 C 1.01614 0.97469 0.12464 0.0
C922 C 0.06148 0.02518 0.14409 0.0
C923 C 0.06873 0.05287 0.12371 0.0
C924 C 0.03443 0.00086 0.1251 0.0
C925 C 0.05852 0.05168 0.10439 0.0
C926 C 1.00828 0.95513 0.10404 0.0
C927 C 0.98994 0.94546 0.14378 0.0
N928 N 0.04199 0.02612 0.10556 0.0
N929 N 1.00672 0.96975 0.14389 0.0
H930 H 0.99428 0.19687 0.37485 0.0
H931 H 0.05724 0.78233 0.37709 0.0
H932 H 0.97691 0.92627 0.37263 0.0
H933 H 0.07457 0.05237 0.37187 0.0
H934 H 0.02786 0.83305 0.37254 0.0
H935 H 1.02364 0.14535 0.37078 0.0
C936 C 0.99667 0.12647 0.37336 0.0
C937 C 0.98315 0.06562 0.37437 0.0
C938 C 0.03807 0.88131 0.37216 0.0
C939 C 1.01682 0.00592 0.36973 0.0
C940 C 0.05485 0.85242 0.37486 0.0
C941 C 0.06836 0.91341 0.37516 0.0
C942 C 0.03467 0.97217 0.36993 0.0
C943 C 0.06455 0.00319 0.37174 0.0
C944 C 1.01344 0.09709 0.37095 0.0
C945 C 0.98694 0.97533 0.37191 0.0
N946 N 0.04804 0.03001 0.36955 0.0
N947 N 1.00345 0.9481 0.37 0.0
H948 H 0.0662 0.06621 0.9192 0.0
H949 H 0.98259 0.95362 0.84787 0.0
H950 H 0.06832 0.04087 0.84726 0.0
H951 H 0.98836 0.9023 0.91861 0.0
H952 H 1.01278 0.00085 0.84641 0.0
H953 H 0.03654 0.01854 0.91861 0.0
C954 C 0.06035 0.04973 0.90327 0.0
C955 C 0.06963 0.05708 0.88328 0.0
C956 C 1.00736 0.97921 0.86221 0.0
C957 C 0.03551 0.00364 0.8823 0.0
C958 C 0.99017 0.95328 0.86307 0.0
C959 C 0.98309 0.92383 0.88337 0.0
C960 C 1.01729 0.97679 0.88189 0.0
C961 C 0.9934 0.92367 0.90259 0.0
C962 C 0.04343 0.02261 0.90289 0.0
C963 C 0.06154 0.03501 0.86301 0.0
N964 N 1.00989 0.94977 0.90138 0.0
N965 N 0.04481 0.00991 0.86298 0.0
H966 H 0.99425 0.19948 0.63365 0.0
H967 H 0.05709 0.7836 0.63234 0.0
H968 H 0.97679 0.92898 0.63557 0.0
H969 H 0.07454 0.05391 0.63578 0.0
H970 H 0.02775 0.83505 0.63662 0.0
H971 H 1.0236 0.14764 0.63756 0.0
C972 C 0.9966 0.12903 0.63502 0.0
C973 C 0.98305 0.06835 0.63399 0.0
C974 C 0.03797 0.88324 0.63665 0.0
C975 C 1.01674 0.00826 0.63847 0.0
C976 C 0.05474 0.85392 0.63411 0.0
C977 C 0.06829 0.91469 0.6334 0.0
C978 C 0.0346 0.97432 0.63833 0.0
C979 C 0.0645 0.00484 0.63625 0.0
C980 C 1.01338 0.09947 0.63734 0.0
C981 C 0.98683 0.97797 0.63631 0.0
N982 N 0.048 0.03202 0.63832 0.0
N983 N 1.00334 0.95059 0.63816 0.0
H984 H 0.47579 0.55871 0.13553 0.0
H985 H 0.57512 0.42866 0.13558 0.0
H986 H 0.49448 0.29058 0.13116 0.0
H987 H 0.55647 0.69696 0.13151 0.0
H988 H 0.54566 0.37679 0.13992 0.0
H989 H 0.50524 0.61064 0.14001 0.0
C990 C 0.48606 0.51074 0.13585 0.0
C991 C 0.4827 0.42037 0.13266 0.0
C992 C 0.54803 0.44713 0.13826 0.0
C993 C 0.51641 0.479 0.13762 0.0
C994 C 0.56486 0.47669 0.13593 0.0
C995 C 0.56824 0.5671 0.13288 0.0
C996 C 0.53451 0.5085 0.13767 0.0
C997 C 0.55442 0.62649 0.13334 0.0
C998 C 0.50287 0.54033 0.13826 0.0
C999 C 0.49652 0.36102 0.13309 0.0
N1000 N 0.53819 0.59618 0.13552 0.0
N1001 N 0.51274 0.39135 0.13536 0.0
H1002 H 0.48652 0.5716 0.4202 0.0
H1003 H 0.56939 0.45581 0.3475 0.0
H1004 H 0.48344 0.54057 0.34845 0.0
H1005 H 0.56454 0.40905 0.41854 0.0
H1006 H 0.53916 0.50317 0.34651 0.0
H1007 H 0.51629 0.52587 0.4191 0.0
C1008 C 0.49218 0.55452 0.40419 0.0
C1009 C 0.48257 0.55968 0.38441 0.0
C1010 C 0.54479 0.4826 0.36227 0.0
C1011 C 0.51684 0.50807 0.38285 0.0
C1012 C 0.56201 0.4566 0.36286 0.0
C1013 C 0.56936 0.42837 0.38313 0.0
C1014 C 0.53511 0.4815 0.38217 0.0
C1015 C 0.55929 0.42958 0.40256 0.0
C1016 C 0.50917 0.52839 0.40353 0.0
C1017 C 0.49045 0.53651 0.36406 0.0
N1018 N 0.54277 0.45571 0.4016 0.0
N1019 N 0.50725 0.51232 0.36374 0.0
H1020 H 0.48269 0.45411 0.8466 0.0
H1021 H 0.56622 0.56026 0.91886 0.0
H1022 H 0.48804 0.40162 0.91733 0.0
H1023 H 0.56844 0.54075 0.84681 0.0
H1024 H 0.53651 0.51381 0.91794 0.0
H1025 H 0.51293 0.50068 0.84546 0.0
C1026 C 0.49018 0.45345 0.86186 0.0
C1027 C 0.48297 0.42382 0.88207 0.0
C1028 C 0.54342 0.51888 0.90225 0.0
C1029 C 0.51724 0.4759 0.88095 0.0
C1030 C 0.56038 0.54527 0.90282 0.0
C1031 C 0.5697 0.55393 0.88291 0.0
C1032 C 0.53551 0.50192 0.88154 0.0
C1033 C 0.56162 0.53381 0.86251 0.0
C1034 C 0.50741 0.47898 0.86118 0.0
C1035 C 0.49318 0.4232 0.90138 0.0
N1036 N 0.54486 0.50937 0.86229 0.0
N1037 N 0.50971 0.44882 0.90034 0.0
H1038 H 0.47597 0.42652 0.63539 0.0
H1039 H 0.57526 0.55692 0.63532 0.0
H1040 H 0.49447 0.6947 0.63081 0.0
H1041 H 0.55675 0.28861 0.63132 0.0
H1042 H 0.54576 0.60882 0.6396 0.0
H1043 H 0.50547 0.37483 0.63983 0.0
C1044 C 0.48621 0.47456 0.63564 0.0
C1045 C 0.48277 0.56486 0.63242 0.0
C1046 C 0.54818 0.53848 0.63797 0.0
C1047 C 0.51655 0.5065 0.63734 0.0
C1048 C 0.56502 0.50891 0.63567 0.0
C1049 C 0.56846 0.41848 0.63266 0.0
C1050 C 0.53468 0.47707 0.63739 0.0
C1051 C 0.55466 0.35909 0.63313 0.0
C1052 C 0.50305 0.4451 0.63803 0.0
C1053 C 0.49656 0.62429 0.63277 0.0
N1054 N 0.53842 0.38939 0.63528 0.0
N1055 N 0.51281 0.5941 0.63502 0.0
H1056 H 0.17862 0.8189 0.12754 0.0
H1057 H 0.12492 0.36932 0.13319 0.0
H1058 H 0.12358 0.81021 0.12661 0.0
H1059 H 0.17996 0.37802 0.13377 0.0
H1060 H 0.1242 0.53051 0.13113 0.0
H1061 H 0.17933 0.65773 0.12961 0.0
C1062 C 0.16666 0.7831 0.12765 0.0
C1063 C 0.151 0.82831 0.12689 0.0
C1064 C 0.13644 0.49732 0.13177 0.0
C1065 C 0.15175 0.64318 0.12942 0.0
C1066 C 0.13688 0.40513 0.13301 0.0
C1067 C 0.15254 0.35992 0.13367 0.0
C1068 C 0.15178 0.54506 0.13114 0.0
C1069 C 0.1676 0.41004 0.13334 0.0
C1070 C 0.16709 0.69092 0.1289 0.0
C1071 C 0.13594 0.77819 0.12712 0.0
N1072 N 0.16684 0.49992 0.13205 0.0
N1073 N 0.1367 0.68831 0.12842 0.0
H1074 H 0.928 0.16507 0.12654 0.0
H1075 H 0.8699 0.60214 0.13414 0.0
H1076 H 0.87295 0.16124 0.12791 0.0
H1077 H 0.92496 0.60601 0.13312 0.0
H1078 H 0.87074 0.44025 0.1321 0.0
H1079 H 0.92717 0.32697 0.12859 0.0
C1080 C 0.91575 0.19821 0.12713 0.0
C1081 C 0.90053 0.14943 0.12704 0.0
C1082 C 0.88264 0.47658 0.13238 0.0
C1083 C 0.89947 0.33461 0.12957 0.0
C1084 C 0.88216 0.569 0.13363 0.0
C1085 C 0.89737 0.6178 0.13382 0.0
C1086 C 0.89845 0.43261 0.13129 0.0
C1087 C 0.91289 0.57124 0.13303 0.0
C1088 C 0.91527 0.29065 0.12838 0.0
C1089 C 0.88502 0.196 0.12793 0.0
N1090 N 0.91302 0.48142 0.13176 0.0
N1091 N 0.88489 0.28581 0.1292 0.0
H1092 H 0.17832 0.15955 0.3795 0.0
H1093 H 0.12466 0.61002 0.37439 0.0
H1094 H 0.12329 0.16907 0.38068 0.0
H1095 H 0.1797 0.60035 0.37328 0.0
H1096 H 0.12393 0.44884 0.37639 0.0
H1097 H 0.17904 0.32069 0.37746 0.0
C1098 C 0.16636 0.19552 0.37945 0.0
C1099 C 0.15069 0.15056 0.38028 0.0
C1100 C 0.13618 0.48182 0.37565 0.0
C1101 C 0.15147 0.33568 0.37779 0.0
C1102 C 0.13662 0.57401 0.37445 0.0
C1103 C 0.15229 0.61894 0.37365 0.0
C1104 C 0.1515 0.43381 0.37611 0.0
C1105 C 0.16734 0.56856 0.37382 0.0
C1106 C 0.1668 0.28769 0.37823 0.0
C1107 C 0.13564 0.2009 0.38012 0.0
N1108 N 0.16657 0.47868 0.37507 0.0
N1109 N 0.13641 0.29078 0.37885 0.0
H1110 H 0.92679 0.37033 0.37395 0.0
H1111 H 0.87322 0.82087 0.38032 0.0
H1112 H 0.87175 0.38004 0.37384 0.0
H1113 H 0.92826 0.81123 0.38048 0.0
H1114 H 0.87247 0.65974 0.37821 0.0
H1115 H 0.92755 0.53148 0.37603 0.0
C1116 C 0.91483 0.40635 0.37424 0.0
C1117 C 0.89915 0.36142 0.37371 0.0
C1118 C 0.88472 0.69271 0.37877 0.0
C1119 C 0.89998 0.54656 0.37626 0.0
C1120 C 0.88518 0.78487 0.38003 0.0
C1121 C 0.90085 0.82981 0.38059 0.0
C1122 C 0.90004 0.64469 0.37801 0.0
C1123 C 0.9159 0.77943 0.38013 0.0
C1124 C 0.9153 0.49852 0.37549 0.0
C1125 C 0.88411 0.41183 0.37417 0.0
N1126 N 0.91511 0.68955 0.37882 0.0
N1127 N 0.8849 0.50171 0.37547 0.0
H1128 H 0.87339 0.15917 0.88063 0.0
H1129 H 0.92689 0.60908 0.87363 0.0
H1130 H 0.92843 0.16823 0.8805 0.0
H1131 H 0.87185 0.59999 0.87403 0.0
H1132 H 0.92767 0.44795 0.8758 0.0
H1133 H 0.87262 0.32027 0.87847 0.0
C1134 C 0.88535 0.19503 0.88028 0.0
C1135 C 0.90103 0.14993 0.88076 0.0
C1136 C 0.91541 0.48103 0.87535 0.0
C1137 C 0.90018 0.33505 0.87811 0.0
C1138 C 0.91493 0.5732 0.87405 0.0
C1139 C 0.89925 0.6183 0.87364 0.0
C1140 C 0.9001 0.43317 0.87629 0.0
C1141 C 0.88422 0.56807 0.87426 0.0
C1142 C 0.88487 0.2872 0.87897 0.0
C1143 C 0.91606 0.20016 0.88022 0.0
N1144 N 0.88502 0.47819 0.87561 0.0
N1145 N 0.91527 0.29004 0.87887 0.0
H1146 H 0.18149 0.37888 0.87377 0.0
H1147 H 0.12329 0.81585 0.88049 0.0
H1148 H 0.12643 0.37495 0.87387 0.0
H1149 H 0.17835 0.81978 0.88002 0.0
H1150 H 0.12416 0.65394 0.87844 0.0
H1151 H 0.18062 0.54078 0.87584 0.0
C1152 C 0.16923 0.412 0.87409 0.0
C1153 C 0.15403 0.36319 0.87363 0.0
C1154 C 0.13605 0.6903 0.87884 0.0
C1155 C 0.15291 0.54837 0.87618 0.0
C1156 C 0.13555 0.78273 0.88009 0.0
C1157 C 0.15076 0.83155 0.88043 0.0
C1158 C 0.15186 0.64637 0.87791 0.0
C1159 C 0.16629 0.78501 0.8798 0.0
C1160 C 0.16873 0.50443 0.87535 0.0
C1161 C 0.13849 0.40973 0.87417 0.0
N1162 N 0.16643 0.6952 0.87853 0.0
N1163 N 0.13834 0.49954 0.87546 0.0
H1164 H 0.92884 0.81436 0.62714 0.0
H1165 H 0.87067 0.37804 0.63367 0.0
H1166 H 0.87378 0.81887 0.62732 0.0
H1167 H 0.92574 0.37346 0.63358 0.0
H1168 H 0.87153 0.53991 0.63163 0.0
H1169 H 0.92799 0.65248 0.6292 0.0
C1170 C 0.91659 0.78137 0.62747 0.0
C1171 C 0.90137 0.83034 0.62704 0.0
C1172 C 0.88343 0.50343 0.63212 0.0
C1173 C 0.90028 0.64518 0.62958 0.0
C1174 C 0.88293 0.41101 0.63336 0.0
C1175 C 0.89814 0.36202 0.63381 0.0
C1176 C 0.89924 0.54719 0.6313 0.0
C1177 C 0.91367 0.40838 0.63328 0.0
C1178 C 0.9161 0.68895 0.62873 0.0
C1179 C 0.88585 0.78396 0.6276 0.0
N1180 N 0.91381 0.4982 0.63201 0.0
N1181 N 0.88571 0.69415 0.62888 0.0
H1182 H 0.12252 0.16926 0.62653 0.0
H1183 H 0.18061 0.60571 0.63368 0.0
H1184 H 0.17758 0.16487 0.6273 0.0
H1185 H 0.12555 0.6102 0.63292 0.0
H1186 H 0.17977 0.44383 0.63165 0.0
H1187 H 0.12334 0.33115 0.62858 0.0
C1188 C 0.13477 0.20228 0.62699 0.0
C1189 C 0.14999 0.15334 0.62673 0.0
C1190 C 0.16788 0.48029 0.63199 0.0
C1191 C 0.15105 0.33851 0.62926 0.0
C1192 C 0.16836 0.57272 0.63322 0.0
C1193 C 0.15314 0.62168 0.63348 0.0
C1194 C 0.15207 0.4365 0.63098 0.0
C1195 C 0.13762 0.57529 0.63277 0.0
C1196 C 0.13524 0.2947 0.62824 0.0
C1197 C 0.16551 0.19975 0.62746 0.0
N1198 N 0.13749 0.48547 0.63151 0.0
N1199 N 0.16563 0.28956 0.62873 0.0
H1200 H 0.68034 0.87871 0.13348 0.0
H1201 H 0.62232 0.31608 0.12616 0.0
H1202 H 0.62528 0.87512 0.13253 0.0
H1203 H 0.67738 0.31957 0.12707 0.0
H1204 H 0.62312 0.1542 0.12822 0.0
H1205 H 0.67953 0.04059 0.13146 0.0
C1206 C 0.66809 0.91191 0.13299 0.0
C1207 C 0.65286 0.86319 0.13319 0.0
C1208 C 0.63502 0.19044 0.12791 0.0
C1209 C 0.65183 0.04838 0.13069 0.0
C1210 C 0.63456 0.28286 0.12665 0.0
C1211 C 0.64979 0.33155 0.12643 0.0
C1212 C 0.65082 0.14638 0.12897 0.0
C1213 C 0.6653 0.28489 0.1272 0.0
C1214 C 0.66762 0.00433 0.13175 0.0
C1215 C 0.63735 0.90983 0.13243 0.0
N1216 N 0.66541 0.19508 0.12847 0.0
N1217 N 0.63724 -0.00035 0.13117 0.0
H1218 H 0.37274 0.66194 0.12657 0.0
H1219 H 0.42652 0.11121 0.13282 0.0
H1220 H 0.42778 0.67027 0.12635 0.0
H1221 H 0.37148 0.1028 0.13298 0.0
H1222 H 0.42721 0.95 0.13076 0.0
H1223 H 0.37206 0.82313 0.12866 0.0
C1224 C 0.38471 0.69766 0.12684 0.0
C1225 C 0.40037 0.65236 0.12627 0.0
C1226 C 0.41497 0.98327 0.13131 0.0
C1227 C 0.39964 0.83749 0.12883 0.0
C1228 C 0.41455 0.07547 0.13255 0.0
C1229 C 0.39889 0.12076 0.13309 0.0
C1230 C 0.39963 0.93561 0.13056 0.0
C1231 C 0.38383 0.07072 0.13265 0.0
C1232 C 0.3843 0.78985 0.12809 0.0
C1233 C 0.41543 0.70237 0.12671 0.0
N1234 N 0.38458 0.98083 0.13136 0.0
N1235 N 0.41469 0.79226 0.12801 0.0
H1236 H 0.62562 0.11176 0.37311 0.0
H1237 H 0.67911 0.66109 0.37991 0.0
H1238 H 0.68066 0.1019 0.37346 0.0
H1239 H 0.62407 0.67091 0.37989 0.0
H1240 H 0.67988 0.8222 0.37778 0.0
H1241 H 0.62483 0.95063 0.37524 0.0
C1242 C 0.63757 0.07572 0.3735 0.0
C1243 C 0.65325 0.1206 0.37309 0.0
C1244 C 0.66763 0.78928 0.3783 0.0
C1245 C 0.6524 0.93548 0.3757 0.0
C1246 C 0.66715 0.69712 0.37958 0.0
C1247 C 0.65147 0.65223 0.38009 0.0
C1248 C 0.65232 0.83735 0.37749 0.0
C1249 C 0.63644 0.70267 0.37959 0.0
C1250 C 0.63709 0.98355 0.37479 0.0
C1251 C 0.66828 0.07015 0.37369 0.0
N1252 N 0.63723 0.79254 0.37826 0.0
N1253 N 0.66748 0.98029 0.37502 0.0
H1254 H 0.37062 0.8793 0.37223 0.0
H1255 H 0.4287 0.31544 0.38081 0.0
H1256 H 0.42566 0.8745 0.37426 0.0
H1257 H 0.37367 0.32013 0.3785 0.0
H1258 H 0.42787 0.15353 0.37875 0.0
H1259 H 0.37147 0.04118 0.37427 0.0
C1260 C 0.38287 0.91223 0.37297 0.0
C1261 C 0.39808 0.86317 0.37306 0.0
C1262 C 0.41598 0.19005 0.37876 0.0
C1263 C 0.39916 0.04835 0.37558 0.0
C1264 C 0.41645 0.28248 0.38001 0.0
C1265 C 0.40124 0.33151 0.37985 0.0
C1266 C 0.40018 0.14634 0.37731 0.0
C1267 C 0.38573 0.28518 0.37869 0.0
C1268 C 0.38336 0.00465 0.37421 0.0
C1269 C 0.4136 0.90947 0.37413 0.0
N1270 N 0.38561 0.19537 0.37743 0.0
N1271 N 0.41373 -0.00071 0.37539 0.0
H1272 H 0.37327 0.65922 0.88025 0.0
H1273 H 0.42665 0.10924 0.87221 0.0
H1274 H 0.42831 0.6684 0.87919 0.0
H1275 H 0.37162 0.10004 0.87366 0.0
H1276 H 0.42747 0.94811 0.87439 0.0
H1277 H 0.37246 0.82032 0.87807 0.0
C1278 C 0.38522 0.69511 0.87968 0.0
C1279 C 0.40091 0.65003 0.87991 0.0
C1280 C 0.41521 0.98117 0.87417 0.0
C1281 C 0.40002 0.83516 0.87724 0.0
C1282 C 0.41471 0.07333 0.87285 0.0
C1283 C 0.39902 0.11841 0.87273 0.0
C1284 C 0.39992 0.93328 0.87541 0.0
C1285 C 0.384 0.06814 0.87365 0.0
C1286 C 0.38473 0.78727 0.87838 0.0
C1287 C 0.41593 0.7003 0.87911 0.0
N1288 N 0.38482 0.97827 0.875 0.0
N1289 N 0.41511 0.79018 0.87775 0.0
H1290 H 0.67925 0.32171 0.87987 0.0
H1291 H 0.62572 0.87185 0.87307 0.0
H1292 H 0.62421 0.31273 0.87976 0.0
H1293 H 0.68076 0.88086 0.87348 0.0
H1294 H 0.62495 0.033 0.87518 0.0
H1295 H 0.68001 0.16058 0.87777 0.0
C1296 C 0.66729 0.28586 0.87953 0.0
C1297 C 0.65162 0.33099 0.88 0.0
C1298 C 0.63721 -0.00011 0.87475 0.0
C1299 C 0.65245 0.14585 0.87743 0.0
C1300 C 0.63768 0.90771 0.87347 0.0
C1301 C 0.65336 0.86259 0.87308 0.0
C1302 C 0.65252 0.04773 0.87567 0.0
C1303 C 0.6684 0.9128 0.8737 0.0
C1304 C 0.66776 0.19369 0.87827 0.0
C1305 C 0.63658 0.28078 0.87948 0.0
N1306 N 0.6676 0.00268 0.87501 0.0
N1307 N 0.63737 0.19089 0.87817 0.0
H1308 H 0.42645 0.87344 0.63286 0.0
H1309 H 0.37277 0.32361 0.62641 0.0
H1310 H 0.37141 0.88281 0.63291 0.0
H1311 H 0.42781 0.31435 0.62635 0.0
H1312 H 0.37206 0.16247 0.62852 0.0
H1313 H 0.42717 0.03462 0.63079 0.0
C1314 C 0.41449 0.90939 0.63256 0.0
C1315 C 0.39883 0.86436 0.63308 0.0
C1316 C 0.3843 0.19552 0.62798 0.0
C1317 C 0.3996 0.0495 0.63053 0.0
C1318 C 0.38474 0.28769 0.62671 0.0
C1319 C 0.4004 0.33274 0.62619 0.0
C1320 C 0.39963 0.14762 0.62877 0.0
C1321 C 0.41546 0.28247 0.62667 0.0
C1322 C 0.41493 0.00157 0.63131 0.0
C1323 C 0.38377 0.91467 0.6326 0.0
N1324 N 0.41469 0.19259 0.62799 0.0
N1325 N 0.38454 0.00454 0.6313 0.0
H1326 H 0.67845 0.65933 0.62651 0.0
H1327 H 0.6248 0.10957 0.6331 0.0
H1328 H 0.62341 0.66864 0.62664 0.0
H1329 H 0.67984 0.10016 0.63296 0.0
H1330 H 0.62407 0.94839 0.63104 0.0
H1331 H 0.67917 0.82048 0.62861 0.0
C1332 C 0.66649 0.69526 0.62686 0.0
C1333 C 0.65082 0.65023 0.62639 0.0
C1334 C 0.63631 0.98143 0.63152 0.0
C1335 C 0.6516 0.83536 0.62895 0.0
C1336 C 0.63676 0.07361 0.63276 0.0
C1337 C 0.65243 0.11862 0.63322 0.0
C1338 C 0.65164 0.93348 0.63069 0.0
C1339 C 0.66748 0.0683 0.63269 0.0
C1340 C 0.66693 0.78744 0.62812 0.0
C1341 C 0.63577 0.70052 0.62691 0.0
N1342 N 0.66671 0.97843 0.6314 0.0
N1343 N 0.63653 0.7904 0.62822 0.0
loop_
_geom_bond_atom_site_label_1
_geom_bond_atom_site_label_2
_geom_bond_distance
_geom_bond_site_symmetry_2
_ccdc_geom_bond_type
Co0 N5 2.057 . S
Co0 O17 2.021 . S
Co0 O20 2.062 . S
Co0 O24 2.117 . S
Co0 O25 2.020 1_545 S
C1 O21 1.259 . S
C1 O24 1.258 . S
Co2 N11 2.057 . S
Co2 O18 2.117 . S
Co2 O19 2.020 . S
Co2 O21 2.021 . S
Co2 O26 2.062 1_545 S
C3 N5 1.316 . S
C3 N6 1.347 . S
C3 H8 0.931 . S
C4 N5 1.375 . S
C4 C7 1.350 . S
C4 H9 0.930 . S
N5 Co0 2.057 . S
N5 C3 1.316 . S
N5 C4 1.375 . S
N6 C3 1.347 . S
N6 C7 1.373 . S
C7 C4 1.350 . S
C7 N6 1.373 . S
C7 H28 0.931 . S
H8 C3 0.931 . S
H9 C4 0.930 . S
C10 O17 1.259 . S
C10 O18 1.258 . S
N11 Co2 2.057 . S
N11 C12 1.316 . S
N11 C13 1.375 . S
C12 N11 1.316 . S
C12 N14 1.347 . S
C12 H23 0.931 . S
C13 N11 1.375 . S
C13 C15 1.350 . S
C13 H22 0.930 . S
N14 C12 1.347 . S
N14 C15 1.373 . S
C15 C13 1.350 . S
C15 N14 1.373 . S
C15 H29 0.931 . S
C16 O19 1.256 . S
C16 O20 1.255 . S
O17 Co0 2.021 . S
O17 C10 1.259 . S
O18 Co2 2.117 . S
O18 C10 1.258 . S
O19 Co2 2.020 . S
O19 C16 1.256 . S
O20 Co0 2.062 . S
O20 C16 1.255 . S
O21 C1 1.259 . S
O21 Co2 2.021 . S
H22 C13 0.930 . S
H23 C12 0.931 . S
O24 Co0 2.117 . S
O24 C1 1.258 . S
O25 Co0 2.020 1_565 S
O25 C27 1.256 . S
O26 Co2 2.062 1_565 S
O26 C27 1.255 . S
C27 O25 1.256 . S
C27 O26 1.255 . S
H28 C7 0.931 . S
H29 C15 0.931 . S
Co30 N35 2.057 . S
Co30 O47 2.021 . S
Co30 O50 2.062 . S
Co30 O54 2.117 . S
Co30 O55 2.020 1_565 S
C31 O51 1.259 . S
C31 O54 1.258 . S
Co32 N41 2.057 . S
Co32 O48 2.117 . S
Co32 O49 2.020 . S
Co32 O51 2.021 . S
Co32 O56 2.062 1_565 S
C33 N35 1.316 . S
C33 N36 1.347 . S
C33 H38 0.931 . S
C34 N35 1.375 . S
C34 C37 1.350 . S
C34 H39 0.930 . S
N35 Co30 2.057 . S
N35 C33 1.316 . S
N35 C34 1.375 . S
N36 C33 1.347 . S
N36 C37 1.373 . S
C37 C34 1.350 . S
C37 N36 1.373 . S
C37 H58 0.931 . S
H38 C33 0.931 . S
H39 C34 0.930 . S
C40 O47 1.259 . S
C40 O48 1.258 . S
N41 Co32 2.057 . S
N41 C42 1.316 . S
N41 C43 1.375 . S
C42 N41 1.316 . S
C42 N44 1.347 . S
C42 H53 0.931 . S
C43 N41 1.375 . S
C43 C45 1.350 . S
C43 H52 0.930 . S
N44 C42 1.347 . S
N44 C45 1.373 . S
C45 C43 1.350 . S
C45 N44 1.373 . S
C45 H59 0.931 . S
C46 O49 1.256 . S
C46 O50 1.255 . S
O47 Co30 2.021 . S
O47 C40 1.259 . S
O48 Co32 2.117 . S
O48 C40 1.258 . S
O49 Co32 2.020 . S
O49 C46 1.256 . S
O50 Co30 2.062 . S
O50 C46 1.255 . S
O51 C31 1.259 . S
O51 Co32 2.021 . S
H52 C43 0.930 . S
H53 C42 0.931 . S
O54 Co30 2.117 . S
O54 C31 1.258 . S
O55 Co30 2.020 1_545 S
O55 C57 1.256 . S
O56 Co32 2.062 1_545 S
O56 C57 1.255 . S
C57 O55 1.256 . S
C57 O56 1.255 . S
H58 C37 0.931 . S
H59 C45 0.931 . S
Co60 N65 2.057 . S
Co60 O77 2.021 . S
Co60 O80 2.062 . S
Co60 O84 2.117 . S
Co60 O85 2.020 1_565 S
C61 O81 1.259 . S
C61 O84 1.258 . S
Co62 N71 2.057 . S
Co62 O78 2.117 . S
Co62 O79 2.020 . S
Co62 O81 2.021 . S
Co62 O86 2.062 1_565 S
C63 N65 1.316 . S
C63 N66 1.347 . S
C63 H68 0.931 . S
C64 N65 1.375 . S
C64 C67 1.350 . S
C64 H69 0.930 . S
N65 Co60 2.057 . S
N65 C63 1.316 . S
N65 C64 1.375 . S
N66 C63 1.347 . S
N66 C67 1.373 . S
C67 C64 1.350 . S
C67 N66 1.373 . S
C67 H88 0.931 . S
H68 C63 0.931 . S
H69 C64 0.930 . S
C70 O77 1.259 . S
C70 O78 1.258 . S
N71 Co62 2.057 . S
N71 C72 1.316 . S
N71 C73 1.375 . S
C72 N71 1.316 . S
C72 N74 1.347 . S
C72 H83 0.931 . S
C73 N71 1.375 . S
C73 C75 1.350 . S
C73 H82 0.930 . S
N74 C72 1.347 . S
N74 C75 1.373 . S
C75 C73 1.350 . S
C75 N74 1.373 . S
C75 H89 0.931 . S
C76 O79 1.256 . S
C76 O80 1.255 . S
O77 Co60 2.021 . S
O77 C70 1.259 . S
O78 Co62 2.117 . S
O78 C70 1.258 . S
O79 Co62 2.020 . S
O79 C76 1.256 . S
O80 Co60 2.062 . S
O80 C76 1.255 . S
O81 C61 1.259 . S
O81 Co62 2.021 . S
H82 C73 0.930 . S
H83 C72 0.931 . S
O84 Co60 2.117 . S
O84 C61 1.258 . S
O85 Co60 2.020 1_545 S
O85 C87 1.256 . S
O86 Co62 2.062 1_545 S
O86 C87 1.255 . S
C87 O85 1.256 . S
C87 O86 1.255 . S
H88 C67 0.931 . S
H89 C75 0.931 . S
Co90 N95 2.057 . S
Co90 O107 2.021 . S
Co90 O110 2.062 . S
Co90 O114 2.117 . S
Co90 O115 2.020 1_545 S
C91 O111 1.259 . S
C91 O114 1.258 . S
Co92 N101 2.057 . S
Co92 O108 2.117 . S
Co92 O109 2.020 . S
Co92 O111 2.021 . S
Co92 O116 2.062 1_545 S
C93 N95 1.316 . S
C93 N96 1.347 . S
C93 H98 0.931 . S
C94 N95 1.375 . S
C94 C97 1.350 . S
C94 H99 0.930 . S
N95 Co90 2.057 . S
N95 C93 1.316 . S
N95 C94 1.375 . S
N96 C93 1.347 . S
N96 C97 1.373 . S
C97 C94 1.350 . S
C97 N96 1.373 . S
C97 H118 0.931 . S
H98 C93 0.931 . S
H99 C94 0.930 . S
C100 O107 1.259 . S
C100 O108 1.258 . S
N101 Co92 2.057 . S
N101 C102 1.316 . S
N101 C103 1.375 . S
C102 N101 1.316 . S
C102 N104 1.347 . S
C102 H113 0.931 . S
C103 N101 1.375 . S
C103 C105 1.350 . S
C103 H112 0.930 . S
N104 C102 1.347 . S
N104 C105 1.373 . S
C105 C103 1.350 . S
C105 N104 1.373 . S
C105 H119 0.931 . S
C106 O109 1.256 . S
C106 O110 1.255 . S
O107 Co90 2.021 . S
O107 C100 1.259 . S
O108 Co92 2.117 . S
O108 C100 1.258 . S
O109 Co92 2.020 . S
O109 C106 1.256 . S
O110 Co90 2.062 . S
O110 C106 1.255 . S
O111 C91 1.259 . S
O111 Co92 2.021 . S
H112 C103 0.930 . S
H113 C102 0.931 . S
O114 Co90 2.117 . S
O114 C91 1.258 . S
O115 Co90 2.020 1_565 S
O115 C117 1.256 . S
O116 Co92 2.062 1_565 S
O116 C117 1.255 . S
C117 O115 1.256 . S
C117 O116 1.255 . S
H118 C97 0.931 . S
H119 C105 0.931 . S
Co120 N125 2.057 . S
Co120 O137 2.021 . S
Co120 O140 2.062 1_565 S
Co120 O144 2.117 . S
Co120 O145 2.020 . S
C121 O141 1.259 . S
C121 O144 1.258 . S
Co122 N131 2.057 . S
Co122 O138 2.117 . S
Co122 O139 2.020 1_565 S
Co122 O141 2.021 . S
Co122 O146 2.062 . S
C123 N125 1.316 . S
C123 N126 1.347 . S
C123 H128 0.931 . S
C124 N125 1.375 . S
C124 C127 1.350 . S
C124 H129 0.930 . S
N125 Co120 2.057 . S
N125 C123 1.316 . S
N125 C124 1.375 . S
N126 C123 1.347 . S
N126 C127 1.373 . S
C127 C124 1.350 . S
C127 N126 1.373 . S
C127 H148 0.931 . S
H128 C123 0.931 . S
H129 C124 0.930 . S
C130 O137 1.259 . S
C130 O138 1.258 . S
N131 Co122 2.057 . S
N131 C132 1.316 . S
N131 C133 1.375 . S
C132 N131 1.316 . S
C132 N134 1.347 . S
C132 H143 0.931 . S
C133 N131 1.375 . S
C133 C135 1.350 . S
C133 H142 0.930 . S
N134 C132 1.347 . S
N134 C135 1.373 . S
C135 C133 1.350 . S
C135 N134 1.373 . S
C135 H149 0.931 . S
C136 O139 1.256 . S
C136 O140 1.255 . S
O137 Co120 2.021 . S
O137 C130 1.259 . S
O138 Co122 2.117 . S
O138 C130 1.258 . S
O139 Co122 2.020 1_545 S
O139 C136 1.256 . S
O140 Co120 2.062 1_545 S
O140 C136 1.255 . S
O141 C121 1.259 . S
O141 Co122 2.021 . S
H142 C133 0.930 . S
H143 C132 0.931 . S
O144 Co120 2.117 . S
O144 C121 1.258 . S
O145 Co120 2.020 . S
O145 C147 1.256 . S
O146 Co122 2.062 . S
O146 C147 1.255 . S
C147 O145 1.256 . S
C147 O146 1.255 . S
H148 C127 0.931 . S
H149 C135 0.931 . S
Co150 N155 2.057 . S
Co150 O167 2.021 . S
Co150 O170 2.062 1_545 S
Co150 O174 2.117 . S
Co150 O175 2.020 . S
C151 O171 1.259 . S
C151 O174 1.258 . S
Co152 N161 2.057 . S
Co152 O168 2.117 . S
Co152 O169 2.020 1_545 S
Co152 O171 2.021 . S
Co152 O176 2.062 . S
C153 N155 1.316 . S
C153 N156 1.347 . S
C153 H158 0.931 . S
C154 N155 1.375 . S
C154 C157 1.350 . S
C154 H159 0.930 . S
N155 Co150 2.057 . S
N155 C153 1.316 . S
N155 C154 1.375 . S
N156 C153 1.347 . S
N156 C157 1.373 . S
C157 C154 1.350 . S
C157 N156 1.373 . S
C157 H178 0.931 . S
H158 C153 0.931 . S
H159 C154 0.930 . S
C160 O167 1.259 . S
C160 O168 1.258 . S
N161 Co152 2.057 . S
N161 C162 1.316 . S
N161 C163 1.375 . S
C162 N161 1.316 . S
C162 N164 1.347 . S
C162 H173 0.931 . S
C163 N161 1.375 . S
C163 C165 1.350 . S
C163 H172 0.930 . S
N164 C162 1.347 . S
N164 C165 1.373 . S
C165 C163 1.350 . S
C165 N164 1.373 . S
C165 H179 0.931 . S
C166 O169 1.256 . S
C166 O170 1.255 . S
O167 Co150 2.021 . S
O167 C160 1.259 . S
O168 Co152 2.117 . S
O168 C160 1.258 . S
O169 Co152 2.020 1_565 S
O169 C166 1.256 . S
O170 Co150 2.062 1_565 S
O170 C166 1.255 . S
O171 C151 1.259 . S
O171 Co152 2.021 . S
H172 C163 0.930 . S
H173 C162 0.931 . S
O174 Co150 2.117 . S
O174 C151 1.258 . S
O175 Co150 2.020 . S
O175 C177 1.256 . S
O176 Co152 2.062 . S
O176 C177 1.255 . S
C177 O175 1.256 . S
C177 O176 1.255 . S
H178 C157 0.931 . S
H179 C165 0.931 . S
Co180 N185 2.057 . S
Co180 O197 2.021 . S
Co180 O200 2.062 1_545 S
Co180 O204 2.117 . S
Co180 O205 2.020 . S
C181 O201 1.259 . S
C181 O204 1.258 . S
Co182 N191 2.057 . S
Co182 O198 2.117 . S
Co182 O199 2.020 1_545 S
Co182 O201 2.021 . S
Co182 O206 2.062 . S
C183 N185 1.316 . S
C183 N186 1.347 . S
C183 H188 0.931 . S
C184 N185 1.375 . S
C184 C187 1.350 . S
C184 H189 0.930 . S
N185 Co180 2.057 . S
N185 C183 1.316 . S
N185 C184 1.375 . S
N186 C183 1.347 . S
N186 C187 1.373 . S
C187 C184 1.350 . S
C187 N186 1.373 . S
C187 H208 0.931 . S
H188 C183 0.931 . S
H189 C184 0.930 . S
C190 O197 1.259 . S
C190 O198 1.258 . S
N191 Co182 2.057 . S
N191 C192 1.316 . S
N191 C193 1.375 . S
C192 N191 1.316 . S
C192 N194 1.347 . S
C192 H203 0.931 . S
C193 N191 1.375 . S
C193 C195 1.350 . S
C193 H202 0.930 . S
N194 C192 1.347 . S
N194 C195 1.373 . S
C195 C193 1.350 . S
C195 N194 1.373 . S
C195 H209 0.931 . S
C196 O199 1.256 . S
C196 O200 1.255 . S
O197 Co180 2.021 . S
O197 C190 1.259 . S
O198 Co182 2.117 . S
O198 C190 1.258 . S
O199 Co182 2.020 1_565 S
O199 C196 1.256 . S
O200 Co180 2.062 1_565 S
O200 C196 1.255 . S
O201 C181 1.259 . S
O201 Co182 2.021 . S
H202 C193 0.930 . S
H203 C192 0.931 . S
O204 Co180 2.117 . S
O204 C181 1.258 . S
O205 Co180 2.020 . S
O205 C207 1.256 . S
O206 Co182 2.062 . S
O206 C207 1.255 . S
C207 O205 1.256 . S
C207 O206 1.255 . S
H208 C187 0.931 . S
H209 C195 0.931 . S
Co210 N215 2.057 . S
Co210 O227 2.021 . S
Co210 O230 2.062 1_565 S
Co210 O234 2.117 . S
Co210 O235 2.020 . S
C211 O231 1.259 . S
C211 O234 1.258 . S
Co212 N221 2.057 . S
Co212 O228 2.117 . S
Co212 O229 2.020 1_565 S
Co212 O231 2.021 . S
Co212 O236 2.062 . S
C213 N215 1.316 . S
C213 N216 1.347 . S
C213 H218 0.931 . S
C214 N215 1.375 . S
C214 C217 1.350 . S
C214 H219 0.930 . S
N215 Co210 2.057 . S
N215 C213 1.316 . S
N215 C214 1.375 . S
N216 C213 1.347 . S
N216 C217 1.373 . S
C217 C214 1.350 . S
C217 N216 1.373 . S
C217 H238 0.931 . S
H218 C213 0.931 . S
H219 C214 0.930 . S
C220 O227 1.259 . S
C220 O228 1.258 . S
N221 Co212 2.057 . S
N221 C222 1.316 . S
N221 C223 1.375 . S
C222 N221 1.316 . S
C222 N224 1.347 . S
C222 H233 0.931 . S
C223 N221 1.375 . S
C223 C225 1.350 . S
C223 H232 0.930 . S
N224 C222 1.347 . S
N224 C225 1.373 . S
C225 C223 1.350 . S
C225 N224 1.373 . S
C225 H239 0.931 . S
C226 O229 1.256 . S
C226 O230 1.255 . S
O227 Co210 2.021 . S
O227 C220 1.259 . S
O228 Co212 2.117 . S
O228 C220 1.258 . S
O229 Co212 2.020 1_545 S
O229 C226 1.256 . S
O230 Co210 2.062 1_545 S
O230 C226 1.255 . S
O231 C211 1.259 . S
O231 Co212 2.021 . S
H232 C223 0.930 . S
H233 C222 0.931 . S
O234 Co210 2.117 . S
O234 C211 1.258 . S
O235 Co210 2.020 . S
O235 C237 1.256 . S
O236 Co212 2.062 . S
O236 C237 1.255 . S
C237 O235 1.256 . S
C237 O236 1.255 . S
H238 C217 0.931 . S
H239 C225 0.931 . S
Co240 N245 2.057 . S
Co240 O257 2.021 . S
Co240 O260 2.062 . S
Co240 O264 2.117 . S
Co240 O265 2.020 . S
C241 O261 1.259 . S
C241 O264 1.258 . S
Co242 N251 2.057 . S
Co242 O258 2.117 . S
Co242 O259 2.020 . S
Co242 O261 2.021 . S
Co242 O266 2.062 . S
C243 N245 1.316 . S
C243 N246 1.347 . S
C243 H248 0.931 . S
C244 N245 1.375 . S
C244 C247 1.350 . S
C244 H249 0.930 . S
N245 Co240 2.057 . S
N245 C243 1.316 . S
N245 C244 1.375 . S
N246 C243 1.347 . S
N246 C247 1.373 . S
C247 C244 1.350 . S
C247 N246 1.373 . S
C247 H268 0.931 . S
H248 C243 0.931 . S
H249 C244 0.930 . S
C250 O257 1.259 . S
C250 O258 1.258 . S
N251 Co242 2.057 . S
N251 C252 1.316 . S
N251 C253 1.375 . S
C252 N251 1.316 . S
C252 N254 1.347 . S
C252 H263 0.931 . S
C253 N251 1.375 . S
C253 C255 1.350 . S
C253 H262 0.930 . S
N254 C252 1.347 . S
N254 C255 1.373 . S
C255 C253 1.350 . S
C255 N254 1.373 . S
C255 H269 0.931 . S
C256 O259 1.256 . S
C256 O260 1.255 . S
O257 Co240 2.021 . S
O257 C250 1.259 . S
O258 Co242 2.117 . S
O258 C250 1.258 . S
O259 Co242 2.020 . S
O259 C256 1.256 . S
O260 Co240 2.062 . S
O260 C256 1.255 . S
O261 C241 1.259 . S
O261 Co242 2.021 . S
H262 C253 0.930 . S
H263 C252 0.931 . S
O264 Co240 2.117 . S
O264 C241 1.258 . S
O265 Co240 2.020 . S
O265 C267 1.256 . S
O266 Co242 2.062 . S
O266 C267 1.255 . S
C267 O265 1.256 . S
C267 O266 1.255 . S
H268 C247 0.931 . S
H269 C255 0.931 . S
Co270 N275 2.057 . S
Co270 O287 2.021 . S
Co270 O290 2.062 . S
Co270 O294 2.117 . S
Co270 O295 2.020 . S
C271 O291 1.259 . S
C271 O294 1.258 . S
Co272 N281 2.057 . S
Co272 O288 2.117 . S
Co272 O289 2.020 . S
Co272 O291 2.021 . S
Co272 O296 2.062 . S
C273 N275 1.316 . S
C273 N276 1.347 . S
C273 H278 0.931 . S
C274 N275 1.375 . S
C274 C277 1.350 . S
C274 H279 0.930 . S
N275 Co270 2.057 . S
N275 C273 1.316 . S
N275 C274 1.375 . S
N276 C273 1.347 . S
N276 C277 1.373 . S
C277 C274 1.350 . S
C277 N276 1.373 . S
C277 H298 0.931 . S
H278 C273 0.931 . S
H279 C274 0.930 . S
C280 O287 1.259 . S
C280 O288 1.258 . S
N281 Co272 2.057 . S
N281 C282 1.316 . S
N281 C283 1.375 . S
C282 N281 1.316 . S
C282 N284 1.347 . S
C282 H293 0.931 . S
C283 N281 1.375 . S
C283 C285 1.350 . S
C283 H292 0.930 . S
N284 C282 1.347 . S
N284 C285 1.373 . S
C285 C283 1.350 . S
C285 N284 1.373 . S
C285 H299 0.931 . S
C286 O289 1.256 . S
C286 O290 1.255 . S
O287 Co270 2.021 . S
O287 C280 1.259 . S
O288 Co272 2.117 . S
O288 C280 1.258 . S
O289 Co272 2.020 . S
O289 C286 1.256 . S
O290 Co270 2.062 . S
O290 C286 1.255 . S
O291 C271 1.259 . S
O291 Co272 2.021 . S
H292 C283 0.930 . S
H293 C282 0.931 . S
O294 Co270 2.117 . S
O294 C271 1.258 . S
O295 Co270 2.020 . S
O295 C297 1.256 . S
O296 Co272 2.062 . S
O296 C297 1.255 . S
C297 O295 1.256 . S
C297 O296 1.255 . S
H298 C277 0.931 . S
H299 C285 0.931 . S
Co300 N305 2.057 . S
Co300 O317 2.021 . S
Co300 O320 2.062 . S
Co300 O324 2.117 . S
Co300 O325 2.020 . S
C301 O321 1.259 . S
C301 O324 1.258 . S
Co302 N311 2.057 . S
Co302 O318 2.117 . S
Co302 O319 2.020 . S
Co302 O321 2.021 . S
Co302 O326 2.062 . S
C303 N305 1.316 . S
C303 N306 1.347 . S
C303 H308 0.931 . S
C304 N305 1.375 . S
C304 C307 1.350 . S
C304 H309 0.930 . S
N305 Co300 2.057 . S
N305 C303 1.316 . S
N305 C304 1.375 . S
N306 C303 1.347 . S
N306 C307 1.373 . S
C307 C304 1.350 . S
C307 N306 1.373 . S
C307 H328 0.931 . S
H308 C303 0.931 . S
H309 C304 0.930 . S
C310 O317 1.259 . S
C310 O318 1.258 . S
N311 Co302 2.057 . S
N311 C312 1.316 . S
N311 C313 1.375 . S
C312 N311 1.316 . S
C312 N314 1.347 . S
C312 H323 0.931 . S
C313 N311 1.375 . S
C313 C315 1.350 . S
C313 H322 0.930 . S
N314 C312 1.347 . S
N314 C315 1.373 . S
C315 C313 1.350 . S
C315 N314 1.373 . S
C315 H329 0.931 . S
C316 O319 1.256 . S
C316 O320 1.255 . S
O317 Co300 2.021 . S
O317 C310 1.259 . S
O318 Co302 2.117 . S
O318 C310 1.258 . S
O319 Co302 2.020 . S
O319 C316 1.256 . S
O320 Co300 2.062 . S
O320 C316 1.255 . S
O321 C301 1.259 . S
O321 Co302 2.021 . S
H322 C313 0.930 . S
H323 C312 0.931 . S
O324 Co300 2.117 . S
O324 C301 1.258 . S
O325 Co300 2.020 . S
O325 C327 1.256 . S
O326 Co302 2.062 . S
O326 C327 1.255 . S
C327 O325 1.256 . S
C327 O326 1.255 . S
H328 C307 0.931 . S
H329 C315 0.931 . S
Co330 N335 2.057 . S
Co330 O347 2.021 . S
Co330 O350 2.062 . S
Co330 O354 2.117 . S
Co330 O355 2.020 . S
C331 O351 1.259 . S
C331 O354 1.258 . S
Co332 N341 2.057 . S
Co332 O348 2.117 . S
Co332 O349 2.020 . S
Co332 O351 2.021 . S
Co332 O356 2.062 . S
C333 N335 1.316 . S
C333 N336 1.347 . S
C333 H338 0.931 . S
C334 N335 1.375 . S
C334 C337 1.350 . S
C334 H339 0.930 . S
N335 Co330 2.057 . S
N335 C333 1.316 . S
N335 C334 1.375 . S
N336 C333 1.347 . S
N336 C337 1.373 . S
C337 C334 1.350 . S
C337 N336 1.373 . S
C337 H358 0.931 . S
H338 C333 0.931 . S
H339 C334 0.930 . S
C340 O347 1.259 . S
C340 O348 1.258 . S
N341 Co332 2.057 . S
N341 C342 1.316 . S
N341 C343 1.375 . S
C342 N341 1.316 . S
C342 N344 1.347 . S
C342 H353 0.931 . S
C343 N341 1.375 . S
C343 C345 1.350 . S
C343 H352 0.930 . S
N344 C342 1.347 . S
N344 C345 1.373 . S
C345 C343 1.350 . S
C345 N344 1.373 . S
C345 H359 0.931 . S
C346 O349 1.256 . S
C346 O350 1.255 . S
O347 Co330 2.021 . S
O347 C340 1.259 . S
O348 Co332 2.117 . S
O348 C340 1.258 . S
O349 Co332 2.020 . S
O349 C346 1.256 . S
O350 Co330 2.062 . S
O350 C346 1.255 . S
O351 C331 1.259 . S
O351 Co332 2.021 . S
H352 C343 0.930 . S
H353 C342 0.931 . S
O354 Co330 2.117 . S
O354 C331 1.258 . S
O355 Co330 2.020 . S
O355 C357 1.256 . S
O356 Co332 2.062 . S
O356 C357 1.255 . S
C357 O355 1.256 . S
C357 O356 1.255 . S
H358 C337 0.931 . S
H359 C345 0.931 . S
Co360 N365 2.057 . S
Co360 O377 2.021 . S
Co360 O380 2.062 . S
Co360 O384 2.117 . S
Co360 O385 2.020 . S
C361 O381 1.259 . S
C361 O384 1.258 . S
Co362 N371 2.057 . S
Co362 O378 2.117 . S
Co362 O379 2.020 . S
Co362 O381 2.021 . S
Co362 O386 2.062 . S
C363 N365 1.316 . S
C363 N366 1.347 . S
C363 H368 0.931 . S
C364 N365 1.375 . S
C364 C367 1.350 . S
C364 H369 0.930 . S
N365 Co360 2.057 . S
N365 C363 1.316 . S
N365 C364 1.375 . S
N366 C363 1.347 . S
N366 C367 1.373 . S
C367 C364 1.350 . S
C367 N366 1.373 . S
C367 H388 0.931 . S
H368 C363 0.931 . S
H369 C364 0.930 . S
C370 O377 1.259 . S
C370 O378 1.258 . S
N371 Co362 2.057 . S
N371 C372 1.316 . S
N371 C373 1.375 . S
C372 N371 1.316 . S
C372 N374 1.347 . S
C372 H383 0.931 . S
C373 N371 1.375 . S
C373 C375 1.350 . S
C373 H382 0.930 . S
N374 C372 1.347 . S
N374 C375 1.373 . S
C375 C373 1.350 . S
C375 N374 1.373 . S
C375 H389 0.931 . S
C376 O379 1.256 . S
C376 O380 1.255 . S
O377 Co360 2.021 . S
O377 C370 1.259 . S
O378 Co362 2.117 . S
O378 C370 1.258 . S
O379 Co362 2.020 . S
O379 C376 1.256 . S
O380 Co360 2.062 . S
O380 C376 1.255 . S
O381 C361 1.259 . S
O381 Co362 2.021 . S
H382 C373 0.930 . S
H383 C372 0.931 . S
O384 Co360 2.117 . S
O384 C361 1.258 . S
O385 Co360 2.020 . S
O385 C387 1.256 . S
O386 Co362 2.062 . S
O386 C387 1.255 . S
C387 O385 1.256 . S
C387 O386 1.255 . S
H388 C367 0.931 . S
H389 C375 0.931 . S
Co390 N395 2.057 . S
Co390 O407 2.021 . S
Co390 O410 2.062 . S
Co390 O414 2.117 . S
Co390 O415 2.020 . S
C391 O411 1.259 . S
C391 O414 1.258 . S
Co392 N401 2.057 . S
Co392 O408 2.117 . S
Co392 O409 2.020 . S
Co392 O411 2.021 . S
Co392 O416 2.062 . S
C393 N395 1.316 . S
C393 N396 1.347 . S
C393 H398 0.931 . S
C394 N395 1.375 . S
C394 C397 1.350 . S
C394 H399 0.930 . S
N395 Co390 2.057 . S
N395 C393 1.316 . S
N395 C394 1.375 . S
N396 C393 1.347 . S
N396 C397 1.373 . S
C397 C394 1.350 . S
C397 N396 1.373 . S
C397 H418 0.931 . S
H398 C393 0.931 . S
H399 C394 0.930 . S
C400 O407 1.259 . S
C400 O408 1.258 . S
N401 Co392 2.057 . S
N401 C402 1.316 . S
N401 C403 1.375 . S
C402 N401 1.316 . S
C402 N404 1.347 . S
C402 H413 0.931 . S
C403 N401 1.375 . S
C403 C405 1.350 . S
C403 H412 0.930 . S
N404 C402 1.347 . S
N404 C405 1.373 . S
C405 C403 1.350 . S
C405 N404 1.373 . S
C405 H419 0.931 . S
C406 O409 1.256 . S
C406 O410 1.255 . S
O407 Co390 2.021 . S
O407 C400 1.259 . S
O408 Co392 2.117 . S
O408 C400 1.258 . S
O409 Co392 2.020 . S
O409 C406 1.256 . S
O410 Co390 2.062 . S
O410 C406 1.255 . S
O411 C391 1.259 . S
O411 Co392 2.021 . S
H412 C403 0.930 . S
H413 C402 0.931 . S
O414 Co390 2.117 . S
O414 C391 1.258 . S
O415 Co390 2.020 . S
O415 C417 1.256 . S
O416 Co392 2.062 . S
O416 C417 1.255 . S
C417 O415 1.256 . S
C417 O416 1.255 . S
H418 C397 0.931 . S
H419 C405 0.931 . S
Co420 N425 2.057 . S
Co420 O437 2.021 . S
Co420 O440 2.062 . S
Co420 O444 2.117 . S
Co420 O445 2.020 . S
C421 O441 1.259 . S
C421 O444 1.258 . S
Co422 N431 2.057 . S
Co422 O438 2.117 . S
Co422 O439 2.020 . S
Co422 O441 2.021 . S
Co422 O446 2.062 . S
C423 N425 1.316 . S
C423 N426 1.347 . S
C423 H428 0.931 . S
C424 N425 1.375 . S
C424 C427 1.350 . S
C424 H429 0.930 . S
N425 Co420 2.057 . S
N425 C423 1.316 . S
N425 C424 1.375 . S
N426 C423 1.347 . S
N426 C427 1.373 . S
C427 C424 1.350 . S
C427 N426 1.373 . S
C427 H448 0.931 . S
H428 C423 0.931 . S
H429 C424 0.930 . S
C430 O437 1.259 . S
C430 O438 1.258 . S
N431 Co422 2.057 . S
N431 C432 1.316 . S
N431 C433 1.375 . S
C432 N431 1.316 . S
C432 N434 1.347 . S
C432 H443 0.931 . S
C433 N431 1.375 . S
C433 C435 1.350 . S
C433 H442 0.930 . S
N434 C432 1.347 . S
N434 C435 1.373 . S
C435 C433 1.350 . S
C435 N434 1.373 . S
C435 H449 0.931 . S
C436 O439 1.256 . S
C436 O440 1.255 . S
O437 Co420 2.021 . S
O437 C430 1.259 . S
O438 Co422 2.117 . S
O438 C430 1.258 . S
O439 Co422 2.020 . S
O439 C436 1.256 . S
O440 Co420 2.062 . S
O440 C436 1.255 . S
O441 C421 1.259 . S
O441 Co422 2.021 . S
H442 C433 0.930 . S
H443 C432 0.931 . S
O444 Co420 2.117 . S
O444 C421 1.258 . S
O445 Co420 2.020 . S
O445 C447 1.256 . S
O446 Co422 2.062 . S
O446 C447 1.255 . S
C447 O445 1.256 . S
C447 O446 1.255 . S
H448 C427 0.931 . S
H449 C435 0.931 . S
Co450 N455 2.057 . S
Co450 O467 2.021 . S
Co450 O470 2.062 . S
Co450 O474 2.117 . S
Co450 O475 2.020 . S
C451 O471 1.259 . S
C451 O474 1.258 . S
Co452 N461 2.057 . S
Co452 O468 2.117 . S
Co452 O469 2.020 . S
Co452 O471 2.021 . S
Co452 O476 2.062 . S
C453 N455 1.316 . S
C453 N456 1.347 . S
C453 H458 0.931 . S
C454 N455 1.375 . S
C454 C457 1.350 . S
C454 H459 0.930 . S
N455 Co450 2.057 . S
N455 C453 1.316 . S
N455 C454 1.375 . S
N456 C453 1.347 . S
N456 C457 1.373 . S
C457 C454 1.350 . S
C457 N456 1.373 . S
C457 H478 0.931 . S
H458 C453 0.931 . S
H459 C454 0.930 . S
C460 O467 1.259 . S
C460 O468 1.258 . S
N461 Co452 2.057 . S
N461 C462 1.316 . S
N461 C463 1.375 . S
C462 N461 1.316 . S
C462 N464 1.347 . S
C462 H473 0.931 . S
C463 N461 1.375 . S
C463 C465 1.350 . S
C463 H472 0.930 . S
N464 C462 1.347 . S
N464 C465 1.373 . S
C465 C463 1.350 . S
C465 N464 1.373 . S
C465 H479 0.931 . S
C466 O469 1.256 . S
C466 O470 1.255 . S
O467 Co450 2.021 . S
O467 C460 1.259 . S
O468 Co452 2.117 . S
O468 C460 1.258 . S
O469 Co452 2.020 . S
O469 C466 1.256 . S
O470 Co450 2.062 . S
O470 C466 1.255 . S
O471 C451 1.259 . S
O471 Co452 2.021 . S
H472 C463 0.930 . S
H473 C462 0.931 . S
O474 Co450 2.117 . S
O474 C451 1.258 . S
O475 Co450 2.020 . S
O475 C477 1.256 . S
O476 Co452 2.062 . S
O476 C477 1.255 . S
C477 O475 1.256 . S
C477 O476 1.255 . S
H478 C457 0.931 . S
H479 C465 0.931 . S
H480 C486 0.930 . S
H481 C490 0.930 . S
H482 C495 0.929 . S
H483 C493 0.929 . S
H484 C488 0.929 . S
H485 C494 0.929 . S
C486 H480 0.930 . S
C486 C487 1.367 . S
C486 C494 1.378 . S
C487 C486 1.367 . S
C487 C495 1.433 . S
C488 H484 0.929 . S
C488 C490 1.378 . S
C488 C492 1.350 . S
C489 C492 1.463 . S
C489 C494 1.350 . S
C489 N497 1.427 . S
C490 H481 0.930 . S
C490 C488 1.378 . S
C490 C491 1.367 . S
C491 C490 1.367 . S
C491 C493 1.433 . S
C492 C488 1.350 . S
C492 C489 1.463 . S
C492 N496 1.427 . S
C493 H483 0.929 . S
C493 C491 1.433 . S
C493 N496 1.384 . S
C494 H485 0.929 . S
C494 C486 1.378 . S
C494 C489 1.350 . S
C495 H482 0.929 . S
C495 C487 1.433 . S
C495 N497 1.384 . S
N496 C492 1.427 . S
N496 C493 1.384 . S
N497 C489 1.427 . S
N497 C495 1.384 . S
H498 C504 0.930 . S
H499 C508 0.930 . S
H500 C513 0.929 . S
H501 C511 0.929 . S
H502 C506 0.929 . S
H503 C512 0.929 . S
C504 H498 0.930 . S
C504 C505 1.367 . S
C504 C512 1.378 . S
C505 C504 1.367 . S
C505 C513 1.433 . S
C506 H502 0.929 . S
C506 C508 1.378 . S
C506 C510 1.350 . S
C507 C510 1.463 . S
C507 C512 1.350 . S
C507 N515 1.427 . S
C508 H499 0.930 . S
C508 C506 1.378 . S
C508 C509 1.367 . S
C509 C508 1.367 . S
C509 C511 1.433 . S
C510 C506 1.350 . S
C510 C507 1.463 . S
C510 N514 1.427 . S
C511 H501 0.929 . S
C511 C509 1.433 . S
C511 N514 1.384 . S
C512 H503 0.929 . S
C512 C504 1.378 . S
C512 C507 1.350 . S
C513 H500 0.929 . S
C513 C505 1.433 . S
C513 N515 1.384 . S
N514 C510 1.427 . S
N514 C511 1.384 . S
N515 C507 1.427 . S
N515 C513 1.384 . S
H516 C522 0.930 . S
H517 C526 0.930 . S
H518 C531 0.929 . S
H519 C529 0.929 . S
H520 C524 0.929 . S
H521 C530 0.929 . S
C522 H516 0.930 . S
C522 C523 1.367 . S
C522 C530 1.378 . S
C523 C522 1.367 . S
C523 C531 1.433 . S
C524 H520 0.929 . S
C524 C526 1.378 . S
C524 C528 1.350 . S
C525 C528 1.463 . S
C525 C530 1.350 . S
C525 N533 1.427 . S
C526 H517 0.930 . S
C526 C524 1.378 . S
C526 C527 1.367 . S
C527 C526 1.367 . S
C527 C529 1.433 . S
C528 C524 1.350 . S
C528 C525 1.463 . S
C528 N532 1.427 . S
C529 H519 0.929 . S
C529 C527 1.433 . S
C529 N532 1.384 . S
C530 H521 0.929 . S
C530 C522 1.378 . S
C530 C525 1.350 . S
C531 H518 0.929 . S
C531 C523 1.433 . S
C531 N533 1.384 . S
N532 C528 1.427 . S
N532 C529 1.384 . S
N533 C525 1.427 . S
N533 C531 1.384 . S
H534 C540 0.930 . S
H535 C544 0.930 . S
H536 C549 0.929 . S
H537 C547 0.929 . S
H538 C542 0.929 . S
H539 C548 0.929 . S
C540 H534 0.930 . S
C540 C541 1.367 . S
C540 C548 1.378 . S
C541 C540 1.367 . S
C541 C549 1.433 . S
C542 H538 0.929 . S
C542 C544 1.378 . S
C542 C546 1.350 . S
C543 C546 1.463 . S
C543 C548 1.350 . S
C543 N551 1.427 . S
C544 H535 0.930 . S
C544 C542 1.378 . S
C544 C545 1.367 . S
C545 C544 1.367 . S
C545 C547 1.433 . S
C546 C542 1.350 . S
C546 C543 1.463 . S
C546 N550 1.427 . S
C547 H537 0.929 . S
C547 C545 1.433 . S
C547 N550 1.384 . S
C548 H539 0.929 . S
C548 C540 1.378 . S
C548 C543 1.350 . S
C549 H536 0.929 . S
C549 C541 1.433 . S
C549 N551 1.384 . S
N550 C546 1.427 . S
N550 C547 1.384 . S
N551 C543 1.427 . S
N551 C549 1.384 . S
H552 C558 0.930 . S
H553 C562 0.930 . S
H554 C567 0.929 . S
H555 C565 0.929 . S
H556 C560 0.929 . S
H557 C566 0.929 . S
C558 H552 0.930 . S
C558 C559 1.367 . S
C558 C566 1.378 . S
C559 C558 1.367 . S
C559 C567 1.433 . S
C560 H556 0.929 . S
C560 C562 1.378 . S
C560 C564 1.350 . S
C561 C564 1.463 . S
C561 C566 1.350 . S
C561 N569 1.427 . S
C562 H553 0.930 . S
C562 C560 1.378 . S
C562 C563 1.367 . S
C563 C562 1.367 . S
C563 C565 1.433 . S
C564 C560 1.350 . S
C564 C561 1.463 . S
C564 N568 1.427 . S
C565 H555 0.929 . S
C565 C563 1.433 . S
C565 N568 1.384 . S
C566 H557 0.929 . S
C566 C558 1.378 . S
C566 C561 1.350 . S
C567 H554 0.929 . S
C567 C559 1.433 . S
C567 N569 1.384 . S
N568 C564 1.427 . S
N568 C565 1.384 . S
N569 C561 1.427 . S
N569 C567 1.384 . S
H570 C576 0.930 . S
H571 C580 0.930 . S
H572 C585 0.929 . S
H573 C583 0.929 . S
H574 C578 0.929 . S
H575 C584 0.929 . S
C576 H570 0.930 . S
C576 C577 1.367 . S
C576 C584 1.378 . S
C577 C576 1.367 . S
C577 C585 1.433 . S
C578 H574 0.929 . S
C578 C580 1.378 . S
C578 C582 1.350 . S
C579 C582 1.463 . S
C579 C584 1.350 . S
C579 N587 1.427 . S
C580 H571 0.930 . S
C580 C578 1.378 . S
C580 C581 1.367 . S
C581 C580 1.367 . S
C581 C583 1.433 . S
C582 C578 1.350 . S
C582 C579 1.463 . S
C582 N586 1.427 . S
C583 H573 0.929 . S
C583 C581 1.433 . S
C583 N586 1.384 . S
C584 H575 0.929 . S
C584 C576 1.378 . S
C584 C579 1.350 . S
C585 H572 0.929 . S
C585 C577 1.433 . S
C585 N587 1.384 . S
N586 C582 1.427 . S
N586 C583 1.384 . S
N587 C579 1.427 . S
N587 C585 1.384 . S
H588 C594 0.930 . S
H589 C598 0.930 . S
H590 C603 0.929 . S
H591 C601 0.929 . S
H592 C596 0.929 . S
H593 C602 0.929 . S
C594 H588 0.930 . S
C594 C595 1.367 . S
C594 C602 1.378 . S
C595 C594 1.367 . S
C595 C603 1.433 . S
C596 H592 0.929 . S
C596 C598 1.378 . S
C596 C600 1.350 . S
C597 C600 1.463 . S
C597 C602 1.350 . S
C597 N605 1.427 . S
C598 H589 0.930 . S
C598 C596 1.378 . S
C598 C599 1.367 . S
C599 C598 1.367 . S
C599 C601 1.433 . S
C600 C596 1.350 . S
C600 C597 1.463 . S
C600 N604 1.427 . S
C601 H591 0.929 . S
C601 C599 1.433 . S
C601 N604 1.384 . S
C602 H593 0.929 . S
C602 C594 1.378 . S
C602 C597 1.350 . S
C603 H590 0.929 . S
C603 C595 1.433 . S
C603 N605 1.384 . S
N604 C600 1.427 . S
N604 C601 1.384 . S
N605 C597 1.427 . S
N605 C603 1.384 . S
H606 C612 0.930 . S
H607 C616 0.930 . S
H608 C621 0.929 . S
H609 C619 0.929 . S
H610 C614 0.929 . S
H611 C620 0.929 . S
C612 H606 0.930 . S
C612 C613 1.367 . S
C612 C620 1.378 . S
C613 C612 1.367 . S
C613 C621 1.433 . S
C614 H610 0.929 . S
C614 C616 1.378 . S
C614 C618 1.350 . S
C615 C618 1.463 . S
C615 C620 1.350 . S
C615 N623 1.427 . S
C616 H607 0.930 . S
C616 C614 1.378 . S
C616 C617 1.367 . S
C617 C616 1.367 . S
C617 C619 1.433 . S
C618 C614 1.350 . S
C618 C615 1.463 . S
C618 N622 1.427 . S
C619 H609 0.929 . S
C619 C617 1.433 . S
C619 N622 1.384 . S
C620 H611 0.929 . S
C620 C612 1.378 . S
C620 C615 1.350 . S
C621 H608 0.929 . S
C621 C613 1.433 . S
C621 N623 1.384 . S
N622 C618 1.427 . S
N622 C619 1.384 . S
N623 C615 1.427 . S
N623 C621 1.384 . S
H624 C630 0.930 . S
H625 C634 0.930 . S
H626 C639 0.929 . S
H627 C637 0.929 . S
H628 C632 0.929 . S
H629 C638 0.929 . S
C630 H624 0.930 . S
C630 C631 1.367 . S
C630 C638 1.378 . S
C631 C630 1.367 . S
C631 C639 1.433 1_565 S
C632 H628 0.929 . S
C632 C634 1.378 . S
C632 C636 1.350 . S
C633 C636 1.463 1_565 S
C633 C638 1.350 . S
C633 N641 1.427 1_565 S
C634 H625 0.930 . S
C634 C632 1.378 . S
C634 C635 1.367 . S
C635 C634 1.367 . S
C635 C637 1.433 1_545 S
C636 C632 1.350 . S
C636 C633 1.463 1_545 S
C636 N640 1.427 1_545 S
C637 H627 0.929 . S
C637 C635 1.433 1_565 S
C637 N640 1.384 . S
C638 H629 0.929 . S
C638 C630 1.378 . S
C638 C633 1.350 . S
C639 H626 0.929 . S
C639 C631 1.433 1_545 S
C639 N641 1.384 . S
N640 C636 1.427 1_565 S
N640 C637 1.384 . S
N641 C633 1.427 1_545 S
N641 C639 1.384 . S
H642 C648 0.930 . S
H643 C652 0.930 . S
H644 C657 0.928 1_565 S
H645 C655 0.928 1_545 S
H646 C650 0.929 . S
H647 C656 0.929 . S
C648 H642 0.930 . S
C648 C649 1.367 . S
C648 C656 1.378 . S
C649 C648 1.367 . S
C649 C657 1.435 . S
C650 H646 0.929 . S
C650 C652 1.378 . S
C650 C654 1.350 . S
C651 C654 1.463 1_545 S
C651 C656 1.350 . S
C651 N659 1.427 1_545 S
C652 H643 0.930 . S
C652 C650 1.378 . S
C652 C653 1.367 . S
C653 C652 1.367 . S
C653 C655 1.435 . S
C654 C650 1.350 . S
C654 C651 1.463 1_565 S
C654 N658 1.427 1_565 S
C655 H645 0.928 1_565 S
C655 C653 1.435 . S
C655 N658 1.383 1_565 S
C656 H647 0.929 . S
C656 C648 1.378 . S
C656 C651 1.350 . S
C657 H644 0.928 1_545 S
C657 C649 1.435 . S
C657 N659 1.383 1_545 S
N658 C654 1.427 1_545 S
N658 C655 1.383 1_545 S
N659 C651 1.427 1_565 S
N659 C657 1.383 1_565 S
H660 C666 0.930 . S
H661 C670 0.930 . S
H662 C675 0.929 . S
H663 C673 0.929 . S
H664 C668 0.929 . S
H665 C674 0.929 . S
C666 H660 0.930 . S
C666 C667 1.367 . S
C666 C674 1.378 1_545 S
C667 C666 1.367 . S
C667 C675 1.433 . S
C668 H664 0.929 . S
C668 C670 1.378 1_545 S
C668 C672 1.350 1_545 S
C669 C672 1.463 1_545 S
C669 C674 1.350 1_545 S
C669 N677 1.427 . S
C670 H661 0.930 . S
C670 C668 1.378 1_565 S
C670 C671 1.367 . S
C671 C670 1.367 . S
C671 C673 1.433 . S
C672 C668 1.350 1_565 S
C672 C669 1.463 1_565 S
C672 N676 1.427 . S
C673 H663 0.929 . S
C673 C671 1.433 . S
C673 N676 1.384 . S
C674 H665 0.929 . S
C674 C666 1.378 1_565 S
C674 C669 1.350 1_565 S
C675 H662 0.929 . S
C675 C667 1.433 . S
C675 N677 1.384 . S
N676 C672 1.427 . S
N676 C673 1.384 . S
N677 C669 1.427 . S
N677 C675 1.384 . S
H678 C684 0.930 . S
H679 C688 0.930 . S
H680 C693 0.929 . S
H681 C691 0.929 . S
H682 C686 0.929 . S
H683 C692 0.929 . S
C684 H678 0.930 . S
C684 C685 1.367 . S
C684 C692 1.378 . S
C685 C684 1.367 . S
C685 C693 1.433 1_545 S
C686 H682 0.929 . S
C686 C688 1.378 . S
C686 C690 1.350 . S
C687 C690 1.463 1_545 S
C687 C692 1.350 . S
C687 N695 1.427 1_545 S
C688 H679 0.930 . S
C688 C686 1.378 . S
C688 C689 1.367 . S
C689 C688 1.367 . S
C689 C691 1.433 1_565 S
C690 C686 1.350 . S
C690 C687 1.463 1_565 S
C690 N694 1.427 1_565 S
C691 H681 0.929 . S
C691 C689 1.433 1_545 S
C691 N694 1.384 . S
C692 H683 0.929 . S
C692 C684 1.378 . S
C692 C687 1.350 . S
C693 H680 0.929 . S
C693 C685 1.433 1_565 S
C693 N695 1.384 . S
N694 C690 1.427 1_545 S
N694 C691 1.384 . S
N695 C687 1.427 1_565 S
N695 C693 1.384 . S
H696 C702 0.930 . S
H697 C706 0.930 . S
H698 C711 0.929 . S
H699 C709 0.929 . S
H700 C704 0.929 . S
H701 C710 0.929 . S
C702 H696 0.930 . S
C702 C703 1.367 . S
C702 C710 1.378 . S
C703 C702 1.367 . S
C703 C711 1.433 . S
C704 H700 0.929 . S
C704 C706 1.378 . S
C704 C708 1.350 . S
C705 C708 1.463 . S
C705 C710 1.350 . S
C705 N713 1.427 . S
C706 H697 0.930 . S
C706 C704 1.378 . S
C706 C707 1.367 . S
C707 C706 1.367 . S
C707 C709 1.433 . S
C708 C704 1.350 . S
C708 C705 1.463 . S
C708 N712 1.427 . S
C709 H699 0.929 . S
C709 C707 1.433 . S
C709 N712 1.384 . S
C710 H701 0.929 . S
C710 C702 1.378 . S
C710 C705 1.350 . S
C711 H698 0.929 . S
C711 C703 1.433 . S
C711 N713 1.384 . S
N712 C708 1.427 . S
N712 C709 1.384 . S
N713 C705 1.427 . S
N713 C711 1.384 . S
H714 C720 0.930 . S
H715 C724 0.930 . S
H716 C729 0.929 . S
H717 C727 0.929 . S
H718 C722 0.929 . S
H719 C728 0.929 . S
C720 H714 0.930 . S
C720 C721 1.367 . S
C720 C728 1.378 . S
C721 C720 1.367 . S
C721 C729 1.433 . S
C722 H718 0.929 . S
C722 C724 1.378 . S
C722 C726 1.350 . S
C723 C726 1.463 . S
C723 C728 1.350 . S
C723 N731 1.427 . S
C724 H715 0.930 . S
C724 C722 1.378 . S
C724 C725 1.367 . S
C725 C724 1.367 . S
C725 C727 1.433 . S
C726 C722 1.350 . S
C726 C723 1.463 . S
C726 N730 1.427 . S
C727 H717 0.929 . S
C727 C725 1.433 . S
C727 N730 1.384 . S
C728 H719 0.929 . S
C728 C720 1.378 . S
C728 C723 1.350 . S
C729 H716 0.929 . S
C729 C721 1.433 . S
C729 N731 1.384 . S
N730 C726 1.427 . S
N730 C727 1.384 . S
N731 C723 1.427 . S
N731 C729 1.384 . S
H732 C738 0.930 . S
H733 C742 0.930 . S
H734 C747 0.929 . S
H735 C745 0.929 . S
H736 C740 0.929 . S
H737 C746 0.929 . S
C738 H732 0.930 . S
C738 C739 1.367 . S
C738 C746 1.378 . S
C739 C738 1.367 . S
C739 C747 1.433 . S
C740 H736 0.929 . S
C740 C742 1.378 . S
C740 C744 1.350 . S
C741 C744 1.463 . S
C741 C746 1.350 . S
C741 N749 1.427 . S
C742 H733 0.930 . S
C742 C740 1.378 . S
C742 C743 1.367 . S
C743 C742 1.367 . S
C743 C745 1.433 . S
C744 C740 1.350 . S
C744 C741 1.463 . S
C744 N748 1.427 . S
C745 H735 0.929 . S
C745 C743 1.433 . S
C745 N748 1.384 . S
C746 H737 0.929 . S
C746 C738 1.378 . S
C746 C741 1.350 . S
C747 H734 0.929 . S
C747 C739 1.433 . S
C747 N749 1.384 . S
N748 C744 1.427 . S
N748 C745 1.384 . S
N749 C741 1.427 . S
N749 C747 1.384 . S
H750 C756 0.930 . S
H751 C760 0.930 . S
H752 C765 0.929 . S
H753 C763 0.929 . S
H754 C758 0.929 . S
H755 C764 0.929 . S
C756 H750 0.930 . S
C756 C757 1.367 . S
C756 C764 1.378 . S
C757 C756 1.367 . S
C757 C765 1.433 . S
C758 H754 0.929 . S
C758 C760 1.378 . S
C758 C762 1.350 . S
C759 C762 1.463 . S
C759 C764 1.350 . S
C759 N767 1.427 . S
C760 H751 0.930 . S
C760 C758 1.378 . S
C760 C761 1.367 . S
C761 C760 1.367 . S
C761 C763 1.433 . S
C762 C758 1.350 . S
C762 C759 1.463 . S
C762 N766 1.427 . S
C763 H753 0.929 . S
C763 C761 1.433 . S
C763 N766 1.384 . S
C764 H755 0.929 . S
C764 C756 1.378 . S
C764 C759 1.350 . S
C765 H752 0.929 . S
C765 C757 1.433 . S
C765 N767 1.384 . S
N766 C762 1.427 . S
N766 C763 1.384 . S
N767 C759 1.427 . S
N767 C765 1.384 . S
H768 C774 0.930 1_565 S
H769 C778 0.930 . S
H770 C783 0.929 . S
H771 C781 0.929 1_565 S
H772 C776 0.929 . S
H773 C782 0.929 1_565 S
C774 H768 0.930 1_545 S
C774 C775 1.367 . S
C774 C782 1.378 . S
C775 C774 1.367 . S
C775 C783 1.433 . S
C776 H772 0.929 . S
C776 C778 1.378 . S
C776 C780 1.350 . S
C777 C780 1.463 1_556 S
C777 C782 1.350 . S
C777 N785 1.427 . S
C778 H769 0.930 . S
C778 C776 1.378 . S
C778 C779 1.367 . S
C779 C778 1.367 . S
C779 C781 1.433 . S
C780 C776 1.350 . S
C780 C777 1.463 1_554 S
C780 N784 1.427 . S
C781 H771 0.929 1_545 S
C781 C779 1.433 . S
C781 N784 1.384 . S
C782 H773 0.929 1_545 S
C782 C774 1.378 . S
C782 C777 1.350 . S
C783 H770 0.929 . S
C783 C775 1.433 . S
C783 N785 1.384 . S
N784 C780 1.427 . S
N784 C781 1.384 . S
N785 C777 1.427 . S
N785 C783 1.384 . S
H786 C792 0.930 . S
H787 C796 0.930 1_545 S
H788 C801 0.929 1_545 S
H789 C799 0.929 . S
H790 C794 0.929 1_545 S
H791 C800 0.929 . S
C792 H786 0.930 . S
C792 C793 1.367 . S
C792 C800 1.378 . S
C793 C792 1.367 . S
C793 C801 1.433 . S
C794 H790 0.929 1_565 S
C794 C796 1.378 . S
C794 C798 1.350 . S
C795 C798 1.463 1_556 S
C795 C800 1.350 . S
C795 N803 1.427 . S
C796 H787 0.930 1_565 S
C796 C794 1.378 . S
C796 C797 1.367 . S
C797 C796 1.367 . S
C797 C799 1.433 . S
C798 C794 1.350 . S
C798 C795 1.463 1_554 S
C798 N802 1.427 . S
C799 H789 0.929 . S
C799 C797 1.433 . S
C799 N802 1.384 . S
C800 H791 0.929 . S
C800 C792 1.378 . S
C800 C795 1.350 . S
C801 H788 0.929 1_565 S
C801 C793 1.433 . S
C801 N803 1.384 . S
N802 C798 1.427 . S
N802 C799 1.384 . S
N803 C795 1.427 . S
N803 C801 1.384 . S
H804 C810 0.930 . S
H805 C814 0.930 1_545 S
H806 C819 0.929 1_545 S
H807 C817 0.929 . S
H808 C812 0.929 1_545 S
H809 C818 0.929 . S
C810 H804 0.930 . S
C810 C811 1.367 . S
C810 C818 1.378 . S
C811 C810 1.367 . S
C811 C819 1.433 . S
C812 H808 0.929 1_565 S
C812 C814 1.378 . S
C812 C816 1.350 . S
C813 C816 1.463 . S
C813 C818 1.350 . S
C813 N821 1.427 . S
C814 H805 0.930 1_565 S
C814 C812 1.378 . S
C814 C815 1.367 . S
C815 C814 1.367 . S
C815 C817 1.433 . S
C816 C812 1.350 . S
C816 C813 1.463 . S
C816 N820 1.427 . S
C817 H807 0.929 . S
C817 C815 1.433 . S
C817 N820 1.384 . S
C818 H809 0.929 . S
C818 C810 1.378 . S
C818 C813 1.350 . S
C819 H806 0.929 1_565 S
C819 C811 1.433 . S
C819 N821 1.384 . S
N820 C816 1.427 . S
N820 C817 1.384 . S
N821 C813 1.427 . S
N821 C819 1.384 . S
H822 C828 0.930 . S
H823 C832 0.930 . S
H824 C837 0.929 . S
H825 C835 0.929 . S
H826 C830 0.929 . S
H827 C836 0.929 . S
C828 H822 0.930 . S
C828 C829 1.367 . S
C828 C836 1.378 . S
C829 C828 1.367 . S
C829 C837 1.433 . S
C830 H826 0.929 . S
C830 C832 1.378 . S
C830 C834 1.350 . S
C831 C834 1.463 . S
C831 C836 1.350 . S
C831 N839 1.427 . S
C832 H823 0.930 . S
C832 C830 1.378 . S
C832 C833 1.367 . S
C833 C832 1.367 . S
C833 C835 1.433 . S
C834 C830 1.350 . S
C834 C831 1.463 . S
C834 N838 1.427 . S
C835 H825 0.929 . S
C835 C833 1.433 . S
C835 N838 1.384 . S
C836 H827 0.929 . S
C836 C828 1.378 . S
C836 C831 1.350 . S
C837 H824 0.929 . S
C837 C829 1.433 . S
C837 N839 1.384 . S
N838 C834 1.427 . S
N838 C835 1.384 . S
N839 C831 1.427 . S
N839 C837 1.384 . S
H840 C846 0.930 . S
H841 C850 0.930 . S
H842 C855 0.929 . S
H843 C853 0.929 . S
H844 C848 0.929 . S
H845 C854 0.929 . S
C846 H840 0.930 . S
C846 C847 1.367 . S
C846 C854 1.378 . S
C847 C846 1.367 . S
C847 C855 1.433 . S
C848 H844 0.929 . S
C848 C850 1.378 . S
C848 C852 1.350 . S
C849 C852 1.463 1_554 S
C849 C854 1.350 . S
C849 N857 1.427 . S
C850 H841 0.930 . S
C850 C848 1.378 . S
C850 C851 1.367 . S
C851 C850 1.367 . S
C851 C853 1.433 . S
C852 C848 1.350 . S
C852 C849 1.463 1_556 S
C852 N856 1.427 . S
C853 H843 0.929 . S
C853 C851 1.433 . S
C853 N856 1.384 . S
C854 H845 0.929 . S
C854 C846 1.378 . S
C854 C849 1.350 . S
C855 H842 0.929 . S
C855 C847 1.433 . S
C855 N857 1.384 . S
N856 C852 1.427 . S
N856 C853 1.384 . S
N857 C849 1.427 . S
N857 C855 1.384 . S
H858 C864 0.930 . S
H859 C868 0.930 . S
H860 C873 0.929 . S
H861 C871 0.929 . S
H862 C866 0.929 . S
H863 C872 0.929 . S
C864 H858 0.930 . S
C864 C865 1.367 . S
C864 C872 1.378 . S
C865 C864 1.367 . S
C865 C873 1.433 . S
C866 H862 0.929 . S
C866 C868 1.378 . S
C866 C870 1.350 . S
C867 C870 1.463 1_556 S
C867 C872 1.350 . S
C867 N875 1.427 . S
C868 H859 0.930 . S
C868 C866 1.378 . S
C868 C869 1.367 . S
C869 C868 1.367 . S
C869 C871 1.433 . S
C870 C866 1.350 . S
C870 C867 1.463 1_554 S
C870 N874 1.427 . S
C871 H861 0.929 . S
C871 C869 1.433 . S
C871 N874 1.384 . S
C872 H863 0.929 . S
C872 C864 1.378 . S
C872 C867 1.350 . S
C873 H860 0.929 . S
C873 C865 1.433 . S
C873 N875 1.384 . S
N874 C870 1.427 . S
N874 C871 1.384 . S
N875 C867 1.427 . S
N875 C873 1.384 . S
H876 C882 0.930 . S
H877 C886 0.930 . S
H878 C891 0.929 . S
H879 C889 0.929 . S
H880 C884 0.929 . S
H881 C890 0.929 . S
C882 H876 0.930 . S
C882 C883 1.367 . S
C882 C890 1.378 . S
C883 C882 1.367 . S
C883 C891 1.433 . S
C884 H880 0.929 . S
C884 C886 1.378 . S
C884 C888 1.350 . S
C885 C888 1.463 . S
C885 C890 1.350 . S
C885 N893 1.427 . S
C886 H877 0.930 . S
C886 C884 1.378 . S
C886 C887 1.367 . S
C887 C886 1.367 . S
C887 C889 1.433 . S
C888 C884 1.350 . S
C888 C885 1.463 . S
C888 N892 1.427 . S
C889 H879 0.929 . S
C889 C887 1.433 . S
C889 N892 1.384 . S
C890 H881 0.929 . S
C890 C882 1.378 . S
C890 C885 1.350 . S
C891 H878 0.929 . S
C891 C883 1.433 . S
C891 N893 1.384 . S
N892 C888 1.427 . S
N892 C889 1.384 . S
N893 C885 1.427 . S
N893 C891 1.384 . S
H894 C900 0.930 . S
H895 C904 0.930 . S
H896 C909 0.929 . S
H897 C907 0.929 . S
H898 C902 0.929 . S
H899 C908 0.929 . S
C900 H894 0.930 . S
C900 C901 1.367 . S
C900 C908 1.378 . S
C901 C900 1.367 . S
C901 C909 1.433 . S
C902 H898 0.929 . S
C902 C904 1.378 . S
C902 C906 1.350 . S
C903 C906 1.463 . S
C903 C908 1.350 . S
C903 N911 1.427 . S
C904 H895 0.930 . S
C904 C902 1.378 . S
C904 C905 1.367 . S
C905 C904 1.367 . S
C905 C907 1.433 . S
C906 C902 1.350 . S
C906 C903 1.463 . S
C906 N910 1.427 . S
C907 H897 0.929 . S
C907 C905 1.433 . S
C907 N910 1.384 . S
C908 H899 0.929 . S
C908 C900 1.378 . S
C908 C903 1.350 . S
C909 H896 0.929 . S
C909 C901 1.433 . S
C909 N911 1.384 . S
N910 C906 1.427 . S
N910 C907 1.384 . S
N911 C903 1.427 . S
N911 C909 1.384 . S
H912 C918 0.930 . S
H913 C922 0.930 . S
H914 C927 0.929 . S
H915 C925 0.929 . S
H916 C920 0.929 . S
H917 C926 0.929 . S
C918 H912 0.930 . S
C918 C919 1.367 . S
C918 C926 1.378 . S
C919 C918 1.367 . S
C919 C927 1.433 1_565 S
C920 H916 0.929 . S
C920 C922 1.378 . S
C920 C924 1.350 . S
C921 C924 1.463 1_665 S
C921 C926 1.350 . S
C921 N929 1.427 1_565 S
C922 H913 0.930 . S
C922 C920 1.378 . S
C922 C923 1.367 . S
C923 C922 1.367 . S
C923 C925 1.433 1_545 S
C924 C920 1.350 . S
C924 C921 1.463 1_445 S
C924 N928 1.427 1_545 S
C925 H915 0.929 . S
C925 C923 1.433 1_565 S
C925 N928 1.384 . S
C926 H917 0.929 . S
C926 C918 1.378 . S
C926 C921 1.350 . S
C927 H914 0.929 . S
C927 C919 1.433 1_545 S
C927 N929 1.384 . S
N928 C924 1.427 1_565 S
N928 C925 1.384 . S
N929 C921 1.427 1_545 S
N929 C927 1.384 . S
H930 C936 0.930 . S
H931 C940 0.930 . S
H932 C945 0.929 . S
H933 C943 0.929 . S
H934 C938 0.929 . S
H935 C944 0.929 . S
C936 H930 0.930 . S
C936 C937 1.367 . S
C936 C944 1.378 . S
C937 C936 1.367 . S
C937 C945 1.433 1_545 S
C938 H934 0.929 . S
C938 C940 1.378 . S
C938 C942 1.350 . S
C939 C942 1.463 1_645 S
C939 C944 1.350 . S
C939 N947 1.427 1_545 S
C940 H931 0.930 . S
C940 C938 1.378 . S
C940 C941 1.367 . S
C941 C940 1.367 . S
C941 C943 1.433 1_565 S
C942 C938 1.350 . S
C942 C939 1.463 1_465 S
C942 N946 1.427 1_565 S
C943 H933 0.929 . S
C943 C941 1.433 1_545 S
C943 N946 1.384 . S
C944 H935 0.929 . S
C944 C936 1.378 . S
C944 C939 1.350 . S
C945 H932 0.929 . S
C945 C937 1.433 1_565 S
C945 N947 1.384 . S
N946 C942 1.427 1_545 S
N946 C943 1.384 . S
N947 C939 1.427 1_565 S
N947 C945 1.384 . S
H948 C954 0.930 . S
H949 C958 0.930 . S
H950 C963 0.929 . S
H951 C961 0.929 . S
H952 C956 0.929 . S
H953 C962 0.929 . S
C954 H948 0.930 . S
C954 C955 1.367 . S
C954 C962 1.378 . S
C955 C954 1.367 . S
C955 C963 1.433 . S
C956 H952 0.929 . S
C956 C958 1.378 . S
C956 C960 1.350 . S
C957 C960 1.463 1_445 S
C957 C962 1.350 . S
C957 N965 1.427 . S
C958 H949 0.930 . S
C958 C956 1.378 . S
C958 C959 1.367 . S
C959 C958 1.367 . S
C959 C961 1.433 . S
C960 C956 1.350 . S
C960 C957 1.463 1_665 S
C960 N964 1.427 . S
C961 H951 0.929 . S
C961 C959 1.433 . S
C961 N964 1.384 . S
C962 H953 0.929 . S
C962 C954 1.378 . S
C962 C957 1.350 . S
C963 H950 0.929 . S
C963 C955 1.433 . S
C963 N965 1.384 . S
N964 C960 1.427 . S
N964 C961 1.384 . S
N965 C957 1.427 . S
N965 C963 1.384 . S
H966 C972 0.930 . S
H967 C976 0.930 . S
H968 C981 0.929 . S
H969 C979 0.929 . S
H970 C974 0.929 . S
H971 C980 0.929 . S
C972 H966 0.930 . S
C972 C973 1.367 . S
C972 C980 1.378 . S
C973 C972 1.367 . S
C973 C981 1.433 1_545 S
C974 H970 0.929 . S
C974 C976 1.378 . S
C974 C978 1.350 . S
C975 C978 1.463 1_645 S
C975 C980 1.350 . S
C975 N983 1.427 1_545 S
C976 H967 0.930 . S
C976 C974 1.378 . S
C976 C977 1.367 . S
C977 C976 1.367 . S
C977 C979 1.433 1_565 S
C978 C974 1.350 . S
C978 C975 1.463 1_465 S
C978 N982 1.427 1_565 S
C979 H969 0.929 . S
C979 C977 1.433 1_545 S
C979 N982 1.384 . S
C980 H971 0.929 . S
C980 C972 1.378 . S
C980 C975 1.350 . S
C981 H968 0.929 . S
C981 C973 1.433 1_565 S
C981 N983 1.384 . S
N982 C978 1.427 1_545 S
N982 C979 1.384 . S
N983 C975 1.427 1_565 S
N983 C981 1.384 . S
H984 C990 0.930 . S
H985 C994 0.930 . S
H986 C999 0.929 . S
H987 C997 0.929 . S
H988 C992 0.929 . S
H989 C998 0.929 . S
C990 H984 0.930 . S
C990 C991 1.367 . S
C990 C998 1.378 . S
C991 C990 1.367 . S
C991 C999 1.433 . S
C992 H988 0.929 . S
C992 C994 1.378 . S
C992 C996 1.350 . S
C993 C996 1.463 . S
C993 C998 1.350 . S
C993 N1001 1.427 . S
C994 H985 0.930 . S
C994 C992 1.378 . S
C994 C995 1.367 . S
C995 C994 1.367 . S
C995 C997 1.433 . S
C996 C992 1.350 . S
C996 C993 1.463 . S
C996 N1000 1.427 . S
C997 H987 0.929 . S
C997 C995 1.433 . S
C997 N1000 1.384 . S
C998 H989 0.929 . S
C998 C990 1.378 . S
C998 C993 1.350 . S
C999 H986 0.929 . S
C999 C991 1.433 . S
C999 N1001 1.384 . S
N1000 C996 1.427 . S
N1000 C997 1.384 . S
N1001 C993 1.427 . S
N1001 C999 1.384 . S
H1002 C1008 0.930 . S
H1003 C1012 0.930 . S
H1004 C1017 0.929 . S
H1005 C1015 0.929 . S
H1006 C1010 0.929 . S
H1007 C1016 0.929 . S
C1008 H1002 0.930 . S
C1008 C1009 1.367 . S
C1008 C1016 1.378 . S
C1009 C1008 1.367 . S
C1009 C1017 1.433 . S
C1010 H1006 0.929 . S
C1010 C1012 1.378 . S
C1010 C1014 1.350 . S
C1011 C1014 1.463 . S
C1011 C1016 1.350 . S
C1011 N1019 1.427 . S
C1012 H1003 0.930 . S
C1012 C1010 1.378 . S
C1012 C1013 1.367 . S
C1013 C1012 1.367 . S
C1013 C1015 1.433 . S
C1014 C1010 1.350 . S
C1014 C1011 1.463 . S
C1014 N1018 1.427 . S
C1015 H1005 0.929 . S
C1015 C1013 1.433 . S
C1015 N1018 1.384 . S
C1016 H1007 0.929 . S
C1016 C1008 1.378 . S
C1016 C1011 1.350 . S
C1017 H1004 0.929 . S
C1017 C1009 1.433 . S
C1017 N1019 1.384 . S
N1018 C1014 1.427 . S
N1018 C1015 1.384 . S
N1019 C1011 1.427 . S
N1019 C1017 1.384 . S
H1020 C1026 0.930 . S
H1021 C1030 0.930 . S
H1022 C1035 0.929 . S
H1023 C1033 0.929 . S
H1024 C1028 0.929 . S
H1025 C1034 0.929 . S
C1026 H1020 0.930 . S
C1026 C1027 1.367 . S
C1026 C1034 1.378 . S
C1027 C1026 1.367 . S
C1027 C1035 1.433 . S
C1028 H1024 0.929 . S
C1028 C1030 1.378 . S
C1028 C1032 1.350 . S
C1029 C1032 1.463 . S
C1029 C1034 1.350 . S
C1029 N1037 1.427 . S
C1030 H1021 0.930 . S
C1030 C1028 1.378 . S
C1030 C1031 1.367 . S
C1031 C1030 1.367 . S
C1031 C1033 1.433 . S
C1032 C1028 1.350 . S
C1032 C1029 1.463 . S
C1032 N1036 1.427 . S
C1033 H1023 0.929 . S
C1033 C1031 1.433 . S
C1033 N1036 1.384 . S
C1034 H1025 0.929 . S
C1034 C1026 1.378 . S
C1034 C1029 1.350 . S
C1035 H1022 0.929 . S
C1035 C1027 1.433 . S
C1035 N1037 1.384 . S
N1036 C1032 1.427 . S
N1036 C1033 1.384 . S
N1037 C1029 1.427 . S
N1037 C1035 1.384 . S
H1038 C1044 0.930 . S
H1039 C1048 0.930 . S
H1040 C1053 0.929 . S
H1041 C1051 0.929 . S
H1042 C1046 0.929 . S
H1043 C1052 0.929 . S
C1044 H1038 0.930 . S
C1044 C1045 1.367 . S
C1044 C1052 1.378 . S
C1045 C1044 1.367 . S
C1045 C1053 1.433 . S
C1046 H1042 0.929 . S
C1046 C1048 1.378 . S
C1046 C1050 1.350 . S
C1047 C1050 1.463 . S
C1047 C1052 1.350 . S
C1047 N1055 1.427 . S
C1048 H1039 0.930 . S
C1048 C1046 1.378 . S
C1048 C1049 1.367 . S
C1049 C1048 1.367 . S
C1049 C1051 1.433 . S
C1050 C1046 1.350 . S
C1050 C1047 1.463 . S
C1050 N1054 1.427 . S
C1051 H1041 0.929 . S
C1051 C1049 1.433 . S
C1051 N1054 1.384 . S
C1052 H1043 0.929 . S
C1052 C1044 1.378 . S
C1052 C1047 1.350 . S
C1053 H1040 0.929 . S
C1053 C1045 1.433 . S
C1053 N1055 1.384 . S
N1054 C1050 1.427 . S
N1054 C1051 1.384 . S
N1055 C1047 1.427 . S
N1055 C1053 1.384 . S
H1056 C1062 0.930 . S
H1057 C1066 0.930 . S
H1058 C1071 0.929 . S
H1059 C1069 0.929 . S
H1060 C1064 0.929 . S
H1061 C1070 0.929 . S
C1062 H1056 0.930 . S
C1062 C1063 1.367 . S
C1062 C1070 1.378 . S
C1063 C1062 1.367 . S
C1063 C1071 1.433 . S
C1064 H1060 0.929 . S
C1064 C1066 1.378 . S
C1064 C1068 1.350 . S
C1065 C1068 1.463 . S
C1065 C1070 1.350 . S
C1065 N1073 1.427 . S
C1066 H1057 0.930 . S
C1066 C1064 1.378 . S
C1066 C1067 1.367 . S
C1067 C1066 1.367 . S
C1067 C1069 1.433 . S
C1068 C1064 1.350 . S
C1068 C1065 1.463 . S
C1068 N1072 1.427 . S
C1069 H1059 0.929 . S
C1069 C1067 1.433 . S
C1069 N1072 1.384 . S
C1070 H1061 0.929 . S
C1070 C1062 1.378 . S
C1070 C1065 1.350 . S
C1071 H1058 0.929 . S
C1071 C1063 1.433 . S
C1071 N1073 1.384 . S
N1072 C1068 1.427 . S
N1072 C1069 1.384 . S
N1073 C1065 1.427 . S
N1073 C1071 1.384 . S
H1074 C1080 0.930 . S
H1075 C1084 0.930 . S
H1076 C1089 0.929 . S
H1077 C1087 0.929 . S
H1078 C1082 0.929 . S
H1079 C1088 0.929 . S
C1080 H1074 0.930 . S
C1080 C1081 1.367 . S
C1080 C1088 1.378 . S
C1081 C1080 1.367 . S
C1081 C1089 1.433 . S
C1082 H1078 0.929 . S
C1082 C1084 1.378 . S
C1082 C1086 1.350 . S
C1083 C1086 1.463 . S
C1083 C1088 1.350 . S
C1083 N1091 1.427 . S
C1084 H1075 0.930 . S
C1084 C1082 1.378 . S
C1084 C1085 1.367 . S
C1085 C1084 1.367 . S
C1085 C1087 1.433 . S
C1086 C1082 1.350 . S
C1086 C1083 1.463 . S
C1086 N1090 1.427 . S
C1087 H1077 0.929 . S
C1087 C1085 1.433 . S
C1087 N1090 1.384 . S
C1088 H1079 0.929 . S
C1088 C1080 1.378 . S
C1088 C1083 1.350 . S
C1089 H1076 0.929 . S
C1089 C1081 1.433 . S
C1089 N1091 1.384 . S
N1090 C1086 1.427 . S
N1090 C1087 1.384 . S
N1091 C1083 1.427 . S
N1091 C1089 1.384 . S
H1092 C1098 0.930 . S
H1093 C1102 0.930 . S
H1094 C1107 0.929 . S
H1095 C1105 0.929 . S
H1096 C1100 0.929 . S
H1097 C1106 0.929 . S
C1098 H1092 0.930 . S
C1098 C1099 1.367 . S
C1098 C1106 1.378 . S
C1099 C1098 1.367 . S
C1099 C1107 1.433 . S
C1100 H1096 0.929 . S
C1100 C1102 1.378 . S
C1100 C1104 1.350 . S
C1101 C1104 1.463 . S
C1101 C1106 1.350 . S
C1101 N1109 1.427 . S
C1102 H1093 0.930 . S
C1102 C1100 1.378 . S
C1102 C1103 1.367 . S
C1103 C1102 1.367 . S
C1103 C1105 1.433 . S
C1104 C1100 1.350 . S
C1104 C1101 1.463 . S
C1104 N1108 1.427 . S
C1105 H1095 0.929 . S
C1105 C1103 1.433 . S
C1105 N1108 1.384 . S
C1106 H1097 0.929 . S
C1106 C1098 1.378 . S
C1106 C1101 1.350 . S
C1107 H1094 0.929 . S
C1107 C1099 1.433 . S
C1107 N1109 1.384 . S
N1108 C1104 1.427 . S
N1108 C1105 1.384 . S
N1109 C1101 1.427 . S
N1109 C1107 1.384 . S
H1110 C1116 0.930 . S
H1111 C1120 0.930 . S
H1112 C1125 0.929 . S
H1113 C1123 0.929 . S
H1114 C1118 0.929 . S
H1115 C1124 0.929 . S
C1116 H1110 0.930 . S
C1116 C1117 1.367 . S
C1116 C1124 1.378 . S
C1117 C1116 1.367 . S
C1117 C1125 1.433 . S
C1118 H1114 0.929 . S
C1118 C1120 1.378 . S
C1118 C1122 1.350 . S
C1119 C1122 1.463 . S
C1119 C1124 1.350 . S
C1119 N1127 1.427 . S
C1120 H1111 0.930 . S
C1120 C1118 1.378 . S
C1120 C1121 1.367 . S
C1121 C1120 1.367 . S
C1121 C1123 1.433 . S
C1122 C1118 1.350 . S
C1122 C1119 1.463 . S
C1122 N1126 1.427 . S
C1123 H1113 0.929 . S
C1123 C1121 1.433 . S
C1123 N1126 1.384 . S
C1124 H1115 0.929 . S
C1124 C1116 1.378 . S
C1124 C1119 1.350 . S
C1125 H1112 0.929 . S
C1125 C1117 1.433 . S
C1125 N1127 1.384 . S
N1126 C1122 1.427 . S
N1126 C1123 1.384 . S
N1127 C1119 1.427 . S
N1127 C1125 1.384 . S
H1128 C1134 0.930 . S
H1129 C1138 0.930 . S
H1130 C1143 0.929 . S
H1131 C1141 0.929 . S
H1132 C1136 0.929 . S
H1133 C1142 0.929 . S
C1134 H1128 0.930 . S
C1134 C1135 1.367 . S
C1134 C1142 1.378 . S
C1135 C1134 1.367 . S
C1135 C1143 1.433 . S
C1136 H1132 0.929 . S
C1136 C1138 1.378 . S
C1136 C1140 1.350 . S
C1137 C1140 1.463 . S
C1137 C1142 1.350 . S
C1137 N1145 1.427 . S
C1138 H1129 0.930 . S
C1138 C1136 1.378 . S
C1138 C1139 1.367 . S
C1139 C1138 1.367 . S
C1139 C1141 1.433 . S
C1140 C1136 1.350 . S
C1140 C1137 1.463 . S
C1140 N1144 1.427 . S
C1141 H1131 0.929 . S
C1141 C1139 1.433 . S
C1141 N1144 1.384 . S
C1142 H1133 0.929 . S
C1142 C1134 1.378 . S
C1142 C1137 1.350 . S
C1143 H1130 0.929 . S
C1143 C1135 1.433 . S
C1143 N1145 1.384 . S
N1144 C1140 1.427 . S
N1144 C1141 1.384 . S
N1145 C1137 1.427 . S
N1145 C1143 1.384 . S
H1146 C1152 0.930 . S
H1147 C1156 0.930 . S
H1148 C1161 0.929 . S
H1149 C1159 0.929 . S
H1150 C1154 0.929 . S
H1151 C1160 0.929 . S
C1152 H1146 0.930 . S
C1152 C1153 1.367 . S
C1152 C1160 1.378 . S
C1153 C1152 1.367 . S
C1153 C1161 1.433 . S
C1154 H1150 0.929 . S
C1154 C1156 1.378 . S
C1154 C1158 1.350 . S
C1155 C1158 1.463 . S
C1155 C1160 1.350 . S
C1155 N1163 1.427 . S
C1156 H1147 0.930 . S
C1156 C1154 1.378 . S
C1156 C1157 1.367 . S
C1157 C1156 1.367 . S
C1157 C1159 1.433 . S
C1158 C1154 1.350 . S
C1158 C1155 1.463 . S
C1158 N1162 1.427 . S
C1159 H1149 0.929 . S
C1159 C1157 1.433 . S
C1159 N1162 1.384 . S
C1160 H1151 0.929 . S
C1160 C1152 1.378 . S
C1160 C1155 1.350 . S
C1161 H1148 0.929 . S
C1161 C1153 1.433 . S
C1161 N1163 1.384 . S
N1162 C1158 1.427 . S
N1162 C1159 1.384 . S
N1163 C1155 1.427 . S
N1163 C1161 1.384 . S
H1164 C1170 0.930 . S
H1165 C1174 0.930 . S
H1166 C1179 0.929 . S
H1167 C1177 0.929 . S
H1168 C1172 0.929 . S
H1169 C1178 0.929 . S
C1170 H1164 0.930 . S
C1170 C1171 1.367 . S
C1170 C1178 1.378 . S
C1171 C1170 1.367 . S
C1171 C1179 1.433 . S
C1172 H1168 0.929 . S
C1172 C1174 1.378 . S
C1172 C1176 1.350 . S
C1173 C1176 1.463 . S
C1173 C1178 1.350 . S
C1173 N1181 1.427 . S
C1174 H1165 0.930 . S
C1174 C1172 1.378 . S
C1174 C1175 1.367 . S
C1175 C1174 1.367 . S
C1175 C1177 1.433 . S
C1176 C1172 1.350 . S
C1176 C1173 1.463 . S
C1176 N1180 1.427 . S
C1177 H1167 0.929 . S
C1177 C1175 1.433 . S
C1177 N1180 1.384 . S
C1178 H1169 0.929 . S
C1178 C1170 1.378 . S
C1178 C1173 1.350 . S
C1179 H1166 0.929 . S
C1179 C1171 1.433 . S
C1179 N1181 1.384 . S
N1180 C1176 1.427 . S
N1180 C1177 1.384 . S
N1181 C1173 1.427 . S
N1181 C1179 1.384 . S
H1182 C1188 0.930 . S
H1183 C1192 0.930 . S
H1184 C1197 0.929 . S
H1185 C1195 0.929 . S
H1186 C1190 0.929 . S
H1187 C1196 0.929 . S
C1188 H1182 0.930 . S
C1188 C1189 1.367 . S
C1188 C1196 1.378 . S
C1189 C1188 1.367 . S
C1189 C1197 1.433 . S
C1190 H1186 0.929 . S
C1190 C1192 1.378 . S
C1190 C1194 1.350 . S
C1191 C1194 1.463 . S
C1191 C1196 1.350 . S
C1191 N1199 1.427 . S
C1192 H1183 0.930 . S
C1192 C1190 1.378 . S
C1192 C1193 1.367 . S
C1193 C1192 1.367 . S
C1193 C1195 1.433 . S
C1194 C1190 1.350 . S
C1194 C1191 1.463 . S
C1194 N1198 1.427 . S
C1195 H1185 0.929 . S
C1195 C1193 1.433 . S
C1195 N1198 1.384 . S
C1196 H1187 0.929 . S
C1196 C1188 1.378 . S
C1196 C1191 1.350 . S
C1197 H1184 0.929 . S
C1197 C1189 1.433 . S
C1197 N1199 1.384 . S
N1198 C1194 1.427 . S
N1198 C1195 1.384 . S
N1199 C1191 1.427 . S
N1199 C1197 1.384 . S
H1200 C1206 0.930 . S
H1201 C1210 0.930 . S
H1202 C1215 0.929 . S
H1203 C1213 0.929 . S
H1204 C1208 0.929 . S
H1205 C1214 0.931 . S
C1206 H1200 0.930 . S
C1206 C1207 1.367 . S
C1206 C1214 1.373 1_565 S
C1207 C1206 1.367 . S
C1207 C1215 1.433 . S
C1208 H1204 0.929 . S
C1208 C1210 1.378 . S
C1208 C1212 1.350 . S
C1209 C1212 1.463 . S
C1209 C1214 1.352 . S
C1209 N1217 1.427 1_545 S
C1210 H1201 0.930 . S
C1210 C1208 1.378 . S
C1210 C1211 1.367 . S
C1211 C1210 1.367 . S
C1211 C1213 1.433 . S
C1212 C1208 1.350 . S
C1212 C1209 1.463 . S
C1212 N1216 1.427 . S
C1213 H1203 0.929 . S
C1213 C1211 1.433 . S
C1213 N1216 1.384 . S
C1214 H1205 0.931 . S
C1214 C1206 1.373 1_545 S
C1214 C1209 1.352 . S
C1215 H1202 0.929 . S
C1215 C1207 1.433 . S
C1215 N1217 1.384 . S
N1216 C1212 1.427 . S
N1216 C1213 1.384 . S
N1217 C1209 1.427 1_565 S
N1217 C1215 1.384 . S
H1218 C1224 0.930 . S
H1219 C1228 0.930 . S
H1220 C1233 0.929 . S
H1221 C1231 0.929 . S
H1222 C1226 0.926 1_565 S
H1223 C1232 0.929 . S
C1224 H1218 0.930 . S
C1224 C1225 1.367 . S
C1224 C1232 1.378 . S
C1225 C1224 1.367 . S
C1225 C1233 1.433 . S
C1226 H1222 0.926 1_545 S
C1226 C1228 1.383 . S
C1226 C1230 1.347 1_545 S
C1227 C1230 1.463 . S
C1227 C1232 1.350 . S
C1227 N1235 1.427 . S
C1228 H1219 0.930 . S
C1228 C1226 1.383 . S
C1228 C1229 1.367 . S
C1229 C1228 1.367 . S
C1229 C1231 1.433 . S
C1230 C1226 1.347 1_565 S
C1230 C1227 1.463 . S
C1230 N1234 1.422 1_565 S
C1231 H1221 0.929 . S
C1231 C1229 1.433 . S
C1231 N1234 1.395 . S
C1232 H1223 0.929 . S
C1232 C1224 1.378 . S
C1232 C1227 1.350 . S
C1233 H1220 0.929 . S
C1233 C1225 1.433 . S
C1233 N1235 1.384 . S
N1234 C1230 1.422 1_545 S
N1234 C1231 1.395 . S
N1235 C1227 1.427 . S
N1235 C1233 1.384 . S
H1236 C1242 0.930 . S
H1237 C1246 0.930 . S
H1238 C1251 0.929 . S
H1239 C1249 0.929 . S
H1240 C1244 0.929 . S
H1241 C1250 0.929 1_565 S
C1242 H1236 0.930 . S
C1242 C1243 1.367 . S
C1242 C1250 1.378 . S
C1243 C1242 1.367 . S
C1243 C1251 1.433 . S
C1244 H1240 0.929 . S
C1244 C1246 1.378 . S
C1244 C1248 1.350 . S
C1245 C1248 1.463 . S
C1245 C1250 1.350 1_565 S
C1245 N1253 1.427 1_565 S
C1246 H1237 0.930 . S
C1246 C1244 1.378 . S
C1246 C1247 1.367 . S
C1247 C1246 1.367 . S
C1247 C1249 1.433 . S
C1248 C1244 1.350 . S
C1248 C1245 1.463 . S
C1248 N1252 1.427 . S
C1249 H1239 0.929 . S
C1249 C1247 1.433 . S
C1249 N1252 1.384 . S
C1250 H1241 0.929 1_545 S
C1250 C1242 1.378 . S
C1250 C1245 1.350 1_545 S
C1251 H1238 0.929 . S
C1251 C1243 1.433 . S
C1251 N1253 1.385 . S
N1252 C1248 1.427 . S
N1252 C1249 1.384 . S
N1253 C1245 1.427 1_545 S
N1253 C1251 1.385 . S
H1254 C1260 0.930 . S
H1255 C1264 0.930 . S
H1256 C1269 0.929 . S
H1257 C1267 0.929 . S
H1258 C1262 0.929 . S
H1259 C1268 0.929 . S
C1260 H1254 0.930 . S
C1260 C1261 1.367 . S
C1260 C1268 1.376 1_565 S
C1261 C1260 1.367 . S
C1261 C1269 1.433 . S
C1262 H1258 0.929 . S
C1262 C1264 1.378 . S
C1262 C1266 1.350 . S
C1263 C1266 1.463 . S
C1263 C1268 1.351 . S
C1263 N1271 1.427 1_545 S
C1264 H1255 0.930 . S
C1264 C1262 1.378 . S
C1264 C1265 1.367 . S
C1265 C1264 1.367 . S
C1265 C1267 1.433 . S
C1266 C1262 1.350 . S
C1266 C1263 1.463 . S
C1266 N1270 1.427 . S
C1267 H1257 0.929 . S
C1267 C1265 1.433 . S
C1267 N1270 1.384 . S
C1268 H1259 0.929 . S
C1268 C1260 1.376 1_545 S
C1268 C1263 1.351 . S
C1269 H1256 0.929 . S
C1269 C1261 1.433 . S
C1269 N1271 1.384 . S
N1270 C1266 1.427 . S
N1270 C1267 1.384 . S
N1271 C1263 1.427 1_565 S
N1271 C1269 1.384 . S
H1272 C1278 0.930 . S
H1273 C1282 0.930 . S
H1274 C1287 0.929 . S
H1275 C1285 0.929 . S
H1276 C1280 0.929 . S
H1277 C1286 0.929 . S
C1278 H1272 0.930 . S
C1278 C1279 1.367 . S
C1278 C1286 1.378 . S
C1279 C1278 1.367 . S
C1279 C1287 1.433 . S
C1280 H1276 0.929 . S
C1280 C1282 1.378 1_565 S
C1280 C1284 1.350 . S
C1281 C1284 1.463 . S
C1281 C1286 1.350 . S
C1281 N1289 1.427 . S
C1282 H1273 0.930 . S
C1282 C1280 1.378 1_545 S
C1282 C1283 1.367 . S
C1283 C1282 1.367 . S
C1283 C1285 1.433 . S
C1284 C1280 1.350 . S
C1284 C1281 1.463 . S
C1284 N1288 1.427 1_565 S
C1285 H1275 0.929 . S
C1285 C1283 1.433 . S
C1285 N1288 1.384 . S
C1286 H1277 0.929 . S
C1286 C1278 1.378 . S
C1286 C1281 1.350 . S
C1287 H1274 0.929 . S
C1287 C1279 1.433 . S
C1287 N1289 1.384 . S
N1288 C1284 1.427 1_545 S
N1288 C1285 1.384 . S
N1289 C1281 1.427 . S
N1289 C1287 1.384 . S
H1290 C1296 0.930 . S
H1291 C1300 0.930 . S
H1292 C1305 0.929 . S
H1293 C1303 0.929 . S
H1294 C1298 0.928 1_545 S
H1295 C1304 0.929 . S
C1296 H1290 0.930 . S
C1296 C1297 1.367 . S
C1296 C1304 1.378 . S
C1297 C1296 1.367 . S
C1297 C1305 1.433 . S
C1298 H1294 0.928 1_565 S
C1298 C1300 1.379 . S
C1298 C1302 1.349 1_565 S
C1299 C1302 1.463 . S
C1299 C1304 1.350 . S
C1299 N1307 1.427 . S
C1300 H1291 0.930 . S
C1300 C1298 1.379 . S
C1300 C1301 1.367 . S
C1301 C1300 1.367 . S
C1301 C1303 1.433 . S
C1302 C1298 1.349 1_545 S
C1302 C1299 1.463 . S
C1302 N1306 1.427 1_545 S
C1303 H1293 0.929 . S
C1303 C1301 1.433 . S
C1303 N1306 1.384 . S
C1304 H1295 0.929 . S
C1304 C1296 1.378 . S
C1304 C1299 1.350 . S
C1305 H1292 0.929 . S
C1305 C1297 1.433 . S
C1305 N1307 1.384 . S
N1306 C1302 1.427 1_565 S
N1306 C1303 1.384 . S
N1307 C1299 1.427 . S
N1307 C1305 1.384 . S
H1308 C1314 0.930 . S
H1309 C1318 0.930 . S
H1310 C1323 0.929 . S
H1311 C1321 0.929 . S
H1312 C1316 0.929 . S
H1313 C1322 0.931 . S
C1314 H1308 0.930 . S
C1314 C1315 1.367 . S
C1314 C1322 1.372 1_565 S
C1315 C1314 1.367 . S
C1315 C1323 1.433 . S
C1316 H1312 0.929 . S
C1316 C1318 1.378 . S
C1316 C1320 1.350 . S
C1317 C1320 1.463 . S
C1317 C1322 1.352 . S
C1317 N1325 1.427 1_545 S
C1318 H1309 0.930 . S
C1318 C1316 1.378 . S
C1318 C1319 1.367 . S
C1319 C1318 1.367 . S
C1319 C1321 1.433 . S
C1320 C1316 1.350 . S
C1320 C1317 1.463 . S
C1320 N1324 1.427 . S
C1321 H1311 0.929 . S
C1321 C1319 1.433 . S
C1321 N1324 1.384 . S
C1322 H1313 0.931 . S
C1322 C1314 1.372 1_545 S
C1322 C1317 1.352 . S
C1323 H1310 0.929 . S
C1323 C1315 1.433 . S
C1323 N1325 1.384 . S
N1324 C1320 1.427 . S
N1324 C1321 1.384 . S
N1325 C1317 1.427 1_565 S
N1325 C1323 1.384 . S
H1326 C1332 0.930 . S
H1327 C1336 0.930 . S
H1328 C1341 0.929 . S
H1329 C1339 0.929 . S
H1330 C1334 0.923 1_565 S
H1331 C1340 0.929 . S
C1332 H1326 0.930 . S
C1332 C1333 1.367 . S
C1332 C1340 1.378 . S
C1333 C1332 1.367 . S
C1333 C1341 1.433 . S
C1334 H1330 0.923 1_545 S
C1334 C1336 1.389 . S
C1334 C1338 1.345 1_545 S
C1335 C1338 1.463 . S
C1335 C1340 1.350 . S
C1335 N1343 1.427 . S
C1336 H1327 0.930 . S
C1336 C1334 1.389 . S
C1336 C1337 1.367 . S
C1337 C1336 1.367 . S
C1337 C1339 1.433 . S
C1338 C1334 1.345 1_565 S
C1338 C1335 1.463 . S
C1338 N1342 1.425 1_565 S
C1339 H1329 0.929 . S
C1339 C1337 1.433 . S
C1339 N1342 1.389 . S
C1340 H1331 0.929 . S
C1340 C1332 1.378 . S
C1340 C1335 1.350 . S
C1341 H1328 0.929 . S
C1341 C1333 1.433 . S
C1341 N1343 1.384 . S
N1342 C1338 1.425 1_545 S
N1342 C1339 1.389 . S
N1343 C1335 1.427 . S
N1343 C1341 1.384 . S
C487 N6 1.510 . S
C491 N276 1.501 . S
C505 N36 1.506 . S
C509 N246 1.501 . S
C523 N336 1.510 . S
C527 N66 1.500 . S
C541 N96 1.500 . S
C545 N306 1.508 . S
C559 N404 1.509 . S
C563 N134 1.503 . S
C577 N374 1.501 . S
C581 N164 1.510 . S
C595 N464 1.508 . S
C599 N194 1.500 . S
C613 N224 1.500 . S
C617 N434 1.508 . S
C631 C61 1.552 . S
C635 C1 1.554 . S
C649 C91 1.551 . S
C653 C31 1.554 . S
C667 C190 1.552 . S
C671 C130 1.549 . S
C685 C160 1.554 . S
C689 C220 1.553 . S
C703 C301 1.551 . S
C707 C241 1.549 . S
C721 C331 1.551 . S
C725 C271 1.554 . S
C739 C370 1.551 . S
C743 C430 1.549 . S
C757 C400 1.553 . S
C761 C460 1.549 . S
C775 C151 1.523 . S
C779 C10 1.525 . S
C793 C121 1.527 . S
C797 C40 1.522 . S
C811 C70 1.525 . S
C815 C211 1.524 . S
C829 C181 1.527 . S
C833 C100 1.522 . S
C847 C250 1.525 . S
C851 C391 1.524 . S
C865 C361 1.527 . S
C869 C280 1.522 . S
C883 C310 1.526 . S
C887 C451 1.523 . S
C901 C421 1.527 . S
C905 C340 1.522 . S
C919 N44 1.464 . S
C923 N14 1.474 . S
C937 N104 1.469 . S
C941 N74 1.464 . S
C955 N156 1.465 . S
C959 N126 1.475 . S
C973 N186 1.472 . S
C977 N216 1.463 . S
C991 N284 1.477 . S
C995 N254 1.471 . S
C1009 N344 1.465 . S
C1013 N314 1.475 . S
C1027 N366 1.476 . S
C1031 N396 1.465 . S
C1045 N426 1.477 . S
C1049 N456 1.469 . S
C1063 C27 1.382 . S
C1067 C16 1.382 . S
C1081 C57 1.383 . S
C1085 C46 1.383 . S
C1099 C87 1.382 . S
C1103 C76 1.382 . S
C1117 C106 1.383 . S
C1121 C117 1.383 . S
C1135 C136 1.382 . S
C1139 C147 1.382 . S
C1153 C177 1.382 . S
C1157 C166 1.382 . S
C1171 C196 1.383 . S
C1175 C207 1.383 . S
C1189 C226 1.383 . S
C1193 C237 1.383 . S
C1207 C256 1.384 . S
C1211 C267 1.384 . S
C1225 C297 1.382 . S
C1229 C286 1.382 . S
C1243 C316 1.382 . S
C1247 C327 1.382 . S
C1261 C346 1.383 . S
C1265 C357 1.383 . S
C1279 C376 1.384 . S
C1283 C387 1.384 . S
C1297 C406 1.383 . S
C1301 C417 1.383 . S
C1315 C447 1.383 . S
C1319 C436 1.383 . S
C1333 C466 1.382 . S
C1337 C477 1.382 . S
