# Generated by pormake.
# Topology wfz, (7)-cn, num edge types: 1
# Building blocks:
#     Node 0, Type 0, BuildingBlock: HICVOG_clean_sbu_0, # of connection points: 7
#     Node 1, Type 0, BuildingBlock: HICVOG_clean_sbu_0, # of connection points: 7
#     Node 2, Type 0, BuildingBlock: HICVOG_clean_sbu_0, # of connection points: 7
#     Node 3, Type 0, BuildingBlock: HICVOG_clean_sbu_0, # of connection points: 7
#     Node 4, Type 0, BuildingBlock: HICVOG_clean_sbu_0, # of connection points: 7
#     Node 5, Type 0, BuildingBlock: HICVOG_clean_sbu_0, # of connection points: 7
#     Node 6, Type 0, BuildingBlock: HICVOG_clean_sbu_0, # of connection points: 7
#     Node 7, Type 0, BuildingBlock: HICVOG_clean_sbu_0, # of connection points: 7
#     Edge 8, Type (0, 0), BuildingBlock: OJICUG_clean_linker_0, # of connection points: 2
#     Edge 9, Type (0, 0), BuildingBlock: OJICUG_clean_linker_0, # of connection points: 2
#     Edge 10, Type (0, 0), BuildingBlock: OJICUG_clean_linker_0, # of connection points: 2
#     Edge 11, Type (0, 0), BuildingBlock: OJICUG_clean_linker_0, # of connection points: 2
#     Edge 12, Type (0, 0), BuildingBlock: OJICUG_clean_linker_0, # of connection points: 2
#     Edge 13, Type (0, 0), BuildingBlock: OJICUG_clean_linker_0, # of connection points: 2
#     Edge 14, Type (0, 0), BuildingBlock: OJICUG_clean_linker_0, # of connection points: 2
#     Edge 15, Type (0, 0), BuildingBlock: OJICUG_clean_linker_0, # of connection points: 2
#     Edge 16, Type (0, 0), BuildingBlock: OJICUG_clean_linker_0, # of connection points: 2
#     Edge 17, Type (0, 0), BuildingBlock: OJICUG_clean_linker_0, # of connection points: 2
#     Edge 18, Type (0, 0), BuildingBlock: OJICUG_clean_linker_0, # of connection points: 2
#     Edge 19, Type (0, 0), BuildingBlock: OJICUG_clean_linker_0, # of connection points: 2
#     Edge 20, Type (0, 0), BuildingBlock: OJICUG_clean_linker_0, # of connection points: 2
#     Edge 21, Type (0, 0), BuildingBlock: OJICUG_clean_linker_0, # of connection points: 2
#     Edge 22, Type (0, 0), BuildingBlock: OJICUG_clean_linker_0, # of connection points: 2
#     Edge 23, Type (0, 0), BuildingBlock: OJICUG_clean_linker_0, # of connection points: 2
#     Edge 24, Type (0, 0), BuildingBlock: OJICUG_clean_linker_0, # of connection points: 2
#     Edge 25, Type (0, 0), BuildingBlock: OJICUG_clean_linker_0, # of connection points: 2
#     Edge 26, Type (0, 0), BuildingBlock: OJICUG_clean_linker_0, # of connection points: 2
#     Edge 27, Type (0, 0), BuildingBlock: OJICUG_clean_linker_0, # of connection points: 2
#     Edge 28, Type (0, 0), BuildingBlock: OJICUG_clean_linker_0, # of connection points: 2
#     Edge 29, Type (0, 0), BuildingBlock: OJICUG_clean_linker_0, # of connection points: 2
#     Edge 30, Type (0, 0), BuildingBlock: OJICUG_clean_linker_0, # of connection points: 2
#     Edge 31, Type (0, 0), BuildingBlock: OJICUG_clean_linker_0, # of connection points: 2
#     Edge 32, Type (0, 0), BuildingBlock: OJICUG_clean_linker_0, # of connection points: 2
#     Edge 33, Type (0, 0), BuildingBlock: OJICUG_clean_linker_0, # of connection points: 2
#     Edge 34, Type (0, 0), BuildingBlock: OJICUG_clean_linker_0, # of connection points: 2
#     Edge 35, Type (0, 0), BuildingBlock: OJICUG_clean_linker_0, # of connection points: 2
# Relax obj value: 0.185
# Max RMSD: 0.263
# Mean RMSD: 0.263
data_MOF--net-wfz--node1-HICVOG_clean_sbu_0--edge1-OJICUG_clean_linker_0
_symmetry_space_group_name_H-M    P1
_symmetry_Int_Tables_number       1
_symmetry_cell_setting            triclinic
loop_
_symmetry_equiv_pos_as_xyz
'x, y, z'
_cell_length_a     17.605901
_cell_length_b     17.713967
_cell_length_c     48.975395
_cell_angle_alpha  89.651717
_cell_angle_beta   89.371231
_cell_angle_gamma 89.314152
loop_
_atom_site_label
_atom_site_type_symbol
_atom_site_fract_x
_atom_site_fract_y
_atom_site_fract_z
_atom_type_partial_charge
Zn0 Zn 0.24923 0.48814 0.39478 0.0
C1 C 0.40034 0.44534 0.44918 0.0
N2 N 0.40854 0.38159 0.43479 0.0
C3 C 0.37507 0.3986 0.41113 0.0
N4 N 0.34684 0.46964 0.41102 0.0
N5 N 0.36484 0.50077 0.43461 0.0
C6 C 0.25573 0.65818 0.47999 0.0
O7 O 0.20951 0.64736 0.45955 0.0
O8 O 0.24175 0.44039 0.35714 0.0
Zn9 Zn 0.36815 0.61254 0.43932 0.0
N10 N 0.17089 0.4433 0.41806 0.0
C11 C 0.12441 0.40444 0.46178 0.0
C12 C 0.17901 0.44068 0.44563 0.0
C13 C 0.10905 0.41284 0.40611 0.0
N14 N 0.06353 0.37246 0.44976 0.0
C15 C 0.05372 0.37639 0.42228 0.0
O16 O 0.30461 0.67467 0.41177 0.0
C17 C 0.24821 0.66358 0.39613 0.0
O18 O 0.22534 0.59773 0.39058 0.0
H19 H 0.22773 0.46578 0.45504 0.0
H20 H 0.10428 0.41504 0.3841 0.0
C21 C 0.50683 0.69165 0.41913 0.0
C22 C 0.58579 0.70628 0.41985 0.0
C23 C 0.59736 0.62221 0.45753 0.0
C24 C 0.51963 0.60932 0.4571 0.0
N25 N 0.47574 0.64247 0.43766 0.0
N26 N 0.62847 0.6701 0.439 0.0
H27 H 0.4709 0.71855 0.40405 0.0
C28 C 0.25304 0.47921 0.33554 0.0
O29 O 0.27541 0.54934 0.33784 0.0
O30 O 0.32659 0.64643 0.47635 0.0
H31 H 0.4944 0.57325 0.47233 0.0
H32 H 0.13076 0.4012 0.4837 0.0
H33 H 0.63266 0.59513 0.47275 0.0
Zn34 Zn 0.98448 0.85412 0.69038 0.0
C35 C 0.19796 0.86974 0.65974 0.0
N36 N 0.21356 0.90426 0.68319 0.0
C37 C 0.15039 0.89402 0.69819 0.0
N38 N 0.09661 0.85623 0.68419 0.0
N39 N 0.12823 0.83895 0.6603 0.0
C40 C 0.12819 0.74088 0.58554 0.0
O41 O 0.05615 0.76059 0.58734 0.0
O42 O 0.9541 0.81006 0.72724 0.0
Zn43 Zn 0.11302 0.7412 0.64452 0.0
N44 N 0.94925 0.95954 0.69072 0.0
C45 C 0.9593 0.07727 0.71361 0.0
C46 C 0.97596 1.00051 0.71186 0.0
C47 C 0.90302 0.99226 0.67169 0.0
N48 N 0.91417 0.11009 0.6946 0.0
C49 C 0.88452 0.06998 0.67373 0.0
O50 O 1.00367 0.71609 0.63995 0.0
C51 C 0.93654 0.73672 0.64645 0.0
O52 O 0.92347 0.79097 0.66302 0.0
H53 H 1.00999 0.9737 0.72734 0.0
H54 H 0.88148 0.95851 0.6552 0.0
C55 C 0.18424 0.60023 0.6569 0.0
C56 C 0.21839 0.544 0.67324 0.0
C57 C 0.19336 0.61862 0.71238 0.0
C58 C 0.15955 0.67423 0.69604 0.0
N59 N 0.15645 0.66439 0.66855 0.0
N60 N 0.22282 0.55524 0.70063 0.0
H61 H 0.18176 0.5943 0.63495 0.0
C62 C 0.95404 0.73912 0.73141 0.0
O63 O 0.97437 0.69385 0.71141 0.0
O64 O 0.16579 0.7322 0.60741 0.0
H65 H 0.13648 0.72481 0.70524 0.0
H66 H 0.98127 0.11041 0.73018 0.0
H67 H 0.1968 0.62615 0.73423 0.0
Zn68 Zn 0.71826 0.48198 0.93802 0.0
C69 C 0.72056 0.69509 0.90955 0.0
N70 N 0.68443 0.71471 0.93254 0.0
C71 C 0.68874 0.65233 0.94813 0.0
N72 N 0.72493 0.59459 0.9346 0.0
N73 N 0.74695 0.62365 0.91077 0.0
C74 C 0.89713 0.61668 0.8396 0.0
O75 O 0.93123 0.553 0.84628 0.0
O76 O 0.75802 0.43903 0.97397 0.0
Zn77 Zn 0.8471 0.60588 0.89589 0.0
N78 N 0.60949 0.45639 0.93367 0.0
C79 C 0.48188 0.49744 0.94243 0.0
C80 C 0.55956 0.50586 0.94547 0.0
C81 C 0.58323 0.3968 0.91898 0.0
N82 N 0.45596 0.43909 0.92773 0.0
C83 C 0.50383 0.38789 0.91587 0.0
O84 O 0.87405 0.49629 0.89341 0.0
C85 C 0.84768 0.4308 0.89767 0.0
O86 O 0.78539 0.42071 0.91082 0.0
H87 H 0.57918 0.5525 0.95696 0.0
H88 H 0.62334 0.35817 0.90943 0.0
C89 C 0.98864 0.67597 0.90749 0.0
C90 C 0.04127 0.71663 0.92294 0.0
C91 C 0.95626 0.71261 0.9608 0.0
C92 C 0.90378 0.67392 0.94517 0.0
N93 N 0.92097 0.65592 0.91885 0.0
N94 N 1.02317 0.73399 0.94926 0.0
H95 H 0.99935 0.66353 0.8862 0.0
C96 C 0.81451 0.46786 0.98582 0.0
O97 O 0.84545 0.52893 0.97563 0.0
O98 O 0.85656 0.65078 0.85747 0.0
H99 H 0.84933 0.65978 0.95391 0.0
H100 H 0.44231 0.53721 0.95165 0.0
H101 H 0.94307 0.72729 0.98174 0.0
Zn102 Zn 0.11593 0.25447 0.18972 0.0
C103 C 0.90358 0.24176 0.15993 0.0
N104 N 0.88592 0.20707 0.18344 0.0
C105 C 0.94853 0.21593 0.19842 0.0
N106 N 1.00388 0.253 0.18432 0.0
N107 N 0.97371 0.27109 0.16045 0.0
C108 C 0.95049 0.35079 0.08372 0.0
O109 O 1.01038 0.30656 0.08079 0.0
O110 O 0.14722 0.29955 0.22601 0.0
Zn111 Zn 0.99565 0.36359 0.14128 0.0
N112 N 0.15254 0.14964 0.19021 0.0
C113 C 0.14364 1.02874 0.21153 0.0
C114 C 0.12346 0.10481 0.21028 0.0
C115 C 0.2046 0.12162 0.17192 0.0
N116 N 0.19416 1.0005 0.19308 0.0
C117 C 0.22616 0.04472 0.17338 0.0
O118 O 0.10343 0.37533 0.13062 0.0
C119 C 0.16833 0.35472 0.13905 0.0
O120 O 0.17593 0.31187 0.15996 0.0
H121 H 0.08517 0.12788 0.22536 0.0
H122 H 0.22828 0.15837 0.15636 0.0
C123 C 0.93788 0.51013 0.15125 0.0
C124 C 0.91061 0.57207 0.16638 0.0
C125 C 0.94709 0.50901 0.20711 0.0
C126 C 0.97363 0.44732 0.1919 0.0
N127 N 0.96751 0.44876 0.16426 0.0
N128 N 0.91519 0.56944 0.19409 0.0
H129 H 0.93287 0.50931 0.12927 0.0
C130 C 0.1712 0.36646 0.22888 0.0
O131 O 0.17575 0.41092 0.20737 0.0
O132 O 0.93327 0.37675 0.10712 0.0
H133 H 0.99783 0.39849 0.20208 0.0
H134 H 0.11992 0.99249 0.22722 0.0
H135 H 0.95074 0.50831 0.22914 0.0
Zn136 Zn 0.87074 0.99778 0.32103 0.0
C137 C 0.87751 0.20966 0.35141 0.0
N138 N 0.91173 0.22715 0.32774 0.0
C139 C 0.90406 0.16446 0.31292 0.0
N140 N 0.86803 0.1091 0.32719 0.0
N141 N 0.84929 0.13912 0.35113 0.0
C142 C 0.69934 0.13225 0.42304 0.0
O143 O 0.66418 0.07067 0.41582 0.0
O144 O 0.83249 0.96785 0.28364 0.0
Zn145 Zn 0.75134 0.11971 0.36747 0.0
N146 N 0.97785 0.96663 0.32158 0.0
C147 C 0.09918 0.98191 0.30034 0.0
C148 C 1.02146 0.99683 0.30131 0.0
C149 C 1.00891 0.91866 0.34042 0.0
N150 N 0.1303 0.93485 0.31916 0.0
C151 C 0.08757 0.90174 0.3391 0.0
O152 O 0.72945 1.00979 0.3708 0.0
C153 C 0.75125 0.94368 0.36432 0.0
O154 O 0.80734 0.9324 0.34799 0.0
H155 H 0.99604 1.03204 0.28585 0.0
H156 H 0.97302 0.8943 0.35615 0.0
C157 C 0.61016 0.19484 0.35608 0.0
C158 C 0.55424 0.22957 0.3398 0.0
C159 C 0.62739 0.20014 0.30032 0.0
C160 C 0.6825 0.16532 0.31658 0.0
N161 N 0.67343 0.16433 0.3442 0.0
N162 N 0.56493 0.23215 0.31227 0.0
H163 H 0.60446 0.19382 0.37809 0.0
C164 C 0.76376 0.94964 0.27985 0.0
O165 O 0.7156 0.95234 0.3005 0.0
O166 O 0.74168 0.16553 0.40558 0.0
H167 H 0.73217 0.13975 0.30721 0.0
H168 H 0.13439 1.00662 0.28449 0.0
H169 H 0.63448 0.20209 0.27836 0.0
Zn170 Zn 0.60452 0.35936 0.57311 0.0
C171 C 0.38781 0.36889 0.60148 0.0
N172 N 0.37292 0.40587 0.5782 0.0
C173 C 0.43775 0.39799 0.56385 0.0
N174 N 0.49171 0.35934 0.57809 0.0
N175 N 0.45857 0.33903 0.6014 0.0
C176 C 0.4615 0.23509 0.67635 0.0
O177 O 0.53338 0.25371 0.67447 0.0
O178 O 0.63833 0.31846 0.53622 0.0
Zn179 Zn 0.47505 0.24037 0.61715 0.0
N180 N 0.6374 0.46525 0.57392 0.0
C181 C 0.62318 0.58544 0.55228 0.0
C182 C 0.60844 0.50856 0.55344 0.0
C183 C 0.68477 0.49587 0.59272 0.0
N184 N 0.66915 0.61615 0.57109 0.0
C185 C 0.70151 0.57381 0.5912 0.0
O186 O 0.58493 0.21489 0.62152 0.0
C187 C 0.65191 0.23677 0.61605 0.0
O188 O 0.66485 0.2936 0.60053 0.0
H189 H 0.57442 0.48351 0.53792 0.0
H190 H 0.70875 0.46035 0.60857 0.0
C191 C 0.40226 0.10163 0.60487 0.0
C192 C 0.36658 0.04769 0.58853 0.0
C193 C 0.39283 0.12292 0.54944 0.0
C194 C 0.42806 0.17628 0.56579 0.0
N195 N 0.43133 0.16506 0.59325 0.0
N196 N 0.36212 0.06038 0.56116 0.0
H197 H 0.40477 0.0946 0.62681 0.0
C198 C 0.63875 0.24787 0.53162 0.0
O199 O 0.6168 0.20159 0.55115 0.0
O200 O 0.42331 0.22959 0.65454 0.0
H201 H 0.45183 0.22646 0.55664 0.0
H202 H 0.59926 0.62032 0.53624 0.0
H203 H 0.38918 0.13161 0.52761 0.0
Zn204 Zn 0.22939 0.09063 0.8226 0.0
C205 C 0.22545 0.87488 0.85072 0.0
N206 N 0.19224 0.85935 0.827 0.0
C207 C 0.19907 0.92399 0.81285 0.0
N208 N 0.23335 0.97846 0.82758 0.0
N209 N 0.25208 0.94586 0.85108 0.0
C210 C 0.40687 0.93638 0.92151 0.0
O211 O 0.4471 0.99403 0.91298 0.0
O212 O 0.26978 0.12643 0.78544 0.0
Zn213 Zn 0.34884 0.96252 0.86792 0.0
N214 N 0.12176 0.12311 0.82462 0.0
C215 C 0.99996 0.10715 0.8048 0.0
C216 C 0.07755 0.09183 0.80523 0.0
C217 C 0.09108 0.17282 0.8431 0.0
N218 N 0.96929 0.15558 0.82327 0.0
C219 C 1.01223 0.18998 0.84237 0.0
O220 O 0.36913 0.07203 0.87317 0.0
C221 C 0.34708 0.13822 0.86673 0.0
O222 O 0.29324 0.14993 0.84988 0.0
H223 H 0.10241 0.05552 0.78999 0.0
H224 H 0.12728 0.19824 0.85811 0.0
C225 C 0.49189 0.89221 0.85449 0.0
C226 C 0.54902 0.8618 0.83741 0.0
C227 C 0.4761 0.89564 0.79882 0.0
C228 C 0.4198 0.9265 0.8159 0.0
N229 N 0.42819 0.92321 0.84348 0.0
N230 N 0.53912 0.86334 0.80992 0.0
H231 H 0.49733 0.88948 0.87644 0.0
C232 C 0.33992 0.1404 0.78168 0.0
O233 O 0.38697 0.13019 0.80204 0.0
O234 O 0.35771 0.90939 0.90546 0.0
H235 H 0.36983 0.95241 0.80717 0.0
H236 H 0.96443 0.08159 0.78962 0.0
H237 H 0.46951 0.89711 0.77688 0.0
Zn238 Zn 0.64287 0.87075 0.11492 0.0
C239 C 0.65583 0.70223 0.06229 0.0
N240 N 0.72314 0.68776 0.07391 0.0
C241 C 0.72128 0.73272 0.09592 0.0
N242 N 0.65627 0.77384 0.0974 0.0
N243 N 0.61433 0.75341 0.07652 0.0
C244 C 0.4679 0.82559 0.03128 0.0
O245 O 0.49786 0.87424 0.04809 0.0
O246 O 0.69483 0.87583 0.15167 0.0
Zn247 Zn 0.50367 0.74741 0.07833 0.0
N248 N 0.68796 0.94586 0.09111 0.0
C249 C 0.73223 0.98805 0.04755 0.0
C250 C 0.69649 0.93378 0.06385 0.0
C251 C 0.71206 1.01069 0.10259 0.0
N252 N 0.7584 0.05205 0.05919 0.0
C253 C 0.74841 0.06528 0.08633 0.0
O254 O 0.45158 0.83015 0.10046 0.0
C255 C 0.46612 0.88651 0.11546 0.0
O256 O 0.53391 0.90402 0.12121 0.0
H257 H 0.67662 0.88221 0.05489 0.0
H258 H 0.70552 1.0181 0.12441 0.0
C259 C 0.42966 0.60045 0.09453 0.0
C260 C 0.42482 0.53772 0.11265 0.0
C261 C 0.53007 0.58415 0.13707 0.0
C262 C 0.53235 0.64687 0.1201 0.0
N263 N 0.48414 0.65343 0.09866 0.0
N264 N 0.47637 0.5317 0.13308 0.0
H265 H 0.39065 0.60777 0.07782 0.0
C266 C 0.65585 0.86337 0.17323 0.0
O267 O 0.58554 0.8405 0.17083 0.0
O268 O 0.46106 0.75744 0.03948 0.0
H269 H 0.57193 0.69085 0.12441 0.0
H270 H 0.74017 0.97883 0.02589 0.0
H271 H 0.56918 0.5782 0.15385 0.0
C272 C 0.42095 0.3848 0.36319 0.0
C273 C 0.3906 0.35162 0.38698 0.0
H274 H 0.49776 0.37083 0.32918 0.0
C275 C 0.40036 0.27362 0.39117 0.0
H276 H 0.41505 0.44501 0.35967 0.0
C277 C 0.44895 0.23187 0.37425 0.0
C278 C 0.4876 0.26727 0.35261 0.0
H279 H 0.3774 0.24673 0.40936 0.0
H280 H 0.46086 0.17335 0.37938 0.0
C281 C 0.46911 0.34256 0.34597 0.0
C282 C 0.36515 0.94179 0.62241 0.0
C283 C 0.3293 0.98138 0.60117 0.0
H284 H 0.3507 0.86977 0.65717 0.0
C285 C 0.25384 0.96385 0.59477 0.0
H286 H 0.42383 0.95275 0.62733 0.0
C287 C 0.21179 0.9157 0.61188 0.0
C288 C 0.24525 0.8845 0.63534 0.0
H289 H 0.22518 0.99311 0.57828 0.0
H290 H 0.15133 0.91049 0.60859 0.0
C291 C 0.32356 0.89334 0.63923 0.0
C292 C 0.65556 0.86063 0.87031 0.0
C293 C 0.61626 0.82449 0.84945 0.0
H294 H 0.72539 0.84652 0.90539 0.0
C295 C 0.63297 0.74841 0.84374 0.0
H296 H 0.64456 0.91964 0.87474 0.0
C297 C 0.67958 0.7063 0.86135 0.0
C298 C 0.70969 0.7404 0.88462 0.0
H299 H 0.60358 0.71963 0.82759 0.0
H300 H 0.68376 0.6457 0.85871 0.0
C301 C 0.70253 0.81895 0.88762 0.0
C302 C 0.78183 0.21814 0.13733 0.0
C303 C 0.86099 0.2249 0.13515 0.0
H304 H 0.68309 0.16177 0.12307 0.0
C305 C 0.8994 0.19176 0.11292 0.0
H306 H 0.75121 0.24247 0.15453 0.0
C307 C 0.86035 0.14599 0.09477 0.0
C308 C 0.78298 0.13144 0.09919 0.0
H309 H 0.96075 0.19378 0.11141 0.0
H310 H 0.8923 0.11554 0.07925 0.0
C311 C 0.74306 0.17145 0.11953 0.0
C312 C 0.94921 0.37477 0.38823 0.0
C313 C 0.98856 0.3387 0.40946 0.0
H314 H 0.87731 0.36137 0.3538 0.0
C315 C 0.97127 0.26331 0.41598 0.0
H316 H 0.95999 0.43336 0.38321 0.0
C317 C 0.92342 0.22182 0.39909 0.0
C318 C 0.89216 0.25576 0.37571 0.0
H319 H 1.00034 0.2345 0.43248 0.0
H320 H 0.91835 0.1616 0.4025 0.0
C321 C 0.90089 0.33381 0.37167 0.0
C322 C 0.21943 0.44078 0.63878 0.0
C323 C 0.25487 0.47709 0.66052 0.0
H324 H 0.23483 0.37254 0.60329 0.0
C325 C 0.32989 0.45657 0.66711 0.0
H326 H 0.16101 0.45408 0.63371 0.0
C327 C 0.37224 0.40924 0.6497 0.0
C328 C 0.33951 0.38198 0.62573 0.0
H329 H 0.35819 0.48326 0.68398 0.0
H330 H 0.43255 0.402 0.6532 0.0
C331 C 0.26138 0.39322 0.62161 0.0
C332 C 0.18105 0.86256 0.8988 0.0
C333 C 0.20906 0.82808 0.87496 0.0
H334 H 0.10474 0.8533 0.93298 0.0
C335 C 0.19674 0.75071 0.87109 0.0
H336 H 0.18941 0.92224 0.90221 0.0
C337 C 0.1475 0.71149 0.88842 0.0
C338 C 0.11003 0.74913 0.90992 0.0
H339 H 0.21836 0.7227 0.85294 0.0
H340 H 0.13421 0.65354 0.88364 0.0
C341 C 0.13178 0.82316 0.91625 0.0
C342 C 0.89911 0.66273 0.12732 0.0
C343 C 0.87099 0.63539 0.15239 0.0
H344 H 0.87299 0.7193 0.08984 0.0
C345 C 0.79895 0.66002 0.16156 0.0
H346 H 0.95503 0.64586 0.11999 0.0
C347 C 0.75196 0.70277 0.14426 0.0
C348 C 0.77704 0.72191 0.11782 0.0
H349 H 0.776 0.63983 0.18084 0.0
H350 H 0.69346 0.71294 0.15038 0.0
C351 C 0.85252 0.70562 0.1102 0.0
C352 C 0.11764 0.72439 0.535 0.0
C353 C 0.16284 0.72334 0.55849 0.0
H354 H 0.11124 0.70457 0.49208 0.0
C355 C 0.23994 0.7024 0.55586 0.0
H356 H 0.05805 0.74009 0.53621 0.0
C357 C 0.2707 0.68211 0.53035 0.0
C358 C 0.22487 0.68192 0.50698 0.0
H359 H 0.27636 0.70091 0.57354 0.0
H360 H 0.33003 0.66549 0.52902 0.0
C361 C 0.14815 0.70372 0.50963 0.0
C362 C 0.88995 0.724 0.80568 0.0
C363 C 0.90831 0.64833 0.81177 0.0
H364 H 0.89085 0.81252 0.77556 0.0
C365 C 0.94008 0.60281 0.79107 0.0
H366 H 0.8656 0.76056 0.82121 0.0
C367 C 0.95367 0.63214 0.76496 0.0
C368 C 0.93671 0.70805 0.75894 0.0
H369 H 0.95472 0.54422 0.79502 0.0
H370 H 0.97868 0.59542 0.74962 0.0
C371 C 0.90459 0.75375 0.77957 0.0
C372 C 0.85399 0.48314 0.03402 0.0
C373 C 0.84282 0.43589 0.01159 0.0
H374 H 0.89472 0.49214 0.07491 0.0
C375 C 0.86291 0.35913 0.01351 0.0
H376 H 0.8386 0.5425 0.03293 0.0
C377 C 0.89724 0.33077 0.03717 0.0
C378 C 0.90926 0.37829 0.05952 0.0
H379 H 0.8549 0.32191 0.99633 0.0
H380 H 0.91479 0.27197 0.03797 0.0
C381 C 0.8857 0.45427 0.05799 0.0
C382 C 0.18588 0.34831 0.27962 0.0
C383 C 0.1939 0.39401 0.25617 0.0
H384 H 0.1986 0.33893 0.32303 0.0
C385 C 0.22378 0.46672 0.25904 0.0
H386 H 0.1631 0.29196 0.27817 0.0
C387 C 0.24435 0.49347 0.28469 0.0
C388 C 0.23544 0.44832 0.30821 0.0
H389 H 0.231 0.50339 0.24144 0.0
H390 H 0.26642 0.55011 0.28609 0.0
C391 C 0.20641 0.37517 0.30535 0.0
C392 C 0.75998 0.90897 0.20369 0.0
C393 C 0.68602 0.88129 0.20058 0.0
H394 H 0.84271 0.95246 0.23114 0.0
C395 C 0.63898 0.87473 0.22383 0.0
H396 H 0.79764 0.9149 0.18618 0.0
C397 C 0.66451 0.89669 0.24946 0.0
C398 C 0.73794 0.92538 0.25257 0.0
H399 H 0.58167 0.85376 0.22224 0.0
H400 H 0.62631 0.89142 0.26684 0.0
C401 C 0.78575 0.93064 0.22944 0.0
C402 C 0.64081 0.14347 0.49751 0.0
C403 C 0.65743 0.21852 0.50403 0.0
H404 H 0.64078 0.05788 0.46697 0.0
C405 C 0.69017 0.26504 0.48379 0.0
H406 H 0.61536 0.10613 0.51253 0.0
C407 C 0.70566 0.23694 0.45756 0.0
C408 C 0.68752 0.16219 0.45098 0.0
H409 H 0.70363 0.32319 0.48818 0.0
H410 H 0.73038 0.27409 0.44231 0.0
C411 C 0.65522 0.11584 0.4713 0.0
C412 C 0.44477 0.19043 0.75201 0.0
C413 C 0.36906 0.167 0.75473 0.0
H414 H 0.53263 0.23092 0.72549 0.0
C415 C 0.32263 0.16872 0.7315 0.0
H416 H 0.48213 0.19025 0.76943 0.0
C417 C 0.35187 0.1921 0.70607 0.0
C418 C 0.42803 0.21461 0.70337 0.0
H419 H 0.26403 0.15101 0.73288 0.0
H420 H 0.31509 0.19167 0.68849 0.0
C421 C 0.47375 0.21409 0.72673 0.0
C422 C 0.4793 0.92013 0.99373 0.0
C423 C 0.45075 0.85056 1.00289 0.0
H424 H 0.48805 1.00074 0.96148 0.0
C425 C 0.40688 0.80795 0.98484 0.0
H426 H 0.51385 0.95446 0.00683 0.0
C427 C 0.39118 0.83543 0.95835 0.0
C428 C 0.42018 0.90532 0.94941 0.0
H429 H 0.38418 0.75405 0.99125 0.0
H430 H 0.35704 0.80188 0.94486 0.0
C431 C 0.46459 0.9468 0.96749 0.0
C432 C 0.74068 0.80807 0.37997 0.0
C433 C 0.7072 0.87942 0.37575 0.0
H434 H 0.72813 0.69728 0.3973 0.0
C435 C 0.6306 0.89057 0.38362 0.0
H436 H 0.79934 0.79758 0.37411 0.0
C437 C 0.58931 0.83286 0.39632 0.0
C438 C 0.62392 0.76276 0.40189 0.0
H439 H 0.6027 0.94469 0.38038 0.0
H440 H 0.53159 0.8446 0.40306 0.0
C441 C 0.69976 0.7507 0.39322 0.0
C442 C 0.7851 0.22628 0.63407 0.0
C443 C 0.71565 0.19256 0.62796 0.0
H444 H 0.89319 0.21345 0.65349 0.0
C445 C 0.70561 0.11573 0.63451 0.0
H446 H 0.79453 0.28522 0.62926 0.0
C447 C 0.76249 0.07424 0.64777 0.0
C448 C 0.83033 0.10897 0.65523 0.0
H449 H 0.65292 0.08785 0.62983 0.0
H450 H 0.75157 1.01617 0.65347 0.0
C451 C 0.84147 0.18513 0.6479 0.0
C452 C 0.39944 0.33691 0.88744 0.0
C453 C 0.46921 0.32488 0.90072 0.0
H454 H 0.30622 0.28805 0.86633 0.0
C455 C 0.49967 0.25142 0.90185 0.0
H456 H 0.37445 0.393 0.88619 0.0
C457 C 0.45993 0.1911 0.89075 0.0
C458 C 0.3891 0.20289 0.8781 0.0
H459 H 0.55257 0.23994 0.91225 0.0
H460 H 0.48472 0.13503 0.89226 0.0
C461 C 0.3601 0.27678 0.87611 0.0
C462 C 0.27207 0.93765 0.14457 0.0
C463 C 0.28404 1.01019 0.15502 0.0
H464 H 0.31949 0.84239 0.12346 0.0
C465 C 0.35489 0.04416 0.15071 0.0
H466 H 0.21805 0.91007 0.14773 0.0
C467 C 0.41377 1.00464 0.13734 0.0
C468 C 0.40239 0.93105 0.12757 0.0
H469 H 0.36599 0.09957 0.1589 0.0
H470 H 0.46864 1.03116 0.13512 0.0
C471 C 0.33021 0.8989 0.1307 0.0
C472 C 0.08883 0.77751 0.36394 0.0
C473 C 0.12486 0.84551 0.35729 0.0
H474 H 0.09998 0.66682 0.38118 0.0
C475 C 0.20077 0.85537 0.36523 0.0
H476 H 1.03097 0.76751 0.35775 0.0
C477 C 0.24045 0.79767 0.3789 0.0
C478 C 0.20548 0.72828 0.38426 0.0
H479 H 0.23008 0.9072 0.36029 0.0
H480 H 0.29928 0.8062 0.38422 0.0
C481 C 0.12885 0.71943 0.37708 0.0
C482 C 0.7441 0.686 0.61772 0.0
C483 C 0.75688 0.61096 0.60925 0.0
H484 H 0.79016 0.78447 0.63657 0.0
C485 C 0.82725 0.57652 0.61478 0.0
H486 H 0.69045 0.71413 0.61357 0.0
C487 C 0.88475 0.61737 0.62727 0.0
C488 C 0.87288 0.69318 0.63498 0.0
H489 H 0.83939 0.51939 0.60814 0.0
H490 H 0.93921 0.58978 0.63049 0.0
C491 C 0.80114 0.72639 0.6308 0.0
C492 C 1.00999 0.31504 0.86665 0.0
C493 C 0.97428 0.24702 0.86031 0.0
H494 H 0.99792 0.42614 0.88316 0.0
C495 C 0.89764 0.23785 0.8682 0.0
H496 H 0.06838 0.32467 0.86053 0.0
C497 C 0.85699 0.29606 0.88133 0.0
C498 C 0.89162 0.3655 0.88636 0.0
H499 H 0.86838 0.18609 0.86358 0.0
H500 H 0.79769 0.28772 0.8865 0.0
C501 C 0.96906 0.37363 0.87935 0.0
C502 C 0.28933 0.50112 0.10323 0.0
C503 C 0.36209 0.48202 0.11275 0.0
H504 H 0.17118 0.47504 0.10371 0.0
C505 C 0.37175 0.4132 0.12704 0.0
H506 H 0.27898 0.55352 0.09237 0.0
C507 C 0.30942 0.36879 0.13412 0.0
C508 C 0.23592 0.39147 0.12671 0.0
H509 H 0.42716 0.39577 0.13433 0.0
H510 H 0.31849 0.31886 0.14661 0.0
C511 C 0.22706 0.45603 0.10999 0.0
C512 C 0.38943 0.47657 0.52536 0.0
C513 C 0.44035 0.42062 0.53482 0.0
H514 H 0.33012 0.52059 0.49095 0.0
C515 C 0.48052 0.37725 0.51572 0.0
H516 H 0.35407 0.50827 0.53957 0.0
C517 C 0.47359 0.39183 0.48785 0.0
C518 C 0.42062 0.44574 0.47834 0.0
H519 H 0.51152 0.32794 0.52212 0.0
H520 H 0.50506 0.35618 0.4737 0.0
C521 C 0.37754 0.4866 0.49742 0.0
C522 C 0.21779 0.97014 0.76496 0.0
C523 C 0.17675 0.92743 0.78395 0.0
H524 H 0.23606 0.99861 0.72301 0.0
C525 C 0.123 0.87601 0.77441 0.0
H526 H 0.26613 1.00165 0.77129 0.0
C527 C 0.11272 0.8663 0.74647 0.0
C528 C 0.15032 0.91217 0.72754 0.0
H529 H 0.09328 0.83883 0.78843 0.0
H530 H 0.08127 0.81865 0.73974 0.0
C531 C 0.20234 0.96533 0.73715 0.0
C532 C 0.62877 0.74009 0.01501 0.0
C533 C 0.64256 0.68204 0.03376 0.0
H534 H 0.6304 0.77563 0.97369 0.0
C535 C 0.66195 0.60979 0.0241 0.0
H536 H 0.61756 0.7971 0.02187 0.0
C537 C 0.67126 0.59732 0.99602 0.0
C538 C 0.66404 0.65701 0.97732 0.0
H539 H 0.67333 0.564 0.0383 0.0
H540 H 0.68458 0.54178 0.98904 0.0
C541 C 0.63838 0.72765 0.9872 0.0
C542 C 0.89566 0.13886 0.23659 0.0
C543 C 0.94854 0.19274 0.22743 0.0
H544 H 0.83381 0.09536 0.27077 0.0
C545 C 0.98922 0.23281 0.24677 0.0
H546 H 0.86025 0.10952 0.22225 0.0
C547 C 0.98042 0.21697 0.27455 0.0
C548 C 0.92565 0.16507 0.28374 0.0
H549 H 1.02299 0.28015 0.24065 0.0
H550 H 1.01226 0.24992 0.28896 0.0
C551 C 0.88227 0.12767 0.26445 0.0
loop_
_geom_bond_atom_site_label_1
_geom_bond_atom_site_label_2
_geom_bond_distance
_geom_bond_site_symmetry_2
_ccdc_geom_bond_type
Zn0 N4 2.020 . S
Zn0 O8 2.019 . S
Zn0 N10 2.119 . S
Zn0 O18 1.975 . S
C1 N2 1.334 . S
C1 N5 1.336 . S
N2 C1 1.334 . S
N2 C3 1.334 . S
C3 N2 1.334 . S
C3 N4 1.336 . S
N4 Zn0 2.020 . S
N4 C3 1.336 . S
N4 N5 1.354 . S
N5 C1 1.336 . S
N5 N4 1.354 . S
N5 Zn9 2.020 . S
C6 O7 1.244 . S
C6 O30 1.257 . S
O7 C6 1.244 . S
O8 Zn0 2.019 . S
O8 C28 1.257 . S
Zn9 N5 2.020 . S
Zn9 O16 1.975 . S
Zn9 N25 2.119 . S
Zn9 O30 2.019 . S
N10 Zn0 2.119 . S
N10 C12 1.334 . S
N10 C13 1.328 . S
C11 C12 1.391 . S
C11 N14 1.329 . S
C11 H32 0.930 . S
C12 N10 1.334 . S
C12 C11 1.391 . S
C12 H19 0.930 . S
C13 N10 1.328 . S
C13 C15 1.392 . S
C13 H20 0.930 . S
N14 C11 1.329 . S
N14 C15 1.331 . S
C15 C13 1.392 . S
C15 N14 1.331 . S
O16 Zn9 1.975 . S
O16 C17 1.252 . S
C17 O16 1.252 . S
C17 O18 1.252 . S
O18 Zn0 1.975 . S
O18 C17 1.252 . S
H19 C12 0.930 . S
H20 C13 0.930 . S
C21 C22 1.392 . S
C21 N25 1.328 . S
C21 H27 0.930 . S
C22 C21 1.392 . S
C22 N26 1.331 . S
C23 C24 1.391 . S
C23 N26 1.329 . S
C23 H33 0.930 . S
C24 C23 1.391 . S
C24 N25 1.334 . S
C24 H31 0.930 . S
N25 Zn9 2.119 . S
N25 C21 1.328 . S
N25 C24 1.334 . S
N26 C22 1.331 . S
N26 C23 1.329 . S
H27 C21 0.930 . S
C28 O8 1.257 . S
C28 O29 1.244 . S
O29 C28 1.244 . S
O30 C6 1.257 . S
O30 Zn9 2.019 . S
H31 C24 0.930 . S
H32 C11 0.930 . S
H33 C23 0.930 . S
Zn34 N38 2.020 1_655 S
Zn34 O42 2.019 . S
Zn34 N44 2.119 . S
Zn34 O52 1.975 . S
C35 N36 1.334 . S
C35 N39 1.336 . S
N36 C35 1.334 . S
N36 C37 1.334 . S
C37 N36 1.334 . S
C37 N38 1.336 . S
N38 Zn34 2.020 1_455 S
N38 C37 1.336 . S
N38 N39 1.354 . S
N39 C35 1.336 . S
N39 N38 1.354 . S
N39 Zn43 2.020 . S
C40 O41 1.244 . S
C40 O64 1.257 . S
O41 C40 1.244 . S
O42 Zn34 2.019 . S
O42 C62 1.257 . S
Zn43 N39 2.020 . S
Zn43 O50 1.975 1_455 S
Zn43 N59 2.119 . S
Zn43 O64 2.019 . S
N44 Zn34 2.119 . S
N44 C46 1.334 . S
N44 C47 1.328 . S
C45 C46 1.391 . S
C45 N48 1.329 . S
C45 H66 0.930 . S
C46 N44 1.334 . S
C46 C45 1.391 . S
C46 H53 0.930 . S
C47 N44 1.328 . S
C47 C49 1.392 . S
C47 H54 0.930 . S
N48 C45 1.329 . S
N48 C49 1.331 . S
C49 C47 1.392 . S
C49 N48 1.331 . S
O50 Zn43 1.975 1_655 S
O50 C51 1.252 . S
C51 O50 1.252 . S
C51 O52 1.252 . S
O52 Zn34 1.975 . S
O52 C51 1.252 . S
H53 C46 0.930 . S
H54 C47 0.930 . S
C55 C56 1.392 . S
C55 N59 1.328 . S
C55 H61 0.930 . S
C56 C55 1.392 . S
C56 N60 1.331 . S
C57 C58 1.391 . S
C57 N60 1.329 . S
C57 H67 0.930 . S
C58 C57 1.391 . S
C58 N59 1.334 . S
C58 H65 0.930 . S
N59 Zn43 2.119 . S
N59 C55 1.328 . S
N59 C58 1.334 . S
N60 C56 1.331 . S
N60 C57 1.329 . S
H61 C55 0.930 . S
C62 O42 1.257 . S
C62 O63 1.244 . S
O63 C62 1.244 . S
O64 C40 1.257 . S
O64 Zn43 2.019 . S
H65 C58 0.930 . S
H66 C45 0.930 . S
H67 C57 0.930 . S
Zn68 N72 2.020 . S
Zn68 O76 2.019 . S
Zn68 N78 2.119 . S
Zn68 O86 1.975 . S
C69 N70 1.334 . S
C69 N73 1.336 . S
N70 C69 1.334 . S
N70 C71 1.334 . S
C71 N70 1.334 . S
C71 N72 1.336 . S
N72 Zn68 2.020 . S
N72 C71 1.336 . S
N72 N73 1.354 . S
N73 C69 1.336 . S
N73 N72 1.354 . S
N73 Zn77 2.020 . S
C74 O75 1.244 . S
C74 O98 1.257 . S
O75 C74 1.244 . S
O76 Zn68 2.019 . S
O76 C96 1.257 . S
Zn77 N73 2.020 . S
Zn77 O84 1.975 . S
Zn77 N93 2.119 . S
Zn77 O98 2.019 . S
N78 Zn68 2.119 . S
N78 C80 1.334 . S
N78 C81 1.328 . S
C79 C80 1.391 . S
C79 N82 1.329 . S
C79 H100 0.930 . S
C80 N78 1.334 . S
C80 C79 1.391 . S
C80 H87 0.930 . S
C81 N78 1.328 . S
C81 C83 1.392 . S
C81 H88 0.930 . S
N82 C79 1.329 . S
N82 C83 1.331 . S
C83 C81 1.392 . S
C83 N82 1.331 . S
O84 Zn77 1.975 . S
O84 C85 1.252 . S
C85 O84 1.252 . S
C85 O86 1.252 . S
O86 Zn68 1.975 . S
O86 C85 1.252 . S
H87 C80 0.930 . S
H88 C81 0.930 . S
C89 C90 1.392 1_655 S
C89 N93 1.328 . S
C89 H95 0.930 . S
C90 C89 1.392 1_455 S
C90 N94 1.331 . S
C91 C92 1.391 . S
C91 N94 1.329 1_655 S
C91 H101 0.930 1_655 S
C92 C91 1.391 . S
C92 N93 1.334 . S
C92 H99 0.930 . S
N93 Zn77 2.119 . S
N93 C89 1.328 . S
N93 C92 1.334 . S
N94 C90 1.331 . S
N94 C91 1.329 1_455 S
H95 C89 0.930 . S
C96 O76 1.257 . S
C96 O97 1.244 . S
O97 C96 1.244 . S
O98 C74 1.257 . S
O98 Zn77 2.019 . S
H99 C92 0.930 . S
H100 C79 0.930 . S
H101 C91 0.930 1_455 S
Zn102 N106 2.020 1_455 S
Zn102 O110 2.019 . S
Zn102 N112 2.119 . S
Zn102 O120 1.975 . S
C103 N104 1.334 . S
C103 N107 1.336 . S
N104 C103 1.334 . S
N104 C105 1.334 . S
C105 N104 1.334 . S
C105 N106 1.336 . S
N106 Zn102 2.020 1_655 S
N106 C105 1.336 . S
N106 N107 1.354 . S
N107 C103 1.336 . S
N107 N106 1.354 . S
N107 Zn111 2.020 . S
C108 O109 1.244 . S
C108 O132 1.257 . S
O109 C108 1.244 . S
O110 Zn102 2.019 . S
O110 C130 1.257 . S
Zn111 N107 2.020 . S
Zn111 O118 1.975 1_655 S
Zn111 N127 2.119 . S
Zn111 O132 2.019 . S
N112 Zn102 2.119 . S
N112 C114 1.334 . S
N112 C115 1.328 . S
C113 C114 1.391 . S
C113 N116 1.329 . S
C113 H134 0.930 . S
C114 N112 1.334 . S
C114 C113 1.391 . S
C114 H121 0.930 . S
C115 N112 1.328 . S
C115 C117 1.392 . S
C115 H122 0.930 . S
N116 C113 1.329 . S
N116 C117 1.331 . S
C117 C115 1.392 . S
C117 N116 1.331 . S
O118 Zn111 1.975 1_455 S
O118 C119 1.252 . S
C119 O118 1.252 . S
C119 O120 1.252 . S
O120 Zn102 1.975 . S
O120 C119 1.252 . S
H121 C114 0.930 . S
H122 C115 0.930 . S
C123 C124 1.392 . S
C123 N127 1.328 . S
C123 H129 0.930 . S
C124 C123 1.392 . S
C124 N128 1.331 . S
C125 C126 1.391 . S
C125 N128 1.329 . S
C125 H135 0.930 . S
C126 C125 1.391 . S
C126 N127 1.334 . S
C126 H133 0.930 . S
N127 Zn111 2.119 . S
N127 C123 1.328 . S
N127 C126 1.334 . S
N128 C124 1.331 . S
N128 C125 1.329 . S
H129 C123 0.930 . S
C130 O110 1.257 . S
C130 O131 1.244 . S
O131 C130 1.244 . S
O132 C108 1.257 . S
O132 Zn111 2.019 . S
H133 C126 0.930 . S
H134 C113 0.930 . S
H135 C125 0.930 . S
Zn136 N140 2.020 1_565 S
Zn136 O144 2.019 . S
Zn136 N146 2.119 . S
Zn136 O154 1.975 . S
C137 N138 1.334 . S
C137 N141 1.336 . S
N138 C137 1.334 . S
N138 C139 1.334 . S
C139 N138 1.334 . S
C139 N140 1.336 . S
N140 Zn136 2.020 1_545 S
N140 C139 1.336 . S
N140 N141 1.354 . S
N141 C137 1.336 . S
N141 N140 1.354 . S
N141 Zn145 2.020 . S
C142 O143 1.244 . S
C142 O166 1.257 . S
O143 C142 1.244 . S
O144 Zn136 2.019 . S
O144 C164 1.257 . S
Zn145 N141 2.020 . S
Zn145 O152 1.975 1_545 S
Zn145 N161 2.119 . S
Zn145 O166 2.019 . S
N146 Zn136 2.119 . S
N146 C148 1.334 . S
N146 C149 1.328 . S
C147 C148 1.391 . S
C147 N150 1.329 . S
C147 H168 0.930 . S
C148 N146 1.334 . S
C148 C147 1.391 . S
C148 H155 0.930 . S
C149 N146 1.328 . S
C149 C151 1.392 . S
C149 H156 0.930 . S
N150 C147 1.329 . S
N150 C151 1.331 . S
C151 C149 1.392 . S
C151 N150 1.331 . S
O152 Zn145 1.975 1_565 S
O152 C153 1.252 . S
C153 O152 1.252 . S
C153 O154 1.252 . S
O154 Zn136 1.975 . S
O154 C153 1.252 . S
H155 C148 0.930 . S
H156 C149 0.930 . S
C157 C158 1.392 . S
C157 N161 1.328 . S
C157 H163 0.930 . S
C158 C157 1.392 . S
C158 N162 1.331 . S
C159 C160 1.391 . S
C159 N162 1.329 . S
C159 H169 0.930 . S
C160 C159 1.391 . S
C160 N161 1.334 . S
C160 H167 0.930 . S
N161 Zn145 2.119 . S
N161 C157 1.328 . S
N161 C160 1.334 . S
N162 C158 1.331 . S
N162 C159 1.329 . S
H163 C157 0.930 . S
C164 O144 1.257 . S
C164 O165 1.244 . S
O165 C164 1.244 . S
O166 C142 1.257 . S
O166 Zn145 2.019 . S
H167 C160 0.930 . S
H168 C147 0.930 . S
H169 C159 0.930 . S
Zn170 N174 2.020 . S
Zn170 O178 2.019 . S
Zn170 N180 2.119 . S
Zn170 O188 1.975 . S
C171 N172 1.334 . S
C171 N175 1.336 . S
N172 C171 1.334 . S
N172 C173 1.334 . S
C173 N172 1.334 . S
C173 N174 1.336 . S
N174 Zn170 2.020 . S
N174 C173 1.336 . S
N174 N175 1.354 . S
N175 C171 1.336 . S
N175 N174 1.354 . S
N175 Zn179 2.020 . S
C176 O177 1.244 . S
C176 O200 1.257 . S
O177 C176 1.244 . S
O178 Zn170 2.019 . S
O178 C198 1.257 . S
Zn179 N175 2.020 . S
Zn179 O186 1.975 . S
Zn179 N195 2.119 . S
Zn179 O200 2.019 . S
N180 Zn170 2.119 . S
N180 C182 1.334 . S
N180 C183 1.328 . S
C181 C182 1.391 . S
C181 N184 1.329 . S
C181 H202 0.930 . S
C182 N180 1.334 . S
C182 C181 1.391 . S
C182 H189 0.930 . S
C183 N180 1.328 . S
C183 C185 1.392 . S
C183 H190 0.930 . S
N184 C181 1.329 . S
N184 C185 1.331 . S
C185 C183 1.392 . S
C185 N184 1.331 . S
O186 Zn179 1.975 . S
O186 C187 1.252 . S
C187 O186 1.252 . S
C187 O188 1.252 . S
O188 Zn170 1.975 . S
O188 C187 1.252 . S
H189 C182 0.930 . S
H190 C183 0.930 . S
C191 C192 1.392 . S
C191 N195 1.328 . S
C191 H197 0.930 . S
C192 C191 1.392 . S
C192 N196 1.331 . S
C193 C194 1.391 . S
C193 N196 1.329 . S
C193 H203 0.930 . S
C194 C193 1.391 . S
C194 N195 1.334 . S
C194 H201 0.930 . S
N195 Zn179 2.119 . S
N195 C191 1.328 . S
N195 C194 1.334 . S
N196 C192 1.331 . S
N196 C193 1.329 . S
H197 C191 0.930 . S
C198 O178 1.257 . S
C198 O199 1.244 . S
O199 C198 1.244 . S
O200 C176 1.257 . S
O200 Zn179 2.019 . S
H201 C194 0.930 . S
H202 C181 0.930 . S
H203 C193 0.930 . S
Zn204 N208 2.020 1_545 S
Zn204 O212 2.019 . S
Zn204 N214 2.119 . S
Zn204 O222 1.975 . S
C205 N206 1.334 . S
C205 N209 1.336 . S
N206 C205 1.334 . S
N206 C207 1.334 . S
C207 N206 1.334 . S
C207 N208 1.336 . S
N208 Zn204 2.020 1_565 S
N208 C207 1.336 . S
N208 N209 1.354 . S
N209 C205 1.336 . S
N209 N208 1.354 . S
N209 Zn213 2.020 . S
C210 O211 1.244 . S
C210 O234 1.257 . S
O211 C210 1.244 . S
O212 Zn204 2.019 . S
O212 C232 1.257 . S
Zn213 N209 2.020 . S
Zn213 O220 1.975 1_565 S
Zn213 N229 2.119 . S
Zn213 O234 2.019 . S
N214 Zn204 2.119 . S
N214 C216 1.334 . S
N214 C217 1.328 . S
C215 C216 1.391 . S
C215 N218 1.329 . S
C215 H236 0.930 . S
C216 N214 1.334 . S
C216 C215 1.391 . S
C216 H223 0.930 . S
C217 N214 1.328 . S
C217 C219 1.392 . S
C217 H224 0.930 . S
N218 C215 1.329 . S
N218 C219 1.331 . S
C219 C217 1.392 . S
C219 N218 1.331 . S
O220 Zn213 1.975 1_545 S
O220 C221 1.252 . S
C221 O220 1.252 . S
C221 O222 1.252 . S
O222 Zn204 1.975 . S
O222 C221 1.252 . S
H223 C216 0.930 . S
H224 C217 0.930 . S
C225 C226 1.392 . S
C225 N229 1.328 . S
C225 H231 0.930 . S
C226 C225 1.392 . S
C226 N230 1.331 . S
C227 C228 1.391 . S
C227 N230 1.329 . S
C227 H237 0.930 . S
C228 C227 1.391 . S
C228 N229 1.334 . S
C228 H235 0.930 . S
N229 Zn213 2.119 . S
N229 C225 1.328 . S
N229 C228 1.334 . S
N230 C226 1.331 . S
N230 C227 1.329 . S
H231 C225 0.930 . S
C232 O212 1.257 . S
C232 O233 1.244 . S
O233 C232 1.244 . S
O234 C210 1.257 . S
O234 Zn213 2.019 . S
H235 C228 0.930 . S
H236 C215 0.930 . S
H237 C227 0.930 . S
Zn238 N242 2.020 . S
Zn238 O246 2.019 . S
Zn238 N248 2.119 . S
Zn238 O256 1.975 . S
C239 N240 1.334 . S
C239 N243 1.336 . S
N240 C239 1.334 . S
N240 C241 1.334 . S
C241 N240 1.334 . S
C241 N242 1.336 . S
N242 Zn238 2.020 . S
N242 C241 1.336 . S
N242 N243 1.354 . S
N243 C239 1.336 . S
N243 N242 1.354 . S
N243 Zn247 2.020 . S
C244 O245 1.244 . S
C244 O268 1.257 . S
O245 C244 1.244 . S
O246 Zn238 2.019 . S
O246 C266 1.257 . S
Zn247 N243 2.020 . S
Zn247 O254 1.975 . S
Zn247 N263 2.119 . S
Zn247 O268 2.019 . S
N248 Zn238 2.119 . S
N248 C250 1.334 . S
N248 C251 1.328 . S
C249 C250 1.391 . S
C249 N252 1.329 1_565 S
C249 H270 0.930 1_565 S
C250 N248 1.334 . S
C250 C249 1.391 . S
C250 H257 0.930 . S
C251 N248 1.328 . S
C251 C253 1.392 1_565 S
C251 H258 0.930 . S
N252 C249 1.329 1_545 S
N252 C253 1.331 . S
C253 C251 1.392 1_545 S
C253 N252 1.331 . S
O254 Zn247 1.975 . S
O254 C255 1.252 . S
C255 O254 1.252 . S
C255 O256 1.252 . S
O256 Zn238 1.975 . S
O256 C255 1.252 . S
H257 C250 0.930 . S
H258 C251 0.930 . S
C259 C260 1.392 . S
C259 N263 1.328 . S
C259 H265 0.930 . S
C260 C259 1.392 . S
C260 N264 1.331 . S
C261 C262 1.391 . S
C261 N264 1.329 . S
C261 H271 0.930 . S
C262 C261 1.391 . S
C262 N263 1.334 . S
C262 H269 0.930 . S
N263 Zn247 2.119 . S
N263 C259 1.328 . S
N263 C262 1.334 . S
N264 C260 1.331 . S
N264 C261 1.329 . S
H265 C259 0.930 . S
C266 O246 1.257 . S
C266 O267 1.244 . S
O267 C266 1.244 . S
O268 C244 1.257 . S
O268 Zn247 2.019 . S
H269 C262 0.930 . S
H270 C249 0.930 1_545 S
H271 C261 0.930 . S
C272 C273 1.387 . S
C272 H276 0.950 . S
C272 C281 1.390 . S
C273 C272 1.387 . S
C273 C275 1.387 . S
H274 C281 0.950 . S
C275 C273 1.387 . S
C275 C277 1.390 . S
C275 H279 0.950 . S
H276 C272 0.950 . S
C277 C275 1.390 . S
C277 C278 1.387 . S
C277 H280 0.950 . S
C278 C277 1.387 . S
C278 C281 1.387 . S
H279 C275 0.950 . S
H280 C277 0.950 . S
C281 C272 1.390 . S
C281 H274 0.950 . S
C281 C278 1.387 . S
C282 C283 1.387 . S
C282 H286 0.950 . S
C282 C291 1.390 . S
C283 C282 1.387 . S
C283 C285 1.387 . S
H284 C291 0.950 . S
C285 C283 1.387 . S
C285 C287 1.390 . S
C285 H289 0.950 . S
H286 C282 0.950 . S
C287 C285 1.390 . S
C287 C288 1.387 . S
C287 H290 0.950 . S
C288 C287 1.387 . S
C288 C291 1.387 . S
H289 C285 0.950 . S
H290 C287 0.950 . S
C291 C282 1.390 . S
C291 H284 0.950 . S
C291 C288 1.387 . S
C292 C293 1.387 . S
C292 H296 0.950 . S
C292 C301 1.390 . S
C293 C292 1.387 . S
C293 C295 1.387 . S
H294 C301 0.950 . S
C295 C293 1.387 . S
C295 C297 1.390 . S
C295 H299 0.950 . S
H296 C292 0.950 . S
C297 C295 1.390 . S
C297 C298 1.387 . S
C297 H300 0.950 . S
C298 C297 1.387 . S
C298 C301 1.387 . S
H299 C295 0.950 . S
H300 C297 0.950 . S
C301 C292 1.390 . S
C301 H294 0.950 . S
C301 C298 1.387 . S
C302 C303 1.387 . S
C302 H306 0.950 . S
C302 C311 1.390 . S
C303 C302 1.387 . S
C303 C305 1.387 . S
H304 C311 0.950 . S
C305 C303 1.387 . S
C305 C307 1.390 . S
C305 H309 0.950 . S
H306 C302 0.950 . S
C307 C305 1.390 . S
C307 C308 1.387 . S
C307 H310 0.950 . S
C308 C307 1.387 . S
C308 C311 1.387 . S
H309 C305 0.950 . S
H310 C307 0.950 . S
C311 C302 1.390 . S
C311 H304 0.950 . S
C311 C308 1.387 . S
C312 C313 1.387 . S
C312 H316 0.950 . S
C312 C321 1.390 . S
C313 C312 1.387 . S
C313 C315 1.387 . S
H314 C321 0.950 . S
C315 C313 1.387 . S
C315 C317 1.390 . S
C315 H319 0.950 . S
H316 C312 0.950 . S
C317 C315 1.390 . S
C317 C318 1.387 . S
C317 H320 0.950 . S
C318 C317 1.387 . S
C318 C321 1.387 . S
H319 C315 0.950 . S
H320 C317 0.950 . S
C321 C312 1.390 . S
C321 H314 0.950 . S
C321 C318 1.387 . S
C322 C323 1.387 . S
C322 H326 0.950 . S
C322 C331 1.390 . S
C323 C322 1.387 . S
C323 C325 1.387 . S
H324 C331 0.950 . S
C325 C323 1.387 . S
C325 C327 1.390 . S
C325 H329 0.950 . S
H326 C322 0.950 . S
C327 C325 1.390 . S
C327 C328 1.387 . S
C327 H330 0.950 . S
C328 C327 1.387 . S
C328 C331 1.387 . S
H329 C325 0.950 . S
H330 C327 0.950 . S
C331 C322 1.390 . S
C331 H324 0.950 . S
C331 C328 1.387 . S
C332 C333 1.387 . S
C332 H336 0.950 . S
C332 C341 1.390 . S
C333 C332 1.387 . S
C333 C335 1.387 . S
H334 C341 0.950 . S
C335 C333 1.387 . S
C335 C337 1.390 . S
C335 H339 0.950 . S
H336 C332 0.950 . S
C337 C335 1.390 . S
C337 C338 1.387 . S
C337 H340 0.950 . S
C338 C337 1.387 . S
C338 C341 1.387 . S
H339 C335 0.950 . S
H340 C337 0.950 . S
C341 C332 1.390 . S
C341 H334 0.950 . S
C341 C338 1.387 . S
C342 C343 1.387 . S
C342 H346 0.950 . S
C342 C351 1.390 . S
C343 C342 1.387 . S
C343 C345 1.387 . S
H344 C351 0.950 . S
C345 C343 1.387 . S
C345 C347 1.390 . S
C345 H349 0.950 . S
H346 C342 0.950 . S
C347 C345 1.390 . S
C347 C348 1.387 . S
C347 H350 0.950 . S
C348 C347 1.387 . S
C348 C351 1.387 . S
H349 C345 0.950 . S
H350 C347 0.950 . S
C351 C342 1.390 . S
C351 H344 0.950 . S
C351 C348 1.387 . S
C352 C353 1.387 . S
C352 H356 0.950 . S
C352 C361 1.390 . S
C353 C352 1.387 . S
C353 C355 1.387 . S
H354 C361 0.950 . S
C355 C353 1.387 . S
C355 C357 1.390 . S
C355 H359 0.950 . S
H356 C352 0.950 . S
C357 C355 1.390 . S
C357 C358 1.387 . S
C357 H360 0.950 . S
C358 C357 1.387 . S
C358 C361 1.387 . S
H359 C355 0.950 . S
H360 C357 0.950 . S
C361 C352 1.390 . S
C361 H354 0.950 . S
C361 C358 1.387 . S
C362 C363 1.387 . S
C362 H366 0.950 . S
C362 C371 1.390 . S
C363 C362 1.387 . S
C363 C365 1.387 . S
H364 C371 0.950 . S
C365 C363 1.387 . S
C365 C367 1.390 . S
C365 H369 0.950 . S
H366 C362 0.950 . S
C367 C365 1.390 . S
C367 C368 1.387 . S
C367 H370 0.950 . S
C368 C367 1.387 . S
C368 C371 1.387 . S
H369 C365 0.950 . S
H370 C367 0.950 . S
C371 C362 1.390 . S
C371 H364 0.950 . S
C371 C368 1.387 . S
C372 C373 1.387 . S
C372 H376 0.950 . S
C372 C381 1.390 . S
C373 C372 1.387 . S
C373 C375 1.387 . S
H374 C381 0.950 . S
C375 C373 1.387 . S
C375 C377 1.390 . S
C375 H379 0.950 1_554 S
H376 C372 0.950 . S
C377 C375 1.390 . S
C377 C378 1.387 . S
C377 H380 0.950 . S
C378 C377 1.387 . S
C378 C381 1.387 . S
H379 C375 0.950 1_556 S
H380 C377 0.950 . S
C381 C372 1.390 . S
C381 H374 0.950 . S
C381 C378 1.387 . S
C382 C383 1.387 . S
C382 H386 0.950 . S
C382 C391 1.390 . S
C383 C382 1.387 . S
C383 C385 1.387 . S
H384 C391 0.950 . S
C385 C383 1.387 . S
C385 C387 1.390 . S
C385 H389 0.950 . S
H386 C382 0.950 . S
C387 C385 1.390 . S
C387 C388 1.387 . S
C387 H390 0.950 . S
C388 C387 1.387 . S
C388 C391 1.387 . S
H389 C385 0.950 . S
H390 C387 0.950 . S
C391 C382 1.390 . S
C391 H384 0.950 . S
C391 C388 1.387 . S
C392 C393 1.387 . S
C392 H396 0.950 . S
C392 C401 1.390 . S
C393 C392 1.387 . S
C393 C395 1.387 . S
H394 C401 0.950 . S
C395 C393 1.387 . S
C395 C397 1.390 . S
C395 H399 0.950 . S
H396 C392 0.950 . S
C397 C395 1.390 . S
C397 C398 1.387 . S
C397 H400 0.950 . S
C398 C397 1.387 . S
C398 C401 1.387 . S
H399 C395 0.950 . S
H400 C397 0.950 . S
C401 C392 1.390 . S
C401 H394 0.950 . S
C401 C398 1.387 . S
C402 C403 1.387 . S
C402 H406 0.950 . S
C402 C411 1.390 . S
C403 C402 1.387 . S
C403 C405 1.387 . S
H404 C411 0.950 . S
C405 C403 1.387 . S
C405 C407 1.390 . S
C405 H409 0.950 . S
H406 C402 0.950 . S
C407 C405 1.390 . S
C407 C408 1.387 . S
C407 H410 0.950 . S
C408 C407 1.387 . S
C408 C411 1.387 . S
H409 C405 0.950 . S
H410 C407 0.950 . S
C411 C402 1.390 . S
C411 H404 0.950 . S
C411 C408 1.387 . S
C412 C413 1.387 . S
C412 H416 0.950 . S
C412 C421 1.390 . S
C413 C412 1.387 . S
C413 C415 1.387 . S
H414 C421 0.950 . S
C415 C413 1.387 . S
C415 C417 1.390 . S
C415 H419 0.950 . S
H416 C412 0.950 . S
C417 C415 1.390 . S
C417 C418 1.387 . S
C417 H420 0.950 . S
C418 C417 1.387 . S
C418 C421 1.387 . S
H419 C415 0.950 . S
H420 C417 0.950 . S
C421 C412 1.390 . S
C421 H414 0.950 . S
C421 C418 1.387 . S
C422 C423 1.387 1_554 S
C422 H426 0.950 . S
C422 C431 1.390 1_554 S
C423 C422 1.387 1_556 S
C423 C425 1.387 . S
H424 C431 0.950 . S
C425 C423 1.387 . S
C425 C427 1.390 . S
C425 H429 0.950 . S
H426 C422 0.950 . S
C427 C425 1.390 . S
C427 C428 1.387 . S
C427 H430 0.950 . S
C428 C427 1.387 . S
C428 C431 1.387 . S
H429 C425 0.950 . S
H430 C427 0.950 . S
C431 C422 1.390 1_556 S
C431 H424 0.950 . S
C431 C428 1.387 . S
C432 C433 1.387 . S
C432 H436 0.950 . S
C432 C441 1.390 . S
C433 C432 1.387 . S
C433 C435 1.387 . S
H434 C441 0.950 . S
C435 C433 1.387 . S
C435 C437 1.390 . S
C435 H439 0.950 . S
H436 C432 0.950 . S
C437 C435 1.390 . S
C437 C438 1.387 . S
C437 H440 0.950 . S
C438 C437 1.387 . S
C438 C441 1.387 . S
H439 C435 0.950 . S
H440 C437 0.950 . S
C441 C432 1.390 . S
C441 H434 0.950 . S
C441 C438 1.387 . S
C442 C443 1.387 . S
C442 H446 0.950 . S
C442 C451 1.390 1_545 S
C443 C442 1.387 . S
C443 C445 1.387 . S
H444 C451 0.950 . S
C445 C443 1.387 . S
C445 C447 1.390 . S
C445 H449 0.950 . S
H446 C442 0.950 . S
C447 C445 1.390 . S
C447 C448 1.387 1_545 S
C447 H450 0.950 . S
C448 C447 1.387 1_565 S
C448 C451 1.387 . S
H449 C445 0.950 . S
H450 C447 0.950 . S
C451 C442 1.390 1_565 S
C451 H444 0.950 . S
C451 C448 1.387 . S
C452 C453 1.387 . S
C452 H456 0.950 . S
C452 C461 1.390 . S
C453 C452 1.387 . S
C453 C455 1.387 . S
H454 C461 0.950 . S
C455 C453 1.387 . S
C455 C457 1.390 . S
C455 H459 0.950 . S
H456 C452 0.950 . S
C457 C455 1.390 . S
C457 C458 1.387 . S
C457 H460 0.950 . S
C458 C457 1.387 . S
C458 C461 1.387 . S
H459 C455 0.950 . S
H460 C457 0.950 . S
C461 C452 1.390 . S
C461 H454 0.950 . S
C461 C458 1.387 . S
C462 C463 1.387 . S
C462 H466 0.950 . S
C462 C471 1.385 1_545 S
C463 C462 1.387 . S
C463 C465 1.376 1_545 S
H464 C471 0.950 . S
C465 C463 1.376 1_565 S
C465 C467 1.401 . S
C465 H469 0.950 . S
H466 C462 0.950 . S
C467 C465 1.401 . S
C467 C468 1.387 . S
C467 H470 0.950 . S
C468 C467 1.387 . S
C468 C471 1.393 . S
H469 C465 0.950 . S
H470 C467 0.950 . S
C471 C462 1.385 1_565 S
C471 H464 0.950 . S
C471 C468 1.393 . S
C472 C473 1.387 1_455 S
C472 H476 0.950 . S
C472 C481 1.390 . S
C473 C472 1.387 1_655 S
C473 C475 1.387 . S
H474 C481 0.950 . S
C475 C473 1.387 . S
C475 C477 1.390 1_655 S
C475 H479 0.950 . S
H476 C472 0.950 . S
C477 C475 1.390 1_455 S
C477 C478 1.387 . S
C477 H480 0.950 . S
C478 C477 1.387 . S
C478 C481 1.387 . S
H479 C475 0.950 . S
H480 C477 0.950 . S
C481 C472 1.390 . S
C481 H474 0.950 . S
C481 C478 1.387 . S
C482 C483 1.387 . S
C482 H486 0.950 . S
C482 C491 1.390 . S
C483 C482 1.387 . S
C483 C485 1.387 . S
H484 C491 0.950 . S
C485 C483 1.387 . S
C485 C487 1.390 . S
C485 H489 0.950 . S
H486 C482 0.950 . S
C487 C485 1.390 . S
C487 C488 1.387 . S
C487 H490 0.950 . S
C488 C487 1.387 . S
C488 C491 1.387 . S
H489 C485 0.950 . S
H490 C487 0.950 . S
C491 C482 1.390 . S
C491 H484 0.950 . S
C491 C488 1.387 . S
C492 C493 1.387 . S
C492 H496 0.950 . S
C492 C501 1.390 . S
C493 C492 1.387 . S
C493 C495 1.387 1_455 S
H494 C501 0.950 . S
C495 C493 1.387 1_655 S
C495 C497 1.390 . S
C495 H499 0.950 . S
H496 C492 0.950 . S
C497 C495 1.390 . S
C497 C498 1.387 . S
C497 H500 0.950 . S
C498 C497 1.387 . S
C498 C501 1.387 1_655 S
H499 C495 0.950 . S
H500 C497 0.950 . S
C501 C492 1.390 . S
C501 H494 0.950 . S
C501 C498 1.387 1_455 S
C502 C503 1.387 . S
C502 H506 0.950 . S
C502 C511 1.390 . S
C503 C502 1.387 . S
C503 C505 1.387 . S
H504 C511 0.950 . S
C505 C503 1.387 . S
C505 C507 1.390 . S
C505 H509 0.950 . S
H506 C502 0.950 . S
C507 C505 1.390 . S
C507 C508 1.387 . S
C507 H510 0.950 . S
C508 C507 1.387 . S
C508 C511 1.387 . S
H509 C505 0.950 . S
H510 C507 0.950 . S
C511 C502 1.390 . S
C511 H504 0.950 . S
C511 C508 1.387 . S
C512 C513 1.387 . S
C512 H516 0.950 . S
C512 C521 1.390 . S
C513 C512 1.387 . S
C513 C515 1.387 . S
H514 C521 0.950 . S
C515 C513 1.387 . S
C515 C517 1.390 . S
C515 H519 0.950 . S
H516 C512 0.950 . S
C517 C515 1.390 . S
C517 C518 1.387 . S
C517 H520 0.950 . S
C518 C517 1.387 . S
C518 C521 1.387 . S
H519 C515 0.950 . S
H520 C517 0.950 . S
C521 C512 1.390 . S
C521 H514 0.950 . S
C521 C518 1.387 . S
C522 C523 1.387 . S
C522 H526 0.950 1_565 S
C522 C531 1.390 . S
C523 C522 1.387 . S
C523 C525 1.387 . S
H524 C531 0.950 1_545 S
C525 C523 1.387 . S
C525 C527 1.390 . S
C525 H529 0.950 . S
H526 C522 0.950 1_545 S
C527 C525 1.390 . S
C527 C528 1.387 . S
C527 H530 0.950 . S
C528 C527 1.387 . S
C528 C531 1.387 . S
H529 C525 0.950 . S
H530 C527 0.950 . S
C531 C522 1.390 . S
C531 H524 0.950 1_565 S
C531 C528 1.387 . S
C532 C533 1.387 . S
C532 H536 0.950 . S
C532 C541 1.390 1_554 S
C533 C532 1.387 . S
C533 C535 1.387 . S
H534 C541 0.950 . S
C535 C533 1.387 . S
C535 C537 1.390 1_554 S
C535 H539 0.950 . S
H536 C532 0.950 . S
C537 C535 1.390 1_556 S
C537 C538 1.387 . S
C537 H540 0.950 . S
C538 C537 1.387 . S
C538 C541 1.387 . S
H539 C535 0.950 . S
H540 C537 0.950 . S
C541 C532 1.390 1_556 S
C541 H534 0.950 . S
C541 C538 1.387 . S
C542 C543 1.387 . S
C542 H546 0.950 . S
C542 C551 1.390 . S
C543 C542 1.387 . S
C543 C545 1.387 . S
H544 C551 0.950 1_565 S
C545 C543 1.387 . S
C545 C547 1.390 . S
C545 H549 0.950 . S
H546 C542 0.950 . S
C547 C545 1.390 . S
C547 C548 1.387 . S
C547 H550 0.950 . S
C548 C547 1.387 . S
C548 C551 1.387 . S
H549 C545 0.950 . S
H550 C547 0.950 . S
C551 C542 1.390 . S
C551 H544 0.950 1_545 S
C551 C548 1.387 . S
C273 C3 1.284 . S
C278 C158 1.430 . S
C283 C192 1.428 1_565 S
C288 C35 1.279 . S
C293 C226 1.428 . S
C298 C69 1.281 . S
C303 C103 1.280 . S
C308 C253 1.428 . S
C313 C15 1.427 1_655 S
C318 C137 1.279 . S
C323 C56 1.428 . S
C328 C171 1.279 . S
C333 C205 1.284 . S
C338 C90 1.430 . S
C343 C124 1.429 . S
C348 C241 1.282 . S
C353 C40 1.492 . S
C358 C6 1.535 . S
C363 C74 1.493 . S
C368 C62 1.535 . S
C373 C96 1.533 1_554 S
C378 C108 1.490 . S
C383 C130 1.535 . S
C388 C28 1.493 . S
C393 C266 1.492 . S
C398 C164 1.533 . S
C403 C198 1.534 . S
C408 C142 1.491 . S
C413 C232 1.535 . S
C418 C176 1.492 . S
C423 C244 1.534 1_556 S
C428 C210 1.490 . S
C433 C153 1.946 . S
C438 C22 1.664 . S
C443 C187 1.946 . S
C448 C49 1.660 . S
C453 C83 1.661 . S
C458 C221 1.946 . S
C463 C117 1.661 . S
C468 C255 1.946 . S
C473 C151 1.663 . S
C478 C17 1.947 . S
C483 C185 1.665 . S
C488 C51 1.947 . S
C493 C219 1.660 . S
C498 C85 1.946 . S
C503 C260 1.664 . S
C508 C119 1.947 . S
C513 C173 2.191 . S
C518 C1 2.193 . S
C523 C207 2.193 . S
C528 C37 2.191 . S
C533 C239 2.193 . S
C538 C71 2.192 . S
C543 C105 2.191 . S
C548 C139 2.192 . S
