# Generated by pormake.
# Topology pts-e, (5)-cn, num edge types: 1
# Building blocks:
#     Node 0, Type 0, BuildingBlock: BEQFEK_clean_sbu_0, # of connection points: 5
#     Node 1, Type 0, BuildingBlock: BEQFEK_clean_sbu_0, # of connection points: 5
#     Node 2, Type 0, BuildingBlock: BEQFEK_clean_sbu_0, # of connection points: 5
#     Node 3, Type 0, BuildingBlock: BEQFEK_clean_sbu_0, # of connection points: 5
#     Node 4, Type 0, BuildingBlock: BEQFEK_clean_sbu_0, # of connection points: 5
#     Node 5, Type 0, BuildingBlock: BEQFEK_clean_sbu_0, # of connection points: 5
#     Node 6, Type 0, BuildingBlock: BEQFEK_clean_sbu_0, # of connection points: 5
#     Node 7, Type 0, BuildingBlock: BEQFEK_clean_sbu_0, # of connection points: 5
#     Edge 8, Type (0, 0), BuildingBlock: OJICUG_clean_linker_0, # of connection points: 2
#     Edge 9, Type (0, 0), BuildingBlock: OJICUG_clean_linker_0, # of connection points: 2
#     Edge 10, Type (0, 0), BuildingBlock: OJICUG_clean_linker_0, # of connection points: 2
#     Edge 11, Type (0, 0), BuildingBlock: OJICUG_clean_linker_0, # of connection points: 2
#     Edge 12, Type (0, 0), BuildingBlock: OJICUG_clean_linker_0, # of connection points: 2
#     Edge 13, Type (0, 0), BuildingBlock: OJICUG_clean_linker_0, # of connection points: 2
#     Edge 14, Type (0, 0), BuildingBlock: OJICUG_clean_linker_0, # of connection points: 2
#     Edge 15, Type (0, 0), BuildingBlock: OJICUG_clean_linker_0, # of connection points: 2
#     Edge 16, Type (0, 0), BuildingBlock: OJICUG_clean_linker_0, # of connection points: 2
#     Edge 17, Type (0, 0), BuildingBlock: OJICUG_clean_linker_0, # of connection points: 2
#     Edge 18, Type (0, 0), BuildingBlock: OJICUG_clean_linker_0, # of connection points: 2
#     Edge 19, Type (0, 0), BuildingBlock: OJICUG_clean_linker_0, # of connection points: 2
#     Edge 20, Type (0, 0), BuildingBlock: OJICUG_clean_linker_0, # of connection points: 2
#     Edge 21, Type (0, 0), BuildingBlock: OJICUG_clean_linker_0, # of connection points: 2
#     Edge 22, Type (0, 0), BuildingBlock: OJICUG_clean_linker_0, # of connection points: 2
#     Edge 23, Type (0, 0), BuildingBlock: OJICUG_clean_linker_0, # of connection points: 2
#     Edge 24, Type (0, 0), BuildingBlock: OJICUG_clean_linker_0, # of connection points: 2
#     Edge 25, Type (0, 0), BuildingBlock: OJICUG_clean_linker_0, # of connection points: 2
#     Edge 26, Type (0, 0), BuildingBlock: OJICUG_clean_linker_0, # of connection points: 2
#     Edge 27, Type (0, 0), BuildingBlock: OJICUG_clean_linker_0, # of connection points: 2
# Relax obj value: 0.398
# Max RMSD: 0.231
# Mean RMSD: 0.231
data_MOF--net-pts-e--node1-BEQFEK_clean_sbu_0--edge1-OJICUG_clean_linker_0
_symmetry_space_group_name_H-M    P1
_symmetry_Int_Tables_number       1
_symmetry_cell_setting            triclinic
loop_
_symmetry_equiv_pos_as_xyz
'x, y, z'
_cell_length_a     28.409938
_cell_length_b     28.42241
_cell_length_c     36.48463
_cell_angle_alpha  89.804205
_cell_angle_beta   90.020441
_cell_angle_gamma 89.936829
loop_
_atom_site_label
_atom_site_type_symbol
_atom_site_fract_x
_atom_site_fract_y
_atom_site_fract_z
_atom_type_partial_charge
Co0 Co 0.17932 0.02373 0.18238 0.0
Co1 Co 0.27509 0.01537 0.22292 0.0
C2 C 0.21189 0.09747 0.23681 0.0
O3 O 0.18289 0.08027 0.21384 0.0
O4 O 0.25105 0.07695 0.24388 0.0
C5 C 0.10718 0.06731 0.13776 0.0
O6 O 0.12865 0.10748 0.14374 0.0
C7 C 0.37659 0.02278 0.24333 0.0
C8 C 0.39265 0.94718 0.25078 0.0
C9 C 0.41312 0.9913 0.25035 0.0
N10 N 0.33654 -0.00196 0.23947 0.0
N11 N 0.34642 0.95303 0.2446 0.0
C12 C 0.38028 0.07457 0.23661 0.0
H13 H 0.34851 0.08777 0.22212 0.0
H14 H 0.41235 0.08266 0.22039 0.0
H15 H 0.38318 0.0929 0.26332 0.0
C16 C 0.23825 0.01454 0.11722 0.0
N17 N 0.23321 0.01679 0.15377 0.0
N18 N 0.27471 0.01478 0.16966 0.0
C19 C 0.30789 0.01194 0.14295 0.0
C20 C 0.28559 0.012 0.10894 0.0
C21 C 0.19821 0.01373 0.09057 0.0
H22 H 0.18414 0.0499 0.08716 0.0
H23 H 0.20964 0.00046 0.06351 0.0
H24 H 0.16977 0.99066 0.10103 0.0
O25 O 0.1678 0.96761 0.21272 0.0
O26 O 0.23389 0.96502 0.24478 0.0
H27 H 0.37925 0.00357 0.12356 0.0
H28 H 0.37184 0.04214 0.16238 0.0
C29 C 0.35971 0.00903 0.14955 0.0
H30 H 0.36739 0.9796 0.16865 0.0
H31 H 0.32186 0.92595 0.24217 0.0
O32 O 0.1238 0.02963 0.15129 0.0
C33 C 0.19297 0.94928 0.23772 0.0
Co34 Co 0.00355 0.17842 0.68129 0.0
Co35 Co 0.01203 0.27441 0.72141 0.0
C36 C 0.93125 0.20977 0.73713 0.0
O37 O 0.94771 0.18112 0.71361 0.0
O38 O 0.95174 0.24895 0.74376 0.0
C39 C 0.96033 0.10602 0.63734 0.0
O40 O 0.92009 0.12742 0.64344 0.0
C41 C 0.00157 0.37527 0.74252 0.0
C42 C 0.07669 0.39507 0.74573 0.0
C43 C 0.03165 0.41355 0.74781 0.0
N44 N 0.028 0.33668 0.73673 0.0
N45 N 0.07277 0.34877 0.73922 0.0
C46 C 0.94893 0.37443 0.744 0.0
H47 H 0.93637 0.33902 0.75219 0.0
H48 H 0.93442 0.38242 0.71646 0.0
H49 H 0.93562 0.40093 0.76373 0.0
C50 C 0.01063 0.23743 0.61585 0.0
N51 N 0.00913 0.23229 0.65243 0.0
N52 N 0.01118 0.27375 0.66822 0.0
C53 C 0.01328 0.30699 0.64145 0.0
C54 C 0.01273 0.2848 0.60749 0.0
C55 C 0.01139 0.19749 0.58925 0.0
H56 H 0.03504 0.16928 0.59939 0.0
H57 H 0.97532 0.18306 0.5864 0.0
H58 H 0.02393 0.20911 0.56196 0.0
O59 O 0.06019 0.16783 0.71109 0.0
O60 O 0.06369 0.23423 0.74256 0.0
H61 H 0.04782 0.36666 0.66457 0.0
H62 H 0.01781 0.37867 0.6218 0.0
C63 C 0.0161 0.35877 0.64799 0.0
H64 H 0.98477 0.37025 0.66366 0.0
H65 H 0.1008 0.32561 0.73519 0.0
O66 O -0.00196 0.12279 0.65053 0.0
C67 C 0.07921 0.19319 0.73552 0.0
Co68 Co 0.84752 0.00455 0.17912 0.0
Co69 Co 0.75274 0.01388 0.22138 0.0
C70 C 0.82055 0.93274 0.23536 0.0
O71 O 0.84848 0.94803 0.2107 0.0
O72 O 0.78188 0.95407 0.24274 0.0
C73 C 0.91268 0.04611 0.13269 0.0
O74 O 0.88326 0.08142 0.13677 0.0
C75 C 0.65236 -0.00159 0.24177 0.0
C76 C 0.63127 0.07182 0.25312 0.0
C77 C 0.61356 0.02658 0.25042 0.0
N78 N 0.69045 0.02626 0.23872 0.0
N79 N 0.6776 0.0699 0.24608 0.0
C80 C 0.65424 0.94609 0.23754 0.0
H81 H 0.69019 0.93292 0.24354 0.0
H82 H 0.64563 0.93653 0.20888 0.0
H83 H 0.62859 0.92882 0.25615 0.0
C84 C 0.78518 0.00303 0.11518 0.0
N85 N 0.79216 0.00672 0.15151 0.0
N86 N 0.75168 0.01352 0.16816 0.0
C87 C 0.71758 0.01646 0.14216 0.0
C88 C 0.73785 0.00923 0.1079 0.0
C89 C 0.82333 0.99412 0.0877 0.0
H90 H 0.84989 0.96963 0.09926 0.0
H91 H 0.80918 0.97902 0.06199 0.0
H92 H 0.8407 0.0279 0.08075 0.0
O93 O 0.85663 0.06061 0.21029 0.0
O94 O 0.79073 0.06656 0.24202 0.0
H95 H 0.64796 0.03627 0.124 0.0
H96 H 0.65008 -0.00532 0.16128 0.0
C97 C 0.66684 0.02651 0.14957 0.0
H98 H 0.66369 0.05544 0.16971 0.0
H99 H 0.7002 0.09877 0.24497 0.0
O100 O 0.90277 0.00651 0.14707 0.0
C101 C 0.83196 0.0809 0.23451 0.0
Co102 Co 0.02341 0.84651 0.67983 0.0
Co103 Co 0.01483 0.75212 0.72274 0.0
C104 C 0.09697 0.81861 0.73473 0.0
O105 O 0.08067 0.84685 0.7106 0.0
O106 O 0.0759 0.77994 0.74256 0.0
C107 C 0.9818 0.91157 0.63328 0.0
O108 O 0.94646 0.88233 0.6378 0.0
C109 C 0.02696 0.65088 0.7426 0.0
C110 C 0.95357 0.63411 0.75802 0.0
C111 C -0.00261 0.61404 0.75279 0.0
N112 N 0.00131 0.69071 0.74148 0.0
N113 N 0.95776 0.68041 0.75142 0.0
C114 C 0.07713 0.64771 0.73049 0.0
H115 H 0.08722 0.67964 0.71473 0.0
H116 H 0.08268 0.61574 0.71363 0.0
H117 H 0.10007 0.64499 0.75502 0.0
C118 C 0.02338 0.78393 0.61618 0.0
N119 N 0.0203 0.791 0.65252 0.0
N120 N 0.01365 0.7506 0.66945 0.0
C121 C 0.01008 0.71651 0.64359 0.0
C122 C 0.01684 0.73667 0.60916 0.0
C123 C 0.03231 0.82189 0.58842 0.0
H124 H -0.00142 0.83952 0.58163 0.0
H125 H 0.05714 0.84823 0.59962 0.0
H126 H 0.04707 0.80751 0.56266 0.0
O127 O 0.96768 0.85662 0.71144 0.0
O128 O 0.96333 0.79128 0.74408 0.0
H129 H 0.97367 0.66263 0.67349 0.0
H130 H 0.98674 0.64791 0.62629 0.0
C131 C -0.0 0.66584 0.65122 0.0
H132 H 0.03292 0.64815 0.65997 0.0
H133 H 0.93017 0.70464 0.75192 0.0
O134 O 0.02152 0.90156 0.64744 0.0
C135 C 0.94836 0.83224 0.7364 0.0
Co136 Co 0.17957 0.00194 0.88304 0.0
Co137 Co 0.27522 0.01161 0.84252 0.0
C138 C 0.2119 0.93013 0.82706 0.0
O139 O 0.18303 0.94652 0.85048 0.0
O140 O 0.25104 0.95079 0.82037 0.0
C141 C 0.10744 0.95713 0.92677 0.0
O142 O 0.12888 0.91711 0.91998 0.0
C143 C 0.37666 0.00471 0.82192 0.0
C144 C 0.39239 0.0804 0.81487 0.0
C145 C 0.41302 0.03632 0.81498 0.0
N146 N 0.33653 0.02934 0.82604 0.0
N147 N 0.34621 0.07441 0.82116 0.0
C148 C 0.38056 0.95286 0.8283 0.0
H149 H 0.34891 0.93947 0.8428 0.0
H150 H 0.41274 0.94463 0.84437 0.0
H151 H 0.38335 0.93481 0.80147 0.0
C152 C 0.23861 0.00935 0.94823 0.0
N153 N 0.23355 0.00798 0.91166 0.0
N154 N 0.27499 0.01077 0.89578 0.0
C155 C 0.30817 0.01339 0.92251 0.0
C156 C 0.28593 0.0122 0.95653 0.0
C157 C 0.19858 0.00939 0.97487 0.0
H158 H 0.17019 0.03294 0.96488 0.0
H159 H 0.18442 0.97319 0.97749 0.0
H160 H 0.21002 0.02166 1.00222 0.0
O161 O 0.16783 0.05887 0.85369 0.0
O162 O 0.23386 0.06247 0.82167 0.0
H163 H 0.36697 0.04714 0.89704 0.0
H164 H 0.37937 0.02283 0.94196 0.0
C165 C 0.35991 0.01734 0.91593 0.0
H166 H 0.37272 0.98462 0.90286 0.0
H167 H 0.32156 0.10143 0.82379 0.0
O168 O 0.12413 -0.00481 0.91406 0.0
C169 C 0.19289 0.07793 0.829 0.0
Co170 Co 0.02407 0.1793 0.38185 0.0
Co171 Co 0.01565 0.27515 0.34119 0.0
C172 C 0.09771 0.21188 0.3271 0.0
O173 O 0.08056 0.18288 0.35019 0.0
O174 O 0.07717 0.25103 0.32004 0.0
C175 C 0.06757 0.107 0.42642 0.0
O176 O 0.10781 0.12835 0.42027 0.0
C177 C 0.02313 0.37674 0.32092 0.0
C178 C 0.94754 0.39282 0.31342 0.0
C179 C 0.99165 0.4133 0.31398 0.0
N180 N -0.00162 0.33666 0.32462 0.0
N181 N 0.95338 0.34654 0.31945 0.0
C182 C 0.0749 0.38041 0.32773 0.0
H183 H 0.08804 0.3485 0.3421 0.0
H184 H 0.08287 0.41229 0.34408 0.0
H185 H 0.0934 0.3836 0.30106 0.0
C186 C 0.01492 0.23806 0.44693 0.0
N187 N 0.0172 0.23312 0.41038 0.0
N188 N 0.0151 0.27464 0.39445 0.0
C189 C 0.01215 0.30773 0.42114 0.0
C190 C 0.01224 0.28535 0.45516 0.0
C191 C 0.01423 0.19798 0.47362 0.0
H192 H 0.99099 0.16964 0.46335 0.0
H193 H 0.0504 0.18381 0.47677 0.0
H194 H 0.00122 0.20934 0.50079 0.0
O195 O 0.96786 0.16796 0.35174 0.0
O196 O 0.96516 0.23409 0.31961 0.0
H197 H 0.00324 0.37894 0.44049 0.0
H198 H 0.04221 0.37188 0.40182 0.0
C199 C 0.00903 0.35953 0.41453 0.0
H200 H 0.97971 0.36714 0.39534 0.0
H201 H 0.92629 0.32197 0.32178 0.0
O202 O 0.0299 0.12373 0.413 0.0
C203 C 0.94942 0.19318 0.32681 0.0
Co204 Co 0.84772 0.02123 0.8853 0.0
Co205 Co 0.75278 0.01334 0.84311 0.0
C206 C 0.82016 0.09491 0.83052 0.0
O207 O 0.84835 0.07874 0.85471 0.0
O208 O 0.78148 0.07385 0.82286 0.0
C209 C 0.91291 0.97843 0.93112 0.0
O210 O 0.88349 0.9433 0.92648 0.0
C211 C 0.65233 0.02919 0.82278 0.0
C212 C 0.63124 0.95581 0.81143 0.0
C213 C 0.61353 0.00108 0.81416 0.0
N214 N 0.69044 0.00126 0.82579 0.0
N215 N 0.67759 0.95766 0.81844 0.0
C216 C 0.65416 0.08151 0.82701 0.0
H217 H 0.69004 0.09466 0.82084 0.0
H218 H 0.64578 0.09107 0.85571 0.0
H219 H 0.62834 0.0988 0.80851 0.0
C220 C 0.78563 0.02143 0.9494 0.0
N221 N 0.7925 0.01835 0.91303 0.0
N222 N 0.75192 0.01233 0.89634 0.0
C223 C 0.71784 0.00942 0.92233 0.0
C224 C 0.73826 0.01571 0.95665 0.0
C225 C 0.82388 0.02971 0.97694 0.0
H226 H 0.84135 -0.00422 0.98338 0.0
H227 H 0.85034 0.05445 0.96567 0.0
H228 H 0.80982 0.0442 1.0029 0.0
O229 O 0.85678 0.96595 0.85324 0.0
O230 O 0.79086 0.96124 0.82139 0.0
H231 H 0.66314 0.97186 0.89463 0.0
H232 H 0.64778 0.99123 0.94036 0.0
C233 C 0.6669 0.00064 0.91484 0.0
H234 H 0.65087 0.03291 0.90317 0.0
H235 H 0.7002 0.92874 0.81953 0.0
O236 O 0.90305 0.01838 0.91727 0.0
C237 C 0.83206 0.94649 0.82865 0.0
Co238 Co 0.00465 0.8473 0.38665 0.0
Co239 Co 0.01386 0.75264 0.34446 0.0
C240 C 0.9327 0.82041 0.33066 0.0
O241 O 0.94806 0.84828 0.35523 0.0
O242 O 0.95398 0.78175 0.32327 0.0
C243 C 0.04619 0.91254 0.43275 0.0
O244 O 0.08154 0.88317 0.42864 0.0
C245 C -0.00145 0.65236 0.32389 0.0
C246 C 0.0721 0.63145 0.31262 0.0
C247 C 0.02684 0.61369 0.31515 0.0
N248 N 0.02636 0.69044 0.32713 0.0
N249 N 0.07009 0.67768 0.31984 0.0
C250 C 0.94617 0.65415 0.328 0.0
H251 H 0.93301 0.69015 0.32217 0.0
H252 H 0.9364 0.64514 0.35658 0.0
H253 H 0.92907 0.62875 0.30919 0.0
C254 C 0.00321 0.7848 0.45068 0.0
N255 N 0.0069 0.79189 0.41434 0.0
N256 N 0.01356 0.75146 0.39769 0.0
C257 C 0.01635 0.71727 0.42369 0.0
C258 C 0.00921 0.73743 0.45798 0.0
C259 C 0.99455 0.82292 0.47816 0.0
H260 H 0.02841 0.84029 0.48479 0.0
H261 H 0.96995 0.84947 0.46674 0.0
H262 H 0.9797 0.8088 0.50403 0.0
O263 O 0.06066 0.85655 0.35525 0.0
O264 O 0.06647 0.79076 0.32355 0.0
H265 H 0.03543 0.6474 0.44181 0.0
H266 H 0.9942 0.65012 0.40437 0.0
C267 C 0.02606 0.66652 0.41624 0.0
H268 H 0.05517 0.66327 0.39619 0.0
H269 H 0.09895 0.70029 0.32106 0.0
O270 O 0.00654 0.90251 0.41858 0.0
C271 C 0.08084 0.83196 0.33093 0.0
C272 C 0.30767 0.05452 0.0519 0.0
C273 C 0.30521 0.0119 0.07139 0.0
H274 H 0.30501 0.08792 0.99905 0.0
C275 C 0.30749 0.96939 0.05202 0.0
H276 H 0.30464 0.08769 0.06626 0.0
C277 C 0.30755 0.96954 1.01361 0.0
C278 C 0.30551 0.01218 0.9941 0.0
H279 H 0.30428 0.93617 0.06644 0.0
H280 H 0.30439 0.9364 0.99924 0.0
C281 C 0.30792 0.05467 1.01348 0.0
C282 C 0.05473 0.30747 0.51201 0.0
C283 C 0.01206 0.30485 0.49268 0.0
H284 H 0.08825 0.30461 0.56474 0.0
C285 C 0.96955 0.30668 0.51219 0.0
H286 H 0.0879 0.30478 0.49753 0.0
C287 C 0.96977 0.30642 0.5506 0.0
C288 C 0.01249 0.30451 0.56993 0.0
H289 H 0.93632 0.30335 0.49788 0.0
H290 H 0.93667 0.30293 0.56508 0.0
C291 C 0.05494 0.30738 0.55042 0.0
C292 C 0.71384 0.96931 0.05041 0.0
C293 C 0.71699 0.01102 0.0708 0.0
H294 H 0.7171 0.93831 0.9969 0.0
C295 C 0.7145 0.0544 0.05246 0.0
H296 H 0.71666 0.93549 0.06403 0.0
C297 C 0.71453 0.056 1.01408 0.0
C298 C 0.71728 0.01424 0.99371 0.0
H299 H 0.71784 0.08694 0.06761 0.0
H300 H 0.71787 0.08978 1.00048 0.0
C301 C 0.7141 0.9709 1.01203 0.0
C302 C 0.9692 0.71391 0.51574 0.0
C303 C 0.01083 0.71637 0.49507 0.0
H304 H 0.93866 0.71735 0.56947 0.0
C305 C 0.0543 0.71267 0.5131 0.0
H306 H 0.93533 0.7176 0.50237 0.0
C307 C 0.05618 0.71224 0.55147 0.0
C308 C 0.01463 0.71575 0.57215 0.0
H309 H 0.08681 0.7154 0.49772 0.0
H310 H 0.09014 0.7147 0.56484 0.0
C311 C 0.97108 0.71373 0.5541 0.0
C312 C 0.17138 0.16431 0.31994 0.0
C313 C 0.13768 0.19489 0.30445 0.0
H314 H 0.22305 0.11056 0.31039 0.0
C315 C 0.13631 0.19994 0.26617 0.0
H316 H 0.17305 0.1595 0.34939 0.0
C317 C 0.16419 0.17106 0.24383 0.0
C318 C 0.19491 0.13749 0.25934 0.0
H319 H 0.11041 0.2227 0.2534 0.0
H320 H 0.15922 0.17257 0.21441 0.0
C321 C 0.20018 0.13635 0.2976 0.0
C322 C 0.86862 0.16791 0.82209 0.0
C323 C 0.83734 0.13448 0.80738 0.0
H324 H 0.92176 0.21973 0.81113 0.0
C325 C 0.83057 0.13358 0.76925 0.0
H326 H 0.87464 0.16937 0.85139 0.0
C327 C 0.85834 0.16172 0.74618 0.0
C328 C 0.89247 0.19228 0.7608 0.0
H329 H 0.80712 0.10801 0.75704 0.0
H330 H 0.85542 0.15718 0.71679 0.0
C331 C 0.89547 0.19698 0.79903 0.0
C332 C 0.83203 0.89659 0.29746 0.0
C333 C 0.83814 0.89412 0.25931 0.0
H334 H 0.85754 0.87487 0.35024 0.0
C335 C 0.86925 0.86011 0.24515 0.0
H336 H 0.80872 0.92266 0.30925 0.0
C337 C 0.89649 0.83193 0.26864 0.0
C338 C 0.89408 0.83808 0.30678 0.0
H339 H 0.87478 0.85745 0.21585 0.0
H340 H 0.92248 0.80855 0.25683 0.0
C341 C 0.86016 0.86929 0.32095 0.0
C342 C 0.19915 0.89408 0.76536 0.0
C343 C 0.19468 0.89113 0.80363 0.0
H344 H 0.1713 0.8731 0.71324 0.0
C345 C 0.16434 0.85688 0.81853 0.0
H346 H 0.22172 0.92046 0.75305 0.0
C347 C 0.13613 0.82901 0.79572 0.0
C348 C 0.13675 0.83575 0.75756 0.0
H349 H 0.15996 0.854 0.84795 0.0
H350 H 0.11067 0.80553 0.80816 0.0
C351 C 0.17003 0.86709 0.74257 0.0
C352 C 0.87954 0.88642 0.74429 0.0
C353 C 0.91204 0.85462 0.7596 0.0
H354 H 0.8271 0.93919 0.75444 0.0
C355 C 0.91364 0.84915 0.79788 0.0
H356 H 0.87781 0.89144 0.71487 0.0
C357 C 0.88577 0.87751 0.82051 0.0
C358 C 0.85455 0.91057 0.80522 0.0
H359 H 0.93873 0.82528 0.8104 0.0
H360 H 0.88982 0.87481 0.84997 0.0
C361 C 0.85043 0.91355 0.76691 0.0
C362 C 0.176 0.91594 0.29975 0.0
C363 C 0.17168 0.91284 0.26148 0.0
H364 H 0.14979 0.89292 0.35201 0.0
C365 C 0.1418 0.87856 0.2465 0.0
H366 H 0.19841 0.94242 0.31198 0.0
C367 C 0.11521 0.8492 0.26938 0.0
C368 C 0.11681 0.85478 0.30761 0.0
H369 H 0.13774 0.87563 0.21706 0.0
H370 H 0.09092 0.82449 0.25708 0.0
C371 C 0.14816 0.88773 0.32262 0.0
C372 C 0.14879 0.14044 0.74434 0.0
C373 C 0.11546 0.17153 0.75922 0.0
H374 H 0.20095 0.08756 0.7551 0.0
C375 C 0.11235 0.17601 0.79747 0.0
H376 H 0.15164 0.13619 0.71492 0.0
C377 C 0.13943 0.14713 0.82043 0.0
C378 C 0.17122 0.11448 0.80552 0.0
H379 H 0.08654 0.19931 0.80963 0.0
H380 H 0.13422 0.14902 0.84981 0.0
C381 C 0.17704 0.11275 0.76731 0.0
C382 C 0.84918 0.1155 0.29584 0.0
C383 C 0.85471 0.11698 0.25759 0.0
H384 H 0.87573 0.13815 0.34797 0.0
C385 C 0.88761 0.14832 0.24233 0.0
H386 H 0.82451 0.09122 0.30833 0.0
C387 C 0.91587 0.17621 0.26498 0.0
C388 C 0.91285 0.17196 0.30328 0.0
H389 H 0.89275 0.14986 0.21292 0.0
H390 H 0.94233 0.19858 0.25257 0.0
C391 C 0.87859 0.14214 0.31851 0.0
C392 C 0.03932 0.0223 0.1137 0.0
C393 C 0.05897 0.06595 0.12316 0.0
H394 H 0.97632 0.98183 0.10875 0.0
C395 C 0.02964 0.10554 0.1258 0.0
H396 H 0.06134 0.99142 0.11055 0.0
C397 C 0.98083 0.10005 0.12446 0.0
C398 C 0.96122 0.05493 0.12066 0.0
H399 H 0.04396 0.13971 0.13265 0.0
H400 H 0.95878 0.13023 0.13029 0.0
C401 C 0.99069 0.01677 0.11261 0.0
C402 C 0.00552 0.03806 0.61358 0.0
C403 C 0.96181 0.05778 0.623 0.0
H404 H 0.0461 0.97503 0.60892 0.0
C405 C 0.92223 0.02851 0.62582 0.0
H406 H 0.0364 0.06003 0.61029 0.0
C407 C 0.92779 0.97971 0.62473 0.0
C408 C 0.97296 0.96005 0.621 0.0
H409 H 0.88801 0.04288 0.63261 0.0
H410 H 0.8976 0.95772 0.63068 0.0
C411 C 0.01112 0.98944 0.61275 0.0
C412 C 0.98104 0.9242 0.93885 0.0
C413 C 0.96136 0.96924 0.94325 0.0
H414 H 0.04427 0.88468 0.9304 0.0
C415 C 0.99072 0.00713 0.9521 0.0
H416 H 0.95906 0.89422 0.93241 0.0
C417 C 0.03936 0.00155 0.95124 0.0
C418 C 0.05914 0.95814 0.94117 0.0
H419 H 0.97627 0.04197 0.95644 0.0
H420 H 0.06132 0.03232 0.95502 0.0
C421 C 0.02987 0.91868 0.93772 0.0
C422 C 0.01682 0.99071 0.45228 0.0
C423 C 0.05501 0.96116 0.44442 0.0
H424 H 0.99149 0.06135 0.45387 0.0
C425 C 0.10016 0.98071 0.44043 0.0
H426 H 0.98186 0.97639 0.45628 0.0
C427 C 0.10569 0.02949 0.43875 0.0
C428 C 0.06609 0.05886 0.44123 0.0
H429 H 0.13036 0.95861 0.43475 0.0
H430 H 0.1399 0.04373 0.4318 0.0
C431 C 0.02238 0.0393 0.45085 0.0
C432 C 0.49484 0.96966 0.23248 0.0
C433 C 0.46432 -1e-05 0.25137 0.0
H434 H 0.56507 0.95498 0.21584 0.0
C435 C 0.48324 0.03765 0.27116 0.0
H436 H 0.48102 0.9406 0.21664 0.0
C437 C 0.53191 0.045 0.2718 0.0
C438 C 0.56262 0.01506 0.25244 0.0
H439 H 0.46054 0.06109 0.28642 0.0
H440 H 0.54546 0.07452 0.28723 0.0
C441 C 0.54335 0.97747 0.23256 0.0
C442 C 0.04718 0.54355 0.76772 0.0
C443 C 0.00641 0.5629 0.75217 0.0
H444 H 0.08627 0.48087 0.77946 0.0
C445 C 0.97311 0.53286 0.73611 0.0
H446 H 0.07311 0.56591 0.78066 0.0
C447 C 0.98073 0.48438 0.73501 0.0
C448 C 0.02122 0.4646 0.75092 0.0
H449 H 0.94162 0.54704 0.72344 0.0
H450 H 0.95552 0.46304 0.72048 0.0
C451 C 0.05443 0.49485 0.76722 0.0
C452 C 0.48314 0.99018 0.79371 0.0
C453 C 0.46425 0.02771 0.81371 0.0
H454 H 0.54535 0.9534 0.77733 0.0
C455 C 0.49481 0.05796 0.83258 0.0
H456 H 0.46041 0.96681 0.77844 0.0
C457 C 0.54334 0.05017 0.83231 0.0
C458 C 0.56258 0.01267 0.81227 0.0
H459 H 0.48103 0.08693 0.84856 0.0
H460 H 0.56512 0.07257 0.84903 0.0
C461 C 0.53182 0.98284 0.7929 0.0
C462 C 0.03812 0.48371 0.29367 0.0
C463 C 0.0003 0.46451 0.31326 0.0
H464 H 0.07512 0.54614 0.27806 0.0
C465 C 0.96979 0.49475 0.33225 0.0
H466 H 0.06172 0.46124 0.27834 0.0
C467 C 0.97758 0.54324 0.33247 0.0
C468 C 0.01535 0.56279 0.31282 0.0
H469 H 0.9406 0.48071 0.34794 0.0
H470 H 0.95493 0.56472 0.34925 0.0
C471 C 0.04546 0.53237 0.29335 0.0
loop_
_geom_bond_atom_site_label_1
_geom_bond_atom_site_label_2
_geom_bond_distance
_geom_bond_site_symmetry_2
_ccdc_geom_bond_type
Co0 O3 1.970 . S
Co0 N17 1.989 . S
Co0 O25 1.967 1_545 S
Co0 O32 1.920 . S
Co1 O4 1.966 . S
Co1 N10 2.022 . S
Co1 N18 1.993 . S
Co1 O26 1.941 1_545 S
C2 O3 1.258 . S
C2 O4 1.263 . S
O3 Co0 1.970 . S
O3 C2 1.258 . S
O4 Co1 1.966 . S
O4 C2 1.263 . S
C5 O6 1.235 . S
C5 O32 1.289 . S
O6 C5 1.235 . S
C7 C9 1.400 . S
C7 N10 1.351 . S
C7 C12 1.501 . S
C8 C9 1.387 1_565 S
C8 N11 1.341 . S
C9 C7 1.400 . S
C9 C8 1.387 1_545 S
N10 Co1 2.022 . S
N10 C7 1.351 . S
N10 N11 1.365 1_545 S
N11 C8 1.341 . S
N11 N10 1.365 1_565 S
N11 H31 0.862 . S
C12 C7 1.501 . S
C12 H13 0.961 . S
C12 H14 0.961 . S
C12 H15 0.960 . S
H13 C12 0.961 . S
H14 C12 0.961 . S
H15 C12 0.960 . S
C16 N17 1.342 . S
C16 C20 1.401 . S
C16 C21 1.499 . S
N17 Co0 1.989 . S
N17 C16 1.342 . S
N17 N18 1.388 . S
N18 Co1 1.993 . S
N18 N17 1.388 . S
N18 C19 1.346 . S
C19 N18 1.346 . S
C19 C20 1.396 . S
C19 C29 1.510 . S
C20 C16 1.401 . S
C20 C19 1.396 . S
C21 C16 1.499 . S
C21 H22 0.959 . S
C21 H23 0.960 . S
C21 H24 0.961 1_545 S
H22 C21 0.959 . S
H23 C21 0.960 . S
H24 C21 0.961 1_565 S
O25 Co0 1.967 1_565 S
O25 C33 1.258 . S
O26 Co1 1.941 1_565 S
O26 C33 1.266 . S
H27 C29 0.959 1_565 S
H28 C29 0.961 . S
C29 C19 1.510 . S
C29 H27 0.959 1_545 S
C29 H28 0.961 . S
C29 H30 0.960 . S
H30 C29 0.960 . S
H31 N11 0.862 . S
O32 Co0 1.920 . S
O32 C5 1.289 . S
C33 O25 1.258 . S
C33 O26 1.266 . S
Co34 O37 1.970 1_455 S
Co34 N51 1.989 . S
Co34 O59 1.967 . S
Co34 O66 1.920 . S
Co35 O38 1.966 1_455 S
Co35 N44 2.022 . S
Co35 N52 1.993 . S
Co35 O60 1.941 . S
C36 O37 1.258 . S
C36 O38 1.263 . S
O37 Co34 1.970 1_655 S
O37 C36 1.258 . S
O38 Co35 1.966 1_655 S
O38 C36 1.263 . S
C39 O40 1.235 . S
C39 O66 1.289 1_655 S
O40 C39 1.235 . S
C41 C43 1.400 . S
C41 N44 1.351 1_655 S
C41 C46 1.501 . S
C42 C43 1.387 1_455 S
C42 N45 1.341 . S
C43 C41 1.400 . S
C43 C42 1.387 1_655 S
N44 Co35 2.022 . S
N44 C41 1.351 1_455 S
N44 N45 1.365 . S
N45 C42 1.341 . S
N45 N44 1.365 . S
N45 H65 0.862 . S
C46 C41 1.501 . S
C46 H47 0.961 . S
C46 H48 0.961 . S
C46 H49 0.960 . S
H47 C46 0.961 . S
H48 C46 0.961 . S
H49 C46 0.960 . S
C50 N51 1.342 . S
C50 C54 1.401 . S
C50 C55 1.499 . S
N51 Co34 1.989 . S
N51 C50 1.342 . S
N51 N52 1.388 . S
N52 Co35 1.993 . S
N52 N51 1.388 . S
N52 C53 1.346 . S
C53 N52 1.346 . S
C53 C54 1.396 . S
C53 C63 1.510 . S
C54 C50 1.401 . S
C54 C53 1.396 . S
C55 C50 1.499 . S
C55 H56 0.959 . S
C55 H57 0.960 . S
C55 H58 0.961 . S
H56 C55 0.959 . S
H57 C55 0.960 . S
H58 C55 0.961 . S
O59 Co34 1.967 . S
O59 C67 1.258 . S
O60 Co35 1.941 . S
O60 C67 1.266 . S
H61 C63 0.959 . S
H62 C63 0.961 1_655 S
C63 C53 1.510 . S
C63 H61 0.959 . S
C63 H62 0.961 1_455 S
C63 H64 0.960 . S
H64 C63 0.960 . S
H65 N45 0.862 . S
O66 Co34 1.920 . S
O66 C39 1.289 1_455 S
C67 O59 1.258 . S
C67 O60 1.266 . S
Co68 O71 1.970 1_545 S
Co68 N85 1.989 . S
Co68 O93 1.967 . S
Co68 O100 1.920 . S
Co69 O72 1.966 1_545 S
Co69 N78 2.022 . S
Co69 N86 1.993 . S
Co69 O94 1.941 . S
C70 O71 1.258 . S
C70 O72 1.263 . S
O71 Co68 1.970 1_565 S
O71 C70 1.258 . S
O72 Co69 1.966 1_565 S
O72 C70 1.263 . S
C73 O74 1.235 . S
C73 O100 1.289 1_565 S
O74 C73 1.235 . S
C75 C77 1.405 . S
C75 N78 1.351 1_565 S
C75 C80 1.501 . S
C76 C77 1.370 1_545 S
C76 N79 1.341 . S
C77 C75 1.405 . S
C77 C76 1.370 1_565 S
N78 Co69 2.022 . S
N78 C75 1.351 1_545 S
N78 N79 1.365 . S
N79 C76 1.341 . S
N79 N78 1.365 . S
N79 H99 0.862 . S
C80 C75 1.501 . S
C80 H81 0.961 . S
C80 H82 0.961 . S
C80 H83 0.960 . S
H81 C80 0.961 . S
H82 C80 0.961 . S
H83 C80 0.960 . S
C84 N85 1.342 . S
C84 C88 1.401 . S
C84 C89 1.499 . S
N85 Co68 1.989 . S
N85 C84 1.342 . S
N85 N86 1.388 . S
N86 Co69 1.993 . S
N86 N85 1.388 . S
N86 C87 1.346 . S
C87 N86 1.346 . S
C87 C88 1.396 . S
C87 C97 1.510 . S
C88 C84 1.401 . S
C88 C87 1.396 . S
C89 C84 1.499 . S
C89 H90 0.959 . S
C89 H91 0.960 . S
C89 H92 0.961 . S
H90 C89 0.959 . S
H91 C89 0.960 . S
H92 C89 0.961 . S
O93 Co68 1.967 . S
O93 C101 1.258 . S
O94 Co69 1.941 . S
O94 C101 1.266 . S
H95 C97 0.959 . S
H96 C97 0.961 1_565 S
C97 C87 1.510 . S
C97 H95 0.959 . S
C97 H96 0.961 1_545 S
C97 H98 0.960 . S
H98 C97 0.960 . S
H99 N79 0.862 . S
O100 Co68 1.920 . S
O100 C73 1.289 1_545 S
C101 O93 1.258 . S
C101 O94 1.266 . S
Co102 O105 1.970 . S
Co102 N119 1.989 . S
Co102 O127 1.967 1_455 S
Co102 O134 1.920 . S
Co103 O106 1.966 . S
Co103 N112 2.022 . S
Co103 N120 1.993 . S
Co103 O128 1.941 1_455 S
C104 O105 1.258 . S
C104 O106 1.263 . S
O105 Co102 1.970 . S
O105 C104 1.258 . S
O106 Co103 1.966 . S
O106 C104 1.263 . S
C107 O108 1.235 . S
C107 O134 1.289 . S
O108 C107 1.235 . S
C109 C111 1.400 . S
C109 N112 1.351 . S
C109 C114 1.501 . S
C110 C111 1.387 1_655 S
C110 N113 1.341 . S
C111 C109 1.400 . S
C111 C110 1.387 1_455 S
N112 Co103 2.022 . S
N112 C109 1.351 . S
N112 N113 1.365 1_455 S
N113 C110 1.341 . S
N113 N112 1.365 1_655 S
N113 H133 0.862 . S
C114 C109 1.501 . S
C114 H115 0.961 . S
C114 H116 0.961 . S
C114 H117 0.960 . S
H115 C114 0.961 . S
H116 C114 0.961 . S
H117 C114 0.960 . S
C118 N119 1.342 . S
C118 C122 1.401 . S
C118 C123 1.499 . S
N119 Co102 1.989 . S
N119 C118 1.342 . S
N119 N120 1.388 . S
N120 Co103 1.993 . S
N120 N119 1.388 . S
N120 C121 1.346 . S
C121 N120 1.346 . S
C121 C122 1.396 . S
C121 C131 1.510 . S
C122 C118 1.401 . S
C122 C121 1.396 . S
C123 C118 1.499 . S
C123 H124 0.959 . S
C123 H125 0.960 . S
C123 H126 0.961 1_455 S
H124 C123 0.959 . S
H125 C123 0.960 . S
H126 C123 0.961 1_655 S
O127 Co102 1.967 1_655 S
O127 C135 1.258 . S
O128 Co103 1.941 1_655 S
O128 C135 1.266 . S
H129 C131 0.959 1_655 S
H130 C131 0.961 . S
C131 C121 1.510 . S
C131 H129 0.959 1_455 S
C131 H130 0.961 . S
C131 H132 0.960 . S
H132 C131 0.960 . S
H133 N113 0.862 . S
O134 Co102 1.920 . S
O134 C107 1.289 . S
C135 O127 1.258 . S
C135 O128 1.266 . S
Co136 O139 1.970 1_545 S
Co136 N153 1.989 . S
Co136 O161 1.967 . S
Co136 O168 1.920 . S
Co137 O140 1.966 1_545 S
Co137 N146 2.022 . S
Co137 N154 1.993 . S
Co137 O162 1.941 . S
C138 O139 1.258 . S
C138 O140 1.263 . S
O139 Co136 1.970 1_565 S
O139 C138 1.258 . S
O140 Co137 1.966 1_565 S
O140 C138 1.263 . S
C141 O142 1.235 . S
C141 O168 1.289 1_565 S
O142 C141 1.235 . S
C143 C145 1.400 . S
C143 N146 1.351 1_565 S
C143 C148 1.501 . S
C144 C145 1.387 1_545 S
C144 N147 1.341 . S
C145 C143 1.400 . S
C145 C144 1.387 1_565 S
N146 Co137 2.022 . S
N146 C143 1.351 1_545 S
N146 N147 1.365 . S
N147 C144 1.341 . S
N147 N146 1.365 . S
N147 H167 0.862 . S
C148 C143 1.501 . S
C148 H149 0.961 . S
C148 H150 0.961 . S
C148 H151 0.960 . S
H149 C148 0.961 . S
H150 C148 0.961 . S
H151 C148 0.960 . S
C152 N153 1.342 . S
C152 C156 1.401 . S
C152 C157 1.499 . S
N153 Co136 1.989 . S
N153 C152 1.342 . S
N153 N154 1.388 . S
N154 Co137 1.993 . S
N154 N153 1.388 . S
N154 C155 1.346 . S
C155 N154 1.346 . S
C155 C156 1.396 . S
C155 C165 1.510 . S
C156 C152 1.401 . S
C156 C155 1.396 . S
C157 C152 1.499 . S
C157 H158 0.959 . S
C157 H159 0.960 . S
C157 H160 0.961 . S
H158 C157 0.959 . S
H159 C157 0.960 . S
H160 C157 0.961 . S
O161 Co136 1.967 . S
O161 C169 1.258 . S
O162 Co137 1.941 . S
O162 C169 1.266 . S
H163 C165 0.959 . S
H164 C165 0.961 1_565 S
C165 C155 1.510 . S
C165 H163 0.959 . S
C165 H164 0.961 1_545 S
C165 H166 0.960 . S
H166 C165 0.960 . S
H167 N147 0.862 . S
O168 Co136 1.920 . S
O168 C141 1.289 1_545 S
C169 O161 1.258 . S
C169 O162 1.266 . S
Co170 O173 1.970 . S
Co170 N187 1.989 . S
Co170 O195 1.967 1_455 S
Co170 O202 1.920 . S
Co171 O174 1.966 . S
Co171 N180 2.022 . S
Co171 N188 1.993 . S
Co171 O196 1.941 1_455 S
C172 O173 1.258 . S
C172 O174 1.263 . S
O173 Co170 1.970 . S
O173 C172 1.258 . S
O174 Co171 1.966 . S
O174 C172 1.263 . S
C175 O176 1.235 . S
C175 O202 1.289 . S
O176 C175 1.235 . S
C177 C179 1.400 . S
C177 N180 1.351 . S
C177 C182 1.501 . S
C178 C179 1.387 1_655 S
C178 N181 1.341 . S
C179 C177 1.400 . S
C179 C178 1.387 1_455 S
N180 Co171 2.022 . S
N180 C177 1.351 . S
N180 N181 1.365 1_455 S
N181 C178 1.341 . S
N181 N180 1.365 1_655 S
N181 H201 0.862 . S
C182 C177 1.501 . S
C182 H183 0.961 . S
C182 H184 0.961 . S
C182 H185 0.960 . S
H183 C182 0.961 . S
H184 C182 0.961 . S
H185 C182 0.960 . S
C186 N187 1.342 . S
C186 C190 1.401 . S
C186 C191 1.499 . S
N187 Co170 1.989 . S
N187 C186 1.342 . S
N187 N188 1.388 . S
N188 Co171 1.993 . S
N188 N187 1.388 . S
N188 C189 1.346 . S
C189 N188 1.346 . S
C189 C190 1.396 . S
C189 C199 1.510 . S
C190 C186 1.401 . S
C190 C189 1.396 . S
C191 C186 1.499 . S
C191 H192 0.959 . S
C191 H193 0.960 . S
C191 H194 0.961 1_455 S
H192 C191 0.959 . S
H193 C191 0.960 . S
H194 C191 0.961 1_655 S
O195 Co170 1.967 1_655 S
O195 C203 1.258 . S
O196 Co171 1.941 1_655 S
O196 C203 1.266 . S
H197 C199 0.959 1_655 S
H198 C199 0.961 . S
C199 C189 1.510 . S
C199 H197 0.959 1_455 S
C199 H198 0.961 . S
C199 H200 0.960 . S
H200 C199 0.960 . S
H201 N181 0.862 . S
O202 Co170 1.920 . S
O202 C175 1.289 . S
C203 O195 1.258 . S
C203 O196 1.266 . S
Co204 O207 1.970 . S
Co204 N221 1.989 . S
Co204 O229 1.967 1_545 S
Co204 O236 1.920 . S
Co205 O208 1.966 . S
Co205 N214 2.022 . S
Co205 N222 1.993 . S
Co205 O230 1.941 1_545 S
C206 O207 1.258 . S
C206 O208 1.263 . S
O207 Co204 1.970 . S
O207 C206 1.258 . S
O208 Co205 1.966 . S
O208 C206 1.263 . S
C209 O210 1.235 . S
C209 O236 1.289 . S
O210 C209 1.235 . S
C211 C213 1.400 . S
C211 N214 1.351 . S
C211 C216 1.501 . S
C212 C213 1.387 1_565 S
C212 N215 1.341 . S
C213 C211 1.400 . S
C213 C212 1.387 1_545 S
N214 Co205 2.022 . S
N214 C211 1.351 . S
N214 N215 1.365 1_545 S
N215 C212 1.341 . S
N215 N214 1.365 1_565 S
N215 H235 0.862 . S
C216 C211 1.501 . S
C216 H217 0.961 . S
C216 H218 0.961 . S
C216 H219 0.960 . S
H217 C216 0.961 . S
H218 C216 0.961 . S
H219 C216 0.960 . S
C220 N221 1.342 . S
C220 C224 1.401 . S
C220 C225 1.499 . S
N221 Co204 1.989 . S
N221 C220 1.342 . S
N221 N222 1.388 . S
N222 Co205 1.993 . S
N222 N221 1.388 . S
N222 C223 1.346 . S
C223 N222 1.346 . S
C223 C224 1.396 . S
C223 C233 1.510 . S
C224 C220 1.401 . S
C224 C223 1.396 . S
C225 C220 1.499 . S
C225 H226 0.959 . S
C225 H227 0.960 . S
C225 H228 0.961 1_545 S
H226 C225 0.959 . S
H227 C225 0.960 . S
H228 C225 0.961 1_565 S
O229 Co204 1.967 1_565 S
O229 C237 1.258 . S
O230 Co205 1.941 1_565 S
O230 C237 1.266 . S
H231 C233 0.959 1_565 S
H232 C233 0.961 . S
C233 C223 1.510 . S
C233 H231 0.959 1_545 S
C233 H232 0.961 . S
C233 H234 0.960 . S
H234 C233 0.960 . S
H235 N215 0.862 . S
O236 Co204 1.920 . S
O236 C209 1.289 . S
C237 O229 1.258 . S
C237 O230 1.266 . S
Co238 O241 1.970 1_455 S
Co238 N255 1.989 . S
Co238 O263 1.967 . S
Co238 O270 1.920 . S
Co239 O242 1.966 1_455 S
Co239 N248 2.022 . S
Co239 N256 1.993 . S
Co239 O264 1.941 . S
C240 O241 1.258 . S
C240 O242 1.263 . S
O241 Co238 1.970 1_655 S
O241 C240 1.258 . S
O242 Co239 1.966 1_655 S
O242 C240 1.263 . S
C243 O244 1.235 . S
C243 O270 1.289 1_655 S
O244 C243 1.235 . S
C245 C247 1.405 . S
C245 N248 1.351 1_655 S
C245 C250 1.501 . S
C246 C247 1.370 1_455 S
C246 N249 1.341 . S
C247 C245 1.405 . S
C247 C246 1.370 1_655 S
N248 Co239 2.022 . S
N248 C245 1.351 1_455 S
N248 N249 1.365 . S
N249 C246 1.341 . S
N249 N248 1.365 . S
N249 H269 0.862 . S
C250 C245 1.501 . S
C250 H251 0.961 . S
C250 H252 0.961 . S
C250 H253 0.960 . S
H251 C250 0.961 . S
H252 C250 0.961 . S
H253 C250 0.960 . S
C254 N255 1.342 . S
C254 C258 1.401 . S
C254 C259 1.499 . S
N255 Co238 1.989 . S
N255 C254 1.342 . S
N255 N256 1.388 . S
N256 Co239 1.993 . S
N256 N255 1.388 . S
N256 C257 1.346 . S
C257 N256 1.346 . S
C257 C258 1.396 . S
C257 C267 1.510 . S
C258 C254 1.401 . S
C258 C257 1.396 . S
C259 C254 1.499 . S
C259 H260 0.959 . S
C259 H261 0.960 . S
C259 H262 0.961 . S
H260 C259 0.959 . S
H261 C259 0.960 . S
H262 C259 0.961 . S
O263 Co238 1.967 . S
O263 C271 1.258 . S
O264 Co239 1.941 . S
O264 C271 1.266 . S
H265 C267 0.959 . S
H266 C267 0.961 1_655 S
C267 C257 1.510 . S
C267 H265 0.959 . S
C267 H266 0.961 1_455 S
C267 H268 0.960 . S
H268 C267 0.960 . S
H269 N249 0.862 . S
O270 Co238 1.920 . S
O270 C243 1.289 1_455 S
C271 O263 1.258 . S
C271 O264 1.266 . S
C272 C273 1.387 . S
C272 H276 0.950 . S
C272 C281 1.390 1_554 S
C273 C272 1.387 . S
C273 C275 1.387 . S
H274 C281 0.950 . S
C275 C273 1.387 . S
C275 C277 1.390 1_554 S
C275 H279 0.950 . S
H276 C272 0.950 . S
C277 C275 1.390 1_556 S
C277 C278 1.387 . S
C277 H280 0.950 . S
C278 C277 1.387 . S
C278 C281 1.387 . S
H279 C275 0.950 . S
H280 C277 0.950 . S
C281 C272 1.390 1_556 S
C281 H274 0.950 . S
C281 C278 1.387 . S
C282 C283 1.387 . S
C282 H286 0.950 . S
C282 C291 1.390 . S
C283 C282 1.387 . S
C283 C285 1.387 . S
H284 C291 0.950 . S
C285 C283 1.387 . S
C285 C287 1.390 . S
C285 H289 0.950 . S
H286 C282 0.950 . S
C287 C285 1.390 . S
C287 C288 1.387 . S
C287 H290 0.950 . S
C288 C287 1.387 . S
C288 C291 1.387 . S
H289 C285 0.950 . S
H290 C287 0.950 . S
C291 C282 1.390 . S
C291 H284 0.950 . S
C291 C288 1.387 . S
C292 C293 1.387 . S
C292 H296 0.950 . S
C292 C301 1.390 1_554 S
C293 C292 1.387 . S
C293 C295 1.387 . S
H294 C301 0.950 . S
C295 C293 1.387 . S
C295 C297 1.390 1_554 S
C295 H299 0.950 . S
H296 C292 0.950 . S
C297 C295 1.390 1_556 S
C297 C298 1.387 . S
C297 H300 0.950 . S
C298 C297 1.387 . S
C298 C301 1.387 . S
H299 C295 0.950 . S
H300 C297 0.950 . S
C301 C292 1.390 1_556 S
C301 H294 0.950 . S
C301 C298 1.387 . S
C302 C303 1.387 . S
C302 H306 0.950 . S
C302 C311 1.390 . S
C303 C302 1.387 . S
C303 C305 1.387 . S
H304 C311 0.950 . S
C305 C303 1.387 . S
C305 C307 1.390 . S
C305 H309 0.950 . S
H306 C302 0.950 . S
C307 C305 1.390 . S
C307 C308 1.387 . S
C307 H310 0.950 . S
C308 C307 1.387 . S
C308 C311 1.387 . S
H309 C305 0.950 . S
H310 C307 0.950 . S
C311 C302 1.390 . S
C311 H304 0.950 . S
C311 C308 1.387 . S
C312 C313 1.387 . S
C312 H316 0.950 . S
C312 C321 1.390 . S
C313 C312 1.387 . S
C313 C315 1.387 . S
H314 C321 0.950 . S
C315 C313 1.387 . S
C315 C317 1.390 . S
C315 H319 0.950 . S
H316 C312 0.950 . S
C317 C315 1.390 . S
C317 C318 1.387 . S
C317 H320 0.950 . S
C318 C317 1.387 . S
C318 C321 1.387 . S
H319 C315 0.950 . S
H320 C317 0.950 . S
C321 C312 1.390 . S
C321 H314 0.950 . S
C321 C318 1.387 . S
C322 C323 1.387 . S
C322 H326 0.950 . S
C322 C331 1.390 . S
C323 C322 1.387 . S
C323 C325 1.387 . S
H324 C331 0.950 . S
C325 C323 1.387 . S
C325 C327 1.390 . S
C325 H329 0.950 . S
H326 C322 0.950 . S
C327 C325 1.390 . S
C327 C328 1.387 . S
C327 H330 0.950 . S
C328 C327 1.387 . S
C328 C331 1.387 . S
H329 C325 0.950 . S
H330 C327 0.950 . S
C331 C322 1.390 . S
C331 H324 0.950 . S
C331 C328 1.387 . S
C332 C333 1.387 . S
C332 H336 0.950 . S
C332 C341 1.390 . S
C333 C332 1.387 . S
C333 C335 1.387 . S
H334 C341 0.950 . S
C335 C333 1.387 . S
C335 C337 1.390 . S
C335 H339 0.950 . S
H336 C332 0.950 . S
C337 C335 1.390 . S
C337 C338 1.387 . S
C337 H340 0.950 . S
C338 C337 1.387 . S
C338 C341 1.387 . S
H339 C335 0.950 . S
H340 C337 0.950 . S
C341 C332 1.390 . S
C341 H334 0.950 . S
C341 C338 1.387 . S
C342 C343 1.387 . S
C342 H346 0.950 . S
C342 C351 1.390 . S
C343 C342 1.387 . S
C343 C345 1.387 . S
H344 C351 0.950 . S
C345 C343 1.387 . S
C345 C347 1.390 . S
C345 H349 0.950 . S
H346 C342 0.950 . S
C347 C345 1.390 . S
C347 C348 1.387 . S
C347 H350 0.950 . S
C348 C347 1.387 . S
C348 C351 1.387 . S
H349 C345 0.950 . S
H350 C347 0.950 . S
C351 C342 1.390 . S
C351 H344 0.950 . S
C351 C348 1.387 . S
C352 C353 1.387 . S
C352 H356 0.950 . S
C352 C361 1.390 . S
C353 C352 1.387 . S
C353 C355 1.387 . S
H354 C361 0.950 . S
C355 C353 1.387 . S
C355 C357 1.390 . S
C355 H359 0.950 . S
H356 C352 0.950 . S
C357 C355 1.390 . S
C357 C358 1.387 . S
C357 H360 0.950 . S
C358 C357 1.387 . S
C358 C361 1.387 . S
H359 C355 0.950 . S
H360 C357 0.950 . S
C361 C352 1.390 . S
C361 H354 0.950 . S
C361 C358 1.387 . S
C362 C363 1.387 . S
C362 H366 0.950 . S
C362 C371 1.390 . S
C363 C362 1.387 . S
C363 C365 1.387 . S
H364 C371 0.950 . S
C365 C363 1.387 . S
C365 C367 1.390 . S
C365 H369 0.950 . S
H366 C362 0.950 . S
C367 C365 1.390 . S
C367 C368 1.387 . S
C367 H370 0.950 . S
C368 C367 1.387 . S
C368 C371 1.387 . S
H369 C365 0.950 . S
H370 C367 0.950 . S
C371 C362 1.390 . S
C371 H364 0.950 . S
C371 C368 1.387 . S
C372 C373 1.387 . S
C372 H376 0.950 . S
C372 C381 1.390 . S
C373 C372 1.387 . S
C373 C375 1.387 . S
H374 C381 0.950 . S
C375 C373 1.387 . S
C375 C377 1.390 . S
C375 H379 0.950 . S
H376 C372 0.950 . S
C377 C375 1.390 . S
C377 C378 1.387 . S
C377 H380 0.950 . S
C378 C377 1.387 . S
C378 C381 1.387 . S
H379 C375 0.950 . S
H380 C377 0.950 . S
C381 C372 1.390 . S
C381 H374 0.950 . S
C381 C378 1.387 . S
C382 C383 1.387 . S
C382 H386 0.950 . S
C382 C391 1.390 . S
C383 C382 1.387 . S
C383 C385 1.387 . S
H384 C391 0.950 . S
C385 C383 1.387 . S
C385 C387 1.390 . S
C385 H389 0.950 . S
H386 C382 0.950 . S
C387 C385 1.390 . S
C387 C388 1.387 . S
C387 H390 0.950 . S
C388 C387 1.387 . S
C388 C391 1.387 . S
H389 C385 0.950 . S
H390 C387 0.950 . S
C391 C382 1.390 . S
C391 H384 0.950 . S
C391 C388 1.387 . S
C392 C393 1.387 . S
C392 H396 0.950 . S
C392 C401 1.394 . S
C393 C392 1.387 . S
C393 C395 1.387 . S
H394 C401 0.948 1_665 S
C395 C393 1.387 . S
C395 C397 1.394 . S
C395 H399 0.950 . S
H396 C392 0.950 . S
C397 C395 1.394 . S
C397 C398 1.385 1_445 S
C397 H400 0.948 1_445 S
C398 C397 1.385 1_665 S
C398 C401 1.385 1_665 S
H399 C395 0.950 . S
H400 C397 0.948 1_665 S
C401 C392 1.394 . S
C401 H394 0.948 1_445 S
C401 C398 1.385 1_445 S
C402 C403 1.387 1_455 S
C402 H406 0.950 1_455 S
C402 C411 1.390 . S
C403 C402 1.387 1_655 S
C403 C405 1.387 1_655 S
H404 C411 0.950 1_565 S
C405 C403 1.387 1_455 S
C405 C407 1.391 . S
C405 H409 0.949 1_455 S
H406 C402 0.950 1_655 S
C407 C405 1.391 . S
C407 C408 1.387 1_545 S
C407 H410 0.950 1_545 S
C408 C407 1.387 1_565 S
C408 C411 1.387 1_565 S
H409 C405 0.949 1_655 S
H410 C407 0.950 1_565 S
C411 C402 1.390 . S
C411 H404 0.950 1_545 S
C411 C408 1.387 1_545 S
C412 C413 1.387 1_455 S
C412 H416 0.950 1_455 S
C412 C421 1.395 . S
C413 C412 1.387 1_655 S
C413 C415 1.387 1_655 S
H414 C421 0.947 1_565 S
C415 C413 1.387 1_455 S
C415 C417 1.396 . S
C415 H419 0.950 1_455 S
H416 C412 0.950 1_655 S
C417 C415 1.396 . S
C417 C418 1.385 1_545 S
C417 H420 0.947 1_545 S
C418 C417 1.385 1_565 S
C418 C421 1.385 1_565 S
H419 C415 0.950 1_655 S
H420 C417 0.947 1_565 S
C421 C412 1.395 . S
C421 H414 0.947 1_545 S
C421 C418 1.385 1_545 S
C422 C423 1.385 1_445 S
C422 H426 0.948 1_445 S
C422 C431 1.394 . S
C423 C422 1.385 1_665 S
C423 C425 1.385 1_665 S
H424 C431 0.950 . S
C425 C423 1.385 1_445 S
C425 C427 1.394 . S
C425 H429 0.948 1_445 S
H426 C422 0.948 1_665 S
C427 C425 1.394 . S
C427 C428 1.387 . S
C427 H430 0.950 . S
C428 C427 1.387 . S
C428 C431 1.387 . S
H429 C425 0.948 1_665 S
H430 C427 0.950 . S
C431 C422 1.394 . S
C431 H424 0.950 . S
C431 C428 1.387 . S
C432 C433 1.387 . S
C432 H436 0.950 . S
C432 C441 1.390 . S
C433 C432 1.387 . S
C433 C435 1.387 . S
H434 C441 0.954 . S
C435 C433 1.387 . S
C435 C437 1.390 . S
C435 H439 0.950 . S
H436 C432 0.950 . S
C437 C435 1.390 . S
C437 C438 1.387 1_545 S
C437 H440 0.953 . S
C438 C437 1.387 1_565 S
C438 C441 1.387 1_565 S
H439 C435 0.950 . S
H440 C437 0.953 . S
C441 C432 1.390 . S
C441 H434 0.954 . S
C441 C438 1.387 1_545 S
C442 C443 1.387 . S
C442 H446 0.950 . S
C442 C451 1.390 . S
C443 C442 1.387 . S
C443 C445 1.387 . S
H444 C451 0.948 1_655 S
C445 C443 1.387 . S
C445 C447 1.390 . S
C445 H449 0.950 . S
H446 C442 0.950 . S
C447 C445 1.390 . S
C447 C448 1.387 1_455 S
C447 H450 0.949 1_455 S
C448 C447 1.387 1_655 S
C448 C451 1.387 1_655 S
H449 C445 0.950 . S
H450 C447 0.949 1_655 S
C451 C442 1.390 . S
C451 H444 0.948 1_455 S
C451 C448 1.387 1_455 S
C452 C453 1.387 1_545 S
C452 H456 0.949 1_545 S
C452 C461 1.390 . S
C453 C452 1.387 1_565 S
C453 C455 1.387 1_565 S
H454 C461 0.950 . S
C455 C453 1.387 1_545 S
C455 C457 1.390 . S
C455 H459 0.949 1_545 S
H456 C452 0.949 1_565 S
C457 C455 1.390 . S
C457 C458 1.387 . S
C457 H460 0.950 . S
C458 C457 1.387 . S
C458 C461 1.387 . S
H459 C455 0.949 1_565 S
H460 C457 0.950 . S
C461 C452 1.390 . S
C461 H454 0.950 . S
C461 C458 1.387 . S
C462 C463 1.387 . S
C462 H466 0.950 . S
C462 C471 1.390 . S
C463 C462 1.387 . S
C463 C465 1.387 . S
H464 C471 0.950 1_655 S
C465 C463 1.387 . S
C465 C467 1.390 . S
C465 H469 0.950 . S
H466 C462 0.950 . S
C467 C465 1.390 . S
C467 C468 1.387 1_455 S
C467 H470 0.950 1_455 S
C468 C467 1.387 1_655 S
C468 C471 1.387 1_655 S
H469 C465 0.950 . S
H470 C467 0.950 1_655 S
C471 C462 1.390 . S
C471 H464 0.950 1_455 S
C471 C468 1.387 1_455 S
C273 C20 1.692 . S
C278 C156 1.692 . S
C283 C190 1.692 . S
C288 C54 1.692 . S
C293 C88 1.693 . S
C298 C224 1.693 . S
C303 C258 1.693 . S
C308 C122 1.693 . S
C313 C172 1.472 . S
C318 C2 1.471 . S
C323 C206 1.475 . S
C328 C36 1.472 . S
C333 C70 1.471 . S
C338 C240 1.473 . S
C343 C138 1.471 . S
C348 C104 1.473 . S
C353 C135 1.498 . S
C358 C237 1.500 . S
C363 C33 1.500 . S
C368 C271 1.498 . S
C373 C67 1.498 . S
C378 C169 1.500 . S
C383 C101 1.500 . S
C388 C203 1.497 . S
C393 C5 0.769 . S
C398 C73 0.769 . S
C403 C39 0.771 . S
C408 C107 0.771 . S
C413 C209 0.764 . S
C418 C141 0.764 . S
C423 C243 0.769 . S
C428 C175 0.769 . S
C433 C9 1.382 . S
C438 C77 1.383 . S
C443 C111 1.390 . S
C448 C43 1.390 . S
C453 C145 1.390 . S
C458 C213 1.390 . S
C463 C179 1.388 . S
C468 C247 1.389 . S
