# Generated by pormake.
# Topology qtz-e, (6)-cn, num edge types: 1
# Building blocks:
#     Node 0, Type 0, BuildingBlock: PAMTOO_clean_sbu_0, # of connection points: 6
#     Node 1, Type 0, BuildingBlock: PAMTOO_clean_sbu_0, # of connection points: 6
#     Node 2, Type 0, BuildingBlock: PAMTOO_clean_sbu_0, # of connection points: 6
#     Node 3, Type 0, BuildingBlock: PAMTOO_clean_sbu_0, # of connection points: 6
#     Node 4, Type 0, BuildingBlock: PAMTOO_clean_sbu_0, # of connection points: 6
#     Node 5, Type 0, BuildingBlock: PAMTOO_clean_sbu_0, # of connection points: 6
#     Edge 6, Type (0, 0), BuildingBlock: AJUNOK_clean_linker_0, # of connection points: 2
#     Edge 7, Type (0, 0), BuildingBlock: AJUNOK_clean_linker_0, # of connection points: 2
#     Edge 8, Type (0, 0), BuildingBlock: AJUNOK_clean_linker_0, # of connection points: 2
#     Edge 9, Type (0, 0), BuildingBlock: AJUNOK_clean_linker_0, # of connection points: 2
#     Edge 10, Type (0, 0), BuildingBlock: AJUNOK_clean_linker_0, # of connection points: 2
#     Edge 11, Type (0, 0), BuildingBlock: AJUNOK_clean_linker_0, # of connection points: 2
#     Edge 12, Type (0, 0), BuildingBlock: AJUNOK_clean_linker_0, # of connection points: 2
#     Edge 13, Type (0, 0), BuildingBlock: AJUNOK_clean_linker_0, # of connection points: 2
#     Edge 14, Type (0, 0), BuildingBlock: AJUNOK_clean_linker_0, # of connection points: 2
#     Edge 15, Type (0, 0), BuildingBlock: AJUNOK_clean_linker_0, # of connection points: 2
#     Edge 16, Type (0, 0), BuildingBlock: AJUNOK_clean_linker_0, # of connection points: 2
#     Edge 17, Type (0, 0), BuildingBlock: AJUNOK_clean_linker_0, # of connection points: 2
#     Edge 18, Type (0, 0), BuildingBlock: AJUNOK_clean_linker_0, # of connection points: 2
#     Edge 19, Type (0, 0), BuildingBlock: AJUNOK_clean_linker_0, # of connection points: 2
#     Edge 20, Type (0, 0), BuildingBlock: AJUNOK_clean_linker_0, # of connection points: 2
#     Edge 21, Type (0, 0), BuildingBlock: AJUNOK_clean_linker_0, # of connection points: 2
#     Edge 22, Type (0, 0), BuildingBlock: AJUNOK_clean_linker_0, # of connection points: 2
#     Edge 23, Type (0, 0), BuildingBlock: AJUNOK_clean_linker_0, # of connection points: 2
# Relax obj value: 0.252
# Max RMSD: 0.232
# Mean RMSD: 0.232
data_MOF--net-qtz-e--node1-PAMTOO_clean_sbu_0--edge1-AJUNOK_clean_linker_0
_symmetry_space_group_name_H-M    P1
_symmetry_Int_Tables_number       1
_symmetry_cell_setting            triclinic
loop_
_symmetry_equiv_pos_as_xyz
'x, y, z'
_cell_length_a     20.254142
_cell_length_b     20.275896
_cell_length_c     41.002109
_cell_angle_alpha  90.260562
_cell_angle_beta   89.750561
_cell_angle_gamma 119.99949
loop_
_atom_site_label
_atom_site_type_symbol
_atom_site_fract_x
_atom_site_fract_y
_atom_site_fract_z
_atom_type_partial_charge
Dy0 Dy 0.08265 0.3475 0.17816 0.0
Dy1 Dy 0.18617 0.52221 0.21291 0.0
C2 C 0.2649 0.43331 0.19058 0.0
O3 O 0.05319 0.32641 0.23205 0.0
O4 O 0.12251 0.447 0.25493 0.0
O5 O 0.07596 0.23841 0.17051 0.0
O6 O 0.99933 0.26507 0.14469 0.0
O7 O 0.08958 0.52111 0.18696 0.0
O8 O 1.00349 0.39427 0.17598 0.0
O9 O 0.22035 0.54138 0.16034 0.0
O10 O 0.1269 0.42942 0.13699 0.0
O11 O 0.18771 0.61733 0.23722 0.0
O12 O 0.29398 0.62164 0.2246 0.0
C13 C 0.07448 0.37343 0.25737 0.0
O14 O 0.20718 0.39252 0.17129 0.0
O15 O 0.25617 0.46654 0.21628 0.0
C16 C 0.05061 0.19961 0.11431 0.0
C17 C 0.09313 0.16173 0.05352 0.0
C18 C 0.13173 0.16513 0.08253 0.0
C19 C 0.11075 0.18364 0.11245 0.0
C20 C 0.01214 0.19632 0.08525 0.0
C21 C 0.03333 0.17805 0.05531 0.0
C22 C 0.0286 0.22053 0.14609 0.0
C23 C 0.02299 0.46679 0.17674 0.0
C24 C 0.18547 0.49877 0.13481 0.0
C25 C 0.29089 0.68649 0.27206 0.0
C26 C 0.33121 0.74189 0.33605 0.0
C27 C 0.31311 0.78158 0.31305 0.0
C28 C 0.29358 0.75428 0.28127 0.0
C29 C 0.30987 0.64696 0.29469 0.0
C30 C 0.3302 0.6747 0.3265 0.0
C31 C 0.26178 0.65506 0.2397 0.0
H32 H 0.17903 0.15443 0.08205 0.0
H33 H 0.14215 0.18583 0.13413 0.0
H34 H 0.96556 0.20812 0.0856 0.0
H35 H 1.0023 0.17598 0.03352 0.0
H36 H 0.31087 0.83206 0.31992 0.0
H37 H 0.27794 0.78474 0.26417 0.0
H38 H 0.3071 0.59386 0.28803 0.0
H39 H 0.34353 0.64286 0.34381 0.0
Dy40 Dy 0.93758 0.27248 0.46745 0.0
Dy41 Dy 0.87967 0.38092 0.43296 0.0
C42 C 0.75793 0.20768 0.45188 0.0
O43 O 0.98632 0.30202 0.41589 0.0
O44 O 0.88723 0.30879 0.3935 0.0
O45 O 0.9258 0.16158 0.47661 0.0
O46 O 0.01983 0.26282 0.49751 0.0
O47 O 1.00441 0.44527 0.44211 0.0
O48 O 0.00665 0.38958 0.489 0.0
O49 O 0.87221 0.39798 0.4865 0.0
O50 O 0.86356 0.28608 0.50415 0.0
O51 O 0.91438 0.47979 0.40293 0.0
O52 O 0.80034 0.42005 0.42301 0.0
C53 C 0.94824 0.30261 0.38986 0.0
O54 O 0.81361 0.1926 0.45625 0.0
O55 O 0.77102 0.27587 0.4442 0.0
C56 C 0.964 0.15059 0.53024 0.0
C57 C 0.93242 0.07659 0.59189 0.0
C58 C 0.92946 0.03745 0.56294 0.0
C59 C 0.94543 0.07412 0.53257 0.0
C60 C 0.96547 0.18946 0.55902 0.0
C61 C 0.95001 0.15297 0.58941 0.0
C62 C 0.98112 0.18857 0.4978 0.0
C63 C 0.0311 0.45138 0.47155 0.0
C64 C 0.85348 0.34472 0.50862 0.0
C65 C 0.81484 0.46991 0.36974 0.0
C66 C 0.75558 0.46432 0.30733 0.0
C67 C 0.83446 0.4976 0.31187 0.0
C68 C 0.8639 0.50075 0.3428 0.0
C69 C 0.73574 0.43685 0.36517 0.0
C70 C 0.70632 0.43392 0.33415 0.0
C71 C 0.84615 0.47111 0.40225 0.0
H72 H 0.9139 0.97803 0.56365 0.0
H73 H 0.94303 0.04251 0.5108 0.0
H74 H 0.97881 0.24825 0.55811 0.0
H75 H 0.95276 0.18497 0.61109 0.0
H76 H 0.87351 0.52247 0.29153 0.0
H77 H 0.92513 0.5273 0.34554 0.0
H78 H 0.69655 0.41297 0.38551 0.0
H79 H 0.64522 0.40789 0.33108 0.0
Dy80 Dy 0.68327 0.7525 0.84633 0.0
Dy81 Dy 0.50992 0.68841 0.88028 0.0
C82 C 0.60252 0.85346 0.85523 0.0
O83 O 0.70319 0.74659 0.90033 0.0
O84 O 0.58153 0.69292 0.92235 0.0
O85 O 0.7931 0.85326 0.83797 0.0
O86 O 0.76622 0.74662 0.81486 0.0
O87 O 0.50719 0.58864 0.85586 0.0
O88 O 0.63396 0.62638 0.84602 0.0
O89 O 0.49166 0.69755 0.82711 0.0
O90 O 0.60153 0.708 0.8051 0.0
O91 O 0.40784 0.59792 0.90184 0.0
O92 O 0.4184 0.70845 0.89434 0.0
C93 C 0.65506 0.71882 0.92516 0.0
O94 O 0.64044 0.83244 0.8361 0.0
O95 O 0.57044 0.81478 0.88169 0.0
C96 C 0.83084 0.85802 0.78289 0.0
C97 C 0.86593 0.92855 0.72055 0.0
C98 C 0.79067 0.89167 0.73261 0.0
C99 C 0.77341 0.85698 0.76338 0.0
C100 C 0.90607 0.89533 0.77121 0.0
C101 C 0.92353 0.93051 0.74046 0.0
C102 C 0.81186 0.82025 0.81522 0.0
C103 C 0.56095 0.57453 0.8463 0.0
C104 C 0.53231 0.69717 0.80204 0.0
C105 C 0.34998 0.63761 0.94027 0.0
C106 C 0.2966 0.60839 1.00466 0.0
C107 C 0.37439 0.65728 0.99839 0.0
C108 C 0.4011 0.67157 0.96626 0.0
C109 C 0.27186 0.59261 0.9465 0.0
C110 C 0.24524 0.57807 0.97855 0.0
C111 C 0.37804 0.64096 0.9071 0.0
H112 H 0.74479 0.88886 0.71807 0.0
H113 H 0.71498 0.8291 0.77193 0.0
H114 H 0.95143 0.89751 0.78592 0.0
H115 H 0.9824 0.96009 0.73248 0.0
H116 H 0.4148 0.68067 1.01828 0.0
H117 H 0.46179 0.70606 0.96173 0.0
H118 H 0.23191 0.56584 0.92665 0.0
H119 H 0.18497 0.54037 0.98301 0.0
Dy120 Dy 0.74422 0.67023 0.1346 0.0
Dy121 Dy 0.67775 0.49753 0.09961 0.0
C122 C 0.84388 0.58945 0.12071 0.0
O123 O 0.74055 0.69263 0.08063 0.0
O124 O 0.68423 0.57128 0.05815 0.0
O125 O 0.84469 0.78025 0.14305 0.0
O126 O 0.7394 0.75064 0.16821 0.0
O127 O 0.58085 0.49598 0.1256 0.0
O128 O 0.61775 0.62284 0.1333 0.0
O129 O 0.69528 0.4806 0.15194 0.0
O130 O 0.69917 0.58645 0.17511 0.0
O131 O 0.5864 0.40012 0.07568 0.0
O132 O 0.69117 0.40111 0.08764 0.0
C133 C 0.7128 0.64526 0.05552 0.0
O134 O 0.82506 0.62647 0.14154 0.0
O135 O 0.80325 0.5611 0.09439 0.0
C136 C 0.85397 0.81801 0.19923 0.0
C137 C 0.92842 0.85376 0.26103 0.0
C138 C 0.9628 0.8421 0.23338 0.0
C139 C 0.92603 0.82418 0.20295 0.0
C140 C 0.8203 0.83105 0.22679 0.0
C141 C 0.85687 0.84848 0.25724 0.0
C142 C 0.813 0.79675 0.1672 0.0
C143 C 0.56569 0.54986 0.13334 0.0
C144 C 0.69288 0.51899 0.17739 0.0
C145 C 0.62637 0.33808 0.03954 0.0
C146 C 0.61415 0.2931 0.974 0.0
C147 C 0.55595 0.24897 0.99639 0.0
C148 C 0.56215 0.27126 0.02891 0.0
C149 C 0.68602 0.38112 1.01765 0.0
C150 C 0.68022 0.35832 0.98509 0.0
C151 C 0.62598 0.36583 0.07245 0.0
H152 H 0.01779 0.84565 0.2354 0.0
H153 H 0.95402 0.81459 0.18242 0.0
H154 H 0.76525 0.82742 0.22483 0.0
H155 H 0.82937 0.85861 0.27782 0.0
H156 H 0.50407 0.19886 0.98849 0.0
H157 H 0.51538 0.23793 0.0455 0.0
H158 H 0.73589 0.43334 0.02546 0.0
H159 H 0.72653 0.39256 0.96848 0.0
Dy160 Dy 0.28144 0.93846 0.51115 0.0
Dy161 Dy 0.35488 0.83937 0.546 0.0
C162 C 0.18753 0.75926 0.52577 0.0
O163 O 0.28719 0.96731 0.56514 0.0
O164 O 0.35281 0.91129 0.58688 0.0
O165 O 0.17956 0.94587 0.50376 0.0
O166 O 0.28262 0.02069 0.4771 0.0
O167 O 0.44921 0.93338 0.51775 0.0
O168 O 0.40736 0.01967 0.51183 0.0
O169 O 0.33705 0.80173 0.49396 0.0
O170 O 0.32621 0.89912 0.47022 0.0
O171 O 0.4478 0.83358 0.56816 0.0
O172 O 0.33962 0.73006 0.5603 0.0
C173 C 0.32073 0.95358 0.58979 0.0
O174 O 0.20348 0.8134 0.50465 0.0
O175 O 0.22921 0.77527 0.55196 0.0
C176 C 0.16591 0.97133 0.44816 0.0
C177 C 0.0863 0.93083 0.38766 0.0
C178 C 0.08552 0.87481 0.40814 0.0
C179 C 0.12494 0.89479 0.43794 0.0
C180 C 0.1673 0.02739 0.42769 0.0
C181 C 0.12823 0.00747 0.39778 0.0
C182 C 0.2092 0.99337 0.47941 0.0
C183 C 0.46084 1.00084 0.50921 0.0
C184 C 0.33667 0.84026 0.46836 0.0
C185 C 0.40837 0.7377 0.60748 0.0
C186 C 0.42719 0.70172 0.67144 0.0
C187 C 0.41694 0.76416 0.66546 0.0
C188 C 0.40729 0.78187 0.63369 0.0
C189 C 0.41422 0.67292 0.61346 0.0
C190 C 0.4231 0.65467 0.64532 0.0
C191 C 0.40663 0.76071 0.5739 0.0
H192 H 0.05541 0.81548 0.40086 0.0
H193 H 0.12379 0.85032 0.4529 0.0
H194 H 0.19891 0.08682 0.4348 0.0
H195 H 0.13023 0.05209 0.38266 0.0
H196 H 0.41991 0.80133 0.68517 0.0
H197 H 0.40175 0.83161 0.6295 0.0
H198 H 0.41397 0.63769 0.59345 0.0
H199 H 0.42904 0.60516 0.64944 0.0
Dy200 Dy 0.36924 0.0963 0.79994 0.0
Dy201 Dy 0.53993 0.20501 0.76306 0.0
C202 C 0.44562 0.27605 0.78706 0.0
O203 O 0.34512 0.06788 0.74591 0.0
O204 O 0.46462 0.13712 0.72193 0.0
O205 O 0.25819 0.08378 0.80932 0.0
O206 O 0.29149 0.01109 0.8341 0.0
O207 O 0.54519 0.11016 0.78792 0.0
O208 O 0.41914 0.0198 0.7979 0.0
O209 O 0.56025 0.23938 0.81537 0.0
O210 O 0.45583 0.13793 0.8397 0.0
O211 O 0.63719 0.21551 0.73693 0.0
O212 O 0.6338 0.31663 0.75141 0.0
C213 C 0.39097 0.0889 0.72014 0.0
O214 O 0.41045 0.21993 0.8077 0.0
O215 O 0.47415 0.26536 0.76026 0.0
C216 C 0.22058 0.05403 0.86495 0.0
C217 C 0.17938 0.08789 0.92674 0.0
C218 C 0.24123 0.14445 0.90885 0.0
C219 C 0.26189 0.12763 0.87845 0.0
C220 C 0.15849 0.99767 0.88259 0.0
C221 C 0.1381 0.01433 0.91307 0.0
C222 C 0.24272 0.03524 0.83302 0.0
C223 C 0.49234 0.04154 0.79692 0.0
C224 C 0.5235 0.19942 0.84112 0.0
C225 C 0.69467 0.32004 0.70204 0.0
C226 C 0.74053 0.35419 0.63682 0.0
C227 C 0.79503 0.37233 0.66141 0.0
C228 C 0.7721 0.35503 0.6939 0.0
C229 C 0.64069 0.30713 0.67788 0.0
C230 C 0.66357 0.3243 0.6454 0.0
C231 C 0.66991 0.28944 0.73482 0.0
H232 H 0.27445 0.20156 0.91863 0.0
H233 H 0.31043 0.17212 0.86555 0.0
H234 H 0.12567 0.94054 0.87278 0.0
H235 H 0.08937 0.96969 0.92581 0.0
H236 H 0.85458 0.39487 0.65527 0.0
H237 H 0.81427 0.3652 0.71237 0.0
H238 H 0.58063 0.28021 0.68391 0.0
H239 H 0.62077 0.31032 0.62676 0.0
C240 C 0.30447 0.73758 0.42759 0.0
C241 C 0.34507 0.81518 0.43581 0.0
C242 C 0.30324 0.71381 0.39538 0.0
C243 C 0.34352 0.7669 0.37056 0.0
H244 H 0.27029 0.69545 0.44577 0.0
H245 H 0.26748 0.65394 0.38963 0.0
S246 S 0.46975 0.97529 0.38135 0.0
N247 N 0.43327 0.94407 0.41792 0.0
N248 N 0.43338 0.89933 0.35749 0.0
C249 C 0.38879 0.84413 0.37914 0.0
C250 C 0.38896 0.86831 0.41178 0.0
C251 C 0.82255 0.42047 0.58829 0.0
C252 C 0.7625 0.35447 0.60244 0.0
C253 C 0.8499 0.41813 0.55703 0.0
C254 C 0.81916 0.34928 0.53956 0.0
H255 H 0.84947 0.47362 0.60177 0.0
H256 H 0.89743 0.4695 0.54712 0.0
S257 S 0.66002 0.1616 0.56554 0.0
N258 N 0.67176 0.21937 0.59623 0.0
N259 N 0.72396 0.21476 0.53791 0.0
C260 C 0.75809 0.28357 0.55317 0.0
C261 C 0.72948 0.28621 0.58454 0.0
C262 C 0.25117 0.60533 0.09472 0.0
C263 C 0.21566 0.52715 0.10193 0.0
C264 C 0.27803 0.632 0.06313 0.0
C265 C 0.27002 0.58113 0.03802 0.0
H266 H 0.25701 0.64585 0.1134 0.0
H267 H 0.3041 0.69237 0.05817 0.0
S268 S 0.192 0.37312 0.04549 0.0
N269 N 0.18129 0.40053 0.08212 0.0
N270 N 0.23142 0.45087 0.02298 0.0
C271 C 0.23733 0.50348 0.04524 0.0
C272 C 0.21018 0.47638 0.07718 0.0
C273 C 0.74919 0.43911 0.24762 0.0
C274 C 0.72619 0.46555 0.27469 0.0
C275 C 0.73284 0.45136 0.21587 0.0
C276 C 0.69376 0.49122 0.21031 0.0
H277 H 0.7828 0.41162 0.25101 0.0
H278 H 0.75533 0.43396 0.19564 0.0
S279 S 0.61479 0.56518 0.27309 0.0
N280 N 0.65757 0.52799 0.29409 0.0
N281 N 0.62617 0.55063 0.23433 0.0
C282 C 0.6663 0.51362 0.23722 0.0
C283 C 0.68265 0.50083 0.26951 0.0
C284 C 0.43472 0.69277 0.76351 0.0
C285 C 0.5015 0.68914 0.76867 0.0
C286 C 0.40913 0.69368 0.73195 0.0
C287 C 0.44913 0.69062 0.70442 0.0
H288 H 0.40315 0.69745 0.78392 0.0
H289 H 0.35859 0.69856 0.72903 0.0
S290 S 0.62518 0.67712 0.70432 0.0
N291 N 0.60483 0.67824 0.74323 0.0
N292 N 0.55766 0.68228 0.68412 0.0
C293 C 0.51441 0.68437 0.70914 0.0
C294 C 0.54038 0.68308 0.74121 0.0
C295 C 0.57122 0.19613 0.9295 0.0
C296 C 0.60245 0.27279 0.93896 0.0
C297 C 0.54823 0.17323 0.89737 0.0
C298 C 0.55698 0.22638 0.87348 0.0
H299 H 0.56227 0.15312 0.94732 0.0
H300 H 0.52203 0.11326 0.8913 0.0
S301 S 0.63708 0.43391 0.88517 0.0
N302 N 0.64145 0.40196 0.92161 0.0
N303 N 0.60086 0.35892 0.86079 0.0
C304 C 0.59135 0.30363 0.88209 0.0
C305 C 0.61359 0.3269 0.91497 0.0
C306 C 0.40568 0.52711 0.18913 0.0
C307 C 0.34256 0.45946 0.17743 0.0
C308 C 0.47728 0.5588 0.17374 0.0
C309 C 0.48829 0.52382 0.14622 0.0
H310 H 0.39961 0.55674 0.20995 0.0
H311 H 0.52467 0.60982 0.18397 0.0
S312 S 0.34217 0.34684 0.10553 0.0
N313 N 0.29674 0.35888 0.13641 0.0
N314 N 0.43037 0.41891 0.10752 0.0
C315 C 0.42583 0.45649 0.13424 0.0
C316 C 0.35333 0.42414 0.14986 0.0
C317 C 0.12277 0.66546 0.48084 0.0
C318 C 0.14289 0.67904 0.51405 0.0
C319 C 0.0896 0.59235 0.46743 0.0
C320 C 0.07359 0.52856 0.48657 0.0
H321 H 0.13431 0.71197 0.46456 0.0
H322 H 0.07588 0.58611 0.44169 0.0
S323 S 0.11164 0.53172 0.57527 0.0
N324 N 0.14293 0.62183 0.56607 0.0
N325 N 0.07854 0.48351 0.54093 0.0
C326 C 0.0922 0.5407 0.51998 0.0
C327 C 0.12702 0.6159 0.53367 0.0
C328 C 0.48179 0.94464 0.83746 0.0
C329 C 0.51898 0.99128 0.81044 0.0
C330 C 0.51129 0.90327 0.85297 0.0
C331 C 0.57872 0.90635 0.84183 0.0
H332 H 0.43033 0.94127 0.84714 0.0
H333 H 0.4799 0.86727 0.87336 0.0
S334 S 0.69718 0.01954 0.77158 0.0
N335 N 0.62655 0.03801 0.77309 0.0
N336 N 0.68176 0.96034 0.80194 0.0
C337 C 0.61642 0.95302 0.81481 0.0
C338 C 0.58662 0.99534 0.79919 0.0
C339 C 0.47083 0.43484 0.84393 0.0
C340 C 0.5353 0.49921 0.83131 0.0
C341 C 0.44032 0.36385 0.82851 0.0
C342 C 0.47211 0.35441 0.79943 0.0
H343 H 0.44396 0.43926 0.8661 0.0
H344 H 0.39189 0.3157 0.83984 0.0
S345 S 0.637 0.50784 0.75462 0.0
N346 N 0.62751 0.55078 0.78712 0.0
N347 N 0.56921 0.41779 0.75751 0.0
C348 C 0.53512 0.41925 0.78589 0.0
C349 C 0.56712 0.49141 0.80204 0.0
C350 C 0.9712 0.55483 0.17703 0.0
C351 C 0.97227 0.49216 0.16285 0.0
C352 C 0.93217 0.58753 0.16242 0.0
C353 C 0.89312 0.55961 0.13271 0.0
H354 H 1.00118 0.57916 0.19967 0.0
H355 H 0.93221 0.63485 0.17482 0.0
S356 S 0.88313 0.39912 0.08447 0.0
N357 N 0.93385 0.40487 0.1169 0.0
N358 N 0.86095 0.46674 0.08893 0.0
C359 C 0.89503 0.49762 0.11788 0.0
C360 C 0.93414 0.46359 0.13313 0.0
C361 C 0.59585 0.0387 0.49514 0.0
C362 C 0.53506 0.05371 0.49331 0.0
C363 C 0.66607 0.08582 0.47986 0.0
C364 C 0.67884 0.15018 0.46192 0.0
H365 H 0.58996 0.99084 0.50912 0.0
H366 H 0.71157 0.0732 0.48337 0.0
S367 S 0.53508 0.20908 0.44574 0.0
N368 N 0.4902 0.13373 0.46944 0.0
N369 N 0.62166 0.22211 0.4406 0.0
C370 C 0.61725 0.16373 0.45848 0.0
C371 C 0.54576 0.11584 0.47425 0.0
C372 C 0.14889 0.17005 0.96339 0.0
C373 C 0.15782 0.10581 0.95939 0.0
C374 C 0.12745 0.18725 0.99363 0.0
C375 C 0.11535 0.14187 0.02146 0.0
H376 H 0.15749 0.20685 0.94282 0.0
H377 H 0.121 0.23705 0.99528 0.0
S378 S 0.13205 0.96775 0.02432 0.0
N379 N 0.15338 0.99703 0.9862 0.0
N380 N 0.11343 0.02926 0.04273 0.0
C381 C 0.12459 0.07778 1.01783 0.0
C382 C 0.14555 0.05978 0.98697 0.0
C383 C 0.05904 0.35271 0.35035 0.0
C384 C 0.97989 0.30928 0.35604 0.0
C385 C 0.08916 0.37081 0.3184 0.0
C386 C 0.04182 0.34433 0.29062 0.0
H387 H 0.09788 0.37647 0.37075 0.0
H388 H 0.15014 0.4074 0.31542 0.0
S389 S 0.83106 0.225 0.29186 0.0
N390 N 0.85497 0.23842 0.33081 0.0
N391 N 0.91179 0.26982 0.27115 0.0
C392 C 0.963 0.29787 0.29592 0.0
C393 C 0.93209 0.28113 0.32845 0.0
C394 C 0.85281 0.01109 0.67802 0.0
C395 C 0.88394 0.96559 0.68757 0.0
C396 C 0.86887 0.04666 0.6473 0.0
C397 C 0.91643 0.03805 0.62453 0.0
H398 H 0.81622 0.02006 0.6946 0.0
H399 H 0.84304 0.08062 0.64122 0.0
S400 S 0.01224 0.92463 0.63721 0.0
N401 N 0.96377 0.91294 0.67124 0.0
N402 N 0.99554 0.98119 0.61413 0.0
C403 C 0.94796 0.9927 0.63375 0.0
C404 C 0.93153 0.9564 0.66504 0.0
C405 C 0.66396 0.73863 0.98609 0.0
C406 C 0.68258 0.71111 0.95788 0.0
C407 C 0.67888 0.72183 1.0177 0.0
C408 C 0.71045 0.67449 0.02236 0.0
H409 H 0.63577 0.77183 0.9837 0.0
H410 H 0.66152 0.74243 0.0386 0.0
S411 S 0.7694 0.5878 0.95668 0.0
N412 N 0.73638 0.63606 0.93688 0.0
N413 N 0.76119 0.60169 0.99588 0.0
C414 C 0.73045 0.64777 0.99432 0.0
C415 C 0.71736 0.66674 0.96223 0.0
C416 C 0.08175 0.94909 0.3269 0.0
C417 C 0.04472 0.90984 0.35565 0.0
C418 C 0.0442 0.93022 0.29653 0.0
C419 C 0.9675 0.87201 0.29358 0.0
H420 H 0.1407 0.99435 0.32779 0.0
H421 H 0.0753 0.9622 0.27521 0.0
S422 S 0.8444 0.75142 0.36119 0.0
N423 N 0.92644 0.80971 0.37898 0.0
N424 N 0.85634 0.77431 0.32215 0.0
C425 C 0.92978 0.83232 0.32211 0.0
C426 C 0.9682 0.85106 0.35298 0.0
C427 C 0.31898 0.97585 0.68253 0.0
C428 C 0.36079 0.05534 0.68713 0.0
C429 C 0.30325 0.94336 0.65091 0.0
C430 C 0.32632 0.98891 0.62257 0.0
H431 H 0.30229 0.93839 0.70344 0.0
H432 H 0.27466 0.88193 0.64861 0.0
S433 S 0.43411 0.19992 0.62115 0.0
N434 N 0.42335 0.17866 0.66039 0.0
N435 N 0.39099 0.11773 0.60145 0.0
C436 C 0.36488 0.06831 0.62688 0.0
C437 C 0.38278 0.10138 0.65897 0.0
loop_
_geom_bond_atom_site_label_1
_geom_bond_atom_site_label_2
_geom_bond_distance
_geom_bond_site_symmetry_2
_ccdc_geom_bond_type
Dy0 O3 2.307 . S
Dy0 O5 2.395 . S
Dy0 O6 2.379 . S
Dy0 O8 2.339 1_455 S
Dy0 O10 2.298 . S
Dy0 O14 2.275 . S
Dy0 C22 2.738 . S
Dy1 O4 2.298 . S
Dy1 O7 2.275 . S
Dy1 O9 2.307 . S
Dy1 O11 2.395 . S
Dy1 O12 2.379 . S
Dy1 O15 2.339 . S
Dy1 C31 2.738 . S
C2 O14 1.254 . S
C2 O15 1.257 . S
O3 Dy0 2.307 . S
O3 C13 1.266 . S
O4 Dy1 2.298 . S
O4 C13 1.236 . S
O5 Dy0 2.395 . S
O5 C22 1.255 . S
O6 Dy0 2.379 . S
O6 C22 1.249 . S
O7 Dy1 2.275 . S
O7 C23 1.254 1_455 S
O8 Dy0 2.339 1_655 S
O8 C23 1.257 . S
O9 Dy1 2.307 . S
O9 C24 1.266 . S
O10 Dy0 2.298 . S
O10 C24 1.236 . S
O11 Dy1 2.395 . S
O11 C31 1.255 . S
O12 Dy1 2.379 . S
O12 C31 1.249 . S
C13 O3 1.266 . S
C13 O4 1.236 . S
O14 Dy0 2.275 . S
O14 C2 1.254 . S
O15 Dy1 2.339 . S
O15 C2 1.257 . S
C16 C19 1.344 . S
C16 C20 1.328 . S
C16 C22 1.516 . S
C17 C18 1.304 . S
C17 C21 1.323 . S
C18 C17 1.304 . S
C18 C19 1.371 . S
C18 H32 0.930 . S
C19 C16 1.344 . S
C19 C18 1.371 . S
C19 H33 0.931 . S
C20 C16 1.328 . S
C20 C21 1.433 . S
C20 H34 0.931 1_455 S
C21 C17 1.323 . S
C21 C20 1.433 . S
C21 H35 0.933 1_455 S
C22 Dy0 2.738 . S
C22 O5 1.255 . S
C22 O6 1.249 . S
C22 C16 1.516 . S
C23 O7 1.254 1_655 S
C23 O8 1.257 . S
C24 O9 1.266 . S
C24 O10 1.236 . S
C25 C28 1.344 . S
C25 C29 1.328 . S
C25 C31 1.516 . S
C26 C27 1.304 . S
C26 C30 1.323 . S
C27 C26 1.304 . S
C27 C28 1.371 . S
C27 H36 0.930 . S
C28 C25 1.344 . S
C28 C27 1.371 . S
C28 H37 0.931 . S
C29 C25 1.328 . S
C29 C30 1.433 . S
C29 H38 0.931 . S
C30 C26 1.323 . S
C30 C29 1.433 . S
C30 H39 0.933 . S
C31 Dy1 2.738 . S
C31 O11 1.255 . S
C31 O12 1.249 . S
C31 C25 1.516 . S
H32 C18 0.930 . S
H33 C19 0.931 . S
H34 C20 0.931 1_655 S
H35 C21 0.933 1_655 S
H36 C27 0.930 . S
H37 C28 0.931 . S
H38 C29 0.931 . S
H39 C30 0.933 . S
Dy40 O43 2.307 1_655 S
Dy40 O45 2.395 . S
Dy40 O46 2.379 1_655 S
Dy40 O48 2.339 1_655 S
Dy40 O50 2.298 . S
Dy40 O54 2.275 . S
Dy40 C62 2.738 . S
Dy41 O44 2.298 . S
Dy41 O47 2.275 . S
Dy41 O49 2.307 . S
Dy41 O51 2.395 . S
Dy41 O52 2.379 . S
Dy41 O55 2.339 . S
Dy41 C71 2.738 . S
C42 O54 1.254 . S
C42 O55 1.257 . S
O43 Dy40 2.307 1_455 S
O43 C53 1.266 1_455 S
O44 Dy41 2.298 . S
O44 C53 1.236 . S
O45 Dy40 2.395 . S
O45 C62 1.255 . S
O46 Dy40 2.379 1_455 S
O46 C62 1.249 1_455 S
O47 Dy41 2.275 . S
O47 C63 1.254 1_655 S
O48 Dy40 2.339 1_455 S
O48 C63 1.257 . S
O49 Dy41 2.307 . S
O49 C64 1.266 . S
O50 Dy40 2.298 . S
O50 C64 1.236 . S
O51 Dy41 2.395 . S
O51 C71 1.255 . S
O52 Dy41 2.379 . S
O52 C71 1.249 . S
C53 O43 1.266 1_655 S
C53 O44 1.236 . S
O54 Dy40 2.275 . S
O54 C42 1.254 . S
O55 Dy41 2.339 . S
O55 C42 1.257 . S
C56 C59 1.344 . S
C56 C60 1.328 1_655 S
C56 C62 1.516 . S
C57 C58 1.304 . S
C57 C61 1.323 1_655 S
C58 C57 1.304 . S
C58 C59 1.371 . S
C58 H72 0.930 . S
C59 C56 1.344 . S
C59 C58 1.371 . S
C59 H73 0.931 . S
C60 C56 1.328 1_455 S
C60 C61 1.433 . S
C60 H74 0.931 . S
C61 C57 1.323 1_455 S
C61 C60 1.433 . S
C61 H75 0.933 . S
C62 Dy40 2.738 . S
C62 O45 1.255 . S
C62 O46 1.249 1_655 S
C62 C56 1.516 . S
C63 O47 1.254 1_455 S
C63 O48 1.257 . S
C64 O49 1.266 . S
C64 O50 1.236 . S
C65 C68 1.344 . S
C65 C69 1.328 . S
C65 C71 1.516 . S
C66 C67 1.304 . S
C66 C70 1.323 . S
C67 C66 1.304 . S
C67 C68 1.371 . S
C67 H76 0.930 . S
C68 C65 1.344 . S
C68 C67 1.371 . S
C68 H77 0.931 . S
C69 C65 1.328 . S
C69 C70 1.433 . S
C69 H78 0.931 . S
C70 C66 1.323 . S
C70 C69 1.433 . S
C70 H79 0.933 . S
C71 Dy41 2.738 . S
C71 O51 1.255 . S
C71 O52 1.249 . S
C71 C65 1.516 . S
H72 C58 0.930 . S
H73 C59 0.931 . S
H74 C60 0.931 . S
H75 C61 0.933 . S
H76 C67 0.930 . S
H77 C68 0.931 . S
H78 C69 0.931 . S
H79 C70 0.933 . S
Dy80 O83 2.307 . S
Dy80 O85 2.395 . S
Dy80 O86 2.379 . S
Dy80 O88 2.339 . S
Dy80 O90 2.298 . S
Dy80 O94 2.275 . S
Dy80 C102 2.738 . S
Dy81 O84 2.298 . S
Dy81 O87 2.275 . S
Dy81 O89 2.307 . S
Dy81 O91 2.395 . S
Dy81 O92 2.379 . S
Dy81 O95 2.339 . S
Dy81 C111 2.738 . S
C82 O94 1.254 . S
C82 O95 1.257 . S
O83 Dy80 2.307 . S
O83 C93 1.266 . S
O84 Dy81 2.298 . S
O84 C93 1.236 . S
O85 Dy80 2.395 . S
O85 C102 1.255 . S
O86 Dy80 2.379 . S
O86 C102 1.249 . S
O87 Dy81 2.275 . S
O87 C103 1.254 . S
O88 Dy80 2.339 . S
O88 C103 1.257 . S
O89 Dy81 2.307 . S
O89 C104 1.266 . S
O90 Dy80 2.298 . S
O90 C104 1.236 . S
O91 Dy81 2.395 . S
O91 C111 1.255 . S
O92 Dy81 2.379 . S
O92 C111 1.249 . S
C93 O83 1.266 . S
C93 O84 1.236 . S
O94 Dy80 2.275 . S
O94 C82 1.254 . S
O95 Dy81 2.339 . S
O95 C82 1.257 . S
C96 C99 1.344 . S
C96 C100 1.328 . S
C96 C102 1.516 . S
C97 C98 1.304 . S
C97 C101 1.323 . S
C98 C97 1.304 . S
C98 C99 1.371 . S
C98 H112 0.930 1_565 S
C99 C96 1.344 . S
C99 C98 1.371 . S
C99 H113 0.931 . S
C100 C96 1.328 . S
C100 C101 1.433 . S
C100 H114 0.931 . S
C101 C97 1.323 . S
C101 C100 1.433 . S
C101 H115 0.933 . S
C102 Dy80 2.738 . S
C102 O85 1.255 . S
C102 O86 1.249 . S
C102 C96 1.516 . S
C103 O87 1.254 . S
C103 O88 1.257 . S
C104 O89 1.266 . S
C104 O90 1.236 . S
C105 C108 1.344 . S
C105 C109 1.328 . S
C105 C111 1.516 . S
C106 C107 1.304 1_554 S
C106 C110 1.323 1_554 S
C107 C106 1.304 1_556 S
C107 C108 1.371 . S
C107 H116 0.930 . S
C108 C105 1.344 . S
C108 C107 1.371 . S
C108 H117 0.931 . S
C109 C105 1.328 . S
C109 C110 1.433 . S
C109 H118 0.931 . S
C110 C106 1.323 1_556 S
C110 C109 1.433 . S
C110 H119 0.933 1_556 S
C111 Dy81 2.738 . S
C111 O91 1.255 . S
C111 O92 1.249 . S
C111 C105 1.516 . S
H112 C98 0.930 1_545 S
H113 C99 0.931 . S
H114 C100 0.931 . S
H115 C101 0.933 . S
H116 C107 0.930 . S
H117 C108 0.931 . S
H118 C109 0.931 . S
H119 C110 0.933 1_554 S
Dy120 O123 2.307 . S
Dy120 O125 2.395 . S
Dy120 O126 2.379 . S
Dy120 O128 2.339 . S
Dy120 O130 2.298 . S
Dy120 O134 2.275 . S
Dy120 C142 2.738 . S
Dy121 O124 2.298 . S
Dy121 O127 2.275 . S
Dy121 O129 2.307 . S
Dy121 O131 2.395 . S
Dy121 O132 2.379 . S
Dy121 O135 2.339 . S
Dy121 C151 2.738 . S
C122 O134 1.254 . S
C122 O135 1.257 . S
O123 Dy120 2.307 . S
O123 C133 1.266 . S
O124 Dy121 2.298 . S
O124 C133 1.236 . S
O125 Dy120 2.395 . S
O125 C142 1.255 . S
O126 Dy120 2.379 . S
O126 C142 1.249 . S
O127 Dy121 2.275 . S
O127 C143 1.254 . S
O128 Dy120 2.339 . S
O128 C143 1.257 . S
O129 Dy121 2.307 . S
O129 C144 1.266 . S
O130 Dy120 2.298 . S
O130 C144 1.236 . S
O131 Dy121 2.395 . S
O131 C151 1.255 . S
O132 Dy121 2.379 . S
O132 C151 1.249 . S
C133 O123 1.266 . S
C133 O124 1.236 . S
O134 Dy120 2.275 . S
O134 C122 1.254 . S
O135 Dy121 2.339 . S
O135 C122 1.257 . S
C136 C139 1.344 . S
C136 C140 1.328 . S
C136 C142 1.516 . S
C137 C138 1.304 . S
C137 C141 1.323 . S
C138 C137 1.304 . S
C138 C139 1.371 . S
C138 H152 0.930 1_655 S
C139 C136 1.344 . S
C139 C138 1.371 . S
C139 H153 0.931 . S
C140 C136 1.328 . S
C140 C141 1.433 . S
C140 H154 0.931 . S
C141 C137 1.323 . S
C141 C140 1.433 . S
C141 H155 0.933 . S
C142 Dy120 2.738 . S
C142 O125 1.255 . S
C142 O126 1.249 . S
C142 C136 1.516 . S
C143 O127 1.254 . S
C143 O128 1.257 . S
C144 O129 1.266 . S
C144 O130 1.236 . S
C145 C148 1.344 . S
C145 C149 1.328 . S
C145 C151 1.516 1_556 S
C146 C147 1.304 . S
C146 C150 1.323 . S
C147 C146 1.304 . S
C147 C148 1.371 . S
C147 H156 0.930 . S
C148 C145 1.344 . S
C148 C147 1.371 . S
C148 H157 0.931 . S
C149 C145 1.328 . S
C149 C150 1.433 . S
C149 H158 0.931 . S
C150 C146 1.323 . S
C150 C149 1.433 . S
C150 H159 0.933 . S
C151 Dy121 2.738 . S
C151 O131 1.255 . S
C151 O132 1.249 . S
C151 C145 1.516 1_554 S
H152 C138 0.930 1_455 S
H153 C139 0.931 . S
H154 C140 0.931 . S
H155 C141 0.933 . S
H156 C147 0.930 . S
H157 C148 0.931 . S
H158 C149 0.931 . S
H159 C150 0.933 . S
Dy160 O163 2.307 1_565 S
Dy160 O165 2.395 . S
Dy160 O166 2.379 1_565 S
Dy160 O168 2.339 1_565 S
Dy160 O170 2.298 . S
Dy160 O174 2.275 . S
Dy160 C182 2.738 . S
Dy161 O164 2.298 . S
Dy161 O167 2.275 . S
Dy161 O169 2.307 . S
Dy161 O171 2.395 . S
Dy161 O172 2.379 . S
Dy161 O175 2.339 . S
Dy161 C191 2.738 . S
C162 O174 1.254 . S
C162 O175 1.257 . S
O163 Dy160 2.307 1_545 S
O163 C173 1.266 1_545 S
O164 Dy161 2.298 . S
O164 C173 1.236 . S
O165 Dy160 2.395 . S
O165 C182 1.255 . S
O166 Dy160 2.379 1_545 S
O166 C182 1.249 1_545 S
O167 Dy161 2.275 . S
O167 C183 1.254 1_565 S
O168 Dy160 2.339 1_545 S
O168 C183 1.257 . S
O169 Dy161 2.307 . S
O169 C184 1.266 . S
O170 Dy160 2.298 . S
O170 C184 1.236 . S
O171 Dy161 2.395 . S
O171 C191 1.255 . S
O172 Dy161 2.379 . S
O172 C191 1.249 . S
C173 O163 1.266 1_565 S
C173 O164 1.236 . S
O174 Dy160 2.275 . S
O174 C162 1.254 . S
O175 Dy161 2.339 . S
O175 C162 1.257 . S
C176 C179 1.344 . S
C176 C180 1.328 1_565 S
C176 C182 1.516 . S
C177 C178 1.304 . S
C177 C181 1.323 1_565 S
C178 C177 1.304 . S
C178 C179 1.371 . S
C178 H192 0.930 . S
C179 C176 1.344 . S
C179 C178 1.371 . S
C179 H193 0.931 . S
C180 C176 1.328 1_545 S
C180 C181 1.433 . S
C180 H194 0.931 . S
C181 C177 1.323 1_545 S
C181 C180 1.433 . S
C181 H195 0.933 . S
C182 Dy160 2.738 . S
C182 O165 1.255 . S
C182 O166 1.249 1_565 S
C182 C176 1.516 . S
C183 O167 1.254 1_545 S
C183 O168 1.257 . S
C184 O169 1.266 . S
C184 O170 1.236 . S
C185 C188 1.344 . S
C185 C189 1.328 . S
C185 C191 1.516 . S
C186 C187 1.304 . S
C186 C190 1.323 . S
C187 C186 1.304 . S
C187 C188 1.371 . S
C187 H196 0.930 . S
C188 C185 1.344 . S
C188 C187 1.371 . S
C188 H197 0.931 . S
C189 C185 1.328 . S
C189 C190 1.433 . S
C189 H198 0.931 . S
C190 C186 1.323 . S
C190 C189 1.433 . S
C190 H199 0.933 . S
C191 Dy161 2.738 . S
C191 O171 1.255 . S
C191 O172 1.249 . S
C191 C185 1.516 . S
H192 C178 0.930 . S
H193 C179 0.931 . S
H194 C180 0.931 . S
H195 C181 0.933 . S
H196 C187 0.930 . S
H197 C188 0.931 . S
H198 C189 0.931 . S
H199 C190 0.933 . S
Dy200 O203 2.307 . S
Dy200 O205 2.395 . S
Dy200 O206 2.379 . S
Dy200 O208 2.339 1_545 S
Dy200 O210 2.298 . S
Dy200 O214 2.275 . S
Dy200 C222 2.738 . S
Dy201 O204 2.298 . S
Dy201 O207 2.275 . S
Dy201 O209 2.307 . S
Dy201 O211 2.395 . S
Dy201 O212 2.379 . S
Dy201 O215 2.339 . S
Dy201 C231 2.738 . S
C202 O214 1.254 . S
C202 O215 1.257 . S
O203 Dy200 2.307 . S
O203 C213 1.266 . S
O204 Dy201 2.298 . S
O204 C213 1.236 . S
O205 Dy200 2.395 . S
O205 C222 1.255 . S
O206 Dy200 2.379 . S
O206 C222 1.249 . S
O207 Dy201 2.275 . S
O207 C223 1.254 1_545 S
O208 Dy200 2.339 1_565 S
O208 C223 1.257 . S
O209 Dy201 2.307 . S
O209 C224 1.266 . S
O210 Dy200 2.298 . S
O210 C224 1.236 . S
O211 Dy201 2.395 . S
O211 C231 1.255 . S
O212 Dy201 2.379 . S
O212 C231 1.249 . S
C213 O203 1.266 . S
C213 O204 1.236 . S
O214 Dy200 2.275 . S
O214 C202 1.254 . S
O215 Dy201 2.339 . S
O215 C202 1.257 . S
C216 C219 1.344 . S
C216 C220 1.328 . S
C216 C222 1.516 . S
C217 C218 1.304 . S
C217 C221 1.323 . S
C218 C217 1.304 . S
C218 C219 1.371 . S
C218 H232 0.930 . S
C219 C216 1.344 . S
C219 C218 1.371 . S
C219 H233 0.931 . S
C220 C216 1.328 . S
C220 C221 1.433 . S
C220 H234 0.931 1_545 S
C221 C217 1.323 . S
C221 C220 1.433 . S
C221 H235 0.933 1_545 S
C222 Dy200 2.738 . S
C222 O205 1.255 . S
C222 O206 1.249 . S
C222 C216 1.516 . S
C223 O207 1.254 1_565 S
C223 O208 1.257 . S
C224 O209 1.266 . S
C224 O210 1.236 . S
C225 C228 1.344 . S
C225 C229 1.328 . S
C225 C231 1.516 . S
C226 C227 1.304 . S
C226 C230 1.323 . S
C227 C226 1.304 . S
C227 C228 1.371 . S
C227 H236 0.930 . S
C228 C225 1.344 . S
C228 C227 1.371 . S
C228 H237 0.931 . S
C229 C225 1.328 . S
C229 C230 1.433 . S
C229 H238 0.931 . S
C230 C226 1.323 . S
C230 C229 1.433 . S
C230 H239 0.933 . S
C231 Dy201 2.738 . S
C231 O211 1.255 . S
C231 O212 1.249 . S
C231 C225 1.516 . S
H232 C218 0.930 . S
H233 C219 0.931 . S
H234 C220 0.931 1_565 S
H235 C221 0.933 1_565 S
H236 C227 0.930 . S
H237 C228 0.931 . S
H238 C229 0.931 . S
H239 C230 0.933 . S
C240 C241 1.369 . S
C240 C242 1.419 . S
C240 H244 0.930 . S
C241 C240 1.369 . S
C241 C250 1.429 . S
C242 C240 1.419 . S
C242 C243 1.363 . S
C242 H245 0.929 . S
C243 C242 1.363 . S
C243 C249 1.428 . S
H244 C240 0.930 . S
H245 C242 0.929 . S
S246 N247 1.613 . S
S246 N248 1.610 . S
N247 S246 1.613 . S
N247 C250 1.350 . S
N248 S246 1.610 . S
N248 C249 1.351 . S
C249 C243 1.428 . S
C249 N248 1.351 . S
C249 C250 1.434 . S
C250 C241 1.429 . S
C250 N247 1.350 . S
C250 C249 1.434 . S
C251 C252 1.369 . S
C251 C253 1.419 . S
C251 H255 0.930 . S
C252 C251 1.369 . S
C252 C261 1.429 . S
C253 C251 1.419 . S
C253 C254 1.363 . S
C253 H256 0.929 . S
C254 C253 1.363 . S
C254 C260 1.428 . S
H255 C251 0.930 . S
H256 C253 0.929 . S
S257 N258 1.613 . S
S257 N259 1.610 . S
N258 S257 1.613 . S
N258 C261 1.350 . S
N259 S257 1.610 . S
N259 C260 1.351 . S
C260 C254 1.428 . S
C260 N259 1.351 . S
C260 C261 1.434 . S
C261 C252 1.429 . S
C261 N258 1.350 . S
C261 C260 1.434 . S
C262 C263 1.369 . S
C262 C264 1.419 . S
C262 H266 0.930 . S
C263 C262 1.369 . S
C263 C272 1.429 . S
C264 C262 1.419 . S
C264 C265 1.363 . S
C264 H267 0.929 . S
C265 C264 1.363 . S
C265 C271 1.428 . S
H266 C262 0.930 . S
H267 C264 0.929 . S
S268 N269 1.613 . S
S268 N270 1.610 . S
N269 S268 1.613 . S
N269 C272 1.350 . S
N270 S268 1.610 . S
N270 C271 1.351 . S
C271 C265 1.428 . S
C271 N270 1.351 . S
C271 C272 1.434 . S
C272 C263 1.429 . S
C272 N269 1.350 . S
C272 C271 1.434 . S
C273 C274 1.369 . S
C273 C275 1.419 . S
C273 H277 0.930 . S
C274 C273 1.369 . S
C274 C283 1.429 . S
C275 C273 1.419 . S
C275 C276 1.363 . S
C275 H278 0.929 . S
C276 C275 1.363 . S
C276 C282 1.428 . S
H277 C273 0.930 . S
H278 C275 0.929 . S
S279 N280 1.613 . S
S279 N281 1.610 . S
N280 S279 1.613 . S
N280 C283 1.350 . S
N281 S279 1.610 . S
N281 C282 1.351 . S
C282 C276 1.428 . S
C282 N281 1.351 . S
C282 C283 1.434 . S
C283 C274 1.429 . S
C283 N280 1.350 . S
C283 C282 1.434 . S
C284 C285 1.369 . S
C284 C286 1.419 . S
C284 H288 0.930 . S
C285 C284 1.369 . S
C285 C294 1.429 . S
C286 C284 1.419 . S
C286 C287 1.363 . S
C286 H289 0.929 . S
C287 C286 1.363 . S
C287 C293 1.428 . S
H288 C284 0.930 . S
H289 C286 0.929 . S
S290 N291 1.613 . S
S290 N292 1.610 . S
N291 S290 1.613 . S
N291 C294 1.350 . S
N292 S290 1.610 . S
N292 C293 1.351 . S
C293 C287 1.428 . S
C293 N292 1.351 . S
C293 C294 1.434 . S
C294 C285 1.429 . S
C294 N291 1.350 . S
C294 C293 1.434 . S
C295 C296 1.369 . S
C295 C297 1.419 . S
C295 H299 0.930 . S
C296 C295 1.369 . S
C296 C305 1.429 . S
C297 C295 1.419 . S
C297 C298 1.363 . S
C297 H300 0.929 . S
C298 C297 1.363 . S
C298 C304 1.428 . S
H299 C295 0.930 . S
H300 C297 0.929 . S
S301 N302 1.613 . S
S301 N303 1.610 . S
N302 S301 1.613 . S
N302 C305 1.350 . S
N303 S301 1.610 . S
N303 C304 1.351 . S
C304 C298 1.428 . S
C304 N303 1.351 . S
C304 C305 1.434 . S
C305 C296 1.429 . S
C305 N302 1.350 . S
C305 C304 1.434 . S
C306 C307 1.369 . S
C306 C308 1.419 . S
C306 H310 0.930 . S
C307 C306 1.369 . S
C307 C316 1.429 . S
C308 C306 1.419 . S
C308 C309 1.363 . S
C308 H311 0.929 . S
C309 C308 1.363 . S
C309 C315 1.428 . S
H310 C306 0.930 . S
H311 C308 0.929 . S
S312 N313 1.613 . S
S312 N314 1.610 . S
N313 S312 1.613 . S
N313 C316 1.350 . S
N314 S312 1.610 . S
N314 C315 1.351 . S
C315 C309 1.428 . S
C315 N314 1.351 . S
C315 C316 1.434 . S
C316 C307 1.429 . S
C316 N313 1.350 . S
C316 C315 1.434 . S
C317 C318 1.369 . S
C317 C319 1.419 . S
C317 H321 0.930 . S
C318 C317 1.369 . S
C318 C327 1.429 . S
C319 C317 1.419 . S
C319 C320 1.363 . S
C319 H322 0.940 . S
C320 C319 1.363 . S
C320 C326 1.428 . S
H321 C317 0.930 . S
H322 C319 0.940 . S
S323 N324 1.613 . S
S323 N325 1.610 . S
N324 S323 1.613 . S
N324 C327 1.350 . S
N325 S323 1.610 . S
N325 C326 1.351 . S
C326 C320 1.428 . S
C326 N325 1.351 . S
C326 C327 1.434 . S
C327 C318 1.429 . S
C327 N324 1.350 . S
C327 C326 1.434 . S
C328 C329 1.369 . S
C328 C330 1.419 . S
C328 H332 0.930 . S
C329 C328 1.369 . S
C329 C338 1.429 . S
C330 C328 1.419 . S
C330 C331 1.363 . S
C330 H333 0.929 . S
C331 C330 1.363 . S
C331 C337 1.428 . S
H332 C328 0.930 . S
H333 C330 0.929 . S
S334 N335 1.613 . S
S334 N336 1.610 . S
N335 S334 1.613 . S
N335 C338 1.350 1_545 S
N336 S334 1.610 . S
N336 C337 1.351 1_545 S
C337 C331 1.428 . S
C337 N336 1.351 1_565 S
C337 C338 1.434 . S
C338 C329 1.429 . S
C338 N335 1.350 1_565 S
C338 C337 1.434 . S
C339 C340 1.369 . S
C339 C341 1.419 . S
C339 H343 0.930 . S
C340 C339 1.369 . S
C340 C349 1.429 . S
C341 C339 1.419 . S
C341 C342 1.363 . S
C341 H344 0.929 . S
C342 C341 1.363 . S
C342 C348 1.428 . S
H343 C339 0.930 . S
H344 C341 0.929 . S
S345 N346 1.613 . S
S345 N347 1.610 . S
N346 S345 1.613 . S
N346 C349 1.350 . S
N347 S345 1.610 . S
N347 C348 1.351 . S
C348 C342 1.428 . S
C348 N347 1.351 . S
C348 C349 1.434 . S
C349 C340 1.429 . S
C349 N346 1.350 . S
C349 C348 1.434 . S
C350 C351 1.369 . S
C350 C352 1.419 . S
C350 H354 0.930 . S
C351 C350 1.369 . S
C351 C360 1.429 . S
C352 C350 1.419 . S
C352 C353 1.363 . S
C352 H355 0.929 . S
C353 C352 1.363 . S
C353 C359 1.428 . S
H354 C350 0.930 . S
H355 C352 0.929 . S
S356 N357 1.613 . S
S356 N358 1.610 . S
N357 S356 1.613 . S
N357 C360 1.350 . S
N358 S356 1.610 . S
N358 C359 1.351 . S
C359 C353 1.428 . S
C359 N358 1.351 . S
C359 C360 1.434 . S
C360 C351 1.429 . S
C360 N357 1.350 . S
C360 C359 1.434 . S
C361 C362 1.369 . S
C361 C363 1.419 . S
C361 H365 0.930 . S
C362 C361 1.369 . S
C362 C371 1.429 . S
C363 C361 1.419 . S
C363 C364 1.363 . S
C363 H366 0.929 . S
C364 C363 1.363 . S
C364 C370 1.428 . S
H365 C361 0.930 . S
H366 C363 0.929 . S
S367 N368 1.613 . S
S367 N369 1.610 . S
N368 S367 1.613 . S
N368 C371 1.350 . S
N369 S367 1.610 . S
N369 C370 1.351 . S
C370 C364 1.428 . S
C370 N369 1.351 . S
C370 C371 1.434 . S
C371 C362 1.429 . S
C371 N368 1.350 . S
C371 C370 1.434 . S
C372 C373 1.369 . S
C372 C374 1.419 . S
C372 H376 0.930 . S
C373 C372 1.369 . S
C373 C382 1.429 . S
C374 C372 1.419 . S
C374 C375 1.363 . S
C374 H377 0.929 . S
C375 C374 1.363 . S
C375 C381 1.428 . S
H376 C372 0.930 . S
H377 C374 0.929 . S
S378 N379 1.613 1_554 S
S378 N380 1.610 . S
N379 S378 1.613 1_556 S
N379 C382 1.350 1_565 S
N380 S378 1.610 . S
N380 C381 1.351 1_564 S
C381 C375 1.428 . S
C381 N380 1.351 1_546 S
C381 C382 1.434 . S
C382 C373 1.429 . S
C382 N379 1.350 1_545 S
C382 C381 1.434 . S
C383 C384 1.369 . S
C383 C385 1.419 . S
C383 H387 0.930 . S
C384 C383 1.369 . S
C384 C393 1.429 1_455 S
C385 C383 1.419 . S
C385 C386 1.363 . S
C385 H388 0.929 . S
C386 C385 1.363 . S
C386 C392 1.428 1_455 S
H387 C383 0.930 . S
H388 C385 0.929 . S
S389 N390 1.613 . S
S389 N391 1.610 . S
N390 S389 1.613 . S
N390 C393 1.350 . S
N391 S389 1.610 . S
N391 C392 1.351 . S
C392 C386 1.428 1_655 S
C392 N391 1.351 . S
C392 C393 1.434 . S
C393 C384 1.429 1_655 S
C393 N390 1.350 . S
C393 C392 1.434 . S
C394 C395 1.369 1_545 S
C394 C396 1.419 . S
C394 H398 0.930 . S
C395 C394 1.369 1_565 S
C395 C404 1.429 . S
C396 C394 1.419 . S
C396 C397 1.363 . S
C396 H399 0.929 . S
C397 C396 1.363 . S
C397 C403 1.428 1_545 S
H398 C394 0.930 . S
H399 C396 0.929 . S
S400 N401 1.613 . S
S400 N402 1.610 . S
N401 S400 1.613 . S
N401 C404 1.350 . S
N402 S400 1.610 . S
N402 C403 1.351 . S
C403 C397 1.428 1_565 S
C403 N402 1.351 . S
C403 C404 1.434 . S
C404 C395 1.429 . S
C404 N401 1.350 . S
C404 C403 1.434 . S
C405 C406 1.369 . S
C405 C407 1.419 . S
C405 H409 0.930 . S
C406 C405 1.369 . S
C406 C415 1.429 . S
C407 C405 1.419 . S
C407 C408 1.363 1_556 S
C407 H410 0.929 . S
C408 C407 1.363 1_554 S
C408 C414 1.428 1_554 S
H409 C405 0.930 . S
H410 C407 0.929 . S
S411 N412 1.613 . S
S411 N413 1.610 . S
N412 S411 1.613 . S
N412 C415 1.350 . S
N413 S411 1.610 . S
N413 C414 1.351 . S
C414 C408 1.428 1_556 S
C414 N413 1.351 . S
C414 C415 1.434 . S
C415 C406 1.429 . S
C415 N412 1.350 . S
C415 C414 1.434 . S
C416 C417 1.369 . S
C416 C418 1.419 . S
C416 H420 0.930 1_565 S
C417 C416 1.369 . S
C417 C426 1.429 1_455 S
C418 C416 1.419 . S
C418 C419 1.363 1_455 S
C418 H421 0.929 . S
C419 C418 1.363 1_655 S
C419 C425 1.428 . S
H420 C416 0.930 1_545 S
H421 C418 0.929 . S
S422 N423 1.613 . S
S422 N424 1.610 . S
N423 S422 1.613 . S
N423 C426 1.350 . S
N424 S422 1.610 . S
N424 C425 1.351 . S
C425 C419 1.428 . S
C425 N424 1.351 . S
C425 C426 1.434 . S
C426 C417 1.429 1_655 S
C426 N423 1.350 . S
C426 C425 1.434 . S
C427 C428 1.369 1_565 S
C427 C429 1.419 . S
C427 H431 0.930 . S
C428 C427 1.369 1_545 S
C428 C437 1.429 . S
C429 C427 1.419 . S
C429 C430 1.363 1_565 S
C429 H432 0.929 . S
C430 C429 1.363 1_545 S
C430 C436 1.428 . S
H431 C427 0.930 . S
H432 C429 0.929 . S
S433 N434 1.613 . S
S433 N435 1.610 . S
N434 S433 1.613 . S
N434 C437 1.350 . S
N435 S433 1.610 . S
N435 C436 1.351 . S
C436 C430 1.428 . S
C436 N435 1.351 . S
C436 C437 1.434 . S
C437 C428 1.429 . S
C437 N434 1.350 . S
C437 C436 1.434 . S
C241 C184 1.679 . S
C243 C26 1.695 . S
C252 C226 1.696 . S
C254 C64 1.680 . S
C263 C24 1.680 . S
C265 C106 1.695 . S
C274 C66 1.688 . S
C276 C144 1.687 . S
C285 C104 1.686 . S
C287 C186 1.691 . S
C296 C146 1.691 . S
C298 C224 1.683 . S
C307 C2 2.063 . S
C309 C143 2.148 . S
C318 C162 2.053 . S
C320 C63 2.151 . S
C329 C223 2.147 . S
C331 C82 2.062 . S
C340 C103 2.149 . S
C342 C202 2.054 . S
C351 C23 2.145 . S
C353 C122 2.058 . S
C362 C183 2.152 . S
C364 C42 2.056 . S
C373 C217 0.921 . S
C375 C17 0.918 1_556 S
C384 C53 1.706 1_455 S
C386 C13 1.708 . S
C395 C97 0.921 . S
C397 C57 0.918 . S
C406 C93 1.705 . S
C408 C133 1.704 . S
C417 C177 0.911 . S
C419 C137 0.914 . S
C428 C213 1.702 . S
C430 C173 1.708 1_545 S
