# Generated by pormake.
# Topology lon, (4)-cn, num edge types: 1
# Building blocks:
#     Node 0, Type 0, BuildingBlock: KUFVIS_clean_sbu_0, # of connection points: 4
#     Node 1, Type 0, BuildingBlock: KUFVIS_clean_sbu_0, # of connection points: 4
#     Node 2, Type 0, BuildingBlock: KUFVIS_clean_sbu_0, # of connection points: 4
#     Node 3, Type 0, BuildingBlock: KUFVIS_clean_sbu_0, # of connection points: 4
#     Edge 4, Type (0, 0), BuildingBlock: TEMPAE_clean_linker_10, # of connection points: 2
#     Edge 5, Type (0, 0), BuildingBlock: TEMPAE_clean_linker_10, # of connection points: 2
#     Edge 6, Type (0, 0), BuildingBlock: TEMPAE_clean_linker_10, # of connection points: 2
#     Edge 7, Type (0, 0), BuildingBlock: TEMPAE_clean_linker_10, # of connection points: 2
#     Edge 8, Type (0, 0), BuildingBlock: TEMPAE_clean_linker_10, # of connection points: 2
#     Edge 9, Type (0, 0), BuildingBlock: TEMPAE_clean_linker_10, # of connection points: 2
#     Edge 10, Type (0, 0), BuildingBlock: TEMPAE_clean_linker_10, # of connection points: 2
#     Edge 11, Type (0, 0), BuildingBlock: TEMPAE_clean_linker_10, # of connection points: 2
# Relax obj value: 0.048
# Max RMSD: 0.108
# Mean RMSD: 0.089
data_MOF--net-lon--node1-KUFVIS_clean_sbu_0--edge1-TEMPAE_clean_linker_10
_symmetry_space_group_name_H-M    P1
_symmetry_Int_Tables_number       1
_symmetry_cell_setting            triclinic
loop_
_symmetry_equiv_pos_as_xyz
'x, y, z'
_cell_length_a     24.922916
_cell_length_b     24.039106
_cell_length_c     40.662281
_cell_angle_alpha  100.41419
_cell_angle_beta   90.069564
_cell_angle_gamma 120.9804
loop_
_atom_site_label
_atom_site_type_symbol
_atom_site_fract_x
_atom_site_fract_y
_atom_site_fract_z
_atom_type_partial_charge
Mn0 Mn 0.31583 0.6858 0.08049 0.0
Mn1 Mn 0.30296 0.63924 0.99557 0.0
C2 C 0.21906 0.63388 0.04848 0.0
C3 C 0.31816 0.66764 0.1352 0.0
C4 C 0.35906 0.7816 0.03243 0.0
O5 O 0.39654 0.68537 0.07259 0.0
O6 O 0.37853 0.6473 0.01629 0.0
C7 C 0.28192 0.5046 0.98904 0.0
N8 N 0.26297 0.54522 0.98145 0.0
C9 C 0.17784 0.45545 0.94175 0.0
C10 C 0.19634 0.41254 0.94912 0.0
C11 C 0.24837 0.43716 0.97304 0.0
C12 C 0.21251 0.52189 0.95885 0.0
H13 H 0.32256 0.52365 1.00697 0.0
C14 C 0.41141 0.66585 0.04464 0.0
O15 O 0.34533 0.7268 0.12907 0.0
O16 O 0.29001 0.6184 0.10938 0.0
N17 N 0.23073 0.62893 0.97229 0.0
C18 C 0.21691 0.676 0.96967 0.0
C19 C 0.16491 0.65903 0.94762 0.0
C20 C 0.12857 0.59434 0.92803 0.0
C21 C 0.14375 0.54675 0.93121 0.0
C22 C 0.19555 0.56631 0.95392 0.0
H23 H 0.24558 0.72615 0.98416 0.0
O24 O 0.22876 0.67038 0.07824 0.0
O25 O 0.26595 0.62896 0.03831 0.0
O26 O 0.34919 0.77029 0.06191 0.0
O27 O 0.3446 0.73639 1.00629 0.0
C28 C 0.10974 0.48077 0.91266 0.0
C29 C 0.12633 0.43496 0.91817 0.0
H30 H 0.17084 0.3606 0.93666 0.0
H31 H 0.26296 0.40438 0.97886 0.0
H32 H 0.15336 0.69596 0.94537 0.0
H33 H 0.08902 0.58171 0.9107 0.0
H34 H 0.07046 0.46461 0.89423 0.0
H35 H 0.09902 0.38405 0.90423 0.0
Mn36 Mn 0.72284 0.3683 0.58382 0.0
Mn37 Mn 0.56727 0.27719 0.59134 0.0
C38 C 0.67332 0.25277 0.58048 0.0
C39 C 0.81085 0.41347 0.55326 0.0
C40 C 0.66532 0.36925 0.6506 0.0
O41 O 0.69005 0.42875 0.57379 0.0
O42 O 0.58661 0.35766 0.57548 0.0
C43 C 0.5188 0.23758 0.51932 0.0
N44 N 0.52276 0.22076 0.54906 0.0
C45 C 0.45526 0.10459 0.52483 0.0
C46 C 0.44979 0.12056 0.49394 0.0
C47 C 0.48192 0.18732 0.49116 0.0
C48 C 0.49259 0.1567 0.55193 0.0
H49 H 0.54357 0.28892 0.51717 0.0
C50 C 0.63217 0.41304 0.57079 0.0
O51 O 0.81336 0.43897 0.58456 0.0
O52 O 0.7559 0.36496 0.53878 0.0
N53 N 0.54045 0.19757 0.60706 0.0
C54 C 0.5472 0.191 0.6392 0.0
C55 C 0.51365 0.12792 0.64702 0.0
C56 C 0.47319 0.0723 0.62182 0.0
C57 C 0.46716 0.08026 0.58898 0.0
C58 C 0.5004 0.14459 0.5829 0.0
H59 H 0.57707 0.23359 0.65894 0.0
O60 O 0.73344 0.29241 0.58896 0.0
O61 O 0.64391 0.28243 0.57506 0.0
O62 O 0.71313 0.38639 0.63427 0.0
O63 O 0.60894 0.33192 0.63645 0.0
C64 C 0.43024 0.02687 0.56192 0.0
C65 C 0.42627 0.03907 0.5297 0.0
H66 H 0.42143 0.08207 0.47214 0.0
H67 H 0.47823 0.19997 0.46737 0.0
H68 H 0.51874 0.12225 0.67243 0.0
H69 H 0.44776 0.02356 0.62784 0.0
H70 H 0.40599 0.9762 0.56541 0.0
H71 H 0.4019 0.99756 0.50881 0.0
Mn72 Mn 0.36424 0.66116 0.44931 0.0
Mn73 Mn 0.28417 0.73832 0.44143 0.0
C74 C 0.42202 0.77765 0.45337 0.0
C75 C 0.4139 0.61894 0.47804 0.0
C76 C 0.30632 0.66006 0.38189 0.0
O77 O 0.27446 0.59233 0.45916 0.0
O78 O 0.23066 0.65135 0.45268 0.0
C79 C 0.2577 0.75744 0.51209 0.0
N80 N 0.27926 0.78245 0.48418 0.0
C81 C 0.27354 0.87883 0.50579 0.0
C82 C 0.25184 0.85462 0.53498 0.0
C83 C 0.24485 0.79411 0.53837 0.0
C84 C 0.28962 0.84226 0.4815 0.0
H85 H 0.24915 0.70929 0.5139 0.0
C86 C 0.22708 0.59966 0.45888 0.0
O87 O 0.39179 0.59583 0.44661 0.0
O88 O 0.40441 0.66481 0.49372 0.0
N89 N 0.32378 0.82304 0.42969 0.0
C90 C 0.34029 0.8369 0.39884 0.0
C91 C 0.35003 0.89609 0.39149 0.0
C92 C 0.33822 0.93812 0.41487 0.0
C93 C 0.31764 0.92104 0.44561 0.0
C94 C 0.31243 0.86345 0.45241 0.0
H95 H 0.34603 0.80305 0.37996 0.0
O96 O 0.44531 0.7407 0.44389 0.0
O97 O 0.36306 0.74524 0.45953 0.0
O98 O 0.3354 0.6419 0.39881 0.0
O99 O 0.28513 0.69562 0.39563 0.0
C100 C 0.29902 0.95711 0.46901 0.0
C101 C 0.2774 0.93628 0.4992 0.0
H102 H 0.23958 0.88156 0.55472 0.0
H103 H 0.22756 0.77474 0.56067 0.0
H104 H 0.36443 0.9081 0.36736 0.0
H105 H 0.34362 0.98254 0.40861 0.0
H106 H 0.30147 1.00115 0.46414 0.0
H107 H 0.26404 0.9649 0.51718 0.0
Mn108 Mn 0.64791 0.34821 0.95248 0.0
Mn109 Mn 0.68211 0.39516 0.03737 0.0
C110 C 0.60307 0.4003 0.98454 0.0
C111 C 0.66741 0.366 0.89766 0.0
C112 C 0.59599 0.25279 1.00077 0.0
O113 O 0.72912 0.34864 0.9602 0.0
O114 O 0.74905 0.38623 0.01651 0.0
C115 C 0.79534 0.52928 0.04339 0.0
N116 N 0.73616 0.48917 0.05123 0.0
C117 C 0.74137 0.57971 0.09077 0.0
C118 C 0.80239 0.62209 0.08314 0.0
C119 C 0.82932 0.59683 0.05918 0.0
C120 C 0.70949 0.51313 0.07387 0.0
H121 H 0.81657 0.50974 0.02542 0.0
C122 C 0.7634 0.36781 0.98814 0.0
O123 O 0.63603 0.30692 0.9039 0.0
O124 O 0.68854 0.41537 0.92343 0.0
N125 N 0.62084 0.4064 0.06084 0.0
C126 C 0.56028 0.35976 0.06375 0.0
C127 C 0.52577 0.37737 0.08593 0.0
C128 C 0.55431 0.44227 0.10534 0.0
C129 C 0.61671 0.48941 0.10186 0.0
C130 C 0.64845 0.4692 0.07906 0.0
H131 H 0.53868 0.30946 0.04941 0.0
O132 O 0.5762 0.36364 0.95484 0.0
O133 O 0.65497 0.40532 0.99464 0.0
O134 O 0.5976 0.26394 0.97123 0.0
O135 O 0.62656 0.29809 0.02689 0.0
C136 C 0.64881 0.55555 0.1202 0.0
C137 C 0.71084 0.60087 0.11442 0.0
H138 H 0.8289 0.67412 0.09544 0.0
H139 H 0.87639 0.6292 0.05316 0.0
H140 H 0.47757 0.34079 0.08841 0.0
H141 H 0.5278 0.45539 0.12277 0.0
H142 H 0.62609 0.57223 0.13869 0.0
H143 H 0.73454 0.6519 0.12821 0.0
C144 C 0.27876 0.59496 0.17782 0.0
C145 C 0.31779 0.65768 0.17029 0.0
C146 C 0.27498 0.5867 0.21137 0.0
C147 C 0.31142 0.64236 0.238 0.0
C148 C 0.35249 0.70526 0.23038 0.0
C149 C 0.35497 0.71215 0.19674 0.0
C150 C 0.23042 0.51889 0.21838 0.0
C151 C 0.39259 0.7659 0.25787 0.0
C152 C 0.2598 0.65366 0.32564 0.0
C153 C 0.30119 0.64481 0.34441 0.0
C154 C 0.26045 0.64947 0.29075 0.0
C155 C 0.30387 0.63654 0.27397 0.0
C156 C 0.34363 0.62422 0.29239 0.0
C157 C 0.34167 0.62825 0.32735 0.0
C158 C 0.21671 0.66227 0.27217 0.0
C159 C 0.39067 0.61037 0.27552 0.0
H160 H 0.24984 0.55259 0.15756 0.0
H161 H 0.38561 0.76074 0.19121 0.0
H162 H 0.25538 0.50548 0.23498 0.0
H163 H 0.19201 0.51957 0.23186 0.0
H164 H 0.20911 0.4798 0.19496 0.0
H165 H 0.42495 0.81028 0.2477 0.0
H166 H 0.3619 0.7773 0.27377 0.0
H167 H 0.421 0.7563 0.27442 0.0
H168 H 0.22792 0.66595 0.33841 0.0
H169 H 0.37402 0.62154 0.34153 0.0
H170 H 0.19111 0.62245 0.2494 0.0
H171 H 0.24457 0.70978 0.26371 0.0
H172 H 0.18172 0.66526 0.2881 0.0
H173 H 0.36768 0.5713 0.25223 0.0
H174 H 0.41298 0.59442 0.29229 0.0
H175 H 0.4282 0.65594 0.2681 0.0
C176 C 0.73127 0.40424 0.70589 0.0
C177 C 0.67455 0.38671 0.68811 0.0
C178 C 0.7364 0.40901 0.74094 0.0
C179 C 0.68377 0.39653 0.75874 0.0
C180 C 0.62779 0.38303 0.74124 0.0
C181 C 0.62379 0.37805 0.70625 0.0
C182 C 0.79693 0.42344 0.75855 0.0
C183 C 0.57073 0.37013 0.75916 0.0
C184 C 0.65933 0.32117 0.83612 0.0
C185 C 0.67629 0.37572 0.86251 0.0
C186 C 0.66346 0.3279 0.80246 0.0
C187 C 0.68461 0.3907 0.79474 0.0
C188 C 0.70318 0.44637 0.8213 0.0
C189 C 0.69904 0.43829 0.85489 0.0
C190 C 0.64368 0.26726 0.77504 0.0
C191 C 0.72562 0.51404 0.81418 0.0
H192 H 0.77073 0.41079 0.69221 0.0
H193 H 0.57986 0.36497 0.69289 0.0
H194 H 0.8119 0.46243 0.7818 0.0
H195 H 0.78921 0.37799 0.76613 0.0
H196 H 0.83568 0.43975 0.7422 0.0
H197 H 0.53338 0.36744 0.7428 0.0
H198 H 0.55084 0.32242 0.76749 0.0
H199 H 0.5841 0.40971 0.78197 0.0
H200 H 0.64205 0.2727 0.84172 0.0
H201 H 0.71215 0.48069 0.87509 0.0
H202 H 0.68206 0.27683 0.75884 0.0
H203 H 0.60207 0.25598 0.75875 0.0
H204 H 0.6315 0.22281 0.78527 0.0
H205 H 0.76457 0.52798 0.79806 0.0
H206 H 0.74216 0.55307 0.83759 0.0
H207 H 0.68669 0.51281 0.80014 0.0
C208 C 0.47864 0.63422 0.07178 0.0
C209 C 0.46315 0.653 0.04435 0.0
C210 C 0.51087 0.60019 0.06765 0.0
C211 C 0.52774 0.58511 0.03547 0.0
C212 C 0.51798 0.61035 1.00872 0.0
C213 C 0.48669 0.64493 1.01369 0.0
C214 C 0.52417 0.57787 0.09727 0.0
C215 C 0.53457 0.59504 0.97385 0.0
C216 C 0.62953 0.51299 1.01301 0.0
C217 C 0.58396 0.44565 1.00147 0.0
C218 C 0.61237 0.55848 0.02704 0.0
C219 C 0.5479 0.53634 0.02801 0.0
C220 C 0.50167 0.468 0.0168 0.0
C221 C 0.52037 0.42336 1.00355 0.0
C222 C 0.66288 0.63052 0.03953 0.0
C223 C 0.43228 0.44264 0.01719 0.0
H224 H 0.46126 0.64122 0.09566 0.0
H225 H 0.47583 0.66068 0.99257 0.0
H226 H 0.57555 0.60775 0.10505 0.0
H227 H 0.49986 0.5847 0.11911 0.0
H228 H 0.50972 0.52493 0.09031 0.0
H229 H 0.52809 0.62256 0.95658 0.0
H230 H 0.58408 0.60754 0.97485 0.0
H231 H 0.50411 0.54106 0.96301 0.0
H232 H 0.67863 0.53041 1.01027 0.0
H233 H 0.48532 0.37129 0.99421 0.0
H234 H 0.65693 0.64802 0.06566 0.0
H235 H 0.65848 0.66147 0.02381 0.0
H236 H 0.711 0.63885 0.03899 0.0
H237 H 0.42261 0.45773 0.04284 0.0
H238 H 0.40268 0.38772 1.00923 0.0
H239 H 0.41795 0.46491 1.00003 0.0
C240 C 0.15589 0.52066 0.49486 0.0
C241 C 0.16379 0.54987 0.46695 0.0
C242 C 0.09678 0.48988 0.50772 0.0
C243 C 0.04492 0.48944 0.49266 0.0
C244 C 0.052 0.51489 0.46315 0.0
C245 C 0.11071 0.54378 0.45055 0.0
C246 C 0.0909 0.46144 0.53859 0.0
C247 C 0.99902 0.51673 0.4463 0.0
C248 C 0.87425 0.38733 0.51212 0.0
C249 C 0.86952 0.4336 0.53654 0.0
C250 C 0.93159 0.4037 0.49871 0.0
C251 C 0.98523 0.46861 0.5091 0.0
C252 C 0.98028 0.51569 0.53345 0.0
C253 C 0.92301 0.49731 0.54723 0.0
C254 C 0.93493 0.35133 0.47361 0.0
C255 C 0.03532 0.58604 0.54461 0.0
H256 H 0.19654 0.52564 0.50795 0.0
H257 H 0.11623 0.56602 0.42887 0.0
H258 H 0.08997 0.49535 0.56074 0.0
H259 H 0.0462 0.41278 0.5357 0.0
H260 H 0.13091 0.45494 0.54374 0.0
H261 H 1.01069 0.53404 0.42228 0.0
H262 H 0.95543 0.46689 0.44107 0.0
H263 H 0.98869 0.55078 0.46342 0.0
H264 H 0.83357 0.33751 0.50426 0.0
H265 H 0.91991 0.53318 0.56624 0.0
H266 H 0.97435 0.34653 0.48222 0.0
H267 H 0.94461 0.3662 0.44898 0.0
H268 H 0.89058 0.30206 0.46984 0.0
H269 H 0.07617 0.58603 0.55544 0.0
H270 H 0.02397 0.61674 0.56367 0.0
H271 H 0.05 0.60981 0.52259 0.0
C272 C 0.5015 0.13763 0.98515 0.0
C273 C 0.55832 0.18382 1.00536 0.0
C274 C 0.46537 0.07224 0.98995 0.0
C275 C 0.48777 0.05239 1.01481 0.0
C276 C 0.54539 0.09887 0.03507 0.0
C277 C 0.57949 0.16426 0.03042 0.0
C278 C 0.40336 0.02441 0.96845 0.0
C279 C 0.57183 0.07916 0.06114 0.0
C280 C 0.37987 0.89715 0.04785 0.0
C281 C 0.39077 0.8507 0.02796 0.0
C282 C 0.40961 0.96267 0.04313 0.0
C283 C 0.45261 0.98233 0.01872 0.0
C284 C 0.46409 0.93559 0.99882 0.0
C285 C 0.43231 0.8701 1.00335 0.0
C286 C 0.39507 1.01081 0.06421 0.0
C287 C 0.51102 0.95507 0.97325 0.0
H288 H 0.48485 0.15296 0.96599 0.0
H289 H 0.62371 0.19986 0.0459 0.0
H290 H 0.40561 0.98312 0.9526 0.0
H291 H 0.36518 1.00222 0.98468 0.0
H292 H 0.39076 0.04875 0.95176 0.0
H293 H 0.61741 0.12134 0.07474 0.0
H294 H 0.53797 0.05971 0.07979 0.0
H295 H 0.57909 0.03875 0.04886 0.0
H296 H 0.34729 0.88193 0.06667 0.0
H297 H 0.44118 0.83429 0.98815 0.0
H298 H 0.37965 0.03318 0.04767 0.0
H299 H 0.43815 0.05193 0.0803 0.0
H300 H 0.35774 0.98667 0.08063 0.0
H301 H 0.49733 0.97465 0.95428 0.0
H302 H 0.51476 0.91274 0.95998 0.0
H303 H 0.55823 0.99532 0.98589 0.0
C304 C 0.64556 0.50414 0.54128 0.0
C305 C 0.61291 0.45873 0.56186 0.0
C306 C 0.61974 0.53825 0.52918 0.0
C307 C 0.55988 0.52651 0.5377 0.0
C308 C 0.52872 0.48341 0.55986 0.0
C309 C 0.55559 0.45081 0.5717 0.0
C310 C 0.65523 0.58468 0.50611 0.0
C311 C 0.46494 0.4686 0.56972 0.0
C312 C 0.49156 0.6331 0.52399 0.0
C313 C 0.45134 0.5961 0.49395 0.0
C314 C 0.52944 0.61299 0.53774 0.0
C315 C 0.52645 0.55378 0.52147 0.0
C316 C 0.486 0.51654 0.4911 0.0
C317 C 0.44959 0.53831 0.47768 0.0
C318 C 0.57231 0.65481 0.56987 0.0
C319 C 0.47987 0.45248 0.4731 0.0
H320 H 0.6897 0.51084 0.53346 0.0
H321 H 0.53011 0.41684 0.58805 0.0
H322 H 0.63061 0.56196 0.4802 0.0
H323 H 0.65655 0.63205 0.51415 0.0
H324 H 0.70425 0.59561 0.50549 0.0
H325 H 0.44854 0.43702 0.58872 0.0
H326 H 0.46637 0.51535 0.58007 0.0
H327 H 0.42971 0.44257 0.54712 0.0
H328 H 0.49411 0.67833 0.53654 0.0
H329 H 0.41899 0.50936 0.45442 0.0
H330 H 0.62086 0.66602 0.56662 0.0
H331 H 0.55605 0.6269 0.59035 0.0
H332 H 0.5737 0.70228 0.57784 0.0
H333 H 0.52683 0.46099 0.46771 0.0
H334 H 0.4485 0.4307 0.44903 0.0
H335 H 0.46059 0.41572 0.48947 0.0
C336 C 0.11329 0.61073 0.02955 0.0
C337 C 0.15483 0.58851 0.03157 0.0
C338 C 0.05021 0.56605 0.01628 0.0
C339 C 0.0286 0.49774 1.00499 0.0
C340 C 0.07117 0.47568 1.00592 0.0
C341 C 0.13355 0.5212 0.01997 0.0
C342 C 1.00595 0.59134 1.01588 0.0
C343 C 0.05016 0.40369 0.99333 0.0
C344 C 0.85954 0.38861 0.01908 0.0
C345 C 0.82791 0.38064 0.98842 0.0
C346 C 0.9252 0.42338 0.02412 0.0
C347 C 0.95999 0.4489 0.99745 0.0
C348 C 0.92809 0.43393 0.96525 0.0
C349 C 0.86204 0.3997 0.96105 0.0
C350 C 0.95702 0.43857 0.05901 0.0
C351 C 0.96348 0.45638 0.93567 0.0
H352 H 0.12992 0.66278 0.03892 0.0
H353 H 0.16539 0.50381 0.02265 0.0
H354 H 0.98137 0.57643 0.9902 0.0
H355 H 0.96944 0.56884 0.03295 0.0
H356 H 0.03083 0.64624 0.02397 0.0
H357 H 0.09004 0.3954 0.99388 0.0
H358 H 1.01502 0.37259 1.00896 0.0
H359 H 0.02687 0.38635 0.96717 0.0
H360 H 0.83307 0.37266 0.04015 0.0
H361 H 0.83766 0.39276 0.93717 0.0
H362 H 0.9801 0.49251 0.06991 0.0
H363 H 0.99419 0.42617 0.058 0.0
H364 H 0.92325 0.41089 0.07622 0.0
H365 H 0.9325 0.45079 0.91407 0.0
H366 H 0.98403 0.42555 0.92741 0.0
H367 H 1.00242 0.50895 0.94279 0.0
C368 C 0.6621 0.17068 0.52961 0.0
C369 C 0.64965 0.18311 0.56286 0.0
C370 C 0.63921 0.10555 0.51146 0.0
C371 C 0.59804 0.05067 0.52583 0.0
C372 C 0.59129 0.06359 0.56074 0.0
C373 C 0.61888 0.12975 0.57895 0.0
C374 C 0.65955 0.09703 0.47693 0.0
C375 C 0.5552 1.0081 0.57921 0.0
C376 C 0.46828 0.90167 0.46189 0.0
C377 C 0.46789 0.84808 0.47066 0.0
C378 C 0.5109 0.96753 0.47866 0.0
C379 C 0.55793 0.98153 0.50422 0.0
C380 C 0.56377 0.92787 0.50945 0.0
C381 C 0.51753 0.86213 0.49373 0.0
C382 C 0.50641 0.0209 0.46662 0.0
C383 C 0.62049 0.93838 0.52942 0.0
H384 H 0.69023 0.21219 0.5177 0.0
H385 H 0.61468 0.13958 0.60554 0.0
H386 H 0.64347 0.04469 0.46542 0.0
H387 H 0.64191 0.11718 0.46014 0.0
H388 H 0.71177 0.12681 0.47861 0.0
H389 H 0.50942 0.96882 0.56465 0.0
H390 H 0.58306 0.98559 0.58326 0.0
H391 H 0.54706 0.02604 0.60462 0.0
H392 H 0.43764 0.89325 0.44082 0.0
H393 H 0.52136 0.82154 0.49896 0.0
H394 H 0.5318 0.03155 0.44402 0.0
H395 H 0.52653 0.0675 0.48575 0.0
H396 H 0.45678 1.00348 0.4586 0.0
H397 H 0.64418 0.91783 0.51273 0.0
H398 H 0.60516 0.90995 0.54976 0.0
H399 H 0.65558 0.99132 0.54028 0.0
loop_
_geom_bond_atom_site_label_1
_geom_bond_atom_site_label_2
_geom_bond_distance
_geom_bond_site_symmetry_2
_ccdc_geom_bond_type
Mn0 O5 2.095 . S
Mn0 O15 2.162 . S
Mn0 O16 2.297 . S
Mn0 O24 2.385 . S
Mn0 O25 2.209 . S
Mn0 O26 2.094 . S
Mn1 O6 2.121 1_556 S
Mn1 N8 2.257 . S
Mn1 N17 2.282 . S
Mn1 O25 2.215 1_556 S
Mn1 O27 2.117 1_556 S
C2 O24 1.234 . S
C2 O25 1.283 . S
C3 O15 1.281 . S
C3 O16 1.236 . S
C4 O26 1.240 . S
C4 O27 1.264 . S
O5 Mn0 2.095 . S
O5 C14 1.250 . S
O6 Mn1 2.121 1_554 S
O6 C14 1.258 . S
C7 N8 1.326 . S
C7 C11 1.460 . S
C7 H13 0.929 . S
N8 Mn1 2.257 . S
N8 C7 1.326 . S
N8 C12 1.362 . S
C9 C10 1.258 . S
C9 C12 1.431 . S
C9 C29 1.449 . S
C10 C9 1.258 . S
C10 C11 1.477 . S
C10 H30 0.931 . S
C11 C7 1.460 . S
C11 C10 1.477 . S
C11 H31 0.930 . S
C12 N8 1.362 . S
C12 C9 1.431 . S
C12 C22 1.476 . S
H13 C7 0.929 . S
C14 O5 1.250 . S
C14 O6 1.258 . S
O15 Mn0 2.162 . S
O15 C3 1.281 . S
O16 Mn0 2.297 . S
O16 C3 1.236 . S
N17 Mn1 2.282 . S
N17 C18 1.328 . S
N17 C22 1.318 . S
C18 N17 1.328 . S
C18 C19 1.457 . S
C18 H23 0.929 . S
C19 C18 1.457 . S
C19 C20 1.291 . S
C19 H32 0.931 . S
C20 C19 1.291 . S
C20 C21 1.373 . S
C20 H33 0.929 . S
C21 C20 1.373 . S
C21 C22 1.396 . S
C21 C28 1.403 . S
C22 C12 1.476 . S
C22 N17 1.318 . S
C22 C21 1.396 . S
H23 C18 0.929 . S
O24 Mn0 2.385 . S
O24 C2 1.234 . S
O25 Mn0 2.209 . S
O25 Mn1 2.215 1_554 S
O25 C2 1.283 . S
O26 Mn0 2.094 . S
O26 C4 1.240 . S
O27 Mn1 2.117 1_554 S
O27 C4 1.264 . S
C28 C21 1.403 . S
C28 C29 1.399 . S
C28 H34 0.929 . S
C29 C9 1.449 . S
C29 C28 1.399 . S
C29 H35 0.930 . S
H30 C10 0.931 . S
H31 C11 0.930 . S
H32 C19 0.931 . S
H33 C20 0.929 . S
H34 C28 0.929 . S
H35 C29 0.930 . S
Mn36 O41 2.095 . S
Mn36 O51 2.162 . S
Mn36 O52 2.297 . S
Mn36 O60 2.385 . S
Mn36 O61 2.209 . S
Mn36 O62 2.094 . S
Mn37 O42 2.121 . S
Mn37 N44 2.257 . S
Mn37 N53 2.282 . S
Mn37 O61 2.215 . S
Mn37 O63 2.117 . S
C38 O60 1.234 . S
C38 O61 1.283 . S
C39 O51 1.281 . S
C39 O52 1.236 . S
C40 O62 1.240 . S
C40 O63 1.264 . S
O41 Mn36 2.095 . S
O41 C50 1.250 . S
O42 Mn37 2.121 . S
O42 C50 1.258 . S
C43 N44 1.326 . S
C43 C47 1.460 . S
C43 H49 0.929 . S
N44 Mn37 2.257 . S
N44 C43 1.326 . S
N44 C48 1.362 . S
C45 C46 1.258 . S
C45 C48 1.431 . S
C45 C65 1.449 . S
C46 C45 1.258 . S
C46 C47 1.477 . S
C46 H66 0.931 . S
C47 C43 1.460 . S
C47 C46 1.477 . S
C47 H67 0.930 . S
C48 N44 1.362 . S
C48 C45 1.431 . S
C48 C58 1.476 . S
H49 C43 0.929 . S
C50 O41 1.250 . S
C50 O42 1.258 . S
O51 Mn36 2.162 . S
O51 C39 1.281 . S
O52 Mn36 2.297 . S
O52 C39 1.236 . S
N53 Mn37 2.282 . S
N53 C54 1.328 . S
N53 C58 1.318 . S
C54 N53 1.328 . S
C54 C55 1.457 . S
C54 H59 0.929 . S
C55 C54 1.457 . S
C55 C56 1.291 . S
C55 H68 0.931 . S
C56 C55 1.291 . S
C56 C57 1.373 . S
C56 H69 0.929 . S
C57 C56 1.373 . S
C57 C58 1.396 . S
C57 C64 1.403 . S
C58 C48 1.476 . S
C58 N53 1.318 . S
C58 C57 1.396 . S
H59 C54 0.929 . S
O60 Mn36 2.385 . S
O60 C38 1.234 . S
O61 Mn36 2.209 . S
O61 Mn37 2.215 . S
O61 C38 1.283 . S
O62 Mn36 2.094 . S
O62 C40 1.240 . S
O63 Mn37 2.117 . S
O63 C40 1.264 . S
C64 C57 1.403 . S
C64 C65 1.399 . S
C64 H70 0.929 1_545 S
C65 C45 1.449 . S
C65 C64 1.399 . S
C65 H71 0.930 1_545 S
H66 C46 0.931 . S
H67 C47 0.930 . S
H68 C55 0.931 . S
H69 C56 0.929 . S
H70 C64 0.929 1_565 S
H71 C65 0.930 1_565 S
Mn72 O77 2.095 . S
Mn72 O87 2.162 . S
Mn72 O88 2.297 . S
Mn72 O96 2.385 . S
Mn72 O97 2.209 . S
Mn72 O98 2.094 . S
Mn73 O78 2.121 . S
Mn73 N80 2.257 . S
Mn73 N89 2.282 . S
Mn73 O97 2.215 . S
Mn73 O99 2.117 . S
C74 O96 1.234 . S
C74 O97 1.283 . S
C75 O87 1.281 . S
C75 O88 1.236 . S
C76 O98 1.240 . S
C76 O99 1.264 . S
O77 Mn72 2.095 . S
O77 C86 1.250 . S
O78 Mn73 2.121 . S
O78 C86 1.258 . S
C79 N80 1.326 . S
C79 C83 1.460 . S
C79 H85 0.929 . S
N80 Mn73 2.257 . S
N80 C79 1.326 . S
N80 C84 1.362 . S
C81 C82 1.258 . S
C81 C84 1.431 . S
C81 C101 1.449 . S
C82 C81 1.258 . S
C82 C83 1.477 . S
C82 H102 0.931 . S
C83 C79 1.460 . S
C83 C82 1.477 . S
C83 H103 0.930 . S
C84 N80 1.362 . S
C84 C81 1.431 . S
C84 C94 1.476 . S
H85 C79 0.929 . S
C86 O77 1.250 . S
C86 O78 1.258 . S
O87 Mn72 2.162 . S
O87 C75 1.281 . S
O88 Mn72 2.297 . S
O88 C75 1.236 . S
N89 Mn73 2.282 . S
N89 C90 1.328 . S
N89 C94 1.318 . S
C90 N89 1.328 . S
C90 C91 1.457 . S
C90 H95 0.929 . S
C91 C90 1.457 . S
C91 C92 1.291 . S
C91 H104 0.931 . S
C92 C91 1.291 . S
C92 C93 1.373 . S
C92 H105 0.929 . S
C93 C92 1.373 . S
C93 C94 1.396 . S
C93 C100 1.403 . S
C94 C84 1.476 . S
C94 N89 1.318 . S
C94 C93 1.396 . S
H95 C90 0.929 . S
O96 Mn72 2.385 . S
O96 C74 1.234 . S
O97 Mn72 2.209 . S
O97 Mn73 2.215 . S
O97 C74 1.283 . S
O98 Mn72 2.094 . S
O98 C76 1.240 . S
O99 Mn73 2.117 . S
O99 C76 1.264 . S
C100 C93 1.403 . S
C100 C101 1.399 . S
C100 H106 0.929 1_565 S
C101 C81 1.449 . S
C101 C100 1.399 . S
C101 H107 0.930 1_565 S
H102 C82 0.931 . S
H103 C83 0.930 . S
H104 C91 0.931 . S
H105 C92 0.929 . S
H106 C100 0.929 1_545 S
H107 C101 0.930 1_545 S
Mn108 O113 2.095 . S
Mn108 O123 2.162 . S
Mn108 O124 2.297 . S
Mn108 O132 2.385 . S
Mn108 O133 2.209 . S
Mn108 O134 2.094 . S
Mn109 O114 2.121 1_554 S
Mn109 N116 2.257 . S
Mn109 N125 2.282 . S
Mn109 O133 2.215 1_554 S
Mn109 O135 2.117 1_554 S
C110 O132 1.234 . S
C110 O133 1.283 . S
C111 O123 1.281 . S
C111 O124 1.236 . S
C112 O134 1.240 . S
C112 O135 1.264 . S
O113 Mn108 2.095 . S
O113 C122 1.250 . S
O114 Mn109 2.121 1_556 S
O114 C122 1.258 . S
C115 N116 1.326 . S
C115 C119 1.460 . S
C115 H121 0.929 . S
N116 Mn109 2.257 . S
N116 C115 1.326 . S
N116 C120 1.362 . S
C117 C118 1.258 . S
C117 C120 1.431 . S
C117 C137 1.449 . S
C118 C117 1.258 . S
C118 C119 1.477 . S
C118 H138 0.931 . S
C119 C115 1.460 . S
C119 C118 1.477 . S
C119 H139 0.930 . S
C120 N116 1.362 . S
C120 C117 1.431 . S
C120 C130 1.476 . S
H121 C115 0.929 . S
C122 O113 1.250 . S
C122 O114 1.258 . S
O123 Mn108 2.162 . S
O123 C111 1.281 . S
O124 Mn108 2.297 . S
O124 C111 1.236 . S
N125 Mn109 2.282 . S
N125 C126 1.328 . S
N125 C130 1.318 . S
C126 N125 1.328 . S
C126 C127 1.457 . S
C126 H131 0.929 . S
C127 C126 1.457 . S
C127 C128 1.291 . S
C127 H140 0.931 . S
C128 C127 1.291 . S
C128 C129 1.373 . S
C128 H141 0.929 . S
C129 C128 1.373 . S
C129 C130 1.396 . S
C129 C136 1.403 . S
C130 C120 1.476 . S
C130 N125 1.318 . S
C130 C129 1.396 . S
H131 C126 0.929 . S
O132 Mn108 2.385 . S
O132 C110 1.234 . S
O133 Mn108 2.209 . S
O133 Mn109 2.215 1_556 S
O133 C110 1.283 . S
O134 Mn108 2.094 . S
O134 C112 1.240 . S
O135 Mn109 2.117 1_556 S
O135 C112 1.264 . S
C136 C129 1.403 . S
C136 C137 1.399 . S
C136 H142 0.929 . S
C137 C117 1.449 . S
C137 C136 1.399 . S
C137 H143 0.930 . S
H138 C118 0.931 . S
H139 C119 0.930 . S
H140 C127 0.931 . S
H141 C128 0.929 . S
H142 C136 0.929 . S
H143 C137 0.930 . S
C144 C145 1.391 . S
C144 C146 1.394 . S
C144 H160 0.931 . S
C145 C144 1.391 . S
C145 C149 1.376 . S
C146 C144 1.394 . S
C146 C147 1.369 . S
C146 C150 1.531 . S
C147 C146 1.369 . S
C147 C148 1.410 . S
C147 C155 1.503 . S
C148 C147 1.410 . S
C148 C149 1.392 . S
C148 C151 1.511 . S
C149 C145 1.376 . S
C149 C148 1.392 . S
C149 H161 0.929 . S
C150 C146 1.531 . S
C150 H162 0.960 . S
C150 H163 0.962 . S
C150 H164 0.960 . S
C151 C148 1.511 . S
C151 H165 0.961 . S
C151 H166 0.961 . S
C151 H167 0.961 . S
C152 C153 1.370 . S
C152 C154 1.363 . S
C152 H168 0.931 . S
C153 C152 1.370 . S
C153 C157 1.408 . S
C154 C152 1.363 . S
C154 C155 1.370 . S
C154 C158 1.524 . S
C155 C147 1.503 . S
C155 C154 1.370 . S
C155 C156 1.403 . S
C156 C155 1.403 . S
C156 C157 1.404 . S
C156 C159 1.539 . S
C157 C153 1.408 . S
C157 C156 1.404 . S
C157 H169 0.930 . S
C158 C154 1.524 . S
C158 H170 0.956 . S
C158 H171 0.961 . S
C158 H172 0.961 . S
C159 C156 1.539 . S
C159 H173 0.958 . S
C159 H174 0.961 . S
C159 H175 0.960 . S
H160 C144 0.931 . S
H161 C149 0.929 . S
H162 C150 0.960 . S
H163 C150 0.962 . S
H164 C150 0.960 . S
H165 C151 0.961 . S
H166 C151 0.961 . S
H167 C151 0.961 . S
H168 C152 0.931 . S
H169 C157 0.930 . S
H170 C158 0.956 . S
H171 C158 0.961 . S
H172 C158 0.961 . S
H173 C159 0.958 . S
H174 C159 0.961 . S
H175 C159 0.960 . S
C176 C177 1.391 . S
C176 C178 1.394 . S
C176 H192 0.931 . S
C177 C176 1.391 . S
C177 C181 1.376 . S
C178 C176 1.394 . S
C178 C179 1.369 . S
C178 C182 1.531 . S
C179 C178 1.369 . S
C179 C180 1.410 . S
C179 C187 1.503 . S
C180 C179 1.410 . S
C180 C181 1.392 . S
C180 C183 1.511 . S
C181 C177 1.376 . S
C181 C180 1.392 . S
C181 H193 0.929 . S
C182 C178 1.531 . S
C182 H194 0.960 . S
C182 H195 0.962 . S
C182 H196 0.960 . S
C183 C180 1.511 . S
C183 H197 0.961 . S
C183 H198 0.961 . S
C183 H199 0.961 . S
C184 C185 1.370 . S
C184 C186 1.363 . S
C184 H200 0.931 . S
C185 C184 1.370 . S
C185 C189 1.408 . S
C186 C184 1.363 . S
C186 C187 1.370 . S
C186 C190 1.524 . S
C187 C179 1.503 . S
C187 C186 1.370 . S
C187 C188 1.403 . S
C188 C187 1.403 . S
C188 C189 1.404 . S
C188 C191 1.539 . S
C189 C185 1.408 . S
C189 C188 1.404 . S
C189 H201 0.930 . S
C190 C186 1.524 . S
C190 H202 0.956 . S
C190 H203 0.961 . S
C190 H204 0.961 . S
C191 C188 1.539 . S
C191 H205 0.958 . S
C191 H206 0.961 . S
C191 H207 0.960 . S
H192 C176 0.931 . S
H193 C181 0.929 . S
H194 C182 0.960 . S
H195 C182 0.962 . S
H196 C182 0.960 . S
H197 C183 0.961 . S
H198 C183 0.961 . S
H199 C183 0.961 . S
H200 C184 0.931 . S
H201 C189 0.930 . S
H202 C190 0.956 . S
H203 C190 0.961 . S
H204 C190 0.961 . S
H205 C191 0.958 . S
H206 C191 0.961 . S
H207 C191 0.960 . S
C208 C209 1.391 . S
C208 C210 1.394 . S
C208 H224 0.931 . S
C209 C208 1.391 . S
C209 C213 1.376 . S
C210 C208 1.394 . S
C210 C211 1.369 . S
C210 C214 1.531 . S
C211 C210 1.369 . S
C211 C212 1.410 . S
C211 C219 1.503 1_554 S
C212 C211 1.410 . S
C212 C213 1.392 . S
C212 C215 1.511 1_554 S
C213 C209 1.376 . S
C213 C212 1.392 . S
C213 H225 0.929 . S
C214 C210 1.531 . S
C214 H226 0.960 . S
C214 H227 0.962 . S
C214 H228 0.960 . S
C215 C212 1.511 1_556 S
C215 H229 0.961 . S
C215 H230 0.961 . S
C215 H231 0.946 1_556 S
C216 C217 1.370 . S
C216 C218 1.363 . S
C216 H232 0.931 . S
C217 C216 1.370 . S
C217 C221 1.408 . S
C218 C216 1.363 . S
C218 C219 1.370 . S
C218 C222 1.524 . S
C219 C211 1.503 1_556 S
C219 C218 1.370 . S
C219 C220 1.403 1_556 S
C220 C219 1.403 1_554 S
C220 C221 1.404 1_554 S
C220 C223 1.539 . S
C221 C217 1.408 . S
C221 C220 1.404 1_556 S
C221 H233 0.930 1_556 S
C222 C218 1.524 . S
C222 H234 0.956 . S
C222 H235 0.961 . S
C222 H236 0.961 . S
C223 C220 1.539 . S
C223 H237 0.958 . S
C223 H238 0.961 . S
C223 H239 0.960 . S
H224 C208 0.931 . S
H225 C213 0.929 . S
H226 C214 0.960 . S
H227 C214 0.962 . S
H228 C214 0.960 . S
H229 C215 0.961 . S
H230 C215 0.961 . S
H231 C215 0.946 1_554 S
H232 C216 0.931 . S
H233 C221 0.930 1_554 S
H234 C222 0.956 . S
H235 C222 0.961 . S
H236 C222 0.961 . S
H237 C223 0.958 . S
H238 C223 0.961 . S
H239 C223 0.960 . S
C240 C241 1.391 . S
C240 C242 1.394 . S
C240 H256 0.931 . S
C241 C240 1.391 . S
C241 C245 1.376 . S
C242 C240 1.394 . S
C242 C243 1.369 . S
C242 C246 1.531 . S
C243 C242 1.369 . S
C243 C244 1.410 . S
C243 C251 1.503 . S
C244 C243 1.410 . S
C244 C245 1.392 . S
C244 C247 1.511 . S
C245 C241 1.376 . S
C245 C244 1.392 . S
C245 H257 0.929 . S
C246 C242 1.531 . S
C246 H258 0.960 . S
C246 H259 0.962 . S
C246 H260 0.960 . S
C247 C244 1.511 . S
C247 H261 0.961 . S
C247 H262 0.961 1_455 S
C247 H263 0.961 . S
C248 C249 1.370 . S
C248 C250 1.363 . S
C248 H264 0.931 . S
C249 C248 1.370 . S
C249 C253 1.408 . S
C250 C248 1.363 . S
C250 C251 1.370 1_655 S
C250 C254 1.524 1_655 S
C251 C243 1.503 . S
C251 C250 1.370 1_455 S
C251 C252 1.403 1_455 S
C252 C251 1.403 1_655 S
C252 C253 1.404 . S
C252 C255 1.539 1_655 S
C253 C249 1.408 . S
C253 C252 1.404 . S
C253 H265 0.930 . S
C254 C250 1.524 1_455 S
C254 H266 0.956 . S
C254 H267 0.961 . S
C254 H268 0.961 1_455 S
C255 C252 1.539 1_455 S
C255 H269 0.958 . S
C255 H270 0.961 1_455 S
C255 H271 0.960 . S
H256 C240 0.931 . S
H257 C245 0.929 . S
H258 C246 0.960 . S
H259 C246 0.962 . S
H260 C246 0.960 . S
H261 C247 0.961 . S
H262 C247 0.961 1_655 S
H263 C247 0.961 . S
H264 C248 0.931 . S
H265 C253 0.930 . S
H266 C254 0.956 . S
H267 C254 0.961 . S
H268 C254 0.961 1_655 S
H269 C255 0.958 . S
H270 C255 0.961 1_655 S
H271 C255 0.960 . S
C272 C273 1.391 . S
C272 C274 1.394 . S
C272 H288 0.931 . S
C273 C272 1.391 . S
C273 C277 1.376 1_556 S
C274 C272 1.394 . S
C274 C275 1.369 . S
C274 C278 1.531 1_545 S
C275 C274 1.369 . S
C275 C276 1.410 1_556 S
C275 C283 1.503 1_546 S
C276 C275 1.410 1_554 S
C276 C277 1.392 . S
C276 C279 1.511 . S
C277 C273 1.376 1_554 S
C277 C276 1.392 . S
C277 H289 0.929 . S
C278 C274 1.531 1_565 S
C278 H290 0.960 . S
C278 H291 0.962 . S
C278 H292 0.960 . S
C279 C276 1.511 . S
C279 H293 0.961 . S
C279 H294 0.961 . S
C279 H295 0.961 . S
C280 C281 1.370 . S
C280 C282 1.363 . S
C280 H296 0.931 . S
C281 C280 1.370 . S
C281 C285 1.408 . S
C282 C280 1.363 . S
C282 C283 1.370 . S
C282 C286 1.524 1_565 S
C283 C275 1.503 1_564 S
C283 C282 1.370 . S
C283 C284 1.403 1_554 S
C284 C283 1.403 1_556 S
C284 C285 1.404 1_556 S
C284 C287 1.539 . S
C285 C281 1.408 . S
C285 C284 1.404 1_554 S
C285 H297 0.930 . S
C286 C282 1.524 1_545 S
C286 H298 0.956 . S
C286 H299 0.961 . S
C286 H300 0.961 1_545 S
C287 C284 1.539 . S
C287 H301 0.958 . S
C287 H302 0.961 . S
C287 H303 0.960 . S
H288 C272 0.931 . S
H289 C277 0.929 . S
H290 C278 0.960 . S
H291 C278 0.962 . S
H292 C278 0.960 . S
H293 C279 0.961 . S
H294 C279 0.961 . S
H295 C279 0.961 . S
H296 C280 0.931 . S
H297 C285 0.930 . S
H298 C286 0.956 . S
H299 C286 0.961 . S
H300 C286 0.961 1_565 S
H301 C287 0.958 . S
H302 C287 0.961 . S
H303 C287 0.960 . S
C304 C305 1.391 . S
C304 C306 1.394 . S
C304 H320 0.931 . S
C305 C304 1.391 . S
C305 C309 1.376 . S
C306 C304 1.394 . S
C306 C307 1.369 . S
C306 C310 1.531 . S
C307 C306 1.369 . S
C307 C308 1.410 . S
C307 C315 1.503 . S
C308 C307 1.410 . S
C308 C309 1.392 . S
C308 C311 1.511 . S
C309 C305 1.376 . S
C309 C308 1.392 . S
C309 H321 0.929 . S
C310 C306 1.531 . S
C310 H322 0.960 . S
C310 H323 0.962 . S
C310 H324 0.960 . S
C311 C308 1.511 . S
C311 H325 0.961 . S
C311 H326 0.961 . S
C311 H327 0.961 . S
C312 C313 1.370 . S
C312 C314 1.363 . S
C312 H328 0.931 . S
C313 C312 1.370 . S
C313 C317 1.408 . S
C314 C312 1.363 . S
C314 C315 1.370 . S
C314 C318 1.524 . S
C315 C307 1.503 . S
C315 C314 1.370 . S
C315 C316 1.403 . S
C316 C315 1.403 . S
C316 C317 1.404 . S
C316 C319 1.539 . S
C317 C313 1.408 . S
C317 C316 1.404 . S
C317 H329 0.930 . S
C318 C314 1.524 . S
C318 H330 0.956 . S
C318 H331 0.961 . S
C318 H332 0.961 . S
C319 C316 1.539 . S
C319 H333 0.958 . S
C319 H334 0.961 . S
C319 H335 0.960 . S
H320 C304 0.931 . S
H321 C309 0.929 . S
H322 C310 0.960 . S
H323 C310 0.962 . S
H324 C310 0.960 . S
H325 C311 0.961 . S
H326 C311 0.961 . S
H327 C311 0.961 . S
H328 C312 0.931 . S
H329 C317 0.930 . S
H330 C318 0.956 . S
H331 C318 0.961 . S
H332 C318 0.961 . S
H333 C319 0.958 . S
H334 C319 0.961 . S
H335 C319 0.960 . S
C336 C337 1.391 . S
C336 C338 1.394 . S
C336 H352 0.931 . S
C337 C336 1.391 . S
C337 C341 1.376 . S
C338 C336 1.394 . S
C338 C339 1.369 . S
C338 C342 1.531 1_455 S
C339 C338 1.369 . S
C339 C340 1.410 1_554 S
C339 C347 1.503 1_454 S
C340 C339 1.410 1_556 S
C340 C341 1.392 1_556 S
C340 C343 1.511 . S
C341 C337 1.376 . S
C341 C340 1.392 1_554 S
C341 H353 0.929 1_554 S
C342 C338 1.531 1_655 S
C342 H354 0.960 . S
C342 H355 0.962 . S
C342 H356 0.960 1_655 S
C343 C340 1.511 . S
C343 H357 0.961 . S
C343 H358 0.961 1_455 S
C343 H359 0.961 . S
C344 C345 1.370 . S
C344 C346 1.363 1_556 S
C344 H360 0.931 . S
C345 C344 1.370 . S
C345 C349 1.408 . S
C346 C344 1.363 1_554 S
C346 C347 1.370 1_554 S
C346 C350 1.524 . S
C347 C339 1.503 1_656 S
C347 C346 1.370 1_556 S
C347 C348 1.403 . S
C348 C347 1.403 . S
C348 C349 1.404 . S
C348 C351 1.539 . S
C349 C345 1.408 . S
C349 C348 1.404 . S
C349 H361 0.930 . S
C350 C346 1.524 . S
C350 H362 0.956 . S
C350 H363 0.961 . S
C350 H364 0.961 . S
C351 C348 1.539 . S
C351 H365 0.958 . S
C351 H366 0.961 . S
C351 H367 0.960 . S
H352 C336 0.931 . S
H353 C341 0.929 1_556 S
H354 C342 0.960 . S
H355 C342 0.962 . S
H356 C342 0.960 1_455 S
H357 C343 0.961 . S
H358 C343 0.961 1_655 S
H359 C343 0.961 . S
H360 C344 0.931 . S
H361 C349 0.930 . S
H362 C350 0.956 . S
H363 C350 0.961 . S
H364 C350 0.961 . S
H365 C351 0.958 . S
H366 C351 0.961 . S
H367 C351 0.960 . S
C368 C369 1.391 . S
C368 C370 1.394 . S
C368 H384 0.931 . S
C369 C368 1.391 . S
C369 C373 1.376 . S
C370 C368 1.394 . S
C370 C371 1.369 . S
C370 C374 1.531 . S
C371 C370 1.369 . S
C371 C372 1.410 . S
C371 C379 1.503 1_545 S
C372 C371 1.410 . S
C372 C373 1.392 . S
C372 C375 1.511 . S
C373 C369 1.376 . S
C373 C372 1.392 . S
C373 H385 0.929 . S
C374 C370 1.531 . S
C374 H386 0.960 . S
C374 H387 0.962 . S
C374 H388 0.960 . S
C375 C372 1.511 . S
C375 H389 0.961 . S
C375 H390 0.961 1_545 S
C375 H391 0.961 . S
C376 C377 1.370 . S
C376 C378 1.363 . S
C376 H392 0.931 . S
C377 C376 1.370 . S
C377 C381 1.408 . S
C378 C376 1.363 . S
C378 C379 1.370 . S
C378 C382 1.524 . S
C379 C371 1.503 1_565 S
C379 C378 1.370 . S
C379 C380 1.403 . S
C380 C379 1.403 . S
C380 C381 1.404 . S
C380 C383 1.539 . S
C381 C377 1.408 . S
C381 C380 1.404 . S
C381 H393 0.930 . S
C382 C378 1.524 . S
C382 H394 0.956 1_565 S
C382 H395 0.961 1_565 S
C382 H396 0.961 . S
C383 C380 1.539 . S
C383 H397 0.958 . S
C383 H398 0.961 . S
C383 H399 0.960 . S
H384 C368 0.931 . S
H385 C373 0.929 . S
H386 C374 0.960 . S
H387 C374 0.962 . S
H388 C374 0.960 . S
H389 C375 0.961 . S
H390 C375 0.961 1_565 S
H391 C375 0.961 . S
H392 C376 0.931 . S
H393 C381 0.930 . S
H394 C382 0.956 1_545 S
H395 C382 0.961 1_545 S
H396 C382 0.961 . S
H397 C383 0.958 . S
H398 C383 0.961 . S
H399 C383 0.960 . S
C145 C3 1.512 . S
C153 C76 1.520 . S
C177 C40 1.520 . S
C185 C111 1.522 . S
C209 C14 1.405 . S
C217 C110 1.421 . S
C241 C86 1.503 . S
C249 C39 1.614 . S
C273 C112 1.674 . S
C281 C4 1.674 . S
C305 C50 1.529 . S
C313 C75 1.612 . S
C337 C2 1.412 . S
C345 C122 1.388 . S
C369 C38 1.338 . S
C377 C74 1.352 . S
