# Generated by pormake.
# Topology ung, (4)-cn, num edge types: 1
# Building blocks:
#     Node 0, Type 0, BuildingBlock: ICAMEG_clean_sbu_1, # of connection points: 4
#     Node 1, Type 0, BuildingBlock: ICAMEG_clean_sbu_1, # of connection points: 4
#     Node 2, Type 0, BuildingBlock: ICAMEG_clean_sbu_1, # of connection points: 4
#     Node 3, Type 0, BuildingBlock: ICAMEG_clean_sbu_1, # of connection points: 4
#     Node 4, Type 0, BuildingBlock: ICAMEG_clean_sbu_1, # of connection points: 4
#     Node 5, Type 0, BuildingBlock: ICAMEG_clean_sbu_1, # of connection points: 4
#     Node 6, Type 0, BuildingBlock: ICAMEG_clean_sbu_1, # of connection points: 4
#     Node 7, Type 0, BuildingBlock: ICAMEG_clean_sbu_1, # of connection points: 4
#     Node 8, Type 0, BuildingBlock: ICAMEG_clean_sbu_1, # of connection points: 4
#     Node 9, Type 0, BuildingBlock: ICAMEG_clean_sbu_1, # of connection points: 4
#     Node 10, Type 0, BuildingBlock: ICAMEG_clean_sbu_1, # of connection points: 4
#     Node 11, Type 0, BuildingBlock: ICAMEG_clean_sbu_1, # of connection points: 4
#     Node 12, Type 0, BuildingBlock: ICAMEG_clean_sbu_1, # of connection points: 4
#     Node 13, Type 0, BuildingBlock: ICAMEG_clean_sbu_1, # of connection points: 4
#     Node 14, Type 0, BuildingBlock: ICAMEG_clean_sbu_1, # of connection points: 4
#     Node 15, Type 0, BuildingBlock: ICAMEG_clean_sbu_1, # of connection points: 4
#     Node 16, Type 0, BuildingBlock: ICAMEG_clean_sbu_1, # of connection points: 4
#     Node 17, Type 0, BuildingBlock: ICAMEG_clean_sbu_1, # of connection points: 4
#     Edge 18, Type (0, 0), BuildingBlock: ZUJKAS_clean_linker_0, # of connection points: 2
#     Edge 19, Type (0, 0), BuildingBlock: ZUJKAS_clean_linker_0, # of connection points: 2
#     Edge 20, Type (0, 0), BuildingBlock: ZUJKAS_clean_linker_0, # of connection points: 2
#     Edge 21, Type (0, 0), BuildingBlock: ZUJKAS_clean_linker_0, # of connection points: 2
#     Edge 22, Type (0, 0), BuildingBlock: ZUJKAS_clean_linker_0, # of connection points: 2
#     Edge 23, Type (0, 0), BuildingBlock: ZUJKAS_clean_linker_0, # of connection points: 2
#     Edge 24, Type (0, 0), BuildingBlock: ZUJKAS_clean_linker_0, # of connection points: 2
#     Edge 25, Type (0, 0), BuildingBlock: ZUJKAS_clean_linker_0, # of connection points: 2
#     Edge 26, Type (0, 0), BuildingBlock: ZUJKAS_clean_linker_0, # of connection points: 2
#     Edge 27, Type (0, 0), BuildingBlock: ZUJKAS_clean_linker_0, # of connection points: 2
#     Edge 28, Type (0, 0), BuildingBlock: ZUJKAS_clean_linker_0, # of connection points: 2
#     Edge 29, Type (0, 0), BuildingBlock: ZUJKAS_clean_linker_0, # of connection points: 2
#     Edge 30, Type (0, 0), BuildingBlock: ZUJKAS_clean_linker_0, # of connection points: 2
#     Edge 31, Type (0, 0), BuildingBlock: ZUJKAS_clean_linker_0, # of connection points: 2
#     Edge 32, Type (0, 0), BuildingBlock: ZUJKAS_clean_linker_0, # of connection points: 2
#     Edge 33, Type (0, 0), BuildingBlock: ZUJKAS_clean_linker_0, # of connection points: 2
#     Edge 34, Type (0, 0), BuildingBlock: ZUJKAS_clean_linker_0, # of connection points: 2
#     Edge 35, Type (0, 0), BuildingBlock: ZUJKAS_clean_linker_0, # of connection points: 2
#     Edge 36, Type (0, 0), BuildingBlock: ZUJKAS_clean_linker_0, # of connection points: 2
#     Edge 37, Type (0, 0), BuildingBlock: ZUJKAS_clean_linker_0, # of connection points: 2
#     Edge 38, Type (0, 0), BuildingBlock: ZUJKAS_clean_linker_0, # of connection points: 2
#     Edge 39, Type (0, 0), BuildingBlock: ZUJKAS_clean_linker_0, # of connection points: 2
#     Edge 40, Type (0, 0), BuildingBlock: ZUJKAS_clean_linker_0, # of connection points: 2
#     Edge 41, Type (0, 0), BuildingBlock: ZUJKAS_clean_linker_0, # of connection points: 2
#     Edge 42, Type (0, 0), BuildingBlock: ZUJKAS_clean_linker_0, # of connection points: 2
#     Edge 43, Type (0, 0), BuildingBlock: ZUJKAS_clean_linker_0, # of connection points: 2
#     Edge 44, Type (0, 0), BuildingBlock: ZUJKAS_clean_linker_0, # of connection points: 2
#     Edge 45, Type (0, 0), BuildingBlock: ZUJKAS_clean_linker_0, # of connection points: 2
#     Edge 46, Type (0, 0), BuildingBlock: ZUJKAS_clean_linker_0, # of connection points: 2
#     Edge 47, Type (0, 0), BuildingBlock: ZUJKAS_clean_linker_0, # of connection points: 2
#     Edge 48, Type (0, 0), BuildingBlock: ZUJKAS_clean_linker_0, # of connection points: 2
#     Edge 49, Type (0, 0), BuildingBlock: ZUJKAS_clean_linker_0, # of connection points: 2
#     Edge 50, Type (0, 0), BuildingBlock: ZUJKAS_clean_linker_0, # of connection points: 2
#     Edge 51, Type (0, 0), BuildingBlock: ZUJKAS_clean_linker_0, # of connection points: 2
#     Edge 52, Type (0, 0), BuildingBlock: ZUJKAS_clean_linker_0, # of connection points: 2
#     Edge 53, Type (0, 0), BuildingBlock: ZUJKAS_clean_linker_0, # of connection points: 2
# Relax obj value: 0.018
# Max RMSD: 0.106
# Mean RMSD: 0.106
data_MOF--net-ung--node1-ICAMEG_clean_sbu_1--edge1-ZUJKAS_clean_linker_0
_symmetry_space_group_name_H-M    P1
_symmetry_Int_Tables_number       1
_symmetry_cell_setting            triclinic
loop_
_symmetry_equiv_pos_as_xyz
'x, y, z'
_cell_length_a     98.45831
_cell_length_b     98.558095
_cell_length_c     31.454737
_cell_angle_alpha  90.039423
_cell_angle_beta   90.036101
_cell_angle_gamma 119.99593
loop_
_atom_site_label
_atom_site_type_symbol
_atom_site_fract_x
_atom_site_fract_y
_atom_site_fract_z
_atom_type_partial_charge
Co0 Co 0.08279 0.64536 0.2184 0.0
Co1 Co 0.05023 0.6293 0.2837 0.0
O2 O 0.06648 0.62814 0.25118 0.0
C3 C 0.06681 0.6197 0.15646 0.0
O4 O 0.05356 0.61807 0.17089 0.0
C5 C 0.06603 0.61957 0.34601 0.0
O6 O 0.07932 0.63103 0.33137 0.0
O7 O 0.06592 0.64937 0.31076 0.0
O8 O 0.08601 0.66061 0.26458 0.0
H9 H 0.02168 0.65549 0.34257 0.0
H10 H 0.08459 0.61663 0.23403 0.0
O11 O 0.07982 0.63032 0.17164 0.0
H12 H 0.13281 0.65976 0.2969 0.0
H13 H 0.12974 0.67004 0.12162 0.0
H14 H 0.09115 0.67818 0.20069 0.0
H15 H 0.11374 0.66508 0.26064 0.0
H16 H 0.10916 0.64869 0.16439 0.0
O17 O 0.05306 0.61727 0.33079 0.0
H18 H 0.04209 0.65398 0.30084 0.0
H19 H 0.02372 0.60652 0.33764 0.0
H20 H 0.11162 0.69988 0.1586 0.0
H21 H 0.1034 0.61078 0.26968 0.0
H22 H 0.1311 0.69587 0.11869 0.0
H23 H 0.12768 0.63243 0.30157 0.0
O24 O 0.06715 0.64979 0.19098 0.0
H25 H 0.02909 0.57388 0.23368 0.0
H26 H 0.01953 0.61842 0.24037 0.0
H27 H 0.00034 0.59404 0.20433 0.0
H28 H 0.00506 0.57155 0.20082 0.0
H29 H 0.04803 0.59851 0.26916 0.0
H30 H 0.00318 0.60755 0.38006 0.0
H31 H 0.00204 0.63215 0.38257 0.0
O32 O 0.04718 0.6413 0.23738 0.0
C33 C 0.07905 0.66078 0.29862 0.0
C34 C 0.02203 0.64469 0.34163 0.0
C35 C 0.01166 0.61779 0.36271 0.0
N36 N 0.03402 0.63014 0.31657 0.0
C37 C 0.03353 0.64375 0.31796 0.0
C38 C 0.02333 0.61728 0.33872 0.0
C39 C 0.01102 0.63159 0.36409 0.0
C40 C 0.0952 0.62613 0.24748 0.0
N41 N 0.09808 0.64119 0.24518 0.0
C42 C 0.10578 0.62274 0.26777 0.0
C43 C 0.11939 0.63489 0.28572 0.0
C44 C 0.12227 0.65022 0.28314 0.0
C45 C 0.11141 0.65317 0.26268 0.0
C46 C 0.12134 0.67194 0.13894 0.0
C47 C 0.09965 0.67638 0.18361 0.0
C48 C 0.10964 0.65989 0.16312 0.0
N49 N 0.09905 0.66224 0.18525 0.0
C50 C 0.11118 0.6887 0.15974 0.0
C51 C 0.1221 0.68643 0.13732 0.0
C52 C 0.05408 0.64825 0.20314 0.0
C53 C 0.02687 0.58358 0.23512 0.0
C54 C 0.02167 0.60869 0.23897 0.0
C55 C 0.01075 0.5949 0.21857 0.0
C56 C 0.01341 0.58229 0.21663 0.0
N57 N 0.03484 0.60985 0.25707 0.0
C58 C 0.03752 0.59753 0.25534 0.0
Co59 Co 0.50333 0.48679 0.28153 0.0
Co60 Co 0.48695 0.50341 0.2177 0.0
O61 O 0.50429 0.50424 0.24983 0.0
C62 C 0.51258 0.51191 0.34499 0.0
O63 O 0.50103 0.51361 0.33044 0.0
C64 C 0.51238 0.51293 0.15518 0.0
O65 O 0.51405 0.50134 0.16957 0.0
O66 O 0.48214 0.48324 0.19025 0.0
O67 O 0.49161 0.47198 0.23438 0.0
H68 H 0.43203 0.47807 0.15999 0.0
H69 H 0.53386 0.5158 0.26803 0.0
O70 O 0.5151 0.50144 0.32933 0.0
H71 H 0.53956 0.4735 0.2022 0.0
H72 H 0.52542 0.46155 0.37692 0.0
H73 H 0.47897 0.45371 0.29676 0.0
H74 H 0.51494 0.46765 0.23798 0.0
H75 H 0.52621 0.48319 0.33557 0.0
O76 O 0.5018 0.51534 0.1705 0.0
H77 H 0.45389 0.47916 0.20121 0.0
H78 H 0.48358 0.52648 0.16405 0.0
H79 H 0.47771 0.43171 0.3374 0.0
H80 H 0.55873 0.52215 0.23287 0.0
H81 H 0.50106 0.43557 0.37786 0.0
H82 H 0.56168 0.50092 0.19949 0.0
O83 O 0.48305 0.48191 0.30843 0.0
H84 H 0.52219 0.55857 0.26837 0.0
H85 H 0.46764 0.51489 0.26099 0.0
H86 H 0.47337 0.53936 0.2974 0.0
H87 H 0.50083 0.56142 0.30125 0.0
H88 H 0.51595 0.53384 0.23257 0.0
H89 H 0.46208 0.52586 0.12214 0.0
H90 H 0.43607 0.50154 0.12007 0.0
O91 O 0.47194 0.49154 0.26429 0.0
C92 C 0.48414 0.47188 0.2011 0.0
C93 C 0.4433 0.48875 0.16075 0.0
C94 C 0.46017 0.51556 0.13945 0.0
N95 N 0.46995 0.5029 0.18526 0.0
C96 C 0.4557 0.48945 0.18412 0.0
C97 C 0.47231 0.51583 0.16315 0.0
C98 C 0.44558 0.50191 0.13832 0.0
C99 C 0.5351 0.50647 0.25394 0.0
N100 N 0.52298 0.49136 0.25518 0.0
C101 C 0.54919 0.51015 0.23393 0.0
C102 C 0.55083 0.49824 0.21515 0.0
C103 C 0.53842 0.48285 0.21663 0.0
C104 C 0.5245 0.47961 0.23685 0.0
C105 C 0.51518 0.45972 0.35936 0.0
C106 C 0.48921 0.45545 0.31409 0.0
C107 C 0.51555 0.47194 0.33598 0.0
N108 N 0.50268 0.46968 0.31356 0.0
C109 C 0.48841 0.44297 0.33713 0.0
C110 C 0.50151 0.44514 0.35986 0.0
C111 C 0.47173 0.48397 0.29742 0.0
C112 C 0.51018 0.54905 0.26682 0.0
C113 C 0.47961 0.52442 0.26263 0.0
C114 C 0.48279 0.53826 0.2832 0.0
C115 C 0.49819 0.55064 0.28532 0.0
N116 N 0.49144 0.52295 0.24457 0.0
C117 C 0.50656 0.53505 0.24644 0.0
Co118 Co 0.62942 0.05044 0.21767 0.0
Co119 Co 0.64586 0.08254 0.28467 0.0
O120 O 0.6285 0.06658 0.25135 0.0
C121 C 0.61997 0.06689 0.1568 0.0
O122 O 0.63157 0.08 0.17188 0.0
C123 C 0.62013 0.06647 0.34615 0.0
O124 O 0.61829 0.05326 0.33089 0.0
O125 O 0.65004 0.0666 0.31088 0.0
O126 O 0.64129 0.04685 0.26359 0.0
H127 H 0.70045 0.11037 0.345 0.0
H128 H 0.59889 0.04868 0.23342 0.0
O129 O 0.6175 0.05377 0.17119 0.0
H130 H 0.59347 4e-05 0.29362 0.0
H131 H 0.60724 0.00415 0.11842 0.0
H132 H 0.65385 0.04206 0.19929 0.0
H133 H 0.61799 0.01923 0.25827 0.0
H134 H 0.60645 0.02449 0.16238 0.0
O135 O 0.63089 0.0795 0.3316 0.0
H136 H 0.67859 0.09035 0.30219 0.0
H137 H 0.64958 0.10874 0.34003 0.0
H138 H 0.65512 0.02184 0.156 0.0
H139 H 0.57411 0.02975 0.26818 0.0
H140 H 0.63169 0.0027 0.11518 0.0
H141 H 0.57131 0.00524 0.29873 0.0
O142 O 0.64958 0.06617 0.19099 0.0
H143 H 0.61195 0.10429 0.23594 0.0
H144 H 0.66594 0.11345 0.24299 0.0
H145 H 0.66098 0.13296 0.20804 0.0
H146 H 0.63382 0.12843 0.20436 0.0
H147 H 0.61741 0.08504 0.27033 0.0
H148 H 0.67108 0.12889 0.38353 0.0
H149 H 0.69676 0.12983 0.38606 0.0
O150 O 0.66103 0.08579 0.23846 0.0
C151 C 0.64831 0.05354 0.29805 0.0
C152 C 0.68933 0.11012 0.34405 0.0
C153 C 0.67284 0.1205 0.36572 0.0
N154 N 0.66288 0.09846 0.31836 0.0
C155 C 0.67693 0.09883 0.31977 0.0
C156 C 0.6607 0.10904 0.34111 0.0
C157 C 0.68725 0.12102 0.36711 0.0
C158 C 0.59771 0.03798 0.24628 0.0
N159 N 0.60986 0.03505 0.24373 0.0
C160 C 0.58367 0.02733 0.26608 0.0
C161 C 0.58212 0.01359 0.28326 0.0
C162 C 0.59455 0.01067 0.28044 0.0
C163 C 0.60842 0.0216 0.26049 0.0
C164 C 0.61751 0.0124 0.13612 0.0
C165 C 0.64358 0.03371 0.18182 0.0
C166 C 0.61715 0.02396 0.16099 0.0
N167 N 0.63006 0.03436 0.18361 0.0
C168 C 0.64438 0.02232 0.15727 0.0
C169 C 0.63124 0.01159 0.13433 0.0
C170 C 0.66111 0.07912 0.20378 0.0
C171 C 0.62384 0.10642 0.23746 0.0
C172 C 0.65409 0.1114 0.2415 0.0
C173 C 0.65136 0.1225 0.22172 0.0
C174 C 0.63612 0.11995 0.21969 0.0
N175 N 0.64199 0.09816 0.25889 0.0
C176 C 0.62701 0.09559 0.25706 0.0
Co177 Co 0.05074 0.48651 0.78553 0.0
Co178 Co 0.08171 0.50201 0.71526 0.0
O179 O 0.0662 0.50351 0.75039 0.0
C180 C 0.06705 0.51301 0.84483 0.0
O181 O 0.08023 0.5147 0.82969 0.0
C182 C 0.06531 0.51209 0.656 0.0
O183 O 0.05216 0.50065 0.67132 0.0
O184 O 0.06528 0.48211 0.68925 0.0
O185 O 0.04724 0.4707 0.74075 0.0
H186 H 0.10813 0.47482 0.64908 0.0
H187 H 0.04744 0.51434 0.76889 0.0
O188 O 0.05396 0.50206 0.83101 0.0
H189 H 0.99926 0.4694 0.71173 0.0
H190 H 0.00537 0.46208 0.88764 0.0
H191 H 0.04381 0.45433 0.80647 0.0
H192 H 0.01948 0.46543 0.74642 0.0
H193 H 0.02484 0.48308 0.8417 0.0
O194 O 0.07842 0.51425 0.66973 0.0
H195 H 0.08876 0.47683 0.6944 0.0
H196 H 0.10757 0.52448 0.65907 0.0
H197 H 0.02448 0.43297 0.85176 0.0
H198 H 0.02747 0.51883 0.73473 0.0
H199 H 0.00508 0.43678 0.89274 0.0
H200 H 0.0032 0.49627 0.70574 0.0
O201 O 0.06723 0.48313 0.81159 0.0
H202 H 0.10475 0.55758 0.76601 0.0
H203 H 0.113 0.51231 0.75435 0.0
H204 H 0.13315 0.53654 0.78901 0.0
H205 H 0.12908 0.5594 0.79499 0.0
H206 H 0.08486 0.53309 0.73187 0.0
H207 H 0.12707 0.52297 0.61311 0.0
H208 H 0.12747 0.49801 0.60805 0.0
O209 O 0.08527 0.48977 0.76008 0.0
C210 C 0.05297 0.47047 0.70455 0.0
C211 C 0.10811 0.48578 0.65114 0.0
C212 C 0.11873 0.51279 0.63091 0.0
N213 N 0.09714 0.50079 0.67966 0.0
C214 C 0.09721 0.48699 0.67684 0.0
C215 C 0.10765 0.51357 0.65692 0.0
C216 C 0.11895 0.49879 0.62809 0.0
C217 C 0.03683 0.50444 0.75675 0.0
N218 N 0.03459 0.48963 0.75985 0.0
C219 C 0.0256 0.50707 0.73727 0.0
C220 C 0.01199 0.4944 0.72095 0.0
C221 C 0.00978 0.47933 0.72428 0.0
C222 C 0.02128 0.47715 0.74389 0.0
C223 C 0.01374 0.46026 0.86987 0.0
C224 C 0.03534 0.45604 0.824 0.0
C225 C 0.02481 0.47212 0.84387 0.0
N226 N 0.03535 0.46988 0.82116 0.0
C227 C 0.02446 0.44392 0.84969 0.0
C228 C 0.01358 0.44607 0.87271 0.0
C229 C 0.07956 0.48383 0.79629 0.0
C230 C 0.10668 0.54772 0.76347 0.0
C231 C 0.11114 0.5222 0.75687 0.0
C232 C 0.1226 0.5359 0.77646 0.0
C233 C 0.12032 0.54872 0.77978 0.0
N234 N 0.0978 0.52132 0.74091 0.0
C235 C 0.09549 0.53384 0.744 0.0
Co236 Co 0.63001 0.64538 0.71559 0.0
Co237 Co 0.64583 0.62976 0.78442 0.0
O238 O 0.62868 0.62832 0.75004 0.0
C239 C 0.61976 0.61908 0.6556 0.0
O240 O 0.63135 0.61744 0.67019 0.0
C241 C 0.61961 0.61962 0.84455 0.0
O242 O 0.61793 0.63116 0.82981 0.0
O243 O 0.64942 0.64962 0.81101 0.0
O244 O 0.64241 0.66107 0.76055 0.0
H245 H 0.69978 0.65681 0.84885 0.0
H246 H 0.59899 0.61737 0.73238 0.0
O247 O 0.61759 0.62993 0.66997 0.0
H248 H 0.59568 0.66196 0.79168 0.0
H249 H 0.60853 0.66989 0.61546 0.0
H250 H 0.65508 0.67768 0.69503 0.0
H251 H 0.6198 0.6662 0.75603 0.0
H252 H 0.60726 0.6488 0.66052 0.0
O253 O 0.63046 0.61744 0.83023 0.0
H254 H 0.67819 0.6549 0.80458 0.0
H255 H 0.64942 0.6072 0.83971 0.0
H256 H 0.65684 0.69912 0.65061 0.0
H257 H 0.57461 0.61262 0.7675 0.0
H258 H 0.63345 0.69529 0.61044 0.0
H259 H 0.57287 0.63501 0.79758 0.0
O260 O 0.64985 0.64896 0.68885 0.0
H261 H 0.61304 0.57426 0.7333 0.0
H262 H 0.66664 0.61953 0.74397 0.0
H263 H 0.66239 0.59536 0.70868 0.0
H264 H 0.63543 0.5725 0.70319 0.0
H265 H 0.61781 0.59871 0.76804 0.0
H266 H 0.67065 0.60863 0.88463 0.0
H267 H 0.69607 0.63355 0.88925 0.0
O268 O 0.66144 0.64208 0.73928 0.0
C269 C 0.64857 0.66124 0.79639 0.0
C270 C 0.68878 0.64587 0.84698 0.0
C271 C 0.67242 0.61883 0.8671 0.0
N272 N 0.66263 0.63092 0.81928 0.0
C273 C 0.67653 0.6447 0.82187 0.0
C274 C 0.66044 0.6181 0.84169 0.0
C275 C 0.68668 0.63282 0.86967 0.0
C276 C 0.59826 0.62719 0.74499 0.0
N277 N 0.61077 0.64205 0.74195 0.0
C278 C 0.58445 0.62442 0.765 0.0
C279 C 0.58349 0.63699 0.78193 0.0
C280 C 0.59629 0.65211 0.77866 0.0
C281 C 0.60993 0.65443 0.7585 0.0
C282 C 0.61879 0.67171 0.63288 0.0
C283 C 0.64483 0.67596 0.67784 0.0
C284 C 0.61815 0.65981 0.65838 0.0
N285 N 0.63105 0.66207 0.68064 0.0
C286 C 0.64591 0.68813 0.65265 0.0
C287 C 0.63278 0.68596 0.63009 0.0
C288 C 0.66153 0.64817 0.70342 0.0
C289 C 0.62485 0.58413 0.73561 0.0
C290 C 0.65487 0.60965 0.74166 0.0
C291 C 0.65254 0.59598 0.72171 0.0
C292 C 0.63741 0.58315 0.71867 0.0
N293 N 0.64249 0.6105 0.75824 0.0
C294 C 0.62763 0.59797 0.75541 0.0
Co295 Co 0.50352 0.08346 0.78413 0.0
Co296 Co 0.48775 0.05098 0.71847 0.0
O297 O 0.50486 0.06732 0.75161 0.0
C298 C 0.51305 0.06757 0.84656 0.0
O299 O 0.5016 0.05434 0.83158 0.0
C300 C 0.51354 0.06713 0.65711 0.0
O301 O 0.51519 0.08033 0.67184 0.0
O302 O 0.48323 0.06654 0.69108 0.0
O303 O 0.49165 0.08654 0.73739 0.0
H304 H 0.43329 0.02194 0.65762 0.0
H305 H 0.53444 0.08579 0.77059 0.0
O306 O 0.51542 0.08058 0.83155 0.0
H307 H 0.539 0.13348 0.70604 0.0
H308 H 0.52484 0.13028 0.88132 0.0
H309 H 0.47871 0.0915 0.80046 0.0
H310 H 0.51449 0.11419 0.74123 0.0
H311 H 0.52607 0.10985 0.83891 0.0
O312 O 0.50289 0.05409 0.67194 0.0
H313 H 0.45487 0.04242 0.70019 0.0
H314 H 0.48469 0.02476 0.66426 0.0
H315 H 0.47699 0.11179 0.84217 0.0
H316 H 0.5592 0.10482 0.73598 0.0
H317 H 0.50018 0.13137 0.88299 0.0
H318 H 0.56158 0.12885 0.70327 0.0
O319 O 0.48336 0.06771 0.81057 0.0
H320 H 0.52262 0.03077 0.77031 0.0
H321 H 0.46812 0.01993 0.76005 0.0
H322 H 0.47358 0.001 0.79633 0.0
H323 H 0.50101 0.00637 0.80163 0.0
H324 H 0.51663 0.04944 0.73463 0.0
H325 H 0.46348 0.00416 0.62101 0.0
H326 H 0.43753 0.00263 0.61765 0.0
O327 O 0.47239 0.04758 0.7644 0.0
C328 C 0.48477 0.07961 0.70305 0.0
C329 C 0.44452 0.02245 0.65894 0.0
C330 C 0.46147 0.01249 0.63835 0.0
N331 N 0.47097 0.0347 0.68496 0.0
C332 C 0.45677 0.034 0.68309 0.0
C333 C 0.47345 0.0242 0.66281 0.0
C334 C 0.44692 0.01163 0.63649 0.0
C335 C 0.53544 0.09629 0.75682 0.0
N336 N 0.52306 0.09891 0.75815 0.0
C337 C 0.54947 0.107 0.73711 0.0
C338 C 0.55078 0.12046 0.7187 0.0
C339 C 0.53812 0.12306 0.72022 0.0
C340 C 0.52426 0.11208 0.74013 0.0
C341 C 0.51467 0.12183 0.86362 0.0
C342 C 0.48887 0.10004 0.81794 0.0
C343 C 0.51529 0.11022 0.83963 0.0
N344 N 0.50251 0.09957 0.81701 0.0
C345 C 0.48782 0.11147 0.8416 0.0
C346 C 0.50083 0.12244 0.86452 0.0
C347 C 0.47206 0.05451 0.79835 0.0
C348 C 0.51062 0.02828 0.76814 0.0
C349 C 0.48008 0.02238 0.76236 0.0
C350 C 0.4831 0.01159 0.78283 0.0
C351 C 0.49849 0.01461 0.78576 0.0
N352 N 0.49203 0.03577 0.7452 0.0
C353 C 0.50714 0.03878 0.74782 0.0
Co354 Co 0.71612 0.96208 0.61683 0.0
Co355 Co 0.74869 0.97847 0.55162 0.0
O356 O 0.73249 0.96116 0.58438 0.0
C357 C 0.73224 0.95278 0.67929 0.0
O358 O 0.74545 0.96441 0.66483 0.0
C359 C 0.73273 0.95279 0.48995 0.0
O360 O 0.71952 0.95119 0.50455 0.0
O361 O 0.73299 0.9828 0.52442 0.0
O362 O 0.71276 0.97383 0.57017 0.0
H363 H 0.77727 0.03304 0.49201 0.0
H364 H 0.7146 0.93163 0.60205 0.0
O365 O 0.7192 0.95026 0.66399 0.0
H366 H 0.66617 0.92591 0.53878 0.0
H367 H 0.66917 0.93995 0.71364 0.0
H368 H 0.70752 0.98644 0.63357 0.0
H369 H 0.68507 0.95046 0.57466 0.0
H370 H 0.68984 0.93917 0.67121 0.0
O371 O 0.74578 0.96346 0.50485 0.0
H372 H 0.75687 0.01126 0.53402 0.0
H373 H 0.77511 0.98199 0.4976 0.0
H374 H 0.68696 0.98769 0.6753 0.0
H375 H 0.69596 0.90682 0.56678 0.0
H376 H 0.66761 0.96433 0.71571 0.0
H377 H 0.67157 0.90387 0.53468 0.0
O378 O 0.73166 0.98228 0.64378 0.0
H379 H 0.76987 0.9443 0.60236 0.0
H380 H 0.77943 0.99836 0.59468 0.0
H381 H 0.79865 0.99325 0.63091 0.0
H382 H 0.79392 0.96606 0.63491 0.0
H383 H 0.75091 0.94992 0.56669 0.0
H384 H 0.79565 0.00342 0.45491 0.0
H385 H 0.79684 0.02918 0.45207 0.0
O386 O 0.75177 0.99362 0.59773 0.0
C387 C 0.71977 0.98096 0.5362 0.0
C388 C 0.7769 0.02188 0.4931 0.0
C389 C 0.7872 0.00525 0.47223 0.0
N390 N 0.76488 0.99542 0.5185 0.0
C391 C 0.7654 0.00952 0.51692 0.0
C392 C 0.77553 0.99315 0.49637 0.0
C393 C 0.78787 0.0197 0.47066 0.0
C394 C 0.70394 0.93038 0.58851 0.0
N395 N 0.70092 0.94247 0.59047 0.0
C396 C 0.69346 0.91633 0.56844 0.0
C397 C 0.67979 0.91469 0.55038 0.0
C398 C 0.67676 0.92705 0.55263 0.0
C399 C 0.68753 0.94095 0.57288 0.0
C400 C 0.67752 0.9502 0.6961 0.0
C401 C 0.69907 0.9762 0.65087 0.0
C402 C 0.68927 0.94984 0.67211 0.0
N403 N 0.69979 0.96271 0.6497 0.0
C404 C 0.68749 0.97699 0.67453 0.0
C405 C 0.67665 0.96388 0.69724 0.0
C406 C 0.74478 0.99375 0.63174 0.0
C407 C 0.77209 0.95621 0.6007 0.0
C408 C 0.77729 0.9865 0.5963 0.0
C409 C 0.78822 0.98368 0.6168 0.0
C410 C 0.78557 0.96842 0.61902 0.0
N411 N 0.7641 0.97446 0.57837 0.0
C412 C 0.76143 0.95947 0.58038 0.0
Co413 Co 0.17006 0.82072 0.61494 0.0
Co414 Co 0.1539 0.83693 0.54897 0.0
O415 O 0.17116 0.83799 0.58204 0.0
C416 C 0.17962 0.84635 0.67682 0.0
O417 O 0.16806 0.848 0.66204 0.0
C418 C 0.17965 0.84662 0.48752 0.0
O419 O 0.18129 0.83506 0.50219 0.0
O420 O 0.14953 0.81687 0.52194 0.0
O421 O 0.15814 0.80553 0.56854 0.0
H422 H 0.09936 0.81098 0.48847 0.0
H423 H 0.20073 0.8494 0.6 0.0
O424 O 0.18203 0.83572 0.6619 0.0
H425 H 0.2058 0.80622 0.5377 0.0
H426 H 0.19187 0.79584 0.7127 0.0
H427 H 0.14545 0.78792 0.6322 0.0
H428 H 0.18132 0.80095 0.57324 0.0
H429 H 0.19286 0.81726 0.66973 0.0
O430 O 0.16897 0.84898 0.50233 0.0
H431 H 0.12108 0.81235 0.53092 0.0
H432 H 0.15049 0.85983 0.49472 0.0
H433 H 0.14398 0.76614 0.67447 0.0
H434 H 0.22547 0.85519 0.56507 0.0
H435 H 0.16731 0.77005 0.71511 0.0
H436 H 0.2281 0.83351 0.53347 0.0
O437 O 0.14993 0.81634 0.64174 0.0
H438 H 0.18819 0.89225 0.59975 0.0
H439 H 0.13401 0.84786 0.59154 0.0
H440 H 0.13917 0.87222 0.62759 0.0
H441 H 0.16643 0.89463 0.63187 0.0
H442 H 0.18252 0.86765 0.56424 0.0
H443 H 0.12912 0.85894 0.45159 0.0
H444 H 0.10331 0.8344 0.44842 0.0
O445 O 0.13864 0.8249 0.5949 0.0
C446 C 0.15114 0.80541 0.53425 0.0
C447 C 0.11053 0.82176 0.4897 0.0
C448 C 0.12724 0.84867 0.46896 0.0
N449 N 0.13699 0.83619 0.51554 0.0
C450 C 0.12286 0.82262 0.51378 0.0
C451 C 0.13931 0.84909 0.49335 0.0
C452 C 0.11276 0.8349 0.46721 0.0
C453 C 0.20183 0.83989 0.58668 0.0
N454 N 0.1896 0.82485 0.58874 0.0
C455 C 0.21585 0.84325 0.56679 0.0
C456 C 0.21731 0.83108 0.54901 0.0
C457 C 0.2048 0.81577 0.55134 0.0
C458 C 0.19094 0.81285 0.5714 0.0
C459 C 0.18163 0.79399 0.69507 0.0
C460 C 0.15568 0.78967 0.64959 0.0
C461 C 0.18212 0.80608 0.67077 0.0
N462 N 0.16926 0.80379 0.64824 0.0
C463 C 0.15476 0.77731 0.67356 0.0
C464 C 0.16785 0.77952 0.69639 0.0
C465 C 0.13847 0.81792 0.62921 0.0
C466 C 0.17626 0.88259 0.59797 0.0
C467 C 0.1459 0.85756 0.59327 0.0
C468 C 0.14875 0.87133 0.61368 0.0
C469 C 0.16404 0.8839 0.61604 0.0
N470 N 0.15794 0.85637 0.57559 0.0
C471 C 0.17296 0.86865 0.57773 0.0
Co472 Co 0.31315 0.41723 0.61693 0.0
Co473 Co 0.29636 0.38418 0.55325 0.0
O474 O 0.29563 0.40073 0.58535 0.0
C475 C 0.28809 0.40133 0.68038 0.0
O476 O 0.28637 0.3881 0.66559 0.0
C477 C 0.28693 0.40016 0.49079 0.0
O478 O 0.29855 0.41337 0.50534 0.0
O479 O 0.31655 0.39947 0.5258 0.0
O480 O 0.32788 0.42032 0.56957 0.0
H481 H 0.3215 0.35445 0.49563 0.0
H482 H 0.28407 0.4187 0.60384 0.0
O483 O 0.29858 0.41433 0.66491 0.0
H484 H 0.32625 0.46668 0.53776 0.0
H485 H 0.33858 0.46457 0.71237 0.0
H486 H 0.34631 0.42603 0.63172 0.0
H487 H 0.33219 0.44795 0.57334 0.0
H488 H 0.31684 0.44368 0.67115 0.0
O489 O 0.28444 0.38714 0.50603 0.0
H490 H 0.32053 0.37526 0.53679 0.0
H491 H 0.27317 0.35778 0.4996 0.0
H492 H 0.36841 0.44679 0.67222 0.0
H493 H 0.27762 0.43716 0.56889 0.0
H494 H 0.36461 0.46625 0.71293 0.0
H495 H 0.29878 0.46133 0.53539 0.0
O496 O 0.31813 0.40189 0.64363 0.0
H497 H 0.24122 0.36443 0.60387 0.0
H498 H 0.28484 0.35346 0.59668 0.0
H499 H 0.26035 0.33479 0.63313 0.0
H500 H 0.23832 0.34024 0.63688 0.0
H501 H 0.26596 0.38283 0.56803 0.0
H502 H 0.27366 0.33684 0.45773 0.0
H503 H 0.29793 0.33505 0.45571 0.0
O504 O 0.30826 0.38104 0.59981 0.0
C505 C 0.32793 0.41288 0.53641 0.0
C506 C 0.31083 0.35507 0.49636 0.0
C507 C 0.28399 0.34521 0.47504 0.0
N508 N 0.29678 0.36766 0.52083 0.0
C509 C 0.31021 0.36681 0.51971 0.0
C510 C 0.2838 0.35711 0.49871 0.0
C511 C 0.29762 0.34421 0.47394 0.0
C512 C 0.29337 0.42926 0.5897 0.0
N513 N 0.3085 0.43227 0.59075 0.0
C514 C 0.28963 0.43964 0.56981 0.0
C515 C 0.30151 0.45319 0.55096 0.0
C516 C 0.31692 0.45619 0.55225 0.0
C517 C 0.32022 0.44553 0.57235 0.0
C518 C 0.34039 0.45617 0.69471 0.0
C519 C 0.3446 0.43451 0.64915 0.0
C520 C 0.32811 0.4443 0.6714 0.0
N521 N 0.33034 0.43372 0.64884 0.0
C522 C 0.35714 0.44621 0.67212 0.0
C523 C 0.35499 0.45711 0.69499 0.0
C524 C 0.31599 0.38847 0.63273 0.0
C525 C 0.25072 0.36191 0.60236 0.0
C526 C 0.27532 0.35592 0.59826 0.0
C527 C 0.26147 0.34529 0.61886 0.0
C528 C 0.24911 0.34835 0.62093 0.0
N529 N 0.27681 0.36919 0.58013 0.0
C530 C 0.26473 0.37225 0.58195 0.0
Co531 Co 0.7161 0.81986 0.11755 0.0
Co532 Co 0.74851 0.83643 0.05175 0.0
O533 O 0.73219 0.83724 0.08476 0.0
C534 C 0.73209 0.84544 0.17945 0.0
O535 O 0.74529 0.8471 0.16463 0.0
C536 C 0.73226 0.84591 0.99016 0.0
O537 O 0.71907 0.83424 0.00456 0.0
O538 O 0.73292 0.81629 0.02457 0.0
O539 O 0.71302 0.80478 0.07118 0.0
H540 H 0.77759 0.81104 0.99133 0.0
H541 H 0.71368 0.84833 0.10324 0.0
O542 O 0.71903 0.83478 0.16459 0.0
H543 H 0.66592 0.80493 0.0393 0.0
H544 H 0.66936 0.79457 0.21492 0.0
H545 H 0.70814 0.7871 0.13462 0.0
H546 H 0.68531 0.7999 0.07483 0.0
H547 H 0.68974 0.81611 0.17218 0.0
O548 O 0.74532 0.84838 0.00514 0.0
H549 H 0.7571 0.81214 0.03378 0.0
H550 H 0.77468 0.85952 0.99741 0.0
H551 H 0.6879 0.7652 0.17667 0.0
H552 H 0.69455 0.85386 0.06827 0.0
H553 H 0.66832 0.76887 0.2172 0.0
H554 H 0.67049 0.83208 0.03587 0.0
O555 O 0.73193 0.81558 0.14421 0.0
H556 H 0.7687 0.89153 0.10323 0.0
H557 H 0.77963 0.84797 0.09337 0.0
H558 H 0.79858 0.87241 0.12959 0.0
H559 H 0.79315 0.89441 0.13469 0.0
H560 H 0.75002 0.86683 0.0676 0.0
H561 H 0.79528 0.8589 0.9543 0.0
H562 H 0.79687 0.83454 0.95122 0.0
O563 O 0.75197 0.82457 0.09785 0.0
C564 C 0.71989 0.80475 0.03685 0.0
C565 C 0.77706 0.82174 0.99254 0.0
C566 C 0.78697 0.84859 0.9717 0.0
N567 N 0.76478 0.83592 0.01833 0.0
C568 C 0.76551 0.82244 0.01661 0.0
C569 C 0.77526 0.84886 0.99608 0.0
C570 C 0.78786 0.83492 0.97 0.0
C571 C 0.70316 0.83876 0.08961 0.0
N572 N 0.70057 0.8238 0.09131 0.0
C573 C 0.6924 0.84198 0.06969 0.0
C574 C 0.67892 0.82975 0.05146 0.0
C575 C 0.67635 0.81452 0.05335 0.0
C576 C 0.68738 0.81175 0.07346 0.0
C577 C 0.67781 0.79282 0.19734 0.0
C578 C 0.6996 0.78875 0.15198 0.0
C579 C 0.68939 0.80498 0.17316 0.0
N580 N 0.70004 0.80282 0.1507 0.0
C581 C 0.6882 0.77633 0.17582 0.0
C582 C 0.67723 0.7784 0.19859 0.0
C583 C 0.7451 0.81742 0.13193 0.0
C584 C 0.77121 0.88204 0.10113 0.0
C585 C 0.77717 0.85746 0.09558 0.0
C586 C 0.78796 0.8713 0.11602 0.0
C587 C 0.78492 0.88364 0.11884 0.0
N588 N 0.76374 0.85597 0.07834 0.0
C589 C 0.76071 0.86805 0.08085 0.0
Co590 Co 0.31252 0.96305 0.11608 0.0
Co591 Co 0.29628 0.97907 0.04974 0.0
O592 O 0.2952 0.96191 0.08316 0.0
C593 C 0.287 0.95375 0.17812 0.0
O594 O 0.28533 0.96526 0.16314 0.0
C595 C 0.2864 0.95314 0.98874 0.0
O596 O 0.29799 0.95152 0.00348 0.0
O597 O 0.31628 0.98326 0.02268 0.0
O598 O 0.32766 0.97476 0.06948 0.0
H599 H 0.32233 0.03335 0.98819 0.0
H600 H 0.28372 0.93243 0.1016 0.0
O601 O 0.2976 0.95128 0.16323 0.0
H602 H 0.32673 0.92696 0.03956 0.0
H603 H 0.33748 0.94144 0.21429 0.0
H604 H 0.34542 0.98762 0.13297 0.0
H605 H 0.33216 0.95156 0.07469 0.0
H606 H 0.31601 0.94039 0.17127 0.0
O607 O 0.28409 0.96388 0.00337 0.0
H608 H 0.32093 0.01175 0.0311 0.0
H609 H 0.27333 0.9824 0.99532 0.0
H610 H 0.36725 0.98915 0.1753 0.0
H611 H 0.27777 0.90757 0.06708 0.0
H612 H 0.36334 0.96594 0.21634 0.0
H613 H 0.29936 0.90475 0.03561 0.0
O614 O 0.31703 0.98327 0.14251 0.0
H615 H 0.24095 0.94517 0.10097 0.0
H616 H 0.28553 0.99917 0.09186 0.0
H617 H 0.26124 0.99424 0.1279 0.0
H618 H 0.23873 0.96707 0.13262 0.0
H619 H 0.2655 0.95061 0.06547 0.0
H620 H 0.27423 0.00364 0.95174 0.0
H621 H 0.29885 0.02936 0.94812 0.0
O622 O 0.30844 0.99444 0.09539 0.0
C623 C 0.32774 0.98164 0.03504 0.0
C624 C 0.31152 0.02222 0.98961 0.0
C625 C 0.28453 0.00553 0.96911 0.0
N626 N 0.29703 0.99588 0.01596 0.0
C627 C 0.31065 0.00996 0.01395 0.0
C628 C 0.28409 0.99354 0.99376 0.0
C629 C 0.29835 0.01996 0.96711 0.0
C630 C 0.2932 0.93124 0.08834 0.0
N631 N 0.30828 0.94342 0.09024 0.0
C632 C 0.28975 0.91715 0.06868 0.0
C633 C 0.30186 0.91559 0.05097 0.0
C634 C 0.31722 0.92805 0.05315 0.0
C635 C 0.32022 0.94197 0.07297 0.0
C636 C 0.33933 0.95163 0.19648 0.0
C637 C 0.34367 0.97744 0.15054 0.0
C638 C 0.32721 0.95111 0.17214 0.0
N639 N 0.32951 0.96389 0.14939 0.0
C640 C 0.35605 0.97839 0.17454 0.0
C641 C 0.35385 0.96537 0.1976 0.0
C642 C 0.31546 0.99471 0.12974 0.0
C643 C 0.25066 0.95706 0.09899 0.0
C644 C 0.27579 0.98732 0.0938 0.0
C645 C 0.26206 0.9846 0.11419 0.0
C646 C 0.24943 0.96936 0.1168 0.0
N647 N 0.2769 0.9752 0.07637 0.0
C648 C 0.26456 0.96022 0.07876 0.0
Co649 Co 0.17049 0.41661 0.11799 0.0
Co650 Co 0.15478 0.38408 0.05255 0.0
O651 O 0.17185 0.40043 0.08575 0.0
C652 C 0.17996 0.40077 0.18075 0.0
O653 O 0.16848 0.38753 0.16586 0.0
C654 C 0.18065 0.40022 0.99143 0.0
O655 O 0.18215 0.4134 0.00594 0.0
O656 O 0.15031 0.39961 0.02485 0.0
O657 O 0.15866 0.41964 0.07105 0.0
H658 H 0.10041 0.35496 0.99115 0.0
H659 H 0.20142 0.41892 0.1048 0.0
O660 O 0.18235 0.41377 0.16559 0.0
H661 H 0.20604 0.46654 0.03964 0.0
H662 H 0.19172 0.46353 0.2148 0.0
H663 H 0.14567 0.42467 0.13383 0.0
H664 H 0.1815 0.44729 0.07481 0.0
H665 H 0.19299 0.44306 0.17272 0.0
O666 O 0.17002 0.38717 0.00627 0.0
H667 H 0.12192 0.37549 0.03378 0.0
H668 H 0.15182 0.35783 0.9987 0.0
H669 H 0.14392 0.44501 0.17522 0.0
H670 H 0.22621 0.43792 0.07023 0.0
H671 H 0.16706 0.46463 0.21608 0.0
H672 H 0.22861 0.4619 0.03721 0.0
O673 O 0.1503 0.40089 0.14434 0.0
H674 H 0.18952 0.36383 0.10528 0.0
H675 H 0.13507 0.35313 0.09451 0.0
H676 H 0.14045 0.3342 0.1312 0.0
H677 H 0.16785 0.33951 0.13676 0.0
H678 H 0.18361 0.38249 0.06916 0.0
H679 H 0.13068 0.33718 0.95539 0.0
H680 H 0.10473 0.33562 0.95157 0.0
O681 O 0.13933 0.38074 0.09824 0.0
C682 C 0.15181 0.41268 0.03671 0.0
C683 C 0.11165 0.35549 0.99267 0.0
C684 C 0.12864 0.34552 0.97255 0.0
N685 N 0.13806 0.36777 0.01899 0.0
C686 C 0.12385 0.36706 0.01686 0.0
C687 C 0.14058 0.35726 0.99705 0.0
C688 C 0.11408 0.34465 0.97044 0.0
C689 C 0.20243 0.42941 0.09091 0.0
N690 N 0.19006 0.43203 0.09205 0.0
C691 C 0.21647 0.44009 0.07121 0.0
C692 C 0.21781 0.45354 0.05263 0.0
C693 C 0.20514 0.45614 0.05396 0.0
C694 C 0.19127 0.44519 0.07386 0.0
C695 C 0.18157 0.45506 0.19707 0.0
C696 C 0.15582 0.43322 0.15134 0.0
C697 C 0.18221 0.44343 0.17326 0.0
N698 N 0.16945 0.43276 0.15062 0.0
C699 C 0.15474 0.44469 0.17481 0.0
C700 C 0.16773 0.45568 0.19776 0.0
C701 C 0.13898 0.38771 0.13208 0.0
C702 C 0.17753 0.36137 0.10298 0.0
C703 C 0.14702 0.35553 0.0969 0.0
C704 C 0.15 0.34476 0.11762 0.0
C705 C 0.16537 0.34774 0.12069 0.0
N706 N 0.159 0.36888 0.07963 0.0
C707 C 0.1741 0.37186 0.08242 0.0
Co708 Co 0.41616 0.31245 0.88467 0.0
Co709 Co 0.38301 0.29601 0.94787 0.0
O710 O 0.39954 0.29507 0.91624 0.0
C711 C 0.40032 0.28724 0.82142 0.0
O712 O 0.38704 0.28554 0.83573 0.0
C713 C 0.39881 0.2866 0.01102 0.0
O714 O 0.41207 0.29819 0.99666 0.0
O715 O 0.39837 0.3162 0.97527 0.0
O716 O 0.41925 0.32732 0.93162 0.0
H717 H 0.35345 0.32154 0.004 0.0
H718 H 0.41744 0.28335 0.89881 0.0
O719 O 0.4133 0.29774 0.83707 0.0
H720 H 0.46548 0.32554 0.96509 0.0
H721 H 0.46371 0.33742 0.79006 0.0
H722 H 0.42512 0.34556 0.86907 0.0
H723 H 0.44688 0.33149 0.92864 0.0
H724 H 0.4427 0.31586 0.83128 0.0
O725 O 0.38582 0.28412 0.99544 0.0
H726 H 0.37426 0.32034 0.96348 0.0
H727 H 0.35644 0.27307 0.00136 0.0
H728 H 0.44601 0.36747 0.82856 0.0
H729 H 0.43577 0.27688 0.93464 0.0
H730 H 0.4655 0.36346 0.78867 0.0
H731 H 0.45996 0.29806 0.96825 0.0
O732 O 0.4009 0.31742 0.85729 0.0
H733 H 0.36295 0.24074 0.89804 0.0
H734 H 0.35235 0.28459 0.90383 0.0
H735 H 0.33359 0.2601 0.86747 0.0
H736 H 0.33885 0.23795 0.86442 0.0
H737 H 0.38145 0.26549 0.9338 0.0
H738 H 0.3355 0.2738 0.04259 0.0
H739 H 0.33388 0.29815 0.04394 0.0
O740 O 0.38003 0.30787 0.90094 0.0
C741 C 0.41181 0.3275 0.96461 0.0
C742 C 0.354 0.31085 0.00356 0.0
C743 C 0.34395 0.28406 0.02527 0.0
N744 N 0.36649 0.29662 0.97983 0.0
C745 C 0.36573 0.31009 0.98057 0.0
C746 C 0.35585 0.28373 0.00196 0.0
C747 C 0.34304 0.29773 0.02599 0.0
C748 C 0.42802 0.29265 0.91299 0.0
N749 N 0.43111 0.30779 0.91151 0.0
C750 C 0.43832 0.28891 0.93339 0.0
C751 C 0.45188 0.30079 0.95229 0.0
C752 C 0.45498 0.31621 0.95056 0.0
C753 C 0.44439 0.31951 0.92997 0.0
C754 C 0.45531 0.33932 0.80736 0.0
C755 C 0.43361 0.34376 0.852 0.0
C756 C 0.44336 0.32715 0.83067 0.0
N757 N 0.43276 0.32949 0.85277 0.0
C758 C 0.44539 0.35619 0.82902 0.0
C759 C 0.45631 0.35393 0.80661 0.0
C760 C 0.38751 0.31543 0.86794 0.0
C761 C 0.36051 0.25029 0.89925 0.0
C762 C 0.35473 0.27503 0.90256 0.0
C763 C 0.34405 0.26117 0.88201 0.0
C764 C 0.347 0.24875 0.88034 0.0
N765 N 0.36795 0.27646 0.92104 0.0
C766 C 0.37091 0.26431 0.9196 0.0
Co767 Co 0.83553 0.15424 0.94888 0.0
Co768 Co 0.81952 0.16953 0.87958 0.0
O769 O 0.83677 0.17112 0.9138 0.0
C770 C 0.84591 0.18081 0.00792 0.0
O771 O 0.83435 0.18245 0.99301 0.0
C772 C 0.84553 0.1792 0.81902 0.0
O773 O 0.84719 0.16772 0.83432 0.0
O774 O 0.81572 0.14948 0.85385 0.0
O775 O 0.82301 0.13833 0.90452 0.0
H776 H 0.76534 0.1423 0.81659 0.0
H777 H 0.86651 0.18214 0.93112 0.0
O778 O 0.84804 0.16988 0.99398 0.0
H779 H 0.86967 0.13727 0.87344 0.0
H780 H 0.85722 0.13019 0.04989 0.0
H781 H 0.81049 0.12205 0.97064 0.0
H782 H 0.84563 0.13321 0.90918 0.0
H783 H 0.8584 0.15106 0.00406 0.0
O784 O 0.83474 0.18152 0.83317 0.0
H785 H 0.78703 0.14438 0.86068 0.0
H786 H 0.81585 0.19182 0.82335 0.0
H787 H 0.80882 0.10082 0.01585 0.0
H788 H 0.89081 0.18672 0.8959 0.0
H789 H 0.83231 0.10483 0.05586 0.0
H790 H 0.89248 0.16418 0.86664 0.0
O791 O 0.81578 0.1508 0.97575 0.0
H792 H 0.85268 0.2253 0.92822 0.0
H793 H 0.79896 0.18013 0.91971 0.0
H794 H 0.80345 0.20455 0.95402 0.0
H795 H 0.83047 0.22736 0.95841 0.0
H796 H 0.84768 0.20063 0.89448 0.0
H797 H 0.79451 0.19023 0.7786 0.0
H798 H 0.76901 0.16535 0.77516 0.0
O799 O 0.80405 0.15755 0.92535 0.0
C800 C 0.81666 0.13794 0.86884 0.0
C801 C 0.77638 0.15323 0.81794 0.0
C802 C 0.79276 0.18012 0.79657 0.0
N803 N 0.80263 0.16824 0.84486 0.0
C804 C 0.78868 0.15448 0.84294 0.0
C805 C 0.8048 0.18094 0.8219 0.0
C806 C 0.77845 0.16616 0.79467 0.0
C807 C 0.8672 0.17226 0.91887 0.0
N808 N 0.8547 0.15742 0.92242 0.0
C809 C 0.88097 0.17493 0.89879 0.0
C810 C 0.88189 0.16228 0.88232 0.0
C811 C 0.86909 0.14718 0.8861 0.0
C812 C 0.8555 0.14496 0.90631 0.0
C813 C 0.84692 0.12829 0.03254 0.0
C814 C 0.82079 0.12384 0.98775 0.0
C815 C 0.84751 0.14007 0.00661 0.0
N816 N 0.83456 0.13771 0.98443 0.0
C817 C 0.81976 0.1118 0.01339 0.0
C818 C 0.83294 0.11406 0.03587 0.0
C819 C 0.80408 0.1516 0.96137 0.0
C820 C 0.84085 0.21546 0.92638 0.0
C821 C 0.81075 0.19 0.92155 0.0
C822 C 0.81322 0.2038 0.94094 0.0
C823 C 0.82838 0.2166 0.94337 0.0
N824 N 0.82304 0.18898 0.90492 0.0
C825 C 0.83794 0.20148 0.90714 0.0
Co826 Co 0.96359 0.71709 0.882 0.0
Co827 Co 0.97934 0.74858 0.95075 0.0
O828 O 0.96218 0.73277 0.91654 0.0
C829 C 0.95313 0.73301 0.82225 0.0
O830 O 0.96464 0.74627 0.83698 0.0
C831 C 0.95324 0.73239 0.01113 0.0
O832 O 0.95158 0.71921 0.99613 0.0
O833 O 0.98315 0.73245 0.97714 0.0
O834 O 0.97609 0.71389 0.92686 0.0
H835 H 0.0334 0.77584 0.01445 0.0
H836 H 0.9325 0.71392 0.89899 0.0
O837 O 0.95108 0.72002 0.83647 0.0
H838 H 0.92953 0.66618 0.95809 0.0
H839 H 0.94228 0.6711 0.78183 0.0
H840 H 0.98878 0.71001 0.86124 0.0
H841 H 0.95358 0.68612 0.9224 0.0
H842 H 0.9409 0.69086 0.82698 0.0
O843 O 0.96403 0.74545 0.99682 0.0
H844 H 0.01182 0.75606 0.97039 0.0
H845 H 0.9828 0.77467 0.00616 0.0
H846 H 0.99064 0.69039 0.81673 0.0
H847 H 0.90818 0.69422 0.93413 0.0
H848 H 0.96727 0.67075 0.77665 0.0
H849 H 0.90661 0.67017 0.96411 0.0
O850 O 0.98335 0.73339 0.85514 0.0
H851 H 0.94607 0.77085 0.90034 0.0
H852 H 0.99987 0.77962 0.91017 0.0
H853 H 0.99533 0.79938 0.87507 0.0
H854 H 0.96827 0.79505 0.87 0.0
H855 H 0.95112 0.75135 0.93489 0.0
H856 H 0.00402 0.79458 0.05089 0.0
H857 H 0.02956 0.79529 0.05508 0.0
O858 O 0.9949 0.75197 0.90534 0.0
C859 C 0.98232 0.71996 0.96258 0.0
C860 C 0.02235 0.77569 0.01276 0.0
C861 C 0.00585 0.78619 0.03326 0.0
N862 N 0.99613 0.76431 0.98543 0.0
C863 C 0.0101 0.76454 0.98778 0.0
C864 C 0.99387 0.77488 0.00795 0.0
C865 C 0.02018 0.78658 0.03559 0.0
C866 C 0.93185 0.70341 0.91155 0.0
N867 N 0.94442 0.70114 0.90844 0.0
C868 C 0.91807 0.69232 0.93158 0.0
C869 C 0.91721 0.67884 0.94846 0.0
C870 C 0.93007 0.67661 0.94511 0.0
C871 C 0.94367 0.68795 0.92494 0.0
C872 C 0.95253 0.67958 0.79922 0.0
C873 C 0.97853 0.70144 0.84409 0.0
C874 C 0.95183 0.69081 0.82476 0.0
N875 N 0.96471 0.70148 0.84698 0.0
C876 C 0.97967 0.69039 0.81885 0.0
C877 C 0.96656 0.67938 0.79633 0.0
C878 C 0.99498 0.74594 0.86949 0.0
C879 C 0.95792 0.7729 0.90247 0.0
C880 C 0.98806 0.77765 0.90805 0.0
C881 C 0.98556 0.78889 0.8882 0.0
C882 C 0.97037 0.78646 0.8854 0.0
N883 N 0.97578 0.76438 0.92476 0.0
C884 C 0.96086 0.76192 0.92217 0.0
Co885 Co 0.38437 0.15398 0.45064 0.0
Co886 Co 0.41572 0.16998 0.38154 0.0
O887 O 0.39998 0.17119 0.41634 0.0
C888 C 0.40044 0.18018 0.51089 0.0
O889 O 0.41367 0.18194 0.49595 0.0
C890 C 0.39937 0.18007 0.32216 0.0
O891 O 0.38622 0.16844 0.33692 0.0
O892 O 0.3995 0.15014 0.35473 0.0
O893 O 0.38108 0.13845 0.40521 0.0
H894 H 0.44283 0.14347 0.31546 0.0
H895 H 0.38114 0.18191 0.43489 0.0
O896 O 0.3874 0.16927 0.49669 0.0
H897 H 0.33323 0.1373 0.37545 0.0
H898 H 0.33857 0.12894 0.55123 0.0
H899 H 0.37735 0.12168 0.47023 0.0
H900 H 0.35328 0.13312 0.41036 0.0
H901 H 0.35824 0.15023 0.50635 0.0
O902 O 0.41248 0.18234 0.33621 0.0
H903 H 0.42313 0.14507 0.36032 0.0
H904 H 0.44171 0.19282 0.32636 0.0
H905 H 0.35783 0.10005 0.51446 0.0
H906 H 0.36133 0.18659 0.40053 0.0
H907 H 0.33825 0.10361 0.55534 0.0
H908 H 0.3372 0.16419 0.37038 0.0
O909 O 0.40075 0.15046 0.47681 0.0
H910 H 0.43815 0.22528 0.43398 0.0
H911 H 0.44687 0.18032 0.42155 0.0
H912 H 0.46673 0.20446 0.4572 0.0
H913 H 0.46243 0.22716 0.46358 0.0
H914 H 0.41854 0.20088 0.39885 0.0
H915 H 0.46154 0.19171 0.28086 0.0
H916 H 0.46221 0.16691 0.27535 0.0
O917 O 0.4192 0.15762 0.42619 0.0
C918 C 0.38706 0.13843 0.36924 0.0
C919 C 0.44269 0.15435 0.31772 0.0
C920 C 0.45317 0.18142 0.29826 0.0
N921 N 0.43137 0.16906 0.34624 0.0
C922 C 0.43159 0.15534 0.34317 0.0
C923 C 0.44191 0.18198 0.324 0.0
C924 C 0.45355 0.16751 0.29519 0.0
C925 C 0.37059 0.17208 0.42225 0.0
N926 N 0.36833 0.15725 0.42484 0.0
C927 C 0.35945 0.17481 0.40266 0.0
C928 C 0.34592 0.16224 0.3857 0.0
C929 C 0.34369 0.14715 0.38851 0.0
C930 C 0.3551 0.14486 0.40825 0.0
C931 C 0.34702 0.12724 0.53349 0.0
C932 C 0.36881 0.12328 0.48773 0.0
C933 C 0.3582 0.13925 0.5081 0.0
N934 N 0.36884 0.13714 0.48544 0.0
C935 C 0.35781 0.11101 0.51281 0.0
C936 C 0.34685 0.11303 0.53577 0.0
C937 C 0.41325 0.15139 0.46198 0.0
C938 C 0.44018 0.21549 0.43127 0.0
C939 C 0.44491 0.19014 0.42424 0.0
C940 C 0.45621 0.20379 0.44439 0.0
C941 C 0.45379 0.21652 0.44793 0.0
N942 N 0.4316 0.18922 0.40794 0.0
C943 C 0.42915 0.20167 0.41125 0.0
Co944 Co 0.96286 0.31237 0.38262 0.0
Co945 Co 0.97881 0.29562 0.44743 0.0
O946 O 0.96163 0.29486 0.41462 0.0
C947 C 0.95329 0.28711 0.31957 0.0
O948 O 0.96475 0.28527 0.3342 0.0
C949 C 0.9531 0.28591 0.50908 0.0
O950 O 0.95153 0.29755 0.49471 0.0
O951 O 0.98331 0.31562 0.47529 0.0
O952 O 0.97477 0.32723 0.4295 0.0
H953 H 0.03336 0.32096 0.50773 0.0
H954 H 0.93202 0.28373 0.3961 0.0
O955 O 0.95093 0.2977 0.33504 0.0
H956 H 0.92739 0.32664 0.46214 0.0
H957 H 0.9413 0.338 0.28681 0.0
H958 H 0.9876 0.34525 0.36666 0.0
H959 H 0.95187 0.33198 0.42642 0.0
H960 H 0.94019 0.31628 0.32858 0.0
O961 O 0.9637 0.28349 0.49395 0.0
H962 H 0.0117 0.31992 0.46564 0.0
H963 H 0.98199 0.27241 0.50095 0.0
H964 H 0.98919 0.36732 0.32558 0.0
H965 H 0.90729 0.27788 0.43122 0.0
H966 H 0.96592 0.36376 0.28528 0.0
H967 H 0.90488 0.29942 0.46469 0.0
O968 O 0.98301 0.31687 0.35584 0.0
H969 H 0.94405 0.24061 0.395 0.0
H970 H 0.99848 0.28441 0.40489 0.0
H971 H 0.99307 0.26009 0.36811 0.0
H972 H 0.96568 0.23798 0.36301 0.0
H973 H 0.94999 0.26519 0.43118 0.0
H974 H 0.00328 0.27296 0.54372 0.0
H975 H 0.0292 0.29735 0.54714 0.0
O976 O 0.99413 0.30771 0.4015 0.0
C977 C 0.98172 0.32716 0.46365 0.0
C978 C 0.02213 0.31025 0.50637 0.0
C979 C 0.00524 0.28331 0.52662 0.0
N980 N 0.99565 0.29609 0.48059 0.0
C981 C 0.00984 0.30958 0.4825 0.0
C982 C 0.99322 0.28308 0.50244 0.0
C983 C 0.01978 0.297 0.52852 0.0
C984 C 0.931 0.29319 0.41019 0.0
N985 N 0.94334 0.30819 0.40898 0.0
C986 C 0.91699 0.2898 0.4302 0.0
C987 C 0.91566 0.30188 0.44903 0.0
C988 C 0.92829 0.31716 0.44763 0.0
C989 C 0.94213 0.32011 0.42741 0.0
C990 C 0.95151 0.3397 0.3043 0.0
C991 C 0.97739 0.34365 0.3494 0.0
C992 C 0.95096 0.32744 0.32793 0.0
N993 N 0.96378 0.32954 0.35026 0.0
C994 C 0.97838 0.35617 0.32611 0.0
C995 C 0.96533 0.35415 0.30347 0.0
C996 C 0.99438 0.31503 0.36776 0.0
C997 C 0.95604 0.25016 0.39709 0.0
C998 C 0.98654 0.27486 0.40268 0.0
C999 C 0.98354 0.2611 0.38192 0.0
C1000 C 0.96817 0.24869 0.3791 0.0
N1001 N 0.97457 0.27621 0.42023 0.0
C1002 C 0.95948 0.26408 0.41769 0.0
Co1003 Co 0.83662 0.74893 0.44859 0.0
Co1004 Co 0.82024 0.71661 0.38236 0.0
O1005 O 0.83759 0.73271 0.41545 0.0
C1006 C 0.84625 0.73283 0.51025 0.0
O1007 O 0.8347 0.71961 0.49552 0.0
C1008 C 0.84596 0.73255 0.32076 0.0
O1009 O 0.84772 0.74578 0.33566 0.0
O1010 O 0.81599 0.73242 0.35558 0.0
O1011 O 0.8247 0.7523 0.40242 0.0
H1012 H 0.76565 0.68845 0.32211 0.0
H1013 H 0.8672 0.75074 0.43313 0.0
O1014 O 0.84861 0.74585 0.49533 0.0
H1015 H 0.87242 0.79911 0.3715 0.0
H1016 H 0.85871 0.79558 0.54656 0.0
H1017 H 0.81211 0.75725 0.4664 0.0
H1018 H 0.84795 0.77999 0.40716 0.0
H1019 H 0.85956 0.77514 0.50329 0.0
O1020 O 0.83523 0.71954 0.33554 0.0
H1021 H 0.78747 0.70865 0.36463 0.0
H1022 H 0.81659 0.69027 0.32774 0.0
H1023 H 0.81078 0.77758 0.50898 0.0
H1024 H 0.89193 0.76961 0.39808 0.0
H1025 H 0.8342 0.79693 0.54945 0.0
H1026 H 0.89464 0.79397 0.3668 0.0
O1027 O 0.81651 0.73324 0.47552 0.0
H1028 H 0.85426 0.69513 0.43228 0.0
H1029 H 0.80022 0.68583 0.42472 0.0
H1030 H 0.80523 0.66647 0.46036 0.0
H1031 H 0.83242 0.67107 0.46429 0.0
H1032 H 0.84874 0.71424 0.3972 0.0
H1033 H 0.79512 0.66994 0.28455 0.0
H1034 H 0.76941 0.66891 0.28168 0.0
O1035 O 0.80505 0.71347 0.42847 0.0
C1036 C 0.81768 0.7455 0.36807 0.0
C1037 C 0.77678 0.68874 0.32321 0.0
C1038 C 0.79333 0.67837 0.30208 0.0
N1039 N 0.80324 0.70056 0.34891 0.0
C1040 C 0.78917 0.70013 0.34732 0.0
C1041 C 0.80545 0.68993 0.32652 0.0
C1042 C 0.7789 0.6778 0.3005 0.0
C1043 C 0.86833 0.76138 0.41995 0.0
N1044 N 0.85615 0.76427 0.42227 0.0
C1045 C 0.88235 0.77199 0.39999 0.0
C1046 C 0.88385 0.78565 0.3824 0.0
C1047 C 0.87139 0.78854 0.38499 0.0
C1048 C 0.85754 0.77764 0.40511 0.0
C1049 C 0.84844 0.78724 0.529 0.0
C1050 C 0.82238 0.76569 0.48371 0.0
C1051 C 0.84884 0.77561 0.50453 0.0
N1052 N 0.83593 0.76509 0.4821 0.0
C1053 C 0.82154 0.77715 0.50786 0.0
C1054 C 0.83468 0.78799 0.5306 0.0
C1055 C 0.80498 0.72025 0.46297 0.0
C1056 C 0.84236 0.69297 0.43065 0.0
C1057 C 0.81208 0.68792 0.42632 0.0
C1058 C 0.81485 0.6769 0.44649 0.0
C1059 C 0.8301 0.67949 0.44866 0.0
N1060 N 0.82416 0.70111 0.40869 0.0
C1061 C 0.83915 0.70371 0.41066 0.0
H1062 H 0.04194 0.51242 0.88359 0.0
H1063 H 0.04222 0.53091 0.93582 0.0
H1064 H 0.09276 0.55691 0.93191 0.0
H1065 H 0.09263 0.53858 0.87913 0.0
H1066 H 0.05637 0.53846 0.01628 0.0
H1067 H 0.08063 0.59062 0.91094 0.0
H1068 H 0.07279 0.57096 0.89067 0.0
H1069 H 0.09211 0.58109 0.91349 0.0
C1070 C 0.05313 0.52208 0.89372 0.0
C1071 C 0.06727 0.52405 0.87709 0.0
C1072 C 0.05326 0.53263 0.92361 0.0
C1073 C 0.06749 0.54538 0.93726 0.0
C1074 C 0.08164 0.5473 0.92116 0.0
H1075 H 0.09206 0.62049 0.11797 0.0
H1076 H 0.09195 0.60223 0.06518 0.0
C1077 C 0.08154 0.53675 0.89123 0.0
C1078 C 0.06747 0.5565 0.96894 0.0
H1079 H 0.0779 0.59481 0.98389 0.0
C1080 C 0.06102 0.55077 0.0092 0.0
C1081 C 0.07355 0.57254 0.95952 0.0
C1082 C 0.08004 0.57919 0.91621 0.0
C1083 C 0.06071 0.56073 0.04062 0.0
C1084 C 0.06678 0.57677 0.0312 0.0
C1085 C 0.07325 0.5825 0.99096 0.0
C1086 C 0.06668 0.58784 0.06286 0.0
C1087 C 0.0542 0.55408 0.08392 0.0
C1088 C 0.05248 0.58591 0.07857 0.0
C1089 C 0.05248 0.59632 0.10879 0.0
C1090 C 0.0667 0.6089 0.12363 0.0
C1091 C 0.0809 0.61091 0.10731 0.0
C1092 C 0.08087 0.6005 0.0771 0.0
H1093 H 0.05357 0.54263 0.08917 0.0
H1094 H 0.06147 0.5623 0.10947 0.0
H1095 H 0.04215 0.55223 0.08664 0.0
H1096 H 0.04139 0.57636 0.06739 0.0
H1097 H 0.04135 0.59446 0.12064 0.0
H1098 H 0.62027 0.5951 0.88297 0.0
H1099 H 0.60189 0.57692 0.93534 0.0
H1100 H 0.57565 0.6012 0.93143 0.0
H1101 H 0.59409 0.6196 0.87921 0.0
H1102 H 0.58188 0.59464 0.01436 0.0
H1103 H 0.55684 0.54177 0.91143 0.0
H1104 H 0.57786 0.55206 0.91529 0.0
H1105 H 0.56819 0.56137 0.8905 0.0
C1106 C 0.61058 0.59659 0.89316 0.0
C1107 C 0.60862 0.60879 0.87682 0.0
C1108 C 0.60004 0.58613 0.92292 0.0
C1109 C 0.58728 0.58757 0.93669 0.0
C1110 C 0.58539 0.59985 0.92097 0.0
H1111 H 0.51154 0.53734 0.11669 0.0
H1112 H 0.52974 0.55545 0.06388 0.0
C1113 C 0.59594 0.61035 0.89117 0.0
C1114 C 0.57608 0.57643 0.96813 0.0
H1115 H 0.54968 0.53772 0.98431 0.0
C1116 C 0.57477 0.58221 0.00777 0.0
C1117 C 0.56687 0.56022 0.95939 0.0
C1118 C 0.56736 0.55346 0.91673 0.0
C1119 C 0.56469 0.57215 0.03929 0.0
C1120 C 0.55548 0.55593 0.03055 0.0
C1121 C 0.55678 0.55015 0.9909 0.0
C1122 C 0.54432 0.54478 0.06206 0.0
C1123 C 0.56423 0.57891 0.08197 0.0
C1124 C 0.54624 0.5325 0.07762 0.0
C1125 C 0.53579 0.52204 0.10765 0.0
C1126 C 0.52319 0.52364 0.12242 0.0
C1127 C 0.52117 0.53582 0.10618 0.0
C1128 C 0.53161 0.54624 0.07617 0.0
H1129 H 0.57476 0.59059 0.08725 0.0
H1130 H 0.55375 0.58032 0.08347 0.0
H1131 H 0.56341 0.57099 0.10819 0.0
H1132 H 0.55595 0.53113 0.06691 0.0
H1133 H 0.53769 0.5128 0.11953 0.0
H1134 H 0.59553 0.04195 0.11713 0.0
H1135 H 0.57764 0.04248 0.06417 0.0
H1136 H 0.60208 0.09294 0.07018 0.0
H1137 H 0.62019 0.09258 0.12292 0.0
H1138 H 0.55781 0.05505 0.07303 0.0
H1139 H 0.60068 0.08401 0.94231 0.0
H1140 H 0.6048 0.07552 0.98789 0.0
H1141 H 0.60616 0.09435 0.99207 0.0
C1142 C 0.59719 0.05319 0.10704 0.0
C1143 C 0.60936 0.06724 0.12406 0.0
C1144 C 0.58693 0.05345 0.07681 0.0
C1145 C 0.58867 0.06774 0.06288 0.0
C1146 C 0.60074 0.0818 0.07991 0.0
H1147 H 0.53727 0.09277 0.88605 0.0
H1148 H 0.55516 0.09261 0.93966 0.0
C1149 C 0.61104 0.08156 0.11015 0.0
C1150 C 0.57755 0.06787 0.03141 0.0
H1151 H 0.57519 0.08025 0.93179 0.0
C1152 C 0.56158 0.06051 0.04208 0.0
C1153 C 0.58254 0.07502 0.99113 0.0
C1154 C 0.59945 0.08256 0.97737 0.0
C1155 C 0.55047 0.0603 0.01372 0.0
C1156 C 0.55546 0.06743 0.9734 0.0
C1157 C 0.57143 0.07482 0.96277 0.0
C1158 C 0.5443 0.06736 0.94171 0.0
C1159 C 0.53356 0.05275 0.02747 0.0
C1160 C 0.53233 0.0532 0.9249 0.0
C1161 C 0.52204 0.05323 0.8943 0.0
C1162 C 0.52363 0.06745 0.87978 0.0
C1163 C 0.53569 0.08161 0.89662 0.0
C1164 C 0.54594 0.08156 0.92722 0.0
H1165 H 0.53234 0.05144 0.06257 0.0
H1166 H 0.52815 0.0597 0.0166 0.0
H1167 H 0.52689 0.0409 0.01312 0.0
H1168 H 0.53107 0.04213 0.93505 0.0
H1169 H 0.51298 0.04213 0.8817 0.0
H1170 H 0.62152 0.09163 0.38688 0.0
H1171 H 0.60347 0.09149 0.44034 0.0
H1172 H 0.57619 0.0411 0.43299 0.0
H1173 H 0.59429 0.04106 0.37976 0.0
H1174 H 0.57126 0.07989 0.43173 0.0
H1175 H 0.58385 0.04935 0.56096 0.0
H1176 H 0.59651 0.0577 0.51543 0.0
H1177 H 0.57867 0.03918 0.51093 0.0
C1178 C 0.61175 0.08049 0.39679 0.0
C1179 C 0.60939 0.06634 0.37924 0.0
C1180 C 0.60144 0.08045 0.42732 0.0
C1181 C 0.58863 0.06628 0.441 0.0
C1182 C 0.58619 0.05214 0.42347 0.0
H1183 H 0.51231 0.04197 0.61686 0.0
H1184 H 0.5304 0.04212 0.56353 0.0
C1185 C 0.59652 0.05215 0.39294 0.0
C1186 C 0.57758 0.06641 0.47267 0.0
H1187 H 0.56253 0.05374 0.57186 0.0
C1188 C 0.56939 0.07423 0.46246 0.0
C1189 C 0.57516 0.059 0.51265 0.0
C1190 C 0.5841 0.05094 0.52594 0.0
C1191 C 0.55862 0.07463 0.49093 0.0
C1192 C 0.55622 0.06723 0.53092 0.0
C1193 C 0.56441 0.0594 0.54113 0.0
C1194 C 0.54515 0.06734 0.56259 0.0
C1195 C 0.54967 0.08266 0.47758 0.0
C1196 C 0.54752 0.08149 0.57994 0.0
C1197 C 0.53717 0.08147 0.61037 0.0
C1198 C 0.52433 0.06727 0.62419 0.0
C1199 C 0.52206 0.05312 0.60686 0.0
C1200 C 0.53239 0.05317 0.57641 0.0
H1201 H 0.54988 0.08419 0.44255 0.0
H1202 H 0.53727 0.07591 0.48819 0.0
H1203 H 0.55511 0.09444 0.49245 0.0
H1204 H 0.5575 0.09254 0.57032 0.0
H1205 H 0.53933 0.09256 0.62338 0.0
H1206 H 0.0407 0.59586 0.38623 0.0
H1207 H 0.04062 0.57794 0.43996 0.0
H1208 H 0.09108 0.6009 0.43385 0.0
H1209 H 0.09132 0.61906 0.38043 0.0
H1210 H 0.05195 0.55725 0.43219 0.0
H1211 H 0.08274 0.60032 0.56143 0.0
H1212 H 0.07458 0.60474 0.51561 0.0
H1213 H 0.09305 0.60525 0.51168 0.0
C1214 C 0.0518 0.59719 0.39648 0.0
C1215 C 0.06603 0.60896 0.37923 0.0
C1216 C 0.05172 0.58692 0.42716 0.0
C1217 C 0.06584 0.58823 0.44129 0.0
C1218 C 0.08007 0.59991 0.42403 0.0
H1219 H 0.09033 0.53601 0.61537 0.0
H1220 H 0.08999 0.55403 0.56268 0.0
C1221 C 0.08017 0.61023 0.39337 0.0
C1222 C 0.0656 0.57703 0.47307 0.0
H1223 H 0.07841 0.57462 0.57213 0.0
C1224 C 0.05766 0.56102 0.46289 0.0
C1225 C 0.07308 0.58202 0.51304 0.0
C1226 C 0.08123 0.599 0.52638 0.0
C1227 C 0.05725 0.54985 0.49133 0.0
C1228 C 0.06477 0.55484 0.53124 0.0
C1229 C 0.07267 0.57085 0.54147 0.0
C1230 C 0.06476 0.54366 0.5627 0.0
C1231 C 0.04909 0.53286 0.47802 0.0
C1232 C 0.05066 0.53193 0.5804 0.0
C1233 C 0.05079 0.52155 0.61049 0.0
C1234 C 0.06504 0.52282 0.62358 0.0
C1235 C 0.07914 0.53467 0.60593 0.0
C1236 C 0.07899 0.545 0.57585 0.0
H1237 H 0.04735 0.53151 0.44304 0.0
H1238 H 0.05588 0.52721 0.48821 0.0
H1239 H 0.03739 0.52656 0.49333 0.0
H1240 H 0.03958 0.5309 0.57129 0.0
H1241 H 0.03975 0.51265 0.62376 0.0
H1242 H 0.62011 0.59398 0.61931 0.0
H1243 H 0.60188 0.5758 0.56622 0.0
H1244 H 0.57641 0.60089 0.56667 0.0
H1245 H 0.59464 0.61921 0.61914 0.0
H1246 H 0.56919 0.55643 0.57284 0.0
H1247 H 0.58496 0.59881 0.44015 0.0
H1248 H 0.59711 0.6029 0.48678 0.0
H1249 H 0.5799 0.60482 0.48867 0.0
C1250 C 0.6107 0.5957 0.60788 0.0
C1251 C 0.60891 0.60812 0.62321 0.0
C1252 C 0.60028 0.58529 0.57764 0.0
C1253 C 0.58796 0.58716 0.56207 0.0
C1254 C 0.58605 0.59944 0.57761 0.0
H1255 H 0.51187 0.53659 0.38267 0.0
H1256 H 0.52979 0.55442 0.43682 0.0
C1257 C 0.59644 0.60986 0.60778 0.0
C1258 C 0.57683 0.57603 0.53038 0.0
H1259 H 0.56245 0.57375 0.43021 0.0
C1260 C 0.56776 0.56018 0.54156 0.0
C1261 C 0.57497 0.581 0.48969 0.0
C1262 C 0.58484 0.59778 0.47534 0.0
C1263 C 0.55666 0.54917 0.51335 0.0
C1264 C 0.5548 0.55414 0.47268 0.0
C1265 C 0.56387 0.57 0.4615 0.0
C1266 C 0.54369 0.54304 0.44091 0.0
C1267 C 0.5468 0.53238 0.52764 0.0
C1268 C 0.54567 0.53083 0.42509 0.0
C1269 C 0.53545 0.52062 0.39427 0.0
C1270 C 0.52311 0.52249 0.37849 0.0
C1271 C 0.52119 0.53477 0.39433 0.0
C1272 C 0.53143 0.54499 0.42518 0.0
H1273 H 0.5467 0.53134 0.56282 0.0
H1274 H 0.53453 0.52727 0.51623 0.0
H1275 H 0.55174 0.52535 0.51421 0.0
H1276 H 0.55525 0.52933 0.43616 0.0
H1277 H 0.53733 0.51135 0.38257 0.0
H1278 H 0.70696 0.84488 0.21809 0.0
H1279 H 0.70729 0.86334 0.27056 0.0
H1280 H 0.75785 0.88894 0.26772 0.0
H1281 H 0.75767 0.87065 0.21479 0.0
H1282 H 0.72143 0.87088 0.35155 0.0
H1283 H 0.74601 0.92284 0.24541 0.0
H1284 H 0.73798 0.90311 0.22544 0.0
H1285 H 0.75733 0.91314 0.24813 0.0
C1286 C 0.71817 0.85444 0.22857 0.0
C1287 C 0.7323 0.85632 0.21216 0.0
C1288 C 0.71832 0.86496 0.25857 0.0
C1289 C 0.73258 0.87761 0.27251 0.0
C1290 C 0.74672 0.87941 0.25674 0.0
H1291 H 0.75787 0.95327 0.4516 0.0
H1292 H 0.75754 0.93475 0.39932 0.0
C1293 C 0.74659 0.86888 0.22672 0.0
C1294 C 0.73262 0.8888 0.30396 0.0
H1295 H 0.74339 0.92723 0.31828 0.0
C1296 C 0.72617 0.88319 0.34429 0.0
C1297 C 0.73882 0.90484 0.29427 0.0
C1298 C 0.74531 0.91137 0.25086 0.0
C1299 C 0.726 0.89327 0.37555 0.0
C1300 C 0.73221 0.90931 0.36586 0.0
C1301 C 0.73865 0.91492 0.32553 0.0
C1302 C 0.73225 0.92051 0.3973 0.0
C1303 C 0.7195 0.88675 0.41895 0.0
C1304 C 0.71811 0.91873 0.41298 0.0
C1305 C 0.71824 0.92929 0.44289 0.0
C1306 C 0.73253 0.94186 0.45742 0.0
C1307 C 0.74666 0.94371 0.44113 0.0
C1308 C 0.74651 0.93315 0.41124 0.0
H1309 H 0.71879 0.87527 0.4244 0.0
H1310 H 0.72684 0.895 0.44437 0.0
H1311 H 0.70749 0.88499 0.42167 0.0
H1312 H 0.70698 0.9092 0.402 0.0
H1313 H 0.70715 0.92755 0.45474 0.0
H1314 H 0.17888 0.87101 0.44865 0.0
H1315 H 0.19711 0.889 0.39567 0.0
H1316 H 0.22341 0.86479 0.40015 0.0
H1317 H 0.20514 0.84659 0.45288 0.0
H1318 H 0.22952 0.90893 0.40406 0.0
H1319 H 0.21551 0.86627 0.27259 0.0
H1320 H 0.20301 0.86206 0.31845 0.0
H1321 H 0.22055 0.86076 0.322 0.0
C1322 C 0.18848 0.86943 0.4382 0.0
C1323 C 0.1905 0.8573 0.45479 0.0
C1324 C 0.19889 0.87974 0.40797 0.0
C1325 C 0.21147 0.87809 0.3936 0.0
C1326 C 0.21359 0.86606 0.41021 0.0
H1327 H 0.28783 0.92949 0.21752 0.0
H1328 H 0.26968 0.91163 0.27082 0.0
C1329 C 0.20316 0.85571 0.44045 0.0
C1330 C 0.22261 0.88927 0.36212 0.0
H1331 H 0.23727 0.89174 0.26234 0.0
C1332 C 0.23119 0.90521 0.37299 0.0
C1333 C 0.22474 0.88433 0.32168 0.0
C1334 C 0.21538 0.86745 0.3077 0.0
C1335 C 0.24206 0.91634 0.3447 0.0
C1336 C 0.24419 0.91141 0.30428 0.0
C1337 C 0.23561 0.89547 0.29341 0.0
C1338 C 0.25534 0.92257 0.27279 0.0
C1339 C 0.25142 0.93323 0.35867 0.0
C1340 C 0.25323 0.93458 0.25606 0.0
C1341 C 0.26361 0.94486 0.22561 0.0
C1342 C 0.27623 0.94321 0.2112 0.0
C1343 C 0.27827 0.93112 0.22799 0.0
C1344 C 0.26789 0.92088 0.25842 0.0
H1345 H 0.25127 0.93442 0.39378 0.0
H1346 H 0.26379 0.93861 0.34797 0.0
H1347 H 0.24627 0.93992 0.34429 0.0
H1348 H 0.24342 0.93588 0.26613 0.0
H1349 H 0.26163 0.95395 0.21304 0.0
H1350 H 0.26239 0.375 0.45212 0.0
H1351 H 0.24436 0.37524 0.39915 0.0
H1352 H 0.2692 0.42575 0.40183 0.0
H1353 H 0.28723 0.42566 0.4553 0.0
H1354 H 0.23628 0.41176 0.40823 0.0
H1355 H 0.2534 0.38723 0.27307 0.0
H1356 H 0.24849 0.3758 0.32091 0.0
H1357 H 0.26539 0.39513 0.32005 0.0
C1358 C 0.2641 0.38618 0.4413 0.0
C1359 C 0.27631 0.40033 0.45777 0.0
C1360 C 0.25382 0.38629 0.41085 0.0
C1361 C 0.2556 0.40051 0.39615 0.0
C1362 C 0.26771 0.41465 0.41262 0.0
H1363 H 0.20435 0.426 0.21965 0.0
H1364 H 0.2224 0.42587 0.27271 0.0
C1365 C 0.27802 0.41457 0.44307 0.0
C1366 C 0.24449 0.4006 0.36459 0.0
H1367 H 0.23066 0.38943 0.26357 0.0
C1368 C 0.23509 0.40696 0.37651 0.0
C1369 C 0.24296 0.39427 0.32334 0.0
C1370 C 0.25318 0.38784 0.30831 0.0
C1371 C 0.22398 0.40692 0.34846 0.0
C1372 C 0.22244 0.40057 0.30722 0.0
C1373 C 0.23185 0.39423 0.29529 0.0
C1374 C 0.21129 0.40061 0.27569 0.0
C1375 C 0.21375 0.41335 0.36349 0.0
C1376 C 0.19924 0.38644 0.25917 0.0
C1377 C 0.18892 0.38646 0.22865 0.0
C1378 C 0.19056 0.40067 0.21393 0.0
C1379 C 0.20269 0.41484 0.23048 0.0
C1380 C 0.21298 0.4148 0.26099 0.0
H1381 H 0.21353 0.41396 0.39874 0.0
H1382 H 0.21844 0.42539 0.3509 0.0
H1383 H 0.20154 0.40605 0.35177 0.0
H1384 H 0.19782 0.37536 0.26995 0.0
H1385 H 0.17976 0.37534 0.21636 0.0
H1386 H 0.2059 0.42581 0.95631 0.0
H1387 H 0.22407 0.426 0.90289 0.0
H1388 H 0.19852 0.37549 0.90003 0.0
H1389 H 0.18021 0.37514 0.95293 0.0
H1390 H 0.24313 0.41214 0.90881 0.0
H1391 H 0.20122 0.38751 0.77406 0.0
H1392 H 0.19717 0.39534 0.8212 0.0
H1393 H 0.19481 0.37605 0.82186 0.0
C1394 C 0.20406 0.41474 0.94407 0.0
C1395 C 0.19154 0.40046 0.95867 0.0
C1396 C 0.21448 0.41488 0.91365 0.0
C1397 C 0.21249 0.40077 0.8971 0.0
C1398 C 0.20007 0.38651 0.91178 0.0
H1399 H 0.263 0.37587 0.71637 0.0
H1400 H 0.24506 0.37583 0.77029 0.0
C1401 C 0.18967 0.38635 0.9422 0.0
C1402 C 0.22367 0.40092 0.86538 0.0
H1403 H 0.22618 0.38979 0.76422 0.0
C1404 C 0.23946 0.40734 0.87711 0.0
C1405 C 0.21881 0.39459 0.82414 0.0
C1406 C 0.20211 0.3881 0.8093 0.0
C1407 C 0.2505 0.40735 0.84888 0.0
C1408 C 0.24563 0.401 0.80766 0.0
C1409 C 0.22984 0.3946 0.79592 0.0
C1410 C 0.25678 0.40107 0.77596 0.0
C1411 C 0.2672 0.41384 0.8637 0.0
C1412 C 0.26922 0.41528 0.76111 0.0
C1413 C 0.2795 0.41536 0.7304 0.0
C1414 C 0.27747 0.4012 0.7138 0.0
C1415 C 0.26495 0.38697 0.72869 0.0
C1416 C 0.25467 0.38692 0.7594 0.0
H1417 H 0.26811 0.41448 0.89894 0.0
H1418 H 0.27213 0.40658 0.85188 0.0
H1419 H 0.2745 0.42588 0.85103 0.0
H1420 H 0.27086 0.42634 0.77287 0.0
H1421 H 0.28895 0.42653 0.71945 0.0
H1422 H 0.7574 0.87098 0.9534 0.0
H1423 H 0.75712 0.88917 0.9012 0.0
H1424 H 0.70655 0.86337 0.90064 0.0
H1425 H 0.70668 0.84519 0.9534 0.0
H1426 H 0.74396 0.88284 0.81957 0.0
H1427 H 0.71703 0.90862 0.92328 0.0
H1428 H 0.72515 0.8971 0.944 0.0
H1429 H 0.70611 0.88763 0.91943 0.0
C1430 C 0.7462 0.86916 0.94226 0.0
C1431 C 0.73205 0.85665 0.95767 0.0
C1432 C 0.74607 0.87957 0.9124 0.0
C1433 C 0.73183 0.87774 0.89755 0.0
C1434 C 0.71767 0.86515 0.91234 0.0
H1435 H 0.70706 0.92781 0.71629 0.0
H1436 H 0.7073 0.90971 0.76889 0.0
C1437 C 0.71777 0.85472 0.94226 0.0
C1438 C 0.73184 0.88891 0.86606 0.0
H1439 H 0.72043 0.91605 0.8507 0.0
C1440 C 0.73887 0.89015 0.82637 0.0
C1441 C 0.7252 0.89842 0.87514 0.0
C1442 C 0.71806 0.89802 0.91789 0.0
C1443 C 0.7392 0.90047 0.79515 0.0
C1444 C 0.73256 0.90998 0.80422 0.0
C1445 C 0.72552 0.90874 0.84391 0.0
C1446 C 0.73259 0.92115 0.77272 0.0
C1447 C 0.74634 0.90086 0.7524 0.0
C1448 C 0.74675 0.93372 0.75793 0.0
C1449 C 0.74668 0.9441 0.72778 0.0
C1450 C 0.73242 0.94213 0.71214 0.0
C1451 C 0.71825 0.92966 0.7276 0.0
C1452 C 0.71835 0.9193 0.75769 0.0
H1453 H 0.74737 0.89027 0.74701 0.0
H1454 H 0.73925 0.90179 0.72628 0.0
H1455 H 0.75829 0.91126 0.75086 0.0
H1456 H 0.75787 0.93552 0.76976 0.0
H1457 H 0.75779 0.95361 0.71662 0.0
H1458 H 0.2619 0.95379 0.94994 0.0
H1459 H 0.24371 0.93535 0.89748 0.0
H1460 H 0.26835 0.90946 0.90096 0.0
H1461 H 0.28653 0.92774 0.9539 0.0
H1462 H 0.25037 0.9278 0.81669 0.0
H1463 H 0.22243 0.87575 0.92244 0.0
H1464 H 0.23421 0.89544 0.94258 0.0
H1465 H 0.24345 0.88534 0.92004 0.0
C1466 C 0.26346 0.94416 0.93964 0.0
C1467 C 0.27565 0.9422 0.9562 0.0
C1468 C 0.25305 0.93366 0.90963 0.0
C1469 C 0.25456 0.92094 0.89583 0.0
C1470 C 0.26682 0.91905 0.91182 0.0
H1471 H 0.20404 0.84561 0.71586 0.0
H1472 H 0.22216 0.86396 0.76859 0.0
C1473 C 0.27726 0.92956 0.94184 0.0
C1474 C 0.24341 0.90982 0.8642 0.0
H1475 H 0.21549 0.87148 0.84949 0.0
C1476 C 0.2427 0.9155 0.82385 0.0
C1477 C 0.23343 0.89379 0.87375 0.0
C1478 C 0.23326 0.88719 0.91715 0.0
C1479 C 0.23244 0.9055 0.79245 0.0
C1480 C 0.22245 0.88947 0.80199 0.0
C1481 C 0.22317 0.88379 0.84234 0.0
C1482 C 0.2113 0.87835 0.77035 0.0
C1483 C 0.23261 0.91209 0.74903 0.0
C1484 C 0.19905 0.88026 0.75436 0.0
C1485 C 0.18865 0.86979 0.72418 0.0
C1486 C 0.1903 0.85719 0.70966 0.0
C1487 C 0.20246 0.8552 0.72628 0.0
C1488 C 0.21282 0.86566 0.75644 0.0
H1489 H 0.24344 0.92353 0.74375 0.0
H1490 H 0.23167 0.90384 0.72361 0.0
H1491 H 0.22242 0.91395 0.74612 0.0
H1492 H 0.19751 0.88983 0.7653 0.0
H1493 H 0.1794 0.87164 0.71209 0.0
H1494 H 0.37497 0.26181 0.78585 0.0
H1495 H 0.37518 0.24365 0.73304 0.0
H1496 H 0.4257 0.27032 0.72931 0.0
H1497 H 0.42566 0.28841 0.78232 0.0
H1498 H 0.38781 0.24983 0.65031 0.0
H1499 H 0.4165 0.22561 0.75292 0.0
H1500 H 0.40809 0.23682 0.77393 0.0
H1501 H 0.42702 0.24659 0.74885 0.0
C1502 C 0.38613 0.26383 0.77376 0.0
C1503 C 0.4003 0.27652 0.78843 0.0
C1504 C 0.38622 0.25344 0.74363 0.0
C1505 C 0.40046 0.25551 0.72785 0.0
C1506 C 0.4146 0.26833 0.74179 0.0
H1507 H 0.42589 0.20594 0.54492 0.0
H1508 H 0.42584 0.22441 0.59694 0.0
C1509 C 0.41453 0.27871 0.77192 0.0
C1510 C 0.40054 0.24437 0.69637 0.0
H1511 H 0.41332 0.21833 0.68011 0.0
C1512 C 0.39332 0.24288 0.65684 0.0
C1513 C 0.40778 0.23537 0.70504 0.0
C1514 C 0.41517 0.23603 0.74761 0.0
C1515 C 0.39335 0.23279 0.62539 0.0
C1516 C 0.40059 0.22379 0.63406 0.0
C1517 C 0.40783 0.22529 0.67357 0.0
C1518 C 0.40058 0.21257 0.60273 0.0
C1519 C 0.38593 0.23209 0.58285 0.0
C1520 C 0.3864 0.19967 0.58934 0.0
C1521 C 0.38637 0.18911 0.5597 0.0
C1522 C 0.40056 0.19119 0.54311 0.0
C1523 C 0.41477 0.204 0.55709 0.0
C1524 C 0.41477 0.21457 0.58676 0.0
H1525 H 0.38458 0.2425 0.5775 0.0
H1526 H 0.39299 0.23128 0.55651 0.0
H1527 H 0.37409 0.22151 0.58169 0.0
H1528 H 0.37534 0.19775 0.60195 0.0
H1529 H 0.37522 0.17933 0.54979 0.0
H1530 H 0.84495 0.2036 0.77957 0.0
H1531 H 0.86329 0.22145 0.72655 0.0
H1532 H 0.8894 0.19705 0.73212 0.0
H1533 H 0.87101 0.179 0.78493 0.0
H1534 H 0.89581 0.24126 0.73522 0.0
H1535 H 0.88157 0.19835 0.60426 0.0
H1536 H 0.86903 0.19431 0.64995 0.0
H1537 H 0.88647 0.19287 0.65394 0.0
C1538 C 0.85453 0.20194 0.76936 0.0
C1539 C 0.85646 0.1898 0.78629 0.0
C1540 C 0.86501 0.21218 0.7391 0.0
C1541 C 0.87757 0.21044 0.72503 0.0
C1542 C 0.87959 0.1984 0.74196 0.0
H1543 H 0.95381 0.26145 0.54774 0.0
H1544 H 0.93569 0.24358 0.60115 0.0
C1545 C 0.86911 0.18813 0.77225 0.0
C1546 C 0.88877 0.22152 0.69348 0.0
H1547 H 0.90333 0.22377 0.59367 0.0
C1548 C 0.89743 0.23747 0.70419 0.0
C1549 C 0.89084 0.2165 0.65312 0.0
C1550 C 0.8814 0.1996 0.63933 0.0
C1551 C 0.90832 0.24853 0.6758 0.0
C1552 C 0.91037 0.24352 0.63539 0.0
C1553 C 0.90173 0.22757 0.62471 0.0
C1554 C 0.92147 0.25463 0.60368 0.0
C1555 C 0.91777 0.26543 0.68964 0.0
C1556 C 0.91939 0.26669 0.58717 0.0
C1557 C 0.92974 0.27697 0.55669 0.0
C1558 C 0.9423 0.27528 0.54198 0.0
C1559 C 0.94429 0.26311 0.55845 0.0
C1560 C 0.93394 0.25287 0.58894 0.0
H1561 H 0.91775 0.26664 0.72476 0.0
H1562 H 0.93011 0.27077 0.67861 0.0
H1563 H 0.9126 0.27213 0.67551 0.0
H1564 H 0.90964 0.26805 0.59749 0.0
H1565 H 0.9278 0.28612 0.54437 0.0
H1566 H 0.95271 0.75835 0.78809 0.0
H1567 H 0.9342 0.75818 0.73574 0.0
H1568 H 0.91053 0.70773 0.73089 0.0
H1569 H 0.9288 0.70773 0.7834 0.0
H1570 H 0.92801 0.74566 0.6527 0.0
H1571 H 0.8748 0.71677 0.75405 0.0
H1572 H 0.89439 0.72521 0.77552 0.0
H1573 H 0.88537 0.70634 0.75018 0.0
C1574 C 0.94356 0.74722 0.77591 0.0
C1575 C 0.9422 0.73305 0.79002 0.0
C1576 C 0.933 0.74715 0.74604 0.0
C1577 C 0.92086 0.73293 0.72999 0.0
C1578 C 0.91961 0.7188 0.74356 0.0
H1579 H 0.84635 0.70742 0.5451 0.0
H1580 H 0.86466 0.70751 0.59804 0.0
C1581 C 0.93014 0.71885 0.7734 0.0
C1582 C 0.9097 0.73288 0.69834 0.0
H1583 H 0.87088 0.72 0.68113 0.0
C1584 C 0.91553 0.74013 0.65894 0.0
C1585 C 0.89342 0.72559 0.70661 0.0
C1586 C 0.8866 0.71815 0.749 0.0
C1587 C 0.90547 0.74006 0.62722 0.0
C1588 C 0.88919 0.73279 0.6355 0.0
C1589 C 0.88336 0.72553 0.67489 0.0
C1590 C 0.87804 0.73276 0.60383 0.0
C1591 C 0.9123 0.74749 0.58482 0.0
C1592 C 0.87937 0.74691 0.59016 0.0
C1593 C 0.86897 0.74691 0.55997 0.0
C1594 C 0.85695 0.73273 0.54312 0.0
C1595 C 0.85547 0.71854 0.55745 0.0
C1596 C 0.86592 0.71856 0.58765 0.0
H1597 H 0.92408 0.74883 0.57975 0.0
H1598 H 0.90449 0.74044 0.5583 0.0
H1599 H 0.91357 0.75932 0.58365 0.0
H1600 H 0.88845 0.75797 0.60292 0.0
H1601 H 0.87038 0.75804 0.54984 0.0
H1602 H 0.87163 0.75796 0.28658 0.0
H1603 H 0.88978 0.75792 0.23352 0.0
H1604 H 0.8629 0.70748 0.22756 0.0
H1605 H 0.84481 0.70735 0.2809 0.0
H1606 H 0.89515 0.71938 0.23582 0.0
H1607 H 0.88203 0.74921 0.10581 0.0
H1608 H 0.88719 0.75957 0.15554 0.0
H1609 H 0.86946 0.74094 0.15153 0.0
C1610 C 0.86951 0.74686 0.27375 0.0
C1611 C 0.85672 0.73266 0.28781 0.0
C1612 C 0.87985 0.74687 0.24331 0.0
C1613 C 0.87754 0.73271 0.22619 0.0
C1614 C 0.86484 0.71853 0.24025 0.0
H1615 H 0.92747 0.70686 0.04462 0.0
H1616 H 0.90914 0.70674 0.09735 0.0
C1617 C 0.8545 0.7185 0.2707 0.0
C1618 C 0.88862 0.73261 0.19455 0.0
H1619 H 0.90361 0.74518 0.09525 0.0
C1620 C 0.89696 0.72495 0.20499 0.0
C1621 C 0.89095 0.73991 0.15443 0.0
C1622 C 0.88184 0.74776 0.14087 0.0
C1623 C 0.9078 0.72464 0.17662 0.0
C1624 C 0.91013 0.73195 0.13652 0.0
C1625 C 0.90178 0.73959 0.12606 0.0
C1626 C 0.92129 0.73194 0.10499 0.0
C1627 C 0.91691 0.7168 0.1902 0.0
C1628 C 0.934 0.74616 0.09122 0.0
C1629 C 0.94444 0.74628 0.06097 0.0
C1630 C 0.94232 0.73217 0.04378 0.0
C1631 C 0.92952 0.71793 0.05751 0.0
C1632 C 0.91907 0.71782 0.08776 0.0
H1633 H 0.91667 0.71528 0.22524 0.0
H1634 H 0.91162 0.70502 0.17535 0.0
H1635 H 0.92931 0.72367 0.17971 0.0
H1636 H 0.93587 0.75717 0.104 0.0
H1637 H 0.95415 0.75746 0.05102 0.0
H1638 H 0.42438 0.2049 0.28414 0.0
H1639 H 0.42391 0.22304 0.23209 0.0
H1640 H 0.37335 0.19785 0.23492 0.0
H1641 H 0.37367 0.17972 0.2875 0.0
H1642 H 0.40996 0.21637 0.15132 0.0
H1643 H 0.38467 0.24343 0.25635 0.0
H1644 H 0.39276 0.23184 0.27671 0.0
H1645 H 0.3735 0.22242 0.25353 0.0
C1646 C 0.41314 0.20321 0.27381 0.0
C1647 C 0.39905 0.19087 0.29006 0.0
C1648 C 0.41291 0.21359 0.24403 0.0
C1649 C 0.39861 0.21191 0.23012 0.0
C1650 C 0.38452 0.19952 0.24587 0.0
H1651 H 0.37355 0.262 0.04906 0.0
H1652 H 0.37373 0.2439 0.10188 0.0
C1653 C 0.38473 0.18911 0.27569 0.0
C1654 C 0.39851 0.22298 0.1985 0.0
H1655 H 0.3875 0.25045 0.18349 0.0
C1656 C 0.4051 0.22387 0.15835 0.0
C1657 C 0.39215 0.23273 0.20785 0.0
C1658 C 0.38549 0.23271 0.25105 0.0
C1659 C 0.4053 0.23408 0.12697 0.0
C1660 C 0.39897 0.24384 0.13634 0.0
C1661 C 0.39235 0.24294 0.17647 0.0
C1662 C 0.39901 0.255 0.10479 0.0
C1663 C 0.41198 0.2341 0.08379 0.0
C1664 C 0.41319 0.26738 0.08944 0.0
C1665 C 0.41315 0.27775 0.05922 0.0
C1666 C 0.39891 0.27596 0.04401 0.0
C1667 C 0.38473 0.26369 0.06002 0.0
C1668 C 0.38479 0.25334 0.09024 0.0
H1669 H 0.41276 0.22337 0.07845 0.0
H1670 H 0.40473 0.23502 0.05811 0.0
H1671 H 0.42399 0.24437 0.08138 0.0
H1672 H 0.4243 0.26902 0.10087 0.0
H1673 H 0.42428 0.28709 0.04761 0.0
H1674 H 0.95323 0.26179 0.28352 0.0
H1675 H 0.93513 0.24398 0.22971 0.0
H1676 H 0.91128 0.27064 0.22639 0.0
H1677 H 0.92918 0.2884 0.28045 0.0
H1678 H 0.8911 0.23834 0.23326 0.0
H1679 H 0.93401 0.25249 0.10253 0.0
H1680 H 0.93934 0.24712 0.15172 0.0
H1681 H 0.93826 0.26477 0.14892 0.0
C1682 C 0.94422 0.26395 0.27111 0.0
C1683 C 0.9427 0.27656 0.28612 0.0
C1684 C 0.93393 0.25379 0.24024 0.0
C1685 C 0.92202 0.25614 0.22366 0.0
C1686 C 0.92045 0.26868 0.23865 0.0
H1687 H 0.8461 0.20652 0.04174 0.0
H1688 H 0.86436 0.22486 0.09446 0.0
C1689 C 0.93071 0.27883 0.26951 0.0
C1690 C 0.91085 0.24522 0.19169 0.0
H1691 H 0.90847 0.23083 0.09155 0.0
C1692 C 0.89487 0.23674 0.20218 0.0
C1693 C 0.91584 0.24318 0.15124 0.0
C1694 C 0.93277 0.25246 0.13765 0.0
C1695 C 0.88374 0.22601 0.17354 0.0
C1696 C 0.88873 0.22394 0.13313 0.0
C1697 C 0.9047 0.23245 0.1226 0.0
C1698 C 0.87758 0.21284 0.10143 0.0
C1699 C 0.8668 0.21672 0.18713 0.0
C1700 C 0.87917 0.20022 0.08729 0.0
C1701 C 0.86883 0.18977 0.05708 0.0
C1702 C 0.85672 0.19181 0.04029 0.0
C1703 C 0.85521 0.20455 0.05431 0.0
C1704 C 0.86559 0.215 0.08455 0.0
H1705 H 0.86553 0.21685 0.22221 0.0
H1706 H 0.86017 0.22192 0.17257 0.0
H1707 H 0.86139 0.20436 0.17633 0.0
H1708 H 0.8884 0.1984 0.09981 0.0
H1709 H 0.87035 0.18012 0.04689 0.0
H1710 H 0.06546 0.66947 0.36089 0.0
H1711 H 0.0772 0.69426 0.39979 0.0
H1712 H 0.1211 0.70943 0.33511 0.0
H1713 H 0.10932 0.68502 0.29489 0.0
H1714 H 0.10083 0.70764 0.45385 0.0
H1715 H 0.11498 0.74598 0.31303 0.0
H1716 H 0.10279 0.72498 0.30975 0.0
H1717 H 0.12384 0.73394 0.31012 0.0
C1718 C 0.07762 0.67807 0.35494 0.0
C1719 C 0.08641 0.67528 0.32452 0.0
C1720 C 0.08431 0.69225 0.37718 0.0
C1721 C 0.09992 0.70387 0.36964 0.0
C1722 C 0.10888 0.70087 0.34048 0.0
H1723 H 0.15684 0.78098 0.53908 0.0
H1724 H 0.1443 0.75662 0.49865 0.0
C1725 C 0.10216 0.68681 0.31779 0.0
C1726 C 0.10692 0.71901 0.39277 0.0
H1727 H 0.12693 0.75866 0.37853 0.0
C1728 C 0.10644 0.7188 0.43737 0.0
C1729 C 0.11396 0.73358 0.37126 0.0
C1730 C 0.11378 0.73466 0.32341 0.0
C1731 C 0.11314 0.73273 0.46108 0.0
C1732 C 0.12099 0.74729 0.4396 0.0
C1733 C 0.12112 0.74751 0.39499 0.0
C1734 C 0.12911 0.76242 0.46281 0.0
C1735 C 0.11146 0.73166 0.50885 0.0
C1736 C 0.12532 0.77414 0.45464 0.0
C1737 C 0.13276 0.78829 0.47704 0.0
C1738 C 0.14407 0.79094 0.50823 0.0
C1739 C 0.1481 0.77931 0.51558 0.0
C1740 C 0.14082 0.76528 0.49276 0.0
H1741 H 0.10117 0.72039 0.51883 0.0
H1742 H 0.12207 0.73227 0.52306 0.0
H1743 H 0.11016 0.74141 0.52195 0.0
H1744 H 0.11641 0.77224 0.43141 0.0
H1745 H 0.12936 0.79698 0.47059 0.0
H1746 H 0.44757 0.49012 0.29436 0.0
H1747 H 0.42347 0.47796 0.33585 0.0
H1748 H 0.43862 0.44912 0.39994 0.0
H1749 H 0.46309 0.46164 0.35955 0.0
H1750 H 0.40061 0.44818 0.33772 0.0
H1751 H 0.42605 0.4661 0.49923 0.0
H1752 H 0.43747 0.47435 0.45168 0.0
H1753 H 0.43353 0.45549 0.47056 0.0
C1754 C 0.44591 0.48133 0.31762 0.0
C1755 C 0.45736 0.47697 0.32385 0.0
C1756 C 0.43207 0.47434 0.34124 0.0
C1757 C 0.42931 0.46277 0.37143 0.0
C1758 C 0.44066 0.4583 0.3776 0.0
H1759 H 0.33628 0.39889 0.47434 0.0
H1760 H 0.36066 0.41055 0.43361 0.0
C1761 C 0.45462 0.46543 0.35433 0.0
C1762 C 0.41432 0.45512 0.39529 0.0
H1763 H 0.39882 0.4476 0.49527 0.0
C1764 C 0.40021 0.44808 0.37218 0.0
C1765 C 0.41382 0.45516 0.44024 0.0
C1766 C 0.42852 0.46331 0.46691 0.0
C1767 C 0.38562 0.4411 0.39274 0.0
C1768 C 0.38512 0.44075 0.4377 0.0
C1769 C 0.39922 0.44777 0.4608 0.0
C1770 C 0.37013 0.43362 0.46157 0.0
C1771 C 0.37093 0.4346 0.36605 0.0
C1772 C 0.36748 0.4426 0.49151 0.0
C1773 C 0.35369 0.43591 0.51533 0.0
C1774 C 0.34218 0.4201 0.50954 0.0
C1775 C 0.34479 0.41115 0.47923 0.0
C1776 C 0.35871 0.41782 0.45576 0.0
H1777 H 0.37344 0.43975 0.33361 0.0
H1778 H 0.36581 0.42175 0.36269 0.0
H1779 H 0.36204 0.43685 0.38108 0.0
H1780 H 0.37614 0.45481 0.4966 0.0
H1781 H 0.35211 0.44316 0.53844 0.0
H1782 H 0.68927 0.97424 0.53877 0.0
H1783 H 0.67702 0.98598 0.49674 0.0
H1784 H 0.72103 0.01546 0.43341 0.0
H1785 H 0.73324 0.00328 0.4741 0.0
H1786 H 0.683 0.01511 0.49502 0.0
H1787 H 0.69219 0.9989 0.33333 0.0
H1788 H 0.69552 0.99064 0.38064 0.0
H1789 H 0.71019 0.00973 0.36231 0.0
C1790 C 0.69632 0.98307 0.51552 0.0
C1791 C 0.71221 0.98771 0.50956 0.0
C1792 C 0.68929 0.98981 0.49157 0.0
C1793 C 0.69802 0.00144 0.46142 0.0
C1794 C 0.71393 0.0062 0.4556 0.0
H1795 H 0.66971 0.06623 0.36279 0.0
H1796 H 0.68178 0.05377 0.4028 0.0
C1797 C 0.72092 0.99928 0.47909 0.0
C1798 C 0.69057 0.00898 0.4375 0.0
H1799 H 0.68368 0.01762 0.33755 0.0
C1800 C 0.68308 0.01559 0.46056 0.0
C1801 C 0.69049 0.00942 0.39254 0.0
C1802 C 0.69739 0.00165 0.36574 0.0
C1803 C 0.6756 0.02269 0.43998 0.0
C1804 C 0.67607 0.02369 0.39508 0.0
C1805 C 0.68346 0.01699 0.372 0.0
C1806 C 0.66867 0.03131 0.37124 0.0
C1807 C 0.66694 0.02868 0.46658 0.0
C1808 C 0.65762 0.02299 0.33934 0.0
C1809 C 0.65092 0.03017 0.31585 0.0
C1810 C 0.65505 0.04581 0.32398 0.0
C1811 C 0.6661 0.05411 0.35608 0.0
C1812 C 0.67296 0.04697 0.37917 0.0
H1813 H 0.66368 0.02286 0.49815 0.0
H1814 H 0.67464 0.04144 0.47208 0.0
H1815 H 0.65611 0.02679 0.45038 0.0
H1816 H 0.65418 0.01091 0.33254 0.0
H1817 H 0.64253 0.02343 0.29126 0.0
H1818 H 0.66626 0.07002 0.12566 0.0
H1819 H 0.69044 0.08258 0.08386 0.0
H1820 H 0.71283 0.11784 0.18104 0.0
H1821 H 0.68874 0.10568 0.22254 0.0
H1822 H 0.71861 0.13043 0.10169 0.0
H1823 H 0.73005 0.08075 0.10835 0.0
H1824 H 0.71116 0.07565 0.08704 0.0
H1825 H 0.71565 0.08175 0.1416 0.0
C1826 C 0.67632 0.08046 0.13815 0.0
C1827 C 0.67554 0.08679 0.17759 0.0
C1828 C 0.69016 0.08756 0.11433 0.0
C1829 C 0.7035 0.10098 0.12972 0.0
C1830 C 0.70269 0.10745 0.16868 0.0
H1831 H 0.79927 0.13907 0.04153 0.0
H1832 H 0.775 0.12739 0.08282 0.0
C1833 C 0.68887 0.10044 0.19238 0.0
C1834 C 0.71833 0.10847 0.10521 0.0
H1835 H 0.74658 0.10199 0.06339 0.0
C1836 C 0.72474 0.12423 0.09334 0.0
C1837 C 0.72643 0.10042 0.09498 0.0
C1838 C 0.72058 0.08375 0.10897 0.0
C1839 C 0.73897 0.13212 0.07112 0.0
C1840 C 0.7468 0.12392 0.05968 0.0
C1841 C 0.74048 0.10821 0.07193 0.0
C1842 C 0.76159 0.13141 0.03501 0.0
C1843 C 0.74563 0.14926 0.06092 0.0
C1844 C 0.76207 0.13747 0.99437 0.0
C1845 C 0.77593 0.14426 0.97081 0.0
C1846 C 0.78958 0.14496 0.98722 0.0
C1847 C 0.78902 0.13879 0.02793 0.0
C1848 C 0.77515 0.13208 0.05156 0.0
H1849 H 0.74073 0.15479 0.08209 0.0
H1850 H 0.7586 0.1558 0.06394 0.0
H1851 H 0.74255 0.15042 0.0277 0.0
H1852 H 0.75165 0.13676 0.98057 0.0
H1853 H 0.77585 0.14876 0.93945 0.0
H1854 H 0.98508 0.69463 0.93998 0.0
H1855 H 0.99716 0.68236 0.98046 0.0
H1856 H 0.00718 0.71516 0.08291 0.0
H1857 H 0.99542 0.72782 0.04223 0.0
H1858 H 0.03235 0.71172 0.06305 0.0
H1859 H 0.97899 0.65351 0.08197 0.0
H1860 H 0.98328 0.65966 0.02757 0.0
H1861 H 0.97824 0.67051 0.06405 0.0
C1862 C 0.98975 0.69922 0.97123 0.0
C1863 C 0.98919 0.71219 0.98791 0.0
C1864 C 0.99659 0.69212 0.99442 0.0
C1865 C 0.00283 0.69768 0.03497 0.0
C1866 C 0.00235 0.71064 0.05173 0.0
H1867 H 0.02761 0.64953 0.22145 0.0
H1868 H 0.01577 0.6618 0.18005 0.0
C1869 C 0.99559 0.71783 0.02845 0.0
C1870 C 0.01021 0.69021 0.05942 0.0
H1871 H 0.00323 0.65535 0.1011 0.0
C1872 C 0.02598 0.69941 0.07154 0.0
C1873 C 0.00181 0.67419 0.07081 0.0
C1874 C 0.98461 0.66392 0.06082 0.0
C1875 C 0.03366 0.69297 0.09442 0.0
C1876 C 0.02541 0.67683 0.10458 0.0
C1877 C 0.00959 0.66768 0.09281 0.0
C1878 C 0.03273 0.6693 0.12904 0.0
C1879 C 0.0504 0.7036 0.10832 0.0
C1880 C 0.04611 0.66925 0.1138 0.0
C1881 C 0.05303 0.66232 0.1376 0.0
C1882 C 0.04657 0.65515 0.17685 0.0
C1883 C 0.03295 0.65494 0.19144 0.0
C1884 C 0.02613 0.66195 0.16779 0.0
H1885 H 0.05358 0.71612 0.10788 0.0
H1886 H 0.05241 0.7006 0.14086 0.0
H1887 H 0.05839 0.70219 0.08621 0.0
H1888 H 0.05118 0.67454 0.08347 0.0
H1889 H 0.06344 0.66261 0.12527 0.0
H1890 H 0.44218 0.35151 0.96259 0.0
H1891 H 0.45396 0.37568 0.00379 0.0
H1892 H 0.40968 0.36078 0.06606 0.0
H1893 H 0.39788 0.33623 0.02595 0.0
H1894 H 0.44693 0.3985 0.00399 0.0
H1895 H 0.43888 0.37376 0.16639 0.0
H1896 H 0.43592 0.36216 0.11926 0.0
H1897 H 0.4209 0.36616 0.13704 0.0
C1898 C 0.43496 0.35323 0.98541 0.0
C1899 C 0.4191 0.34184 0.99118 0.0
C1900 C 0.44172 0.36711 0.00886 0.0
C1901 C 0.43277 0.36997 0.03841 0.0
C1902 C 0.41692 0.35867 0.04421 0.0
H1903 H 0.46189 0.46344 0.1386 0.0
H1904 H 0.44912 0.43892 0.09837 0.0
C1905 C 0.41018 0.34466 0.02111 0.0
C1906 C 0.44 0.38505 0.0619 0.0
H1907 H 0.44771 0.40095 0.16148 0.0
C1908 C 0.44714 0.39904 0.03844 0.0
C1909 C 0.4404 0.38573 0.10683 0.0
C1910 C 0.43376 0.37116 0.1339 0.0
C1911 C 0.4547 0.41371 0.05865 0.0
C1912 C 0.45474 0.41439 0.10357 0.0
C1913 C 0.44756 0.4004 0.12703 0.0
C1914 C 0.46262 0.42946 0.12709 0.0
C1915 C 0.46297 0.42827 0.03165 0.0
C1916 C 0.47421 0.43217 0.15724 0.0
C1917 C 0.48135 0.44604 0.18075 0.0
C1918 C 0.47711 0.45757 0.17444 0.0
C1919 C 0.46558 0.4549 0.14389 0.0
C1920 C 0.45831 0.44091 0.12071 0.0
H1921 H 0.46562 0.42561 -0.00062 0.0
H1922 H 0.45528 0.43343 0.02789 0.0
H1923 H 0.47411 0.43716 0.04669 0.0
H1924 H 0.47771 0.42349 0.16275 0.0
H1925 H 0.49013 0.44764 0.20405 0.0
H1926 H 0.99645 0.33195 0.54098 0.0
H1927 H 0.00779 0.35573 0.58454 0.0
H1928 H 0.99402 0.37841 0.49062 0.0
H1929 H 0.98239 0.35474 0.4474 0.0
H1930 H 0.0315 0.38526 0.56499 0.0
H1931 H 0.97684 0.3863 0.59908 0.0
H1932 H 0.97676 0.3693 0.57746 0.0
H1933 H 0.97996 0.38527 0.54327 0.0
C1934 C 0.9957 0.34195 0.52974 0.0
C1935 C 0.98839 0.34136 0.49077 0.0
C1936 C 0.00222 0.35553 0.55464 0.0
C1937 C 0.00151 0.36873 0.54113 0.0
C1938 C 0.99436 0.36823 0.50216 0.0
H1939 H 0.06015 0.46495 0.62439 0.0
H1940 H 0.04768 0.44019 0.58525 0.0
C1941 C 0.98779 0.35467 0.47735 0.0
C1942 C 0.0087 0.38325 0.56696 0.0
H1943 H 0.00087 0.40977 0.61428 0.0
C1944 C 0.02479 0.39057 0.57606 0.0
C1945 C 0.99988 0.39005 0.58181 0.0
C1946 C 0.98237 0.38225 0.57531 0.0
C1947 C 0.0324 0.40472 0.59879 0.0
C1948 C 0.02372 0.41189 0.6119 0.0
C1949 C 0.00755 0.40437 0.60367 0.0
C1950 C 0.03109 0.42703 0.63501 0.0
C1951 C 0.04959 0.41172 0.60907 0.0
C1952 C 0.02554 0.42798 0.67529 0.0
C1953 C 0.03247 0.44214 0.6975 0.0
C1954 C 0.04514 0.45568 0.67985 0.0
C1955 C 0.05049 0.45475 0.63907 0.0
C1956 C 0.04346 0.44057 0.61677 0.0
H1957 H 0.05333 0.4028 0.60752 0.0
H1958 H 0.05661 0.42099 0.58552 0.0
H1959 H 0.05232 0.41709 0.64124 0.0
H1960 H 0.01594 0.41768 0.68984 0.0
H1961 H 0.028 0.44238 0.72878 0.0
H1962 H 0.68963 0.6509 0.72599 0.0
H1963 H 0.71412 0.66337 0.68615 0.0
H1964 H 0.69129 0.67326 0.58356 0.0
H1965 H 0.66673 0.66112 0.62363 0.0
H1966 H 0.72142 0.65627 0.60952 0.0
H1967 H 0.72919 0.71602 0.60609 0.0
H1968 H 0.71495 0.70069 0.63979 0.0
H1969 H 0.7108 0.70129 0.58434 0.0
C1970 C 0.68976 0.65572 0.69497 0.0
C1971 C 0.67619 0.65507 0.67816 0.0
C1972 C 0.7038 0.66285 0.67223 0.0
C1973 C 0.7046 0.66949 0.63225 0.0
C1974 C 0.69102 0.66855 0.61484 0.0
H1975 H 0.77726 0.69371 0.44454 0.0
H1976 H 0.75332 0.68154 0.48664 0.0
C1977 C 0.67696 0.66149 0.63768 0.0
C1978 C 0.71964 0.67718 0.60867 0.0
H1979 H 0.74657 0.71172 0.56314 0.0
C1980 C 0.72695 0.66841 0.59949 0.0
C1981 C 0.72697 0.6931 0.59628 0.0
C1982 C 0.72017 0.70339 0.60746 0.0
C1983 C 0.74126 0.67504 0.5776 0.0
C1984 C 0.74826 0.69077 0.56368 0.0
C1985 C 0.7411 0.69963 0.57353 0.0
C1986 C 0.76291 0.69819 0.5384 0.0
C1987 C 0.74886 0.66521 0.57019 0.0
C1988 C 0.77616 0.71187 0.55299 0.0
C1989 C 0.7899 0.71902 0.52874 0.0
C1990 C 0.7906 0.71261 0.48936 0.0
C1991 C 0.77723 0.69893 0.47484 0.0
C1992 C 0.76352 0.69186 0.499 0.0
H1993 H 0.7446 0.65537 0.59321 0.0
H1994 H 0.74587 0.66011 0.53775 0.0
H1995 H 0.76182 0.67237 0.57277 0.0
H1996 H 0.77589 0.717 0.58323 0.0
H1997 H 0.79992 0.72957 0.54083 0.0
H1998 H 0.43845 0.14853 0.43831 0.0
H1999 H 0.45057 0.13601 0.47751 0.0
H2000 H 0.41842 0.1264 0.58133 0.0
H2001 H 0.40589 0.13856 0.54191 0.0
H2002 H 0.46541 0.14312 0.55332 0.0
H2003 H 0.4132 0.08356 0.55902 0.0
H2004 H 0.41416 0.09884 0.52539 0.0
H2005 H 0.40973 0.09835 0.58103 0.0
C2006 C 0.4339 0.14376 0.46947 0.0
C2007 C 0.4211 0.14448 0.48681 0.0
C2008 C 0.44087 0.1366 0.49183 0.0
C2009 C 0.43522 0.13001 0.53198 0.0
C2010 C 0.42271 0.13105 0.54991 0.0
H2011 H 0.48396 0.10644 0.71986 0.0
H2012 H 0.4723 0.11851 0.67687 0.0
C2013 C 0.41564 0.13812 0.52745 0.0
C2014 C 0.44263 0.12232 0.55524 0.0
H2015 H 0.43499 0.08793 0.60186 0.0
C2016 C 0.45877 0.13103 0.56378 0.0
C2017 C 0.43401 0.10646 0.56816 0.0
C2018 C 0.41685 0.0962 0.55758 0.0
C2019 C 0.46648 0.12443 0.58571 0.0
C2020 C 0.45772 0.1088 0.60032 0.0
C2021 C 0.44164 0.09997 0.59097 0.0
C2022 C 0.46494 0.10147 0.62602 0.0
C2023 C 0.48396 0.1342 0.59249 0.0
C2024 C 0.46432 0.08762 0.61223 0.0
C2025 C 0.47085 0.08054 0.63699 0.0
C2026 C 0.47809 0.08718 0.6761 0.0
C2027 C 0.47862 0.10104 0.68979 0.0
C2028 C 0.47203 0.10804 0.66513 0.0
H2029 H 0.48949 0.14385 0.56892 0.0
H2030 H 0.48627 0.13955 0.62464 0.0
H2031 H 0.48966 0.12694 0.59025 0.0
H2032 H 0.4588 0.08231 0.58223 0.0
H2033 H 0.47018 0.06985 0.62552 0.0
H2034 H 0.33621 0.00324 0.97109 0.0
H2035 H 0.3607 0.01558 0.93092 0.0
H2036 H 0.37619 0.98769 0.99864 0.0
H2037 H 0.35207 0.97578 0.04012 0.0
H2038 H 0.39883 0.01718 0.99525 0.0
H2039 H 0.3738 0.99845 0.83381 0.0
H2040 H 0.3661 0.00915 0.86095 0.0
H2041 H 0.36224 0.99048 0.88127 0.0
C2042 C 0.34475 0.99961 0.97717 0.0
C2043 C 0.34211 0.98843 0.00868 0.0
C2044 C 0.35873 0.00663 0.95398 0.0
C2045 C 0.37018 0.00236 0.9612 0.0
C2046 C 0.3675 0.99113 0.99241 0.0
H2047 H 0.44818 0.02412 0.794 0.0
H2048 H 0.42404 0.01169 0.83535 0.0
C2049 C 0.35366 0.98428 0.01601 0.0
C2050 C 0.38521 0.00999 0.93751 0.0
H2051 H 0.40087 0.01775 0.83773 0.0
C2052 C 0.39928 0.01723 0.96079 0.0
C2053 C 0.3858 0.0099 0.89257 0.0
C2054 C 0.37118 0.00144 0.86569 0.0
C2055 C 0.41391 0.02445 0.94042 0.0
C2056 C 0.41449 0.02487 0.89546 0.0
C2057 C 0.40042 0.01756 0.87219 0.0
C2058 C 0.42952 0.03246 0.87176 0.0
C2059 C 0.42856 0.03114 0.96735 0.0
C2060 C 0.44067 0.04831 0.87841 0.0
C2061 C 0.45467 0.0554 0.8553 0.0
C2062 C 0.45762 0.04687 0.82443 0.0
C2063 C 0.44635 0.03104 0.8176 0.0
C2064 C 0.43249 0.02391 0.84115 0.0
H2065 H 0.42608 0.02576 -0.00051 0.0
H2066 H 0.43772 0.02935 0.95216 0.0
H2067 H 0.4333 0.04391 0.97146 0.0
H2068 H 0.43846 0.05527 0.901 0.0
H2069 H 0.463 0.06767 0.86096 0.0
H2070 H 0.10457 0.48076 0.77195 0.0
H2071 H 0.1168 0.46832 0.81098 0.0
H2072 H 0.08519 0.45923 0.91586 0.0
H2073 H 0.07254 0.47131 0.87663 0.0
H2074 H 0.132 0.47574 0.88633 0.0
H2075 H 0.07977 0.41624 0.89422 0.0
H2076 H 0.08062 0.4314 0.8603 0.0
H2077 H 0.07643 0.43115 0.91606 0.0
C2078 C 0.10016 0.47612 0.80331 0.0
C2079 C 0.08747 0.47697 0.82102 0.0
C2080 C 0.10719 0.469 0.82557 0.0
C2081 C 0.10173 0.46259 0.86597 0.0
C2082 C 0.08934 0.46375 0.88426 0.0
H2083 H 0.15111 0.43959 0.05304 0.0
H2084 H 0.13933 0.45153 0.01004 0.0
C2085 C 0.0822 0.47078 0.8619 0.0
C2086 C 0.10922 0.45496 0.88913 0.0
H2087 H 0.10175 0.42073 0.93633 0.0
C2088 C 0.1254 0.46369 0.89711 0.0
C2089 C 0.10065 0.43915 0.90246 0.0
C2090 C 0.08344 0.42887 0.89248 0.0
C2091 C 0.13319 0.45715 0.9189 0.0
C2092 C 0.12448 0.44157 0.93392 0.0
C2093 C 0.10837 0.43272 0.92512 0.0
C2094 C 0.13181 0.43433 0.95957 0.0
C2095 C 0.1507 0.46692 0.9251 0.0
C2096 C 0.13115 0.42044 0.94598 0.0
C2097 C 0.13776 0.41344 0.97075 0.0
C2098 C 0.14511 0.4202 0.00966 0.0
C2099 C 0.14568 0.4341 0.02313 0.0
C2100 C 0.13902 0.44103 0.99845 0.0
H2101 H 0.15614 0.4765 0.90127 0.0
H2102 H 0.15317 0.47238 0.95712 0.0
H2103 H 0.15638 0.45964 0.92278 0.0
H2104 H 0.12553 0.41504 0.91616 0.0
H2105 H 0.13704 0.40271 0.95947 0.0
H2106 H 0.66153 0.66651 0.87622 0.0
H2107 H 0.6732 0.69094 0.9169 0.0
H2108 H 0.66327 0.71364 0.81414 0.0
H2109 H 0.65129 0.68929 0.77367 0.0
H2110 H 0.69837 0.71952 0.89712 0.0
H2111 H 0.64495 0.72438 0.9153 0.0
H2112 H 0.64424 0.70663 0.89751 0.0
H2113 H 0.64932 0.7225 0.86098 0.0
C2114 C 0.6617 0.67666 0.86238 0.0
C2115 C 0.65535 0.67587 0.82175 0.0
C2116 C 0.66841 0.69062 0.88565 0.0
C2117 C 0.66888 0.70403 0.8688 0.0
C2118 C 0.6627 0.70333 0.82817 0.0
H2119 H 0.72929 0.79972 0.95901 0.0
H2120 H 0.71708 0.77552 0.91723 0.0
C2121 C 0.65591 0.68939 0.80498 0.0
C2122 C 0.67622 0.71888 0.89323 0.0
H2123 H 0.66916 0.74679 0.93459 0.0
C2124 C 0.69198 0.72547 0.90549 0.0
C2125 C 0.6678 0.72652 0.90444 0.0
C2126 C 0.6506 0.71958 0.89426 0.0
C2127 C 0.69962 0.73959 0.92834 0.0
C2128 C 0.69134 0.74748 0.93833 0.0
C2129 C 0.67553 0.74081 0.92642 0.0
C2130 C 0.69862 0.76233 0.96277 0.0
C2131 C 0.71635 0.74572 0.94238 0.0
C2132 C 0.692 0.7631 0.0015 0.0
C2133 C 0.69879 0.77693 0.02514 0.0
C2134 C 0.7124 0.79033 0.01057 0.0
C2135 C 0.71888 0.78961 0.97133 0.0
C2136 C 0.71199 0.77575 0.94754 0.0
H2137 H 0.71955 0.73639 0.942 0.0
H2138 H 0.72435 0.75511 0.92032 0.0
H2139 H 0.71832 0.75073 0.97492 0.0
H2140 H 0.68165 0.7529 0.01374 0.0
H2141 H 0.69344 0.77701 0.05514 0.0
H2142 H 0.77148 0.02138 0.61408 0.0
H2143 H 0.7835 0.04532 0.65616 0.0
H2144 H 0.7475 0.02294 0.75134 0.0
H2145 H 0.73508 0.99889 0.70891 0.0
H2146 H 0.75293 0.0522 0.73074 0.0
H2147 H 0.80915 0.05414 0.76388 0.0
H2148 H 0.80472 0.0528 0.70817 0.0
H2149 H 0.79223 0.03693 0.74299 0.0
C2150 C 0.76611 0.02144 0.64407 0.0
C2151 C 0.75232 0.00813 0.65818 0.0
C2152 C 0.77309 0.03516 0.66822 0.0
C2153 C 0.76656 0.03582 0.70722 0.0
C2154 C 0.75278 0.02262 0.72141 0.0
H2155 H 0.81382 0.10999 0.89303 0.0
H2156 H 0.80123 0.08526 0.8543 0.0
C2157 C 0.74571 0.00888 0.69715 0.0
C2158 C 0.77389 0.05049 0.73243 0.0
H2159 H 0.8083 0.07745 0.77871 0.0
C2160 C 0.76501 0.05768 0.7415 0.0
C2161 C 0.78958 0.05751 0.74687 0.0
C2162 C 0.79943 0.04987 0.74038 0.0
C2163 C 0.77149 0.0719 0.7639 0.0
C2164 C 0.7874 0.07926 0.77669 0.0
C2165 C 0.79618 0.0719 0.76837 0.0
C2166 C 0.79508 0.09442 0.7997 0.0
C2167 C 0.76117 0.07874 0.77425 0.0
C2168 C 0.79603 0.10788 0.78154 0.0
C2169 C 0.80315 0.12208 0.80374 0.0
C2170 C 0.80963 0.12312 0.84432 0.0
C2171 C 0.80896 0.10966 0.8619 0.0
C2172 C 0.80175 0.09548 0.83981 0.0
H2173 H 0.74853 0.0697 0.77293 0.0
H2174 H 0.76385 0.08416 0.80635 0.0
H2175 H 0.76326 0.08793 0.75062 0.0
H2176 H 0.7913 0.10741 0.75014 0.0
H2177 H 0.80354 0.13221 0.78912 0.0
H2178 H 0.13316 0.80337 0.70684 0.0
H2179 H 0.10886 0.79144 0.74807 0.0
H2180 H 0.08661 0.80463 0.65128 0.0
H2181 H 0.11084 0.81689 0.6104 0.0
H2182 H 0.08036 0.81088 0.73042 0.0
H2183 H 0.06959 0.75003 0.72216 0.0
H2184 H 0.08833 0.76379 0.74425 0.0
H2185 H 0.08407 0.76564 0.68964 0.0
C2186 C 0.12312 0.80376 0.69433 0.0
C2187 C 0.12398 0.81105 0.65517 0.0
C2188 C 0.1092 0.79683 0.71781 0.0
C2189 C 0.09585 0.7969 0.70235 0.0
C2190 C 0.09675 0.80438 0.6637 0.0
H2191 H -2e-05 0.73825 0.78941 0.0
H2192 H 0.02429 0.75103 0.74825 0.0
C2193 C 0.11065 0.81138 0.64035 0.0
C2194 C 0.08093 0.78935 0.72648 0.0
H2195 H 0.05285 0.7544 0.7674 0.0
C2196 C 0.07432 0.79852 0.73845 0.0
C2197 C 0.07296 0.77318 0.73628 0.0
C2198 C 0.079 0.76253 0.72209 0.0
C2199 C 0.06003 0.792 0.76042 0.0
C2200 C 0.05233 0.77595 0.77154 0.0
C2201 C 0.05884 0.76674 0.75912 0.0
C2202 C 0.03753 0.76849 0.79616 0.0
C2203 C 0.05317 0.80231 0.77072 0.0
C2204 C 0.03696 0.77401 0.83684 0.0
C2205 C 0.02308 0.76684 0.86031 0.0
C2206 C 0.00952 0.75384 0.84379 0.0
C2207 C 0.01017 0.74826 0.80308 0.0
C2208 C 0.02406 0.75552 0.77953 0.0
H2209 H 0.05795 0.81273 0.74962 0.0
H2210 H 0.0402 0.79575 0.76768 0.0
H2211 H 0.0562 0.80655 0.80396 0.0
H2212 H 0.04731 0.78376 0.85071 0.0
H2213 H 0.02309 0.77139 0.89166 0.0
H2214 H 0.33858 0.40238 0.6943 0.0
H2215 H 0.3518 0.3908 0.73327 0.0
H2216 H 0.3228 0.34666 0.66998 0.0
H2217 H 0.30991 0.35821 0.62995 0.0
H2218 H 0.3413 0.36691 0.78798 0.0
H2219 H 0.36581 0.35319 0.64687 0.0
H2220 H 0.35706 0.36545 0.64398 0.0
H2221 H 0.34491 0.34444 0.64373 0.0
C2222 C 0.33499 0.3902 0.68871 0.0
C2223 C 0.32325 0.38126 0.65875 0.0
C2224 C 0.34258 0.38361 0.71096 0.0
C2225 C 0.33854 0.36797 0.70379 0.0
C2226 C 0.32645 0.35888 0.67507 0.0
H2227 H 0.35733 0.30971 0.87028 0.0
H2228 H 0.34606 0.32281 0.83002 0.0
C2229 C 0.31898 0.36548 0.65247 0.0
C2230 C 0.34677 0.36105 0.7268 0.0
H2231 H 0.36643 0.34105 0.71212 0.0
C2232 C 0.3469 0.36136 0.7714 0.0
C2233 C 0.35436 0.35409 0.70514 0.0
C2234 C 0.35569 0.35441 0.6573 0.0
C2235 C 0.354 0.35449 0.79496 0.0
C2236 C 0.36075 0.3467 0.7733 0.0
C2237 C 0.36104 0.34681 0.7287 0.0
C2238 C 0.36747 0.33829 0.79632 0.0
C2239 C 0.35436 0.35585 0.84281 0.0
C2240 C 0.38306 0.3421 0.78926 0.0
C2241 C 0.38949 0.33439 0.81164 0.0
C2242 C 0.38044 0.32275 0.84163 0.0
C2243 C 0.3647 0.31869 0.84774 0.0
C2244 C 0.35825 0.32628 0.82501 0.0
H2245 H 0.35333 0.36607 0.85326 0.0
H2246 H 0.34428 0.34516 0.85633 0.0
H2247 H 0.36535 0.35703 0.85615 0.0
H2248 H 0.39035 0.35124 0.76697 0.0
H2249 H 0.40165 0.33782 0.80617 0.0
H2250 H 0.01864 0.30901 0.37154 0.0
H2251 H 0.04301 0.32156 0.33112 0.0
H2252 H 0.02776 0.35018 0.26629 0.0
H2253 H 0.00303 0.33724 0.30543 0.0
H2254 H 0.04102 0.33967 0.21221 0.0
H2255 H 0.07964 0.36434 0.35272 0.0
H2256 H 0.06756 0.34346 0.3559 0.0
H2257 H 0.05862 0.35555 0.35605 0.0
C2258 C 0.02041 0.31792 0.34858 0.0
C2259 C 0.00887 0.32215 0.34188 0.0
C2260 C 0.03443 0.3252 0.32576 0.0
C2261 C 0.0374 0.3371 0.29647 0.0
C2262 C 0.02578 0.34111 0.28899 0.0
H2263 H 0.13025 0.40102 0.19504 0.0
H2264 H 0.10547 0.38908 0.23399 0.0
C2265 C 0.01163 0.33368 0.31137 0.0
C2266 C 0.05251 0.34519 0.27321 0.0
H2267 H 0.09223 0.36507 0.28718 0.0
C2268 C 0.05221 0.34532 0.2286 0.0
C2269 C 0.06713 0.35283 0.29462 0.0
C2270 C 0.06829 0.3542 0.34245 0.0
C2271 C 0.06612 0.35255 0.20479 0.0
C2272 C 0.08073 0.35941 0.22618 0.0
C2273 C 0.08103 0.35961 0.27079 0.0
C2274 C 0.09585 0.36652 0.20291 0.0
C2275 C 0.06496 0.353 0.15701 0.0
C2276 C 0.09883 0.35772 0.17314 0.0
C2277 C 0.11288 0.36455 0.15044 0.0
C2278 C 0.12443 0.38026 0.15773 0.0
C2279 C 0.12164 0.3889 0.18865 0.0
C2280 C 0.10747 0.3821 0.21093 0.0
H2281 H 0.0536 0.35183 0.14697 0.0
H2282 H 0.07462 0.36406 0.14374 0.0
H2283 H 0.06569 0.34304 0.14302 0.0
H2284 H 0.09025 0.34554 0.16735 0.0
H2285 H 0.11467 0.35751 0.12714 0.0
H2286 H 0.79607 0.73251 0.30388 0.0
H2287 H 0.78379 0.74476 0.26385 0.0
H2288 H 0.81166 0.78795 0.33253 0.0
H2289 H 0.82351 0.77564 0.37383 0.0
H2290 H 0.78216 0.78114 0.32876 0.0
H2291 H 0.80114 0.77523 0.1674 0.0
H2292 H 0.79036 0.75678 0.19415 0.0
H2293 H 0.80904 0.77152 0.21488 0.0
C2294 C 0.7997 0.74466 0.31021 0.0
C2295 C 0.81087 0.75311 0.34192 0.0
C2296 C 0.79272 0.75168 0.28711 0.0
C2297 C 0.797 0.76737 0.29463 0.0
C2298 C 0.80821 0.77584 0.32606 0.0
H2299 H 0.77554 0.82397 0.1279 0.0
H2300 H 0.78794 0.81222 0.16925 0.0
C2301 C 0.81502 0.76879 0.34957 0.0
C2302 C 0.78943 0.77485 0.27099 0.0
H2303 H 0.78188 0.78303 0.17126 0.0
C2304 C 0.78217 0.78163 0.29431 0.0
C2305 C 0.78961 0.77566 0.22606 0.0
C2306 C 0.7981 0.76955 0.19917 0.0
C2307 C 0.77502 0.78912 0.27399 0.0
C2308 C 0.77467 0.7894 0.22904 0.0
C2309 C 0.78201 0.78269 0.20572 0.0
C2310 C 0.76712 0.79689 0.20539 0.0
C2311 C 0.76831 0.79702 0.30101 0.0
C2312 C 0.75126 0.7922 0.21189 0.0
C2313 C 0.74418 0.79913 0.18881 0.0
C2314 C 0.75275 0.81064 0.15807 0.0
C2315 C 0.76859 0.8152 0.1514 0.0
C2316 C 0.7757 0.80845 0.17493 0.0
H2317 H 0.77367 0.79986 0.33321 0.0
H2318 H 0.77012 0.80799 0.28599 0.0
H2319 H 0.75552 0.78898 0.30496 0.0
H2320 H 0.74426 0.783 0.23434 0.0
H2321 H 0.7319 0.79519 0.19435 0.0
H2322 H 0.31669 0.02233 0.11023 0.0
H2323 H 0.32895 0.04662 0.15091 0.0
H2324 H 0.34191 0.02451 0.2486 0.0
H2325 H 0.32997 0.00014 0.20759 0.0
H2326 H 0.32251 0.05296 0.22966 0.0
H2327 H 0.38343 0.06369 0.22338 0.0
H2328 H 0.36789 0.04918 0.19062 0.0
H2329 H 0.36959 0.045 0.24539 0.0
C2330 C 0.32215 0.02256 0.14033 0.0
C2331 C 0.3224 0.00925 0.15549 0.0
C2332 C 0.32916 0.03649 0.16356 0.0
C2333 C 0.33657 0.03745 0.20242 0.0
C2334 C 0.33657 0.02413 0.21818 0.0
H2335 H 0.36166 0.11031 0.39126 0.0
H2336 H 0.34941 0.08606 0.35036 0.0
C2337 C 0.32963 0.01017 0.19482 0.0
C2338 C 0.34407 0.05238 0.22649 0.0
H2339 H 0.37894 0.08049 0.26807 0.0
C2340 C 0.33486 0.059 0.23801 0.0
C2341 C 0.36023 0.06036 0.23671 0.0
C2342 C 0.37092 0.0543 0.22306 0.0
C2343 C 0.34133 0.0733 0.25991 0.0
C2344 C 0.35736 0.081 0.27144 0.0
C2345 C 0.36662 0.07449 0.25948 0.0
C2346 C 0.36476 0.09582 0.29603 0.0
C2347 C 0.33099 0.08017 0.26974 0.0
C2348 C 0.37772 0.10929 0.27949 0.0
C2349 C 0.3849 0.1232 0.303 0.0
C2350 C 0.37925 0.12387 0.34357 0.0
C2351 C 0.36626 0.1103 0.36001 0.0
C2352 C 0.35917 0.09641 0.33657 0.0
H2353 H 0.32058 0.07534 0.24846 0.0
H2354 H 0.3267 0.07722 0.30294 0.0
H2355 H 0.33755 0.09312 0.26656 0.0
H2356 H 0.38227 0.10904 0.24831 0.0
H2357 H 0.39491 0.13338 0.28941 0.0
loop_
_geom_bond_atom_site_label_1
_geom_bond_atom_site_label_2
_geom_bond_distance
_geom_bond_site_symmetry_2
_ccdc_geom_bond_type
Co0 O2 2.143 . S
Co0 O8 2.074 . S
Co0 O11 2.093 . S
Co0 O24 2.097 . S
Co0 N41 2.151 . S
Co0 N49 2.214 . S
Co1 O2 2.160 . S
Co1 O7 2.058 . S
Co1 O17 2.057 . S
Co1 O32 2.037 . S
Co1 N36 2.145 . S
Co1 N57 2.257 . S
O2 Co0 2.143 . S
O2 Co1 2.160 . S
C3 O4 1.278 . S
C3 O11 1.224 . S
O4 C3 1.278 . S
C5 O6 1.245 . S
C5 O17 1.232 . S
O6 C5 1.245 . S
O7 Co1 2.058 . S
O7 C33 1.269 . S
O8 Co0 2.074 . S
O8 C33 1.257 . S
H9 C34 0.930 . S
H10 C40 0.930 . S
O11 Co0 2.093 . S
O11 C3 1.224 . S
H12 C44 0.929 . S
H13 C46 0.930 . S
H14 C47 0.930 . S
H15 C45 0.929 . S
H16 C48 0.928 . S
O17 Co1 2.057 . S
O17 C5 1.232 . S
H18 C37 0.929 . S
H19 C38 0.929 . S
H20 C50 0.931 . S
H21 C42 0.929 . S
H22 C51 0.930 . S
H23 C43 0.931 . S
O24 Co0 2.097 . S
O24 C52 1.214 . S
H25 C53 0.929 . S
H26 C54 0.929 . S
H27 C55 0.930 1_655 S
H28 C56 0.929 1_655 S
H29 C58 0.930 . S
H30 C35 0.930 . S
H31 C39 0.930 . S
O32 Co1 2.037 . S
O32 C52 1.234 . S
C33 O7 1.269 . S
C33 O8 1.257 . S
C34 H9 0.930 . S
C34 C37 1.388 . S
C34 C39 1.418 . S
C35 H30 0.930 . S
C35 C38 1.404 . S
C35 C39 1.353 . S
N36 Co1 2.145 . S
N36 C37 1.397 . S
N36 C38 1.334 . S
C37 H18 0.929 . S
C37 C34 1.388 . S
C37 N36 1.397 . S
C38 H19 0.929 . S
C38 C35 1.404 . S
C38 N36 1.334 . S
C39 H31 0.930 . S
C39 C34 1.418 . S
C39 C35 1.353 . S
C40 H10 0.930 . S
C40 N41 1.330 . S
C40 C42 1.446 . S
N41 Co0 2.151 . S
N41 C40 1.330 . S
N41 C45 1.418 . S
C42 H21 0.929 . S
C42 C40 1.446 . S
C42 C43 1.332 . S
C43 H23 0.931 . S
C43 C42 1.332 . S
C43 C44 1.267 . S
C44 H12 0.929 . S
C44 C43 1.267 . S
C44 C45 1.251 . S
C45 H15 0.929 . S
C45 N41 1.418 . S
C45 C44 1.251 . S
C46 H13 0.930 . S
C46 C48 1.406 . S
C46 C51 1.261 . S
C47 H14 0.930 . S
C47 N49 1.325 . S
C47 C50 1.357 . S
C48 H16 0.928 . S
C48 C46 1.406 . S
C48 N49 1.261 . S
N49 Co0 2.214 . S
N49 C47 1.325 . S
N49 C48 1.261 . S
C50 H20 0.931 . S
C50 C47 1.357 . S
C50 C51 1.312 . S
C51 H22 0.930 . S
C51 C46 1.261 . S
C51 C50 1.312 . S
C52 O24 1.214 . S
C52 O32 1.234 . S
C53 H25 0.929 . S
C53 C56 1.391 . S
C53 C58 1.391 . S
C54 H26 0.929 . S
C54 C55 1.390 . S
C54 N57 1.391 . S
C55 H27 0.930 1_455 S
C55 C54 1.390 . S
C55 C56 1.392 . S
C56 H28 0.929 1_455 S
C56 C53 1.391 . S
C56 C55 1.392 . S
N57 Co1 2.257 . S
N57 C54 1.391 . S
N57 C58 1.388 . S
C58 H29 0.930 . S
C58 C53 1.391 . S
C58 N57 1.388 . S
Co59 O61 2.143 . S
Co59 O67 2.074 . S
Co59 O70 2.093 . S
Co59 O83 2.097 . S
Co59 N100 2.151 . S
Co59 N108 2.214 . S
Co60 O61 2.160 . S
Co60 O66 2.058 . S
Co60 O76 2.057 . S
Co60 O91 2.037 . S
Co60 N95 2.145 . S
Co60 N116 2.257 . S
O61 Co59 2.143 . S
O61 Co60 2.160 . S
C62 O63 1.278 . S
C62 O70 1.224 . S
O63 C62 1.278 . S
C64 O65 1.245 . S
C64 O76 1.232 . S
O65 C64 1.245 . S
O66 Co60 2.058 . S
O66 C92 1.269 . S
O67 Co59 2.074 . S
O67 C92 1.257 . S
H68 C93 0.930 . S
H69 C99 0.930 . S
O70 Co59 2.093 . S
O70 C62 1.224 . S
H71 C103 0.929 . S
H72 C105 0.930 . S
H73 C106 0.930 . S
H74 C104 0.929 . S
H75 C107 0.928 . S
O76 Co60 2.057 . S
O76 C64 1.232 . S
H77 C96 0.929 . S
H78 C97 0.929 . S
H79 C109 0.931 . S
H80 C101 0.929 . S
H81 C110 0.930 . S
H82 C102 0.931 . S
O83 Co59 2.097 . S
O83 C111 1.214 . S
H84 C112 0.929 . S
H85 C113 0.929 . S
H86 C114 0.930 . S
H87 C115 0.929 . S
H88 C117 0.930 . S
H89 C94 0.930 . S
H90 C98 0.930 . S
O91 Co60 2.037 . S
O91 C111 1.234 . S
C92 O66 1.269 . S
C92 O67 1.257 . S
C93 H68 0.930 . S
C93 C96 1.388 . S
C93 C98 1.418 . S
C94 H89 0.930 . S
C94 C97 1.404 . S
C94 C98 1.353 . S
N95 Co60 2.145 . S
N95 C96 1.397 . S
N95 C97 1.334 . S
C96 H77 0.929 . S
C96 C93 1.388 . S
C96 N95 1.397 . S
C97 H78 0.929 . S
C97 C94 1.404 . S
C97 N95 1.334 . S
C98 H90 0.930 . S
C98 C93 1.418 . S
C98 C94 1.353 . S
C99 H69 0.930 . S
C99 N100 1.330 . S
C99 C101 1.446 . S
N100 Co59 2.151 . S
N100 C99 1.330 . S
N100 C104 1.418 . S
C101 H80 0.929 . S
C101 C99 1.446 . S
C101 C102 1.332 . S
C102 H82 0.931 . S
C102 C101 1.332 . S
C102 C103 1.267 . S
C103 H71 0.929 . S
C103 C102 1.267 . S
C103 C104 1.251 . S
C104 H74 0.929 . S
C104 N100 1.418 . S
C104 C103 1.251 . S
C105 H72 0.930 . S
C105 C107 1.406 . S
C105 C110 1.261 . S
C106 H73 0.930 . S
C106 N108 1.325 . S
C106 C109 1.357 . S
C107 H75 0.928 . S
C107 C105 1.406 . S
C107 N108 1.261 . S
N108 Co59 2.214 . S
N108 C106 1.325 . S
N108 C107 1.261 . S
C109 H79 0.931 . S
C109 C106 1.357 . S
C109 C110 1.312 . S
C110 H81 0.930 . S
C110 C105 1.261 . S
C110 C109 1.312 . S
C111 O83 1.214 . S
C111 O91 1.234 . S
C112 H84 0.929 . S
C112 C115 1.391 . S
C112 C117 1.391 . S
C113 H85 0.929 . S
C113 C114 1.390 . S
C113 N116 1.391 . S
C114 H86 0.930 . S
C114 C113 1.390 . S
C114 C115 1.392 . S
C115 H87 0.929 . S
C115 C112 1.391 . S
C115 C114 1.392 . S
N116 Co60 2.257 . S
N116 C113 1.391 . S
N116 C117 1.388 . S
C117 H88 0.930 . S
C117 C112 1.391 . S
C117 N116 1.388 . S
Co118 O120 2.143 . S
Co118 O126 2.074 . S
Co118 O129 2.093 . S
Co118 O142 2.097 . S
Co118 N159 2.151 . S
Co118 N167 2.214 . S
Co119 O120 2.160 . S
Co119 O125 2.058 . S
Co119 O135 2.057 . S
Co119 O150 2.037 . S
Co119 N154 2.145 . S
Co119 N175 2.257 . S
O120 Co118 2.143 . S
O120 Co119 2.160 . S
C121 O122 1.278 . S
C121 O129 1.224 . S
O122 C121 1.278 . S
C123 O124 1.245 . S
C123 O135 1.232 . S
O124 C123 1.245 . S
O125 Co119 2.058 . S
O125 C151 1.269 . S
O126 Co118 2.074 . S
O126 C151 1.257 . S
H127 C152 0.930 . S
H128 C158 0.930 . S
O129 Co118 2.093 . S
O129 C121 1.224 . S
H130 C162 0.929 1_565 S
H131 C164 0.930 . S
H132 C165 0.930 . S
H133 C163 0.929 . S
H134 C166 0.928 . S
O135 Co119 2.057 . S
O135 C123 1.232 . S
H136 C155 0.929 . S
H137 C156 0.929 . S
H138 C168 0.931 . S
H139 C160 0.929 . S
H140 C169 0.930 . S
H141 C161 0.931 1_565 S
O142 Co118 2.097 . S
O142 C170 1.214 . S
H143 C171 0.929 . S
H144 C172 0.929 . S
H145 C173 0.930 . S
H146 C174 0.929 . S
H147 C176 0.930 . S
H148 C153 0.930 . S
H149 C157 0.930 . S
O150 Co119 2.037 . S
O150 C170 1.234 . S
C151 O125 1.269 . S
C151 O126 1.257 . S
C152 H127 0.930 . S
C152 C155 1.388 . S
C152 C157 1.418 . S
C153 H148 0.930 . S
C153 C156 1.404 . S
C153 C157 1.353 . S
N154 Co119 2.145 . S
N154 C155 1.397 . S
N154 C156 1.334 . S
C155 H136 0.929 . S
C155 C152 1.388 . S
C155 N154 1.397 . S
C156 H137 0.929 . S
C156 C153 1.404 . S
C156 N154 1.334 . S
C157 H149 0.930 . S
C157 C152 1.418 . S
C157 C153 1.353 . S
C158 H128 0.930 . S
C158 N159 1.330 . S
C158 C160 1.446 . S
N159 Co118 2.151 . S
N159 C158 1.330 . S
N159 C163 1.418 . S
C160 H139 0.929 . S
C160 C158 1.446 . S
C160 C161 1.332 . S
C161 H141 0.931 1_545 S
C161 C160 1.332 . S
C161 C162 1.267 . S
C162 H130 0.929 1_545 S
C162 C161 1.267 . S
C162 C163 1.251 . S
C163 H133 0.929 . S
C163 N159 1.418 . S
C163 C162 1.251 . S
C164 H131 0.930 . S
C164 C166 1.406 . S
C164 C169 1.261 . S
C165 H132 0.930 . S
C165 N167 1.325 . S
C165 C168 1.357 . S
C166 H134 0.928 . S
C166 C164 1.406 . S
C166 N167 1.261 . S
N167 Co118 2.214 . S
N167 C165 1.325 . S
N167 C166 1.261 . S
C168 H138 0.931 . S
C168 C165 1.357 . S
C168 C169 1.312 . S
C169 H140 0.930 . S
C169 C164 1.261 . S
C169 C168 1.312 . S
C170 O142 1.214 . S
C170 O150 1.234 . S
C171 H143 0.929 . S
C171 C174 1.391 . S
C171 C176 1.391 . S
C172 H144 0.929 . S
C172 C173 1.390 . S
C172 N175 1.391 . S
C173 H145 0.930 . S
C173 C172 1.390 . S
C173 C174 1.392 . S
C174 H146 0.929 . S
C174 C171 1.391 . S
C174 C173 1.392 . S
N175 Co119 2.257 . S
N175 C172 1.391 . S
N175 C176 1.388 . S
C176 H147 0.930 . S
C176 C171 1.391 . S
C176 N175 1.388 . S
Co177 O179 2.143 . S
Co177 O185 2.074 . S
Co177 O188 2.093 . S
Co177 O201 2.097 . S
Co177 N218 2.151 . S
Co177 N226 2.214 . S
Co178 O179 2.160 . S
Co178 O184 2.058 . S
Co178 O194 2.057 . S
Co178 O209 2.037 . S
Co178 N213 2.145 . S
Co178 N234 2.257 . S
O179 Co177 2.143 . S
O179 Co178 2.160 . S
C180 O181 1.278 . S
C180 O188 1.224 . S
O181 C180 1.278 . S
C182 O183 1.245 . S
C182 O194 1.232 . S
O183 C182 1.245 . S
O184 Co178 2.058 . S
O184 C210 1.269 . S
O185 Co177 2.074 . S
O185 C210 1.257 . S
H186 C211 0.930 . S
H187 C217 0.930 . S
O188 Co177 2.093 . S
O188 C180 1.224 . S
H189 C221 0.929 1_655 S
H190 C223 0.930 . S
H191 C224 0.930 . S
H192 C222 0.929 . S
H193 C225 0.928 . S
O194 Co178 2.057 . S
O194 C182 1.232 . S
H195 C214 0.929 . S
H196 C215 0.929 . S
H197 C227 0.931 . S
H198 C219 0.929 . S
H199 C228 0.930 . S
H200 C220 0.858 1_655 S
O201 Co177 2.097 . S
O201 C229 1.214 . S
H202 C230 0.929 . S
H203 C231 0.929 . S
H204 C232 0.930 . S
H205 C233 0.929 . S
H206 C235 0.930 . S
H207 C212 0.930 . S
H208 C216 0.930 . S
O209 Co178 2.037 . S
O209 C229 1.234 . S
C210 O184 1.269 . S
C210 O185 1.257 . S
C211 H186 0.930 . S
C211 C214 1.388 . S
C211 C216 1.418 . S
C212 H207 0.930 . S
C212 C215 1.404 . S
C212 C216 1.353 . S
N213 Co178 2.145 . S
N213 C214 1.397 . S
N213 C215 1.334 . S
C214 H195 0.929 . S
C214 C211 1.388 . S
C214 N213 1.397 . S
C215 H196 0.929 . S
C215 C212 1.404 . S
C215 N213 1.334 . S
C216 H208 0.930 . S
C216 C211 1.418 . S
C216 C212 1.353 . S
C217 H187 0.930 . S
C217 N218 1.330 . S
C217 C219 1.446 . S
N218 Co177 2.151 . S
N218 C217 1.330 . S
N218 C222 1.418 . S
C219 H198 0.929 . S
C219 C217 1.446 . S
C219 C220 1.358 . S
C220 H200 0.858 1_455 S
C220 C219 1.358 . S
C220 C221 1.313 . S
C221 H189 0.929 1_455 S
C221 C220 1.313 . S
C221 C222 1.251 . S
C222 H192 0.929 . S
C222 N218 1.418 . S
C222 C221 1.251 . S
C223 H190 0.930 . S
C223 C225 1.406 . S
C223 C228 1.261 . S
C224 H191 0.930 . S
C224 N226 1.325 . S
C224 C227 1.357 . S
C225 H193 0.928 . S
C225 C223 1.406 . S
C225 N226 1.261 . S
N226 Co177 2.214 . S
N226 C224 1.325 . S
N226 C225 1.261 . S
C227 H197 0.931 . S
C227 C224 1.357 . S
C227 C228 1.312 . S
C228 H199 0.930 . S
C228 C223 1.261 . S
C228 C227 1.312 . S
C229 O201 1.214 . S
C229 O209 1.234 . S
C230 H202 0.929 . S
C230 C233 1.391 . S
C230 C235 1.391 . S
C231 H203 0.929 . S
C231 C232 1.390 . S
C231 N234 1.391 . S
C232 H204 0.930 . S
C232 C231 1.390 . S
C232 C233 1.392 . S
C233 H205 0.929 . S
C233 C230 1.391 . S
C233 C232 1.392 . S
N234 Co178 2.257 . S
N234 C231 1.391 . S
N234 C235 1.388 . S
C235 H206 0.930 . S
C235 C230 1.391 . S
C235 N234 1.388 . S
Co236 O238 2.143 . S
Co236 O244 2.074 . S
Co236 O247 2.093 . S
Co236 O260 2.097 . S
Co236 N277 2.151 . S
Co236 N285 2.214 . S
Co237 O238 2.160 . S
Co237 O243 2.058 . S
Co237 O253 2.057 . S
Co237 O268 2.037 . S
Co237 N272 2.145 . S
Co237 N293 2.257 . S
O238 Co236 2.143 . S
O238 Co237 2.160 . S
C239 O240 1.278 . S
C239 O247 1.224 . S
O240 C239 1.278 . S
C241 O242 1.245 . S
C241 O253 1.232 . S
O242 C241 1.245 . S
O243 Co237 2.058 . S
O243 C269 1.269 . S
O244 Co236 2.074 . S
O244 C269 1.257 . S
H245 C270 0.930 . S
H246 C276 0.930 . S
O247 Co236 2.093 . S
O247 C239 1.224 . S
H248 C280 0.929 . S
H249 C282 0.930 . S
H250 C283 0.930 . S
H251 C281 0.929 . S
H252 C284 0.928 . S
O253 Co237 2.057 . S
O253 C241 1.232 . S
H254 C273 0.929 . S
H255 C274 0.929 . S
H256 C286 0.931 . S
H257 C278 0.929 . S
H258 C287 0.930 . S
H259 C279 0.931 . S
O260 Co236 2.097 . S
O260 C288 1.214 . S
H261 C289 0.929 . S
H262 C290 0.929 . S
H263 C291 0.930 . S
H264 C292 0.929 . S
H265 C294 0.930 . S
H266 C271 0.930 . S
H267 C275 0.930 . S
O268 Co237 2.037 . S
O268 C288 1.234 . S
C269 O243 1.269 . S
C269 O244 1.257 . S
C270 H245 0.930 . S
C270 C273 1.388 . S
C270 C275 1.418 . S
C271 H266 0.930 . S
C271 C274 1.404 . S
C271 C275 1.353 . S
N272 Co237 2.145 . S
N272 C273 1.397 . S
N272 C274 1.334 . S
C273 H254 0.929 . S
C273 C270 1.388 . S
C273 N272 1.397 . S
C274 H255 0.929 . S
C274 C271 1.404 . S
C274 N272 1.334 . S
C275 H267 0.930 . S
C275 C270 1.418 . S
C275 C271 1.353 . S
C276 H246 0.930 . S
C276 N277 1.330 . S
C276 C278 1.446 . S
N277 Co236 2.151 . S
N277 C276 1.330 . S
N277 C281 1.418 . S
C278 H257 0.929 . S
C278 C276 1.446 . S
C278 C279 1.332 . S
C279 H259 0.931 . S
C279 C278 1.332 . S
C279 C280 1.267 . S
C280 H248 0.929 . S
C280 C279 1.267 . S
C280 C281 1.251 . S
C281 H251 0.929 . S
C281 N277 1.418 . S
C281 C280 1.251 . S
C282 H249 0.930 . S
C282 C284 1.406 . S
C282 C287 1.261 . S
C283 H250 0.930 . S
C283 N285 1.325 . S
C283 C286 1.357 . S
C284 H252 0.928 . S
C284 C282 1.406 . S
C284 N285 1.261 . S
N285 Co236 2.214 . S
N285 C283 1.325 . S
N285 C284 1.261 . S
C286 H256 0.931 . S
C286 C283 1.357 . S
C286 C287 1.312 . S
C287 H258 0.930 . S
C287 C282 1.261 . S
C287 C286 1.312 . S
C288 O260 1.214 . S
C288 O268 1.234 . S
C289 H261 0.929 . S
C289 C292 1.391 . S
C289 C294 1.391 . S
C290 H262 0.929 . S
C290 C291 1.390 . S
C290 N293 1.391 . S
C291 H263 0.930 . S
C291 C290 1.390 . S
C291 C292 1.392 . S
C292 H264 0.929 . S
C292 C289 1.391 . S
C292 C291 1.392 . S
N293 Co237 2.257 . S
N293 C290 1.391 . S
N293 C294 1.388 . S
C294 H265 0.930 . S
C294 C289 1.391 . S
C294 N293 1.388 . S
Co295 O297 2.143 . S
Co295 O303 2.074 . S
Co295 O306 2.093 . S
Co295 O319 2.097 . S
Co295 N336 2.151 . S
Co295 N344 2.214 . S
Co296 O297 2.160 . S
Co296 O302 2.058 . S
Co296 O312 2.057 . S
Co296 O327 2.037 . S
Co296 N331 2.145 . S
Co296 N352 2.257 . S
O297 Co295 2.143 . S
O297 Co296 2.160 . S
C298 O299 1.278 . S
C298 O306 1.224 . S
O299 C298 1.278 . S
C300 O301 1.245 . S
C300 O312 1.232 . S
O301 C300 1.245 . S
O302 Co296 2.058 . S
O302 C328 1.269 . S
O303 Co295 2.074 . S
O303 C328 1.257 . S
H304 C329 0.930 . S
H305 C335 0.930 . S
O306 Co295 2.093 . S
O306 C298 1.224 . S
H307 C339 0.929 . S
H308 C341 0.930 . S
H309 C342 0.930 . S
H310 C340 0.929 . S
H311 C343 0.928 . S
O312 Co296 2.057 . S
O312 C300 1.232 . S
H313 C332 0.929 . S
H314 C333 0.929 . S
H315 C345 0.931 . S
H316 C337 0.929 . S
H317 C346 0.930 . S
H318 C338 0.931 . S
O319 Co295 2.097 . S
O319 C347 1.214 . S
H320 C348 0.929 . S
H321 C349 0.929 . S
H322 C350 0.930 1_565 S
H323 C351 0.929 1_565 S
H324 C353 0.930 . S
H325 C330 0.930 . S
H326 C334 0.930 . S
O327 Co296 2.037 . S
O327 C347 1.234 . S
C328 O302 1.269 . S
C328 O303 1.257 . S
C329 H304 0.930 . S
C329 C332 1.388 . S
C329 C334 1.418 . S
C330 H325 0.930 . S
C330 C333 1.404 . S
C330 C334 1.353 . S
N331 Co296 2.145 . S
N331 C332 1.397 . S
N331 C333 1.334 . S
C332 H313 0.929 . S
C332 C329 1.388 . S
C332 N331 1.397 . S
C333 H314 0.929 . S
C333 C330 1.404 . S
C333 N331 1.334 . S
C334 H326 0.930 . S
C334 C329 1.418 . S
C334 C330 1.353 . S
C335 H305 0.930 . S
C335 N336 1.330 . S
C335 C337 1.446 . S
N336 Co295 2.151 . S
N336 C335 1.330 . S
N336 C340 1.418 . S
C337 H316 0.929 . S
C337 C335 1.446 . S
C337 C338 1.332 . S
C338 H318 0.931 . S
C338 C337 1.332 . S
C338 C339 1.267 . S
C339 H307 0.929 . S
C339 C338 1.267 . S
C339 C340 1.251 . S
C340 H310 0.929 . S
C340 N336 1.418 . S
C340 C339 1.251 . S
C341 H308 0.930 . S
C341 C343 1.406 . S
C341 C346 1.261 . S
C342 H309 0.930 . S
C342 N344 1.325 . S
C342 C345 1.357 . S
C343 H311 0.928 . S
C343 C341 1.406 . S
C343 N344 1.261 . S
N344 Co295 2.214 . S
N344 C342 1.325 . S
N344 C343 1.261 . S
C345 H315 0.931 . S
C345 C342 1.357 . S
C345 C346 1.312 . S
C346 H317 0.930 . S
C346 C341 1.261 . S
C346 C345 1.312 . S
C347 O319 1.214 . S
C347 O327 1.234 . S
C348 H320 0.929 . S
C348 C351 1.391 . S
C348 C353 1.391 . S
C349 H321 0.929 . S
C349 C350 1.390 . S
C349 N352 1.391 . S
C350 H322 0.930 1_545 S
C350 C349 1.390 . S
C350 C351 1.392 . S
C351 H323 0.929 1_545 S
C351 C348 1.391 . S
C351 C350 1.392 . S
N352 Co296 2.257 . S
N352 C349 1.391 . S
N352 C353 1.388 . S
C353 H324 0.930 . S
C353 C348 1.391 . S
C353 N352 1.388 . S
Co354 O356 2.143 . S
Co354 O362 2.074 . S
Co354 O365 2.093 . S
Co354 O378 2.097 . S
Co354 N395 2.151 . S
Co354 N403 2.214 . S
Co355 O356 2.160 . S
Co355 O361 2.058 . S
Co355 O371 2.057 . S
Co355 O386 2.037 . S
Co355 N390 2.145 . S
Co355 N411 2.257 . S
O356 Co354 2.143 . S
O356 Co355 2.160 . S
C357 O358 1.278 . S
C357 O365 1.224 . S
O358 C357 1.278 . S
C359 O360 1.245 . S
C359 O371 1.232 . S
O360 C359 1.245 . S
O361 Co355 2.058 . S
O361 C387 1.269 . S
O362 Co354 2.074 . S
O362 C387 1.257 . S
H363 C388 0.930 . S
H364 C394 0.930 . S
O365 Co354 2.093 . S
O365 C357 1.224 . S
H366 C398 0.929 . S
H367 C400 0.930 . S
H368 C401 0.930 . S
H369 C399 0.929 . S
H370 C402 0.928 . S
O371 Co355 2.057 . S
O371 C359 1.232 . S
H372 C391 0.929 . S
H373 C392 0.929 . S
H374 C404 0.931 1_545 S
H375 C396 0.929 . S
H376 C405 0.930 . S
H377 C397 0.931 . S
O378 Co354 2.097 . S
O378 C406 1.214 . S
H379 C407 0.929 . S
H380 C408 0.847 1_545 S
H381 C409 0.928 . S
H382 C410 0.929 . S
H383 C412 0.930 . S
H384 C389 0.930 . S
H385 C393 0.930 . S
O386 Co355 2.037 . S
O386 C406 1.234 . S
C387 O361 1.269 . S
C387 O362 1.257 . S
C388 H363 0.930 . S
C388 C391 1.388 . S
C388 C393 1.418 . S
C389 H384 0.930 . S
C389 C392 1.404 1_545 S
C389 C393 1.353 . S
N390 Co355 2.145 . S
N390 C391 1.397 1_565 S
N390 C392 1.334 . S
C391 H372 0.929 . S
C391 C388 1.388 . S
C391 N390 1.397 1_545 S
C392 H373 0.929 . S
C392 C389 1.404 1_565 S
C392 N390 1.334 . S
C393 H385 0.930 . S
C393 C388 1.418 . S
C393 C389 1.353 . S
C394 H364 0.930 . S
C394 N395 1.330 . S
C394 C396 1.446 . S
N395 Co354 2.151 . S
N395 C394 1.330 . S
N395 C399 1.418 . S
C396 H375 0.929 . S
C396 C394 1.446 . S
C396 C397 1.332 . S
C397 H377 0.931 . S
C397 C396 1.332 . S
C397 C398 1.267 . S
C398 H366 0.929 . S
C398 C397 1.267 . S
C398 C399 1.251 . S
C399 H369 0.929 . S
C399 N395 1.418 . S
C399 C398 1.251 . S
C400 H367 0.930 . S
C400 C402 1.406 . S
C400 C405 1.261 . S
C401 H368 0.930 . S
C401 N403 1.325 . S
C401 C404 1.357 . S
C402 H370 0.928 . S
C402 C400 1.406 . S
C402 N403 1.261 . S
N403 Co354 2.214 . S
N403 C401 1.325 . S
N403 C402 1.261 . S
C404 H374 0.931 1_565 S
C404 C401 1.357 . S
C404 C405 1.312 . S
C405 H376 0.930 . S
C405 C400 1.261 . S
C405 C404 1.312 . S
C406 O378 1.214 . S
C406 O386 1.234 . S
C407 H379 0.929 . S
C407 C410 1.391 . S
C407 C412 1.391 . S
C408 H380 0.847 1_565 S
C408 C409 1.390 . S
C408 N411 1.391 . S
C409 H381 0.928 . S
C409 C408 1.390 . S
C409 C410 1.392 . S
C410 H382 0.929 . S
C410 C407 1.391 . S
C410 C409 1.392 . S
N411 Co355 2.257 . S
N411 C408 1.391 . S
N411 C412 1.388 . S
C412 H383 0.930 . S
C412 C407 1.391 . S
C412 N411 1.388 . S
Co413 O415 2.143 . S
Co413 O421 2.074 . S
Co413 O424 2.093 . S
Co413 O437 2.097 . S
Co413 N454 2.151 . S
Co413 N462 2.214 . S
Co414 O415 2.160 . S
Co414 O420 2.058 . S
Co414 O430 2.057 . S
Co414 O445 2.037 . S
Co414 N449 2.145 . S
Co414 N470 2.257 . S
O415 Co413 2.143 . S
O415 Co414 2.160 . S
C416 O417 1.278 . S
C416 O424 1.224 . S
O417 C416 1.278 . S
C418 O419 1.245 . S
C418 O430 1.232 . S
O419 C418 1.245 . S
O420 Co414 2.058 . S
O420 C446 1.269 . S
O421 Co413 2.074 . S
O421 C446 1.257 . S
H422 C447 0.930 . S
H423 C453 0.930 . S
O424 Co413 2.093 . S
O424 C416 1.224 . S
H425 C457 0.929 . S
H426 C459 0.930 . S
H427 C460 0.930 . S
H428 C458 0.929 . S
H429 C461 0.928 . S
O430 Co414 2.057 . S
O430 C418 1.232 . S
H431 C450 0.929 . S
H432 C451 0.929 . S
H433 C463 0.931 . S
H434 C455 0.929 . S
H435 C464 0.930 . S
H436 C456 0.931 . S
O437 Co413 2.097 . S
O437 C465 1.214 . S
H438 C466 0.929 . S
H439 C467 0.929 . S
H440 C468 0.930 . S
H441 C469 0.929 . S
H442 C471 0.930 . S
H443 C448 0.930 . S
H444 C452 0.930 . S
O445 Co414 2.037 . S
O445 C465 1.234 . S
C446 O420 1.269 . S
C446 O421 1.257 . S
C447 H422 0.930 . S
C447 C450 1.388 . S
C447 C452 1.418 . S
C448 H443 0.930 . S
C448 C451 1.404 . S
C448 C452 1.353 . S
N449 Co414 2.145 . S
N449 C450 1.397 . S
N449 C451 1.334 . S
C450 H431 0.929 . S
C450 C447 1.388 . S
C450 N449 1.397 . S
C451 H432 0.929 . S
C451 C448 1.404 . S
C451 N449 1.334 . S
C452 H444 0.930 . S
C452 C447 1.418 . S
C452 C448 1.353 . S
C453 H423 0.930 . S
C453 N454 1.330 . S
C453 C455 1.446 . S
N454 Co413 2.151 . S
N454 C453 1.330 . S
N454 C458 1.418 . S
C455 H434 0.929 . S
C455 C453 1.446 . S
C455 C456 1.332 . S
C456 H436 0.931 . S
C456 C455 1.332 . S
C456 C457 1.267 . S
C457 H425 0.929 . S
C457 C456 1.267 . S
C457 C458 1.251 . S
C458 H428 0.929 . S
C458 N454 1.418 . S
C458 C457 1.251 . S
C459 H426 0.930 . S
C459 C461 1.406 . S
C459 C464 1.261 . S
C460 H427 0.930 . S
C460 N462 1.325 . S
C460 C463 1.357 . S
C461 H429 0.928 . S
C461 C459 1.406 . S
C461 N462 1.261 . S
N462 Co413 2.214 . S
N462 C460 1.325 . S
N462 C461 1.261 . S
C463 H433 0.931 . S
C463 C460 1.357 . S
C463 C464 1.312 . S
C464 H435 0.930 . S
C464 C459 1.261 . S
C464 C463 1.312 . S
C465 O437 1.214 . S
C465 O445 1.234 . S
C466 H438 0.929 . S
C466 C469 1.391 . S
C466 C471 1.391 . S
C467 H439 0.929 . S
C467 C468 1.390 . S
C467 N470 1.391 . S
C468 H440 0.930 . S
C468 C467 1.390 . S
C468 C469 1.392 . S
C469 H441 0.929 . S
C469 C466 1.391 . S
C469 C468 1.392 . S
N470 Co414 2.257 . S
N470 C467 1.391 . S
N470 C471 1.388 . S
C471 H442 0.930 . S
C471 C466 1.391 . S
C471 N470 1.388 . S
Co472 O474 2.143 . S
Co472 O480 2.074 . S
Co472 O483 2.093 . S
Co472 O496 2.097 . S
Co472 N513 2.151 . S
Co472 N521 2.214 . S
Co473 O474 2.160 . S
Co473 O479 2.058 . S
Co473 O489 2.057 . S
Co473 O504 2.037 . S
Co473 N508 2.145 . S
Co473 N529 2.257 . S
O474 Co472 2.143 . S
O474 Co473 2.160 . S
C475 O476 1.278 . S
C475 O483 1.224 . S
O476 C475 1.278 . S
C477 O478 1.245 . S
C477 O489 1.232 . S
O478 C477 1.245 . S
O479 Co473 2.058 . S
O479 C505 1.269 . S
O480 Co472 2.074 . S
O480 C505 1.257 . S
H481 C506 0.930 . S
H482 C512 0.930 . S
O483 Co472 2.093 . S
O483 C475 1.224 . S
H484 C516 0.929 . S
H485 C518 0.930 . S
H486 C519 0.930 . S
H487 C517 0.929 . S
H488 C520 0.928 . S
O489 Co473 2.057 . S
O489 C477 1.232 . S
H490 C509 0.929 . S
H491 C510 0.929 . S
H492 C522 0.931 . S
H493 C514 0.929 . S
H494 C523 0.930 . S
H495 C515 0.931 . S
O496 Co472 2.097 . S
O496 C524 1.214 . S
H497 C525 0.929 . S
H498 C526 0.929 . S
H499 C527 0.930 . S
H500 C528 0.929 . S
H501 C530 0.930 . S
H502 C507 0.930 . S
H503 C511 0.930 . S
O504 Co473 2.037 . S
O504 C524 1.234 . S
C505 O479 1.269 . S
C505 O480 1.257 . S
C506 H481 0.930 . S
C506 C509 1.388 . S
C506 C511 1.418 . S
C507 H502 0.930 . S
C507 C510 1.404 . S
C507 C511 1.353 . S
N508 Co473 2.145 . S
N508 C509 1.397 . S
N508 C510 1.334 . S
C509 H490 0.929 . S
C509 C506 1.388 . S
C509 N508 1.397 . S
C510 H491 0.929 . S
C510 C507 1.404 . S
C510 N508 1.334 . S
C511 H503 0.930 . S
C511 C506 1.418 . S
C511 C507 1.353 . S
C512 H482 0.930 . S
C512 N513 1.330 . S
C512 C514 1.446 . S
N513 Co472 2.151 . S
N513 C512 1.330 . S
N513 C517 1.418 . S
C514 H493 0.929 . S
C514 C512 1.446 . S
C514 C515 1.332 . S
C515 H495 0.931 . S
C515 C514 1.332 . S
C515 C516 1.267 . S
C516 H484 0.929 . S
C516 C515 1.267 . S
C516 C517 1.251 . S
C517 H487 0.929 . S
C517 N513 1.418 . S
C517 C516 1.251 . S
C518 H485 0.930 . S
C518 C520 1.406 . S
C518 C523 1.261 . S
C519 H486 0.930 . S
C519 N521 1.325 . S
C519 C522 1.357 . S
C520 H488 0.928 . S
C520 C518 1.406 . S
C520 N521 1.261 . S
N521 Co472 2.214 . S
N521 C519 1.325 . S
N521 C520 1.261 . S
C522 H492 0.931 . S
C522 C519 1.357 . S
C522 C523 1.312 . S
C523 H494 0.930 . S
C523 C518 1.261 . S
C523 C522 1.312 . S
C524 O496 1.214 . S
C524 O504 1.234 . S
C525 H497 0.929 . S
C525 C528 1.391 . S
C525 C530 1.391 . S
C526 H498 0.929 . S
C526 C527 1.390 . S
C526 N529 1.391 . S
C527 H499 0.930 . S
C527 C526 1.390 . S
C527 C528 1.392 . S
C528 H500 0.929 . S
C528 C525 1.391 . S
C528 C527 1.392 . S
N529 Co473 2.257 . S
N529 C526 1.391 . S
N529 C530 1.388 . S
C530 H501 0.930 . S
C530 C525 1.391 . S
C530 N529 1.388 . S
Co531 O533 2.143 . S
Co531 O539 2.074 . S
Co531 O542 2.093 . S
Co531 O555 2.097 . S
Co531 N572 2.151 . S
Co531 N580 2.214 . S
Co532 O533 2.160 . S
Co532 O538 2.058 . S
Co532 O548 2.057 1_554 S
Co532 O563 2.037 . S
Co532 N567 2.145 1_554 S
Co532 N588 2.257 . S
O533 Co531 2.143 . S
O533 Co532 2.160 . S
C534 O535 1.278 . S
C534 O542 1.224 . S
O535 C534 1.278 . S
C536 O537 1.245 1_556 S
C536 O548 1.232 . S
O537 C536 1.245 1_554 S
O538 Co532 2.058 . S
O538 C564 1.269 . S
O539 Co531 2.074 . S
O539 C564 1.257 . S
H540 C565 0.930 . S
H541 C571 0.930 . S
O542 Co531 2.093 . S
O542 C534 1.224 . S
H543 C575 0.929 . S
H544 C577 0.930 . S
H545 C578 0.930 . S
H546 C576 0.929 . S
H547 C579 0.928 . S
O548 Co532 2.057 1_556 S
O548 C536 1.232 . S
H549 C568 0.929 . S
H550 C569 0.929 . S
H551 C581 0.931 . S
H552 C573 0.929 . S
H553 C582 0.930 . S
H554 C574 0.931 . S
O555 Co531 2.097 . S
O555 C583 1.214 . S
H556 C584 0.929 . S
H557 C585 0.929 . S
H558 C586 0.930 . S
H559 C587 0.929 . S
H560 C589 0.930 . S
H561 C566 0.930 . S
H562 C570 0.930 . S
O563 Co532 2.037 . S
O563 C583 1.234 . S
C564 O538 1.269 . S
C564 O539 1.257 . S
C565 H540 0.930 . S
C565 C568 1.388 1_556 S
C565 C570 1.418 . S
C566 H561 0.930 . S
C566 C569 1.404 . S
C566 C570 1.353 . S
N567 Co532 2.145 1_556 S
N567 C568 1.397 1_556 S
N567 C569 1.334 . S
C568 H549 0.929 . S
C568 C565 1.388 1_554 S
C568 N567 1.397 1_554 S
C569 H550 0.929 . S
C569 C566 1.404 . S
C569 N567 1.334 . S
C570 H562 0.930 . S
C570 C565 1.418 . S
C570 C566 1.353 . S
C571 H541 0.930 . S
C571 N572 1.330 . S
C571 C573 1.446 . S
N572 Co531 2.151 . S
N572 C571 1.330 . S
N572 C576 1.418 . S
C573 H552 0.929 . S
C573 C571 1.446 . S
C573 C574 1.332 . S
C574 H554 0.931 . S
C574 C573 1.332 . S
C574 C575 1.267 . S
C575 H543 0.929 . S
C575 C574 1.267 . S
C575 C576 1.251 . S
C576 H546 0.929 . S
C576 N572 1.418 . S
C576 C575 1.251 . S
C577 H544 0.930 . S
C577 C579 1.406 . S
C577 C582 1.261 . S
C578 H545 0.930 . S
C578 N580 1.325 . S
C578 C581 1.357 . S
C579 H547 0.928 . S
C579 C577 1.406 . S
C579 N580 1.261 . S
N580 Co531 2.214 . S
N580 C578 1.325 . S
N580 C579 1.261 . S
C581 H551 0.931 . S
C581 C578 1.357 . S
C581 C582 1.312 . S
C582 H553 0.930 . S
C582 C577 1.261 . S
C582 C581 1.312 . S
C583 O555 1.214 . S
C583 O563 1.234 . S
C584 H556 0.929 . S
C584 C587 1.391 . S
C584 C589 1.391 . S
C585 H557 0.929 . S
C585 C586 1.390 . S
C585 N588 1.391 . S
C586 H558 0.930 . S
C586 C585 1.390 . S
C586 C587 1.392 . S
C587 H559 0.929 . S
C587 C584 1.391 . S
C587 C586 1.392 . S
N588 Co532 2.257 . S
N588 C585 1.391 . S
N588 C589 1.388 . S
C589 H560 0.930 . S
C589 C584 1.391 . S
C589 N588 1.388 . S
Co590 O592 2.143 . S
Co590 O598 2.074 . S
Co590 O601 2.093 . S
Co590 O614 2.097 . S
Co590 N631 2.151 . S
Co590 N639 2.214 . S
Co591 O592 2.160 . S
Co591 O597 2.058 . S
Co591 O607 2.039 1_554 S
Co591 O622 2.037 . S
Co591 N626 2.145 1_554 S
Co591 N647 2.257 . S
O592 Co590 2.143 . S
O592 Co591 2.160 . S
C593 O594 1.278 . S
C593 O601 1.224 . S
O594 C593 1.278 . S
C595 O596 1.245 1_556 S
C595 O607 1.234 . S
O596 C595 1.245 1_554 S
O597 Co591 2.058 . S
O597 C623 1.269 . S
O598 Co590 2.074 . S
O598 C623 1.257 . S
H599 C624 0.930 . S
H600 C630 0.930 . S
O601 Co590 2.093 . S
O601 C593 1.224 . S
H602 C634 0.929 . S
H603 C636 0.930 . S
H604 C637 0.930 . S
H605 C635 0.929 . S
H606 C638 0.928 . S
O607 Co591 2.039 1_556 S
O607 C595 1.234 . S
H608 C627 0.929 . S
H609 C628 0.929 . S
H610 C640 0.931 1_545 S
H611 C632 0.929 . S
H612 C641 0.930 . S
H613 C633 0.931 . S
O614 Co590 2.097 . S
O614 C642 1.214 . S
H615 C643 0.929 . S
H616 C644 0.889 1_545 S
H617 C645 0.930 . S
H618 C646 0.929 . S
H619 C648 0.930 . S
H620 C625 0.930 . S
H621 C629 0.930 . S
O622 Co591 2.037 . S
O622 C642 1.234 . S
C623 O597 1.269 . S
C623 O598 1.257 . S
C624 H599 0.930 . S
C624 C627 1.388 1_556 S
C624 C629 1.418 . S
C625 H620 0.930 . S
C625 C628 1.404 1_545 S
C625 C629 1.353 . S
N626 Co591 2.145 1_556 S
N626 C627 1.397 1_566 S
N626 C628 1.334 . S
C627 H608 0.929 . S
C627 C624 1.388 1_554 S
C627 N626 1.397 1_544 S
C628 H609 0.929 . S
C628 C625 1.404 1_565 S
C628 N626 1.334 . S
C629 H621 0.930 . S
C629 C624 1.418 . S
C629 C625 1.353 . S
C630 H600 0.930 . S
C630 N631 1.330 . S
C630 C632 1.446 . S
N631 Co590 2.151 . S
N631 C630 1.330 . S
N631 C635 1.418 . S
C632 H611 0.929 . S
C632 C630 1.446 . S
C632 C633 1.332 . S
C633 H613 0.931 . S
C633 C632 1.332 . S
C633 C634 1.267 . S
C634 H602 0.929 . S
C634 C633 1.267 . S
C634 C635 1.251 . S
C635 H605 0.929 . S
C635 N631 1.418 . S
C635 C634 1.251 . S
C636 H603 0.930 . S
C636 C638 1.406 . S
C636 C641 1.261 . S
C637 H604 0.930 . S
C637 N639 1.325 . S
C637 C640 1.357 . S
C638 H606 0.928 . S
C638 C636 1.406 . S
C638 N639 1.261 . S
N639 Co590 2.214 . S
N639 C637 1.325 . S
N639 C638 1.261 . S
C640 H610 0.931 1_565 S
C640 C637 1.357 . S
C640 C641 1.312 . S
C641 H612 0.930 . S
C641 C636 1.261 . S
C641 C640 1.312 . S
C642 O614 1.214 . S
C642 O622 1.234 . S
C643 H615 0.929 . S
C643 C646 1.391 . S
C643 C648 1.391 . S
C644 H616 0.889 1_565 S
C644 C645 1.390 . S
C644 N647 1.391 . S
C645 H617 0.930 . S
C645 C644 1.390 . S
C645 C646 1.392 . S
C646 H618 0.929 . S
C646 C643 1.391 . S
C646 C645 1.392 . S
N647 Co591 2.257 . S
N647 C644 1.391 . S
N647 C648 1.388 . S
C648 H619 0.930 . S
C648 C643 1.391 . S
C648 N647 1.388 . S
Co649 O651 2.143 . S
Co649 O657 2.074 . S
Co649 O660 2.093 . S
Co649 O673 2.097 . S
Co649 N690 2.151 . S
Co649 N698 2.214 . S
Co650 O651 2.160 . S
Co650 O656 2.058 . S
Co650 O666 2.057 1_554 S
Co650 O681 2.037 . S
Co650 N685 2.145 1_554 S
Co650 N706 2.257 . S
O651 Co649 2.143 . S
O651 Co650 2.160 . S
C652 O653 1.278 . S
C652 O660 1.224 . S
O653 C652 1.278 . S
C654 O655 1.245 1_556 S
C654 O666 1.232 . S
O655 C654 1.245 1_554 S
O656 Co650 2.058 . S
O656 C682 1.269 . S
O657 Co649 2.074 . S
O657 C682 1.257 . S
H658 C683 0.930 . S
H659 C689 0.930 . S
O660 Co649 2.093 . S
O660 C652 1.224 . S
H661 C693 0.929 . S
H662 C695 0.930 . S
H663 C696 0.930 . S
H664 C694 0.929 . S
H665 C697 0.928 . S
O666 Co650 2.057 1_556 S
O666 C654 1.232 . S
H667 C686 0.929 . S
H668 C687 0.929 . S
H669 C699 0.931 . S
H670 C691 0.929 . S
H671 C700 0.930 . S
H672 C692 0.931 . S
O673 Co649 2.097 . S
O673 C701 1.214 . S
H674 C702 0.929 . S
H675 C703 0.929 . S
H676 C704 0.930 . S
H677 C705 0.929 . S
H678 C707 0.930 . S
H679 C684 0.930 . S
H680 C688 0.930 . S
O681 Co650 2.037 . S
O681 C701 1.234 . S
C682 O656 1.269 . S
C682 O657 1.257 . S
C683 H658 0.930 . S
C683 C686 1.388 1_556 S
C683 C688 1.418 . S
C684 H679 0.930 . S
C684 C687 1.404 . S
C684 C688 1.353 . S
N685 Co650 2.145 1_556 S
N685 C686 1.397 1_556 S
N685 C687 1.334 . S
C686 H667 0.929 . S
C686 C683 1.388 1_554 S
C686 N685 1.397 1_554 S
C687 H668 0.929 . S
C687 C684 1.404 . S
C687 N685 1.334 . S
C688 H680 0.930 . S
C688 C683 1.418 . S
C688 C684 1.353 . S
C689 H659 0.930 . S
C689 N690 1.330 . S
C689 C691 1.446 . S
N690 Co649 2.151 . S
N690 C689 1.330 . S
N690 C694 1.418 . S
C691 H670 0.929 . S
C691 C689 1.446 . S
C691 C692 1.332 . S
C692 H672 0.931 . S
C692 C691 1.332 . S
C692 C693 1.267 . S
C693 H661 0.929 . S
C693 C692 1.267 . S
C693 C694 1.251 . S
C694 H664 0.929 . S
C694 N690 1.418 . S
C694 C693 1.251 . S
C695 H662 0.930 . S
C695 C697 1.406 . S
C695 C700 1.261 . S
C696 H663 0.930 . S
C696 N698 1.325 . S
C696 C699 1.357 . S
C697 H665 0.928 . S
C697 C695 1.406 . S
C697 N698 1.261 . S
N698 Co649 2.214 . S
N698 C696 1.325 . S
N698 C697 1.261 . S
C699 H669 0.931 . S
C699 C696 1.357 . S
C699 C700 1.312 . S
C700 H671 0.930 . S
C700 C695 1.261 . S
C700 C699 1.312 . S
C701 O673 1.214 . S
C701 O681 1.234 . S
C702 H674 0.929 . S
C702 C705 1.391 . S
C702 C707 1.391 . S
C703 H675 0.929 . S
C703 C704 1.390 . S
C703 N706 1.391 . S
C704 H676 0.930 . S
C704 C703 1.390 . S
C704 C705 1.392 . S
C705 H677 0.929 . S
C705 C702 1.391 . S
C705 C704 1.392 . S
N706 Co650 2.257 . S
N706 C703 1.391 . S
N706 C707 1.388 . S
C707 H678 0.930 . S
C707 C702 1.391 . S
C707 N706 1.388 . S
Co708 O710 2.143 . S
Co708 O716 2.074 . S
Co708 O719 2.093 . S
Co708 O732 2.097 . S
Co708 N749 2.151 . S
Co708 N757 2.214 . S
Co709 O710 2.160 . S
Co709 O715 2.058 . S
Co709 O725 2.057 1_556 S
Co709 O740 2.037 . S
Co709 N744 2.145 1_556 S
Co709 N765 2.257 . S
O710 Co708 2.143 . S
O710 Co709 2.160 . S
C711 O712 1.278 . S
C711 O719 1.224 . S
O712 C711 1.278 . S
C713 O714 1.245 1_554 S
C713 O725 1.232 . S
O714 C713 1.245 1_556 S
O715 Co709 2.058 . S
O715 C741 1.269 . S
O716 Co708 2.074 . S
O716 C741 1.257 . S
H717 C742 0.930 . S
H718 C748 0.930 . S
O719 Co708 2.093 . S
O719 C711 1.224 . S
H720 C752 0.929 . S
H721 C754 0.930 . S
H722 C755 0.930 . S
H723 C753 0.929 . S
H724 C756 0.928 . S
O725 Co709 2.057 1_554 S
O725 C713 1.232 . S
H726 C745 0.929 . S
H727 C746 0.929 . S
H728 C758 0.931 . S
H729 C750 0.929 . S
H730 C759 0.930 . S
H731 C751 0.931 . S
O732 Co708 2.097 . S
O732 C760 1.214 . S
H733 C761 0.929 . S
H734 C762 0.929 . S
H735 C763 0.930 . S
H736 C764 0.929 . S
H737 C766 0.930 . S
H738 C743 0.930 . S
H739 C747 0.930 . S
O740 Co709 2.037 . S
O740 C760 1.234 . S
C741 O715 1.269 . S
C741 O716 1.257 . S
C742 H717 0.930 . S
C742 C745 1.388 1_554 S
C742 C747 1.418 . S
C743 H738 0.930 . S
C743 C746 1.404 . S
C743 C747 1.353 . S
N744 Co709 2.145 1_554 S
N744 C745 1.397 1_554 S
N744 C746 1.334 . S
C745 H726 0.929 . S
C745 C742 1.388 1_556 S
C745 N744 1.397 1_556 S
C746 H727 0.929 . S
C746 C743 1.404 . S
C746 N744 1.334 . S
C747 H739 0.930 . S
C747 C742 1.418 . S
C747 C743 1.353 . S
C748 H718 0.930 . S
C748 N749 1.330 . S
C748 C750 1.446 . S
N749 Co708 2.151 . S
N749 C748 1.330 . S
N749 C753 1.418 . S
C750 H729 0.929 . S
C750 C748 1.446 . S
C750 C751 1.332 . S
C751 H731 0.931 . S
C751 C750 1.332 . S
C751 C752 1.267 . S
C752 H720 0.929 . S
C752 C751 1.267 . S
C752 C753 1.251 . S
C753 H723 0.929 . S
C753 N749 1.418 . S
C753 C752 1.251 . S
C754 H721 0.930 . S
C754 C756 1.406 . S
C754 C759 1.261 . S
C755 H722 0.930 . S
C755 N757 1.325 . S
C755 C758 1.357 . S
C756 H724 0.928 . S
C756 C754 1.406 . S
C756 N757 1.261 . S
N757 Co708 2.214 . S
N757 C755 1.325 . S
N757 C756 1.261 . S
C758 H728 0.931 . S
C758 C755 1.357 . S
C758 C759 1.312 . S
C759 H730 0.930 . S
C759 C754 1.261 . S
C759 C758 1.312 . S
C760 O732 1.214 . S
C760 O740 1.234 . S
C761 H733 0.929 . S
C761 C764 1.391 . S
C761 C766 1.391 . S
C762 H734 0.929 . S
C762 C763 1.390 . S
C762 N765 1.391 . S
C763 H735 0.930 . S
C763 C762 1.390 . S
C763 C764 1.392 . S
C764 H736 0.929 . S
C764 C761 1.391 . S
C764 C763 1.392 . S
N765 Co709 2.257 . S
N765 C762 1.391 . S
N765 C766 1.388 . S
C766 H737 0.930 . S
C766 C761 1.391 . S
C766 N765 1.388 . S
Co767 O769 2.143 . S
Co767 O775 2.074 . S
Co767 O778 2.093 1_556 S
Co767 O791 2.097 . S
Co767 N808 2.151 . S
Co767 N816 2.214 1_556 S
Co768 O769 2.160 . S
Co768 O774 2.058 . S
Co768 O784 2.057 . S
Co768 O799 2.037 . S
Co768 N803 2.145 . S
Co768 N824 2.257 . S
O769 Co767 2.143 . S
O769 Co768 2.160 . S
C770 O771 1.278 1_554 S
C770 O778 1.224 . S
O771 C770 1.278 1_556 S
C772 O773 1.245 . S
C772 O784 1.232 . S
O773 C772 1.245 . S
O774 Co768 2.058 . S
O774 C800 1.269 . S
O775 Co767 2.074 . S
O775 C800 1.257 . S
H776 C801 0.930 . S
H777 C807 0.930 . S
O778 Co767 2.093 1_554 S
O778 C770 1.224 . S
H779 C811 0.929 . S
H780 C813 0.930 . S
H781 C814 0.930 1_556 S
H782 C812 0.929 . S
H783 C815 0.928 . S
O784 Co768 2.057 . S
O784 C772 1.232 . S
H785 C804 0.929 . S
H786 C805 0.929 . S
H787 C817 0.931 . S
H788 C809 0.929 . S
H789 C818 0.930 . S
H790 C810 0.931 . S
O791 Co767 2.097 . S
O791 C819 1.214 . S
H792 C820 0.929 . S
H793 C821 0.929 . S
H794 C822 0.930 . S
H795 C823 0.929 . S
H796 C825 0.930 . S
H797 C802 0.930 . S
H798 C806 0.930 . S
O799 Co768 2.037 . S
O799 C819 1.234 . S
C800 O774 1.269 . S
C800 O775 1.257 . S
C801 H776 0.930 . S
C801 C804 1.388 . S
C801 C806 1.418 . S
C802 H797 0.930 . S
C802 C805 1.404 . S
C802 C806 1.353 . S
N803 Co768 2.145 . S
N803 C804 1.397 . S
N803 C805 1.334 . S
C804 H785 0.929 . S
C804 C801 1.388 . S
C804 N803 1.397 . S
C805 H786 0.929 . S
C805 C802 1.404 . S
C805 N803 1.334 . S
C806 H798 0.930 . S
C806 C801 1.418 . S
C806 C802 1.353 . S
C807 H777 0.930 . S
C807 N808 1.330 . S
C807 C809 1.446 . S
N808 Co767 2.151 . S
N808 C807 1.330 . S
N808 C812 1.418 . S
C809 H788 0.929 . S
C809 C807 1.446 . S
C809 C810 1.332 . S
C810 H790 0.931 . S
C810 C809 1.332 . S
C810 C811 1.267 . S
C811 H779 0.929 . S
C811 C810 1.267 . S
C811 C812 1.251 . S
C812 H782 0.929 . S
C812 N808 1.418 . S
C812 C811 1.251 . S
C813 H780 0.930 . S
C813 C815 1.406 . S
C813 C818 1.261 . S
C814 H781 0.930 1_554 S
C814 N816 1.325 . S
C814 C817 1.357 . S
C815 H783 0.928 . S
C815 C813 1.406 . S
C815 N816 1.261 . S
N816 Co767 2.214 1_554 S
N816 C814 1.325 . S
N816 C815 1.261 . S
C817 H787 0.931 . S
C817 C814 1.357 . S
C817 C818 1.312 . S
C818 H789 0.930 . S
C818 C813 1.261 . S
C818 C817 1.312 . S
C819 O791 1.214 . S
C819 O799 1.234 . S
C820 H792 0.929 . S
C820 C823 1.391 . S
C820 C825 1.391 . S
C821 H793 0.929 . S
C821 C822 1.390 . S
C821 N824 1.391 . S
C822 H794 0.930 . S
C822 C821 1.390 . S
C822 C823 1.392 . S
C823 H795 0.929 . S
C823 C820 1.391 . S
C823 C822 1.392 . S
N824 Co768 2.257 . S
N824 C821 1.391 . S
N824 C825 1.388 . S
C825 H796 0.930 . S
C825 C820 1.391 . S
C825 N824 1.388 . S
Co826 O828 2.143 . S
Co826 O834 2.074 . S
Co826 O837 2.093 . S
Co826 O850 2.097 . S
Co826 N867 2.151 . S
Co826 N875 2.214 . S
Co827 O828 2.160 . S
Co827 O833 2.058 . S
Co827 O843 2.050 1_556 S
Co827 O858 2.037 . S
Co827 N862 2.145 1_556 S
Co827 N883 2.257 . S
O828 Co826 2.143 . S
O828 Co827 2.160 . S
C829 O830 1.278 . S
C829 O837 1.224 . S
O830 C829 1.278 . S
C831 O832 1.245 1_554 S
C831 O843 1.232 . S
O832 C831 1.245 1_556 S
O833 Co827 2.058 . S
O833 C859 1.269 . S
O834 Co826 2.074 . S
O834 C859 1.257 . S
H835 C860 0.930 . S
H836 C866 0.930 . S
O837 Co826 2.093 . S
O837 C829 1.224 . S
H838 C870 0.929 . S
H839 C872 0.930 . S
H840 C873 0.930 . S
H841 C871 0.929 . S
H842 C874 0.928 . S
O843 Co827 2.050 1_554 S
O843 C831 1.232 . S
H844 C863 0.929 . S
H845 C864 0.929 . S
H846 C876 0.931 1_455 S
H847 C868 0.929 . S
H848 C877 0.930 . S
H849 C869 0.931 . S
O850 Co826 2.097 . S
O850 C878 1.214 . S
H851 C879 0.929 . S
H852 C880 0.929 1_455 S
H853 C881 0.932 1_455 S
H854 C882 0.929 . S
H855 C884 0.930 . S
H856 C861 0.930 . S
H857 C865 0.930 . S
O858 Co827 2.037 . S
O858 C878 1.234 . S
C859 O833 1.269 . S
C859 O834 1.257 . S
C860 H835 0.930 . S
C860 C863 1.388 1_554 S
C860 C865 1.418 . S
C861 H856 0.930 . S
C861 C864 1.404 1_455 S
C861 C865 1.353 . S
N862 Co827 2.145 1_554 S
N862 C863 1.397 1_654 S
N862 C864 1.334 . S
C863 H844 0.929 . S
C863 C860 1.388 1_556 S
C863 N862 1.397 1_456 S
C864 H845 0.929 . S
C864 C861 1.404 1_655 S
C864 N862 1.334 . S
C865 H857 0.930 . S
C865 C860 1.418 . S
C865 C861 1.353 . S
C866 H836 0.930 . S
C866 N867 1.330 . S
C866 C868 1.446 . S
N867 Co826 2.151 . S
N867 C866 1.330 . S
N867 C871 1.418 . S
C868 H847 0.929 . S
C868 C866 1.446 . S
C868 C869 1.332 . S
C869 H849 0.931 . S
C869 C868 1.332 . S
C869 C870 1.267 . S
C870 H838 0.929 . S
C870 C869 1.267 . S
C870 C871 1.251 . S
C871 H841 0.929 . S
C871 N867 1.418 . S
C871 C870 1.251 . S
C872 H839 0.930 . S
C872 C874 1.406 . S
C872 C877 1.261 . S
C873 H840 0.930 . S
C873 N875 1.325 . S
C873 C876 1.357 . S
C874 H842 0.928 . S
C874 C872 1.406 . S
C874 N875 1.261 . S
N875 Co826 2.214 . S
N875 C873 1.325 . S
N875 C874 1.261 . S
C876 H846 0.931 1_655 S
C876 C873 1.357 . S
C876 C877 1.312 . S
C877 H848 0.930 . S
C877 C872 1.261 . S
C877 C876 1.312 . S
C878 O850 1.214 . S
C878 O858 1.234 . S
C879 H851 0.929 . S
C879 C882 1.391 . S
C879 C884 1.391 . S
C880 H852 0.929 1_655 S
C880 C881 1.390 . S
C880 N883 1.391 . S
C881 H853 0.932 1_655 S
C881 C880 1.390 . S
C881 C882 1.392 . S
C882 H854 0.929 . S
C882 C879 1.391 . S
C882 C881 1.392 . S
N883 Co827 2.257 . S
N883 C880 1.391 . S
N883 C884 1.388 . S
C884 H855 0.930 . S
C884 C879 1.391 . S
C884 N883 1.388 . S
Co885 O887 2.143 . S
Co885 O893 2.074 . S
Co885 O896 2.093 . S
Co885 O909 2.097 . S
Co885 N926 2.151 . S
Co885 N934 2.214 . S
Co886 O887 2.160 . S
Co886 O892 2.058 . S
Co886 O902 2.057 . S
Co886 O917 2.037 . S
Co886 N921 2.145 . S
Co886 N942 2.257 . S
O887 Co885 2.143 . S
O887 Co886 2.160 . S
C888 O889 1.278 . S
C888 O896 1.224 . S
O889 C888 1.278 . S
C890 O891 1.245 . S
C890 O902 1.232 . S
O891 C890 1.245 . S
O892 Co886 2.058 . S
O892 C918 1.269 . S
O893 Co885 2.074 . S
O893 C918 1.257 . S
H894 C919 0.930 . S
H895 C925 0.930 . S
O896 Co885 2.093 . S
O896 C888 1.224 . S
H897 C929 0.929 . S
H898 C931 0.930 . S
H899 C932 0.930 . S
H900 C930 0.929 . S
H901 C933 0.928 . S
O902 Co886 2.057 . S
O902 C890 1.232 . S
H903 C922 0.929 . S
H904 C923 0.929 . S
H905 C935 0.931 . S
H906 C927 0.929 . S
H907 C936 0.930 . S
H908 C928 0.931 . S
O909 Co885 2.097 . S
O909 C937 1.214 . S
H910 C938 0.929 . S
H911 C939 0.929 . S
H912 C940 0.930 . S
H913 C941 0.929 . S
H914 C943 0.930 . S
H915 C920 0.930 . S
H916 C924 0.930 . S
O917 Co886 2.037 . S
O917 C937 1.234 . S
C918 O892 1.269 . S
C918 O893 1.257 . S
C919 H894 0.930 . S
C919 C922 1.388 . S
C919 C924 1.418 . S
C920 H915 0.930 . S
C920 C923 1.404 . S
C920 C924 1.353 . S
N921 Co886 2.145 . S
N921 C922 1.397 . S
N921 C923 1.334 . S
C922 H903 0.929 . S
C922 C919 1.388 . S
C922 N921 1.397 . S
C923 H904 0.929 . S
C923 C920 1.404 . S
C923 N921 1.334 . S
C924 H916 0.930 . S
C924 C919 1.418 . S
C924 C920 1.353 . S
C925 H895 0.930 . S
C925 N926 1.330 . S
C925 C927 1.446 . S
N926 Co885 2.151 . S
N926 C925 1.330 . S
N926 C930 1.418 . S
C927 H906 0.929 . S
C927 C925 1.446 . S
C927 C928 1.332 . S
C928 H908 0.931 . S
C928 C927 1.332 . S
C928 C929 1.267 . S
C929 H897 0.929 . S
C929 C928 1.267 . S
C929 C930 1.251 . S
C930 H900 0.929 . S
C930 N926 1.418 . S
C930 C929 1.251 . S
C931 H898 0.930 . S
C931 C933 1.406 . S
C931 C936 1.261 . S
C932 H899 0.930 . S
C932 N934 1.325 . S
C932 C935 1.357 . S
C933 H901 0.928 . S
C933 C931 1.406 . S
C933 N934 1.261 . S
N934 Co885 2.214 . S
N934 C932 1.325 . S
N934 C933 1.261 . S
C935 H905 0.931 . S
C935 C932 1.357 . S
C935 C936 1.312 . S
C936 H907 0.930 . S
C936 C931 1.261 . S
C936 C935 1.312 . S
C937 O909 1.214 . S
C937 O917 1.234 . S
C938 H910 0.929 . S
C938 C941 1.391 . S
C938 C943 1.391 . S
C939 H911 0.929 . S
C939 C940 1.390 . S
C939 N942 1.391 . S
C940 H912 0.930 . S
C940 C939 1.390 . S
C940 C941 1.392 . S
C941 H913 0.929 . S
C941 C938 1.391 . S
C941 C940 1.392 . S
N942 Co886 2.257 . S
N942 C939 1.391 . S
N942 C943 1.388 . S
C943 H914 0.930 . S
C943 C938 1.391 . S
C943 N942 1.388 . S
Co944 O946 2.143 . S
Co944 O952 2.074 . S
Co944 O955 2.093 . S
Co944 O968 2.097 . S
Co944 N985 2.151 . S
Co944 N993 2.214 . S
Co945 O946 2.160 . S
Co945 O951 2.058 . S
Co945 O961 2.057 . S
Co945 O976 2.037 . S
Co945 N980 2.145 . S
Co945 N1001 2.257 . S
O946 Co944 2.143 . S
O946 Co945 2.160 . S
C947 O948 1.278 . S
C947 O955 1.224 . S
O948 C947 1.278 . S
C949 O950 1.245 . S
C949 O961 1.232 . S
O950 C949 1.245 . S
O951 Co945 2.058 . S
O951 C977 1.269 . S
O952 Co944 2.074 . S
O952 C977 1.257 . S
H953 C978 0.930 . S
H954 C984 0.930 . S
O955 Co944 2.093 . S
O955 C947 1.224 . S
H956 C988 0.929 . S
H957 C990 0.930 . S
H958 C991 0.930 . S
H959 C989 0.929 . S
H960 C992 0.928 . S
O961 Co945 2.057 . S
O961 C949 1.232 . S
H962 C981 0.929 . S
H963 C982 0.929 . S
H964 C994 0.931 1_455 S
H965 C986 0.929 . S
H966 C995 0.930 . S
H967 C987 0.931 . S
O968 Co944 2.097 . S
O968 C996 1.214 . S
H969 C997 0.929 . S
H970 C998 0.929 1_455 S
H971 C999 0.925 1_455 S
H972 C1000 0.929 . S
H973 C1002 0.930 . S
H974 C979 0.930 . S
H975 C983 0.930 . S
O976 Co945 2.037 . S
O976 C996 1.234 . S
C977 O951 1.269 . S
C977 O952 1.257 . S
C978 H953 0.930 . S
C978 C981 1.388 . S
C978 C983 1.418 . S
C979 H974 0.930 . S
C979 C982 1.404 1_455 S
C979 C983 1.353 . S
N980 Co945 2.145 . S
N980 C981 1.397 1_655 S
N980 C982 1.334 . S
C981 H962 0.929 . S
C981 C978 1.388 . S
C981 N980 1.397 1_455 S
C982 H963 0.929 . S
C982 C979 1.404 1_655 S
C982 N980 1.334 . S
C983 H975 0.930 . S
C983 C978 1.418 . S
C983 C979 1.353 . S
C984 H954 0.930 . S
C984 N985 1.330 . S
C984 C986 1.446 . S
N985 Co944 2.151 . S
N985 C984 1.330 . S
N985 C989 1.418 . S
C986 H965 0.929 . S
C986 C984 1.446 . S
C986 C987 1.332 . S
C987 H967 0.931 . S
C987 C986 1.332 . S
C987 C988 1.267 . S
C988 H956 0.929 . S
C988 C987 1.267 . S
C988 C989 1.251 . S
C989 H959 0.929 . S
C989 N985 1.418 . S
C989 C988 1.251 . S
C990 H957 0.930 . S
C990 C992 1.406 . S
C990 C995 1.261 . S
C991 H958 0.930 . S
C991 N993 1.325 . S
C991 C994 1.357 . S
C992 H960 0.928 . S
C992 C990 1.406 . S
C992 N993 1.261 . S
N993 Co944 2.214 . S
N993 C991 1.325 . S
N993 C992 1.261 . S
C994 H964 0.931 1_655 S
C994 C991 1.357 . S
C994 C995 1.312 . S
C995 H966 0.930 . S
C995 C990 1.261 . S
C995 C994 1.312 . S
C996 O968 1.214 . S
C996 O976 1.234 . S
C997 H969 0.929 . S
C997 C1000 1.391 . S
C997 C1002 1.391 . S
C998 H970 0.929 1_655 S
C998 C999 1.390 . S
C998 N1001 1.391 . S
C999 H971 0.925 1_655 S
C999 C998 1.390 . S
C999 C1000 1.392 . S
C1000 H972 0.929 . S
C1000 C997 1.391 . S
C1000 C999 1.392 . S
N1001 Co945 2.257 . S
N1001 C998 1.391 . S
N1001 C1002 1.388 . S
C1002 H973 0.930 . S
C1002 C997 1.391 . S
C1002 N1001 1.388 . S
Co1003 O1005 2.143 . S
Co1003 O1011 2.074 . S
Co1003 O1014 2.093 . S
Co1003 O1027 2.097 . S
Co1003 N1044 2.151 . S
Co1003 N1052 2.214 . S
Co1004 O1005 2.160 . S
Co1004 O1010 2.058 . S
Co1004 O1020 2.057 . S
Co1004 O1035 2.037 . S
Co1004 N1039 2.145 . S
Co1004 N1060 2.257 . S
O1005 Co1003 2.143 . S
O1005 Co1004 2.160 . S
C1006 O1007 1.278 . S
C1006 O1014 1.224 . S
O1007 C1006 1.278 . S
C1008 O1009 1.245 . S
C1008 O1020 1.232 . S
O1009 C1008 1.245 . S
O1010 Co1004 2.058 . S
O1010 C1036 1.269 . S
O1011 Co1003 2.074 . S
O1011 C1036 1.257 . S
H1012 C1037 0.930 . S
H1013 C1043 0.930 . S
O1014 Co1003 2.093 . S
O1014 C1006 1.224 . S
H1015 C1047 0.929 . S
H1016 C1049 0.930 . S
H1017 C1050 0.930 . S
H1018 C1048 0.929 . S
H1019 C1051 0.928 . S
O1020 Co1004 2.057 . S
O1020 C1008 1.232 . S
H1021 C1040 0.929 . S
H1022 C1041 0.929 . S
H1023 C1053 0.931 . S
H1024 C1045 0.929 . S
H1025 C1054 0.930 . S
H1026 C1046 0.931 . S
O1027 Co1003 2.097 . S
O1027 C1055 1.214 . S
H1028 C1056 0.929 . S
H1029 C1057 0.929 . S
H1030 C1058 0.930 . S
H1031 C1059 0.929 . S
H1032 C1061 0.930 . S
H1033 C1038 0.930 . S
H1034 C1042 0.930 . S
O1035 Co1004 2.037 . S
O1035 C1055 1.234 . S
C1036 O1010 1.269 . S
C1036 O1011 1.257 . S
C1037 H1012 0.930 . S
C1037 C1040 1.388 . S
C1037 C1042 1.418 . S
C1038 H1033 0.930 . S
C1038 C1041 1.404 . S
C1038 C1042 1.353 . S
N1039 Co1004 2.145 . S
N1039 C1040 1.397 . S
N1039 C1041 1.334 . S
C1040 H1021 0.929 . S
C1040 C1037 1.388 . S
C1040 N1039 1.397 . S
C1041 H1022 0.929 . S
C1041 C1038 1.404 . S
C1041 N1039 1.334 . S
C1042 H1034 0.930 . S
C1042 C1037 1.418 . S
C1042 C1038 1.353 . S
C1043 H1013 0.930 . S
C1043 N1044 1.330 . S
C1043 C1045 1.446 . S
N1044 Co1003 2.151 . S
N1044 C1043 1.330 . S
N1044 C1048 1.418 . S
C1045 H1024 0.929 . S
C1045 C1043 1.446 . S
C1045 C1046 1.332 . S
C1046 H1026 0.931 . S
C1046 C1045 1.332 . S
C1046 C1047 1.267 . S
C1047 H1015 0.929 . S
C1047 C1046 1.267 . S
C1047 C1048 1.251 . S
C1048 H1018 0.929 . S
C1048 N1044 1.418 . S
C1048 C1047 1.251 . S
C1049 H1016 0.930 . S
C1049 C1051 1.406 . S
C1049 C1054 1.261 . S
C1050 H1017 0.930 . S
C1050 N1052 1.325 . S
C1050 C1053 1.357 . S
C1051 H1019 0.928 . S
C1051 C1049 1.406 . S
C1051 N1052 1.261 . S
N1052 Co1003 2.214 . S
N1052 C1050 1.325 . S
N1052 C1051 1.261 . S
C1053 H1023 0.931 . S
C1053 C1050 1.357 . S
C1053 C1054 1.312 . S
C1054 H1025 0.930 . S
C1054 C1049 1.261 . S
C1054 C1053 1.312 . S
C1055 O1027 1.214 . S
C1055 O1035 1.234 . S
C1056 H1028 0.929 . S
C1056 C1059 1.391 . S
C1056 C1061 1.391 . S
C1057 H1029 0.929 . S
C1057 C1058 1.390 . S
C1057 N1060 1.391 . S
C1058 H1030 0.930 . S
C1058 C1057 1.390 . S
C1058 C1059 1.392 . S
C1059 H1031 0.929 . S
C1059 C1056 1.391 . S
C1059 C1058 1.392 . S
N1060 Co1004 2.257 . S
N1060 C1057 1.391 . S
N1060 C1061 1.388 . S
C1061 H1032 0.930 . S
C1061 C1056 1.391 . S
C1061 N1060 1.388 . S
H1062 C1070 0.929 . S
H1063 C1072 0.930 . S
H1064 C1074 0.930 . S
H1065 C1077 0.929 . S
H1066 C1080 0.930 . S
H1067 C1082 0.960 . S
H1068 C1082 0.960 . S
H1069 C1082 0.960 . S
C1070 H1062 0.929 . S
C1070 C1071 1.377 . S
C1070 C1072 1.384 . S
C1071 C1070 1.377 . S
C1071 C1077 1.390 . S
C1072 H1063 0.930 . S
C1072 C1070 1.384 . S
C1072 C1073 1.372 . S
C1073 C1072 1.372 . S
C1073 C1074 1.400 . S
C1073 C1078 1.490 . S
C1074 H1064 0.930 . S
C1074 C1073 1.400 . S
C1074 C1077 1.386 . S
H1075 C1091 0.930 . S
H1076 C1092 0.931 . S
C1077 H1065 0.929 . S
C1077 C1071 1.390 . S
C1077 C1074 1.386 . S
C1078 C1073 1.490 . S
C1078 C1080 1.395 1_556 S
C1078 C1081 1.403 . S
H1079 C1085 0.930 . S
C1080 H1066 0.930 . S
C1080 C1078 1.395 1_554 S
C1080 C1083 1.403 . S
C1081 C1078 1.403 . S
C1081 C1082 1.524 . S
C1081 C1085 1.400 . S
C1082 H1067 0.960 . S
C1082 H1068 0.960 . S
C1082 H1069 0.960 . S
C1082 C1081 1.524 . S
C1083 C1080 1.403 . S
C1083 C1084 1.392 . S
C1083 C1087 1.495 . S
C1084 C1083 1.392 . S
C1084 C1085 1.385 1_554 S
C1084 C1086 1.478 . S
C1085 H1079 0.930 . S
C1085 C1081 1.400 . S
C1085 C1084 1.385 1_556 S
C1086 C1084 1.478 . S
C1086 C1088 1.381 . S
C1086 C1092 1.383 . S
C1087 C1083 1.495 . S
C1087 H1093 0.959 . S
C1087 H1094 0.961 . S
C1087 H1095 0.960 . S
C1088 C1086 1.381 . S
C1088 C1089 1.394 . S
C1088 H1096 0.930 . S
C1089 C1088 1.394 . S
C1089 C1090 1.383 . S
C1089 H1097 0.929 . S
C1090 C1089 1.383 . S
C1090 C1091 1.377 . S
C1091 H1075 0.930 . S
C1091 C1090 1.377 . S
C1091 C1092 1.379 . S
C1092 H1076 0.931 . S
C1092 C1086 1.383 . S
C1092 C1091 1.379 . S
H1093 C1087 0.959 . S
H1094 C1087 0.961 . S
H1095 C1087 0.960 . S
H1096 C1088 0.930 . S
H1097 C1089 0.929 . S
H1098 C1106 0.929 . S
H1099 C1108 0.930 . S
H1100 C1110 0.930 . S
H1101 C1113 0.929 . S
H1102 C1116 0.930 . S
H1103 C1118 0.960 . S
H1104 C1118 0.960 . S
H1105 C1118 0.960 . S
C1106 H1098 0.929 . S
C1106 C1107 1.377 . S
C1106 C1108 1.384 . S
C1107 C1106 1.377 . S
C1107 C1113 1.390 . S
C1108 H1099 0.930 . S
C1108 C1106 1.384 . S
C1108 C1109 1.372 . S
C1109 C1108 1.372 . S
C1109 C1110 1.400 . S
C1109 C1114 1.490 . S
C1110 H1100 0.930 . S
C1110 C1109 1.400 . S
C1110 C1113 1.386 . S
H1111 C1127 0.930 . S
H1112 C1128 0.931 . S
C1113 H1101 0.929 . S
C1113 C1107 1.390 . S
C1113 C1110 1.386 . S
C1114 C1109 1.490 . S
C1114 C1116 1.395 1_556 S
C1114 C1117 1.403 . S
H1115 C1121 0.930 . S
C1116 H1102 0.930 . S
C1116 C1114 1.395 1_554 S
C1116 C1119 1.403 . S
C1117 C1114 1.403 . S
C1117 C1118 1.524 . S
C1117 C1121 1.400 1_556 S
C1118 H1103 0.960 . S
C1118 H1104 0.960 . S
C1118 H1105 0.960 . S
C1118 C1117 1.524 . S
C1119 C1116 1.403 . S
C1119 C1120 1.392 . S
C1119 C1123 1.495 . S
C1120 C1119 1.392 . S
C1120 C1121 1.385 . S
C1120 C1122 1.478 . S
C1121 H1115 0.930 . S
C1121 C1117 1.400 1_554 S
C1121 C1120 1.385 . S
C1122 C1120 1.478 . S
C1122 C1124 1.381 . S
C1122 C1128 1.383 . S
C1123 C1119 1.495 . S
C1123 H1129 0.959 . S
C1123 H1130 0.961 . S
C1123 H1131 0.960 . S
C1124 C1122 1.381 . S
C1124 C1125 1.394 . S
C1124 H1132 0.930 . S
C1125 C1124 1.394 . S
C1125 C1126 1.383 . S
C1125 H1133 0.929 . S
C1126 C1125 1.383 . S
C1126 C1127 1.377 . S
C1127 H1111 0.930 . S
C1127 C1126 1.377 . S
C1127 C1128 1.379 . S
C1128 H1112 0.931 . S
C1128 C1122 1.383 . S
C1128 C1127 1.379 . S
H1129 C1123 0.959 . S
H1130 C1123 0.961 . S
H1131 C1123 0.960 . S
H1132 C1124 0.930 . S
H1133 C1125 0.929 . S
H1134 C1142 0.929 . S
H1135 C1144 0.930 . S
H1136 C1146 0.930 . S
H1137 C1149 0.929 . S
H1138 C1152 0.930 . S
H1139 C1154 0.960 . S
H1140 C1154 0.960 . S
H1141 C1154 0.960 1_554 S
C1142 H1134 0.929 . S
C1142 C1143 1.377 . S
C1142 C1144 1.384 . S
C1143 C1142 1.377 . S
C1143 C1149 1.390 . S
C1144 H1135 0.930 . S
C1144 C1142 1.384 . S
C1144 C1145 1.372 . S
C1145 C1144 1.372 . S
C1145 C1146 1.400 . S
C1145 C1150 1.490 . S
C1146 H1136 0.930 . S
C1146 C1145 1.400 . S
C1146 C1149 1.386 . S
H1147 C1163 0.930 . S
H1148 C1164 0.931 . S
C1149 H1137 0.929 . S
C1149 C1143 1.390 . S
C1149 C1146 1.386 . S
C1150 C1145 1.490 . S
C1150 C1152 1.395 . S
C1150 C1153 1.403 1_554 S
H1151 C1157 0.930 . S
C1152 H1138 0.930 . S
C1152 C1150 1.395 . S
C1152 C1155 1.403 . S
C1153 C1150 1.403 1_556 S
C1153 C1154 1.524 . S
C1153 C1157 1.400 . S
C1154 H1139 0.960 . S
C1154 H1140 0.960 . S
C1154 H1141 0.960 1_556 S
C1154 C1153 1.524 . S
C1155 C1152 1.403 . S
C1155 C1156 1.392 1_554 S
C1155 C1159 1.495 . S
C1156 C1155 1.392 1_556 S
C1156 C1157 1.385 . S
C1156 C1158 1.478 . S
C1157 H1151 0.930 . S
C1157 C1153 1.400 . S
C1157 C1156 1.385 . S
C1158 C1156 1.478 . S
C1158 C1160 1.381 . S
C1158 C1164 1.383 . S
C1159 C1155 1.495 . S
C1159 H1165 0.959 . S
C1159 H1166 0.961 . S
C1159 H1167 0.960 1_554 S
C1160 C1158 1.381 . S
C1160 C1161 1.394 . S
C1160 H1168 0.930 . S
C1161 C1160 1.394 . S
C1161 C1162 1.383 . S
C1161 H1169 0.929 . S
C1162 C1161 1.383 . S
C1162 C1163 1.377 . S
C1163 H1147 0.930 . S
C1163 C1162 1.377 . S
C1163 C1164 1.379 . S
C1164 H1148 0.931 . S
C1164 C1158 1.383 . S
C1164 C1163 1.379 . S
H1165 C1159 0.959 . S
H1166 C1159 0.961 . S
H1167 C1159 0.960 1_556 S
H1168 C1160 0.930 . S
H1169 C1161 0.929 . S
H1170 C1178 0.929 . S
H1171 C1180 0.930 . S
H1172 C1182 0.930 . S
H1173 C1185 0.929 . S
H1174 C1188 0.930 . S
H1175 C1190 0.960 . S
H1176 C1190 0.960 . S
H1177 C1190 0.960 . S
C1178 H1170 0.929 . S
C1178 C1179 1.377 . S
C1178 C1180 1.384 . S
C1179 C1178 1.377 . S
C1179 C1185 1.390 . S
C1180 H1171 0.930 . S
C1180 C1178 1.384 . S
C1180 C1181 1.372 . S
C1181 C1180 1.372 . S
C1181 C1182 1.400 . S
C1181 C1186 1.490 . S
C1182 H1172 0.930 . S
C1182 C1181 1.400 . S
C1182 C1185 1.386 . S
H1183 C1199 0.930 . S
H1184 C1200 0.931 . S
C1185 H1173 0.929 . S
C1185 C1179 1.390 . S
C1185 C1182 1.386 . S
C1186 C1181 1.490 . S
C1186 C1188 1.395 . S
C1186 C1189 1.403 . S
H1187 C1193 0.930 . S
C1188 H1174 0.930 . S
C1188 C1186 1.395 . S
C1188 C1191 1.403 . S
C1189 C1186 1.403 . S
C1189 C1190 1.524 . S
C1189 C1193 1.400 . S
C1190 H1175 0.960 . S
C1190 H1176 0.960 . S
C1190 H1177 0.960 . S
C1190 C1189 1.524 . S
C1191 C1188 1.403 . S
C1191 C1192 1.392 . S
C1191 C1195 1.495 . S
C1192 C1191 1.392 . S
C1192 C1193 1.385 . S
C1192 C1194 1.478 . S
C1193 H1187 0.930 . S
C1193 C1189 1.400 . S
C1193 C1192 1.385 . S
C1194 C1192 1.478 . S
C1194 C1196 1.381 . S
C1194 C1200 1.383 . S
C1195 C1191 1.495 . S
C1195 H1201 0.959 . S
C1195 H1202 0.961 . S
C1195 H1203 0.960 . S
C1196 C1194 1.381 . S
C1196 C1197 1.394 . S
C1196 H1204 0.930 . S
C1197 C1196 1.394 . S
C1197 C1198 1.383 . S
C1197 H1205 0.929 . S
C1198 C1197 1.383 . S
C1198 C1199 1.377 . S
C1199 H1183 0.930 . S
C1199 C1198 1.377 . S
C1199 C1200 1.379 . S
C1200 H1184 0.931 . S
C1200 C1194 1.383 . S
C1200 C1199 1.379 . S
H1201 C1195 0.959 . S
H1202 C1195 0.961 . S
H1203 C1195 0.960 . S
H1204 C1196 0.930 . S
H1205 C1197 0.929 . S
H1206 C1214 0.929 . S
H1207 C1216 0.930 . S
H1208 C1218 0.930 . S
H1209 C1221 0.929 . S
H1210 C1224 0.930 . S
H1211 C1226 0.960 . S
H1212 C1226 0.960 . S
H1213 C1226 0.960 . S
C1214 H1206 0.929 . S
C1214 C1215 1.377 . S
C1214 C1216 1.384 . S
C1215 C1214 1.377 . S
C1215 C1221 1.390 . S
C1216 H1207 0.930 . S
C1216 C1214 1.384 . S
C1216 C1217 1.372 . S
C1217 C1216 1.372 . S
C1217 C1218 1.400 . S
C1217 C1222 1.490 . S
C1218 H1208 0.930 . S
C1218 C1217 1.400 . S
C1218 C1221 1.386 . S
H1219 C1235 0.930 . S
H1220 C1236 0.931 . S
C1221 H1209 0.929 . S
C1221 C1215 1.390 . S
C1221 C1218 1.386 . S
C1222 C1217 1.490 . S
C1222 C1224 1.395 . S
C1222 C1225 1.403 . S
H1223 C1229 0.930 . S
C1224 H1210 0.930 . S
C1224 C1222 1.395 . S
C1224 C1227 1.403 . S
C1225 C1222 1.403 . S
C1225 C1226 1.524 . S
C1225 C1229 1.400 . S
C1226 H1211 0.960 . S
C1226 H1212 0.960 . S
C1226 H1213 0.960 . S
C1226 C1225 1.524 . S
C1227 C1224 1.403 . S
C1227 C1228 1.392 . S
C1227 C1231 1.495 . S
C1228 C1227 1.392 . S
C1228 C1229 1.385 . S
C1228 C1230 1.478 . S
C1229 H1223 0.930 . S
C1229 C1225 1.400 . S
C1229 C1228 1.385 . S
C1230 C1228 1.478 . S
C1230 C1232 1.381 . S
C1230 C1236 1.383 . S
C1231 C1227 1.495 . S
C1231 H1237 0.959 . S
C1231 H1238 0.961 . S
C1231 H1239 0.960 . S
C1232 C1230 1.381 . S
C1232 C1233 1.394 . S
C1232 H1240 0.930 . S
C1233 C1232 1.394 . S
C1233 C1234 1.383 . S
C1233 H1241 0.929 . S
C1234 C1233 1.383 . S
C1234 C1235 1.377 . S
C1235 H1219 0.930 . S
C1235 C1234 1.377 . S
C1235 C1236 1.379 . S
C1236 H1220 0.931 . S
C1236 C1230 1.383 . S
C1236 C1235 1.379 . S
H1237 C1231 0.959 . S
H1238 C1231 0.961 . S
H1239 C1231 0.960 . S
H1240 C1232 0.930 . S
H1241 C1233 0.929 . S
H1242 C1250 0.929 . S
H1243 C1252 0.930 . S
H1244 C1254 0.930 . S
H1245 C1257 0.929 . S
H1246 C1260 0.930 . S
H1247 C1262 0.960 . S
H1248 C1262 0.960 . S
H1249 C1262 0.960 . S
C1250 H1242 0.929 . S
C1250 C1251 1.377 . S
C1250 C1252 1.384 . S
C1251 C1250 1.377 . S
C1251 C1257 1.390 . S
C1252 H1243 0.930 . S
C1252 C1250 1.384 . S
C1252 C1253 1.372 . S
C1253 C1252 1.372 . S
C1253 C1254 1.400 . S
C1253 C1258 1.490 . S
C1254 H1244 0.930 . S
C1254 C1253 1.400 . S
C1254 C1257 1.386 . S
H1255 C1271 0.930 . S
H1256 C1272 0.931 . S
C1257 H1245 0.929 . S
C1257 C1251 1.390 . S
C1257 C1254 1.386 . S
C1258 C1253 1.490 . S
C1258 C1260 1.395 . S
C1258 C1261 1.403 . S
H1259 C1265 0.930 . S
C1260 H1246 0.930 . S
C1260 C1258 1.395 . S
C1260 C1263 1.403 . S
C1261 C1258 1.403 . S
C1261 C1262 1.524 . S
C1261 C1265 1.400 . S
C1262 H1247 0.960 . S
C1262 H1248 0.960 . S
C1262 H1249 0.960 . S
C1262 C1261 1.524 . S
C1263 C1260 1.403 . S
C1263 C1264 1.392 . S
C1263 C1267 1.495 . S
C1264 C1263 1.392 . S
C1264 C1265 1.385 . S
C1264 C1266 1.478 . S
C1265 H1259 0.930 . S
C1265 C1261 1.400 . S
C1265 C1264 1.385 . S
C1266 C1264 1.478 . S
C1266 C1268 1.381 . S
C1266 C1272 1.383 . S
C1267 C1263 1.495 . S
C1267 H1273 0.959 . S
C1267 H1274 0.961 . S
C1267 H1275 0.960 . S
C1268 C1266 1.381 . S
C1268 C1269 1.394 . S
C1268 H1276 0.930 . S
C1269 C1268 1.394 . S
C1269 C1270 1.383 . S
C1269 H1277 0.929 . S
C1270 C1269 1.383 . S
C1270 C1271 1.377 . S
C1271 H1255 0.930 . S
C1271 C1270 1.377 . S
C1271 C1272 1.379 . S
C1272 H1256 0.931 . S
C1272 C1266 1.383 . S
C1272 C1271 1.379 . S
H1273 C1267 0.959 . S
H1274 C1267 0.961 . S
H1275 C1267 0.960 . S
H1276 C1268 0.930 . S
H1277 C1269 0.929 . S
H1278 C1286 0.929 . S
H1279 C1288 0.930 . S
H1280 C1290 0.930 . S
H1281 C1293 0.929 . S
H1282 C1296 0.930 . S
H1283 C1298 0.960 . S
H1284 C1298 0.960 . S
H1285 C1298 0.960 . S
C1286 H1278 0.929 . S
C1286 C1287 1.377 . S
C1286 C1288 1.384 . S
C1287 C1286 1.377 . S
C1287 C1293 1.390 . S
C1288 H1279 0.930 . S
C1288 C1286 1.384 . S
C1288 C1289 1.372 . S
C1289 C1288 1.372 . S
C1289 C1290 1.400 . S
C1289 C1294 1.490 . S
C1290 H1280 0.930 . S
C1290 C1289 1.400 . S
C1290 C1293 1.386 . S
H1291 C1307 0.930 . S
H1292 C1308 0.931 . S
C1293 H1281 0.929 . S
C1293 C1287 1.390 . S
C1293 C1290 1.386 . S
C1294 C1289 1.490 . S
C1294 C1296 1.395 . S
C1294 C1297 1.403 . S
H1295 C1301 0.930 . S
C1296 H1282 0.930 . S
C1296 C1294 1.395 . S
C1296 C1299 1.403 . S
C1297 C1294 1.403 . S
C1297 C1298 1.524 . S
C1297 C1301 1.400 . S
C1298 H1283 0.960 . S
C1298 H1284 0.960 . S
C1298 H1285 0.960 . S
C1298 C1297 1.524 . S
C1299 C1296 1.403 . S
C1299 C1300 1.392 . S
C1299 C1303 1.495 . S
C1300 C1299 1.392 . S
C1300 C1301 1.385 . S
C1300 C1302 1.478 . S
C1301 H1295 0.930 . S
C1301 C1297 1.400 . S
C1301 C1300 1.385 . S
C1302 C1300 1.478 . S
C1302 C1304 1.381 . S
C1302 C1308 1.383 . S
C1303 C1299 1.495 . S
C1303 H1309 0.959 . S
C1303 H1310 0.961 . S
C1303 H1311 0.960 . S
C1304 C1302 1.381 . S
C1304 C1305 1.394 . S
C1304 H1312 0.930 . S
C1305 C1304 1.394 . S
C1305 C1306 1.383 . S
C1305 H1313 0.929 . S
C1306 C1305 1.383 . S
C1306 C1307 1.377 . S
C1307 H1291 0.930 . S
C1307 C1306 1.377 . S
C1307 C1308 1.379 . S
C1308 H1292 0.931 . S
C1308 C1302 1.383 . S
C1308 C1307 1.379 . S
H1309 C1303 0.959 . S
H1310 C1303 0.961 . S
H1311 C1303 0.960 . S
H1312 C1304 0.930 . S
H1313 C1305 0.929 . S
H1314 C1322 0.929 . S
H1315 C1324 0.930 . S
H1316 C1326 0.930 . S
H1317 C1329 0.929 . S
H1318 C1332 0.930 . S
H1319 C1334 0.960 . S
H1320 C1334 0.960 . S
H1321 C1334 0.960 . S
C1322 H1314 0.929 . S
C1322 C1323 1.377 . S
C1322 C1324 1.384 . S
C1323 C1322 1.377 . S
C1323 C1329 1.390 . S
C1324 H1315 0.930 . S
C1324 C1322 1.384 . S
C1324 C1325 1.372 . S
C1325 C1324 1.372 . S
C1325 C1326 1.400 . S
C1325 C1330 1.490 . S
C1326 H1316 0.930 . S
C1326 C1325 1.400 . S
C1326 C1329 1.386 . S
H1327 C1343 0.930 . S
H1328 C1344 0.931 . S
C1329 H1317 0.929 . S
C1329 C1323 1.390 . S
C1329 C1326 1.386 . S
C1330 C1325 1.490 . S
C1330 C1332 1.395 . S
C1330 C1333 1.403 . S
H1331 C1337 0.930 . S
C1332 H1318 0.930 . S
C1332 C1330 1.395 . S
C1332 C1335 1.403 . S
C1333 C1330 1.403 . S
C1333 C1334 1.524 . S
C1333 C1337 1.400 . S
C1334 H1319 0.960 . S
C1334 H1320 0.960 . S
C1334 H1321 0.960 . S
C1334 C1333 1.524 . S
C1335 C1332 1.403 . S
C1335 C1336 1.392 . S
C1335 C1339 1.495 . S
C1336 C1335 1.392 . S
C1336 C1337 1.385 . S
C1336 C1338 1.478 . S
C1337 H1331 0.930 . S
C1337 C1333 1.400 . S
C1337 C1336 1.385 . S
C1338 C1336 1.478 . S
C1338 C1340 1.381 . S
C1338 C1344 1.383 . S
C1339 C1335 1.495 . S
C1339 H1345 0.959 . S
C1339 H1346 0.961 . S
C1339 H1347 0.960 . S
C1340 C1338 1.381 . S
C1340 C1341 1.394 . S
C1340 H1348 0.930 . S
C1341 C1340 1.394 . S
C1341 C1342 1.383 . S
C1341 H1349 0.929 . S
C1342 C1341 1.383 . S
C1342 C1343 1.377 . S
C1343 H1327 0.930 . S
C1343 C1342 1.377 . S
C1343 C1344 1.379 . S
C1344 H1328 0.931 . S
C1344 C1338 1.383 . S
C1344 C1343 1.379 . S
H1345 C1339 0.959 . S
H1346 C1339 0.961 . S
H1347 C1339 0.960 . S
H1348 C1340 0.930 . S
H1349 C1341 0.929 . S
H1350 C1358 0.929 . S
H1351 C1360 0.930 . S
H1352 C1362 0.930 . S
H1353 C1365 0.929 . S
H1354 C1368 0.930 . S
H1355 C1370 0.960 . S
H1356 C1370 0.960 . S
H1357 C1370 0.960 . S
C1358 H1350 0.929 . S
C1358 C1359 1.377 . S
C1358 C1360 1.384 . S
C1359 C1358 1.377 . S
C1359 C1365 1.390 . S
C1360 H1351 0.930 . S
C1360 C1358 1.384 . S
C1360 C1361 1.372 . S
C1361 C1360 1.372 . S
C1361 C1362 1.400 . S
C1361 C1366 1.490 . S
C1362 H1352 0.930 . S
C1362 C1361 1.400 . S
C1362 C1365 1.386 . S
H1363 C1379 0.930 . S
H1364 C1380 0.931 . S
C1365 H1353 0.929 . S
C1365 C1359 1.390 . S
C1365 C1362 1.386 . S
C1366 C1361 1.490 . S
C1366 C1368 1.395 . S
C1366 C1369 1.403 . S
H1367 C1373 0.930 . S
C1368 H1354 0.930 . S
C1368 C1366 1.395 . S
C1368 C1371 1.403 . S
C1369 C1366 1.403 . S
C1369 C1370 1.524 . S
C1369 C1373 1.400 . S
C1370 H1355 0.960 . S
C1370 H1356 0.960 . S
C1370 H1357 0.960 . S
C1370 C1369 1.524 . S
C1371 C1368 1.403 . S
C1371 C1372 1.392 . S
C1371 C1375 1.495 . S
C1372 C1371 1.392 . S
C1372 C1373 1.385 . S
C1372 C1374 1.478 . S
C1373 H1367 0.930 . S
C1373 C1369 1.400 . S
C1373 C1372 1.385 . S
C1374 C1372 1.478 . S
C1374 C1376 1.381 . S
C1374 C1380 1.383 . S
C1375 C1371 1.495 . S
C1375 H1381 0.959 . S
C1375 H1382 0.961 . S
C1375 H1383 0.960 . S
C1376 C1374 1.381 . S
C1376 C1377 1.394 . S
C1376 H1384 0.930 . S
C1377 C1376 1.394 . S
C1377 C1378 1.383 . S
C1377 H1385 0.929 . S
C1378 C1377 1.383 . S
C1378 C1379 1.377 . S
C1379 H1363 0.930 . S
C1379 C1378 1.377 . S
C1379 C1380 1.379 . S
C1380 H1364 0.931 . S
C1380 C1374 1.383 . S
C1380 C1379 1.379 . S
H1381 C1375 0.959 . S
H1382 C1375 0.961 . S
H1383 C1375 0.960 . S
H1384 C1376 0.930 . S
H1385 C1377 0.929 . S
H1386 C1394 0.929 . S
H1387 C1396 0.930 . S
H1388 C1398 0.930 . S
H1389 C1401 0.929 . S
H1390 C1404 0.930 . S
H1391 C1406 0.960 . S
H1392 C1406 0.960 . S
H1393 C1406 0.960 . S
C1394 H1386 0.929 . S
C1394 C1395 1.377 . S
C1394 C1396 1.384 . S
C1395 C1394 1.377 . S
C1395 C1401 1.390 . S
C1396 H1387 0.930 . S
C1396 C1394 1.384 . S
C1396 C1397 1.372 . S
C1397 C1396 1.372 . S
C1397 C1398 1.400 . S
C1397 C1402 1.490 . S
C1398 H1388 0.930 . S
C1398 C1397 1.400 . S
C1398 C1401 1.386 . S
H1399 C1415 0.930 . S
H1400 C1416 0.931 . S
C1401 H1389 0.929 . S
C1401 C1395 1.390 . S
C1401 C1398 1.386 . S
C1402 C1397 1.490 . S
C1402 C1404 1.395 . S
C1402 C1405 1.403 . S
H1403 C1409 0.930 . S
C1404 H1390 0.930 . S
C1404 C1402 1.395 . S
C1404 C1407 1.403 . S
C1405 C1402 1.403 . S
C1405 C1406 1.524 . S
C1405 C1409 1.400 . S
C1406 H1391 0.960 . S
C1406 H1392 0.960 . S
C1406 H1393 0.960 . S
C1406 C1405 1.524 . S
C1407 C1404 1.403 . S
C1407 C1408 1.392 . S
C1407 C1411 1.495 . S
C1408 C1407 1.392 . S
C1408 C1409 1.385 . S
C1408 C1410 1.478 . S
C1409 H1403 0.930 . S
C1409 C1405 1.400 . S
C1409 C1408 1.385 . S
C1410 C1408 1.478 . S
C1410 C1412 1.381 . S
C1410 C1416 1.383 . S
C1411 C1407 1.495 . S
C1411 H1417 0.959 . S
C1411 H1418 0.961 . S
C1411 H1419 0.960 . S
C1412 C1410 1.381 . S
C1412 C1413 1.394 . S
C1412 H1420 0.930 . S
C1413 C1412 1.394 . S
C1413 C1414 1.383 . S
C1413 H1421 0.929 . S
C1414 C1413 1.383 . S
C1414 C1415 1.377 . S
C1415 H1399 0.930 . S
C1415 C1414 1.377 . S
C1415 C1416 1.379 . S
C1416 H1400 0.931 . S
C1416 C1410 1.383 . S
C1416 C1415 1.379 . S
H1417 C1411 0.959 . S
H1418 C1411 0.961 . S
H1419 C1411 0.960 . S
H1420 C1412 0.930 . S
H1421 C1413 0.929 . S
H1422 C1430 0.929 . S
H1423 C1432 0.930 . S
H1424 C1434 0.930 . S
H1425 C1437 0.929 . S
H1426 C1440 0.930 . S
H1427 C1442 0.960 . S
H1428 C1442 0.960 . S
H1429 C1442 0.960 . S
C1430 H1422 0.929 . S
C1430 C1431 1.377 . S
C1430 C1432 1.384 . S
C1431 C1430 1.377 . S
C1431 C1437 1.390 . S
C1432 H1423 0.930 . S
C1432 C1430 1.384 . S
C1432 C1433 1.372 . S
C1433 C1432 1.372 . S
C1433 C1434 1.400 . S
C1433 C1438 1.490 . S
C1434 H1424 0.930 . S
C1434 C1433 1.400 . S
C1434 C1437 1.386 . S
H1435 C1451 0.930 . S
H1436 C1452 0.931 . S
C1437 H1425 0.929 . S
C1437 C1431 1.390 . S
C1437 C1434 1.386 . S
C1438 C1433 1.490 . S
C1438 C1440 1.395 . S
C1438 C1441 1.403 . S
H1439 C1445 0.930 . S
C1440 H1426 0.930 . S
C1440 C1438 1.395 . S
C1440 C1443 1.403 . S
C1441 C1438 1.403 . S
C1441 C1442 1.524 . S
C1441 C1445 1.400 . S
C1442 H1427 0.960 . S
C1442 H1428 0.960 . S
C1442 H1429 0.960 . S
C1442 C1441 1.524 . S
C1443 C1440 1.403 . S
C1443 C1444 1.392 . S
C1443 C1447 1.495 . S
C1444 C1443 1.392 . S
C1444 C1445 1.385 . S
C1444 C1446 1.478 . S
C1445 H1439 0.930 . S
C1445 C1441 1.400 . S
C1445 C1444 1.385 . S
C1446 C1444 1.478 . S
C1446 C1448 1.381 . S
C1446 C1452 1.383 . S
C1447 C1443 1.495 . S
C1447 H1453 0.959 . S
C1447 H1454 0.961 . S
C1447 H1455 0.960 . S
C1448 C1446 1.381 . S
C1448 C1449 1.394 . S
C1448 H1456 0.930 . S
C1449 C1448 1.394 . S
C1449 C1450 1.383 . S
C1449 H1457 0.929 . S
C1450 C1449 1.383 . S
C1450 C1451 1.377 . S
C1451 H1435 0.930 . S
C1451 C1450 1.377 . S
C1451 C1452 1.379 . S
C1452 H1436 0.931 . S
C1452 C1446 1.383 . S
C1452 C1451 1.379 . S
H1453 C1447 0.959 . S
H1454 C1447 0.961 . S
H1455 C1447 0.960 . S
H1456 C1448 0.930 . S
H1457 C1449 0.929 . S
H1458 C1466 0.929 . S
H1459 C1468 0.930 . S
H1460 C1470 0.930 . S
H1461 C1473 0.929 . S
H1462 C1476 0.930 . S
H1463 C1478 0.960 . S
H1464 C1478 0.960 . S
H1465 C1478 0.960 . S
C1466 H1458 0.929 . S
C1466 C1467 1.377 . S
C1466 C1468 1.384 . S
C1467 C1466 1.377 . S
C1467 C1473 1.390 . S
C1468 H1459 0.930 . S
C1468 C1466 1.384 . S
C1468 C1469 1.372 . S
C1469 C1468 1.372 . S
C1469 C1470 1.400 . S
C1469 C1474 1.490 . S
C1470 H1460 0.930 . S
C1470 C1469 1.400 . S
C1470 C1473 1.386 . S
H1471 C1487 0.930 . S
H1472 C1488 0.931 . S
C1473 H1461 0.929 . S
C1473 C1467 1.390 . S
C1473 C1470 1.386 . S
C1474 C1469 1.490 . S
C1474 C1476 1.395 . S
C1474 C1477 1.403 . S
H1475 C1481 0.930 . S
C1476 H1462 0.930 . S
C1476 C1474 1.395 . S
C1476 C1479 1.403 . S
C1477 C1474 1.403 . S
C1477 C1478 1.524 . S
C1477 C1481 1.400 . S
C1478 H1463 0.960 . S
C1478 H1464 0.960 . S
C1478 H1465 0.960 . S
C1478 C1477 1.524 . S
C1479 C1476 1.403 . S
C1479 C1480 1.392 . S
C1479 C1483 1.495 . S
C1480 C1479 1.392 . S
C1480 C1481 1.385 . S
C1480 C1482 1.478 . S
C1481 H1475 0.930 . S
C1481 C1477 1.400 . S
C1481 C1480 1.385 . S
C1482 C1480 1.478 . S
C1482 C1484 1.381 . S
C1482 C1488 1.383 . S
C1483 C1479 1.495 . S
C1483 H1489 0.959 . S
C1483 H1490 0.961 . S
C1483 H1491 0.960 . S
C1484 C1482 1.381 . S
C1484 C1485 1.394 . S
C1484 H1492 0.930 . S
C1485 C1484 1.394 . S
C1485 C1486 1.383 . S
C1485 H1493 0.929 . S
C1486 C1485 1.383 . S
C1486 C1487 1.377 . S
C1487 H1471 0.930 . S
C1487 C1486 1.377 . S
C1487 C1488 1.379 . S
C1488 H1472 0.931 . S
C1488 C1482 1.383 . S
C1488 C1487 1.379 . S
H1489 C1483 0.959 . S
H1490 C1483 0.961 . S
H1491 C1483 0.960 . S
H1492 C1484 0.930 . S
H1493 C1485 0.929 . S
H1494 C1502 0.929 . S
H1495 C1504 0.930 . S
H1496 C1506 0.930 . S
H1497 C1509 0.929 . S
H1498 C1512 0.930 . S
H1499 C1514 0.960 . S
H1500 C1514 0.960 . S
H1501 C1514 0.960 . S
C1502 H1494 0.929 . S
C1502 C1503 1.377 . S
C1502 C1504 1.384 . S
C1503 C1502 1.377 . S
C1503 C1509 1.390 . S
C1504 H1495 0.930 . S
C1504 C1502 1.384 . S
C1504 C1505 1.372 . S
C1505 C1504 1.372 . S
C1505 C1506 1.400 . S
C1505 C1510 1.490 . S
C1506 H1496 0.930 . S
C1506 C1505 1.400 . S
C1506 C1509 1.386 . S
H1507 C1523 0.930 . S
H1508 C1524 0.931 . S
C1509 H1497 0.929 . S
C1509 C1503 1.390 . S
C1509 C1506 1.386 . S
C1510 C1505 1.490 . S
C1510 C1512 1.395 . S
C1510 C1513 1.403 . S
H1511 C1517 0.930 . S
C1512 H1498 0.930 . S
C1512 C1510 1.395 . S
C1512 C1515 1.403 . S
C1513 C1510 1.403 . S
C1513 C1514 1.524 . S
C1513 C1517 1.400 . S
C1514 H1499 0.960 . S
C1514 H1500 0.960 . S
C1514 H1501 0.960 . S
C1514 C1513 1.524 . S
C1515 C1512 1.403 . S
C1515 C1516 1.392 . S
C1515 C1519 1.495 . S
C1516 C1515 1.392 . S
C1516 C1517 1.385 . S
C1516 C1518 1.478 . S
C1517 H1511 0.930 . S
C1517 C1513 1.400 . S
C1517 C1516 1.385 . S
C1518 C1516 1.478 . S
C1518 C1520 1.381 . S
C1518 C1524 1.383 . S
C1519 C1515 1.495 . S
C1519 H1525 0.959 . S
C1519 H1526 0.961 . S
C1519 H1527 0.960 . S
C1520 C1518 1.381 . S
C1520 C1521 1.394 . S
C1520 H1528 0.930 . S
C1521 C1520 1.394 . S
C1521 C1522 1.383 . S
C1521 H1529 0.929 . S
C1522 C1521 1.383 . S
C1522 C1523 1.377 . S
C1523 H1507 0.930 . S
C1523 C1522 1.377 . S
C1523 C1524 1.379 . S
C1524 H1508 0.931 . S
C1524 C1518 1.383 . S
C1524 C1523 1.379 . S
H1525 C1519 0.959 . S
H1526 C1519 0.961 . S
H1527 C1519 0.960 . S
H1528 C1520 0.930 . S
H1529 C1521 0.929 . S
H1530 C1538 0.929 . S
H1531 C1540 0.930 . S
H1532 C1542 0.930 . S
H1533 C1545 0.929 . S
H1534 C1548 0.930 . S
H1535 C1550 0.960 . S
H1536 C1550 0.960 . S
H1537 C1550 0.960 . S
C1538 H1530 0.929 . S
C1538 C1539 1.377 . S
C1538 C1540 1.384 . S
C1539 C1538 1.377 . S
C1539 C1545 1.390 . S
C1540 H1531 0.930 . S
C1540 C1538 1.384 . S
C1540 C1541 1.372 . S
C1541 C1540 1.372 . S
C1541 C1542 1.400 . S
C1541 C1546 1.490 . S
C1542 H1532 0.930 . S
C1542 C1541 1.400 . S
C1542 C1545 1.386 . S
H1543 C1559 0.930 . S
H1544 C1560 0.931 . S
C1545 H1533 0.929 . S
C1545 C1539 1.390 . S
C1545 C1542 1.386 . S
C1546 C1541 1.490 . S
C1546 C1548 1.395 . S
C1546 C1549 1.403 . S
H1547 C1553 0.930 . S
C1548 H1534 0.930 . S
C1548 C1546 1.395 . S
C1548 C1551 1.403 . S
C1549 C1546 1.403 . S
C1549 C1550 1.524 . S
C1549 C1553 1.400 . S
C1550 H1535 0.960 . S
C1550 H1536 0.960 . S
C1550 H1537 0.960 . S
C1550 C1549 1.524 . S
C1551 C1548 1.403 . S
C1551 C1552 1.392 . S
C1551 C1555 1.495 . S
C1552 C1551 1.392 . S
C1552 C1553 1.385 . S
C1552 C1554 1.478 . S
C1553 H1547 0.930 . S
C1553 C1549 1.400 . S
C1553 C1552 1.385 . S
C1554 C1552 1.478 . S
C1554 C1556 1.381 . S
C1554 C1560 1.383 . S
C1555 C1551 1.495 . S
C1555 H1561 0.959 . S
C1555 H1562 0.961 . S
C1555 H1563 0.960 . S
C1556 C1554 1.381 . S
C1556 C1557 1.394 . S
C1556 H1564 0.930 . S
C1557 C1556 1.394 . S
C1557 C1558 1.383 . S
C1557 H1565 0.929 . S
C1558 C1557 1.383 . S
C1558 C1559 1.377 . S
C1559 H1543 0.930 . S
C1559 C1558 1.377 . S
C1559 C1560 1.379 . S
C1560 H1544 0.931 . S
C1560 C1554 1.383 . S
C1560 C1559 1.379 . S
H1561 C1555 0.959 . S
H1562 C1555 0.961 . S
H1563 C1555 0.960 . S
H1564 C1556 0.930 . S
H1565 C1557 0.929 . S
H1566 C1574 0.929 . S
H1567 C1576 0.930 . S
H1568 C1578 0.930 . S
H1569 C1581 0.929 . S
H1570 C1584 0.930 . S
H1571 C1586 0.960 . S
H1572 C1586 0.960 . S
H1573 C1586 0.960 . S
C1574 H1566 0.929 . S
C1574 C1575 1.377 . S
C1574 C1576 1.384 . S
C1575 C1574 1.377 . S
C1575 C1581 1.390 . S
C1576 H1567 0.930 . S
C1576 C1574 1.384 . S
C1576 C1577 1.372 . S
C1577 C1576 1.372 . S
C1577 C1578 1.400 . S
C1577 C1582 1.490 . S
C1578 H1568 0.930 . S
C1578 C1577 1.400 . S
C1578 C1581 1.386 . S
H1579 C1595 0.930 . S
H1580 C1596 0.931 . S
C1581 H1569 0.929 . S
C1581 C1575 1.390 . S
C1581 C1578 1.386 . S
C1582 C1577 1.490 . S
C1582 C1584 1.395 . S
C1582 C1585 1.403 . S
H1583 C1589 0.930 . S
C1584 H1570 0.930 . S
C1584 C1582 1.395 . S
C1584 C1587 1.403 . S
C1585 C1582 1.403 . S
C1585 C1586 1.524 . S
C1585 C1589 1.400 . S
C1586 H1571 0.960 . S
C1586 H1572 0.960 . S
C1586 H1573 0.960 . S
C1586 C1585 1.524 . S
C1587 C1584 1.403 . S
C1587 C1588 1.392 . S
C1587 C1591 1.495 . S
C1588 C1587 1.392 . S
C1588 C1589 1.385 . S
C1588 C1590 1.478 . S
C1589 H1583 0.930 . S
C1589 C1585 1.400 . S
C1589 C1588 1.385 . S
C1590 C1588 1.478 . S
C1590 C1592 1.381 . S
C1590 C1596 1.383 . S
C1591 C1587 1.495 . S
C1591 H1597 0.959 . S
C1591 H1598 0.961 . S
C1591 H1599 0.960 . S
C1592 C1590 1.381 . S
C1592 C1593 1.394 . S
C1592 H1600 0.930 . S
C1593 C1592 1.394 . S
C1593 C1594 1.383 . S
C1593 H1601 0.929 . S
C1594 C1593 1.383 . S
C1594 C1595 1.377 . S
C1595 H1579 0.930 . S
C1595 C1594 1.377 . S
C1595 C1596 1.379 . S
C1596 H1580 0.931 . S
C1596 C1590 1.383 . S
C1596 C1595 1.379 . S
H1597 C1591 0.959 . S
H1598 C1591 0.961 . S
H1599 C1591 0.960 . S
H1600 C1592 0.930 . S
H1601 C1593 0.929 . S
H1602 C1610 0.929 . S
H1603 C1612 0.930 . S
H1604 C1614 0.930 . S
H1605 C1617 0.929 . S
H1606 C1620 0.930 . S
H1607 C1622 0.960 . S
H1608 C1622 0.960 . S
H1609 C1622 0.960 . S
C1610 H1602 0.929 . S
C1610 C1611 1.377 . S
C1610 C1612 1.384 . S
C1611 C1610 1.377 . S
C1611 C1617 1.390 . S
C1612 H1603 0.930 . S
C1612 C1610 1.384 . S
C1612 C1613 1.372 . S
C1613 C1612 1.372 . S
C1613 C1614 1.400 . S
C1613 C1618 1.490 . S
C1614 H1604 0.930 . S
C1614 C1613 1.400 . S
C1614 C1617 1.386 . S
H1615 C1631 0.930 1_556 S
H1616 C1632 0.931 . S
C1617 H1605 0.929 . S
C1617 C1611 1.390 . S
C1617 C1614 1.386 . S
C1618 C1613 1.490 . S
C1618 C1620 1.395 . S
C1618 C1621 1.403 . S
H1619 C1625 0.930 . S
C1620 H1606 0.930 . S
C1620 C1618 1.395 . S
C1620 C1623 1.403 . S
C1621 C1618 1.403 . S
C1621 C1622 1.524 . S
C1621 C1625 1.400 . S
C1622 H1607 0.960 . S
C1622 H1608 0.960 . S
C1622 H1609 0.960 . S
C1622 C1621 1.524 . S
C1623 C1620 1.403 . S
C1623 C1624 1.392 . S
C1623 C1627 1.495 . S
C1624 C1623 1.392 . S
C1624 C1625 1.385 . S
C1624 C1626 1.478 . S
C1625 H1619 0.930 . S
C1625 C1621 1.400 . S
C1625 C1624 1.385 . S
C1626 C1624 1.478 . S
C1626 C1628 1.381 . S
C1626 C1632 1.383 . S
C1627 C1623 1.495 . S
C1627 H1633 0.959 . S
C1627 H1634 0.961 . S
C1627 H1635 0.960 . S
C1628 C1626 1.381 . S
C1628 C1629 1.394 . S
C1628 H1636 0.930 . S
C1629 C1628 1.394 . S
C1629 C1630 1.383 . S
C1629 H1637 0.929 . S
C1630 C1629 1.383 . S
C1630 C1631 1.377 . S
C1631 H1615 0.930 1_554 S
C1631 C1630 1.377 . S
C1631 C1632 1.379 . S
C1632 H1616 0.931 . S
C1632 C1626 1.383 . S
C1632 C1631 1.379 . S
H1633 C1627 0.959 . S
H1634 C1627 0.961 . S
H1635 C1627 0.960 . S
H1636 C1628 0.930 . S
H1637 C1629 0.929 . S
H1638 C1646 0.929 . S
H1639 C1648 0.930 . S
H1640 C1650 0.930 . S
H1641 C1653 0.929 . S
H1642 C1656 0.930 . S
H1643 C1658 0.960 . S
H1644 C1658 0.960 . S
H1645 C1658 0.960 . S
C1646 H1638 0.929 . S
C1646 C1647 1.377 . S
C1646 C1648 1.384 . S
C1647 C1646 1.377 . S
C1647 C1653 1.390 . S
C1648 H1639 0.930 . S
C1648 C1646 1.384 . S
C1648 C1649 1.372 . S
C1649 C1648 1.372 . S
C1649 C1650 1.400 . S
C1649 C1654 1.490 . S
C1650 H1640 0.930 . S
C1650 C1649 1.400 . S
C1650 C1653 1.386 . S
H1651 C1667 0.930 . S
H1652 C1668 0.931 . S
C1653 H1641 0.929 . S
C1653 C1647 1.390 . S
C1653 C1650 1.386 . S
C1654 C1649 1.490 . S
C1654 C1656 1.395 . S
C1654 C1657 1.403 . S
H1655 C1661 0.930 . S
C1656 H1642 0.930 . S
C1656 C1654 1.395 . S
C1656 C1659 1.403 . S
C1657 C1654 1.403 . S
C1657 C1658 1.524 . S
C1657 C1661 1.400 . S
C1658 H1643 0.960 . S
C1658 H1644 0.960 . S
C1658 H1645 0.960 . S
C1658 C1657 1.524 . S
C1659 C1656 1.403 . S
C1659 C1660 1.392 . S
C1659 C1663 1.495 . S
C1660 C1659 1.392 . S
C1660 C1661 1.385 . S
C1660 C1662 1.478 . S
C1661 H1655 0.930 . S
C1661 C1657 1.400 . S
C1661 C1660 1.385 . S
C1662 C1660 1.478 . S
C1662 C1664 1.381 . S
C1662 C1668 1.383 . S
C1663 C1659 1.495 . S
C1663 H1669 0.959 . S
C1663 H1670 0.961 . S
C1663 H1671 0.960 . S
C1664 C1662 1.381 . S
C1664 C1665 1.394 . S
C1664 H1672 0.930 . S
C1665 C1664 1.394 . S
C1665 C1666 1.383 . S
C1665 H1673 0.929 . S
C1666 C1665 1.383 . S
C1666 C1667 1.377 . S
C1667 H1651 0.930 . S
C1667 C1666 1.377 . S
C1667 C1668 1.379 . S
C1668 H1652 0.931 . S
C1668 C1662 1.383 . S
C1668 C1667 1.379 . S
H1669 C1663 0.959 . S
H1670 C1663 0.961 . S
H1671 C1663 0.960 . S
H1672 C1664 0.930 . S
H1673 C1665 0.929 . S
H1674 C1682 0.929 . S
H1675 C1684 0.930 . S
H1676 C1686 0.930 . S
H1677 C1689 0.929 . S
H1678 C1692 0.930 . S
H1679 C1694 0.960 . S
H1680 C1694 0.960 . S
H1681 C1694 0.960 . S
C1682 H1674 0.929 . S
C1682 C1683 1.377 . S
C1682 C1684 1.384 . S
C1683 C1682 1.377 . S
C1683 C1689 1.390 . S
C1684 H1675 0.930 . S
C1684 C1682 1.384 . S
C1684 C1685 1.372 . S
C1685 C1684 1.372 . S
C1685 C1686 1.400 . S
C1685 C1690 1.490 . S
C1686 H1676 0.930 . S
C1686 C1685 1.400 . S
C1686 C1689 1.386 . S
H1687 C1703 0.930 . S
H1688 C1704 0.931 . S
C1689 H1677 0.929 . S
C1689 C1683 1.390 . S
C1689 C1686 1.386 . S
C1690 C1685 1.490 . S
C1690 C1692 1.395 . S
C1690 C1693 1.403 . S
H1691 C1697 0.930 . S
C1692 H1678 0.930 . S
C1692 C1690 1.395 . S
C1692 C1695 1.403 . S
C1693 C1690 1.403 . S
C1693 C1694 1.524 . S
C1693 C1697 1.400 . S
C1694 H1679 0.960 . S
C1694 H1680 0.960 . S
C1694 H1681 0.960 . S
C1694 C1693 1.524 . S
C1695 C1692 1.403 . S
C1695 C1696 1.392 . S
C1695 C1699 1.495 . S
C1696 C1695 1.392 . S
C1696 C1697 1.385 . S
C1696 C1698 1.478 . S
C1697 H1691 0.930 . S
C1697 C1693 1.400 . S
C1697 C1696 1.385 . S
C1698 C1696 1.478 . S
C1698 C1700 1.381 . S
C1698 C1704 1.383 . S
C1699 C1695 1.495 . S
C1699 H1705 0.959 . S
C1699 H1706 0.961 . S
C1699 H1707 0.960 . S
C1700 C1698 1.381 . S
C1700 C1701 1.394 . S
C1700 H1708 0.930 . S
C1701 C1700 1.394 . S
C1701 C1702 1.383 . S
C1701 H1709 0.929 . S
C1702 C1701 1.383 . S
C1702 C1703 1.377 . S
C1703 H1687 0.930 . S
C1703 C1702 1.377 . S
C1703 C1704 1.379 . S
C1704 H1688 0.931 . S
C1704 C1698 1.383 . S
C1704 C1703 1.379 . S
H1705 C1699 0.959 . S
H1706 C1699 0.961 . S
H1707 C1699 0.960 . S
H1708 C1700 0.930 . S
H1709 C1701 0.929 . S
H1710 C1718 0.929 . S
H1711 C1720 0.930 . S
H1712 C1722 0.930 . S
H1713 C1725 0.929 . S
H1714 C1728 0.930 . S
H1715 C1730 0.960 . S
H1716 C1730 0.960 . S
H1717 C1730 0.960 . S
C1718 H1710 0.929 . S
C1718 C1719 1.377 . S
C1718 C1720 1.384 . S
C1719 C1718 1.377 . S
C1719 C1725 1.390 . S
C1720 H1711 0.930 . S
C1720 C1718 1.384 . S
C1720 C1721 1.372 . S
C1721 C1720 1.372 . S
C1721 C1722 1.400 . S
C1721 C1726 1.490 . S
C1722 H1712 0.930 . S
C1722 C1721 1.400 . S
C1722 C1725 1.386 . S
H1723 C1739 0.930 . S
H1724 C1740 0.931 . S
C1725 H1713 0.929 . S
C1725 C1719 1.390 . S
C1725 C1722 1.386 . S
C1726 C1721 1.490 . S
C1726 C1728 1.395 . S
C1726 C1729 1.403 . S
H1727 C1733 0.930 . S
C1728 H1714 0.930 . S
C1728 C1726 1.395 . S
C1728 C1731 1.403 . S
C1729 C1726 1.403 . S
C1729 C1730 1.524 . S
C1729 C1733 1.400 . S
C1730 H1715 0.960 . S
C1730 H1716 0.960 . S
C1730 H1717 0.960 . S
C1730 C1729 1.524 . S
C1731 C1728 1.403 . S
C1731 C1732 1.392 . S
C1731 C1735 1.495 . S
C1732 C1731 1.392 . S
C1732 C1733 1.385 . S
C1732 C1734 1.478 . S
C1733 H1727 0.930 . S
C1733 C1729 1.400 . S
C1733 C1732 1.385 . S
C1734 C1732 1.478 . S
C1734 C1736 1.381 . S
C1734 C1740 1.383 . S
C1735 C1731 1.495 . S
C1735 H1741 0.959 . S
C1735 H1742 0.961 . S
C1735 H1743 0.960 . S
C1736 C1734 1.381 . S
C1736 C1737 1.394 . S
C1736 H1744 0.930 . S
C1737 C1736 1.394 . S
C1737 C1738 1.383 . S
C1737 H1745 0.929 . S
C1738 C1737 1.383 . S
C1738 C1739 1.377 . S
C1739 H1723 0.930 . S
C1739 C1738 1.377 . S
C1739 C1740 1.379 . S
C1740 H1724 0.931 . S
C1740 C1734 1.383 . S
C1740 C1739 1.379 . S
H1741 C1735 0.959 . S
H1742 C1735 0.961 . S
H1743 C1735 0.960 . S
H1744 C1736 0.930 . S
H1745 C1737 0.929 . S
H1746 C1754 0.929 . S
H1747 C1756 0.930 . S
H1748 C1758 0.930 . S
H1749 C1761 0.929 . S
H1750 C1764 0.930 . S
H1751 C1766 0.960 . S
H1752 C1766 0.960 . S
H1753 C1766 0.960 . S
C1754 H1746 0.929 . S
C1754 C1755 1.377 . S
C1754 C1756 1.384 . S
C1755 C1754 1.377 . S
C1755 C1761 1.390 . S
C1756 H1747 0.930 . S
C1756 C1754 1.384 . S
C1756 C1757 1.372 . S
C1757 C1756 1.372 . S
C1757 C1758 1.400 . S
C1757 C1762 1.490 . S
C1758 H1748 0.930 . S
C1758 C1757 1.400 . S
C1758 C1761 1.386 . S
H1759 C1775 0.930 . S
H1760 C1776 0.931 . S
C1761 H1749 0.929 . S
C1761 C1755 1.390 . S
C1761 C1758 1.386 . S
C1762 C1757 1.490 . S
C1762 C1764 1.395 . S
C1762 C1765 1.403 . S
H1763 C1769 0.930 . S
C1764 H1750 0.930 . S
C1764 C1762 1.395 . S
C1764 C1767 1.403 . S
C1765 C1762 1.403 . S
C1765 C1766 1.524 . S
C1765 C1769 1.400 . S
C1766 H1751 0.960 . S
C1766 H1752 0.960 . S
C1766 H1753 0.960 . S
C1766 C1765 1.524 . S
C1767 C1764 1.403 . S
C1767 C1768 1.392 . S
C1767 C1771 1.495 . S
C1768 C1767 1.392 . S
C1768 C1769 1.385 . S
C1768 C1770 1.478 . S
C1769 H1763 0.930 . S
C1769 C1765 1.400 . S
C1769 C1768 1.385 . S
C1770 C1768 1.478 . S
C1770 C1772 1.381 . S
C1770 C1776 1.383 . S
C1771 C1767 1.495 . S
C1771 H1777 0.959 . S
C1771 H1778 0.961 . S
C1771 H1779 0.960 . S
C1772 C1770 1.381 . S
C1772 C1773 1.394 . S
C1772 H1780 0.930 . S
C1773 C1772 1.394 . S
C1773 C1774 1.383 . S
C1773 H1781 0.929 . S
C1774 C1773 1.383 . S
C1774 C1775 1.377 . S
C1775 H1759 0.930 . S
C1775 C1774 1.377 . S
C1775 C1776 1.379 . S
C1776 H1760 0.931 . S
C1776 C1770 1.383 . S
C1776 C1775 1.379 . S
H1777 C1771 0.959 . S
H1778 C1771 0.961 . S
H1779 C1771 0.960 . S
H1780 C1772 0.930 . S
H1781 C1773 0.929 . S
H1782 C1790 0.929 . S
H1783 C1792 0.930 . S
H1784 C1794 0.930 . S
H1785 C1797 0.929 . S
H1786 C1800 0.930 1_565 S
H1787 C1802 0.960 . S
H1788 C1802 0.960 . S
H1789 C1802 0.960 . S
C1790 H1782 0.929 . S
C1790 C1791 1.377 . S
C1790 C1792 1.384 . S
C1791 C1790 1.377 . S
C1791 C1797 1.390 1_565 S
C1792 H1783 0.930 . S
C1792 C1790 1.384 . S
C1792 C1793 1.362 1_565 S
C1793 C1792 1.362 1_545 S
C1793 C1794 1.402 . S
C1793 C1798 1.498 . S
C1794 H1784 0.930 . S
C1794 C1793 1.402 . S
C1794 C1797 1.386 . S
H1795 C1811 0.930 . S
H1796 C1812 0.931 . S
C1797 H1785 0.929 . S
C1797 C1791 1.390 1_545 S
C1797 C1794 1.386 . S
C1798 C1793 1.498 . S
C1798 C1800 1.395 . S
C1798 C1801 1.403 . S
H1799 C1805 0.930 . S
C1800 H1786 0.930 1_545 S
C1800 C1798 1.395 . S
C1800 C1803 1.403 . S
C1801 C1798 1.403 . S
C1801 C1802 1.524 . S
C1801 C1805 1.400 . S
C1802 H1787 0.960 . S
C1802 H1788 0.960 . S
C1802 H1789 0.960 . S
C1802 C1801 1.524 . S
C1803 C1800 1.403 . S
C1803 C1804 1.392 . S
C1803 C1807 1.495 . S
C1804 C1803 1.392 . S
C1804 C1805 1.385 . S
C1804 C1806 1.478 . S
C1805 H1799 0.930 . S
C1805 C1801 1.400 . S
C1805 C1804 1.385 . S
C1806 C1804 1.478 . S
C1806 C1808 1.381 . S
C1806 C1812 1.383 . S
C1807 C1803 1.495 . S
C1807 H1813 0.941 1_545 S
C1807 H1814 0.961 . S
C1807 H1815 0.960 . S
C1808 C1806 1.381 . S
C1808 C1809 1.394 . S
C1808 H1816 0.930 . S
C1809 C1808 1.394 . S
C1809 C1810 1.383 . S
C1809 H1817 0.929 . S
C1810 C1809 1.383 . S
C1810 C1811 1.377 . S
C1811 H1795 0.930 . S
C1811 C1810 1.377 . S
C1811 C1812 1.379 . S
C1812 H1796 0.931 . S
C1812 C1806 1.383 . S
C1812 C1811 1.379 . S
H1813 C1807 0.941 1_565 S
H1814 C1807 0.961 . S
H1815 C1807 0.960 . S
H1816 C1808 0.930 . S
H1817 C1809 0.929 . S
H1818 C1826 0.929 . S
H1819 C1828 0.930 . S
H1820 C1830 0.930 . S
H1821 C1833 0.929 . S
H1822 C1836 0.930 . S
H1823 C1838 0.960 . S
H1824 C1838 0.960 . S
H1825 C1838 0.960 . S
C1826 H1818 0.929 . S
C1826 C1827 1.377 . S
C1826 C1828 1.384 . S
C1827 C1826 1.377 . S
C1827 C1833 1.390 . S
C1828 H1819 0.930 . S
C1828 C1826 1.384 . S
C1828 C1829 1.372 . S
C1829 C1828 1.372 . S
C1829 C1830 1.400 . S
C1829 C1834 1.490 . S
C1830 H1820 0.930 . S
C1830 C1829 1.400 . S
C1830 C1833 1.386 . S
H1831 C1847 0.930 . S
H1832 C1848 0.931 . S
C1833 H1821 0.929 . S
C1833 C1827 1.390 . S
C1833 C1830 1.386 . S
C1834 C1829 1.490 . S
C1834 C1836 1.395 . S
C1834 C1837 1.403 . S
H1835 C1841 0.930 . S
C1836 H1822 0.930 . S
C1836 C1834 1.395 . S
C1836 C1839 1.403 . S
C1837 C1834 1.403 . S
C1837 C1838 1.524 . S
C1837 C1841 1.400 . S
C1838 H1823 0.960 . S
C1838 H1824 0.960 . S
C1838 H1825 0.960 . S
C1838 C1837 1.524 . S
C1839 C1836 1.403 . S
C1839 C1840 1.392 . S
C1839 C1843 1.495 . S
C1840 C1839 1.392 . S
C1840 C1841 1.385 . S
C1840 C1842 1.478 . S
C1841 H1835 0.930 . S
C1841 C1837 1.400 . S
C1841 C1840 1.385 . S
C1842 C1840 1.478 . S
C1842 C1844 1.381 1_554 S
C1842 C1848 1.383 . S
C1843 C1839 1.495 . S
C1843 H1849 0.959 . S
C1843 H1850 0.961 . S
C1843 H1851 0.960 1_554 S
C1844 C1842 1.381 1_556 S
C1844 C1845 1.394 . S
C1844 H1852 0.930 . S
C1845 C1844 1.394 . S
C1845 C1846 1.383 . S
C1845 H1853 0.929 . S
C1846 C1845 1.383 . S
C1846 C1847 1.377 1_556 S
C1847 H1831 0.930 . S
C1847 C1846 1.377 1_554 S
C1847 C1848 1.379 . S
C1848 H1832 0.931 . S
C1848 C1842 1.383 . S
C1848 C1847 1.379 . S
H1849 C1843 0.959 . S
H1850 C1843 0.961 . S
H1851 C1843 0.960 1_556 S
H1852 C1844 0.930 . S
H1853 C1845 0.929 . S
H1854 C1862 0.929 . S
H1855 C1864 0.924 1_455 S
H1856 C1866 0.930 . S
H1857 C1869 0.929 . S
H1858 C1872 0.930 . S
H1859 C1874 0.960 . S
H1860 C1874 0.960 . S
H1861 C1874 0.960 . S
C1862 H1854 0.929 . S
C1862 C1863 1.377 . S
C1862 C1864 1.390 . S
C1863 C1862 1.377 . S
C1863 C1869 1.390 1_556 S
C1864 H1855 0.924 1_655 S
C1864 C1862 1.390 . S
C1864 C1865 1.372 1_656 S
C1865 C1864 1.372 1_454 S
C1865 C1866 1.400 1_455 S
C1865 C1870 1.490 . S
C1866 H1856 0.930 . S
C1866 C1865 1.400 1_655 S
C1866 C1869 1.386 . S
H1867 C1883 0.930 . S
H1868 C1884 0.931 . S
C1869 H1857 0.929 . S
C1869 C1863 1.390 1_554 S
C1869 C1866 1.386 . S
C1870 C1865 1.490 . S
C1870 C1872 1.395 . S
C1870 C1873 1.413 . S
H1871 C1877 0.930 . S
C1872 H1858 0.930 . S
C1872 C1870 1.395 . S
C1872 C1875 1.403 . S
C1873 C1870 1.413 . S
C1873 C1874 1.477 1_455 S
C1873 C1877 1.440 . S
C1874 H1859 0.960 . S
C1874 H1860 0.960 . S
C1874 H1861 0.960 . S
C1874 C1873 1.477 1_655 S
C1875 C1872 1.403 . S
C1875 C1876 1.392 . S
C1875 C1879 1.495 . S
C1876 C1875 1.392 . S
C1876 C1877 1.385 . S
C1876 C1878 1.478 . S
C1877 H1871 0.930 . S
C1877 C1873 1.440 . S
C1877 C1876 1.385 . S
C1878 C1876 1.478 . S
C1878 C1880 1.381 . S
C1878 C1884 1.383 . S
C1879 C1875 1.495 . S
C1879 H1885 0.959 . S
C1879 H1886 0.961 . S
C1879 H1887 0.960 . S
C1880 C1878 1.381 . S
C1880 C1881 1.394 . S
C1880 H1888 0.930 . S
C1881 C1880 1.394 . S
C1881 C1882 1.383 . S
C1881 H1889 0.929 . S
C1882 C1881 1.383 . S
C1882 C1883 1.377 . S
C1883 H1867 0.930 . S
C1883 C1882 1.377 . S
C1883 C1884 1.379 . S
C1884 H1868 0.931 . S
C1884 C1878 1.383 . S
C1884 C1883 1.379 . S
H1885 C1879 0.959 . S
H1886 C1879 0.961 . S
H1887 C1879 0.960 . S
H1888 C1880 0.930 . S
H1889 C1881 0.929 . S
H1890 C1898 0.929 . S
H1891 C1900 0.930 . S
H1892 C1902 0.930 . S
H1893 C1905 0.929 . S
H1894 C1908 0.930 . S
H1895 C1910 0.960 . S
H1896 C1910 0.960 . S
H1897 C1910 0.960 . S
C1898 H1890 0.929 . S
C1898 C1899 1.377 . S
C1898 C1900 1.384 1_556 S
C1899 C1898 1.377 . S
C1899 C1905 1.390 . S
C1900 H1891 0.930 . S
C1900 C1898 1.384 1_554 S
C1900 C1901 1.372 . S
C1901 C1900 1.372 . S
C1901 C1902 1.400 . S
C1901 C1906 1.490 . S
C1902 H1892 0.930 . S
C1902 C1901 1.400 . S
C1902 C1905 1.386 1_554 S
H1903 C1919 0.930 . S
H1904 C1920 0.931 . S
C1905 H1893 0.929 . S
C1905 C1899 1.390 . S
C1905 C1902 1.386 1_556 S
C1906 C1901 1.490 . S
C1906 C1908 1.395 . S
C1906 C1909 1.403 . S
H1907 C1913 0.930 . S
C1908 H1894 0.930 . S
C1908 C1906 1.395 . S
C1908 C1911 1.403 . S
C1909 C1906 1.403 . S
C1909 C1910 1.524 . S
C1909 C1913 1.400 . S
C1910 H1895 0.960 . S
C1910 H1896 0.960 . S
C1910 H1897 0.960 . S
C1910 C1909 1.524 . S
C1911 C1908 1.403 . S
C1911 C1912 1.392 . S
C1911 C1915 1.495 . S
C1912 C1911 1.392 . S
C1912 C1913 1.385 . S
C1912 C1914 1.478 . S
C1913 H1907 0.930 . S
C1913 C1909 1.400 . S
C1913 C1912 1.385 . S
C1914 C1912 1.478 . S
C1914 C1916 1.381 . S
C1914 C1920 1.383 . S
C1915 C1911 1.495 . S
C1915 H1921 0.959 . S
C1915 H1922 0.961 . S
C1915 H1923 0.960 . S
C1916 C1914 1.381 . S
C1916 C1917 1.394 . S
C1916 H1924 0.930 . S
C1917 C1916 1.394 . S
C1917 C1918 1.383 . S
C1917 H1925 0.929 . S
C1918 C1917 1.383 . S
C1918 C1919 1.377 . S
C1919 H1903 0.930 . S
C1919 C1918 1.377 . S
C1919 C1920 1.379 . S
C1920 H1904 0.931 . S
C1920 C1914 1.383 . S
C1920 C1919 1.379 . S
H1921 C1915 0.959 . S
H1922 C1915 0.961 . S
H1923 C1915 0.960 . S
H1924 C1916 0.930 . S
H1925 C1917 0.929 . S
H1926 C1934 0.978 . S
H1927 C1936 0.930 . S
H1928 C1938 0.930 . S
H1929 C1941 0.929 . S
H1930 C1944 0.930 . S
H1931 C1946 0.960 . S
H1932 C1946 0.960 . S
H1933 C1946 0.960 . S
C1934 H1926 0.978 . S
C1934 C1935 1.377 . S
C1934 C1936 1.384 1_655 S
C1935 C1934 1.377 . S
C1935 C1941 1.390 . S
C1936 H1927 0.930 . S
C1936 C1934 1.384 1_455 S
C1936 C1937 1.372 . S
C1937 C1936 1.372 . S
C1937 C1938 1.400 1_455 S
C1937 C1942 1.490 . S
C1938 H1928 0.930 . S
C1938 C1937 1.400 1_655 S
C1938 C1941 1.386 . S
H1939 C1955 0.930 . S
H1940 C1956 0.931 . S
C1941 H1929 0.929 . S
C1941 C1935 1.390 . S
C1941 C1938 1.386 . S
C1942 C1937 1.490 . S
C1942 C1944 1.395 . S
C1942 C1945 1.404 . S
H1943 C1949 0.930 . S
C1944 H1930 0.930 . S
C1944 C1942 1.395 . S
C1944 C1947 1.403 . S
C1945 C1942 1.404 . S
C1945 C1946 1.522 1_455 S
C1945 C1949 1.400 . S
C1946 H1931 0.960 . S
C1946 H1932 0.960 . S
C1946 H1933 0.960 . S
C1946 C1945 1.522 1_655 S
C1947 C1944 1.403 . S
C1947 C1948 1.392 . S
C1947 C1951 1.495 . S
C1948 C1947 1.392 . S
C1948 C1949 1.385 . S
C1948 C1950 1.478 . S
C1949 H1943 0.930 . S
C1949 C1945 1.400 . S
C1949 C1948 1.385 . S
C1950 C1948 1.478 . S
C1950 C1952 1.381 . S
C1950 C1956 1.383 . S
C1951 C1947 1.495 . S
C1951 H1957 0.959 . S
C1951 H1958 0.961 . S
C1951 H1959 0.960 . S
C1952 C1950 1.381 . S
C1952 C1953 1.394 . S
C1952 H1960 0.930 . S
C1953 C1952 1.394 . S
C1953 C1954 1.383 . S
C1953 H1961 0.929 . S
C1954 C1953 1.383 . S
C1954 C1955 1.377 . S
C1955 H1939 0.930 . S
C1955 C1954 1.377 . S
C1955 C1956 1.379 . S
C1956 H1940 0.931 . S
C1956 C1950 1.383 . S
C1956 C1955 1.379 . S
H1957 C1951 0.959 . S
H1958 C1951 0.961 . S
H1959 C1951 0.960 . S
H1960 C1952 0.930 . S
H1961 C1953 0.929 . S
H1962 C1970 0.929 . S
H1963 C1972 0.930 . S
H1964 C1974 0.930 . S
H1965 C1977 0.929 . S
H1966 C1980 0.930 . S
H1967 C1982 0.960 . S
H1968 C1982 0.960 . S
H1969 C1982 0.960 . S
C1970 H1962 0.929 . S
C1970 C1971 1.377 . S
C1970 C1972 1.384 . S
C1971 C1970 1.377 . S
C1971 C1977 1.390 . S
C1972 H1963 0.930 . S
C1972 C1970 1.384 . S
C1972 C1973 1.372 . S
C1973 C1972 1.372 . S
C1973 C1974 1.400 . S
C1973 C1978 1.490 . S
C1974 H1964 0.930 . S
C1974 C1973 1.400 . S
C1974 C1977 1.386 . S
H1975 C1991 0.930 . S
H1976 C1992 0.931 . S
C1977 H1965 0.929 . S
C1977 C1971 1.390 . S
C1977 C1974 1.386 . S
C1978 C1973 1.490 . S
C1978 C1980 1.395 . S
C1978 C1981 1.403 . S
H1979 C1985 0.930 . S
C1980 H1966 0.930 . S
C1980 C1978 1.395 . S
C1980 C1983 1.403 . S
C1981 C1978 1.403 . S
C1981 C1982 1.524 . S
C1981 C1985 1.400 . S
C1982 H1967 0.960 . S
C1982 H1968 0.960 . S
C1982 H1969 0.960 . S
C1982 C1981 1.524 . S
C1983 C1980 1.403 . S
C1983 C1984 1.392 . S
C1983 C1987 1.495 . S
C1984 C1983 1.392 . S
C1984 C1985 1.385 . S
C1984 C1986 1.478 . S
C1985 H1979 0.930 . S
C1985 C1981 1.400 . S
C1985 C1984 1.385 . S
C1986 C1984 1.478 . S
C1986 C1988 1.381 . S
C1986 C1992 1.383 . S
C1987 C1983 1.495 . S
C1987 H1993 0.959 . S
C1987 H1994 0.961 . S
C1987 H1995 0.960 . S
C1988 C1986 1.381 . S
C1988 C1989 1.394 . S
C1988 H1996 0.930 . S
C1989 C1988 1.394 . S
C1989 C1990 1.383 . S
C1989 H1997 0.929 . S
C1990 C1989 1.383 . S
C1990 C1991 1.377 . S
C1991 H1975 0.930 . S
C1991 C1990 1.377 . S
C1991 C1992 1.379 . S
C1992 H1976 0.931 . S
C1992 C1986 1.383 . S
C1992 C1991 1.379 . S
H1993 C1987 0.959 . S
H1994 C1987 0.961 . S
H1995 C1987 0.960 . S
H1996 C1988 0.930 . S
H1997 C1989 0.929 . S
H1998 C2006 0.929 . S
H1999 C2008 0.930 . S
H2000 C2010 0.930 . S
H2001 C2013 0.929 . S
H2002 C2016 0.930 . S
H2003 C2018 0.960 . S
H2004 C2018 0.960 . S
H2005 C2018 0.960 . S
C2006 H1998 0.929 . S
C2006 C2007 1.377 . S
C2006 C2008 1.384 . S
C2007 C2006 1.377 . S
C2007 C2013 1.390 . S
C2008 H1999 0.930 . S
C2008 C2006 1.384 . S
C2008 C2009 1.372 . S
C2009 C2008 1.372 . S
C2009 C2010 1.400 . S
C2009 C2014 1.490 . S
C2010 H2000 0.930 . S
C2010 C2009 1.400 . S
C2010 C2013 1.386 . S
H2011 C2027 0.930 . S
H2012 C2028 0.931 . S
C2013 H2001 0.929 . S
C2013 C2007 1.390 . S
C2013 C2010 1.386 . S
C2014 C2009 1.490 . S
C2014 C2016 1.395 . S
C2014 C2017 1.403 . S
H2015 C2021 0.930 . S
C2016 H2002 0.930 . S
C2016 C2014 1.395 . S
C2016 C2019 1.403 . S
C2017 C2014 1.403 . S
C2017 C2018 1.524 . S
C2017 C2021 1.400 . S
C2018 H2003 0.960 . S
C2018 H2004 0.960 . S
C2018 H2005 0.960 . S
C2018 C2017 1.524 . S
C2019 C2016 1.403 . S
C2019 C2020 1.392 . S
C2019 C2023 1.495 . S
C2020 C2019 1.392 . S
C2020 C2021 1.385 . S
C2020 C2022 1.478 . S
C2021 H2015 0.930 . S
C2021 C2017 1.400 . S
C2021 C2020 1.385 . S
C2022 C2020 1.478 . S
C2022 C2024 1.381 . S
C2022 C2028 1.383 . S
C2023 C2019 1.495 . S
C2023 H2029 0.959 . S
C2023 H2030 0.961 . S
C2023 H2031 0.960 . S
C2024 C2022 1.381 . S
C2024 C2025 1.394 . S
C2024 H2032 0.930 . S
C2025 C2024 1.394 . S
C2025 C2026 1.383 . S
C2025 H2033 0.929 . S
C2026 C2025 1.383 . S
C2026 C2027 1.377 . S
C2027 H2011 0.930 . S
C2027 C2026 1.377 . S
C2027 C2028 1.379 . S
C2028 H2012 0.931 . S
C2028 C2022 1.383 . S
C2028 C2027 1.379 . S
H2029 C2023 0.959 . S
H2030 C2023 0.961 . S
H2031 C2023 0.960 . S
H2032 C2024 0.930 . S
H2033 C2025 0.929 . S
H2034 C2042 0.929 . S
H2035 C2044 0.930 . S
H2036 C2046 0.930 . S
H2037 C2049 0.929 . S
H2038 C2052 0.930 . S
H2039 C2054 0.960 . S
H2040 C2054 0.960 1_545 S
H2041 C2054 0.960 . S
C2042 H2034 0.929 . S
C2042 C2043 1.377 1_545 S
C2042 C2044 1.384 1_554 S
C2043 C2042 1.377 1_565 S
C2043 C2049 1.390 1_554 S
C2044 H2035 0.930 . S
C2044 C2042 1.384 1_556 S
C2044 C2045 1.372 . S
C2045 C2044 1.372 . S
C2045 C2046 1.400 1_545 S
C2045 C2050 1.490 . S
C2046 H2036 0.930 . S
C2046 C2045 1.400 1_565 S
C2046 C2049 1.386 . S
H2047 C2063 0.930 . S
H2048 C2064 0.931 . S
C2049 H2037 0.929 . S
C2049 C2043 1.390 1_556 S
C2049 C2046 1.386 . S
C2050 C2045 1.490 . S
C2050 C2052 1.395 . S
C2050 C2053 1.403 . S
H2051 C2057 0.930 . S
C2052 H2038 0.930 . S
C2052 C2050 1.395 . S
C2052 C2055 1.403 . S
C2053 C2050 1.403 . S
C2053 C2054 1.524 1_545 S
C2053 C2057 1.400 . S
C2054 H2039 0.960 . S
C2054 H2040 0.960 1_565 S
C2054 H2041 0.960 . S
C2054 C2053 1.524 1_565 S
C2055 C2052 1.403 . S
C2055 C2056 1.392 . S
C2055 C2059 1.495 . S
C2056 C2055 1.392 . S
C2056 C2057 1.385 . S
C2056 C2058 1.478 . S
C2057 H2051 0.930 . S
C2057 C2053 1.400 . S
C2057 C2056 1.385 . S
C2058 C2056 1.478 . S
C2058 C2060 1.381 . S
C2058 C2064 1.383 . S
C2059 C2055 1.495 . S
C2059 H2065 0.959 . S
C2059 H2066 0.961 . S
C2059 H2067 0.960 . S
C2060 C2058 1.381 . S
C2060 C2061 1.394 . S
C2060 H2068 0.930 . S
C2061 C2060 1.394 . S
C2061 C2062 1.383 . S
C2061 H2069 0.929 . S
C2062 C2061 1.383 . S
C2062 C2063 1.377 . S
C2063 H2047 0.930 . S
C2063 C2062 1.377 . S
C2063 C2064 1.379 . S
C2064 H2048 0.931 . S
C2064 C2058 1.383 . S
C2064 C2063 1.379 . S
H2065 C2059 0.959 . S
H2066 C2059 0.961 . S
H2067 C2059 0.960 . S
H2068 C2060 0.930 . S
H2069 C2061 0.929 . S
H2070 C2078 0.929 . S
H2071 C2080 0.930 . S
H2072 C2082 0.930 . S
H2073 C2085 0.929 . S
H2074 C2088 0.930 . S
H2075 C2090 0.960 . S
H2076 C2090 0.960 . S
H2077 C2090 0.960 . S
C2078 H2070 0.929 . S
C2078 C2079 1.377 . S
C2078 C2080 1.384 . S
C2079 C2078 1.377 . S
C2079 C2085 1.390 . S
C2080 H2071 0.930 . S
C2080 C2078 1.384 . S
C2080 C2081 1.372 . S
C2081 C2080 1.372 . S
C2081 C2082 1.400 . S
C2081 C2086 1.490 . S
C2082 H2072 0.930 . S
C2082 C2081 1.400 . S
C2082 C2085 1.386 . S
H2083 C2099 0.930 . S
H2084 C2100 0.931 . S
C2085 H2073 0.929 . S
C2085 C2079 1.390 . S
C2085 C2082 1.386 . S
C2086 C2081 1.490 . S
C2086 C2088 1.395 . S
C2086 C2089 1.403 . S
H2087 C2093 0.930 . S
C2088 H2074 0.930 . S
C2088 C2086 1.395 . S
C2088 C2091 1.403 . S
C2089 C2086 1.403 . S
C2089 C2090 1.524 . S
C2089 C2093 1.400 . S
C2090 H2075 0.960 . S
C2090 H2076 0.960 . S
C2090 H2077 0.960 . S
C2090 C2089 1.524 . S
C2091 C2088 1.403 . S
C2091 C2092 1.392 . S
C2091 C2095 1.495 . S
C2092 C2091 1.392 . S
C2092 C2093 1.385 . S
C2092 C2094 1.478 . S
C2093 H2087 0.930 . S
C2093 C2089 1.400 . S
C2093 C2092 1.385 . S
C2094 C2092 1.478 . S
C2094 C2096 1.381 . S
C2094 C2100 1.383 1_556 S
C2095 C2091 1.495 . S
C2095 H2101 0.959 . S
C2095 H2102 0.961 . S
C2095 H2103 0.960 . S
C2096 C2094 1.381 . S
C2096 C2097 1.394 . S
C2096 H2104 0.930 . S
C2097 C2096 1.394 . S
C2097 C2098 1.383 1_556 S
C2097 H2105 0.929 . S
C2098 C2097 1.383 1_554 S
C2098 C2099 1.377 . S
C2099 H2083 0.930 . S
C2099 C2098 1.377 . S
C2099 C2100 1.379 . S
C2100 H2084 0.931 . S
C2100 C2094 1.383 1_554 S
C2100 C2099 1.379 . S
H2101 C2095 0.959 . S
H2102 C2095 0.961 . S
H2103 C2095 0.960 . S
H2104 C2096 0.930 . S
H2105 C2097 0.929 . S
H2106 C2114 0.929 . S
H2107 C2116 0.930 . S
H2108 C2118 0.930 . S
H2109 C2121 0.929 . S
H2110 C2124 0.930 . S
H2111 C2126 0.960 . S
H2112 C2126 0.960 . S
H2113 C2126 0.960 . S
C2114 H2106 0.929 . S
C2114 C2115 1.377 . S
C2114 C2116 1.384 . S
C2115 C2114 1.377 . S
C2115 C2121 1.390 . S
C2116 H2107 0.930 . S
C2116 C2114 1.384 . S
C2116 C2117 1.372 . S
C2117 C2116 1.372 . S
C2117 C2118 1.400 . S
C2117 C2122 1.490 . S
C2118 H2108 0.930 . S
C2118 C2117 1.400 . S
C2118 C2121 1.386 . S
H2119 C2135 0.930 . S
H2120 C2136 0.931 . S
C2121 H2109 0.929 . S
C2121 C2115 1.390 . S
C2121 C2118 1.386 . S
C2122 C2117 1.490 . S
C2122 C2124 1.395 . S
C2122 C2125 1.403 . S
H2123 C2129 0.930 . S
C2124 H2110 0.930 . S
C2124 C2122 1.395 . S
C2124 C2127 1.403 . S
C2125 C2122 1.403 . S
C2125 C2126 1.524 . S
C2125 C2129 1.400 . S
C2126 H2111 0.960 . S
C2126 H2112 0.960 . S
C2126 H2113 0.960 . S
C2126 C2125 1.524 . S
C2127 C2124 1.403 . S
C2127 C2128 1.392 . S
C2127 C2131 1.495 . S
C2128 C2127 1.392 . S
C2128 C2129 1.385 . S
C2128 C2130 1.478 . S
C2129 H2123 0.930 . S
C2129 C2125 1.400 . S
C2129 C2128 1.385 . S
C2130 C2128 1.478 . S
C2130 C2132 1.381 1_556 S
C2130 C2136 1.383 . S
C2131 C2127 1.495 . S
C2131 H2137 0.959 . S
C2131 H2138 0.961 . S
C2131 H2139 0.960 . S
C2132 C2130 1.381 1_554 S
C2132 C2133 1.394 . S
C2132 H2140 0.930 . S
C2133 C2132 1.394 . S
C2133 C2134 1.383 . S
C2133 H2141 0.929 . S
C2134 C2133 1.383 . S
C2134 C2135 1.377 1_554 S
C2135 H2119 0.930 . S
C2135 C2134 1.377 1_556 S
C2135 C2136 1.379 . S
C2136 H2120 0.931 . S
C2136 C2130 1.383 . S
C2136 C2135 1.379 . S
H2137 C2131 0.959 . S
H2138 C2131 0.961 . S
H2139 C2131 0.960 . S
H2140 C2132 0.930 . S
H2141 C2133 0.929 . S
H2142 C2150 0.929 . S
H2143 C2152 0.930 . S
H2144 C2154 0.930 . S
H2145 C2157 0.929 . S
H2146 C2160 0.930 . S
H2147 C2162 0.960 . S
H2148 C2162 0.960 . S
H2149 C2162 0.960 . S
C2150 H2142 0.929 . S
C2150 C2151 1.377 . S
C2150 C2152 1.384 . S
C2151 C2150 1.377 . S
C2151 C2157 1.390 . S
C2152 H2143 0.930 . S
C2152 C2150 1.384 . S
C2152 C2153 1.372 . S
C2153 C2152 1.372 . S
C2153 C2154 1.400 . S
C2153 C2158 1.490 . S
C2154 H2144 0.930 . S
C2154 C2153 1.400 . S
C2154 C2157 1.386 . S
H2155 C2171 0.930 . S
H2156 C2172 0.931 . S
C2157 H2145 0.929 . S
C2157 C2151 1.390 . S
C2157 C2154 1.386 . S
C2158 C2153 1.490 . S
C2158 C2160 1.395 . S
C2158 C2161 1.403 . S
H2159 C2165 0.930 . S
C2160 H2146 0.930 . S
C2160 C2158 1.395 . S
C2160 C2163 1.403 . S
C2161 C2158 1.403 . S
C2161 C2162 1.524 . S
C2161 C2165 1.400 . S
C2162 H2147 0.960 . S
C2162 H2148 0.960 . S
C2162 H2149 0.960 . S
C2162 C2161 1.524 . S
C2163 C2160 1.403 . S
C2163 C2164 1.392 . S
C2163 C2167 1.495 . S
C2164 C2163 1.392 . S
C2164 C2165 1.385 . S
C2164 C2166 1.478 . S
C2165 H2159 0.930 . S
C2165 C2161 1.400 . S
C2165 C2164 1.385 . S
C2166 C2164 1.478 . S
C2166 C2168 1.381 . S
C2166 C2172 1.383 . S
C2167 C2163 1.495 . S
C2167 H2173 0.959 . S
C2167 H2174 0.961 . S
C2167 H2175 0.960 . S
C2168 C2166 1.381 . S
C2168 C2169 1.394 . S
C2168 H2176 0.930 . S
C2169 C2168 1.394 . S
C2169 C2170 1.383 . S
C2169 H2177 0.929 . S
C2170 C2169 1.383 . S
C2170 C2171 1.377 . S
C2171 H2155 0.930 . S
C2171 C2170 1.377 . S
C2171 C2172 1.379 . S
C2172 H2156 0.931 . S
C2172 C2166 1.383 . S
C2172 C2171 1.379 . S
H2173 C2167 0.959 . S
H2174 C2167 0.961 . S
H2175 C2167 0.960 . S
H2176 C2168 0.930 . S
H2177 C2169 0.929 . S
H2178 C2186 0.929 . S
H2179 C2188 0.930 . S
H2180 C2190 0.930 . S
H2181 C2193 0.929 . S
H2182 C2196 0.930 . S
H2183 C2198 0.960 . S
H2184 C2198 0.960 . S
H2185 C2198 0.960 . S
C2186 H2178 0.929 . S
C2186 C2187 1.377 . S
C2186 C2188 1.384 . S
C2187 C2186 1.377 . S
C2187 C2193 1.390 . S
C2188 H2179 0.930 . S
C2188 C2186 1.384 . S
C2188 C2189 1.372 . S
C2189 C2188 1.372 . S
C2189 C2190 1.400 . S
C2189 C2194 1.490 . S
C2190 H2180 0.930 . S
C2190 C2189 1.400 . S
C2190 C2193 1.386 . S
H2191 C2207 0.930 . S
H2192 C2208 0.931 . S
C2193 H2181 0.929 . S
C2193 C2187 1.390 . S
C2193 C2190 1.386 . S
C2194 C2189 1.490 . S
C2194 C2196 1.395 . S
C2194 C2197 1.403 . S
H2195 C2201 0.930 . S
C2196 H2182 0.930 . S
C2196 C2194 1.395 . S
C2196 C2199 1.403 . S
C2197 C2194 1.403 . S
C2197 C2198 1.524 . S
C2197 C2201 1.400 . S
C2198 H2183 0.960 . S
C2198 H2184 0.960 . S
C2198 H2185 0.960 . S
C2198 C2197 1.524 . S
C2199 C2196 1.403 . S
C2199 C2200 1.392 . S
C2199 C2203 1.495 . S
C2200 C2199 1.392 . S
C2200 C2201 1.385 . S
C2200 C2202 1.478 . S
C2201 H2195 0.930 . S
C2201 C2197 1.400 . S
C2201 C2200 1.385 . S
C2202 C2200 1.478 . S
C2202 C2204 1.381 . S
C2202 C2208 1.383 . S
C2203 C2199 1.495 . S
C2203 H2209 0.959 . S
C2203 H2210 0.961 . S
C2203 H2211 0.960 . S
C2204 C2202 1.381 . S
C2204 C2205 1.394 . S
C2204 H2212 0.930 . S
C2205 C2204 1.394 . S
C2205 C2206 1.383 . S
C2205 H2213 0.929 . S
C2206 C2205 1.383 . S
C2206 C2207 1.377 . S
C2207 H2191 0.930 . S
C2207 C2206 1.377 . S
C2207 C2208 1.379 . S
C2208 H2192 0.931 . S
C2208 C2202 1.383 . S
C2208 C2207 1.379 . S
H2209 C2203 0.959 . S
H2210 C2203 0.961 . S
H2211 C2203 0.960 . S
H2212 C2204 0.930 . S
H2213 C2205 0.929 . S
H2214 C2222 0.929 . S
H2215 C2224 0.930 . S
H2216 C2226 0.930 . S
H2217 C2229 0.929 . S
H2218 C2232 0.930 . S
H2219 C2234 0.960 . S
H2220 C2234 0.960 . S
H2221 C2234 0.960 . S
C2222 H2214 0.929 . S
C2222 C2223 1.377 . S
C2222 C2224 1.384 . S
C2223 C2222 1.377 . S
C2223 C2229 1.390 . S
C2224 H2215 0.930 . S
C2224 C2222 1.384 . S
C2224 C2225 1.372 . S
C2225 C2224 1.372 . S
C2225 C2226 1.400 . S
C2225 C2230 1.490 . S
C2226 H2216 0.930 . S
C2226 C2225 1.400 . S
C2226 C2229 1.386 . S
H2227 C2243 0.930 . S
H2228 C2244 0.931 . S
C2229 H2217 0.929 . S
C2229 C2223 1.390 . S
C2229 C2226 1.386 . S
C2230 C2225 1.490 . S
C2230 C2232 1.395 . S
C2230 C2233 1.403 . S
H2231 C2237 0.930 . S
C2232 H2218 0.930 . S
C2232 C2230 1.395 . S
C2232 C2235 1.403 . S
C2233 C2230 1.403 . S
C2233 C2234 1.524 . S
C2233 C2237 1.400 . S
C2234 H2219 0.960 . S
C2234 H2220 0.960 . S
C2234 H2221 0.960 . S
C2234 C2233 1.524 . S
C2235 C2232 1.403 . S
C2235 C2236 1.392 . S
C2235 C2239 1.495 . S
C2236 C2235 1.392 . S
C2236 C2237 1.385 . S
C2236 C2238 1.478 . S
C2237 H2231 0.930 . S
C2237 C2233 1.400 . S
C2237 C2236 1.385 . S
C2238 C2236 1.478 . S
C2238 C2240 1.381 . S
C2238 C2244 1.383 . S
C2239 C2235 1.495 . S
C2239 H2245 0.959 . S
C2239 H2246 0.961 . S
C2239 H2247 0.960 . S
C2240 C2238 1.381 . S
C2240 C2241 1.394 . S
C2240 H2248 0.930 . S
C2241 C2240 1.394 . S
C2241 C2242 1.383 . S
C2241 H2249 0.929 . S
C2242 C2241 1.383 . S
C2242 C2243 1.377 . S
C2243 H2227 0.930 . S
C2243 C2242 1.377 . S
C2243 C2244 1.379 . S
C2244 H2228 0.931 . S
C2244 C2238 1.383 . S
C2244 C2243 1.379 . S
H2245 C2239 0.959 . S
H2246 C2239 0.961 . S
H2247 C2239 0.960 . S
H2248 C2240 0.930 . S
H2249 C2241 0.929 . S
H2250 C2258 0.929 . S
H2251 C2260 0.930 . S
H2252 C2262 0.930 . S
H2253 C2265 0.929 . S
H2254 C2268 0.930 . S
H2255 C2270 0.960 . S
H2256 C2270 0.960 . S
H2257 C2270 0.960 . S
C2258 H2250 0.929 . S
C2258 C2259 1.377 . S
C2258 C2260 1.384 . S
C2259 C2258 1.377 . S
C2259 C2265 1.390 . S
C2260 H2251 0.930 . S
C2260 C2258 1.384 . S
C2260 C2261 1.372 . S
C2261 C2260 1.372 . S
C2261 C2262 1.400 . S
C2261 C2266 1.490 . S
C2262 H2252 0.930 . S
C2262 C2261 1.400 . S
C2262 C2265 1.386 . S
H2263 C2279 0.930 . S
H2264 C2280 0.931 . S
C2265 H2253 0.929 . S
C2265 C2259 1.390 . S
C2265 C2262 1.386 . S
C2266 C2261 1.490 . S
C2266 C2268 1.395 . S
C2266 C2269 1.403 . S
H2267 C2273 0.930 . S
C2268 H2254 0.930 . S
C2268 C2266 1.395 . S
C2268 C2271 1.403 . S
C2269 C2266 1.403 . S
C2269 C2270 1.524 . S
C2269 C2273 1.400 . S
C2270 H2255 0.960 . S
C2270 H2256 0.960 . S
C2270 H2257 0.960 . S
C2270 C2269 1.524 . S
C2271 C2268 1.403 . S
C2271 C2272 1.392 . S
C2271 C2275 1.495 . S
C2272 C2271 1.392 . S
C2272 C2273 1.385 . S
C2272 C2274 1.478 . S
C2273 H2267 0.930 . S
C2273 C2269 1.400 . S
C2273 C2272 1.385 . S
C2274 C2272 1.478 . S
C2274 C2276 1.381 . S
C2274 C2280 1.383 . S
C2275 C2271 1.495 . S
C2275 H2281 0.959 . S
C2275 H2282 0.961 . S
C2275 H2283 0.960 . S
C2276 C2274 1.381 . S
C2276 C2277 1.394 . S
C2276 H2284 0.930 . S
C2277 C2276 1.394 . S
C2277 C2278 1.383 . S
C2277 H2285 0.929 . S
C2278 C2277 1.383 . S
C2278 C2279 1.377 . S
C2279 H2263 0.930 . S
C2279 C2278 1.377 . S
C2279 C2280 1.379 . S
C2280 H2264 0.931 . S
C2280 C2274 1.383 . S
C2280 C2279 1.379 . S
H2281 C2275 0.959 . S
H2282 C2275 0.961 . S
H2283 C2275 0.960 . S
H2284 C2276 0.930 . S
H2285 C2277 0.929 . S
H2286 C2294 0.929 . S
H2287 C2296 0.930 . S
H2288 C2298 0.930 . S
H2289 C2301 0.929 . S
H2290 C2304 0.930 . S
H2291 C2306 0.960 . S
H2292 C2306 0.960 . S
H2293 C2306 0.960 . S
C2294 H2286 0.929 . S
C2294 C2295 1.377 . S
C2294 C2296 1.384 . S
C2295 C2294 1.377 . S
C2295 C2301 1.390 . S
C2296 H2287 0.930 . S
C2296 C2294 1.384 . S
C2296 C2297 1.372 . S
C2297 C2296 1.372 . S
C2297 C2298 1.400 . S
C2297 C2302 1.490 . S
C2298 H2288 0.930 . S
C2298 C2297 1.400 . S
C2298 C2301 1.386 . S
H2299 C2315 0.930 . S
H2300 C2316 0.931 . S
C2301 H2289 0.929 . S
C2301 C2295 1.390 . S
C2301 C2298 1.386 . S
C2302 C2297 1.490 . S
C2302 C2304 1.395 . S
C2302 C2305 1.403 . S
H2303 C2309 0.930 . S
C2304 H2290 0.930 . S
C2304 C2302 1.395 . S
C2304 C2307 1.403 . S
C2305 C2302 1.403 . S
C2305 C2306 1.524 . S
C2305 C2309 1.400 . S
C2306 H2291 0.960 . S
C2306 H2292 0.960 . S
C2306 H2293 0.960 . S
C2306 C2305 1.524 . S
C2307 C2304 1.403 . S
C2307 C2308 1.392 . S
C2307 C2311 1.495 . S
C2308 C2307 1.392 . S
C2308 C2309 1.385 . S
C2308 C2310 1.478 . S
C2309 H2303 0.930 . S
C2309 C2305 1.400 . S
C2309 C2308 1.385 . S
C2310 C2308 1.478 . S
C2310 C2312 1.381 . S
C2310 C2316 1.383 . S
C2311 C2307 1.495 . S
C2311 H2317 0.959 . S
C2311 H2318 0.961 . S
C2311 H2319 0.960 . S
C2312 C2310 1.381 . S
C2312 C2313 1.394 . S
C2312 H2320 0.930 . S
C2313 C2312 1.394 . S
C2313 C2314 1.383 . S
C2313 H2321 0.929 . S
C2314 C2313 1.383 . S
C2314 C2315 1.377 . S
C2315 H2299 0.930 . S
C2315 C2314 1.377 . S
C2315 C2316 1.379 . S
C2316 H2300 0.931 . S
C2316 C2310 1.383 . S
C2316 C2315 1.379 . S
H2317 C2311 0.959 . S
H2318 C2311 0.961 . S
H2319 C2311 0.960 . S
H2320 C2312 0.930 . S
H2321 C2313 0.929 . S
H2322 C2330 0.929 . S
H2323 C2332 0.930 . S
H2324 C2334 0.930 . S
H2325 C2337 0.996 . S
H2326 C2340 0.930 . S
H2327 C2342 0.960 . S
H2328 C2342 0.960 . S
H2329 C2342 0.960 . S
C2330 H2322 0.929 . S
C2330 C2331 1.377 . S
C2330 C2332 1.384 . S
C2331 C2330 1.377 . S
C2331 C2337 1.390 . S
C2332 H2323 0.930 . S
C2332 C2330 1.384 . S
C2332 C2333 1.372 . S
C2333 C2332 1.372 . S
C2333 C2334 1.400 . S
C2333 C2338 1.490 . S
C2334 H2324 0.930 . S
C2334 C2333 1.400 . S
C2334 C2337 1.386 . S
H2335 C2351 0.930 . S
H2336 C2352 0.931 . S
C2337 H2325 0.996 . S
C2337 C2331 1.390 . S
C2337 C2334 1.386 . S
C2338 C2333 1.490 . S
C2338 C2340 1.395 . S
C2338 C2341 1.403 . S
H2339 C2345 0.930 . S
C2340 H2326 0.930 . S
C2340 C2338 1.395 . S
C2340 C2343 1.403 . S
C2341 C2338 1.403 . S
C2341 C2342 1.524 . S
C2341 C2345 1.400 . S
C2342 H2327 0.960 . S
C2342 H2328 0.960 . S
C2342 H2329 0.960 . S
C2342 C2341 1.524 . S
C2343 C2340 1.403 . S
C2343 C2344 1.392 . S
C2343 C2347 1.495 . S
C2344 C2343 1.392 . S
C2344 C2345 1.385 . S
C2344 C2346 1.478 . S
C2345 H2339 0.930 . S
C2345 C2341 1.400 . S
C2345 C2344 1.385 . S
C2346 C2344 1.478 . S
C2346 C2348 1.381 . S
C2346 C2352 1.383 . S
C2347 C2343 1.495 . S
C2347 H2353 0.959 . S
C2347 H2354 0.961 . S
C2347 H2355 0.960 . S
C2348 C2346 1.381 . S
C2348 C2349 1.394 . S
C2348 H2356 0.930 . S
C2349 C2348 1.394 . S
C2349 C2350 1.383 . S
C2349 H2357 0.929 . S
C2350 C2349 1.383 . S
C2350 C2351 1.377 . S
C2351 H2335 0.930 . S
C2351 C2350 1.377 . S
C2351 C2352 1.379 . S
C2352 H2336 0.931 . S
C2352 C2346 1.383 . S
C2352 C2351 1.379 . S
H2353 C2347 0.959 . S
H2354 C2347 0.961 . S
H2355 C2347 0.960 . S
H2356 C2348 0.930 . S
H2357 C2349 0.929 . S
C1071 C180 1.246 . S
C1090 C3 1.246 . S
C1107 C241 1.251 . S
C1126 C64 1.256 . S
C1143 C121 1.243 . S
C1162 C298 1.225 . S
C1179 C123 1.244 . S
C1198 C300 1.232 . S
C1215 C5 1.244 . S
C1234 C182 1.233 . S
C1251 C239 1.240 . S
C1270 C62 1.251 . S
C1287 C534 1.243 . S
C1306 C359 1.241 . S
C1323 C418 1.247 . S
C1342 C593 1.222 . S
C1359 C477 1.249 . S
C1378 C652 1.234 . S
C1395 C654 1.248 . S
C1414 C475 1.232 . S
C1431 C536 1.249 . S
C1450 C357 1.230 . S
C1467 C595 1.251 . S
C1486 C416 1.253 . S
C1503 C711 1.246 . S
C1522 C888 1.255 . S
C1539 C772 1.250 . S
C1558 C949 1.237 . S
C1575 C829 1.247 . S
C1594 C1006 1.256 . S
C1611 C1008 1.245 . S
C1630 C831 1.232 . S
C1647 C890 1.249 . S
C1666 C713 1.241 . S
C1683 C947 1.239 . S
C1702 C770 1.222 . S
C1719 C33 1.494 . S
C1738 C446 1.491 . S
C1755 C111 1.496 . S
C1774 C505 1.490 . S
C1791 C387 1.492 . S
C1810 C151 1.489 . S
C1827 C170 1.498 . S
C1846 C819 1.502 . S
C1863 C859 1.496 . S
C1882 C52 1.486 . S
C1899 C741 1.491 . S
C1918 C92 1.486 . S
C1935 C977 1.491 . S
C1954 C210 1.480 . S
C1971 C288 1.499 . S
C1990 C1055 1.493 . S
C2007 C937 1.496 . S
C2026 C328 1.491 . S
C2043 C623 1.493 . S
C2062 C347 1.484 . S
C2079 C229 1.495 . S
C2098 C682 1.491 . S
C2115 C269 1.490 . S
C2134 C564 1.480 . S
C2151 C406 1.496 1_545 S
C2170 C800 1.482 . S
C2187 C465 1.496 . S
C2206 C878 1.498 1_455 S
C2223 C524 1.498 . S
C2242 C760 1.502 . S
C2259 C996 1.500 1_455 S
C2278 C701 1.504 . S
C2295 C1036 1.493 . S
C2314 C583 1.484 . S
C2331 C642 1.497 1_545 S
C2350 C918 1.496 . S
