# Generated by pormake.
# Topology umb, (4)-cn, num edge types: 1
# Building blocks:
#     Node 0, Type 0, BuildingBlock: MUDLON_clean_sbu_0, # of connection points: 4
#     Node 1, Type 0, BuildingBlock: MUDLON_clean_sbu_0, # of connection points: 4
#     Node 2, Type 0, BuildingBlock: MUDLON_clean_sbu_0, # of connection points: 4
#     Node 3, Type 0, BuildingBlock: MUDLON_clean_sbu_0, # of connection points: 4
#     Node 4, Type 0, BuildingBlock: MUDLON_clean_sbu_0, # of connection points: 4
#     Node 5, Type 0, BuildingBlock: MUDLON_clean_sbu_0, # of connection points: 4
#     Node 6, Type 0, BuildingBlock: MUDLON_clean_sbu_0, # of connection points: 4
#     Node 7, Type 0, BuildingBlock: MUDLON_clean_sbu_0, # of connection points: 4
#     Node 8, Type 0, BuildingBlock: MUDLON_clean_sbu_0, # of connection points: 4
#     Node 9, Type 0, BuildingBlock: MUDLON_clean_sbu_0, # of connection points: 4
#     Node 10, Type 0, BuildingBlock: MUDLON_clean_sbu_0, # of connection points: 4
#     Node 11, Type 0, BuildingBlock: MUDLON_clean_sbu_0, # of connection points: 4
#     Edge 12, Type (0, 0), BuildingBlock: KIFKEQ_clean_linker_1, # of connection points: 2
#     Edge 13, Type (0, 0), BuildingBlock: KIFKEQ_clean_linker_1, # of connection points: 2
#     Edge 14, Type (0, 0), BuildingBlock: KIFKEQ_clean_linker_1, # of connection points: 2
#     Edge 15, Type (0, 0), BuildingBlock: KIFKEQ_clean_linker_1, # of connection points: 2
#     Edge 16, Type (0, 0), BuildingBlock: KIFKEQ_clean_linker_1, # of connection points: 2
#     Edge 17, Type (0, 0), BuildingBlock: KIFKEQ_clean_linker_1, # of connection points: 2
#     Edge 18, Type (0, 0), BuildingBlock: KIFKEQ_clean_linker_1, # of connection points: 2
#     Edge 19, Type (0, 0), BuildingBlock: KIFKEQ_clean_linker_1, # of connection points: 2
#     Edge 20, Type (0, 0), BuildingBlock: KIFKEQ_clean_linker_1, # of connection points: 2
#     Edge 21, Type (0, 0), BuildingBlock: KIFKEQ_clean_linker_1, # of connection points: 2
#     Edge 22, Type (0, 0), BuildingBlock: KIFKEQ_clean_linker_1, # of connection points: 2
#     Edge 23, Type (0, 0), BuildingBlock: KIFKEQ_clean_linker_1, # of connection points: 2
#     Edge 24, Type (0, 0), BuildingBlock: KIFKEQ_clean_linker_1, # of connection points: 2
#     Edge 25, Type (0, 0), BuildingBlock: KIFKEQ_clean_linker_1, # of connection points: 2
#     Edge 26, Type (0, 0), BuildingBlock: KIFKEQ_clean_linker_1, # of connection points: 2
#     Edge 27, Type (0, 0), BuildingBlock: KIFKEQ_clean_linker_1, # of connection points: 2
#     Edge 28, Type (0, 0), BuildingBlock: KIFKEQ_clean_linker_1, # of connection points: 2
#     Edge 29, Type (0, 0), BuildingBlock: KIFKEQ_clean_linker_1, # of connection points: 2
#     Edge 30, Type (0, 0), BuildingBlock: KIFKEQ_clean_linker_1, # of connection points: 2
#     Edge 31, Type (0, 0), BuildingBlock: KIFKEQ_clean_linker_1, # of connection points: 2
#     Edge 32, Type (0, 0), BuildingBlock: KIFKEQ_clean_linker_1, # of connection points: 2
#     Edge 33, Type (0, 0), BuildingBlock: KIFKEQ_clean_linker_1, # of connection points: 2
#     Edge 34, Type (0, 0), BuildingBlock: KIFKEQ_clean_linker_1, # of connection points: 2
#     Edge 35, Type (0, 0), BuildingBlock: KIFKEQ_clean_linker_1, # of connection points: 2
# Relax obj value: 0.249
# Max RMSD: 0.216
# Mean RMSD: 0.216
data_MOF--net-umb--node1-MUDLON_clean_sbu_0--edge1-KIFKEQ_clean_linker_1
_symmetry_space_group_name_H-M    P1
_symmetry_Int_Tables_number       1
_symmetry_cell_setting            triclinic
loop_
_symmetry_equiv_pos_as_xyz
'x, y, z'
_cell_length_a     49.427929
_cell_length_b     49.534161
_cell_length_c     40.795965
_cell_angle_alpha  89.987744
_cell_angle_beta   90.136575
_cell_angle_gamma 120.05445
loop_
_atom_site_label
_atom_site_type_symbol
_atom_site_fract_x
_atom_site_fract_y
_atom_site_fract_z
_atom_type_partial_charge
Mg0 Mg 0.55538 0.17144 0.35045 0.0
C1 C 0.61742 0.17463 0.36187 0.0
O2 O 0.59985 0.14973 0.37949 0.0
C3 C 0.52778 0.1041 0.36283 0.0
O4 O 0.53598 0.11587 0.39244 0.0
C5 C 0.55263 0.19722 0.28616 0.0
O6 O 0.56407 0.17895 0.27942 0.0
O7 O 0.54503 0.19857 0.31566 0.0
O8 O 0.60463 0.18718 0.34559 0.0
O9 O 0.54916 0.17686 0.40268 0.0
C10 C 0.57304 0.19446 0.4201 0.0
O11 O 0.59948 0.21341 0.40538 0.0
O12 O 0.53124 0.12212 0.33906 0.0
Mg13 Mg 0.38871 0.5781 0.66269 0.0
C14 C 0.38019 0.59262 0.73276 0.0
O15 O 0.37677 0.61414 0.71762 0.0
C16 C 0.34865 0.56144 0.60186 0.0
O17 O 0.37439 0.56367 0.58998 0.0
C18 C 0.41103 0.53225 0.66414 0.0
O19 O 0.39084 0.52165 0.68835 0.0
O20 O 0.41366 0.55496 0.64724 0.0
O21 O 0.38241 0.57224 0.71578 0.0
O22 O 0.42182 0.62721 0.65994 0.0
C23 C 0.42524 0.64644 0.63757 0.0
O24 O 0.40771 0.63651 0.61112 0.0
O25 O 0.34731 0.56573 0.63248 0.0
Mg26 Mg 0.77444 0.35746 1.02081 0.0
C27 C 0.78054 0.42136 1.01 0.0
O28 O 0.80874 0.43169 1.02193 0.0
C29 C 0.83549 0.39088 0.98409 0.0
O30 O 0.81825 0.39688 0.96415 0.0
C31 C 0.75474 0.30723 0.96898 0.0
O32 O 0.78482 0.32368 0.96294 0.0
O33 O 0.74376 0.31487 0.99321 0.0
O34 O 0.76262 0.39222 1.00562 0.0
O35 O 0.76865 0.35531 0.07429 0.0
C36 C 0.79007 0.37844 0.08997 0.0
O37 O 0.81461 0.39925 0.07374 0.0
O38 O 0.82303 0.37432 1.0094 0.0
Mg39 Mg 0.44316 0.8141 0.35598 0.0
C40 C 0.38545 0.79558 0.31372 0.0
O41 O 0.40416 0.79894 0.2893 0.0
C42 C 0.46685 0.87933 0.32906 0.0
O43 O 0.44895 0.86413 0.304 0.0
C44 C 0.47268 0.80156 0.29649 0.0
O45 O 0.48334 0.83146 0.29196 0.0
O46 O 0.45712 0.78868 0.32236 0.0
O47 O 0.39622 0.80139 0.34273 0.0
O48 O 0.43958 0.80294 0.40834 0.0
C49 C 0.41379 0.78213 0.42066 0.0
O50 O 0.39063 0.76419 0.40092 0.0
O51 O 0.47012 0.86427 0.35247 0.0
Mg52 Mg 0.61343 0.44621 0.70411 0.0
C53 C 0.63601 0.4409 0.76986 0.0
O54 O 0.63969 0.4205 0.75274 0.0
C55 C 0.6554 0.437 0.65716 0.0
O56 O 0.64252 0.41018 0.67267 0.0
C57 C 0.58617 0.48616 0.67769 0.0
O58 O 0.6153 0.50799 0.6727 0.0
O59 O 0.5803 0.46033 0.69017 0.0
O60 O 0.62848 0.4587 0.75479 0.0
O61 O 0.58435 0.3966 0.70866 0.0
C62 C 0.56932 0.37723 0.68604 0.0
O63 O 0.57204 0.3867 0.65553 0.0
O64 O 0.64886 0.45765 0.66629 0.0
Mg65 Mg 0.13021 0.56129 1.00323 0.0
C66 C 0.16695 0.53672 0.96588 0.0
O67 O 0.16076 0.5487 0.94019 0.0
C68 C 0.06919 0.50636 0.98126 0.0
O69 O 0.08577 0.49242 0.98373 0.0
C70 C 0.14946 0.60586 0.94655 0.0
O71 O 0.12441 0.5815 0.93462 0.0
O72 O 0.15671 0.60527 0.97644 0.0
O73 O 0.15444 0.53624 0.99315 0.0
O74 O 0.13169 0.56321 0.05692 0.0
C75 C 0.12531 0.53729 0.07001 0.0
O76 O 0.11752 0.51323 0.05074 0.0
O77 O 0.08211 0.53539 0.98723 0.0
Mg78 Mg 0.80291 0.43047 0.39993 0.0
C79 C 0.77574 0.41551 0.33203 0.0
O80 O 0.7531 0.3928 0.34877 0.0
C81 C 0.78189 0.45708 0.45484 0.0
O82 O 0.81169 0.47833 0.45424 0.0
C83 C 0.87215 0.47879 0.40099 0.0
O84 O 0.86511 0.48819 0.37383 0.0
O85 O 0.85058 0.45643 0.41698 0.0
O86 O 0.79893 0.43702 0.34756 0.0
O87 O 0.79228 0.3828 0.40133 0.0
C88 C 0.7847 0.36579 0.42672 0.0
O89 O 0.78283 0.37727 0.45511 0.0
O90 O 0.77133 0.43532 0.43359 0.0
Mg91 Mg 0.3455 0.79132 0.72687 0.0
C92 C 0.41297 0.8058 0.73542 0.0
O93 O 0.41999 0.83458 0.72914 0.0
C94 C 0.37514 0.85351 0.76066 0.0
O95 O 0.37856 0.83689 0.78368 0.0
C96 C 0.3121 0.75435 0.7865 0.0
O97 O 0.34158 0.76574 0.79465 0.0
O98 O 0.30575 0.76088 0.7583 0.0
O99 O 0.38451 0.78479 0.73918 0.0
O100 O 0.34103 0.7811 0.67391 0.0
C101 C 0.36524 0.8002 0.65785 0.0
O102 O 0.38703 0.82491 0.67308 0.0
O103 O 0.36054 0.84002 0.73456 0.0
Mg104 Mg 0.55961 0.3966 0.07374 0.0
C105 C 0.6175 0.45629 0.06242 0.0
O106 O 0.59791 0.45858 0.04234 0.0
C107 C 0.53606 0.43673 0.10188 0.0
O108 O 0.56123 0.44593 0.11994 0.0
C109 C 0.5707 0.35187 0.11368 0.0
O110 O 0.59855 0.36936 0.10088 0.0
O111 O 0.54889 0.35724 0.10592 0.0
O112 O 0.60677 0.43374 0.08263 0.0
O113 O 0.56162 0.38877 1.02134 0.0
C114 C 0.58693 0.39167 1.00997 0.0
O115 O 0.6084 0.39392 1.03063 0.0
O116 O 0.52867 0.41498 0.08116 0.0
Mg117 Mg 0.15296 0.54894 0.38142 0.0
C118 C 0.15016 0.51736 0.31356 0.0
O119 O 0.17372 0.51433 0.32381 0.0
C120 C 0.18692 0.55125 0.44183 0.0
O121 O 0.17611 0.57023 0.44751 0.0
C122 C 0.08959 0.5192 0.41337 0.0
O123 O 0.09196 0.49409 0.40988 0.0
O124 O 0.11244 0.54545 0.40514 0.0
O125 O 0.13719 0.52727 0.33328 0.0
O126 O 0.1817 0.59733 0.36831 0.0
C127 C 0.2011 0.60294 0.34536 0.0
O128 O 0.20412 0.57996 0.33354 0.0
O129 O 0.1802 0.53676 0.41453 0.0
Mg130 Mg 0.57681 0.14434 0.7298 0.0
C131 C 0.54682 0.18144 0.75489 0.0
O132 O 0.55993 0.18137 0.7829 0.0
C133 C 0.51708 0.08495 0.74283 0.0
O134 O 0.50633 0.10393 0.73694 0.0
C135 C 0.60959 0.16006 0.79538 0.0
O136 O 0.58248 0.136 0.80348 0.0
O137 O 0.61463 0.16827 0.76541 0.0
O138 O 0.54955 0.16719 0.73044 0.0
O139 O 0.59104 0.15112 0.67852 0.0
C140 C 0.56972 0.13483 0.65779 0.0
O141 O 0.54259 0.11269 0.66863 0.0
O142 O 0.5464 0.09547 0.74164 0.0
Mg143 Mg 0.44664 0.63375 0.04237 0.0
C144 C 0.38397 0.62134 1.02821 0.0
O145 O 0.40202 0.64986 1.01732 0.0
C146 C 0.44492 0.57515 0.06561 0.0
O147 O 0.41475 0.56493 0.06486 0.0
C148 C 0.46387 0.66581 0.10676 0.0
O149 O 0.45804 0.63745 0.11352 0.0
O150 O 0.46224 0.67266 0.07697 0.0
O151 O 0.39636 0.60836 0.04427 0.0
O152 O 0.45304 0.64185 0.98924 0.0
C153 C 0.43459 0.61713 0.97337 0.0
O154 O 0.41775 0.59113 0.98972 0.0
O155 O 0.46387 0.60316 0.05736 0.0
H156 H 0.52256 0.16059 0.46004 0.0
H157 H 0.62339 0.21537 0.46103 0.0
H158 H 0.52306 0.14718 0.51745 0.0
H159 H 0.62405 0.20096 0.51783 0.0
H160 H 0.61283 0.18998 0.6294 0.0
H161 H 0.61352 0.20642 0.57289 0.0
H162 H 0.53507 0.11543 0.5501 0.0
H163 H 0.53367 0.09962 0.60679 0.0
C164 C 0.54482 0.16992 0.47256 0.0
C165 C 0.57288 0.18911 0.45592 0.0
C166 C 0.54518 0.16194 0.50542 0.0
C167 C 0.57364 0.1726 0.52238 0.0
C168 C 0.60165 0.19252 0.50588 0.0
C169 C 0.60126 0.20078 0.47315 0.0
C170 C 0.59599 0.1734 0.61219 0.0
C171 C 0.57315 0.14352 0.62262 0.0
C172 C 0.59635 0.18281 0.57971 0.0
C173 C 0.57408 0.16243 0.5568 0.0
C174 C 0.55205 0.13212 0.5671 0.0
C175 C 0.55147 0.12288 0.5996 0.0
H176 H 0.41357 0.57187 0.76762 0.0
H177 H 0.36217 0.62067 0.77855 0.0
H178 H 0.4285 0.58124 0.82563 0.0
H179 H 0.37639 0.62913 0.83678 0.0
H180 H 0.37765 0.59343 0.94574 0.0
H181 H 0.3644 0.58855 0.88742 0.0
H182 H 0.46242 0.63504 0.86304 0.0
H183 H 0.47582 0.64092 0.92189 0.0
C184 C 0.40508 0.58418 0.78249 0.0
C185 C 0.38651 0.59536 0.76854 0.0
C186 C 0.41395 0.58984 0.81555 0.0
C187 C 0.40383 0.60615 0.83552 0.0
C188 C 0.3846 0.61661 0.82184 0.0
C189 C 0.37637 0.61164 0.7886 0.0
C190 C 0.39639 0.60303 0.92791 0.0
C191 C 0.42776 0.61763 0.93818 0.0
C192 C 0.38879 0.60024 0.89461 0.0
C193 C 0.41237 0.61125 0.87081 0.0
C194 C 0.44383 0.62625 0.88101 0.0
C195 C 0.45151 0.62982 0.91452 0.0
H196 H 0.72736 0.37861 0.2909 0.0
H197 H 0.82613 0.44575 0.29133 0.0
H198 H 0.72964 0.37017 0.23236 0.0
H199 H 0.82891 0.4363 0.23333 0.0
H200 H 0.75057 0.3366 0.13601 0.0
H201 H 0.7465 0.34659 0.19399 0.0
H202 H 0.81691 0.4434 0.18044 0.0
H203 H 0.82198 0.43296 0.12346 0.0
C204 C 0.74957 0.39168 0.27844 0.0
C205 C 0.77653 0.41297 0.2958 0.0
C206 C 0.75098 0.38657 0.24487 0.0
C207 C 0.7795 0.4023 0.22782 0.0
C208 C 0.80635 0.42405 0.24522 0.0
C209 C 0.80482 0.42948 0.27866 0.0
C210 C 0.76522 0.35994 0.14558 0.0
C211 C 0.78682 0.38385 0.12519 0.0
C212 C 0.76275 0.36581 0.1788 0.0
C213 C 0.78148 0.39587 0.19226 0.0
C214 C 0.80261 0.4198 0.17147 0.0
C215 C 0.80542 0.41382 0.13857 0.0
H216 H 0.36515 0.7368 0.45605 0.0
H217 H 0.44892 0.82653 0.46626 0.0
H218 H 0.35309 0.7382 0.51378 0.0
H219 H 0.43627 0.8288 0.52323 0.0
H220 H 0.42158 0.81792 0.631 0.0
H221 H 0.43366 0.8102 0.57552 0.0
H222 H 0.3351 0.76145 0.55159 0.0
H223 H 0.32303 0.76779 0.60836 0.0
C224 C 0.38109 0.75678 0.47067 0.0
C225 C 0.40811 0.78147 0.45651 0.0
C226 C 0.37399 0.75776 0.50377 0.0
C227 C 0.39354 0.78366 0.52351 0.0
C228 C 0.42084 0.8081 0.50929 0.0
C229 C 0.42813 0.8069 0.4764 0.0
C230 C 0.40242 0.80547 0.61393 0.0
C231 C 0.37134 0.79382 0.62395 0.0
C232 C 0.40938 0.80119 0.58189 0.0
C233 C 0.3855 0.78571 0.55852 0.0
C234 C 0.35421 0.7733 0.5688 0.0
C235 C 0.34719 0.77706 0.60129 0.0
H236 H 0.55128 0.39615 0.96092 0.0
H237 H 0.64041 0.40242 0.97912 0.0
H238 H 0.56607 0.41085 0.90383 0.0
H239 H 0.65532 0.41754 0.92229 0.0
H240 H 0.65276 0.40696 0.80901 0.0
H241 H 0.64162 0.39539 0.86706 0.0
H242 H 0.60292 0.4565 0.87112 0.0
H243 H 0.61375 0.46786 0.81278 0.0
C244 C 0.57393 0.40044 0.95273 0.0
C245 C 0.59455 0.39788 0.9746 0.0
C246 C 0.58256 0.40923 0.92008 0.0
C247 C 0.61198 0.41559 0.9085 0.0
C248 C 0.6324 0.41258 0.93028 0.0
C249 C 0.62381 0.40388 0.96291 0.0
C250 C 0.64231 0.41834 0.82235 0.0
C251 C 0.63404 0.43825 0.80614 0.0
C252 C 0.63596 0.41172 0.8557 0.0
C253 C 0.62103 0.42472 0.87369 0.0
C254 C 0.61394 0.44566 0.85783 0.0
C255 C 0.62048 0.45245 0.82446 0.0
H256 H 0.11134 0.53419 0.28332 0.0
H257 H 0.1739 0.49907 0.26292 0.0
H258 H 0.10495 0.5389 0.22475 0.0
H259 H 0.16735 0.50378 0.20417 0.0
H260 H 0.12216 0.48758 0.10198 0.0
H261 H 0.12655 0.48108 0.16048 0.0
H262 H 0.13846 0.57232 0.17832 0.0
H263 H 0.13405 0.57896 0.11935 0.0
C264 C 0.12345 0.52708 0.26639 0.0
C265 C 0.14317 0.51621 0.27795 0.0
C266 C 0.12 0.53012 0.23278 0.0
C267 C 0.13586 0.52203 0.20981 0.0
C268 C 0.15471 0.51012 0.22126 0.0
C269 C 0.15844 0.50738 0.25494 0.0
C270 C 0.12566 0.50633 0.11828 0.0
C271 C 0.12772 0.53384 0.1059 0.0
C272 C 0.12836 0.50261 0.15185 0.0
C273 C 0.13289 0.52615 0.17406 0.0
C274 C 0.13471 0.55362 0.16182 0.0
C275 C 0.13233 0.55751 0.12806 0.0
H276 H 0.79721 0.33718 0.37699 0.0
H277 H 0.74399 0.31835 0.46632 0.0
H278 H 0.76589 0.28252 0.36129 0.0
H279 H 0.71212 0.26397 0.45025 0.0
H280 H 0.66159 0.22057 0.32398 0.0
H281 H 0.71254 0.26125 0.34228 0.0
H282 H 0.70077 0.21185 0.43329 0.0
H283 H 0.64932 0.17106 0.41491 0.0
C284 C 0.77936 0.32115 0.3937 0.0
C285 C 0.77235 0.33208 0.4224 0.0
C286 C 0.76147 0.28987 0.3847 0.0
C287 C 0.73604 0.26912 0.40407 0.0
C288 C 0.73158 0.27931 0.43475 0.0
C289 C 0.74972 0.31058 0.44392 0.0
C290 C 0.67034 0.21782 0.34738 0.0
C291 C 0.65126 0.19309 0.3683 0.0
C292 C 0.69972 0.24105 0.35786 0.0
C293 C 0.71048 0.24003 0.38955 0.0
C294 C 0.69287 0.21343 0.40895 0.0
C295 C 0.66348 0.19001 0.39832 0.0
H296 H 0.41861 0.75929 0.76348 0.0
H297 H 0.45519 0.82752 0.68583 0.0
H298 H 0.43972 0.72998 0.73677 0.0
H299 H 0.47576 0.79769 0.65847 0.0
H300 H 0.46823 0.67411 0.68632 0.0
H301 H 0.4834 0.72434 0.7114 0.0
H302 H 0.43765 0.74472 0.63289 0.0
H303 H 0.42244 0.69452 0.60773 0.0
C304 C 0.43245 0.76872 0.74147 0.0
C305 C 0.43505 0.79538 0.72654 0.0
C306 C 0.44465 0.75202 0.72614 0.0
C307 C 0.45906 0.7614 0.69529 0.0
C308 C 0.46467 0.78995 0.68217 0.0
C309 C 0.45303 0.80706 0.69793 0.0
C310 C 0.46237 0.68979 0.67375 0.0
C311 C 0.4432 0.67999 0.64567 0.0
C312 C 0.47121 0.71859 0.68809 0.0
C313 C 0.46111 0.73805 0.6745 0.0
C314 C 0.44579 0.73017 0.64393 0.0
C315 C 0.43688 0.70128 0.62957 0.0
H316 H 0.64395 0.47968 1.00296 0.0
H317 H 0.66588 0.46492 0.10157 0.0
H318 H 0.69342 0.4859 0.98385 0.0
H319 H 0.71539 0.47141 0.08251 0.0
H320 H 0.79897 0.47506 0.04442 0.0
H321 H 0.7678 0.50012 0.05372 0.0
H322 H 0.70035 0.43874 0.98228 0.0
H323 H 0.73115 0.41356 0.97332 0.0
C324 C 0.65996 0.47927 1.02086 0.0
C325 C 0.65085 0.47122 0.0537 0.0
C326 C 0.68824 0.48271 1.00983 0.0
C327 C 0.70799 0.47867 1.03158 0.0
C328 C 0.70071 0.47479 0.06517 0.0
C329 C 0.67226 0.4709 0.07611 0.0
C330 C 0.77806 0.46772 1.02986 0.0
C331 C 0.76706 0.44197 1.00863 0.0
C332 C 0.76024 0.48204 1.03524 0.0
C333 C 0.73152 0.47115 1.01903 0.0
C334 C 0.72245 0.44778 0.99505 0.0
C335 C 0.73996 0.43316 0.99008 0.0
H336 H 0.35231 0.76591 0.25836 0.0
H337 H 0.3411 0.78495 0.35926 0.0
H338 H 0.29829 0.72327 0.25743 0.0
H339 H 0.28807 0.74184 0.35886 0.0
H340 H 0.19897 0.65559 0.36138 0.0
H341 H 0.2352 0.70892 0.34384 0.0
H342 H 0.28335 0.6748 0.2831 0.0
H343 H 0.24678 0.622 0.29956 0.0
C344 C 0.33808 0.76164 0.28 0.0
C345 C 0.35125 0.77785 0.3093 0.0
C346 C 0.30718 0.7371 0.27954 0.0
C347 C 0.28928 0.72833 0.30844 0.0
C348 C 0.30113 0.74764 0.33618 0.0
C349 C 0.33181 0.77229 0.33653 0.0
C350 C 0.21703 0.65957 0.34385 0.0
C351 C 0.22058 0.63476 0.33248 0.0
C352 C 0.23768 0.69007 0.33371 0.0
C353 C 0.2624 0.69626 0.31229 0.0
C354 C 0.26441 0.67106 0.29923 0.0
C355 C 0.24369 0.64067 0.30913 0.0
H356 H 0.55961 0.32792 0.64792 0.0
H357 H 0.5403 0.35178 0.74341 0.0
H358 H 0.54186 0.275 0.66676 0.0
H359 H 0.52114 0.29853 0.76198 0.0
H360 H 0.51152 0.18177 0.70362 0.0
H361 H 0.50416 0.22494 0.68704 0.0
H362 H 0.55032 0.27425 0.77595 0.0
H363 H 0.5566 0.2308 0.79287 0.0
C364 C 0.55048 0.32147 0.67256 0.0
C365 C 0.55189 0.34393 0.69444 0.0
C366 C 0.54011 0.29108 0.6834 0.0
C367 C 0.53058 0.28265 0.71615 0.0
C368 C 0.52907 0.30447 0.7369 0.0
C369 C 0.53993 0.3349 0.72624 0.0
C370 C 0.51924 0.2015 0.72002 0.0
C371 C 0.53525 0.20328 0.74921 0.0
C372 C 0.51517 0.22627 0.71044 0.0
C373 C 0.52726 0.25335 0.72975 0.0
C374 C 0.54052 0.25373 0.76047 0.0
C375 C 0.5443 0.22882 0.77019 0.0
H376 H 0.21287 0.55623 0.91948 0.0
H377 H 0.18595 0.51222 1.01456 0.0
H378 H 0.26676 0.56996 0.93032 0.0
H379 H 0.2398 0.52675 1.02572 0.0
H380 H 0.35249 0.64164 0.99033 0.0
H381 H 0.29995 0.61144 0.96853 0.0
H382 H 0.28945 0.52882 1.01624 0.0
H383 H 0.3423 0.55938 0.03868 0.0
C384 C 0.21818 0.54849 0.94218 0.0
C385 C 0.19542 0.53414 0.96665 0.0
C386 C 0.24912 0.55662 0.94852 0.0
C387 C 0.25765 0.55047 0.97935 0.0
C388 C 0.23407 0.53211 1.00185 0.0
C389 C 0.20315 0.52388 0.99547 0.0
C390 C 0.33904 0.61705 0.99626 0.0
C391 C 0.35141 0.603 1.01656 0.0
C392 C 0.30906 0.59958 0.98327 0.0
C393 C 0.2907 0.56759 0.99023 0.0
C394 C 0.30309 0.55341 1.01042 0.0
C395 C 0.33322 0.57096 1.02343 0.0
H396 H 0.5463 0.07004 0.3981 0.0
H397 H 0.49112 0.06519 0.31378 0.0
H398 H 0.53487 0.01718 0.38796 0.0
H399 H 0.47757 0.01107 0.30471 0.0
H400 H 0.47816 0.92199 0.28078 0.0
H401 H 0.49456 0.97707 0.28769 0.0
H402 H 0.49585 0.96641 0.39291 0.0
H403 H 0.48167 0.91244 0.38568 0.0
C404 C 0.53117 0.05734 0.37769 0.0
C405 C 0.51929 0.0715 0.3569 0.0
C406 C 0.52446 0.0269 0.37191 0.0
C407 C 0.50495 0.00949 0.3457 0.0
C408 C 0.49305 0.0238 0.32484 0.0
C409 C 0.50049 0.05467 0.33018 0.0
C410 C 0.48247 0.93173 0.30528 0.0
C411 C 0.47892 0.91306 0.33265 0.0
C412 C 0.49153 0.96319 0.30932 0.0
C413 C 0.49654 0.97639 0.34089 0.0
C414 C 0.49303 0.9575 0.36816 0.0
C415 C 0.48472 0.92638 0.36405 0.0
H416 H 0.41531 0.4881 0.70002 0.0
H417 H 0.45879 0.55257 0.61978 0.0
H418 H 0.45711 0.47582 0.69903 0.0
H419 H 0.5004 0.53969 0.61832 0.0
H420 H 0.58871 0.54109 0.66128 0.0
H421 H 0.54465 0.5498 0.65337 0.0
H422 H 0.4804 0.45147 0.66791 0.0
H423 H 0.52418 0.44292 0.67661 0.0
C424 C 0.43347 0.49922 0.68174 0.0
C425 C 0.43384 0.52148 0.66016 0.0
C426 C 0.45741 0.49208 0.68107 0.0
C427 C 0.48222 0.50694 0.65871 0.0
C428 C 0.48188 0.52822 0.63617 0.0
C429 C 0.45791 0.5354 0.63686 0.0
C430 C 0.56518 0.52134 0.66251 0.0
C431 C 0.55994 0.49143 0.67001 0.0
C432 C 0.53993 0.52627 0.65777 0.0
C433 C 0.50901 0.50134 0.66029 0.0
C434 C 0.5039 0.47125 0.66644 0.0
C435 C 0.52904 0.46637 0.67133 0.0
H436 H 0.87122 0.43432 0.93811 0.0
H437 H 0.87649 0.37927 1.01747 0.0
H438 H 0.92793 0.46054 0.93195 0.0
H439 H 0.93306 0.40562 1.01142 0.0
H440 H 0.03234 0.44295 0.97779 0.0
H441 H 0.97546 0.4128 0.97342 0.0
H442 H 0.97234 0.49823 0.96676 0.0
H443 H 0.02912 0.52839 0.97084 0.0
C444 C 0.88442 0.42759 0.95401 0.0
C445 C 0.86941 0.40489 0.97843 0.0
C446 C 0.91688 0.44269 0.95055 0.0
C447 C 0.9349 0.43518 0.97126 0.0
C448 C 0.91976 0.41167 0.99487 0.0
C449 C 0.88736 0.39674 0.99848 0.0
C450 C 0.01956 0.4553 0.97494 0.0
C451 C 0.0352 0.48806 0.97497 0.0
C452 C -0.013 0.43802 0.97259 0.0
C453 C 0.96949 0.45317 0.96996 0.0
C454 C 0.98523 0.48589 0.96848 0.0
C455 C 0.01775 0.50317 0.97104 0.0
H456 H 0.03486 0.46648 0.42887 0.0
H457 H 0.07529 0.56584 0.41494 0.0
H458 H 0.98309 0.46086 0.4323 0.0
H459 H 0.02347 0.56016 0.41866 0.0
H460 H 0.9247 0.52324 0.36996 0.0
H461 H 0.97847 0.53621 0.38027 0.0
H462 H 0.94806 0.47378 0.46329 0.0
H463 H 0.89422 0.46054 0.45289 0.0
C464 C 0.0328 0.4872 0.42722 0.0
C465 C 0.05914 0.51651 0.42118 0.0
C466 C 0.00314 0.48401 0.42936 0.0
C467 C -0.00078 0.51006 0.42542 0.0
C468 C 0.02576 0.53963 0.42132 0.0
C469 C 0.05544 0.54285 0.41934 0.0
C470 C 0.92953 0.5127 0.39076 0.0
C471 C 0.90513 0.49054 0.41029 0.0
C472 C 0.96037 0.52026 0.39679 0.0
C473 C 0.96741 0.50577 0.42242 0.0
C474 C 0.94325 0.48497 0.44309 0.0
C475 C 0.91244 0.4775 0.43716 0.0
H476 H 0.53103 0.03971 0.75937 0.0
H477 H 0.45337 0.0547 0.74096 0.0
H478 H 0.49452 0.98416 0.7673 0.0
H479 H 0.41699 -0.00072 0.74913 0.0
H480 H 0.37089 0.89452 0.71919 0.0
H481 H 0.4042 0.95106 0.71813 0.0
H482 H 0.45223 0.94702 0.80494 0.0
H483 H 0.41902 0.89036 0.80598 0.0
C484 C 0.5062 0.03121 0.75725 0.0
C485 C 0.49511 0.05158 0.74933 0.0
C486 C 0.48529 -0.00055 0.76203 0.0
C487 C 0.45292 0.98741 0.75878 0.0
C488 C 0.44183 0.00787 0.75147 0.0
C489 C 0.4627 0.03963 0.74691 0.0
C490 C 0.38825 0.9057 0.73833 0.0
C491 C 0.39242 0.88794 0.76256 0.0
C492 C 0.40725 0.9381 0.73778 0.0
C493 C 0.43094 0.9534 0.76133 0.0
C494 C 0.43439 0.93578 0.78625 0.0
C495 C 0.41521 0.90337 0.78696 0.0
H496 H 0.50563 0.59 0.07432 0.0
H497 H 0.41081 0.51269 0.07863 0.0
H498 H 0.52516 0.55488 0.0876 0.0
H499 H 0.43045 0.47761 0.09228 0.0
H500 H 0.48347 0.42407 0.06748 0.0
H501 H 0.45979 0.45679 0.06262 0.0
H502 H 0.52655 0.5218 0.13231 0.0
H503 H 0.55054 0.48929 0.13696 0.0
C504 C 0.48894 0.56556 0.07834 0.0
C505 C 0.45668 0.5541 0.07521 0.0
C506 C 0.50013 0.54549 0.08622 0.0
C507 C 0.47932 0.5135 0.09101 0.0
C508 C 0.44703 0.50211 0.08845 0.0
C509 C 0.43581 0.52223 0.08074 0.0
C510 C 0.49285 0.44512 0.08212 0.0
C511 C 0.51909 0.45425 0.10235 0.0
C512 C 0.47917 0.46378 0.07945 0.0
C513 C 0.4915 0.49199 0.09687 0.0
C514 C 0.51685 0.50041 0.11822 0.0
C515 C 0.53046 0.48168 0.12101 0.0
H516 H 0.56957 0.20037 0.22217 0.0
H517 H 0.5328 0.24008 0.29103 0.0
H518 H 0.57143 0.23595 0.18003 0.0
H519 H 0.53491 0.27607 0.24855 0.0
H520 H 0.51936 0.31756 0.15274 0.0
H521 H 0.51232 0.27865 0.19403 0.0
H522 H 0.60362 0.29249 0.17097 0.0
H523 H 0.6106 0.33099 0.12983 0.0
C524 C 0.5617 0.21658 0.22834 0.0
C525 C 0.55124 0.21748 0.26013 0.0
C526 C 0.56293 0.23711 0.20414 0.0
C527 C 0.55363 0.25907 0.211 0.0
C528 C 0.54211 0.25932 0.24245 0.0
C529 C 0.54101 0.23879 0.26682 0.0
C530 C 0.53783 0.31213 0.15637 0.0
C531 C 0.56552 0.32737 0.1379 0.0
C532 C 0.53387 0.29001 0.18018 0.0
C533 C 0.55736 0.28241 0.18573 0.0
C534 C 0.58488 0.29747 0.16703 0.0
C535 C 0.58894 0.3197 0.14351 0.0
H536 H 0.21686 0.517 0.43794 0.0
H537 H 0.20481 0.58005 0.50126 0.0
H538 H 0.25347 0.5157 0.47756 0.0
H539 H 0.24169 0.57941 0.54013 0.0
H540 H 0.29185 0.55563 0.61729 0.0
H541 H 0.25051 0.54915 0.57967 0.0
H542 H 0.30562 0.54905 0.49768 0.0
H543 H 0.34642 0.55466 0.53524 0.0
C544 C 0.2219 0.53047 0.46031 0.0
C545 C 0.20791 0.54868 0.46629 0.0
C546 C 0.24305 0.5299 0.48297 0.0
C547 C 0.25068 0.54751 0.51215 0.0
C548 C 0.23613 0.56517 0.51829 0.0
C549 C 0.21506 0.56571 0.49575 0.0
C550 C 0.29502 0.55396 0.59127 0.0
C551 C 0.32258 0.55583 0.57936 0.0
C552 C 0.27137 0.55041 0.56961 0.0
C553 C 0.27469 0.54873 0.53549 0.0
C554 C 0.30196 0.54984 0.52373 0.0
C555 C 0.32553 0.55331 0.54536 0.0
H556 H 0.77141 0.2868 0.91464 0.0
H557 H 0.69064 0.27171 0.9701 0.0
H558 H 0.73734 0.24943 0.87364 0.0
H559 H 0.65648 0.23459 0.92869 0.0
H560 H 0.60404 0.15032 0.86162 0.0
H561 H 0.63943 0.18351 0.90459 0.0
H562 H 0.70162 0.24677 0.83106 0.0
H563 H 0.66646 0.21332 0.78803 0.0
C564 C 0.74637 0.27539 0.91823 0.0
C565 C 0.73379 0.28239 0.94568 0.0
C566 C 0.72681 0.25408 0.89453 0.0
C567 C 0.69414 0.23915 0.89766 0.0
C568 C 0.68154 0.24545 0.92561 0.0
C569 C 0.70113 0.26683 0.94933 0.0
C570 C 0.6254 0.17117 0.85456 0.0
C571 C 0.63236 0.17915 0.82131 0.0
C572 C 0.64559 0.19032 0.87926 0.0
C573 C 0.67333 0.21792 0.87136 0.0
C574 C 0.68064 0.22552 0.83807 0.0
C575 C 0.6604 0.20639 0.81335 0.0
H576 H 0.46621 0.72251 0.10446 0.0
H577 H 0.4742 0.65908 0.17109 0.0
H578 H 0.47073 0.75595 0.1507 0.0
H579 H 0.47944 0.69267 0.21697 0.0
H580 H 0.44701 0.73803 0.29381 0.0
H581 H 0.44734 0.7068 0.24785 0.0
H582 H 0.50489 0.79084 0.19261 0.0
H583 H 0.50397 0.82204 0.23833 0.0
C584 C 0.46938 0.71593 0.12887 0.0
C585 C 0.46962 0.68799 0.13402 0.0
C586 C 0.47208 0.73515 0.15542 0.0
C587 C 0.47518 0.72693 0.18773 0.0
C588 C 0.47643 0.69948 0.19261 0.0
C589 C 0.47363 0.68028 0.16618 0.0
C590 C 0.46001 0.74988 0.27201 0.0
C591 C 0.47542 0.78258 0.26984 0.0
C592 C 0.46029 0.73195 0.24561 0.0
C593 C 0.47608 0.74623 0.21634 0.0
C594 C 0.49209 0.77898 0.2145 0.0
C595 C 0.49177 0.79691 0.24089 0.0
H596 H 0.66774 0.3948 0.62797 0.0
H597 H 0.68692 0.48974 0.61932 0.0
H598 H 0.69723 0.40109 0.5781 0.0
H599 H 0.71646 0.49593 0.56906 0.0
H600 H 0.79603 0.50151 0.50206 0.0
H601 H 0.76551 0.49791 0.55053 0.0
H602 H 0.69215 0.40737 0.51866 0.0
H603 H 0.72268 0.41082 0.47031 0.0
C604 C 0.67833 0.41708 0.61551 0.0
C605 C 0.67491 0.44176 0.62771 0.0
C606 C 0.69503 0.42058 0.58671 0.0
C607 C 0.70895 0.44891 0.56941 0.0
C608 C 0.7061 0.47384 0.58189 0.0
C609 C 0.68914 0.47027 0.61065 0.0
C610 C 0.77324 0.48096 0.50519 0.0
C611 C 0.7619 0.45638 0.48234 0.0
C612 C 0.75571 0.47897 0.53294 0.0
C613 C 0.72653 0.45223 0.53863 0.0
C614 C 0.71477 0.42809 0.51525 0.0
C615 C 0.73217 0.43017 0.48739 0.0
H616 H 0.20486 0.65887 0.96157 0.0
H617 H 0.14362 0.60961 0.88034 0.0
H618 H 0.24284 0.6969 0.92349 0.0
H619 H 0.18186 0.64683 0.8423 0.0
H620 H 0.24862 0.73109 0.7815 0.0
H621 H 0.20828 0.69845 0.82105 0.0
H622 H 0.27904 0.69914 0.88406 0.0
H623 H 0.31913 0.73235 0.84526 0.0
C624 C 0.19938 0.65626 0.93563 0.0
C625 C 0.1712 0.63106 0.92409 0.0
C626 C 0.22129 0.67793 0.9137 0.0
C627 C 0.21569 0.67486 0.87963 0.0
C628 C 0.18698 0.65027 0.86828 0.0
C629 C 0.16503 0.62874 0.8902 0.0
C630 C 0.25551 0.72433 0.80386 0.0
C631 C 0.28714 0.73436 0.81012 0.0
C632 C 0.23236 0.7055 0.82654 0.0
C633 C 0.24027 0.69612 0.85596 0.0
C634 C 0.27197 0.70631 0.86211 0.0
C635 C 0.29503 0.7252 0.8396 0.0
loop_
_geom_bond_atom_site_label_1
_geom_bond_atom_site_label_2
_geom_bond_distance
_geom_bond_site_symmetry_2
_ccdc_geom_bond_type
Mg0 O7 2.141 . S
Mg0 O8 2.048 . S
Mg0 O9 2.048 . S
Mg0 O12 2.141 . S
C1 O2 1.313 . S
C1 O8 1.195 . S
O2 C1 1.313 . S
C3 O4 1.245 . S
C3 O12 1.289 . S
O4 C3 1.245 . S
C5 O6 1.245 . S
C5 O7 1.289 . S
O6 C5 1.245 . S
O7 Mg0 2.141 . S
O7 C5 1.289 . S
O8 Mg0 2.048 . S
O8 C1 1.195 . S
O9 Mg0 2.048 . S
O9 C10 1.195 . S
C10 O9 1.195 . S
C10 O11 1.313 . S
O11 C10 1.313 . S
O12 Mg0 2.141 . S
O12 C3 1.289 . S
Mg13 O20 2.141 . S
Mg13 O21 2.048 . S
Mg13 O22 2.048 . S
Mg13 O25 2.141 . S
C14 O15 1.313 . S
C14 O21 1.195 . S
O15 C14 1.313 . S
C16 O17 1.245 . S
C16 O25 1.289 . S
O17 C16 1.245 . S
C18 O19 1.245 . S
C18 O20 1.289 . S
O19 C18 1.245 . S
O20 Mg13 2.141 . S
O20 C18 1.289 . S
O21 Mg13 2.048 . S
O21 C14 1.195 . S
O22 Mg13 2.048 . S
O22 C23 1.195 . S
C23 O22 1.195 . S
C23 O24 1.313 . S
O24 C23 1.313 . S
O25 Mg13 2.141 . S
O25 C16 1.289 . S
Mg26 O33 2.141 1_554 S
Mg26 O34 2.048 . S
Mg26 O35 2.048 . S
Mg26 O38 2.141 1_554 S
C27 O28 1.314 . S
C27 O34 1.195 . S
O28 C27 1.314 . S
C29 O30 1.245 . S
C29 O38 1.289 . S
O30 C29 1.245 . S
C31 O32 1.245 . S
C31 O33 1.289 . S
O32 C31 1.245 . S
O33 Mg26 2.141 1_556 S
O33 C31 1.289 . S
O34 Mg26 2.048 . S
O34 C27 1.195 . S
O35 Mg26 2.048 . S
O35 C36 1.195 . S
C36 O35 1.195 . S
C36 O37 1.313 . S
O37 C36 1.313 . S
O38 Mg26 2.141 1_556 S
O38 C29 1.289 . S
Mg39 O46 2.141 . S
Mg39 O47 2.048 . S
Mg39 O48 2.048 . S
Mg39 O51 2.141 . S
C40 O41 1.313 . S
C40 O47 1.195 . S
O41 C40 1.313 . S
C42 O43 1.245 . S
C42 O51 1.289 . S
O43 C42 1.245 . S
C44 O45 1.245 . S
C44 O46 1.289 . S
O45 C44 1.245 . S
O46 Mg39 2.141 . S
O46 C44 1.289 . S
O47 Mg39 2.048 . S
O47 C40 1.195 . S
O48 Mg39 2.048 . S
O48 C49 1.195 . S
C49 O48 1.195 . S
C49 O50 1.313 . S
O50 C49 1.313 . S
O51 Mg39 2.141 . S
O51 C42 1.289 . S
Mg52 O59 2.141 . S
Mg52 O60 2.048 . S
Mg52 O61 2.048 . S
Mg52 O64 2.141 . S
C53 O54 1.313 . S
C53 O60 1.195 . S
O54 C53 1.313 . S
C55 O56 1.245 . S
C55 O64 1.289 . S
O56 C55 1.245 . S
C57 O58 1.245 . S
C57 O59 1.289 . S
O58 C57 1.245 . S
O59 Mg52 2.141 . S
O59 C57 1.289 . S
O60 Mg52 2.048 . S
O60 C53 1.195 . S
O61 Mg52 2.048 . S
O61 C62 1.195 . S
C62 O61 1.195 . S
C62 O63 1.313 . S
O63 C62 1.313 . S
O64 Mg52 2.141 . S
O64 C55 1.289 . S
Mg65 O72 2.141 1_554 S
Mg65 O73 2.048 . S
Mg65 O74 2.048 . S
Mg65 O77 2.141 1_554 S
C66 O67 1.314 . S
C66 O73 1.195 . S
O67 C66 1.314 . S
C68 O69 1.245 . S
C68 O77 1.289 . S
O69 C68 1.245 . S
C70 O71 1.245 . S
C70 O72 1.289 . S
O71 C70 1.245 . S
O72 Mg65 2.141 1_556 S
O72 C70 1.289 . S
O73 Mg65 2.048 . S
O73 C66 1.195 . S
O74 Mg65 2.048 . S
O74 C75 1.195 . S
C75 O74 1.195 . S
C75 O76 1.313 . S
O76 C75 1.313 . S
O77 Mg65 2.141 1_556 S
O77 C68 1.289 . S
Mg78 O85 2.141 . S
Mg78 O86 2.048 . S
Mg78 O87 2.048 . S
Mg78 O90 2.141 . S
C79 O80 1.313 . S
C79 O86 1.195 . S
O80 C79 1.313 . S
C81 O82 1.245 . S
C81 O90 1.289 . S
O82 C81 1.245 . S
C83 O84 1.245 . S
C83 O85 1.289 . S
O84 C83 1.245 . S
O85 Mg78 2.141 . S
O85 C83 1.289 . S
O86 Mg78 2.048 . S
O86 C79 1.195 . S
O87 Mg78 2.048 . S
O87 C88 1.195 . S
C88 O87 1.195 . S
C88 O89 1.313 . S
O89 C88 1.313 . S
O90 Mg78 2.141 . S
O90 C81 1.289 . S
Mg91 O98 2.141 . S
Mg91 O99 2.048 . S
Mg91 O100 2.048 . S
Mg91 O103 2.141 . S
C92 O93 1.313 . S
C92 O99 1.195 . S
O93 C92 1.313 . S
C94 O95 1.245 . S
C94 O103 1.289 . S
O95 C94 1.245 . S
C96 O97 1.245 . S
C96 O98 1.289 . S
O97 C96 1.245 . S
O98 Mg91 2.141 . S
O98 C96 1.289 . S
O99 Mg91 2.048 . S
O99 C92 1.195 . S
O100 Mg91 2.048 . S
O100 C101 1.195 . S
C101 O100 1.195 . S
C101 O102 1.313 . S
O102 C101 1.313 . S
O103 Mg91 2.141 . S
O103 C94 1.289 . S
Mg104 O111 2.141 1_556 S
Mg104 O112 2.048 . S
Mg104 O113 2.048 . S
Mg104 O116 2.140 1_556 S
C105 O106 1.313 . S
C105 O112 1.195 . S
O106 C105 1.313 . S
C107 O108 1.245 . S
C107 O116 1.294 . S
O108 C107 1.245 . S
C109 O110 1.245 . S
C109 O111 1.289 . S
O110 C109 1.245 . S
O111 Mg104 2.141 1_554 S
O111 C109 1.289 . S
O112 Mg104 2.048 . S
O112 C105 1.195 . S
O113 Mg104 2.048 . S
O113 C114 1.195 . S
C114 O113 1.195 . S
C114 O115 1.313 . S
O115 C114 1.313 . S
O116 Mg104 2.140 1_554 S
O116 C107 1.294 . S
Mg117 O124 2.141 . S
Mg117 O125 2.048 . S
Mg117 O126 2.048 . S
Mg117 O129 2.141 . S
C118 O119 1.313 . S
C118 O125 1.195 . S
O119 C118 1.313 . S
C120 O121 1.245 . S
C120 O129 1.289 . S
O121 C120 1.245 . S
C122 O123 1.245 . S
C122 O124 1.289 . S
O123 C122 1.245 . S
O124 Mg117 2.141 . S
O124 C122 1.289 . S
O125 Mg117 2.048 . S
O125 C118 1.195 . S
O126 Mg117 2.048 . S
O126 C127 1.195 . S
C127 O126 1.195 . S
C127 O128 1.313 . S
O128 C127 1.313 . S
O129 Mg117 2.141 . S
O129 C120 1.289 . S
Mg130 O137 2.141 . S
Mg130 O138 2.048 . S
Mg130 O139 2.048 . S
Mg130 O142 2.141 . S
C131 O132 1.313 . S
C131 O138 1.195 . S
O132 C131 1.313 . S
C133 O134 1.245 . S
C133 O142 1.289 . S
O134 C133 1.245 . S
C135 O136 1.245 . S
C135 O137 1.289 . S
O136 C135 1.245 . S
O137 Mg130 2.141 . S
O137 C135 1.289 . S
O138 Mg130 2.048 . S
O138 C131 1.195 . S
O139 Mg130 2.048 . S
O139 C140 1.195 . S
C140 O139 1.195 . S
C140 O141 1.313 . S
O141 C140 1.313 . S
O142 Mg130 2.141 . S
O142 C133 1.289 . S
Mg143 O150 2.141 1_556 S
Mg143 O151 2.048 . S
Mg143 O152 2.048 . S
Mg143 O155 2.140 1_556 S
C144 O145 1.313 . S
C144 O151 1.195 . S
O145 C144 1.313 . S
C146 O147 1.245 . S
C146 O155 1.294 . S
O147 C146 1.245 . S
C148 O149 1.245 . S
C148 O150 1.289 . S
O149 C148 1.245 . S
O150 Mg143 2.141 1_554 S
O150 C148 1.289 . S
O151 Mg143 2.048 . S
O151 C144 1.195 . S
O152 Mg143 2.048 . S
O152 C153 1.195 . S
C153 O152 1.195 . S
C153 O154 1.313 . S
O154 C153 1.313 . S
O155 Mg143 2.140 1_554 S
O155 C146 1.294 . S
H156 C164 0.950 . S
H157 C169 0.950 . S
H158 C166 0.950 . S
H159 C168 0.950 . S
H160 C170 0.950 . S
H161 C172 0.950 . S
H162 C174 0.950 . S
H163 C175 0.950 . S
C164 H156 0.950 . S
C164 C165 1.386 . S
C164 C166 1.391 . S
C165 C164 1.386 . S
C165 C169 1.393 . S
C166 H158 0.950 . S
C166 C164 1.391 . S
C166 C167 1.400 . S
C167 C166 1.400 . S
C167 C168 1.398 . S
C167 C173 1.491 . S
C168 H159 0.950 . S
C168 C167 1.398 . S
C168 C169 1.391 . S
C169 H157 0.950 . S
C169 C165 1.393 . S
C169 C168 1.391 . S
C170 H160 0.950 . S
C170 C171 1.386 . S
C170 C172 1.391 . S
C171 C170 1.386 . S
C171 C175 1.393 . S
C172 H161 0.950 . S
C172 C170 1.391 . S
C172 C173 1.400 . S
C173 C167 1.491 . S
C173 C172 1.400 . S
C173 C174 1.398 . S
C174 H162 0.950 . S
C174 C173 1.398 . S
C174 C175 1.391 . S
C175 H163 0.950 . S
C175 C171 1.393 . S
C175 C174 1.391 . S
H176 C184 0.950 . S
H177 C189 0.950 . S
H178 C186 0.950 . S
H179 C188 0.950 . S
H180 C190 0.950 . S
H181 C192 0.950 . S
H182 C194 0.950 . S
H183 C195 0.950 . S
C184 H176 0.950 . S
C184 C185 1.386 . S
C184 C186 1.391 . S
C185 C184 1.386 . S
C185 C189 1.393 . S
C186 H178 0.950 . S
C186 C184 1.391 . S
C186 C187 1.400 . S
C187 C186 1.400 . S
C187 C188 1.398 . S
C187 C193 1.491 . S
C188 H179 0.950 . S
C188 C187 1.398 . S
C188 C189 1.391 . S
C189 H177 0.950 . S
C189 C185 1.393 . S
C189 C188 1.391 . S
C190 H180 0.950 . S
C190 C191 1.386 . S
C190 C192 1.391 . S
C191 C190 1.386 . S
C191 C195 1.393 . S
C192 H181 0.950 . S
C192 C190 1.391 . S
C192 C193 1.400 . S
C193 C187 1.491 . S
C193 C192 1.400 . S
C193 C194 1.398 . S
C194 H182 0.950 . S
C194 C193 1.398 . S
C194 C195 1.391 . S
C195 H183 0.950 . S
C195 C191 1.393 . S
C195 C194 1.391 . S
H196 C204 0.950 . S
H197 C209 0.950 . S
H198 C206 0.950 . S
H199 C208 0.950 . S
H200 C210 0.950 . S
H201 C212 0.950 . S
H202 C214 0.950 . S
H203 C215 0.950 . S
C204 H196 0.950 . S
C204 C205 1.386 . S
C204 C206 1.391 . S
C205 C204 1.386 . S
C205 C209 1.393 . S
C206 H198 0.950 . S
C206 C204 1.391 . S
C206 C207 1.400 . S
C207 C206 1.400 . S
C207 C208 1.398 . S
C207 C213 1.491 . S
C208 H199 0.950 . S
C208 C207 1.398 . S
C208 C209 1.391 . S
C209 H197 0.950 . S
C209 C205 1.393 . S
C209 C208 1.391 . S
C210 H200 0.950 . S
C210 C211 1.386 . S
C210 C212 1.391 . S
C211 C210 1.386 . S
C211 C215 1.393 . S
C212 H201 0.950 . S
C212 C210 1.391 . S
C212 C213 1.400 . S
C213 C207 1.491 . S
C213 C212 1.400 . S
C213 C214 1.398 . S
C214 H202 0.950 . S
C214 C213 1.398 . S
C214 C215 1.391 . S
C215 H203 0.950 . S
C215 C211 1.393 . S
C215 C214 1.391 . S
H216 C224 0.950 . S
H217 C229 0.950 . S
H218 C226 0.950 . S
H219 C228 0.950 . S
H220 C230 0.950 . S
H221 C232 0.950 . S
H222 C234 0.950 . S
H223 C235 0.950 . S
C224 H216 0.950 . S
C224 C225 1.386 . S
C224 C226 1.391 . S
C225 C224 1.386 . S
C225 C229 1.393 . S
C226 H218 0.950 . S
C226 C224 1.391 . S
C226 C227 1.400 . S
C227 C226 1.400 . S
C227 C228 1.398 . S
C227 C233 1.491 . S
C228 H219 0.950 . S
C228 C227 1.398 . S
C228 C229 1.391 . S
C229 H217 0.950 . S
C229 C225 1.393 . S
C229 C228 1.391 . S
C230 H220 0.950 . S
C230 C231 1.386 . S
C230 C232 1.391 . S
C231 C230 1.386 . S
C231 C235 1.393 . S
C232 H221 0.950 . S
C232 C230 1.391 . S
C232 C233 1.400 . S
C233 C227 1.491 . S
C233 C232 1.400 . S
C233 C234 1.398 . S
C234 H222 0.950 . S
C234 C233 1.398 . S
C234 C235 1.391 . S
C235 H223 0.950 . S
C235 C231 1.393 . S
C235 C234 1.391 . S
H236 C244 0.950 . S
H237 C249 0.950 . S
H238 C246 0.950 . S
H239 C248 0.950 . S
H240 C250 0.950 . S
H241 C252 0.950 . S
H242 C254 0.950 . S
H243 C255 0.950 . S
C244 H236 0.950 . S
C244 C245 1.386 . S
C244 C246 1.391 . S
C245 C244 1.386 . S
C245 C249 1.393 . S
C246 H238 0.950 . S
C246 C244 1.391 . S
C246 C247 1.400 . S
C247 C246 1.400 . S
C247 C248 1.398 . S
C247 C253 1.491 . S
C248 H239 0.950 . S
C248 C247 1.398 . S
C248 C249 1.391 . S
C249 H237 0.950 . S
C249 C245 1.393 . S
C249 C248 1.391 . S
C250 H240 0.950 . S
C250 C251 1.386 . S
C250 C252 1.391 . S
C251 C250 1.386 . S
C251 C255 1.393 . S
C252 H241 0.950 . S
C252 C250 1.391 . S
C252 C253 1.400 . S
C253 C247 1.491 . S
C253 C252 1.400 . S
C253 C254 1.398 . S
C254 H242 0.950 . S
C254 C253 1.398 . S
C254 C255 1.391 . S
C255 H243 0.950 . S
C255 C251 1.393 . S
C255 C254 1.391 . S
H256 C264 0.950 . S
H257 C269 0.950 . S
H258 C266 0.950 . S
H259 C268 0.950 . S
H260 C270 0.950 . S
H261 C272 0.950 . S
H262 C274 0.950 . S
H263 C275 0.950 . S
C264 H256 0.950 . S
C264 C265 1.386 . S
C264 C266 1.391 . S
C265 C264 1.386 . S
C265 C269 1.393 . S
C266 H258 0.950 . S
C266 C264 1.391 . S
C266 C267 1.400 . S
C267 C266 1.400 . S
C267 C268 1.398 . S
C267 C273 1.491 . S
C268 H259 0.950 . S
C268 C267 1.398 . S
C268 C269 1.391 . S
C269 H257 0.950 . S
C269 C265 1.393 . S
C269 C268 1.391 . S
C270 H260 0.950 . S
C270 C271 1.386 . S
C270 C272 1.391 . S
C271 C270 1.386 . S
C271 C275 1.393 . S
C272 H261 0.950 . S
C272 C270 1.391 . S
C272 C273 1.400 . S
C273 C267 1.491 . S
C273 C272 1.400 . S
C273 C274 1.398 . S
C274 H262 0.950 . S
C274 C273 1.398 . S
C274 C275 1.391 . S
C275 H263 0.950 . S
C275 C271 1.393 . S
C275 C274 1.391 . S
H276 C284 0.950 . S
H277 C289 0.950 . S
H278 C286 0.950 . S
H279 C288 0.950 . S
H280 C290 0.950 . S
H281 C292 0.950 . S
H282 C294 0.950 . S
H283 C295 0.950 . S
C284 H276 0.950 . S
C284 C285 1.386 . S
C284 C286 1.391 . S
C285 C284 1.386 . S
C285 C289 1.393 . S
C286 H278 0.950 . S
C286 C284 1.391 . S
C286 C287 1.400 . S
C287 C286 1.400 . S
C287 C288 1.398 . S
C287 C293 1.491 . S
C288 H279 0.950 . S
C288 C287 1.398 . S
C288 C289 1.391 . S
C289 H277 0.950 . S
C289 C285 1.393 . S
C289 C288 1.391 . S
C290 H280 0.950 . S
C290 C291 1.386 . S
C290 C292 1.391 . S
C291 C290 1.386 . S
C291 C295 1.393 . S
C292 H281 0.950 . S
C292 C290 1.391 . S
C292 C293 1.400 . S
C293 C287 1.491 . S
C293 C292 1.400 . S
C293 C294 1.398 . S
C294 H282 0.950 . S
C294 C293 1.398 . S
C294 C295 1.391 . S
C295 H283 0.950 . S
C295 C291 1.393 . S
C295 C294 1.391 . S
H296 C304 0.950 . S
H297 C309 0.950 . S
H298 C306 0.950 . S
H299 C308 0.950 . S
H300 C310 0.950 . S
H301 C312 0.950 . S
H302 C314 0.950 . S
H303 C315 0.950 . S
C304 H296 0.950 . S
C304 C305 1.386 . S
C304 C306 1.391 . S
C305 C304 1.386 . S
C305 C309 1.393 . S
C306 H298 0.950 . S
C306 C304 1.391 . S
C306 C307 1.400 . S
C307 C306 1.400 . S
C307 C308 1.398 . S
C307 C313 1.491 . S
C308 H299 0.950 . S
C308 C307 1.398 . S
C308 C309 1.391 . S
C309 H297 0.950 . S
C309 C305 1.393 . S
C309 C308 1.391 . S
C310 H300 0.950 . S
C310 C311 1.386 . S
C310 C312 1.391 . S
C311 C310 1.386 . S
C311 C315 1.393 . S
C312 H301 0.950 . S
C312 C310 1.391 . S
C312 C313 1.400 . S
C313 C307 1.491 . S
C313 C312 1.400 . S
C313 C314 1.398 . S
C314 H302 0.950 . S
C314 C313 1.398 . S
C314 C315 1.391 . S
C315 H303 0.950 . S
C315 C311 1.393 . S
C315 C314 1.391 . S
H316 C324 0.950 . S
H317 C329 0.950 . S
H318 C326 0.950 . S
H319 C328 0.950 . S
H320 C330 0.950 . S
H321 C332 0.950 . S
H322 C334 0.950 . S
H323 C335 0.950 . S
C324 H316 0.950 . S
C324 C325 1.386 . S
C324 C326 1.391 . S
C325 C324 1.386 . S
C325 C329 1.393 1_556 S
C326 H318 0.950 . S
C326 C324 1.391 . S
C326 C327 1.400 . S
C327 C326 1.400 . S
C327 C328 1.398 1_556 S
C327 C333 1.492 . S
C328 H319 0.950 . S
C328 C327 1.398 1_554 S
C328 C329 1.391 . S
C329 H317 0.950 . S
C329 C325 1.393 1_554 S
C329 C328 1.391 . S
C330 H320 0.950 . S
C330 C331 1.386 . S
C330 C332 1.391 . S
C331 C330 1.386 . S
C331 C335 1.393 1_554 S
C332 H321 0.950 . S
C332 C330 1.391 . S
C332 C333 1.390 1_554 S
C333 C327 1.492 . S
C333 C332 1.390 1_556 S
C333 C334 1.408 . S
C334 H322 0.950 . S
C334 C333 1.408 . S
C334 C335 1.391 . S
C335 H323 0.950 . S
C335 C331 1.393 1_556 S
C335 C334 1.391 . S
H336 C344 0.950 . S
H337 C349 0.950 . S
H338 C346 0.950 . S
H339 C348 0.950 . S
H340 C350 0.950 . S
H341 C352 0.950 . S
H342 C354 0.950 . S
H343 C355 0.950 . S
C344 H336 0.950 . S
C344 C345 1.386 . S
C344 C346 1.391 . S
C345 C344 1.386 . S
C345 C349 1.393 . S
C346 H338 0.950 . S
C346 C344 1.391 . S
C346 C347 1.400 . S
C347 C346 1.400 . S
C347 C348 1.398 . S
C347 C353 1.491 . S
C348 H339 0.950 . S
C348 C347 1.398 . S
C348 C349 1.391 . S
C349 H337 0.950 . S
C349 C345 1.393 . S
C349 C348 1.391 . S
C350 H340 0.950 . S
C350 C351 1.386 . S
C350 C352 1.391 . S
C351 C350 1.386 . S
C351 C355 1.393 . S
C352 H341 0.950 . S
C352 C350 1.391 . S
C352 C353 1.400 . S
C353 C347 1.491 . S
C353 C352 1.400 . S
C353 C354 1.398 . S
C354 H342 0.950 . S
C354 C353 1.398 . S
C354 C355 1.391 . S
C355 H343 0.950 . S
C355 C351 1.393 . S
C355 C354 1.391 . S
H356 C364 0.950 . S
H357 C369 0.950 . S
H358 C366 0.950 . S
H359 C368 0.950 . S
H360 C370 0.950 . S
H361 C372 0.950 . S
H362 C374 0.950 . S
H363 C375 0.950 . S
C364 H356 0.950 . S
C364 C365 1.386 . S
C364 C366 1.391 . S
C365 C364 1.386 . S
C365 C369 1.393 . S
C366 H358 0.950 . S
C366 C364 1.391 . S
C366 C367 1.400 . S
C367 C366 1.400 . S
C367 C368 1.398 . S
C367 C373 1.491 . S
C368 H359 0.950 . S
C368 C367 1.398 . S
C368 C369 1.391 . S
C369 H357 0.950 . S
C369 C365 1.393 . S
C369 C368 1.391 . S
C370 H360 0.950 . S
C370 C371 1.386 . S
C370 C372 1.391 . S
C371 C370 1.386 . S
C371 C375 1.393 . S
C372 H361 0.950 . S
C372 C370 1.391 . S
C372 C373 1.400 . S
C373 C367 1.491 . S
C373 C372 1.400 . S
C373 C374 1.398 . S
C374 H362 0.950 . S
C374 C373 1.398 . S
C374 C375 1.391 . S
C375 H363 0.950 . S
C375 C371 1.393 . S
C375 C374 1.391 . S
H376 C384 0.950 . S
H377 C389 0.950 . S
H378 C386 0.950 . S
H379 C388 0.950 . S
H380 C390 0.950 . S
H381 C392 0.950 . S
H382 C394 0.950 . S
H383 C395 0.950 . S
C384 H376 0.950 . S
C384 C385 1.386 1_556 S
C384 C386 1.391 . S
C385 C384 1.386 1_554 S
C385 C389 1.393 . S
C386 H378 0.950 . S
C386 C384 1.391 . S
C386 C387 1.405 . S
C387 C386 1.405 . S
C387 C388 1.393 1_556 S
C387 C393 1.492 . S
C388 H379 0.950 . S
C388 C387 1.393 1_554 S
C388 C389 1.391 . S
C389 H377 0.950 . S
C389 C385 1.393 . S
C389 C388 1.391 . S
C390 H380 0.950 . S
C390 C391 1.386 1_554 S
C390 C392 1.391 . S
C391 C390 1.386 1_556 S
C391 C395 1.393 . S
C392 H381 0.950 . S
C392 C390 1.391 . S
C392 C393 1.400 1_554 S
C393 C387 1.492 . S
C393 C392 1.400 1_556 S
C393 C394 1.398 . S
C394 H382 0.950 . S
C394 C393 1.398 . S
C394 C395 1.391 . S
C395 H383 0.950 . S
C395 C391 1.393 . S
C395 C394 1.391 . S
H396 C404 0.950 . S
H397 C409 0.950 . S
H398 C406 0.950 . S
H399 C408 0.950 1_565 S
H400 C410 0.950 . S
H401 C412 0.950 . S
H402 C414 0.950 1_545 S
H403 C415 0.950 . S
C404 H396 0.950 . S
C404 C405 1.386 . S
C404 C406 1.391 . S
C405 C404 1.386 . S
C405 C409 1.393 . S
C406 H398 0.950 . S
C406 C404 1.391 . S
C406 C407 1.400 . S
C407 C406 1.400 . S
C407 C408 1.398 . S
C407 C413 1.491 1_545 S
C408 H399 0.950 1_545 S
C408 C407 1.398 . S
C408 C409 1.391 . S
C409 H397 0.950 . S
C409 C405 1.393 . S
C409 C408 1.391 . S
C410 H400 0.950 . S
C410 C411 1.386 . S
C410 C412 1.391 . S
C411 C410 1.386 . S
C411 C415 1.393 . S
C412 H401 0.950 . S
C412 C410 1.391 . S
C412 C413 1.400 . S
C413 C407 1.491 1_565 S
C413 C412 1.400 . S
C413 C414 1.398 . S
C414 H402 0.950 1_565 S
C414 C413 1.398 . S
C414 C415 1.391 . S
C415 H403 0.950 . S
C415 C411 1.393 . S
C415 C414 1.391 . S
H416 C424 0.950 . S
H417 C429 0.950 . S
H418 C426 0.950 . S
H419 C428 0.950 . S
H420 C430 0.950 . S
H421 C432 0.950 . S
H422 C434 0.950 . S
H423 C435 0.950 . S
C424 H416 0.950 . S
C424 C425 1.386 . S
C424 C426 1.391 . S
C425 C424 1.386 . S
C425 C429 1.393 . S
C426 H418 0.950 . S
C426 C424 1.391 . S
C426 C427 1.400 . S
C427 C426 1.400 . S
C427 C428 1.398 . S
C427 C433 1.491 . S
C428 H419 0.950 . S
C428 C427 1.398 . S
C428 C429 1.391 . S
C429 H417 0.950 . S
C429 C425 1.393 . S
C429 C428 1.391 . S
C430 H420 0.950 . S
C430 C431 1.386 . S
C430 C432 1.391 . S
C431 C430 1.386 . S
C431 C435 1.393 . S
C432 H421 0.950 . S
C432 C430 1.391 . S
C432 C433 1.400 . S
C433 C427 1.491 . S
C433 C432 1.400 . S
C433 C434 1.398 . S
C434 H422 0.950 . S
C434 C433 1.398 . S
C434 C435 1.391 . S
C435 H423 0.950 . S
C435 C431 1.393 . S
C435 C434 1.391 . S
H436 C444 0.950 . S
H437 C449 0.950 . S
H438 C446 0.950 . S
H439 C448 0.950 1_455 S
H440 C450 0.950 . S
H441 C452 0.950 . S
H442 C454 0.955 1_655 S
H443 C455 0.960 . S
C444 H436 0.950 . S
C444 C445 1.386 1_554 S
C444 C446 1.391 . S
C445 C444 1.386 1_556 S
C445 C449 1.393 . S
C446 H438 0.950 . S
C446 C444 1.391 . S
C446 C447 1.400 1_554 S
C447 C446 1.400 1_556 S
C447 C448 1.398 . S
C447 C453 1.491 1_655 S
C448 H439 0.950 1_655 S
C448 C447 1.398 . S
C448 C449 1.391 . S
C449 H437 0.950 . S
C449 C445 1.393 . S
C449 C448 1.391 . S
C450 H440 0.950 . S
C450 C451 1.386 . S
C450 C452 1.391 . S
C451 C450 1.386 . S
C451 C455 1.384 1_556 S
C452 H441 0.950 . S
C452 C450 1.391 . S
C452 C453 1.400 . S
C453 C447 1.491 1_455 S
C453 C452 1.400 . S
C453 C454 1.394 1_556 S
C454 H442 0.955 1_455 S
C454 C453 1.394 1_554 S
C454 C455 1.391 . S
C455 H443 0.960 . S
C455 C451 1.384 1_554 S
C455 C454 1.391 . S
H456 C464 0.950 . S
H457 C469 0.950 . S
H458 C466 0.950 1_655 S
H459 C468 0.950 . S
H460 C470 0.950 . S
H461 C472 0.950 1_455 S
H462 C474 0.950 . S
H463 C475 0.950 . S
C464 H456 0.950 . S
C464 C465 1.386 . S
C464 C466 1.391 . S
C465 C464 1.386 . S
C465 C469 1.393 . S
C466 H458 0.950 1_455 S
C466 C464 1.391 . S
C466 C467 1.400 . S
C467 C466 1.400 . S
C467 C468 1.398 . S
C467 C473 1.491 1_455 S
C468 H459 0.950 . S
C468 C467 1.398 . S
C468 C469 1.391 . S
C469 H457 0.950 . S
C469 C465 1.393 . S
C469 C468 1.391 . S
C470 H460 0.950 . S
C470 C471 1.386 . S
C470 C472 1.391 . S
C471 C470 1.386 . S
C471 C475 1.393 . S
C472 H461 0.950 1_655 S
C472 C470 1.391 . S
C472 C473 1.400 . S
C473 C467 1.491 1_655 S
C473 C472 1.400 . S
C473 C474 1.398 . S
C474 H462 0.950 . S
C474 C473 1.398 . S
C474 C475 1.391 . S
C475 H463 0.950 . S
C475 C471 1.393 . S
C475 C474 1.391 . S
H476 C484 0.950 . S
H477 C489 0.950 . S
H478 C486 0.950 . S
H479 C488 0.950 . S
H480 C490 0.950 . S
H481 C492 0.950 . S
H482 C494 0.950 . S
H483 C495 0.950 . S
C484 H476 0.950 . S
C484 C485 1.386 . S
C484 C486 1.391 . S
C485 C484 1.386 . S
C485 C489 1.393 . S
C486 H478 0.950 . S
C486 C484 1.391 . S
C486 C487 1.400 . S
C487 C486 1.400 . S
C487 C488 1.398 . S
C487 C493 1.491 1_545 S
C488 H479 0.950 . S
C488 C487 1.398 . S
C488 C489 1.391 . S
C489 H477 0.950 . S
C489 C485 1.393 . S
C489 C488 1.391 . S
C490 H480 0.950 . S
C490 C491 1.386 . S
C490 C492 1.391 . S
C491 C490 1.386 . S
C491 C495 1.393 . S
C492 H481 0.950 . S
C492 C490 1.391 . S
C492 C493 1.400 . S
C493 C487 1.491 1_565 S
C493 C492 1.400 . S
C493 C494 1.398 . S
C494 H482 0.950 . S
C494 C493 1.398 . S
C494 C495 1.391 . S
C495 H483 0.950 . S
C495 C491 1.393 . S
C495 C494 1.391 . S
H496 C504 0.950 . S
H497 C509 0.950 . S
H498 C506 0.950 . S
H499 C508 0.950 . S
H500 C510 0.950 . S
H501 C512 0.950 . S
H502 C514 0.950 . S
H503 C515 0.950 . S
C504 H496 0.950 . S
C504 C505 1.386 . S
C504 C506 1.391 . S
C505 C504 1.386 . S
C505 C509 1.393 1_554 S
C506 H498 0.950 . S
C506 C504 1.391 . S
C506 C507 1.400 . S
C507 C506 1.400 . S
C507 C508 1.398 1_554 S
C507 C513 1.491 . S
C508 H499 0.950 . S
C508 C507 1.398 1_556 S
C508 C509 1.391 . S
C509 H497 0.950 . S
C509 C505 1.393 1_556 S
C509 C508 1.391 . S
C510 H500 0.950 . S
C510 C511 1.386 1_556 S
C510 C512 1.391 . S
C511 C510 1.386 1_554 S
C511 C515 1.393 . S
C512 H501 0.950 . S
C512 C510 1.391 . S
C512 C513 1.400 1_556 S
C513 C507 1.491 . S
C513 C512 1.400 1_554 S
C513 C514 1.398 . S
C514 H502 0.950 . S
C514 C513 1.398 . S
C514 C515 1.391 . S
C515 H503 0.950 . S
C515 C511 1.393 . S
C515 C514 1.391 . S
H516 C524 0.950 . S
H517 C529 0.950 . S
H518 C526 0.950 . S
H519 C528 0.950 . S
H520 C530 0.950 . S
H521 C532 0.950 . S
H522 C534 0.950 . S
H523 C535 0.950 . S
C524 H516 0.950 . S
C524 C525 1.386 . S
C524 C526 1.391 . S
C525 C524 1.386 . S
C525 C529 1.393 . S
C526 H518 0.950 . S
C526 C524 1.391 . S
C526 C527 1.400 . S
C527 C526 1.400 . S
C527 C528 1.398 . S
C527 C533 1.491 . S
C528 H519 0.950 . S
C528 C527 1.398 . S
C528 C529 1.391 . S
C529 H517 0.950 . S
C529 C525 1.393 . S
C529 C528 1.391 . S
C530 H520 0.950 . S
C530 C531 1.386 . S
C530 C532 1.391 . S
C531 C530 1.386 . S
C531 C535 1.393 . S
C532 H521 0.950 . S
C532 C530 1.391 . S
C532 C533 1.400 . S
C533 C527 1.491 . S
C533 C532 1.400 . S
C533 C534 1.398 . S
C534 H522 0.950 . S
C534 C533 1.398 . S
C534 C535 1.391 . S
C535 H523 0.950 . S
C535 C531 1.393 . S
C535 C534 1.391 . S
H536 C544 0.950 . S
H537 C549 0.950 . S
H538 C546 0.950 . S
H539 C548 0.950 . S
H540 C550 0.950 . S
H541 C552 0.950 . S
H542 C554 0.950 . S
H543 C555 0.950 . S
C544 H536 0.950 . S
C544 C545 1.386 . S
C544 C546 1.391 . S
C545 C544 1.386 . S
C545 C549 1.393 . S
C546 H538 0.950 . S
C546 C544 1.391 . S
C546 C547 1.400 . S
C547 C546 1.400 . S
C547 C548 1.398 . S
C547 C553 1.491 . S
C548 H539 0.950 . S
C548 C547 1.398 . S
C548 C549 1.391 . S
C549 H537 0.950 . S
C549 C545 1.393 . S
C549 C548 1.391 . S
C550 H540 0.950 . S
C550 C551 1.386 . S
C550 C552 1.391 . S
C551 C550 1.386 . S
C551 C555 1.393 . S
C552 H541 0.950 . S
C552 C550 1.391 . S
C552 C553 1.400 . S
C553 C547 1.491 . S
C553 C552 1.400 . S
C553 C554 1.398 . S
C554 H542 0.950 . S
C554 C553 1.398 . S
C554 C555 1.391 . S
C555 H543 0.950 . S
C555 C551 1.393 . S
C555 C554 1.391 . S
H556 C564 0.950 . S
H557 C569 0.950 . S
H558 C566 0.950 . S
H559 C568 0.950 . S
H560 C570 0.950 . S
H561 C572 0.950 . S
H562 C574 0.950 . S
H563 C575 0.950 . S
C564 H556 0.950 . S
C564 C565 1.386 . S
C564 C566 1.391 . S
C565 C564 1.386 . S
C565 C569 1.393 . S
C566 H558 0.950 . S
C566 C564 1.391 . S
C566 C567 1.400 . S
C567 C566 1.400 . S
C567 C568 1.398 . S
C567 C573 1.491 . S
C568 H559 0.950 . S
C568 C567 1.398 . S
C568 C569 1.391 . S
C569 H557 0.950 . S
C569 C565 1.393 . S
C569 C568 1.391 . S
C570 H560 0.950 . S
C570 C571 1.386 . S
C570 C572 1.391 . S
C571 C570 1.386 . S
C571 C575 1.393 . S
C572 H561 0.950 . S
C572 C570 1.391 . S
C572 C573 1.400 . S
C573 C567 1.491 . S
C573 C572 1.400 . S
C573 C574 1.398 . S
C574 H562 0.950 . S
C574 C573 1.398 . S
C574 C575 1.391 . S
C575 H563 0.950 . S
C575 C571 1.393 . S
C575 C574 1.391 . S
H576 C584 0.950 . S
H577 C589 0.950 . S
H578 C586 0.950 . S
H579 C588 0.950 . S
H580 C590 0.950 . S
H581 C592 0.950 . S
H582 C594 0.950 . S
H583 C595 0.950 . S
C584 H576 0.950 . S
C584 C585 1.386 . S
C584 C586 1.391 . S
C585 C584 1.386 . S
C585 C589 1.393 . S
C586 H578 0.950 . S
C586 C584 1.391 . S
C586 C587 1.400 . S
C587 C586 1.400 . S
C587 C588 1.398 . S
C587 C593 1.491 . S
C588 H579 0.950 . S
C588 C587 1.398 . S
C588 C589 1.391 . S
C589 H577 0.950 . S
C589 C585 1.393 . S
C589 C588 1.391 . S
C590 H580 0.950 . S
C590 C591 1.386 . S
C590 C592 1.391 . S
C591 C590 1.386 . S
C591 C595 1.393 . S
C592 H581 0.950 . S
C592 C590 1.391 . S
C592 C593 1.400 . S
C593 C587 1.491 . S
C593 C592 1.400 . S
C593 C594 1.398 . S
C594 H582 0.950 . S
C594 C593 1.398 . S
C594 C595 1.391 . S
C595 H583 0.950 . S
C595 C591 1.393 . S
C595 C594 1.391 . S
H596 C604 0.950 . S
H597 C609 0.950 . S
H598 C606 0.950 . S
H599 C608 0.950 . S
H600 C610 0.950 . S
H601 C612 0.950 . S
H602 C614 0.950 . S
H603 C615 0.950 . S
C604 H596 0.950 . S
C604 C605 1.386 . S
C604 C606 1.391 . S
C605 C604 1.386 . S
C605 C609 1.393 . S
C606 H598 0.950 . S
C606 C604 1.391 . S
C606 C607 1.400 . S
C607 C606 1.400 . S
C607 C608 1.398 . S
C607 C613 1.491 . S
C608 H599 0.950 . S
C608 C607 1.398 . S
C608 C609 1.391 . S
C609 H597 0.950 . S
C609 C605 1.393 . S
C609 C608 1.391 . S
C610 H600 0.950 . S
C610 C611 1.386 . S
C610 C612 1.391 . S
C611 C610 1.386 . S
C611 C615 1.393 . S
C612 H601 0.950 . S
C612 C610 1.391 . S
C612 C613 1.400 . S
C613 C607 1.491 . S
C613 C612 1.400 . S
C613 C614 1.398 . S
C614 H602 0.950 . S
C614 C613 1.398 . S
C614 C615 1.391 . S
C615 H603 0.950 . S
C615 C611 1.393 . S
C615 C614 1.391 . S
H616 C624 0.950 . S
H617 C629 0.950 . S
H618 C626 0.950 . S
H619 C628 0.950 . S
H620 C630 0.950 . S
H621 C632 0.950 . S
H622 C634 0.950 . S
H623 C635 0.950 . S
C624 H616 0.950 . S
C624 C625 1.386 . S
C624 C626 1.391 . S
C625 C624 1.386 . S
C625 C629 1.393 . S
C626 H618 0.950 . S
C626 C624 1.391 . S
C626 C627 1.400 . S
C627 C626 1.400 . S
C627 C628 1.398 . S
C627 C633 1.491 . S
C628 H619 0.950 . S
C628 C627 1.398 . S
C628 C629 1.391 . S
C629 H617 0.950 . S
C629 C625 1.393 . S
C629 C628 1.391 . S
C630 H620 0.950 . S
C630 C631 1.386 . S
C630 C632 1.391 . S
C631 C630 1.386 . S
C631 C635 1.393 . S
C632 H621 0.950 . S
C632 C630 1.391 . S
C632 C633 1.400 . S
C633 C627 1.491 . S
C633 C632 1.400 . S
C633 C634 1.398 . S
C634 H622 0.950 . S
C634 C633 1.398 . S
C634 C635 1.391 . S
C635 H623 0.950 . S
C635 C631 1.393 . S
C635 C634 1.391 . S
C165 C10 1.639 . S
C171 C140 1.638 . S
C185 C14 1.660 . S
C191 C153 1.650 . S
C205 C79 1.668 . S
C211 C36 1.642 . S
C225 C49 1.650 . S
C231 C101 1.653 . S
C245 C114 1.646 . S
C251 C53 1.661 . S
C265 C118 1.660 . S
C271 C75 1.651 . S
C285 C88 0.984 . S
C291 C1 0.945 . S
C305 C92 0.957 . S
C311 C23 0.986 . S
C325 C105 0.940 . S
C331 C27 0.958 . S
C345 C40 0.970 . S
C351 C127 0.979 . S
C365 C62 0.977 . S
C371 C131 0.973 . S
C385 C66 0.958 . S
C391 C144 0.940 . S
C405 C3 2.233 . S
C411 C42 2.232 . S
C425 C18 2.390 . S
C431 C57 2.388 . S
C445 C29 2.229 . S
C451 C68 2.228 . S
C465 C122 2.392 . S
C471 C83 2.389 . S
C485 C133 2.209 . S
C491 C94 2.209 . S
C505 C146 2.210 . S
C511 C107 2.211 . S
C525 C5 1.804 . S
C531 C109 1.799 . S
C545 C120 1.782 . S
C551 C16 1.782 . S
C565 C31 1.807 . S
C571 C135 1.795 . S
C585 C148 1.793 . S
C591 C44 1.798 . S
C605 C55 1.789 . S
C611 C81 1.789 . S
C625 C70 1.796 . S
C631 C96 1.807 . S
