# Generated by pormake.
# Topology cag, (4)-cn, num edge types: 1
# Building blocks:
#     Node 0, Type 0, BuildingBlock: QUQFOY_clean_sbu_1, # of connection points: 4
#     Node 1, Type 0, BuildingBlock: QUQFOY_clean_sbu_1, # of connection points: 4
#     Node 2, Type 0, BuildingBlock: QUQFOY_clean_sbu_1, # of connection points: 4
#     Node 3, Type 0, BuildingBlock: QUQFOY_clean_sbu_1, # of connection points: 4
#     Node 4, Type 0, BuildingBlock: QUQFOY_clean_sbu_1, # of connection points: 4
#     Node 5, Type 0, BuildingBlock: QUQFOY_clean_sbu_1, # of connection points: 4
#     Node 6, Type 0, BuildingBlock: QUQFOY_clean_sbu_1, # of connection points: 4
#     Node 7, Type 0, BuildingBlock: QUQFOY_clean_sbu_1, # of connection points: 4
#     Node 8, Type 0, BuildingBlock: QUQFOY_clean_sbu_1, # of connection points: 4
#     Node 9, Type 0, BuildingBlock: QUQFOY_clean_sbu_1, # of connection points: 4
#     Node 10, Type 0, BuildingBlock: QUQFOY_clean_sbu_1, # of connection points: 4
#     Node 11, Type 0, BuildingBlock: QUQFOY_clean_sbu_1, # of connection points: 4
#     Node 12, Type 0, BuildingBlock: QUQFOY_clean_sbu_1, # of connection points: 4
#     Node 13, Type 0, BuildingBlock: QUQFOY_clean_sbu_1, # of connection points: 4
#     Node 14, Type 0, BuildingBlock: QUQFOY_clean_sbu_1, # of connection points: 4
#     Node 15, Type 0, BuildingBlock: QUQFOY_clean_sbu_1, # of connection points: 4
#     Edge 16, Type (0, 0), BuildingBlock: OJICUG_clean_linker_0, # of connection points: 2
#     Edge 17, Type (0, 0), BuildingBlock: OJICUG_clean_linker_0, # of connection points: 2
#     Edge 18, Type (0, 0), BuildingBlock: OJICUG_clean_linker_0, # of connection points: 2
#     Edge 19, Type (0, 0), BuildingBlock: OJICUG_clean_linker_0, # of connection points: 2
#     Edge 20, Type (0, 0), BuildingBlock: OJICUG_clean_linker_0, # of connection points: 2
#     Edge 21, Type (0, 0), BuildingBlock: OJICUG_clean_linker_0, # of connection points: 2
#     Edge 22, Type (0, 0), BuildingBlock: OJICUG_clean_linker_0, # of connection points: 2
#     Edge 23, Type (0, 0), BuildingBlock: OJICUG_clean_linker_0, # of connection points: 2
#     Edge 24, Type (0, 0), BuildingBlock: OJICUG_clean_linker_0, # of connection points: 2
#     Edge 25, Type (0, 0), BuildingBlock: OJICUG_clean_linker_0, # of connection points: 2
#     Edge 26, Type (0, 0), BuildingBlock: OJICUG_clean_linker_0, # of connection points: 2
#     Edge 27, Type (0, 0), BuildingBlock: OJICUG_clean_linker_0, # of connection points: 2
#     Edge 28, Type (0, 0), BuildingBlock: OJICUG_clean_linker_0, # of connection points: 2
#     Edge 29, Type (0, 0), BuildingBlock: OJICUG_clean_linker_0, # of connection points: 2
#     Edge 30, Type (0, 0), BuildingBlock: OJICUG_clean_linker_0, # of connection points: 2
#     Edge 31, Type (0, 0), BuildingBlock: OJICUG_clean_linker_0, # of connection points: 2
#     Edge 32, Type (0, 0), BuildingBlock: OJICUG_clean_linker_0, # of connection points: 2
#     Edge 33, Type (0, 0), BuildingBlock: OJICUG_clean_linker_0, # of connection points: 2
#     Edge 34, Type (0, 0), BuildingBlock: OJICUG_clean_linker_0, # of connection points: 2
#     Edge 35, Type (0, 0), BuildingBlock: OJICUG_clean_linker_0, # of connection points: 2
#     Edge 36, Type (0, 0), BuildingBlock: OJICUG_clean_linker_0, # of connection points: 2
#     Edge 37, Type (0, 0), BuildingBlock: OJICUG_clean_linker_0, # of connection points: 2
#     Edge 38, Type (0, 0), BuildingBlock: OJICUG_clean_linker_0, # of connection points: 2
#     Edge 39, Type (0, 0), BuildingBlock: OJICUG_clean_linker_0, # of connection points: 2
#     Edge 40, Type (0, 0), BuildingBlock: OJICUG_clean_linker_0, # of connection points: 2
#     Edge 41, Type (0, 0), BuildingBlock: OJICUG_clean_linker_0, # of connection points: 2
#     Edge 42, Type (0, 0), BuildingBlock: OJICUG_clean_linker_0, # of connection points: 2
#     Edge 43, Type (0, 0), BuildingBlock: OJICUG_clean_linker_0, # of connection points: 2
#     Edge 44, Type (0, 0), BuildingBlock: OJICUG_clean_linker_0, # of connection points: 2
#     Edge 45, Type (0, 0), BuildingBlock: OJICUG_clean_linker_0, # of connection points: 2
#     Edge 46, Type (0, 0), BuildingBlock: OJICUG_clean_linker_0, # of connection points: 2
#     Edge 47, Type (0, 0), BuildingBlock: OJICUG_clean_linker_0, # of connection points: 2
# Relax obj value: 0.133
# Max RMSD: 0.198
# Mean RMSD: 0.175
data_MOF--net-cag--node1-QUQFOY_clean_sbu_1--edge1-OJICUG_clean_linker_0
_symmetry_space_group_name_H-M    P1
_symmetry_Int_Tables_number       1
_symmetry_cell_setting            triclinic
loop_
_symmetry_equiv_pos_as_xyz
'x, y, z'
_cell_length_a     31.017812
_cell_length_b     42.190082
_cell_length_c     31.90863
_cell_angle_alpha  89.984318
_cell_angle_beta   89.98241
_cell_angle_gamma 89.746185
loop_
_atom_site_label
_atom_site_type_symbol
_atom_site_fract_x
_atom_site_fract_y
_atom_site_fract_z
_atom_type_partial_charge
O0 O 0.29745 0.14529 0.13727 0.0
Cd1 Cd 0.32286 0.15073 0.07774 0.0
Cd2 Cd 0.32276 0.08237 0.08752 0.0
O3 O 0.28924 0.09341 0.14078 0.0
O4 O 0.32073 0.19772 0.07146 0.0
O5 O 0.28413 0.16516 0.03073 0.0
C6 C 0.29416 0.19382 0.04097 0.0
C7 C 0.29949 0.04071 0.04548 0.0
C8 C 0.28443 0.12079 0.15659 0.0
C9 C 0.40722 0.11457 0.0731 0.0
O10 O 0.38817 0.08997 0.0864 0.0
O11 O 0.38646 0.13985 0.06501 0.0
O12 O 0.31653 0.03566 0.0817 0.0
O13 O 0.29426 0.06975 0.03352 0.0
O14 O 0.18595 0.8463 0.63466 0.0
Cd15 Cd 0.15828 0.83877 0.57739 0.0
Cd16 Cd 0.15778 0.90834 0.58087 0.0
O17 O 0.18723 0.89858 0.63749 0.0
O18 O 0.1631 0.79187 0.57234 0.0
O19 O 0.1946 0.82496 0.52835 0.0
C20 C 0.18724 0.79618 0.54006 0.0
C21 C 0.1827 0.95151 0.54243 0.0
C22 C 0.19532 0.87172 0.65376 0.0
C23 C 0.07336 0.87327 0.56876 0.0
O24 O 0.09291 0.89952 0.57256 0.0
O25 O 0.09361 0.84709 0.57017 0.0
O26 O 0.1617 0.9553 0.57688 0.0
O27 O 0.19089 0.92292 0.53021 0.0
O28 O 0.2858 0.83442 0.83001 0.0
Cd29 Cd 0.3164 0.82091 0.88398 0.0
Cd30 Cd 0.31842 0.89104 0.89309 0.0
O31 O 0.28703 0.88656 0.83637 0.0
O32 O 0.30953 0.77397 0.88422 0.0
O33 O 0.28285 0.80523 0.93355 0.0
C34 C 0.28828 0.777 0.91867 0.0
C35 C 0.29783 0.93388 0.93506 0.0
C36 C 0.27692 0.86183 0.81597 0.0
C37 C 0.40221 0.85285 0.89597 0.0
O38 O 0.38291 0.87941 0.89862 0.0
O39 O 0.38156 0.82744 0.88932 0.0
O40 O 0.3186 0.93788 0.90057 0.0
O41 O 0.28765 0.90532 0.9456 0.0
O42 O 0.19408 0.16134 0.33254 0.0
Cd43 Cd 0.16415 0.17347 0.3876 0.0
Cd44 Cd 0.16327 0.10426 0.39675 0.0
O45 O 0.19376 0.10928 0.33968 0.0
O46 O 0.1709 0.22026 0.3898 0.0
O47 O 0.19866 0.18795 0.43736 0.0
C48 C 0.19292 0.21649 0.42366 0.0
C49 C 0.18505 0.06094 0.43727 0.0
C50 C 0.20317 0.1339 0.31873 0.0
C51 C 0.07874 0.14119 0.4004 0.0
O52 O 0.09855 0.11485 0.40301 0.0
O53 O 0.09894 0.16676 0.39344 0.0
O54 O 0.16405 0.05734 0.40287 0.0
O55 O 0.19472 0.08941 0.44863 0.0
O56 O 0.70475 0.79805 0.92011 0.0
Cd57 Cd 0.67414 0.83065 0.88277 0.0
Cd58 Cd 0.67111 0.8646 0.95563 0.0
O59 O 0.70543 0.82604 0.97843 0.0
O60 O 0.68488 0.8137 0.82594 0.0
O61 O 0.7065 0.86129 0.84595 0.0
C62 C 0.70418 0.83983 0.81718 0.0
C63 C 0.69449 0.91603 0.96845 0.0
C64 C 0.71479 0.80085 0.95845 0.0
C65 C 0.58674 0.84726 0.91512 0.0
O66 O 0.60544 0.86078 0.94567 0.0
O67 O 0.60848 0.83364 0.88662 0.0
O68 O 0.6776 0.89905 -0.00229 0.0
O69 O 0.69984 0.90323 0.93199 0.0
O70 O 0.77568 0.19279 0.42226 0.0
Cd71 Cd 0.80652 0.16003 0.38532 0.0
Cd72 Cd 0.80924 0.12644 0.4582 0.0
O73 O 0.77493 0.16515 0.48091 0.0
O74 O 0.79569 0.17641 0.32813 0.0
O75 O 0.77486 0.12878 0.34884 0.0
C76 C 0.77694 0.15 0.31973 0.0
C77 C 0.78499 0.07492 0.4695 0.0
C78 C 0.7657 0.19026 0.46066 0.0
C79 C 0.89388 0.14415 0.41838 0.0
O80 O 0.87511 0.13043 0.44877 0.0
O81 O 0.87217 0.15757 0.38969 0.0
O82 O 0.80166 0.09139 0.49939 0.0
O83 O 0.78048 0.08825 0.43327 0.0
O84 O 0.70328 0.16658 0.04751 0.0
Cd85 Cd 0.67796 0.132 0.08641 0.0
Cd86 Cd 0.67393 0.10232 0.00827 0.0
O87 O 0.71046 0.13984 -0.01143 0.0
O88 O 0.68032 0.15547 0.14016 0.0
O89 O 0.71536 0.11044 0.13013 0.0
C90 C 0.70573 0.13389 0.15442 0.0
C91 C 0.6955 0.05026 -0.0035 0.0
C92 C 0.71603 0.16496 0.00972 0.0
C93 C 0.591 0.11456 0.05143 0.0
O94 O 0.60863 0.1095 0.01614 0.0
O95 O 0.61351 0.12092 0.0835 0.0
O96 O 0.68072 0.06769 0.96648 0.0
O97 O 0.69954 0.06289 0.03321 0.0
O98 O 0.7728 0.82277 0.54386 0.0
Cd99 Cd 0.80202 0.85452 0.58301 0.0
Cd100 Cd 0.80497 0.88874 0.50717 0.0
O101 O 0.77165 0.84974 0.48464 0.0
O102 O 0.79752 0.83052 0.63617 0.0
O103 O 0.76872 0.87806 0.62802 0.0
C104 C 0.77549 0.85363 0.65149 0.0
C105 C 0.78141 0.94043 0.49504 0.0
C106 C 0.76307 0.82478 0.50535 0.0
C107 C 0.88907 0.87213 0.54874 0.0
O108 O 0.87061 0.8848 0.51734 0.0
O109 O 0.86731 0.85943 0.57785 0.0
O110 O 0.79801 0.92351 0.46544 0.0
O111 O 0.7761 0.92733 0.53131 0.0
O112 O 0.79695 0.64579 0.14012 0.0
Cd113 Cd 0.82414 0.65339 0.08262 0.0
Cd114 Cd 0.82479 0.58399 0.08557 0.0
O115 O 0.79581 0.59349 0.14249 0.0
O116 O 0.81844 0.70018 0.07684 0.0
O117 O 0.78734 0.66636 0.03356 0.0
C118 C 0.79427 0.69533 0.04472 0.0
C119 C 0.79967 0.54082 0.04731 0.0
C120 C 0.78779 0.62025 0.15907 0.0
C121 C 0.90908 0.6192 0.07296 0.0
O122 O 0.88955 0.59293 0.07663 0.0
O123 O 0.88884 0.64537 0.0749 0.0
O124 O 0.82104 0.53704 0.08154 0.0
O125 O 0.79126 0.56941 0.03519 0.0
O126 O 0.68407 0.34549 0.64271 0.0
Cd127 Cd 0.65916 0.33992 0.58301 0.0
Cd128 Cd 0.65814 0.40822 0.59266 0.0
O129 O 0.69113 0.39747 0.64631 0.0
O130 O 0.6622 0.29298 0.57638 0.0
O131 O 0.69835 0.32613 0.53602 0.0
C132 C 0.68875 0.29732 0.54594 0.0
C133 C 0.68162 0.44988 0.55071 0.0
C134 C 0.69638 0.37014 0.66216 0.0
C135 C 0.57429 0.37542 0.57747 0.0
O136 O 0.59283 0.40023 0.59077 0.0
O137 O 0.5955 0.35027 0.56982 0.0
O138 O 0.66402 0.45494 0.58669 0.0
O139 O 0.68724 0.42084 0.53894 0.0
O140 O 0.78678 0.33056 0.83841 0.0
Cd141 Cd 0.8171 0.3185 0.89328 0.0
Cd142 Cd 0.81802 0.38794 0.90187 0.0
O143 O 0.78705 0.38266 0.8451 0.0
O144 O 0.81114 0.27164 0.89487 0.0
O145 O 0.78301 0.30327 0.94298 0.0
C146 C 0.78916 0.27491 0.92884 0.0
C147 C 0.79651 0.43132 0.94238 0.0
C148 C 0.77754 0.35793 0.82443 0.0
C149 C 0.90258 0.35106 0.90508 0.0
O150 O 0.88283 0.37744 0.90755 0.0
O151 O 0.88229 0.32546 0.89865 0.0
O152 O 0.81717 0.43488 0.90776 0.0
O153 O 0.78701 0.40286 0.95396 0.0
O154 O 0.69692 0.65635 0.33553 0.0
Cd155 Cd 0.66583 0.66973 0.38928 0.0
Cd156 Cd 0.66395 0.59942 0.39793 0.0
O157 O 0.69587 0.60416 0.34149 0.0
O158 O 0.67197 0.71673 0.38891 0.0
O159 O 0.69891 0.68609 0.43877 0.0
C160 C 0.69315 0.71415 0.42344 0.0
C161 C 0.68431 0.55662 0.44008 0.0
C162 C 0.70604 0.62902 0.32136 0.0
C163 C 0.58003 0.63742 0.40034 0.0
O164 O 0.59935 0.61087 0.40287 0.0
O165 O 0.6007 0.6629 0.39419 0.0
O166 O 0.66398 0.55257 0.40537 0.0
O167 O 0.69422 0.58521 0.45071 0.0
O168 O 0.20576 0.2996 0.92011 0.0
Cd169 Cd 0.17426 0.33256 0.88404 0.0
Cd170 Cd 0.17322 0.36569 0.95752 0.0
O171 O 0.20823 0.32689 0.97897 0.0
O172 O 0.18319 0.31584 0.82672 0.0
O173 O 0.20544 0.36333 0.8464 0.0
C174 C 0.20225 0.34199 0.81757 0.0
C175 C 0.1974 0.41726 0.9684 0.0
C176 C 0.21681 0.30188 0.95825 0.0
C177 C 0.08771 0.34827 0.91947 0.0
O178 O 0.10716 0.36161 0.94973 0.0
O179 O 0.10875 0.33526 0.88999 0.0
O180 O 0.18173 0.40063 -0.00133 0.0
O181 O 0.20105 0.40404 0.93201 0.0
O182 O 0.27734 0.69179 0.41833 0.0
Cd183 Cd 0.30849 0.65893 0.38183 0.0
Cd184 Cd 0.31009 0.6256 0.45542 0.0
O185 O 0.27516 0.66426 0.47702 0.0
O186 O 0.29953 0.67621 0.32486 0.0
O187 O 0.27656 0.62876 0.34397 0.0
C188 C 0.27995 0.65034 0.31545 0.0
C189 C 0.28674 0.5741 0.46773 0.0
C190 C 0.2664 0.68931 0.45648 0.0
C191 C 0.39521 0.6426 0.41632 0.0
O192 O 0.37595 0.62952 0.44689 0.0
O193 O 0.37403 0.65572 0.38704 0.0
O194 O 0.30266 0.59117 0.4974 0.0
O195 O 0.28222 0.58689 0.43115 0.0
O196 O 0.20949 0.66962 0.04171 0.0
Cd197 Cd 0.1808 0.63809 0.08158 0.0
Cd198 Cd 0.17624 0.60346 0.00638 0.0
O199 O 0.20902 0.64235 0.98274 0.0
O200 O 0.18697 0.66187 0.13472 0.0
O201 O 0.21464 0.61404 0.12572 0.0
C202 C 0.20881 0.63844 0.14947 0.0
C203 C 0.19973 0.55178 -0.00611 0.0
C204 C 0.21827 0.66738 0.003 0.0
C205 C 0.093 0.62047 0.04945 0.0
O206 O 0.11082 0.6074 0.01799 0.0
O207 O 0.11537 0.63352 0.07782 0.0
O208 O 0.18227 0.5686 0.96465 0.0
O209 O 0.20582 0.56494 0.02999 0.0
O210 O 0.27812 0.32334 0.54498 0.0
Cd211 Cd 0.30305 0.35757 0.58461 0.0
Cd212 Cd 0.3092 0.38776 0.50701 0.0
O213 O 0.27327 0.35033 0.48601 0.0
O214 O 0.29871 0.33417 0.63829 0.0
O215 O 0.2651 0.37968 0.62738 0.0
C216 C 0.27358 0.35616 0.65194 0.0
C217 C 0.28746 0.43979 0.49519 0.0
C218 C 0.26664 0.32519 0.50684 0.0
C219 C 0.39104 0.37492 0.55191 0.0
O220 O 0.37431 0.38068 0.51639 0.0
O221 O 0.36774 0.36804 0.58326 0.0
O222 O 0.30324 0.42261 0.46541 0.0
O223 O 0.28264 0.42695 0.5317 0.0
C224 C 0.27794 0.25188 0.03725 0.0
C225 C 0.27533 0.22152 0.0192 0.0
H226 H 0.26121 0.30108 0.03236 0.0
C227 C 0.25424 0.21796 0.98062 0.0
H228 H 0.29392 0.25536 0.06706 0.0
C229 C 0.23605 0.24422 0.96049 0.0
C230 C 0.23798 0.27452 0.97887 0.0
H231 H 0.25184 0.1949 0.96591 0.0
H232 H 0.21978 0.24065 0.93085 0.0
C233 C 0.25914 0.27807 0.01745 0.0
C234 C 0.22492 0.71263 0.51649 0.0
C235 C 0.24481 0.71639 0.47729 0.0
H236 H 0.19077 0.73488 0.56681 0.0
C237 C 0.24493 0.74657 0.45847 0.0
H238 H 0.22423 0.6897 0.53175 0.0
C239 C 0.22619 0.77255 0.47876 0.0
C240 C 0.20645 0.76878 0.518 0.0
H241 H 0.26015 0.75029 0.42832 0.0
H242 H 0.22718 0.79555 0.4637 0.0
C243 C 0.20569 0.73852 0.5365 0.0
C244 C 0.2702 0.7192 0.92011 0.0
C245 C 0.27087 0.74885 0.94029 0.0
H246 H 0.2529 0.67014 0.92395 0.0
C247 C 0.25491 0.75129 0.98128 0.0
H248 H 0.28228 0.71658 0.88844 0.0
C249 C 0.23861 0.72467 0.00173 0.0
C250 C 0.2374 0.69504 0.98146 0.0
H251 H 0.25514 0.77376 -0.0023 0.0
H252 H 0.22637 0.72747 0.03332 0.0
C253 C 0.25338 0.69258 0.94041 0.0
C254 C 0.2472 0.26753 0.5057 0.0
C255 C 0.24665 0.29748 0.48625 0.0
H256 H 0.23099 0.21832 0.50103 0.0
C257 C 0.22781 0.30052 0.44643 0.0
H258 H 0.26161 0.26437 0.53634 0.0
C259 C 0.21007 0.27422 0.42641 0.0
C260 C 0.21115 0.24422 0.44556 0.0
H261 H 0.22677 0.32324 0.43063 0.0
H262 H 0.19591 0.27741 0.39566 0.0
C263 C 0.22982 0.24112 0.48544 0.0
C264 C 0.77485 0.75277 0.04009 0.0
C265 C 0.77469 0.72233 0.02212 0.0
H266 H 0.75583 0.80142 0.03425 0.0
C267 C 0.75537 0.71803 0.98279 0.0
H268 H 0.78942 0.75682 0.07046 0.0
C269 C 0.73657 0.74369 0.96183 0.0
C270 C 0.73618 0.77406 0.98007 0.0
H271 H 0.75485 0.69488 0.96813 0.0
H272 H 0.72176 0.73958 0.93159 0.0
C273 C 0.75553 0.77833 0.01942 0.0
C274 C 0.74636 0.24787 0.46412 0.0
C275 C 0.7449 0.21742 0.48208 0.0
H276 H 0.73026 0.29708 0.47044 0.0
C277 C 0.72444 0.21347 0.52098 0.0
H278 H 0.76211 0.25174 0.43426 0.0
C279 C 0.70577 0.23942 0.54141 0.0
C280 C 0.70781 0.26992 0.52371 0.0
H281 H 0.72276 0.19033 0.53559 0.0
H282 H 0.69024 0.23563 0.5714 0.0
C283 C 0.72831 0.2739 0.48488 0.0
C284 C 0.77332 0.21695 0.93088 0.0
C285 C 0.77133 0.24683 0.95029 0.0
H286 H 0.75744 0.16775 0.93431 0.0
C287 C 0.75198 0.24947 -0.01007 0.0
H288 H 0.78804 0.2141 0.90031 0.0
C289 C 0.73472 0.22276 0.00963 0.0
C290 C 0.7361 0.19295 -0.01014 0.0
H291 H 0.75009 0.27216 0.00572 0.0
H292 H 0.7197 0.2256 0.04005 0.0
C293 C 0.75574 0.19034 0.95034 0.0
C294 C 0.7429 0.76745 0.50529 0.0
C295 C 0.74371 0.7969 0.48453 0.0
H296 H 0.72674 0.71825 0.5022 0.0
C297 C 0.72725 0.79895 0.44363 0.0
H298 H 0.75549 0.76496 0.53679 0.0
C299 C 0.71045 0.77209 0.42392 0.0
C300 C 0.71027 0.7426 0.44455 0.0
H301 H 0.72741 0.82125 0.4268 0.0
H302 H 0.69807 0.77438 0.39232 0.0
C303 C 0.72659 0.74059 0.48544 0.0
C304 C 0.29032 0.01827 0.97365 0.0
C305 C 0.29047 0.01384 0.01724 0.0
H306 H 0.2927 -0.00383 0.9133 0.0
C307 C 0.28717 0.98292 0.03338 0.0
H308 H 0.29288 0.04181 0.96032 0.0
C309 C 0.28634 0.95679 0.00644 0.0
C310 C 0.28971 0.96116 0.96296 0.0
H311 H 0.28697 0.97884 0.0669 0.0
H312 H 0.28581 0.93318 0.01977 0.0
C313 C 0.29039 0.99214 0.94675 0.0
C314 C 0.19385 0.00973 0.53364 0.0
C315 C 0.19269 0.97921 0.51598 0.0
H316 H 0.19357 0.05982 0.52229 0.0
C317 C 0.1954 0.97591 0.4723 0.0
H318 H 0.19202 0.01291 0.56728 0.0
C319 C 0.19545 0.00273 0.44661 0.0
C320 C 0.19381 0.03326 0.46421 0.0
H321 H 0.19448 0.95269 0.45786 0.0
H322 H 0.19488 -0.00043 0.41292 0.0
C323 C 0.19491 0.03657 0.50794 0.0
C324 C 0.70581 0.97112 0.94175 0.0
C325 C 0.70312 0.95003 0.97569 0.0
H326 H 0.70547 0.01958 0.92178 0.0
C327 C 0.70363 0.96223 0.01669 0.0
H328 H 0.70548 0.96244 0.90981 0.0
C329 C 0.70414 0.99495 0.02358 0.0
C330 C 0.70347 0.01608 -0.01043 0.0
H331 H 0.70186 0.94652 0.0435 0.0
H332 H 0.70254 0.00364 0.05549 0.0
C333 C 0.70564 0.00386 0.94863 0.0
C334 C 0.77351 0.02827 0.51661 0.0
C335 C 0.77553 0.04091 0.47588 0.0
H336 H 0.77269 0.98643 0.55464 0.0
C337 C 0.77345 0.0202 0.44149 0.0
H338 H 0.77477 0.04367 0.54374 0.0
C339 C 0.77281 0.98739 0.44775 0.0
C340 C 0.77351 0.97469 0.48851 0.0
H341 H 0.77493 0.02922 0.40974 0.0
H342 H 0.77363 0.97195 0.42064 0.0
C343 C 0.77213 0.99548 0.52287 0.0
C344 C 0.78715 0.45576 0.01306 0.0
C345 C 0.78797 0.45904 0.96931 0.0
H346 H 0.79043 0.47946 0.07233 0.0
C347 C 0.78626 0.48955 0.95167 0.0
H348 H 0.78853 0.43252 0.02745 0.0
C349 C 0.78651 0.51639 0.97731 0.0
C350 C 0.78948 0.51312 0.02097 0.0
H351 H 0.78662 0.49269 0.91797 0.0
H352 H 0.78737 0.5396 0.96281 0.0
C353 C 0.78839 0.48261 0.03869 0.0
C354 C 0.69393 0.50767 0.5386 0.0
C355 C 0.69089 0.47674 0.52249 0.0
H356 H 0.69535 0.5574 0.5249 0.0
C357 C 0.69156 0.47226 0.47892 0.0
H358 H 0.69372 0.51179 0.57211 0.0
C359 C 0.69176 0.49837 0.45197 0.0
C360 C 0.69219 0.52937 0.46811 0.0
H361 H 0.68921 0.44871 0.46562 0.0
H362 H 0.68985 0.49431 0.41849 0.0
C363 C 0.69503 0.53378 0.51161 0.0
C364 C 0.21034 0.49678 0.02151 0.0
C365 C 0.20786 0.51757 -0.0128 0.0
H366 H 0.2089 0.44856 0.04243 0.0
C367 C 0.20782 0.5049 0.94644 0.0
H368 H 0.21039 0.50581 0.05329 0.0
C369 C 0.20754 0.47208 0.94018 0.0
C370 C 0.20656 0.45133 0.9746 0.0
H371 H 0.20616 0.52034 0.91935 0.0
H372 H 0.20546 0.46307 0.90846 0.0
C373 C 0.20932 0.46398 0.01528 0.0
C374 C 0.27732 0.52769 0.51562 0.0
C375 C 0.27847 0.54002 0.47469 0.0
H376 H 0.27837 0.48617 0.55425 0.0
C377 C 0.2769 0.51899 0.44062 0.0
H378 H 0.27824 0.54334 0.54252 0.0
C379 C 0.27756 0.48624 0.44736 0.0
C380 C 0.27909 0.47392 0.48828 0.0
H381 H 0.27775 0.52776 0.40872 0.0
H382 H 0.27859 0.4706 0.42045 0.0
C383 C 0.27728 0.49494 0.52236 0.0
C384 C 0.51723 0.12796 0.02589 0.0
C385 C 0.54394 0.11332 0.05568 0.0
H386 H 0.4525 0.14059 0.00889 0.0
C387 C 0.52546 0.09856 0.09074 0.0
H388 H 0.53096 0.13962 -0.00123 0.0
C389 C 0.48078 0.09829 0.09588 0.0
C390 C 0.45411 0.11379 0.06681 0.0
H391 H 0.54559 0.0871 0.11404 0.0
H392 H 0.46713 0.08671 0.12311 0.0
C393 C 0.4726 0.12867 0.03181 0.0
C394 C 0.96064 0.8975 0.53636 0.0
C395 C 0.93635 0.87215 0.5521 0.0
H396 H 0.02344 0.9181 0.53027 0.0
C397 C 0.95741 0.84712 0.57277 0.0
H398 H 0.94501 0.91714 0.52052 0.0
C399 C 0.00205 0.84735 0.57759 0.0
C400 C 0.02632 0.87302 0.56281 0.0
H401 H 0.93934 0.82726 0.58508 0.0
H402 H 0.01749 0.82771 0.59363 0.0
C403 C 0.00531 0.89814 0.5422 0.0
C404 C 0.47308 0.82626 0.88369 0.0
C405 C 0.44936 0.85136 0.9013 0.0
H406 H 0.53534 0.8055 0.87402 0.0
C407 C 0.471 0.87472 0.92445 0.0
H408 H 0.45721 0.80795 0.86568 0.0
C409 C 0.51562 0.87295 0.92998 0.0
C410 C 0.5394 0.84817 0.91166 0.0
H411 H 0.4534 0.8942 0.93861 0.0
H412 H 0.53159 0.89132 0.9478 0.0
C413 C 0.51775 0.82488 0.88843 0.0
C414 C 0.01032 0.11842 0.4287 0.0
C415 C 0.03154 0.14216 0.4058 0.0
H416 H 0.94996 0.10083 0.45147 0.0
C417 C 0.00729 0.16698 0.38819 0.0
H418 H 0.02832 0.09913 0.44286 0.0
C419 C 0.96255 0.16767 0.39256 0.0
C420 C 0.9413 0.14395 0.41543 0.0
H421 H 0.0228 0.18558 0.37036 0.0
H422 H 0.94457 0.18684 0.3781 0.0
C423 C 0.9656 0.1195 0.43388 0.0
C424 C 0.0251 0.64542 0.07492 0.0
C425 C 0.04579 0.62042 0.05382 0.0
H426 H 0.9654 0.66477 0.09692 0.0
C427 C 0.02121 0.59506 0.03858 0.0
H428 H 0.04337 0.66529 0.08687 0.0
C429 C 0.97668 0.59438 0.04527 0.0
C430 C 0.95603 0.61947 0.06627 0.0
H431 H 0.03654 0.57543 0.02243 0.0
H432 H 0.95835 0.57442 0.03366 0.0
C433 C 0.98055 0.64515 0.08061 0.0
C434 C 0.50008 0.39103 0.59908 0.0
C435 C 0.52752 0.3759 0.57036 0.0
H436 H 0.43478 0.40185 0.61598 0.0
C437 C 0.50996 0.3612 0.53481 0.0
H438 H 0.51302 0.40247 0.62672 0.0
C439 C 0.46547 0.36181 0.52793 0.0
C440 C 0.43798 0.37613 0.55731 0.0
H441 H 0.53068 0.34956 0.51215 0.0
H442 H 0.45246 0.35033 0.50035 0.0
C443 C 0.45553 0.39064 0.59298 0.0
C444 C 0.01629 0.37281 0.93656 0.0
C445 C 0.04025 0.3484 0.91761 0.0
H446 H 0.95371 0.39312 0.94671 0.0
C447 C 0.0186 0.32466 0.8952 0.0
H448 H 0.03226 0.39149 0.95381 0.0
C449 C 0.97378 0.3253 0.89171 0.0
C450 C 0.94984 0.3501 0.90975 0.0
H451 H 0.03631 0.30551 0.88038 0.0
H452 H 0.95795 0.30669 0.87418 0.0
C453 C 0.97146 0.37385 0.93224 0.0
C454 C 0.50932 0.66384 0.38691 0.0
C455 C 0.53282 0.63884 0.40501 0.0
H456 H 0.44717 0.68441 0.37605 0.0
C457 C 0.51087 0.61547 0.4279 0.0
H458 H 0.52544 0.68215 0.36907 0.0
C459 C 0.46614 0.61715 0.43267 0.0
C460 C 0.4426 0.64181 0.4138 0.0
H461 H 0.5283 0.59606 0.44243 0.0
H462 H 0.4499 0.59877 0.45029 0.0
C463 C 0.46457 0.66511 0.39086 0.0
C464 C 0.25619 0.15435 0.21532 0.0
C465 C 0.26374 0.12417 0.19811 0.0
H466 H 0.2312 0.18112 0.26682 0.0
C467 C 0.25153 0.09722 0.22107 0.0
H468 H 0.26522 0.1756 0.19848 0.0
C469 C 0.23213 0.10038 0.26033 0.0
C470 C 0.2244 0.13056 0.27746 0.0
H471 H 0.25696 0.07361 0.20878 0.0
H472 H 0.22304 0.07912 0.27712 0.0
C473 C 0.23667 0.15751 0.25454 0.0
C474 C 0.24638 0.89467 0.75732 0.0
C475 C 0.25527 0.86477 0.77489 0.0
H476 H 0.22049 0.92042 0.70515 0.0
C477 C 0.24393 0.83741 0.75246 0.0
H478 H 0.25473 0.91622 0.77382 0.0
C479 C 0.22445 0.83981 0.71328 0.0
C480 C 0.21578 0.86964 0.69549 0.0
H481 H 0.25025 0.81399 0.76503 0.0
H482 H 0.21631 0.81815 0.69692 0.0
C483 C 0.22682 0.89708 0.71796 0.0
C484 C 0.72938 0.87463 0.75819 0.0
C485 C 0.72339 0.84429 0.77539 0.0
H486 H 0.74992 0.90153 0.70458 0.0
C487 C 0.73495 0.81753 0.7518 0.0
H488 H 0.72051 0.89563 0.77578 0.0
C489 C 0.75224 0.82088 0.71185 0.0
C490 C 0.75761 0.85107 0.69415 0.0
H491 H 0.73086 0.79386 0.76434 0.0
H492 H 0.76081 0.79968 0.69454 0.0
C493 C 0.74592 0.87799 0.71753 0.0
C494 C 0.75401 0.11445 0.26069 0.0
C495 C 0.75798 0.14495 0.27796 0.0
H496 H 0.73513 0.08693 0.20706 0.0
C497 C 0.74461 0.17131 0.25447 0.0
H498 H 0.76433 0.09378 0.27821 0.0
C499 C 0.72736 0.16739 0.21458 0.0
C500 C 0.72396 0.13707 0.19683 0.0
H501 H 0.74717 0.19508 0.26707 0.0
H502 H 0.71722 0.18827 0.19735 0.0
C503 C 0.73762 0.11057 0.22006 0.0
C504 C 0.73946 0.65387 0.25832 0.0
C505 C 0.72795 0.62636 0.28037 0.0
H506 H 0.7672 0.67352 0.20304 0.0
C507 C 0.73679 0.59658 0.26243 0.0
H508 H 0.73319 0.6772 0.27118 0.0
C509 C 0.7564 0.59445 0.22305 0.0
C510 C 0.76751 0.62205 0.20092 0.0
H511 H 0.72831 0.57492 0.27862 0.0
H512 H 0.76262 0.5712 0.20992 0.0
C513 C 0.75898 0.65175 0.21912 0.0
C514 C 0.72467 0.3369 0.7212 0.0
C515 C 0.71686 0.36699 0.7038 0.0
H516 H 0.74986 0.31041 0.77286 0.0
C517 C 0.72871 0.39407 0.72664 0.0
H518 H 0.71591 0.31555 0.70446 0.0
C519 C 0.74808 0.39113 0.76593 0.0
C520 C 0.75614 0.36104 0.78322 0.0
H521 H 0.72306 0.41762 0.71421 0.0
H522 H 0.75694 0.41249 0.78261 0.0
C523 C 0.74414 0.33396 0.76045 0.0
C524 C 0.24946 0.32323 0.71176 0.0
C525 C 0.25462 0.35344 0.69411 0.0
H526 H 0.22844 0.2961 0.76433 0.0
C527 C 0.24248 0.3803 0.71739 0.0
H528 H 0.25841 0.3021 0.69446 0.0
C529 C 0.22606 0.37687 0.7581 0.0
C530 C 0.22057 0.3465 0.7754 0.0
H531 H 0.24636 0.40385 0.70445 0.0
H532 H 0.21712 0.39782 0.77573 0.0
C533 C 0.23219 0.31979 0.75173 0.0
C534 C 0.25406 0.61622 0.25605 0.0
C535 C 0.26138 0.64638 0.2733 0.0
H536 H 0.23234 0.5899 0.2024 0.0
C537 C 0.25145 0.67343 0.24957 0.0
H538 H 0.26166 0.595 0.27373 0.0
C539 C 0.23421 0.67054 0.20954 0.0
C540 C 0.22728 0.64053 0.1919 0.0
H541 H 0.2566 0.69698 0.2621 0.0
H542 H 0.22675 0.69195 0.19218 0.0
C543 C 0.23757 0.61331 0.21531 0.0
loop_
_geom_bond_atom_site_label_1
_geom_bond_atom_site_label_2
_geom_bond_distance
_geom_bond_site_symmetry_2
_ccdc_geom_bond_type
O0 Cd1 2.223 . S
O0 C8 1.315 . S
Cd1 O0 2.223 . S
Cd1 O4 2.297 . S
Cd1 O5 2.439 . S
Cd1 O11 2.240 . S
Cd2 O3 2.240 . S
Cd2 O10 2.223 . S
Cd2 O12 2.297 . S
Cd2 O13 2.439 . S
O3 Cd2 2.240 . S
O3 C8 1.279 . S
O4 Cd1 2.297 . S
O4 C6 1.247 . S
O5 Cd1 2.439 . S
O5 C6 1.208 . S
C6 O4 1.247 . S
C6 O5 1.208 . S
C7 O12 1.247 . S
C7 O13 1.208 . S
C8 O0 1.315 . S
C8 O3 1.279 . S
C9 O10 1.315 . S
C9 O11 1.279 . S
O10 Cd2 2.223 . S
O10 C9 1.315 . S
O11 Cd1 2.240 . S
O11 C9 1.279 . S
O12 Cd2 2.297 . S
O12 C7 1.247 . S
O13 Cd2 2.439 . S
O13 C7 1.208 . S
O14 Cd15 2.223 . S
O14 C22 1.315 . S
Cd15 O14 2.223 . S
Cd15 O18 2.297 . S
Cd15 O19 2.439 . S
Cd15 O25 2.240 . S
Cd16 O17 2.240 . S
Cd16 O24 2.223 . S
Cd16 O26 2.297 . S
Cd16 O27 2.439 . S
O17 Cd16 2.240 . S
O17 C22 1.279 . S
O18 Cd15 2.297 . S
O18 C20 1.247 . S
O19 Cd15 2.439 . S
O19 C20 1.208 . S
C20 O18 1.247 . S
C20 O19 1.208 . S
C21 O26 1.247 . S
C21 O27 1.208 . S
C22 O14 1.315 . S
C22 O17 1.279 . S
C23 O24 1.315 . S
C23 O25 1.279 . S
O24 Cd16 2.223 . S
O24 C23 1.315 . S
O25 Cd15 2.240 . S
O25 C23 1.279 . S
O26 Cd16 2.297 . S
O26 C21 1.247 . S
O27 Cd16 2.439 . S
O27 C21 1.208 . S
O28 Cd29 2.223 . S
O28 C36 1.315 . S
Cd29 O28 2.223 . S
Cd29 O32 2.297 . S
Cd29 O33 2.439 . S
Cd29 O39 2.240 . S
Cd30 O31 2.240 . S
Cd30 O38 2.223 . S
Cd30 O40 2.297 . S
Cd30 O41 2.439 . S
O31 Cd30 2.240 . S
O31 C36 1.279 . S
O32 Cd29 2.297 . S
O32 C34 1.247 . S
O33 Cd29 2.439 . S
O33 C34 1.208 . S
C34 O32 1.247 . S
C34 O33 1.208 . S
C35 O40 1.247 . S
C35 O41 1.208 . S
C36 O28 1.315 . S
C36 O31 1.279 . S
C37 O38 1.315 . S
C37 O39 1.279 . S
O38 Cd30 2.223 . S
O38 C37 1.315 . S
O39 Cd29 2.240 . S
O39 C37 1.279 . S
O40 Cd30 2.297 . S
O40 C35 1.247 . S
O41 Cd30 2.439 . S
O41 C35 1.208 . S
O42 Cd43 2.223 . S
O42 C50 1.315 . S
Cd43 O42 2.223 . S
Cd43 O46 2.297 . S
Cd43 O47 2.439 . S
Cd43 O53 2.240 . S
Cd44 O45 2.240 . S
Cd44 O52 2.223 . S
Cd44 O54 2.297 . S
Cd44 O55 2.439 . S
O45 Cd44 2.240 . S
O45 C50 1.279 . S
O46 Cd43 2.297 . S
O46 C48 1.247 . S
O47 Cd43 2.439 . S
O47 C48 1.208 . S
C48 O46 1.247 . S
C48 O47 1.208 . S
C49 O54 1.247 . S
C49 O55 1.208 . S
C50 O42 1.315 . S
C50 O45 1.279 . S
C51 O52 1.315 . S
C51 O53 1.279 . S
O52 Cd44 2.223 . S
O52 C51 1.315 . S
O53 Cd43 2.240 . S
O53 C51 1.279 . S
O54 Cd44 2.297 . S
O54 C49 1.247 . S
O55 Cd44 2.439 . S
O55 C49 1.208 . S
O56 Cd57 2.223 . S
O56 C64 1.315 . S
Cd57 O56 2.223 . S
Cd57 O60 2.297 . S
Cd57 O61 2.439 . S
Cd57 O67 2.240 . S
Cd58 O59 2.240 . S
Cd58 O66 2.223 . S
Cd58 O68 2.297 . S
Cd58 O69 2.439 . S
O59 Cd58 2.240 . S
O59 C64 1.279 . S
O60 Cd57 2.297 . S
O60 C62 1.247 . S
O61 Cd57 2.439 . S
O61 C62 1.208 . S
C62 O60 1.247 . S
C62 O61 1.208 . S
C63 O68 1.247 . S
C63 O69 1.208 . S
C64 O56 1.315 . S
C64 O59 1.279 . S
C65 O66 1.315 . S
C65 O67 1.279 . S
O66 Cd58 2.223 . S
O66 C65 1.315 . S
O67 Cd57 2.240 . S
O67 C65 1.279 . S
O68 Cd58 2.297 . S
O68 C63 1.247 . S
O69 Cd58 2.439 . S
O69 C63 1.208 . S
O70 Cd71 2.223 . S
O70 C78 1.315 . S
Cd71 O70 2.223 . S
Cd71 O74 2.297 . S
Cd71 O75 2.439 . S
Cd71 O81 2.240 . S
Cd72 O73 2.240 . S
Cd72 O80 2.223 . S
Cd72 O82 2.297 . S
Cd72 O83 2.439 . S
O73 Cd72 2.240 . S
O73 C78 1.279 . S
O74 Cd71 2.297 . S
O74 C76 1.247 . S
O75 Cd71 2.439 . S
O75 C76 1.208 . S
C76 O74 1.247 . S
C76 O75 1.208 . S
C77 O82 1.247 . S
C77 O83 1.208 . S
C78 O70 1.315 . S
C78 O73 1.279 . S
C79 O80 1.315 . S
C79 O81 1.279 . S
O80 Cd72 2.223 . S
O80 C79 1.315 . S
O81 Cd71 2.240 . S
O81 C79 1.279 . S
O82 Cd72 2.297 . S
O82 C77 1.247 . S
O83 Cd72 2.439 . S
O83 C77 1.208 . S
O84 Cd85 2.223 . S
O84 C92 1.315 . S
Cd85 O84 2.223 . S
Cd85 O88 2.297 . S
Cd85 O89 2.439 . S
Cd85 O95 2.240 . S
Cd86 O87 2.240 . S
Cd86 O94 2.223 . S
Cd86 O96 2.297 . S
Cd86 O97 2.439 . S
O87 Cd86 2.240 . S
O87 C92 1.279 . S
O88 Cd85 2.297 . S
O88 C90 1.247 . S
O89 Cd85 2.439 . S
O89 C90 1.208 . S
C90 O88 1.247 . S
C90 O89 1.208 . S
C91 O96 1.247 . S
C91 O97 1.208 . S
C92 O84 1.315 . S
C92 O87 1.279 . S
C93 O94 1.315 . S
C93 O95 1.279 . S
O94 Cd86 2.223 . S
O94 C93 1.315 . S
O95 Cd85 2.240 . S
O95 C93 1.279 . S
O96 Cd86 2.297 . S
O96 C91 1.247 . S
O97 Cd86 2.439 . S
O97 C91 1.208 . S
O98 Cd99 2.223 . S
O98 C106 1.315 . S
Cd99 O98 2.223 . S
Cd99 O102 2.297 . S
Cd99 O103 2.439 . S
Cd99 O109 2.240 . S
Cd100 O101 2.240 . S
Cd100 O108 2.223 . S
Cd100 O110 2.297 . S
Cd100 O111 2.439 . S
O101 Cd100 2.240 . S
O101 C106 1.279 . S
O102 Cd99 2.297 . S
O102 C104 1.247 . S
O103 Cd99 2.439 . S
O103 C104 1.208 . S
C104 O102 1.247 . S
C104 O103 1.208 . S
C105 O110 1.247 . S
C105 O111 1.208 . S
C106 O98 1.315 . S
C106 O101 1.279 . S
C107 O108 1.315 . S
C107 O109 1.279 . S
O108 Cd100 2.223 . S
O108 C107 1.315 . S
O109 Cd99 2.240 . S
O109 C107 1.279 . S
O110 Cd100 2.297 . S
O110 C105 1.247 . S
O111 Cd100 2.439 . S
O111 C105 1.208 . S
O112 Cd113 2.223 . S
O112 C120 1.315 . S
Cd113 O112 2.223 . S
Cd113 O116 2.297 . S
Cd113 O117 2.439 . S
Cd113 O123 2.240 . S
Cd114 O115 2.240 . S
Cd114 O122 2.223 . S
Cd114 O124 2.297 . S
Cd114 O125 2.439 . S
O115 Cd114 2.240 . S
O115 C120 1.279 . S
O116 Cd113 2.297 . S
O116 C118 1.247 . S
O117 Cd113 2.439 . S
O117 C118 1.208 . S
C118 O116 1.247 . S
C118 O117 1.208 . S
C119 O124 1.247 . S
C119 O125 1.208 . S
C120 O112 1.315 . S
C120 O115 1.279 . S
C121 O122 1.315 . S
C121 O123 1.279 . S
O122 Cd114 2.223 . S
O122 C121 1.315 . S
O123 Cd113 2.240 . S
O123 C121 1.279 . S
O124 Cd114 2.297 . S
O124 C119 1.247 . S
O125 Cd114 2.439 . S
O125 C119 1.208 . S
O126 Cd127 2.223 . S
O126 C134 1.315 . S
Cd127 O126 2.223 . S
Cd127 O130 2.297 . S
Cd127 O131 2.439 . S
Cd127 O137 2.240 . S
Cd128 O129 2.240 . S
Cd128 O136 2.223 . S
Cd128 O138 2.297 . S
Cd128 O139 2.439 . S
O129 Cd128 2.240 . S
O129 C134 1.279 . S
O130 Cd127 2.297 . S
O130 C132 1.247 . S
O131 Cd127 2.439 . S
O131 C132 1.208 . S
C132 O130 1.247 . S
C132 O131 1.208 . S
C133 O138 1.247 . S
C133 O139 1.208 . S
C134 O126 1.315 . S
C134 O129 1.279 . S
C135 O136 1.315 . S
C135 O137 1.279 . S
O136 Cd128 2.223 . S
O136 C135 1.315 . S
O137 Cd127 2.240 . S
O137 C135 1.279 . S
O138 Cd128 2.297 . S
O138 C133 1.247 . S
O139 Cd128 2.439 . S
O139 C133 1.208 . S
O140 Cd141 2.223 . S
O140 C148 1.315 . S
Cd141 O140 2.223 . S
Cd141 O144 2.297 . S
Cd141 O145 2.439 . S
Cd141 O151 2.240 . S
Cd142 O143 2.240 . S
Cd142 O150 2.223 . S
Cd142 O152 2.297 . S
Cd142 O153 2.439 . S
O143 Cd142 2.240 . S
O143 C148 1.279 . S
O144 Cd141 2.297 . S
O144 C146 1.247 . S
O145 Cd141 2.439 . S
O145 C146 1.208 . S
C146 O144 1.247 . S
C146 O145 1.208 . S
C147 O152 1.247 . S
C147 O153 1.208 . S
C148 O140 1.315 . S
C148 O143 1.279 . S
C149 O150 1.315 . S
C149 O151 1.279 . S
O150 Cd142 2.223 . S
O150 C149 1.315 . S
O151 Cd141 2.240 . S
O151 C149 1.279 . S
O152 Cd142 2.297 . S
O152 C147 1.247 . S
O153 Cd142 2.439 . S
O153 C147 1.208 . S
O154 Cd155 2.223 . S
O154 C162 1.315 . S
Cd155 O154 2.223 . S
Cd155 O158 2.297 . S
Cd155 O159 2.439 . S
Cd155 O165 2.240 . S
Cd156 O157 2.240 . S
Cd156 O164 2.223 . S
Cd156 O166 2.297 . S
Cd156 O167 2.439 . S
O157 Cd156 2.240 . S
O157 C162 1.279 . S
O158 Cd155 2.297 . S
O158 C160 1.247 . S
O159 Cd155 2.439 . S
O159 C160 1.208 . S
C160 O158 1.247 . S
C160 O159 1.208 . S
C161 O166 1.247 . S
C161 O167 1.208 . S
C162 O154 1.315 . S
C162 O157 1.279 . S
C163 O164 1.315 . S
C163 O165 1.279 . S
O164 Cd156 2.223 . S
O164 C163 1.315 . S
O165 Cd155 2.240 . S
O165 C163 1.279 . S
O166 Cd156 2.297 . S
O166 C161 1.247 . S
O167 Cd156 2.439 . S
O167 C161 1.208 . S
O168 Cd169 2.223 . S
O168 C176 1.315 . S
Cd169 O168 2.223 . S
Cd169 O172 2.297 . S
Cd169 O173 2.439 . S
Cd169 O179 2.240 . S
Cd170 O171 2.240 . S
Cd170 O178 2.223 . S
Cd170 O180 2.297 . S
Cd170 O181 2.439 . S
O171 Cd170 2.240 . S
O171 C176 1.279 . S
O172 Cd169 2.297 . S
O172 C174 1.247 . S
O173 Cd169 2.439 . S
O173 C174 1.208 . S
C174 O172 1.247 . S
C174 O173 1.208 . S
C175 O180 1.247 . S
C175 O181 1.208 . S
C176 O168 1.315 . S
C176 O171 1.279 . S
C177 O178 1.315 . S
C177 O179 1.279 . S
O178 Cd170 2.223 . S
O178 C177 1.315 . S
O179 Cd169 2.240 . S
O179 C177 1.279 . S
O180 Cd170 2.297 . S
O180 C175 1.247 . S
O181 Cd170 2.439 . S
O181 C175 1.208 . S
O182 Cd183 2.223 . S
O182 C190 1.315 . S
Cd183 O182 2.223 . S
Cd183 O186 2.297 . S
Cd183 O187 2.439 . S
Cd183 O193 2.240 . S
Cd184 O185 2.240 . S
Cd184 O192 2.223 . S
Cd184 O194 2.297 . S
Cd184 O195 2.439 . S
O185 Cd184 2.240 . S
O185 C190 1.279 . S
O186 Cd183 2.297 . S
O186 C188 1.247 . S
O187 Cd183 2.439 . S
O187 C188 1.208 . S
C188 O186 1.247 . S
C188 O187 1.208 . S
C189 O194 1.247 . S
C189 O195 1.208 . S
C190 O182 1.315 . S
C190 O185 1.279 . S
C191 O192 1.315 . S
C191 O193 1.279 . S
O192 Cd184 2.223 . S
O192 C191 1.315 . S
O193 Cd183 2.240 . S
O193 C191 1.279 . S
O194 Cd184 2.297 . S
O194 C189 1.247 . S
O195 Cd184 2.439 . S
O195 C189 1.208 . S
O196 Cd197 2.223 . S
O196 C204 1.315 . S
Cd197 O196 2.223 . S
Cd197 O200 2.297 . S
Cd197 O201 2.439 . S
Cd197 O207 2.240 . S
Cd198 O199 2.240 . S
Cd198 O206 2.223 . S
Cd198 O208 2.297 . S
Cd198 O209 2.439 . S
O199 Cd198 2.240 . S
O199 C204 1.279 . S
O200 Cd197 2.297 . S
O200 C202 1.247 . S
O201 Cd197 2.439 . S
O201 C202 1.208 . S
C202 O200 1.247 . S
C202 O201 1.208 . S
C203 O208 1.247 . S
C203 O209 1.208 . S
C204 O196 1.315 . S
C204 O199 1.279 . S
C205 O206 1.315 . S
C205 O207 1.279 . S
O206 Cd198 2.223 . S
O206 C205 1.315 . S
O207 Cd197 2.240 . S
O207 C205 1.279 . S
O208 Cd198 2.297 . S
O208 C203 1.247 . S
O209 Cd198 2.439 . S
O209 C203 1.208 . S
O210 Cd211 2.223 . S
O210 C218 1.315 . S
Cd211 O210 2.223 . S
Cd211 O214 2.297 . S
Cd211 O215 2.439 . S
Cd211 O221 2.240 . S
Cd212 O213 2.240 . S
Cd212 O220 2.223 . S
Cd212 O222 2.297 . S
Cd212 O223 2.439 . S
O213 Cd212 2.240 . S
O213 C218 1.279 . S
O214 Cd211 2.297 . S
O214 C216 1.247 . S
O215 Cd211 2.439 . S
O215 C216 1.208 . S
C216 O214 1.247 . S
C216 O215 1.208 . S
C217 O222 1.247 . S
C217 O223 1.208 . S
C218 O210 1.315 . S
C218 O213 1.279 . S
C219 O220 1.315 . S
C219 O221 1.279 . S
O220 Cd212 2.223 . S
O220 C219 1.315 . S
O221 Cd211 2.240 . S
O221 C219 1.279 . S
O222 Cd212 2.297 . S
O222 C217 1.247 . S
O223 Cd212 2.439 . S
O223 C217 1.208 . S
C224 C225 1.387 . S
C224 H228 0.950 . S
C224 C233 1.390 1_554 S
C225 C224 1.387 . S
C225 C227 1.387 1_554 S
H226 C233 0.950 . S
C227 C225 1.387 1_556 S
C227 C229 1.390 . S
C227 H231 0.950 . S
H228 C224 0.950 . S
C229 C227 1.390 . S
C229 C230 1.387 . S
C229 H232 0.950 . S
C230 C229 1.387 . S
C230 C233 1.387 . S
H231 C227 0.950 . S
H232 C229 0.950 . S
C233 C224 1.390 1_556 S
C233 H226 0.950 . S
C233 C230 1.387 . S
C234 C235 1.387 . S
C234 H238 0.950 . S
C234 C243 1.390 . S
C235 C234 1.387 . S
C235 C237 1.387 . S
H236 C243 0.950 . S
C237 C235 1.387 . S
C237 C239 1.390 . S
C237 H241 0.950 . S
H238 C234 0.950 . S
C239 C237 1.390 . S
C239 C240 1.387 . S
C239 H242 0.950 . S
C240 C239 1.387 . S
C240 C243 1.387 . S
H241 C237 0.950 . S
H242 C239 0.950 . S
C243 C234 1.390 . S
C243 H236 0.950 . S
C243 C240 1.387 . S
C244 C245 1.387 . S
C244 H248 0.950 . S
C244 C253 1.390 1_556 S
C245 C244 1.387 . S
C245 C247 1.387 1_556 S
H246 C253 0.949 . S
C247 C245 1.387 1_554 S
C247 C249 1.390 . S
C247 H251 0.950 . S
H248 C244 0.950 . S
C249 C247 1.390 . S
C249 C250 1.387 . S
C249 H252 0.950 . S
C250 C249 1.387 . S
C250 C253 1.387 . S
H251 C247 0.950 . S
H252 C249 0.950 . S
C253 C244 1.390 1_554 S
C253 H246 0.949 . S
C253 C250 1.387 . S
C254 C255 1.387 . S
C254 H258 0.950 . S
C254 C263 1.390 . S
C255 C254 1.387 . S
C255 C257 1.387 . S
H256 C263 0.950 . S
C257 C255 1.387 . S
C257 C259 1.390 . S
C257 H261 0.950 . S
H258 C254 0.950 . S
C259 C257 1.390 . S
C259 C260 1.387 . S
C259 H262 0.950 . S
C260 C259 1.387 . S
C260 C263 1.387 . S
H261 C257 0.950 . S
H262 C259 0.950 . S
C263 C254 1.390 . S
C263 H256 0.950 . S
C263 C260 1.387 . S
C264 C265 1.387 . S
C264 H268 0.950 . S
C264 C273 1.390 1_554 S
C265 C264 1.387 . S
C265 C267 1.387 1_554 S
H266 C273 0.952 . S
C267 C265 1.387 1_556 S
C267 C269 1.390 . S
C267 H271 0.950 . S
H268 C264 0.950 . S
C269 C267 1.390 . S
C269 C270 1.387 . S
C269 H272 0.950 . S
C270 C269 1.387 . S
C270 C273 1.387 . S
H271 C267 0.950 . S
H272 C269 0.950 . S
C273 C264 1.390 1_556 S
C273 H266 0.952 . S
C273 C270 1.387 . S
C274 C275 1.387 . S
C274 H278 0.950 . S
C274 C283 1.390 . S
C275 C274 1.387 . S
C275 C277 1.387 . S
H276 C283 0.950 . S
C277 C275 1.387 . S
C277 C279 1.390 . S
C277 H281 0.950 . S
H278 C274 0.950 . S
C279 C277 1.390 . S
C279 C280 1.387 . S
C279 H282 0.950 . S
C280 C279 1.387 . S
C280 C283 1.387 . S
H281 C277 0.950 . S
H282 C279 0.950 . S
C283 C274 1.390 . S
C283 H276 0.950 . S
C283 C280 1.387 . S
C284 C285 1.387 . S
C284 H288 0.950 . S
C284 C293 1.390 . S
C285 C284 1.387 . S
C285 C287 1.387 1_556 S
H286 C293 0.950 . S
C287 C285 1.387 1_554 S
C287 C289 1.390 . S
C287 H291 0.950 . S
H288 C284 0.950 . S
C289 C287 1.390 . S
C289 C290 1.387 . S
C289 H292 0.950 . S
C290 C289 1.387 . S
C290 C293 1.387 1_554 S
H291 C287 0.950 . S
H292 C289 0.950 . S
C293 C284 1.390 . S
C293 H286 0.950 . S
C293 C290 1.387 1_556 S
C294 C295 1.387 . S
C294 H298 0.950 . S
C294 C303 1.390 . S
C295 C294 1.387 . S
C295 C297 1.387 . S
H296 C303 0.950 . S
C297 C295 1.387 . S
C297 C299 1.390 . S
C297 H301 0.950 . S
H298 C294 0.950 . S
C299 C297 1.390 . S
C299 C300 1.387 . S
C299 H302 0.950 . S
C300 C299 1.387 . S
C300 C303 1.387 . S
H301 C297 0.950 . S
H302 C299 0.950 . S
C303 C294 1.390 . S
C303 H296 0.950 . S
C303 C300 1.387 . S
C304 C305 1.387 . S
C304 H308 0.950 . S
C304 C313 1.390 1_544 S
C305 C304 1.387 . S
C305 C307 1.387 . S
H306 C313 0.950 . S
C307 C305 1.387 . S
C307 C309 1.390 1_544 S
C307 H311 0.950 . S
H308 C304 0.950 . S
C309 C307 1.390 1_566 S
C309 C310 1.387 . S
C309 H312 0.950 . S
C310 C309 1.387 . S
C310 C313 1.387 . S
H311 C307 0.950 . S
H312 C309 0.950 . S
C313 C304 1.390 1_566 S
C313 H306 0.950 . S
C313 C310 1.387 . S
C314 C315 1.387 . S
C314 H318 0.950 . S
C314 C323 1.390 1_565 S
C315 C314 1.387 . S
C315 C317 1.387 . S
H316 C323 0.950 . S
C317 C315 1.387 . S
C317 C319 1.390 1_565 S
C317 H321 0.950 . S
H318 C314 0.950 . S
C319 C317 1.390 1_545 S
C319 C320 1.387 . S
C319 H322 0.950 . S
C320 C319 1.387 . S
C320 C323 1.387 . S
H321 C317 0.950 . S
H322 C319 0.950 . S
C323 C314 1.390 1_545 S
C323 H316 0.950 . S
C323 C320 1.387 . S
C324 C325 1.387 . S
C324 H328 0.950 . S
C324 C333 1.390 1_566 S
C325 C324 1.387 . S
C325 C327 1.387 . S
H326 C333 0.950 . S
C327 C325 1.387 . S
C327 C329 1.390 1_566 S
C327 H331 0.950 . S
H328 C324 0.950 . S
C329 C327 1.390 1_544 S
C329 C330 1.387 . S
C329 H332 0.950 . S
C330 C329 1.387 . S
C330 C333 1.387 . S
H331 C327 0.950 . S
H332 C329 0.950 . S
C333 C324 1.390 1_544 S
C333 H326 0.950 . S
C333 C330 1.387 . S
C334 C335 1.387 . S
C334 H338 0.950 . S
C334 C343 1.390 1_545 S
C335 C334 1.387 . S
C335 C337 1.387 . S
H336 C343 0.950 . S
C337 C335 1.387 . S
C337 C339 1.390 1_545 S
C337 H341 0.950 . S
H338 C334 0.950 . S
C339 C337 1.390 1_565 S
C339 C340 1.387 . S
C339 H342 0.950 . S
C340 C339 1.387 . S
C340 C343 1.387 . S
H341 C337 0.950 . S
H342 C339 0.950 . S
C343 C334 1.390 1_565 S
C343 H336 0.950 . S
C343 C340 1.387 . S
C344 C345 1.387 . S
C344 H348 0.950 . S
C344 C353 1.390 1_556 S
C345 C344 1.387 . S
C345 C347 1.387 . S
H346 C353 0.950 . S
C347 C345 1.387 . S
C347 C349 1.390 1_556 S
C347 H351 0.950 . S
H348 C344 0.950 . S
C349 C347 1.390 1_554 S
C349 C350 1.387 . S
C349 H352 0.950 . S
C350 C349 1.387 . S
C350 C353 1.387 . S
H351 C347 0.950 . S
H352 C349 0.950 . S
C353 C344 1.390 1_554 S
C353 H346 0.950 . S
C353 C350 1.387 . S
C354 C355 1.387 . S
C354 H358 0.950 . S
C354 C363 1.390 . S
C355 C354 1.387 . S
C355 C357 1.387 . S
H356 C363 0.950 . S
C357 C355 1.387 . S
C357 C359 1.390 . S
C357 H361 0.950 . S
H358 C354 0.950 . S
C359 C357 1.390 . S
C359 C360 1.387 . S
C359 H362 0.950 . S
C360 C359 1.387 . S
C360 C363 1.387 . S
H361 C357 0.950 . S
H362 C359 0.950 . S
C363 C354 1.390 . S
C363 H356 0.950 . S
C363 C360 1.387 . S
C364 C365 1.387 . S
C364 H368 0.950 . S
C364 C373 1.390 1_554 S
C365 C364 1.387 . S
C365 C367 1.387 . S
H366 C373 0.950 . S
C367 C365 1.387 . S
C367 C369 1.390 1_554 S
C367 H371 0.950 . S
H368 C364 0.950 . S
C369 C367 1.390 1_556 S
C369 C370 1.387 . S
C369 H372 0.950 . S
C370 C369 1.387 . S
C370 C373 1.387 . S
H371 C367 0.950 . S
H372 C369 0.950 . S
C373 C364 1.390 1_556 S
C373 H366 0.950 . S
C373 C370 1.387 . S
C374 C375 1.387 . S
C374 H378 0.950 . S
C374 C383 1.390 . S
C375 C374 1.387 . S
C375 C377 1.387 . S
H376 C383 0.950 . S
C377 C375 1.387 . S
C377 C379 1.390 . S
C377 H381 0.950 . S
H378 C374 0.950 . S
C379 C377 1.390 . S
C379 C380 1.387 . S
C379 H382 0.950 . S
C380 C379 1.387 . S
C380 C383 1.387 . S
H381 C377 0.950 . S
H382 C379 0.950 . S
C383 C374 1.390 . S
C383 H376 0.950 . S
C383 C380 1.387 . S
C384 C385 1.387 . S
C384 H388 0.950 . S
C384 C393 1.390 . S
C385 C384 1.387 . S
C385 C387 1.387 . S
H386 C393 0.950 . S
C387 C385 1.387 . S
C387 C389 1.390 . S
C387 H391 0.950 . S
H388 C384 0.950 . S
C389 C387 1.390 . S
C389 C390 1.387 . S
C389 H392 0.950 . S
C390 C389 1.387 . S
C390 C393 1.387 . S
H391 C387 0.950 . S
H392 C389 0.950 . S
C393 C384 1.390 . S
C393 H386 0.950 . S
C393 C390 1.387 . S
C394 C395 1.387 . S
C394 H398 0.950 . S
C394 C403 1.390 . S
C395 C394 1.387 . S
C395 C397 1.387 . S
H396 C403 0.950 . S
C397 C395 1.387 . S
C397 C399 1.390 . S
C397 H401 0.950 . S
H398 C394 0.950 . S
C399 C397 1.390 . S
C399 C400 1.387 . S
C399 H402 0.950 . S
C400 C399 1.387 . S
C400 C403 1.387 . S
H401 C397 0.950 . S
H402 C399 0.950 . S
C403 C394 1.390 . S
C403 H396 0.950 . S
C403 C400 1.387 . S
C404 C405 1.387 . S
C404 H408 0.950 . S
C404 C413 1.390 . S
C405 C404 1.387 . S
C405 C407 1.387 . S
H406 C413 0.950 . S
C407 C405 1.387 . S
C407 C409 1.390 . S
C407 H411 0.950 . S
H408 C404 0.950 . S
C409 C407 1.390 . S
C409 C410 1.387 . S
C409 H412 0.950 . S
C410 C409 1.387 . S
C410 C413 1.387 . S
H411 C407 0.950 . S
H412 C409 0.950 . S
C413 C404 1.390 . S
C413 H406 0.950 . S
C413 C410 1.387 . S
C414 C415 1.387 . S
C414 H418 0.950 . S
C414 C423 1.390 . S
C415 C414 1.387 . S
C415 C417 1.387 . S
H416 C423 0.950 . S
C417 C415 1.387 . S
C417 C419 1.390 . S
C417 H421 0.950 . S
H418 C414 0.950 . S
C419 C417 1.390 . S
C419 C420 1.387 . S
C419 H422 0.950 . S
C420 C419 1.387 . S
C420 C423 1.387 . S
H421 C417 0.950 . S
H422 C419 0.950 . S
C423 C414 1.390 . S
C423 H416 0.950 . S
C423 C420 1.387 . S
C424 C425 1.387 . S
C424 H428 0.950 . S
C424 C433 1.390 . S
C425 C424 1.387 . S
C425 C427 1.387 . S
H426 C433 0.950 . S
C427 C425 1.387 . S
C427 C429 1.390 . S
C427 H431 0.950 . S
H428 C424 0.950 . S
C429 C427 1.390 . S
C429 C430 1.387 . S
C429 H432 0.950 . S
C430 C429 1.387 . S
C430 C433 1.387 . S
H431 C427 0.950 . S
H432 C429 0.950 . S
C433 C424 1.390 . S
C433 H426 0.950 . S
C433 C430 1.387 . S
C434 C435 1.387 . S
C434 H438 0.950 . S
C434 C443 1.390 . S
C435 C434 1.387 . S
C435 C437 1.387 . S
H436 C443 0.950 . S
C437 C435 1.387 . S
C437 C439 1.390 . S
C437 H441 0.950 . S
H438 C434 0.950 . S
C439 C437 1.390 . S
C439 C440 1.387 . S
C439 H442 0.950 . S
C440 C439 1.387 . S
C440 C443 1.387 . S
H441 C437 0.950 . S
H442 C439 0.950 . S
C443 C434 1.390 . S
C443 H436 0.950 . S
C443 C440 1.387 . S
C444 C445 1.387 . S
C444 H448 0.950 . S
C444 C453 1.390 . S
C445 C444 1.387 . S
C445 C447 1.387 . S
H446 C453 0.950 . S
C447 C445 1.387 . S
C447 C449 1.390 . S
C447 H451 0.950 . S
H448 C444 0.950 . S
C449 C447 1.390 . S
C449 C450 1.387 . S
C449 H452 0.950 . S
C450 C449 1.387 . S
C450 C453 1.387 . S
H451 C447 0.950 . S
H452 C449 0.950 . S
C453 C444 1.390 . S
C453 H446 0.950 . S
C453 C450 1.387 . S
C454 C455 1.387 . S
C454 H458 0.950 . S
C454 C463 1.390 . S
C455 C454 1.387 . S
C455 C457 1.387 . S
H456 C463 0.950 . S
C457 C455 1.387 . S
C457 C459 1.390 . S
C457 H461 0.950 . S
H458 C454 0.950 . S
C459 C457 1.390 . S
C459 C460 1.387 . S
C459 H462 0.950 . S
C460 C459 1.387 . S
C460 C463 1.387 . S
H461 C457 0.950 . S
H462 C459 0.950 . S
C463 C454 1.390 . S
C463 H456 0.950 . S
C463 C460 1.387 . S
C464 C465 1.387 . S
C464 H468 0.950 . S
C464 C473 1.390 . S
C465 C464 1.387 . S
C465 C467 1.387 . S
H466 C473 0.950 . S
C467 C465 1.387 . S
C467 C469 1.390 . S
C467 H471 0.950 . S
H468 C464 0.950 . S
C469 C467 1.390 . S
C469 C470 1.387 . S
C469 H472 0.950 . S
C470 C469 1.387 . S
C470 C473 1.387 . S
H471 C467 0.950 . S
H472 C469 0.950 . S
C473 C464 1.390 . S
C473 H466 0.950 . S
C473 C470 1.387 . S
C474 C475 1.387 . S
C474 H478 0.950 . S
C474 C483 1.390 . S
C475 C474 1.387 . S
C475 C477 1.387 . S
H476 C483 0.950 . S
C477 C475 1.387 . S
C477 C479 1.390 . S
C477 H481 0.950 . S
H478 C474 0.950 . S
C479 C477 1.390 . S
C479 C480 1.387 . S
C479 H482 0.950 . S
C480 C479 1.387 . S
C480 C483 1.387 . S
H481 C477 0.950 . S
H482 C479 0.950 . S
C483 C474 1.390 . S
C483 H476 0.950 . S
C483 C480 1.387 . S
C484 C485 1.387 . S
C484 H488 0.950 . S
C484 C493 1.390 . S
C485 C484 1.387 . S
C485 C487 1.387 . S
H486 C493 0.950 . S
C487 C485 1.387 . S
C487 C489 1.390 . S
C487 H491 0.950 . S
H488 C484 0.950 . S
C489 C487 1.390 . S
C489 C490 1.387 . S
C489 H492 0.950 . S
C490 C489 1.387 . S
C490 C493 1.387 . S
H491 C487 0.950 . S
H492 C489 0.950 . S
C493 C484 1.390 . S
C493 H486 0.950 . S
C493 C490 1.387 . S
C494 C495 1.387 . S
C494 H498 0.950 . S
C494 C503 1.390 . S
C495 C494 1.387 . S
C495 C497 1.387 . S
H496 C503 0.950 . S
C497 C495 1.387 . S
C497 C499 1.390 . S
C497 H501 0.950 . S
H498 C494 0.950 . S
C499 C497 1.390 . S
C499 C500 1.387 . S
C499 H502 0.950 . S
C500 C499 1.387 . S
C500 C503 1.387 . S
H501 C497 0.950 . S
H502 C499 0.950 . S
C503 C494 1.390 . S
C503 H496 0.950 . S
C503 C500 1.387 . S
C504 C505 1.387 . S
C504 H508 0.950 . S
C504 C513 1.390 . S
C505 C504 1.387 . S
C505 C507 1.387 . S
H506 C513 0.950 . S
C507 C505 1.387 . S
C507 C509 1.390 . S
C507 H511 0.950 . S
H508 C504 0.950 . S
C509 C507 1.390 . S
C509 C510 1.387 . S
C509 H512 0.950 . S
C510 C509 1.387 . S
C510 C513 1.387 . S
H511 C507 0.950 . S
H512 C509 0.950 . S
C513 C504 1.390 . S
C513 H506 0.950 . S
C513 C510 1.387 . S
C514 C515 1.387 . S
C514 H518 0.950 . S
C514 C523 1.390 . S
C515 C514 1.387 . S
C515 C517 1.387 . S
H516 C523 0.950 . S
C517 C515 1.387 . S
C517 C519 1.390 . S
C517 H521 0.950 . S
H518 C514 0.950 . S
C519 C517 1.390 . S
C519 C520 1.387 . S
C519 H522 0.950 . S
C520 C519 1.387 . S
C520 C523 1.387 . S
H521 C517 0.950 . S
H522 C519 0.950 . S
C523 C514 1.390 . S
C523 H516 0.950 . S
C523 C520 1.387 . S
C524 C525 1.387 . S
C524 H528 0.950 . S
C524 C533 1.390 . S
C525 C524 1.387 . S
C525 C527 1.387 . S
H526 C533 0.950 . S
C527 C525 1.387 . S
C527 C529 1.390 . S
C527 H531 0.950 . S
H528 C524 0.950 . S
C529 C527 1.390 . S
C529 C530 1.387 . S
C529 H532 0.950 . S
C530 C529 1.387 . S
C530 C533 1.387 . S
H531 C527 0.950 . S
H532 C529 0.950 . S
C533 C524 1.390 . S
C533 H526 0.950 . S
C533 C530 1.387 . S
C534 C535 1.387 . S
C534 H538 0.950 . S
C534 C543 1.390 . S
C535 C534 1.387 . S
C535 C537 1.387 . S
H536 C543 0.950 . S
C537 C535 1.387 . S
C537 C539 1.390 . S
C537 H541 0.950 . S
H538 C534 0.950 . S
C539 C537 1.390 . S
C539 C540 1.387 . S
C539 H542 0.950 . S
C540 C539 1.387 . S
C540 C543 1.387 . S
H541 C537 0.950 . S
H542 C539 0.950 . S
C543 C534 1.390 . S
C543 H536 0.950 . S
C543 C540 1.387 . S
C225 C6 1.604 . S
C230 C176 1.688 . S
C235 C190 1.688 . S
C240 C20 1.604 . S
C245 C34 1.604 . S
C250 C204 1.688 . S
C255 C218 1.688 . S
C260 C48 1.602 . S
C265 C118 1.604 . S
C270 C64 1.688 . S
C275 C78 1.688 . S
C280 C132 1.602 . S
C285 C146 1.605 . S
C290 C92 1.688 . S
C295 C106 1.688 . S
C300 C160 1.602 . S
C305 C7 1.618 . S
C310 C35 1.618 . S
C315 C21 1.618 . S
C320 C49 1.618 . S
C325 C63 1.421 . S
C330 C91 1.421 . S
C335 C77 1.424 . S
C340 C105 1.424 . S
C345 C147 1.614 . S
C350 C119 1.614 . S
C355 C133 1.614 . S
C360 C161 1.614 . S
C365 C203 1.421 . S
C370 C175 1.421 . S
C375 C189 1.425 . S
C380 C217 1.425 . S
C385 C93 1.572 . S
C390 C9 1.606 . S
C395 C107 1.572 1_455 S
C400 C23 1.606 . S
C405 C37 1.606 . S
C410 C65 1.570 . S
C415 C51 1.606 . S
C420 C79 1.571 1_455 S
C425 C205 1.570 1_655 S
C430 C121 1.606 . S
C435 C135 1.606 . S
C440 C219 1.570 . S
C445 C177 1.571 1_655 S
C450 C149 1.606 . S
C455 C163 1.606 . S
C460 C191 1.570 . S
C465 C8 1.600 . S
C470 C50 1.600 . S
C475 C36 1.601 . S
C480 C22 1.601 . S
C485 C62 1.514 . S
C490 C104 1.514 . S
C495 C76 1.514 . S
C500 C90 1.514 . S
C505 C162 1.600 . S
C510 C120 1.600 . S
C515 C134 1.600 . S
C520 C148 1.600 . S
C525 C216 1.516 . S
C530 C174 1.516 . S
C535 C188 1.514 . S
C540 C202 1.514 . S
