# Generated by pormake.
# Topology hjm, (4)-cn, num edge types: 1
# Building blocks:
#     Node 0, Type 0, BuildingBlock: QUQFOY_clean_sbu_3, # of connection points: 4
#     Node 1, Type 0, BuildingBlock: QUQFOY_clean_sbu_3, # of connection points: 4
#     Node 2, Type 0, BuildingBlock: QUQFOY_clean_sbu_3, # of connection points: 4
#     Node 3, Type 0, BuildingBlock: QUQFOY_clean_sbu_3, # of connection points: 4
#     Node 4, Type 0, BuildingBlock: QUQFOY_clean_sbu_3, # of connection points: 4
#     Node 5, Type 0, BuildingBlock: QUQFOY_clean_sbu_3, # of connection points: 4
#     Node 6, Type 0, BuildingBlock: QUQFOY_clean_sbu_3, # of connection points: 4
#     Node 7, Type 0, BuildingBlock: QUQFOY_clean_sbu_3, # of connection points: 4
#     Edge 8, Type (0, 0), BuildingBlock: CIFDUS_clean_linker_0, # of connection points: 2
#     Edge 9, Type (0, 0), BuildingBlock: CIFDUS_clean_linker_0, # of connection points: 2
#     Edge 10, Type (0, 0), BuildingBlock: CIFDUS_clean_linker_0, # of connection points: 2
#     Edge 11, Type (0, 0), BuildingBlock: CIFDUS_clean_linker_0, # of connection points: 2
#     Edge 12, Type (0, 0), BuildingBlock: CIFDUS_clean_linker_0, # of connection points: 2
#     Edge 13, Type (0, 0), BuildingBlock: CIFDUS_clean_linker_0, # of connection points: 2
#     Edge 14, Type (0, 0), BuildingBlock: CIFDUS_clean_linker_0, # of connection points: 2
#     Edge 15, Type (0, 0), BuildingBlock: CIFDUS_clean_linker_0, # of connection points: 2
#     Edge 16, Type (0, 0), BuildingBlock: CIFDUS_clean_linker_0, # of connection points: 2
#     Edge 17, Type (0, 0), BuildingBlock: CIFDUS_clean_linker_0, # of connection points: 2
#     Edge 18, Type (0, 0), BuildingBlock: CIFDUS_clean_linker_0, # of connection points: 2
#     Edge 19, Type (0, 0), BuildingBlock: CIFDUS_clean_linker_0, # of connection points: 2
#     Edge 20, Type (0, 0), BuildingBlock: CIFDUS_clean_linker_0, # of connection points: 2
#     Edge 21, Type (0, 0), BuildingBlock: CIFDUS_clean_linker_0, # of connection points: 2
#     Edge 22, Type (0, 0), BuildingBlock: CIFDUS_clean_linker_0, # of connection points: 2
#     Edge 23, Type (0, 0), BuildingBlock: CIFDUS_clean_linker_0, # of connection points: 2
# Relax obj value: 0.092
# Max RMSD: 0.136
# Mean RMSD: 0.136
data_MOF--net-hjm--node1-QUQFOY_clean_sbu_3--edge1-CIFDUS_clean_linker_0
_symmetry_space_group_name_H-M    P1
_symmetry_Int_Tables_number       1
_symmetry_cell_setting            triclinic
loop_
_symmetry_equiv_pos_as_xyz
'x, y, z'
_cell_length_a     24.169371
_cell_length_b     20.753935
_cell_length_c     23.601159
_cell_angle_alpha  90.115665
_cell_angle_beta   59.831047
_cell_angle_gamma 89.840356
loop_
_atom_site_label
_atom_site_type_symbol
_atom_site_fract_x
_atom_site_fract_y
_atom_site_fract_z
_atom_type_partial_charge
C0 C 0.20993 0.30632 0.17906 0.0
O1 O 0.21004 0.3644 0.19604 0.0
Cd2 Cd 0.18687 0.39576 0.30257 0.0
O3 O 0.19606 0.26033 0.21981 0.0
Cd4 Cd 0.16397 0.24624 0.33654 0.0
C5 C 0.30566 0.31005 0.30681 0.0
O6 O 0.0907 0.33571 0.36938 0.0
O7 O 0.10457 0.29727 0.44593 0.0
O8 O 0.09793 0.15376 0.34374 0.0
C9 C 0.07336 0.33446 0.42951 0.0
O10 O 0.2845 0.36549 0.30399 0.0
C11 C 0.11667 0.11864 0.37496 0.0
O12 O 0.27194 0.26008 0.31603 0.0
O13 O 0.15919 0.14208 0.38539 0.0
C14 C 0.79967 0.29261 0.29266 0.0
O15 O 0.80977 0.34929 0.26953 0.0
Cd16 Cd 0.82151 0.37671 0.16643 0.0
O17 O 0.79727 0.24493 0.25971 0.0
Cd18 Cd 0.80782 0.22346 0.15141 0.0
C19 C 0.67653 0.3176 0.19683 0.0
O20 O 0.894 0.29751 0.09315 0.0
O21 O 0.84878 0.2654 0.03971 0.0
O22 O 0.86999 0.12597 0.13746 0.0
C23 C 0.89396 0.29632 0.03967 0.0
O24 O 0.71241 0.36625 0.18631 0.0
C25 C 0.83982 0.09086 0.11798 0.0
O26 O 0.69841 0.26047 0.19074 0.0
O27 O 0.79159 0.11626 0.11863 0.0
C28 C 0.88953 0.61773 0.67835 0.0
O29 O 0.909 0.64078 0.71503 0.0
Cd30 Cd 0.88268 0.74422 0.76213 0.0
O31 O 0.85161 0.64993 0.66599 0.0
Cd32 Cd 0.7932 0.75618 0.70123 0.0
C33 C 0.93324 0.83549 0.62277 0.0
O34 O 0.76934 0.74298 0.81085 0.0
O35 O 0.75554 0.84016 0.78946 0.0
O36 O 0.6995 0.70344 0.70829 0.0
C37 C 0.74709 0.7984 0.83212 0.0
O38 O 0.94076 0.81818 0.67022 0.0
C39 C 0.68066 0.75263 0.69069 0.0
O40 O 0.8844 0.81745 0.61991 0.0
O41 O 0.71708 0.80141 0.67265 0.0
C42 C 0.09119 0.5962 0.83356 0.0
O43 O 0.06024 0.61972 0.8081 0.0
Cd44 Cd 0.08278 0.71895 0.75381 0.0
O45 O 0.13854 0.62626 0.83085 0.0
Cd46 Cd 0.19772 0.72832 0.77974 0.0
C47 C 0.06569 0.81706 0.87909 0.0
O48 O 0.19501 0.70372 0.68225 0.0
O49 O 0.22803 0.79955 0.68313 0.0
O50 O 0.29181 0.66793 0.7638 0.0
C51 C 0.22164 0.75416 0.6509 0.0
O52 O 0.04392 0.79832 0.8427 0.0
C53 C 0.32034 0.71653 0.76962 0.0
O54 O 0.12018 0.79768 0.86824 0.0
O55 O 0.29055 0.76992 0.78313 0.0
C56 C 0.68195 0.80644 0.19478 0.0
O57 O 0.67681 0.86306 0.21741 0.0
Cd58 Cd 0.67735 0.88315 0.31614 0.0
O59 O 0.68696 0.75776 0.22486 0.0
Cd60 Cd 0.68849 0.72717 0.32508 0.0
C61 C 0.82429 0.81424 0.27228 0.0
O62 O 0.60597 0.80289 0.38778 0.0
O63 O 0.6501 0.763 0.43941 0.0
O64 O 0.62569 0.63471 0.32714 0.0
C65 C 0.60634 0.79801 0.44086 0.0
O66 O 0.78915 0.8642 0.28501 0.0
C67 C 0.65159 0.59487 0.34755 0.0
O68 O 0.80054 0.75796 0.28003 0.0
O69 O 0.69757 0.61575 0.35392 0.0
C70 C 0.29671 0.83027 0.28857 0.0
O71 O 0.29595 0.88414 0.26358 0.0
Cd72 Cd 0.31632 0.89474 0.15439 0.0
O73 O 0.3091 0.77818 0.25527 0.0
Cd74 Cd 0.33626 0.74357 0.14313 0.0
C75 C 0.19425 0.80129 0.16689 0.0
O76 O 0.41109 0.8301 0.09287 0.0
O77 O 0.38964 0.77829 0.02727 0.0
O78 O 0.40678 0.65708 0.14138 0.0
C79 C 0.42457 0.81891 0.03468 0.0
O80 O 0.21738 0.85768 0.15987 0.0
C81 C 0.3854 0.61491 0.11827 0.0
O82 O 0.22663 0.75231 0.16555 0.0
O83 O 0.33876 0.63176 0.11113 0.0
C84 C 0.41465 0.09994 0.65098 0.0
O85 O 0.43993 0.11928 0.68381 0.0
Cd86 Cd 0.42219 0.22212 0.73227 0.0
O87 O 0.37538 0.13562 0.64394 0.0
Cd88 Cd 0.32171 0.24284 0.68106 0.0
C89 C 0.4664 0.31352 0.59306 0.0
O90 O 0.30893 0.22808 0.78691 0.0
O91 O 0.28861 0.32462 0.76992 0.0
O92 O 0.23058 0.18429 0.68953 0.0
C93 C 0.28803 0.28348 0.8098 0.0
O94 O 0.47683 0.29332 0.63779 0.0
C95 C 0.20474 0.23255 0.679 0.0
O96 O 0.414 0.30068 0.59478 0.0
O97 O 0.23527 0.28531 0.66528 0.0
C98 C 0.62887 0.11087 0.82442 0.0
O99 O 0.60099 0.12713 0.79317 0.0
Cd100 Cd 0.61049 0.22761 0.74322 0.0
O101 O 0.66796 0.14898 0.82897 0.0
Cd102 Cd 0.71661 0.25712 0.7833 0.0
C103 C 0.57155 0.32748 0.87588 0.0
O104 O 0.72328 0.23631 0.68071 0.0
O105 O 0.74059 0.33521 0.69348 0.0
O106 O 0.81857 0.21117 0.76118 0.0
C107 C 0.74096 0.2914 0.65582 0.0
O108 O 0.55766 0.30321 0.83498 0.0
C109 C 0.83843 0.26165 0.77566 0.0
O110 O 0.62602 0.31701 0.87041 0.0
O111 O 0.79971 0.30893 0.79816 0.0
H112 H 0.1422 0.03963 0.45043 0.0
H113 H 0.01963 0.05963 0.36729 0.0
H114 H 0.95519 0.96884 0.43262 0.0
H115 H 0.9264 0.89275 0.52266 0.0
H116 H 0.04708 0.87599 0.60846 0.0
H117 H 0.11963 0.95634 0.53246 0.0
C118 C 0.10198 0.02355 0.44579 0.0
C119 C 0.08517 0.05694 0.40479 0.0
C120 C 0.06425 0.97244 0.48464 0.0
C121 C 0.03329 0.03508 0.3989 0.0
C122 C 0.99622 0.98336 0.43649 0.0
C123 C 0.96887 0.90615 0.52437 0.0
C124 C 0.98052 0.87916 0.57208 0.0
C125 C 0.01001 0.95315 0.48112 0.0
C126 C 0.03627 0.89666 0.573 0.0
C127 C 0.07792 0.9426 0.52947 0.0
H128 H 0.94177 0.854 0.92695 0.0
H129 H 0.10301 0.88074 0.95594 0.0
H130 H 0.04281 0.96134 0.04059 0.0
H131 H 0.94936 0.03263 0.09703 0.0
H132 H 0.78908 0.00767 0.06624 0.0
H133 H 0.84337 0.9168 -0.00705 0.0
C134 C 0.96375 0.8772 0.95192 0.0
C135 C 0.02739 0.86224 0.93401 0.0
C136 C 0.92899 0.92378 0.00035 0.0
C137 C 0.05448 0.89187 0.968 0.0
C138 C 0.02005 0.93798 0.01651 0.0
C139 C 0.92574 0.00661 0.07528 0.0
C140 C 0.86571 0.02766 0.08625 0.0
C141 C 0.95794 0.95552 0.03181 0.0
C142 C 0.83554 0.99292 0.05816 0.0
C143 C 0.86677 0.9412 0.01584 0.0
H144 H 0.46018 0.37054 0.4921 0.0
H145 H 0.58361 0.34746 0.5741 0.0
H146 H 0.65835 0.42502 0.49633 0.0
H147 H 0.68086 0.51039 0.4163 0.0
H148 H 0.55622 0.53655 0.33641 0.0
H149 H 0.49116 0.44558 0.40048 0.0
C150 C 0.50374 0.38191 0.49253 0.0
C151 C 0.5152 0.3544 0.54016 0.0
C152 C 0.54644 0.42729 0.44803 0.0
C153 C 0.57265 0.36884 0.53903 0.0
C154 C 0.61568 0.41317 0.4944 0.0
C155 C 0.64029 0.49536 0.41178 0.0
C156 C 0.62262 0.53105 0.37277 0.0
C157 C 0.6019 0.44438 0.45033 0.0
C158 C 0.57031 0.51047 0.3669 0.0
C159 C 0.5328 0.45868 0.40386 0.0
H160 H 0.35403 0.52131 0.05929 0.0
H161 H 0.49342 0.57003 0.11544 0.0
H162 H 0.56118 0.48024 0.0499 0.0
H163 H 0.58722 0.39768 0.96492 0.0
H164 H 0.44863 0.3525 0.90639 0.0
H165 H 0.37432 0.4309 0.98467 0.0
C166 C 0.39867 0.51164 0.05823 0.0
C167 C 0.41909 0.55296 0.09136 0.0
C168 C 0.43818 0.4612 0.01899 0.0
C169 C 0.47677 0.53928 0.08998 0.0
C170 C 0.51579 0.48818 0.05211 0.0
C171 C 0.54054 0.40448 0.96973 0.0
C172 C 0.52426 0.37011 0.9287 0.0
C173 C 0.49811 0.45045 0.01438 0.0
C174 C 0.4631 0.37902 0.93636 0.0
C175 C 0.42037 0.42384 0.98127 0.0
H176 H 0.99864 0.35907 0.02369 0.0
H177 H 0.87891 0.33466 0.93772 0.0
H178 H 0.93377 0.4233 0.8626 0.0
H179 H 0.00852 0.51266 0.82828 0.0
H180 H 0.12694 0.53981 0.91542 0.0
H181 H 0.08114 0.44313 0.98181 0.0
C182 C 0.98537 0.37246 0.98767 0.0
C183 C 0.93419 0.34129 0.98686 0.0
C184 C 0.01696 0.42346 0.94479 0.0
C185 C 0.91794 0.35826 0.9395 0.0
C186 C 0.94925 0.40888 0.89656 0.0
C187 C 0.02467 0.49741 0.86155 0.0
C188 C 0.07001 0.53411 0.86805 0.0
C189 C 0.9976 0.44273 0.89999 0.0
C190 C 0.09154 0.51275 0.91012 0.0
C191 C 0.06528 0.45763 0.94816 0.0
H192 H 0.0492 0.36621 0.55151 0.0
H193 H 0.9902 0.4066 0.41029 0.0
H194 H 0.92049 0.49321 0.47976 0.0
H195 H 0.88677 0.56573 0.57385 0.0
H196 H 0.95038 0.52819 0.71206 0.0
H197 H 0.00759 0.43245 0.65056 0.0
C198 C 0.0205 0.39349 0.53636 0.0
C199 C 0.02567 0.38095 0.47547 0.0
C200 C 0.98177 0.44423 0.5757 0.0
C201 C 0.9878 0.4162 0.45661 0.0
C202 C 0.94792 0.46571 0.49626 0.0
C203 C 0.91216 0.53593 0.59116 0.0
C204 C 0.91514 0.55468 0.64674 0.0
C205 C 0.94611 0.48148 0.5549 0.0
C206 C 0.94809 0.51541 0.66876 0.0
C207 C 0.98079 0.4605 0.63375 0.0
H208 H 0.57219 0.00967 0.80209 0.0
H209 H 0.64454 0.07348 0.92679 0.0
H210 H 0.59372 0.98158 -0.00084 0.0
H211 H 0.51526 0.89404 0.03537 0.0
H212 H 0.44028 0.83272 0.91223 0.0
H213 H 0.5063 0.91278 0.83024 0.0
C214 C 0.5776 0.00306 0.84465 0.0
C215 C 0.61059 0.04918 0.86013 0.0
C216 C 0.54718 0.95118 0.88658 0.0
C217 C 0.61872 0.03905 0.91431 0.0
C218 C 0.58935 0.98678 0.95589 0.0
C219 C 0.51392 0.89775 -0.00977 0.0
C220 C 0.47171 0.85898 0.98053 0.0
C221 C 0.55123 0.9443 0.94392 0.0
C222 C 0.47166 0.86283 0.92118 0.0
C223 C 0.50928 0.90861 0.8744 0.0
H224 H 0.49946 0.86023 0.46314 0.0
H225 H 0.62729 0.83601 0.53945 0.0
H226 H 0.57468 0.92543 0.61573 0.0
H227 H 0.49944 0.01564 0.65309 0.0
H228 H 0.37434 0.04252 0.57354 0.0
H229 H 0.41762 0.94497 0.50747 0.0
C230 C 0.51496 0.87378 0.49741 0.0
C231 C 0.56763 0.8425 0.49522 0.0
C232 C 0.48485 0.92521 0.54064 0.0
C233 C 0.5869 0.85965 0.54022 0.0
C234 C 0.55694 0.91076 0.58368 0.0
C235 C 0.48107 -3e-05 0.62182 0.0
C236 C 0.43452 0.03697 0.61737 0.0
C237 C 0.50697 0.94477 0.58312 0.0
C238 C 0.41069 0.01536 0.5773 0.0
C239 C 0.43544 0.95965 0.53947 0.0
H240 H 0.28898 0.72414 0.35854 0.0
H241 H 0.2737 0.9316 0.37243 0.0
H242 H 0.25184 0.92715 0.48526 0.0
H243 H 0.23579 0.86362 0.58087 0.0
H244 H 0.24704 0.65612 0.56619 0.0
H245 H 0.27236 0.66148 0.45266 0.0
C246 C 0.28104 0.76849 0.38605 0.0
C247 C 0.28326 0.828 0.35693 0.0
C248 C 0.268 0.76563 0.45084 0.0
C249 C 0.27245 0.88499 0.39359 0.0
C250 C 0.25999 0.88256 0.45814 0.0
C251 C 0.24426 0.8198 0.55248 0.0
C252 C 0.23963 0.75965 0.58162 0.0
C253 C 0.25763 0.82309 0.48732 0.0
C254 C 0.25006 0.70303 0.54476 0.0
C255 C 0.26456 0.70597 0.47986 0.0
H256 H 0.70771 0.71429 0.93007 0.0
H257 H 0.73427 0.91779 0.88856 0.0
H258 H 0.71133 0.93916 0.00069 0.0
H259 H 0.69477 0.8977 0.10609 0.0
H260 H 0.67214 0.69282 0.14333 0.0
H261 H 0.68289 0.67424 0.03652 0.0
C262 C 0.708 0.76347 0.94566 0.0
C263 C 0.72383 0.81429 0.90116 0.0
C264 C 0.69619 0.77494 0.00897 0.0
C265 C 0.7227 0.87787 0.92212 0.0
C266 C 0.70994 0.88997 0.98595 0.0
C267 C 0.6915 0.8491 0.09108 0.0
C268 C 0.68349 0.79661 0.13222 0.0
C269 C 0.69843 0.83856 0.02914 0.0
C270 C 0.67916 0.73394 0.11225 0.0
C271 C 0.68511 0.72323 0.05128 0.0
H272 H 0.80184 0.38242 0.37579 0.0
H273 H 0.77263 0.17934 0.35947 0.0
H274 H 0.75204 0.1621 0.47039 0.0
H275 H 0.74167 0.20403 0.57136 0.0
H276 H 0.7718 0.40622 0.58934 0.0
H277 H 0.79309 0.42446 0.47755 0.0
C278 C 0.79123 0.33432 0.39635 0.0
C279 C 0.78888 0.28221 0.35928 0.0
C280 C 0.77957 0.32462 0.46018 0.0
C281 C 0.77487 0.22027 0.38679 0.0
C282 C 0.76301 0.21033 0.45024 0.0
C283 C 0.75287 0.25222 0.551 0.0
C284 C 0.75486 0.3038 0.58854 0.0
C285 C 0.76512 0.26212 0.48724 0.0
C286 C 0.76977 0.36581 0.56133 0.0
C287 C 0.78194 0.37619 0.49754 0.0
H288 H 0.22051 0.39166 0.08691 0.0
H289 H 0.23411 0.18881 0.11948 0.0
H290 H 0.2592 0.16473 0.00795 0.0
H291 H 0.27697 0.2007 0.90218 0.0
H292 H 0.26115 0.40259 0.86867 0.0
H293 H 0.23668 0.42772 0.98046 0.0
C294 C 0.22907 0.34218 0.06959 0.0
C295 C 0.22549 0.29208 0.11142 0.0
C296 C 0.24282 0.32855 0.00564 0.0
C297 C 0.23637 0.22823 0.08837 0.0
C298 C 0.25076 0.21439 0.02463 0.0
C299 C 0.2682 0.2503 0.91921 0.0
C300 C 0.27118 0.29981 0.87731 0.0
C301 C 0.25398 0.26412 0.98305 0.0
C302 C 0.25918 0.3637 0.90017 0.0
C303 C 0.24534 0.37803 0.9639 0.0
H304 H 0.3965 0.40323 0.27267 0.0
H305 H 0.36404 0.19945 0.31217 0.0
H306 H 0.47541 0.18422 0.28213 0.0
H307 H 0.58289 0.2274 0.24055 0.0
H308 H 0.61613 0.43108 0.20174 0.0
H309 H 0.50362 0.44744 0.23556 0.0
C310 C 0.41357 0.35558 0.27533 0.0
C311 C 0.37183 0.30258 0.2944 0.0
C312 C 0.478 0.34692 0.25756 0.0
C313 C 0.39498 0.24117 0.29748 0.0
C314 C 0.4588 0.23228 0.28014 0.0
C315 C 0.56567 0.27541 0.23934 0.0
C316 C 0.60816 0.32772 0.21789 0.0
C317 C 0.5009 0.2846 0.25925 0.0
C318 C 0.58465 0.38976 0.21757 0.0
C319 C 0.52023 0.39924 0.23702 0.0
H320 H 0.60086 0.65278 0.70836 0.0
H321 H 0.61422 0.86008 0.6943 0.0
H322 H 0.50267 0.86717 0.72173 0.0
H323 H 0.40168 0.81502 0.74897 0.0
H324 H 0.38825 0.60766 0.7603 0.0
H325 H 0.4997 0.60014 0.73399 0.0
C326 C 0.57961 0.69942 0.7103 0.0
C327 C 0.61596 0.75573 0.69878 0.0
C328 C 0.51552 0.70324 0.72553 0.0
C329 C 0.58766 0.81589 0.70193 0.0
C330 C 0.52376 0.82007 0.71795 0.0
C331 C 0.42296 0.76818 0.74618 0.0
C332 C 0.38662 0.71202 0.75708 0.0
C333 C 0.48725 0.76415 0.72995 0.0
C334 C 0.41518 0.65165 0.75235 0.0
C335 C 0.47894 0.64729 0.7371 0.0
H336 H 0.10895 0.89459 0.17985 0.0
H337 H 0.12946 0.68829 0.18576 0.0
H338 H 0.01761 0.67405 0.21693 0.0
H339 H 0.91271 0.72015 0.24733 0.0
H340 H 0.89208 0.92651 0.24201 0.0
H341 H 0.00518 0.94041 0.20562 0.0
C342 C 0.08919 0.84644 0.18746 0.0
C343 C 0.12769 0.79269 0.18074 0.0
C344 C 0.02459 0.8385 0.20591 0.0
C345 C 0.10106 0.73065 0.19073 0.0
C346 C 0.03697 0.72239 0.20872 0.0
C347 C 0.9329 0.76819 0.23807 0.0
C348 C 0.89359 0.82214 0.24813 0.0
C349 C 0.99807 0.776 0.21729 0.0
C350 C 0.92089 0.88402 0.2354 0.0
C351 C 0.9857 0.89211 0.21444 0.0
H352 H 0.11891 0.3299 0.71034 0.0
H353 H 0.14351 0.12534 0.67253 0.0
H354 H 0.03189 0.11612 0.7001 0.0
H355 H 0.92666 0.16563 0.73792 0.0
H356 H 0.90079 0.36955 0.77985 0.0
H357 H 0.01344 0.37939 0.74833 0.0
C358 C 0.10002 0.2835 0.70725 0.0
C359 C 0.13946 0.22847 0.68887 0.0
C360 C 0.03534 0.27824 0.72499 0.0
C361 C 0.11408 0.16843 0.6863 0.0
C362 C 0.05023 0.16307 0.70235 0.0
C363 C 0.94551 0.21218 0.74062 0.0
C364 C 0.90522 0.26665 0.76168 0.0
C365 C 0.01023 0.21752 0.72254 0.0
C366 C 0.93052 0.32667 0.7646 0.0
C367 C 0.99503 0.33244 0.74619 0.0
loop_
_geom_bond_atom_site_label_1
_geom_bond_atom_site_label_2
_geom_bond_distance
_geom_bond_site_symmetry_2
_ccdc_geom_bond_type
C0 O1 1.306 . S
C0 O3 1.160 . S
O1 C0 1.306 . S
O1 Cd2 2.228 . S
Cd2 O1 2.228 . S
Cd2 O6 2.273 . S
Cd2 O10 2.277 . S
O3 C0 1.160 . S
O3 Cd4 2.203 . S
Cd4 O3 2.203 . S
Cd4 O6 2.411 . S
Cd4 O7 2.333 . S
Cd4 O8 2.352 . S
Cd4 O12 2.277 . S
Cd4 O13 2.356 . S
C5 O10 1.209 . S
C5 O12 1.226 . S
O6 Cd2 2.273 . S
O6 Cd4 2.411 . S
O6 C9 1.320 . S
O7 Cd4 2.333 . S
O7 C9 1.214 . S
O8 Cd4 2.352 . S
O8 C11 1.258 . S
C9 O6 1.320 . S
C9 O7 1.214 . S
O10 Cd2 2.277 . S
O10 C5 1.209 . S
C11 O8 1.258 . S
C11 O13 1.282 . S
O12 Cd4 2.277 . S
O12 C5 1.226 . S
O13 Cd4 2.356 . S
O13 C11 1.282 . S
C14 O15 1.306 . S
C14 O17 1.160 . S
O15 C14 1.306 . S
O15 Cd16 2.228 . S
Cd16 O15 2.228 . S
Cd16 O20 2.273 . S
Cd16 O24 2.277 . S
O17 C14 1.160 . S
O17 Cd18 2.203 . S
Cd18 O17 2.203 . S
Cd18 O20 2.411 . S
Cd18 O21 2.333 . S
Cd18 O22 2.352 . S
Cd18 O26 2.277 . S
Cd18 O27 2.356 . S
C19 O24 1.209 . S
C19 O26 1.226 . S
O20 Cd16 2.273 . S
O20 Cd18 2.411 . S
O20 C23 1.320 . S
O21 Cd18 2.333 . S
O21 C23 1.214 . S
O22 Cd18 2.352 . S
O22 C25 1.258 . S
C23 O20 1.320 . S
C23 O21 1.214 . S
O24 Cd16 2.277 . S
O24 C19 1.209 . S
C25 O22 1.258 . S
C25 O27 1.282 . S
O26 Cd18 2.277 . S
O26 C19 1.226 . S
O27 Cd18 2.356 . S
O27 C25 1.282 . S
C28 O29 1.306 . S
C28 O31 1.160 . S
O29 C28 1.306 . S
O29 Cd30 2.228 . S
Cd30 O29 2.228 . S
Cd30 O34 2.273 . S
Cd30 O38 2.277 . S
O31 C28 1.160 . S
O31 Cd32 2.203 . S
Cd32 O31 2.203 . S
Cd32 O34 2.411 . S
Cd32 O35 2.333 . S
Cd32 O36 2.352 . S
Cd32 O40 2.277 . S
Cd32 O41 2.356 . S
C33 O38 1.209 . S
C33 O40 1.226 . S
O34 Cd30 2.273 . S
O34 Cd32 2.411 . S
O34 C37 1.320 . S
O35 Cd32 2.333 . S
O35 C37 1.214 . S
O36 Cd32 2.352 . S
O36 C39 1.258 . S
C37 O34 1.320 . S
C37 O35 1.214 . S
O38 Cd30 2.277 . S
O38 C33 1.209 . S
C39 O36 1.258 . S
C39 O41 1.282 . S
O40 Cd32 2.277 . S
O40 C33 1.226 . S
O41 Cd32 2.356 . S
O41 C39 1.282 . S
C42 O43 1.306 . S
C42 O45 1.160 . S
O43 C42 1.306 . S
O43 Cd44 2.228 . S
Cd44 O43 2.228 . S
Cd44 O48 2.273 . S
Cd44 O52 2.277 . S
O45 C42 1.160 . S
O45 Cd46 2.203 . S
Cd46 O45 2.203 . S
Cd46 O48 2.411 . S
Cd46 O49 2.333 . S
Cd46 O50 2.352 . S
Cd46 O54 2.277 . S
Cd46 O55 2.356 . S
C47 O52 1.209 . S
C47 O54 1.226 . S
O48 Cd44 2.273 . S
O48 Cd46 2.411 . S
O48 C51 1.320 . S
O49 Cd46 2.333 . S
O49 C51 1.214 . S
O50 Cd46 2.352 . S
O50 C53 1.258 . S
C51 O48 1.320 . S
C51 O49 1.214 . S
O52 Cd44 2.277 . S
O52 C47 1.209 . S
C53 O50 1.258 . S
C53 O55 1.282 . S
O54 Cd46 2.277 . S
O54 C47 1.226 . S
O55 Cd46 2.356 . S
O55 C53 1.282 . S
C56 O57 1.306 . S
C56 O59 1.160 . S
O57 C56 1.306 . S
O57 Cd58 2.228 . S
Cd58 O57 2.228 . S
Cd58 O62 2.273 . S
Cd58 O66 2.277 . S
O59 C56 1.160 . S
O59 Cd60 2.203 . S
Cd60 O59 2.203 . S
Cd60 O62 2.411 . S
Cd60 O63 2.333 . S
Cd60 O64 2.352 . S
Cd60 O68 2.277 . S
Cd60 O69 2.356 . S
C61 O66 1.209 . S
C61 O68 1.226 . S
O62 Cd58 2.273 . S
O62 Cd60 2.411 . S
O62 C65 1.320 . S
O63 Cd60 2.333 . S
O63 C65 1.214 . S
O64 Cd60 2.352 . S
O64 C67 1.258 . S
C65 O62 1.320 . S
C65 O63 1.214 . S
O66 Cd58 2.277 . S
O66 C61 1.209 . S
C67 O64 1.258 . S
C67 O69 1.282 . S
O68 Cd60 2.277 . S
O68 C61 1.226 . S
O69 Cd60 2.356 . S
O69 C67 1.282 . S
C70 O71 1.306 . S
C70 O73 1.160 . S
O71 C70 1.306 . S
O71 Cd72 2.228 . S
Cd72 O71 2.228 . S
Cd72 O76 2.273 . S
Cd72 O80 2.277 . S
O73 C70 1.160 . S
O73 Cd74 2.203 . S
Cd74 O73 2.203 . S
Cd74 O76 2.411 . S
Cd74 O77 2.333 . S
Cd74 O78 2.352 . S
Cd74 O82 2.277 . S
Cd74 O83 2.356 . S
C75 O80 1.209 . S
C75 O82 1.226 . S
O76 Cd72 2.273 . S
O76 Cd74 2.411 . S
O76 C79 1.320 . S
O77 Cd74 2.333 . S
O77 C79 1.214 . S
O78 Cd74 2.352 . S
O78 C81 1.258 . S
C79 O76 1.320 . S
C79 O77 1.214 . S
O80 Cd72 2.277 . S
O80 C75 1.209 . S
C81 O78 1.258 . S
C81 O83 1.282 . S
O82 Cd74 2.277 . S
O82 C75 1.226 . S
O83 Cd74 2.356 . S
O83 C81 1.282 . S
C84 O85 1.306 . S
C84 O87 1.160 . S
O85 C84 1.306 . S
O85 Cd86 2.228 . S
Cd86 O85 2.228 . S
Cd86 O90 2.273 . S
Cd86 O94 2.277 . S
O87 C84 1.160 . S
O87 Cd88 2.203 . S
Cd88 O87 2.203 . S
Cd88 O90 2.411 . S
Cd88 O91 2.333 . S
Cd88 O92 2.352 . S
Cd88 O96 2.277 . S
Cd88 O97 2.356 . S
C89 O94 1.209 . S
C89 O96 1.226 . S
O90 Cd86 2.273 . S
O90 Cd88 2.411 . S
O90 C93 1.320 . S
O91 Cd88 2.333 . S
O91 C93 1.214 . S
O92 Cd88 2.352 . S
O92 C95 1.258 . S
C93 O90 1.320 . S
C93 O91 1.214 . S
O94 Cd86 2.277 . S
O94 C89 1.209 . S
C95 O92 1.258 . S
C95 O97 1.282 . S
O96 Cd88 2.277 . S
O96 C89 1.226 . S
O97 Cd88 2.356 . S
O97 C95 1.282 . S
C98 O99 1.306 . S
C98 O101 1.160 . S
O99 C98 1.306 . S
O99 Cd100 2.228 . S
Cd100 O99 2.228 . S
Cd100 O104 2.273 . S
Cd100 O108 2.277 . S
O101 C98 1.160 . S
O101 Cd102 2.203 . S
Cd102 O101 2.203 . S
Cd102 O104 2.411 . S
Cd102 O105 2.333 . S
Cd102 O106 2.352 . S
Cd102 O110 2.277 . S
Cd102 O111 2.356 . S
C103 O108 1.209 . S
C103 O110 1.226 . S
O104 Cd100 2.273 . S
O104 Cd102 2.411 . S
O104 C107 1.320 . S
O105 Cd102 2.333 . S
O105 C107 1.214 . S
O106 Cd102 2.352 . S
O106 C109 1.258 . S
C107 O104 1.320 . S
C107 O105 1.214 . S
O108 Cd100 2.277 . S
O108 C103 1.209 . S
C109 O106 1.258 . S
C109 O111 1.282 . S
O110 Cd102 2.277 . S
O110 C103 1.226 . S
O111 Cd102 2.356 . S
O111 C109 1.282 . S
H112 C118 0.930 . S
H113 C121 0.930 . S
H114 C122 0.930 . S
H115 C123 0.930 . S
H116 C126 0.930 . S
H117 C127 0.930 . S
C118 H112 0.930 . S
C118 C119 1.355 . S
C118 C120 1.415 . S
C119 C118 1.355 . S
C119 C121 1.419 . S
C120 C118 1.415 . S
C120 C125 1.425 1_545 S
C120 C127 1.409 1_455 S
C121 H113 0.930 . S
C121 C119 1.419 . S
C121 C122 1.362 1_545 S
C122 H114 0.930 . S
C122 C121 1.362 1_565 S
C122 C125 1.409 . S
C123 H115 0.930 . S
C123 C124 1.355 . S
C123 C125 1.415 1_655 S
C124 C123 1.355 . S
C124 C126 1.419 . S
C125 C120 1.425 1_565 S
C125 C122 1.409 . S
C125 C123 1.415 1_455 S
C126 H116 0.930 . S
C126 C124 1.419 . S
C126 C127 1.362 1_565 S
C127 H117 0.930 . S
C127 C120 1.409 1_655 S
C127 C126 1.362 1_545 S
H128 C134 0.930 1_655 S
H129 C137 0.930 . S
H130 C138 0.930 . S
H131 C139 0.930 1_455 S
H132 C142 0.930 . S
H133 C143 0.930 . S
C134 H128 0.930 1_455 S
C134 C135 1.355 . S
C134 C136 1.415 1_455 S
C135 C134 1.355 . S
C135 C137 1.419 . S
C136 C134 1.415 1_655 S
C136 C141 1.425 1_666 S
C136 C143 1.409 1_565 S
C137 H129 0.930 . S
C137 C135 1.419 . S
C137 C138 1.362 1_556 S
C138 H130 0.930 . S
C138 C137 1.362 1_554 S
C138 C141 1.409 1_565 S
C139 H131 0.930 1_655 S
C139 C140 1.355 . S
C139 C141 1.415 1_655 S
C140 C139 1.355 . S
C140 C142 1.419 . S
C141 C136 1.425 1_444 S
C141 C138 1.409 1_545 S
C141 C139 1.415 1_455 S
C142 H132 0.930 . S
C142 C140 1.419 . S
C142 C143 1.362 1_554 S
C143 H133 0.930 . S
C143 C136 1.409 1_545 S
C143 C142 1.362 1_556 S
H144 C150 0.930 . S
H145 C153 0.930 . S
H146 C154 0.930 . S
H147 C155 0.930 . S
H148 C158 0.930 . S
H149 C159 0.930 . S
C150 H144 0.930 . S
C150 C151 1.355 . S
C150 C152 1.415 . S
C151 C150 1.355 . S
C151 C153 1.419 . S
C152 C150 1.415 . S
C152 C157 1.425 . S
C152 C159 1.409 . S
C153 H145 0.930 . S
C153 C151 1.419 . S
C153 C154 1.362 . S
C154 H146 0.930 . S
C154 C153 1.362 . S
C154 C157 1.409 . S
C155 H147 0.930 . S
C155 C156 1.355 . S
C155 C157 1.415 . S
C156 C155 1.355 . S
C156 C158 1.419 . S
C157 C152 1.425 . S
C157 C154 1.409 . S
C157 C155 1.415 . S
C158 H148 0.930 . S
C158 C156 1.419 . S
C158 C159 1.362 . S
C159 H149 0.930 . S
C159 C152 1.409 . S
C159 C158 1.362 . S
H160 C166 0.930 1_556 S
H161 C169 0.930 . S
H162 C170 0.930 . S
H163 C171 0.930 1_554 S
H164 C174 0.930 . S
H165 C175 0.930 . S
C166 H160 0.930 1_554 S
C166 C167 1.355 . S
C166 C168 1.415 1_554 S
C167 C166 1.355 . S
C167 C169 1.419 . S
C168 C166 1.415 1_556 S
C168 C173 1.425 1_556 S
C168 C175 1.409 . S
C169 H161 0.930 . S
C169 C167 1.419 . S
C169 C170 1.362 . S
C170 H162 0.930 . S
C170 C169 1.362 . S
C170 C173 1.409 . S
C171 H163 0.930 1_556 S
C171 C172 1.355 . S
C171 C173 1.415 1_556 S
C172 C171 1.355 . S
C172 C174 1.419 . S
C173 C168 1.425 1_554 S
C173 C170 1.409 . S
C173 C171 1.415 1_554 S
C174 H164 0.930 . S
C174 C172 1.419 . S
C174 C175 1.362 . S
C175 H165 0.930 . S
C175 C168 1.409 . S
C175 C174 1.362 . S
H176 C182 0.930 . S
H177 C185 0.930 1_556 S
H178 C186 0.930 . S
H179 C187 0.930 . S
H180 C190 0.930 . S
H181 C191 0.930 . S
C182 H176 0.930 . S
C182 C183 1.355 . S
C182 C184 1.415 . S
C183 C182 1.355 . S
C183 C185 1.419 . S
C184 C182 1.415 . S
C184 C189 1.425 1_554 S
C184 C191 1.409 1_655 S
C185 H177 0.930 1_554 S
C185 C183 1.419 . S
C185 C186 1.362 1_554 S
C186 H178 0.930 . S
C186 C185 1.362 1_556 S
C186 C189 1.409 . S
C187 H179 0.930 . S
C187 C188 1.355 . S
C187 C189 1.415 1_455 S
C188 C187 1.355 . S
C188 C190 1.419 1_556 S
C189 C184 1.425 1_556 S
C189 C186 1.409 . S
C189 C187 1.415 1_655 S
C190 H180 0.930 . S
C190 C188 1.419 1_554 S
C190 C191 1.362 . S
C191 H181 0.930 . S
C191 C184 1.409 1_455 S
C191 C190 1.362 . S
H192 C198 0.930 . S
H193 C201 0.930 . S
H194 C202 0.930 . S
H195 C203 0.930 . S
H196 C206 0.930 . S
H197 C207 0.930 . S
C198 H192 0.930 . S
C198 C199 1.355 . S
C198 C200 1.415 . S
C199 C198 1.355 . S
C199 C201 1.419 . S
C200 C198 1.415 . S
C200 C205 1.425 1_455 S
C200 C207 1.409 . S
C201 H193 0.930 . S
C201 C199 1.419 . S
C201 C202 1.362 1_455 S
C202 H194 0.930 . S
C202 C201 1.362 1_655 S
C202 C205 1.409 . S
C203 H195 0.930 . S
C203 C204 1.355 . S
C203 C205 1.415 . S
C204 C203 1.355 . S
C204 C206 1.419 . S
C205 C200 1.425 1_655 S
C205 C202 1.409 . S
C205 C203 1.415 . S
C206 H196 0.930 . S
C206 C204 1.419 . S
C206 C207 1.362 1_655 S
C207 H197 0.930 . S
C207 C200 1.409 . S
C207 C206 1.362 1_455 S
H208 C214 0.930 . S
H209 C217 0.930 . S
H210 C218 0.930 . S
H211 C219 0.930 . S
H212 C222 0.930 . S
H213 C223 0.930 . S
C214 H208 0.930 . S
C214 C215 1.355 . S
C214 C216 1.415 1_545 S
C215 C214 1.355 . S
C215 C217 1.419 . S
C216 C214 1.415 1_565 S
C216 C221 1.425 1_566 S
C216 C223 1.409 . S
C217 H209 0.930 . S
C217 C215 1.419 . S
C217 C218 1.362 1_556 S
C218 H210 0.930 . S
C218 C217 1.362 1_554 S
C218 C221 1.409 . S
C219 H211 0.930 . S
C219 C220 1.355 . S
C219 C221 1.415 1_565 S
C220 C219 1.355 . S
C220 C222 1.419 . S
C221 C216 1.425 1_544 S
C221 C218 1.409 . S
C221 C219 1.415 1_545 S
C222 H212 0.930 . S
C222 C220 1.419 . S
C222 C223 1.362 1_554 S
C223 H213 0.930 . S
C223 C216 1.409 . S
C223 C222 1.362 1_556 S
H224 C230 0.930 . S
H225 C233 0.930 . S
H226 C234 0.930 . S
H227 C235 0.930 . S
H228 C238 0.930 . S
H229 C239 0.930 . S
C230 H224 0.930 . S
C230 C231 1.355 . S
C230 C232 1.415 . S
C231 C230 1.355 . S
C231 C233 1.419 . S
C232 C230 1.415 . S
C232 C237 1.425 1_565 S
C232 C239 1.409 . S
C233 H225 0.930 . S
C233 C231 1.419 . S
C233 C234 1.362 1_565 S
C234 H226 0.930 . S
C234 C233 1.362 1_545 S
C234 C237 1.409 . S
C235 H227 0.930 . S
C235 C236 1.355 . S
C235 C237 1.415 . S
C236 C235 1.355 . S
C236 C238 1.419 . S
C237 C232 1.425 1_545 S
C237 C234 1.409 . S
C237 C235 1.415 . S
C238 H228 0.930 . S
C238 C236 1.419 . S
C238 C239 1.362 1_545 S
C239 H229 0.930 . S
C239 C232 1.409 . S
C239 C238 1.362 1_565 S
H240 C246 0.930 . S
H241 C249 0.930 . S
H242 C250 0.930 . S
H243 C251 0.930 . S
H244 C254 0.930 . S
H245 C255 0.930 . S
C246 H240 0.930 . S
C246 C247 1.355 . S
C246 C248 1.415 . S
C247 C246 1.355 . S
C247 C249 1.419 . S
C248 C246 1.415 . S
C248 C253 1.425 . S
C248 C255 1.409 . S
C249 H241 0.930 . S
C249 C247 1.419 . S
C249 C250 1.362 . S
C250 H242 0.930 . S
C250 C249 1.362 . S
C250 C253 1.409 . S
C251 H243 0.930 . S
C251 C252 1.355 . S
C251 C253 1.415 . S
C252 C251 1.355 . S
C252 C254 1.419 . S
C253 C248 1.425 . S
C253 C250 1.409 . S
C253 C251 1.415 . S
C254 H244 0.930 . S
C254 C252 1.419 . S
C254 C255 1.362 . S
C255 H245 0.930 . S
C255 C248 1.409 . S
C255 C254 1.362 . S
H256 C262 0.930 . S
H257 C265 0.930 . S
H258 C266 0.930 . S
H259 C267 0.930 . S
H260 C270 0.930 . S
H261 C271 0.930 . S
C262 H256 0.930 . S
C262 C263 1.355 . S
C262 C264 1.415 . S
C263 C262 1.355 . S
C263 C265 1.419 . S
C264 C262 1.415 . S
C264 C269 1.425 1_556 S
C264 C271 1.409 1_556 S
C265 H257 0.930 . S
C265 C263 1.419 . S
C265 C266 1.362 . S
C266 H258 0.930 . S
C266 C265 1.362 . S
C266 C269 1.409 1_556 S
C267 H259 0.930 . S
C267 C268 1.355 . S
C267 C269 1.415 . S
C268 C267 1.355 . S
C268 C270 1.419 . S
C269 C264 1.425 1_554 S
C269 C266 1.409 1_554 S
C269 C267 1.415 . S
C270 H260 0.930 . S
C270 C268 1.419 . S
C270 C271 1.362 . S
C271 H261 0.930 . S
C271 C264 1.409 1_554 S
C271 C270 1.362 . S
H272 C278 0.930 . S
H273 C281 0.930 . S
H274 C282 0.930 . S
H275 C283 0.930 . S
H276 C286 0.930 . S
H277 C287 0.930 . S
C278 H272 0.930 . S
C278 C279 1.355 . S
C278 C280 1.415 . S
C279 C278 1.355 . S
C279 C281 1.419 . S
C280 C278 1.415 . S
C280 C285 1.425 . S
C280 C287 1.409 . S
C281 H273 0.930 . S
C281 C279 1.419 . S
C281 C282 1.362 . S
C282 H274 0.930 . S
C282 C281 1.362 . S
C282 C285 1.409 . S
C283 H275 0.930 . S
C283 C284 1.355 . S
C283 C285 1.415 . S
C284 C283 1.355 . S
C284 C286 1.419 . S
C285 C280 1.425 . S
C285 C282 1.409 . S
C285 C283 1.415 . S
C286 H276 0.930 . S
C286 C284 1.419 . S
C286 C287 1.362 . S
C287 H277 0.930 . S
C287 C280 1.409 . S
C287 C286 1.362 . S
H288 C294 0.930 . S
H289 C297 0.930 . S
H290 C298 0.930 . S
H291 C299 0.930 . S
H292 C302 0.930 . S
H293 C303 0.930 . S
C294 H288 0.930 . S
C294 C295 1.355 . S
C294 C296 1.415 1_554 S
C295 C294 1.355 . S
C295 C297 1.419 . S
C296 C294 1.415 1_556 S
C296 C301 1.425 . S
C296 C303 1.409 . S
C297 H289 0.930 . S
C297 C295 1.419 . S
C297 C298 1.362 . S
C298 H290 0.930 . S
C298 C297 1.362 . S
C298 C301 1.409 1_554 S
C299 H291 0.930 . S
C299 C300 1.355 . S
C299 C301 1.415 . S
C300 C299 1.355 . S
C300 C302 1.419 . S
C301 C296 1.425 . S
C301 C298 1.409 1_556 S
C301 C299 1.415 . S
C302 H292 0.930 . S
C302 C300 1.419 . S
C302 C303 1.362 . S
C303 H293 0.930 . S
C303 C296 1.409 . S
C303 C302 1.362 . S
H304 C310 0.930 . S
H305 C313 0.930 . S
H306 C314 0.930 . S
H307 C315 0.930 . S
H308 C318 0.930 . S
H309 C319 0.930 . S
C310 H304 0.930 . S
C310 C311 1.355 . S
C310 C312 1.415 . S
C311 C310 1.355 . S
C311 C313 1.419 . S
C312 C310 1.415 . S
C312 C317 1.425 . S
C312 C319 1.409 . S
C313 H305 0.930 . S
C313 C311 1.419 . S
C313 C314 1.362 . S
C314 H306 0.930 . S
C314 C313 1.362 . S
C314 C317 1.409 . S
C315 H307 0.930 . S
C315 C316 1.355 . S
C315 C317 1.415 . S
C316 C315 1.355 . S
C316 C318 1.419 . S
C317 C312 1.425 . S
C317 C314 1.409 . S
C317 C315 1.415 . S
C318 H308 0.930 . S
C318 C316 1.419 . S
C318 C319 1.362 . S
C319 H309 0.930 . S
C319 C312 1.409 . S
C319 C318 1.362 . S
H320 C326 0.930 . S
H321 C329 0.930 . S
H322 C330 0.930 . S
H323 C331 0.930 . S
H324 C334 0.930 . S
H325 C335 0.930 . S
C326 H320 0.930 . S
C326 C327 1.355 . S
C326 C328 1.415 . S
C327 C326 1.355 . S
C327 C329 1.419 . S
C328 C326 1.415 . S
C328 C333 1.425 . S
C328 C335 1.409 . S
C329 H321 0.930 . S
C329 C327 1.419 . S
C329 C330 1.362 . S
C330 H322 0.930 . S
C330 C329 1.362 . S
C330 C333 1.409 . S
C331 H323 0.930 . S
C331 C332 1.355 . S
C331 C333 1.415 . S
C332 C331 1.355 . S
C332 C334 1.419 . S
C333 C328 1.425 . S
C333 C330 1.409 . S
C333 C331 1.415 . S
C334 H324 0.930 . S
C334 C332 1.419 . S
C334 C335 1.362 . S
C335 H325 0.930 . S
C335 C328 1.409 . S
C335 C334 1.362 . S
H336 C342 0.930 . S
H337 C345 0.930 . S
H338 C346 0.930 . S
H339 C347 0.930 . S
H340 C350 0.930 . S
H341 C351 0.930 . S
C342 H336 0.930 . S
C342 C343 1.355 . S
C342 C344 1.413 1_455 S
C343 C342 1.355 . S
C343 C345 1.419 . S
C344 C342 1.413 1_655 S
C344 C349 1.427 1_655 S
C344 C351 1.410 . S
C345 H337 0.930 . S
C345 C343 1.419 . S
C345 C346 1.362 . S
C346 H338 0.930 . S
C346 C345 1.362 . S
C346 C349 1.410 . S
C347 H339 0.930 . S
C347 C348 1.355 . S
C347 C349 1.413 1_655 S
C348 C347 1.355 . S
C348 C350 1.419 . S
C349 C344 1.427 1_455 S
C349 C346 1.410 . S
C349 C347 1.413 1_455 S
C350 H340 0.930 . S
C350 C348 1.419 . S
C350 C351 1.362 . S
C351 H341 0.930 . S
C351 C344 1.410 . S
C351 C350 1.362 . S
H352 C358 0.930 . S
H353 C361 0.930 . S
H354 C362 0.930 1_655 S
H355 C363 0.930 . S
H356 C366 0.930 . S
H357 C367 0.930 1_455 S
C358 H352 0.930 . S
C358 C359 1.355 . S
C358 C360 1.415 . S
C359 C358 1.355 . S
C359 C361 1.419 . S
C360 C358 1.415 . S
C360 C365 1.425 1_455 S
C360 C367 1.409 1_455 S
C361 H353 0.930 . S
C361 C359 1.419 . S
C361 C362 1.362 . S
C362 H354 0.930 1_455 S
C362 C361 1.362 . S
C362 C365 1.409 1_455 S
C363 H355 0.930 . S
C363 C364 1.355 . S
C363 C365 1.415 . S
C364 C363 1.355 . S
C364 C366 1.419 . S
C365 C360 1.425 1_655 S
C365 C362 1.409 1_655 S
C365 C363 1.415 . S
C366 H356 0.930 . S
C366 C364 1.419 . S
C366 C367 1.362 . S
C367 H357 0.930 1_655 S
C367 C360 1.409 1_655 S
C367 C366 1.362 . S
C119 C11 1.784 . S
C124 C33 1.798 . S
C135 C47 1.783 . S
C140 C25 1.761 . S
C151 C89 1.800 . S
C156 C67 1.784 . S
C167 C81 1.791 . S
C172 C103 1.803 . S
C183 C23 1.313 . S
C188 C42 1.313 . S
C199 C9 1.270 . S
C204 C28 1.249 . S
C215 C98 1.252 . S
C220 C79 1.271 . S
C231 C65 1.320 . S
C236 C84 1.313 . S
C247 C70 1.495 . S
C252 C51 1.503 . S
C263 C37 1.515 . S
C268 C56 1.518 . S
C279 C14 1.520 . S
C284 C107 1.525 . S
C295 C0 1.508 . S
C300 C93 1.524 . S
C311 C5 1.527 . S
C316 C19 1.547 . S
C327 C39 1.557 . S
C332 C53 1.585 . S
C343 C75 1.530 . S
C348 C61 1.544 . S
C359 C95 1.570 . S
C364 C109 1.573 . S
