# Generated by pormake.
# Topology lcs, (4)-cn, num edge types: 1
# Building blocks:
#     Node 0, Type 0, BuildingBlock: QUQFOY_clean_sbu_1, # of connection points: 4
#     Node 1, Type 0, BuildingBlock: QUQFOY_clean_sbu_1, # of connection points: 4
#     Node 2, Type 0, BuildingBlock: QUQFOY_clean_sbu_1, # of connection points: 4
#     Node 3, Type 0, BuildingBlock: QUQFOY_clean_sbu_1, # of connection points: 4
#     Node 4, Type 0, BuildingBlock: QUQFOY_clean_sbu_1, # of connection points: 4
#     Node 5, Type 0, BuildingBlock: QUQFOY_clean_sbu_1, # of connection points: 4
#     Node 6, Type 0, BuildingBlock: QUQFOY_clean_sbu_1, # of connection points: 4
#     Node 7, Type 0, BuildingBlock: QUQFOY_clean_sbu_1, # of connection points: 4
#     Node 8, Type 0, BuildingBlock: QUQFOY_clean_sbu_1, # of connection points: 4
#     Node 9, Type 0, BuildingBlock: QUQFOY_clean_sbu_1, # of connection points: 4
#     Node 10, Type 0, BuildingBlock: QUQFOY_clean_sbu_1, # of connection points: 4
#     Node 11, Type 0, BuildingBlock: QUQFOY_clean_sbu_1, # of connection points: 4
#     Node 12, Type 0, BuildingBlock: QUQFOY_clean_sbu_1, # of connection points: 4
#     Node 13, Type 0, BuildingBlock: QUQFOY_clean_sbu_1, # of connection points: 4
#     Node 14, Type 0, BuildingBlock: QUQFOY_clean_sbu_1, # of connection points: 4
#     Node 15, Type 0, BuildingBlock: QUQFOY_clean_sbu_1, # of connection points: 4
#     Node 16, Type 0, BuildingBlock: QUQFOY_clean_sbu_1, # of connection points: 4
#     Node 17, Type 0, BuildingBlock: QUQFOY_clean_sbu_1, # of connection points: 4
#     Node 18, Type 0, BuildingBlock: QUQFOY_clean_sbu_1, # of connection points: 4
#     Node 19, Type 0, BuildingBlock: QUQFOY_clean_sbu_1, # of connection points: 4
#     Node 20, Type 0, BuildingBlock: QUQFOY_clean_sbu_1, # of connection points: 4
#     Node 21, Type 0, BuildingBlock: QUQFOY_clean_sbu_1, # of connection points: 4
#     Node 22, Type 0, BuildingBlock: QUQFOY_clean_sbu_1, # of connection points: 4
#     Node 23, Type 0, BuildingBlock: QUQFOY_clean_sbu_1, # of connection points: 4
#     Edge 24, Type (0, 0), None
#     Edge 25, Type (0, 0), None
#     Edge 26, Type (0, 0), None
#     Edge 27, Type (0, 0), None
#     Edge 28, Type (0, 0), None
#     Edge 29, Type (0, 0), None
#     Edge 30, Type (0, 0), None
#     Edge 31, Type (0, 0), None
#     Edge 32, Type (0, 0), None
#     Edge 33, Type (0, 0), None
#     Edge 34, Type (0, 0), None
#     Edge 35, Type (0, 0), None
#     Edge 36, Type (0, 0), None
#     Edge 37, Type (0, 0), None
#     Edge 38, Type (0, 0), None
#     Edge 39, Type (0, 0), None
#     Edge 40, Type (0, 0), None
#     Edge 41, Type (0, 0), None
#     Edge 42, Type (0, 0), None
#     Edge 43, Type (0, 0), None
#     Edge 44, Type (0, 0), None
#     Edge 45, Type (0, 0), None
#     Edge 46, Type (0, 0), None
#     Edge 47, Type (0, 0), None
#     Edge 48, Type (0, 0), None
#     Edge 49, Type (0, 0), None
#     Edge 50, Type (0, 0), None
#     Edge 51, Type (0, 0), None
#     Edge 52, Type (0, 0), None
#     Edge 53, Type (0, 0), None
#     Edge 54, Type (0, 0), None
#     Edge 55, Type (0, 0), None
#     Edge 56, Type (0, 0), None
#     Edge 57, Type (0, 0), None
#     Edge 58, Type (0, 0), None
#     Edge 59, Type (0, 0), None
#     Edge 60, Type (0, 0), None
#     Edge 61, Type (0, 0), None
#     Edge 62, Type (0, 0), None
#     Edge 63, Type (0, 0), None
#     Edge 64, Type (0, 0), None
#     Edge 65, Type (0, 0), None
#     Edge 66, Type (0, 0), None
#     Edge 67, Type (0, 0), None
#     Edge 68, Type (0, 0), None
#     Edge 69, Type (0, 0), None
#     Edge 70, Type (0, 0), None
#     Edge 71, Type (0, 0), None
# Relax obj value: 0.097
# Max RMSD: 0.122
# Mean RMSD: 0.111
data_MOF--net-lcs--node1-QUQFOY_clean_sbu_1--edge1-none
_symmetry_space_group_name_H-M    P1
_symmetry_Int_Tables_number       1
_symmetry_cell_setting            triclinic
loop_
_symmetry_equiv_pos_as_xyz
'x, y, z'
_cell_length_a     23.417005
_cell_length_b     23.417067
_cell_length_c     23.417303
_cell_angle_alpha  91.021236
_cell_angle_beta   91.021279
_cell_angle_gamma 91.021624
loop_
_atom_site_label
_atom_site_type_symbol
_atom_site_fract_x
_atom_site_fract_y
_atom_site_fract_z
_atom_type_partial_charge
O0 O 0.13815 0.25019 0.39245 0.0
Cd1 Cd 0.07514 0.27121 0.33466 0.0
Cd2 Cd 1.00574 0.25726 0.42303 0.0
O3 O 0.08339 0.2595 0.46771 0.0
O4 O 0.1034 0.33048 0.28142 0.0
O5 O 0.03811 0.34661 0.34714 0.0
C6 C 0.07053 0.36581 0.30752 0.0
C7 C 0.92692 0.30038 0.46361 0.0
C8 C 0.1322 0.25178 0.44624 0.0
C9 C 0.99752 0.17268 0.32252 0.0
O10 O 0.98346 0.18647 0.373 0.0
O11 O 0.03285 0.20313 0.29535 0.0
O12 O 0.94759 0.25433 0.48406 0.0
O13 O 0.95203 0.32353 0.42106 0.0
O14 O 0.11542 0.71507 0.63699 0.0
Cd15 Cd 0.05499 0.74397 0.69269 0.0
Cd16 Cd 0.02715 0.8066 0.59643 0.0
O17 O 0.0965 0.76555 0.56002 0.0
O18 O 0.045 0.68106 0.74967 0.0
O19 O 0.97604 0.71057 0.69212 0.0
C20 C 0.99318 0.67571 0.73036 0.0
C21 C 0.93178 0.80414 0.56718 0.0
C22 C 0.12718 0.72982 0.58652 0.0
C23 C 0.06471 0.87101 0.70376 0.0
O24 O 0.04724 0.87255 0.65221 0.0
O25 O 0.07161 0.82378 0.72891 0.0
O26 O 0.96827 0.83607 0.54124 0.0
O27 O 0.95051 0.77017 0.60556 0.0
O28 O 0.63815 0.75018 0.89245 0.0
Cd29 Cd 0.57514 0.7712 0.83466 0.0
Cd30 Cd 0.50573 0.75726 0.92303 0.0
O31 O 0.58339 0.75949 0.96771 0.0
O32 O 0.6034 0.83047 0.78142 0.0
O33 O 0.53811 0.84661 0.84713 0.0
C34 C 0.57053 0.8658 0.80751 0.0
C35 C 0.42692 0.80038 0.9636 0.0
C36 C 0.63219 0.75177 0.94623 0.0
C37 C 0.49752 0.67267 0.82251 0.0
O38 O 0.48346 0.68646 0.87299 0.0
O39 O 0.53285 0.70312 0.79534 0.0
O40 O 0.44759 0.75433 0.98406 0.0
O41 O 0.45203 0.82353 0.92105 0.0
O42 O 0.61542 0.21508 0.13699 0.0
Cd43 Cd 0.55499 0.24397 0.19269 0.0
Cd44 Cd 0.52715 0.3066 0.09643 0.0
O45 O 0.5965 0.26556 0.06002 0.0
O46 O 0.545 0.18107 0.24967 0.0
O47 O 0.47603 0.21057 0.19211 0.0
C48 C 0.49317 0.17572 0.23036 0.0
C49 C 0.43177 0.30415 0.06717 0.0
C50 C 0.62718 0.22983 0.08652 0.0
C51 C 0.56471 0.37101 0.20376 0.0
O52 O 0.54723 0.37256 0.15221 0.0
O53 O 0.5716 0.32378 0.22891 0.0
O54 O 0.46827 0.33608 0.04124 0.0
O55 O 0.45051 0.27018 0.10556 0.0
O56 O 0.08367 0.68334 0.14652 0.0
Cd57 Cd 0.05477 0.74376 0.09082 0.0
Cd58 Cd 0.99214 0.7716 0.18708 0.0
O59 O 0.03319 0.70225 0.22348 0.0
O60 O 0.11768 0.75375 0.03384 0.0
O61 O 0.08818 0.82271 0.09139 0.0
C62 C 0.12303 0.80557 0.05314 0.0
C63 C 0.9946 0.86697 0.21633 0.0
C64 C 0.06892 0.67157 0.19699 0.0
C65 C 0.92773 0.73404 0.07974 0.0
O66 O 0.92619 0.75152 0.1313 0.0
O67 O 0.97496 0.72715 0.05459 0.0
O68 O 0.96267 0.83048 0.24227 0.0
O69 O 0.02857 0.84824 0.17795 0.0
O70 O 0.54856 0.6606 0.39106 0.0
Cd71 Cd 0.52755 0.7236 0.44885 0.0
Cd72 Cd 0.54149 0.79301 0.36048 0.0
O73 O 0.53925 0.71536 0.3158 0.0
O74 O 0.46828 0.69535 0.50209 0.0
O75 O 0.45214 0.76064 0.43637 0.0
C76 C 0.43294 0.72822 0.47599 0.0
C77 C 0.49837 0.87183 0.3199 0.0
C78 C 0.54697 0.66655 0.33727 0.0
C79 C 0.62608 0.80123 0.46099 0.0
O80 O 0.61228 0.81529 0.41051 0.0
O81 O 0.59562 0.76589 0.48816 0.0
O82 O 0.54442 0.85116 0.29945 0.0
O83 O 0.47521 0.84672 0.36245 0.0
O84 O 0.58367 0.18333 0.64652 0.0
Cd85 Cd 0.55478 0.24376 0.59082 0.0
Cd86 Cd 0.49215 0.27159 0.68708 0.0
O87 O 0.53319 0.20225 0.72349 0.0
O88 O 0.61768 0.25375 0.53384 0.0
O89 O 0.58818 0.32271 0.59139 0.0
C90 C 0.62303 0.30557 0.55314 0.0
C91 C 0.4946 0.36697 0.71633 0.0
C92 C 0.56893 0.17157 0.69699 0.0
C93 C 0.42774 0.23403 0.57975 0.0
O94 O 0.42619 0.25151 0.6313 0.0
O95 O 0.47496 0.22714 0.5546 0.0
O96 O 0.46267 0.33047 0.74227 0.0
O97 O 0.52857 0.34823 0.67795 0.0
O98 O 0.04856 0.1606 0.89105 0.0
Cd99 Cd 0.02754 0.2236 0.94884 0.0
Cd100 Cd 0.04148 0.29301 0.86047 0.0
O101 O 0.03925 0.21535 0.81579 0.0
O102 O 0.96827 0.19534 1.00208 0.0
O103 O 0.95214 0.26063 0.93637 0.0
C104 C 0.93294 0.22821 0.97598 0.0
C105 C 0.99837 0.37182 0.8199 0.0
C106 C 0.04697 0.16655 0.83727 0.0
C107 C 0.12607 0.30122 0.96098 0.0
O108 O 0.11228 0.31528 0.9105 0.0
O109 O 0.09562 0.26589 0.98816 0.0
O110 O 0.04442 0.35115 0.79944 0.0
O111 O 0.97521 0.34671 0.86245 0.0
O112 O 0.40223 0.13383 0.24473 0.0
Cd113 Cd 0.34444 0.07082 0.26575 0.0
Cd114 Cd 0.43282 1.00141 0.2518 0.0
O115 O 0.47749 0.07907 0.25404 0.0
O116 O 0.29119 0.09907 0.32502 0.0
O117 O 0.35691 0.03378 0.34115 0.0
C118 C 0.31729 0.0662 0.36035 0.0
C119 C 0.47339 0.9226 0.29492 0.0
C120 C 0.45601 0.12788 0.24633 0.0
C121 C 0.3323 0.9932 0.16721 0.0
O122 O 0.38278 0.97914 0.18101 0.0
O123 O 0.30513 0.02853 0.19767 0.0
O124 O 0.49385 0.94327 0.24887 0.0
O125 O 0.43084 0.94771 0.31807 0.0
O126 O 0.2194 0.14245 0.60564 0.0
Cd127 Cd 0.24829 0.19815 0.54522 0.0
Cd128 Cd 0.31092 0.10188 0.51736 0.0
O129 O 0.26987 0.06548 0.58671 0.0
O130 O 0.18539 0.25513 0.53522 0.0
O131 O 0.21489 0.19757 0.46626 0.0
C132 C 0.18004 0.23582 0.4834 0.0
C133 C 0.30846 0.07263 0.42199 0.0
C134 C 0.23415 0.09197 0.6174 0.0
C135 C 0.37533 0.20922 0.5549 0.0
O136 O 0.37688 0.15766 0.53744 0.0
O137 O 0.32811 0.23437 0.56182 0.0
O138 O 0.34039 0.04668 0.45848 0.0
O139 O 0.27449 0.11101 0.44073 0.0
O140 O 0.15629 0.07934 0.67786 0.0
Cd141 Cd 0.10059 0.05045 0.73829 0.0
Cd142 Cd 0.19687 0.98783 0.76614 0.0
O143 O 0.23327 0.02887 0.69679 0.0
O144 O 0.04361 0.11336 0.74828 0.0
O145 O 0.10117 0.08385 0.81724 0.0
C146 C 0.06293 0.11871 0.8001 0.0
C147 C 0.22612 0.99029 0.86152 0.0
C148 C 0.20677 0.0646 0.66611 0.0
C149 C 0.08953 0.92341 0.7286 0.0
O150 O 0.14109 0.92187 0.74607 0.0
O151 O 0.06437 0.97063 0.72168 0.0
O152 O 0.25206 0.95836 0.82502 0.0
O153 O 0.18773 0.02426 0.84278 0.0
O154 O 0.16492 0.89652 0.03877 0.0
Cd155 Cd 0.22793 0.95431 0.01776 0.0
Cd156 Cd 0.29733 0.86593 0.0317 0.0
O157 O 0.21968 0.82126 0.02947 0.0
O158 O 0.19967 1.00756 0.95849 0.0
O159 O 0.26496 0.94183 0.94236 0.0
C160 C 0.23254 0.98145 0.92316 0.0
C161 C 0.37615 0.82536 0.98858 0.0
C162 C 0.17087 0.84274 0.03718 0.0
C163 C 0.30555 0.96644 0.11629 0.0
O164 O 0.31961 0.91596 0.1025 0.0
O165 O 0.27022 0.99362 0.08584 0.0
O166 O 0.35548 0.8049 0.03463 0.0
O167 O 0.35104 0.86791 0.96543 0.0
O168 O 0.25451 0.39791 0.12836 0.0
Cd169 Cd 0.27553 0.34012 0.06536 0.0
Cd170 Cd 0.26158 0.42849 0.99595 0.0
O171 O 0.26382 0.47317 0.0736 0.0
O172 O 0.3348 0.28688 0.09362 0.0
O173 O 0.35093 0.3526 0.02833 0.0
C174 C 0.37013 0.31298 0.06075 0.0
C175 C 0.3047 0.46907 0.91713 0.0
C176 C 0.2561 0.45169 0.12241 0.0
C177 C 0.177 0.32798 0.98774 0.0
O178 O 0.19079 0.37846 0.97368 0.0
O179 O 0.20745 0.3008 0.02307 0.0
O180 O 0.25865 0.48952 0.9378 0.0
O181 O 0.32785 0.42652 0.94225 0.0
O182 O 0.68765 0.15198 0.07389 0.0
Cd183 Cd 0.74808 0.09628 0.045 0.0
Cd184 Cd 0.77592 0.19254 0.98236 0.0
O185 O 0.70657 0.22895 0.02341 0.0
O186 O 0.75807 0.0393 0.1079 0.0
O187 O 0.82703 0.09685 0.0784 0.0
C188 C 0.80989 0.0586 0.11325 0.0
C189 C 0.87129 0.22179 0.98481 0.0
C190 C 0.67589 0.20245 0.05914 0.0
C191 C 0.73836 0.0852 0.91795 0.0
O192 O 0.75583 0.13676 0.91641 0.0
O193 O 0.73147 0.06005 0.96518 0.0
O194 O 0.8348 0.24773 0.95289 0.0
O195 O 0.85256 0.1834 0.01879 0.0
O196 O 0.14677 0.6111 0.20962 0.0
Cd197 Cd 0.20247 0.55067 0.23851 0.0
Cd198 Cd 0.10621 0.52283 0.30114 0.0
O199 O 0.0698 0.59218 0.2601 0.0
O200 O 0.25945 0.54068 0.1756 0.0
O201 O 0.20189 0.47172 0.20511 0.0
C202 C 0.24013 0.48886 0.17025 0.0
C203 C 0.07696 0.42746 0.29869 0.0
C204 C 0.0963 0.62286 0.22437 0.0
C205 C 0.21354 0.56039 0.36555 0.0
O206 O 0.16199 0.54291 0.3671 0.0
O207 O 0.2387 0.56728 0.31832 0.0
O208 O 0.05101 0.46395 0.33062 0.0
O209 O 0.11534 0.44619 0.26471 0.0
O210 O 0.75451 0.89792 0.62837 0.0
Cd211 Cd 0.77553 0.84012 0.56536 0.0
Cd212 Cd 0.76159 0.9285 0.49596 0.0
O213 O 0.76383 0.97318 0.57361 0.0
O214 O 0.8348 0.78688 0.59362 0.0
O215 O 0.85094 0.8526 0.52833 0.0
C216 C 0.87013 0.81298 0.56075 0.0
C217 C 0.80471 0.96907 0.41714 0.0
C218 C 0.7561 0.9517 0.62242 0.0
C219 C 0.677 0.82798 0.48774 0.0
O220 O 0.69079 0.87846 0.47368 0.0
O221 O 0.70745 0.80081 0.52307 0.0
O222 O 0.75866 0.98953 0.43781 0.0
O223 O 0.82786 0.92652 0.44225 0.0
O224 O 0.90084 0.04424 0.15514 0.0
Cd225 Cd 0.95863 0.02322 0.21814 0.0
Cd226 Cd 0.87025 0.03717 0.28755 0.0
O227 O 0.82558 0.03492 0.2099 0.0
O228 O 1.01187 0.96395 0.18989 0.0
O229 O 0.94615 0.94781 0.25518 0.0
C230 C 0.98577 0.92862 0.22276 0.0
C231 C 0.82968 0.99405 0.36637 0.0
C232 C 0.84706 0.04264 0.16109 0.0
C233 C 0.97077 0.12175 0.29577 0.0
O234 O 0.92029 0.10796 0.30982 0.0
O235 O 0.99794 0.0913 0.26043 0.0
O236 O 0.80922 0.0401 0.3457 0.0
O237 O 0.87223 0.97089 0.34126 0.0
O238 O 0.18765 0.65197 0.57388 0.0
Cd239 Cd 0.24807 0.59627 0.54499 0.0
Cd240 Cd 0.27593 0.69254 0.48237 0.0
O241 O 0.20658 0.72894 0.52341 0.0
O242 O 0.25807 0.53928 0.60789 0.0
O243 O 0.32703 0.59684 0.57839 0.0
C244 C 0.30989 0.55859 0.61324 0.0
C245 C 0.3713 0.72179 0.48482 0.0
C246 C 0.17589 0.70244 0.55914 0.0
C247 C 0.23839 0.5852 0.41795 0.0
O248 O 0.25585 0.63676 0.41641 0.0
O249 O 0.23147 0.56005 0.46517 0.0
O250 O 0.3348 0.74774 0.4529 0.0
O251 O 0.35256 0.6834 0.5188 0.0
O252 O 0.40084 0.54423 0.65513 0.0
Cd253 Cd 0.45863 0.52321 0.71814 0.0
Cd254 Cd 0.37025 0.53716 0.78754 0.0
O255 O 0.32557 0.53492 0.70989 0.0
O256 O 0.51187 0.46394 0.68988 0.0
O257 O 0.44615 0.44781 0.75518 0.0
C258 C 0.48576 0.42861 0.72275 0.0
C259 C 0.32968 0.49404 0.86636 0.0
C260 C 0.34705 0.54263 0.66108 0.0
C261 C 0.47076 0.62175 0.79576 0.0
O262 O 0.42028 0.60796 0.80982 0.0
O263 O 0.49794 0.59129 0.76043 0.0
O264 O 0.30922 0.54009 0.84569 0.0
O265 O 0.37222 0.47089 0.84125 0.0
O266 O 0.64678 0.1111 0.70963 0.0
Cd267 Cd 0.70248 0.05068 0.73851 0.0
Cd268 Cd 0.60621 0.02282 0.80114 0.0
O269 O 0.56981 0.09217 0.76009 0.0
O270 O 0.75946 0.04069 0.67561 0.0
O271 O 0.7019 0.97172 0.70511 0.0
C272 C 0.74014 0.98886 0.67025 0.0
C273 C 0.57696 0.92745 0.79868 0.0
C274 C 0.5963 0.12286 0.72437 0.0
C275 C 0.71354 0.06036 0.86555 0.0
O276 O 0.66199 0.0429 0.8671 0.0
O277 O 0.7387 0.06728 0.81833 0.0
O278 O 0.55101 0.96394 0.83061 0.0
O279 O 0.61534 0.94618 0.76471 0.0
O280 O 0.7194 0.64245 0.10564 0.0
Cd281 Cd 0.74829 0.69815 0.04522 0.0
Cd282 Cd 0.81092 0.60188 0.01736 0.0
O283 O 0.76987 0.56548 0.08671 0.0
O284 O 0.68538 0.75513 0.03522 0.0
O285 O 0.71489 0.69757 0.96626 0.0
C286 C 0.68003 0.73581 0.9834 0.0
C287 C 0.80846 0.57263 0.92199 0.0
C288 C 0.73414 0.59198 0.1174 0.0
C289 C 0.87533 0.70922 0.0549 0.0
O290 O 0.87688 0.65767 0.03744 0.0
O291 O 0.82811 0.73438 0.06182 0.0
O292 O 0.84039 0.54669 0.95848 0.0
O293 O 0.77449 0.61101 0.94073 0.0
O294 O 0.90223 0.63383 0.74473 0.0
Cd295 Cd 0.84444 0.57082 0.76575 0.0
Cd296 Cd 0.93281 0.50141 0.7518 0.0
O297 O 0.97749 0.57907 0.75404 0.0
O298 O 0.79119 0.59907 0.82502 0.0
O299 O 0.85691 0.53378 0.84115 0.0
C300 C 0.8173 0.5662 0.86035 0.0
C301 C 0.97339 0.4226 0.79492 0.0
C302 C 0.95601 0.62787 0.74633 0.0
C303 C 0.8323 0.4932 0.66722 0.0
O304 O 0.88278 0.47914 0.68101 0.0
O305 O 0.80512 0.52853 0.69767 0.0
O306 O 0.99384 0.44327 0.74887 0.0
O307 O 0.93084 0.44771 0.81807 0.0
O308 O 0.66492 0.39652 0.53877 0.0
Cd309 Cd 0.72793 0.45431 0.51776 0.0
Cd310 Cd 0.79733 0.36593 0.5317 0.0
O311 O 0.71968 0.32125 0.52947 0.0
O312 O 0.69967 0.50755 0.45849 0.0
O313 O 0.76496 0.44183 0.44235 0.0
C314 C 0.73255 0.48145 0.42316 0.0
C315 C 0.87615 0.32536 0.48858 0.0
C316 C 0.67087 0.34274 0.53718 0.0
C317 C 0.80555 0.46644 0.61629 0.0
O318 O 0.81961 0.41596 0.6025 0.0
O319 O 0.77022 0.49362 0.58584 0.0
O320 O 0.85548 0.3049 0.53463 0.0
O321 O 0.85104 0.36791 0.46543 0.0
O322 O 0.65629 0.57935 0.17787 0.0
Cd323 Cd 0.60059 0.55045 0.23829 0.0
Cd324 Cd 0.69687 0.48783 0.26614 0.0
O325 O 0.73327 0.52887 0.19679 0.0
O326 O 0.54361 0.61336 0.24829 0.0
O327 O 0.60118 0.58386 0.31725 0.0
C328 C 0.56293 0.61871 0.30011 0.0
C329 C 0.72612 0.49029 0.36151 0.0
C330 C 0.70677 0.5646 0.16611 0.0
C331 C 0.58953 0.42342 0.2286 0.0
O332 O 0.64108 0.42187 0.24607 0.0
O333 O 0.56437 0.47064 0.22169 0.0
O334 O 0.75206 0.45836 0.32502 0.0
O335 O 0.68773 0.52426 0.34278 0.0
loop_
_geom_bond_atom_site_label_1
_geom_bond_atom_site_label_2
_geom_bond_distance
_geom_bond_site_symmetry_2
_ccdc_geom_bond_type
O0 Cd1 2.223 . S
O0 C8 1.315 . S
Cd1 O0 2.223 . S
Cd1 O4 2.297 . S
Cd1 O5 2.439 . S
Cd1 O11 2.240 1_455 S
Cd2 O3 2.240 1_655 S
Cd2 O10 2.223 . S
Cd2 O12 2.297 . S
Cd2 O13 2.439 . S
O3 Cd2 2.240 1_455 S
O3 C8 1.279 . S
O4 Cd1 2.297 . S
O4 C6 1.247 . S
O5 Cd1 2.439 . S
O5 C6 1.208 . S
C6 O4 1.247 . S
C6 O5 1.208 . S
C7 O12 1.247 . S
C7 O13 1.208 . S
C8 O0 1.315 . S
C8 O3 1.279 . S
C9 O10 1.315 . S
C9 O11 1.279 . S
O10 Cd2 2.223 . S
O10 C9 1.315 . S
O11 Cd1 2.240 1_655 S
O11 C9 1.279 . S
O12 Cd2 2.297 . S
O12 C7 1.247 . S
O13 Cd2 2.439 . S
O13 C7 1.208 . S
O14 Cd15 2.223 . S
O14 C22 1.315 . S
Cd15 O14 2.223 . S
Cd15 O18 2.297 . S
Cd15 O19 2.439 1_455 S
Cd15 O25 2.240 . S
Cd16 O17 2.240 . S
Cd16 O24 2.223 . S
Cd16 O26 2.297 1_455 S
Cd16 O27 2.439 1_455 S
O17 Cd16 2.240 . S
O17 C22 1.279 . S
O18 Cd15 2.297 . S
O18 C20 1.247 1_455 S
O19 Cd15 2.439 1_655 S
O19 C20 1.208 . S
C20 O18 1.247 1_655 S
C20 O19 1.208 . S
C21 O26 1.247 . S
C21 O27 1.208 . S
C22 O14 1.315 . S
C22 O17 1.279 . S
C23 O24 1.315 . S
C23 O25 1.279 . S
O24 Cd16 2.223 . S
O24 C23 1.315 . S
O25 Cd15 2.240 . S
O25 C23 1.279 . S
O26 Cd16 2.297 1_655 S
O26 C21 1.247 . S
O27 Cd16 2.439 1_655 S
O27 C21 1.208 . S
O28 Cd29 2.223 . S
O28 C36 1.315 . S
Cd29 O28 2.223 . S
Cd29 O32 2.297 . S
Cd29 O33 2.439 . S
Cd29 O39 2.240 . S
Cd30 O31 2.240 . S
Cd30 O38 2.223 . S
Cd30 O40 2.297 . S
Cd30 O41 2.439 . S
O31 Cd30 2.240 . S
O31 C36 1.279 . S
O32 Cd29 2.297 . S
O32 C34 1.247 . S
O33 Cd29 2.439 . S
O33 C34 1.208 . S
C34 O32 1.247 . S
C34 O33 1.208 . S
C35 O40 1.247 . S
C35 O41 1.208 . S
C36 O28 1.315 . S
C36 O31 1.279 . S
C37 O38 1.315 . S
C37 O39 1.279 . S
O38 Cd30 2.223 . S
O38 C37 1.315 . S
O39 Cd29 2.240 . S
O39 C37 1.279 . S
O40 Cd30 2.297 . S
O40 C35 1.247 . S
O41 Cd30 2.439 . S
O41 C35 1.208 . S
O42 Cd43 2.223 . S
O42 C50 1.315 . S
Cd43 O42 2.223 . S
Cd43 O46 2.297 . S
Cd43 O47 2.439 . S
Cd43 O53 2.240 . S
Cd44 O45 2.240 . S
Cd44 O52 2.223 . S
Cd44 O54 2.297 . S
Cd44 O55 2.439 . S
O45 Cd44 2.240 . S
O45 C50 1.279 . S
O46 Cd43 2.297 . S
O46 C48 1.247 . S
O47 Cd43 2.439 . S
O47 C48 1.208 . S
C48 O46 1.247 . S
C48 O47 1.208 . S
C49 O54 1.247 . S
C49 O55 1.208 . S
C50 O42 1.315 . S
C50 O45 1.279 . S
C51 O52 1.315 . S
C51 O53 1.279 . S
O52 Cd44 2.223 . S
O52 C51 1.315 . S
O53 Cd43 2.240 . S
O53 C51 1.279 . S
O54 Cd44 2.297 . S
O54 C49 1.247 . S
O55 Cd44 2.439 . S
O55 C49 1.208 . S
O56 Cd57 2.223 . S
O56 C64 1.315 . S
Cd57 O56 2.223 . S
Cd57 O60 2.297 . S
Cd57 O61 2.439 . S
Cd57 O67 2.240 1_455 S
Cd58 O59 2.240 1_655 S
Cd58 O66 2.223 . S
Cd58 O68 2.297 . S
Cd58 O69 2.439 . S
O59 Cd58 2.240 1_455 S
O59 C64 1.279 . S
O60 Cd57 2.297 . S
O60 C62 1.247 . S
O61 Cd57 2.439 . S
O61 C62 1.208 . S
C62 O60 1.247 . S
C62 O61 1.208 . S
C63 O68 1.247 . S
C63 O69 1.208 . S
C64 O56 1.315 . S
C64 O59 1.279 . S
C65 O66 1.315 . S
C65 O67 1.279 . S
O66 Cd58 2.223 . S
O66 C65 1.315 . S
O67 Cd57 2.240 1_655 S
O67 C65 1.279 . S
O68 Cd58 2.297 . S
O68 C63 1.247 . S
O69 Cd58 2.439 . S
O69 C63 1.208 . S
O70 Cd71 2.223 . S
O70 C78 1.315 . S
Cd71 O70 2.223 . S
Cd71 O74 2.297 . S
Cd71 O75 2.439 . S
Cd71 O81 2.240 . S
Cd72 O73 2.240 . S
Cd72 O80 2.223 . S
Cd72 O82 2.297 . S
Cd72 O83 2.439 . S
O73 Cd72 2.240 . S
O73 C78 1.279 . S
O74 Cd71 2.297 . S
O74 C76 1.247 . S
O75 Cd71 2.439 . S
O75 C76 1.208 . S
C76 O74 1.247 . S
C76 O75 1.208 . S
C77 O82 1.247 . S
C77 O83 1.208 . S
C78 O70 1.315 . S
C78 O73 1.279 . S
C79 O80 1.315 . S
C79 O81 1.279 . S
O80 Cd72 2.223 . S
O80 C79 1.315 . S
O81 Cd71 2.240 . S
O81 C79 1.279 . S
O82 Cd72 2.297 . S
O82 C77 1.247 . S
O83 Cd72 2.439 . S
O83 C77 1.208 . S
O84 Cd85 2.223 . S
O84 C92 1.315 . S
Cd85 O84 2.223 . S
Cd85 O88 2.297 . S
Cd85 O89 2.439 . S
Cd85 O95 2.240 . S
Cd86 O87 2.240 . S
Cd86 O94 2.223 . S
Cd86 O96 2.297 . S
Cd86 O97 2.439 . S
O87 Cd86 2.240 . S
O87 C92 1.279 . S
O88 Cd85 2.297 . S
O88 C90 1.247 . S
O89 Cd85 2.439 . S
O89 C90 1.208 . S
C90 O88 1.247 . S
C90 O89 1.208 . S
C91 O96 1.247 . S
C91 O97 1.208 . S
C92 O84 1.315 . S
C92 O87 1.279 . S
C93 O94 1.315 . S
C93 O95 1.279 . S
O94 Cd86 2.223 . S
O94 C93 1.315 . S
O95 Cd85 2.240 . S
O95 C93 1.279 . S
O96 Cd86 2.297 . S
O96 C91 1.247 . S
O97 Cd86 2.439 . S
O97 C91 1.208 . S
O98 Cd99 2.223 . S
O98 C106 1.315 . S
Cd99 O98 2.223 . S
Cd99 O102 2.297 1_455 S
Cd99 O103 2.439 1_455 S
Cd99 O109 2.240 . S
Cd100 O101 2.240 . S
Cd100 O108 2.223 . S
Cd100 O110 2.297 . S
Cd100 O111 2.439 1_455 S
O101 Cd100 2.240 . S
O101 C106 1.279 . S
O102 Cd99 2.297 1_655 S
O102 C104 1.247 . S
O103 Cd99 2.439 1_655 S
O103 C104 1.208 . S
C104 O102 1.247 . S
C104 O103 1.208 . S
C105 O110 1.247 1_655 S
C105 O111 1.208 . S
C106 O98 1.315 . S
C106 O101 1.279 . S
C107 O108 1.315 . S
C107 O109 1.279 . S
O108 Cd100 2.223 . S
O108 C107 1.315 . S
O109 Cd99 2.240 . S
O109 C107 1.279 . S
O110 Cd100 2.297 . S
O110 C105 1.247 1_455 S
O111 Cd100 2.439 1_655 S
O111 C105 1.208 . S
O112 Cd113 2.223 . S
O112 C120 1.315 . S
Cd113 O112 2.223 . S
Cd113 O116 2.297 . S
Cd113 O117 2.439 . S
Cd113 O123 2.240 1_545 S
Cd114 O115 2.240 1_565 S
Cd114 O122 2.223 . S
Cd114 O124 2.297 . S
Cd114 O125 2.439 . S
O115 Cd114 2.240 1_545 S
O115 C120 1.279 . S
O116 Cd113 2.297 . S
O116 C118 1.247 . S
O117 Cd113 2.439 . S
O117 C118 1.208 . S
C118 O116 1.247 . S
C118 O117 1.208 . S
C119 O124 1.247 . S
C119 O125 1.208 . S
C120 O112 1.315 . S
C120 O115 1.279 . S
C121 O122 1.315 . S
C121 O123 1.279 . S
O122 Cd114 2.223 . S
O122 C121 1.315 . S
O123 Cd113 2.240 1_565 S
O123 C121 1.279 . S
O124 Cd114 2.297 . S
O124 C119 1.247 . S
O125 Cd114 2.439 . S
O125 C119 1.208 . S
O126 Cd127 2.223 . S
O126 C134 1.315 . S
Cd127 O126 2.223 . S
Cd127 O130 2.297 . S
Cd127 O131 2.439 . S
Cd127 O137 2.240 . S
Cd128 O129 2.240 . S
Cd128 O136 2.223 . S
Cd128 O138 2.297 . S
Cd128 O139 2.439 . S
O129 Cd128 2.240 . S
O129 C134 1.279 . S
O130 Cd127 2.297 . S
O130 C132 1.247 . S
O131 Cd127 2.439 . S
O131 C132 1.208 . S
C132 O130 1.247 . S
C132 O131 1.208 . S
C133 O138 1.247 . S
C133 O139 1.208 . S
C134 O126 1.315 . S
C134 O129 1.279 . S
C135 O136 1.315 . S
C135 O137 1.279 . S
O136 Cd128 2.223 . S
O136 C135 1.315 . S
O137 Cd127 2.240 . S
O137 C135 1.279 . S
O138 Cd128 2.297 . S
O138 C133 1.247 . S
O139 Cd128 2.439 . S
O139 C133 1.208 . S
O140 Cd141 2.223 . S
O140 C148 1.315 . S
Cd141 O140 2.223 . S
Cd141 O144 2.297 . S
Cd141 O145 2.439 . S
Cd141 O151 2.240 1_545 S
Cd142 O143 2.240 1_565 S
Cd142 O150 2.223 . S
Cd142 O152 2.297 . S
Cd142 O153 2.439 . S
O143 Cd142 2.240 1_545 S
O143 C148 1.279 . S
O144 Cd141 2.297 . S
O144 C146 1.247 . S
O145 Cd141 2.439 . S
O145 C146 1.208 . S
C146 O144 1.247 . S
C146 O145 1.208 . S
C147 O152 1.247 . S
C147 O153 1.208 . S
C148 O140 1.315 . S
C148 O143 1.279 . S
C149 O150 1.315 . S
C149 O151 1.279 . S
O150 Cd142 2.223 . S
O150 C149 1.315 . S
O151 Cd141 2.240 1_565 S
O151 C149 1.279 . S
O152 Cd142 2.297 . S
O152 C147 1.247 . S
O153 Cd142 2.439 . S
O153 C147 1.208 . S
O154 Cd155 2.223 . S
O154 C162 1.315 . S
Cd155 O154 2.223 . S
Cd155 O158 2.297 1_554 S
Cd155 O159 2.439 1_554 S
Cd155 O165 2.240 . S
Cd156 O157 2.240 . S
Cd156 O164 2.223 . S
Cd156 O166 2.297 . S
Cd156 O167 2.439 1_554 S
O157 Cd156 2.240 . S
O157 C162 1.279 . S
O158 Cd155 2.297 1_556 S
O158 C160 1.247 . S
O159 Cd155 2.439 1_556 S
O159 C160 1.208 . S
C160 O158 1.247 . S
C160 O159 1.208 . S
C161 O166 1.247 1_556 S
C161 O167 1.208 . S
C162 O154 1.315 . S
C162 O157 1.279 . S
C163 O164 1.315 . S
C163 O165 1.279 . S
O164 Cd156 2.223 . S
O164 C163 1.315 . S
O165 Cd155 2.240 . S
O165 C163 1.279 . S
O166 Cd156 2.297 . S
O166 C161 1.247 1_554 S
O167 Cd156 2.439 1_556 S
O167 C161 1.208 . S
O168 Cd169 2.223 . S
O168 C176 1.315 . S
Cd169 O168 2.223 . S
Cd169 O172 2.297 . S
Cd169 O173 2.439 . S
Cd169 O179 2.240 1_554 S
Cd170 O171 2.240 1_556 S
Cd170 O178 2.223 . S
Cd170 O180 2.297 . S
Cd170 O181 2.439 . S
O171 Cd170 2.240 1_554 S
O171 C176 1.279 . S
O172 Cd169 2.297 . S
O172 C174 1.247 . S
O173 Cd169 2.439 . S
O173 C174 1.208 . S
C174 O172 1.247 . S
C174 O173 1.208 . S
C175 O180 1.247 . S
C175 O181 1.208 . S
C176 O168 1.315 . S
C176 O171 1.279 . S
C177 O178 1.315 . S
C177 O179 1.279 . S
O178 Cd170 2.223 . S
O178 C177 1.315 . S
O179 Cd169 2.240 1_556 S
O179 C177 1.279 . S
O180 Cd170 2.297 . S
O180 C175 1.247 . S
O181 Cd170 2.439 . S
O181 C175 1.208 . S
O182 Cd183 2.223 . S
O182 C190 1.315 . S
Cd183 O182 2.223 . S
Cd183 O186 2.297 . S
Cd183 O187 2.439 . S
Cd183 O193 2.240 1_554 S
Cd184 O185 2.240 1_556 S
Cd184 O192 2.223 . S
Cd184 O194 2.297 . S
Cd184 O195 2.439 . S
O185 Cd184 2.240 1_554 S
O185 C190 1.279 . S
O186 Cd183 2.297 . S
O186 C188 1.247 . S
O187 Cd183 2.439 . S
O187 C188 1.208 . S
C188 O186 1.247 . S
C188 O187 1.208 . S
C189 O194 1.247 . S
C189 O195 1.208 . S
C190 O182 1.315 . S
C190 O185 1.279 . S
C191 O192 1.315 . S
C191 O193 1.279 . S
O192 Cd184 2.223 . S
O192 C191 1.315 . S
O193 Cd183 2.240 1_556 S
O193 C191 1.279 . S
O194 Cd184 2.297 . S
O194 C189 1.247 . S
O195 Cd184 2.439 . S
O195 C189 1.208 . S
O196 Cd197 2.223 . S
O196 C204 1.315 . S
Cd197 O196 2.223 . S
Cd197 O200 2.297 . S
Cd197 O201 2.439 . S
Cd197 O207 2.240 . S
Cd198 O199 2.240 . S
Cd198 O206 2.223 . S
Cd198 O208 2.297 . S
Cd198 O209 2.439 . S
O199 Cd198 2.240 . S
O199 C204 1.279 . S
O200 Cd197 2.297 . S
O200 C202 1.247 . S
O201 Cd197 2.439 . S
O201 C202 1.208 . S
C202 O200 1.247 . S
C202 O201 1.208 . S
C203 O208 1.247 . S
C203 O209 1.208 . S
C204 O196 1.315 . S
C204 O199 1.279 . S
C205 O206 1.315 . S
C205 O207 1.279 . S
O206 Cd198 2.223 . S
O206 C205 1.315 . S
O207 Cd197 2.240 . S
O207 C205 1.279 . S
O208 Cd198 2.297 . S
O208 C203 1.247 . S
O209 Cd198 2.439 . S
O209 C203 1.208 . S
O210 Cd211 2.223 . S
O210 C218 1.315 . S
Cd211 O210 2.223 . S
Cd211 O214 2.297 . S
Cd211 O215 2.439 . S
Cd211 O221 2.240 . S
Cd212 O213 2.240 . S
Cd212 O220 2.223 . S
Cd212 O222 2.297 . S
Cd212 O223 2.439 . S
O213 Cd212 2.240 . S
O213 C218 1.279 . S
O214 Cd211 2.297 . S
O214 C216 1.247 . S
O215 Cd211 2.439 . S
O215 C216 1.208 . S
C216 O214 1.247 . S
C216 O215 1.208 . S
C217 O222 1.247 . S
C217 O223 1.208 . S
C218 O210 1.315 . S
C218 O213 1.279 . S
C219 O220 1.315 . S
C219 O221 1.279 . S
O220 Cd212 2.223 . S
O220 C219 1.315 . S
O221 Cd211 2.240 . S
O221 C219 1.279 . S
O222 Cd212 2.297 . S
O222 C217 1.247 . S
O223 Cd212 2.439 . S
O223 C217 1.208 . S
O224 Cd225 2.223 . S
O224 C232 1.315 . S
Cd225 O224 2.223 . S
Cd225 O228 2.297 1_545 S
Cd225 O229 2.439 1_545 S
Cd225 O235 2.240 . S
Cd226 O227 2.240 . S
Cd226 O234 2.223 . S
Cd226 O236 2.297 . S
Cd226 O237 2.439 1_545 S
O227 Cd226 2.240 . S
O227 C232 1.279 . S
O228 Cd225 2.297 1_565 S
O228 C230 1.247 . S
O229 Cd225 2.439 1_565 S
O229 C230 1.208 . S
C230 O228 1.247 . S
C230 O229 1.208 . S
C231 O236 1.247 1_565 S
C231 O237 1.208 . S
C232 O224 1.315 . S
C232 O227 1.279 . S
C233 O234 1.315 . S
C233 O235 1.279 . S
O234 Cd226 2.223 . S
O234 C233 1.315 . S
O235 Cd225 2.240 . S
O235 C233 1.279 . S
O236 Cd226 2.297 . S
O236 C231 1.247 1_545 S
O237 Cd226 2.439 1_565 S
O237 C231 1.208 . S
O238 Cd239 2.223 . S
O238 C246 1.315 . S
Cd239 O238 2.223 . S
Cd239 O242 2.297 . S
Cd239 O243 2.439 . S
Cd239 O249 2.240 . S
Cd240 O241 2.240 . S
Cd240 O248 2.223 . S
Cd240 O250 2.297 . S
Cd240 O251 2.439 . S
O241 Cd240 2.240 . S
O241 C246 1.279 . S
O242 Cd239 2.297 . S
O242 C244 1.247 . S
O243 Cd239 2.439 . S
O243 C244 1.208 . S
C244 O242 1.247 . S
C244 O243 1.208 . S
C245 O250 1.247 . S
C245 O251 1.208 . S
C246 O238 1.315 . S
C246 O241 1.279 . S
C247 O248 1.315 . S
C247 O249 1.279 . S
O248 Cd240 2.223 . S
O248 C247 1.315 . S
O249 Cd239 2.240 . S
O249 C247 1.279 . S
O250 Cd240 2.297 . S
O250 C245 1.247 . S
O251 Cd240 2.439 . S
O251 C245 1.208 . S
O252 Cd253 2.223 . S
O252 C260 1.315 . S
Cd253 O252 2.223 . S
Cd253 O256 2.297 . S
Cd253 O257 2.439 . S
Cd253 O263 2.240 . S
Cd254 O255 2.240 . S
Cd254 O262 2.223 . S
Cd254 O264 2.297 . S
Cd254 O265 2.439 . S
O255 Cd254 2.240 . S
O255 C260 1.279 . S
O256 Cd253 2.297 . S
O256 C258 1.247 . S
O257 Cd253 2.439 . S
O257 C258 1.208 . S
C258 O256 1.247 . S
C258 O257 1.208 . S
C259 O264 1.247 . S
C259 O265 1.208 . S
C260 O252 1.315 . S
C260 O255 1.279 . S
C261 O262 1.315 . S
C261 O263 1.279 . S
O262 Cd254 2.223 . S
O262 C261 1.315 . S
O263 Cd253 2.240 . S
O263 C261 1.279 . S
O264 Cd254 2.297 . S
O264 C259 1.247 . S
O265 Cd254 2.439 . S
O265 C259 1.208 . S
O266 Cd267 2.223 . S
O266 C274 1.315 . S
Cd267 O266 2.223 . S
Cd267 O270 2.297 . S
Cd267 O271 2.439 1_545 S
Cd267 O277 2.240 . S
Cd268 O269 2.240 . S
Cd268 O276 2.223 . S
Cd268 O278 2.297 1_545 S
Cd268 O279 2.439 1_545 S
O269 Cd268 2.240 . S
O269 C274 1.279 . S
O270 Cd267 2.297 . S
O270 C272 1.247 1_545 S
O271 Cd267 2.439 1_565 S
O271 C272 1.208 . S
C272 O270 1.247 1_565 S
C272 O271 1.208 . S
C273 O278 1.247 . S
C273 O279 1.208 . S
C274 O266 1.315 . S
C274 O269 1.279 . S
C275 O276 1.315 . S
C275 O277 1.279 . S
O276 Cd268 2.223 . S
O276 C275 1.315 . S
O277 Cd267 2.240 . S
O277 C275 1.279 . S
O278 Cd268 2.297 1_565 S
O278 C273 1.247 . S
O279 Cd268 2.439 1_565 S
O279 C273 1.208 . S
O280 Cd281 2.223 . S
O280 C288 1.315 . S
Cd281 O280 2.223 . S
Cd281 O284 2.297 . S
Cd281 O285 2.439 1_554 S
Cd281 O291 2.240 . S
Cd282 O283 2.240 . S
Cd282 O290 2.223 . S
Cd282 O292 2.297 1_554 S
Cd282 O293 2.439 1_554 S
O283 Cd282 2.240 . S
O283 C288 1.279 . S
O284 Cd281 2.297 . S
O284 C286 1.247 1_554 S
O285 Cd281 2.439 1_556 S
O285 C286 1.208 . S
C286 O284 1.247 1_556 S
C286 O285 1.208 . S
C287 O292 1.247 . S
C287 O293 1.208 . S
C288 O280 1.315 . S
C288 O283 1.279 . S
C289 O290 1.315 . S
C289 O291 1.279 . S
O290 Cd282 2.223 . S
O290 C289 1.315 . S
O291 Cd281 2.240 . S
O291 C289 1.279 . S
O292 Cd282 2.297 1_556 S
O292 C287 1.247 . S
O293 Cd282 2.439 1_556 S
O293 C287 1.208 . S
O294 Cd295 2.223 . S
O294 C302 1.315 . S
Cd295 O294 2.223 . S
Cd295 O298 2.297 . S
Cd295 O299 2.439 . S
Cd295 O305 2.240 . S
Cd296 O297 2.240 . S
Cd296 O304 2.223 . S
Cd296 O306 2.297 . S
Cd296 O307 2.439 . S
O297 Cd296 2.240 . S
O297 C302 1.279 . S
O298 Cd295 2.297 . S
O298 C300 1.247 . S
O299 Cd295 2.439 . S
O299 C300 1.208 . S
C300 O298 1.247 . S
C300 O299 1.208 . S
C301 O306 1.247 . S
C301 O307 1.208 . S
C302 O294 1.315 . S
C302 O297 1.279 . S
C303 O304 1.315 . S
C303 O305 1.279 . S
O304 Cd296 2.223 . S
O304 C303 1.315 . S
O305 Cd295 2.240 . S
O305 C303 1.279 . S
O306 Cd296 2.297 . S
O306 C301 1.247 . S
O307 Cd296 2.439 . S
O307 C301 1.208 . S
O308 Cd309 2.223 . S
O308 C316 1.315 . S
Cd309 O308 2.223 . S
Cd309 O312 2.297 . S
Cd309 O313 2.439 . S
Cd309 O319 2.240 . S
Cd310 O311 2.240 . S
Cd310 O318 2.223 . S
Cd310 O320 2.297 . S
Cd310 O321 2.439 . S
O311 Cd310 2.240 . S
O311 C316 1.279 . S
O312 Cd309 2.297 . S
O312 C314 1.247 . S
O313 Cd309 2.439 . S
O313 C314 1.208 . S
C314 O312 1.247 . S
C314 O313 1.208 . S
C315 O320 1.247 . S
C315 O321 1.208 . S
C316 O308 1.315 . S
C316 O311 1.279 . S
C317 O318 1.315 . S
C317 O319 1.279 . S
O318 Cd310 2.223 . S
O318 C317 1.315 . S
O319 Cd309 2.240 . S
O319 C317 1.279 . S
O320 Cd310 2.297 . S
O320 C315 1.247 . S
O321 Cd310 2.439 . S
O321 C315 1.208 . S
O322 Cd323 2.223 . S
O322 C330 1.315 . S
Cd323 O322 2.223 . S
Cd323 O326 2.297 . S
Cd323 O327 2.439 . S
Cd323 O333 2.240 . S
Cd324 O325 2.240 . S
Cd324 O332 2.223 . S
Cd324 O334 2.297 . S
Cd324 O335 2.439 . S
O325 Cd324 2.240 . S
O325 C330 1.279 . S
O326 Cd323 2.297 . S
O326 C328 1.247 . S
O327 Cd323 2.439 . S
O327 C328 1.208 . S
C328 O326 1.247 . S
C328 O327 1.208 . S
C329 O334 1.247 . S
C329 O335 1.208 . S
C330 O322 1.315 . S
C330 O325 1.279 . S
C331 O332 1.315 . S
C331 O333 1.279 . S
O332 Cd324 2.223 . S
O332 C331 1.315 . S
O333 Cd323 2.240 . S
O333 C331 1.279 . S
O334 Cd324 2.297 . S
O334 C329 1.247 . S
O335 Cd324 2.439 . S
O335 C329 1.208 . S
C203 C6 1.759 . S
C21 C216 1.759 . S
C261 C37 2.024 . S
C50 C190 2.431 . S
C204 C64 2.431 . S
C79 C219 2.024 . S
C91 C258 1.759 . S
C104 C189 1.759 . S
C133 C118 1.759 . S
C148 C134 2.431 . S
C147 C160 1.759 . S
C163 C121 2.024 . S
C174 C49 1.759 . S
C63 C230 1.759 . S
C246 C22 2.431 . S
C20 C302 1.860 . S
C132 C8 1.860 . S
C331 C51 1.746 . S
C161 C35 0.813 . S
C301 C105 0.813 . S
C135 C93 1.746 . S
C78 C328 1.860 . S
C62 C162 1.860 . S
C218 C272 1.860 . S
C231 C217 0.813 . S
C188 C232 1.860 . S
C275 C191 1.746 . S
C36 C286 1.860 . S
C146 C106 1.860 . S
C7 C315 0.813 . S
C273 C34 1.759 . S
C9 C233 2.024 . S
C274 C92 2.431 . S
C177 C107 2.024 . S
C76 C245 1.759 . S
C300 C287 1.759 . S
C330 C288 2.431 . S
C314 C329 1.759 . S
C303 C317 2.024 . S
C120 C48 1.860 . S
C23 C149 1.746 . S
C77 C119 0.813 . S
C289 C65 1.746 . S
C90 C316 1.860 . S
C176 C202 1.860 . S
C259 C175 0.813 . S
C244 C260 1.860 . S
C205 C247 1.746 . S
