# Generated by pormake.
# Topology qtz-e, (6)-cn, num edge types: 1
# Building blocks:
#     Node 0, Type 0, BuildingBlock: JUFBIX_clean_sbu_0, # of connection points: 6
#     Node 1, Type 0, BuildingBlock: JUFBIX_clean_sbu_0, # of connection points: 6
#     Node 2, Type 0, BuildingBlock: JUFBIX_clean_sbu_0, # of connection points: 6
#     Node 3, Type 0, BuildingBlock: JUFBIX_clean_sbu_0, # of connection points: 6
#     Node 4, Type 0, BuildingBlock: JUFBIX_clean_sbu_0, # of connection points: 6
#     Node 5, Type 0, BuildingBlock: JUFBIX_clean_sbu_0, # of connection points: 6
#     Edge 6, Type (0, 0), BuildingBlock: KIFKEQ_clean_linker_1, # of connection points: 2
#     Edge 7, Type (0, 0), BuildingBlock: KIFKEQ_clean_linker_1, # of connection points: 2
#     Edge 8, Type (0, 0), BuildingBlock: KIFKEQ_clean_linker_1, # of connection points: 2
#     Edge 9, Type (0, 0), BuildingBlock: KIFKEQ_clean_linker_1, # of connection points: 2
#     Edge 10, Type (0, 0), BuildingBlock: KIFKEQ_clean_linker_1, # of connection points: 2
#     Edge 11, Type (0, 0), BuildingBlock: KIFKEQ_clean_linker_1, # of connection points: 2
#     Edge 12, Type (0, 0), BuildingBlock: KIFKEQ_clean_linker_1, # of connection points: 2
#     Edge 13, Type (0, 0), BuildingBlock: KIFKEQ_clean_linker_1, # of connection points: 2
#     Edge 14, Type (0, 0), BuildingBlock: KIFKEQ_clean_linker_1, # of connection points: 2
#     Edge 15, Type (0, 0), BuildingBlock: KIFKEQ_clean_linker_1, # of connection points: 2
#     Edge 16, Type (0, 0), BuildingBlock: KIFKEQ_clean_linker_1, # of connection points: 2
#     Edge 17, Type (0, 0), BuildingBlock: KIFKEQ_clean_linker_1, # of connection points: 2
#     Edge 18, Type (0, 0), BuildingBlock: KIFKEQ_clean_linker_1, # of connection points: 2
#     Edge 19, Type (0, 0), BuildingBlock: KIFKEQ_clean_linker_1, # of connection points: 2
#     Edge 20, Type (0, 0), BuildingBlock: KIFKEQ_clean_linker_1, # of connection points: 2
#     Edge 21, Type (0, 0), BuildingBlock: KIFKEQ_clean_linker_1, # of connection points: 2
#     Edge 22, Type (0, 0), BuildingBlock: KIFKEQ_clean_linker_1, # of connection points: 2
#     Edge 23, Type (0, 0), BuildingBlock: KIFKEQ_clean_linker_1, # of connection points: 2
# Relax obj value: 0.651
# Max RMSD: 0.298
# Mean RMSD: 0.298
data_MOF--net-qtz-e--node1-JUFBIX_clean_sbu_0--edge1-KIFKEQ_clean_linker_1
_symmetry_space_group_name_H-M    P1
_symmetry_Int_Tables_number       1
_symmetry_cell_setting            triclinic
loop_
_symmetry_equiv_pos_as_xyz
'x, y, z'
_cell_length_a     26.567123
_cell_length_b     26.516192
_cell_length_c     39.118892
_cell_angle_alpha  89.74792
_cell_angle_beta   89.981961
_cell_angle_gamma 120.02353
loop_
_atom_site_label
_atom_site_type_symbol
_atom_site_fract_x
_atom_site_fract_y
_atom_site_fract_z
_atom_type_partial_charge
Co0 Co 0.22981 0.42949 0.1469 0.0
C1 C 0.28624 0.36838 0.13241 0.0
Co2 Co 0.18794 0.36501 0.10615 0.0
C3 C 0.24644 0.49782 0.20676 0.0
C4 C 0.32664 0.52197 0.18112 0.0
N5 N 0.26877 0.485 0.17951 0.0
N6 N 0.28807 0.54148 0.22529 0.0
C7 C 0.33864 0.55699 0.20923 0.0
H8 H 0.20038 0.47636 0.21241 0.0
H9 H 0.35803 0.52342 0.16293 0.0
C10 C 0.1379 0.43386 0.11794 0.0
N11 N 0.15021 0.30898 0.07322 0.0
C12 C 0.17513 0.28983 0.05071 0.0
C13 C 0.09257 0.27608 0.06755 0.0
N14 N 0.13554 0.2459 0.03141 0.0
C15 C 0.0834 0.23732 0.04165 0.0
C16 C 0.14367 0.32452 0.17151 0.0
O17 O 0.17503 0.45481 0.14181 0.0
O18 O 0.13456 0.39247 0.09991 0.0
O19 O 0.13884 0.31131 0.14007 0.0
O20 O 0.18265 0.37489 0.18094 0.0
O21 O 0.24471 0.34067 0.11157 0.0
H22 H 0.05937 0.27928 0.08177 0.0
H23 H 0.22165 0.30788 0.04852 0.0
O24 O 0.28495 0.40607 0.15152 0.0
O25 O 0.27647 0.4839 0.11252 0.0
O26 O 0.2353 0.4182 0.07251 0.0
C27 C 0.27157 0.46993 0.08119 0.0
H28 H 0.38115 0.59099 0.2173 0.0
H29 H 0.04172 0.20449 0.03178 0.0
Co30 Co 0.75607 0.19161 0.37221 0.0
C31 C 0.69905 0.08016 0.39734 0.0
Co32 Co 0.80515 0.17885 0.41335 0.0
C33 C 0.73774 0.23309 0.30858 0.0
C34 C 0.65835 0.18463 0.33669 0.0
N35 N 0.7157 0.2029 0.33778 0.0
N36 N 0.6966 0.23486 0.28936 0.0
C37 C 0.6465 0.20456 0.30694 0.0
H38 H 0.78357 0.25531 0.30221 0.0
H39 H 0.62742 0.15936 0.35653 0.0
C40 C 0.85637 0.29274 0.39047 0.0
N41 N 0.84445 0.16665 0.44869 0.0
C42 C 0.83749 0.11492 0.45899 0.0
C43 C 0.87545 0.20409 0.47376 0.0
N44 N 0.86062 0.11773 0.49016 0.0
C45 C 0.88544 0.17422 0.49922 0.0
C46 C 0.83767 0.16335 0.34913 0.0
O47 O 0.81276 0.27119 0.37071 0.0
O48 O 0.86387 0.2591 0.41049 0.0
O49 O 0.84601 0.16036 0.38088 0.0
O50 O 0.79884 0.17494 0.33949 0.0
O51 O 0.74318 0.09907 0.41671 0.0
H52 H 0.88565 0.24898 0.47492 0.0
H53 H 0.81236 0.07506 0.44486 0.0
O54 O 0.69859 0.11312 0.37401 0.0
O55 O 0.71437 0.20911 0.40553 0.0
O56 O 0.76605 0.19834 0.44545 0.0
C57 C 0.72739 0.21053 0.43692 0.0
H58 H 0.60458 0.19798 0.29908 0.0
H59 H 0.90452 0.19183 0.52386 0.0
Co60 Co 0.55491 0.79139 0.80799 0.0
C61 C 0.61235 0.9008 0.77979 0.0
Co62 Co 0.61133 0.79735 0.76523 0.0
C63 C 0.49823 0.7559 0.87263 0.0
C64 C 0.47072 0.80767 0.84496 0.0
N65 N 0.50672 0.78563 0.84324 0.0
N66 N 0.45801 0.75796 0.89257 0.0
C67 C 0.44027 0.79028 0.87527 0.0
H68 H 0.51935 0.73105 0.8786 0.0
H69 H 0.46603 0.83356 0.82511 0.0
C70 C 0.54573 0.6855 0.79059 0.0
N71 N 0.66031 0.80407 0.72978 0.0
C72 C 0.66979 0.8349 0.70066 0.0
C73 C 0.69722 0.78311 0.72831 0.0
N74 N 0.71156 0.83465 0.68116 0.0
C75 C 0.72904 0.8021 0.69846 0.0
C76 C 0.66365 0.81514 0.82886 0.0
O77 O 0.52654 0.7098 0.8105 0.0
O78 O 0.58648 0.71691 0.7698 0.0
O79 O 0.6724 0.81577 0.79691 0.0
O80 O 0.61459 0.80571 0.8396 0.0
O81 O 0.63329 0.87804 0.75987 0.0
H82 H 0.70172 0.75697 0.74806 0.0
H83 H 0.64802 0.85907 0.69457 0.0
O84 O 0.58122 0.87117 0.80484 0.0
O85 O 0.49538 0.77692 0.77627 0.0
O86 O 0.55042 0.77758 0.73411 0.0
C87 C 0.50253 0.77126 0.74477 0.0
H88 H 0.40703 0.79972 0.88367 0.0
H89 H 0.76275 0.79318 0.69034 0.0
Co90 Co 0.79553 0.56071 0.03314 0.0
C91 C 0.91299 0.62172 0.0475 0.0
Co92 Co 0.81831 0.62552 0.07382 0.0
C93 C 0.74157 0.49493 0.97334 0.0
C94 C 0.80049 0.47083 -0.00492 0.0
N95 N 0.77838 0.50638 -0.00043 0.0
N96 N 0.73961 0.4536 0.95256 0.0
C97 C 0.77672 0.43829 0.96607 0.0
H98 H 0.71712 0.51709 0.96943 0.0
H99 H 0.8318 0.46875 0.01183 0.0
C100 C 0.69942 0.55692 0.06221 0.0
N101 N 0.83657 0.68081 0.10734 0.0
C102 C 0.87969 0.69898 0.13046 0.0
C103 C 0.81128 0.71316 0.11331 0.0
N104 N 0.88262 0.74157 0.15056 0.0
C105 C 0.83937 0.75042 0.14004 0.0
C106 C 0.81516 0.66681 0.00894 0.0
O107 O 0.71554 0.53588 0.03835 0.0
O108 O 0.73752 0.59824 0.0802 0.0
O109 O 0.82323 0.68015 0.04037 0.0
O110 O 0.80363 0.61633 -0.0003 0.0
O111 O 0.89925 0.64967 0.06827 0.0
H112 H 0.77522 0.71032 0.09889 0.0
H113 H 0.90817 0.68093 0.13268 0.0
O114 O 0.87398 0.58376 0.02852 0.0
O115 O 0.78735 0.50519 0.06698 0.0
O116 O 0.81225 0.57134 0.10686 0.0
C117 C 0.79668 0.51947 0.09829 0.0
H118 H 0.7851 0.40513 0.95616 0.0
H119 H 0.82952 0.78228 0.15043 0.0
Co120 Co 0.17948 0.76014 0.48026 0.0
C121 C 0.06874 0.70814 0.45446 0.0
Co122 Co 0.16911 0.81275 0.44045 0.0
C123 C 0.21596 0.73161 0.54274 0.0
C124 C 0.16869 0.65711 0.51073 0.0
N125 N 0.18739 0.71465 0.51285 0.0
N126 N 0.21644 0.68712 0.55909 0.0
C127 C 0.18716 0.64017 0.53907 0.0
H128 H 0.23853 0.77628 0.55151 0.0
H129 H 0.14476 0.62971 0.48942 0.0
C130 C 0.28235 0.86013 0.46365 0.0
N131 N 0.15955 0.85636 0.40693 0.0
C132 C 0.133 0.83536 0.37679 0.0
C133 C 0.17478 0.91312 0.40657 0.0
N134 N 0.13085 0.8764 0.35747 0.0
C135 C 0.15683 0.92555 0.37614 0.0
C136 C 0.15119 0.83945 0.50608 0.0
O137 O 0.25997 0.81479 0.4824 0.0
O138 O 0.24937 0.87008 0.44459 0.0
O139 O 0.1492 0.85049 0.47462 0.0
O140 O 0.1641 0.80092 0.51438 0.0
O141 O 0.08935 0.75317 0.43548 0.0
H142 H 0.19694 0.94325 0.42718 0.0
H143 H 0.11413 0.79012 0.36955 0.0
O144 O 0.10041 0.70527 0.47766 0.0
O145 O 0.19513 0.71969 0.44589 0.0
O146 O 0.18948 0.77578 0.40677 0.0
C147 C 0.19854 0.7347 0.41479 0.0
H148 H 0.18102 0.59729 0.54421 0.0
H149 H 0.16255 0.96732 0.36835 0.0
Co150 Co 0.40532 0.21662 0.70158 0.0
C151 C 0.34709 0.26842 0.73031 0.0
Co152 Co 0.34642 0.16572 0.74358 0.0
C153 C 0.49759 0.25882 0.65166 0.0
C154 C 0.43752 0.28848 0.64179 0.0
N155 N 0.45078 0.25889 0.66481 0.0
N156 N 0.5131 0.28566 0.62087 0.0
C157 C 0.47571 0.30503 0.61486 0.0
H158 H 0.51785 0.23666 0.66364 0.0
H159 H 0.39988 0.29395 0.64318 0.0
C160 C 0.41152 0.11836 0.71782 0.0
N161 N 0.29924 0.12357 0.77963 0.0
C162 C 0.29446 0.14561 0.80957 0.0
C163 C 0.26048 0.06605 0.78163 0.0
N164 N 0.25403 0.10446 0.8302 0.0
C165 C 0.23225 0.05418 0.81273 0.0
C166 C 0.29378 0.13313 0.681 0.0
O167 O 0.43112 0.16176 0.69762 0.0
O168 O 0.37155 0.11011 0.73888 0.0
O169 O 0.28449 0.12316 0.71279 0.0
O170 O 0.34359 0.17256 0.67091 0.0
O171 O 0.3237 0.2234 0.74932 0.0
H172 H 0.25247 0.03506 0.76152 0.0
H173 H 0.31878 0.19156 0.81557 0.0
O174 O 0.38091 0.27148 0.70658 0.0
O175 O 0.46718 0.26045 0.73247 0.0
O176 O 0.40803 0.20777 0.77383 0.0
C177 C 0.45764 0.24809 0.76413 0.0
H178 H 0.47286 0.32531 0.59144 0.0
H179 H 0.19819 0.01211 0.82166 0.0
H180 H 0.2248 0.76738 0.34825 0.0
H181 H 0.2064 0.63631 0.42139 0.0
H182 H 0.25023 0.71963 0.30406 0.0
H183 H 0.23208 0.58859 0.37688 0.0
H184 H 0.20497 0.48871 0.27358 0.0
H185 H 0.18562 0.53553 0.32144 0.0
H186 H 0.33297 0.70085 0.29186 0.0
H187 H 0.35165 0.65425 0.2437 0.0
C188 C 0.22628 0.72843 0.3549 0.0
C189 C 0.21367 0.70552 0.38824 0.0
C190 C 0.24124 0.70142 0.32967 0.0
C191 C 0.24339 0.65078 0.33725 0.0
C192 C 0.23049 0.62756 0.37049 0.0
C193 C 0.21601 0.65492 0.39588 0.0
C194 C 0.23318 0.535 0.2774 0.0
C195 C 0.2795 0.56803 0.25487 0.0
C196 C 0.22248 0.5616 0.3049 0.0
C197 C 0.2577 0.62171 0.31009 0.0
C198 C 0.30495 0.65446 0.28813 0.0
C199 C 0.31591 0.62778 0.26082 0.0
H200 H 0.56311 0.35604 0.5658 0.0
H201 H 0.54951 0.2065 0.61928 0.0
H202 H 0.61816 0.34239 0.52031 0.0
H203 H 0.60505 0.19406 0.57452 0.0
H204 H 0.75051 0.21987 0.50484 0.0
H205 H 0.70458 0.24538 0.54982 0.0
H206 H 0.59531 0.2644 0.47522 0.0
H207 H 0.64203 0.23932 0.42957 0.0
C208 C 0.57208 0.32061 0.56803 0.0
C209 C 0.55161 0.28235 0.59624 0.0
C210 C 0.60348 0.31283 0.54199 0.0
C211 C 0.61555 0.2671 0.54393 0.0
C212 C 0.59689 0.23013 0.5726 0.0
C213 C 0.56523 0.23757 0.59842 0.0
C214 C 0.71677 0.22955 0.49785 0.0
C215 C 0.69941 0.22702 0.46366 0.0
C216 C 0.69052 0.24414 0.52369 0.0
C217 C 0.64632 0.25652 0.51596 0.0
C218 C 0.62971 0.25545 0.48173 0.0
C219 C 0.65604 0.24068 0.45572 0.0
H220 H 0.365 0.57904 0.08998 0.0
H221 H 0.24938 0.46148 0.01309 0.0
H222 H 0.41238 0.65527 0.04634 0.0
H223 H 0.2963 0.53759 0.96993 0.0
H224 H 0.34583 0.70508 0.91254 0.0
H225 H 0.3026 0.63798 0.96081 0.0
H226 H 0.47235 0.66866 0.99002 0.0
H227 H 0.51563 0.73599 0.94169 0.0
C228 C 0.35 0.56944 0.0638 0.0
C229 C 0.30358 0.51443 0.05487 0.0
C230 C 0.37703 0.61294 0.03896 0.0
C231 C 0.35728 0.60222 0.00507 0.0
C232 C 0.31159 0.54701 -0.00392 0.0
C233 C 0.2852 0.50338 0.0207 0.0
C234 C 0.37395 0.69845 0.92973 0.0
C235 C 0.43389 0.72522 0.9234 0.0
C236 C 0.34926 0.65979 0.95707 0.0
C237 C 0.38427 0.64799 0.97873 0.0
C238 C 0.44461 0.67724 0.9736 0.0
C239 C 0.4692 0.71532 0.94597 0.0
H240 H 0.64055 0.29149 0.27006 0.0
H241 H 0.775 0.25455 0.23968 0.0
H242 H 0.6645 0.35757 0.22133 0.0
H243 H 0.7992 0.32106 0.19086 0.0
H244 H 0.77834 0.40893 0.0902 0.0
H245 H 0.75101 0.33421 0.13475 0.0
H246 H 0.75945 0.45608 0.21051 0.0
H247 H 0.78712 0.53056 0.16655 0.0
C248 C 0.67444 0.29669 0.25259 0.0
C249 C 0.70622 0.26833 0.25867 0.0
C250 C 0.68844 0.33476 0.22494 0.0
C251 C 0.73396 0.34454 0.20269 0.0
C252 C 0.76387 0.31404 0.20771 0.0
C253 C 0.75034 0.27647 0.23566 0.0
C254 C 0.77477 0.41975 0.11643 0.0
C255 C 0.78476 0.47547 0.12493 0.0
C256 C 0.75921 0.37713 0.14179 0.0
C257 C 0.75251 0.38947 0.1758 0.0
C258 C 0.76353 0.44539 0.18432 0.0
C259 C 0.77984 0.48809 0.15919 0.0
H260 H 0.44732 0.67155 0.70939 0.0
H261 H 0.45166 0.83397 0.72718 0.0
H262 H 0.36927 0.64374 0.66807 0.0
H263 H 0.37688 0.80912 0.68383 0.0
H264 H 0.21833 0.73885 0.61827 0.0
H265 H 0.28107 0.7533 0.66732 0.0
H266 H 0.35643 0.66474 0.61305 0.0
H267 H 0.29055 0.6471 0.56569 0.0
C268 C 0.43145 0.7013 0.70406 0.0
C269 C 0.45486 0.75469 0.72094 0.0
C270 C 0.38718 0.6858 0.68028 0.0
C271 C 0.36699 0.7244 0.67217 0.0
C272 C 0.39037 0.77774 0.68973 0.0
C273 C 0.43352 0.7924 0.71429 0.0
C274 C 0.24783 0.72183 0.61747 0.0
C275 C 0.24985 0.69169 0.58869 0.0
C276 C 0.28413 0.73047 0.64526 0.0
C277 C 0.32429 0.71055 0.64422 0.0
C278 C 0.32532 0.67958 0.61532 0.0
C279 C 0.2879 0.66963 0.58804 0.0
H280 H 0.63476 0.44398 0.94225 0.0
H281 H 0.76104 0.40726 0.89661 0.0
H282 H 0.57021 0.39867 0.89404 0.0
H283 H 0.69522 0.36026 0.84843 0.0
H284 H 0.57291 0.32905 0.75412 0.0
H285 H 0.64539 0.38326 0.7984 0.0
H286 H 0.51498 0.29368 0.87641 0.0
H287 H 0.44317 0.24023 0.83286 0.0
C288 C 0.64906 0.42686 0.92172 0.0
C289 C 0.70287 0.42895 0.92326 0.0
C290 C 0.61189 0.40051 0.89427 0.0
C291 C 0.62772 0.37572 0.86774 0.0
C292 C 0.68224 0.37933 0.86857 0.0
C293 C 0.71948 0.40555 0.89625 0.0
C294 C 0.55995 0.3211 0.78075 0.0
C295 C 0.50242 0.28057 0.79003 0.0
C296 C 0.60134 0.35183 0.80597 0.0
C297 C 0.58542 0.34285 0.84067 0.0
C298 C 0.5281 0.30203 0.8498 0.0
C299 C 0.48711 0.27118 0.8248 0.0
H300 H 0.32377 0.32884 0.07868 0.0
H301 H 0.3785 0.41843 0.17521 0.0
H302 H 0.42519 0.36655 0.06276 0.0
H303 H 0.47851 0.45985 0.15857 0.0
H304 H 0.66102 0.5271 0.12686 0.0
H305 H 0.56218 0.4637 0.14631 0.0
H306 H 0.50081 0.45209 0.04244 0.0
H307 H 0.60127 0.5112 0.02295 0.0
C308 C 0.35733 0.35515 0.09693 0.0
C309 C 0.343 0.37135 0.128 0.0
C310 C 0.41574 0.37811 0.08747 0.0
C311 C 0.46089 0.41833 0.10868 0.0
C312 C 0.44594 0.42924 0.14125 0.0
C313 C 0.38794 0.40533 0.15094 0.0
C314 C 0.62613 0.51143 0.10833 0.0
C315 C 0.63838 0.52516 0.07356 0.0
C316 C 0.56916 0.47484 0.11942 0.0
C317 C 0.52243 0.45264 0.09619 0.0
C318 C 0.53513 0.46698 0.06123 0.0
C319 C 0.5926 0.50193 0.05 0.0
H320 H 0.99708 0.61672 0.49498 0.0
H321 H 0.02969 0.67369 0.38966 0.0
H322 H 0.94289 0.5157 0.47643 0.0
H323 H 0.97667 0.5725 0.37104 0.0
H324 H 0.84736 0.37546 0.35341 0.0
H325 H 0.88719 0.47769 0.36808 0.0
H326 H 0.98133 0.45705 0.45188 0.0
H327 H 0.94059 0.35458 0.43776 0.0
C328 C 0.99068 0.60768 0.46784 0.0
C329 C 0.01786 0.65298 0.44379 0.0
C330 C 0.96067 0.54983 0.45721 0.0
C331 C 0.95744 0.53613 0.42232 0.0
C332 C 0.97882 0.58163 0.39812 0.0
C333 C 0.00862 0.63972 0.4088 0.0
C334 C 0.87734 0.39294 0.37464 0.0
C335 C 0.89046 0.35669 0.39461 0.0
C336 C 0.89995 0.45152 0.38308 0.0
C337 C 0.93611 0.47505 0.41167 0.0
C338 C 0.95206 0.4397 0.43032 0.0
C339 C 0.92949 0.38117 0.4219 0.0
H340 H 0.50562 0.13139 0.68123 0.0
H341 H 0.38808 0.03041 0.76293 0.0
H342 H 0.56679 0.08918 0.6947 0.0
H343 H 0.44884 0.98829 0.77606 0.0
H344 H 0.6148 0.93955 0.71458 0.0
H345 H 0.56821 0.99452 0.6961 0.0
H346 H 0.54725 0.0281 0.80152 0.0
H347 H 0.59303 0.97276 0.81996 0.0
C348 C 0.49218 0.09941 0.70161 0.0
C349 C 0.44206 0.08461 0.72117 0.0
C350 C 0.52743 0.07547 0.70938 0.0
C351 C 0.51348 0.03662 0.73701 0.0
C352 C 0.46168 0.01943 0.75524 0.0
C353 C 0.42639 0.04302 0.74741 0.0
C354 C 0.60265 0.96089 0.73376 0.0
C355 C 0.60725 0.95149 0.76878 0.0
C356 C 0.57532 0.99185 0.72315 0.0
C357 C 0.55241 0.014 0.7474 0.0
C358 C 0.56291 0.01003 0.78225 0.0
C359 C 0.59003 0.97915 0.79282 0.0
H360 H 0.56835 0.62051 0.74601 0.0
H361 H 0.45032 0.60508 0.82681 0.0
H362 H 0.5067 0.51773 0.73312 0.0
H363 H 0.38824 0.50165 0.8136 0.0
H364 H 0.34234 0.3036 0.79513 0.0
H365 H 0.38714 0.40523 0.81315 0.0
H366 H 0.40801 0.45973 0.70745 0.0
H367 H 0.36412 0.35858 0.68949 0.0
C368 C 0.5297 0.59506 0.76137 0.0
C369 C 0.51419 0.62122 0.78731 0.0
C370 C 0.49391 0.53626 0.75367 0.0
C371 C 0.44179 0.502 0.77176 0.0
C372 C 0.42786 0.52711 0.79905 0.0
C373 C 0.46361 0.58627 0.80667 0.0
C374 C 0.35397 0.33707 0.7758 0.0
C375 C 0.35017 0.32326 0.74087 0.0
C376 C 0.38024 0.39536 0.78614 0.0
C377 C 0.40278 0.44043 0.76166 0.0
C378 C 0.3926 0.42594 0.72686 0.0
C379 C 0.36662 0.36797 0.71657 0.0
H380 H 0.08507 0.47941 0.15707 0.0
H381 H 0.1302 0.46424 0.0533 0.0
H382 H 0.04387 0.53865 0.13745 0.0
H383 H 0.09481 0.52769 0.03375 0.0
H384 H 0.95546 0.57181 0.00471 0.0
H385 H 0.0145 0.53083 0.02139 0.0
H386 H 0.05421 0.62451 0.11706 0.0
H387 H 0.99018 0.66186 0.10109 0.0
C388 C 0.08601 0.48889 0.13003 0.0
C389 C 0.10885 0.46582 0.10653 0.0
C390 C 0.06356 0.52389 0.11873 0.0
C391 C 0.06557 0.53841 0.08378 0.0
C392 C 0.09041 0.5164 0.06062 0.0
C393 C 0.11075 0.47979 0.07178 0.0
C394 C 0.97805 0.5851 0.02895 0.0
C395 C 0.96694 0.61906 0.05185 0.0
C396 C 0.01239 0.56146 0.03865 0.0
C397 C 0.03826 0.57259 0.07121 0.0
C398 C 0.03319 0.61282 0.09236 0.0
C399 C 0.99755 0.63555 0.08287 0.0
H400 H 0.34485 0.95194 0.42035 0.0
H401 H 0.36468 0.84418 0.49623 0.0
H402 H 0.44716 0.99517 0.4053 0.0
H403 H 0.4671 0.88702 0.48069 0.0
H404 H 0.6637 0.03343 0.46124 0.0
H405 H 0.56263 0.97832 0.48042 0.0
H406 H 0.50523 0.96013 0.37562 0.0
H407 H 0.60589 0.01596 0.35656 0.0
C408 C 0.37116 0.93806 0.43419 0.0
C409 C 0.34636 0.89434 0.45935 0.0
C410 C 0.42967 0.96223 0.42522 0.0
C411 C 0.46488 0.94335 0.44118 0.0
C412 C 0.44106 0.90219 0.46777 0.0
C413 C 0.38237 0.87784 0.47673 0.0
C414 C 0.62958 0.01557 0.4422 0.0
C415 C 0.6427 0.02948 0.40739 0.0
C416 C 0.57159 0.98449 0.45324 0.0
C417 C 0.52596 0.96663 0.4296 0.0
C418 C 0.53943 0.97502 0.39455 0.0
C419 C 0.59713 0.00614 0.38356 0.0
H420 H 0.32041 0.18562 0.87641 0.0
H421 H 0.14559 0.04621 0.85739 0.0
H422 H 0.2875 0.21134 0.92795 0.0
H423 H 0.11256 0.0708 0.90986 0.0
H424 H 0.07375 0.19729 0.97393 0.0
H425 H 0.09979 0.15285 0.9277 0.0
H426 H 0.24967 0.17846 0.98513 0.0
H427 H 0.22389 0.22326 0.03097 0.0
C428 C 0.275 0.16008 0.88352 0.0
C429 C 0.23545 0.11436 0.86273 0.0
C430 C 0.2562 0.17434 0.91326 0.0
C431 C 0.19736 0.14315 0.92293 0.0
C432 C 0.15807 0.09593 0.90284 0.0
C433 C 0.17703 0.08149 0.87304 0.0
C434 C 0.11167 0.19251 0.97682 0.0
C435 C 0.14738 0.21464 0.00571 0.0
C436 C 0.1265 0.1669 0.95045 0.0
C437 C 0.17714 0.16274 0.95266 0.0
C438 C 0.21106 0.18216 0.98239 0.0
C439 C 0.19641 0.20795 0.00859 0.0
H440 H 0.81918 0.12398 0.28323 0.0
H441 H 0.9532 0.21198 0.35864 0.0
H442 H 0.89301 0.14595 0.23971 0.0
H443 H 0.02697 0.23984 0.31527 0.0
H444 H 0.15983 0.29194 0.23497 0.0
H445 H 0.08516 0.23414 0.2771 0.0
H446 H 0.95314 0.21802 0.20562 0.0
H447 H 0.02767 0.26971 0.16299 0.0
C448 C 0.86461 0.14761 0.29044 0.0
C449 C 0.88057 0.16621 0.32419 0.0
C450 C 0.90727 0.1613 0.26541 0.0
C451 C 0.96691 0.19644 0.27323 0.0
C452 C 0.98226 0.21215 0.30767 0.0
C453 C 0.93967 0.19637 0.33283 0.0
C454 C 0.11453 0.27454 0.22834 0.0
C455 C 0.0992 0.28503 0.19595 0.0
C456 C 0.07144 0.24197 0.25259 0.0
C457 C 0.01219 0.22174 0.24555 0.0
C458 C 0.99745 0.2312 0.21242 0.0
C459 C 0.04036 0.26153 0.18781 0.0
H460 H 0.65471 0.86106 0.63368 0.0
H461 H 0.82247 0.88174 0.65808 0.0
H462 H 0.69643 0.92383 0.58395 0.0
H463 H 0.86428 0.94363 0.6075 0.0
H464 H 0.91972 0.11851 0.54702 0.0
H465 H 0.88623 0.04261 0.59077 0.0
H466 H 0.73886 0.93029 0.52793 0.0
H467 H 0.77036 0.00631 0.48516 0.0
C468 C 0.70044 0.87863 0.62819 0.0
C469 C 0.73537 0.86686 0.64993 0.0
C470 C 0.72428 0.91405 0.59945 0.0
C471 C 0.78371 0.93866 0.59174 0.0
C472 C 0.81843 0.92557 0.61291 0.0
C473 C 0.7944 0.88975 0.64167 0.0
C474 C 0.88046 0.07747 0.54239 0.0
C475 C 0.8474 0.06934 0.51271 0.0
C476 C 0.86159 0.0337 0.56732 0.0
C477 C 0.80936 0.98081 0.56302 0.0
C478 C 0.77871 0.97102 0.53226 0.0
C479 C 0.79737 0.0147 0.50746 0.0
H480 H 0.69134 0.86273 0.89262 0.0
H481 H 0.72746 0.76269 0.82028 0.0
H482 H 0.74597 0.84474 0.93622 0.0
H483 H 0.77637 0.73906 0.86408 0.0
H484 H 0.86176 0.69444 0.9449 0.0
H485 H 0.84389 0.74942 0.90129 0.0
H486 H 0.73431 0.77536 0.97288 0.0
H487 H 0.75801 0.72619 0.01681 0.0
C488 C 0.71159 0.8373 0.88608 0.0
C489 C 0.70533 0.8141 0.85322 0.0
C490 C 0.74218 0.82598 0.9112 0.0
C491 C 0.76479 0.78885 0.90445 0.0
C492 C 0.76087 0.76845 0.87075 0.0
C493 C 0.73234 0.78174 0.84538 0.0
C494 C 0.8352 0.71353 0.95125 0.0
C495 C 0.81118 0.70628 0.984 0.0
C496 C 0.82408 0.74443 0.92615 0.0
C497 C 0.78627 0.76626 0.9328 0.0
C498 C 0.76437 0.76064 0.96634 0.0
C499 C 0.77752 0.73187 -0.00828 0.0
H500 H 0.12228 0.79986 0.30953 0.0
H501 H 0.07734 0.93208 0.33096 0.0
H502 H 0.06611 0.77512 0.25719 0.0
H503 H 0.02246 0.90883 0.27749 0.0
H504 H 0.86444 0.78525 0.20866 0.0
H505 H 0.93145 0.82766 0.25654 0.0
H506 H 0.06123 0.80825 0.20082 0.0
H507 H 0.99382 0.76504 0.15337 0.0
C508 C 0.10077 0.82404 0.30283 0.0
C509 C 0.10353 0.86733 0.32458 0.0
C510 C 0.06915 0.81039 0.27257 0.0
C511 C 0.03962 0.8399 0.26317 0.0
C512 C 0.04421 0.88488 0.28424 0.0
C513 C 0.07607 0.89861 0.31464 0.0
C514 C 0.90757 0.79086 0.20653 0.0
C515 C 0.92362 0.77104 0.17755 0.0
C516 C 0.94608 0.81537 0.23386 0.0
C517 C 0.00152 0.82086 0.23262 0.0
C518 C 0.01841 0.80351 0.20289 0.0
C519 C 0.9798 0.77866 0.17574 0.0
H520 H 0.19293 0.03055 0.69307 0.0
H521 H 0.29781 0.14682 0.61183 0.0
H522 H 0.13571 0.956 0.65092 0.0
H523 H 0.24162 0.07235 0.57001 0.0
H524 H 0.15336 0.82718 0.57521 0.0
H525 H 0.16756 0.89888 0.61814 0.0
H526 H 0.1517 0.00652 0.54051 0.0
H527 H 0.13849 0.93496 0.49721 0.0
C528 C 0.20277 0.04079 0.6662 0.0
C529 C 0.25063 0.09409 0.65578 0.0
C530 C 0.17016 0.99799 0.64209 0.0
C531 C 0.18471 0.00788 0.60719 0.0
C532 C 0.22895 0.06329 0.59664 0.0
C533 C 0.26157 0.10594 0.62069 0.0
C534 C 0.15143 0.86541 0.56737 0.0
C535 C 0.14607 0.87598 0.53272 0.0
C536 C 0.15908 0.90639 0.59208 0.0
C537 C 0.16152 0.95881 0.58266 0.0
C538 C 0.1509 0.96693 0.54844 0.0
C539 C 0.14317 0.92584 0.52368 0.0
loop_
_geom_bond_atom_site_label_1
_geom_bond_atom_site_label_2
_geom_bond_distance
_geom_bond_site_symmetry_2
_ccdc_geom_bond_type
Co0 N5 2.057 . S
Co0 O17 2.021 . S
Co0 O20 2.062 . S
Co0 O24 2.117 . S
Co0 O25 2.020 . S
C1 O21 1.259 . S
C1 O24 1.258 . S
Co2 N11 2.057 . S
Co2 O18 2.117 . S
Co2 O19 2.020 . S
Co2 O21 2.021 . S
Co2 O26 2.062 . S
C3 N5 1.316 . S
C3 N6 1.347 . S
C3 H8 0.931 . S
C4 N5 1.375 . S
C4 C7 1.350 . S
C4 H9 0.930 . S
N5 Co0 2.057 . S
N5 C3 1.316 . S
N5 C4 1.375 . S
N6 C3 1.347 . S
N6 C7 1.373 . S
C7 C4 1.350 . S
C7 N6 1.373 . S
C7 H28 0.931 . S
H8 C3 0.931 . S
H9 C4 0.930 . S
C10 O17 1.259 . S
C10 O18 1.258 . S
N11 Co2 2.057 . S
N11 C12 1.316 . S
N11 C13 1.375 . S
C12 N11 1.316 . S
C12 N14 1.347 . S
C12 H23 0.931 . S
C13 N11 1.375 . S
C13 C15 1.350 . S
C13 H22 0.930 . S
N14 C12 1.347 . S
N14 C15 1.373 . S
C15 C13 1.350 . S
C15 N14 1.373 . S
C15 H29 0.931 . S
C16 O19 1.256 . S
C16 O20 1.255 . S
O17 Co0 2.021 . S
O17 C10 1.259 . S
O18 Co2 2.117 . S
O18 C10 1.258 . S
O19 Co2 2.020 . S
O19 C16 1.256 . S
O20 Co0 2.062 . S
O20 C16 1.255 . S
O21 C1 1.259 . S
O21 Co2 2.021 . S
H22 C13 0.930 . S
H23 C12 0.931 . S
O24 Co0 2.117 . S
O24 C1 1.258 . S
O25 Co0 2.020 . S
O25 C27 1.256 . S
O26 Co2 2.062 . S
O26 C27 1.255 . S
C27 O25 1.256 . S
C27 O26 1.255 . S
H28 C7 0.931 . S
H29 C15 0.931 . S
Co30 N35 2.057 . S
Co30 O47 2.021 . S
Co30 O50 2.062 . S
Co30 O54 2.117 . S
Co30 O55 2.020 . S
C31 O51 1.259 . S
C31 O54 1.258 . S
Co32 N41 2.057 . S
Co32 O48 2.117 . S
Co32 O49 2.020 . S
Co32 O51 2.021 . S
Co32 O56 2.062 . S
C33 N35 1.316 . S
C33 N36 1.347 . S
C33 H38 0.931 . S
C34 N35 1.375 . S
C34 C37 1.350 . S
C34 H39 0.930 . S
N35 Co30 2.057 . S
N35 C33 1.316 . S
N35 C34 1.375 . S
N36 C33 1.347 . S
N36 C37 1.373 . S
C37 C34 1.350 . S
C37 N36 1.373 . S
C37 H58 0.931 . S
H38 C33 0.931 . S
H39 C34 0.930 . S
C40 O47 1.259 . S
C40 O48 1.258 . S
N41 Co32 2.057 . S
N41 C42 1.316 . S
N41 C43 1.375 . S
C42 N41 1.316 . S
C42 N44 1.347 . S
C42 H53 0.931 . S
C43 N41 1.375 . S
C43 C45 1.350 . S
C43 H52 0.930 . S
N44 C42 1.347 . S
N44 C45 1.373 . S
C45 C43 1.350 . S
C45 N44 1.373 . S
C45 H59 0.931 . S
C46 O49 1.256 . S
C46 O50 1.255 . S
O47 Co30 2.021 . S
O47 C40 1.259 . S
O48 Co32 2.117 . S
O48 C40 1.258 . S
O49 Co32 2.020 . S
O49 C46 1.256 . S
O50 Co30 2.062 . S
O50 C46 1.255 . S
O51 C31 1.259 . S
O51 Co32 2.021 . S
H52 C43 0.930 . S
H53 C42 0.931 . S
O54 Co30 2.117 . S
O54 C31 1.258 . S
O55 Co30 2.020 . S
O55 C57 1.256 . S
O56 Co32 2.062 . S
O56 C57 1.255 . S
C57 O55 1.256 . S
C57 O56 1.255 . S
H58 C37 0.931 . S
H59 C45 0.931 . S
Co60 N65 2.057 . S
Co60 O77 2.021 . S
Co60 O80 2.062 . S
Co60 O84 2.117 . S
Co60 O85 2.020 . S
C61 O81 1.259 . S
C61 O84 1.258 . S
Co62 N71 2.057 . S
Co62 O78 2.117 . S
Co62 O79 2.020 . S
Co62 O81 2.021 . S
Co62 O86 2.062 . S
C63 N65 1.316 . S
C63 N66 1.347 . S
C63 H68 0.931 . S
C64 N65 1.375 . S
C64 C67 1.350 . S
C64 H69 0.930 . S
N65 Co60 2.057 . S
N65 C63 1.316 . S
N65 C64 1.375 . S
N66 C63 1.347 . S
N66 C67 1.373 . S
C67 C64 1.350 . S
C67 N66 1.373 . S
C67 H88 0.931 . S
H68 C63 0.931 . S
H69 C64 0.930 . S
C70 O77 1.259 . S
C70 O78 1.258 . S
N71 Co62 2.057 . S
N71 C72 1.316 . S
N71 C73 1.375 . S
C72 N71 1.316 . S
C72 N74 1.347 . S
C72 H83 0.931 . S
C73 N71 1.375 . S
C73 C75 1.350 . S
C73 H82 0.930 . S
N74 C72 1.347 . S
N74 C75 1.373 . S
C75 C73 1.350 . S
C75 N74 1.373 . S
C75 H89 0.931 . S
C76 O79 1.256 . S
C76 O80 1.255 . S
O77 Co60 2.021 . S
O77 C70 1.259 . S
O78 Co62 2.117 . S
O78 C70 1.258 . S
O79 Co62 2.020 . S
O79 C76 1.256 . S
O80 Co60 2.062 . S
O80 C76 1.255 . S
O81 C61 1.259 . S
O81 Co62 2.021 . S
H82 C73 0.930 . S
H83 C72 0.931 . S
O84 Co60 2.117 . S
O84 C61 1.258 . S
O85 Co60 2.020 . S
O85 C87 1.256 . S
O86 Co62 2.062 . S
O86 C87 1.255 . S
C87 O85 1.256 . S
C87 O86 1.255 . S
H88 C67 0.931 . S
H89 C75 0.931 . S
Co90 N95 2.057 . S
Co90 O107 2.021 . S
Co90 O110 2.062 . S
Co90 O114 2.117 . S
Co90 O115 2.020 . S
C91 O111 1.259 . S
C91 O114 1.258 . S
Co92 N101 2.057 . S
Co92 O108 2.117 . S
Co92 O109 2.020 . S
Co92 O111 2.021 . S
Co92 O116 2.062 . S
C93 N95 1.316 1_556 S
C93 N96 1.347 . S
C93 H98 0.931 . S
C94 N95 1.375 1_556 S
C94 C97 1.350 . S
C94 H99 0.930 . S
N95 Co90 2.057 . S
N95 C93 1.316 1_554 S
N95 C94 1.375 1_554 S
N96 C93 1.347 . S
N96 C97 1.373 . S
C97 C94 1.350 . S
C97 N96 1.373 . S
C97 H118 0.931 . S
H98 C93 0.931 . S
H99 C94 0.930 . S
C100 O107 1.259 . S
C100 O108 1.258 . S
N101 Co92 2.057 . S
N101 C102 1.316 . S
N101 C103 1.375 . S
C102 N101 1.316 . S
C102 N104 1.347 . S
C102 H113 0.931 . S
C103 N101 1.375 . S
C103 C105 1.350 . S
C103 H112 0.930 . S
N104 C102 1.347 . S
N104 C105 1.373 . S
C105 C103 1.350 . S
C105 N104 1.373 . S
C105 H119 0.931 . S
C106 O109 1.256 . S
C106 O110 1.255 . S
O107 Co90 2.021 . S
O107 C100 1.259 . S
O108 Co92 2.117 . S
O108 C100 1.258 . S
O109 Co92 2.020 . S
O109 C106 1.256 . S
O110 Co90 2.062 . S
O110 C106 1.255 . S
O111 C91 1.259 . S
O111 Co92 2.021 . S
H112 C103 0.930 . S
H113 C102 0.931 . S
O114 Co90 2.117 . S
O114 C91 1.258 . S
O115 Co90 2.020 . S
O115 C117 1.256 . S
O116 Co92 2.062 . S
O116 C117 1.255 . S
C117 O115 1.256 . S
C117 O116 1.255 . S
H118 C97 0.931 . S
H119 C105 0.931 . S
Co120 N125 2.057 . S
Co120 O137 2.021 . S
Co120 O140 2.062 . S
Co120 O144 2.117 . S
Co120 O145 2.020 . S
C121 O141 1.259 . S
C121 O144 1.258 . S
Co122 N131 2.057 . S
Co122 O138 2.117 . S
Co122 O139 2.020 . S
Co122 O141 2.021 . S
Co122 O146 2.062 . S
C123 N125 1.316 . S
C123 N126 1.347 . S
C123 H128 0.931 . S
C124 N125 1.375 . S
C124 C127 1.350 . S
C124 H129 0.930 . S
N125 Co120 2.057 . S
N125 C123 1.316 . S
N125 C124 1.375 . S
N126 C123 1.347 . S
N126 C127 1.373 . S
C127 C124 1.350 . S
C127 N126 1.373 . S
C127 H148 0.931 . S
H128 C123 0.931 . S
H129 C124 0.930 . S
C130 O137 1.259 . S
C130 O138 1.258 . S
N131 Co122 2.057 . S
N131 C132 1.316 . S
N131 C133 1.375 . S
C132 N131 1.316 . S
C132 N134 1.347 . S
C132 H143 0.931 . S
C133 N131 1.375 . S
C133 C135 1.350 . S
C133 H142 0.930 . S
N134 C132 1.347 . S
N134 C135 1.373 . S
C135 C133 1.350 . S
C135 N134 1.373 . S
C135 H149 0.931 . S
C136 O139 1.256 . S
C136 O140 1.255 . S
O137 Co120 2.021 . S
O137 C130 1.259 . S
O138 Co122 2.117 . S
O138 C130 1.258 . S
O139 Co122 2.020 . S
O139 C136 1.256 . S
O140 Co120 2.062 . S
O140 C136 1.255 . S
O141 C121 1.259 . S
O141 Co122 2.021 . S
H142 C133 0.930 . S
H143 C132 0.931 . S
O144 Co120 2.117 . S
O144 C121 1.258 . S
O145 Co120 2.020 . S
O145 C147 1.256 . S
O146 Co122 2.062 . S
O146 C147 1.255 . S
C147 O145 1.256 . S
C147 O146 1.255 . S
H148 C127 0.931 . S
H149 C135 0.931 . S
Co150 N155 2.057 . S
Co150 O167 2.021 . S
Co150 O170 2.062 . S
Co150 O174 2.117 . S
Co150 O175 2.020 . S
C151 O171 1.259 . S
C151 O174 1.258 . S
Co152 N161 2.057 . S
Co152 O168 2.117 . S
Co152 O169 2.020 . S
Co152 O171 2.021 . S
Co152 O176 2.062 . S
C153 N155 1.316 . S
C153 N156 1.347 . S
C153 H158 0.931 . S
C154 N155 1.375 . S
C154 C157 1.350 . S
C154 H159 0.930 . S
N155 Co150 2.057 . S
N155 C153 1.316 . S
N155 C154 1.375 . S
N156 C153 1.347 . S
N156 C157 1.373 . S
C157 C154 1.350 . S
C157 N156 1.373 . S
C157 H178 0.931 . S
H158 C153 0.931 . S
H159 C154 0.930 . S
C160 O167 1.259 . S
C160 O168 1.258 . S
N161 Co152 2.057 . S
N161 C162 1.316 . S
N161 C163 1.375 . S
C162 N161 1.316 . S
C162 N164 1.347 . S
C162 H173 0.931 . S
C163 N161 1.375 . S
C163 C165 1.350 . S
C163 H172 0.930 . S
N164 C162 1.347 . S
N164 C165 1.373 . S
C165 C163 1.350 . S
C165 N164 1.373 . S
C165 H179 0.931 . S
C166 O169 1.256 . S
C166 O170 1.255 . S
O167 Co150 2.021 . S
O167 C160 1.259 . S
O168 Co152 2.117 . S
O168 C160 1.258 . S
O169 Co152 2.020 . S
O169 C166 1.256 . S
O170 Co150 2.062 . S
O170 C166 1.255 . S
O171 C151 1.259 . S
O171 Co152 2.021 . S
H172 C163 0.930 . S
H173 C162 0.931 . S
O174 Co150 2.117 . S
O174 C151 1.258 . S
O175 Co150 2.020 . S
O175 C177 1.256 . S
O176 Co152 2.062 . S
O176 C177 1.255 . S
C177 O175 1.256 . S
C177 O176 1.255 . S
H178 C157 0.931 . S
H179 C165 0.931 . S
H180 C188 0.950 . S
H181 C193 0.950 . S
H182 C190 0.950 . S
H183 C192 0.950 . S
H184 C194 0.950 . S
H185 C196 0.950 . S
H186 C198 0.950 . S
H187 C199 0.950 . S
C188 H180 0.950 . S
C188 C189 1.386 . S
C188 C190 1.391 . S
C189 C188 1.386 . S
C189 C193 1.393 . S
C190 H182 0.950 . S
C190 C188 1.391 . S
C190 C191 1.400 . S
C191 C190 1.400 . S
C191 C192 1.398 . S
C191 C197 1.491 . S
C192 H183 0.950 . S
C192 C191 1.398 . S
C192 C193 1.391 . S
C193 H181 0.950 . S
C193 C189 1.393 . S
C193 C192 1.391 . S
C194 H184 0.950 . S
C194 C195 1.386 . S
C194 C196 1.391 . S
C195 C194 1.386 . S
C195 C199 1.393 . S
C196 H185 0.950 . S
C196 C194 1.391 . S
C196 C197 1.400 . S
C197 C191 1.491 . S
C197 C196 1.400 . S
C197 C198 1.398 . S
C198 H186 0.950 . S
C198 C197 1.398 . S
C198 C199 1.391 . S
C199 H187 0.950 . S
C199 C195 1.393 . S
C199 C198 1.391 . S
H200 C208 0.950 . S
H201 C213 0.950 . S
H202 C210 0.950 . S
H203 C212 0.950 . S
H204 C214 0.950 . S
H205 C216 0.950 . S
H206 C218 0.950 . S
H207 C219 0.950 . S
C208 H200 0.950 . S
C208 C209 1.386 . S
C208 C210 1.391 . S
C209 C208 1.386 . S
C209 C213 1.393 . S
C210 H202 0.950 . S
C210 C208 1.391 . S
C210 C211 1.400 . S
C211 C210 1.400 . S
C211 C212 1.398 . S
C211 C217 1.491 . S
C212 H203 0.950 . S
C212 C211 1.398 . S
C212 C213 1.391 . S
C213 H201 0.950 . S
C213 C209 1.393 . S
C213 C212 1.391 . S
C214 H204 0.950 . S
C214 C215 1.386 . S
C214 C216 1.391 . S
C215 C214 1.386 . S
C215 C219 1.393 . S
C216 H205 0.950 . S
C216 C214 1.391 . S
C216 C217 1.400 . S
C217 C211 1.491 . S
C217 C216 1.400 . S
C217 C218 1.398 . S
C218 H206 0.950 . S
C218 C217 1.398 . S
C218 C219 1.391 . S
C219 H207 0.950 . S
C219 C215 1.393 . S
C219 C218 1.391 . S
H220 C228 0.950 . S
H221 C233 0.950 . S
H222 C230 0.950 . S
H223 C232 0.950 1_556 S
H224 C234 0.950 . S
H225 C236 0.950 . S
H226 C238 0.950 . S
H227 C239 0.950 . S
C228 H220 0.950 . S
C228 C229 1.386 . S
C228 C230 1.391 . S
C229 C228 1.386 . S
C229 C233 1.393 . S
C230 H222 0.950 . S
C230 C228 1.391 . S
C230 C231 1.400 . S
C231 C230 1.400 . S
C231 C232 1.398 . S
C231 C237 1.491 1_554 S
C232 H223 0.950 1_554 S
C232 C231 1.398 . S
C232 C233 1.391 . S
C233 H221 0.950 . S
C233 C229 1.393 . S
C233 C232 1.391 . S
C234 H224 0.950 . S
C234 C235 1.386 . S
C234 C236 1.391 . S
C235 C234 1.386 . S
C235 C239 1.393 . S
C236 H225 0.950 . S
C236 C234 1.391 . S
C236 C237 1.400 . S
C237 C231 1.491 1_556 S
C237 C236 1.400 . S
C237 C238 1.398 . S
C238 H226 0.950 . S
C238 C237 1.398 . S
C238 C239 1.391 . S
C239 H227 0.950 . S
C239 C235 1.393 . S
C239 C238 1.391 . S
H240 C248 0.950 . S
H241 C253 0.950 . S
H242 C250 0.950 . S
H243 C252 0.950 . S
H244 C254 0.950 . S
H245 C256 0.950 . S
H246 C258 0.950 . S
H247 C259 0.950 . S
C248 H240 0.950 . S
C248 C249 1.386 . S
C248 C250 1.391 . S
C249 C248 1.386 . S
C249 C253 1.393 . S
C250 H242 0.950 . S
C250 C248 1.391 . S
C250 C251 1.400 . S
C251 C250 1.400 . S
C251 C252 1.398 . S
C251 C257 1.491 . S
C252 H243 0.950 . S
C252 C251 1.398 . S
C252 C253 1.391 . S
C253 H241 0.950 . S
C253 C249 1.393 . S
C253 C252 1.391 . S
C254 H244 0.950 . S
C254 C255 1.386 . S
C254 C256 1.391 . S
C255 C254 1.386 . S
C255 C259 1.393 . S
C256 H245 0.950 . S
C256 C254 1.391 . S
C256 C257 1.400 . S
C257 C251 1.491 . S
C257 C256 1.400 . S
C257 C258 1.398 . S
C258 H246 0.950 . S
C258 C257 1.398 . S
C258 C259 1.391 . S
C259 H247 0.950 . S
C259 C255 1.393 . S
C259 C258 1.391 . S
H260 C268 0.950 . S
H261 C273 0.950 . S
H262 C270 0.950 . S
H263 C272 0.950 . S
H264 C274 0.950 . S
H265 C276 0.950 . S
H266 C278 0.950 . S
H267 C279 0.950 . S
C268 H260 0.950 . S
C268 C269 1.386 . S
C268 C270 1.391 . S
C269 C268 1.386 . S
C269 C273 1.393 . S
C270 H262 0.950 . S
C270 C268 1.391 . S
C270 C271 1.400 . S
C271 C270 1.400 . S
C271 C272 1.398 . S
C271 C277 1.491 . S
C272 H263 0.950 . S
C272 C271 1.398 . S
C272 C273 1.391 . S
C273 H261 0.950 . S
C273 C269 1.393 . S
C273 C272 1.391 . S
C274 H264 0.950 . S
C274 C275 1.386 . S
C274 C276 1.391 . S
C275 C274 1.386 . S
C275 C279 1.393 . S
C276 H265 0.950 . S
C276 C274 1.391 . S
C276 C277 1.400 . S
C277 C271 1.491 . S
C277 C276 1.400 . S
C277 C278 1.398 . S
C278 H266 0.950 . S
C278 C277 1.398 . S
C278 C279 1.391 . S
C279 H267 0.950 . S
C279 C275 1.393 . S
C279 C278 1.391 . S
H280 C288 0.950 . S
H281 C293 0.950 . S
H282 C290 0.950 . S
H283 C292 0.950 . S
H284 C294 0.950 . S
H285 C296 0.950 . S
H286 C298 0.950 . S
H287 C299 0.950 . S
C288 H280 0.950 . S
C288 C289 1.386 . S
C288 C290 1.391 . S
C289 C288 1.386 . S
C289 C293 1.393 . S
C290 H282 0.950 . S
C290 C288 1.391 . S
C290 C291 1.400 . S
C291 C290 1.400 . S
C291 C292 1.398 . S
C291 C297 1.491 . S
C292 H283 0.950 . S
C292 C291 1.398 . S
C292 C293 1.391 . S
C293 H281 0.950 . S
C293 C289 1.393 . S
C293 C292 1.391 . S
C294 H284 0.950 . S
C294 C295 1.386 . S
C294 C296 1.391 . S
C295 C294 1.386 . S
C295 C299 1.393 . S
C296 H285 0.950 . S
C296 C294 1.391 . S
C296 C297 1.400 . S
C297 C291 1.491 . S
C297 C296 1.400 . S
C297 C298 1.398 . S
C298 H286 0.950 . S
C298 C297 1.398 . S
C298 C299 1.391 . S
C299 H287 0.950 . S
C299 C295 1.393 . S
C299 C298 1.391 . S
H300 C308 0.950 . S
H301 C313 0.950 . S
H302 C310 0.950 . S
H303 C312 0.950 . S
H304 C314 0.950 . S
H305 C316 0.950 . S
H306 C318 0.950 . S
H307 C319 0.950 . S
C308 H300 0.950 . S
C308 C309 1.386 . S
C308 C310 1.391 . S
C309 C308 1.386 . S
C309 C313 1.393 . S
C310 H302 0.950 . S
C310 C308 1.391 . S
C310 C311 1.400 . S
C311 C310 1.400 . S
C311 C312 1.398 . S
C311 C317 1.491 . S
C312 H303 0.950 . S
C312 C311 1.398 . S
C312 C313 1.391 . S
C313 H301 0.950 . S
C313 C309 1.393 . S
C313 C312 1.391 . S
C314 H304 0.950 . S
C314 C315 1.386 . S
C314 C316 1.391 . S
C315 C314 1.386 . S
C315 C319 1.393 . S
C316 H305 0.950 . S
C316 C314 1.391 . S
C316 C317 1.400 . S
C317 C311 1.491 . S
C317 C316 1.400 . S
C317 C318 1.398 . S
C318 H306 0.950 . S
C318 C317 1.398 . S
C318 C319 1.391 . S
C319 H307 0.950 . S
C319 C315 1.393 . S
C319 C318 1.391 . S
H320 C328 0.950 1_655 S
H321 C333 0.950 . S
H322 C330 0.950 . S
H323 C332 0.950 . S
H324 C334 0.950 . S
H325 C336 0.950 . S
H326 C338 0.950 . S
H327 C339 0.950 . S
C328 H320 0.950 1_455 S
C328 C329 1.386 . S
C328 C330 1.391 1_455 S
C329 C328 1.386 . S
C329 C333 1.393 . S
C330 H322 0.950 . S
C330 C328 1.391 1_655 S
C330 C331 1.400 1_655 S
C331 C330 1.400 1_455 S
C331 C332 1.398 . S
C331 C337 1.491 . S
C332 H323 0.950 . S
C332 C331 1.398 . S
C332 C333 1.391 . S
C333 H321 0.950 . S
C333 C329 1.393 . S
C333 C332 1.391 . S
C334 H324 0.950 . S
C334 C335 1.386 1_455 S
C334 C336 1.391 . S
C335 C334 1.386 1_655 S
C335 C339 1.393 . S
C336 H325 0.950 . S
C336 C334 1.391 . S
C336 C337 1.400 . S
C337 C331 1.491 . S
C337 C336 1.400 . S
C337 C338 1.398 1_455 S
C338 H326 0.950 . S
C338 C337 1.398 1_655 S
C338 C339 1.391 . S
C339 H327 0.950 . S
C339 C335 1.393 . S
C339 C338 1.391 . S
H340 C348 0.950 . S
H341 C353 0.950 . S
H342 C350 0.950 . S
H343 C352 0.950 . S
H344 C354 0.950 . S
H345 C356 0.950 . S
H346 C358 0.950 . S
H347 C359 0.950 . S
C348 H340 0.950 . S
C348 C349 1.386 . S
C348 C350 1.391 1_545 S
C349 C348 1.386 . S
C349 C353 1.393 . S
C350 H342 0.950 . S
C350 C348 1.391 1_565 S
C350 C351 1.400 . S
C351 C350 1.400 . S
C351 C352 1.398 . S
C351 C357 1.491 . S
C352 H343 0.950 . S
C352 C351 1.398 . S
C352 C353 1.391 1_565 S
C353 H341 0.950 . S
C353 C349 1.393 . S
C353 C352 1.391 1_545 S
C354 H344 0.950 . S
C354 C355 1.386 . S
C354 C356 1.391 . S
C355 C354 1.386 . S
C355 C359 1.393 . S
C356 H345 0.950 . S
C356 C354 1.391 . S
C356 C357 1.400 . S
C357 C351 1.491 . S
C357 C356 1.400 . S
C357 C358 1.398 . S
C358 H346 0.950 . S
C358 C357 1.398 . S
C358 C359 1.391 . S
C359 H347 0.950 . S
C359 C355 1.393 . S
C359 C358 1.391 . S
H360 C368 0.950 . S
H361 C373 0.950 . S
H362 C370 0.950 . S
H363 C372 0.950 . S
H364 C374 0.950 . S
H365 C376 0.950 . S
H366 C378 0.950 . S
H367 C379 0.950 . S
C368 H360 0.950 . S
C368 C369 1.386 . S
C368 C370 1.391 . S
C369 C368 1.386 . S
C369 C373 1.393 . S
C370 H362 0.950 . S
C370 C368 1.391 . S
C370 C371 1.400 . S
C371 C370 1.400 . S
C371 C372 1.398 . S
C371 C377 1.491 . S
C372 H363 0.950 . S
C372 C371 1.398 . S
C372 C373 1.391 . S
C373 H361 0.950 . S
C373 C369 1.393 . S
C373 C372 1.391 . S
C374 H364 0.950 . S
C374 C375 1.386 . S
C374 C376 1.391 . S
C375 C374 1.386 . S
C375 C379 1.393 . S
C376 H365 0.950 . S
C376 C374 1.391 . S
C376 C377 1.400 . S
C377 C371 1.491 . S
C377 C376 1.400 . S
C377 C378 1.398 . S
C378 H366 0.950 . S
C378 C377 1.398 . S
C378 C379 1.391 . S
C379 H367 0.950 . S
C379 C375 1.393 . S
C379 C378 1.391 . S
H380 C388 0.950 . S
H381 C393 0.950 . S
H382 C390 0.950 . S
H383 C392 0.950 . S
H384 C394 0.950 . S
H385 C396 0.950 . S
H386 C398 0.950 . S
H387 C399 0.950 . S
C388 H380 0.950 . S
C388 C389 1.386 1_655 S
C388 C390 1.391 . S
C389 C388 1.386 1_455 S
C389 C393 1.393 . S
C390 H382 0.950 . S
C390 C388 1.391 . S
C390 C391 1.400 . S
C391 C390 1.400 . S
C391 C392 1.398 1_655 S
C391 C397 1.491 . S
C392 H383 0.950 . S
C392 C391 1.398 1_455 S
C392 C393 1.391 . S
C393 H381 0.950 . S
C393 C389 1.393 . S
C393 C392 1.391 . S
C394 H384 0.950 . S
C394 C395 1.386 . S
C394 C396 1.391 . S
C395 C394 1.386 . S
C395 C399 1.393 . S
C396 H385 0.950 . S
C396 C394 1.391 . S
C396 C397 1.400 . S
C397 C391 1.491 . S
C397 C396 1.400 . S
C397 C398 1.398 . S
C398 H386 0.950 . S
C398 C397 1.398 . S
C398 C399 1.391 . S
C399 H387 0.950 . S
C399 C395 1.393 . S
C399 C398 1.391 . S
H400 C408 0.950 . S
H401 C413 0.950 . S
H402 C410 0.950 . S
H403 C412 0.950 . S
H404 C414 0.950 . S
H405 C416 0.950 . S
H406 C418 0.950 . S
H407 C419 0.950 1_565 S
C408 H400 0.950 . S
C408 C409 1.386 . S
C408 C410 1.391 . S
C409 C408 1.386 . S
C409 C413 1.393 1_565 S
C410 H402 0.950 . S
C410 C408 1.391 . S
C410 C411 1.400 1_565 S
C411 C410 1.400 1_545 S
C411 C412 1.398 . S
C411 C417 1.491 . S
C412 H403 0.950 . S
C412 C411 1.398 . S
C412 C413 1.391 . S
C413 H401 0.950 . S
C413 C409 1.393 1_545 S
C413 C412 1.391 . S
C414 H404 0.950 . S
C414 C415 1.386 . S
C414 C416 1.391 . S
C415 C414 1.386 . S
C415 C419 1.393 . S
C416 H405 0.950 . S
C416 C414 1.391 . S
C416 C417 1.400 . S
C417 C411 1.491 . S
C417 C416 1.400 . S
C417 C418 1.398 1_545 S
C418 H406 0.950 . S
C418 C417 1.398 1_565 S
C418 C419 1.391 1_565 S
C419 H407 0.950 1_545 S
C419 C415 1.393 . S
C419 C418 1.391 1_545 S
H420 C428 0.950 . S
H421 C433 0.950 . S
H422 C430 0.950 . S
H423 C432 0.950 . S
H424 C434 0.950 . S
H425 C436 0.950 . S
H426 C438 0.950 . S
H427 C439 0.950 . S
C428 H420 0.950 . S
C428 C429 1.386 . S
C428 C430 1.391 . S
C429 C428 1.386 . S
C429 C433 1.393 . S
C430 H422 0.950 . S
C430 C428 1.391 . S
C430 C431 1.400 . S
C431 C430 1.400 . S
C431 C432 1.398 . S
C431 C437 1.491 . S
C432 H423 0.950 . S
C432 C431 1.398 . S
C432 C433 1.391 . S
C433 H421 0.950 . S
C433 C429 1.393 . S
C433 C432 1.391 . S
C434 H424 0.950 . S
C434 C435 1.386 1_556 S
C434 C436 1.391 . S
C435 C434 1.386 1_554 S
C435 C439 1.393 . S
C436 H425 0.950 . S
C436 C434 1.391 . S
C436 C437 1.400 . S
C437 C431 1.491 . S
C437 C436 1.400 . S
C437 C438 1.398 . S
C438 H426 0.950 . S
C438 C437 1.398 . S
C438 C439 1.391 1_556 S
C439 H427 0.950 . S
C439 C435 1.393 . S
C439 C438 1.391 1_554 S
H440 C448 0.950 . S
H441 C453 0.950 . S
H442 C450 0.950 . S
H443 C452 0.950 1_455 S
H444 C454 0.950 . S
H445 C456 0.950 . S
H446 C458 0.950 . S
H447 C459 0.950 . S
C448 H440 0.950 . S
C448 C449 1.386 . S
C448 C450 1.391 . S
C449 C448 1.386 . S
C449 C453 1.393 . S
C450 H442 0.950 . S
C450 C448 1.391 . S
C450 C451 1.400 . S
C451 C450 1.400 . S
C451 C452 1.398 . S
C451 C457 1.491 1_655 S
C452 H443 0.950 1_655 S
C452 C451 1.398 . S
C452 C453 1.391 . S
C453 H441 0.950 . S
C453 C449 1.393 . S
C453 C452 1.391 . S
C454 H444 0.950 . S
C454 C455 1.386 . S
C454 C456 1.391 . S
C455 C454 1.386 . S
C455 C459 1.393 . S
C456 H445 0.950 . S
C456 C454 1.391 . S
C456 C457 1.400 . S
C457 C451 1.491 1_455 S
C457 C456 1.400 . S
C457 C458 1.398 1_455 S
C458 H446 0.950 . S
C458 C457 1.398 1_655 S
C458 C459 1.391 1_655 S
C459 H447 0.950 . S
C459 C455 1.393 . S
C459 C458 1.391 1_455 S
H460 C468 0.950 . S
H461 C473 0.950 . S
H462 C470 0.950 . S
H463 C472 0.950 . S
H464 C474 0.950 . S
H465 C476 0.950 . S
H466 C478 0.950 1_565 S
H467 C479 0.950 . S
C468 H460 0.950 . S
C468 C469 1.386 . S
C468 C470 1.391 . S
C469 C468 1.386 . S
C469 C473 1.393 . S
C470 H462 0.950 . S
C470 C468 1.391 . S
C470 C471 1.400 . S
C471 C470 1.400 . S
C471 C472 1.398 . S
C471 C477 1.491 1_565 S
C472 H463 0.950 . S
C472 C471 1.398 . S
C472 C473 1.391 . S
C473 H461 0.950 . S
C473 C469 1.393 . S
C473 C472 1.391 . S
C474 H464 0.950 . S
C474 C475 1.386 . S
C474 C476 1.391 . S
C475 C474 1.386 . S
C475 C479 1.393 . S
C476 H465 0.950 . S
C476 C474 1.391 . S
C476 C477 1.400 . S
C477 C471 1.491 1_545 S
C477 C476 1.400 . S
C477 C478 1.398 . S
C478 H466 0.950 1_545 S
C478 C477 1.398 . S
C478 C479 1.391 . S
C479 H467 0.950 . S
C479 C475 1.393 . S
C479 C478 1.391 . S
H480 C488 0.950 . S
H481 C493 0.950 . S
H482 C490 0.950 . S
H483 C492 0.950 . S
H484 C494 0.950 . S
H485 C496 0.950 . S
H486 C498 0.950 . S
H487 C499 0.950 . S
C488 H480 0.950 . S
C488 C489 1.386 . S
C488 C490 1.391 . S
C489 C488 1.386 . S
C489 C493 1.393 . S
C490 H482 0.950 . S
C490 C488 1.391 . S
C490 C491 1.400 . S
C491 C490 1.400 . S
C491 C492 1.398 . S
C491 C497 1.491 . S
C492 H483 0.950 . S
C492 C491 1.398 . S
C492 C493 1.391 . S
C493 H481 0.950 . S
C493 C489 1.393 . S
C493 C492 1.391 . S
C494 H484 0.950 . S
C494 C495 1.386 1_556 S
C494 C496 1.391 . S
C495 C494 1.386 1_554 S
C495 C499 1.393 . S
C496 H485 0.950 . S
C496 C494 1.391 . S
C496 C497 1.400 . S
C497 C491 1.491 . S
C497 C496 1.400 . S
C497 C498 1.398 . S
C498 H486 0.950 . S
C498 C497 1.398 . S
C498 C499 1.391 1_556 S
C499 H487 0.950 . S
C499 C495 1.393 . S
C499 C498 1.391 1_554 S
H500 C508 0.950 . S
H501 C513 0.950 1_655 S
H502 C510 0.950 . S
H503 C512 0.950 . S
H504 C514 0.950 . S
H505 C516 0.950 . S
H506 C518 0.950 1_455 S
H507 C519 0.950 . S
C508 H500 0.950 . S
C508 C509 1.386 . S
C508 C510 1.391 . S
C509 C508 1.386 . S
C509 C513 1.393 . S
C510 H502 0.950 . S
C510 C508 1.391 . S
C510 C511 1.400 . S
C511 C510 1.400 . S
C511 C512 1.398 1_455 S
C511 C517 1.491 1_455 S
C512 H503 0.950 . S
C512 C511 1.398 1_655 S
C512 C513 1.391 1_655 S
C513 H501 0.950 1_455 S
C513 C509 1.393 . S
C513 C512 1.391 1_455 S
C514 H504 0.950 . S
C514 C515 1.386 . S
C514 C516 1.391 . S
C515 C514 1.386 . S
C515 C519 1.393 . S
C516 H505 0.950 . S
C516 C514 1.391 . S
C516 C517 1.400 . S
C517 C511 1.491 1_655 S
C517 C516 1.400 . S
C517 C518 1.398 . S
C518 H506 0.950 1_655 S
C518 C517 1.398 . S
C518 C519 1.391 . S
C519 H507 0.950 . S
C519 C515 1.393 . S
C519 C518 1.391 . S
H520 C528 0.950 . S
H521 C533 0.950 . S
H522 C530 0.950 1_565 S
H523 C532 0.950 . S
H524 C534 0.950 . S
H525 C536 0.950 . S
H526 C538 0.950 . S
H527 C539 0.950 . S
C528 H520 0.950 . S
C528 C529 1.386 . S
C528 C530 1.391 . S
C529 C528 1.386 . S
C529 C533 1.393 . S
C530 H522 0.950 1_545 S
C530 C528 1.391 . S
C530 C531 1.400 . S
C531 C530 1.400 . S
C531 C532 1.398 . S
C531 C537 1.491 1_545 S
C532 H523 0.950 . S
C532 C531 1.398 . S
C532 C533 1.391 . S
C533 H521 0.950 . S
C533 C529 1.393 . S
C533 C532 1.391 . S
C534 H524 0.950 . S
C534 C535 1.386 . S
C534 C536 1.391 . S
C535 C534 1.386 . S
C535 C539 1.393 . S
C536 H525 0.950 . S
C536 C534 1.391 . S
C536 C537 1.400 . S
C537 C531 1.491 1_565 S
C537 C536 1.400 . S
C537 C538 1.398 . S
C538 H526 0.950 . S
C538 C537 1.398 . S
C538 C539 1.391 . S
C539 H527 0.950 . S
C539 C535 1.393 . S
C539 C538 1.391 . S
C189 C147 0.826 . S
C195 N6 0.827 . S
C209 N156 0.821 . S
C215 C57 0.825 . S
C229 C27 0.818 . S
C235 N66 0.810 . S
C249 N36 0.835 . S
C255 C117 0.833 . S
C269 C87 0.830 . S
C275 N126 0.830 . S
C289 N96 0.837 . S
C295 C177 0.834 . S
C309 C1 1.354 . S
C315 C100 1.368 . S
C329 C121 1.360 . S
C335 C40 1.385 . S
C349 C160 1.397 . S
C355 C61 1.386 . S
C369 C70 1.381 . S
C375 C151 1.387 . S
C389 C10 1.364 . S
C395 C91 1.367 . S
C409 C130 1.387 . S
C415 C31 1.362 . S
C429 N164 0.753 . S
C435 N14 0.760 . S
C449 C46 0.741 . S
C455 C16 0.777 . S
C469 N74 0.761 . S
C475 N44 0.762 . S
C489 C76 0.736 . S
C495 C106 0.779 . S
C509 N134 0.751 . S
C515 N104 0.758 . S
C529 C166 0.767 . S
C535 C136 0.751 . S
