# Generated by pormake.
# Topology unv, (4)-cn, num edge types: 1
# Building blocks:
#     Node 0, Type 0, BuildingBlock: KUFVIS_clean_sbu_0, # of connection points: 4
#     Node 1, Type 0, BuildingBlock: KUFVIS_clean_sbu_0, # of connection points: 4
#     Node 2, Type 0, BuildingBlock: KUFVIS_clean_sbu_0, # of connection points: 4
#     Node 3, Type 0, BuildingBlock: KUFVIS_clean_sbu_0, # of connection points: 4
#     Node 4, Type 0, BuildingBlock: KUFVIS_clean_sbu_0, # of connection points: 4
#     Node 5, Type 0, BuildingBlock: KUFVIS_clean_sbu_0, # of connection points: 4
#     Node 6, Type 0, BuildingBlock: KUFVIS_clean_sbu_0, # of connection points: 4
#     Node 7, Type 0, BuildingBlock: KUFVIS_clean_sbu_0, # of connection points: 4
#     Node 8, Type 0, BuildingBlock: KUFVIS_clean_sbu_0, # of connection points: 4
#     Node 9, Type 0, BuildingBlock: KUFVIS_clean_sbu_0, # of connection points: 4
#     Node 10, Type 0, BuildingBlock: KUFVIS_clean_sbu_0, # of connection points: 4
#     Node 11, Type 0, BuildingBlock: KUFVIS_clean_sbu_0, # of connection points: 4
#     Node 12, Type 0, BuildingBlock: KUFVIS_clean_sbu_0, # of connection points: 4
#     Node 13, Type 0, BuildingBlock: KUFVIS_clean_sbu_0, # of connection points: 4
#     Node 14, Type 0, BuildingBlock: KUFVIS_clean_sbu_0, # of connection points: 4
#     Node 15, Type 0, BuildingBlock: KUFVIS_clean_sbu_0, # of connection points: 4
#     Node 16, Type 0, BuildingBlock: KUFVIS_clean_sbu_0, # of connection points: 4
#     Node 17, Type 0, BuildingBlock: KUFVIS_clean_sbu_0, # of connection points: 4
#     Node 18, Type 0, BuildingBlock: KUFVIS_clean_sbu_0, # of connection points: 4
#     Node 19, Type 0, BuildingBlock: KUFVIS_clean_sbu_0, # of connection points: 4
#     Node 20, Type 0, BuildingBlock: KUFVIS_clean_sbu_0, # of connection points: 4
#     Node 21, Type 0, BuildingBlock: KUFVIS_clean_sbu_0, # of connection points: 4
#     Node 22, Type 0, BuildingBlock: KUFVIS_clean_sbu_0, # of connection points: 4
#     Node 23, Type 0, BuildingBlock: KUFVIS_clean_sbu_0, # of connection points: 4
#     Edge 24, Type (0, 0), None
#     Edge 25, Type (0, 0), None
#     Edge 26, Type (0, 0), None
#     Edge 27, Type (0, 0), None
#     Edge 28, Type (0, 0), None
#     Edge 29, Type (0, 0), None
#     Edge 30, Type (0, 0), None
#     Edge 31, Type (0, 0), None
#     Edge 32, Type (0, 0), None
#     Edge 33, Type (0, 0), None
#     Edge 34, Type (0, 0), None
#     Edge 35, Type (0, 0), None
#     Edge 36, Type (0, 0), None
#     Edge 37, Type (0, 0), None
#     Edge 38, Type (0, 0), None
#     Edge 39, Type (0, 0), None
#     Edge 40, Type (0, 0), None
#     Edge 41, Type (0, 0), None
#     Edge 42, Type (0, 0), None
#     Edge 43, Type (0, 0), None
#     Edge 44, Type (0, 0), None
#     Edge 45, Type (0, 0), None
#     Edge 46, Type (0, 0), None
#     Edge 47, Type (0, 0), None
#     Edge 48, Type (0, 0), None
#     Edge 49, Type (0, 0), None
#     Edge 50, Type (0, 0), None
#     Edge 51, Type (0, 0), None
#     Edge 52, Type (0, 0), None
#     Edge 53, Type (0, 0), None
#     Edge 54, Type (0, 0), None
#     Edge 55, Type (0, 0), None
#     Edge 56, Type (0, 0), None
#     Edge 57, Type (0, 0), None
#     Edge 58, Type (0, 0), None
#     Edge 59, Type (0, 0), None
#     Edge 60, Type (0, 0), None
#     Edge 61, Type (0, 0), None
#     Edge 62, Type (0, 0), None
#     Edge 63, Type (0, 0), None
#     Edge 64, Type (0, 0), None
#     Edge 65, Type (0, 0), None
#     Edge 66, Type (0, 0), None
#     Edge 67, Type (0, 0), None
#     Edge 68, Type (0, 0), None
#     Edge 69, Type (0, 0), None
#     Edge 70, Type (0, 0), None
#     Edge 71, Type (0, 0), None
# Relax obj value: 0.310
# Max RMSD: 0.268
# Mean RMSD: 0.242
data_MOF--net-unv--node1-KUFVIS_clean_sbu_0--edge1-none
_symmetry_space_group_name_H-M    P1
_symmetry_Int_Tables_number       1
_symmetry_cell_setting            triclinic
loop_
_symmetry_equiv_pos_as_xyz
'x, y, z'
_cell_length_a     22.832358
_cell_length_b     22.828027
_cell_length_c     22.833227
_cell_angle_alpha  89.906242
_cell_angle_beta   89.910021
_cell_angle_gamma 89.901486
loop_
_atom_site_label
_atom_site_type_symbol
_atom_site_fract_x
_atom_site_fract_y
_atom_site_fract_z
_atom_type_partial_charge
Mn0 Mn 0.95564 0.0635 0.34279 0.0
Mn1 Mn 0.07726 0.12166 0.29835 0.0
C2 C 0.02144 0.09096 0.41618 0.0
C3 C 0.90204 0.97806 0.37201 0.0
C4 C 0.97591 0.1936 0.30621 0.0
O5 O 0.96684 0.02562 0.25746 0.0
O6 O 0.06129 0.04579 0.24424 0.0
C7 C 0.16709 0.03824 0.32097 0.0
N8 N 0.14929 0.09381 0.31893 0.0
C9 C 0.24307 0.13249 0.34497 0.0
C10 C 0.26275 0.07564 0.34647 0.0
C11 C 0.22399 0.02861 0.33682 0.0
C12 C 0.18436 0.13985 0.33268 0.0
H13 H 0.13697 0.00251 0.31374 0.0
C14 C 0.01681 0.01017 0.23487 0.0
O15 O 0.87549 0.02594 0.35623 0.0
O16 O 0.95817 -0.02041 0.36865 0.0
N17 N 0.09845 0.18628 0.34977 0.0
C18 C 0.06891 0.21541 0.39305 0.0
C19 C 0.09587 0.26236 0.42222 0.0
C20 C 0.15485 0.27479 0.41132 0.0
C21 C 0.18732 0.23536 0.37754 0.0
C22 C 0.15689 0.19053 0.3484 0.0
H23 H 0.02452 0.20462 0.40479 0.0
O24 O 0.96556 0.09027 0.42487 0.0
O25 O 0.03725 0.07856 0.36256 0.0
O26 O 0.93949 0.15661 0.32865 0.0
O27 O 0.01227 0.1708 0.27111 0.0
C28 C 0.24871 0.23274 0.37991 0.0
C29 C 0.2769 0.18032 0.36425 0.0
H30 H 0.30605 0.06852 0.3613 0.0
H31 H 0.23554 -0.01517 0.34484 0.0
H32 H 0.07153 0.28801 0.45378 0.0
H33 H 0.17596 0.31018 0.43466 0.0
H34 H 0.27373 0.26757 0.40001 0.0
H35 H 0.32332 0.17545 0.37267 0.0
Mn36 Mn -0.0016 0.39306 0.36235 0.0
Mn37 Mn 0.8766 0.3527 0.30921 0.0
C38 C 0.92502 0.37488 0.43114 0.0
C39 C 0.05731 0.47284 0.39581 0.0
C40 C 0.96933 0.26293 0.31219 0.0
O41 O -0.00149 0.4391 0.28027 0.0
O42 O 0.90893 0.4168 0.25021 0.0
C43 C 0.81257 0.45911 0.31385 0.0
N44 N 0.81667 0.40147 0.3261 0.0
C45 C 0.71679 0.39013 0.34985 0.0
C46 C 0.71228 0.44928 0.3378 0.0
C47 C 0.759 0.48462 0.31984 0.0
C48 C 0.77191 0.36824 0.34566 0.0
H49 H 0.84978 0.4851 0.30082 0.0
C50 C 0.95492 0.45063 0.24649 0.0
O51 O 0.08069 0.42253 0.38415 0.0
O52 O 0.00174 0.47573 0.38988 0.0
N53 N 0.84033 0.29752 0.3617 0.0
C54 C 0.8605 0.25045 0.39281 0.0
C55 C 0.82025 0.21232 0.41952 0.0
C56 C 0.76006 0.22413 0.4151 0.0
C57 C 0.74171 0.27695 0.38999 0.0
C58 C 0.78423 0.31295 0.36479 0.0
H59 H 0.90643 0.24218 0.39846 0.0
O60 O -0.02058 0.36549 0.44309 0.0
O61 O 0.91564 0.38971 0.3766 0.0
O62 O 0.00299 0.29737 0.34231 0.0
O63 O 0.9273 0.28716 0.28679 0.0
C64 C 0.68337 0.29613 0.38917 0.0
C65 C 0.67071 0.35275 0.36812 0.0
H66 H 0.67518 0.47071 0.34911 0.0
H67 H 0.75413 0.53125 0.31273 0.0
H68 H 0.83544 0.17339 0.44199 0.0
H69 H 0.72857 0.19283 0.43144 0.0
H70 H 0.64838 0.26854 0.40547 0.0
H71 H 0.62562 0.36558 0.36568 0.0
Mn72 Mn 0.96984 0.88869 0.08295 0.0
Mn73 Mn 0.09924 0.85237 0.12388 0.0
C74 C 0.03671 0.8719 0.01111 0.0
C75 C 0.90607 0.96458 0.06004 0.0
C76 C 0.0081 0.75699 0.11486 0.0
O77 O 0.97408 0.93948 0.16224 0.0
O78 O 0.06471 0.91584 0.18755 0.0
C79 C 0.17216 0.93767 0.15984 0.0
N80 N 0.16453 0.90161 0.11365 0.0
C81 C 0.2449 0.84274 0.14884 0.0
C82 C 0.23148 0.86331 0.20473 0.0
C83 C 0.19427 0.91202 0.21061 0.0
C84 C 0.20663 0.85947 0.10357 0.0
H85 H 0.14735 0.97801 0.1627 0.0
C86 C 0.02002 0.95281 0.19174 0.0
O87 O 0.88557 0.9131 0.07078 0.0
O88 O 0.96177 0.97039 0.05832 0.0
N89 N 0.13432 0.80496 0.06329 0.0
C90 C 0.11225 0.76102 0.02922 0.0
C91 C 0.15036 0.71885 0.006 0.0
C92 C 0.20967 0.72036 0.02155 0.0
C93 C 0.2303 0.767 0.05549 0.0
C94 C 0.19179 0.81374 0.06719 0.0
H95 H 0.06605 0.75687 0.02096 0.0
O96 O -0.01792 0.86047 0.0026 0.0
O97 O 0.05087 0.88844 0.06373 0.0
O98 O 0.9695 0.79288 0.09402 0.0
O99 O 0.05252 0.77886 0.14035 0.0
C100 C 0.28093 0.76186 0.08962 0.0
C101 C 0.28491 0.79656 0.14004 0.0
H102 H 0.24955 0.84166 0.24284 0.0
H103 H 0.18497 0.93095 0.25288 0.0
H104 H 0.1333 0.68282 -0.01951 0.0
H105 H 0.23766 0.68347 0.01107 0.0
H106 H 0.31021 0.72482 0.08437 0.0
H107 H 0.31426 0.78352 0.17438 0.0
Mn108 Mn 0.01558 0.55336 0.08427 0.0
Mn109 Mn 0.89285 0.60839 0.13345 0.0
C110 C 0.94453 0.58067 0.01701 0.0
C111 C 0.06615 0.46577 0.05406 0.0
C112 C -0.00421 0.69033 0.11826 0.0
O113 O 0.00613 0.50518 0.16581 0.0
O114 O 0.92025 0.54284 0.19447 0.0
C115 C 0.82179 0.50377 0.1342 0.0
N116 N 0.82934 0.56099 0.12057 0.0
C117 C 0.72875 0.57777 0.10244 0.0
C118 C 0.72052 0.51959 0.11603 0.0
C119 C 0.76596 0.48163 0.13199 0.0
C120 C 0.78536 0.59637 0.10285 0.0
H121 H 0.85781 0.47533 0.14529 0.0
C122 C 0.95997 0.50133 0.19862 0.0
O123 O 0.0943 0.51363 0.06464 0.0
O124 O 0.01039 0.4696 0.05831 0.0
N125 N 0.85665 0.66214 0.07959 0.0
C126 C 0.87689 0.70831 0.04746 0.0
C127 C 0.83695 0.74981 0.02563 0.0
C128 C 0.77674 0.74166 0.03497 0.0
C129 C 0.75729 0.68913 0.05991 0.0
C130 C 0.79956 0.65036 0.08146 0.0
H131 H 0.92264 0.71328 0.03791 0.0
O132 O -0.00061 0.58189 0.00315 0.0
O133 O 0.93457 0.56819 0.07125 0.0
O134 O 0.03042 0.64964 0.09712 0.0
O135 O 0.94868 0.67528 0.14426 0.0
C136 C 0.6981 0.67281 0.06381 0.0
C137 C 0.68385 0.61663 0.08511 0.0
H138 H 0.68055 0.50201 0.10474 0.0
H139 H 0.75842 0.43557 0.14015 0.0
H140 H 0.85257 0.7882 0.00257 0.0
H141 H 0.74594 0.77491 0.02115 0.0
H142 H 0.6637 0.70205 0.04913 0.0
H143 H 0.63868 0.60373 0.08807 0.0
Mn144 Mn 0.34292 0.95573 0.06335 0.0
Mn145 Mn 0.29842 0.07735 0.12149 0.0
C146 C 0.41629 0.02155 0.09081 0.0
C147 C 0.37217 0.90212 0.97791 0.0
C148 C 0.30633 0.97599 0.19343 0.0
O149 O 0.25759 0.9669 0.02545 0.0
O150 O 0.24432 0.06136 0.04562 0.0
C151 C 0.32106 0.16715 0.03807 0.0
N152 N 0.31897 0.14939 0.09363 0.0
C153 C 0.34504 0.24319 0.13227 0.0
C154 C 0.3466 0.26283 0.07543 0.0
C155 C 0.33695 0.22404 0.02842 0.0
C156 C 0.33271 0.18449 0.13966 0.0
H157 H 0.31384 0.13701 0.00235 0.0
C158 C 0.23498 0.01687 0.01 0.0
O159 O 0.35641 0.87556 0.02578 0.0
O160 O 0.36879 0.95826 -0.02054 0.0
N161 N 0.34981 0.09857 0.1861 0.0
C162 C 0.39309 0.06905 0.21526 0.0
C163 C 0.42221 0.09603 0.26222 0.0
C164 C 0.41129 0.15502 0.27463 0.0
C165 C 0.37754 0.18748 0.23517 0.0
C166 C 0.34842 0.15703 0.19034 0.0
H167 H 0.40486 0.02466 0.20448 0.0
O168 O 0.425 0.96566 0.09013 0.0
O169 O 0.36267 0.03735 0.07841 0.0
O170 O 0.3288 0.93957 0.15644 0.0
O171 O 0.27122 0.01234 0.17063 0.0
C172 C 0.37991 0.24888 0.23252 0.0
C173 C 0.3643 0.27705 0.18008 0.0
H174 H 0.36147 0.30611 0.0683 0.0
H175 H 0.34501 0.23556 -0.01535 0.0
H176 H 0.45377 0.0717 0.2879 0.0
H177 H 0.43461 0.17616 0.31002 0.0
H178 H 0.4 0.27392 0.26734 0.0
H179 H 0.37275 0.32347 0.1752 0.0
Mn180 Mn 0.58384 0.50344 0.05702 0.0
Mn181 Mn 0.63817 0.3839 0.10925 0.0
C182 C 0.51806 0.43118 0.08531 0.0
C183 C 0.54788 0.55337 0.97404 0.0
C184 C 0.62032 0.48159 0.18978 0.0
O185 O 0.66637 0.50011 0.00934 0.0
O186 O 0.69818 0.41463 0.04476 0.0
C187 C 0.63843 0.31383 0.00553 0.0
N188 N 0.62613 0.3205 0.06305 0.0
C189 C 0.6037 0.22098 0.07859 0.0
C190 C 0.61382 0.214 0.01951 0.0
C191 C 0.63213 0.25903 -0.01782 0.0
C192 C 0.60786 0.27669 0.09841 0.0
H193 H 0.65098 0.34999 0.97784 0.0
C194 C 0.70241 0.45645 0.00549 0.0
O195 O 0.56102 0.58173 0.02136 0.0
O196 O 0.55556 0.49787 0.97518 0.0
N197 N 0.58522 0.34778 0.16414 0.0
C198 C 0.548 0.36882 0.20604 0.0
C199 C 0.52156 0.32987 0.24567 0.0
C200 C 0.52986 0.26945 0.23862 0.0
C201 C 0.56 0.24935 0.18918 0.0
C202 C 0.58655 0.29082 0.15257 0.0
H203 H 0.53612 0.41427 0.20783 0.0
O204 O 0.50393 0.48583 0.08803 0.0
O205 O 0.57233 0.42204 0.0703 0.0
O206 O 0.59817 0.51763 0.15132 0.0
O207 O 0.65153 0.43935 0.17259 0.0
C208 C 0.56219 0.19045 0.17248 0.0
C209 C 0.58487 0.17635 0.11702 0.0
H210 H 0.60054 0.1748 0.00099 0.0
H211 H 0.63898 0.25195 0.93582 0.0
H212 H 0.49386 0.34629 0.2805 0.0
H213 H 0.50946 0.23912 0.26876 0.0
H214 H 0.54438 0.15636 0.20034 0.0
H215 H 0.58704 0.13153 0.10442 0.0
Mn216 Mn 0.36239 -0.00152 0.3929 0.0
Mn217 Mn 0.30926 0.87665 0.35251 0.0
C218 C 0.43118 0.92508 0.37472 0.0
C219 C 0.39584 0.05738 0.47271 0.0
C220 C 0.31229 0.96939 0.26275 0.0
O221 O 0.28031 -0.00141 0.43894 0.0
O222 O 0.25023 0.90902 0.41657 0.0
C223 C 0.31385 0.81267 0.45893 0.0
N224 N 0.32612 0.81672 0.40131 0.0
C225 C 0.34985 0.71682 0.39002 0.0
C226 C 0.33779 0.71235 0.44916 0.0
C227 C 0.31982 0.75909 0.48446 0.0
C228 C 0.34567 0.77194 0.36811 0.0
H229 H 0.30083 0.84989 0.4849 0.0
C230 C 0.24652 0.955 0.45043 0.0
O231 O 0.3842 0.08078 0.42242 0.0
O232 O 0.38991 0.0018 0.47557 0.0
N233 N 0.36176 0.84033 0.29739 0.0
C234 C 0.39288 0.86046 0.25033 0.0
C235 C 0.41958 0.82018 0.21223 0.0
C236 C 0.41513 0.75998 0.22405 0.0
C237 C 0.39001 0.74166 0.27687 0.0
C238 C 0.36482 0.78423 0.31284 0.0
H239 H 0.39854 0.9064 0.24203 0.0
O240 O 0.44313 -0.02051 0.36535 0.0
O241 O 0.37665 0.9157 0.38953 0.0
O242 O 0.34237 0.00308 0.29721 0.0
O243 O 0.2869 0.92734 0.28694 0.0
C244 C 0.38918 0.68332 0.29607 0.0
C245 C 0.36813 0.6707 0.35269 0.0
H246 H 0.34911 0.67525 0.47061 0.0
H247 H 0.3127 0.75425 0.53108 0.0
H248 H 0.44206 0.83534 0.17331 0.0
H249 H 0.43145 0.72846 0.19278 0.0
H250 H 0.40549 0.64831 0.26851 0.0
H251 H 0.36571 0.62561 0.36555 0.0
Mn252 Mn 0.60568 0.44997 0.38247 0.0
Mn253 Mn 0.63546 0.57643 0.35067 0.0
C254 C 0.522 0.52134 0.38747 0.0
C255 C 0.55891 0.405 0.47196 0.0
C256 C 0.61783 0.48981 0.25585 0.0
O257 O 0.65513 0.46954 0.46088 0.0
O258 O 0.70006 0.5431 0.4117 0.0
C259 C 0.63804 0.63953 0.45813 0.0
N260 N 0.6215 0.63522 0.40167 0.0
C261 C 0.60941 0.73693 0.38758 0.0
C262 C 0.62276 0.7412 0.44632 0.0
C263 C 0.63888 0.69408 0.48206 0.0
C264 C 0.60542 0.68121 0.36798 0.0
H265 H 0.6486 0.60202 0.4846 0.0
C266 C 0.69943 0.50608 0.45653 0.0
O267 O 0.5377 0.40414 0.4204 0.0
O268 O 0.60652 0.43475 0.47436 0.0
N269 N 0.57847 0.61381 0.30063 0.0
C270 C 0.54558 0.59687 0.25361 0.0
C271 C 0.52837 0.63897 0.2121 0.0
C272 C 0.54217 0.69806 0.22152 0.0
C273 C 0.56642 0.71445 0.2752 0.0
C274 C 0.58336 0.67009 0.31378 0.0
H275 H 0.5318 0.5523 0.24756 0.0
O276 O 0.51518 0.46687 0.38716 0.0
O277 O 0.57597 0.53173 0.39201 0.0
O278 O 0.58999 0.45391 0.29015 0.0
O279 O 0.65031 0.52865 0.27856 0.0
C280 C 0.57558 0.77258 0.29211 0.0
C281 C 0.59749 0.78395 0.34846 0.0
H282 H 0.61125 0.77837 0.46774 0.0
H283 H 0.64831 0.69955 0.52818 0.0
H284 H 0.50514 0.62588 0.17298 0.0
H285 H 0.53171 0.73063 0.18864 0.0
H286 H 0.56545 0.80854 0.26277 0.0
H287 H 0.6065 0.82879 0.35894 0.0
Mn288 Mn 0.06348 0.34299 0.95565 0.0
Mn289 Mn 0.12165 0.2984 0.07723 0.0
C290 C 0.09096 0.41628 0.02144 0.0
C291 C 0.97805 0.37222 0.90202 0.0
C292 C 0.19358 0.30641 0.97588 0.0
O293 O 0.02558 0.25764 0.96678 0.0
O294 O 0.0458 0.2443 0.0612 0.0
C295 C 0.0382 0.32105 0.16698 0.0
N296 N 0.09378 0.3189 0.14926 0.0
C297 C 0.13236 0.34498 0.24306 0.0
C298 C 0.0755 0.34659 0.26266 0.0
C299 C 0.02851 0.33697 0.22384 0.0
C300 C 0.13979 0.33264 0.18438 0.0
H301 H 0.0025 0.31387 0.13681 0.0
C302 C 0.01015 0.23499 0.01673 0.0
O303 O 0.02593 0.35645 0.87549 0.0
O304 O -0.02042 0.36887 0.95815 0.0
N305 N 0.18626 0.34978 0.0985 0.0
C306 C 0.21542 0.39308 0.06902 0.0
C307 C 0.26237 0.42219 0.09602 0.0
C308 C 0.27476 0.41125 0.15501 0.0
C309 C 0.23529 0.37748 0.18743 0.0
C310 C 0.19048 0.34836 0.15695 0.0
H311 H 0.20463 0.40488 0.02465 0.0
O312 O 0.09026 0.42509 0.96558 0.0
O313 O 0.07855 0.36267 0.03728 0.0
O314 O 0.15657 0.32887 0.93949 0.0
O315 O 0.17081 0.27125 0.01221 0.0
C316 C 0.23261 0.37985 0.24881 0.0
C317 C 0.18016 0.36424 0.27695 0.0
H318 H 0.06835 0.3615 0.30592 0.0
H319 H -0.01527 0.34505 0.23532 0.0
H320 H 0.28805 0.45376 0.07172 0.0
H321 H 0.31014 0.43457 0.17616 0.0
H322 H 0.26742 0.39995 0.27386 0.0
H323 H 0.17525 0.3727 0.32335 0.0
Mn324 Mn 0.05705 0.58378 0.50326 0.0
Mn325 Mn 0.10931 0.63819 0.38377 0.0
C326 C 0.08539 0.51808 0.43106 0.0
C327 C 0.9741 0.54785 0.55319 0.0
C328 C 0.18981 0.62032 0.48147 0.0
O329 O 0.00936 0.66634 0.49993 0.0
O330 O 0.0448 0.6982 0.41449 0.0
C331 C 0.00561 0.63848 0.31367 0.0
N332 N 0.06313 0.62616 0.32036 0.0
C333 C 0.07869 0.60374 0.22086 0.0
C334 C 0.01962 0.61387 0.21387 0.0
C335 C -0.01773 0.63219 0.25888 0.0
C336 C 0.09851 0.60789 0.27657 0.0
H337 H 0.97791 0.65103 0.34981 0.0
C338 C 0.00553 0.7024 0.45629 0.0
O339 O 0.02142 0.56101 0.58154 0.0
O340 O 0.97523 0.55548 0.4977 0.0
N341 N 0.16422 0.58524 0.34766 0.0
C342 C 0.20613 0.54802 0.3687 0.0
C343 C 0.24578 0.52158 0.32977 0.0
C344 C 0.23873 0.52988 0.26936 0.0
C345 C 0.18929 0.56003 0.24926 0.0
C346 C 0.15266 0.58658 0.29071 0.0
H347 H 0.20791 0.53613 0.41414 0.0
O348 O 0.0881 0.50386 0.48568 0.0
O349 O 0.07035 0.57234 0.42186 0.0
O350 O 0.15134 0.59814 0.51747 0.0
O351 O 0.17263 0.65153 0.43923 0.0
C352 C 0.1726 0.56221 0.19036 0.0
C353 C 0.11714 0.5849 0.17626 0.0
H354 H 0.0011 0.60058 0.17467 0.0
H355 H 0.93592 0.63905 0.25178 0.0
H356 H 0.28061 0.49387 0.34619 0.0
H357 H 0.26888 0.50948 0.23904 0.0
H358 H 0.20047 0.5444 0.15629 0.0
H359 H 0.10455 0.58707 0.13144 0.0
Mn360 Mn 0.89985 0.87266 0.491 0.0
Mn361 Mn 0.85655 0.8095 0.37164 0.0
C362 C 0.87558 0.93377 0.41133 0.0
C363 C 0.97447 0.90925 0.55006 0.0
C364 C 0.76894 0.83395 0.46583 0.0
O365 O 0.94849 0.7901 0.4951 0.0
O366 O 0.91787 0.7519 0.41111 0.0
C367 C 0.97254 0.80992 0.31234 0.0
N368 N 0.91128 0.81717 0.3119 0.0
C369 C 0.90221 0.82855 0.20826 0.0
C370 C 0.96323 0.82822 0.20849 0.0
C371 C -0.00224 0.81706 0.25788 0.0
C372 C 0.8774 0.82895 0.26177 0.0
H373 H 0.93316 0.81161 0.33347 0.0
C374 C 0.95553 0.75165 0.45389 0.0
O375 O 0.92418 0.89616 0.57242 0.0
O376 O -0.01922 0.9023 0.49437 0.0
N377 N 0.80466 0.85613 0.32476 0.0
C378 C 0.7541 0.88552 0.3372 0.0
C379 C 0.7142 0.89776 0.29208 0.0
C380 C 0.72845 0.88259 0.23425 0.0
C381 C 0.7842 0.86 0.22232 0.0
C382 C 0.82091 0.84735 0.26948 0.0
H383 H 0.74477 0.90057 0.38061 0.0
O384 O 0.87026 0.95148 0.46483 0.0
O385 O 0.89197 0.87927 0.40733 0.0
O386 O 0.80649 0.85741 0.50114 0.0
O387 O 0.78689 0.80275 0.42339 0.0
C388 C 0.80562 0.8494 0.16592 0.0
C389 C 0.86482 0.83332 0.15907 0.0
H390 H -0.01428 0.84437 0.17232 0.0
H391 H 0.045 0.81616 0.25418 0.0
H392 H 0.67284 0.91885 0.30184 0.0
H393 H 0.69762 0.89115 0.1993 0.0
H394 H 0.77799 0.85522 0.12781 0.0
H395 H 0.87919 0.82381 0.11582 0.0
Mn396 Mn 0.3825 0.60573 0.44995 0.0
Mn397 Mn 0.35065 0.63567 0.57634 0.0
C398 C 0.38743 0.52211 0.52137 0.0
C399 C 0.47197 0.55886 0.40506 0.0
C400 C 0.25587 0.61787 0.48972 0.0
O401 O 0.46091 0.65517 0.46949 0.0
O402 O 0.4117 0.70022 0.54294 0.0
C403 C 0.45813 0.63824 0.63943 0.0
N404 N 0.40164 0.62182 0.63517 0.0
C405 C 0.38764 0.60964 0.73685 0.0
C406 C 0.44642 0.62284 0.74107 0.0
C407 C 0.48214 0.63895 0.69395 0.0
C408 C 0.36796 0.60576 0.68115 0.0
H409 H 0.48459 0.64878 0.60192 0.0
C410 C 0.45655 0.69953 0.50596 0.0
O411 O 0.42041 0.53766 0.40421 0.0
O412 O 0.4744 0.60653 0.43472 0.0
N413 N 0.3006 0.57876 0.6138 0.0
C414 C 0.25361 0.5458 0.59691 0.0
C415 C 0.21212 0.52859 0.63901 0.0
C416 C 0.22155 0.54242 0.69808 0.0
C417 C 0.27522 0.56672 0.71444 0.0
C418 C 0.31376 0.5837 0.67006 0.0
H419 H 0.24756 0.53196 0.55236 0.0
O420 O 0.38714 0.51524 0.46691 0.0
O421 O 0.39202 0.57609 0.53174 0.0
O422 O 0.29019 0.59001 0.45386 0.0
O423 O 0.27854 0.65042 0.52852 0.0
C424 C 0.29218 0.57584 0.77255 0.0
C425 C 0.34855 0.59769 0.78388 0.0
H426 H 0.46785 0.61128 0.77821 0.0
H427 H 0.52828 0.64828 0.69938 0.0
H428 H 0.17302 0.5053 0.62595 0.0
H429 H 0.18871 0.53192 0.73066 0.0
H430 H 0.26288 0.56567 0.80852 0.0
H431 H 0.3591 0.60662 0.82872 0.0
Mn432 Mn 0.44 0.57463 0.84407 0.0
Mn433 Mn 0.57019 0.6099 0.81767 0.0
C434 C 0.5106 0.57707 0.9283 0.0
C435 C 0.39508 0.48261 0.88872 0.0
C436 C 0.47705 0.70339 0.83502 0.0
O437 O 0.4657 0.4974 0.79507 0.0
O438 O 0.53927 0.54883 0.75251 0.0
C439 C 0.63279 0.49903 0.81955 0.0
N440 N 0.62888 0.55681 0.83232 0.0
C441 C 0.73022 0.56717 0.84978 0.0
C442 C 0.73468 0.50807 0.83881 0.0
C443 C 0.68699 0.47289 0.8236 0.0
C444 C 0.67489 0.58908 0.85026 0.0
H445 H 0.59518 0.47307 0.80858 0.0
C446 C 0.50394 0.50289 0.75215 0.0
O447 O 0.39078 0.53433 0.909 0.0
O448 O 0.4287 0.48151 0.84357 0.0
N449 N 0.60803 0.65906 0.87475 0.0
C450 C 0.59154 0.70802 0.90503 0.0
C451 C 0.63444 0.7477 0.92394 0.0
C452 C 0.69375 0.73515 0.91387 0.0
C453 C 0.70926 0.68059 0.89078 0.0
C454 C 0.66424 0.64375 0.87192 0.0
H455 H 0.5466 0.71701 0.91539 0.0
O456 O 0.4564 0.57168 0.93469 0.0
O457 O 0.52142 0.57045 0.87491 0.0
O458 O 0.44042 0.66747 0.85979 0.0
O459 O 0.52061 0.68323 0.80577 0.0
C460 C 0.76726 0.66115 0.88459 0.0
C461 C 0.7776 0.60403 0.86384 0.0
H462 H 0.77312 0.48823 0.85213 0.0
H463 H 0.69171 0.42615 0.8173 0.0
H464 H 0.6218 0.78808 0.94533 0.0
H465 H 0.72689 0.76692 0.92508 0.0
H466 H 0.80375 0.68895 0.89652 0.0
H467 H 0.82166 0.58934 0.85752 0.0
Mn468 Mn 0.49113 0.89994 0.87249 0.0
Mn469 Mn 0.37176 0.85663 0.80938 0.0
C470 C 0.41149 0.87566 0.93361 0.0
C471 C 0.5502 0.97454 0.90909 0.0
C472 C 0.46597 0.76902 0.83378 0.0
O473 O 0.4952 0.94858 0.78995 0.0
O474 O 0.4112 0.91796 0.75178 0.0
C475 C 0.31243 0.97264 0.80981 0.0
N476 N 0.31201 0.91137 0.81707 0.0
C477 C 0.20837 0.90227 0.82842 0.0
C478 C 0.20857 0.96331 0.82808 0.0
C479 C 0.25796 -0.00215 0.81693 0.0
C480 C 0.26189 0.87747 0.82884 0.0
H481 H 0.33358 0.93325 0.81151 0.0
C482 C 0.45398 0.95562 0.75151 0.0
O483 O 0.57256 0.92425 0.89597 0.0
O484 O 0.4945 -0.01913 0.90214 0.0
N485 N 0.32491 0.80473 0.85601 0.0
C486 C 0.33737 0.75417 0.88539 0.0
C487 C 0.29227 0.71425 0.89761 0.0
C488 C 0.23443 0.72848 0.88244 0.0
C489 C 0.22247 0.78425 0.85987 0.0
C490 C 0.26962 0.82097 0.84723 0.0
H491 H 0.38079 0.74485 0.90044 0.0
O492 O 0.465 0.87034 0.9513 0.0
O493 O 0.40746 0.89207 0.87913 0.0
O494 O 0.50128 0.80657 0.85723 0.0
O495 O 0.42352 0.78697 0.8026 0.0
C496 C 0.16606 0.80565 0.84927 0.0
C497 C 0.1592 0.86486 0.8332 0.0
H498 H 0.17239 -0.01421 0.84422 0.0
H499 H 0.25424 0.0451 0.81602 0.0
H500 H 0.30204 0.67288 0.9187 0.0
H501 H 0.19949 0.69764 0.89098 0.0
H502 H 0.12796 0.77801 0.85508 0.0
H503 H 0.11594 0.87923 0.82368 0.0
Mn504 Mn 0.44996 0.38258 0.60564 0.0
Mn505 Mn 0.57642 0.35074 0.63544 0.0
C506 C 0.52129 0.38769 0.522 0.0
C507 C 0.405 0.47207 0.55888 0.0
C508 C 0.48978 0.25594 0.61773 0.0
O509 O 0.46954 0.46098 0.65509 0.0
O510 O 0.54307 0.41176 0.70004 0.0
C511 C 0.6395 0.45822 0.63804 0.0
N512 N 0.63521 0.40175 0.62152 0.0
C513 C 0.73689 0.38768 0.6094 0.0
C514 C 0.74115 0.44643 0.62272 0.0
C515 C 0.69404 0.48218 0.63885 0.0
C516 C 0.68118 0.36805 0.60543 0.0
H517 H 0.602 0.48469 0.64861 0.0
C518 C 0.50607 0.45661 0.69941 0.0
O519 O 0.40414 0.42051 0.53766 0.0
O520 O 0.43472 0.4745 0.60652 0.0
N521 N 0.61381 0.3007 0.57846 0.0
C522 C 0.59688 0.25368 0.54555 0.0
C523 C 0.63897 0.21217 0.52834 0.0
C524 C 0.69805 0.22159 0.54214 0.0
C525 C 0.71443 0.27527 0.5664 0.0
C526 C 0.67007 0.31385 0.58336 0.0
H527 H 0.55232 0.24762 0.53176 0.0
O528 O 0.46684 0.38733 0.51512 0.0
O529 O 0.53171 0.39211 0.57597 0.0
O530 O 0.4539 0.29027 0.5899 0.0
O531 O 0.52861 0.27863 0.65024 0.0
C532 C 0.77255 0.29219 0.57555 0.0
C533 C 0.78391 0.34856 0.59746 0.0
H534 H 0.7783 0.46786 0.6112 0.0
H535 H 0.6995 0.52831 0.64826 0.0
H536 H 0.62589 0.17305 0.50509 0.0
H537 H 0.73062 0.18871 0.53167 0.0
H538 H 0.80851 0.26286 0.5654 0.0
H539 H 0.82875 0.35906 0.60644 0.0
Mn540 Mn 0.50329 0.05711 0.58366 0.0
Mn541 Mn 0.38381 0.1094 0.63807 0.0
C542 C 0.43109 0.08546 0.51796 0.0
C543 C 0.55324 0.97416 0.54772 0.0
C544 C 0.48152 0.18988 0.6202 0.0
O545 O 0.49999 0.00944 0.66621 0.0
O546 O 0.41456 0.04489 0.69806 0.0
C547 C 0.31373 0.00568 0.63833 0.0
N548 N 0.3204 0.06321 0.62605 0.0
C549 C 0.2209 0.07876 0.60359 0.0
C550 C 0.21393 0.01967 0.61368 0.0
C551 C 0.25895 -0.01768 0.63199 0.0
C552 C 0.2766 0.09859 0.60778 0.0
H553 H 0.34988 0.97797 0.65088 0.0
C554 C 0.45637 0.00561 0.70227 0.0
O555 O 0.58158 0.02149 0.5609 0.0
O556 O 0.49774 0.97528 0.55536 0.0
N557 N 0.34768 0.16432 0.58515 0.0
C558 C 0.36871 0.20624 0.54794 0.0
C559 C 0.32978 0.2459 0.52152 0.0
C560 C 0.26937 0.23886 0.52982 0.0
C561 C 0.24927 0.1894 0.55994 0.0
C562 C 0.29073 0.15276 0.58649 0.0
H563 H 0.41416 0.20801 0.53605 0.0
O564 O 0.4857 0.08816 0.50376 0.0
O565 O 0.42188 0.07042 0.57221 0.0
O566 O 0.51752 0.1514 0.59802 0.0
O567 O 0.43929 0.17271 0.65141 0.0
C568 C 0.19038 0.1727 0.5621 0.0
C569 C 0.17628 0.11721 0.58475 0.0
H570 H 0.17473 0.00115 0.60039 0.0
H571 H 0.25187 0.93595 0.63883 0.0
H572 H 0.34619 0.28074 0.49382 0.0
H573 H 0.23904 0.26902 0.50944 0.0
H574 H 0.1563 0.20057 0.54429 0.0
H575 H 0.13148 0.1046 0.58689 0.0
Mn576 Mn 0.84413 0.43998 0.57451 0.0
Mn577 Mn 0.81774 0.5702 0.60977 0.0
C578 C 0.92837 0.51057 0.57693 0.0
C579 C 0.88883 0.39515 0.48248 0.0
C580 C 0.83512 0.47706 0.70326 0.0
O581 O 0.7951 0.46568 0.4973 0.0
O582 O 0.75256 0.53928 0.54874 0.0
C583 C 0.81958 0.63279 0.49891 0.0
N584 N 0.83237 0.62889 0.55667 0.0
C585 C 0.84985 0.73024 0.567 0.0
C586 C 0.83885 0.7347 0.50792 0.0
C587 C 0.82363 0.68699 0.47276 0.0
C588 C 0.85034 0.67491 0.58892 0.0
H589 H 0.8086 0.59517 0.47297 0.0
C590 C 0.75218 0.50394 0.5028 0.0
O591 O 0.90913 0.39082 0.53419 0.0
O592 O 0.84361 0.42869 0.4814 0.0
N593 N 0.87486 0.60805 0.65889 0.0
C594 C 0.90516 0.59156 0.70783 0.0
C595 C 0.92411 0.63448 0.74748 0.0
C596 C 0.91405 0.69379 0.73491 0.0
C597 C 0.89093 0.7093 0.68038 0.0
C598 C 0.87203 0.66426 0.64357 0.0
H599 H 0.91551 0.54661 0.71683 0.0
O600 O 0.93476 0.45636 0.57156 0.0
O601 O 0.87497 0.52141 0.57032 0.0
O602 O 0.85987 0.4404 0.66734 0.0
O603 O 0.80588 0.52064 0.68311 0.0
C604 C 0.88473 0.76731 0.66094 0.0
C605 C 0.86394 0.77764 0.60384 0.0
H606 H 0.85217 0.77313 0.48807 0.0
H607 H 0.8173 0.69171 0.42603 0.0
H608 H 0.94552 0.62184 0.78784 0.0
H609 H 0.92528 0.72694 0.76666 0.0
H610 H 0.89668 0.80381 0.68871 0.0
H611 H 0.85761 0.82171 0.58915 0.0
Mn612 Mn 0.08428 0.01557 0.55322 0.0
Mn613 Mn 0.13359 0.89286 0.60823 0.0
C614 C 0.01711 0.94455 0.58055 0.0
C615 C 0.054 0.06613 0.46569 0.0
C616 C 0.11835 -0.00417 0.69016 0.0
O617 O 0.16581 0.00617 0.50501 0.0
O618 O 0.19456 0.92029 0.54266 0.0
C619 C 0.1343 0.82178 0.50364 0.0
N620 N 0.12075 0.82932 0.56087 0.0
C621 C 0.10257 0.72872 0.57763 0.0
C622 C 0.11607 0.7205 0.51943 0.0
C623 C 0.13202 0.76596 0.48149 0.0
C624 C 0.10305 0.78533 0.59624 0.0
H625 H 0.14537 0.85781 0.47521 0.0
C626 C 0.19866 0.96001 0.50114 0.0
O627 O 0.06462 0.0943 0.51352 0.0
O628 O 0.05827 0.01036 0.46949 0.0
N629 N 0.07979 0.85664 0.662 0.0
C630 C 0.04763 0.87688 0.70815 0.0
C631 C 0.02582 0.83695 0.74964 0.0
C632 C 0.03519 0.77672 0.74151 0.0
C633 C 0.06013 0.75727 0.68899 0.0
C634 C 0.08168 0.79953 0.65023 0.0
H635 H 0.03805 0.92264 0.7131 0.0
O636 O 0.00317 -0.00059 0.58179 0.0
O637 O 0.07134 0.93453 0.56804 0.0
O638 O 0.09717 0.03044 0.64947 0.0
O639 O 0.14438 0.94872 0.6751 0.0
C640 C 0.06401 0.69807 0.67266 0.0
C641 C 0.08526 0.68381 0.61648 0.0
H642 H 0.10474 0.68054 0.50186 0.0
H643 H 0.14012 0.75842 0.43542 0.0
H644 H 0.00276 0.85256 0.78802 0.0
H645 H 0.02137 0.74591 0.77475 0.0
H646 H 0.04932 0.66366 0.70189 0.0
H647 H 0.08817 0.63864 0.60355 0.0
Mn648 Mn 0.87261 0.49117 0.89978 0.0
Mn649 Mn 0.80948 0.37178 0.8565 0.0
C650 C 0.93373 0.41151 0.87553 0.0
C651 C 0.90922 0.55021 0.97437 0.0
C652 C 0.8339 0.46599 0.76888 0.0
O653 O 0.79008 0.49526 0.94844 0.0
O654 O 0.7519 0.41125 0.91784 0.0
C655 C 0.80995 0.31246 0.97249 0.0
N656 N 0.81718 0.31203 0.91123 0.0
C657 C 0.82853 0.20836 0.90213 0.0
C658 C 0.82823 0.20858 0.96316 0.0
C659 C 0.81709 0.25798 -0.0023 0.0
C660 C 0.82894 0.26189 0.87734 0.0
H661 H 0.81164 0.33361 0.93311 0.0
C662 C 0.75164 0.45404 0.9555 0.0
O663 O 0.89611 0.57261 0.9241 0.0
O664 O 0.90225 0.49451 -0.0193 0.0
N665 N 0.8561 0.32491 0.80461 0.0
C666 C 0.88546 0.33736 0.75405 0.0
C667 C 0.89765 0.29223 0.71413 0.0
C668 C 0.88247 0.23439 0.72837 0.0
C669 C 0.85992 0.22244 0.78413 0.0
C670 C 0.84731 0.26961 0.82085 0.0
H671 H 0.90052 0.38077 0.74473 0.0
O672 O 0.95141 0.46502 0.87018 0.0
O673 O 0.87925 0.40749 0.89192 0.0
O674 O 0.85735 0.50131 0.80642 0.0
O675 O 0.80271 0.42355 0.78684 0.0
C676 C 0.84931 0.16603 0.80553 0.0
C677 C 0.83327 0.15918 0.86474 0.0
H678 H 0.84437 0.17239 -0.01437 0.0
H679 H 0.8162 0.25427 0.04493 0.0
H680 H 0.91872 0.302 0.67276 0.0
H681 H 0.89099 0.19943 0.69753 0.0
H682 H 0.85511 0.12791 0.7779 0.0
H683 H 0.82375 0.11592 0.87911 0.0
Mn684 Mn 0.08309 0.96986 0.88849 0.0
Mn685 Mn 0.12398 0.09928 0.8522 0.0
C686 C 0.01121 0.03674 0.87174 0.0
C687 C 0.06015 0.90613 0.96439 0.0
C688 C 0.11497 0.00814 0.75681 0.0
O689 O 0.16237 0.97411 0.93931 0.0
O690 O 0.18765 0.06476 0.91567 0.0
C691 C 0.15994 0.17224 0.93748 0.0
N692 N 0.11374 0.1646 0.90143 0.0
C693 C 0.14886 0.24503 0.84261 0.0
C694 C 0.20477 0.23164 0.86317 0.0
C695 C 0.21068 0.19439 0.91184 0.0
C696 C 0.10363 0.20671 0.85931 0.0
H697 H 0.16282 0.14741 0.97779 0.0
C698 C 0.19186 0.02006 0.95264 0.0
O699 O 0.07088 0.88558 0.91294 0.0
O700 O 0.05847 0.96183 0.97019 0.0
N701 N 0.06337 0.13437 0.8048 0.0
C702 C 0.0293 0.11229 0.76087 0.0
C703 C 0.00608 0.1504 0.71871 0.0
C704 C 0.0216 0.20973 0.72022 0.0
C705 C 0.05553 0.23037 0.76686 0.0
C706 C 0.06725 0.19186 0.81358 0.0
H707 H 0.02105 0.06607 0.75673 0.0
O708 O 0.00273 -0.0179 0.86028 0.0
O709 O 0.06383 0.05091 0.88827 0.0
O710 O 0.09413 0.96952 0.79269 0.0
O711 O 0.14044 0.05257 0.77868 0.0
C712 C 0.08961 0.28104 0.76175 0.0
C713 C 0.14002 0.28507 0.79646 0.0
H714 H 0.24286 0.24976 0.84154 0.0
H715 H 0.25296 0.18509 0.93075 0.0
H716 H -0.01944 0.13333 0.68268 0.0
H717 H 0.01112 0.23771 0.68335 0.0
H718 H 0.08433 0.31034 0.72473 0.0
H719 H 0.17432 0.31446 0.78345 0.0
Mn720 Mn 0.57456 0.8442 0.43984 0.0
Mn721 Mn 0.60984 0.81781 0.57004 0.0
C722 C 0.57698 0.92845 0.51044 0.0
C723 C 0.48253 0.8889 0.395 0.0
C724 C 0.70331 0.83518 0.4769 0.0
O725 O 0.49734 0.79519 0.46556 0.0
O726 O 0.54879 0.75263 0.53913 0.0
C727 C 0.49899 0.81967 0.63264 0.0
N728 N 0.55675 0.83246 0.62873 0.0
C729 C 0.56711 0.84993 0.73006 0.0
C730 C 0.50803 0.83893 0.73453 0.0
C731 C 0.47286 0.82371 0.68684 0.0
C732 C 0.58901 0.85042 0.67474 0.0
H733 H 0.47303 0.80869 0.59503 0.0
C734 C 0.50284 0.75227 0.5038 0.0
O735 O 0.53424 0.90919 0.39068 0.0
O736 O 0.48145 0.84367 0.42855 0.0
N737 N 0.65897 0.87492 0.60788 0.0
C738 C 0.70791 0.90521 0.59139 0.0
C739 C 0.74759 0.92414 0.63429 0.0
C740 C 0.73504 0.91408 0.69359 0.0
C741 C 0.6805 0.89097 0.7091 0.0
C742 C 0.64366 0.8721 0.66408 0.0
H743 H 0.7169 0.91558 0.54645 0.0
O744 O 0.57159 0.93484 0.45624 0.0
O745 O 0.57039 0.87504 0.52126 0.0
O746 O 0.66739 0.85993 0.44026 0.0
O747 O 0.68318 0.80594 0.52048 0.0
C748 C 0.66107 0.88478 0.76711 0.0
C749 C 0.60397 0.864 0.77744 0.0
H750 H 0.4882 0.85224 0.77296 0.0
H751 H 0.42613 0.81739 0.69156 0.0
H752 H 0.78795 0.94554 0.62165 0.0
H753 H 0.7668 0.92529 0.72673 0.0
H754 H 0.68886 0.89672 0.80359 0.0
H755 H 0.58929 0.85768 0.8215 0.0
Mn756 Mn 0.55334 0.08434 0.01542 0.0
Mn757 Mn 0.60837 0.13365 0.89272 0.0
C758 C 0.58068 0.01716 0.9444 0.0
C759 C 0.4658 0.0541 0.06598 0.0
C760 C 0.69029 0.11838 -0.00433 0.0
O761 O 0.50516 0.1659 0.00601 0.0
O762 O 0.5428 0.19464 0.92015 0.0
C763 C 0.50376 0.13439 0.82166 0.0
N764 N 0.56098 0.12081 0.82919 0.0
C765 C 0.57772 0.10262 0.72862 0.0
C766 C 0.51953 0.11616 0.7204 0.0
C767 C 0.48159 0.13212 0.76584 0.0
C768 C 0.59634 0.10309 0.78521 0.0
H769 H 0.47533 0.14547 0.85768 0.0
C770 C 0.50128 0.19874 0.95986 0.0
O771 O 0.51364 0.0647 0.09413 0.0
O772 O 0.4696 0.05835 0.01022 0.0
N773 N 0.66212 0.07981 0.8565 0.0
C774 C 0.70828 0.04765 0.87673 0.0
C775 C 0.74976 0.02583 0.8368 0.0
C776 C 0.74162 0.03519 0.77659 0.0
C777 C 0.68909 0.06014 0.75715 0.0
C778 C 0.65033 0.0817 0.79941 0.0
H779 H 0.71325 0.03809 0.92248 0.0
O780 O 0.58191 0.0032 -0.00076 0.0
O781 O 0.56817 0.0714 0.93439 0.0
O782 O 0.64961 0.09721 0.03028 0.0
O783 O 0.67524 0.14442 0.94857 0.0
C784 C 0.67275 0.06402 0.69796 0.0
C785 C 0.61656 0.08529 0.68372 0.0
H786 H 0.50195 0.10484 0.68044 0.0
H787 H 0.43553 0.14025 0.75831 0.0
H788 H 0.78815 0.00275 0.85241 0.0
H789 H 0.77485 0.02136 0.74578 0.0
H790 H 0.70197 0.04932 0.66356 0.0
H791 H 0.60364 0.0882 0.63855 0.0
Mn792 Mn 0.39304 0.36252 -0.00169 0.0
Mn793 Mn 0.35264 0.30934 0.87652 0.0
C794 C 0.37489 0.43128 0.92497 0.0
C795 C 0.47281 0.39598 0.05721 0.0
C796 C 0.2629 0.31238 0.96926 0.0
O797 O 0.43908 0.28041 -0.00157 0.0
O798 O 0.41671 0.25031 0.90887 0.0
C799 C 0.45905 0.31391 0.81252 0.0
N800 N 0.40142 0.32619 0.81659 0.0
C801 C 0.3901 0.34992 0.71671 0.0
C802 C 0.44924 0.33785 0.71222 0.0
C803 C 0.48456 0.31988 0.75895 0.0
C804 C 0.36821 0.34576 0.77183 0.0
H805 H 0.48503 0.30088 0.84973 0.0
C806 C 0.45057 0.24661 0.95485 0.0
O807 O 0.42253 0.3843 0.08061 0.0
O808 O 0.4757 0.39003 0.00165 0.0
N809 N 0.29751 0.36186 0.84022 0.0
C810 C 0.25045 0.393 0.86036 0.0
C811 C 0.21236 0.41973 0.8201 0.0
C812 C 0.22416 0.41528 0.75991 0.0
C813 C 0.27696 0.39013 0.74159 0.0
C814 C 0.31294 0.36493 0.78413 0.0
H815 H 0.24217 0.39865 0.90629 0.0
O816 O 0.36548 0.44328 -0.02065 0.0
O817 O 0.38968 0.37673 0.91556 0.0
O818 O 0.29735 0.34249 0.00291 0.0
O819 O 0.28709 0.28698 0.92721 0.0
C820 C 0.29614 0.38928 0.68325 0.0
C821 C 0.35275 0.3682 0.67062 0.0
H822 H 0.47068 0.34917 0.67513 0.0
H823 H 0.53119 0.31275 0.75409 0.0
H824 H 0.17344 0.44222 0.83527 0.0
H825 H 0.19288 0.43163 0.72841 0.0
H826 H 0.26857 0.40559 0.64826 0.0
H827 H 0.36558 0.36574 0.62553 0.0
Mn828 Mn 0.88864 0.08305 0.96979 0.0
Mn829 Mn 0.85232 0.12409 0.09915 0.0
C830 C 0.87179 0.01129 0.03663 0.0
C831 C 0.9645 0.06012 0.90602 0.0
C832 C 0.75695 0.115 0.008 0.0
O833 O 0.93947 0.16234 0.974 0.0
O834 O 0.9158 0.18774 0.06459 0.0
C835 C 0.93759 0.16013 0.17207 0.0
N836 N 0.90154 0.11393 0.16447 0.0
C837 C 0.84264 0.14923 0.24475 0.0
C838 C 0.86322 0.20511 0.23129 0.0
C839 C 0.91195 0.21094 0.19411 0.0
C840 C 0.85939 0.1039 0.20656 0.0
H841 H 0.97793 0.16296 0.14728 0.0
C842 C 0.95278 0.19188 0.01992 0.0
O843 O 0.91303 0.07088 0.88551 0.0
O844 O 0.97033 0.05839 0.96172 0.0
N845 N 0.80492 0.06352 0.13428 0.0
C846 C 0.76099 0.02942 0.11223 0.0
C847 C 0.71883 0.00623 0.15035 0.0
C848 C 0.72032 0.02184 0.20964 0.0
C849 C 0.76693 0.05583 0.23025 0.0
C850 C 0.81368 0.06748 0.19175 0.0
H851 H 0.75684 0.02112 0.06603 0.0
O852 O 0.86039 0.0027 -0.01799 0.0
O853 O 0.8884 0.06388 0.05085 0.0
O854 O 0.79284 0.09413 0.96942 0.0
O855 O 0.7788 0.14051 0.05241 0.0
C856 C 0.76176 0.09004 0.28082 0.0
C857 C 0.79644 0.14048 0.28475 0.0
H858 H 0.84158 0.24326 0.2493 0.0
H859 H 0.93088 0.25321 0.18479 0.0
H860 H 0.6828 -0.0193 0.13331 0.0
H861 H 0.68344 0.01138 0.23763 0.0
H862 H 0.72472 0.08483 0.31008 0.0
H863 H 0.78338 0.17488 0.31402 0.0
loop_
_geom_bond_atom_site_label_1
_geom_bond_atom_site_label_2
_geom_bond_distance
_geom_bond_site_symmetry_2
_ccdc_geom_bond_type
Mn0 O5 2.095 . S
Mn0 O15 2.162 . S
Mn0 O16 2.297 1_545 S
Mn0 O24 2.385 1_655 S
Mn0 O25 2.209 1_655 S
Mn0 O26 2.094 . S
Mn1 O6 2.121 . S
Mn1 N8 2.257 . S
Mn1 N17 2.282 . S
Mn1 O25 2.215 . S
Mn1 O27 2.117 . S
C2 O24 1.234 . S
C2 O25 1.283 . S
C3 O15 1.281 1_565 S
C3 O16 1.236 . S
C4 O26 1.240 . S
C4 O27 1.264 1_655 S
O5 Mn0 2.095 . S
O5 C14 1.250 1_655 S
O6 Mn1 2.121 . S
O6 C14 1.258 . S
C7 N8 1.326 . S
C7 C11 1.460 . S
C7 H13 0.929 . S
N8 Mn1 2.257 . S
N8 C7 1.326 . S
N8 C12 1.362 . S
C9 C10 1.258 . S
C9 C12 1.431 . S
C9 C29 1.449 . S
C10 C9 1.258 . S
C10 C11 1.477 . S
C10 H30 0.931 . S
C11 C7 1.460 . S
C11 C10 1.477 . S
C11 H31 0.930 1_545 S
C12 N8 1.362 . S
C12 C9 1.431 . S
C12 C22 1.476 . S
H13 C7 0.929 . S
C14 O5 1.250 1_455 S
C14 O6 1.258 . S
O15 Mn0 2.162 . S
O15 C3 1.281 1_545 S
O16 Mn0 2.297 1_565 S
O16 C3 1.236 . S
N17 Mn1 2.282 . S
N17 C18 1.328 . S
N17 C22 1.318 . S
C18 N17 1.328 . S
C18 C19 1.457 . S
C18 H23 0.929 . S
C19 C18 1.457 . S
C19 C20 1.291 . S
C19 H32 0.931 . S
C20 C19 1.291 . S
C20 C21 1.373 . S
C20 H33 0.929 . S
C21 C20 1.373 . S
C21 C22 1.396 . S
C21 C28 1.403 . S
C22 C12 1.476 . S
C22 N17 1.318 . S
C22 C21 1.396 . S
H23 C18 0.929 . S
O24 Mn0 2.385 1_455 S
O24 C2 1.234 . S
O25 Mn0 2.209 1_455 S
O25 Mn1 2.215 . S
O25 C2 1.283 . S
O26 Mn0 2.094 . S
O26 C4 1.240 . S
O27 Mn1 2.117 . S
O27 C4 1.264 1_455 S
C28 C21 1.403 . S
C28 C29 1.399 . S
C28 H34 0.929 . S
C29 C9 1.449 . S
C29 C28 1.399 . S
C29 H35 0.930 . S
H30 C10 0.931 . S
H31 C11 0.930 1_565 S
H32 C19 0.931 . S
H33 C20 0.929 . S
H34 C28 0.929 . S
H35 C29 0.930 . S
Mn36 O41 2.095 . S
Mn36 O51 2.162 . S
Mn36 O52 2.297 . S
Mn36 O60 2.385 1_455 S
Mn36 O61 2.209 1_455 S
Mn36 O62 2.094 . S
Mn37 O42 2.121 . S
Mn37 N44 2.257 . S
Mn37 N53 2.282 . S
Mn37 O61 2.215 . S
Mn37 O63 2.117 . S
C38 O60 1.234 . S
C38 O61 1.283 . S
C39 O51 1.281 . S
C39 O52 1.236 . S
C40 O62 1.240 . S
C40 O63 1.264 1_455 S
O41 Mn36 2.095 . S
O41 C50 1.250 1_455 S
O42 Mn37 2.121 . S
O42 C50 1.258 . S
C43 N44 1.326 . S
C43 C47 1.460 . S
C43 H49 0.929 . S
N44 Mn37 2.257 . S
N44 C43 1.326 . S
N44 C48 1.362 . S
C45 C46 1.258 . S
C45 C48 1.431 . S
C45 C65 1.449 . S
C46 C45 1.258 . S
C46 C47 1.477 . S
C46 H66 0.931 . S
C47 C43 1.460 . S
C47 C46 1.477 . S
C47 H67 0.930 . S
C48 N44 1.362 . S
C48 C45 1.431 . S
C48 C58 1.476 . S
H49 C43 0.929 . S
C50 O41 1.250 1_655 S
C50 O42 1.258 . S
O51 Mn36 2.162 . S
O51 C39 1.281 . S
O52 Mn36 2.297 . S
O52 C39 1.236 . S
N53 Mn37 2.282 . S
N53 C54 1.328 . S
N53 C58 1.318 . S
C54 N53 1.328 . S
C54 C55 1.457 . S
C54 H59 0.929 . S
C55 C54 1.457 . S
C55 C56 1.291 . S
C55 H68 0.931 . S
C56 C55 1.291 . S
C56 C57 1.373 . S
C56 H69 0.929 . S
C57 C56 1.373 . S
C57 C58 1.396 . S
C57 C64 1.403 . S
C58 C48 1.476 . S
C58 N53 1.318 . S
C58 C57 1.396 . S
H59 C54 0.929 . S
O60 Mn36 2.385 1_655 S
O60 C38 1.234 . S
O61 Mn36 2.209 1_655 S
O61 Mn37 2.215 . S
O61 C38 1.283 . S
O62 Mn36 2.094 . S
O62 C40 1.240 . S
O63 Mn37 2.117 . S
O63 C40 1.264 1_655 S
C64 C57 1.403 . S
C64 C65 1.399 . S
C64 H70 0.929 . S
C65 C45 1.449 . S
C65 C64 1.399 . S
C65 H71 0.930 . S
H66 C46 0.931 . S
H67 C47 0.930 . S
H68 C55 0.931 . S
H69 C56 0.929 . S
H70 C64 0.929 . S
H71 C65 0.930 . S
Mn72 O77 2.095 . S
Mn72 O87 2.162 . S
Mn72 O88 2.297 1_565 S
Mn72 O96 2.385 1_655 S
Mn72 O97 2.209 1_655 S
Mn72 O98 2.094 . S
Mn73 O78 2.121 . S
Mn73 N80 2.257 . S
Mn73 N89 2.282 . S
Mn73 O97 2.215 . S
Mn73 O99 2.117 . S
C74 O96 1.234 . S
C74 O97 1.283 . S
C75 O87 1.281 1_545 S
C75 O88 1.236 . S
C76 O98 1.240 . S
C76 O99 1.264 1_655 S
O77 Mn72 2.095 . S
O77 C86 1.250 1_655 S
O78 Mn73 2.121 . S
O78 C86 1.258 . S
C79 N80 1.326 . S
C79 C83 1.460 . S
C79 H85 0.929 . S
N80 Mn73 2.257 . S
N80 C79 1.326 . S
N80 C84 1.362 . S
C81 C82 1.258 . S
C81 C84 1.431 . S
C81 C101 1.449 . S
C82 C81 1.258 . S
C82 C83 1.477 . S
C82 H102 0.931 . S
C83 C79 1.460 . S
C83 C82 1.477 . S
C83 H103 0.930 1_565 S
C84 N80 1.362 . S
C84 C81 1.431 . S
C84 C94 1.476 . S
H85 C79 0.929 . S
C86 O77 1.250 1_455 S
C86 O78 1.258 . S
O87 Mn72 2.162 . S
O87 C75 1.281 1_565 S
O88 Mn72 2.297 1_545 S
O88 C75 1.236 . S
N89 Mn73 2.282 . S
N89 C90 1.328 . S
N89 C94 1.318 . S
C90 N89 1.328 . S
C90 C91 1.457 . S
C90 H95 0.929 . S
C91 C90 1.457 . S
C91 C92 1.291 . S
C91 H104 0.931 . S
C92 C91 1.291 . S
C92 C93 1.373 . S
C92 H105 0.929 . S
C93 C92 1.373 . S
C93 C94 1.396 . S
C93 C100 1.403 . S
C94 C84 1.476 . S
C94 N89 1.318 . S
C94 C93 1.396 . S
H95 C90 0.929 . S
O96 Mn72 2.385 1_455 S
O96 C74 1.234 . S
O97 Mn72 2.209 1_455 S
O97 Mn73 2.215 . S
O97 C74 1.283 . S
O98 Mn72 2.094 . S
O98 C76 1.240 . S
O99 Mn73 2.117 . S
O99 C76 1.264 1_455 S
C100 C93 1.403 . S
C100 C101 1.399 . S
C100 H106 0.929 . S
C101 C81 1.449 . S
C101 C100 1.399 . S
C101 H107 0.930 . S
H102 C82 0.931 . S
H103 C83 0.930 1_545 S
H104 C91 0.931 . S
H105 C92 0.929 . S
H106 C100 0.929 . S
H107 C101 0.930 . S
Mn108 O113 2.095 . S
Mn108 O123 2.162 . S
Mn108 O124 2.297 . S
Mn108 O132 2.385 1_455 S
Mn108 O133 2.209 1_455 S
Mn108 O134 2.094 . S
Mn109 O114 2.121 . S
Mn109 N116 2.257 . S
Mn109 N125 2.282 . S
Mn109 O133 2.215 . S
Mn109 O135 2.117 . S
C110 O132 1.234 . S
C110 O133 1.283 . S
C111 O123 1.281 . S
C111 O124 1.236 . S
C112 O134 1.240 . S
C112 O135 1.264 1_455 S
O113 Mn108 2.095 . S
O113 C122 1.250 1_455 S
O114 Mn109 2.121 . S
O114 C122 1.258 . S
C115 N116 1.326 . S
C115 C119 1.460 . S
C115 H121 0.929 . S
N116 Mn109 2.257 . S
N116 C115 1.326 . S
N116 C120 1.362 . S
C117 C118 1.258 . S
C117 C120 1.431 . S
C117 C137 1.449 . S
C118 C117 1.258 . S
C118 C119 1.477 . S
C118 H138 0.931 . S
C119 C115 1.460 . S
C119 C118 1.477 . S
C119 H139 0.930 . S
C120 N116 1.362 . S
C120 C117 1.431 . S
C120 C130 1.476 . S
H121 C115 0.929 . S
C122 O113 1.250 1_655 S
C122 O114 1.258 . S
O123 Mn108 2.162 . S
O123 C111 1.281 . S
O124 Mn108 2.297 . S
O124 C111 1.236 . S
N125 Mn109 2.282 . S
N125 C126 1.328 . S
N125 C130 1.318 . S
C126 N125 1.328 . S
C126 C127 1.457 . S
C126 H131 0.929 . S
C127 C126 1.457 . S
C127 C128 1.291 . S
C127 H140 0.931 . S
C128 C127 1.291 . S
C128 C129 1.373 . S
C128 H141 0.929 . S
C129 C128 1.373 . S
C129 C130 1.396 . S
C129 C136 1.403 . S
C130 C120 1.476 . S
C130 N125 1.318 . S
C130 C129 1.396 . S
H131 C126 0.929 . S
O132 Mn108 2.385 1_655 S
O132 C110 1.234 . S
O133 Mn108 2.209 1_655 S
O133 Mn109 2.215 . S
O133 C110 1.283 . S
O134 Mn108 2.094 . S
O134 C112 1.240 . S
O135 Mn109 2.117 . S
O135 C112 1.264 1_655 S
C136 C129 1.403 . S
C136 C137 1.399 . S
C136 H142 0.929 . S
C137 C117 1.449 . S
C137 C136 1.399 . S
C137 H143 0.930 . S
H138 C118 0.931 . S
H139 C119 0.930 . S
H140 C127 0.931 . S
H141 C128 0.929 . S
H142 C136 0.929 . S
H143 C137 0.930 . S
Mn144 O149 2.095 . S
Mn144 O159 2.162 . S
Mn144 O160 2.297 1_554 S
Mn144 O168 2.385 1_565 S
Mn144 O169 2.209 1_565 S
Mn144 O170 2.094 . S
Mn145 O150 2.121 . S
Mn145 N152 2.257 . S
Mn145 N161 2.282 . S
Mn145 O169 2.215 . S
Mn145 O171 2.117 . S
C146 O168 1.234 . S
C146 O169 1.283 . S
C147 O159 1.281 1_556 S
C147 O160 1.236 . S
C148 O170 1.240 . S
C148 O171 1.264 1_565 S
O149 Mn144 2.095 . S
O149 C158 1.250 1_565 S
O150 Mn145 2.121 . S
O150 C158 1.258 . S
C151 N152 1.326 . S
C151 C155 1.460 . S
C151 H157 0.929 . S
N152 Mn145 2.257 . S
N152 C151 1.326 . S
N152 C156 1.362 . S
C153 C154 1.258 . S
C153 C156 1.431 . S
C153 C173 1.449 . S
C154 C153 1.258 . S
C154 C155 1.477 . S
C154 H174 0.931 . S
C155 C151 1.460 . S
C155 C154 1.477 . S
C155 H175 0.930 1_554 S
C156 N152 1.362 . S
C156 C153 1.431 . S
C156 C166 1.476 . S
H157 C151 0.929 . S
C158 O149 1.250 1_545 S
C158 O150 1.258 . S
O159 Mn144 2.162 . S
O159 C147 1.281 1_554 S
O160 Mn144 2.297 1_556 S
O160 C147 1.236 . S
N161 Mn145 2.282 . S
N161 C162 1.328 . S
N161 C166 1.318 . S
C162 N161 1.328 . S
C162 C163 1.457 . S
C162 H167 0.929 . S
C163 C162 1.457 . S
C163 C164 1.291 . S
C163 H176 0.931 . S
C164 C163 1.291 . S
C164 C165 1.373 . S
C164 H177 0.929 . S
C165 C164 1.373 . S
C165 C166 1.396 . S
C165 C172 1.403 . S
C166 C156 1.476 . S
C166 N161 1.318 . S
C166 C165 1.396 . S
H167 C162 0.929 . S
O168 Mn144 2.385 1_545 S
O168 C146 1.234 . S
O169 Mn144 2.209 1_545 S
O169 Mn145 2.215 . S
O169 C146 1.283 . S
O170 Mn144 2.094 . S
O170 C148 1.240 . S
O171 Mn145 2.117 . S
O171 C148 1.264 1_545 S
C172 C165 1.403 . S
C172 C173 1.399 . S
C172 H178 0.929 . S
C173 C153 1.449 . S
C173 C172 1.399 . S
C173 H179 0.930 . S
H174 C154 0.931 . S
H175 C155 0.930 1_556 S
H176 C163 0.931 . S
H177 C164 0.929 . S
H178 C172 0.929 . S
H179 C173 0.930 . S
Mn180 O185 2.095 . S
Mn180 O195 2.162 . S
Mn180 O196 2.297 1_554 S
Mn180 O204 2.385 . S
Mn180 O205 2.209 . S
Mn180 O206 2.094 . S
Mn181 O186 2.121 . S
Mn181 N188 2.257 . S
Mn181 N197 2.282 . S
Mn181 O205 2.215 . S
Mn181 O207 2.117 . S
C182 O204 1.234 . S
C182 O205 1.283 . S
C183 O195 1.281 1_556 S
C183 O196 1.236 . S
C184 O206 1.240 . S
C184 O207 1.264 . S
O185 Mn180 2.095 . S
O185 C194 1.250 . S
O186 Mn181 2.121 . S
O186 C194 1.258 . S
C187 N188 1.326 . S
C187 C191 1.460 1_554 S
C187 H193 0.929 . S
N188 Mn181 2.257 . S
N188 C187 1.326 . S
N188 C192 1.362 . S
C189 C190 1.258 . S
C189 C192 1.431 . S
C189 C209 1.449 . S
C190 C189 1.258 . S
C190 C191 1.477 1_554 S
C190 H210 0.931 . S
C191 C187 1.460 1_556 S
C191 C190 1.477 1_556 S
C191 H211 0.930 . S
C192 N188 1.362 . S
C192 C189 1.431 . S
C192 C202 1.476 . S
H193 C187 0.929 . S
C194 O185 1.250 . S
C194 O186 1.258 . S
O195 Mn180 2.162 . S
O195 C183 1.281 1_554 S
O196 Mn180 2.297 1_556 S
O196 C183 1.236 . S
N197 Mn181 2.282 . S
N197 C198 1.328 . S
N197 C202 1.318 . S
C198 N197 1.328 . S
C198 C199 1.457 . S
C198 H203 0.929 . S
C199 C198 1.457 . S
C199 C200 1.291 . S
C199 H212 0.931 . S
C200 C199 1.291 . S
C200 C201 1.373 . S
C200 H213 0.929 . S
C201 C200 1.373 . S
C201 C202 1.396 . S
C201 C208 1.403 . S
C202 C192 1.476 . S
C202 N197 1.318 . S
C202 C201 1.396 . S
H203 C198 0.929 . S
O204 Mn180 2.385 . S
O204 C182 1.234 . S
O205 Mn180 2.209 . S
O205 Mn181 2.215 . S
O205 C182 1.283 . S
O206 Mn180 2.094 . S
O206 C184 1.240 . S
O207 Mn181 2.117 . S
O207 C184 1.264 . S
C208 C201 1.403 . S
C208 C209 1.399 . S
C208 H214 0.929 . S
C209 C189 1.449 . S
C209 C208 1.399 . S
C209 H215 0.930 . S
H210 C190 0.931 . S
H211 C191 0.930 . S
H212 C199 0.931 . S
H213 C200 0.929 . S
H214 C208 0.929 . S
H215 C209 0.930 . S
Mn216 O221 2.095 . S
Mn216 O231 2.162 . S
Mn216 O232 2.297 . S
Mn216 O240 2.385 1_545 S
Mn216 O241 2.209 1_545 S
Mn216 O242 2.094 . S
Mn217 O222 2.121 . S
Mn217 N224 2.257 . S
Mn217 N233 2.282 . S
Mn217 O241 2.215 . S
Mn217 O243 2.117 . S
C218 O240 1.234 . S
C218 O241 1.283 . S
C219 O231 1.281 . S
C219 O232 1.236 . S
C220 O242 1.240 . S
C220 O243 1.264 1_545 S
O221 Mn216 2.095 . S
O221 C230 1.250 1_545 S
O222 Mn217 2.121 . S
O222 C230 1.258 . S
C223 N224 1.326 . S
C223 C227 1.460 . S
C223 H229 0.929 . S
N224 Mn217 2.257 . S
N224 C223 1.326 . S
N224 C228 1.362 . S
C225 C226 1.258 . S
C225 C228 1.431 . S
C225 C245 1.449 . S
C226 C225 1.258 . S
C226 C227 1.477 . S
C226 H246 0.931 . S
C227 C223 1.460 . S
C227 C226 1.477 . S
C227 H247 0.930 . S
C228 N224 1.362 . S
C228 C225 1.431 . S
C228 C238 1.476 . S
H229 C223 0.929 . S
C230 O221 1.250 1_565 S
C230 O222 1.258 . S
O231 Mn216 2.162 . S
O231 C219 1.281 . S
O232 Mn216 2.297 . S
O232 C219 1.236 . S
N233 Mn217 2.282 . S
N233 C234 1.328 . S
N233 C238 1.318 . S
C234 N233 1.328 . S
C234 C235 1.457 . S
C234 H239 0.929 . S
C235 C234 1.457 . S
C235 C236 1.291 . S
C235 H248 0.931 . S
C236 C235 1.291 . S
C236 C237 1.373 . S
C236 H249 0.929 . S
C237 C236 1.373 . S
C237 C238 1.396 . S
C237 C244 1.403 . S
C238 C228 1.476 . S
C238 N233 1.318 . S
C238 C237 1.396 . S
H239 C234 0.929 . S
O240 Mn216 2.385 1_565 S
O240 C218 1.234 . S
O241 Mn216 2.209 1_565 S
O241 Mn217 2.215 . S
O241 C218 1.283 . S
O242 Mn216 2.094 . S
O242 C220 1.240 . S
O243 Mn217 2.117 . S
O243 C220 1.264 1_565 S
C244 C237 1.403 . S
C244 C245 1.399 . S
C244 H250 0.929 . S
C245 C225 1.449 . S
C245 C244 1.399 . S
C245 H251 0.930 . S
H246 C226 0.931 . S
H247 C227 0.930 . S
H248 C235 0.931 . S
H249 C236 0.929 . S
H250 C244 0.929 . S
H251 C245 0.930 . S
Mn252 O257 2.095 . S
Mn252 O267 2.162 . S
Mn252 O268 2.297 . S
Mn252 O276 2.385 . S
Mn252 O277 2.209 . S
Mn252 O278 2.094 . S
Mn253 O258 2.121 . S
Mn253 N260 2.257 . S
Mn253 N269 2.282 . S
Mn253 O277 2.215 . S
Mn253 O279 2.117 . S
C254 O276 1.234 . S
C254 O277 1.283 . S
C255 O267 1.281 . S
C255 O268 1.236 . S
C256 O278 1.240 . S
C256 O279 1.264 . S
O257 Mn252 2.095 . S
O257 C266 1.250 . S
O258 Mn253 2.121 . S
O258 C266 1.258 . S
C259 N260 1.326 . S
C259 C263 1.460 . S
C259 H265 0.929 . S
N260 Mn253 2.257 . S
N260 C259 1.326 . S
N260 C264 1.362 . S
C261 C262 1.258 . S
C261 C264 1.431 . S
C261 C281 1.449 . S
C262 C261 1.258 . S
C262 C263 1.477 . S
C262 H282 0.931 . S
C263 C259 1.460 . S
C263 C262 1.477 . S
C263 H283 0.930 . S
C264 N260 1.362 . S
C264 C261 1.431 . S
C264 C274 1.476 . S
H265 C259 0.929 . S
C266 O257 1.250 . S
C266 O258 1.258 . S
O267 Mn252 2.162 . S
O267 C255 1.281 . S
O268 Mn252 2.297 . S
O268 C255 1.236 . S
N269 Mn253 2.282 . S
N269 C270 1.328 . S
N269 C274 1.318 . S
C270 N269 1.328 . S
C270 C271 1.457 . S
C270 H275 0.929 . S
C271 C270 1.457 . S
C271 C272 1.291 . S
C271 H284 0.931 . S
C272 C271 1.291 . S
C272 C273 1.373 . S
C272 H285 0.929 . S
C273 C272 1.373 . S
C273 C274 1.396 . S
C273 C280 1.403 . S
C274 C264 1.476 . S
C274 N269 1.318 . S
C274 C273 1.396 . S
H275 C270 0.929 . S
O276 Mn252 2.385 . S
O276 C254 1.234 . S
O277 Mn252 2.209 . S
O277 Mn253 2.215 . S
O277 C254 1.283 . S
O278 Mn252 2.094 . S
O278 C256 1.240 . S
O279 Mn253 2.117 . S
O279 C256 1.264 . S
C280 C273 1.403 . S
C280 C281 1.399 . S
C280 H286 0.929 . S
C281 C261 1.449 . S
C281 C280 1.399 . S
C281 H287 0.930 . S
H282 C262 0.931 . S
H283 C263 0.930 . S
H284 C271 0.931 . S
H285 C272 0.929 . S
H286 C280 0.929 . S
H287 C281 0.930 . S
Mn288 O293 2.095 . S
Mn288 O303 2.162 . S
Mn288 O304 2.297 1_455 S
Mn288 O312 2.385 1_556 S
Mn288 O313 2.209 1_556 S
Mn288 O314 2.094 . S
Mn289 O294 2.121 . S
Mn289 N296 2.257 . S
Mn289 N305 2.282 . S
Mn289 O313 2.215 . S
Mn289 O315 2.117 . S
C290 O312 1.234 . S
C290 O313 1.283 . S
C291 O303 1.281 1_655 S
C291 O304 1.236 . S
C292 O314 1.240 . S
C292 O315 1.264 1_556 S
O293 Mn288 2.095 . S
O293 C302 1.250 1_556 S
O294 Mn289 2.121 . S
O294 C302 1.258 . S
C295 N296 1.326 . S
C295 C299 1.460 . S
C295 H301 0.929 . S
N296 Mn289 2.257 . S
N296 C295 1.326 . S
N296 C300 1.362 . S
C297 C298 1.258 . S
C297 C300 1.431 . S
C297 C317 1.449 . S
C298 C297 1.258 . S
C298 C299 1.477 . S
C298 H318 0.931 . S
C299 C295 1.460 . S
C299 C298 1.477 . S
C299 H319 0.930 1_455 S
C300 N296 1.362 . S
C300 C297 1.431 . S
C300 C310 1.476 . S
H301 C295 0.929 . S
C302 O293 1.250 1_554 S
C302 O294 1.258 . S
O303 Mn288 2.162 . S
O303 C291 1.281 1_455 S
O304 Mn288 2.297 1_655 S
O304 C291 1.236 . S
N305 Mn289 2.282 . S
N305 C306 1.328 . S
N305 C310 1.318 . S
C306 N305 1.328 . S
C306 C307 1.457 . S
C306 H311 0.929 . S
C307 C306 1.457 . S
C307 C308 1.291 . S
C307 H320 0.931 . S
C308 C307 1.291 . S
C308 C309 1.373 . S
C308 H321 0.929 . S
C309 C308 1.373 . S
C309 C310 1.396 . S
C309 C316 1.403 . S
C310 C300 1.476 . S
C310 N305 1.318 . S
C310 C309 1.396 . S
H311 C306 0.929 . S
O312 Mn288 2.385 1_554 S
O312 C290 1.234 . S
O313 Mn288 2.209 1_554 S
O313 Mn289 2.215 . S
O313 C290 1.283 . S
O314 Mn288 2.094 . S
O314 C292 1.240 . S
O315 Mn289 2.117 . S
O315 C292 1.264 1_554 S
C316 C309 1.403 . S
C316 C317 1.399 . S
C316 H322 0.929 . S
C317 C297 1.449 . S
C317 C316 1.399 . S
C317 H323 0.930 . S
H318 C298 0.931 . S
H319 C299 0.930 1_655 S
H320 C307 0.931 . S
H321 C308 0.929 . S
H322 C316 0.929 . S
H323 C317 0.930 . S
Mn324 O329 2.095 . S
Mn324 O339 2.162 . S
Mn324 O340 2.297 1_455 S
Mn324 O348 2.385 . S
Mn324 O349 2.209 . S
Mn324 O350 2.094 . S
Mn325 O330 2.121 . S
Mn325 N332 2.257 . S
Mn325 N341 2.282 . S
Mn325 O349 2.215 . S
Mn325 O351 2.117 . S
C326 O348 1.234 . S
C326 O349 1.283 . S
C327 O339 1.281 1_655 S
C327 O340 1.236 . S
C328 O350 1.240 . S
C328 O351 1.264 . S
O329 Mn324 2.095 . S
O329 C338 1.250 . S
O330 Mn325 2.121 . S
O330 C338 1.258 . S
C331 N332 1.326 . S
C331 C335 1.460 1_455 S
C331 H337 0.929 . S
N332 Mn325 2.257 . S
N332 C331 1.326 . S
N332 C336 1.362 . S
C333 C334 1.258 . S
C333 C336 1.431 . S
C333 C353 1.449 . S
C334 C333 1.258 . S
C334 C335 1.477 1_455 S
C334 H354 0.931 . S
C335 C331 1.460 1_655 S
C335 C334 1.477 1_655 S
C335 H355 0.930 . S
C336 N332 1.362 . S
C336 C333 1.431 . S
C336 C346 1.476 . S
H337 C331 0.929 . S
C338 O329 1.250 . S
C338 O330 1.258 . S
O339 Mn324 2.162 . S
O339 C327 1.281 1_455 S
O340 Mn324 2.297 1_655 S
O340 C327 1.236 . S
N341 Mn325 2.282 . S
N341 C342 1.328 . S
N341 C346 1.318 . S
C342 N341 1.328 . S
C342 C343 1.457 . S
C342 H347 0.929 . S
C343 C342 1.457 . S
C343 C344 1.291 . S
C343 H356 0.931 . S
C344 C343 1.291 . S
C344 C345 1.373 . S
C344 H357 0.929 . S
C345 C344 1.373 . S
C345 C346 1.396 . S
C345 C352 1.403 . S
C346 C336 1.476 . S
C346 N341 1.318 . S
C346 C345 1.396 . S
H347 C342 0.929 . S
O348 Mn324 2.385 . S
O348 C326 1.234 . S
O349 Mn324 2.209 . S
O349 Mn325 2.215 . S
O349 C326 1.283 . S
O350 Mn324 2.094 . S
O350 C328 1.240 . S
O351 Mn325 2.117 . S
O351 C328 1.264 . S
C352 C345 1.403 . S
C352 C353 1.399 . S
C352 H358 0.929 . S
C353 C333 1.449 . S
C353 C352 1.399 . S
C353 H359 0.930 . S
H354 C334 0.931 . S
H355 C335 0.930 . S
H356 C343 0.931 . S
H357 C344 0.929 . S
H358 C352 0.929 . S
H359 C353 0.930 . S
Mn360 O365 2.095 . S
Mn360 O375 2.162 . S
Mn360 O376 2.297 1_655 S
Mn360 O384 2.385 . S
Mn360 O385 2.209 . S
Mn360 O386 2.094 . S
Mn361 O366 2.121 . S
Mn361 N368 2.257 . S
Mn361 N377 2.282 . S
Mn361 O385 2.215 . S
Mn361 O387 2.117 . S
C362 O384 1.234 . S
C362 O385 1.283 . S
C363 O375 1.276 1_455 S
C363 O376 1.237 . S
C364 O386 1.240 . S
C364 O387 1.264 . S
O365 Mn360 2.095 . S
O365 C374 1.250 . S
O366 Mn361 2.121 . S
O366 C374 1.258 . S
C367 N368 1.326 . S
C367 C371 1.460 1_655 S
C367 H373 0.929 . S
N368 Mn361 2.257 . S
N368 C367 1.326 . S
N368 C372 1.362 . S
C369 C370 1.258 . S
C369 C372 1.431 . S
C369 C389 1.449 . S
C370 C369 1.258 . S
C370 C371 1.477 1_655 S
C370 H390 0.931 . S
C371 C367 1.460 1_455 S
C371 C370 1.477 1_455 S
C371 H391 0.930 . S
C372 N368 1.362 . S
C372 C369 1.431 . S
C372 C382 1.476 . S
H373 C367 0.929 . S
C374 O365 1.250 . S
C374 O366 1.258 . S
O375 Mn360 2.162 . S
O375 C363 1.276 1_655 S
O376 Mn360 2.297 1_455 S
O376 C363 1.237 . S
N377 Mn361 2.282 . S
N377 C378 1.328 . S
N377 C382 1.318 . S
C378 N377 1.328 . S
C378 C379 1.457 . S
C378 H383 0.929 . S
C379 C378 1.457 . S
C379 C380 1.291 . S
C379 H392 0.931 . S
C380 C379 1.291 . S
C380 C381 1.373 . S
C380 H393 0.929 . S
C381 C380 1.373 . S
C381 C382 1.396 . S
C381 C388 1.403 . S
C382 C372 1.476 . S
C382 N377 1.318 . S
C382 C381 1.396 . S
H383 C378 0.929 . S
O384 Mn360 2.385 . S
O384 C362 1.234 . S
O385 Mn360 2.209 . S
O385 Mn361 2.215 . S
O385 C362 1.283 . S
O386 Mn360 2.094 . S
O386 C364 1.240 . S
O387 Mn361 2.117 . S
O387 C364 1.264 . S
C388 C381 1.403 . S
C388 C389 1.399 . S
C388 H394 0.929 . S
C389 C369 1.449 . S
C389 C388 1.399 . S
C389 H395 0.930 . S
H390 C370 0.931 . S
H391 C371 0.930 . S
H392 C379 0.931 . S
H393 C380 0.929 . S
H394 C388 0.929 . S
H395 C389 0.930 . S
Mn396 O401 2.095 . S
Mn396 O411 2.162 . S
Mn396 O412 2.297 . S
Mn396 O420 2.385 . S
Mn396 O421 2.209 . S
Mn396 O422 2.094 . S
Mn397 O402 2.121 . S
Mn397 N404 2.257 . S
Mn397 N413 2.282 . S
Mn397 O421 2.215 . S
Mn397 O423 2.117 . S
C398 O420 1.234 . S
C398 O421 1.283 . S
C399 O411 1.281 . S
C399 O412 1.236 . S
C400 O422 1.240 . S
C400 O423 1.264 . S
O401 Mn396 2.095 . S
O401 C410 1.250 . S
O402 Mn397 2.121 . S
O402 C410 1.258 . S
C403 N404 1.326 . S
C403 C407 1.460 . S
C403 H409 0.929 . S
N404 Mn397 2.257 . S
N404 C403 1.326 . S
N404 C408 1.362 . S
C405 C406 1.258 . S
C405 C408 1.431 . S
C405 C425 1.449 . S
C406 C405 1.258 . S
C406 C407 1.477 . S
C406 H426 0.931 . S
C407 C403 1.460 . S
C407 C406 1.477 . S
C407 H427 0.930 . S
C408 N404 1.362 . S
C408 C405 1.431 . S
C408 C418 1.476 . S
H409 C403 0.929 . S
C410 O401 1.250 . S
C410 O402 1.258 . S
O411 Mn396 2.162 . S
O411 C399 1.281 . S
O412 Mn396 2.297 . S
O412 C399 1.236 . S
N413 Mn397 2.282 . S
N413 C414 1.328 . S
N413 C418 1.318 . S
C414 N413 1.328 . S
C414 C415 1.457 . S
C414 H419 0.929 . S
C415 C414 1.457 . S
C415 C416 1.291 . S
C415 H428 0.931 . S
C416 C415 1.291 . S
C416 C417 1.373 . S
C416 H429 0.929 . S
C417 C416 1.373 . S
C417 C418 1.396 . S
C417 C424 1.403 . S
C418 C408 1.476 . S
C418 N413 1.318 . S
C418 C417 1.396 . S
H419 C414 0.929 . S
O420 Mn396 2.385 . S
O420 C398 1.234 . S
O421 Mn396 2.209 . S
O421 Mn397 2.215 . S
O421 C398 1.283 . S
O422 Mn396 2.094 . S
O422 C400 1.240 . S
O423 Mn397 2.117 . S
O423 C400 1.264 . S
C424 C417 1.403 . S
C424 C425 1.399 . S
C424 H430 0.929 . S
C425 C405 1.449 . S
C425 C424 1.399 . S
C425 H431 0.930 . S
H426 C406 0.931 . S
H427 C407 0.930 . S
H428 C415 0.931 . S
H429 C416 0.929 . S
H430 C424 0.929 . S
H431 C425 0.930 . S
Mn432 O437 2.095 . S
Mn432 O447 2.162 . S
Mn432 O448 2.297 . S
Mn432 O456 2.385 . S
Mn432 O457 2.209 . S
Mn432 O458 2.094 . S
Mn433 O438 2.121 . S
Mn433 N440 2.257 . S
Mn433 N449 2.282 . S
Mn433 O457 2.215 . S
Mn433 O459 2.117 . S
C434 O456 1.234 . S
C434 O457 1.283 . S
C435 O447 1.281 . S
C435 O448 1.236 . S
C436 O458 1.240 . S
C436 O459 1.264 . S
O437 Mn432 2.095 . S
O437 C446 1.250 . S
O438 Mn433 2.121 . S
O438 C446 1.258 . S
C439 N440 1.326 . S
C439 C443 1.460 . S
C439 H445 0.929 . S
N440 Mn433 2.257 . S
N440 C439 1.326 . S
N440 C444 1.362 . S
C441 C442 1.258 . S
C441 C444 1.431 . S
C441 C461 1.449 . S
C442 C441 1.258 . S
C442 C443 1.477 . S
C442 H462 0.931 . S
C443 C439 1.460 . S
C443 C442 1.477 . S
C443 H463 0.930 . S
C444 N440 1.362 . S
C444 C441 1.431 . S
C444 C454 1.476 . S
H445 C439 0.929 . S
C446 O437 1.250 . S
C446 O438 1.258 . S
O447 Mn432 2.162 . S
O447 C435 1.281 . S
O448 Mn432 2.297 . S
O448 C435 1.236 . S
N449 Mn433 2.282 . S
N449 C450 1.328 . S
N449 C454 1.318 . S
C450 N449 1.328 . S
C450 C451 1.457 . S
C450 H455 0.929 . S
C451 C450 1.457 . S
C451 C452 1.291 . S
C451 H464 0.931 . S
C452 C451 1.291 . S
C452 C453 1.373 . S
C452 H465 0.929 . S
C453 C452 1.373 . S
C453 C454 1.396 . S
C453 C460 1.403 . S
C454 C444 1.476 . S
C454 N449 1.318 . S
C454 C453 1.396 . S
H455 C450 0.929 . S
O456 Mn432 2.385 . S
O456 C434 1.234 . S
O457 Mn432 2.209 . S
O457 Mn433 2.215 . S
O457 C434 1.283 . S
O458 Mn432 2.094 . S
O458 C436 1.240 . S
O459 Mn433 2.117 . S
O459 C436 1.264 . S
C460 C453 1.403 . S
C460 C461 1.399 . S
C460 H466 0.929 . S
C461 C441 1.449 . S
C461 C460 1.399 . S
C461 H467 0.930 . S
H462 C442 0.931 . S
H463 C443 0.930 . S
H464 C451 0.931 . S
H465 C452 0.929 . S
H466 C460 0.929 . S
H467 C461 0.930 . S
Mn468 O473 2.095 . S
Mn468 O483 2.162 . S
Mn468 O484 2.297 1_565 S
Mn468 O492 2.385 . S
Mn468 O493 2.209 . S
Mn468 O494 2.094 . S
Mn469 O474 2.121 . S
Mn469 N476 2.257 . S
Mn469 N485 2.282 . S
Mn469 O493 2.215 . S
Mn469 O495 2.117 . S
C470 O492 1.234 . S
C470 O493 1.283 . S
C471 O483 1.276 1_545 S
C471 O484 1.237 . S
C472 O494 1.240 . S
C472 O495 1.264 . S
O473 Mn468 2.095 . S
O473 C482 1.250 . S
O474 Mn469 2.121 . S
O474 C482 1.258 . S
C475 N476 1.326 . S
C475 C479 1.460 1_565 S
C475 H481 0.929 . S
N476 Mn469 2.257 . S
N476 C475 1.326 . S
N476 C480 1.362 . S
C477 C478 1.258 . S
C477 C480 1.431 . S
C477 C497 1.449 . S
C478 C477 1.258 . S
C478 C479 1.477 1_565 S
C478 H498 0.931 . S
C479 C475 1.460 1_545 S
C479 C478 1.477 1_545 S
C479 H499 0.930 . S
C480 N476 1.362 . S
C480 C477 1.431 . S
C480 C490 1.476 . S
H481 C475 0.929 . S
C482 O473 1.250 . S
C482 O474 1.258 . S
O483 Mn468 2.162 . S
O483 C471 1.276 1_565 S
O484 Mn468 2.297 1_545 S
O484 C471 1.237 . S
N485 Mn469 2.282 . S
N485 C486 1.328 . S
N485 C490 1.318 . S
C486 N485 1.328 . S
C486 C487 1.457 . S
C486 H491 0.929 . S
C487 C486 1.457 . S
C487 C488 1.291 . S
C487 H500 0.931 . S
C488 C487 1.291 . S
C488 C489 1.373 . S
C488 H501 0.929 . S
C489 C488 1.373 . S
C489 C490 1.396 . S
C489 C496 1.403 . S
C490 C480 1.476 . S
C490 N485 1.318 . S
C490 C489 1.396 . S
H491 C486 0.929 . S
O492 Mn468 2.385 . S
O492 C470 1.234 . S
O493 Mn468 2.209 . S
O493 Mn469 2.215 . S
O493 C470 1.283 . S
O494 Mn468 2.094 . S
O494 C472 1.240 . S
O495 Mn469 2.117 . S
O495 C472 1.264 . S
C496 C489 1.403 . S
C496 C497 1.399 . S
C496 H502 0.929 . S
C497 C477 1.449 . S
C497 C496 1.399 . S
C497 H503 0.930 . S
H498 C478 0.931 . S
H499 C479 0.930 . S
H500 C487 0.931 . S
H501 C488 0.929 . S
H502 C496 0.929 . S
H503 C497 0.930 . S
Mn504 O509 2.095 . S
Mn504 O519 2.162 . S
Mn504 O520 2.297 . S
Mn504 O528 2.385 . S
Mn504 O529 2.209 . S
Mn504 O530 2.094 . S
Mn505 O510 2.121 . S
Mn505 N512 2.257 . S
Mn505 N521 2.282 . S
Mn505 O529 2.215 . S
Mn505 O531 2.117 . S
C506 O528 1.234 . S
C506 O529 1.283 . S
C507 O519 1.281 . S
C507 O520 1.236 . S
C508 O530 1.240 . S
C508 O531 1.264 . S
O509 Mn504 2.095 . S
O509 C518 1.250 . S
O510 Mn505 2.121 . S
O510 C518 1.258 . S
C511 N512 1.326 . S
C511 C515 1.460 . S
C511 H517 0.929 . S
N512 Mn505 2.257 . S
N512 C511 1.326 . S
N512 C516 1.362 . S
C513 C514 1.258 . S
C513 C516 1.431 . S
C513 C533 1.449 . S
C514 C513 1.258 . S
C514 C515 1.477 . S
C514 H534 0.931 . S
C515 C511 1.460 . S
C515 C514 1.477 . S
C515 H535 0.930 . S
C516 N512 1.362 . S
C516 C513 1.431 . S
C516 C526 1.476 . S
H517 C511 0.929 . S
C518 O509 1.250 . S
C518 O510 1.258 . S
O519 Mn504 2.162 . S
O519 C507 1.281 . S
O520 Mn504 2.297 . S
O520 C507 1.236 . S
N521 Mn505 2.282 . S
N521 C522 1.328 . S
N521 C526 1.318 . S
C522 N521 1.328 . S
C522 C523 1.457 . S
C522 H527 0.929 . S
C523 C522 1.457 . S
C523 C524 1.291 . S
C523 H536 0.931 . S
C524 C523 1.291 . S
C524 C525 1.373 . S
C524 H537 0.929 . S
C525 C524 1.373 . S
C525 C526 1.396 . S
C525 C532 1.403 . S
C526 C516 1.476 . S
C526 N521 1.318 . S
C526 C525 1.396 . S
H527 C522 0.929 . S
O528 Mn504 2.385 . S
O528 C506 1.234 . S
O529 Mn504 2.209 . S
O529 Mn505 2.215 . S
O529 C506 1.283 . S
O530 Mn504 2.094 . S
O530 C508 1.240 . S
O531 Mn505 2.117 . S
O531 C508 1.264 . S
C532 C525 1.403 . S
C532 C533 1.399 . S
C532 H538 0.929 . S
C533 C513 1.449 . S
C533 C532 1.399 . S
C533 H539 0.930 . S
H534 C514 0.931 . S
H535 C515 0.930 . S
H536 C523 0.931 . S
H537 C524 0.929 . S
H538 C532 0.929 . S
H539 C533 0.930 . S
Mn540 O545 2.095 . S
Mn540 O555 2.162 . S
Mn540 O556 2.297 1_545 S
Mn540 O564 2.385 . S
Mn540 O565 2.209 . S
Mn540 O566 2.094 . S
Mn541 O546 2.121 . S
Mn541 N548 2.257 . S
Mn541 N557 2.282 . S
Mn541 O565 2.215 . S
Mn541 O567 2.117 . S
C542 O564 1.234 . S
C542 O565 1.283 . S
C543 O555 1.281 1_565 S
C543 O556 1.236 . S
C544 O566 1.240 . S
C544 O567 1.264 . S
O545 Mn540 2.095 . S
O545 C554 1.250 . S
O546 Mn541 2.121 . S
O546 C554 1.258 . S
C547 N548 1.326 . S
C547 C551 1.460 1_545 S
C547 H553 0.929 . S
N548 Mn541 2.257 . S
N548 C547 1.326 . S
N548 C552 1.362 . S
C549 C550 1.258 . S
C549 C552 1.431 . S
C549 C569 1.449 . S
C550 C549 1.258 . S
C550 C551 1.477 1_545 S
C550 H570 0.931 . S
C551 C547 1.460 1_565 S
C551 C550 1.477 1_565 S
C551 H571 0.930 . S
C552 N548 1.362 . S
C552 C549 1.431 . S
C552 C562 1.476 . S
H553 C547 0.929 . S
C554 O545 1.250 . S
C554 O546 1.258 . S
O555 Mn540 2.162 . S
O555 C543 1.281 1_545 S
O556 Mn540 2.297 1_565 S
O556 C543 1.236 . S
N557 Mn541 2.282 . S
N557 C558 1.328 . S
N557 C562 1.318 . S
C558 N557 1.328 . S
C558 C559 1.457 . S
C558 H563 0.929 . S
C559 C558 1.457 . S
C559 C560 1.291 . S
C559 H572 0.931 . S
C560 C559 1.291 . S
C560 C561 1.373 . S
C560 H573 0.929 . S
C561 C560 1.373 . S
C561 C562 1.396 . S
C561 C568 1.403 . S
C562 C552 1.476 . S
C562 N557 1.318 . S
C562 C561 1.396 . S
H563 C558 0.929 . S
O564 Mn540 2.385 . S
O564 C542 1.234 . S
O565 Mn540 2.209 . S
O565 Mn541 2.215 . S
O565 C542 1.283 . S
O566 Mn540 2.094 . S
O566 C544 1.240 . S
O567 Mn541 2.117 . S
O567 C544 1.264 . S
C568 C561 1.403 . S
C568 C569 1.399 . S
C568 H574 0.929 . S
C569 C549 1.449 . S
C569 C568 1.399 . S
C569 H575 0.930 . S
H570 C550 0.931 . S
H571 C551 0.930 . S
H572 C559 0.931 . S
H573 C560 0.929 . S
H574 C568 0.929 . S
H575 C569 0.930 . S
Mn576 O581 2.095 . S
Mn576 O591 2.162 . S
Mn576 O592 2.297 . S
Mn576 O600 2.385 . S
Mn576 O601 2.209 . S
Mn576 O602 2.094 . S
Mn577 O582 2.121 . S
Mn577 N584 2.257 . S
Mn577 N593 2.282 . S
Mn577 O601 2.215 . S
Mn577 O603 2.117 . S
C578 O600 1.234 . S
C578 O601 1.283 . S
C579 O591 1.281 . S
C579 O592 1.236 . S
C580 O602 1.240 . S
C580 O603 1.264 . S
O581 Mn576 2.095 . S
O581 C590 1.250 . S
O582 Mn577 2.121 . S
O582 C590 1.258 . S
C583 N584 1.326 . S
C583 C587 1.460 . S
C583 H589 0.929 . S
N584 Mn577 2.257 . S
N584 C583 1.326 . S
N584 C588 1.362 . S
C585 C586 1.258 . S
C585 C588 1.431 . S
C585 C605 1.449 . S
C586 C585 1.258 . S
C586 C587 1.477 . S
C586 H606 0.931 . S
C587 C583 1.460 . S
C587 C586 1.477 . S
C587 H607 0.930 . S
C588 N584 1.362 . S
C588 C585 1.431 . S
C588 C598 1.476 . S
H589 C583 0.929 . S
C590 O581 1.250 . S
C590 O582 1.258 . S
O591 Mn576 2.162 . S
O591 C579 1.281 . S
O592 Mn576 2.297 . S
O592 C579 1.236 . S
N593 Mn577 2.282 . S
N593 C594 1.328 . S
N593 C598 1.318 . S
C594 N593 1.328 . S
C594 C595 1.457 . S
C594 H599 0.929 . S
C595 C594 1.457 . S
C595 C596 1.291 . S
C595 H608 0.931 . S
C596 C595 1.291 . S
C596 C597 1.373 . S
C596 H609 0.929 . S
C597 C596 1.373 . S
C597 C598 1.396 . S
C597 C604 1.403 . S
C598 C588 1.476 . S
C598 N593 1.318 . S
C598 C597 1.396 . S
H599 C594 0.929 . S
O600 Mn576 2.385 . S
O600 C578 1.234 . S
O601 Mn576 2.209 . S
O601 Mn577 2.215 . S
O601 C578 1.283 . S
O602 Mn576 2.094 . S
O602 C580 1.240 . S
O603 Mn577 2.117 . S
O603 C580 1.264 . S
C604 C597 1.403 . S
C604 C605 1.399 . S
C604 H610 0.929 . S
C605 C585 1.449 . S
C605 C604 1.399 . S
C605 H611 0.930 . S
H606 C586 0.931 . S
H607 C587 0.930 . S
H608 C595 0.931 . S
H609 C596 0.929 . S
H610 C604 0.929 . S
H611 C605 0.930 . S
Mn612 O617 2.095 . S
Mn612 O627 2.162 . S
Mn612 O628 2.297 . S
Mn612 O636 2.385 1_545 S
Mn612 O637 2.209 1_545 S
Mn612 O638 2.094 . S
Mn613 O618 2.121 . S
Mn613 N620 2.257 . S
Mn613 N629 2.282 . S
Mn613 O637 2.215 . S
Mn613 O639 2.117 . S
C614 O636 1.234 . S
C614 O637 1.283 . S
C615 O627 1.281 . S
C615 O628 1.236 . S
C616 O638 1.240 . S
C616 O639 1.264 1_545 S
O617 Mn612 2.095 . S
O617 C626 1.250 1_545 S
O618 Mn613 2.121 . S
O618 C626 1.258 . S
C619 N620 1.326 . S
C619 C623 1.460 . S
C619 H625 0.929 . S
N620 Mn613 2.257 . S
N620 C619 1.326 . S
N620 C624 1.362 . S
C621 C622 1.258 . S
C621 C624 1.431 . S
C621 C641 1.449 . S
C622 C621 1.258 . S
C622 C623 1.477 . S
C622 H642 0.931 . S
C623 C619 1.460 . S
C623 C622 1.477 . S
C623 H643 0.930 . S
C624 N620 1.362 . S
C624 C621 1.431 . S
C624 C634 1.476 . S
H625 C619 0.929 . S
C626 O617 1.250 1_565 S
C626 O618 1.258 . S
O627 Mn612 2.162 . S
O627 C615 1.281 . S
O628 Mn612 2.297 . S
O628 C615 1.236 . S
N629 Mn613 2.282 . S
N629 C630 1.328 . S
N629 C634 1.318 . S
C630 N629 1.328 . S
C630 C631 1.457 . S
C630 H635 0.929 . S
C631 C630 1.457 . S
C631 C632 1.291 . S
C631 H644 0.931 . S
C632 C631 1.291 . S
C632 C633 1.373 . S
C632 H645 0.929 . S
C633 C632 1.373 . S
C633 C634 1.396 . S
C633 C640 1.403 . S
C634 C624 1.476 . S
C634 N629 1.318 . S
C634 C633 1.396 . S
H635 C630 0.929 . S
O636 Mn612 2.385 1_565 S
O636 C614 1.234 . S
O637 Mn612 2.209 1_565 S
O637 Mn613 2.215 . S
O637 C614 1.283 . S
O638 Mn612 2.094 . S
O638 C616 1.240 . S
O639 Mn613 2.117 . S
O639 C616 1.264 1_565 S
C640 C633 1.403 . S
C640 C641 1.399 . S
C640 H646 0.929 . S
C641 C621 1.449 . S
C641 C640 1.399 . S
C641 H647 0.930 . S
H642 C622 0.931 . S
H643 C623 0.930 . S
H644 C631 0.931 . S
H645 C632 0.929 . S
H646 C640 0.929 . S
H647 C641 0.930 . S
Mn648 O653 2.095 . S
Mn648 O663 2.162 . S
Mn648 O664 2.297 1_556 S
Mn648 O672 2.385 . S
Mn648 O673 2.209 . S
Mn648 O674 2.094 . S
Mn649 O654 2.121 . S
Mn649 N656 2.257 . S
Mn649 N665 2.282 . S
Mn649 O673 2.215 . S
Mn649 O675 2.117 . S
C650 O672 1.234 . S
C650 O673 1.283 . S
C651 O663 1.276 1_554 S
C651 O664 1.237 . S
C652 O674 1.240 . S
C652 O675 1.264 . S
O653 Mn648 2.095 . S
O653 C662 1.250 . S
O654 Mn649 2.121 . S
O654 C662 1.258 . S
C655 N656 1.326 . S
C655 C659 1.460 1_556 S
C655 H661 0.929 . S
N656 Mn649 2.257 . S
N656 C655 1.326 . S
N656 C660 1.362 . S
C657 C658 1.258 . S
C657 C660 1.431 . S
C657 C677 1.449 . S
C658 C657 1.258 . S
C658 C659 1.477 1_556 S
C658 H678 0.931 . S
C659 C655 1.460 1_554 S
C659 C658 1.477 1_554 S
C659 H679 0.930 . S
C660 N656 1.362 . S
C660 C657 1.431 . S
C660 C670 1.476 . S
H661 C655 0.929 . S
C662 O653 1.250 . S
C662 O654 1.258 . S
O663 Mn648 2.162 . S
O663 C651 1.276 1_556 S
O664 Mn648 2.297 1_554 S
O664 C651 1.237 . S
N665 Mn649 2.282 . S
N665 C666 1.328 . S
N665 C670 1.318 . S
C666 N665 1.328 . S
C666 C667 1.457 . S
C666 H671 0.929 . S
C667 C666 1.457 . S
C667 C668 1.291 . S
C667 H680 0.931 . S
C668 C667 1.291 . S
C668 C669 1.373 . S
C668 H681 0.929 . S
C669 C668 1.373 . S
C669 C670 1.396 . S
C669 C676 1.403 . S
C670 C660 1.476 . S
C670 N665 1.318 . S
C670 C669 1.396 . S
H671 C666 0.929 . S
O672 Mn648 2.385 . S
O672 C650 1.234 . S
O673 Mn648 2.209 . S
O673 Mn649 2.215 . S
O673 C650 1.283 . S
O674 Mn648 2.094 . S
O674 C652 1.240 . S
O675 Mn649 2.117 . S
O675 C652 1.264 . S
C676 C669 1.403 . S
C676 C677 1.399 . S
C676 H682 0.929 . S
C677 C657 1.449 . S
C677 C676 1.399 . S
C677 H683 0.930 . S
H678 C658 0.931 . S
H679 C659 0.930 . S
H680 C667 0.931 . S
H681 C668 0.929 . S
H682 C676 0.929 . S
H683 C677 0.930 . S
Mn684 O689 2.095 . S
Mn684 O699 2.162 . S
Mn684 O700 2.297 1_556 S
Mn684 O708 2.385 1_565 S
Mn684 O709 2.209 1_565 S
Mn684 O710 2.094 . S
Mn685 O690 2.121 . S
Mn685 N692 2.257 . S
Mn685 N701 2.282 . S
Mn685 O709 2.215 . S
Mn685 O711 2.117 . S
C686 O708 1.234 . S
C686 O709 1.283 . S
C687 O699 1.281 1_554 S
C687 O700 1.236 . S
C688 O710 1.240 . S
C688 O711 1.264 1_565 S
O689 Mn684 2.095 . S
O689 C698 1.250 1_565 S
O690 Mn685 2.121 . S
O690 C698 1.258 . S
C691 N692 1.326 . S
C691 C695 1.460 . S
C691 H697 0.929 . S
N692 Mn685 2.257 . S
N692 C691 1.326 . S
N692 C696 1.362 . S
C693 C694 1.258 . S
C693 C696 1.431 . S
C693 C713 1.449 . S
C694 C693 1.258 . S
C694 C695 1.477 . S
C694 H714 0.931 . S
C695 C691 1.460 . S
C695 C694 1.477 . S
C695 H715 0.930 1_556 S
C696 N692 1.362 . S
C696 C693 1.431 . S
C696 C706 1.476 . S
H697 C691 0.929 . S
C698 O689 1.250 1_545 S
C698 O690 1.258 . S
O699 Mn684 2.162 . S
O699 C687 1.281 1_556 S
O700 Mn684 2.297 1_554 S
O700 C687 1.236 . S
N701 Mn685 2.282 . S
N701 C702 1.328 . S
N701 C706 1.318 . S
C702 N701 1.328 . S
C702 C703 1.457 . S
C702 H707 0.929 . S
C703 C702 1.457 . S
C703 C704 1.291 . S
C703 H716 0.931 . S
C704 C703 1.291 . S
C704 C705 1.373 . S
C704 H717 0.929 . S
C705 C704 1.373 . S
C705 C706 1.396 . S
C705 C712 1.403 . S
C706 C696 1.476 . S
C706 N701 1.318 . S
C706 C705 1.396 . S
H707 C702 0.929 . S
O708 Mn684 2.385 1_545 S
O708 C686 1.234 . S
O709 Mn684 2.209 1_545 S
O709 Mn685 2.215 . S
O709 C686 1.283 . S
O710 Mn684 2.094 . S
O710 C688 1.240 . S
O711 Mn685 2.117 . S
O711 C688 1.264 1_545 S
C712 C705 1.403 . S
C712 C713 1.399 . S
C712 H718 0.929 . S
C713 C693 1.449 . S
C713 C712 1.399 . S
C713 H719 0.930 . S
H714 C694 0.931 . S
H715 C695 0.930 1_554 S
H716 C703 0.931 . S
H717 C704 0.929 . S
H718 C712 0.929 . S
H719 C713 0.930 . S
Mn720 O725 2.095 . S
Mn720 O735 2.162 . S
Mn720 O736 2.297 . S
Mn720 O744 2.385 . S
Mn720 O745 2.209 . S
Mn720 O746 2.094 . S
Mn721 O726 2.121 . S
Mn721 N728 2.257 . S
Mn721 N737 2.282 . S
Mn721 O745 2.215 . S
Mn721 O747 2.117 . S
C722 O744 1.234 . S
C722 O745 1.283 . S
C723 O735 1.281 . S
C723 O736 1.236 . S
C724 O746 1.240 . S
C724 O747 1.264 . S
O725 Mn720 2.095 . S
O725 C734 1.250 . S
O726 Mn721 2.121 . S
O726 C734 1.258 . S
C727 N728 1.326 . S
C727 C731 1.460 . S
C727 H733 0.929 . S
N728 Mn721 2.257 . S
N728 C727 1.326 . S
N728 C732 1.362 . S
C729 C730 1.258 . S
C729 C732 1.431 . S
C729 C749 1.449 . S
C730 C729 1.258 . S
C730 C731 1.477 . S
C730 H750 0.931 . S
C731 C727 1.460 . S
C731 C730 1.477 . S
C731 H751 0.930 . S
C732 N728 1.362 . S
C732 C729 1.431 . S
C732 C742 1.476 . S
H733 C727 0.929 . S
C734 O725 1.250 . S
C734 O726 1.258 . S
O735 Mn720 2.162 . S
O735 C723 1.281 . S
O736 Mn720 2.297 . S
O736 C723 1.236 . S
N737 Mn721 2.282 . S
N737 C738 1.328 . S
N737 C742 1.318 . S
C738 N737 1.328 . S
C738 C739 1.457 . S
C738 H743 0.929 . S
C739 C738 1.457 . S
C739 C740 1.291 . S
C739 H752 0.931 . S
C740 C739 1.291 . S
C740 C741 1.373 . S
C740 H753 0.929 . S
C741 C740 1.373 . S
C741 C742 1.396 . S
C741 C748 1.403 . S
C742 C732 1.476 . S
C742 N737 1.318 . S
C742 C741 1.396 . S
H743 C738 0.929 . S
O744 Mn720 2.385 . S
O744 C722 1.234 . S
O745 Mn720 2.209 . S
O745 Mn721 2.215 . S
O745 C722 1.283 . S
O746 Mn720 2.094 . S
O746 C724 1.240 . S
O747 Mn721 2.117 . S
O747 C724 1.264 . S
C748 C741 1.403 . S
C748 C749 1.399 . S
C748 H754 0.929 . S
C749 C729 1.449 . S
C749 C748 1.399 . S
C749 H755 0.930 . S
H750 C730 0.931 . S
H751 C731 0.930 . S
H752 C739 0.931 . S
H753 C740 0.929 . S
H754 C748 0.929 . S
H755 C749 0.930 . S
Mn756 O761 2.095 . S
Mn756 O771 2.162 . S
Mn756 O772 2.297 . S
Mn756 O780 2.385 1_554 S
Mn756 O781 2.209 1_554 S
Mn756 O782 2.094 . S
Mn757 O762 2.121 . S
Mn757 N764 2.257 . S
Mn757 N773 2.282 . S
Mn757 O781 2.215 . S
Mn757 O783 2.117 . S
C758 O780 1.234 . S
C758 O781 1.283 . S
C759 O771 1.281 . S
C759 O772 1.236 . S
C760 O782 1.240 . S
C760 O783 1.264 1_554 S
O761 Mn756 2.095 . S
O761 C770 1.250 1_554 S
O762 Mn757 2.121 . S
O762 C770 1.258 . S
C763 N764 1.326 . S
C763 C767 1.460 . S
C763 H769 0.929 . S
N764 Mn757 2.257 . S
N764 C763 1.326 . S
N764 C768 1.362 . S
C765 C766 1.258 . S
C765 C768 1.431 . S
C765 C785 1.449 . S
C766 C765 1.258 . S
C766 C767 1.477 . S
C766 H786 0.931 . S
C767 C763 1.460 . S
C767 C766 1.477 . S
C767 H787 0.930 . S
C768 N764 1.362 . S
C768 C765 1.431 . S
C768 C778 1.476 . S
H769 C763 0.929 . S
C770 O761 1.250 1_556 S
C770 O762 1.258 . S
O771 Mn756 2.162 . S
O771 C759 1.281 . S
O772 Mn756 2.297 . S
O772 C759 1.236 . S
N773 Mn757 2.282 . S
N773 C774 1.328 . S
N773 C778 1.318 . S
C774 N773 1.328 . S
C774 C775 1.457 . S
C774 H779 0.929 . S
C775 C774 1.457 . S
C775 C776 1.291 . S
C775 H788 0.931 . S
C776 C775 1.291 . S
C776 C777 1.373 . S
C776 H789 0.929 . S
C777 C776 1.373 . S
C777 C778 1.396 . S
C777 C784 1.403 . S
C778 C768 1.476 . S
C778 N773 1.318 . S
C778 C777 1.396 . S
H779 C774 0.929 . S
O780 Mn756 2.385 1_556 S
O780 C758 1.234 . S
O781 Mn756 2.209 1_556 S
O781 Mn757 2.215 . S
O781 C758 1.283 . S
O782 Mn756 2.094 . S
O782 C760 1.240 . S
O783 Mn757 2.117 . S
O783 C760 1.264 1_556 S
C784 C777 1.403 . S
C784 C785 1.399 . S
C784 H790 0.929 . S
C785 C765 1.449 . S
C785 C784 1.399 . S
C785 H791 0.930 . S
H786 C766 0.931 . S
H787 C767 0.930 . S
H788 C775 0.931 . S
H789 C776 0.929 . S
H790 C784 0.929 . S
H791 C785 0.930 . S
Mn792 O797 2.095 . S
Mn792 O807 2.162 . S
Mn792 O808 2.297 . S
Mn792 O816 2.385 1_554 S
Mn792 O817 2.209 1_554 S
Mn792 O818 2.094 . S
Mn793 O798 2.121 . S
Mn793 N800 2.257 . S
Mn793 N809 2.282 . S
Mn793 O817 2.215 . S
Mn793 O819 2.117 . S
C794 O816 1.234 . S
C794 O817 1.283 . S
C795 O807 1.281 . S
C795 O808 1.236 . S
C796 O818 1.240 . S
C796 O819 1.264 1_554 S
O797 Mn792 2.095 . S
O797 C806 1.250 1_554 S
O798 Mn793 2.121 . S
O798 C806 1.258 . S
C799 N800 1.326 . S
C799 C803 1.460 . S
C799 H805 0.929 . S
N800 Mn793 2.257 . S
N800 C799 1.326 . S
N800 C804 1.362 . S
C801 C802 1.258 . S
C801 C804 1.431 . S
C801 C821 1.449 . S
C802 C801 1.258 . S
C802 C803 1.477 . S
C802 H822 0.931 . S
C803 C799 1.460 . S
C803 C802 1.477 . S
C803 H823 0.930 . S
C804 N800 1.362 . S
C804 C801 1.431 . S
C804 C814 1.476 . S
H805 C799 0.929 . S
C806 O797 1.250 1_556 S
C806 O798 1.258 . S
O807 Mn792 2.162 . S
O807 C795 1.281 . S
O808 Mn792 2.297 . S
O808 C795 1.236 . S
N809 Mn793 2.282 . S
N809 C810 1.328 . S
N809 C814 1.318 . S
C810 N809 1.328 . S
C810 C811 1.457 . S
C810 H815 0.929 . S
C811 C810 1.457 . S
C811 C812 1.291 . S
C811 H824 0.931 . S
C812 C811 1.291 . S
C812 C813 1.373 . S
C812 H825 0.929 . S
C813 C812 1.373 . S
C813 C814 1.396 . S
C813 C820 1.403 . S
C814 C804 1.476 . S
C814 N809 1.318 . S
C814 C813 1.396 . S
H815 C810 0.929 . S
O816 Mn792 2.385 1_556 S
O816 C794 1.234 . S
O817 Mn792 2.209 1_556 S
O817 Mn793 2.215 . S
O817 C794 1.283 . S
O818 Mn792 2.094 . S
O818 C796 1.240 . S
O819 Mn793 2.117 . S
O819 C796 1.264 1_556 S
C820 C813 1.403 . S
C820 C821 1.399 . S
C820 H826 0.929 . S
C821 C801 1.449 . S
C821 C820 1.399 . S
C821 H827 0.930 . S
H822 C802 0.931 . S
H823 C803 0.930 . S
H824 C811 0.931 . S
H825 C812 0.929 . S
H826 C820 0.929 . S
H827 C821 0.930 . S
Mn828 O833 2.095 . S
Mn828 O843 2.162 . S
Mn828 O844 2.297 1_655 S
Mn828 O852 2.385 1_556 S
Mn828 O853 2.209 1_556 S
Mn828 O854 2.094 . S
Mn829 O834 2.121 . S
Mn829 N836 2.257 . S
Mn829 N845 2.282 . S
Mn829 O853 2.215 . S
Mn829 O855 2.117 . S
C830 O852 1.234 . S
C830 O853 1.283 . S
C831 O843 1.281 1_455 S
C831 O844 1.236 . S
C832 O854 1.240 . S
C832 O855 1.264 1_556 S
O833 Mn828 2.095 . S
O833 C842 1.250 1_556 S
O834 Mn829 2.121 . S
O834 C842 1.258 . S
C835 N836 1.326 . S
C835 C839 1.460 . S
C835 H841 0.929 . S
N836 Mn829 2.257 . S
N836 C835 1.326 . S
N836 C840 1.362 . S
C837 C838 1.258 . S
C837 C840 1.431 . S
C837 C857 1.449 . S
C838 C837 1.258 . S
C838 C839 1.477 . S
C838 H858 0.931 . S
C839 C835 1.460 . S
C839 C838 1.477 . S
C839 H859 0.930 1_655 S
C840 N836 1.362 . S
C840 C837 1.431 . S
C840 C850 1.476 . S
H841 C835 0.929 . S
C842 O833 1.250 1_554 S
C842 O834 1.258 . S
O843 Mn828 2.162 . S
O843 C831 1.281 1_655 S
O844 Mn828 2.297 1_455 S
O844 C831 1.236 . S
N845 Mn829 2.282 . S
N845 C846 1.328 . S
N845 C850 1.318 . S
C846 N845 1.328 . S
C846 C847 1.457 . S
C846 H851 0.929 . S
C847 C846 1.457 . S
C847 C848 1.291 . S
C847 H860 0.931 . S
C848 C847 1.291 . S
C848 C849 1.373 . S
C848 H861 0.929 . S
C849 C848 1.373 . S
C849 C850 1.396 . S
C849 C856 1.403 . S
C850 C840 1.476 . S
C850 N845 1.318 . S
C850 C849 1.396 . S
H851 C846 0.929 . S
O852 Mn828 2.385 1_554 S
O852 C830 1.234 . S
O853 Mn828 2.209 1_554 S
O853 Mn829 2.215 . S
O853 C830 1.283 . S
O854 Mn828 2.094 . S
O854 C832 1.240 . S
O855 Mn829 2.117 . S
O855 C832 1.264 1_554 S
C856 C849 1.403 . S
C856 C857 1.399 . S
C856 H862 0.929 . S
C857 C837 1.449 . S
C857 C856 1.399 . S
C857 H863 0.930 . S
H858 C838 0.931 . S
H859 C839 0.930 1_455 S
H860 C847 0.931 . S
H861 C848 0.929 . S
H862 C856 0.929 . S
H863 C857 0.930 . S
C615 C2 0.998 . S
C38 C579 1.451 . S
C74 C687 1.138 . S
C110 C651 1.566 . S
C146 C759 0.998 . S
C182 C795 1.073 . S
C723 C218 1.451 . S
C399 C254 1.492 . S
C290 C111 0.998 . S
C39 C326 1.073 . S
C362 C3 1.225 . S
C398 C507 1.492 . S
C183 C434 1.614 . S
C147 C470 1.225 . S
C506 C255 1.492 . S
C542 C219 1.073 . S
C327 C578 1.614 . S
C363 C614 1.566 . S
C291 C650 1.225 . S
C686 C831 1.138 . S
C543 C722 1.614 . S
C758 C471 1.566 . S
C435 C794 1.451 . S
C830 C75 1.138 . S
C4 C40 1.724 1_655 S
C112 C76 1.651 1_455 S
C148 C220 1.724 1_565 S
C184 C256 2.164 . S
C796 C292 1.724 1_554 S
C328 C400 2.164 . S
C724 C364 2.148 . S
C472 C436 2.147 . S
C508 C544 2.164 . S
C652 C580 2.147 . S
C616 C688 1.651 1_545 S
C832 C760 1.651 1_556 S
C86 C14 2.223 1_565 S
C50 C122 2.454 . S
C698 C158 2.223 1_556 S
C194 C662 2.279 1_554 S
C230 C626 2.454 . S
C590 C266 2.510 . S
C302 C842 2.223 1_455 S
C338 C374 2.279 1_455 S
C734 C410 2.510 . S
C446 C518 2.510 . S
C482 C554 2.279 1_565 S
C806 C770 2.454 . S
