# Generated by pormake.
# Topology zfe, (5)-cn, num edge types: 1
# Building blocks:
#     Node 0, Type 0, BuildingBlock: XOMCOT_clean_sbu_0, # of connection points: 5
#     Node 1, Type 0, BuildingBlock: XOMCOT_clean_sbu_0, # of connection points: 5
#     Node 2, Type 0, BuildingBlock: XOMCOT_clean_sbu_0, # of connection points: 5
#     Node 3, Type 0, BuildingBlock: XOMCOT_clean_sbu_0, # of connection points: 5
#     Node 4, Type 0, BuildingBlock: XOMCOT_clean_sbu_0, # of connection points: 5
#     Node 5, Type 0, BuildingBlock: XOMCOT_clean_sbu_0, # of connection points: 5
#     Node 6, Type 0, BuildingBlock: XOMCOT_clean_sbu_0, # of connection points: 5
#     Node 7, Type 0, BuildingBlock: XOMCOT_clean_sbu_0, # of connection points: 5
#     Node 8, Type 0, BuildingBlock: XOMCOT_clean_sbu_0, # of connection points: 5
#     Node 9, Type 0, BuildingBlock: XOMCOT_clean_sbu_0, # of connection points: 5
#     Node 10, Type 0, BuildingBlock: XOMCOT_clean_sbu_0, # of connection points: 5
#     Node 11, Type 0, BuildingBlock: XOMCOT_clean_sbu_0, # of connection points: 5
#     Node 12, Type 0, BuildingBlock: XOMCOT_clean_sbu_0, # of connection points: 5
#     Node 13, Type 0, BuildingBlock: XOMCOT_clean_sbu_0, # of connection points: 5
#     Node 14, Type 0, BuildingBlock: XOMCOT_clean_sbu_0, # of connection points: 5
#     Node 15, Type 0, BuildingBlock: XOMCOT_clean_sbu_0, # of connection points: 5
#     Edge 16, Type (0, 0), BuildingBlock: OJICUG_clean_linker_0, # of connection points: 2
#     Edge 17, Type (0, 0), BuildingBlock: OJICUG_clean_linker_0, # of connection points: 2
#     Edge 18, Type (0, 0), BuildingBlock: OJICUG_clean_linker_0, # of connection points: 2
#     Edge 19, Type (0, 0), BuildingBlock: OJICUG_clean_linker_0, # of connection points: 2
#     Edge 20, Type (0, 0), BuildingBlock: OJICUG_clean_linker_0, # of connection points: 2
#     Edge 21, Type (0, 0), BuildingBlock: OJICUG_clean_linker_0, # of connection points: 2
#     Edge 22, Type (0, 0), BuildingBlock: OJICUG_clean_linker_0, # of connection points: 2
#     Edge 23, Type (0, 0), BuildingBlock: OJICUG_clean_linker_0, # of connection points: 2
#     Edge 24, Type (0, 0), BuildingBlock: OJICUG_clean_linker_0, # of connection points: 2
#     Edge 25, Type (0, 0), BuildingBlock: OJICUG_clean_linker_0, # of connection points: 2
#     Edge 26, Type (0, 0), BuildingBlock: OJICUG_clean_linker_0, # of connection points: 2
#     Edge 27, Type (0, 0), BuildingBlock: OJICUG_clean_linker_0, # of connection points: 2
#     Edge 28, Type (0, 0), BuildingBlock: OJICUG_clean_linker_0, # of connection points: 2
#     Edge 29, Type (0, 0), BuildingBlock: OJICUG_clean_linker_0, # of connection points: 2
#     Edge 30, Type (0, 0), BuildingBlock: OJICUG_clean_linker_0, # of connection points: 2
#     Edge 31, Type (0, 0), BuildingBlock: OJICUG_clean_linker_0, # of connection points: 2
#     Edge 32, Type (0, 0), BuildingBlock: OJICUG_clean_linker_0, # of connection points: 2
#     Edge 33, Type (0, 0), BuildingBlock: OJICUG_clean_linker_0, # of connection points: 2
#     Edge 34, Type (0, 0), BuildingBlock: OJICUG_clean_linker_0, # of connection points: 2
#     Edge 35, Type (0, 0), BuildingBlock: OJICUG_clean_linker_0, # of connection points: 2
#     Edge 36, Type (0, 0), BuildingBlock: OJICUG_clean_linker_0, # of connection points: 2
#     Edge 37, Type (0, 0), BuildingBlock: OJICUG_clean_linker_0, # of connection points: 2
#     Edge 38, Type (0, 0), BuildingBlock: OJICUG_clean_linker_0, # of connection points: 2
#     Edge 39, Type (0, 0), BuildingBlock: OJICUG_clean_linker_0, # of connection points: 2
#     Edge 40, Type (0, 0), BuildingBlock: OJICUG_clean_linker_0, # of connection points: 2
#     Edge 41, Type (0, 0), BuildingBlock: OJICUG_clean_linker_0, # of connection points: 2
#     Edge 42, Type (0, 0), BuildingBlock: OJICUG_clean_linker_0, # of connection points: 2
#     Edge 43, Type (0, 0), BuildingBlock: OJICUG_clean_linker_0, # of connection points: 2
#     Edge 44, Type (0, 0), BuildingBlock: OJICUG_clean_linker_0, # of connection points: 2
#     Edge 45, Type (0, 0), BuildingBlock: OJICUG_clean_linker_0, # of connection points: 2
#     Edge 46, Type (0, 0), BuildingBlock: OJICUG_clean_linker_0, # of connection points: 2
#     Edge 47, Type (0, 0), BuildingBlock: OJICUG_clean_linker_0, # of connection points: 2
#     Edge 48, Type (0, 0), BuildingBlock: OJICUG_clean_linker_0, # of connection points: 2
#     Edge 49, Type (0, 0), BuildingBlock: OJICUG_clean_linker_0, # of connection points: 2
#     Edge 50, Type (0, 0), BuildingBlock: OJICUG_clean_linker_0, # of connection points: 2
#     Edge 51, Type (0, 0), BuildingBlock: OJICUG_clean_linker_0, # of connection points: 2
#     Edge 52, Type (0, 0), BuildingBlock: OJICUG_clean_linker_0, # of connection points: 2
#     Edge 53, Type (0, 0), BuildingBlock: OJICUG_clean_linker_0, # of connection points: 2
#     Edge 54, Type (0, 0), BuildingBlock: OJICUG_clean_linker_0, # of connection points: 2
#     Edge 55, Type (0, 0), BuildingBlock: OJICUG_clean_linker_0, # of connection points: 2
# Relax obj value: 0.202
# Max RMSD: 0.173
# Mean RMSD: 0.173
data_MOF--net-zfe--node1-XOMCOT_clean_sbu_0--edge1-OJICUG_clean_linker_0
_symmetry_space_group_name_H-M    P1
_symmetry_Int_Tables_number       1
_symmetry_cell_setting            triclinic
loop_
_symmetry_equiv_pos_as_xyz
'x, y, z'
_cell_length_a     42.417284
_cell_length_b     42.463271
_cell_length_c     20.112983
_cell_angle_alpha  90.072193
_cell_angle_beta   89.999302
_cell_angle_gamma 89.981225
loop_
_atom_site_label
_atom_site_type_symbol
_atom_site_fract_x
_atom_site_fract_y
_atom_site_fract_z
_atom_type_partial_charge
Co0 Co 0.04422 0.24099 0.07673 0.0
C1 C 0.0979 0.28748 0.0663 0.0
C2 C 0.05841 0.29861 1.00421 0.0
C3 C 0.08109 0.32117 0.9947 0.0
N4 N 0.06922 0.27677 0.04731 0.0
N5 N 0.10584 0.31414 0.03368 0.0
H6 H 0.1124 0.27702 0.10429 0.0
H7 H 0.0352 0.29852 0.98198 0.0
C8 C 0.04074 0.23767 0.92841 0.0
O9 O 0.07165 0.23986 0.92812 0.0
N10 N 0.01799 0.20645 0.10506 0.0
C11 C 0.02335 0.18614 0.15521 0.0
C12 C 0.99782 0.16619 0.16025 0.0
C13 C 0.98954 0.19869 0.08022 0.0
N14 N 0.97674 0.17411 0.11286 0.0
C15 C 0.10326 0.21013 0.09806 0.0
C16 C 0.09064 0.15826 0.01937 0.0
C17 C 0.11638 0.1573 0.06285 0.0
C18 C 0.12312 0.18399 0.10108 0.0
C19 C 0.07112 0.18479 1.01842 0.0
N20 N 0.07744 0.21048 0.05748 0.0
H21 H 0.10711 0.22865 0.13361 0.0
H22 H 0.0494 0.1833 0.99068 0.0
H23 H 0.04421 0.18601 0.18613 0.0
H24 H 0.97804 0.21125 0.04021 0.0
O25 O 0.05524 0.24945 0.168 0.0
O26 O 0.01392 0.26989 0.1167 0.0
O27 O 0.02581 0.23737 0.98381 0.0
C28 C 0.03011 0.26674 0.17151 0.0
H29 H 0.07901 0.34198 0.96395 0.0
H30 H 0.99504 0.14721 0.19565 0.0
H31 H 0.08412 0.13773 0.99048 0.0
H32 H 0.14252 0.18395 0.13612 0.0
Co33 Co 0.77286 0.04341 0.07705 0.0
C34 C 0.72671 0.09747 0.06758 0.0
C35 C 0.71557 0.05857 1.00387 0.0
C36 C 0.69311 0.0814 0.99487 0.0
N37 N 0.73739 0.06893 0.04761 0.0
N38 N 0.70015 0.10578 0.03486 0.0
H39 H 0.73709 0.11155 0.10643 0.0
H40 H 0.71552 0.03552 0.98098 0.0
C41 C 0.77635 0.03994 0.92878 0.0
O42 O 0.77468 0.07086 0.9286 0.0
N43 N 0.80703 0.01665 0.10538 0.0
C44 C 0.82755 0.02171 0.15539 0.0
C45 C 0.84705 0.99583 0.16045 0.0
C46 C 0.81421 0.98803 0.08069 0.0
N47 N 0.83864 0.97483 0.11325 0.0
C48 C 0.80448 0.10201 0.09842 0.0
C49 C 0.8564 0.08852 0.02041 0.0
C50 C 0.85762 0.1143 0.06373 0.0
C51 C 0.83093 0.12147 0.10167 0.0
C52 C 0.82959 0.06938 0.01931 0.0
N53 N 0.80389 0.07613 0.05803 0.0
H54 H 0.78589 0.10622 0.13361 0.0
H55 H 0.83084 0.04761 0.9917 0.0
H56 H 0.82812 0.0426 0.18618 0.0
H57 H 0.80134 0.97672 0.04083 0.0
O58 O 0.76456 0.05453 0.16832 0.0
O59 O 0.74349 0.01358 0.1168 0.0
O60 O 0.77627 0.025 0.9841 0.0
C61 C 0.74689 0.02969 0.17168 0.0
H62 H 0.67232 0.07962 0.96385 0.0
H63 H 0.86608 0.99278 0.19574 0.0
H64 H 0.87691 0.08169 0.99172 0.0
H65 H 0.83117 0.14093 0.13656 0.0
Co66 Co 0.969 0.77139 0.07952 0.0
C67 C 0.91529 0.72488 0.06845 0.0
C68 C 0.95557 0.71299 1.00917 0.0
C69 C 0.93293 0.69043 0.99914 0.0
N70 N 0.94429 0.73526 0.05085 0.0
N71 N 0.9077 0.69794 0.03634 0.0
H72 H 0.90025 0.73585 0.10488 0.0
H73 H 0.97902 0.71289 0.98809 0.0
C74 C 0.97276 0.77351 0.93123 0.0
O75 O 0.94188 0.77085 0.93074 0.0
N76 N 0.99497 0.80629 0.10704 0.0
C77 C 0.98762 0.82953 0.14995 0.0
C78 C 0.01244 0.85046 0.15218 0.0
C79 C 0.02413 0.81295 0.08463 0.0
N80 N 0.03531 0.83994 0.11105 0.0
C81 C 0.9099 0.80227 0.10021 0.0
C82 C 0.92235 0.85351 0.01983 0.0
C83 C 0.89694 0.85498 0.0641 0.0
C84 C 0.89023 0.82858 0.10309 0.0
C85 C 0.94171 0.82686 0.01905 0.0
N86 N 0.93557 0.80155 0.05919 0.0
H87 H 0.90615 0.78403 0.13635 0.0
H88 H 0.96332 0.82814 0.9909 0.0
H89 H 0.96557 0.8314 0.1767 0.0
H90 H 0.03655 0.79879 0.04832 0.0
O91 O 0.95799 0.76353 0.17099 0.0
O92 O 0.99943 0.74294 0.12018 0.0
O93 O 0.98757 0.77451 0.98672 0.0
C94 C 0.98318 0.74632 0.17485 0.0
H95 H 0.9353 0.66936 0.96917 0.0
H96 H 0.01356 0.87175 0.18172 0.0
H97 H 0.92885 0.87381 0.99027 0.0
H98 H 0.87105 0.829 0.13866 0.0
Co99 Co 0.24064 0.96859 0.07371 0.0
C100 C 0.28618 0.91399 0.06503 0.0
C101 C 0.29664 0.95146 0.9974 0.0
C102 C 0.31882 0.92833 0.98897 0.0
N103 N 0.27526 0.94211 0.04308 0.0
N104 N 0.31222 0.90482 0.03139 0.0
H105 H 0.2765 0.90102 0.10631 0.0
H106 H 0.29683 0.97416 0.97314 0.0
C107 C 0.23633 0.9731 0.92591 0.0
O108 O 0.23647 0.94214 0.92527 0.0
N109 N 0.20742 0.99625 0.10361 0.0
C110 C 0.18713 0.99144 0.15412 0.0
C111 C 0.1679 0.01748 0.15971 0.0
C112 C 0.20037 0.02493 0.07913 0.0
N113 N 0.17624 0.03836 0.11233 0.0
C114 C 0.20745 0.91002 0.08852 0.0
C115 C 0.15493 0.92841 1.01713 0.0
C116 C 0.15333 0.901 0.05551 0.0
C117 C 0.18038 0.89125 0.08968 0.0
C118 C 0.18248 0.94634 1.01691 0.0
N119 N 0.20839 0.93732 0.05277 0.0
H120 H 0.22633 0.90397 0.12171 0.0
H121 H 0.18184 0.96892 0.99237 0.0
H122 H 0.18638 0.97049 0.18461 0.0
H123 H 0.21297 0.03601 0.03867 0.0
O124 O 0.24849 0.95632 0.16449 0.0
O125 O 0.27098 0.99698 0.11467 0.0
O126 O 0.23776 0.98788 0.98146 0.0
C127 C 0.2669 0.98063 0.16894 0.0
H128 H 0.33927 0.92942 0.95682 0.0
H129 H 0.14899 0.02066 0.19525 0.0
H130 H 0.13447 0.93691 0.99036 0.0
H131 H 0.17984 0.87069 0.12149 0.0
Co132 Co 0.04453 0.77157 0.53294 0.0
C133 C 0.09854 0.7254 0.54279 0.0
C134 C 0.05948 0.71426 0.60602 0.0
C135 C 0.08229 0.69179 0.6151 0.0
N136 N 0.06994 0.73607 0.5625 0.0
N137 N 0.10678 0.69882 0.5754 0.0
H138 H 0.11272 0.73579 0.50418 0.0
H139 H 0.03636 0.71423 0.62869 0.0
C140 C 0.04091 0.77502 0.68118 0.0
O141 O 0.07186 0.77334 0.68159 0.0
N142 N 0.01791 0.80579 0.5044 0.0
C143 C 0.02311 0.82612 0.45421 0.0
C144 C 0.99734 0.84575 0.44885 0.0
C145 C 0.98931 0.81323 0.52895 0.0
N146 N 0.97626 0.83761 0.49607 0.0
C147 C 0.10319 0.80305 0.51155 0.0
C148 C 0.08965 0.85507 0.58915 0.0
C149 C 0.11528 0.85631 0.54544 0.0
C150 C 0.12252 0.82956 0.50782 0.0
C151 C 0.07063 0.82819 0.59077 0.0
N152 N 0.07736 0.80247 0.5521 0.0
H153 H 0.10739 0.78442 0.47645 0.0
H154 H 0.04891 0.82943 0.61856 0.0
H155 H 0.04403 0.82647 0.42348 0.0
H156 H 0.97789 0.80057 0.56892 0.0
O157 O 0.05567 0.76317 0.44173 0.0
O158 O 0.01456 0.74233 0.49311 0.0
O159 O 0.02603 0.77505 0.62575 0.0
C160 C 0.03069 0.74566 0.43827 0.0
H161 H 0.08044 0.67099 0.64596 0.0
H162 H 0.99441 0.86467 0.41336 0.0
H163 H 0.08277 0.87562 0.61766 0.0
H164 H 0.14188 0.8298 0.47269 0.0
Co165 Co 0.24102 0.0431 0.52678 0.0
C166 C 0.28736 0.09701 0.53736 0.0
C167 C 0.29903 0.05719 0.59793 0.0
C168 C 0.32151 0.0799 0.60782 0.0
N169 N 0.27693 0.06813 0.55552 0.0
N170 N 0.31414 0.10485 0.56982 0.0
H171 H 0.27652 0.11176 0.50031 0.0
H172 H 0.29909 0.03389 0.6196 0.0
C173 C 0.23815 0.04046 0.67523 0.0
O174 O 0.24069 0.07132 0.67504 0.0
N175 N 0.20637 0.01678 0.49929 0.0
C176 C 0.18587 0.02182 0.44926 0.0
C177 C 0.16591 0.99624 0.44508 0.0
C178 C 0.19873 0.9885 0.52487 0.0
N179 N 0.17404 0.97548 0.49287 0.0
C180 C 0.21 0.10188 0.50375 0.0
C181 C 0.15849 0.08997 0.58398 0.0
C182 C 0.15727 0.11531 0.53963 0.0
C183 C 0.18377 0.12168 0.50053 0.0
C184 C 0.18504 0.07047 0.58505 0.0
N185 N 0.21056 0.07645 0.54528 0.0
H186 H 0.22841 0.10544 0.46781 0.0
H187 H 0.18366 0.04901 0.61353 0.0
H188 H 0.18562 0.04247 0.41784 0.0
H189 H 0.21148 0.97725 0.56494 0.0
O190 O 0.24947 0.05346 0.43519 0.0
O191 O 0.26983 0.01246 0.48765 0.0
O192 O 0.23748 0.02533 0.6201 0.0
C193 C 0.2667 0.02827 0.43241 0.0
H194 H 0.34246 0.07778 0.63826 0.0
H195 H 0.14681 0.99323 0.40996 0.0
H196 H 0.1381 0.08369 0.61357 0.0
H197 H 0.18355 0.14077 0.46484 0.0
Co198 Co 0.9692 0.24053 0.52968 0.0
C199 C 0.91472 0.28613 0.54079 0.0
C200 C 0.95413 0.29791 0.6026 0.0
C201 C 0.93114 0.32017 0.6122 0.0
N202 N 0.9436 0.27587 0.55957 0.0
N203 N 0.90642 0.31274 0.57339 0.0
H204 H 0.90035 0.2754 0.50287 0.0
H205 H 0.97738 0.29821 0.62461 0.0
C206 C 0.97288 0.23719 0.6779 0.0
O207 O 0.94193 0.2389 0.67826 0.0
N208 N 0.996 0.20645 0.50084 0.0
C209 C 0.99083 0.18608 0.45061 0.0
C210 C 0.01669 0.16657 0.44503 0.0
C211 C 0.02467 0.19917 0.52518 0.0
N212 N 0.03781 0.17483 0.49213 0.0
C213 C 0.91073 0.20865 0.50823 0.0
C214 C 0.92433 0.15697 0.58651 0.0
C215 C 0.89861 0.15557 0.54304 0.0
C216 C 0.89138 0.18213 0.50498 0.0
C217 C 0.94337 0.18384 0.58763 0.0
N218 N 0.93655 0.20943 0.54879 0.0
H219 H 0.9065 0.22713 0.47288 0.0
H220 H 0.96512 0.18272 0.61532 0.0
H221 H 0.96987 0.1856 0.42002 0.0
H222 H 0.03607 0.21189 0.56515 0.0
O223 O 0.95793 0.24888 0.43853 0.0
O224 O 0.99895 0.26996 0.48983 0.0
O225 O 0.98778 0.23713 0.62247 0.0
C226 C 0.98278 0.26657 0.43505 0.0
H227 H 0.93301 0.34109 0.64278 0.0
H228 H 0.01965 0.14763 0.40948 0.0
H229 H 0.93122 0.13655 0.61529 0.0
H230 H 0.87197 0.18175 0.46996 0.0
Co231 Co 0.77265 0.96862 0.52984 0.0
C232 C 0.72614 0.91495 0.53985 0.0
C233 C 0.71506 0.95425 0.60257 0.0
C234 C 0.69244 0.93162 0.61181 0.0
N235 N 0.73692 0.94353 0.55929 0.0
N236 N 0.69944 0.90699 0.57243 0.0
H237 H 0.73656 0.90059 0.50151 0.0
H238 H 0.71514 0.9774 0.62502 0.0
C239 C 0.77593 0.97221 0.67809 0.0
O240 O 0.77389 0.94132 0.67833 0.0
N241 N 0.80712 0.99496 0.50146 0.0
C242 C 0.82752 0.98965 0.45135 0.0
C243 C 0.8474 0.01523 0.44634 0.0
C244 C 0.81475 0.02343 0.5263 0.0
N245 N 0.83934 0.03629 0.49372 0.0
C246 C 0.80386 0.90973 0.50885 0.0
C247 C 0.85569 0.92286 0.58736 0.0
C248 C 0.85684 0.89706 0.54409 0.0
C249 C 0.83019 0.89008 0.50589 0.0
C250 C 0.82903 0.9422 0.58816 0.0
N251 N 0.80336 0.93563 0.5492 0.0
H252 H 0.78532 0.90566 0.47348 0.0
H253 H 0.83039 0.96398 0.61571 0.0
H254 H 0.82777 0.96879 0.42045 0.0
H255 H 0.80209 0.03489 0.56629 0.0
O256 O 0.7643 0.95747 0.43859 0.0
O257 O 0.7436 0.9987 0.48985 0.0
O258 O 0.77614 0.98711 0.62273 0.0
C259 C 0.74686 0.98249 0.43507 0.0
H260 H 0.67159 0.93366 0.64259 0.0
H261 H 0.86643 0.01805 0.41099 0.0
H262 H 0.87619 0.92956 0.61622 0.0
H263 H 0.83038 0.87061 0.47101 0.0
Co264 Co 0.5442 0.74096 0.57663 0.0
C265 C 0.59787 0.78747 0.56639 0.0
C266 C 0.55849 0.79852 0.50395 0.0
C267 C 0.58116 0.82109 0.49454 0.0
N268 N 0.56923 0.77672 0.5472 0.0
N269 N 0.60585 0.8141 0.53374 0.0
H270 H 0.6123 0.77706 0.60456 0.0
H271 H 0.53531 0.79842 0.48158 0.0
C272 C 0.54072 0.73758 0.42831 0.0
O273 O 0.57164 0.73972 0.42802 0.0
N274 N 0.51794 0.70644 0.60497 0.0
C275 C 0.52328 0.68614 0.65515 0.0
C276 C 0.49774 0.66619 0.66015 0.0
C277 C 0.4895 0.69868 0.58009 0.0
N278 N 0.47668 0.67411 0.61271 0.0
C279 C 0.60324 0.71009 0.59795 0.0
C280 C 0.59056 0.65817 0.51944 0.0
C281 C 0.6163 0.65722 0.56289 0.0
C282 C 0.62307 0.68393 0.60103 0.0
C283 C 0.57105 0.68471 0.51842 0.0
N284 N 0.5774 0.71042 0.55741 0.0
H285 H 0.60711 0.72862 0.63343 0.0
H286 H 0.54932 0.68322 0.49071 0.0
H287 H 0.54413 0.68601 0.6861 0.0
H288 H 0.47802 0.71123 0.54004 0.0
O289 O 0.55523 0.74942 0.6679 0.0
O290 O 0.51392 0.76989 0.61658 0.0
O291 O 0.5258 0.73733 0.48371 0.0
C292 C 0.53011 0.76673 0.6714 0.0
H293 H 0.57912 0.84188 0.46371 0.0
H294 H 0.49495 0.64721 0.69555 0.0
H295 H 0.58401 0.63762 0.49061 0.0
H296 H 0.64249 0.68389 0.63604 0.0
Co297 Co 0.27283 0.5434 0.57655 0.0
C298 C 0.22666 0.59744 0.56721 0.0
C299 C 0.21556 0.5586 0.50329 0.0
C300 C 0.19309 0.58142 0.49439 0.0
N301 N 0.23737 0.56893 0.54712 0.0
N302 N 0.20009 0.60577 0.5345 0.0
H303 H 0.23701 0.61147 0.60616 0.0
H304 H 0.21553 0.53557 0.48031 0.0
C305 C 0.27635 0.53994 0.42827 0.0
O306 O 0.27469 0.57086 0.42811 0.0
N307 N 0.307 0.51663 0.60488 0.0
C308 C 0.32751 0.52169 0.6549 0.0
C309 C 0.34701 0.49581 0.65997 0.0
C310 C 0.31417 0.48801 0.5802 0.0
N311 N 0.33859 0.4748 0.61277 0.0
C312 C 0.30444 0.60201 0.59793 0.0
C313 C 0.35639 0.58851 0.52002 0.0
C314 C 0.35759 0.61429 0.56333 0.0
C315 C 0.33089 0.62146 0.60121 0.0
C316 C 0.32958 0.56936 0.51888 0.0
N317 N 0.30386 0.57612 0.55756 0.0
H318 H 0.28584 0.60622 0.63309 0.0
H319 H 0.33084 0.5476 0.49126 0.0
H320 H 0.32808 0.54258 0.68569 0.0
H321 H 0.3013 0.4767 0.54034 0.0
O322 O 0.26452 0.55452 0.66782 0.0
O323 O 0.24345 0.51357 0.61628 0.0
O324 O 0.27626 0.525 0.48359 0.0
C325 C 0.24685 0.52967 0.67117 0.0
H326 H 0.1723 0.57966 0.46334 0.0
H327 H 0.36603 0.49275 0.69527 0.0
H328 H 0.37691 0.58167 0.49137 0.0
H329 H 0.33112 0.64093 0.6361 0.0
Co330 Co 0.46899 0.27139 0.57913 0.0
C331 C 0.41528 0.22487 0.56796 0.0
C332 C 0.45559 0.21298 0.50878 0.0
C333 C 0.43296 0.19042 0.49871 0.0
N334 N 0.44429 0.23525 0.55043 0.0
N335 N 0.4077 0.19794 0.53584 0.0
H336 H 0.40022 0.23584 0.60435 0.0
H337 H 0.47905 0.21288 0.48775 0.0
C338 C 0.47276 0.27351 0.43085 0.0
O339 O 0.44188 0.27084 0.43035 0.0
N340 N 0.49494 0.30629 0.60668 0.0
C341 C 0.48756 0.32952 0.6496 0.0
C342 C 0.51238 0.35044 0.65192 0.0
C343 C 0.52412 0.31295 0.58436 0.0
N344 N 0.53528 0.33993 0.61085 0.0
C345 C 0.40988 0.30225 0.59981 0.0
C346 C 0.42231 0.35349 0.51942 0.0
C347 C 0.3969 0.35495 0.56368 0.0
C348 C 0.3902 0.32855 0.60268 0.0
C349 C 0.44168 0.32685 0.51865 0.0
N350 N 0.43555 0.30153 0.55879 0.0
H351 H 0.40613 0.28401 0.63596 0.0
H352 H 0.46329 0.32813 0.49051 0.0
H353 H 0.4655 0.33139 0.6763 0.0
H354 H 0.53656 0.29879 0.54809 0.0
O355 O 0.45797 0.26351 0.67059 0.0
O356 O 0.49942 0.24294 0.61979 0.0
O357 O 0.48756 0.27452 0.48635 0.0
C358 C 0.48317 0.24632 0.67446 0.0
H359 H 0.43533 0.16935 0.46874 0.0
H360 H 0.51349 0.37173 0.68149 0.0
H361 H 0.42881 0.37379 0.48986 0.0
H362 H 0.37102 0.32897 0.63824 0.0
Co363 Co 0.74065 0.46859 0.57427 0.0
C364 C 0.78617 0.41397 0.56553 0.0
C365 C 0.79671 0.45152 0.49815 0.0
C366 C 0.81889 0.42839 0.48967 0.0
N367 N 0.77529 0.44212 0.54369 0.0
N368 N 0.81224 0.40483 0.53193 0.0
H369 H 0.77644 0.40095 0.60668 0.0
H370 H 0.79692 0.47424 0.474 0.0
C371 C 0.73643 0.47309 0.42647 0.0
O372 O 0.7366 0.44214 0.42582 0.0
N373 N 0.70741 0.49624 0.60411 0.0
C374 C 0.6871 0.49142 0.65459 0.0
C375 C 0.66784 0.51745 0.66011 0.0
C376 C 0.70033 0.52489 0.57957 0.0
N377 N 0.67617 0.53832 0.6127 0.0
C378 C 0.70744 0.41002 0.58907 0.0
C379 C 0.65499 0.42838 0.51742 0.0
C380 C 0.65336 0.40097 0.55583 0.0
C381 C 0.68038 0.39125 0.59014 0.0
C382 C 0.68254 0.44632 0.5173 0.0
N383 N 0.70842 0.43731 0.55327 0.0
H384 H 0.7263 0.404 0.62236 0.0
H385 H 0.68192 0.46889 0.49274 0.0
H386 H 0.68636 0.47049 0.68512 0.0
H387 H 0.71293 0.53598 0.5391 0.0
O388 O 0.74847 0.45632 0.66507 0.0
O389 O 0.77096 0.49699 0.61527 0.0
O390 O 0.7378 0.48787 0.48202 0.0
C391 C 0.76687 0.48064 0.66955 0.0
H392 H 0.83936 0.42951 0.4576 0.0
H393 H 0.64892 0.52063 0.69561 0.0
H394 H 0.63456 0.43686 0.49056 0.0
H395 H 0.67982 0.3707 0.62198 0.0
Co396 Co 0.54454 0.27155 0.03257 0.0
C397 C 0.59858 0.22541 0.04261 0.0
C398 C 0.55941 0.21419 0.1055 0.0
C399 C 0.58223 0.19174 0.11469 0.0
N400 N 0.56993 0.23604 0.06212 0.0
N401 N 0.60678 0.19882 0.07521 0.0
H402 H 0.61282 0.23586 1.00417 0.0
H403 H 0.53626 0.21414 0.12802 0.0
C404 C 0.54091 0.27494 0.18081 0.0
O405 O 0.57186 0.27323 0.18123 0.0
N406 N 0.51795 0.3058 1.00404 0.0
C407 C 0.52316 0.32612 0.95386 0.0
C408 C 0.4974 0.34577 0.94849 0.0
C409 C 0.48934 0.31324 0.02857 0.0
N410 N 0.47631 0.33763 0.99569 0.0
C411 C 0.60321 0.30303 1.0112 0.0
C412 C 0.5897 0.355 0.089 0.0
C413 C 0.61533 0.35626 0.04529 0.0
C414 C 0.62255 0.32954 1.00756 0.0
C415 C 0.57067 0.32813 0.09052 0.0
N416 N 0.57739 0.30243 0.05178 0.0
H417 H 0.60739 0.28443 0.97603 0.0
H418 H 0.54895 0.32937 0.11832 0.0
H419 H 0.54409 0.32646 0.92314 0.0
H420 H 0.47791 0.30058 0.06853 0.0
O421 O 0.55568 0.26316 0.94136 0.0
O422 O 0.51456 0.24234 0.99271 0.0
O423 O 0.52603 0.27502 0.12537 0.0
C424 C 0.5307 0.24566 0.93788 0.0
H425 H 0.58035 0.17092 0.14549 0.0
H426 H 0.49448 0.36469 0.913 0.0
H427 H 0.58284 0.37553 0.11758 0.0
H428 H 0.64191 0.32979 0.97242 0.0
Co429 Co 0.74102 0.54312 0.02735 0.0
C430 C 0.78736 0.59702 0.03796 0.0
C431 C 0.799 0.55722 0.0986 0.0
C432 C 0.82149 0.57993 0.1085 0.0
N433 N 0.77692 0.56815 0.05615 0.0
N434 N 0.81413 0.60487 0.07045 0.0
H435 H 0.77654 0.61177 1.00086 0.0
H436 H 0.79905 0.53393 0.1203 0.0
C437 C 0.7381 0.54047 0.17579 0.0
O438 O 0.74063 0.57133 0.17562 0.0
N439 N 0.70637 0.5168 0.9998 0.0
C440 C 0.68588 0.52186 0.94977 0.0
C441 C 0.66595 0.49627 0.94548 0.0
C442 C 0.69875 0.4885 0.0253 0.0
N443 N 0.67408 0.47548 0.99322 0.0
C444 C 0.71 0.6019 1.0043 0.0
C445 C 0.65845 0.58997 0.0844 0.0
C446 C 0.65725 0.61531 0.04005 0.0
C447 C 0.68377 0.62169 1.00101 0.0
C448 C 0.68501 0.57048 0.08554 0.0
N449 N 0.71055 0.57647 0.04583 0.0
H450 H 0.72843 0.60547 0.96839 0.0
H451 H 0.68362 0.54902 0.11403 0.0
H452 H 0.68563 0.54253 0.9184 0.0
H453 H 0.7115 0.47723 0.06533 0.0
O454 O 0.74949 0.55349 0.93577 0.0
O455 O 0.76983 0.51249 0.98825 0.0
O456 O 0.73745 0.52534 0.12066 0.0
C457 C 0.76672 0.5283 0.93301 0.0
H458 H 0.84242 0.57781 0.13897 0.0
H459 H 0.64686 0.49326 0.91032 0.0
H460 H 0.63805 0.58369 0.11394 0.0
H461 H 0.68355 0.64078 0.96532 0.0
Co462 Co 0.46921 0.74054 0.02956 0.0
C463 C 0.41474 0.78616 0.04057 0.0
C464 C 0.45412 0.79793 0.10247 0.0
C465 C 0.43114 0.8202 0.112 0.0
N466 N 0.44361 0.77589 0.05942 0.0
N467 N 0.40644 0.81278 0.07314 0.0
H468 H 0.40039 0.77544 1.00262 0.0
H469 H 0.47737 0.79822 0.12453 0.0
C470 C 0.47286 0.73721 0.17779 0.0
O471 O 0.44192 0.73891 0.17814 0.0
N472 N 0.49601 0.70646 1.00076 0.0
C473 C 0.49086 0.68609 0.95053 0.0
C474 C 0.51672 0.66657 0.94503 0.0
C475 C 0.52467 0.69917 0.02517 0.0
N476 N 0.53781 0.67482 0.99218 0.0
C477 C 0.41074 0.70867 1.00806 0.0
C478 C 0.42433 0.65698 0.08632 0.0
C479 C 0.39862 0.65558 0.04281 0.0
C480 C 0.3914 0.68216 1.00477 0.0
C481 C 0.44336 0.68386 0.08748 0.0
N482 N 0.43655 0.70945 0.04864 0.0
H483 H 0.40652 0.72716 0.97272 0.0
H484 H 0.46511 0.68273 0.1152 0.0
H485 H 0.46991 0.68561 0.91989 0.0
H486 H 0.53605 0.71189 0.06517 0.0
O487 O 0.45796 0.74889 0.93841 0.0
O488 O 0.49897 0.76997 0.98972 0.0
O489 O 0.48777 0.73715 0.12237 0.0
C490 C 0.4828 0.76658 0.93493 0.0
H491 H 0.433 0.84112 0.14259 0.0
H492 H 0.51969 0.64762 0.9095 0.0
H493 H 0.43122 0.63655 0.11508 0.0
H494 H 0.372 0.68178 0.96973 0.0
Co495 Co 0.27268 0.46864 0.02933 0.0
C496 C 0.22618 0.41494 0.03937 0.0
C497 C 0.2151 0.45424 0.10207 0.0
C498 C 0.19249 0.43161 0.11135 0.0
N499 N 0.23696 0.44353 0.05878 0.0
N500 N 0.19949 0.40698 0.07199 0.0
H501 H 0.2366 0.40058 1.00104 0.0
H502 H 0.21517 0.4774 0.12451 0.0
C503 C 0.27596 0.47222 0.17758 0.0
O504 O 0.27394 0.44133 0.17781 0.0
N505 N 0.30713 0.49499 1.00094 0.0
C506 C 0.32753 0.4897 0.95082 0.0
C507 C 0.34741 0.51528 0.94585 0.0
C508 C 0.31476 0.52345 0.02582 0.0
N509 N 0.33935 0.53632 0.99325 0.0
C510 C 0.30391 0.40976 1.00835 0.0
C511 C 0.35574 0.4229 0.08685 0.0
C512 C 0.35689 0.3971 0.0436 0.0
C513 C 0.33024 0.39011 1.0054 0.0
C514 C 0.32907 0.44224 0.08764 0.0
N515 N 0.3034 0.43566 0.04869 0.0
H516 H 0.28536 0.40568 0.97298 0.0
H517 H 0.33043 0.46402 0.11517 0.0
H518 H 0.32778 0.46884 0.9199 0.0
H519 H 0.30211 0.5349 0.06583 0.0
O520 O 0.26432 0.45748 0.93808 0.0
O521 O 0.24361 0.4987 0.98933 0.0
O522 O 0.27616 0.48712 0.12221 0.0
C523 C 0.24687 0.48249 0.93455 0.0
H524 H 0.17165 0.43365 0.14215 0.0
H525 H 0.36645 0.51811 0.9105 0.0
H526 H 0.37624 0.42962 0.1157 0.0
H527 H 0.33044 0.37064 0.97053 0.0
C528 C 0.14302 0.34162 0.10765 0.0
C529 C 0.13306 0.33369 0.0433 0.0
H530 H 0.17222 0.37184 0.16703 0.0
C531 C 0.14786 0.3478 0.98837 0.0
H532 H 0.13173 0.33122 0.15063 0.0
C533 C 0.17135 0.37047 0.99766 0.0
C534 C 0.1798 0.3799 0.06206 0.0
H535 H 0.14047 0.34192 0.93833 0.0
H536 H 0.18153 0.38199 0.95473 0.0
C537 C 0.16595 0.36484 0.11696 0.0
C538 C 0.67234 0.14229 0.10985 0.0
C539 C 0.68055 0.13292 0.04526 0.0
H540 H 0.64175 0.17086 0.16983 0.0
C541 C 0.66656 0.14812 0.99068 0.0
H542 H 0.68263 0.13068 0.15256 0.0
C543 C 0.64372 0.17141 1.00048 0.0
C544 C 0.63399 0.17927 0.06503 0.0
H545 H 0.67265 0.14119 0.94046 0.0
H546 H 0.63231 0.18189 0.95773 0.0
C547 C 0.64895 0.16504 0.11964 0.0
C548 C 0.84231 0.64188 0.99757 0.0
C549 C 0.83356 0.6322 0.06158 0.0
H550 H 0.87351 0.67063 0.93958 0.0
C551 C 0.84704 0.64714 0.1171 0.0
H552 H 0.83241 0.63044 0.9542 0.0
C553 C 0.86995 0.67047 0.10882 0.0
C554 C 0.88027 0.67858 0.04487 0.0
H555 H 0.84055 0.63991 0.16687 0.0
H556 H 0.88101 0.68074 0.15225 0.0
C557 C 0.8658 0.66463 0.98931 0.0
C558 C 0.34109 0.86974 0.10754 0.0
C559 C 0.33193 0.87786 0.04281 0.0
H560 H 0.37261 0.8424 0.16776 0.0
C561 C 0.34519 0.86166 0.98863 0.0
H562 H 0.33137 0.88213 0.14993 0.0
C563 C 0.3683 0.83869 0.99876 0.0
C564 C 0.37901 0.83209 0.06322 0.0
H565 H 0.33836 0.86761 0.93831 0.0
H566 H 0.37914 0.82748 0.95612 0.0
C567 C 0.36472 0.84726 0.11761 0.0
C568 C 0.1436 0.67138 0.50046 0.0
C569 C 0.13395 0.67924 0.56506 0.0
H570 H 0.17247 0.64118 0.44028 0.0
C571 C 0.14896 0.66499 0.61959 0.0
H572 H 0.13215 0.68188 0.45778 0.0
C573 C 0.17234 0.64224 0.60967 0.0
C574 C 0.18048 0.63288 0.54503 0.0
H575 H 0.14183 0.67081 0.66982 0.0
H576 H 0.18268 0.63062 0.65232 0.0
C577 C 0.16643 0.6481 0.49053 0.0
C578 C 0.36992 0.17047 0.60826 0.0
C579 C 0.38027 0.17858 0.54434 0.0
H580 H 0.34051 0.1399 0.66627 0.0
C581 C 0.36583 0.16462 0.48874 0.0
H582 H 0.38097 0.18074 0.6517 0.0
C583 C 0.34233 0.14187 0.49698 0.0
C584 C 0.33356 0.1322 0.56097 0.0
H585 H 0.37355 0.17062 0.43903 0.0
H586 H 0.33245 0.13042 0.45359 0.0
C587 C 0.34701 0.14714 0.61651 0.0
C588 C 0.84107 0.36966 0.60797 0.0
C589 C 0.83192 0.37784 0.54327 0.0
H590 H 0.87258 0.34227 0.6681 0.0
C591 C 0.84518 0.36168 0.48903 0.0
H592 H 0.83134 0.38202 0.6504 0.0
C593 C 0.86828 0.33869 0.49909 0.0
C594 C 0.87899 0.33205 0.56353 0.0
H595 H 0.83836 0.36768 0.43873 0.0
H596 H 0.87912 0.32752 0.45641 0.0
C597 C 0.86469 0.34717 0.61797 0.0
C598 C 0.64289 0.84167 0.60791 0.0
C599 C 0.63304 0.83369 0.54351 0.0
H600 H 0.67198 0.87194 0.6674 0.0
C601 C 0.64793 0.84775 0.48863 0.0
H602 H 0.63153 0.8313 0.65083 0.0
C603 C 0.67139 0.87044 0.49802 0.0
C604 C 0.67974 0.87992 0.56246 0.0
H605 H 0.64063 0.84183 0.43856 0.0
H606 H 0.68165 0.88192 0.45513 0.0
C607 C 0.6658 0.8649 0.6173 0.0
C608 C 0.1593 0.08001 0.03433 0.0
C609 C 0.16223 0.06863 0.09968 0.0
H610 H 0.14219 0.11705 0.97122 0.0
C611 C 0.1509 0.08703 0.15253 0.0
H612 H 0.16763 0.06614 0.99268 0.0
C613 C 0.13682 0.11618 0.14038 0.0
C614 C 0.13336 0.12735 0.07502 0.0
H615 H 0.15308 0.07891 0.20332 0.0
H616 H 0.1279 0.12966 0.18212 0.0
C617 C 0.14468 0.10899 0.02203 0.0
C618 C 0.93506 0.15689 0.03501 0.0
C619 C 0.9466 0.15975 0.1003 0.0
H620 H 0.89782 0.13994 0.97204 0.0
C621 C 0.92834 0.1483 0.15318 0.0
H622 H 0.94882 0.16534 0.99335 0.0
C623 C 0.89912 0.13428 0.14113 0.0
C624 C 0.88775 0.13098 0.07583 0.0
H625 H 0.93657 0.15044 0.20393 0.0
H626 H 0.88568 0.12536 0.18287 0.0
C627 C 0.90603 0.14231 0.0228 0.0
C628 C 0.87762 0.89681 0.14151 0.0
C629 C 0.88042 0.88521 0.07627 0.0
H630 H 0.86227 0.93462 0.20425 0.0
C631 C 0.86894 0.90342 0.02331 0.0
H632 H 0.88669 0.88345 0.1832 0.0
C633 C 0.85478 0.93265 0.03551 0.0
C634 C 0.85246 0.94444 0.10073 0.0
H635 H 0.87094 0.89505 0.97258 0.0
H636 H 0.84627 0.94637 0.99388 0.0
C637 C 0.86399 0.9262 0.15355 0.0
C638 C 0.1204 0.85197 0.0658 0.0
C639 C 0.12268 0.88497 0.06663 0.0
H640 H 0.0906 0.8117 0.07927 0.0
C641 C 0.09572 0.90284 0.08191 0.0
H642 H 0.14082 0.83763 0.05432 0.0
C643 C 0.06717 0.88806 0.09667 0.0
C644 C 0.06483 0.85508 0.09592 0.0
H645 H 0.09685 0.92831 0.08398 0.0
H646 H 0.04684 0.90247 0.10817 0.0
C647 C 0.09167 0.83717 0.0798 0.0
C648 C 0.15735 0.93418 0.57188 0.0
C649 C 0.15983 0.94539 0.50631 0.0
H650 H 0.14099 0.89716 0.63589 0.0
C651 C 0.14825 0.92681 0.45401 0.0
H652 H 0.1659 0.94819 0.61311 0.0
C653 C 0.13451 0.89757 0.4669 0.0
C654 C 0.13163 0.88651 0.53247 0.0
H655 H 0.1501 0.93479 0.40306 0.0
H656 H 0.12549 0.88387 0.42559 0.0
C657 C 0.14305 0.90513 0.58493 0.0
C658 C 0.08003 0.15827 0.56929 0.0
C659 C 0.06818 0.16085 0.50421 0.0
H660 H 0.11756 0.14157 0.63172 0.0
C661 C 0.08629 0.14931 0.45109 0.0
H662 H 0.06642 0.16679 0.61115 0.0
C663 C 0.11559 0.13535 0.46272 0.0
C664 C 0.12722 0.13224 0.52784 0.0
H665 H 0.07783 0.15123 0.40048 0.0
H666 H 0.12882 0.12626 0.42081 0.0
C667 C 0.10916 0.14379 0.58108 0.0
C668 C 0.8563 0.07804 0.57163 0.0
C669 C 0.85359 0.06645 0.50633 0.0
H670 H 0.873 0.11536 0.63465 0.0
C671 C 0.86507 0.08469 0.45349 0.0
H672 H 0.84783 0.06429 0.61326 0.0
C673 C 0.87897 0.11395 0.46559 0.0
C674 C 0.8821 0.12536 0.53089 0.0
H675 H 0.86305 0.07642 0.40273 0.0
H676 H 0.88792 0.12737 0.42388 0.0
C677 C 0.87075 0.1071 0.58388 0.0
C678 C 0.92769 0.86295 0.45524 0.0
C679 C 0.94594 0.85168 0.50832 0.0
H680 H 0.885 0.88572 0.42514 0.0
C681 C 0.93428 0.85453 0.57351 0.0
H682 H 0.93603 0.86081 0.40456 0.0
C683 C 0.90516 0.86901 0.58544 0.0
C684 C 0.88693 0.88024 0.53223 0.0
H685 H 0.94803 0.84622 0.61531 0.0
H686 H 0.89689 0.87144 0.63614 0.0
C687 C 0.89839 0.87687 0.46702 0.0
C688 C 0.65922 0.57991 0.53458 0.0
C689 C 0.66214 0.56857 0.59997 0.0
H690 H 0.64211 0.61691 0.47138 0.0
C691 C 0.6508 0.58699 0.65276 0.0
H692 H 0.66757 0.56602 0.49298 0.0
C693 C 0.63671 0.61613 0.64053 0.0
C694 C 0.63326 0.62726 0.57514 0.0
H695 H 0.65297 0.57889 0.70357 0.0
H696 H 0.62779 0.62963 0.68223 0.0
C697 C 0.64459 0.60888 0.52221 0.0
C698 C 0.39905 0.63427 0.64082 0.0
C699 C 0.38773 0.63097 0.5755 0.0
H700 H 0.43648 0.65044 0.7037 0.0
C701 C 0.40603 0.64229 0.5225 0.0
H702 H 0.3856 0.62535 0.68253 0.0
C703 C 0.43505 0.65688 0.53477 0.0
C704 C 0.44655 0.65974 0.60009 0.0
H705 H 0.39784 0.63992 0.47172 0.0
H706 H 0.44883 0.66532 0.49314 0.0
C707 C 0.42827 0.64829 0.65293 0.0
C708 C 0.36393 0.42617 0.6531 0.0
C709 C 0.35241 0.44441 0.60027 0.0
H710 H 0.38662 0.38342 0.68277 0.0
C711 C 0.35473 0.43262 0.53506 0.0
H712 H 0.3622 0.43459 0.7038 0.0
C713 C 0.36889 0.40339 0.52287 0.0
C714 C 0.38036 0.38517 0.57583 0.0
H715 H 0.34623 0.44634 0.49342 0.0
H716 H 0.3709 0.39502 0.47214 0.0
C717 C 0.37756 0.39678 0.64107 0.0
C718 C 0.59168 0.33715 0.57985 0.0
C719 C 0.56482 0.35506 0.59585 0.0
H720 H 0.64085 0.33761 0.55461 0.0
C721 C 0.56716 0.38804 0.5966 0.0
H722 H 0.5906 0.31168 0.57932 0.0
C723 C 0.59573 0.40282 0.58198 0.0
C724 C 0.62271 0.38495 0.56683 0.0
H725 H 0.54682 0.40245 0.60801 0.0
H726 H 0.59686 0.42829 0.58406 0.0
C727 C 0.62042 0.35195 0.56599 0.0
C728 C 0.64834 0.42682 0.95415 0.0
C729 C 0.65989 0.44537 1.00653 0.0
H730 H 0.6256 0.3839 0.92555 0.0
C731 C 0.6574 0.4341 0.07206 0.0
H732 H 0.6502 0.43484 0.90323 0.0
C733 C 0.64311 0.40504 0.08499 0.0
C734 C 0.63171 0.38646 0.03245 0.0
H735 H 0.66594 0.44809 0.11335 0.0
H736 H 0.64103 0.39703 0.13591 0.0
C737 C 0.6346 0.39757 0.96691 0.0
C738 C 0.58631 0.64927 0.95129 0.0
C739 C 0.56818 0.66083 1.00435 0.0
H740 H 0.62886 0.62622 0.92114 0.0
C741 C 0.57999 0.65826 0.06947 0.0
H742 H 0.57788 0.65119 0.90065 0.0
C743 C 0.6091 0.64378 0.08134 0.0
C744 C 0.62719 0.63222 0.02816 0.0
H745 H 0.56635 0.66679 0.11128 0.0
H746 H 0.61747 0.64158 0.13201 0.0
C747 C 0.6156 0.63532 0.96301 0.0
C748 C 0.36511 0.58473 0.95312 0.0
C749 C 0.35361 0.56648 1.00592 0.0
H750 H 0.38796 0.62742 0.9236 0.0
C751 C 0.35631 0.57804 0.07124 0.0
H752 H 0.36309 0.57648 0.90235 0.0
C753 C 0.37076 0.6071 0.08355 0.0
C754 C 0.38212 0.62538 0.0306 0.0
H755 H 0.34782 0.56428 0.11284 0.0
H756 H 0.373 0.61534 0.13433 0.0
C757 C 0.379 0.61398 0.96528 0.0
C758 C 0.43432 0.35457 0.07309 0.0
C759 C 0.44599 0.35171 1.00791 0.0
H760 H 0.39692 0.37148 0.13568 0.0
C761 C 0.42775 0.36298 0.95482 0.0
H762 H 0.44806 0.34625 0.1149 0.0
C763 C 0.39845 0.3769 0.96657 0.0
C764 C 0.38698 0.38027 0.03177 0.0
H765 H 0.43609 0.36083 0.90414 0.0
H766 H 0.38507 0.38575 0.92468 0.0
C767 C 0.4052 0.36904 0.08499 0.0
C768 C 0.9739 0.27778 0.31451 0.0
C769 C 0.99466 0.27654 0.36908 0.0
H770 H 0.96893 0.27664 0.20839 0.0
C771 C 0.02721 0.27849 0.35728 0.0
H772 H 0.94865 0.2763 0.32214 0.0
C773 C 0.03881 0.27823 0.29204 0.0
C774 C 0.01807 0.2766 0.23748 0.0
H775 H 0.04378 0.27733 0.39817 0.0
H776 H 0.06407 0.27711 0.28442 0.0
C777 C 0.98549 0.2781 0.24928 0.0
C778 C 0.7355 0.97367 0.31453 0.0
C779 C 0.73695 0.99441 0.36911 0.0
H780 H 0.73652 0.96868 0.2084 0.0
C781 C 0.7352 0.02694 0.35738 0.0
H782 H 0.73681 0.94845 0.32212 0.0
C783 C 0.73548 0.03851 0.29217 0.0
C784 C 0.73691 0.01776 0.23758 0.0
H785 H 0.7365 0.0435 0.3983 0.0
H786 H 0.73678 0.06373 0.28458 0.0
C787 C 0.73519 0.98524 0.24932 0.0
C788 C 0.02765 0.73435 0.25251 0.0
C789 C 0.9951 0.73649 0.24087 0.0
H790 H 0.06457 0.73535 0.32525 0.0
C791 C 0.97437 0.7352 0.29546 0.0
H792 H 0.0442 0.73549 0.21157 0.0
C793 C 0.98601 0.73463 0.36064 0.0
C794 C 0.0186 0.73592 0.37232 0.0
H795 H 0.94912 0.73678 0.28794 0.0
H796 H 0.96949 0.73606 0.4016 0.0
C797 C 0.0393 0.73436 0.31769 0.0
C798 C 0.2793 0.03634 0.31229 0.0
C799 C 0.27659 0.0158 0.36684 0.0
H800 H 0.27942 0.04117 0.20618 0.0
C801 C 0.27703 0.98319 0.35523 0.0
H802 H 0.27897 0.06161 0.3198 0.0
C803 C 0.27678 0.9715 0.29003 0.0
C804 C 0.27671 0.99218 0.23536 0.0
H805 H 0.27469 0.9668 0.39616 0.0
H806 H 0.27447 0.94634 0.28244 0.0
C807 C 0.27968 0.02463 0.24714 0.0
C808 C 0.9739 0.77502 0.80646 0.0
C809 C 0.99024 0.775 0.86736 0.0
H810 H 0.97693 0.77523 0.70014 0.0
C811 C 0.02336 0.77588 0.8664 0.0
H812 H 0.94838 0.77446 0.80527 0.0
C813 C 0.03974 0.77624 0.80599 0.0
C814 C 0.02341 0.77583 0.74508 0.0
H815 H 0.0367 0.77595 0.91232 0.0
H816 H 0.06526 0.77659 0.80716 0.0
C817 C 0.99028 0.77549 0.74605 0.0
C818 C 0.23755 0.0398 0.80015 0.0
C819 C 0.2366 0.02332 0.73941 0.0
H820 H 0.23807 0.03702 0.90656 0.0
C821 C 0.23473 0.99029 0.74075 0.0
H822 H 0.23891 0.06527 0.80102 0.0
C823 C 0.2343 0.97411 0.80129 0.0
C824 C 0.23569 0.99055 0.86203 0.0
H825 H 0.23388 0.97683 0.695 0.0
H826 H 0.23313 0.94864 0.80032 0.0
C827 C 0.23706 0.02361 0.86076 0.0
C828 C 0.03975 0.23627 0.80358 0.0
C829 C 0.02333 0.23634 0.8644 0.0
H830 H 0.03685 0.23632 0.69721 0.0
C831 C 0.99021 0.2358 0.86322 0.0
H832 H 0.06527 0.23659 0.80255 0.0
C833 C 0.97391 0.23573 0.80271 0.0
C834 C 0.99032 0.23611 0.74188 0.0
H835 H 0.9768 0.23576 0.90906 0.0
H836 H 0.94838 0.23563 0.80374 0.0
C837 C 0.02344 0.2361 0.74305 0.0
C838 C 0.77734 0.97319 0.80289 0.0
C839 C 0.77722 0.9896 0.74212 0.0
H840 H 0.77731 0.97606 0.90924 0.0
C841 C 0.77771 0.02268 0.7434 0.0
H842 H 0.77707 0.94769 0.80384 0.0
C843 C 0.77777 0.03896 0.80396 0.0
C844 C 0.77744 0.02255 0.86473 0.0
H845 H 0.77771 0.03608 0.6976 0.0
H846 H 0.77783 0.06446 0.80302 0.0
C847 C 0.77749 0.98946 0.86345 0.0
C848 C 0.47392 0.77781 0.81441 0.0
C849 C 0.49468 0.77655 0.86897 0.0
H850 H 0.46895 0.77667 0.70829 0.0
C851 C 0.52723 0.77849 0.85716 0.0
H852 H 0.44868 0.77634 0.82205 0.0
C853 C 0.53883 0.77822 0.79192 0.0
C854 C 0.51808 0.7766 0.73737 0.0
H855 H 0.54381 0.77732 0.89805 0.0
H856 H 0.56409 0.77708 0.78429 0.0
C857 C 0.48551 0.77813 0.74917 0.0
C858 C 0.23517 0.52692 0.85686 0.0
C859 C 0.23694 0.4944 0.8686 0.0
H860 H 0.23671 0.56371 0.78406 0.0
C861 C 0.23551 0.47365 0.81401 0.0
H862 H 0.23646 0.54348 0.89778 0.0
C863 C 0.23519 0.48522 0.7488 0.0
C864 C 0.23688 0.51775 0.73707 0.0
H865 H 0.23684 0.44843 0.8216 0.0
H866 H 0.23652 0.46866 0.70788 0.0
C867 C 0.23543 0.53849 0.79165 0.0
C868 C 0.5393 0.23439 0.81729 0.0
C869 C 0.5186 0.23594 0.87192 0.0
H870 H 0.5442 0.23551 0.71117 0.0
C871 C 0.48601 0.23463 0.86024 0.0
H872 H 0.56457 0.23538 0.82486 0.0
C873 C 0.47437 0.2352 0.79507 0.0
C874 C 0.4951 0.23649 0.74047 0.0
H875 H 0.4695 0.23605 0.90121 0.0
H876 H 0.44912 0.23677 0.78755 0.0
C877 C 0.52765 0.23436 0.75211 0.0
C878 C 0.77673 0.47151 0.79064 0.0
C879 C 0.77668 0.49218 0.73597 0.0
H880 H 0.77464 0.46681 0.89677 0.0
C881 C 0.77969 0.52464 0.74775 0.0
H882 H 0.7744 0.44635 0.78305 0.0
C883 C 0.77932 0.53635 0.81289 0.0
C884 C 0.77659 0.51581 0.86744 0.0
H885 H 0.77945 0.54117 0.70677 0.0
H886 H 0.77902 0.56162 0.82039 0.0
C887 C 0.77701 0.48321 0.85584 0.0
C888 C 0.49028 0.27546 0.24567 0.0
C889 C 0.52341 0.27577 0.2447 0.0
H890 H 0.44838 0.27448 0.30489 0.0
C891 C 0.53974 0.27616 0.30562 0.0
H892 H 0.47693 0.27521 0.19976 0.0
C893 C 0.52336 0.27583 0.36602 0.0
C894 C 0.49024 0.27498 0.36699 0.0
H895 H 0.56526 0.27649 0.30679 0.0
H896 H 0.5367 0.27589 0.41195 0.0
C897 C 0.4739 0.27501 0.30608 0.0
C898 C 0.73706 0.52361 0.36132 0.0
C899 C 0.73575 0.49055 0.36259 0.0
H900 H 0.73881 0.56527 0.3016 0.0
C901 C 0.7344 0.47411 0.30184 0.0
H902 H 0.73804 0.53702 0.40713 0.0
C903 C 0.73479 0.49029 0.24131 0.0
C904 C 0.73659 0.52332 0.23998 0.0
H905 H 0.73328 0.44863 0.30086 0.0
H906 H 0.73396 0.47683 0.19555 0.0
C907 C 0.7375 0.5398 0.30072 0.0
C908 C 0.49019 0.73579 0.36312 0.0
C909 C 0.52331 0.73628 0.3643 0.0
H910 H 0.44836 0.73569 0.30364 0.0
C911 C 0.53973 0.73617 0.30347 0.0
H912 H 0.47678 0.73578 0.40896 0.0
C913 C 0.52343 0.73604 0.24295 0.0
C914 C 0.4903 0.7361 0.24178 0.0
H915 H 0.56526 0.73645 0.30245 0.0
H916 H 0.53683 0.73623 0.19711 0.0
C917 C 0.47389 0.73575 0.3026 0.0
C918 C 0.27737 0.4732 0.30237 0.0
C919 C 0.27725 0.48961 0.24161 0.0
H920 H 0.27733 0.47607 0.40872 0.0
C921 C 0.27773 0.5227 0.24289 0.0
H922 H 0.2771 0.4477 0.30332 0.0
C923 C 0.27779 0.53897 0.30346 0.0
C924 C 0.27745 0.52256 0.36422 0.0
H925 H 0.27773 0.53609 0.1971 0.0
H926 H 0.27784 0.56447 0.30252 0.0
C927 C 0.27751 0.48947 0.36293 0.0
loop_
_geom_bond_atom_site_label_1
_geom_bond_atom_site_label_2
_geom_bond_distance
_geom_bond_site_symmetry_2
_ccdc_geom_bond_type
Co0 N4 2.148 . S
Co0 N10 2.128 1_455 S
Co0 N20 2.194 . S
Co0 O25 2.351 . S
Co0 O26 2.155 1_455 S
Co0 O27 2.096 1_454 S
C1 N4 1.301 . S
C1 N5 1.328 . S
C1 H6 0.930 . S
C2 C3 1.333 . S
C2 N4 1.317 1_556 S
C2 H7 0.930 . S
C3 C2 1.333 . S
C3 N5 1.350 1_556 S
C3 H29 0.931 . S
N4 Co0 2.148 . S
N4 C1 1.301 . S
N4 C2 1.317 1_554 S
N5 C1 1.328 . S
N5 C3 1.350 1_554 S
H6 C1 0.930 . S
H7 C2 0.930 . S
C8 O9 1.224 . S
C8 O27 1.247 1_455 S
O9 C8 1.224 . S
N10 Co0 2.128 1_655 S
N10 C11 1.355 . S
N10 C13 1.311 1_554 S
C11 N10 1.355 . S
C11 C12 1.363 . S
C11 H23 0.929 1_655 S
C12 C11 1.363 . S
C12 N14 1.375 . S
C12 H30 0.931 . S
C13 N10 1.311 1_556 S
C13 N14 1.347 1_556 S
C13 H24 0.929 . S
N14 C12 1.375 . S
N14 C13 1.347 1_554 S
C15 C18 1.365 . S
C15 N20 1.328 . S
C15 H21 0.929 . S
C16 C17 1.362 1_556 S
C16 C19 1.378 . S
C16 H31 0.929 . S
C17 C16 1.362 1_554 S
C17 C18 1.366 . S
C18 C15 1.365 . S
C18 C17 1.366 . S
C18 H32 0.930 . S
C19 C16 1.378 . S
C19 N20 1.315 1_556 S
C19 H22 0.930 . S
N20 Co0 2.194 . S
N20 C15 1.328 . S
N20 C19 1.315 1_554 S
H21 C15 0.929 . S
H22 C19 0.930 . S
H23 C11 0.929 1_455 S
H24 C13 0.929 . S
O25 Co0 2.351 . S
O25 C28 1.244 . S
O26 Co0 2.155 1_655 S
O26 C28 1.240 1_655 S
O27 Co0 2.096 1_656 S
O27 C8 1.247 1_655 S
C28 O25 1.244 . S
C28 O26 1.240 1_455 S
H29 C3 0.931 . S
H30 C12 0.931 . S
H31 C16 0.929 . S
H32 C18 0.930 . S
Co33 N37 2.148 . S
Co33 N43 2.128 1_545 S
Co33 N53 2.194 . S
Co33 O58 2.351 . S
Co33 O59 2.155 1_545 S
Co33 O60 2.096 1_544 S
C34 N37 1.301 . S
C34 N38 1.328 . S
C34 H39 0.930 . S
C35 C36 1.333 . S
C35 N37 1.317 1_556 S
C35 H40 0.930 . S
C36 C35 1.333 . S
C36 N38 1.350 1_556 S
C36 H62 0.931 . S
N37 Co33 2.148 . S
N37 C34 1.301 . S
N37 C35 1.317 1_554 S
N38 C34 1.328 . S
N38 C36 1.350 1_554 S
H39 C34 0.930 . S
H40 C35 0.930 . S
C41 O42 1.224 . S
C41 O60 1.247 1_545 S
O42 C41 1.224 . S
N43 Co33 2.128 1_565 S
N43 C44 1.355 . S
N43 C46 1.311 1_554 S
C44 N43 1.355 . S
C44 C45 1.363 . S
C44 H56 0.929 1_565 S
C45 C44 1.363 . S
C45 N47 1.375 . S
C45 H63 0.931 . S
C46 N43 1.311 1_556 S
C46 N47 1.347 1_556 S
C46 H57 0.929 . S
N47 C45 1.375 . S
N47 C46 1.347 1_554 S
C48 C51 1.365 . S
C48 N53 1.328 . S
C48 H54 0.929 . S
C49 C50 1.362 1_556 S
C49 C52 1.378 . S
C49 H64 0.929 . S
C50 C49 1.362 1_554 S
C50 C51 1.366 . S
C51 C48 1.365 . S
C51 C50 1.366 . S
C51 H65 0.930 . S
C52 C49 1.378 . S
C52 N53 1.315 1_556 S
C52 H55 0.930 . S
N53 Co33 2.194 . S
N53 C48 1.328 . S
N53 C52 1.315 1_554 S
H54 C48 0.929 . S
H55 C52 0.930 . S
H56 C44 0.929 1_545 S
H57 C46 0.929 . S
O58 Co33 2.351 . S
O58 C61 1.244 . S
O59 Co33 2.155 1_565 S
O59 C61 1.240 1_565 S
O60 Co33 2.096 1_566 S
O60 C41 1.247 1_565 S
C61 O58 1.244 . S
C61 O59 1.240 1_545 S
H62 C36 0.931 . S
H63 C45 0.931 . S
H64 C49 0.929 . S
H65 C51 0.930 . S
Co66 N70 2.148 . S
Co66 N76 2.128 1_655 S
Co66 N86 2.194 . S
Co66 O91 2.351 . S
Co66 O92 2.155 1_655 S
Co66 O93 2.096 1_654 S
C67 N70 1.301 . S
C67 N71 1.328 . S
C67 H72 0.930 . S
C68 C69 1.333 . S
C68 N70 1.317 1_556 S
C68 H73 0.930 . S
C69 C68 1.333 . S
C69 N71 1.350 1_556 S
C69 H95 0.931 . S
N70 Co66 2.148 . S
N70 C67 1.301 . S
N70 C68 1.317 1_554 S
N71 C67 1.328 . S
N71 C69 1.350 1_554 S
H72 C67 0.930 . S
H73 C68 0.930 . S
C74 O75 1.224 . S
C74 O93 1.247 1_655 S
O75 C74 1.224 . S
N76 Co66 2.128 1_455 S
N76 C77 1.355 . S
N76 C79 1.311 1_554 S
C77 N76 1.355 . S
C77 C78 1.363 . S
C77 H89 0.929 1_455 S
C78 C77 1.363 . S
C78 N80 1.375 . S
C78 H96 0.931 . S
C79 N76 1.311 1_556 S
C79 N80 1.347 1_556 S
C79 H90 0.929 . S
N80 C78 1.375 . S
N80 C79 1.347 1_554 S
C81 C84 1.365 . S
C81 N86 1.328 . S
C81 H87 0.929 . S
C82 C83 1.362 1_556 S
C82 C85 1.378 . S
C82 H97 0.929 . S
C83 C82 1.362 1_554 S
C83 C84 1.366 . S
C84 C81 1.365 . S
C84 C83 1.366 . S
C84 H98 0.930 . S
C85 C82 1.378 . S
C85 N86 1.315 1_556 S
C85 H88 0.930 . S
N86 Co66 2.194 . S
N86 C81 1.328 . S
N86 C85 1.315 1_554 S
H87 C81 0.929 . S
H88 C85 0.930 . S
H89 C77 0.929 1_655 S
H90 C79 0.929 . S
O91 Co66 2.351 . S
O91 C94 1.244 . S
O92 Co66 2.155 1_455 S
O92 C94 1.240 1_455 S
O93 Co66 2.096 1_456 S
O93 C74 1.247 1_455 S
C94 O91 1.244 . S
C94 O92 1.240 1_655 S
H95 C69 0.931 . S
H96 C78 0.931 . S
H97 C82 0.929 . S
H98 C84 0.930 . S
Co99 N103 2.148 . S
Co99 N109 2.128 1_565 S
Co99 N119 2.194 . S
Co99 O124 2.351 . S
Co99 O125 2.155 1_565 S
Co99 O126 2.096 1_564 S
C100 N103 1.301 . S
C100 N104 1.328 . S
C100 H105 0.930 . S
C101 C102 1.333 . S
C101 N103 1.317 1_556 S
C101 H106 0.930 . S
C102 C101 1.333 . S
C102 N104 1.350 1_556 S
C102 H128 0.931 . S
N103 Co99 2.148 . S
N103 C100 1.301 . S
N103 C101 1.317 1_554 S
N104 C100 1.328 . S
N104 C102 1.350 1_554 S
H105 C100 0.930 . S
H106 C101 0.930 . S
C107 O108 1.224 . S
C107 O126 1.247 1_565 S
O108 C107 1.224 . S
N109 Co99 2.128 1_545 S
N109 C110 1.355 . S
N109 C112 1.311 1_554 S
C110 N109 1.355 . S
C110 C111 1.363 . S
C110 H122 0.929 1_545 S
C111 C110 1.363 . S
C111 N113 1.375 . S
C111 H129 0.931 . S
C112 N109 1.311 1_556 S
C112 N113 1.347 1_556 S
C112 H123 0.929 . S
N113 C111 1.375 . S
N113 C112 1.347 1_554 S
C114 C117 1.365 . S
C114 N119 1.328 . S
C114 H120 0.929 . S
C115 C116 1.362 1_556 S
C115 C118 1.378 . S
C115 H130 0.929 . S
C116 C115 1.362 1_554 S
C116 C117 1.366 . S
C117 C114 1.365 . S
C117 C116 1.366 . S
C117 H131 0.930 . S
C118 C115 1.378 . S
C118 N119 1.315 1_556 S
C118 H121 0.930 . S
N119 Co99 2.194 . S
N119 C114 1.328 . S
N119 C118 1.315 1_554 S
H120 C114 0.929 . S
H121 C118 0.930 . S
H122 C110 0.929 1_565 S
H123 C112 0.929 . S
O124 Co99 2.351 . S
O124 C127 1.244 . S
O125 Co99 2.155 1_545 S
O125 C127 1.240 1_545 S
O126 Co99 2.096 1_546 S
O126 C107 1.247 1_545 S
C127 O124 1.244 . S
C127 O125 1.240 1_565 S
H128 C102 0.931 . S
H129 C111 0.931 . S
H130 C115 0.929 . S
H131 C117 0.930 . S
Co132 N136 2.148 . S
Co132 N142 2.128 1_455 S
Co132 N152 2.194 . S
Co132 O157 2.351 . S
Co132 O158 2.155 1_455 S
Co132 O159 2.096 1_455 S
C133 N136 1.301 . S
C133 N137 1.328 . S
C133 H138 0.930 . S
C134 C135 1.333 . S
C134 N136 1.317 . S
C134 H139 0.930 . S
C135 C134 1.333 . S
C135 N137 1.350 . S
C135 H161 0.931 . S
N136 Co132 2.148 . S
N136 C133 1.301 . S
N136 C134 1.317 . S
N137 C133 1.328 . S
N137 C135 1.350 . S
H138 C133 0.930 . S
H139 C134 0.930 . S
C140 O141 1.224 . S
C140 O159 1.247 1_455 S
O141 C140 1.224 . S
N142 Co132 2.128 1_655 S
N142 C143 1.355 . S
N142 C145 1.311 . S
C143 N142 1.355 . S
C143 C144 1.363 . S
C143 H155 0.929 1_655 S
C144 C143 1.363 . S
C144 N146 1.375 . S
C144 H162 0.931 . S
C145 N142 1.311 . S
C145 N146 1.347 . S
C145 H156 0.929 . S
N146 C144 1.375 . S
N146 C145 1.347 . S
C147 C150 1.365 . S
C147 N152 1.328 . S
C147 H153 0.929 . S
C148 C149 1.362 . S
C148 C151 1.378 . S
C148 H163 0.929 . S
C149 C148 1.362 . S
C149 C150 1.366 . S
C150 C147 1.365 . S
C150 C149 1.366 . S
C150 H164 0.930 . S
C151 C148 1.378 . S
C151 N152 1.315 . S
C151 H154 0.930 . S
N152 Co132 2.194 . S
N152 C147 1.328 . S
N152 C151 1.315 . S
H153 C147 0.929 . S
H154 C151 0.930 . S
H155 C143 0.929 1_455 S
H156 C145 0.929 . S
O157 Co132 2.351 . S
O157 C160 1.244 . S
O158 Co132 2.155 1_655 S
O158 C160 1.240 1_655 S
O159 Co132 2.096 1_655 S
O159 C140 1.247 1_655 S
C160 O157 1.244 . S
C160 O158 1.240 1_455 S
H161 C135 0.931 . S
H162 C144 0.931 . S
H163 C148 0.929 . S
H164 C150 0.930 . S
Co165 N169 2.148 . S
Co165 N175 2.128 1_545 S
Co165 N185 2.194 . S
Co165 O190 2.351 . S
Co165 O191 2.155 1_545 S
Co165 O192 2.096 1_545 S
C166 N169 1.301 . S
C166 N170 1.328 . S
C166 H171 0.930 . S
C167 C168 1.333 . S
C167 N169 1.317 . S
C167 H172 0.930 . S
C168 C167 1.333 . S
C168 N170 1.350 . S
C168 H194 0.931 . S
N169 Co165 2.148 . S
N169 C166 1.301 . S
N169 C167 1.317 . S
N170 C166 1.328 . S
N170 C168 1.350 . S
H171 C166 0.930 . S
H172 C167 0.930 . S
C173 O174 1.224 . S
C173 O192 1.247 1_545 S
O174 C173 1.224 . S
N175 Co165 2.128 1_565 S
N175 C176 1.355 . S
N175 C178 1.311 . S
C176 N175 1.355 . S
C176 C177 1.363 . S
C176 H188 0.929 1_565 S
C177 C176 1.363 . S
C177 N179 1.375 . S
C177 H195 0.931 . S
C178 N175 1.311 . S
C178 N179 1.347 . S
C178 H189 0.929 . S
N179 C177 1.375 . S
N179 C178 1.347 . S
C180 C183 1.365 . S
C180 N185 1.328 . S
C180 H186 0.929 . S
C181 C182 1.362 . S
C181 C184 1.378 . S
C181 H196 0.929 . S
C182 C181 1.362 . S
C182 C183 1.366 . S
C183 C180 1.365 . S
C183 C182 1.366 . S
C183 H197 0.930 . S
C184 C181 1.378 . S
C184 N185 1.315 . S
C184 H187 0.930 . S
N185 Co165 2.194 . S
N185 C180 1.328 . S
N185 C184 1.315 . S
H186 C180 0.929 . S
H187 C184 0.930 . S
H188 C176 0.929 1_545 S
H189 C178 0.929 . S
O190 Co165 2.351 . S
O190 C193 1.244 . S
O191 Co165 2.155 1_565 S
O191 C193 1.240 1_565 S
O192 Co165 2.096 1_565 S
O192 C173 1.247 1_565 S
C193 O190 1.244 . S
C193 O191 1.240 1_545 S
H194 C168 0.931 . S
H195 C177 0.931 . S
H196 C181 0.929 . S
H197 C183 0.930 . S
Co198 N202 2.148 . S
Co198 N208 2.128 1_655 S
Co198 N218 2.194 . S
Co198 O223 2.351 . S
Co198 O224 2.155 1_655 S
Co198 O225 2.096 1_655 S
C199 N202 1.301 . S
C199 N203 1.328 . S
C199 H204 0.930 . S
C200 C201 1.333 . S
C200 N202 1.317 . S
C200 H205 0.930 . S
C201 C200 1.333 . S
C201 N203 1.350 . S
C201 H227 0.931 . S
N202 Co198 2.148 . S
N202 C199 1.301 . S
N202 C200 1.317 . S
N203 C199 1.328 . S
N203 C201 1.350 . S
H204 C199 0.930 . S
H205 C200 0.930 . S
C206 O207 1.224 . S
C206 O225 1.247 1_655 S
O207 C206 1.224 . S
N208 Co198 2.128 1_455 S
N208 C209 1.355 . S
N208 C211 1.311 . S
C209 N208 1.355 . S
C209 C210 1.363 . S
C209 H221 0.929 1_455 S
C210 C209 1.363 . S
C210 N212 1.375 . S
C210 H228 0.931 . S
C211 N208 1.311 . S
C211 N212 1.347 . S
C211 H222 0.929 . S
N212 C210 1.375 . S
N212 C211 1.347 . S
C213 C216 1.365 . S
C213 N218 1.328 . S
C213 H219 0.929 . S
C214 C215 1.362 . S
C214 C217 1.378 . S
C214 H229 0.929 . S
C215 C214 1.362 . S
C215 C216 1.366 . S
C216 C213 1.365 . S
C216 C215 1.366 . S
C216 H230 0.930 . S
C217 C214 1.378 . S
C217 N218 1.315 . S
C217 H220 0.930 . S
N218 Co198 2.194 . S
N218 C213 1.328 . S
N218 C217 1.315 . S
H219 C213 0.929 . S
H220 C217 0.930 . S
H221 C209 0.929 1_655 S
H222 C211 0.929 . S
O223 Co198 2.351 . S
O223 C226 1.244 . S
O224 Co198 2.155 1_455 S
O224 C226 1.240 1_455 S
O225 Co198 2.096 1_455 S
O225 C206 1.247 1_455 S
C226 O223 1.244 . S
C226 O224 1.240 1_655 S
H227 C201 0.931 . S
H228 C210 0.931 . S
H229 C214 0.929 . S
H230 C216 0.930 . S
Co231 N235 2.148 . S
Co231 N241 2.128 1_565 S
Co231 N251 2.194 . S
Co231 O256 2.351 . S
Co231 O257 2.155 1_565 S
Co231 O258 2.096 1_565 S
C232 N235 1.301 . S
C232 N236 1.328 . S
C232 H237 0.930 . S
C233 C234 1.333 . S
C233 N235 1.317 . S
C233 H238 0.930 . S
C234 C233 1.333 . S
C234 N236 1.350 . S
C234 H260 0.931 . S
N235 Co231 2.148 . S
N235 C232 1.301 . S
N235 C233 1.317 . S
N236 C232 1.328 . S
N236 C234 1.350 . S
H237 C232 0.930 . S
H238 C233 0.930 . S
C239 O240 1.224 . S
C239 O258 1.247 1_565 S
O240 C239 1.224 . S
N241 Co231 2.128 1_545 S
N241 C242 1.355 . S
N241 C244 1.311 . S
C242 N241 1.355 . S
C242 C243 1.363 . S
C242 H254 0.929 1_545 S
C243 C242 1.363 . S
C243 N245 1.375 . S
C243 H261 0.931 . S
C244 N241 1.311 . S
C244 N245 1.347 . S
C244 H255 0.929 . S
N245 C243 1.375 . S
N245 C244 1.347 . S
C246 C249 1.365 . S
C246 N251 1.328 . S
C246 H252 0.929 . S
C247 C248 1.362 . S
C247 C250 1.378 . S
C247 H262 0.929 . S
C248 C247 1.362 . S
C248 C249 1.366 . S
C249 C246 1.365 . S
C249 C248 1.366 . S
C249 H263 0.930 . S
C250 C247 1.378 . S
C250 N251 1.315 . S
C250 H253 0.930 . S
N251 Co231 2.194 . S
N251 C246 1.328 . S
N251 C250 1.315 . S
H252 C246 0.929 . S
H253 C250 0.930 . S
H254 C242 0.929 1_565 S
H255 C244 0.929 . S
O256 Co231 2.351 . S
O256 C259 1.244 . S
O257 Co231 2.155 1_545 S
O257 C259 1.240 1_545 S
O258 Co231 2.096 1_545 S
O258 C239 1.247 1_545 S
C259 O256 1.244 . S
C259 O257 1.240 1_565 S
H260 C234 0.931 . S
H261 C243 0.931 . S
H262 C247 0.929 . S
H263 C249 0.930 . S
Co264 N268 2.148 . S
Co264 N274 2.128 . S
Co264 N284 2.194 . S
Co264 O289 2.351 . S
Co264 O290 2.155 . S
Co264 O291 2.096 . S
C265 N268 1.301 . S
C265 N269 1.328 . S
C265 H270 0.930 . S
C266 C267 1.333 . S
C266 N268 1.317 . S
C266 H271 0.930 . S
C267 C266 1.333 . S
C267 N269 1.350 . S
C267 H293 0.931 . S
N268 Co264 2.148 . S
N268 C265 1.301 . S
N268 C266 1.317 . S
N269 C265 1.328 . S
N269 C267 1.350 . S
H270 C265 0.930 . S
H271 C266 0.930 . S
C272 O273 1.224 . S
C272 O291 1.247 . S
O273 C272 1.224 . S
N274 Co264 2.128 . S
N274 C275 1.355 . S
N274 C277 1.311 . S
C275 N274 1.355 . S
C275 C276 1.363 . S
C275 H287 0.929 . S
C276 C275 1.363 . S
C276 N278 1.375 . S
C276 H294 0.931 . S
C277 N274 1.311 . S
C277 N278 1.347 . S
C277 H288 0.929 . S
N278 C276 1.375 . S
N278 C277 1.347 . S
C279 C282 1.365 . S
C279 N284 1.328 . S
C279 H285 0.929 . S
C280 C281 1.362 . S
C280 C283 1.378 . S
C280 H295 0.929 . S
C281 C280 1.362 . S
C281 C282 1.366 . S
C282 C279 1.365 . S
C282 C281 1.366 . S
C282 H296 0.930 . S
C283 C280 1.378 . S
C283 N284 1.315 . S
C283 H286 0.930 . S
N284 Co264 2.194 . S
N284 C279 1.328 . S
N284 C283 1.315 . S
H285 C279 0.929 . S
H286 C283 0.930 . S
H287 C275 0.929 . S
H288 C277 0.929 . S
O289 Co264 2.351 . S
O289 C292 1.244 . S
O290 Co264 2.155 . S
O290 C292 1.240 . S
O291 Co264 2.096 . S
O291 C272 1.247 . S
C292 O289 1.244 . S
C292 O290 1.240 . S
H293 C267 0.931 . S
H294 C276 0.931 . S
H295 C280 0.929 . S
H296 C282 0.930 . S
Co297 N301 2.148 . S
Co297 N307 2.128 . S
Co297 N317 2.194 . S
Co297 O322 2.351 . S
Co297 O323 2.155 . S
Co297 O324 2.096 . S
C298 N301 1.301 . S
C298 N302 1.328 . S
C298 H303 0.930 . S
C299 C300 1.333 . S
C299 N301 1.317 . S
C299 H304 0.930 . S
C300 C299 1.333 . S
C300 N302 1.350 . S
C300 H326 0.931 . S
N301 Co297 2.148 . S
N301 C298 1.301 . S
N301 C299 1.317 . S
N302 C298 1.328 . S
N302 C300 1.350 . S
H303 C298 0.930 . S
H304 C299 0.930 . S
C305 O306 1.224 . S
C305 O324 1.247 . S
O306 C305 1.224 . S
N307 Co297 2.128 . S
N307 C308 1.355 . S
N307 C310 1.311 . S
C308 N307 1.355 . S
C308 C309 1.363 . S
C308 H320 0.929 . S
C309 C308 1.363 . S
C309 N311 1.375 . S
C309 H327 0.931 . S
C310 N307 1.311 . S
C310 N311 1.347 . S
C310 H321 0.929 . S
N311 C309 1.375 . S
N311 C310 1.347 . S
C312 C315 1.365 . S
C312 N317 1.328 . S
C312 H318 0.929 . S
C313 C314 1.362 . S
C313 C316 1.378 . S
C313 H328 0.929 . S
C314 C313 1.362 . S
C314 C315 1.366 . S
C315 C312 1.365 . S
C315 C314 1.366 . S
C315 H329 0.930 . S
C316 C313 1.378 . S
C316 N317 1.315 . S
C316 H319 0.930 . S
N317 Co297 2.194 . S
N317 C312 1.328 . S
N317 C316 1.315 . S
H318 C312 0.929 . S
H319 C316 0.930 . S
H320 C308 0.929 . S
H321 C310 0.929 . S
O322 Co297 2.351 . S
O322 C325 1.244 . S
O323 Co297 2.155 . S
O323 C325 1.240 . S
O324 Co297 2.096 . S
O324 C305 1.247 . S
C325 O322 1.244 . S
C325 O323 1.240 . S
H326 C300 0.931 . S
H327 C309 0.931 . S
H328 C313 0.929 . S
H329 C315 0.930 . S
Co330 N334 2.148 . S
Co330 N340 2.128 . S
Co330 N350 2.194 . S
Co330 O355 2.351 . S
Co330 O356 2.155 . S
Co330 O357 2.096 . S
C331 N334 1.301 . S
C331 N335 1.328 . S
C331 H336 0.930 . S
C332 C333 1.333 . S
C332 N334 1.317 . S
C332 H337 0.930 . S
C333 C332 1.333 . S
C333 N335 1.350 . S
C333 H359 0.931 . S
N334 Co330 2.148 . S
N334 C331 1.301 . S
N334 C332 1.317 . S
N335 C331 1.328 . S
N335 C333 1.350 . S
H336 C331 0.930 . S
H337 C332 0.930 . S
C338 O339 1.224 . S
C338 O357 1.247 . S
O339 C338 1.224 . S
N340 Co330 2.128 . S
N340 C341 1.355 . S
N340 C343 1.311 . S
C341 N340 1.355 . S
C341 C342 1.363 . S
C341 H353 0.929 . S
C342 C341 1.363 . S
C342 N344 1.375 . S
C342 H360 0.931 . S
C343 N340 1.311 . S
C343 N344 1.347 . S
C343 H354 0.929 . S
N344 C342 1.375 . S
N344 C343 1.347 . S
C345 C348 1.365 . S
C345 N350 1.328 . S
C345 H351 0.929 . S
C346 C347 1.362 . S
C346 C349 1.378 . S
C346 H361 0.929 . S
C347 C346 1.362 . S
C347 C348 1.366 . S
C348 C345 1.365 . S
C348 C347 1.366 . S
C348 H362 0.930 . S
C349 C346 1.378 . S
C349 N350 1.315 . S
C349 H352 0.930 . S
N350 Co330 2.194 . S
N350 C345 1.328 . S
N350 C349 1.315 . S
H351 C345 0.929 . S
H352 C349 0.930 . S
H353 C341 0.929 . S
H354 C343 0.929 . S
O355 Co330 2.351 . S
O355 C358 1.244 . S
O356 Co330 2.155 . S
O356 C358 1.240 . S
O357 Co330 2.096 . S
O357 C338 1.247 . S
C358 O355 1.244 . S
C358 O356 1.240 . S
H359 C333 0.931 . S
H360 C342 0.931 . S
H361 C346 0.929 . S
H362 C348 0.930 . S
Co363 N367 2.148 . S
Co363 N373 2.128 . S
Co363 N383 2.194 . S
Co363 O388 2.351 . S
Co363 O389 2.155 . S
Co363 O390 2.096 . S
C364 N367 1.301 . S
C364 N368 1.328 . S
C364 H369 0.930 . S
C365 C366 1.333 . S
C365 N367 1.317 . S
C365 H370 0.930 . S
C366 C365 1.333 . S
C366 N368 1.350 . S
C366 H392 0.931 . S
N367 Co363 2.148 . S
N367 C364 1.301 . S
N367 C365 1.317 . S
N368 C364 1.328 . S
N368 C366 1.350 . S
H369 C364 0.930 . S
H370 C365 0.930 . S
C371 O372 1.224 . S
C371 O390 1.247 . S
O372 C371 1.224 . S
N373 Co363 2.128 . S
N373 C374 1.355 . S
N373 C376 1.311 . S
C374 N373 1.355 . S
C374 C375 1.363 . S
C374 H386 0.929 . S
C375 C374 1.363 . S
C375 N377 1.375 . S
C375 H393 0.931 . S
C376 N373 1.311 . S
C376 N377 1.347 . S
C376 H387 0.929 . S
N377 C375 1.375 . S
N377 C376 1.347 . S
C378 C381 1.365 . S
C378 N383 1.328 . S
C378 H384 0.929 . S
C379 C380 1.362 . S
C379 C382 1.378 . S
C379 H394 0.929 . S
C380 C379 1.362 . S
C380 C381 1.366 . S
C381 C378 1.365 . S
C381 C380 1.366 . S
C381 H395 0.930 . S
C382 C379 1.378 . S
C382 N383 1.315 . S
C382 H385 0.930 . S
N383 Co363 2.194 . S
N383 C378 1.328 . S
N383 C382 1.315 . S
H384 C378 0.929 . S
H385 C382 0.930 . S
H386 C374 0.929 . S
H387 C376 0.929 . S
O388 Co363 2.351 . S
O388 C391 1.244 . S
O389 Co363 2.155 . S
O389 C391 1.240 . S
O390 Co363 2.096 . S
O390 C371 1.247 . S
C391 O388 1.244 . S
C391 O389 1.240 . S
H392 C366 0.931 . S
H393 C375 0.931 . S
H394 C379 0.929 . S
H395 C381 0.930 . S
Co396 N400 2.148 . S
Co396 N406 2.128 . S
Co396 N416 2.194 . S
Co396 O421 2.351 1_554 S
Co396 O422 2.155 1_554 S
Co396 O423 2.096 . S
C397 N400 1.301 . S
C397 N401 1.328 . S
C397 H402 0.930 1_554 S
C398 C399 1.333 . S
C398 N400 1.317 . S
C398 H403 0.930 . S
C399 C398 1.333 . S
C399 N401 1.350 . S
C399 H425 0.931 . S
N400 Co396 2.148 . S
N400 C397 1.301 . S
N400 C398 1.317 . S
N401 C397 1.328 . S
N401 C399 1.350 . S
H402 C397 0.930 1_556 S
H403 C398 0.930 . S
C404 O405 1.224 . S
C404 O423 1.247 . S
O405 C404 1.224 . S
N406 Co396 2.128 . S
N406 C407 1.355 . S
N406 C409 1.311 . S
C407 N406 1.355 . S
C407 C408 1.363 . S
C407 H419 0.929 1_554 S
C408 C407 1.363 . S
C408 N410 1.375 . S
C408 H426 0.931 . S
C409 N406 1.311 . S
C409 N410 1.347 . S
C409 H420 0.929 . S
N410 C408 1.375 . S
N410 C409 1.347 . S
C411 C414 1.365 . S
C411 N416 1.328 . S
C411 H417 0.929 1_554 S
C412 C413 1.362 . S
C412 C415 1.378 . S
C412 H427 0.929 . S
C413 C412 1.362 . S
C413 C414 1.366 . S
C414 C411 1.365 . S
C414 C413 1.366 . S
C414 H428 0.930 1_554 S
C415 C412 1.378 . S
C415 N416 1.315 . S
C415 H418 0.930 . S
N416 Co396 2.194 . S
N416 C411 1.328 . S
N416 C415 1.315 . S
H417 C411 0.929 1_556 S
H418 C415 0.930 . S
H419 C407 0.929 1_556 S
H420 C409 0.929 . S
O421 Co396 2.351 1_556 S
O421 C424 1.244 . S
O422 Co396 2.155 1_556 S
O422 C424 1.240 . S
O423 Co396 2.096 . S
O423 C404 1.247 . S
C424 O421 1.244 . S
C424 O422 1.240 . S
H425 C399 0.931 . S
H426 C408 0.931 . S
H427 C412 0.929 . S
H428 C414 0.930 1_556 S
Co429 N433 2.148 . S
Co429 N439 2.128 . S
Co429 N449 2.194 . S
Co429 O454 2.351 1_554 S
Co429 O455 2.155 1_554 S
Co429 O456 2.096 . S
C430 N433 1.301 . S
C430 N434 1.328 . S
C430 H435 0.930 1_554 S
C431 C432 1.333 . S
C431 N433 1.317 . S
C431 H436 0.930 . S
C432 C431 1.333 . S
C432 N434 1.350 . S
C432 H458 0.931 . S
N433 Co429 2.148 . S
N433 C430 1.301 . S
N433 C431 1.317 . S
N434 C430 1.328 . S
N434 C432 1.350 . S
H435 C430 0.930 1_556 S
H436 C431 0.930 . S
C437 O438 1.224 . S
C437 O456 1.247 . S
O438 C437 1.224 . S
N439 Co429 2.128 . S
N439 C440 1.355 . S
N439 C442 1.311 . S
C440 N439 1.355 . S
C440 C441 1.363 . S
C440 H452 0.929 1_554 S
C441 C440 1.363 . S
C441 N443 1.375 . S
C441 H459 0.931 . S
C442 N439 1.311 . S
C442 N443 1.347 . S
C442 H453 0.929 . S
N443 C441 1.375 . S
N443 C442 1.347 . S
C444 C447 1.365 . S
C444 N449 1.328 . S
C444 H450 0.929 1_554 S
C445 C446 1.362 . S
C445 C448 1.378 . S
C445 H460 0.929 . S
C446 C445 1.362 . S
C446 C447 1.366 . S
C447 C444 1.365 . S
C447 C446 1.366 . S
C447 H461 0.930 1_554 S
C448 C445 1.378 . S
C448 N449 1.315 . S
C448 H451 0.930 . S
N449 Co429 2.194 . S
N449 C444 1.328 . S
N449 C448 1.315 . S
H450 C444 0.929 1_556 S
H451 C448 0.930 . S
H452 C440 0.929 1_556 S
H453 C442 0.929 . S
O454 Co429 2.351 1_556 S
O454 C457 1.244 . S
O455 Co429 2.155 1_556 S
O455 C457 1.240 . S
O456 Co429 2.096 . S
O456 C437 1.247 . S
C457 O454 1.244 . S
C457 O455 1.240 . S
H458 C432 0.931 . S
H459 C441 0.931 . S
H460 C445 0.929 . S
H461 C447 0.930 1_556 S
Co462 N466 2.148 . S
Co462 N472 2.128 . S
Co462 N482 2.194 . S
Co462 O487 2.351 1_554 S
Co462 O488 2.155 1_554 S
Co462 O489 2.096 . S
C463 N466 1.301 . S
C463 N467 1.328 . S
C463 H468 0.930 1_554 S
C464 C465 1.333 . S
C464 N466 1.317 . S
C464 H469 0.930 . S
C465 C464 1.333 . S
C465 N467 1.350 . S
C465 H491 0.931 . S
N466 Co462 2.148 . S
N466 C463 1.301 . S
N466 C464 1.317 . S
N467 C463 1.328 . S
N467 C465 1.350 . S
H468 C463 0.930 1_556 S
H469 C464 0.930 . S
C470 O471 1.224 . S
C470 O489 1.247 . S
O471 C470 1.224 . S
N472 Co462 2.128 . S
N472 C473 1.355 . S
N472 C475 1.311 . S
C473 N472 1.355 . S
C473 C474 1.363 . S
C473 H485 0.929 1_554 S
C474 C473 1.363 . S
C474 N476 1.375 . S
C474 H492 0.931 . S
C475 N472 1.311 . S
C475 N476 1.347 . S
C475 H486 0.929 . S
N476 C474 1.375 . S
N476 C475 1.347 . S
C477 C480 1.365 . S
C477 N482 1.328 . S
C477 H483 0.929 1_554 S
C478 C479 1.362 . S
C478 C481 1.378 . S
C478 H493 0.929 . S
C479 C478 1.362 . S
C479 C480 1.366 . S
C480 C477 1.365 . S
C480 C479 1.366 . S
C480 H494 0.930 1_554 S
C481 C478 1.378 . S
C481 N482 1.315 . S
C481 H484 0.930 . S
N482 Co462 2.194 . S
N482 C477 1.328 . S
N482 C481 1.315 . S
H483 C477 0.929 1_556 S
H484 C481 0.930 . S
H485 C473 0.929 1_556 S
H486 C475 0.929 . S
O487 Co462 2.351 1_556 S
O487 C490 1.244 . S
O488 Co462 2.155 1_556 S
O488 C490 1.240 . S
O489 Co462 2.096 . S
O489 C470 1.247 . S
C490 O487 1.244 . S
C490 O488 1.240 . S
H491 C465 0.931 . S
H492 C474 0.931 . S
H493 C478 0.929 . S
H494 C480 0.930 1_556 S
Co495 N499 2.148 . S
Co495 N505 2.128 . S
Co495 N515 2.194 . S
Co495 O520 2.351 1_554 S
Co495 O521 2.155 1_554 S
Co495 O522 2.096 . S
C496 N499 1.301 . S
C496 N500 1.328 . S
C496 H501 0.930 1_554 S
C497 C498 1.333 . S
C497 N499 1.317 . S
C497 H502 0.930 . S
C498 C497 1.333 . S
C498 N500 1.350 . S
C498 H524 0.931 . S
N499 Co495 2.148 . S
N499 C496 1.301 . S
N499 C497 1.317 . S
N500 C496 1.328 . S
N500 C498 1.350 . S
H501 C496 0.930 1_556 S
H502 C497 0.930 . S
C503 O504 1.224 . S
C503 O522 1.247 . S
O504 C503 1.224 . S
N505 Co495 2.128 . S
N505 C506 1.355 . S
N505 C508 1.311 . S
C506 N505 1.355 . S
C506 C507 1.363 . S
C506 H518 0.929 1_554 S
C507 C506 1.363 . S
C507 N509 1.375 . S
C507 H525 0.931 . S
C508 N505 1.311 . S
C508 N509 1.347 . S
C508 H519 0.929 . S
N509 C507 1.375 . S
N509 C508 1.347 . S
C510 C513 1.365 . S
C510 N515 1.328 . S
C510 H516 0.929 1_554 S
C511 C512 1.362 . S
C511 C514 1.378 . S
C511 H526 0.929 . S
C512 C511 1.362 . S
C512 C513 1.366 . S
C513 C510 1.365 . S
C513 C512 1.366 . S
C513 H527 0.930 1_554 S
C514 C511 1.378 . S
C514 N515 1.315 . S
C514 H517 0.930 . S
N515 Co495 2.194 . S
N515 C510 1.328 . S
N515 C514 1.315 . S
H516 C510 0.929 1_556 S
H517 C514 0.930 . S
H518 C506 0.929 1_556 S
H519 C508 0.929 . S
O520 Co495 2.351 1_556 S
O520 C523 1.244 . S
O521 Co495 2.155 1_556 S
O521 C523 1.240 . S
O522 Co495 2.096 . S
O522 C503 1.247 . S
C523 O520 1.244 . S
C523 O521 1.240 . S
H524 C498 0.931 . S
H525 C507 0.931 . S
H526 C511 0.929 . S
H527 C513 0.930 1_556 S
C528 C529 1.387 . S
C528 H532 0.950 . S
C528 C537 1.390 . S
C529 C528 1.387 . S
C529 C531 1.387 1_554 S
H530 C537 0.950 . S
C531 C529 1.387 1_556 S
C531 C533 1.390 . S
C531 H535 0.950 . S
H532 C528 0.950 . S
C533 C531 1.390 . S
C533 C534 1.387 1_556 S
C533 H536 0.950 . S
C534 C533 1.387 1_554 S
C534 C537 1.387 . S
H535 C531 0.950 . S
H536 C533 0.950 . S
C537 C528 1.390 . S
C537 H530 0.950 . S
C537 C534 1.387 . S
C538 C539 1.387 . S
C538 H542 0.950 . S
C538 C547 1.390 . S
C539 C538 1.387 . S
C539 C541 1.387 1_554 S
H540 C547 0.950 . S
C541 C539 1.387 1_556 S
C541 C543 1.390 . S
C541 H545 0.950 . S
H542 C538 0.950 . S
C543 C541 1.390 . S
C543 C544 1.387 1_556 S
C543 H546 0.950 . S
C544 C543 1.387 1_554 S
C544 C547 1.387 . S
H545 C541 0.950 . S
H546 C543 0.950 . S
C547 C538 1.390 . S
C547 H540 0.950 . S
C547 C544 1.387 . S
C548 C549 1.387 1_556 S
C548 H552 0.950 . S
C548 C557 1.390 . S
C549 C548 1.387 1_554 S
C549 C551 1.387 . S
H550 C557 0.950 . S
C551 C549 1.387 . S
C551 C553 1.390 . S
C551 H555 0.950 . S
H552 C548 0.950 . S
C553 C551 1.390 . S
C553 C554 1.387 . S
C553 H556 0.950 . S
C554 C553 1.387 . S
C554 C557 1.387 1_554 S
H555 C551 0.950 . S
H556 C553 0.950 . S
C557 C548 1.390 . S
C557 H550 0.950 . S
C557 C554 1.387 1_556 S
C558 C559 1.387 . S
C558 H562 0.950 . S
C558 C567 1.390 . S
C559 C558 1.387 . S
C559 C561 1.387 1_554 S
H560 C567 0.950 . S
C561 C559 1.387 1_556 S
C561 C563 1.390 . S
C561 H565 0.950 . S
H562 C558 0.950 . S
C563 C561 1.390 . S
C563 C564 1.387 1_556 S
C563 H566 0.950 . S
C564 C563 1.387 1_554 S
C564 C567 1.387 . S
H565 C561 0.950 . S
H566 C563 0.950 . S
C567 C558 1.390 . S
C567 H560 0.950 . S
C567 C564 1.387 . S
C568 C569 1.387 . S
C568 H572 0.950 . S
C568 C577 1.390 . S
C569 C568 1.387 . S
C569 C571 1.387 . S
H570 C577 0.950 . S
C571 C569 1.387 . S
C571 C573 1.390 . S
C571 H575 0.950 . S
H572 C568 0.950 . S
C573 C571 1.390 . S
C573 C574 1.387 . S
C573 H576 0.950 . S
C574 C573 1.387 . S
C574 C577 1.387 . S
H575 C571 0.950 . S
H576 C573 0.950 . S
C577 C568 1.390 . S
C577 H570 0.950 . S
C577 C574 1.387 . S
C578 C579 1.387 . S
C578 H582 0.950 . S
C578 C587 1.390 . S
C579 C578 1.387 . S
C579 C581 1.387 . S
H580 C587 0.950 . S
C581 C579 1.387 . S
C581 C583 1.390 . S
C581 H585 0.950 . S
H582 C578 0.950 . S
C583 C581 1.390 . S
C583 C584 1.387 . S
C583 H586 0.950 . S
C584 C583 1.387 . S
C584 C587 1.387 . S
H585 C581 0.950 . S
H586 C583 0.950 . S
C587 C578 1.390 . S
C587 H580 0.950 . S
C587 C584 1.387 . S
C588 C589 1.387 . S
C588 H592 0.950 . S
C588 C597 1.390 . S
C589 C588 1.387 . S
C589 C591 1.387 . S
H590 C597 0.950 . S
C591 C589 1.387 . S
C591 C593 1.390 . S
C591 H595 0.950 . S
H592 C588 0.950 . S
C593 C591 1.390 . S
C593 C594 1.387 . S
C593 H596 0.950 . S
C594 C593 1.387 . S
C594 C597 1.387 . S
H595 C591 0.950 . S
H596 C593 0.950 . S
C597 C588 1.390 . S
C597 H590 0.950 . S
C597 C594 1.387 . S
C598 C599 1.387 . S
C598 H602 0.950 . S
C598 C607 1.390 . S
C599 C598 1.387 . S
C599 C601 1.387 . S
H600 C607 0.950 . S
C601 C599 1.387 . S
C601 C603 1.390 . S
C601 H605 0.950 . S
H602 C598 0.950 . S
C603 C601 1.390 . S
C603 C604 1.387 . S
C603 H606 0.950 . S
C604 C603 1.387 . S
C604 C607 1.387 . S
H605 C601 0.950 . S
H606 C603 0.950 . S
C607 C598 1.390 . S
C607 H600 0.950 . S
C607 C604 1.387 . S
C608 C609 1.387 . S
C608 H612 0.950 . S
C608 C617 1.390 . S
C609 C608 1.387 . S
C609 C611 1.387 1_556 S
H610 C617 0.950 . S
C611 C609 1.387 1_554 S
C611 C613 1.390 . S
C611 H615 0.950 . S
H612 C608 0.950 . S
C613 C611 1.390 . S
C613 C614 1.384 1_554 S
C613 H616 0.950 . S
C614 C613 1.384 1_556 S
C614 C617 1.391 . S
H615 C611 0.950 . S
H616 C613 0.950 . S
C617 C608 1.390 . S
C617 H610 0.950 . S
C617 C614 1.391 . S
C618 C619 1.387 . S
C618 H622 0.950 . S
C618 C627 1.390 . S
C619 C618 1.387 . S
C619 C621 1.387 1_556 S
H620 C627 0.950 . S
C621 C619 1.387 1_554 S
C621 C623 1.390 . S
C621 H625 0.950 . S
H622 C618 0.950 . S
C623 C621 1.390 . S
C623 C624 1.386 1_554 S
C623 H626 0.950 . S
C624 C623 1.386 1_556 S
C624 C627 1.390 . S
H625 C621 0.950 . S
H626 C623 0.950 . S
C627 C618 1.390 . S
C627 H620 0.950 . S
C627 C624 1.390 . S
C628 C629 1.385 1_554 S
C628 H632 0.950 . S
C628 C637 1.390 . S
C629 C628 1.385 1_556 S
C629 C631 1.390 . S
H630 C637 0.950 . S
C631 C629 1.390 . S
C631 C633 1.390 . S
C631 H635 0.950 . S
H632 C628 0.950 . S
C633 C631 1.390 . S
C633 C634 1.387 . S
C633 H636 0.950 . S
C634 C633 1.387 . S
C634 C637 1.387 1_556 S
H635 C631 0.950 . S
H636 C633 0.950 . S
C637 C628 1.390 . S
C637 H630 0.950 . S
C637 C634 1.387 1_554 S
C638 C639 1.384 1_554 S
C638 H642 0.950 . S
C638 C647 1.390 . S
C639 C638 1.384 1_556 S
C639 C641 1.392 . S
H640 C647 0.950 . S
C641 C639 1.392 . S
C641 C643 1.390 . S
C641 H645 0.950 . S
H642 C638 0.950 . S
C643 C641 1.390 . S
C643 C644 1.387 . S
C643 H646 0.950 . S
C644 C643 1.387 . S
C644 C647 1.387 1_556 S
H645 C641 0.950 . S
H646 C643 0.950 . S
C647 C638 1.390 . S
C647 H640 0.950 . S
C647 C644 1.387 1_554 S
C648 C649 1.387 . S
C648 H652 0.950 . S
C648 C657 1.390 . S
C649 C648 1.387 . S
C649 C651 1.387 . S
H650 C657 0.950 . S
C651 C649 1.387 . S
C651 C653 1.390 . S
C651 H655 0.950 . S
H652 C648 0.950 . S
C653 C651 1.390 . S
C653 C654 1.387 . S
C653 H656 0.950 . S
C654 C653 1.387 . S
C654 C657 1.387 . S
H655 C651 0.950 . S
H656 C653 0.950 . S
C657 C648 1.390 . S
C657 H650 0.950 . S
C657 C654 1.387 . S
C658 C659 1.387 . S
C658 H662 0.950 . S
C658 C667 1.390 . S
C659 C658 1.387 . S
C659 C661 1.387 . S
H660 C667 0.950 . S
C661 C659 1.387 . S
C661 C663 1.390 . S
C661 H665 0.950 . S
H662 C658 0.950 . S
C663 C661 1.390 . S
C663 C664 1.387 . S
C663 H666 0.950 . S
C664 C663 1.387 . S
C664 C667 1.387 . S
H665 C661 0.950 . S
H666 C663 0.950 . S
C667 C658 1.390 . S
C667 H660 0.950 . S
C667 C664 1.387 . S
C668 C669 1.387 . S
C668 H672 0.950 . S
C668 C677 1.390 . S
C669 C668 1.387 . S
C669 C671 1.387 . S
H670 C677 0.950 . S
C671 C669 1.387 . S
C671 C673 1.390 . S
C671 H675 0.950 . S
H672 C668 0.950 . S
C673 C671 1.390 . S
C673 C674 1.387 . S
C673 H676 0.950 . S
C674 C673 1.387 . S
C674 C677 1.387 . S
H675 C671 0.950 . S
H676 C673 0.950 . S
C677 C668 1.390 . S
C677 H670 0.950 . S
C677 C674 1.387 . S
C678 C679 1.387 . S
C678 H682 0.950 . S
C678 C687 1.390 . S
C679 C678 1.387 . S
C679 C681 1.387 . S
H680 C687 0.950 . S
C681 C679 1.387 . S
C681 C683 1.390 . S
C681 H685 0.950 . S
H682 C678 0.950 . S
C683 C681 1.390 . S
C683 C684 1.387 . S
C683 H686 0.950 . S
C684 C683 1.387 . S
C684 C687 1.387 . S
H685 C681 0.950 . S
H686 C683 0.950 . S
C687 C678 1.390 . S
C687 H680 0.950 . S
C687 C684 1.387 . S
C688 C689 1.387 . S
C688 H692 0.950 . S
C688 C697 1.390 . S
C689 C688 1.387 . S
C689 C691 1.387 . S
H690 C697 0.950 . S
C691 C689 1.387 . S
C691 C693 1.390 . S
C691 H695 0.950 . S
H692 C688 0.950 . S
C693 C691 1.390 . S
C693 C694 1.387 . S
C693 H696 0.950 . S
C694 C693 1.387 . S
C694 C697 1.387 . S
H695 C691 0.950 . S
H696 C693 0.950 . S
C697 C688 1.390 . S
C697 H690 0.950 . S
C697 C694 1.387 . S
C698 C699 1.387 . S
C698 H702 0.950 . S
C698 C707 1.390 . S
C699 C698 1.387 . S
C699 C701 1.387 . S
H700 C707 0.950 . S
C701 C699 1.387 . S
C701 C703 1.390 . S
C701 H705 0.950 . S
H702 C698 0.950 . S
C703 C701 1.390 . S
C703 C704 1.387 . S
C703 H706 0.950 . S
C704 C703 1.387 . S
C704 C707 1.387 . S
H705 C701 0.950 . S
H706 C703 0.950 . S
C707 C698 1.390 . S
C707 H700 0.950 . S
C707 C704 1.387 . S
C708 C709 1.387 . S
C708 H712 0.950 . S
C708 C717 1.390 . S
C709 C708 1.387 . S
C709 C711 1.387 . S
H710 C717 0.950 . S
C711 C709 1.387 . S
C711 C713 1.390 . S
C711 H715 0.950 . S
H712 C708 0.950 . S
C713 C711 1.390 . S
C713 C714 1.387 . S
C713 H716 0.950 . S
C714 C713 1.387 . S
C714 C717 1.387 . S
H715 C711 0.950 . S
H716 C713 0.950 . S
C717 C708 1.390 . S
C717 H710 0.950 . S
C717 C714 1.387 . S
C718 C719 1.387 . S
C718 H722 0.950 . S
C718 C727 1.390 . S
C719 C718 1.387 . S
C719 C721 1.387 . S
H720 C727 0.950 . S
C721 C719 1.387 . S
C721 C723 1.390 . S
C721 H725 0.950 . S
H722 C718 0.950 . S
C723 C721 1.390 . S
C723 C724 1.387 . S
C723 H726 0.950 . S
C724 C723 1.387 . S
C724 C727 1.387 . S
H725 C721 0.950 . S
H726 C723 0.950 . S
C727 C718 1.390 . S
C727 H720 0.950 . S
C727 C724 1.387 . S
C728 C729 1.387 . S
C728 H732 0.950 1_554 S
C728 C737 1.390 . S
C729 C728 1.387 . S
C729 C731 1.387 . S
H730 C737 0.950 1_556 S
C731 C729 1.387 . S
C731 C733 1.390 . S
C731 H735 0.950 . S
H732 C728 0.950 1_556 S
C733 C731 1.390 . S
C733 C734 1.387 . S
C733 H736 0.950 . S
C734 C733 1.387 . S
C734 C737 1.387 . S
H735 C731 0.950 . S
H736 C733 0.950 . S
C737 C728 1.390 . S
C737 H730 0.950 1_554 S
C737 C734 1.387 . S
C738 C739 1.387 . S
C738 H742 0.950 1_554 S
C738 C747 1.390 . S
C739 C738 1.387 . S
C739 C741 1.387 . S
H740 C747 0.950 1_556 S
C741 C739 1.387 . S
C741 C743 1.390 . S
C741 H745 0.950 . S
H742 C738 0.950 1_556 S
C743 C741 1.390 . S
C743 C744 1.387 . S
C743 H746 0.950 . S
C744 C743 1.387 . S
C744 C747 1.387 . S
H745 C741 0.950 . S
H746 C743 0.950 . S
C747 C738 1.390 . S
C747 H740 0.950 1_554 S
C747 C744 1.387 . S
C748 C749 1.387 . S
C748 H752 0.950 1_554 S
C748 C757 1.390 . S
C749 C748 1.387 . S
C749 C751 1.387 . S
H750 C757 0.950 1_556 S
C751 C749 1.387 . S
C751 C753 1.390 . S
C751 H755 0.950 . S
H752 C748 0.950 1_556 S
C753 C751 1.390 . S
C753 C754 1.387 . S
C753 H756 0.950 . S
C754 C753 1.387 . S
C754 C757 1.387 . S
H755 C751 0.950 . S
H756 C753 0.950 . S
C757 C748 1.390 . S
C757 H750 0.950 1_554 S
C757 C754 1.387 . S
C758 C759 1.387 . S
C758 H762 0.950 . S
C758 C767 1.390 . S
C759 C758 1.387 . S
C759 C761 1.387 . S
H760 C767 0.950 . S
C761 C759 1.387 . S
C761 C763 1.390 . S
C761 H765 0.950 1_554 S
H762 C758 0.950 . S
C763 C761 1.390 . S
C763 C764 1.387 . S
C763 H766 0.950 1_554 S
C764 C763 1.387 . S
C764 C767 1.387 . S
H765 C761 0.950 1_556 S
H766 C763 0.950 1_556 S
C767 C758 1.390 . S
C767 H760 0.950 . S
C767 C764 1.387 . S
C768 C769 1.387 . S
C768 H772 0.950 . S
C768 C777 1.390 1_655 S
C769 C768 1.387 . S
C769 C771 1.387 . S
H770 C777 0.950 . S
C771 C769 1.387 . S
C771 C773 1.390 1_655 S
C771 H775 0.950 . S
H772 C768 0.950 . S
C773 C771 1.390 1_455 S
C773 C774 1.387 . S
C773 H776 0.950 . S
C774 C773 1.387 . S
C774 C777 1.387 . S
H775 C771 0.950 . S
H776 C773 0.950 . S
C777 C768 1.390 1_455 S
C777 H770 0.950 . S
C777 C774 1.387 . S
C778 C779 1.387 . S
C778 H782 0.950 . S
C778 C787 1.390 1_565 S
C779 C778 1.387 . S
C779 C781 1.387 . S
H780 C787 0.950 . S
C781 C779 1.387 . S
C781 C783 1.390 1_565 S
C781 H785 0.950 . S
H782 C778 0.950 . S
C783 C781 1.390 1_545 S
C783 C784 1.387 . S
C783 H786 0.950 . S
C784 C783 1.387 . S
C784 C787 1.387 . S
H785 C781 0.950 . S
H786 C783 0.950 . S
C787 C778 1.390 1_545 S
C787 H780 0.950 . S
C787 C784 1.387 . S
C788 C789 1.387 . S
C788 H792 0.950 . S
C788 C797 1.390 1_655 S
C789 C788 1.387 . S
C789 C791 1.387 . S
H790 C797 0.950 . S
C791 C789 1.387 . S
C791 C793 1.390 1_655 S
C791 H795 0.950 . S
H792 C788 0.950 . S
C793 C791 1.390 1_455 S
C793 C794 1.387 . S
C793 H796 0.950 . S
C794 C793 1.387 . S
C794 C797 1.387 . S
H795 C791 0.950 . S
H796 C793 0.950 . S
C797 C788 1.390 1_455 S
C797 H790 0.950 . S
C797 C794 1.387 . S
C798 C799 1.387 . S
C798 H802 0.950 . S
C798 C807 1.390 1_545 S
C799 C798 1.387 . S
C799 C801 1.387 . S
H800 C807 0.950 . S
C801 C799 1.387 . S
C801 C803 1.390 1_545 S
C801 H805 0.950 . S
H802 C798 0.950 . S
C803 C801 1.390 1_565 S
C803 C804 1.387 . S
C803 H806 0.950 . S
C804 C803 1.387 . S
C804 C807 1.387 . S
H805 C801 0.950 . S
H806 C803 0.950 . S
C807 C798 1.390 1_565 S
C807 H800 0.950 . S
C807 C804 1.387 . S
C808 C809 1.387 . S
C808 H812 0.950 . S
C808 C817 1.390 1_455 S
C809 C808 1.387 . S
C809 C811 1.387 . S
H810 C817 0.950 . S
C811 C809 1.387 . S
C811 C813 1.390 1_455 S
C811 H815 0.950 . S
H812 C808 0.950 . S
C813 C811 1.390 1_655 S
C813 C814 1.387 . S
C813 H816 0.950 . S
C814 C813 1.387 . S
C814 C817 1.387 . S
H815 C811 0.950 . S
H816 C813 0.950 . S
C817 C808 1.390 1_655 S
C817 H810 0.950 . S
C817 C814 1.387 . S
C818 C819 1.387 . S
C818 H822 0.950 . S
C818 C827 1.390 1_565 S
C819 C818 1.387 . S
C819 C821 1.387 . S
H820 C827 0.950 . S
C821 C819 1.387 . S
C821 C823 1.390 1_565 S
C821 H825 0.950 . S
H822 C818 0.950 . S
C823 C821 1.390 1_545 S
C823 C824 1.387 . S
C823 H826 0.950 . S
C824 C823 1.387 . S
C824 C827 1.387 . S
H825 C821 0.950 . S
H826 C823 0.950 . S
C827 C818 1.390 1_545 S
C827 H820 0.950 . S
C827 C824 1.387 . S
C828 C829 1.387 . S
C828 H832 0.950 . S
C828 C837 1.390 1_655 S
C829 C828 1.387 . S
C829 C831 1.387 . S
H830 C837 0.950 . S
C831 C829 1.387 . S
C831 C833 1.390 1_655 S
C831 H835 0.950 . S
H832 C828 0.950 . S
C833 C831 1.390 1_455 S
C833 C834 1.387 . S
C833 H836 0.950 . S
C834 C833 1.387 . S
C834 C837 1.387 . S
H835 C831 0.950 . S
H836 C833 0.950 . S
C837 C828 1.390 1_455 S
C837 H830 0.950 . S
C837 C834 1.387 . S
C838 C839 1.387 . S
C838 H842 0.950 . S
C838 C847 1.390 1_545 S
C839 C838 1.387 . S
C839 C841 1.387 . S
H840 C847 0.950 . S
C841 C839 1.387 . S
C841 C843 1.390 1_545 S
C841 H845 0.950 . S
H842 C838 0.950 . S
C843 C841 1.390 1_565 S
C843 C844 1.387 . S
C843 H846 0.950 . S
C844 C843 1.387 . S
C844 C847 1.387 . S
H845 C841 0.950 . S
H846 C843 0.950 . S
C847 C838 1.390 1_565 S
C847 H840 0.950 . S
C847 C844 1.387 . S
C848 C849 1.387 . S
C848 H852 0.950 . S
C848 C857 1.390 . S
C849 C848 1.387 . S
C849 C851 1.387 . S
H850 C857 0.950 . S
C851 C849 1.387 . S
C851 C853 1.390 . S
C851 H855 0.950 . S
H852 C848 0.950 . S
C853 C851 1.390 . S
C853 C854 1.387 . S
C853 H856 0.950 . S
C854 C853 1.387 . S
C854 C857 1.387 . S
H855 C851 0.950 . S
H856 C853 0.950 . S
C857 C848 1.390 . S
C857 H850 0.950 . S
C857 C854 1.387 . S
C858 C859 1.387 . S
C858 H862 0.950 . S
C858 C867 1.390 . S
C859 C858 1.387 . S
C859 C861 1.387 . S
H860 C867 0.950 . S
C861 C859 1.387 . S
C861 C863 1.390 . S
C861 H865 0.950 . S
H862 C858 0.950 . S
C863 C861 1.390 . S
C863 C864 1.387 . S
C863 H866 0.950 . S
C864 C863 1.387 . S
C864 C867 1.387 . S
H865 C861 0.950 . S
H866 C863 0.950 . S
C867 C858 1.390 . S
C867 H860 0.950 . S
C867 C864 1.387 . S
C868 C869 1.387 . S
C868 H872 0.950 . S
C868 C877 1.390 . S
C869 C868 1.387 . S
C869 C871 1.387 . S
H870 C877 0.950 . S
C871 C869 1.387 . S
C871 C873 1.390 . S
C871 H875 0.950 . S
H872 C868 0.950 . S
C873 C871 1.390 . S
C873 C874 1.387 . S
C873 H876 0.950 . S
C874 C873 1.387 . S
C874 C877 1.387 . S
H875 C871 0.950 . S
H876 C873 0.950 . S
C877 C868 1.390 . S
C877 H870 0.950 . S
C877 C874 1.387 . S
C878 C879 1.387 . S
C878 H882 0.950 . S
C878 C887 1.390 . S
C879 C878 1.387 . S
C879 C881 1.387 . S
H880 C887 0.950 . S
C881 C879 1.387 . S
C881 C883 1.390 . S
C881 H885 0.950 . S
H882 C878 0.950 . S
C883 C881 1.390 . S
C883 C884 1.387 . S
C883 H886 0.950 . S
C884 C883 1.387 . S
C884 C887 1.387 . S
H885 C881 0.950 . S
H886 C883 0.950 . S
C887 C878 1.390 . S
C887 H880 0.950 . S
C887 C884 1.387 . S
C888 C889 1.387 . S
C888 H892 0.950 . S
C888 C897 1.390 . S
C889 C888 1.387 . S
C889 C891 1.387 . S
H890 C897 0.950 . S
C891 C889 1.387 . S
C891 C893 1.390 . S
C891 H895 0.950 . S
H892 C888 0.950 . S
C893 C891 1.390 . S
C893 C894 1.387 . S
C893 H896 0.950 . S
C894 C893 1.387 . S
C894 C897 1.387 . S
H895 C891 0.950 . S
H896 C893 0.950 . S
C897 C888 1.390 . S
C897 H890 0.950 . S
C897 C894 1.387 . S
C898 C899 1.387 . S
C898 H902 0.950 . S
C898 C907 1.390 . S
C899 C898 1.387 . S
C899 C901 1.387 . S
H900 C907 0.950 . S
C901 C899 1.387 . S
C901 C903 1.390 . S
C901 H905 0.950 . S
H902 C898 0.950 . S
C903 C901 1.390 . S
C903 C904 1.387 . S
C903 H906 0.950 . S
C904 C903 1.387 . S
C904 C907 1.387 . S
H905 C901 0.950 . S
H906 C903 0.950 . S
C907 C898 1.390 . S
C907 H900 0.950 . S
C907 C904 1.387 . S
C908 C909 1.387 . S
C908 H912 0.950 . S
C908 C917 1.390 . S
C909 C908 1.387 . S
C909 C911 1.387 . S
H910 C917 0.950 . S
C911 C909 1.387 . S
C911 C913 1.390 . S
C911 H915 0.950 . S
H912 C908 0.950 . S
C913 C911 1.390 . S
C913 C914 1.387 . S
C913 H916 0.950 . S
C914 C913 1.387 . S
C914 C917 1.387 . S
H915 C911 0.950 . S
H916 C913 0.950 . S
C917 C908 1.390 . S
C917 H910 0.950 . S
C917 C914 1.387 . S
C918 C919 1.387 . S
C918 H922 0.950 . S
C918 C927 1.390 . S
C919 C918 1.387 . S
C919 C921 1.387 . S
H920 C927 0.950 . S
C921 C919 1.387 . S
C921 C923 1.390 . S
C921 H925 0.950 . S
H922 C918 0.950 . S
C923 C921 1.390 . S
C923 C924 1.387 . S
C923 H926 0.950 . S
C924 C923 1.387 . S
C924 C927 1.387 . S
H925 C921 0.950 . S
H926 C923 0.950 . S
C927 C918 1.390 . S
C927 H920 0.950 . S
C927 C924 1.387 . S
C529 N5 1.359 . S
C534 N500 1.361 . S
C539 N38 1.359 . S
C544 N401 1.361 . S
C549 N434 1.360 . S
C554 N71 1.361 . S
C559 N104 1.359 . S
C564 N467 1.361 . S
C569 N137 1.359 . S
C574 N302 1.361 . S
C579 N335 1.359 . S
C584 N170 1.361 . S
C589 N368 1.359 . S
C594 N203 1.361 . S
C599 N269 1.359 . S
C604 N236 1.361 . S
C609 N113 1.544 1_556 S
C614 C17 1.604 1_556 S
C619 N14 1.545 1_556 S
C624 C50 1.604 1_556 S
C629 C83 1.605 1_556 S
C634 N47 1.544 1_556 S
C639 C116 1.604 1_556 S
C644 N80 1.544 1_556 S
C649 N179 1.545 . S
C654 C149 1.604 . S
C659 N212 1.544 . S
C664 C182 1.604 . S
C669 N245 1.545 . S
C674 C215 1.604 . S
C679 N146 1.544 . S
C684 C248 1.605 . S
C689 N377 1.545 . S
C694 C281 1.604 . S
C699 C314 1.605 . S
C704 N278 1.544 . S
C709 N311 1.544 . S
C714 C347 1.605 . S
C719 N344 1.543 . S
C724 C380 1.604 . S
C729 N443 1.544 . S
C734 C413 1.605 . S
C739 N476 1.544 . S
C744 C446 1.605 . S
C749 N509 1.545 . S
C754 C479 1.605 . S
C759 N410 1.544 . S
C764 C512 1.604 . S
C769 C226 1.812 . S
C774 C28 1.812 . S
C779 C259 1.811 . S
C784 C61 1.811 . S
C789 C94 1.811 . S
C794 C160 1.811 . S
C799 C193 1.812 . S
C804 C127 1.812 . S
C809 C74 0.984 1_455 S
C814 C140 0.984 1_655 S
C819 C173 0.989 1_565 S
C824 C107 0.989 1_545 S
C829 C8 0.989 1_655 S
C834 C206 0.989 1_455 S
C839 C239 0.989 1_545 S
C844 C41 0.989 1_565 S
C849 C490 1.811 . S
C854 C292 1.811 . S
C859 C523 1.812 . S
C864 C325 1.812 . S
C869 C424 1.812 . S
C874 C358 1.812 . S
C879 C391 1.812 . S
C884 C457 1.812 . S
C889 C404 0.984 . S
C894 C338 0.984 . S
C899 C371 0.984 . S
C904 C437 0.984 . S
C909 C272 0.989 . S
C914 C470 0.989 . S
C919 C503 0.989 . S
C924 C305 0.989 . S
