# Generated by pormake.
# Topology qtz-e, (6)-cn, num edge types: 1
# Building blocks:
#     Node 0, Type 0, BuildingBlock: UKALOJ_clean_sbu_0, # of connection points: 6
#     Node 1, Type 0, BuildingBlock: UKALOJ_clean_sbu_0, # of connection points: 6
#     Node 2, Type 0, BuildingBlock: UKALOJ_clean_sbu_0, # of connection points: 6
#     Node 3, Type 0, BuildingBlock: UKALOJ_clean_sbu_0, # of connection points: 6
#     Node 4, Type 0, BuildingBlock: UKALOJ_clean_sbu_0, # of connection points: 6
#     Node 5, Type 0, BuildingBlock: UKALOJ_clean_sbu_0, # of connection points: 6
#     Edge 6, Type (0, 0), BuildingBlock: XIVTED_clean_linker_0, # of connection points: 2
#     Edge 7, Type (0, 0), BuildingBlock: XIVTED_clean_linker_0, # of connection points: 2
#     Edge 8, Type (0, 0), BuildingBlock: XIVTED_clean_linker_0, # of connection points: 2
#     Edge 9, Type (0, 0), BuildingBlock: XIVTED_clean_linker_0, # of connection points: 2
#     Edge 10, Type (0, 0), BuildingBlock: XIVTED_clean_linker_0, # of connection points: 2
#     Edge 11, Type (0, 0), BuildingBlock: XIVTED_clean_linker_0, # of connection points: 2
#     Edge 12, Type (0, 0), BuildingBlock: XIVTED_clean_linker_0, # of connection points: 2
#     Edge 13, Type (0, 0), BuildingBlock: XIVTED_clean_linker_0, # of connection points: 2
#     Edge 14, Type (0, 0), BuildingBlock: XIVTED_clean_linker_0, # of connection points: 2
#     Edge 15, Type (0, 0), BuildingBlock: XIVTED_clean_linker_0, # of connection points: 2
#     Edge 16, Type (0, 0), BuildingBlock: XIVTED_clean_linker_0, # of connection points: 2
#     Edge 17, Type (0, 0), BuildingBlock: XIVTED_clean_linker_0, # of connection points: 2
#     Edge 18, Type (0, 0), BuildingBlock: XIVTED_clean_linker_0, # of connection points: 2
#     Edge 19, Type (0, 0), BuildingBlock: XIVTED_clean_linker_0, # of connection points: 2
#     Edge 20, Type (0, 0), BuildingBlock: XIVTED_clean_linker_0, # of connection points: 2
#     Edge 21, Type (0, 0), BuildingBlock: XIVTED_clean_linker_0, # of connection points: 2
#     Edge 22, Type (0, 0), BuildingBlock: XIVTED_clean_linker_0, # of connection points: 2
#     Edge 23, Type (0, 0), BuildingBlock: XIVTED_clean_linker_0, # of connection points: 2
# Relax obj value: 0.464
# Max RMSD: 0.263
# Mean RMSD: 0.263
data_MOF--net-qtz-e--node1-UKALOJ_clean_sbu_0--edge1-XIVTED_clean_linker_0
_symmetry_space_group_name_H-M    P1
_symmetry_Int_Tables_number       1
_symmetry_cell_setting            triclinic
loop_
_symmetry_equiv_pos_as_xyz
'x, y, z'
_cell_length_a     27.634875
_cell_length_b     27.579829
_cell_length_c     38.0813
_cell_angle_alpha  89.906797
_cell_angle_beta   90.056184
_cell_angle_gamma 119.99581
loop_
_atom_site_label
_atom_site_type_symbol
_atom_site_fract_x
_atom_site_fract_y
_atom_site_fract_z
_atom_type_partial_charge
Zn0 Zn 0.23149 0.42084 0.0097 0.0
O1 O 0.16943 0.44259 0.01056 0.0
C2 C 0.15713 0.3077 0.03628 0.0
Zn3 Zn 0.18521 0.36415 0.96616 0.0
C4 C 0.12444 0.41768 -0.00689 0.0
O5 O 0.11571 0.37704 0.9732 0.0
C6 C 0.29867 0.37772 0.9808 0.0
O7 O 0.21843 0.43044 0.93027 0.0
O8 O 0.27399 0.48416 0.97208 0.0
N9 N 0.14385 0.30737 0.92707 0.0
C10 C 0.16338 0.29554 0.89786 0.0
C11 C 0.07759 0.23305 0.9026 0.0
N12 N 0.09032 0.26877 0.9298 0.0
N13 N 0.12276 0.24945 0.88208 0.0
C14 C 0.25837 0.49763 0.07413 0.0
C15 C 0.34749 0.543 0.07411 0.0
N16 N 0.27523 0.47716 0.04783 0.0
N17 N 0.33063 0.50504 0.04799 0.0
N18 N 0.30277 0.53891 0.09082 0.0
H19 H 0.17218 0.43201 0.07773 0.0
H20 H 0.18306 0.50099 0.06877 0.0
H21 H 0.19507 0.48386 0.11223 0.0
C22 C 0.19864 0.47711 0.08384 0.0
C23 C 0.22284 0.3269 0.88548 0.0
H24 H 0.24355 0.37138 0.89342 0.0
H25 H 0.22465 0.3244 0.85646 0.0
H26 H 0.24596 0.30739 0.89694 0.0
O27 O 0.25887 0.35664 0.95869 0.0
O28 O 0.29373 0.40124 0.00792 0.0
C29 C 0.25795 0.47759 0.94031 0.0
O30 O 0.18894 0.35749 0.04679 0.0
O31 O 0.15035 0.29773 0.0035 0.0
Zn32 Zn 0.81605 0.17953 0.29401 0.0
O33 O 0.78507 0.2122 0.25644 0.0
C34 C 0.91206 0.29455 0.30964 0.0
Zn35 Zn 0.80078 0.22282 0.33782 0.0
C36 C 0.77066 0.24689 0.26671 0.0
O37 O 0.77442 0.25952 0.29903 0.0
C38 C 0.84412 0.15359 0.3658 0.0
O39 O 0.71954 0.1561 0.3408 0.0
O40 O 0.73333 0.1094 0.29909 0.0
N41 N 0.78485 0.2657 0.37461 0.0
C42 C 0.75902 0.25118 0.40595 0.0
C43 C 0.77848 0.335 0.3953 0.0
N44 N 0.79742 0.31795 0.36819 0.0
N45 N 0.75479 0.29406 0.41949 0.0
C46 C 0.86828 0.15864 0.22805 0.0
C47 C 0.84382 0.07238 0.23285 0.0
N48 N 0.83456 0.13866 0.25625 0.0
N49 N 0.81894 0.08486 0.25902 0.0
N50 N 0.87462 0.11804 0.213 0.0
H51 H 0.87271 0.23882 0.22248 0.0
H52 H 0.90376 0.22046 0.18695 0.0
H53 H 0.93881 0.24156 0.22849 0.0
C54 C 0.89717 0.21833 0.21579 0.0
C55 C 0.73441 0.19404 0.42216 0.0
H56 H 0.69062 0.17912 0.43028 0.0
H57 H 0.75862 0.19652 0.446 0.0
H58 H 0.73547 0.16328 0.40415 0.0
O59 O 0.82709 0.1864 0.37571 0.0
O60 O 0.84563 0.14462 0.33316 0.0
C61 C 0.70104 0.11322 0.32136 0.0
O62 O 0.89752 0.2541 0.28833 0.0
O63 O 0.87992 0.28946 0.33467 0.0
Zn64 Zn 0.57338 0.80622 0.67497 0.0
O65 O 0.55283 0.72287 0.67364 0.0
C66 C 0.68436 0.84348 0.70437 0.0
Zn67 Zn 0.63333 0.82169 0.63247 0.0
C68 C 0.57853 0.70437 0.6555 0.0
O69 O 0.61991 0.73812 0.63663 0.0
C70 C 0.61693 0.91921 0.65036 0.0
O71 O 0.57089 0.7926 0.59443 0.0
O72 O 0.513 0.78798 0.63539 0.0
N73 N 0.69333 0.84183 0.59471 0.0
C74 C 0.70754 0.87701 0.56714 0.0
C75 C 0.76795 0.85066 0.57027 0.0
N76 N 0.73071 0.82512 0.59646 0.0
N77 N 0.75397 0.8832 0.55151 0.0
C78 C 0.50126 0.76246 0.74214 0.0
C79 C 0.43976 0.78608 0.73244 0.0
N80 N 0.51373 0.78959 0.71121 0.0
N81 N 0.47578 0.80462 0.70533 0.0
N82 N 0.45526 0.76009 0.75606 0.0
H83 H 0.55866 0.73056 0.73804 0.0
H84 H 0.5018 0.69358 0.76855 0.0
H85 H 0.55885 0.76175 0.77935 0.0
C86 C 0.53185 0.73531 0.7576 0.0
C87 C 0.6771 0.9066 0.55563 0.0
H88 H 0.63209 0.88182 0.56201 0.0
H89 H 0.68195 0.9146 0.52692 0.0
H90 H 0.69538 0.94768 0.56911 0.0
O91 O 0.6405 0.90361 0.62797 0.0
O92 O 0.59129 0.88739 0.67587 0.0
C93 C 0.52263 0.7827 0.60345 0.0
O94 O 0.63401 0.82471 0.71377 0.0
O95 O 0.69644 0.8493 0.67185 0.0
Zn96 Zn 0.76429 0.57274 0.00646 0.0
O97 O 0.82944 0.55643 0.01018 0.0
C98 C 0.8307 0.68486 0.03652 0.0
Zn99 Zn 0.81125 0.6342 0.96472 0.0
C100 C 0.87486 0.5832 -0.00667 0.0
O101 O 0.88222 0.62319 0.97307 0.0
C102 C 0.69527 0.61432 0.97671 0.0
O103 O 0.78339 0.57173 0.92668 0.0
O104 O 0.72971 0.51154 0.96667 0.0
N105 N 0.85386 0.69508 0.92787 0.0
C106 C 0.83653 0.7063 0.8974 0.0
C107 C 0.91785 0.775 0.90784 0.0
N108 N 0.90466 0.7376 0.93413 0.0
N109 N 0.876 0.75586 0.88428 0.0
C110 C 0.73147 0.49973 0.07373 0.0
C111 C 0.64848 0.43599 0.06111 0.0
N112 N 0.71894 0.51237 0.04212 0.0
N113 N 0.6672 0.47304 0.03447 0.0
N114 N 0.68782 0.45218 0.08624 0.0
H115 H 0.81955 0.56307 0.0737 0.0
H116 H 0.8013 0.50194 0.10023 0.0
H117 H 0.78388 0.5532 0.11468 0.0
C118 C 0.7875 0.53141 0.09124 0.0
C119 C 0.77873 0.67263 0.88247 0.0
H120 H 0.78055 0.67137 0.85342 0.0
H121 H 0.75425 0.69315 0.88939 0.0
H122 H 0.7568 0.6293 0.89254 0.0
O123 O 0.73662 0.63993 0.95602 0.0
O124 O 0.69876 0.58682 0.00217 0.0
C125 C 0.74681 0.52227 0.93515 0.0
O126 O 0.79919 0.63416 0.04552 0.0
O127 O 0.84084 0.69708 0.00415 0.0
Zn128 Zn 0.19212 0.77137 0.33734 0.0
O129 O 0.27052 0.8417 0.34165 0.0
C130 C 0.14223 0.83324 0.36741 0.0
Zn131 Zn 0.17175 0.81295 0.29469 0.0
C132 C 0.28658 0.88434 0.3222 0.0
O133 O 0.25321 0.8856 0.29961 0.0
C134 C 0.08107 0.6954 0.30942 0.0
O135 O 0.20394 0.78406 0.25579 0.0
O136 O 0.22342 0.74133 0.29736 0.0
N137 N 0.14947 0.85287 0.25833 0.0
C138 C 0.11425 0.83224 0.23087 0.0
C139 C 0.13619 0.91772 0.23651 0.0
N140 N 0.1635 0.90618 0.26163 0.0
N141 N 0.10521 0.87188 0.2169 0.0
C142 C 0.23557 0.74285 0.40483 0.0
C143 C 0.22291 0.66208 0.39186 0.0
N144 N 0.21176 0.7295 0.37285 0.0
N145 N 0.20345 0.67913 0.36498 0.0
N146 N 0.24268 0.70106 0.41735 0.0
H147 H 0.29783 0.81417 0.4334 0.0
H148 H 0.22682 0.79177 0.44515 0.0
H149 H 0.25479 0.82948 0.40501 0.0
C150 C 0.25505 0.79797 0.42279 0.0
C151 C 0.08749 0.77306 0.21787 0.0
H152 H 0.11411 0.75446 0.2233 0.0
H153 H 0.07963 0.77152 0.18919 0.0
H154 H 0.0466 0.74765 0.23113 0.0
O155 O 0.09187 0.73638 0.28924 0.0
O156 O 0.11561 0.70108 0.33302 0.0
C157 C 0.22387 0.75341 0.26512 0.0
O158 O 0.16117 0.80155 0.37638 0.0
O159 O 0.14073 0.84392 0.33505 0.0
Zn160 Zn 0.35878 0.17158 0.63054 0.0
O161 O 0.42243 0.1992 0.59305 0.0
C162 C 0.37253 0.0728 0.65063 0.0
Zn163 Zn 0.41771 0.18629 0.67345 0.0
C164 C 0.46979 0.20709 0.60277 0.0
O165 O 0.47806 0.20118 0.63489 0.0
C166 C 0.30715 0.15278 0.70193 0.0
O167 O 0.44021 0.27012 0.66981 0.0
O168 O 0.37275 0.25536 0.63322 0.0
N169 N 0.47628 0.20322 0.71068 0.0
C170 C 0.49847 0.24346 0.73523 0.0
C171 C 0.54121 0.19707 0.73838 0.0
N172 N 0.50263 0.17421 0.71274 0.0
N173 N 0.53929 0.24058 0.7527 0.0
C174 C 0.28429 0.11382 0.56584 0.0
C175 C 0.22476 0.14144 0.56741 0.0
N176 N 0.29936 0.1509 0.59233 0.0
N177 N 0.26255 0.16839 0.5931 0.0
N178 N 0.23764 0.10694 0.55007 0.0
H179 H 0.36007 0.10959 0.56112 0.0
H180 H 0.30983 0.07516 0.52645 0.0
H181 H 0.29729 0.04368 0.56917 0.0
C182 C 0.315 0.08421 0.55503 0.0
C183 C 0.47924 0.28446 0.74293 0.0
H184 H 0.43408 0.26593 0.73727 0.0
H185 H 0.50292 0.32214 0.72624 0.0
H186 H 0.48711 0.29777 0.77083 0.0
O187 O 0.35741 0.17137 0.71149 0.0
O188 O 0.29499 0.14563 0.66943 0.0
C189 C 0.41492 0.28897 0.65152 0.0
O190 O 0.35067 0.08921 0.62749 0.0
O191 O 0.39743 0.10432 0.67636 0.0
H192 H 0.22441 0.76511 0.19395 0.0
H193 H 0.34657 0.56156 0.15601 0.0
H194 H 0.27376 0.6904 0.27607 0.0
H195 H 0.25958 0.60545 0.07996 0.0
H196 H 0.33778 0.62346 0.199 0.0
H197 H 0.25495 0.7216 0.15029 0.0
C198 C 0.24201 0.73985 0.2028 0.0
C199 C 0.24587 0.73069 0.23865 0.0
C200 C 0.32104 0.61984 0.1728 0.0
C201 C 0.28077 0.68079 0.18888 0.0
C202 C 0.32623 0.58488 0.14848 0.0
C203 C 0.30285 0.57831 0.11506 0.0
C204 C 0.29288 0.64847 0.1631 0.0
C205 C 0.2771 0.60913 0.10591 0.0
C206 C 0.2594 0.71501 0.17788 0.0
C207 C 0.26945 0.69797 0.24865 0.0
N208 N 0.27248 0.64274 0.12991 0.0
N209 N 0.28569 0.67379 0.22383 0.0
H210 H 0.57182 0.21601 0.613 0.0
H211 H 0.67458 0.32165 0.41727 0.0
H212 H 0.47159 0.23846 0.53459 0.0
H213 H 0.75773 0.26293 0.48648 0.0
H214 H 0.60776 0.30683 0.46396 0.0
H215 H 0.64722 0.24605 0.57012 0.0
C216 C 0.56571 0.22731 0.58678 0.0
C217 C 0.51533 0.22449 0.57721 0.0
C218 C 0.64077 0.29743 0.46904 0.0
C219 C 0.60134 0.25922 0.52835 0.0
C220 C 0.67899 0.30632 0.44258 0.0
C221 C 0.72063 0.29241 0.44814 0.0
C222 C 0.64468 0.27481 0.50126 0.0
C223 C 0.72509 0.2727 0.48117 0.0
C224 C 0.60874 0.24447 0.56239 0.0
C225 C 0.50963 0.23969 0.54298 0.0
N226 N 0.68716 0.26402 0.50656 0.0
N227 N 0.55219 0.25643 0.51975 0.0
H228 H 0.35264 0.57867 0.9502 0.0
H229 H 0.34537 0.68598 0.75638 0.0
H230 H 0.22396 0.48315 0.87393 0.0
H231 H 0.49182 0.76115 0.82209 0.0
H232 H 0.29275 0.62147 0.80412 0.0
H233 H 0.39758 0.65498 0.90767 0.0
C234 C 0.33373 0.57387 0.92457 0.0
C235 C 0.2848 0.52441 0.9154 0.0
C236 C 0.33631 0.65231 0.80821 0.0
C237 C 0.33562 0.6114 0.86696 0.0
C238 C 0.36604 0.68918 0.78115 0.0
C239 C 0.42295 0.72767 0.78536 0.0
C240 C 0.36384 0.65444 0.83966 0.0
C241 C 0.44824 0.73079 0.81778 0.0
C242 C 0.35937 0.61739 0.90038 0.0
C243 C 0.26194 0.5204 0.88194 0.0
N244 N 0.41858 0.69415 0.84374 0.0
N245 N 0.28766 0.56335 0.85886 0.0
H246 H 0.74121 0.21735 0.19833 0.0
H247 H 0.71374 0.48382 0.15394 0.0
H248 H 0.75329 0.33494 0.27745 0.0
H249 H 0.66156 0.34459 0.08337 0.0
H250 H 0.7262 0.42937 0.20045 0.0
H251 H 0.71054 0.26294 0.15606 0.0
C252 C 0.73723 0.25267 0.20682 0.0
C253 C 0.75016 0.27269 0.24133 0.0
C254 C 0.71137 0.41044 0.17492 0.0
C255 C 0.71525 0.32506 0.19316 0.0
C256 C 0.70458 0.44156 0.1485 0.0
C257 C 0.68761 0.41863 0.11495 0.0
C258 C 0.70157 0.3564 0.16739 0.0
C259 C 0.67491 0.36344 0.10904 0.0
C260 C 0.71944 0.27849 0.18275 0.0
C261 C 0.74389 0.31831 0.25103 0.0
N262 N 0.68291 0.33434 0.13491 0.0
N263 N 0.72735 0.34335 0.22693 0.0
H264 H 0.5247 0.75221 0.53571 0.0
H265 H 0.23365 0.72677 0.48469 0.0
H266 H 0.41918 0.7716 0.61132 0.0
H267 H 0.32604 0.67793 0.41645 0.0
H268 H 0.29908 0.74081 0.53241 0.0
H269 H 0.45103 0.72333 0.49202 0.0
C270 C 0.48596 0.75034 0.54312 0.0
C271 C 0.47807 0.76458 0.57709 0.0
C272 C 0.30474 0.72651 0.50709 0.0
C273 C 0.39358 0.73155 0.52725 0.0
C274 C 0.26771 0.71888 0.47996 0.0
C275 C 0.2756 0.70242 0.44671 0.0
C276 C 0.34986 0.71781 0.5006 0.0
C277 C 0.31907 0.69098 0.44183 0.0
C278 C 0.44378 0.73355 0.51822 0.0
C279 C 0.42694 0.76106 0.58535 0.0
N280 N 0.35511 0.69958 0.4684 0.0
N281 N 0.38666 0.74523 0.56046 0.0
H282 H 0.67788 0.40986 0.94514 0.0
H283 H 0.60615 0.35068 0.74301 0.0
H284 H 0.76242 0.53425 0.86433 0.0
H285 H 0.55859 0.21795 0.81831 0.0
H286 H 0.66504 0.41872 0.78741 0.0
H287 H 0.63453 0.33827 0.89966 0.0
C288 C 0.68756 0.42202 0.91785 0.0
C289 C 0.72328 0.47808 0.9084 0.0
C290 C 0.64228 0.37472 0.79426 0.0
C291 C 0.67395 0.39673 0.85651 0.0
C292 C 0.60868 0.33622 0.76904 0.0
C293 C 0.57747 0.27942 0.77759 0.0
C294 C 0.64392 0.35606 0.82833 0.0
C295 C 0.58219 0.26179 0.8112 0.0
C296 C 0.66306 0.38114 0.89197 0.0
C297 C 0.73485 0.49155 0.87274 0.0
N298 N 0.61433 0.30023 0.83571 0.0
N299 N 0.70975 0.45118 0.84805 0.0
H300 H 0.34781 0.41004 0.91616 0.0
H301 H 0.61876 0.61701 0.01922 0.0
H302 H 0.38108 0.38778 0.02385 0.0
H303 H 0.64222 0.57488 0.91412 0.0
H304 H 0.51896 0.55024 0.01433 0.0
H305 H 0.44757 0.47882 0.90834 0.0
C306 C 0.37643 0.41738 0.93761 0.0
C307 C 0.35617 0.39352 0.97086 0.0
C308 C 0.54576 0.55672 -0.00804 0.0
C309 C 0.4685 0.47381 0.96256 0.0
C310 C 0.60236 0.5958 -0.00557 0.0
C311 C 0.63859 0.60118 0.96712 0.0
C312 C 0.52527 0.5231 0.96192 0.0
C313 C 0.61537 0.57206 0.93566 0.0
C314 C 0.433 0.4575 0.93329 0.0
C315 C 0.39494 0.40543 -0.0021 0.0
N316 N 0.55995 0.53304 0.93408 0.0
N317 N 0.44892 0.44592 -0.00654 0.0
H318 H 0.00902 0.61905 0.35522 0.0
H319 H 0.93266 0.34771 0.24625 0.0
H320 H 0.06113 0.64023 0.24701 0.0
H321 H 0.98389 0.37293 0.35474 0.0
H322 H 0.967 0.44877 0.24071 0.0
H323 H 0.97453 0.51887 0.3502 0.0
C324 C 0.01071 0.60206 0.3299 0.0
C325 C 0.03775 0.63772 0.30151 0.0
C326 C 0.97213 0.43219 0.26535 0.0
C327 C 0.00111 0.5238 0.29602 0.0
C328 C 0.9538 0.37487 0.26834 0.0
C329 C 0.95545 0.35209 0.30108 0.0
C330 C 0.99124 0.46594 0.29544 0.0
C331 C 0.98187 0.38888 0.32909 0.0
C332 C 0.99238 0.54521 0.32727 0.0
C333 C 0.03986 0.6138 0.26937 0.0
N334 N -0.00262 0.44369 0.3259 0.0
N335 N 0.02267 0.5581 0.26757 0.0
H336 H 0.37904 0.00134 0.6965 0.0
H337 H 0.58324 0.93867 0.58706 0.0
H338 H 0.40818 0.05349 0.58812 0.0
H339 H 0.60742 0.98938 0.69563 0.0
H340 H 0.51287 0.96805 0.58188 0.0
H341 H 0.44812 0.97129 0.69154 0.0
C342 C 0.39804 0.00394 0.67117 0.0
C343 C 0.38818 0.03023 0.6428 0.0
C344 C 0.5349 0.97416 0.60648 0.0
C345 C 0.46896 -0.00167 0.63733 0.0
C346 C 0.57601 0.95874 0.60926 0.0
C347 C 0.60099 0.96143 0.64194 0.0
C348 C 0.51875 0.99152 0.63669 0.0
C349 C 0.58904 0.98651 0.67004 0.0
C350 C 0.43849 0.98817 0.66859 0.0
C351 C 0.41443 0.03312 0.61059 0.0
N352 N 0.54769 -0.00088 0.66705 0.0
N353 N 0.4547 0.01842 0.60884 0.0
H354 H 0.4731 0.62384 0.672 0.0
H355 H 0.52333 0.3681 0.66031 0.0
H356 H 0.6304 0.64562 0.63492 0.0
H357 H 0.36137 0.34882 0.63839 0.0
H358 H 0.56424 0.46961 0.65882 0.0
H359 H 0.43248 0.5227 0.66797 0.0
C360 C 0.49931 0.60734 0.66321 0.0
C361 C 0.55547 0.64324 0.65398 0.0
C362 C 0.51985 0.44318 0.65415 0.0
C363 C 0.50886 0.52735 0.64944 0.0
C364 C 0.4963 0.38531 0.65526 0.0
C365 C 0.43872 0.3501 0.64973 0.0
C366 C 0.48545 0.46614 0.64824 0.0
C367 C 0.40587 0.37458 0.64283 0.0
C368 C 0.4758 0.54961 0.66062 0.0
C369 C 0.58706 0.61942 0.64237 0.0
N370 N 0.42964 0.43135 0.64274 0.0
N371 N 0.56342 0.56271 0.64078 0.0
H372 H 0.01157 0.36346 0.97971 0.0
H373 H 0.98673 0.63789 0.97568 0.0
H374 H 0.15177 0.5248 0.00669 0.0
H375 H 0.85217 0.47942 0.01267 0.0
H376 H 0.04841 0.59718 0.97547 0.0
H377 H 0.95123 0.40551 0.97983 0.0
C378 C 0.02952 0.40755 -0.01436 0.0
C379 C 0.0864 0.44059 -0.00645 0.0
C380 C 0.00532 0.57171 0.98371 0.0
C381 C 0.01861 0.48887 -0.00715 0.0
C382 C 0.97032 0.59483 0.98383 0.0
C383 C 0.91452 0.56216 -0.00556 0.0
C384 C 0.98366 0.51533 -0.00671 0.0
C385 C 0.8951 0.50637 0.00462 0.0
C386 C 0.99527 0.43144 -0.01425 0.0
C387 C 0.10786 0.49769 0.00092 0.0
N388 N 0.92945 0.48457 0.00346 0.0
N389 N 0.07403 0.52018 0.00011 0.0
H390 H 0.35371 0.92077 0.37938 0.0
H391 H 0.63373 0.05064 0.26713 0.0
H392 H 0.35466 0.94158 0.26708 0.0
H393 H 0.63117 0.0871 0.37703 0.0
H394 H 0.53103 -0.00101 0.26707 0.0
H395 H 0.45571 0.97461 0.37951 0.0
C396 C 0.37555 0.93789 0.35485 0.0
C397 C 0.34601 0.92731 0.32321 0.0
C398 C 0.55314 0.01802 0.2912 0.0
C399 C 0.46246 0.98689 0.32295 0.0
C400 C 0.61155 0.04661 0.29138 0.0
C401 C 0.64072 0.07286 0.32217 0.0
C402 C 0.52413 0.01519 0.32212 0.0
C403 C 0.61014 0.06737 0.35275 0.0
C404 C 0.43366 0.96817 0.35489 0.0
C405 C 0.37608 0.94967 0.29206 0.0
N406 N 0.5535 0.03915 0.35196 0.0
N407 N 0.43293 0.97783 0.29261 0.0
H408 H 0.30933 0.13652 0.77231 0.0
H409 H 0.09634 0.24066 0.81334 0.0
H410 H 0.21027 0.1551 0.69146 0.0
H411 H 0.16947 0.18609 0.89263 0.0
H412 H 0.12789 0.19907 0.768 0.0
H413 H 0.24951 0.14317 0.8167 0.0
C414 C 0.27433 0.14107 0.76392 0.0
C415 C 0.26508 0.14594 0.72823 0.0
C416 C 0.13589 0.19494 0.79537 0.0
C417 C 0.19703 0.15483 0.77891 0.0
C418 C 0.11774 0.21844 0.82104 0.0
C419 C 0.13059 0.21636 0.85632 0.0
C420 C 0.16765 0.17014 0.80535 0.0
C421 C 0.15897 0.1881 0.86548 0.0
C422 C 0.24011 0.14486 0.78927 0.0
C423 C 0.21891 0.15136 0.71876 0.0
N424 N 0.17725 0.16669 0.84011 0.0
N425 N 0.18717 0.1568 0.74401 0.0
H426 H 0.85963 0.08806 0.14479 0.0
H427 H 0.17634 0.30677 0.10641 0.0
H428 H 0.98445 0.16789 0.225 0.0
H429 H 0.05954 0.20952 0.0248 0.0
H430 H 0.11027 0.24449 0.15025 0.0
H431 H 0.93413 0.11971 0.10042 0.0
C432 C 0.90295 0.11096 0.15295 0.0
C433 C 0.91662 0.12581 0.18814 0.0
C434 C 0.09931 0.23601 0.12275 0.0
C435 C 0.00144 0.16293 0.13824 0.0
C436 C 0.13712 0.27162 0.0977 0.0
C437 C 0.12299 0.26377 0.062 0.0
C438 C 0.04647 0.19292 0.11207 0.0
C439 C 0.07188 0.21725 0.05212 0.0
C440 C 0.94538 0.12919 0.12781 0.0
C441 C 0.9729 0.15597 0.19788 0.0
N442 N 0.03488 0.1842 0.0771 0.0
N443 N 0.01333 0.17424 0.173 0.0
H444 H 0.81224 0.99378 0.56191 0.0
H445 H 0.84687 0.05641 0.35629 0.0
H446 H 0.76967 0.86651 0.48366 0.0
H447 H 0.86251 0.17462 0.43591 0.0
H448 H 0.84235 0.99243 0.40257 0.0
H449 H 0.85462 0.06582 0.51634 0.0
C450 C 0.81315 0.98145 0.53504 0.0
C451 C 0.78763 0.92478 0.52613 0.0
C452 C 0.84787 0.03284 0.40983 0.0
C453 C 0.83447 0.00608 0.47382 0.0
C454 C 0.85079 0.06952 0.38345 0.0
C455 C 0.85418 0.12052 0.39233 0.0
C456 C 0.84864 0.04755 0.44521 0.0
C457 C 0.85908 0.13537 0.4279 0.0
C458 C 0.83699 0.02228 0.50905 0.0
C459 C 0.78924 0.9101 0.4912 0.0
N460 N 0.85548 0.09878 0.45302 0.0
N461 N 0.81157 0.95059 0.46606 0.0
H462 H 0.68125 0.85905 0.77491 0.0
H463 H 0.86066 0.84353 0.89423 0.0
H464 H 0.78264 0.84423 0.69422 0.0
H465 H 0.87079 0.73871 0.8145 0.0
H466 H 0.82666 0.88445 0.84999 0.0
H467 H 0.74261 0.85482 0.8194 0.0
C468 C 0.71729 0.85632 0.76656 0.0
C469 C 0.72679 0.85176 0.73087 0.0
C470 C 0.8369 0.85296 0.84206 0.0
C471 C 0.7972 0.84683 0.7816 0.0
C472 C 0.85691 0.83034 0.86711 0.0
C473 C 0.868 0.78784 0.85765 0.0
C474 C 0.82791 0.83253 0.80749 0.0
C475 C 0.86234 0.7714 0.82247 0.0
C476 C 0.75261 0.85435 0.79197 0.0
C477 C 0.77392 0.848 0.72147 0.0
N478 N 0.84218 0.79349 0.79858 0.0
N479 N 0.80667 0.84427 0.74676 0.0
H480 H 0.11765 0.91233 0.15097 0.0
H481 H 0.80799 0.67808 0.10664 0.0
H482 H 0.99522 0.81033 0.22821 0.0
H483 H 0.92385 0.78805 0.02829 0.0
H484 H 0.87006 0.73907 0.15242 0.0
H485 H 0.043 0.88083 0.10667 0.0
C486 C 0.07469 0.88441 0.15859 0.0
C487 C 0.06194 0.86317 0.19277 0.0
C488 C 0.8816 0.75055 0.12523 0.0
C489 C 0.97707 0.82645 0.14291 0.0
C490 C 0.84604 0.7157 0.09907 0.0
C491 C 0.8613 0.7275 0.06366 0.0
C492 C 0.93331 0.79695 0.11595 0.0
C493 C 0.91078 0.77712 0.05532 0.0
C494 C 0.0322 0.86627 0.13348 0.0
C495 C 0.00614 0.82694 0.20182 0.0
N496 N 0.94567 0.80947 0.08132 0.0
N497 N 0.96576 0.80906 0.17692 0.0
H498 H 0.20891 0.1211 0.48463 0.0
H499 H 0.12388 0.80859 0.43721 0.0
H500 H 0.18926 0.99619 0.55999 0.0
H501 H 0.13634 0.92898 0.35995 0.0
H502 H 0.12778 0.87114 0.48357 0.0
H503 H 0.16409 0.04735 0.43983 0.0
C504 C 0.19394 0.07786 0.49173 0.0
C505 C 0.20329 0.06421 0.52549 0.0
C506 C 0.12867 0.88362 0.4565 0.0
C507 C 0.15283 0.98028 0.47508 0.0
C508 C 0.12626 0.84775 0.42999 0.0
C509 C 0.13078 0.86406 0.39472 0.0
C510 C 0.13672 0.93668 0.44771 0.0
C511 C 0.13323 0.91501 0.38686 0.0
C512 C 0.16859 0.03588 0.46634 0.0
C513 C 0.1834 0.00797 0.53388 0.0
N514 N 0.13741 0.95013 0.4132 0.0
N515 N 0.15975 0.9681 0.50873 0.0
loop_
_geom_bond_atom_site_label_1
_geom_bond_atom_site_label_2
_geom_bond_distance
_geom_bond_site_symmetry_2
_ccdc_geom_bond_type
Zn0 O1 2.055 . S
Zn0 O8 2.046 1_554 S
Zn0 N16 2.036 . S
Zn0 O28 2.053 . S
Zn0 O30 2.066 . S
O1 Zn0 2.055 . S
O1 C4 1.259 1_554 S
C2 O30 1.256 . S
C2 O31 1.244 . S
Zn3 O5 2.046 . S
Zn3 O7 2.055 . S
Zn3 N9 2.036 . S
Zn3 O27 2.066 . S
Zn3 O31 2.053 1_556 S
C4 O1 1.259 1_556 S
C4 O5 1.254 . S
O5 Zn3 2.046 . S
O5 C4 1.254 . S
C6 O27 1.256 1_554 S
C6 O28 1.244 . S
O7 Zn3 2.055 . S
O7 C29 1.259 . S
O8 Zn0 2.046 1_556 S
O8 C29 1.254 . S
N9 Zn3 2.036 . S
N9 C10 1.298 . S
N9 N12 1.398 . S
C10 N9 1.298 . S
C10 N13 1.367 . S
C10 C23 1.481 . S
C11 N12 1.299 . S
C11 N13 1.379 . S
N12 N9 1.398 . S
N12 C11 1.299 . S
N13 C10 1.367 . S
N13 C11 1.379 . S
C14 N16 1.298 . S
C14 N18 1.367 . S
C14 C22 1.481 . S
C15 N17 1.299 . S
C15 N18 1.379 . S
N16 Zn0 2.036 . S
N16 C14 1.298 . S
N16 N17 1.398 . S
N17 C15 1.299 . S
N17 N16 1.398 . S
N18 C14 1.367 . S
N18 C15 1.379 . S
H19 C22 0.980 . S
H20 C22 0.981 . S
H21 C22 0.981 . S
C22 C14 1.481 . S
C22 H19 0.980 . S
C22 H20 0.981 . S
C22 H21 0.981 . S
C23 C10 1.481 . S
C23 H24 0.980 . S
C23 H25 0.981 . S
C23 H26 0.981 . S
H24 C23 0.980 . S
H25 C23 0.981 . S
H26 C23 0.981 . S
O27 Zn3 2.066 . S
O27 C6 1.256 1_556 S
O28 Zn0 2.053 . S
O28 C6 1.244 . S
C29 O7 1.259 . S
C29 O8 1.254 . S
O30 Zn0 2.066 . S
O30 C2 1.256 . S
O31 C2 1.244 . S
O31 Zn3 2.053 1_554 S
Zn32 O33 2.055 . S
Zn32 O40 2.046 . S
Zn32 N48 2.036 . S
Zn32 O60 2.053 . S
Zn32 O62 2.066 . S
O33 Zn32 2.055 . S
O33 C36 1.259 . S
C34 O62 1.256 . S
C34 O63 1.244 . S
Zn35 O37 2.046 . S
Zn35 O39 2.055 . S
Zn35 N41 2.036 . S
Zn35 O59 2.066 . S
Zn35 O63 2.053 . S
C36 O33 1.259 . S
C36 O37 1.254 . S
O37 Zn35 2.046 . S
O37 C36 1.254 . S
C38 O59 1.256 . S
C38 O60 1.244 . S
O39 Zn35 2.055 . S
O39 C61 1.259 . S
O40 Zn32 2.046 . S
O40 C61 1.254 . S
N41 Zn35 2.036 . S
N41 C42 1.298 . S
N41 N44 1.398 . S
C42 N41 1.298 . S
C42 N45 1.367 . S
C42 C55 1.481 . S
C43 N44 1.299 . S
C43 N45 1.379 . S
N44 N41 1.398 . S
N44 C43 1.299 . S
N45 C42 1.367 . S
N45 C43 1.379 . S
C46 N48 1.298 . S
C46 N50 1.367 . S
C46 C54 1.481 . S
C47 N49 1.299 . S
C47 N50 1.379 . S
N48 Zn32 2.036 . S
N48 C46 1.298 . S
N48 N49 1.398 . S
N49 C47 1.299 . S
N49 N48 1.398 . S
N50 C46 1.367 . S
N50 C47 1.379 . S
H51 C54 0.980 . S
H52 C54 0.981 . S
H53 C54 0.981 . S
C54 C46 1.481 . S
C54 H51 0.980 . S
C54 H52 0.981 . S
C54 H53 0.981 . S
C55 C42 1.481 . S
C55 H56 0.980 . S
C55 H57 0.981 . S
C55 H58 0.981 . S
H56 C55 0.980 . S
H57 C55 0.981 . S
H58 C55 0.981 . S
O59 Zn35 2.066 . S
O59 C38 1.256 . S
O60 Zn32 2.053 . S
O60 C38 1.244 . S
C61 O39 1.259 . S
C61 O40 1.254 . S
O62 Zn32 2.066 . S
O62 C34 1.256 . S
O63 C34 1.244 . S
O63 Zn35 2.053 . S
Zn64 O65 2.055 . S
Zn64 O72 2.046 . S
Zn64 N80 2.036 . S
Zn64 O92 2.053 . S
Zn64 O94 2.066 . S
O65 Zn64 2.055 . S
O65 C68 1.259 . S
C66 O94 1.256 . S
C66 O95 1.244 . S
Zn67 O69 2.046 . S
Zn67 O71 2.055 . S
Zn67 N73 2.036 . S
Zn67 O91 2.066 . S
Zn67 O95 2.053 . S
C68 O65 1.259 . S
C68 O69 1.254 . S
O69 Zn67 2.046 . S
O69 C68 1.254 . S
C70 O91 1.256 . S
C70 O92 1.244 . S
O71 Zn67 2.055 . S
O71 C93 1.259 . S
O72 Zn64 2.046 . S
O72 C93 1.254 . S
N73 Zn67 2.036 . S
N73 C74 1.298 . S
N73 N76 1.398 . S
C74 N73 1.298 . S
C74 N77 1.367 . S
C74 C87 1.481 . S
C75 N76 1.299 . S
C75 N77 1.379 . S
N76 N73 1.398 . S
N76 C75 1.299 . S
N77 C74 1.367 . S
N77 C75 1.379 . S
C78 N80 1.298 . S
C78 N82 1.367 . S
C78 C86 1.481 . S
C79 N81 1.299 . S
C79 N82 1.379 . S
N80 Zn64 2.036 . S
N80 C78 1.298 . S
N80 N81 1.398 . S
N81 C79 1.299 . S
N81 N80 1.398 . S
N82 C78 1.367 . S
N82 C79 1.379 . S
H83 C86 0.980 . S
H84 C86 0.981 . S
H85 C86 0.981 . S
C86 C78 1.481 . S
C86 H83 0.980 . S
C86 H84 0.981 . S
C86 H85 0.981 . S
C87 C74 1.481 . S
C87 H88 0.980 . S
C87 H89 0.981 . S
C87 H90 0.981 . S
H88 C87 0.980 . S
H89 C87 0.981 . S
H90 C87 0.981 . S
O91 Zn67 2.066 . S
O91 C70 1.256 . S
O92 Zn64 2.053 . S
O92 C70 1.244 . S
C93 O71 1.259 . S
C93 O72 1.254 . S
O94 Zn64 2.066 . S
O94 C66 1.256 . S
O95 C66 1.244 . S
O95 Zn67 2.053 . S
Zn96 O97 2.055 . S
Zn96 O104 2.046 1_554 S
Zn96 N112 2.036 . S
Zn96 O124 2.053 . S
Zn96 O126 2.066 . S
O97 Zn96 2.055 . S
O97 C100 1.259 1_554 S
C98 O126 1.256 . S
C98 O127 1.244 . S
Zn99 O101 2.046 . S
Zn99 O103 2.055 . S
Zn99 N105 2.036 . S
Zn99 O123 2.066 . S
Zn99 O127 2.053 1_556 S
C100 O97 1.259 1_556 S
C100 O101 1.254 . S
O101 Zn99 2.046 . S
O101 C100 1.254 . S
C102 O123 1.256 1_554 S
C102 O124 1.244 . S
O103 Zn99 2.055 . S
O103 C125 1.259 . S
O104 Zn96 2.046 1_556 S
O104 C125 1.254 . S
N105 Zn99 2.036 . S
N105 C106 1.298 . S
N105 N108 1.398 . S
C106 N105 1.298 . S
C106 N109 1.367 . S
C106 C119 1.481 . S
C107 N108 1.299 . S
C107 N109 1.379 . S
N108 N105 1.398 . S
N108 C107 1.299 . S
N109 C106 1.367 . S
N109 C107 1.379 . S
C110 N112 1.298 . S
C110 N114 1.367 . S
C110 C118 1.481 . S
C111 N113 1.299 . S
C111 N114 1.379 . S
N112 Zn96 2.036 . S
N112 C110 1.298 . S
N112 N113 1.398 . S
N113 C111 1.299 . S
N113 N112 1.398 . S
N114 C110 1.367 . S
N114 C111 1.379 . S
H115 C118 0.980 . S
H116 C118 0.981 . S
H117 C118 0.981 . S
C118 C110 1.481 . S
C118 H115 0.980 . S
C118 H116 0.981 . S
C118 H117 0.981 . S
C119 C106 1.481 . S
C119 H120 0.980 . S
C119 H121 0.981 . S
C119 H122 0.981 . S
H120 C119 0.980 . S
H121 C119 0.981 . S
H122 C119 0.981 . S
O123 Zn99 2.066 . S
O123 C102 1.256 1_556 S
O124 Zn96 2.053 . S
O124 C102 1.244 . S
C125 O103 1.259 . S
C125 O104 1.254 . S
O126 Zn96 2.066 . S
O126 C98 1.256 . S
O127 C98 1.244 . S
O127 Zn99 2.053 1_554 S
Zn128 O129 2.055 . S
Zn128 O136 2.046 . S
Zn128 N144 2.036 . S
Zn128 O156 2.053 . S
Zn128 O158 2.066 . S
O129 Zn128 2.055 . S
O129 C132 1.259 . S
C130 O158 1.256 . S
C130 O159 1.244 . S
Zn131 O133 2.046 . S
Zn131 O135 2.055 . S
Zn131 N137 2.036 . S
Zn131 O155 2.066 . S
Zn131 O159 2.053 . S
C132 O129 1.259 . S
C132 O133 1.254 . S
O133 Zn131 2.046 . S
O133 C132 1.254 . S
C134 O155 1.256 . S
C134 O156 1.244 . S
O135 Zn131 2.055 . S
O135 C157 1.259 . S
O136 Zn128 2.046 . S
O136 C157 1.254 . S
N137 Zn131 2.036 . S
N137 C138 1.298 . S
N137 N140 1.398 . S
C138 N137 1.298 . S
C138 N141 1.367 . S
C138 C151 1.481 . S
C139 N140 1.299 . S
C139 N141 1.379 . S
N140 N137 1.398 . S
N140 C139 1.299 . S
N141 C138 1.367 . S
N141 C139 1.379 . S
C142 N144 1.298 . S
C142 N146 1.367 . S
C142 C150 1.481 . S
C143 N145 1.299 . S
C143 N146 1.379 . S
N144 Zn128 2.036 . S
N144 C142 1.298 . S
N144 N145 1.398 . S
N145 C143 1.299 . S
N145 N144 1.398 . S
N146 C142 1.367 . S
N146 C143 1.379 . S
H147 C150 0.980 . S
H148 C150 0.981 . S
H149 C150 0.981 . S
C150 C142 1.481 . S
C150 H147 0.980 . S
C150 H148 0.981 . S
C150 H149 0.981 . S
C151 C138 1.481 . S
C151 H152 0.980 . S
C151 H153 0.981 . S
C151 H154 0.981 . S
H152 C151 0.980 . S
H153 C151 0.981 . S
H154 C151 0.981 . S
O155 Zn131 2.066 . S
O155 C134 1.256 . S
O156 Zn128 2.053 . S
O156 C134 1.244 . S
C157 O135 1.259 . S
C157 O136 1.254 . S
O158 Zn128 2.066 . S
O158 C130 1.256 . S
O159 C130 1.244 . S
O159 Zn131 2.053 . S
Zn160 O161 2.055 . S
Zn160 O168 2.046 . S
Zn160 N176 2.036 . S
Zn160 O188 2.053 . S
Zn160 O190 2.066 . S
O161 Zn160 2.055 . S
O161 C164 1.259 . S
C162 O190 1.256 . S
C162 O191 1.244 . S
Zn163 O165 2.046 . S
Zn163 O167 2.055 . S
Zn163 N169 2.036 . S
Zn163 O187 2.066 . S
Zn163 O191 2.053 . S
C164 O161 1.259 . S
C164 O165 1.254 . S
O165 Zn163 2.046 . S
O165 C164 1.254 . S
C166 O187 1.256 . S
C166 O188 1.244 . S
O167 Zn163 2.055 . S
O167 C189 1.259 . S
O168 Zn160 2.046 . S
O168 C189 1.254 . S
N169 Zn163 2.036 . S
N169 C170 1.298 . S
N169 N172 1.398 . S
C170 N169 1.298 . S
C170 N173 1.367 . S
C170 C183 1.481 . S
C171 N172 1.299 . S
C171 N173 1.379 . S
N172 N169 1.398 . S
N172 C171 1.299 . S
N173 C170 1.367 . S
N173 C171 1.379 . S
C174 N176 1.298 . S
C174 N178 1.367 . S
C174 C182 1.481 . S
C175 N177 1.299 . S
C175 N178 1.379 . S
N176 Zn160 2.036 . S
N176 C174 1.298 . S
N176 N177 1.398 . S
N177 C175 1.299 . S
N177 N176 1.398 . S
N178 C174 1.367 . S
N178 C175 1.379 . S
H179 C182 0.980 . S
H180 C182 0.981 . S
H181 C182 0.981 . S
C182 C174 1.481 . S
C182 H179 0.980 . S
C182 H180 0.981 . S
C182 H181 0.981 . S
C183 C170 1.481 . S
C183 H184 0.980 . S
C183 H185 0.981 . S
C183 H186 0.981 . S
H184 C183 0.980 . S
H185 C183 0.981 . S
H186 C183 0.981 . S
O187 Zn163 2.066 . S
O187 C166 1.256 . S
O188 Zn160 2.053 . S
O188 C166 1.244 . S
C189 O167 1.259 . S
C189 O168 1.254 . S
O190 Zn160 2.066 . S
O190 C162 1.256 . S
O191 C162 1.244 . S
O191 Zn163 2.053 . S
H192 C198 0.930 . S
H193 C202 0.930 . S
H194 C207 0.929 . S
H195 C205 0.929 . S
H196 C200 0.929 . S
H197 C206 0.929 . S
C198 H192 0.930 . S
C198 C199 1.367 . S
C198 C206 1.378 . S
C199 C198 1.367 . S
C199 C207 1.433 . S
C200 H196 0.929 . S
C200 C202 1.378 . S
C200 C204 1.350 . S
C201 C204 1.463 . S
C201 C206 1.350 . S
C201 N209 1.427 . S
C202 H193 0.930 . S
C202 C200 1.378 . S
C202 C203 1.367 . S
C203 C202 1.367 . S
C203 C205 1.433 . S
C204 C200 1.350 . S
C204 C201 1.463 . S
C204 N208 1.427 . S
C205 H195 0.929 . S
C205 C203 1.433 . S
C205 N208 1.384 . S
C206 H197 0.929 . S
C206 C198 1.378 . S
C206 C201 1.350 . S
C207 H194 0.929 . S
C207 C199 1.433 . S
C207 N209 1.384 . S
N208 C204 1.427 . S
N208 C205 1.384 . S
N209 C201 1.427 . S
N209 C207 1.384 . S
H210 C216 0.930 . S
H211 C220 0.930 . S
H212 C225 0.929 . S
H213 C223 0.929 . S
H214 C218 0.929 . S
H215 C224 0.929 . S
C216 H210 0.930 . S
C216 C217 1.367 . S
C216 C224 1.378 . S
C217 C216 1.367 . S
C217 C225 1.433 . S
C218 H214 0.929 . S
C218 C220 1.378 . S
C218 C222 1.350 . S
C219 C222 1.463 . S
C219 C224 1.350 . S
C219 N227 1.427 . S
C220 H211 0.930 . S
C220 C218 1.378 . S
C220 C221 1.367 . S
C221 C220 1.367 . S
C221 C223 1.433 . S
C222 C218 1.350 . S
C222 C219 1.463 . S
C222 N226 1.427 . S
C223 H213 0.929 . S
C223 C221 1.433 . S
C223 N226 1.384 . S
C224 H215 0.929 . S
C224 C216 1.378 . S
C224 C219 1.350 . S
C225 H212 0.929 . S
C225 C217 1.433 . S
C225 N227 1.384 . S
N226 C222 1.427 . S
N226 C223 1.384 . S
N227 C219 1.427 . S
N227 C225 1.384 . S
H228 C234 0.930 . S
H229 C238 0.930 . S
H230 C243 0.929 . S
H231 C241 0.929 . S
H232 C236 0.929 . S
H233 C242 0.929 . S
C234 H228 0.930 . S
C234 C235 1.367 . S
C234 C242 1.378 . S
C235 C234 1.367 . S
C235 C243 1.433 . S
C236 H232 0.929 . S
C236 C238 1.378 . S
C236 C240 1.350 . S
C237 C240 1.463 . S
C237 C242 1.350 . S
C237 N245 1.427 . S
C238 H229 0.930 . S
C238 C236 1.378 . S
C238 C239 1.367 . S
C239 C238 1.367 . S
C239 C241 1.433 . S
C240 C236 1.350 . S
C240 C237 1.463 . S
C240 N244 1.427 . S
C241 H231 0.929 . S
C241 C239 1.433 . S
C241 N244 1.384 . S
C242 H233 0.929 . S
C242 C234 1.378 . S
C242 C237 1.350 . S
C243 H230 0.929 . S
C243 C235 1.433 . S
C243 N245 1.384 . S
N244 C240 1.427 . S
N244 C241 1.384 . S
N245 C237 1.427 . S
N245 C243 1.384 . S
H246 C252 0.930 . S
H247 C256 0.930 . S
H248 C261 0.929 . S
H249 C259 0.929 . S
H250 C254 0.929 . S
H251 C260 0.929 . S
C252 H246 0.930 . S
C252 C253 1.367 . S
C252 C260 1.378 . S
C253 C252 1.367 . S
C253 C261 1.433 . S
C254 H250 0.929 . S
C254 C256 1.378 . S
C254 C258 1.350 . S
C255 C258 1.463 . S
C255 C260 1.350 . S
C255 N263 1.427 . S
C256 H247 0.930 . S
C256 C254 1.378 . S
C256 C257 1.367 . S
C257 C256 1.367 . S
C257 C259 1.433 . S
C258 C254 1.350 . S
C258 C255 1.463 . S
C258 N262 1.427 . S
C259 H249 0.929 . S
C259 C257 1.433 . S
C259 N262 1.384 . S
C260 H251 0.929 . S
C260 C252 1.378 . S
C260 C255 1.350 . S
C261 H248 0.929 . S
C261 C253 1.433 . S
C261 N263 1.384 . S
N262 C258 1.427 . S
N262 C259 1.384 . S
N263 C255 1.427 . S
N263 C261 1.384 . S
H264 C270 0.930 . S
H265 C274 0.930 . S
H266 C279 0.929 . S
H267 C277 0.929 . S
H268 C272 0.929 . S
H269 C278 0.929 . S
C270 H264 0.930 . S
C270 C271 1.367 . S
C270 C278 1.378 . S
C271 C270 1.367 . S
C271 C279 1.433 . S
C272 H268 0.929 . S
C272 C274 1.378 . S
C272 C276 1.350 . S
C273 C276 1.463 . S
C273 C278 1.350 . S
C273 N281 1.427 . S
C274 H265 0.930 . S
C274 C272 1.378 . S
C274 C275 1.367 . S
C275 C274 1.367 . S
C275 C277 1.433 . S
C276 C272 1.350 . S
C276 C273 1.463 . S
C276 N280 1.427 . S
C277 H267 0.929 . S
C277 C275 1.433 . S
C277 N280 1.384 . S
C278 H269 0.929 . S
C278 C270 1.378 . S
C278 C273 1.350 . S
C279 H266 0.929 . S
C279 C271 1.433 . S
C279 N281 1.384 . S
N280 C276 1.427 . S
N280 C277 1.384 . S
N281 C273 1.427 . S
N281 C279 1.384 . S
H282 C288 0.930 . S
H283 C292 0.930 . S
H284 C297 0.929 . S
H285 C295 0.929 . S
H286 C290 0.929 . S
H287 C296 0.929 . S
C288 H282 0.930 . S
C288 C289 1.367 . S
C288 C296 1.378 . S
C289 C288 1.367 . S
C289 C297 1.433 . S
C290 H286 0.929 . S
C290 C292 1.378 . S
C290 C294 1.350 . S
C291 C294 1.463 . S
C291 C296 1.350 . S
C291 N299 1.427 . S
C292 H283 0.930 . S
C292 C290 1.378 . S
C292 C293 1.367 . S
C293 C292 1.367 . S
C293 C295 1.433 . S
C294 C290 1.350 . S
C294 C291 1.463 . S
C294 N298 1.427 . S
C295 H285 0.929 . S
C295 C293 1.433 . S
C295 N298 1.384 . S
C296 H287 0.929 . S
C296 C288 1.378 . S
C296 C291 1.350 . S
C297 H284 0.929 . S
C297 C289 1.433 . S
C297 N299 1.384 . S
N298 C294 1.427 . S
N298 C295 1.384 . S
N299 C291 1.427 . S
N299 C297 1.384 . S
H300 C306 0.930 . S
H301 C310 0.930 . S
H302 C315 0.929 . S
H303 C313 0.929 . S
H304 C308 0.929 . S
H305 C314 0.929 . S
C306 H300 0.930 . S
C306 C307 1.367 1_556 S
C306 C314 1.378 . S
C307 C306 1.367 1_554 S
C307 C315 1.433 . S
C308 H304 0.929 . S
C308 C310 1.378 . S
C308 C312 1.350 . S
C309 C312 1.463 . S
C309 C314 1.350 1_554 S
C309 N317 1.427 . S
C310 H301 0.930 . S
C310 C308 1.378 . S
C310 C311 1.367 . S
C311 C310 1.367 . S
C311 C313 1.433 1_554 S
C312 C308 1.350 . S
C312 C309 1.463 . S
C312 N316 1.427 1_554 S
C313 H303 0.929 . S
C313 C311 1.433 1_556 S
C313 N316 1.384 . S
C314 H305 0.929 . S
C314 C306 1.378 . S
C314 C309 1.350 1_556 S
C315 H302 0.929 . S
C315 C307 1.433 . S
C315 N317 1.384 . S
N316 C312 1.427 1_556 S
N316 C313 1.384 . S
N317 C309 1.427 . S
N317 C315 1.384 . S
H318 C324 0.930 . S
H319 C328 0.930 . S
H320 C333 0.929 . S
H321 C331 0.929 . S
H322 C326 0.929 1_455 S
H323 C332 0.929 1_655 S
C324 H318 0.930 . S
C324 C325 1.367 . S
C324 C332 1.378 . S
C325 C324 1.367 . S
C325 C333 1.433 . S
C326 H322 0.929 1_655 S
C326 C328 1.378 . S
C326 C330 1.350 . S
C327 C330 1.463 1_455 S
C327 C332 1.350 . S
C327 N335 1.427 . S
C328 H319 0.930 . S
C328 C326 1.378 . S
C328 C329 1.367 . S
C329 C328 1.367 . S
C329 C331 1.433 . S
C330 C326 1.350 . S
C330 C327 1.463 1_655 S
C330 N334 1.427 . S
C331 H321 0.929 . S
C331 C329 1.433 . S
C331 N334 1.384 . S
C332 H323 0.929 1_455 S
C332 C324 1.378 . S
C332 C327 1.350 . S
C333 H320 0.929 . S
C333 C325 1.433 . S
C333 N335 1.384 . S
N334 C330 1.427 . S
N334 C331 1.384 . S
N335 C327 1.427 . S
N335 C333 1.384 . S
H336 C342 0.930 . S
H337 C346 0.930 . S
H338 C351 0.929 . S
H339 C349 0.929 . S
H340 C344 0.929 1_545 S
H341 C350 0.929 1_565 S
C342 H336 0.930 . S
C342 C343 1.367 . S
C342 C350 1.378 . S
C343 C342 1.367 . S
C343 C351 1.433 . S
C344 H340 0.929 1_565 S
C344 C346 1.378 . S
C344 C348 1.350 . S
C345 C348 1.463 1_545 S
C345 C350 1.350 . S
C345 N353 1.427 . S
C346 H337 0.930 . S
C346 C344 1.378 . S
C346 C347 1.367 . S
C347 C346 1.367 . S
C347 C349 1.433 . S
C348 C344 1.350 . S
C348 C345 1.463 1_565 S
C348 N352 1.427 . S
C349 H339 0.929 . S
C349 C347 1.433 . S
C349 N352 1.384 . S
C350 H341 0.929 1_545 S
C350 C342 1.378 . S
C350 C345 1.350 . S
C351 H338 0.929 . S
C351 C343 1.433 . S
C351 N353 1.384 . S
N352 C348 1.427 . S
N352 C349 1.384 . S
N353 C345 1.427 . S
N353 C351 1.384 . S
H354 C360 0.930 . S
H355 C364 0.930 . S
H356 C369 0.929 . S
H357 C367 0.929 . S
H358 C362 0.929 . S
H359 C368 0.929 . S
C360 H354 0.930 . S
C360 C361 1.367 . S
C360 C368 1.378 . S
C361 C360 1.367 . S
C361 C369 1.433 . S
C362 H358 0.929 . S
C362 C364 1.378 . S
C362 C366 1.350 . S
C363 C366 1.463 . S
C363 C368 1.350 . S
C363 N371 1.427 . S
C364 H355 0.930 . S
C364 C362 1.378 . S
C364 C365 1.367 . S
C365 C364 1.367 . S
C365 C367 1.433 . S
C366 C362 1.350 . S
C366 C363 1.463 . S
C366 N370 1.427 . S
C367 H357 0.929 . S
C367 C365 1.433 . S
C367 N370 1.384 . S
C368 H359 0.929 . S
C368 C360 1.378 . S
C368 C363 1.350 . S
C369 H356 0.929 . S
C369 C361 1.433 . S
C369 N371 1.384 . S
N370 C366 1.427 . S
N370 C367 1.384 . S
N371 C363 1.427 . S
N371 C369 1.384 . S
H372 C378 0.930 . S
H373 C382 0.930 . S
H374 C387 0.929 . S
H375 C385 0.929 . S
H376 C380 0.929 . S
H377 C386 0.929 . S
C378 H372 0.930 . S
C378 C379 1.367 . S
C378 C386 1.378 1_455 S
C379 C378 1.367 . S
C379 C387 1.433 1_556 S
C380 H376 0.929 . S
C380 C382 1.378 1_455 S
C380 C384 1.350 1_454 S
C381 C384 1.463 1_455 S
C381 C386 1.350 1_455 S
C381 N389 1.427 1_556 S
C382 H373 0.930 . S
C382 C380 1.378 1_655 S
C382 C383 1.367 1_554 S
C383 C382 1.367 1_556 S
C383 C385 1.433 . S
C384 C380 1.350 1_656 S
C384 C381 1.463 1_655 S
C384 N388 1.427 . S
C385 H375 0.929 . S
C385 C383 1.433 . S
C385 N388 1.384 . S
C386 H377 0.929 . S
C386 C378 1.378 1_655 S
C386 C381 1.350 1_655 S
C387 H374 0.929 . S
C387 C379 1.433 1_554 S
C387 N389 1.384 . S
N388 C384 1.427 . S
N388 C385 1.384 . S
N389 C381 1.427 1_554 S
N389 C387 1.384 . S
H390 C396 0.930 . S
H391 C400 0.930 . S
H392 C405 0.929 . S
H393 C403 0.929 . S
H394 C398 0.929 1_565 S
H395 C404 0.929 1_545 S
C396 H390 0.930 . S
C396 C397 1.367 . S
C396 C404 1.378 . S
C397 C396 1.367 . S
C397 C405 1.433 . S
C398 H394 0.929 1_545 S
C398 C400 1.378 . S
C398 C402 1.350 . S
C399 C402 1.463 1_565 S
C399 C404 1.350 . S
C399 N407 1.427 . S
C400 H391 0.930 . S
C400 C398 1.378 . S
C400 C401 1.367 . S
C401 C400 1.367 . S
C401 C403 1.433 . S
C402 C398 1.350 . S
C402 C399 1.463 1_545 S
C402 N406 1.427 . S
C403 H393 0.929 . S
C403 C401 1.433 . S
C403 N406 1.384 . S
C404 H395 0.929 1_565 S
C404 C396 1.378 . S
C404 C399 1.350 . S
C405 H392 0.929 . S
C405 C397 1.433 . S
C405 N407 1.384 . S
N406 C402 1.427 . S
N406 C403 1.384 . S
N407 C399 1.427 . S
N407 C405 1.384 . S
H408 C414 0.930 . S
H409 C418 0.930 . S
H410 C423 0.929 . S
H411 C421 0.929 . S
H412 C416 0.929 . S
H413 C422 0.929 . S
C414 H408 0.930 . S
C414 C415 1.367 . S
C414 C422 1.378 . S
C415 C414 1.367 . S
C415 C423 1.433 . S
C416 H412 0.929 . S
C416 C418 1.378 . S
C416 C420 1.350 . S
C417 C420 1.463 . S
C417 C422 1.350 . S
C417 N425 1.427 . S
C418 H409 0.930 . S
C418 C416 1.378 . S
C418 C419 1.367 . S
C419 C418 1.367 . S
C419 C421 1.433 . S
C420 C416 1.350 . S
C420 C417 1.463 . S
C420 N424 1.427 . S
C421 H411 0.929 . S
C421 C419 1.433 . S
C421 N424 1.384 . S
C422 H413 0.929 . S
C422 C414 1.378 . S
C422 C417 1.350 . S
C423 H410 0.929 . S
C423 C415 1.433 . S
C423 N425 1.384 . S
N424 C420 1.427 . S
N424 C421 1.384 . S
N425 C417 1.427 . S
N425 C423 1.384 . S
H426 C432 0.930 . S
H427 C436 0.930 . S
H428 C441 0.929 . S
H429 C439 0.929 . S
H430 C434 0.929 . S
H431 C440 0.929 . S
C432 H426 0.930 . S
C432 C433 1.367 . S
C432 C440 1.378 . S
C433 C432 1.367 . S
C433 C441 1.433 1_655 S
C434 H430 0.929 . S
C434 C436 1.378 . S
C434 C438 1.350 . S
C435 C438 1.463 . S
C435 C440 1.350 1_455 S
C435 N443 1.427 . S
C436 H427 0.930 . S
C436 C434 1.378 . S
C436 C437 1.367 . S
C437 C436 1.367 . S
C437 C439 1.433 . S
C438 C434 1.350 . S
C438 C435 1.463 . S
C438 N442 1.427 . S
C439 H429 0.929 . S
C439 C437 1.433 . S
C439 N442 1.384 . S
C440 H431 0.929 . S
C440 C432 1.378 . S
C440 C435 1.350 1_655 S
C441 H428 0.929 . S
C441 C433 1.433 1_455 S
C441 N443 1.384 . S
N442 C438 1.427 . S
N442 C439 1.384 . S
N443 C435 1.427 . S
N443 C441 1.384 . S
H444 C450 0.930 . S
H445 C454 0.930 . S
H446 C459 0.929 . S
H447 C457 0.929 . S
H448 C452 0.929 . S
H449 C458 0.929 . S
C450 H444 0.930 . S
C450 C451 1.367 1_545 S
C450 C458 1.378 . S
C451 C450 1.367 1_565 S
C451 C459 1.433 . S
C452 H448 0.929 . S
C452 C454 1.378 . S
C452 C456 1.350 . S
C453 C456 1.463 . S
C453 C458 1.350 . S
C453 N461 1.427 1_545 S
C454 H445 0.930 . S
C454 C452 1.378 . S
C454 C455 1.367 . S
C455 C454 1.367 . S
C455 C457 1.433 . S
C456 C452 1.350 . S
C456 C453 1.463 . S
C456 N460 1.427 . S
C457 H447 0.929 . S
C457 C455 1.433 . S
C457 N460 1.384 . S
C458 H449 0.929 . S
C458 C450 1.378 . S
C458 C453 1.350 . S
C459 H446 0.929 . S
C459 C451 1.433 . S
C459 N461 1.384 . S
N460 C456 1.427 . S
N460 C457 1.384 . S
N461 C453 1.427 1_565 S
N461 C459 1.384 . S
H462 C468 0.930 . S
H463 C472 0.930 . S
H464 C477 0.929 . S
H465 C475 0.929 . S
H466 C470 0.929 . S
H467 C476 0.929 . S
C468 H462 0.930 . S
C468 C469 1.367 . S
C468 C476 1.378 . S
C469 C468 1.367 . S
C469 C477 1.433 . S
C470 H466 0.929 . S
C470 C472 1.378 . S
C470 C474 1.350 . S
C471 C474 1.463 . S
C471 C476 1.350 . S
C471 N479 1.427 . S
C472 H463 0.930 . S
C472 C470 1.378 . S
C472 C473 1.367 . S
C473 C472 1.367 . S
C473 C475 1.433 . S
C474 C470 1.350 . S
C474 C471 1.463 . S
C474 N478 1.427 . S
C475 H465 0.929 . S
C475 C473 1.433 . S
C475 N478 1.384 . S
C476 H467 0.929 . S
C476 C468 1.378 . S
C476 C471 1.350 . S
C477 H464 0.929 . S
C477 C469 1.433 . S
C477 N479 1.384 . S
N478 C474 1.427 . S
N478 C475 1.384 . S
N479 C471 1.427 . S
N479 C477 1.384 . S
H480 C486 0.930 . S
H481 C490 0.930 . S
H482 C495 0.929 . S
H483 C493 0.929 . S
H484 C488 0.929 . S
H485 C494 0.929 . S
C486 H480 0.930 . S
C486 C487 1.367 1_655 S
C486 C494 1.378 . S
C487 C486 1.367 1_455 S
C487 C495 1.433 . S
C488 H484 0.929 . S
C488 C490 1.378 . S
C488 C492 1.350 . S
C489 C492 1.463 . S
C489 C494 1.350 . S
C489 N497 1.427 1_655 S
C490 H481 0.930 . S
C490 C488 1.378 . S
C490 C491 1.367 . S
C491 C490 1.367 . S
C491 C493 1.433 . S
C492 C488 1.350 . S
C492 C489 1.463 . S
C492 N496 1.427 . S
C493 H483 0.929 . S
C493 C491 1.433 . S
C493 N496 1.384 . S
C494 H485 0.929 . S
C494 C486 1.378 . S
C494 C489 1.350 . S
C495 H482 0.929 . S
C495 C487 1.433 . S
C495 N497 1.384 . S
N496 C492 1.427 . S
N496 C493 1.384 . S
N497 C489 1.427 1_455 S
N497 C495 1.384 . S
H498 C504 0.930 . S
H499 C508 0.930 . S
H500 C513 0.929 . S
H501 C511 0.929 . S
H502 C506 0.929 . S
H503 C512 0.929 . S
C504 H498 0.930 . S
C504 C505 1.367 . S
C504 C512 1.378 . S
C505 C504 1.367 . S
C505 C513 1.433 1_545 S
C506 H502 0.929 . S
C506 C508 1.378 . S
C506 C510 1.350 . S
C507 C510 1.463 . S
C507 C512 1.350 1_565 S
C507 N515 1.427 . S
C508 H499 0.930 . S
C508 C506 1.378 . S
C508 C509 1.367 . S
C509 C508 1.367 . S
C509 C511 1.433 . S
C510 C506 1.350 . S
C510 C507 1.463 . S
C510 N514 1.427 . S
C511 H501 0.929 . S
C511 C509 1.433 . S
C511 N514 1.384 . S
C512 H503 0.929 . S
C512 C504 1.378 . S
C512 C507 1.350 1_545 S
C513 H500 0.929 . S
C513 C505 1.433 1_565 S
C513 N515 1.384 . S
N514 C510 1.427 . S
N514 C511 1.384 . S
N515 C507 1.427 . S
N515 C513 1.384 . S
C199 C157 0.691 . S
C203 N18 0.683 . S
C217 C164 0.693 . S
C221 N45 0.682 . S
C235 C29 0.696 . S
C239 N82 0.683 . S
C253 C36 0.685 . S
C257 N114 0.698 . S
C271 C93 0.683 . S
C275 N146 0.693 . S
C289 C125 0.691 . S
C293 N173 0.693 . S
C307 C6 1.566 . S
C311 C102 1.568 . S
C325 C134 1.578 . S
C329 C34 1.574 . S
C343 C162 1.577 . S
C347 C70 1.573 . S
C361 C68 1.497 . S
C365 C189 1.499 . S
C379 C4 1.512 . S
C383 C100 1.510 . S
C397 C132 1.507 . S
C401 C61 1.509 . S
C415 C166 0.932 . S
C419 N13 0.922 . S
C433 N50 0.928 . S
C437 C2 0.927 . S
C451 N77 0.932 . S
C455 C38 0.939 . S
C469 C66 0.930 . S
C473 N109 0.937 . S
C487 N141 0.937 . S
C491 C98 0.929 . S
C505 N178 0.922 . S
C509 C130 0.931 . S
