# Generated by pormake.
# Topology umh, (4)-cn, num edge types: 1
# Building blocks:
#     Node 0, Type 0, BuildingBlock: MUDLON_clean_sbu_0, # of connection points: 4
#     Node 1, Type 0, BuildingBlock: MUDLON_clean_sbu_0, # of connection points: 4
#     Node 2, Type 0, BuildingBlock: MUDLON_clean_sbu_0, # of connection points: 4
#     Node 3, Type 0, BuildingBlock: MUDLON_clean_sbu_0, # of connection points: 4
#     Node 4, Type 0, BuildingBlock: MUDLON_clean_sbu_0, # of connection points: 4
#     Node 5, Type 0, BuildingBlock: MUDLON_clean_sbu_0, # of connection points: 4
#     Node 6, Type 0, BuildingBlock: MUDLON_clean_sbu_0, # of connection points: 4
#     Node 7, Type 0, BuildingBlock: MUDLON_clean_sbu_0, # of connection points: 4
#     Node 8, Type 0, BuildingBlock: MUDLON_clean_sbu_0, # of connection points: 4
#     Node 9, Type 0, BuildingBlock: MUDLON_clean_sbu_0, # of connection points: 4
#     Node 10, Type 0, BuildingBlock: MUDLON_clean_sbu_0, # of connection points: 4
#     Node 11, Type 0, BuildingBlock: MUDLON_clean_sbu_0, # of connection points: 4
#     Node 12, Type 0, BuildingBlock: MUDLON_clean_sbu_0, # of connection points: 4
#     Node 13, Type 0, BuildingBlock: MUDLON_clean_sbu_0, # of connection points: 4
#     Node 14, Type 0, BuildingBlock: MUDLON_clean_sbu_0, # of connection points: 4
#     Node 15, Type 0, BuildingBlock: MUDLON_clean_sbu_0, # of connection points: 4
#     Edge 16, Type (0, 0), BuildingBlock: OJICUG_clean_linker_0, # of connection points: 2
#     Edge 17, Type (0, 0), BuildingBlock: OJICUG_clean_linker_0, # of connection points: 2
#     Edge 18, Type (0, 0), BuildingBlock: OJICUG_clean_linker_0, # of connection points: 2
#     Edge 19, Type (0, 0), BuildingBlock: OJICUG_clean_linker_0, # of connection points: 2
#     Edge 20, Type (0, 0), BuildingBlock: OJICUG_clean_linker_0, # of connection points: 2
#     Edge 21, Type (0, 0), BuildingBlock: OJICUG_clean_linker_0, # of connection points: 2
#     Edge 22, Type (0, 0), BuildingBlock: OJICUG_clean_linker_0, # of connection points: 2
#     Edge 23, Type (0, 0), BuildingBlock: OJICUG_clean_linker_0, # of connection points: 2
#     Edge 24, Type (0, 0), BuildingBlock: OJICUG_clean_linker_0, # of connection points: 2
#     Edge 25, Type (0, 0), BuildingBlock: OJICUG_clean_linker_0, # of connection points: 2
#     Edge 26, Type (0, 0), BuildingBlock: OJICUG_clean_linker_0, # of connection points: 2
#     Edge 27, Type (0, 0), BuildingBlock: OJICUG_clean_linker_0, # of connection points: 2
#     Edge 28, Type (0, 0), BuildingBlock: OJICUG_clean_linker_0, # of connection points: 2
#     Edge 29, Type (0, 0), BuildingBlock: OJICUG_clean_linker_0, # of connection points: 2
#     Edge 30, Type (0, 0), BuildingBlock: OJICUG_clean_linker_0, # of connection points: 2
#     Edge 31, Type (0, 0), BuildingBlock: OJICUG_clean_linker_0, # of connection points: 2
#     Edge 32, Type (0, 0), BuildingBlock: OJICUG_clean_linker_0, # of connection points: 2
#     Edge 33, Type (0, 0), BuildingBlock: OJICUG_clean_linker_0, # of connection points: 2
#     Edge 34, Type (0, 0), BuildingBlock: OJICUG_clean_linker_0, # of connection points: 2
#     Edge 35, Type (0, 0), BuildingBlock: OJICUG_clean_linker_0, # of connection points: 2
#     Edge 36, Type (0, 0), BuildingBlock: OJICUG_clean_linker_0, # of connection points: 2
#     Edge 37, Type (0, 0), BuildingBlock: OJICUG_clean_linker_0, # of connection points: 2
#     Edge 38, Type (0, 0), BuildingBlock: OJICUG_clean_linker_0, # of connection points: 2
#     Edge 39, Type (0, 0), BuildingBlock: OJICUG_clean_linker_0, # of connection points: 2
#     Edge 40, Type (0, 0), BuildingBlock: OJICUG_clean_linker_0, # of connection points: 2
#     Edge 41, Type (0, 0), BuildingBlock: OJICUG_clean_linker_0, # of connection points: 2
#     Edge 42, Type (0, 0), BuildingBlock: OJICUG_clean_linker_0, # of connection points: 2
#     Edge 43, Type (0, 0), BuildingBlock: OJICUG_clean_linker_0, # of connection points: 2
#     Edge 44, Type (0, 0), BuildingBlock: OJICUG_clean_linker_0, # of connection points: 2
#     Edge 45, Type (0, 0), BuildingBlock: OJICUG_clean_linker_0, # of connection points: 2
#     Edge 46, Type (0, 0), BuildingBlock: OJICUG_clean_linker_0, # of connection points: 2
#     Edge 47, Type (0, 0), BuildingBlock: OJICUG_clean_linker_0, # of connection points: 2
# Relax obj value: 0.037
# Max RMSD: 0.081
# Mean RMSD: 0.081
data_MOF--net-umh--node1-MUDLON_clean_sbu_0--edge1-OJICUG_clean_linker_0
_symmetry_space_group_name_H-M    P1
_symmetry_Int_Tables_number       1
_symmetry_cell_setting            triclinic
loop_
_symmetry_equiv_pos_as_xyz
'x, y, z'
_cell_length_a     31.244958
_cell_length_b     31.162301
_cell_length_c     40.03306
_cell_angle_alpha  90.761652
_cell_angle_beta   90.041499
_cell_angle_gamma 89.656503
loop_
_atom_site_label
_atom_site_type_symbol
_atom_site_fract_x
_atom_site_fract_y
_atom_site_fract_z
_atom_type_partial_charge
Mg0 Mg 0.34644 0.10042 0.18273 0.0
C1 C 0.36761 0.11839 0.11394 0.0
O2 O 0.39358 0.14235 0.13194 0.0
C3 C 0.31045 0.05493 0.2412 0.0
O4 O 0.35039 0.06068 0.25043 0.0
C5 C 0.40546 0.03288 0.18897 0.0
O6 O 0.36854 0.01811 0.17822 0.0
O7 O 0.40879 0.07303 0.19443 0.0
O8 O 0.3413 0.09431 0.12896 0.0
O9 O 0.33048 0.16734 0.19177 0.0
C10 C 0.31076 0.17842 0.2183 0.0
O11 O 0.30949 0.15174 0.24337 0.0
O12 O 0.29934 0.06584 0.21187 0.0
Mg13 Mg 0.38978 0.35975 0.68681 0.0
C14 C 0.37642 0.37973 0.61737 0.0
O15 O 0.34936 0.40419 0.63417 0.0
C16 C 0.43205 0.32769 0.74893 0.0
O17 O 0.41736 0.36519 0.75924 0.0
C18 C 0.44372 0.43273 0.70558 0.0
O19 O 0.46966 0.39948 0.7068 0.0
O20 O 0.40447 0.42661 0.69862 0.0
O21 O 0.40106 0.35482 0.63357 0.0
O22 O 0.32445 0.33633 0.69144 0.0
C23 C 0.31299 0.31649 0.71748 0.0
O24 O 0.33798 0.31725 0.74383 0.0
O25 O 0.42778 0.31732 0.71822 0.0
Mg26 Mg 0.15292 0.39591 0.18363 0.0
C27 C 0.12592 0.38536 0.11436 0.0
O28 O 0.09475 0.36853 0.13178 0.0
C29 C 0.18861 0.44265 0.24266 0.0
O30 O 0.14882 0.43633 0.25189 0.0
C31 C 0.09322 0.4628 0.19181 0.0
O32 O 0.12991 0.47815 0.18142 0.0
O33 O 0.09036 0.42257 0.19619 0.0
O34 O 0.15743 0.40193 0.12993 0.0
O35 O 0.16985 0.32931 0.19177 0.0
C36 C 0.18944 0.31895 0.21833 0.0
O37 O 0.1901 0.3461 0.24367 0.0
O38 O 0.19979 0.43146 0.21319 0.0
Mg39 Mg 0.09702 0.15099 0.68367 0.0
C40 C 0.11151 0.12848 0.61462 0.0
O41 O 0.13897 0.10563 0.63192 0.0
C42 C 0.05427 0.18345 0.74629 0.0
O43 O 0.0702 0.14671 0.75639 0.0
C44 C 0.04872 0.07427 0.70319 0.0
O45 O 0.02016 0.10525 0.70555 0.0
O46 O 0.08701 0.08361 0.69547 0.0
O47 O 0.08575 0.15328 0.63036 0.0
O48 O 0.16115 0.17739 0.68787 0.0
C49 C 0.1738 0.19492 0.71492 0.0
O50 O 0.15074 0.19075 0.74206 0.0
O51 O 0.05781 0.19297 0.71556 0.0
Mg52 Mg 0.35211 0.39668 0.40339 0.0
C53 C 0.3745 0.38228 0.47293 0.0
O54 O 0.40134 0.35788 0.45587 0.0
C55 C 0.31695 0.44264 0.34454 0.0
O56 O 0.3567 0.43529 0.33533 0.0
C57 C 0.41159 0.46285 0.39618 0.0
O58 O 0.37508 0.47826 0.40758 0.0
O59 O 0.41474 0.42258 0.39096 0.0
O60 O 0.34746 0.40489 0.45701 0.0
O61 O 0.33374 0.33018 0.39531 0.0
C62 C 0.31369 0.31964 0.36882 0.0
O63 O 0.31353 0.34599 0.34351 0.0
O64 O 0.30562 0.43241 0.37394 0.0
Mg65 Mg 0.09699 0.35613 0.9003 0.0
C66 C 0.12378 0.3695 0.97024 0.0
O67 O 0.15804 0.37985 0.9532 0.0
C68 C 0.04497 0.31767 0.84483 0.0
O69 O 0.04921 0.35715 0.83426 0.0
C70 C 0.08255 0.45328 0.90096 0.0
O71 O 0.10512 0.45081 0.92855 0.0
O72 O 0.07802 0.41969 0.8829 0.0
O73 O 0.09074 0.3568 0.95438 0.0
O74 O 0.1617 0.33199 0.89197 0.0
C75 C 0.17102 0.30979 0.86608 0.0
O76 O 0.14381 0.3082 0.84109 0.0
O77 O 0.05809 0.30878 0.87407 0.0
Mg78 Mg 0.14665 0.1089 0.40138 0.0
C79 C 0.11996 0.1229 0.47029 0.0
O80 O 0.09348 0.14648 0.45267 0.0
C81 C 0.1817 0.06109 0.3425 0.0
O82 O 0.14246 0.06986 0.33283 0.0
C83 C 0.08509 0.04503 0.391 0.0
O84 O 0.12063 0.02802 0.40259 0.0
O85 O 0.08356 0.08545 0.38697 0.0
O86 O 0.1485 0.10094 0.45499 0.0
O87 O 0.16756 0.17462 0.39459 0.0
C88 C 0.18789 0.18431 0.36827 0.0
O89 O 0.18743 0.15766 0.34261 0.0
O90 O 0.19277 0.07125 0.3722 0.0
Mg91 Mg 0.39056 0.15304 0.90125 0.0
C92 C 0.37251 0.12841 0.9698 0.0
O93 O 0.34773 0.10346 0.95157 0.0
C94 C 0.43759 0.19409 0.8452 0.0
O95 O 0.43318 0.15471 0.83365 0.0
C96 C 0.45834 0.09368 0.89008 0.0
O97 O 0.47425 0.12971 0.90201 0.0
O98 O 0.41803 0.09123 0.88598 0.0
O99 O 0.3966 0.15497 0.95508 0.0
O100 O 0.32388 0.17024 0.89271 0.0
C101 C 0.31328 0.19021 0.86644 0.0
O102 O 0.34043 0.19175 0.84148 0.0
O103 O 0.42529 0.2027 0.87488 0.0
Mg104 Mg 0.64912 0.8974 0.89555 0.0
C105 C 0.62948 0.91857 0.96881 0.0
O106 O 0.60451 0.94756 0.95524 0.0
C107 C 0.68917 0.9335 0.83587 0.0
O108 O 0.6525 0.91811 0.82515 0.0
C109 C 0.59064 0.96665 0.88038 0.0
O110 O 0.62866 0.98361 0.88474 0.0
O111 O 0.58704 0.92613 0.88294 0.0
O112 O 0.65376 0.89579 0.95012 0.0
O113 O 0.66577 0.83194 0.88073 0.0
C114 C 0.70615 0.82662 0.88347 0.0
O115 O 0.72934 0.85911 0.89404 0.0
O116 O 0.69709 0.93247 0.8671 0.0
Mg117 Mg 0.60468 0.6541 0.40176 0.0
C118 C 0.68278 0.68843 0.36705 0.0
O119 O 0.65766 0.68549 0.34085 0.0
C120 C 0.53863 0.59418 0.39297 0.0
O121 O 0.52263 0.63169 0.40197 0.0
C122 C 0.56257 0.68653 0.33981 0.0
O123 O 0.57061 0.64626 0.33181 0.0
O124 O 0.57054 0.69936 0.36958 0.0
O125 O 0.67122 0.67133 0.39424 0.0
O126 O 0.5974 0.65991 0.45586 0.0
C127 C 0.61546 0.62918 0.47131 0.0
O128 O 0.63415 0.5986 0.45361 0.0
O129 O 0.57903 0.59077 0.38978 0.0
Mg130 Mg 0.85448 0.59545 0.89483 0.0
C131 C 0.87162 0.57195 0.96813 0.0
O132 O 0.89006 0.53793 0.95462 0.0
C133 C 0.81856 0.54698 0.83782 0.0
O134 O 0.85596 0.55949 0.8267 0.0
C135 C 0.95166 0.58301 0.89728 0.0
O136 O 0.94831 0.60978 0.92279 0.0
O137 O 0.91856 0.57488 0.87987 0.0
O138 O 0.85248 0.59854 0.94938 0.0
O139 O 0.83198 0.65866 0.88011 0.0
C140 C 0.79127 0.66215 0.87974 0.0
O141 O 0.76824 0.62825 0.88656 0.0
O142 O 0.80984 0.55339 0.86857 0.0
Mg143 Mg 0.89334 0.85528 0.39916 0.0
C144 C 0.81579 0.81662 0.36563 0.0
O145 O 0.84075 0.81814 0.33933 0.0
C146 C 0.95814 0.91537 0.38637 0.0
O147 O 0.97541 0.87908 0.39618 0.0
C148 C 0.93554 0.81805 0.33825 0.0
O149 O 0.92677 0.85747 0.32911 0.0
O150 O 0.92797 0.80758 0.3684 0.0
O151 O 0.82714 0.83588 0.39238 0.0
O152 O 0.90136 0.85582 0.45355 0.0
C153 C 0.89268 0.89198 0.46734 0.0
O154 O 0.88224 0.92432 0.4482 0.0
O155 O 0.91759 0.91762 0.38394 0.0
Mg156 Mg 0.64598 0.59737 0.68546 0.0
C157 C 0.629 0.62546 0.61586 0.0
O158 O 0.61587 0.65865 0.63377 0.0
C159 C 0.68283 0.54887 0.74204 0.0
O160 O 0.6454 0.56117 0.75377 0.0
C161 C 0.5495 0.5777 0.68754 0.0
O162 O 0.54944 0.59304 0.65715 0.0
O163 O 0.58349 0.58014 0.70495 0.0
O164 O 0.64448 0.59307 0.63093 0.0
O165 O 0.67048 0.66086 0.69746 0.0
C166 C 0.71123 0.66278 0.69711 0.0
O167 O 0.73322 0.6276 0.69063 0.0
O168 O 0.69124 0.55575 0.71143 0.0
Mg169 Mg 0.89248 0.64654 0.1773 0.0
C170 C 0.81566 0.68282 0.21375 0.0
O171 O 0.84163 0.68097 0.23947 0.0
C172 C 0.96073 0.58965 0.18825 0.0
O173 O 0.9749 0.62551 0.17547 0.0
C174 C 0.93668 0.68699 0.23577 0.0
O175 O 0.93103 0.64737 0.24555 0.0
O176 O 0.92646 0.69655 0.20587 0.0
O177 O 0.82625 0.66407 0.18655 0.0
O178 O 0.8969 0.64382 0.12262 0.0
C179 C 0.8907 0.60654 0.11001 0.0
O180 O 0.88452 0.57433 0.13023 0.0
O181 O 0.92075 0.58616 0.19344 0.0
Mg182 Mg 0.86417 0.8896 0.68354 0.0
C183 C 0.87695 0.9184 0.61047 0.0
O184 O 0.88671 0.95559 0.62423 0.0
C185 C 0.8244 0.93758 0.73956 0.0
O186 O 0.86234 0.92735 0.75128 0.0
C187 C 0.95873 0.91756 0.68545 0.0
O188 O 0.96063 0.90051 0.6553 0.0
O189 O 0.92509 0.91258 0.70279 0.0
O190 O 0.86516 0.88785 0.62899 0.0
O191 O 0.84214 0.82625 0.69731 0.0
C192 C 0.80163 0.82327 0.69423 0.0
O193 O 0.78001 0.8569 0.68397 0.0
O194 O 0.81656 0.93001 0.7088 0.0
Mg195 Mg 0.60815 0.84927 0.1774 0.0
C196 C 0.68436 0.81416 0.21447 0.0
O197 O 0.65749 0.81527 0.23965 0.0
C198 C 0.53877 0.90579 0.18578 0.0
O199 O 0.52589 0.86934 0.17239 0.0
C200 C 0.56258 0.81116 0.23516 0.0
O201 O 0.56736 0.8514 0.24452 0.0
O202 O 0.57396 0.8001 0.20563 0.0
O203 O 0.67442 0.83318 0.18762 0.0
O204 O 0.60538 0.84965 0.12266 0.0
C205 C 0.612 0.88654 0.11029 0.0
O206 O 0.61776 0.91935 0.1307 0.0
O207 O 0.57835 0.90994 0.19251 0.0
C208 C 0.34352 0.09711 1.0224 0.0
C209 C 0.37164 0.12559 1.00666 0.0
H210 H 0.3201 0.07243 0.06857 0.0
C211 C 0.39855 0.15131 1.02649 0.0
H212 H 0.32234 0.0768 1.00784 0.0
C213 C 0.39727 0.14871 0.06129 0.0
C214 C 0.36901 0.1204 0.07704 0.0
H215 H 0.42057 0.17354 1.01517 0.0
H216 H 0.4184 0.16911 0.07582 0.0
C217 C 0.34219 0.09457 0.05722 0.0
C218 C 0.34743 0.4085 0.52851 0.0
C219 C 0.37557 0.38236 0.50988 0.0
H220 H 0.32577 0.42822 0.57697 0.0
C221 C 0.40461 0.35573 0.52691 0.0
H222 H 0.32473 0.4294 0.51618 0.0
C223 C 0.40522 0.35497 0.56182 0.0
C224 C 0.37684 0.38088 0.58043 0.0
H225 H 0.42678 0.33518 0.51329 0.0
H226 H 0.42776 0.33393 0.57418 0.0
C227 C 0.34808 0.40779 0.56339 0.0
C228 C 0.08837 0.36153 1.02603 0.0
C229 C 0.12382 0.3741 1.00708 0.0
H230 H 0.06121 0.35539 0.07473 0.0
C231 C 0.15963 0.39143 1.02367 0.0
H232 H 0.06027 0.34819 1.01402 0.0
C233 C 0.16014 0.39578 0.05845 0.0
C234 C 0.12491 0.38272 0.07744 0.0
H235 H 0.18746 0.40161 1.00981 0.0
H236 H 0.18834 0.40892 0.07046 0.0
C237 C 0.08894 0.36573 0.06084 0.0
C238 C 0.08417 0.15088 0.55846 0.0
C239 C 0.11239 0.12615 0.57768 0.0
H240 H 0.06438 0.16914 0.50948 0.0
C241 C 0.14251 0.09955 0.56126 0.0
H242 H 0.0606 0.17164 0.57033 0.0
C243 C 0.14479 0.09814 0.52641 0.0
C244 C 0.11694 0.12325 0.50718 0.0
H245 H 0.16473 0.08 0.57531 0.0
H246 H 0.16858 0.07761 0.51458 0.0
C247 C 0.0864 0.14941 0.52357 0.0
C248 C 0.60574 0.93409 0.06091 0.0
C249 C 0.6151 0.89336 0.07383 0.0
H250 H 0.60274 0.97381 1.01773 0.0
C251 C 0.6299 0.86089 0.05199 0.0
H252 H 0.59433 0.9598 0.07713 0.0
C253 C 0.63585 0.86932 1.01795 0.0
C254 C 0.62613 0.91008 1.00506 0.0
H255 H 0.63777 0.82934 0.06133 0.0
H256 H 0.64735 0.84377 1.00163 0.0
C257 C 0.61069 0.94219 1.02689 0.0
C258 C 0.64003 0.59162 0.55916 0.0
C259 C 0.62487 0.62603 0.5789 0.0
H260 H 0.64879 0.56563 0.50993 0.0
C261 C 0.60558 0.66126 0.56296 0.0
H262 H 0.65494 0.56397 0.57056 0.0
C263 C 0.60187 0.66221 0.5281 0.0
C264 C 0.61749 0.628 0.50836 0.0
H265 H 0.59341 0.68831 0.5774 0.0
H266 H 0.58718 0.68993 0.51664 0.0
C267 C 0.63643 0.59263 0.52433 0.0
C268 C 0.8705 0.62307 1.01738 0.0
C269 C 0.87636 0.58118 1.00441 0.0
H270 H 0.87147 0.66432 0.06084 0.0
C271 C 0.88845 0.54844 1.0263 0.0
H272 H 0.86162 0.64914 1.00109 0.0
C273 C 0.89369 0.55709 0.06041 0.0
C274 C 0.8878 0.59886 0.07344 0.0
H275 H 0.89343 0.51592 1.01714 0.0
H276 H 0.90239 0.53089 0.07665 0.0
C277 C 0.87655 0.6319 0.05151 0.0
C278 C 0.89149 0.93959 0.5181 0.0
C279 C 0.89122 0.89789 0.50415 0.0
H280 H 0.8874 0.97873 0.56236 0.0
C281 C 0.88689 0.86282 0.52554 0.0
H282 H 0.89486 0.96734 0.50232 0.0
C283 C 0.8819 0.86946 0.56004 0.0
C284 C 0.8818 0.91126 0.57391 0.0
H285 H 0.8863 0.83035 0.51555 0.0
H286 H 0.8782 0.84179 0.57586 0.0
C287 C 0.88715 0.94618 0.55255 0.0
C288 C 0.23432 0.2642 0.18791 0.0
C289 C 0.21883 0.28159 0.21819 0.0
H290 H 0.27664 0.21891 0.16418 0.0
C291 C 0.23509 0.26586 0.24834 0.0
H292 H 0.22292 0.27611 0.1642 0.0
C293 C 0.26587 0.23308 0.24833 0.0
C294 C 0.28157 0.21592 0.21817 0.0
H295 H 0.22387 0.27905 0.27191 0.0
H296 H 0.27751 0.22101 0.27189 0.0
C297 C 0.26565 0.23195 0.1879 0.0
C298 C 0.25734 0.27422 0.686 0.0
C299 C 0.27595 0.28704 0.71652 0.0
H300 H 0.21106 0.2342 0.6614 0.0
C301 C 0.26136 0.26846 0.74612 0.0
H302 H 0.26822 0.28753 0.66266 0.0
C303 C 0.22891 0.23781 0.74535 0.0
C304 C 0.21041 0.22484 0.71499 0.0
H305 H 0.27526 0.27755 0.76993 0.0
H306 H 0.21821 0.22402 0.76851 0.0
C307 C 0.22503 0.24322 0.68522 0.0
C308 C 0.26723 0.26754 0.39916 0.0
C309 C 0.28338 0.28331 0.36895 0.0
H310 H 0.22333 0.22484 0.42271 0.0
C311 C 0.26685 0.26719 0.33875 0.0
H312 H 0.27885 0.2798 0.42292 0.0
C313 C 0.23506 0.23578 0.33864 0.0
C314 C 0.21859 0.22031 0.36872 0.0
H315 H 0.27857 0.27906 0.3152 0.0
H316 H 0.22318 0.22348 0.31502 0.0
C317 C 0.2349 0.2366 0.39905 0.0
C318 C 0.25894 0.23443 0.83631 0.0
C319 C 0.27517 0.2187 0.86649 0.0
H320 H 0.21341 0.27611 0.81266 0.0
C321 C 0.25746 0.23395 0.89671 0.0
H322 H 0.2723 0.22337 0.81278 0.0
C323 C 0.22461 0.26471 0.89664 0.0
C324 C 0.20827 0.28025 0.86635 0.0
H325 H 0.26968 0.22293 0.92045 0.0
H326 H 0.2115 0.27574 0.92031 0.0
C327 C 0.22558 0.2646 0.83623 0.0
C328 C 0.77233 0.78202 0.877 0.0
C329 C 0.72731 0.78455 0.87779 0.0
H330 H 0.82793 0.7415 0.87661 0.0
C331 C 0.70362 0.74654 0.87568 0.0
H332 H 0.79158 0.8108 0.87818 0.0
C333 C 0.7246 0.70673 0.87482 0.0
C334 C 0.76965 0.7042 0.87588 0.0
H335 H 0.66897 0.74744 0.8761 0.0
H336 H 0.70541 0.67789 0.87444 0.0
C337 C 0.79327 0.7423 0.87597 0.0
C338 C 0.73385 0.73745 0.39698 0.0
C339 C 0.71852 0.71939 0.36693 0.0
H340 H 0.77555 0.78333 0.42017 0.0
C341 C 0.73446 0.73463 0.33657 0.0
H342 H 0.72176 0.72689 0.42083 0.0
C343 C 0.76527 0.76698 0.33618 0.0
C344 C 0.78029 0.78536 0.36614 0.0
H345 H 0.72289 0.72154 0.3131 0.0
H346 H 0.7775 0.77761 0.31242 0.0
C347 C 0.76417 0.77032 0.39659 0.0
C348 C 0.80124 0.74348 0.70174 0.0
C349 C 0.77882 0.78241 0.69918 0.0
H350 H 0.79731 0.67504 0.70323 0.0
C351 C 0.73375 0.78189 0.69906 0.0
H352 H 0.8359 0.74284 0.70202 0.0
C353 C 0.71157 0.74313 0.69985 0.0
C354 C 0.73402 0.70406 0.70059 0.0
H355 H 0.71547 0.81145 0.69746 0.0
H356 H 0.67694 0.74377 0.69864 0.0
C357 C 0.77904 0.70466 0.70233 0.0
C358 C 0.76561 0.73217 0.18379 0.0
C359 C 0.78048 0.7148 0.21391 0.0
H360 H 0.7248 0.77821 0.16035 0.0
C361 C 0.76473 0.73165 0.24422 0.0
H362 H 0.77762 0.72039 0.15998 0.0
C363 C 0.7343 0.76479 0.24443 0.0
C364 C 0.71973 0.78239 0.21436 0.0
H365 H 0.77606 0.71915 0.26774 0.0
H366 H 0.72198 0.77664 0.26808 0.0
C367 C 0.73587 0.76585 0.18402 0.0
C368 C 0.25779 0.04678 0.32571 0.0
C369 C 0.2143 0.04946 0.31709 0.0
H370 H 0.32244 0.04552 0.30834 0.0
C371 C 0.20272 0.04661 0.28315 0.0
H372 H 0.26777 0.04848 0.35161 0.0
C373 C 0.23406 0.04524 0.25828 0.0
C374 C 0.27761 0.04636 0.26686 0.0
H375 H 0.16945 0.04809 0.27562 0.0
H376 H 0.2241 0.04576 0.23236 0.0
C377 C 0.28914 0.04509 0.30083 0.0
C378 C 0.45153 0.25219 0.76384 0.0
C379 C 0.44366 0.29488 0.77383 0.0
H380 H 0.4566 0.18676 0.77877 0.0
C381 C 0.44124 0.3048 0.80818 0.0
H382 H 0.45399 0.24351 0.73762 0.0
C383 C 0.44256 0.27223 0.83182 0.0
C384 C 0.44647 0.2291 0.82159 0.0
H385 H 0.43568 0.33746 0.81678 0.0
H386 H 0.43789 0.28068 0.85791 0.0
C387 C 0.45299 0.21963 0.78749 0.0
C388 C 0.20959 0.45519 0.30228 0.0
C389 C 0.2213 0.45256 0.26837 0.0
H390 H 0.23071 0.45442 0.35315 0.0
C391 C 0.26488 0.4538 0.25995 0.0
H392 H 0.17626 0.45474 0.30966 0.0
C393 C 0.29611 0.45397 0.28495 0.0
C394 C 0.28438 0.45256 0.31886 0.0
H395 H 0.27497 0.45223 0.23408 0.0
H396 H 0.32943 0.45254 0.27757 0.0
C397 C 0.24082 0.45503 0.32729 0.0
C398 C 0.03396 0.25912 0.76202 0.0
C399 C 0.04159 0.21648 0.77144 0.0
H400 H 0.02818 0.32467 0.77801 0.0
C401 C 0.04267 0.20679 0.80566 0.0
H402 H 0.03257 0.26766 0.73591 0.0
C403 C 0.04025 0.23948 0.82985 0.0
C404 C 0.03661 0.28258 0.82033 0.0
H405 H 0.04798 0.17419 0.81383 0.0
H406 H 0.04392 0.23113 0.85588 0.0
C407 C 0.03143 0.29184 0.78624 0.0
C408 C 0.71345 0.94329 0.7769 0.0
C409 C 0.72281 0.94427 0.81131 0.0
H410 H 0.73818 0.9411 0.72702 0.0
C411 C 0.76537 0.95039 0.82149 0.0
H412 H 0.6809 0.93911 0.76817 0.0
C413 C 0.79823 0.95171 0.7978 0.0
C414 C 0.78922 0.94693 0.76348 0.0
H415 H 0.77365 0.95158 0.84776 0.0
H416 H 0.83095 0.95396 0.80658 0.0
C417 C 0.7463 0.94464 0.75322 0.0
C418 C 0.55595 0.70444 0.27911 0.0
C419 C 0.554 0.71773 0.31287 0.0
H420 H 0.56001 0.72341 0.22792 0.0
C421 C 0.54877 0.76159 0.32025 0.0
H422 H 0.55973 0.67083 0.27245 0.0
C423 C 0.5485 0.79167 0.29463 0.0
C424 C 0.55386 0.77865 0.26103 0.0
H425 H 0.54686 0.77291 0.34591 0.0
H426 H 0.54634 0.82537 0.30141 0.0
C427 C 0.55606 0.73458 0.25347 0.0
C428 C 0.79334 0.53503 0.77903 0.0
C429 C 0.78423 0.53641 0.81348 0.0
H430 H 0.76841 0.53738 0.72923 0.0
C431 C 0.74135 0.53412 0.82378 0.0
H432 H 0.82605 0.53629 0.77019 0.0
C433 C 0.70827 0.53459 0.80021 0.0
C434 C 0.71735 0.53743 0.76586 0.0
H435 H 0.73317 0.53482 0.85007 0.0
H436 H 0.67554 0.53546 0.80911 0.0
C437 C 0.76025 0.53557 0.75546 0.0
C438 C 0.94845 0.74148 0.32036 0.0
C439 C 0.94452 0.78495 0.31213 0.0
H440 H 0.95001 0.67651 0.30263 0.0
C441 C 0.94416 0.79614 0.27812 0.0
H442 H 0.94909 0.73173 0.34623 0.0
C443 C 0.9443 0.76445 0.25301 0.0
C444 C 0.94515 0.72085 0.26134 0.0
H445 H 0.94146 0.82938 0.2708 0.0
H446 H 0.94161 0.77411 0.2272 0.0
C447 C 0.94894 0.70981 0.29525 0.0
C448 C 0.43156 0.95864 0.19636 0.0
C449 C 0.44122 1.00235 0.19365 0.0
H450 H 0.45492 0.89436 0.19661 0.0
C451 C 0.48437 0.01495 0.19259 0.0
H452 H 0.39871 0.94788 0.1979 0.0
C453 C 0.51712 0.98375 0.19191 0.0
C454 C 0.50678 0.93989 0.19225 0.0
H455 H 0.49264 0.04852 0.19059 0.0
H456 H 0.55007 0.99378 0.18934 0.0
C457 C 0.46385 0.92788 0.19564 0.0
C458 C 0.47844 0.54207 0.67814 0.0
C459 C 0.51539 0.54774 0.69782 0.0
H460 H 0.42551 0.50108 0.66584 0.0
C461 C 0.52292 0.5195 0.72434 0.0
H462 H 0.47158 0.56342 0.65766 0.0
C463 C 0.49702 0.48368 0.72859 0.0
C464 C 0.46243 0.47597 0.70705 0.0
H465 H 0.55084 0.52297 0.74019 0.0
H466 H 0.50564 0.46054 0.74745 0.0
C467 C 0.4519 0.50655 0.68291 0.0
C468 C 0.06651 0.53628 0.20288 0.0
C469 C 0.05715 0.49282 0.19724 0.0
H470 H 0.04304 0.60053 0.20509 0.0
C471 C 0.01421 0.48032 0.19344 0.0
H472 H 0.09918 0.54683 0.20655 0.0
C473 C 0.98155 0.51156 0.19266 0.0
C474 C 0.99182 0.55533 0.19565 0.0
H475 H 0.00622 0.44693 0.1891 0.0
H476 H 0.94894 0.50177 0.18768 0.0
C477 C 0.0343 0.5671 0.20207 0.0
C478 C 0.02526 0.96072 0.67567 0.0
C479 C 0.98917 0.95182 0.69538 0.0
H480 H 0.07355 0.00668 0.66332 0.0
C481 C 0.97843 0.98035 0.72164 0.0
H482 H 0.0345 0.93933 0.65535 0.0
C483 C 1.00024 0.019 0.72573 0.0
C484 C 0.03395 0.02948 0.70429 0.0
H485 H 0.95105 0.97452 0.7375 0.0
H486 H 0.98915 0.04183 0.74452 0.0
C487 C 0.04775 0.99917 0.6803 0.0
C488 C 0.52117 0.51497 0.3929 0.0
C489 C 0.509 0.55794 0.38772 0.0
H490 H 0.49935 0.45011 0.39958 0.0
C491 C 0.466 0.56745 0.38078 0.0
H492 H 0.55419 0.50684 0.39826 0.0
C493 C 0.43519 0.53558 0.38159 0.0
C494 C 0.44645 0.49322 0.38927 0.0
H495 H 0.4557 0.60007 0.37603 0.0
H496 H 0.40206 0.54457 0.37746 0.0
C497 C 0.48991 0.48263 0.39364 0.0
C498 C 0.05568 0.52639 0.91783 0.0
C499 C 0.05495 0.49145 0.89523 0.0
H500 H 0.02396 0.58312 0.93595 0.0
C501 C 0.02366 0.49088 0.86995 0.0
H502 H 0.07953 0.5281 0.93744 0.0
C503 C 0.99169 0.52251 0.86911 0.0
C504 C 0.99034 0.55543 0.8935 0.0
H505 H 0.0223 0.46465 0.85196 0.0
H506 H 0.96669 0.51972 0.85046 0.0
C507 C 0.02375 0.55804 0.91697 0.0
C508 C 0.02869 0.94288 0.36985 0.0
C509 C 0.98661 0.95191 0.37998 0.0
H510 H 0.09243 0.96585 0.36484 0.0
C511 C 0.97514 0.99442 0.38842 0.0
H512 H 0.03827 0.91054 0.36272 0.0
C513 C 0.00659 0.02655 0.38959 0.0
C514 C 0.04948 0.01613 0.38238 0.0
H515 H 0.94285 1.00207 0.39642 0.0
H516 H 0.99804 0.05846 0.39845 0.0
C517 C 0.05972 0.97456 0.37107 0.0
C518 C 0.56117 0.03839 0.86731 0.0
C519 C 0.55346 0.9958 0.87646 0.0
H520 H 0.5368 0.10227 0.86413 0.0
C521 C 0.51163 0.98397 0.88545 0.0
H522 H 0.5928 0.04847 0.85971 0.0
C523 C 0.479 0.01524 0.88771 0.0
C524 C 0.48816 0.05846 0.8812 0.0
H525 H 0.50479 0.95134 0.89263 0.0
H526 H 0.44765 0.00618 0.89662 0.0
C527 C 0.52904 0.0693 0.8698 0.0
loop_
_geom_bond_atom_site_label_1
_geom_bond_atom_site_label_2
_geom_bond_distance
_geom_bond_site_symmetry_2
_ccdc_geom_bond_type
Mg0 O7 2.141 . S
Mg0 O8 2.048 . S
Mg0 O9 2.048 . S
Mg0 O12 2.141 . S
C1 O2 1.313 . S
C1 O8 1.195 . S
O2 C1 1.313 . S
C3 O4 1.245 . S
C3 O12 1.289 . S
O4 C3 1.245 . S
C5 O6 1.249 . S
C5 O7 1.290 . S
O6 C5 1.249 . S
O7 Mg0 2.141 . S
O7 C5 1.290 . S
O8 Mg0 2.048 . S
O8 C1 1.195 . S
O9 Mg0 2.048 . S
O9 C10 1.195 . S
C10 O9 1.195 . S
C10 O11 1.313 . S
O11 C10 1.313 . S
O12 Mg0 2.141 . S
O12 C3 1.289 . S
Mg13 O20 2.141 . S
Mg13 O21 2.048 . S
Mg13 O22 2.048 . S
Mg13 O25 2.141 . S
C14 O15 1.313 . S
C14 O21 1.195 . S
O15 C14 1.313 . S
C16 O17 1.245 . S
C16 O25 1.289 . S
O17 C16 1.245 . S
C18 O19 1.245 . S
C18 O20 1.289 . S
O19 C18 1.245 . S
O20 Mg13 2.141 . S
O20 C18 1.289 . S
O21 Mg13 2.048 . S
O21 C14 1.195 . S
O22 Mg13 2.048 . S
O22 C23 1.195 . S
C23 O22 1.195 . S
C23 O24 1.313 . S
O24 C23 1.313 . S
O25 Mg13 2.141 . S
O25 C16 1.289 . S
Mg26 O33 2.141 . S
Mg26 O34 2.048 . S
Mg26 O35 2.048 . S
Mg26 O38 2.141 . S
C27 O28 1.313 . S
C27 O34 1.195 . S
O28 C27 1.313 . S
C29 O30 1.245 . S
C29 O38 1.289 . S
O30 C29 1.245 . S
C31 O32 1.245 . S
C31 O33 1.289 . S
O32 C31 1.245 . S
O33 Mg26 2.141 . S
O33 C31 1.289 . S
O34 Mg26 2.048 . S
O34 C27 1.195 . S
O35 Mg26 2.048 . S
O35 C36 1.195 . S
C36 O35 1.195 . S
C36 O37 1.313 . S
O37 C36 1.313 . S
O38 Mg26 2.141 . S
O38 C29 1.289 . S
Mg39 O46 2.141 . S
Mg39 O47 2.048 . S
Mg39 O48 2.048 . S
Mg39 O51 2.141 . S
C40 O41 1.313 . S
C40 O47 1.195 . S
O41 C40 1.313 . S
C42 O43 1.245 . S
C42 O51 1.289 . S
O43 C42 1.245 . S
C44 O45 1.249 . S
C44 O46 1.290 . S
O45 C44 1.249 . S
O46 Mg39 2.141 . S
O46 C44 1.290 . S
O47 Mg39 2.048 . S
O47 C40 1.195 . S
O48 Mg39 2.048 . S
O48 C49 1.195 . S
C49 O48 1.195 . S
C49 O50 1.313 . S
O50 C49 1.313 . S
O51 Mg39 2.141 . S
O51 C42 1.289 . S
Mg52 O59 2.141 . S
Mg52 O60 2.048 . S
Mg52 O61 2.048 . S
Mg52 O64 2.141 . S
C53 O54 1.313 . S
C53 O60 1.195 . S
O54 C53 1.313 . S
C55 O56 1.245 . S
C55 O64 1.289 . S
O56 C55 1.245 . S
C57 O58 1.245 . S
C57 O59 1.289 . S
O58 C57 1.245 . S
O59 Mg52 2.141 . S
O59 C57 1.289 . S
O60 Mg52 2.048 . S
O60 C53 1.195 . S
O61 Mg52 2.048 . S
O61 C62 1.195 . S
C62 O61 1.195 . S
C62 O63 1.313 . S
O63 C62 1.313 . S
O64 Mg52 2.141 . S
O64 C55 1.289 . S
Mg65 O72 2.141 . S
Mg65 O73 2.048 . S
Mg65 O74 2.048 . S
Mg65 O77 2.141 . S
C66 O67 1.313 . S
C66 O73 1.195 . S
O67 C66 1.313 . S
C68 O69 1.245 . S
C68 O77 1.289 . S
O69 C68 1.245 . S
C70 O71 1.249 . S
C70 O72 1.290 . S
O71 C70 1.249 . S
O72 Mg65 2.141 . S
O72 C70 1.290 . S
O73 Mg65 2.048 . S
O73 C66 1.195 . S
O74 Mg65 2.048 . S
O74 C75 1.195 . S
C75 O74 1.195 . S
C75 O76 1.313 . S
O76 C75 1.313 . S
O77 Mg65 2.141 . S
O77 C68 1.289 . S
Mg78 O85 2.141 . S
Mg78 O86 2.048 . S
Mg78 O87 2.048 . S
Mg78 O90 2.141 . S
C79 O80 1.313 . S
C79 O86 1.195 . S
O80 C79 1.313 . S
C81 O82 1.245 . S
C81 O90 1.289 . S
O82 C81 1.245 . S
C83 O84 1.249 . S
C83 O85 1.290 . S
O84 C83 1.249 . S
O85 Mg78 2.141 . S
O85 C83 1.290 . S
O86 Mg78 2.048 . S
O86 C79 1.195 . S
O87 Mg78 2.048 . S
O87 C88 1.195 . S
C88 O87 1.195 . S
C88 O89 1.313 . S
O89 C88 1.313 . S
O90 Mg78 2.141 . S
O90 C81 1.289 . S
Mg91 O98 2.141 . S
Mg91 O99 2.048 . S
Mg91 O100 2.048 . S
Mg91 O103 2.141 . S
C92 O93 1.313 . S
C92 O99 1.195 . S
O93 C92 1.313 . S
C94 O95 1.245 . S
C94 O103 1.289 . S
O95 C94 1.245 . S
C96 O97 1.245 . S
C96 O98 1.289 . S
O97 C96 1.245 . S
O98 Mg91 2.141 . S
O98 C96 1.289 . S
O99 Mg91 2.048 . S
O99 C92 1.195 . S
O100 Mg91 2.048 . S
O100 C101 1.195 . S
C101 O100 1.195 . S
C101 O102 1.313 . S
O102 C101 1.313 . S
O103 Mg91 2.141 . S
O103 C94 1.289 . S
Mg104 O111 2.141 . S
Mg104 O112 2.048 . S
Mg104 O113 2.048 . S
Mg104 O116 2.141 . S
C105 O106 1.313 . S
C105 O112 1.195 . S
O106 C105 1.313 . S
C107 O108 1.245 . S
C107 O116 1.289 . S
O108 C107 1.245 . S
C109 O110 1.245 . S
C109 O111 1.289 1_545 S
O110 C109 1.245 . S
O111 Mg104 2.141 . S
O111 C109 1.289 1_565 S
O112 Mg104 2.048 . S
O112 C105 1.195 . S
O113 Mg104 2.048 . S
O113 C114 1.195 . S
C114 O113 1.195 . S
C114 O115 1.313 . S
O115 C114 1.313 . S
O116 Mg104 2.141 . S
O116 C107 1.289 . S
Mg117 O124 2.141 . S
Mg117 O125 2.048 . S
Mg117 O126 2.048 . S
Mg117 O129 2.141 . S
C118 O119 1.313 . S
C118 O125 1.195 . S
O119 C118 1.313 . S
C120 O121 1.245 . S
C120 O129 1.289 . S
O121 C120 1.245 . S
C122 O123 1.245 . S
C122 O124 1.289 . S
O123 C122 1.245 . S
O124 Mg117 2.141 . S
O124 C122 1.289 . S
O125 Mg117 2.048 . S
O125 C118 1.195 . S
O126 Mg117 2.048 . S
O126 C127 1.195 . S
C127 O126 1.195 . S
C127 O128 1.313 . S
O128 C127 1.313 . S
O129 Mg117 2.141 . S
O129 C120 1.289 . S
Mg130 O137 2.141 . S
Mg130 O138 2.048 . S
Mg130 O139 2.048 . S
Mg130 O142 2.141 . S
C131 O132 1.313 . S
C131 O138 1.195 . S
O132 C131 1.313 . S
C133 O134 1.245 . S
C133 O142 1.289 . S
O134 C133 1.245 . S
C135 O136 1.245 . S
C135 O137 1.289 . S
O136 C135 1.245 . S
O137 Mg130 2.141 . S
O137 C135 1.289 . S
O138 Mg130 2.048 . S
O138 C131 1.195 . S
O139 Mg130 2.048 . S
O139 C140 1.195 . S
C140 O139 1.195 . S
C140 O141 1.313 . S
O141 C140 1.313 . S
O142 Mg130 2.141 . S
O142 C133 1.289 . S
Mg143 O150 2.141 . S
Mg143 O151 2.048 . S
Mg143 O152 2.048 . S
Mg143 O155 2.141 . S
C144 O145 1.313 . S
C144 O151 1.195 . S
O145 C144 1.313 . S
C146 O147 1.249 . S
C146 O155 1.290 . S
O147 C146 1.249 . S
C148 O149 1.245 . S
C148 O150 1.289 . S
O149 C148 1.245 . S
O150 Mg143 2.141 . S
O150 C148 1.289 . S
O151 Mg143 2.048 . S
O151 C144 1.195 . S
O152 Mg143 2.048 . S
O152 C153 1.195 . S
C153 O152 1.195 . S
C153 O154 1.313 . S
O154 C153 1.313 . S
O155 Mg143 2.141 . S
O155 C146 1.290 . S
Mg156 O163 2.141 . S
Mg156 O164 2.048 . S
Mg156 O165 2.048 . S
Mg156 O168 2.141 . S
C157 O158 1.313 . S
C157 O164 1.195 . S
O158 C157 1.313 . S
C159 O160 1.245 . S
C159 O168 1.289 . S
O160 C159 1.245 . S
C161 O162 1.245 . S
C161 O163 1.289 . S
O162 C161 1.245 . S
O163 Mg156 2.141 . S
O163 C161 1.289 . S
O164 Mg156 2.048 . S
O164 C157 1.195 . S
O165 Mg156 2.048 . S
O165 C166 1.195 . S
C166 O165 1.195 . S
C166 O167 1.313 . S
O167 C166 1.313 . S
O168 Mg156 2.141 . S
O168 C159 1.289 . S
Mg169 O176 2.141 . S
Mg169 O177 2.048 . S
Mg169 O178 2.048 . S
Mg169 O181 2.141 . S
C170 O171 1.313 . S
C170 O177 1.195 . S
O171 C170 1.313 . S
C172 O173 1.249 . S
C172 O181 1.290 . S
O173 C172 1.249 . S
C174 O175 1.245 . S
C174 O176 1.289 . S
O175 C174 1.245 . S
O176 Mg169 2.141 . S
O176 C174 1.289 . S
O177 Mg169 2.048 . S
O177 C170 1.195 . S
O178 Mg169 2.048 . S
O178 C179 1.195 . S
C179 O178 1.195 . S
C179 O180 1.313 . S
O180 C179 1.313 . S
O181 Mg169 2.141 . S
O181 C172 1.290 . S
Mg182 O189 2.141 . S
Mg182 O190 2.048 . S
Mg182 O191 2.048 . S
Mg182 O194 2.141 . S
C183 O184 1.313 . S
C183 O190 1.195 . S
O184 C183 1.313 . S
C185 O186 1.245 . S
C185 O194 1.289 . S
O186 C185 1.245 . S
C187 O188 1.245 . S
C187 O189 1.289 1_545 S
O188 C187 1.245 . S
O189 Mg182 2.141 . S
O189 C187 1.289 1_565 S
O190 Mg182 2.048 . S
O190 C183 1.195 . S
O191 Mg182 2.048 . S
O191 C192 1.195 . S
C192 O191 1.195 . S
C192 O193 1.313 . S
O193 C192 1.313 . S
O194 Mg182 2.141 . S
O194 C185 1.289 . S
Mg195 O202 2.141 . S
Mg195 O203 2.048 . S
Mg195 O204 2.048 . S
Mg195 O207 2.141 . S
C196 O197 1.313 . S
C196 O203 1.195 . S
O197 C196 1.313 . S
C198 O199 1.245 . S
C198 O207 1.289 . S
O199 C198 1.245 . S
C200 O201 1.245 . S
C200 O202 1.289 . S
O201 C200 1.245 . S
O202 Mg195 2.141 . S
O202 C200 1.289 . S
O203 Mg195 2.048 . S
O203 C196 1.195 . S
O204 Mg195 2.048 . S
O204 C205 1.195 . S
C205 O204 1.195 . S
C205 O206 1.313 . S
O206 C205 1.313 . S
O207 Mg195 2.141 . S
O207 C198 1.289 . S
C208 C209 1.387 . S
C208 H212 0.950 . S
C208 C217 1.390 1_556 S
C209 C208 1.387 . S
C209 C211 1.387 . S
H210 C217 0.950 . S
C211 C209 1.387 . S
C211 C213 1.390 1_556 S
C211 H215 0.950 . S
H212 C208 0.950 . S
C213 C211 1.390 1_554 S
C213 C214 1.387 . S
C213 H216 0.950 . S
C214 C213 1.387 . S
C214 C217 1.387 . S
H215 C211 0.950 . S
H216 C213 0.950 . S
C217 C208 1.390 1_554 S
C217 H210 0.950 . S
C217 C214 1.387 . S
C218 C219 1.387 . S
C218 H222 0.950 . S
C218 C227 1.390 . S
C219 C218 1.387 . S
C219 C221 1.387 . S
H220 C227 0.950 . S
C221 C219 1.387 . S
C221 C223 1.390 . S
C221 H225 0.950 . S
H222 C218 0.950 . S
C223 C221 1.390 . S
C223 C224 1.387 . S
C223 H226 0.950 . S
C224 C223 1.387 . S
C224 C227 1.387 . S
H225 C221 0.950 . S
H226 C223 0.950 . S
C227 C218 1.390 . S
C227 H220 0.950 . S
C227 C224 1.387 . S
C228 C229 1.379 1_554 S
C228 H232 0.950 . S
C228 C237 1.399 . S
C229 C228 1.379 1_556 S
C229 C231 1.387 . S
H230 C237 0.950 . S
C231 C229 1.387 . S
C231 C233 1.399 . S
C231 H235 0.950 . S
H232 C228 0.950 . S
C233 C231 1.399 . S
C233 C234 1.379 1_556 S
C233 H236 0.950 . S
C234 C233 1.379 1_554 S
C234 C237 1.387 . S
H235 C231 0.950 . S
H236 C233 0.950 . S
C237 C228 1.399 . S
C237 H230 0.950 . S
C237 C234 1.387 . S
C238 C239 1.387 . S
C238 H242 0.950 . S
C238 C247 1.390 . S
C239 C238 1.387 . S
C239 C241 1.387 . S
H240 C247 0.950 . S
C241 C239 1.387 . S
C241 C243 1.390 . S
C241 H245 0.950 . S
H242 C238 0.950 . S
C243 C241 1.390 . S
C243 C244 1.387 . S
C243 H246 0.950 . S
C244 C243 1.387 . S
C244 C247 1.387 . S
H245 C241 0.950 . S
H246 C243 0.950 . S
C247 C238 1.390 . S
C247 H240 0.950 . S
C247 C244 1.387 . S
C248 C249 1.387 . S
C248 H252 0.950 . S
C248 C257 1.390 1_554 S
C249 C248 1.387 . S
C249 C251 1.387 . S
H250 C257 0.950 . S
C251 C249 1.387 . S
C251 C253 1.390 1_554 S
C251 H255 0.950 . S
H252 C248 0.950 . S
C253 C251 1.390 1_556 S
C253 C254 1.387 . S
C253 H256 0.950 . S
C254 C253 1.387 . S
C254 C257 1.387 . S
H255 C251 0.950 . S
H256 C253 0.950 . S
C257 C248 1.390 1_556 S
C257 H250 0.950 . S
C257 C254 1.387 . S
C258 C259 1.387 . S
C258 H262 0.950 . S
C258 C267 1.390 . S
C259 C258 1.387 . S
C259 C261 1.387 . S
H260 C267 0.950 . S
C261 C259 1.387 . S
C261 C263 1.390 . S
C261 H265 0.950 . S
H262 C258 0.950 . S
C263 C261 1.390 . S
C263 C264 1.387 . S
C263 H266 0.950 . S
C264 C263 1.387 . S
C264 C267 1.387 . S
H265 C261 0.950 . S
H266 C263 0.950 . S
C267 C258 1.390 . S
C267 H260 0.950 . S
C267 C264 1.387 . S
C268 C269 1.387 . S
C268 H272 0.950 . S
C268 C277 1.390 . S
C269 C268 1.387 . S
C269 C271 1.387 1_556 S
H270 C277 0.950 . S
C271 C269 1.387 1_554 S
C271 C273 1.390 . S
C271 H275 0.950 . S
H272 C268 0.950 . S
C273 C271 1.390 . S
C273 C274 1.387 . S
C273 H276 0.950 . S
C274 C273 1.387 . S
C274 C277 1.387 1_554 S
H275 C271 0.950 . S
H276 C273 0.950 . S
C277 C268 1.390 . S
C277 H270 0.950 . S
C277 C274 1.387 1_556 S
C278 C279 1.387 . S
C278 H282 0.950 . S
C278 C287 1.390 . S
C279 C278 1.387 . S
C279 C281 1.387 . S
H280 C287 0.950 . S
C281 C279 1.387 . S
C281 C283 1.390 . S
C281 H285 0.950 . S
H282 C278 0.950 . S
C283 C281 1.390 . S
C283 C284 1.387 . S
C283 H286 0.950 . S
C284 C283 1.387 . S
C284 C287 1.387 . S
H285 C281 0.950 . S
H286 C283 0.950 . S
C287 C278 1.390 . S
C287 H280 0.950 . S
C287 C284 1.387 . S
C288 C289 1.387 . S
C288 H292 0.950 . S
C288 C297 1.390 . S
C289 C288 1.387 . S
C289 C291 1.387 . S
H290 C297 0.950 . S
C291 C289 1.387 . S
C291 C293 1.390 . S
C291 H295 0.950 . S
H292 C288 0.950 . S
C293 C291 1.390 . S
C293 C294 1.387 . S
C293 H296 0.950 . S
C294 C293 1.387 . S
C294 C297 1.387 . S
H295 C291 0.950 . S
H296 C293 0.950 . S
C297 C288 1.390 . S
C297 H290 0.950 . S
C297 C294 1.387 . S
C298 C299 1.387 . S
C298 H302 0.950 . S
C298 C307 1.390 . S
C299 C298 1.387 . S
C299 C301 1.387 . S
H300 C307 0.950 . S
C301 C299 1.387 . S
C301 C303 1.390 . S
C301 H305 0.950 . S
H302 C298 0.950 . S
C303 C301 1.390 . S
C303 C304 1.387 . S
C303 H306 0.950 . S
C304 C303 1.387 . S
C304 C307 1.387 . S
H305 C301 0.950 . S
H306 C303 0.950 . S
C307 C298 1.390 . S
C307 H300 0.950 . S
C307 C304 1.387 . S
C308 C309 1.387 . S
C308 H312 0.950 . S
C308 C317 1.390 . S
C309 C308 1.387 . S
C309 C311 1.387 . S
H310 C317 0.950 . S
C311 C309 1.387 . S
C311 C313 1.390 . S
C311 H315 0.950 . S
H312 C308 0.950 . S
C313 C311 1.390 . S
C313 C314 1.387 . S
C313 H316 0.950 . S
C314 C313 1.387 . S
C314 C317 1.387 . S
H315 C311 0.950 . S
H316 C313 0.950 . S
C317 C308 1.390 . S
C317 H310 0.950 . S
C317 C314 1.387 . S
C318 C319 1.387 . S
C318 H322 0.950 . S
C318 C327 1.390 . S
C319 C318 1.387 . S
C319 C321 1.387 . S
H320 C327 0.950 . S
C321 C319 1.387 . S
C321 C323 1.390 . S
C321 H325 0.950 . S
H322 C318 0.950 . S
C323 C321 1.390 . S
C323 C324 1.387 . S
C323 H326 0.950 . S
C324 C323 1.387 . S
C324 C327 1.387 . S
H325 C321 0.950 . S
H326 C323 0.950 . S
C327 C318 1.390 . S
C327 H320 0.950 . S
C327 C324 1.387 . S
C328 C329 1.387 . S
C328 H332 0.950 . S
C328 C337 1.390 . S
C329 C328 1.387 . S
C329 C331 1.387 . S
H330 C337 0.950 . S
C331 C329 1.387 . S
C331 C333 1.390 . S
C331 H335 0.950 . S
H332 C328 0.950 . S
C333 C331 1.390 . S
C333 C334 1.387 . S
C333 H336 0.950 . S
C334 C333 1.387 . S
C334 C337 1.387 . S
H335 C331 0.950 . S
H336 C333 0.950 . S
C337 C328 1.390 . S
C337 H330 0.950 . S
C337 C334 1.387 . S
C338 C339 1.387 . S
C338 H342 0.950 . S
C338 C347 1.390 . S
C339 C338 1.387 . S
C339 C341 1.387 . S
H340 C347 0.950 . S
C341 C339 1.387 . S
C341 C343 1.390 . S
C341 H345 0.950 . S
H342 C338 0.950 . S
C343 C341 1.390 . S
C343 C344 1.387 . S
C343 H346 0.950 . S
C344 C343 1.387 . S
C344 C347 1.387 . S
H345 C341 0.950 . S
H346 C343 0.950 . S
C347 C338 1.390 . S
C347 H340 0.950 . S
C347 C344 1.387 . S
C348 C349 1.387 . S
C348 H352 0.950 . S
C348 C357 1.390 . S
C349 C348 1.387 . S
C349 C351 1.387 . S
H350 C357 0.950 . S
C351 C349 1.387 . S
C351 C353 1.390 . S
C351 H355 0.950 . S
H352 C348 0.950 . S
C353 C351 1.390 . S
C353 C354 1.387 . S
C353 H356 0.950 . S
C354 C353 1.387 . S
C354 C357 1.387 . S
H355 C351 0.950 . S
H356 C353 0.950 . S
C357 C348 1.390 . S
C357 H350 0.950 . S
C357 C354 1.387 . S
C358 C359 1.387 . S
C358 H362 0.950 . S
C358 C367 1.390 . S
C359 C358 1.387 . S
C359 C361 1.387 . S
H360 C367 0.950 . S
C361 C359 1.387 . S
C361 C363 1.390 . S
C361 H365 0.950 . S
H362 C358 0.950 . S
C363 C361 1.390 . S
C363 C364 1.387 . S
C363 H366 0.950 . S
C364 C363 1.387 . S
C364 C367 1.387 . S
H365 C361 0.950 . S
H366 C363 0.950 . S
C367 C358 1.390 . S
C367 H360 0.950 . S
C367 C364 1.387 . S
C368 C369 1.387 . S
C368 H372 0.950 . S
C368 C377 1.390 . S
C369 C368 1.387 . S
C369 C371 1.387 . S
H370 C377 0.950 . S
C371 C369 1.387 . S
C371 C373 1.390 . S
C371 H375 0.950 1_545 S
H372 C368 0.950 . S
C373 C371 1.390 . S
C373 C374 1.387 . S
C373 H376 0.950 1_545 S
C374 C373 1.387 . S
C374 C377 1.387 . S
H375 C371 0.950 1_565 S
H376 C373 0.950 1_565 S
C377 C368 1.390 . S
C377 H370 0.950 . S
C377 C374 1.387 . S
C378 C379 1.387 . S
C378 H382 0.950 . S
C378 C387 1.390 . S
C379 C378 1.387 . S
C379 C381 1.387 . S
H380 C387 0.950 . S
C381 C379 1.387 . S
C381 C383 1.390 . S
C381 H385 0.950 . S
H382 C378 0.950 . S
C383 C381 1.390 . S
C383 C384 1.387 . S
C383 H386 0.950 . S
C384 C383 1.387 . S
C384 C387 1.387 . S
H385 C381 0.950 . S
H386 C383 0.950 . S
C387 C378 1.390 . S
C387 H380 0.950 . S
C387 C384 1.387 . S
C388 C389 1.387 . S
C388 H392 0.950 . S
C388 C397 1.390 . S
C389 C388 1.387 . S
C389 C391 1.387 . S
H390 C397 0.950 . S
C391 C389 1.387 . S
C391 C393 1.390 . S
C391 H395 0.950 . S
H392 C388 0.950 . S
C393 C391 1.390 . S
C393 C394 1.387 . S
C393 H396 0.950 . S
C394 C393 1.387 . S
C394 C397 1.387 . S
H395 C391 0.950 . S
H396 C393 0.950 . S
C397 C388 1.390 . S
C397 H390 0.950 . S
C397 C394 1.387 . S
C398 C399 1.387 . S
C398 H402 0.950 1_455 S
C398 C407 1.390 . S
C399 C398 1.387 . S
C399 C401 1.387 . S
H400 C407 0.950 1_655 S
C401 C399 1.387 . S
C401 C403 1.390 . S
C401 H405 0.950 . S
H402 C398 0.950 1_655 S
C403 C401 1.390 . S
C403 C404 1.387 . S
C403 H406 0.950 . S
C404 C403 1.387 . S
C404 C407 1.387 . S
H405 C401 0.950 . S
H406 C403 0.950 . S
C407 C398 1.390 . S
C407 H400 0.950 1_455 S
C407 C404 1.387 . S
C408 C409 1.387 . S
C408 H412 0.950 . S
C408 C417 1.390 . S
C409 C408 1.387 . S
C409 C411 1.387 . S
H410 C417 0.950 . S
C411 C409 1.387 . S
C411 C413 1.390 . S
C411 H415 0.950 1_565 S
H412 C408 0.950 . S
C413 C411 1.390 . S
C413 C414 1.387 . S
C413 H416 0.950 1_565 S
C414 C413 1.387 . S
C414 C417 1.387 . S
H415 C411 0.950 1_545 S
H416 C413 0.950 1_545 S
C417 C408 1.390 . S
C417 H410 0.950 . S
C417 C414 1.387 . S
C418 C419 1.387 . S
C418 H422 0.950 . S
C418 C427 1.390 . S
C419 C418 1.387 . S
C419 C421 1.387 . S
H420 C427 0.950 . S
C421 C419 1.387 . S
C421 C423 1.390 . S
C421 H425 0.950 . S
H422 C418 0.950 . S
C423 C421 1.390 . S
C423 C424 1.387 . S
C423 H426 0.950 . S
C424 C423 1.387 . S
C424 C427 1.387 . S
H425 C421 0.950 . S
H426 C423 0.950 . S
C427 C418 1.390 . S
C427 H420 0.950 . S
C427 C424 1.387 . S
C428 C429 1.387 . S
C428 H432 0.950 . S
C428 C437 1.390 . S
C429 C428 1.387 . S
C429 C431 1.387 . S
H430 C437 0.950 . S
C431 C429 1.387 . S
C431 C433 1.390 . S
C431 H435 0.950 . S
H432 C428 0.950 . S
C433 C431 1.390 . S
C433 C434 1.387 . S
C433 H436 0.950 . S
C434 C433 1.387 . S
C434 C437 1.387 . S
H435 C431 0.950 . S
H436 C433 0.950 . S
C437 C428 1.390 . S
C437 H430 0.950 . S
C437 C434 1.387 . S
C438 C439 1.387 . S
C438 H442 0.950 1_655 S
C438 C447 1.390 . S
C439 C438 1.387 . S
C439 C441 1.387 . S
H440 C447 0.950 1_455 S
C441 C439 1.387 . S
C441 C443 1.390 . S
C441 H445 0.950 . S
H442 C438 0.950 1_455 S
C443 C441 1.390 . S
C443 C444 1.387 . S
C443 H446 0.950 . S
C444 C443 1.387 . S
C444 C447 1.387 . S
H445 C441 0.950 . S
H446 C443 0.950 . S
C447 C438 1.390 . S
C447 H440 0.950 1_655 S
C447 C444 1.387 . S
C448 C449 1.387 . S
C448 H452 0.950 . S
C448 C457 1.390 . S
C449 C448 1.387 . S
C449 C451 1.387 . S
H450 C457 0.950 . S
C451 C449 1.387 . S
C451 C453 1.390 . S
C451 H455 0.950 . S
H452 C448 0.950 . S
C453 C451 1.390 . S
C453 C454 1.387 . S
C453 H456 0.950 . S
C454 C453 1.387 . S
C454 C457 1.387 . S
H455 C451 0.950 . S
H456 C453 0.950 . S
C457 C448 1.390 . S
C457 H450 0.950 . S
C457 C454 1.387 . S
C458 C459 1.387 . S
C458 H462 0.950 . S
C458 C467 1.390 . S
C459 C458 1.387 . S
C459 C461 1.387 . S
H460 C467 0.950 . S
C461 C459 1.387 . S
C461 C463 1.390 . S
C461 H465 0.950 . S
H462 C458 0.950 . S
C463 C461 1.390 . S
C463 C464 1.387 . S
C463 H466 0.950 . S
C464 C463 1.387 . S
C464 C467 1.387 . S
H465 C461 0.950 . S
H466 C463 0.950 . S
C467 C458 1.390 . S
C467 H460 0.950 . S
C467 C464 1.387 . S
C468 C469 1.387 . S
C468 H472 0.950 . S
C468 C477 1.390 . S
C469 C468 1.387 . S
C469 C471 1.387 . S
H470 C477 0.950 . S
C471 C469 1.387 . S
C471 C473 1.390 . S
C471 H475 0.950 . S
H472 C468 0.950 . S
C473 C471 1.390 . S
C473 C474 1.387 . S
C473 H476 0.950 . S
C474 C473 1.387 . S
C474 C477 1.387 . S
H475 C471 0.950 . S
H476 C473 0.950 . S
C477 C468 1.390 . S
C477 H470 0.950 . S
C477 C474 1.387 . S
C478 C479 1.387 . S
C478 H482 0.950 . S
C478 C487 1.390 . S
C479 C478 1.387 . S
C479 C481 1.387 . S
H480 C487 0.950 . S
C481 C479 1.387 . S
C481 C483 1.390 . S
C481 H485 0.950 . S
H482 C478 0.950 . S
C483 C481 1.390 . S
C483 C484 1.387 . S
C483 H486 0.950 . S
C484 C483 1.387 . S
C484 C487 1.387 . S
H485 C481 0.950 . S
H486 C483 0.950 . S
C487 C478 1.390 . S
C487 H480 0.950 . S
C487 C484 1.387 . S
C488 C489 1.387 . S
C488 H492 0.950 . S
C488 C497 1.390 . S
C489 C488 1.387 . S
C489 C491 1.387 . S
H490 C497 0.950 . S
C491 C489 1.387 . S
C491 C493 1.390 . S
C491 H495 0.950 . S
H492 C488 0.950 . S
C493 C491 1.390 . S
C493 C494 1.387 . S
C493 H496 0.950 . S
C494 C493 1.387 . S
C494 C497 1.387 . S
H495 C491 0.950 . S
H496 C493 0.950 . S
C497 C488 1.390 . S
C497 H490 0.950 . S
C497 C494 1.387 . S
C498 C499 1.387 . S
C498 H502 0.950 . S
C498 C507 1.390 . S
C499 C498 1.387 . S
C499 C501 1.387 . S
H500 C507 0.950 . S
C501 C499 1.387 . S
C501 C503 1.390 . S
C501 H505 0.950 . S
H502 C498 0.950 . S
C503 C501 1.390 . S
C503 C504 1.387 . S
C503 H506 0.950 . S
C504 C503 1.387 . S
C504 C507 1.387 . S
H505 C501 0.950 . S
H506 C503 0.950 . S
C507 C498 1.390 . S
C507 H500 0.950 . S
C507 C504 1.387 . S
C508 C509 1.387 . S
C508 H512 0.950 . S
C508 C517 1.390 . S
C509 C508 1.387 . S
C509 C511 1.387 . S
H510 C517 0.950 . S
C511 C509 1.387 . S
C511 C513 1.390 . S
C511 H515 0.950 . S
H512 C508 0.950 . S
C513 C511 1.390 . S
C513 C514 1.387 . S
C513 H516 0.950 . S
C514 C513 1.387 . S
C514 C517 1.387 . S
H515 C511 0.950 . S
H516 C513 0.950 . S
C517 C508 1.390 . S
C517 H510 0.950 . S
C517 C514 1.387 . S
C518 C519 1.387 . S
C518 H522 0.950 . S
C518 C527 1.390 . S
C519 C518 1.387 . S
C519 C521 1.387 . S
H520 C527 0.950 . S
C521 C519 1.387 . S
C521 C523 1.390 . S
C521 H525 0.950 . S
H522 C518 0.950 . S
C523 C521 1.390 . S
C523 C524 1.387 . S
C523 H526 0.950 . S
C524 C523 1.387 . S
C524 C527 1.387 . S
H525 C521 0.950 . S
H526 C523 0.950 . S
C527 C518 1.390 . S
C527 H520 0.950 . S
C527 C524 1.387 . S
C209 C92 1.565 . S
C214 C1 1.565 . S
C219 C53 1.564 . S
C224 C14 1.563 . S
C229 C66 1.565 . S
C234 C27 1.564 . S
C239 C40 1.565 . S
C244 C79 1.565 . S
C249 C205 1.565 . S
C254 C105 1.596 . S
C259 C157 1.596 . S
C264 C127 1.564 . S
C269 C131 1.597 . S
C274 C179 1.563 . S
C279 C153 1.565 . S
C284 C183 1.596 . S
C289 C36 1.545 . S
C294 C10 1.545 . S
C299 C23 1.545 . S
C304 C49 1.545 . S
C309 C62 1.545 . S
C314 C88 1.545 . S
C319 C101 1.549 . S
C324 C75 1.549 . S
C329 C114 1.625 . S
C334 C140 1.625 . S
C339 C118 1.549 . S
C344 C144 1.549 . S
C349 C192 1.625 . S
C354 C166 1.625 . S
C359 C170 1.549 . S
C364 C196 1.549 . S
C369 C81 1.559 . S
C374 C3 1.559 . S
C379 C16 1.560 . S
C384 C94 1.560 . S
C389 C29 1.560 . S
C394 C55 1.560 . S
C399 C42 1.560 . S
C404 C68 1.560 . S
C409 C107 1.572 . S
C414 C185 1.572 . S
C419 C122 1.559 . S
C424 C200 1.559 . S
C429 C133 1.572 . S
C434 C159 1.572 . S
C439 C148 1.559 . S
C444 C174 1.559 . S
C449 C5 1.604 1_565 S
C454 C198 1.612 . S
C459 C161 1.651 . S
C464 C18 1.612 . S
C469 C31 1.609 . S
C474 C172 1.607 1_455 S
C479 C187 1.651 . S
C484 C44 1.607 1_655 S
C489 C120 1.609 . S
C494 C57 1.612 . S
C499 C70 1.607 1_655 S
C504 C135 1.651 . S
C509 C146 1.607 1_455 S
C514 C83 1.604 1_565 S
C519 C109 1.651 . S
C524 C96 1.612 . S
