# Generated by pormake.
# Topology umz, (4)-cn, num edge types: 1
# Building blocks:
#     Node 0, Type 0, BuildingBlock: UXUYUI_clean_sbu_0, # of connection points: 4
#     Node 1, Type 0, BuildingBlock: UXUYUI_clean_sbu_0, # of connection points: 4
#     Node 2, Type 0, BuildingBlock: UXUYUI_clean_sbu_0, # of connection points: 4
#     Node 3, Type 0, BuildingBlock: UXUYUI_clean_sbu_0, # of connection points: 4
#     Node 4, Type 0, BuildingBlock: UXUYUI_clean_sbu_0, # of connection points: 4
#     Node 5, Type 0, BuildingBlock: UXUYUI_clean_sbu_0, # of connection points: 4
#     Node 6, Type 0, BuildingBlock: UXUYUI_clean_sbu_0, # of connection points: 4
#     Node 7, Type 0, BuildingBlock: UXUYUI_clean_sbu_0, # of connection points: 4
#     Node 8, Type 0, BuildingBlock: UXUYUI_clean_sbu_0, # of connection points: 4
#     Node 9, Type 0, BuildingBlock: UXUYUI_clean_sbu_0, # of connection points: 4
#     Node 10, Type 0, BuildingBlock: UXUYUI_clean_sbu_0, # of connection points: 4
#     Node 11, Type 0, BuildingBlock: UXUYUI_clean_sbu_0, # of connection points: 4
#     Node 12, Type 0, BuildingBlock: UXUYUI_clean_sbu_0, # of connection points: 4
#     Node 13, Type 0, BuildingBlock: UXUYUI_clean_sbu_0, # of connection points: 4
#     Node 14, Type 0, BuildingBlock: UXUYUI_clean_sbu_0, # of connection points: 4
#     Node 15, Type 0, BuildingBlock: UXUYUI_clean_sbu_0, # of connection points: 4
#     Edge 16, Type (0, 0), BuildingBlock: CIFDUS_clean_linker_0, # of connection points: 2
#     Edge 17, Type (0, 0), BuildingBlock: CIFDUS_clean_linker_0, # of connection points: 2
#     Edge 18, Type (0, 0), BuildingBlock: CIFDUS_clean_linker_0, # of connection points: 2
#     Edge 19, Type (0, 0), BuildingBlock: CIFDUS_clean_linker_0, # of connection points: 2
#     Edge 20, Type (0, 0), BuildingBlock: CIFDUS_clean_linker_0, # of connection points: 2
#     Edge 21, Type (0, 0), BuildingBlock: CIFDUS_clean_linker_0, # of connection points: 2
#     Edge 22, Type (0, 0), BuildingBlock: CIFDUS_clean_linker_0, # of connection points: 2
#     Edge 23, Type (0, 0), BuildingBlock: CIFDUS_clean_linker_0, # of connection points: 2
#     Edge 24, Type (0, 0), BuildingBlock: CIFDUS_clean_linker_0, # of connection points: 2
#     Edge 25, Type (0, 0), BuildingBlock: CIFDUS_clean_linker_0, # of connection points: 2
#     Edge 26, Type (0, 0), BuildingBlock: CIFDUS_clean_linker_0, # of connection points: 2
#     Edge 27, Type (0, 0), BuildingBlock: CIFDUS_clean_linker_0, # of connection points: 2
#     Edge 28, Type (0, 0), BuildingBlock: CIFDUS_clean_linker_0, # of connection points: 2
#     Edge 29, Type (0, 0), BuildingBlock: CIFDUS_clean_linker_0, # of connection points: 2
#     Edge 30, Type (0, 0), BuildingBlock: CIFDUS_clean_linker_0, # of connection points: 2
#     Edge 31, Type (0, 0), BuildingBlock: CIFDUS_clean_linker_0, # of connection points: 2
#     Edge 32, Type (0, 0), BuildingBlock: CIFDUS_clean_linker_0, # of connection points: 2
#     Edge 33, Type (0, 0), BuildingBlock: CIFDUS_clean_linker_0, # of connection points: 2
#     Edge 34, Type (0, 0), BuildingBlock: CIFDUS_clean_linker_0, # of connection points: 2
#     Edge 35, Type (0, 0), BuildingBlock: CIFDUS_clean_linker_0, # of connection points: 2
#     Edge 36, Type (0, 0), BuildingBlock: CIFDUS_clean_linker_0, # of connection points: 2
#     Edge 37, Type (0, 0), BuildingBlock: CIFDUS_clean_linker_0, # of connection points: 2
#     Edge 38, Type (0, 0), BuildingBlock: CIFDUS_clean_linker_0, # of connection points: 2
#     Edge 39, Type (0, 0), BuildingBlock: CIFDUS_clean_linker_0, # of connection points: 2
#     Edge 40, Type (0, 0), BuildingBlock: CIFDUS_clean_linker_0, # of connection points: 2
#     Edge 41, Type (0, 0), BuildingBlock: CIFDUS_clean_linker_0, # of connection points: 2
#     Edge 42, Type (0, 0), BuildingBlock: CIFDUS_clean_linker_0, # of connection points: 2
#     Edge 43, Type (0, 0), BuildingBlock: CIFDUS_clean_linker_0, # of connection points: 2
#     Edge 44, Type (0, 0), BuildingBlock: CIFDUS_clean_linker_0, # of connection points: 2
#     Edge 45, Type (0, 0), BuildingBlock: CIFDUS_clean_linker_0, # of connection points: 2
#     Edge 46, Type (0, 0), BuildingBlock: CIFDUS_clean_linker_0, # of connection points: 2
#     Edge 47, Type (0, 0), BuildingBlock: CIFDUS_clean_linker_0, # of connection points: 2
# Relax obj value: 0.340
# Max RMSD: 0.205
# Mean RMSD: 0.205
data_MOF--net-umz--node1-UXUYUI_clean_sbu_0--edge1-CIFDUS_clean_linker_0
_symmetry_space_group_name_H-M    P1
_symmetry_Int_Tables_number       1
_symmetry_cell_setting            triclinic
loop_
_symmetry_equiv_pos_as_xyz
'x, y, z'
_cell_length_a     80.33679
_cell_length_b     80.346497
_cell_length_c     29.183329
_cell_angle_alpha  89.972647
_cell_angle_beta   90.027595
_cell_angle_gamma 90.001101
loop_
_atom_site_label
_atom_site_type_symbol
_atom_site_fract_x
_atom_site_fract_y
_atom_site_fract_z
_atom_type_partial_charge
Li0 Li 0.00904 0.6291 0.16307 0.0
Li1 Li 0.03382 0.64183 0.20124 0.0
Li2 Li 0.01978 0.65667 0.13896 0.0
Li3 Li 0.03598 0.6328 0.12356 0.0
C4 C 0.00369 0.66444 0.21428 0.0
N5 N 0.99041 0.69486 0.23879 0.0
C6 C 0.01286 0.67538 0.24163 0.0
C7 C 0.98776 0.66892 0.19946 0.0
C8 C 0.00592 0.69071 0.25367 0.0
C9 C 0.98128 0.68438 0.21219 0.0
C10 C 0.03743 0.6083 0.20766 0.0
C11 C 0.06132 0.59531 0.24274 0.0
N12 N 0.05111 0.58751 0.27307 0.0
C13 C 0.02715 0.60005 0.23894 0.0
C14 C 0.05464 0.60583 0.20933 0.0
C15 C 0.03432 0.58962 0.27181 0.0
C16 C 0.9907 0.59948 0.15717 0.0
N17 N 0.99074 0.61509 0.17499 0.0
C18 C 0.96685 0.60897 0.22063 0.0
C19 C 0.97907 0.62007 0.20576 0.0
C20 C 0.96675 0.59258 0.20383 0.0
C21 C 0.97868 0.588 0.17094 0.0
H22 H 0.00043 0.59575 0.13376 0.0
H23 H 0.9797 0.63244 0.22024 0.0
C24 C 0.06134 0.64462 0.26127 0.0
N25 N 0.04473 0.64163 0.25873 0.0
C26 C 0.07053 0.6384 0.29807 0.0
C27 C 0.045 0.62797 0.33125 0.0
C28 C 0.03632 0.63444 0.2939 0.0
C29 C 0.06246 0.62907 0.33221 0.0
H30 H 0.06766 0.65059 0.23312 0.0
H31 H 0.0231 0.63214 0.29059 0.0
C32 C 0.01501 0.63406 0.05499 0.0
N33 N 0.02009 0.62618 0.96391 0.0
C34 C 0.02166 0.64589 0.025 0.0
C35 C 0.0109 0.61824 0.03864 0.0
C36 C 0.02412 0.64167 0.97907 0.0
C37 C 0.01359 0.61449 0.99248 0.0
C38 C 0.05834 0.65804 0.12791 0.0
C39 C 0.05878 0.671 0.09593 0.0
C40 C 0.07283 0.64896 0.13697 0.0
C41 C 0.07371 0.67464 0.07351 0.0
C42 C 0.0875 0.65297 0.11378 0.0
N43 N 0.08763 0.66563 0.08281 0.0
C44 C 0.02018 0.69186 0.13047 0.0
C45 C 0.00094 0.67763 0.08285 0.0
C46 C 0.01656 0.70691 0.10872 0.0
N47 N 0.01273 0.67759 0.11626 0.0
C48 C 0.99711 0.69233 0.05977 0.0
C49 C 0.00529 0.7071 0.07193 0.0
H50 H 0.0295 0.69141 0.15722 0.0
H51 H 0.99504 0.66611 0.07278 0.0
C52 C 0.05172 0.60481 0.08561 0.0
N53 N 0.05028 0.62158 0.08081 0.0
C54 C 0.06213 0.59574 0.05665 0.0
C55 C 0.06927 0.6213 0.01778 0.0
C56 C 0.0585 0.62981 0.04698 0.0
C57 C 0.07126 0.604 0.0224 0.0
H58 H 0.04468 0.59844 0.11183 0.0
H59 H 0.05679 0.64302 0.04252 0.0
O60 O 0.01044 0.64958 0.20116 0.0
O61 O 0.03069 0.61884 0.1758 0.0
O62 O 0.01276 0.63787 0.10026 0.0
O63 O 0.04387 0.65444 0.15062 0.0
H64 H 0.02525 0.67212 0.2531 0.0
H65 H 0.98059 0.66064 0.17788 0.0
H66 H 0.01288 0.69933 0.27471 0.0
H67 H 0.969 0.68806 0.20078 0.0
H68 H 0.07463 0.59338 0.24462 0.0
H69 H 0.01382 0.60187 0.23831 0.0
H70 H 0.06276 0.61205 0.18525 0.0
H71 H 0.02653 0.58327 0.29647 0.0
H72 H 0.95808 0.61297 0.24656 0.0
H73 H 0.97897 0.57555 0.15678 0.0
H74 H 0.08393 0.63987 0.29813 0.0
H75 H 0.03827 0.62081 0.35663 0.0
H76 H 0.0252 0.6581 0.0372 0.0
H77 H 0.00579 0.60893 0.06136 0.0
H78 H 0.02935 0.65067 0.95556 0.0
H79 H 0.01053 0.60227 0.97939 0.0
H80 H 0.04771 0.67807 0.08804 0.0
H81 H 0.0727 0.63875 0.16105 0.0
H82 H 0.0742 0.6846 0.04858 0.0
H83 H 0.09876 0.64598 0.12028 0.0
H84 H 0.02315 0.71808 0.11886 0.0
H85 H 0.98821 0.69208 0.03189 0.0
H86 H 0.06284 0.58237 0.06079 0.0
H87 H 0.07606 0.6283 0.9922 0.0
Li88 Li 0.86064 0.00114 0.66594 0.0
Li89 Li 0.85794 0.03018 0.6973 0.0
Li90 Li 0.8387 0.0197 0.64106 0.0
Li91 Li 0.86591 0.02693 0.61815 0.0
C92 C 0.82728 0.00902 0.72075 0.0
N93 N 0.79508 0.0057 0.75239 0.0
C94 C 0.81847 0.02301 0.73553 0.0
C95 C 0.81981 0.99333 0.7223 0.0
C96 C 0.80217 0.02107 0.75133 0.0
C97 C 0.80349 0.99191 0.73836 0.0
C98 C 0.89062 0.02176 0.70335 0.0
C99 C 0.90873 0.04084 0.74339 0.0
N100 N 0.91516 0.02791 0.76771 0.0
C101 C 0.8975 0.00866 0.72859 0.0
C102 C 0.89639 0.03798 0.7106 0.0
C103 C 0.90987 0.01202 0.76098 0.0
C104 C 0.87782 0.97126 0.65072 0.0
N105 N 0.86814 0.97966 0.68104 0.0
C106 C 0.87338 0.95945 0.7392 0.0
C107 C 0.86549 0.97394 0.72425 0.0
C108 C 0.88391 0.9508 0.70911 0.0
C109 C 0.88574 0.95658 0.66398 0.0
H110 H 0.87992 0.97635 0.61689 0.0
H111 H 0.85797 0.98112 0.74778 0.0
C112 C 0.86039 0.05896 0.75378 0.0
N113 N 0.86151 0.0421 0.75263 0.0
C114 C 0.86731 0.06778 0.79031 0.0
C115 C 0.87455 0.04161 0.82613 0.0
C116 C 0.86756 0.03331 0.78882 0.0
C117 C 0.87516 0.05908 0.82606 0.0
H118 H 0.85494 0.06559 0.72533 0.0
H119 H 0.86813 0.01988 0.78703 0.0
C120 C 0.84359 -0.00235 0.57251 0.0
N121 N 0.82281 0.98057 0.51329 0.0
C122 C 0.8355 0.00605 0.53686 0.0
C123 C 0.84107 0.98053 0.57793 0.0
C124 C 0.82505 0.9972 0.50734 0.0
C125 C 0.83053 0.97213 0.54765 0.0
C126 C 0.85217 0.05539 0.6155 0.0
C127 C 0.84435 0.05666 0.57277 0.0
C128 C 0.86412 0.06724 0.62788 0.0
C129 C 0.84849 0.06979 0.54349 0.0
C130 C 0.86794 0.08016 0.59759 0.0
N131 N 0.86011 0.08116 0.55638 0.0
C132 C 0.80882 0.03461 0.61185 0.0
C133 C 0.80758 0.00518 0.61468 0.0
C134 C 0.79404 0.03522 0.58688 0.0
N135 N 0.81581 0.01971 0.62249 0.0
C136 C 0.79273 0.00519 0.58987 0.0
C137 C 0.78628 0.02033 0.57366 0.0
H138 H 0.81518 0.04602 0.62053 0.0
H139 H 0.81315 0.99349 0.62464 0.0
C140 C 0.89372 0.04433 0.58111 0.0
N141 N 0.87961 0.03583 0.57041 0.0
C142 C 0.90225 0.05321 0.5474 0.0
C143 C 0.88217 0.04359 0.49175 0.0
C144 C 0.8741 0.03485 0.5265 0.0
C145 C 0.89622 0.05326 0.50222 0.0
H146 H 0.89801 0.04476 0.61605 0.0
H147 H 0.86298 0.02794 0.51871 0.0
O148 O 0.84312 0.01071 0.70442 0.0
O149 O 0.87828 0.01871 0.67198 0.0
O150 O 0.85399 0.00603 0.60173 0.0
O151 O 0.84857 0.04235 0.64425 0.0
H152 H 0.82412 0.03523 0.7344 0.0
H153 H 0.82649 0.9824 0.7108 0.0
H154 H 0.79515 0.03179 0.76268 0.0
H155 H 0.79749 0.97987 0.73956 0.0
H156 H 0.91311 0.05337 0.74975 0.0
H157 H 0.89339 0.99602 0.7233 0.0
H158 H 0.89107 0.04834 0.69211 0.0
H159 H 0.91524 0.00199 0.78081 0.0
H160 H 0.87175 0.95536 0.77429 0.0
H161 H 0.89397 0.95036 0.64011 0.0
H162 H 0.86717 0.08126 0.78963 0.0
H163 H 0.88049 0.03443 0.85297 0.0
H164 H 0.83683 0.01933 0.53274 0.0
H165 H 0.84702 0.97381 0.60548 0.0
H166 H 0.8186 0.0036 0.47996 0.0
H167 H 0.82845 0.95891 0.55159 0.0
H168 H 0.83544 0.04744 0.56173 0.0
H169 H 0.8707 0.06631 0.66001 0.0
H170 H 0.84258 0.07083 0.5103 0.0
H171 H 0.87724 0.08931 0.60671 0.0
H172 H 0.78913 0.04718 0.57635 0.0
H173 H 0.78704 0.99342 0.58074 0.0
H174 H 0.91326 0.0602 0.55681 0.0
H175 H 0.87698 0.04334 0.45751 0.0
Li176 Li 0.485 0.86414 0.1772 0.0
Li177 Li 0.45841 0.85564 0.20716 0.0
Li178 Li 0.47111 0.84004 0.14444 0.0
Li179 Li 0.45907 0.86712 0.13277 0.0
C180 C 0.4783 0.82857 0.23314 0.0
N181 N 0.47529 0.79943 0.2828 0.0
C182 C 0.46318 0.81993 0.23374 0.0
C183 C 0.49185 0.82241 0.25792 0.0
C184 C 0.46193 0.80522 0.25903 0.0
C185 C 0.4901 0.80765 0.28276 0.0
C186 C 0.46085 0.88825 0.22575 0.0
C187 C 0.43958 0.90217 0.26986 0.0
N188 N 0.45132 0.90722 0.30038 0.0
C189 C 0.47272 0.89373 0.25737 0.0
C190 C 0.44415 0.89263 0.23188 0.0
C191 C 0.46766 0.90325 0.29492 0.0
C192 C 0.51357 0.88384 0.16156 0.0
N193 N 0.50589 0.87352 0.19178 0.0
C194 C 0.52717 0.87803 0.24747 0.0
C195 C 0.5125 0.87022 0.23368 0.0
C196 C 0.53518 0.88904 0.21737 0.0
C197 C 0.52845 0.89167 0.17359 0.0
H198 H 0.50793 0.8863 0.12858 0.0
H199 H 0.50602 0.86199 0.25696 0.0
C200 C 0.42918 0.85442 0.2611 0.0
N201 N 0.44606 0.85522 0.26252 0.0
C202 C 0.41985 0.85953 0.29883 0.0
C203 C 0.44549 0.86438 0.34019 0.0
C204 C 0.45432 0.85914 0.30167 0.0
C205 C 0.42805 0.86547 0.33809 0.0
H206 H 0.42297 0.85104 0.22967 0.0
H207 H 0.46778 0.85973 0.30155 0.0
C208 C 0.49565 0.85438 0.09105 0.0
N209 N 0.525 0.84475 0.04952 0.0
C210 C 0.49917 0.85944 0.04629 0.0
C211 C 0.50703 0.84438 0.11469 0.0
C212 C 0.51409 0.85445 0.02589 0.0
C213 C 0.5218 0.83966 0.09309 0.0
C214 C 0.43318 0.84679 0.12676 0.0
C215 C 0.43047 0.83504 0.09225 0.0
C216 C 0.42117 0.85904 0.13487 0.0
C217 C 0.41607 0.83604 0.06553 0.0
C218 C 0.40695 0.85967 0.10735 0.0
N219 N 0.40472 0.84826 0.07348 0.0
C220 C 0.48157 0.80578 0.13075 0.0
C221 C 0.47208 0.82114 0.06648 0.0
C222 C 0.48468 0.79196 0.10304 0.0
N223 N 0.47516 0.81992 0.11215 0.0
C224 C 0.47495 0.80766 0.03761 0.0
C225 C 0.48125 0.7928 0.05586 0.0
H226 H 0.48442 0.80519 0.16683 0.0
H227 H 0.46738 0.83269 0.05248 0.0
C228 C 0.43958 0.89412 0.09958 0.0
N229 N 0.44776 0.87991 0.08817 0.0
C230 C 0.42964 0.90219 0.06727 0.0
C231 C 0.43746 0.8813 0.01161 0.0
C232 C 0.44709 0.87354 0.04511 0.0
C233 C 0.4284 0.89567 0.02281 0.0
H234 H 0.44045 0.89897 0.13398 0.0
H235 H 0.45367 0.86214 0.03727 0.0
O236 O 0.47992 0.84305 0.20891 0.0
O237 O 0.46559 0.87872 0.18902 0.0
O238 O 0.48099 0.85905 0.11115 0.0
O239 O 0.44739 0.84618 0.15274 0.0
H240 H 0.45253 0.82445 0.21488 0.0
H241 H 0.50363 0.82896 0.25783 0.0
H242 H 0.45032 0.7984 0.25975 0.0
H243 H 0.5005 0.80272 0.30202 0.0
H244 H 0.42667 0.90549 0.27518 0.0
H245 H 0.48571 0.89066 0.25314 0.0
H246 H 0.43473 0.88848 0.20808 0.0
H247 H 0.47672 0.90748 0.31975 0.0
H248 H 0.53204 0.87578 0.28153 0.0
H249 H 0.53422 0.90026 0.14979 0.0
H250 H 0.4064 0.85987 0.29623 0.0
H251 H 0.45233 0.86893 0.36962 0.0
H252 H 0.49045 0.86712 0.0275 0.0
H253 H 0.50449 0.84026 0.14926 0.0
H254 H 0.51699 0.85827 0.99125 0.0
H255 H 0.53072 0.83192 0.11096 0.0
H256 H 0.4393 0.82514 0.08634 0.0
H257 H 0.42295 0.86818 0.16152 0.0
H258 H 0.41389 0.82707 0.03856 0.0
H259 H 0.3977 0.86925 0.11286 0.0
H260 H 0.4895 0.78068 0.11845 0.0
H261 H 0.47242 0.80893 0.00132 0.0
H262 H 0.42297 0.91337 0.07689 0.0
H263 H 0.43672 0.87586 0.97771 0.0
Li264 Li 0.63002 0.48919 0.67622 0.0
Li265 Li 0.6363 0.46235 0.71162 0.0
Li266 Li 0.65533 0.47556 0.65705 0.0
Li267 Li 0.62925 0.46342 0.63088 0.0
C268 C 0.66332 0.48804 0.73648 0.0
N269 N 0.69438 0.49606 0.77041 0.0
C270 C 0.67136 0.47727 0.76688 0.0
C271 C 0.67098 0.50293 0.72355 0.0
C272 C 0.68708 0.48155 0.78363 0.0
C273 C 0.68672 0.50674 0.74099 0.0
C274 C 0.60288 0.46456 0.71095 0.0
C275 C 0.58508 0.44284 0.74029 0.0
N276 N 0.57856 0.45377 0.77098 0.0
C277 C 0.59599 0.47557 0.7428 0.0
C278 C 0.59735 0.44806 0.70958 0.0
C279 C 0.5837 0.46988 0.77283 0.0
C280 C 0.60347 0.51119 0.66687 0.0
N281 N 0.61829 0.50901 0.68846 0.0
C282 C 0.6124 0.53127 0.7401 0.0
C283 C 0.62311 0.51895 0.72372 0.0
C284 C 0.59662 0.53322 0.72001 0.0
C285 C 0.59247 0.52341 0.68183 0.0
H286 H 0.59978 0.50276 0.63986 0.0
H287 H 0.6348 0.5166 0.74096 0.0
C288 C 0.63161 0.43339 0.76641 0.0
N289 N 0.63237 0.45029 0.76635 0.0
C290 C 0.62373 0.42506 0.80237 0.0
C291 C 0.6188 0.45162 0.83891 0.0
C292 C 0.62687 0.45941 0.80247 0.0
C293 C 0.61655 0.43429 0.83814 0.0
H294 H 0.63606 0.42647 0.7372 0.0
H295 H 0.62752 0.47285 0.80113 0.0
C296 C 0.6332 0.49867 0.59101 0.0
N297 N 0.6207 0.52636 0.54664 0.0
C298 C 0.62006 0.49702 0.55993 0.0
C299 C 0.64008 0.51436 0.59924 0.0
C300 C 0.6139 0.51118 0.5379 0.0
C301 C 0.63355 0.52822 0.57657 0.0
C302 C 0.65052 0.43767 0.63567 0.0
C303 C 0.66424 0.43603 0.60657 0.0
C304 C 0.63872 0.42489 0.63787 0.0
C305 C 0.66589 0.42166 0.58 0.0
C306 C 0.64079 0.41074 0.61067 0.0
N307 N 0.65422 0.40943 0.58254 0.0
C308 C 0.69042 0.46995 0.65749 0.0
C309 C 0.67994 0.48748 0.59883 0.0
C310 C 0.70614 0.46989 0.63703 0.0
N311 N 0.67767 0.47843 0.63765 0.0
C312 C 0.69537 0.48769 0.57713 0.0
C313 C 0.70863 0.47847 0.59553 0.0
H314 H 0.68816 0.46255 0.6878 0.0
H315 H 0.66954 0.49382 0.58322 0.0
C316 C 0.60174 0.44981 0.58447 0.0
N317 N 0.61847 0.4522 0.58226 0.0
C318 C 0.59362 0.44083 0.55026 0.0
C319 C 0.62005 0.43725 0.51177 0.0
C320 C 0.62759 0.44663 0.54616 0.0
C321 C 0.6029 0.4342 0.51394 0.0
H322 H 0.59472 0.45482 0.61284 0.0
H323 H 0.64076 0.44925 0.54449 0.0
O324 O 0.64803 0.48399 0.7193 0.0
O325 O 0.6151 0.46982 0.68162 0.0
O326 O 0.63932 0.48499 0.61325 0.0
O327 O 0.64863 0.45171 0.66171 0.0
H328 H 0.66557 0.46569 0.77715 0.0
H329 H 0.66488 0.51138 0.70003 0.0
H330 H 0.69351 0.47331 0.80705 0.0
H331 H 0.69286 0.51817 0.73111 0.0
H332 H 0.58077 0.43009 0.7398 0.0
H333 H 0.6002 0.48833 0.74479 0.0
H334 H 0.60259 0.43934 0.68537 0.0
H335 H 0.57832 0.47825 0.79778 0.0
H336 H 0.61602 0.53844 0.7699 0.0
H337 H 0.58052 0.52466 0.66497 0.0
H338 H 0.62221 0.41168 0.80051 0.0
H339 H 0.61362 0.45914 0.8662 0.0
H340 H 0.61461 0.48497 0.55308 0.0
H341 H 0.65025 0.51583 0.62322 0.0
H342 H 0.60369 0.51011 0.5139 0.0
H343 H 0.63868 0.54046 0.58281 0.0
H344 H 0.67346 0.44578 0.60412 0.0
H345 H 0.6279 0.42603 0.65961 0.0
H346 H 0.67641 0.42026 0.55721 0.0
H347 H 0.63168 0.40084 0.61174 0.0
H348 H 0.71606 0.46275 0.65268 0.0
H349 H 0.69656 0.49423 0.54485 0.0
H350 H 0.58031 0.4388 0.55256 0.0
H351 H 0.62747 0.43253 0.48364 0.0
Li352 Li 0.01607 0.835 0.84324 0.0
Li353 Li 0.02849 0.85888 0.87925 0.0
Li354 Li 0.00429 0.86182 0.82959 0.0
Li355 Li 0.03107 0.85532 0.79744 0.0
C356 C 0.00502 0.84302 0.93165 0.0
N357 N 0.00334 0.82828 0.01712 0.0
C358 C 0.01769 0.83235 0.94635 0.0
C359 C 0.9915 0.84621 0.96047 0.0
C360 C 0.01661 0.82501 0.98964 0.0
C361 C 0.99089 0.83864 0.00356 0.0
C362 C 0.05719 0.84183 0.84715 0.0
C363 C 0.08215 0.85838 0.85326 0.0
N364 N 0.09151 0.84437 0.84897 0.0
C365 C 0.06705 0.82759 0.84285 0.0
C366 C 0.0648 0.85736 0.85243 0.0
C367 C 0.08438 0.82913 0.84383 0.0
C368 C 0.02247 0.80035 0.84656 0.0
N369 N 0.0108 0.81228 0.8541 0.0
C370 C 0.99362 0.79303 0.89464 0.0
C371 C 0.9963 0.80876 0.87608 0.0
C372 C 0.00593 0.78079 0.89008 0.0
C373 C 0.02023 0.78433 0.86418 0.0
H374 H 0.03391 0.80353 0.82917 0.0
H375 H 0.98726 0.81847 0.88208 0.0
C376 C 0.03505 0.88316 0.94482 0.0
N377 N 0.03903 0.86737 0.9325 0.0
C378 C 0.04334 0.89086 0.98103 0.0
C379 C 0.05938 0.86568 0.992 0.0
C380 C 0.0507 0.85845 0.95571 0.0
C381 C 0.05586 0.88216 0.00467 0.0
H382 H 0.02564 0.88988 0.92582 0.0
H383 H 0.05357 0.84585 0.94536 0.0
C384 C 0.99539 0.83658 0.76767 0.0
N385 N 0.967 0.82069 0.73688 0.0
C386 C 0.99491 0.82974 0.72368 0.0
C387 C 0.98141 0.83536 0.79596 0.0
C388 C 0.98045 0.82174 0.70874 0.0
C389 C 0.96718 0.82728 0.7798 0.0
C390 C 0.02253 0.88939 0.80393 0.0
C391 C 0.01727 0.88755 0.75854 0.0
C392 C 0.02586 0.90529 0.82104 0.0
C393 C 0.01537 0.90165 0.73105 0.0
C394 C 0.0238 0.9191 0.79246 0.0
N395 N 0.01865 0.91701 0.74844 0.0
C396 C 0.97657 0.88081 0.85706 0.0
C397 C 0.97854 0.87632 0.77698 0.0
C398 C 0.96223 0.8904 0.85107 0.0
N399 N 0.98442 0.87412 0.82021 0.0
C400 C 0.9644 0.88596 0.76934 0.0
C401 C 0.95606 0.89325 0.80663 0.0
H402 H 0.98155 0.87881 0.89106 0.0
H403 H 0.98497 0.87079 0.74826 0.0
C404 C 0.04431 0.85156 0.70673 0.0
N405 N 0.04537 0.86 0.74698 0.0
C406 C 0.05321 0.85708 0.66836 0.0
C407 C 0.06437 0.87949 0.71427 0.0
C408 C 0.05537 0.87354 0.75145 0.0
C409 C 0.06317 0.87144 0.67172 0.0
H410 H 0.03612 0.84092 0.70399 0.0
H411 H 0.05569 0.88035 0.7833 0.0
O412 O 0.00563 0.85023 0.88916 0.0
O413 O 0.04019 0.84046 0.84625 0.0
O414 O 0.00948 0.84449 0.78251 0.0
O415 O 0.02462 0.87576 0.83151 0.0
H416 H 0.02819 0.82961 0.92447 0.0
H417 H 0.98156 0.85439 0.94956 0.0
H418 H 0.0263 0.81668 0.00134 0.0
H419 H 0.98049 0.84099 0.02619 0.0
H420 H 0.08818 0.87033 0.85738 0.0
H421 H 0.06141 0.81546 0.83884 0.0
H422 H 0.05741 0.86851 0.85612 0.0
H423 H 0.09215 0.8182 0.84053 0.0
H424 H 0.98241 0.79068 0.91419 0.0
H425 H 0.03003 0.77519 0.86024 0.0
H426 H 0.04033 0.90362 0.98956 0.0
H427 H 0.06878 0.8585 0.00982 0.0
H428 H 0.00562 0.83061 0.70128 0.0
H429 H 0.98148 0.84066 0.82999 0.0
H430 H 0.97992 0.81639 0.67477 0.0
H431 H 0.95628 0.82626 0.80136 0.0
H432 H 0.01476 0.87534 0.74457 0.0
H433 H 0.03004 0.90696 0.85598 0.0
H434 H 0.01132 0.90039 0.69587 0.0
H435 H 0.02634 0.93148 0.80527 0.0
H436 H 0.95611 0.89557 0.88089 0.0
H437 H 0.96036 0.88803 0.73441 0.0
H438 H 0.052 0.85043 0.63627 0.0
H439 H 0.07149 0.89083 0.7184 0.0
Li440 Li 0.65282 0.02104 0.35453 0.0
Li441 Li 0.62772 0.03339 0.38125 0.0
Li442 Li 0.62789 0.00584 0.3372 0.0
Li443 Li 0.63421 0.03361 0.30005 0.0
C444 C 0.64592 0.00558 0.43484 0.0
N445 N 0.66542 0.99406 0.5062 0.0
C446 C 0.65492 0.01676 0.46191 0.0
C447 C 0.64677 0.98854 0.44424 0.0
C448 C 0.66475 0.01069 0.49772 0.0
C449 C 0.6567 0.98296 0.48047 0.0
C450 C 0.6465 0.06019 0.37083 0.0
C451 C 0.63426 0.08739 0.38125 0.0
N452 N 0.64576 0.09087 0.41404 0.0
C453 C 0.6582 0.06407 0.40479 0.0
C454 C 0.63445 0.072 0.35904 0.0
C455 C 0.65763 0.07963 0.42612 0.0
C456 C 0.68614 0.02996 0.37365 0.0
N457 N 0.67558 0.01686 0.3699 0.0
C458 C 0.6954 -0.00121 0.40511 0.0
C459 C 0.68031 0.00127 0.38245 0.0
C460 C 0.7057 0.0125 0.41461 0.0
C461 C 0.70126 0.02813 0.3966 0.0
H462 H 0.68244 0.04204 0.36103 0.0
H463 H 0.67192 0.99092 0.37749 0.0
C464 C 0.59897 0.04573 0.42371 0.0
N465 N 0.61581 0.04509 0.42792 0.0
C466 C 0.58951 0.05526 0.45396 0.0
C467 C 0.61483 0.06284 0.49355 0.0
C468 C 0.62375 0.05295 0.46296 0.0
C469 C 0.59752 0.06422 0.48879 0.0
H470 H 0.59285 0.03898 0.39654 0.0
H471 H 0.63702 0.05182 0.46692 0.0
C472 C 0.66052 0.00696 0.27628 0.0
N473 N 0.69122 0.99734 0.24318 0.0
C474 C 0.67134 0.0188 0.25781 0.0
C475 C 0.66521 0.99023 0.27764 0.0
C476 C 0.68685 0.01368 0.24134 0.0
C477 C 0.68081 0.98561 0.26079 0.0
C478 C 0.60028 0.0306 0.30276 0.0
C479 C 0.59224 0.01889 0.27506 0.0
C480 C 0.59505 0.0472 0.3017 0.0
C481 C 0.57943 0.02405 0.24597 0.0
C482 C 0.58221 0.05188 0.27208 0.0
N483 N 0.57474 0.04031 0.24499 0.0
C484 C 0.60966 0.97785 0.36571 0.0
C485 C 0.616 0.97876 0.28645 0.0
C486 C 0.6001 0.96353 0.35951 0.0
N487 N 0.61715 0.98522 0.3293 0.0
C488 C 0.6062 0.96473 0.27843 0.0
C489 C 0.59779 0.95705 0.31514 0.0
H490 H 0.61073 0.98337 0.39937 0.0
H491 H 0.622 0.98504 0.25812 0.0
C492 C 0.63446 0.06176 0.24033 0.0
N493 N 0.63062 0.04535 0.24431 0.0
C494 C 0.62794 0.0711 0.20419 0.0
C495 C 0.61516 0.0461 0.17449 0.0
C496 C 0.62198 0.03725 0.21109 0.0
C497 C 0.61754 0.0634 0.17179 0.0
H498 H 0.64192 0.06777 0.26626 0.0
H499 H 0.61943 0.02411 0.21471 0.0
O500 O 0.63651 0.01125 0.39897 0.0
O501 O 0.64678 0.04496 0.34951 0.0
O502 O 0.64546 0.01178 0.29339 0.0
O503 O 0.61317 0.02583 0.33065 0.0
H504 H 0.65471 0.02991 0.45448 0.0
H505 H 0.64004 0.97967 0.4234 0.0
H506 H 0.67193 0.0192 0.51856 0.0
H507 H 0.65754 0.9698 0.48798 0.0
H508 H 0.62494 0.09657 0.37243 0.0
H509 H 0.66733 0.05507 0.41575 0.0
H510 H 0.62528 0.06932 0.33315 0.0
H511 H 0.66653 0.0827 0.45262 0.0
H512 H 0.69858 0.9864 0.41686 0.0
H513 H 0.70881 0.03907 0.40256 0.0
H514 H 0.57614 0.05595 0.44949 0.0
H515 H 0.62137 0.0693 0.52071 0.0
H516 H 0.66786 0.03181 0.25665 0.0
H517 H 0.65693 0.98094 0.29194 0.0
H518 H 0.69541 0.02271 0.22717 0.0
H519 H 0.68467 0.97272 0.26181 0.0
H520 H 0.59594 0.00599 0.27563 0.0
H521 H 0.60078 0.05637 0.32357 0.0
H522 H 0.57322 0.01513 0.22408 0.0
H523 H 0.57816 0.06471 0.27069 0.0
H524 H 0.59425 0.9579 0.38909 0.0
H525 H 0.60464 0.96051 0.24349 0.0
H526 H 0.63049 0.08433 0.20262 0.0
H527 H 0.60723 0.03961 0.15037 0.0
Li528 Li 0.47397 0.65758 0.84635 0.0
Li529 Li 0.4594 0.63205 0.86736 0.0
Li530 Li 0.48852 0.63196 0.84084 0.0
Li531 Li 0.46576 0.63734 0.78778 0.0
C532 C 0.49009 0.63608 0.92848 0.0
N533 N 0.51277 0.62295 0.98982 0.0
C534 C 0.48559 0.62274 0.9566 0.0
C535 C 0.5061 0.6428 0.9317 0.0
C536 C 0.49724 0.61627 0.98738 0.0
C537 C 0.5174 0.63597 0.96286 0.0
C538 C 0.43541 0.65366 0.84234 0.0
C539 C 0.40677 0.64511 0.85061 0.0
N540 N 0.40353 0.6593 0.87439 0.0
C541 C 0.43177 0.66818 0.86676 0.0
C542 C 0.42279 0.64205 0.83403 0.0
C543 C 0.41559 0.67079 0.88269 0.0
C544 C 0.4706 0.69299 0.83642 0.0
N545 N 0.47601 0.68025 0.86328 0.0
C546 C 0.48312 0.69907 0.92331 0.0
C547 C 0.48227 0.68301 0.90581 0.0
C548 C 0.47747 0.71252 0.89683 0.0
C549 C 0.47128 0.70936 0.85257 0.0
H550 H 0.4654 0.69039 0.80299 0.0
H551 H 0.48614 0.67267 0.92686 0.0
C552 C 0.4401 0.6062 0.90654 0.0
N553 N 0.4436 0.62271 0.90834 0.0
C554 C 0.42789 0.59943 0.93501 0.0
C555 C 0.42321 0.62682 0.96673 0.0
C556 C 0.43578 0.63295 0.93846 0.0
C557 C 0.41908 0.60981 0.96535 0.0
H558 H 0.44684 0.59825 0.8832 0.0
H559 H 0.4391 0.64597 0.93991 0.0
C560 C 0.49258 0.6639 0.77503 0.0
N561 N 0.50275 0.69409 0.73946 0.0
C562 C 0.48478 0.67043 0.73617 0.0
C563 C 0.5056 0.67267 0.79571 0.0
C564 C 0.49011 0.68572 0.7187 0.0
C565 C 0.51053 0.68794 0.77725 0.0
C566 C 0.46742 0.60411 0.79435 0.0
C567 C 0.48086 0.59657 0.77212 0.0
C568 C 0.45121 0.59889 0.78448 0.0
C569 C 0.47784 0.58395 0.74025 0.0
C570 C 0.44871 0.58628 0.75227 0.0
N571 N 0.46196 0.57913 0.73104 0.0
C572 C 0.51027 0.60578 0.86429 0.0
C573 C 0.52229 0.62748 0.82021 0.0
C574 C 0.52449 0.59604 0.85874 0.0
N575 N 0.50931 0.62097 0.84403 0.0
C576 C 0.53676 0.61818 0.81383 0.0
C577 C 0.53771 0.602 0.83179 0.0
H578 H 0.49961 0.60084 0.88241 0.0
H579 H 0.52105 0.63946 0.80379 0.0
C580 C 0.44206 0.63272 0.71728 0.0
N581 N 0.45856 0.6325 0.72744 0.0
C582 C 0.43622 0.62453 0.67834 0.0
C583 C 0.46461 0.61735 0.65917 0.0
C584 C 0.4699 0.62573 0.69841 0.0
C585 C 0.44751 0.61611 0.6498 0.0
H586 H 0.43335 0.63824 0.7409 0.0
H587 H 0.48295 0.62571 0.70765 0.0
O588 O 0.47895 0.64244 0.89764 0.0
O589 O 0.45123 0.65084 0.82673 0.0
O590 O 0.48744 0.64903 0.79288 0.0
O591 O 0.4701 0.61669 0.82513 0.0
H592 H 0.47327 0.61736 0.95451 0.0
H593 H 0.50983 0.65305 0.9099 0.0
H594 H 0.49395 0.60591 0.00926 0.0
H595 H 0.52986 0.64098 0.96552 0.0
H596 H 0.39694 0.63616 0.84478 0.0
H597 H 0.44135 0.67728 0.87371 0.0
H598 H 0.4254 0.63063 0.81586 0.0
H599 H 0.41262 0.68194 0.90178 0.0
H600 H 0.48757 0.70081 0.95802 0.0
H601 H 0.46682 0.71938 0.83097 0.0
H602 H 0.4256 0.58617 0.93362 0.0
H603 H 0.41674 0.6354 0.98906 0.0
H604 H 0.47466 0.66381 0.71984 0.0
H605 H 0.51166 0.66784 0.82606 0.0
H606 H 0.48416 0.69095 0.68872 0.0
H607 H 0.52051 0.69492 0.79306 0.0
H608 H 0.49348 0.60056 0.77883 0.0
H609 H 0.44065 0.60468 0.80103 0.0
H610 H 0.48812 0.57807 0.72263 0.0
H611 H 0.43622 0.58222 0.74403 0.0
H612 H 0.52481 0.58365 0.87341 0.0
H613 H 0.54656 0.62314 0.79234 0.0
H614 H 0.42292 0.62383 0.6725 0.0
H615 H 0.47372 0.61122 0.63766 0.0
Li616 Li 0.83701 0.47369 0.34923 0.0
Li617 Li 0.86304 0.46047 0.36955 0.0
Li618 Li 0.86269 0.48799 0.33091 0.0
Li619 Li 0.85569 0.46319 0.29003 0.0
C620 C 0.84859 0.49586 0.41473 0.0
N621 N 0.83696 0.52372 0.45996 0.0
C622 C 0.85091 0.49748 0.46196 0.0
C623 C 0.84031 0.50838 0.39049 0.0
C624 C 0.84496 0.51167 0.48421 0.0
C625 C 0.83454 0.52238 0.41398 0.0
C626 C 0.84209 0.43424 0.35072 0.0
C627 C 0.85353 0.40668 0.3599 0.0
N628 N 0.83906 0.40163 0.3797 0.0
C629 C 0.8273 0.42875 0.37087 0.0
C630 C 0.85528 0.4231 0.3449 0.0
C631 C 0.82602 0.41222 0.38539 0.0
C632 C 0.80286 0.48541 0.35777 0.0
N633 N 0.81562 0.47625 0.37513 0.0
C634 C 0.8005 0.47101 0.44395 0.0
C635 C 0.8147 0.46913 0.41724 0.0
C636 C 0.78706 0.48038 0.42726 0.0
C637 C 0.78831 0.4876 0.38344 0.0
H638 H 0.80407 0.4913 0.32466 0.0
H639 H 0.82526 0.4623 0.4305 0.0
C640 C 0.8899 0.44628 0.41933 0.0
N641 N 0.87308 0.44749 0.41611 0.0
C642 C 0.89711 0.43701 0.45467 0.0
C643 C 0.86952 0.43017 0.48182 0.0
C644 C 0.86289 0.4399 0.44679 0.0
C645 C 0.88689 0.42872 0.48659 0.0
H646 H 0.8977 0.45271 0.39487 0.0
H647 H 0.84956 0.44135 0.44391 0.0
C648 C 0.82984 0.48393 0.26067 0.0
N649 N 0.80279 0.48226 0.20224 0.0
C650 C 0.82171 0.46877 0.25333 0.0
C651 C 0.82419 0.49823 0.23822 0.0
C652 C 0.80807 0.46819 0.22367 0.0
C653 C 0.81049 0.49713 0.20885 0.0
C654 C 0.88934 0.46513 0.28863 0.0
C655 C 0.89505 0.47749 0.25875 0.0
C656 C 0.89604 0.44911 0.28604 0.0
C657 C 0.90717 0.47352 0.22625 0.0
C658 C 0.90812 0.44562 0.25298 0.0
N659 N 0.91339 0.4578 0.22403 0.0
C660 C 0.88869 0.51037 0.34747 0.0
C661 C 0.86841 0.51987 0.29446 0.0
C662 C 0.8989 0.52393 0.33745 0.0
N663 N 0.87397 0.50845 0.32519 0.0
C664 C 0.87819 0.53366 0.28351 0.0
C665 C 0.89387 0.53554 0.30414 0.0
H666 H 0.89283 0.50092 0.37132 0.0
H667 H 0.85676 0.51783 0.27682 0.0
C668 C 0.85796 0.4367 0.22475 0.0
N669 N 0.85866 0.45344 0.23125 0.0
C670 C 0.86438 0.4297 0.18468 0.0
C671 C 0.87109 0.45738 0.15781 0.0
C672 C 0.86426 0.46384 0.19793 0.0
C673 C 0.87169 0.44009 0.15169 0.0
H674 H 0.85333 0.42872 0.25161 0.0
H675 H 0.8646 0.47711 0.20411 0.0
O676 O 0.85411 0.48188 0.39274 0.0
O677 O 0.84362 0.45046 0.337 0.0
O678 O 0.84321 0.48497 0.28971 0.0
O679 O 0.87734 0.46873 0.3204 0.0
H680 H 0.85722 0.48783 0.48122 0.0
H681 H 0.83825 0.5073 0.354 0.0
H682 H 0.84667 0.51309 0.52077 0.0
H683 H 0.82809 0.53216 0.39567 0.0
H684 H 0.86369 0.39796 0.35587 0.0
H685 H 0.81688 0.43714 0.37514 0.0
H686 H 0.86679 0.42714 0.32941 0.0
H687 H 0.81466 0.40782 0.40115 0.0
H688 H 0.80026 0.46555 0.47787 0.0
H689 H 0.77821 0.49489 0.36927 0.0
H690 H 0.91054 0.43666 0.45734 0.0
H691 H 0.86105 0.42384 0.50479 0.0
H692 H 0.82581 0.45752 0.2701 0.0
H693 H 0.83025 0.51009 0.24357 0.0
H694 H 0.80168 0.45654 0.21769 0.0
H695 H 0.80599 0.50811 0.19133 0.0
H696 H 0.89 0.48995 0.2601 0.0
H697 H 0.89198 0.43946 0.3093 0.0
H698 H 0.91159 0.48292 0.20267 0.0
H699 H 0.91333 0.43324 0.25038 0.0
H700 H 0.91084 0.52504 0.35443 0.0
H701 H 0.87394 0.5422 0.25728 0.0
H702 H 0.86471 0.41629 0.18102 0.0
H703 H 0.87659 0.46573 0.1329 0.0
Li704 Li 0.97156 0.37141 0.88238 0.0
Li705 Li 0.97791 0.34307 0.86373 0.0
Li706 Li 0.996 0.36476 0.83714 0.0
Li707 Li 0.96913 0.36167 0.80374 0.0
C708 C 0.00164 0.36736 0.9307 0.0
N709 N 0.02201 0.38538 0.98875 0.0
C710 C 0.0123 0.35914 0.96108 0.0
C711 C 0.00132 0.38475 0.93 0.0
C712 C 0.02252 0.36847 0.9901 0.0
C713 C 0.01171 0.39364 0.95956 0.0
C714 C 0.94524 0.34984 0.89131 0.0
C715 C 0.91729 0.34388 0.91658 0.0
N716 N 0.92317 0.3407 0.95941 0.0
C717 C 0.95101 0.34653 0.93561 0.0
C718 C 0.92826 0.34853 0.88169 0.0
C719 C 0.93966 0.34192 0.96954 0.0
C720 C 0.94792 0.39476 0.90781 0.0
N721 N 0.96048 0.38537 0.92529 0.0
C722 C 0.95393 0.3942 0.00131 0.0
C723 C 0.96359 0.38483 0.9711 0.0
C724 C 0.9407 0.40375 0.98418 0.0
C725 C 0.93771 0.40402 0.93688 0.0
H726 H 0.94556 0.39466 0.87133 0.0
H727 H 0.97323 0.37678 0.98437 0.0
C728 C 0.99032 0.31583 0.91223 0.0
N729 N 0.97697 0.32116 0.88772 0.0
C730 C 0.98966 0.30074 0.93582 0.0
C731 C 0.96176 0.29661 0.90685 0.0
C732 C 0.96296 0.31178 0.88389 0.0
C733 C 0.9751 0.29108 0.93402 0.0
H734 H 0.00129 0.32357 0.91455 0.0
H735 H 0.95249 0.3163 0.86425 0.0
C736 C 0.98421 0.39235 0.79043 0.0
N737 N 0.99402 0.41236 0.71833 0.0
C738 C 0.9913 0.38528 0.75124 0.0
C739 C 0.98209 0.40958 0.79291 0.0
C740 C 0.99619 0.39561 0.71518 0.0
C741 C 0.98713 0.41949 0.75609 0.0
C742 C 0.98298 0.33169 0.77609 0.0
C743 C 0.99478 0.32269 0.75108 0.0
C744 C 0.96633 0.32661 0.7755 0.0
C745 C 0.98973 0.3088 0.72589 0.0
C746 C 0.96177 0.31264 0.74991 0.0
N747 N 0.97347 0.3041 0.72584 0.0
C748 C 0.02728 0.36116 0.79417 0.0
C749 C 0.02322 0.38694 0.83202 0.0
C750 C 0.04202 0.36698 0.77441 0.0
N751 N 0.01807 0.37128 0.82157 0.0
C752 C 0.03804 0.39309 0.8141 0.0
C753 C 0.04736 0.38323 0.78397 0.0
H754 H 0.02272 0.3489 0.78567 0.0
H755 H 0.01534 0.3951 0.85176 0.0
C756 C 0.94521 0.3784 0.7554 0.0
N757 N 0.95654 0.36604 0.74989 0.0
C758 C 0.93667 0.38479 0.71777 0.0
C759 C 0.95101 0.36502 0.66947 0.0
C760 C 0.95962 0.35931 0.708 0.0
C761 C 0.93954 0.37818 0.67382 0.0
H762 H 0.94337 0.3838 0.78896 0.0
H763 H 0.9691 0.3499 0.70402 0.0
O764 O 0.99152 0.35831 0.9023 0.0
O765 O 0.95604 0.35455 0.85747 0.0
O766 O 0.97942 0.38255 0.82644 0.0
O767 O 0.98788 0.34522 0.8013 0.0
H768 H 0.01269 0.34569 0.96231 0.0
H769 H 0.99314 0.39136 0.90687 0.0
H770 H 0.03083 0.36226 0.01374 0.0
H771 H 0.01158 0.4071 0.95928 0.0
H772 H 0.90411 0.34282 0.90961 0.0
H773 H 0.9641 0.34751 0.94378 0.0
H774 H 0.9236 0.35111 0.84759 0.0
H775 H 0.94395 0.33932 0.00395 0.0
H776 H 0.95638 0.39355 0.03777 0.0
H777 H 0.92755 0.41123 0.92267 0.0
H778 H 0.00019 0.29702 0.95663 0.0
H779 H 0.95041 0.28941 0.90395 0.0
H780 H 0.99306 0.37197 0.74868 0.0
H781 H 0.97663 0.41522 0.82304 0.0
H782 H 0.00172 0.39031 0.68471 0.0
H783 H 0.98557 0.43285 0.75755 0.0
H784 H 0.00773 0.32637 0.75112 0.0
H785 H 0.95694 0.33341 0.79412 0.0
H786 H -0.00126 0.30174 0.7064 0.0
H787 H 0.94893 0.30862 0.74913 0.0
H788 H 0.04884 0.35916 0.75075 0.0
H789 H 0.04158 0.40585 0.82114 0.0
H790 H 0.9284 0.39523 0.72311 0.0
H791 H 0.95357 0.35935 0.63659 0.0
Li792 Li 0.13342 0.96114 0.3747 0.0
Li793 Li 0.15949 0.97232 0.3413 0.0
Li794 Li 0.13218 0.98594 0.3257 0.0
Li795 Li 0.13878 0.95929 0.29558 0.0
C796 C 0.15148 0.98517 0.42727 0.0
N797 N 0.16827 0.9889 0.50932 0.0
C798 C 0.15986 0.97166 0.44683 0.0
C799 C 0.15163 0.00056 0.44951 0.0
C800 C 0.1683 0.97381 0.48827 0.0
C801 C 0.16016 0.0022 0.491 0.0
C802 C 0.15831 0.93575 0.32177 0.0
C803 C 0.17662 0.92473 0.26374 0.0
N804 N 0.1703 0.90926 0.27125 0.0
C805 C 0.1521 0.91973 0.32917 0.0
C806 C 0.17074 0.93827 0.289 0.0
C807 C 0.15829 0.90651 0.30319 0.0
C808 C 0.11731 0.93421 0.41257 0.0
N809 N 0.12351 0.94937 0.42409 0.0
C810 C 0.1165 0.94495 0.50265 0.0
C811 C 0.12279 0.9551 0.46788 0.0
C812 C 0.11066 0.92892 0.49197 0.0
C813 C 0.11083 0.9237 0.44611 0.0
H814 H 0.1176 0.93022 0.37723 0.0
H815 H 0.12719 0.96745 0.47603 0.0
C816 C 0.18701 0.99265 0.36067 0.0
N817 N 0.18181 0.97661 0.357 0.0
C818 C 0.20156 0.99637 0.38485 0.0
C819 C 0.20536 0.96692 0.39877 0.0
C820 C 0.19086 0.96377 0.3742 0.0
C821 C 0.2105 0.98342 0.40569 0.0
H822 H 0.17923 0.0026 0.34778 0.0
H823 H 0.18615 0.95121 0.37206 0.0
C824 C 0.10257 0.97014 0.34272 0.0
N825 N 0.07182 0.97836 0.37862 0.0
C826 C 0.08802 0.96417 0.32224 0.0
C827 C 0.10147 0.9803 0.3815 0.0
C828 C 0.0726 0.96846 0.34089 0.0
C829 C 0.08581 0.98431 0.39912 0.0
C830 C 0.15373 0.98169 0.23727 0.0
C831 C 0.14075 0.98469 0.20647 0.0
C832 C 0.17001 0.98005 0.22102 0.0
C833 C 0.14425 0.98577 0.15967 0.0
C834 C 0.173 0.98122 0.17397 0.0
N835 N 0.16017 0.98401 0.14452 0.0
C836 C 0.1261 0.0208 0.33349 0.0
C837 C 0.1086 0.00583 0.28264 0.0
C838 C 0.11784 0.03565 0.323 0.0
N839 N 0.1213 0.00632 0.31334 0.0
C840 C 0.10012 0.02032 0.27094 0.0
C841 C 0.10472 0.0355 0.29115 0.0
H842 H 0.13634 0.0208 0.35752 0.0
H843 H 0.10503 0.99411 0.26729 0.0
C844 C 0.12001 0.93503 0.25805 0.0
N845 N 0.13343 0.94443 0.24673 0.0
C846 C 0.11268 0.9246 0.22592 0.0
C847 C 0.13374 0.93284 0.17131 0.0
C848 C 0.1408 0.94307 0.20492 0.0
C849 C 0.11916 0.92387 0.18136 0.0
H850 H 0.11472 0.93593 0.29198 0.0
H851 H 0.15184 0.95017 0.19709 0.0
O852 O 0.14374 0.98357 0.38572 0.0
O853 O 0.15215 0.94898 0.34593 0.0
O854 O 0.11772 0.96601 0.32449 0.0
O855 O 0.15064 0.9808 0.28323 0.0
H856 H 0.15991 0.95964 0.43014 0.0
H857 H 0.14527 0.01117 0.43478 0.0
H858 H 0.17489 0.96348 0.50365 0.0
H859 H 0.16038 0.01405 0.50855 0.0
H860 H 0.18616 0.92653 0.23807 0.0
H861 H 0.14261 0.91748 0.35466 0.0
H862 H 0.17569 0.95058 0.28289 0.0
H863 H 0.15354 0.89405 0.30843 0.0
H864 H 0.11619 0.94958 0.53748 0.0
H865 H 0.1064 0.91147 0.4364 0.0
H866 H 0.20513 0.00925 0.38987 0.0
H867 H 0.21204 0.95663 0.41419 0.0
H868 H 0.08865 0.95632 0.29214 0.0
H869 H 0.11253 0.9851 0.39791 0.0
H870 H 0.06124 0.96393 0.32535 0.0
H871 H 0.08479 0.99216 0.42909 0.0
H872 H 0.12809 0.98595 0.21847 0.0
H873 H 0.18023 0.97796 0.24453 0.0
H874 H 0.13431 0.98796 0.13538 0.0
H875 H 0.18553 0.97992 0.16086 0.0
H876 H 0.12177 0.04712 0.3392 0.0
H877 H 0.08987 0.01961 0.2469 0.0
H878 H 0.10178 0.91749 0.23558 0.0
H879 H 0.13921 0.9325 0.13742 0.0
Li880 Li 0.51776 0.15904 0.85271 0.0
Li881 Li 0.52926 0.13233 0.86627 0.0
Li882 Li 0.53035 0.14411 0.79002 0.0
Li883 Li 0.5036 0.13409 0.822 0.0
C884 C 0.55828 0.15024 0.84381 0.0
N885 N 0.59228 0.14528 0.83922 0.0
C886 C 0.56466 0.1345 0.83343 0.0
C887 C 0.5692 0.16345 0.85197 0.0
C888 C 0.58188 0.13224 0.83127 0.0
C889 C 0.58635 0.1607 0.84943 0.0
C890 C 0.50643 0.13349 0.92878 0.0
C891 C 0.49989 0.11023 0.97776 0.0
N892 N 0.50651 0.11856 0.01402 0.0
C893 C 0.51306 0.14188 0.96654 0.0
C894 C 0.4997 0.11758 0.93437 0.0
C895 C 0.51302 0.1341 0.00936 0.0
C896 C 0.4989 0.18747 0.875 0.0
N897 N 0.51375 0.17962 0.88045 0.0
C898 C 0.52228 0.19919 0.93697 0.0
C899 C 0.52548 0.18527 0.91006 0.0
C900 C 0.50684 0.2073 0.93332 0.0
C901 C 0.49519 0.20155 0.90112 0.0
H902 H 0.48975 0.18245 0.85158 0.0
H903 H 0.53708 0.17857 0.91391 0.0
C904 C 0.54062 0.10274 0.91305 0.0
N905 N 0.54145 0.11962 0.9108 0.0
C906 C 0.55072 0.09399 0.94362 0.0
C907 C 0.56196 0.12016 0.97015 0.0
C908 C 0.55159 0.12839 0.93925 0.0
C909 C 0.56178 0.10269 0.97223 0.0
H910 H 0.53221 0.09602 0.89109 0.0
H911 H 0.55185 0.14182 0.93729 0.0
C912 C 0.50954 0.17015 0.76536 0.0
N913 N 0.51175 0.19946 0.7162 0.0
C914 C 0.49618 0.17545 0.7384 0.0
C915 C 0.52405 0.17974 0.76731 0.0
C916 C 0.49754 0.19031 0.7138 0.0
C917 C 0.52492 0.19453 0.74221 0.0
C918 C 0.52604 0.10514 0.79808 0.0
C919 C 0.53942 0.10018 0.77065 0.0
C920 C 0.51472 0.09324 0.81385 0.0
C921 C 0.54135 0.08335 0.75993 0.0
C922 C 0.51709 0.07652 0.80242 0.0
N923 N 0.53025 0.07197 0.77593 0.0
C924 C 0.55778 0.14704 0.72609 0.0
C925 C 0.53212 0.13587 0.70033 0.0
C926 C 0.56585 0.14107 0.68703 0.0
N927 N 0.54142 0.1435 0.73296 0.0
C928 C 0.53959 0.12994 0.66057 0.0
C929 C 0.55687 0.13163 0.65485 0.0
H930 H 0.56487 0.15342 0.75211 0.0
H931 H 0.51912 0.13326 0.70689 0.0
C932 C 0.46928 0.12646 0.82999 0.0
N933 N 0.48335 0.12413 0.80505 0.0
C934 C 0.45447 0.11866 0.81692 0.0
C935 C 0.46906 0.10635 0.75287 0.0
C936 C 0.48343 0.11463 0.76662 0.0
C937 C 0.45427 0.10822 0.77818 0.0
H938 H 0.4696 0.13431 0.8601 0.0
H939 H 0.4948 0.11321 0.74718 0.0
O940 O 0.54147 0.15281 0.84668 0.0
O941 O 0.50681 0.14069 0.88638 0.0
O942 O 0.50832 0.15564 0.78968 0.0
O943 O 0.52368 0.12164 0.80783 0.0
H944 H 0.55645 0.12413 0.82725 0.0
H945 H 0.56446 0.17571 0.86015 0.0
H946 H 0.58697 0.12013 0.82327 0.0
H947 H 0.59494 0.17082 0.85562 0.0
H948 H 0.49481 0.09788 0.98258 0.0
H949 H 0.51836 0.15418 0.96269 0.0
H950 H 0.49449 0.11096 0.90545 0.0
H951 H 0.51822 0.14039 0.03884 0.0
H952 H 0.53166 0.20342 0.96096 0.0
H953 H 0.48314 0.20745 0.89754 0.0
H954 H 0.54987 0.08054 0.94485 0.0
H955 H 0.57033 0.1274 0.99132 0.0
H956 H 0.48487 0.16815 0.73657 0.0
H957 H 0.53453 0.17587 0.78792 0.0
H958 H 0.48728 0.19457 0.6928 0.0
H959 H 0.53606 0.20208 0.74341 0.0
H960 H 0.5482 0.10922 0.75759 0.0
H961 H 0.50426 0.09685 0.83492 0.0
H962 H 0.55165 0.07935 0.73877 0.0
H963 H 0.50846 0.06718 0.81457 0.0
H964 H 0.57918 0.14274 0.68397 0.0
H965 H 0.5321 0.12315 0.63602 0.0
H966 H 0.44336 0.12075 0.83709 0.0
H967 H 0.46974 0.0982 0.7234 0.0
Li968 Li 0.33925 0.52049 0.34236 0.0
Li969 Li 0.3675 0.53042 0.36179 0.0
Li970 Li 0.35661 0.53377 0.2871 0.0
Li971 Li 0.36434 0.50653 0.31084 0.0
C972 C 0.33921 0.55694 0.32723 0.0
N973 N 0.32265 0.58394 0.29022 0.0
C974 C 0.34551 0.57302 0.33313 0.0
C975 C 0.32441 0.55463 0.30286 0.0
C976 C 0.33697 0.5865 0.31406 0.0
C977 C 0.31624 0.56843 0.28433 0.0
C978 C 0.35297 0.50688 0.42183 0.0
C979 C 0.34859 0.49026 0.48961 0.0
N980 N 0.34333 0.50405 0.5124 0.0
C981 C 0.34754 0.5209 0.44596 0.0
C982 C 0.35351 0.49144 0.4438 0.0
C983 C 0.34272 0.51921 0.4917 0.0
C984 C 0.30945 0.50276 0.36091 0.0
N985 N 0.3178 0.51728 0.3673 0.0
C986 C 0.29668 0.52733 0.41756 0.0
C987 C 0.31169 0.52953 0.39457 0.0
C988 C 0.28786 0.51237 0.41235 0.0
C989 C 0.29427 0.50005 0.38309 0.0
H990 H 0.31476 0.49318 0.33935 0.0
H991 H 0.31866 0.54091 0.39927 0.0
C992 C 0.38559 0.55713 0.38944 0.0
N993 N 0.38113 0.5418 0.40466 0.0
C994 C 0.39423 0.56801 0.41785 0.0
C995 C 0.39465 0.54669 0.47635 0.0
C996 C 0.38586 0.53619 0.44669 0.0
C997 C 0.39853 0.56297 0.46228 0.0
H998 H 0.38213 0.56099 0.35531 0.0
H999 H 0.38255 0.52377 0.45758 0.0
C1000 C 0.33699 0.51325 0.23599 0.0
N1001 N 0.32387 0.51372 0.14847 0.0
C1002 C 0.34742 0.5113 0.19806 0.0
C1003 C 0.31987 0.51525 0.22947 0.0
C1004 C 0.34055 0.51163 0.15407 0.0
C1005 C 0.31348 0.51551 0.18494 0.0
C1006 C 0.39507 0.52121 0.31252 0.0
C1007 C 0.40796 0.52669 0.28414 0.0
C1008 C 0.39868 0.51077 0.3496 0.0
C1009 C 0.42427 0.52165 0.29331 0.0
C1010 C 0.41515 0.50601 0.35762 0.0
N1011 N 0.42749 0.5115 0.32955 0.0
C1012 C 0.37305 0.55836 0.24451 0.0
C1013 C 0.34833 0.55275 0.20295 0.0
C1014 C 0.37792 0.57015 0.21251 0.0
N1015 N 0.35871 0.54965 0.23885 0.0
C1016 C 0.35286 0.5644 0.16944 0.0
C1017 C 0.36795 0.57312 0.17395 0.0
H1018 H 0.38091 0.55593 0.27375 0.0
H1019 H 0.33669 0.54612 0.19989 0.0
C1020 C 0.37198 0.47185 0.31453 0.0
N1021 N 0.37398 0.4863 0.29098 0.0
C1022 C 0.38015 0.4574 0.30004 0.0
C1023 C 0.39184 0.47301 0.2369 0.0
C1024 C 0.38359 0.48711 0.25275 0.0
C1025 C 0.39031 0.45794 0.26086 0.0
H1026 H 0.36428 0.47161 0.3449 0.0
H1027 H 0.38519 0.49885 0.23521 0.0
O1028 O 0.34758 0.54347 0.34445 0.0
O1029 O 0.35744 0.50811 0.3767 0.0
O1030 O 0.3434 0.51274 0.27936 0.0
O1031 O 0.37904 0.52601 0.30351 0.0
H1032 H 0.35682 0.57513 0.35226 0.0
H1033 H 0.31936 0.5423 0.29796 0.0
H1034 H 0.34174 0.599 0.31824 0.0
H1035 H 0.30483 0.56679 0.26517 0.0
H1036 H 0.34893 0.47838 0.50702 0.0
H1037 H 0.3471 0.53297 0.42968 0.0
H1038 H 0.35764 0.48045 0.42561 0.0
H1039 H 0.33849 0.52995 0.51074 0.0
H1040 H 0.29204 0.53722 0.43926 0.0
H1041 H 0.28783 0.48833 0.37838 0.0
H1042 H 0.39735 0.58032 0.40535 0.0
H1043 H 0.39784 0.54234 0.51037 0.0
H1044 H 0.36068 0.5098 0.20247 0.0
H1045 H 0.31159 0.51651 0.25851 0.0
H1046 H 0.34849 0.51027 0.12438 0.0
H1047 H 0.30027 0.5171 0.17936 0.0
H1048 H 0.40537 0.53473 0.25521 0.0
H1049 H 0.38894 0.50634 0.37197 0.0
H1050 H 0.43436 0.52579 0.27158 0.0
H1051 H 0.41811 0.49794 0.38615 0.0
H1052 H 0.38975 0.5764 0.2171 0.0
H1053 H 0.34478 0.56648 0.14029 0.0
H1054 H 0.37866 0.446 0.31941 0.0
H1055 H 0.39983 0.47406 0.20715 0.0
Li1056 Li 0.96401 0.1368 0.20583 0.0
Li1057 Li 0.99055 0.12894 0.16644 0.0
Li1058 Li 0.97391 0.15345 0.14191 0.0
Li1059 Li 0.96368 0.12601 0.12884 0.0
C1060 C 0.9905 0.15896 0.23723 0.0
N1061 N 0.00152 0.17791 0.31024 0.0
C1062 C 0.00138 0.15212 0.26955 0.0
C1063 C 0.98549 0.17555 0.24158 0.0
C1064 C 0.00672 0.16187 0.30636 0.0
C1065 C 0.99113 0.1849 0.27885 0.0
C1066 C 0.96811 0.09863 0.17587 0.0
C1067 C 0.97445 0.07275 0.13792 0.0
N1068 N 0.96005 0.06615 0.15435 0.0
C1069 C 0.95341 0.09159 0.19253 0.0
C1070 C 0.97876 0.08916 0.14845 0.0
C1071 C 0.94954 0.07514 0.18121 0.0
C1072 C 0.93636 0.12988 0.25785 0.0
N1073 N 0.95254 0.13456 0.26197 0.0
C1074 C 0.95256 0.12756 0.3415 0.0
C1075 C 0.96062 0.13393 0.30289 0.0
C1076 C 0.93625 0.12149 0.33724 0.0
C1077 C 0.92792 0.12328 0.2953 0.0
H1078 H 0.93044 0.13005 0.22457 0.0
H1079 H 0.97363 0.13716 0.30491 0.0
C1080 C 0.02459 0.12065 0.14831 0.0
N1081 N 0.0115 0.11923 0.17753 0.0
C1082 C 0.03938 0.11205 0.15724 0.0
C1083 C 0.0269 0.10112 0.22643 0.0
C1084 C 0.0124 0.10981 0.21606 0.0
C1085 C 0.04059 0.10202 0.19663 0.0
H1086 H 0.02342 0.12818 0.11776 0.0
H1087 H 0.00167 0.1088 0.23827 0.0
C1088 C 0.9397 0.15721 0.16225 0.0
N1089 N 0.91687 0.18204 0.1805 0.0
C1090 C 0.92572 0.15918 0.13424 0.0
C1091 C 0.94195 0.1677 0.19986 0.0
C1092 C 0.91436 0.17186 0.14392 0.0
C1093 C 0.9303 0.18022 0.20845 0.0
C1094 C 0.9828 0.13999 0.05774 0.0
C1095 C 0.96725 0.14459 0.04026 0.0
C1096 C 0.99668 0.13997 0.02893 0.0
C1097 C 0.96587 0.1491 0.99419 0.0
C1098 C 0.99479 0.14456 0.98303 0.0
N1099 N 0.97955 0.14899 0.96676 0.0
C1100 C 0.9905 0.1834 0.12085 0.0
C1101 C 0.96321 0.18121 0.09052 0.0
C1102 C 0.99278 0.1987 0.09892 0.0
N1103 N 0.97589 0.17503 0.11622 0.0
C1104 C 0.96495 0.19638 0.06797 0.0
C1105 C 0.97991 0.20531 0.07181 0.0
H1106 H 0.00046 0.17805 0.14098 0.0
H1107 H 0.95193 0.17413 0.08614 0.0
C1108 C 0.93426 0.11087 0.10092 0.0
N1109 N 0.95063 0.11233 0.08991 0.0
C1110 C 0.92352 0.10188 0.0727 0.0
C1111 C 0.94675 0.09596 0.02255 0.0
C1112 C 0.9571 0.10485 0.05216 0.0
C1113 C 0.9297 0.09457 0.03254 0.0
H1114 H 0.92952 0.11693 0.13133 0.0
H1115 H 0.97022 0.10608 0.04457 0.0
O1116 O 0.98537 0.14967 0.20054 0.0
O1117 O 0.9719 0.11484 0.18548 0.0
O1118 O 0.95092 0.14485 0.15299 0.0
O1119 O 0.98453 0.13562 0.10282 0.0
H1120 H 0.00554 0.13938 0.26648 0.0
H1121 H 0.97745 0.18123 0.21628 0.0
H1122 H 0.01503 0.15668 0.33182 0.0
H1123 H 0.98729 0.19773 0.2827 0.0
H1124 H 0.98253 0.06529 0.11654 0.0
H1125 H 0.945 0.09877 0.21365 0.0
H1126 H 0.99013 0.09449 0.13499 0.0
H1127 H 0.93817 0.06954 0.19369 0.0
H1128 H 0.95941 0.12613 0.37323 0.0
H1129 H 0.91534 0.11867 0.29087 0.0
H1130 H 0.04967 0.11307 0.13345 0.0
H1131 H 0.02715 0.09327 0.25661 0.0
H1132 H 0.92377 0.15106 0.10512 0.0
H1133 H 0.95244 0.16607 0.2225 0.0
H1134 H 0.90354 0.1736 0.12236 0.0
H1135 H 0.93191 0.18845 0.23745 0.0
H1136 H 0.95636 0.14469 0.06197 0.0
H1137 H 0.00881 0.13646 0.04192 0.0
H1138 H 0.95392 0.15269 0.98026 0.0
H1139 H 0.00543 0.14461 0.96035 0.0
H1140 H 0.00448 0.20523 0.10299 0.0
H1141 H 0.95485 0.2008 0.0466 0.0
H1142 H 0.91042 0.10114 0.08132 0.0
H1143 H 0.95196 0.09034 0.99203 0.0
Li1144 Li 0.36278 0.99248 0.65061 0.0
Li1145 Li 0.35793 0.9664 0.68895 0.0
Li1146 Li 0.3612 0.96734 0.60568 0.0
Li1147 Li 0.3356 0.97784 0.64241 0.0
C1148 C 0.39297 0.97944 0.66012 0.0
N1149 N 0.42377 0.99373 0.67538 0.0
C1150 C 0.40035 0.97851 0.70345 0.0
C1151 C 0.40133 0.98751 0.62447 0.0
C1152 C 0.41592 0.98583 0.71048 0.0
C1153 C 0.41687 0.9947 0.6329 0.0
C1154 C 0.33708 0.98901 0.73823 0.0
C1155 C 0.31422 0.98076 0.78673 0.0
N1156 N 0.31943 0.99175 0.81915 0.0
C1157 C 0.34212 0.00034 0.77183 0.0
C1158 C 0.32294 0.97925 0.74555 0.0
C1159 C 0.33307 0.00149 0.81258 0.0
C1160 C 0.37352 0.02547 0.62679 0.0
N1161 N 0.37311 0.01336 0.65927 0.0
C1162 C 0.38912 0.02995 0.71061 0.0
C1163 C 0.38038 0.01546 0.70082 0.0
C1164 C 0.39004 0.04272 0.67774 0.0
C1165 C 0.38193 0.0404 0.63543 0.0
H1166 H 0.36741 0.02352 0.59421 0.0
H1167 H 0.3797 0.00564 0.72607 0.0
C1168 C 0.37555 0.94107 0.72838 0.0
N1169 N 0.36499 0.95356 0.74013 0.0
C1170 C 0.38401 0.93215 0.76192 0.0
C1171 C 0.37064 0.94907 0.81958 0.0
C1172 C 0.36217 0.95752 0.78476 0.0
C1173 C 0.38204 0.93644 0.80823 0.0
H1174 H 0.37805 0.93859 0.69266 0.0
H1175 H 0.35406 0.96771 0.79349 0.0
C1176 C 0.34933 0.98969 0.54766 0.0
N1177 N 0.34906 0.9905 0.45301 0.0
C1178 C 0.33506 0.98492 0.52356 0.0
C1179 C 0.36341 0.995 0.52365 0.0
C1180 C 0.33519 0.9854 0.47571 0.0
C1181 C 0.36305 0.99527 0.4758 0.0
C1182 C 0.34341 0.93868 0.65587 0.0
C1183 C 0.35337 0.92648 0.63548 0.0
C1184 C 0.33274 0.93424 0.69169 0.0
C1185 C 0.35264 0.91012 0.65162 0.0
C1186 C 0.33238 0.91775 0.70689 0.0
N1187 N 0.34225 0.90614 0.68672 0.0
C1188 C 0.38598 0.9515 0.5538 0.0
C1189 C 0.35866 0.94863 0.52406 0.0
C1190 C 0.39217 0.94059 0.52085 0.0
N1191 N 0.36949 0.9552 0.55496 0.0
C1192 C 0.36434 0.93774 0.49025 0.0
C1193 C 0.38125 0.93338 0.48896 0.0
H1194 H 0.39424 0.95651 0.57953 0.0
H1195 H 0.34551 0.95128 0.5269 0.0
C1196 C 0.30693 0.99594 0.62038 0.0
N1197 N 0.31273 0.98059 0.63166 0.0
C1198 C 0.29095 -0.00228 0.60225 0.0
C1199 C 0.287 0.96801 0.61048 0.0
C1200 C 0.30308 0.96679 0.62807 0.0
C1201 C 0.28098 0.98355 0.59593 0.0
H1202 H 0.31509 0.00661 0.62289 0.0
H1203 H 0.3082 0.95472 0.63637 0.0
O1204 O 0.3776 0.9726 0.65271 0.0
O1205 O 0.34581 0.98776 0.69815 0.0
O1206 O 0.34952 0.98917 0.59451 0.0
O1207 O 0.34404 0.95482 0.64073 0.0
H1208 H 0.39406 0.97241 0.73156 0.0
H1209 H 0.39583 0.9883 0.59073 0.0
H1210 H 0.42172 0.9853 0.7439 0.0
H1211 H 0.42342 0.00107 0.60568 0.0
H1212 H 0.30328 0.97324 0.79287 0.0
H1213 H 0.35292 0.00813 0.7666 0.0
H1214 H 0.31867 0.97068 0.71966 0.0
H1215 H 0.33688 0.01014 0.83897 0.0
H1216 H 0.39545 0.03087 0.74325 0.0
H1217 H 0.3821 0.04995 0.60926 0.0
H1218 H 0.39242 0.92233 0.75145 0.0
H1219 H 0.36888 0.95299 0.85473 0.0
H1220 H 0.32407 0.9807 0.5415 0.0
H1221 H 0.37451 -0.00118 0.54175 0.0
H1222 H 0.32427 0.98166 0.45661 0.0
H1223 H 0.37388 -0.00071 0.45677 0.0
H1224 H 0.36177 0.92957 0.6079 0.0
H1225 H 0.32486 0.94339 0.70783 0.0
H1226 H 0.36037 0.9006 0.6363 0.0
H1227 H 0.32423 0.9142 0.73473 0.0
H1228 H 0.40533 0.93762 0.52073 0.0
H1229 H 0.3555 0.93226 0.46663 0.0
H1230 H 0.28671 0.00991 0.59154 0.0
H1231 H 0.27982 0.95675 0.60549 0.0
Li1232 Li 0.50784 0.35984 0.18152 0.0
Li1233 Li 0.53401 0.35155 0.21239 0.0
Li1234 Li 0.53237 0.35666 0.13277 0.0
Li1235 Li 0.51941 0.33164 0.16718 0.0
C1236 C 0.52558 0.38817 0.1636 0.0
N1237 N 0.51958 0.41921 0.12615 0.0
C1238 C 0.53279 0.40236 0.18297 0.0
C1239 C 0.51526 0.3898 0.12523 0.0
C1240 C 0.52962 0.41793 0.16353 0.0
C1241 C 0.5124 0.40559 0.10679 0.0
C1242 C 0.5105 0.33761 0.27022 0.0
C1243 C 0.50978 0.31732 0.3311 0.0
N1244 N 0.50746 0.32978 0.362 0.0
C1245 C 0.50796 0.3502 0.3025 0.0
C1246 C 0.51129 0.32102 0.2845 0.0
C1247 C 0.50651 0.34599 0.34878 0.0
C1248 C 0.47349 0.36899 0.17472 0.0
N1249 N 0.48844 0.37221 0.19469 0.0
C1250 C 0.47646 0.39347 0.24117 0.0
C1251 C 0.49018 0.38424 0.22701 0.0
C1252 C 0.4608 0.39036 0.22169 0.0
C1253 C 0.45939 0.37807 0.18764 0.0
H1254 H 0.47251 0.35927 0.1492 0.0
H1255 H 0.50225 0.38658 0.24205 0.0
C1256 C 0.55846 0.36966 0.25201 0.0
N1257 N 0.54878 0.35627 0.26188 0.0
C1258 C 0.5682 0.37695 0.2858 0.0
C1259 C 0.55922 0.35555 0.33858 0.0
C1260 C 0.54943 0.34874 0.30366 0.0
C1261 C 0.56822 0.37017 0.32997 0.0
H1262 H 0.5581 0.3751 0.21816 0.0
H1263 H 0.54203 0.33781 0.31047 0.0
C1264 C 0.50806 0.34048 0.07955 0.0
N1265 N 0.50518 0.32499 0.9954 0.0
C1266 C 0.52104 0.33056 0.06294 0.0
C1267 C 0.49365 0.34253 0.05334 0.0
C1268 C 0.51933 0.32282 0.02034 0.0
C1269 C 0.49244 0.3346 0.01086 0.0
C1270 C 0.55698 0.33082 0.18408 0.0
C1271 C 0.57295 0.33375 0.16686 0.0
C1272 C 0.55503 0.32096 0.22317 0.0
C1273 C 0.58672 0.32709 0.18969 0.0
C1274 C 0.5691 0.31452 0.24506 0.0
N1275 N 0.58452 0.31772 0.22804 0.0
C1276 C 0.5606 0.37002 0.09532 0.0
C1277 C 0.53869 0.36886 0.04092 0.0
C1278 C 0.57134 0.37683 0.0629 0.0
N1279 N 0.54477 0.36587 0.08366 0.0
C1280 C 0.54894 0.37598 0.00751 0.0
C1281 C 0.56553 0.37985 0.01841 0.0
H1282 H 0.56481 0.36817 0.13012 0.0
H1283 H 0.5259 0.36589 0.03285 0.0
C1284 C 0.49781 0.30607 0.14046 0.0
N1285 N 0.51354 0.30935 0.15508 0.0
C1286 C 0.49389 0.29043 0.12264 0.0
C1287 C 0.52211 0.28162 0.13844 0.0
C1288 C 0.52555 0.29747 0.15512 0.0
C1289 C 0.50626 0.27812 0.12069 0.0
H1290 H 0.48859 0.31588 0.14028 0.0
H1291 H 0.53805 0.3005 0.16563 0.0
O1292 O 0.52866 0.37286 0.18244 0.0
O1293 O 0.51176 0.34141 0.2247 0.0
O1294 O 0.50922 0.34791 0.12162 0.0
O1295 O 0.54331 0.33729 0.16235 0.0
H1296 H 0.54074 0.40135 0.2128 0.0
H1297 H 0.50949 0.37906 0.10973 0.0
H1298 H 0.53513 0.429 0.17818 0.0
H1299 H 0.50447 0.40702 0.07709 0.0
H1300 H 0.51044 0.30455 0.34269 0.0
H1301 H 0.50734 0.36308 0.29206 0.0
H1302 H 0.51305 0.31112 0.25984 0.0
H1303 H 0.50468 0.35561 0.3742 0.0
H1304 H 0.47814 0.40306 0.26684 0.0
H1305 H 0.4475 0.37533 0.17186 0.0
H1306 H 0.57521 0.38812 0.27796 0.0
H1307 H 0.55907 0.35 0.37241 0.0
H1308 H 0.53228 0.32879 0.08266 0.0
H1309 H 0.48349 0.35013 0.06578 0.0
H1310 H 0.52924 0.31509 0.00713 0.0
H1311 H 0.48134 0.33607 0.99023 0.0
H1312 H 0.57474 0.34088 0.13587 0.0
H1313 H 0.54277 0.31841 0.23667 0.0
H1314 H 0.59914 0.3293 0.17679 0.0
H1315 H 0.56774 0.307 0.27558 0.0
H1316 H 0.58394 0.38003 0.07273 0.0
H1317 H 0.54404 0.37833 0.97354 0.0
H1318 H 0.48155 0.28815 0.10902 0.0
H1319 H 0.53207 0.27255 0.13662 0.0
Li1320 Li 0.13637 0.52925 0.69369 0.0
Li1321 Li 0.12944 0.50278 0.65458 0.0
Li1322 Li 0.15457 0.5196 0.6341 0.0
Li1323 Li 0.12726 0.52939 0.6142 0.0
C1324 C 0.1539 0.50689 0.73768 0.0
N1325 N 0.16215 0.50492 0.82946 0.0
C1326 C 0.14505 0.49628 0.76683 0.0
C1327 C 0.16699 0.51642 0.75516 0.0
C1328 C 0.14941 0.49548 0.81314 0.0
C1329 C 0.17095 0.51528 0.80167 0.0
C1330 C 0.09961 0.52947 0.66368 0.0
C1331 C 0.07303 0.53198 0.62562 0.0
N1332 N 0.06985 0.54607 0.64986 0.0
C1333 C 0.09602 0.54396 0.68831 0.0
C1334 C 0.08797 0.5234 0.63219 0.0
C1335 C 0.08093 0.55217 0.68083 0.0
C1336 C 0.13838 0.55723 0.7513 0.0
N1337 N 0.13386 0.54095 0.74954 0.0
C1338 C 0.11908 0.54335 0.82016 0.0
C1339 C 0.12467 0.53381 0.78335 0.0
C1340 C 0.1227 0.56044 0.82147 0.0
C1341 C 0.1329 0.56728 0.78725 0.0
H1342 H 0.14525 0.5627 0.72326 0.0
H1343 H 0.12066 0.52103 0.78002 0.0
C1344 C 0.13227 0.46859 0.67404 0.0
N1345 N 0.12125 0.48106 0.66542 0.0
C1346 C 0.12658 0.45301 0.68847 0.0
C1347 C 0.09833 0.46321 0.68208 0.0
C1348 C 0.10456 0.47868 0.66906 0.0
C1349 C 0.10942 0.45031 0.69279 0.0
H1350 H 0.14549 0.47099 0.67167 0.0
H1351 H 0.09612 0.48892 0.66315 0.0
C1352 C 0.15798 0.55219 0.62789 0.0
N1353 N 0.18398 0.57174 0.59712 0.0
C1354 C 0.15746 0.55915 0.584 0.0
C1355 C 0.17165 0.55529 0.65627 0.0
C1356 C 0.17074 0.56898 0.56906 0.0
C1357 C 0.18469 0.56517 0.64004 0.0
C1358 C 0.13163 0.50235 0.55289 0.0
C1359 C 0.14045 0.50366 0.51173 0.0
C1360 C 0.11617 0.49438 0.55322 0.0
C1361 C 0.13354 0.49718 0.47157 0.0
C1362 C 0.10968 0.48805 0.51237 0.0
N1363 N 0.11842 0.48959 0.4727 0.0
C1364 C 0.18919 0.51128 0.63695 0.0
C1365 C 0.17912 0.52342 0.56827 0.0
C1366 C 0.20511 0.50974 0.61805 0.0
N1367 N 0.17664 0.51803 0.61182 0.0
C1368 C 0.19472 0.52205 0.548 0.0
C1369 C 0.20793 0.51503 0.57281 0.0
H1370 H 0.1868 0.50689 0.67134 0.0
H1371 H 0.16891 0.52877 0.5492 0.0
C1372 C 0.11231 0.5588 0.59047 0.0
N1373 N 0.11504 0.54332 0.57318 0.0
C1374 C 0.10388 0.57074 0.56482 0.0
C1375 C 0.10143 0.55076 0.5033 0.0
C1376 C 0.10973 0.53909 0.53049 0.0
C1377 C 0.09847 0.56681 0.5205 0.0
H1378 H 0.11688 0.56192 0.62426 0.0
H1379 H 0.11198 0.52679 0.51719 0.0
O1380 O 0.1497 0.50802 0.69236 0.0
O1381 O 0.11451 0.52144 0.6698 0.0
O1382 O 0.14522 0.54234 0.64295 0.0
O1383 O 0.13826 0.50855 0.59262 0.0
H1384 H 0.13478 0.48893 0.75407 0.0
H1385 H 0.17397 0.52468 0.73309 0.0
H1386 H 0.14261 0.4874 0.83613 0.0
H1387 H 0.18101 0.52264 0.81568 0.0
H1388 H 0.06399 0.52746 0.60112 0.0
H1389 H 0.10483 0.54902 0.71249 0.0
H1390 H 0.09048 0.51232 0.61249 0.0
H1391 H 0.07806 0.56344 0.6995 0.0
H1392 H 0.11098 0.5377 0.84541 0.0
H1393 H 0.13594 0.58041 0.78716 0.0
H1394 H 0.13542 0.44332 0.6971 0.0
H1395 H 0.08502 0.46157 0.68597 0.0
H1396 H 0.14705 0.55681 0.56142 0.0
H1397 H 0.17222 0.55007 0.69037 0.0
H1398 H 0.17056 0.57436 0.53507 0.0
H1399 H 0.19539 0.5676 0.66155 0.0
H1400 H 0.1525 0.50958 0.51064 0.0
H1401 H 0.10922 0.49313 0.58454 0.0
H1402 H 0.14021 0.49817 0.4395 0.0
H1403 H 0.09769 0.48193 0.51222 0.0
H1404 H 0.21498 0.50418 0.63816 0.0
H1405 H 0.19646 0.52656 0.51334 0.0
H1406 H 0.102 0.58305 0.57902 0.0
H1407 H 0.09735 0.54728 0.46925 0.0
H1408 H 0.00779 0.70947 0.97995 0.0
H1409 H -0.00142 0.73861 0.10136 0.0
H1410 H 0.99692 0.76395 0.05486 0.0
H1411 H -0.00053 0.77784 0.98029 0.0
H1412 H 0.01023 0.74896 0.8594 0.0
H1413 H 0.00987 0.72334 0.90505 0.0
C1414 C 0.00518 0.72136 0.99604 0.0
C1415 C 0.00319 0.72225 0.04383 0.0
C1416 C 0.00461 0.73584 0.96926 0.0
C1417 C 0.00016 0.73771 0.06458 0.0
C1418 C -0.00079 0.75214 0.03805 0.0
C1419 C 0.00148 0.76589 0.9639 0.0
C1420 C 0.00472 0.76518 0.91661 0.0
C1421 C 0.00159 0.75136 0.99046 0.0
C1422 C 0.0077 0.74972 0.8958 0.0
C1423 C 0.00748 0.73513 0.92185 0.0
H1424 H 0.7357 0.02836 0.40998 0.0
H1425 H 0.70786 0.99326 0.49179 0.0
H1426 H 0.7304 0.99224 0.54756 0.0
H1427 H 0.75749 0.00237 0.57533 0.0
H1428 H 0.78458 0.03848 0.49524 0.0
H1429 H 0.7626 0.03849 0.43759 0.0
C1430 C 0.73449 0.02054 0.44009 0.0
C1431 C 0.72008 0.01088 0.44639 0.0
C1432 C 0.74726 0.0204 0.47287 0.0
C1433 C 0.71892 0.0006 0.48536 0.0
C1434 C 0.73173 0.00014 0.51768 0.0
C1435 C 0.75856 0.0102 0.54518 0.0
C1436 C 0.77253 0.02054 0.53981 0.0
C1437 C 0.74587 0.01014 0.51207 0.0
C1438 C 0.77377 0.03067 0.50065 0.0
C1439 C 0.76129 0.03057 0.46744 0.0
H1440 H 0.46058 0.78113 0.98977 0.0
H1441 H 0.5079 0.77168 0.05482 0.0
H1442 H 0.51164 0.7468 0.0078 0.0
H1443 H 0.50082 0.7271 0.95108 0.0
H1444 H 0.45286 0.73588 0.88881 0.0
H1445 H 0.45037 0.7621 0.93037 0.0
C1446 C 0.47182 0.77375 0.99318 0.0
C1447 C 0.4839 0.77817 0.02588 0.0
C1448 C 0.47384 0.75945 0.96627 0.0
C1449 C 0.49831 0.76838 0.03036 0.0
C1450 C 0.50049 0.75423 0.00332 0.0
C1451 C 0.48982 0.73475 0.94657 0.0
C1452 C 0.47699 0.72944 0.91715 0.0
C1453 C 0.48822 0.74952 0.97168 0.0
C1454 C 0.463 0.73971 0.91086 0.0
C1455 C 0.46148 0.75463 0.93502 0.0
H1456 H 0.72497 0.50216 0.54568 0.0
H1457 H 0.72741 0.45038 0.58499 0.0
H1458 H 0.75177 0.44651 0.53654 0.0
H1459 H 0.77156 0.45738 0.48035 0.0
H1460 H 0.76904 0.50896 0.43962 0.0
H1461 H 0.74504 0.51314 0.4898 0.0
C1462 C 0.7308 0.49001 0.54358 0.0
C1463 C 0.72435 0.47662 0.56916 0.0
C1464 C 0.74459 0.48774 0.51473 0.0
C1465 C 0.73225 0.46102 0.56648 0.0
C1466 C 0.74608 0.45872 0.5383 0.0
C1467 C 0.76586 0.46958 0.48272 0.0
C1468 C 0.77209 0.48283 0.45626 0.0
C1469 C 0.75224 0.47194 0.51196 0.0
C1470 C 0.76435 0.49849 0.45912 0.0
C1471 C 0.75073 0.50093 0.48813 0.0
H1472 H -0.00153 0.26699 0.94774 0.0
H1473 H 0.94824 0.2809 0.98371 0.0
H1474 H 0.94551 0.25587 0.03038 0.0
H1475 H 0.95734 0.23014 0.06114 0.0
H1476 H 0.00744 0.21593 0.02493 0.0
H1477 H 0.01047 0.2413 0.97952 0.0
C1478 C 0.98698 0.2646 0.96607 0.0
C1479 C 0.97355 0.27574 0.96196 0.0
C1480 C 0.98552 0.25024 0.99319 0.0
C1481 C 0.95867 0.27237 0.98556 0.0
C1482 C 0.95713 0.25814 0.01258 0.0
C1483 C 0.9689 0.23254 0.0431 0.0
C1484 C 0.98212 0.22113 0.04634 0.0
C1485 C 0.97046 0.24698 0.01653 0.0
C1486 C 0.99713 0.22459 0.02347 0.0
C1487 C -0.00117 0.23903 0.99718 0.0
H1488 H 0.27557 0.00029 0.5166 0.0
H1489 H 0.25137 0.96847 0.61539 0.0
H1490 H 0.22699 0.96635 0.56561 0.0
H1491 H 0.21358 0.97177 0.49172 0.0
H1492 H 0.23767 0.00335 0.39239 0.0
H1493 H 0.26106 0.00763 0.44513 0.0
C1494 C 0.2648 0.99323 0.52772 0.0
C1495 C 0.26527 0.98448 0.56949 0.0
C1496 C 0.25094 0.9919 0.49869 0.0
C1497 C 0.25133 0.97516 0.58316 0.0
C1498 C 0.23743 0.97394 0.55474 0.0
C1499 C 0.22399 0.97957 0.48169 0.0
C1500 C 0.22416 0.98698 0.43809 0.0
C1501 C 0.2373 0.9819 0.51198 0.0
C1502 C 0.23741 -0.00256 0.42576 0.0
C1503 C 0.25075 -0.00015 0.45582 0.0
H1504 H 0.5118 0.20868 0.02476 0.0
H1505 H 0.49279 0.23721 0.91099 0.0
H1506 H 0.48867 0.26124 0.9613 0.0
H1507 H 0.4935 0.2749 0.03552 0.0
H1508 H 0.5137 0.24659 0.14815 0.0
H1509 H 0.5143 0.22158 0.10042 0.0
C1510 C 0.50674 0.22017 0.01105 0.0
C1511 C 0.50287 0.22133 0.9642 0.0
C1512 C 0.50465 0.23391 0.03992 0.0
C1513 C 0.4959 0.23609 0.94697 0.0
C1514 C 0.49361 0.24981 0.97566 0.0
C1515 C 0.4976 0.26314 0.04989 0.0
C1516 C 0.50358 0.26251 0.09512 0.0
C1517 C 0.49831 0.24897 0.02192 0.0
C1518 C 0.50912 0.2473 0.11327 0.0
C1519 C 0.50952 0.23306 0.086 0.0
H1520 H 0.28188 0.51885 0.50194 0.0
H1521 H 0.25855 0.50012 0.37917 0.0
H1522 H 0.23188 0.49818 0.41926 0.0
H1523 H 0.21491 0.50361 0.4876 0.0
H1524 H 0.23812 0.52293 0.60984 0.0
H1525 H 0.26522 0.52272 0.57166 0.0
C1526 C 0.27093 0.51434 0.48402 0.0
C1527 C 0.27209 0.50982 0.43757 0.0
C1528 C 0.25567 0.5134 0.50712 0.0
C1529 C 0.25795 0.50364 0.41496 0.0
C1530 C 0.2427 0.50261 0.43777 0.0
C1531 C 0.22592 0.50776 0.50584 0.0
C1532 C 0.22453 0.51345 0.55125 0.0
C1533 C 0.24138 0.50775 0.48357 0.0
C1534 C 0.23891 0.51845 0.5749 0.0
C1535 C 0.25437 0.51842 0.55302 0.0
H1536 H 0.07716 0.60979 0.93173 0.0
H1537 H 0.09086 0.57699 0.04287 0.0
H1538 H 0.10835 0.56089 0.99098 0.0
H1539 H 0.11927 0.55569 0.91338 0.0
H1540 H 0.10643 0.58936 0.80371 0.0
H1541 H 0.08964 0.60594 0.85625 0.0
C1542 C 0.0842 0.59934 0.94503 0.0
C1543 C 0.08252 0.5946 0.99124 0.0
C1544 C 0.09453 0.59034 0.91531 0.0
C1545 C 0.09156 0.58076 0.0073 0.0
C1546 C 0.10171 0.5716 0.97774 0.0
C1547 C 0.11288 0.56674 0.90121 0.0
C1548 C 0.11411 0.57133 0.85485 0.0
C1549 C 0.10318 0.5762 0.93158 0.0
C1550 C 0.10587 0.58571 0.83942 0.0
C1551 C 0.09614 0.59511 0.86933 0.0
H1552 H 0.92433 0.09046 0.32838 0.0
H1553 H 0.9324 0.12922 0.42795 0.0
H1554 H 0.92087 0.11134 0.48836 0.0
H1555 H 0.90815 0.08481 0.51196 0.0
H1556 H 0.90164 0.04565 0.41219 0.0
H1557 H 0.91275 0.06369 0.35239 0.0
C1558 C 0.92338 0.09503 0.36327 0.0
C1559 C 0.9289 0.11116 0.37384 0.0
C1560 C 0.91707 0.08463 0.39759 0.0
C1561 C 0.92808 0.11685 0.41922 0.0
C1562 C 0.92153 0.10664 0.4536 0.0
C1563 C 0.90941 0.08012 0.4773 0.0
C1564 C 0.90401 0.0639 0.46659 0.0
C1565 C 0.91601 0.09049 0.44314 0.0
C1566 C 0.90546 0.05815 0.42128 0.0
C1567 C 0.91188 0.06843 0.38708 0.0
H1568 H 0.4365 0.90373 0.93576 0.0
H1569 H 0.39612 0.90546 0.03283 0.0
H1570 H 0.37799 0.91803 0.97485 0.0
H1571 H 0.3736 0.92801 0.89606 0.0
H1572 H 0.41476 0.92754 0.80079 0.0
H1573 H 0.43244 0.91459 0.8582 0.0
C1574 C 0.42371 0.90682 0.94406 0.0
C1575 C 0.4176 0.90367 0.98825 0.0
C1576 C 0.41345 0.91409 0.91079 0.0
C1577 C 0.40109 0.90792 -0.00101 0.0
C1578 C 0.39072 0.91501 0.96585 0.0
C1579 C 0.38647 0.92522 0.88795 0.0
C1580 C 0.3927 0.92857 0.84382 0.0
C1581 C 0.39677 0.91813 0.92157 0.0
C1582 C 0.40942 0.92471 0.83395 0.0
C1583 C 0.41964 0.91745 0.86694 0.0
H1584 H 0.56138 0.40142 0.3553 0.0
H1585 H 0.59268 0.35955 0.38819 0.0
H1586 H 0.60659 0.37594 0.44813 0.0
H1587 H 0.60995 0.40249 0.48999 0.0
H1588 H 0.57741 0.44365 0.45909 0.0
H1589 H 0.56378 0.42728 0.39912 0.0
C1590 C 0.57127 0.39594 0.37569 0.0
C1591 C 0.57621 0.37947 0.36744 0.0
C1592 C 0.57893 0.40531 0.4101 0.0
C1593 C 0.58878 0.37227 0.39424 0.0
C1594 C 0.59672 0.38163 0.42823 0.0
C1595 C 0.59989 0.4078 0.46991 0.0
C1596 C 0.59468 0.4242 0.47832 0.0
C1597 C 0.59195 0.3982 0.43624 0.0
C1598 C 0.58153 0.43101 0.45289 0.0
C1599 C 0.57379 0.42169 0.41873 0.0
H1600 H 0.08593 0.92373 0.16754 0.0
H1601 H 0.13176 0.90366 0.11385 0.0
H1602 H 0.11613 0.88868 0.05467 0.0
H1603 H 0.08936 0.88153 0.0182 0.0
H1604 H 0.04373 0.90149 0.07361 0.0
H1605 H 0.05942 0.91618 0.13271 0.0
C1606 C 0.09252 0.91589 0.14332 0.0
C1607 C 0.10996 0.91467 0.14533 0.0
C1608 C 0.08349 0.90732 0.1098 0.0
C1609 C 0.11833 0.90484 0.11287 0.0
C1610 C 0.1094 0.89623 0.07923 0.0
C1611 C 0.08286 0.88894 0.04358 0.0
C1612 C 0.06541 0.89044 0.04158 0.0
C1613 C 0.09197 0.89738 0.07742 0.0
C1614 C 0.05716 0.90029 0.07418 0.0
C1615 C 0.06611 0.90864 0.10803 0.0
H1616 H 0.55015 0.10002 0.62879 0.0
H1617 H 0.58371 0.14087 0.60216 0.0
H1618 H 0.59944 0.12345 0.54876 0.0
H1619 H 0.60384 0.09638 0.51076 0.0
H1620 H 0.56954 0.05611 0.53607 0.0
H1621 H 0.55362 0.07373 0.58838 0.0
C1622 C 0.56065 0.10531 0.61054 0.0
C1623 C 0.56565 0.1218 0.61924 0.0
C1624 C 0.56952 0.09531 0.57984 0.0
C1625 C 0.57964 0.1282 0.59629 0.0
C1626 C 0.58861 0.11826 0.56571 0.0
C1627 C 0.5929 0.0915 0.52792 0.0
C1628 C 0.58787 0.075 0.51995 0.0
C1629 C 0.58374 0.10175 0.55758 0.0
C1630 C 0.57356 0.06882 0.54168 0.0
C1631 C 0.5645 0.07886 0.57159 0.0
H1632 H 0.36842 0.56736 0.08222 0.0
H1633 H 0.38217 0.60367 0.18432 0.0
H1634 H 0.39853 0.61885 0.12765 0.0
H1635 H 0.41178 0.61959 0.05263 0.0
H1636 H 0.39718 0.58417 0.94872 0.0
H1637 H 0.37846 0.57071 0.00302 0.0
C1638 C 0.37459 0.57886 0.09168 0.0
C1639 C 0.37432 0.58425 0.13749 0.0
C1640 C 0.38415 0.58744 0.05902 0.0
C1641 C 0.38245 0.59913 0.14937 0.0
C1642 C 0.39184 0.60779 0.11706 0.0
C1643 C 0.40422 0.60923 0.04116 0.0
C1644 C 0.40621 0.60278 0.99666 0.0
C1645 C 0.39325 0.60171 0.07224 0.0
C1646 C 0.39636 0.58914 0.98312 0.0
C1647 C 0.3855 0.58151 0.01403 0.0
H1648 H 0.9085 0.39203 0.66854 0.0
H1649 H 0.95191 0.3813 0.58621 0.0
H1650 H 0.93893 0.39474 0.5206 0.0
H1651 H 0.91586 0.41067 0.48739 0.0
H1652 H 0.87451 0.42493 0.57369 0.0
H1653 H 0.88623 0.40908 0.63676 0.0
C1654 C 0.91531 0.39278 0.63657 0.0
C1655 C 0.93125 0.3856 0.63285 0.0
C1656 C 0.90814 0.40123 0.59944 0.0
C1657 C 0.93952 0.38637 0.59033 0.0
C1658 C 0.93218 0.39426 0.55273 0.0
C1659 C 0.90947 0.41055 0.52008 0.0
C1660 C 0.8942 0.41899 0.52522 0.0
C1661 C 0.9166 0.40194 0.55708 0.0
C1662 C 0.88604 0.41829 0.56791 0.0
C1663 C 0.89282 0.40933 0.60436 0.0
H1664 H 0.9074 0.40028 0.99337 0.0
H1665 H 0.94958 0.42732 0.0461 0.0
H1666 H 0.93153 0.44192 0.10049 0.0
H1667 H 0.90398 0.44614 0.13475 0.0
H1668 H 0.86212 0.4175 0.08688 0.0
H1669 H 0.87972 0.40435 0.02844 0.0
C1670 C 0.91253 0.40949 0.01658 0.0
C1671 C 0.92969 0.41288 0.01583 0.0
C1672 C 0.90216 0.41747 0.04843 0.0
C1673 C 0.93637 0.42459 0.04634 0.0
C1674 C 0.92608 0.43292 0.07728 0.0
C1675 C 0.89871 0.43717 0.11108 0.0
C1676 C 0.88181 0.43288 0.11447 0.0
C1677 C 0.90899 0.42936 0.07883 0.0
C1678 C 0.87511 0.42099 0.08448 0.0
C1679 C 0.88516 0.41349 0.05126 0.0
H1680 H 0.09358 0.88627 0.66697 0.0
H1681 H 0.05066 0.87392 0.58462 0.0
H1682 H 0.06208 0.88986 0.52072 0.0
H1683 H 0.08297 0.90942 0.49076 0.0
H1684 H 0.12498 0.923 0.57499 0.0
H1685 H 0.11488 0.90492 0.63625 0.0
C1686 C 0.08669 0.88706 0.63506 0.0
C1687 C 0.07121 0.87901 0.63085 0.0
C1688 C 0.093 0.89674 0.5991 0.0
C1689 C 0.06268 0.87983 0.58879 0.0
C1690 C 0.0691 0.88912 0.55237 0.0
C1691 C 0.08999 0.90827 0.52236 0.0
C1692 C 0.10462 0.91763 0.52852 0.0
C1693 C 0.08406 0.89793 0.55753 0.0
C1694 C 0.11353 0.91614 0.56977 0.0
C1695 C 0.10783 0.90572 0.60465 0.0
H1696 H 0.6111 0.05611 0.08215 0.0
H1697 H 0.6021 0.09314 0.18635 0.0
H1698 H 0.5844 0.10868 0.1337 0.0
H1699 H 0.57025 0.11102 0.05963 0.0
H1700 H 0.57905 0.074 0.95525 0.0
H1701 H 0.5976 0.05894 0.00696 0.0
C1702 C 0.60527 0.06758 0.09331 0.0
C1703 C 0.60799 0.07345 0.1381 0.0
C1704 C 0.59485 0.07634 0.0631 0.0
C1705 C 0.60048 0.08846 0.15184 0.0
C1706 C 0.5902 0.09729 0.1219 0.0
C1707 C 0.57638 0.09977 0.04794 0.0
C1708 C 0.57318 0.09363 0.00367 0.0
C1709 C 0.58715 0.09125 0.07765 0.0
C1710 C 0.58104 0.07887 0.98942 0.0
C1711 C 0.59177 0.07031 0.01883 0.0
H1712 H 0.42531 0.55794 0.51781 0.0
H1713 H 0.38923 0.59498 0.47785 0.0
H1714 H 0.40178 0.61503 0.53029 0.0
H1715 H 0.42252 0.62185 0.58896 0.0
H1716 H 0.45839 0.58477 0.63004 0.0
H1717 H 0.44661 0.56505 0.57532 0.0
C1718 C 0.4202 0.57039 0.52079 0.0
C1719 C 0.40639 0.57499 0.49408 0.0
C1720 C 0.4275 0.58189 0.55095 0.0
C1721 C 0.39997 0.59121 0.49777 0.0
C1722 C 0.40709 0.60267 0.52784 0.0
C1723 C 0.42776 0.60946 0.58584 0.0
C1724 C 0.4413 0.6048 0.61347 0.0
C1725 C 0.42081 0.59812 0.55472 0.0
C1726 C 0.44811 0.58876 0.6087 0.0
C1727 C 0.44128 0.57742 0.57773 0.0
H1728 H 0.87654 0.05405 0.91847 0.0
H1729 H 0.89735 0.08384 0.80957 0.0
H1730 H 0.91614 0.09729 0.86375 0.0
H1731 H 0.92719 0.10014 0.94162 0.0
H1732 H 0.90637 0.07081 0.05121 0.0
H1733 H 0.88714 0.0575 0.99727 0.0
C1734 C 0.88517 0.06353 0.90674 0.0
C1735 C 0.88549 0.06802 0.86017 0.0
C1736 C 0.89602 0.07117 0.93809 0.0
C1737 C 0.89665 0.08038 0.84539 0.0
C1738 C 0.90752 0.08796 0.87625 0.0
C1739 C 0.91851 0.09073 0.95353 0.0
C1740 C 0.91826 0.0863 5e-05 0.0
C1741 C 0.9074 0.08336 0.92255 0.0
C1742 C 0.90675 0.07437 0.01542 0.0
C1743 C 0.89579 0.06678 0.98464 0.0
H1744 H 0.4018 0.90729 0.50576 0.0
H1745 H 0.37436 0.93153 0.39754 0.0
H1746 H 0.38533 0.91157 0.34198 0.0
H1747 H 0.40409 0.88853 0.3236 0.0
H1748 H 0.43186 0.8644 0.4314 0.0
H1749 H 0.41942 0.88314 0.4879 0.0
C1750 C 0.39828 0.90822 0.46996 0.0
C1751 C 0.38744 0.92095 0.45561 0.0
C1752 C 0.40467 0.89676 0.43829 0.0
C1753 C 0.38267 0.92181 0.40936 0.0
C1754 C 0.38897 0.91045 0.37762 0.0
C1755 C 0.40713 0.88709 0.35959 0.0
C1756 C 0.41885 0.87505 0.37332 0.0
C1757 C 0.40011 0.898 0.39165 0.0
C1758 C 0.42294 0.87362 0.41998 0.0
C1759 C 0.41585 0.88433 0.45223 0.0
H1760 H 0.55996 0.40781 0.96924 0.0
H1761 H 0.59621 0.36918 0.99235 0.0
H1762 H 0.61536 0.38255 0.93839 0.0
H1763 H 0.62189 0.40555 0.88548 0.0
H1764 H 0.58592 0.44474 0.86514 0.0
H1765 H 0.56664 0.43097 0.9174 0.0
C1766 C 0.572 0.40229 0.96201 0.0
C1767 C 0.57669 0.38753 0.98423 0.0
C1768 C 0.58304 0.41024 0.93186 0.0
C1769 C 0.59241 0.38057 0.97543 0.0
C1770 C 0.60333 0.38821 0.9447 0.0
C1771 C 0.60982 0.41104 0.89256 0.0
C1772 C 0.60537 0.42616 0.87168 0.0
C1773 C 0.59882 0.4031 0.9229 0.0
C1774 C 0.58974 0.43321 0.8813 0.0
C1775 C 0.57865 0.4253 0.91092 0.0
H1776 H 0.10609 0.57524 0.43335 0.0
H1777 H 0.07275 0.58723 0.54423 0.0
H1778 H 0.05928 0.6085 0.49686 0.0
H1779 H 0.05651 0.62305 0.42292 0.0
H1780 H 0.08991 0.61064 0.31224 0.0
H1781 H 0.10402 0.59044 0.36077 0.0
C1782 C 0.0958 0.58246 0.44696 0.0
C1783 C 0.09028 0.57961 0.49189 0.0
C1784 C 0.08826 0.59471 0.41976 0.0
C1785 C 0.07719 0.58925 0.50962 0.0
C1786 C 0.0695 0.60138 0.48259 0.0
C1787 C 0.06693 0.61598 0.40958 0.0
C1788 C 0.07217 0.61844 0.36408 0.0
C1789 C 0.07488 0.60416 0.4375 0.0
C1790 C 0.0858 0.60927 0.34737 0.0
C1791 C 0.09377 0.59755 0.37493 0.0
H1792 H 0.92659 0.53187 0.28481 0.0
H1793 H 0.88715 0.5683 0.28556 0.0
H1794 H 0.90615 0.58917 0.25392 0.0
H1795 H 0.93388 0.59682 0.22477 0.0
H1796 H 0.97327 0.56025 0.2259 0.0
H1797 H 0.9543 0.53964 0.2578 0.0
C1798 C 0.92221 0.54445 0.27879 0.0
C1799 C 0.90553 0.54857 0.28784 0.0
C1800 C 0.93313 0.5563 0.26044 0.0
C1801 C 0.89993 0.56482 0.27874 0.0
C1802 C 0.91078 0.57674 0.2607 0.0
C1803 C 0.93834 0.58438 0.23231 0.0
C1804 C 0.95496 0.58008 0.22259 0.0
C1805 C 0.92739 0.57259 0.25118 0.0
C1806 C 0.96047 0.56383 0.23212 0.0
C1807 C 0.94967 0.55205 0.25078 0.0
H1808 H 0.90349 0.95092 0.78414 0.0
H1809 H 0.8883 0.92017 0.67058 0.0
H1810 H 0.90834 0.89875 0.69364 0.0
H1811 H 0.93141 0.88981 0.74291 0.0
H1812 H 0.94813 0.92193 0.85232 0.0
H1813 H 0.92587 0.94152 0.83502 0.0
C1814 C 0.90435 0.93937 0.76505 0.0
C1815 C 0.89444 0.93702 0.72591 0.0
C1816 C 0.91617 0.9274 0.77775 0.0
C1817 C 0.89586 0.92219 0.70081 0.0
C1818 C 0.90731 0.90999 0.71395 0.0
C1819 C 0.93025 0.90112 0.76291 0.0
C1820 C 0.94155 0.90438 0.7987 0.0
C1821 C 0.91778 0.91265 0.75177 0.0
C1822 C 0.93954 0.91893 0.82494 0.0
C1823 C 0.9269 0.93026 0.8148 0.0
H1824 H 0.5367 0.90833 0.29253 0.0
H1825 H 0.56551 0.89228 0.17617 0.0
H1826 H 0.58835 0.91076 0.19902 0.0
H1827 H 0.59927 0.93255 0.24973 0.0
H1828 H 0.56863 0.95071 0.3608 0.0
H1829 H 0.54769 0.92989 0.34342 0.0
C1830 C 0.54811 0.90872 0.27268 0.0
C1831 C 0.54956 0.89897 0.233 0.0
C1832 C 0.56087 0.9197 0.28519 0.0
C1833 C 0.56421 0.89974 0.20689 0.0
C1834 C 0.57721 0.91028 0.21994 0.0
C1835 C 0.58799 0.93209 0.27005 0.0
C1836 C 0.58569 0.94331 0.30661 0.0
C1837 C 0.57554 0.92055 0.25858 0.0
C1838 C 0.57107 0.94212 0.33306 0.0
C1839 C 0.55891 0.93031 0.32282 0.0
H1840 H 0.60095 0.56443 0.75551 0.0
H1841 H 0.56383 0.52639 0.73337 0.0
H1842 H 0.54269 0.544 0.76813 0.0
H1843 H 0.53449 0.57034 0.80259 0.0
H1844 H 0.57118 0.60858 0.82612 0.0
H1845 H 0.59283 0.59064 0.79359 0.0
C1846 C 0.58826 0.55998 0.7586 0.0
C1847 C 0.58395 0.54422 0.74122 0.0
C1848 C 0.57612 0.57013 0.77908 0.0
C1849 C 0.56742 0.53864 0.74535 0.0
C1850 C 0.55534 0.54862 0.76565 0.0
C1851 C 0.54728 0.57463 0.80156 0.0
C1852 C 0.55126 0.59069 0.81708 0.0
C1853 C 0.55953 0.56439 0.78241 0.0
C1854 C 0.56783 0.59625 0.81432 0.0
C1855 C 0.58018 0.58602 0.79569 0.0
H1856 H 0.08914 0.42785 0.65245 0.0
H1857 H 0.11472 0.43878 0.77863 0.0
H1858 H 0.09904 0.41688 0.81795 0.0
H1859 H 0.07506 0.39773 0.81847 0.0
H1860 H 0.04979 0.38652 0.69196 0.0
H1861 H 0.06853 0.40513 0.65023 0.0
C1862 C 0.09153 0.42506 0.68823 0.0
C1863 C 0.10288 0.43484 0.71292 0.0
C1864 C 0.08246 0.41252 0.71047 0.0
C1865 C 0.10603 0.43127 0.75917 0.0
C1866 C 0.097 0.41886 0.78164 0.0
C1867 C 0.07403 0.39906 0.78158 0.0
C1868 C 0.06111 0.39094 0.75817 0.0
C1869 C 0.08476 0.40985 0.758 0.0
C1870 C 0.05977 0.39263 0.71044 0.0
C1871 C 0.07036 0.40337 0.68671 0.0
H1872 H 0.05644 0.09692 0.2778 0.0
H1873 H 0.05783 0.08325 0.13487 0.0
H1874 H 0.07931 0.06257 0.151 0.0
H1875 H 0.09532 0.04628 0.20692 0.0
H1876 H 0.09301 0.05905 0.35033 0.0
H1877 H 0.07436 0.08225 0.33283 0.0
C1878 C 0.06155 0.08949 0.25015 0.0
C1879 C 0.05542 0.09148 0.20531 0.0
C1880 C 0.07363 0.07738 0.25983 0.0
C1881 C 0.06239 0.08203 0.16964 0.0
C1882 C 0.07457 0.07009 0.17891 0.0
C1883 C 0.0908 0.05422 0.23427 0.0
C1884 C 0.09533 0.05084 0.27989 0.0
C1885 C 0.0799 0.06734 0.22404 0.0
C1886 C 0.08971 0.06142 0.31493 0.0
C1887 C 0.07897 0.07461 0.30498 0.0
H1888 H 0.39378 0.05892 0.75922 0.0
H1889 H 0.40926 0.06064 0.61752 0.0
H1890 H 0.4287 0.08299 0.63536 0.0
H1891 H 0.4435 0.09973 0.69236 0.0
H1892 H 0.43086 0.09468 0.83567 0.0
H1893 H 0.40808 0.07612 0.81583 0.0
C1894 C 0.40146 0.06408 0.73215 0.0
C1895 C 0.40018 0.05783 0.6872 0.0
C1896 C 0.41322 0.07634 0.74299 0.0
C1897 C 0.40982 0.06519 0.6524 0.0
C1898 C 0.4211 0.07788 0.66265 0.0
C1899 C 0.43586 0.09452 0.71942 0.0
C1900 C 0.43915 0.09852 0.76556 0.0
C1901 C 0.42327 0.08316 0.70806 0.0
C1902 C 0.42865 0.09204 0.79981 0.0
C1903 C 0.41568 0.08124 0.78856 0.0
H1904 H 0.43751 0.4053 0.16802 0.0
H1905 H 0.45156 0.39766 0.30914 0.0
H1906 H 0.42972 0.41673 0.33411 0.0
H1907 H 0.40854 0.4376 0.31535 0.0
H1908 H 0.39484 0.44585 0.17425 0.0
H1909 H 0.4145 0.42441 0.14972 0.0
C1910 C 0.43556 0.40758 0.20425 0.0
C1911 C 0.44622 0.40024 0.23666 0.0
C1912 C 0.42313 0.41876 0.21832 0.0
C1913 C 0.44365 0.40339 0.28352 0.0
C1914 C 0.43116 0.41425 0.29782 0.0
C1915 C 0.40958 0.43443 0.27934 0.0
C1916 C 0.40034 0.44335 0.24665 0.0
C1917 C 0.42109 0.42231 0.26547 0.0
C1918 C 0.40199 0.43928 0.20001 0.0
C1919 C 0.41321 0.42702 0.18598 0.0
loop_
_geom_bond_atom_site_label_1
_geom_bond_atom_site_label_2
_geom_bond_distance
_geom_bond_site_symmetry_2
_ccdc_geom_bond_type
Li0 N17 1.990 1_455 S
Li0 O60 1.956 . S
Li0 O61 1.970 . S
Li0 O62 1.961 . S
Li1 N25 1.990 . S
Li1 O60 1.970 . S
Li1 O61 1.956 . S
Li1 O63 1.961 . S
Li2 N47 1.990 . S
Li2 O60 1.961 . S
Li2 O62 1.956 . S
Li2 O63 1.970 . S
Li3 N53 1.990 . S
Li3 O61 1.961 . S
Li3 O62 1.970 . S
Li3 O63 1.956 . S
C4 C6 1.348 . S
C4 C7 1.356 1_455 S
C4 O60 1.325 . S
N5 C8 1.314 1_655 S
N5 C9 1.279 . S
C6 C4 1.348 . S
C6 C8 1.353 . S
C6 H64 0.929 . S
C7 C4 1.356 1_655 S
C7 C9 1.358 . S
C7 H65 0.930 . S
C8 N5 1.314 1_455 S
C8 C6 1.353 . S
C8 H66 0.930 . S
C9 N5 1.279 . S
C9 C7 1.358 . S
C9 H67 0.930 . S
C10 C13 1.348 . S
C10 C14 1.356 . S
C10 O61 1.325 . S
C11 N12 1.279 . S
C11 C14 1.358 . S
C11 H68 0.930 . S
N12 C11 1.279 . S
N12 C15 1.314 . S
C13 C10 1.348 . S
C13 C15 1.353 . S
C13 H69 0.929 . S
C14 C10 1.356 . S
C14 C11 1.358 . S
C14 H70 0.930 . S
C15 N12 1.314 . S
C15 C13 1.353 . S
C15 H71 0.930 . S
C16 N17 1.314 . S
C16 C21 1.353 . S
C16 H22 0.930 . S
N17 Li0 1.990 1_655 S
N17 C16 1.314 . S
N17 C19 1.279 . S
C18 C19 1.358 . S
C18 C20 1.356 . S
C18 H72 0.930 . S
C19 N17 1.279 . S
C19 C18 1.358 . S
C19 H23 0.930 . S
C20 C18 1.356 . S
C20 C21 1.348 . S
C21 C16 1.353 . S
C21 C20 1.348 . S
C21 H73 0.929 . S
H22 C16 0.930 . S
H23 C19 0.930 . S
C24 N25 1.314 . S
C24 C26 1.353 . S
C24 H30 0.930 . S
N25 Li1 1.990 . S
N25 C24 1.314 . S
N25 C28 1.279 . S
C26 C24 1.353 . S
C26 C29 1.348 . S
C26 H74 0.929 . S
C27 C28 1.358 . S
C27 C29 1.356 . S
C27 H75 0.930 . S
C28 N25 1.279 . S
C28 C27 1.358 . S
C28 H31 0.930 . S
C29 C26 1.348 . S
C29 C27 1.356 . S
H30 C24 0.930 . S
H31 C28 0.930 . S
C32 C34 1.348 . S
C32 C35 1.356 1_455 S
C32 O62 1.325 . S
N33 C36 1.314 . S
N33 C37 1.279 1_556 S
C34 C32 1.348 . S
C34 C36 1.353 1_454 S
C34 H76 0.928 1_554 S
C35 C32 1.356 1_655 S
C35 C37 1.358 . S
C35 H77 0.930 . S
C36 N33 1.314 . S
C36 C34 1.353 1_656 S
C36 H78 0.927 1_655 S
C37 N33 1.279 1_554 S
C37 C35 1.358 . S
C37 H79 0.930 . S
C38 C39 1.348 . S
C38 C40 1.356 . S
C38 O63 1.325 . S
C39 C38 1.348 . S
C39 C41 1.353 . S
C39 H80 0.929 . S
C40 C38 1.356 . S
C40 C42 1.358 . S
C40 H81 0.930 . S
C41 C39 1.353 . S
C41 N43 1.314 . S
C41 H82 0.930 . S
C42 C40 1.358 . S
C42 N43 1.279 . S
C42 H83 0.930 . S
N43 C41 1.314 . S
N43 C42 1.279 . S
C44 C46 1.353 . S
C44 N47 1.314 . S
C44 H50 0.930 . S
C45 N47 1.279 . S
C45 C48 1.358 . S
C45 H51 0.930 . S
C46 C44 1.353 . S
C46 C49 1.348 . S
C46 H84 0.929 . S
N47 Li2 1.990 . S
N47 C44 1.314 . S
N47 C45 1.279 . S
C48 C45 1.358 . S
C48 C49 1.356 . S
C48 H85 0.930 . S
C49 C46 1.348 . S
C49 C48 1.356 . S
H50 C44 0.930 . S
H51 C45 0.930 . S
C52 N53 1.314 . S
C52 C54 1.353 1_554 S
C52 H58 0.930 . S
N53 Li3 1.990 . S
N53 C52 1.314 . S
N53 C56 1.279 . S
C54 C52 1.353 1_556 S
C54 C57 1.348 . S
C54 H86 0.929 . S
C55 C56 1.358 1_556 S
C55 C57 1.356 . S
C55 H87 0.930 . S
C56 N53 1.279 . S
C56 C55 1.358 1_554 S
C56 H59 0.930 . S
C57 C54 1.348 . S
C57 C55 1.356 . S
H58 C52 0.930 . S
H59 C56 0.930 . S
O60 Li0 1.956 . S
O60 Li1 1.970 . S
O60 Li2 1.961 . S
O60 C4 1.325 . S
O61 Li0 1.970 . S
O61 Li1 1.956 . S
O61 Li3 1.961 . S
O61 C10 1.325 . S
O62 Li0 1.961 . S
O62 Li2 1.956 . S
O62 Li3 1.970 . S
O62 C32 1.325 . S
O63 Li1 1.961 . S
O63 Li2 1.970 . S
O63 Li3 1.956 . S
O63 C38 1.325 . S
H64 C6 0.929 . S
H65 C7 0.930 . S
H66 C8 0.930 . S
H67 C9 0.930 . S
H68 C11 0.930 . S
H69 C13 0.929 . S
H70 C14 0.930 . S
H71 C15 0.930 . S
H72 C18 0.930 . S
H73 C21 0.929 . S
H74 C26 0.929 . S
H75 C27 0.930 . S
H76 C34 0.928 1_556 S
H77 C35 0.930 . S
H78 C36 0.927 1_455 S
H79 C37 0.930 . S
H80 C39 0.929 . S
H81 C40 0.930 . S
H82 C41 0.930 . S
H83 C42 0.930 . S
H84 C46 0.929 . S
H85 C48 0.930 . S
H86 C54 0.929 . S
H87 C55 0.930 . S
Li88 N105 1.990 1_545 S
Li88 O148 1.956 . S
Li88 O149 1.970 . S
Li88 O150 1.961 . S
Li89 N113 1.990 . S
Li89 O148 1.970 . S
Li89 O149 1.956 . S
Li89 O151 1.961 . S
Li90 N135 1.990 . S
Li90 O148 1.961 . S
Li90 O150 1.956 . S
Li90 O151 1.970 . S
Li91 N141 1.990 . S
Li91 O149 1.961 . S
Li91 O150 1.970 . S
Li91 O151 1.956 . S
C92 C94 1.348 . S
C92 C95 1.356 1_545 S
C92 O148 1.325 . S
N93 C96 1.314 1_565 S
N93 C97 1.279 . S
C94 C92 1.348 . S
C94 C96 1.353 . S
C94 H152 0.929 . S
C95 C92 1.356 1_565 S
C95 C97 1.358 . S
C95 H153 0.930 . S
C96 N93 1.314 1_545 S
C96 C94 1.353 . S
C96 H154 0.930 . S
C97 N93 1.279 . S
C97 C95 1.358 . S
C97 H155 0.930 . S
C98 C101 1.348 . S
C98 C102 1.356 . S
C98 O149 1.325 . S
C99 N100 1.279 . S
C99 C102 1.358 . S
C99 H156 0.930 . S
N100 C99 1.279 . S
N100 C103 1.314 . S
C101 C98 1.348 . S
C101 C103 1.353 . S
C101 H157 0.929 . S
C102 C98 1.356 . S
C102 C99 1.358 . S
C102 H158 0.930 . S
C103 N100 1.314 . S
C103 C101 1.353 . S
C103 H159 0.930 . S
C104 N105 1.314 . S
C104 C109 1.353 . S
C104 H110 0.930 . S
N105 Li88 1.990 1_565 S
N105 C104 1.314 . S
N105 C107 1.279 . S
C106 C107 1.358 . S
C106 C108 1.356 . S
C106 H160 0.930 . S
C107 N105 1.279 . S
C107 C106 1.358 . S
C107 H111 0.930 . S
C108 C106 1.356 . S
C108 C109 1.348 . S
C109 C104 1.353 . S
C109 C108 1.348 . S
C109 H161 0.929 . S
H110 C104 0.930 . S
H111 C107 0.930 . S
C112 N113 1.314 . S
C112 C114 1.353 . S
C112 H118 0.930 . S
N113 Li89 1.990 . S
N113 C112 1.314 . S
N113 C116 1.279 . S
C114 C112 1.353 . S
C114 C117 1.348 . S
C114 H162 0.929 . S
C115 C116 1.358 . S
C115 C117 1.356 . S
C115 H163 0.930 . S
C116 N113 1.279 . S
C116 C115 1.358 . S
C116 H119 0.930 . S
C117 C114 1.348 . S
C117 C115 1.356 . S
H118 C112 0.930 . S
H119 C116 0.930 . S
C120 C122 1.348 . S
C120 C123 1.356 1_545 S
C120 O150 1.325 . S
N121 C124 1.314 . S
N121 C125 1.279 . S
C122 C120 1.348 . S
C122 C124 1.353 1_545 S
C122 H164 0.929 . S
C123 C120 1.356 1_565 S
C123 C125 1.358 . S
C123 H165 0.930 . S
C124 N121 1.314 . S
C124 C122 1.353 1_565 S
C124 H166 0.926 1_565 S
C125 N121 1.279 . S
C125 C123 1.358 . S
C125 H167 0.930 . S
C126 C127 1.348 . S
C126 C128 1.356 . S
C126 O151 1.325 . S
C127 C126 1.348 . S
C127 C129 1.353 . S
C127 H168 0.929 . S
C128 C126 1.356 . S
C128 C130 1.358 . S
C128 H169 0.930 . S
C129 C127 1.353 . S
C129 N131 1.314 . S
C129 H170 0.930 . S
C130 C128 1.358 . S
C130 N131 1.279 . S
C130 H171 0.930 . S
N131 C129 1.314 . S
N131 C130 1.279 . S
C132 C134 1.353 . S
C132 N135 1.314 . S
C132 H138 0.930 . S
C133 N135 1.279 . S
C133 C136 1.358 . S
C133 H139 0.930 . S
C134 C132 1.353 . S
C134 C137 1.348 . S
C134 H172 0.929 . S
N135 Li90 1.990 . S
N135 C132 1.314 . S
N135 C133 1.279 . S
C136 C133 1.358 . S
C136 C137 1.356 . S
C136 H173 0.930 . S
C137 C134 1.348 . S
C137 C136 1.356 . S
H138 C132 0.930 . S
H139 C133 0.930 . S
C140 N141 1.314 . S
C140 C142 1.353 . S
C140 H146 0.930 . S
N141 Li91 1.990 . S
N141 C140 1.314 . S
N141 C144 1.279 . S
C142 C140 1.353 . S
C142 C145 1.348 . S
C142 H174 0.929 . S
C143 C144 1.358 . S
C143 C145 1.356 . S
C143 H175 0.930 . S
C144 N141 1.279 . S
C144 C143 1.358 . S
C144 H147 0.930 . S
C145 C142 1.348 . S
C145 C143 1.356 . S
H146 C140 0.930 . S
H147 C144 0.930 . S
O148 Li88 1.956 . S
O148 Li89 1.970 . S
O148 Li90 1.961 . S
O148 C92 1.325 . S
O149 Li88 1.970 . S
O149 Li89 1.956 . S
O149 Li91 1.961 . S
O149 C98 1.325 . S
O150 Li88 1.961 . S
O150 Li90 1.956 . S
O150 Li91 1.970 . S
O150 C120 1.325 . S
O151 Li89 1.961 . S
O151 Li90 1.970 . S
O151 Li91 1.956 . S
O151 C126 1.325 . S
H152 C94 0.929 . S
H153 C95 0.930 . S
H154 C96 0.930 . S
H155 C97 0.930 . S
H156 C99 0.930 . S
H157 C101 0.929 . S
H158 C102 0.930 . S
H159 C103 0.930 . S
H160 C106 0.930 . S
H161 C109 0.929 . S
H162 C114 0.929 . S
H163 C115 0.930 . S
H164 C122 0.929 . S
H165 C123 0.930 . S
H166 C124 0.926 1_545 S
H167 C125 0.930 . S
H168 C127 0.929 . S
H169 C128 0.930 . S
H170 C129 0.930 . S
H171 C130 0.930 . S
H172 C134 0.929 . S
H173 C136 0.930 . S
H174 C142 0.929 . S
H175 C143 0.930 . S
Li176 N193 1.990 . S
Li176 O236 1.956 . S
Li176 O237 1.970 . S
Li176 O238 1.961 . S
Li177 N201 1.990 . S
Li177 O236 1.970 . S
Li177 O237 1.956 . S
Li177 O239 1.961 . S
Li178 N223 1.990 . S
Li178 O236 1.961 . S
Li178 O238 1.956 . S
Li178 O239 1.970 . S
Li179 N229 1.990 . S
Li179 O237 1.961 . S
Li179 O238 1.970 . S
Li179 O239 1.956 . S
C180 C182 1.348 . S
C180 C183 1.356 . S
C180 O236 1.325 . S
N181 C184 1.314 . S
N181 C185 1.279 . S
C182 C180 1.348 . S
C182 C184 1.353 . S
C182 H240 0.929 . S
C183 C180 1.356 . S
C183 C185 1.358 . S
C183 H241 0.930 . S
C184 N181 1.314 . S
C184 C182 1.353 . S
C184 H242 0.930 . S
C185 N181 1.279 . S
C185 C183 1.358 . S
C185 H243 0.930 . S
C186 C189 1.348 . S
C186 C190 1.356 . S
C186 O237 1.325 . S
C187 N188 1.279 . S
C187 C190 1.358 . S
C187 H244 0.930 . S
N188 C187 1.279 . S
N188 C191 1.314 . S
C189 C186 1.348 . S
C189 C191 1.353 . S
C189 H245 0.929 . S
C190 C186 1.356 . S
C190 C187 1.358 . S
C190 H246 0.930 . S
C191 N188 1.314 . S
C191 C189 1.353 . S
C191 H247 0.930 . S
C192 N193 1.314 . S
C192 C197 1.353 . S
C192 H198 0.930 . S
N193 Li176 1.990 . S
N193 C192 1.314 . S
N193 C195 1.279 . S
C194 C195 1.358 . S
C194 C196 1.356 . S
C194 H248 0.930 . S
C195 N193 1.279 . S
C195 C194 1.358 . S
C195 H199 0.930 . S
C196 C194 1.356 . S
C196 C197 1.348 . S
C197 C192 1.353 . S
C197 C196 1.348 . S
C197 H249 0.929 . S
H198 C192 0.930 . S
H199 C195 0.930 . S
C200 N201 1.314 . S
C200 C202 1.353 . S
C200 H206 0.930 . S
N201 Li177 1.990 . S
N201 C200 1.314 . S
N201 C204 1.279 . S
C202 C200 1.353 . S
C202 C205 1.348 . S
C202 H250 0.929 . S
C203 C204 1.358 . S
C203 C205 1.356 . S
C203 H251 0.930 . S
C204 N201 1.279 . S
C204 C203 1.358 . S
C204 H207 0.930 . S
C205 C202 1.348 . S
C205 C203 1.356 . S
H206 C200 0.930 . S
H207 C204 0.930 . S
C208 C210 1.348 . S
C208 C211 1.356 . S
C208 O238 1.325 . S
N209 C212 1.314 . S
N209 C213 1.279 1_556 S
C210 C208 1.348 . S
C210 C212 1.353 1_554 S
C210 H252 0.929 1_554 S
C211 C208 1.356 . S
C211 C213 1.358 . S
C211 H253 0.930 . S
C212 N209 1.314 . S
C212 C210 1.353 1_556 S
C212 H254 0.930 . S
C213 N209 1.279 1_554 S
C213 C211 1.358 . S
C213 H255 0.930 . S
C214 C215 1.348 . S
C214 C216 1.356 . S
C214 O239 1.325 . S
C215 C214 1.348 . S
C215 C217 1.353 . S
C215 H256 0.929 . S
C216 C214 1.356 . S
C216 C218 1.358 . S
C216 H257 0.930 . S
C217 C215 1.353 . S
C217 N219 1.314 . S
C217 H258 0.930 . S
C218 C216 1.358 . S
C218 N219 1.279 . S
C218 H259 0.930 . S
N219 C217 1.314 . S
N219 C218 1.279 . S
C220 C222 1.353 . S
C220 N223 1.314 . S
C220 H226 0.930 . S
C221 N223 1.279 . S
C221 C224 1.358 . S
C221 H227 0.930 . S
C222 C220 1.353 . S
C222 C225 1.348 . S
C222 H260 0.929 . S
N223 Li178 1.990 . S
N223 C220 1.314 . S
N223 C221 1.279 . S
C224 C221 1.358 . S
C224 C225 1.356 . S
C224 H261 0.930 . S
C225 C222 1.348 . S
C225 C224 1.356 . S
H226 C220 0.930 . S
H227 C221 0.930 . S
C228 N229 1.314 . S
C228 C230 1.353 1_554 S
C228 H234 0.930 . S
N229 Li179 1.990 . S
N229 C228 1.314 . S
N229 C232 1.279 . S
C230 C228 1.353 1_556 S
C230 C233 1.348 . S
C230 H262 0.929 . S
C231 C232 1.358 1_556 S
C231 C233 1.356 . S
C231 H263 0.930 . S
C232 N229 1.279 . S
C232 C231 1.358 1_554 S
C232 H235 0.930 . S
C233 C230 1.348 . S
C233 C231 1.356 . S
H234 C228 0.930 . S
H235 C232 0.930 . S
O236 Li176 1.956 . S
O236 Li177 1.970 . S
O236 Li178 1.961 . S
O236 C180 1.325 . S
O237 Li176 1.970 . S
O237 Li177 1.956 . S
O237 Li179 1.961 . S
O237 C186 1.325 . S
O238 Li176 1.961 . S
O238 Li178 1.956 . S
O238 Li179 1.970 . S
O238 C208 1.325 . S
O239 Li177 1.961 . S
O239 Li178 1.970 . S
O239 Li179 1.956 . S
O239 C214 1.325 . S
H240 C182 0.929 . S
H241 C183 0.930 . S
H242 C184 0.930 . S
H243 C185 0.930 . S
H244 C187 0.930 . S
H245 C189 0.929 . S
H246 C190 0.930 . S
H247 C191 0.930 . S
H248 C194 0.930 . S
H249 C197 0.929 . S
H250 C202 0.929 . S
H251 C203 0.930 . S
H252 C210 0.929 1_556 S
H253 C211 0.930 . S
H254 C212 0.930 . S
H255 C213 0.930 . S
H256 C215 0.929 . S
H257 C216 0.930 . S
H258 C217 0.930 . S
H259 C218 0.930 . S
H260 C222 0.929 . S
H261 C224 0.930 . S
H262 C230 0.929 . S
H263 C231 0.930 . S
Li264 N281 1.990 . S
Li264 O324 1.956 . S
Li264 O325 1.970 . S
Li264 O326 1.961 . S
Li265 N289 1.990 . S
Li265 O324 1.970 . S
Li265 O325 1.956 . S
Li265 O327 1.961 . S
Li266 N311 1.990 . S
Li266 O324 1.961 . S
Li266 O326 1.956 . S
Li266 O327 1.970 . S
Li267 N317 1.990 . S
Li267 O325 1.961 . S
Li267 O326 1.970 . S
Li267 O327 1.956 . S
C268 C270 1.348 . S
C268 C271 1.356 . S
C268 O324 1.325 . S
N269 C272 1.314 . S
N269 C273 1.279 . S
C270 C268 1.348 . S
C270 C272 1.353 . S
C270 H328 0.929 . S
C271 C268 1.356 . S
C271 C273 1.358 . S
C271 H329 0.930 . S
C272 N269 1.314 . S
C272 C270 1.353 . S
C272 H330 0.930 . S
C273 N269 1.279 . S
C273 C271 1.358 . S
C273 H331 0.930 . S
C274 C277 1.348 . S
C274 C278 1.356 . S
C274 O325 1.325 . S
C275 N276 1.279 . S
C275 C278 1.358 . S
C275 H332 0.930 . S
N276 C275 1.279 . S
N276 C279 1.314 . S
C277 C274 1.348 . S
C277 C279 1.353 . S
C277 H333 0.929 . S
C278 C274 1.356 . S
C278 C275 1.358 . S
C278 H334 0.930 . S
C279 N276 1.314 . S
C279 C277 1.353 . S
C279 H335 0.930 . S
C280 N281 1.314 . S
C280 C285 1.353 . S
C280 H286 0.930 . S
N281 Li264 1.990 . S
N281 C280 1.314 . S
N281 C283 1.279 . S
C282 C283 1.358 . S
C282 C284 1.356 . S
C282 H336 0.930 . S
C283 N281 1.279 . S
C283 C282 1.358 . S
C283 H287 0.930 . S
C284 C282 1.356 . S
C284 C285 1.348 . S
C285 C280 1.353 . S
C285 C284 1.348 . S
C285 H337 0.929 . S
H286 C280 0.930 . S
H287 C283 0.930 . S
C288 N289 1.314 . S
C288 C290 1.353 . S
C288 H294 0.930 . S
N289 Li265 1.990 . S
N289 C288 1.314 . S
N289 C292 1.279 . S
C290 C288 1.353 . S
C290 C293 1.348 . S
C290 H338 0.929 . S
C291 C292 1.358 . S
C291 C293 1.356 . S
C291 H339 0.930 . S
C292 N289 1.279 . S
C292 C291 1.358 . S
C292 H295 0.930 . S
C293 C290 1.348 . S
C293 C291 1.356 . S
H294 C288 0.930 . S
H295 C292 0.930 . S
C296 C298 1.348 . S
C296 C299 1.356 . S
C296 O326 1.325 . S
N297 C300 1.314 . S
N297 C301 1.279 . S
C298 C296 1.348 . S
C298 C300 1.353 . S
C298 H340 0.929 . S
C299 C296 1.356 . S
C299 C301 1.358 . S
C299 H341 0.930 . S
C300 N297 1.314 . S
C300 C298 1.353 . S
C300 H342 0.930 . S
C301 N297 1.279 . S
C301 C299 1.358 . S
C301 H343 0.930 . S
C302 C303 1.348 . S
C302 C304 1.356 . S
C302 O327 1.325 . S
C303 C302 1.348 . S
C303 C305 1.353 . S
C303 H344 0.929 . S
C304 C302 1.356 . S
C304 C306 1.358 . S
C304 H345 0.930 . S
C305 C303 1.353 . S
C305 N307 1.314 . S
C305 H346 0.930 . S
C306 C304 1.358 . S
C306 N307 1.279 . S
C306 H347 0.930 . S
N307 C305 1.314 . S
N307 C306 1.279 . S
C308 C310 1.353 . S
C308 N311 1.314 . S
C308 H314 0.930 . S
C309 N311 1.279 . S
C309 C312 1.358 . S
C309 H315 0.930 . S
C310 C308 1.353 . S
C310 C313 1.348 . S
C310 H348 0.929 . S
N311 Li266 1.990 . S
N311 C308 1.314 . S
N311 C309 1.279 . S
C312 C309 1.358 . S
C312 C313 1.356 . S
C312 H349 0.930 . S
C313 C310 1.348 . S
C313 C312 1.356 . S
H314 C308 0.930 . S
H315 C309 0.930 . S
C316 N317 1.314 . S
C316 C318 1.353 . S
C316 H322 0.930 . S
N317 Li267 1.990 . S
N317 C316 1.314 . S
N317 C320 1.279 . S
C318 C316 1.353 . S
C318 C321 1.348 . S
C318 H350 0.929 . S
C319 C320 1.358 . S
C319 C321 1.356 . S
C319 H351 0.930 . S
C320 N317 1.279 . S
C320 C319 1.358 . S
C320 H323 0.930 . S
C321 C318 1.348 . S
C321 C319 1.356 . S
H322 C316 0.930 . S
H323 C320 0.930 . S
O324 Li264 1.956 . S
O324 Li265 1.970 . S
O324 Li266 1.961 . S
O324 C268 1.325 . S
O325 Li264 1.970 . S
O325 Li265 1.956 . S
O325 Li267 1.961 . S
O325 C274 1.325 . S
O326 Li264 1.961 . S
O326 Li266 1.956 . S
O326 Li267 1.970 . S
O326 C296 1.325 . S
O327 Li265 1.961 . S
O327 Li266 1.970 . S
O327 Li267 1.956 . S
O327 C302 1.325 . S
H328 C270 0.929 . S
H329 C271 0.930 . S
H330 C272 0.930 . S
H331 C273 0.930 . S
H332 C275 0.930 . S
H333 C277 0.929 . S
H334 C278 0.930 . S
H335 C279 0.930 . S
H336 C282 0.930 . S
H337 C285 0.929 . S
H338 C290 0.929 . S
H339 C291 0.930 . S
H340 C298 0.929 . S
H341 C299 0.930 . S
H342 C300 0.930 . S
H343 C301 0.930 . S
H344 C303 0.929 . S
H345 C304 0.930 . S
H346 C305 0.930 . S
H347 C306 0.930 . S
H348 C310 0.929 . S
H349 C312 0.930 . S
H350 C318 0.929 . S
H351 C319 0.930 . S
Li352 N369 1.990 . S
Li352 O412 1.956 . S
Li352 O413 1.970 . S
Li352 O414 1.961 . S
Li353 N377 1.990 . S
Li353 O412 1.970 . S
Li353 O413 1.956 . S
Li353 O415 1.961 . S
Li354 N399 1.990 1_455 S
Li354 O412 1.961 . S
Li354 O414 1.956 . S
Li354 O415 1.970 . S
Li355 N405 1.990 . S
Li355 O413 1.961 . S
Li355 O414 1.970 . S
Li355 O415 1.956 . S
C356 C358 1.348 . S
C356 C359 1.356 1_455 S
C356 O412 1.325 . S
N357 C360 1.314 . S
N357 C361 1.279 1_554 S
C358 C356 1.348 . S
C358 C360 1.353 1_456 S
C358 H416 0.928 1_556 S
C359 C356 1.356 1_655 S
C359 C361 1.358 . S
C359 H417 0.930 . S
C360 N357 1.314 . S
C360 C358 1.353 1_654 S
C360 H418 0.926 1_655 S
C361 N357 1.279 1_556 S
C361 C359 1.358 . S
C361 H419 0.930 . S
C362 C365 1.348 . S
C362 C366 1.356 . S
C362 O413 1.325 . S
C363 N364 1.279 . S
C363 C366 1.358 . S
C363 H420 0.930 . S
N364 C363 1.279 . S
N364 C367 1.314 . S
C365 C362 1.348 . S
C365 C367 1.353 . S
C365 H421 0.929 . S
C366 C362 1.356 . S
C366 C363 1.358 . S
C366 H422 0.930 . S
C367 N364 1.314 . S
C367 C365 1.353 . S
C367 H423 0.930 . S
C368 N369 1.314 . S
C368 C373 1.353 . S
C368 H374 0.930 . S
N369 Li352 1.990 . S
N369 C368 1.314 . S
N369 C371 1.279 . S
C370 C371 1.358 . S
C370 C372 1.356 . S
C370 H424 0.930 . S
C371 N369 1.279 . S
C371 C370 1.358 . S
C371 H375 0.930 . S
C372 C370 1.356 . S
C372 C373 1.348 . S
C373 C368 1.353 . S
C373 C372 1.348 . S
C373 H425 0.929 . S
H374 C368 0.930 . S
H375 C371 0.930 . S
C376 N377 1.314 . S
C376 C378 1.353 1_556 S
C376 H382 0.930 . S
N377 Li353 1.990 . S
N377 C376 1.314 . S
N377 C380 1.279 . S
C378 C376 1.353 1_554 S
C378 C381 1.348 . S
C378 H426 0.929 . S
C379 C380 1.358 1_554 S
C379 C381 1.356 . S
C379 H427 0.930 . S
C380 N377 1.279 . S
C380 C379 1.358 1_556 S
C380 H383 0.930 . S
C381 C378 1.348 . S
C381 C379 1.356 . S
H382 C376 0.930 . S
H383 C380 0.930 . S
C384 C386 1.348 . S
C384 C387 1.356 1_455 S
C384 O414 1.325 . S
N385 C388 1.314 1_655 S
N385 C389 1.279 . S
C386 C384 1.348 . S
C386 C388 1.353 . S
C386 H428 0.929 . S
C387 C384 1.356 1_655 S
C387 C389 1.358 . S
C387 H429 0.930 . S
C388 N385 1.314 1_455 S
C388 C386 1.353 . S
C388 H430 0.930 . S
C389 N385 1.279 . S
C389 C387 1.358 . S
C389 H431 0.930 . S
C390 C391 1.348 . S
C390 C392 1.356 . S
C390 O415 1.325 . S
C391 C390 1.348 . S
C391 C393 1.353 . S
C391 H432 0.929 . S
C392 C390 1.356 . S
C392 C394 1.358 . S
C392 H433 0.930 . S
C393 C391 1.353 . S
C393 N395 1.314 . S
C393 H434 0.930 . S
C394 C392 1.358 . S
C394 N395 1.279 . S
C394 H435 0.930 . S
N395 C393 1.314 . S
N395 C394 1.279 . S
C396 C398 1.353 . S
C396 N399 1.314 . S
C396 H402 0.930 . S
C397 N399 1.279 . S
C397 C400 1.358 . S
C397 H403 0.930 . S
C398 C396 1.353 . S
C398 C401 1.348 . S
C398 H436 0.929 . S
N399 Li354 1.990 1_655 S
N399 C396 1.314 . S
N399 C397 1.279 . S
C400 C397 1.358 . S
C400 C401 1.356 . S
C400 H437 0.930 . S
C401 C398 1.348 . S
C401 C400 1.356 . S
H402 C396 0.930 . S
H403 C397 0.930 . S
C404 N405 1.314 . S
C404 C406 1.353 . S
C404 H410 0.930 . S
N405 Li355 1.990 . S
N405 C404 1.314 . S
N405 C408 1.279 . S
C406 C404 1.353 . S
C406 C409 1.348 . S
C406 H438 0.929 . S
C407 C408 1.358 . S
C407 C409 1.356 . S
C407 H439 0.930 . S
C408 N405 1.279 . S
C408 C407 1.358 . S
C408 H411 0.930 . S
C409 C406 1.348 . S
C409 C407 1.356 . S
H410 C404 0.930 . S
H411 C408 0.930 . S
O412 Li352 1.956 . S
O412 Li353 1.970 . S
O412 Li354 1.961 . S
O412 C356 1.325 . S
O413 Li352 1.970 . S
O413 Li353 1.956 . S
O413 Li355 1.961 . S
O413 C362 1.325 . S
O414 Li352 1.961 . S
O414 Li354 1.956 . S
O414 Li355 1.970 . S
O414 C384 1.325 . S
O415 Li353 1.961 . S
O415 Li354 1.970 . S
O415 Li355 1.956 . S
O415 C390 1.325 . S
H416 C358 0.928 1_554 S
H417 C359 0.930 . S
H418 C360 0.926 1_455 S
H419 C361 0.930 . S
H420 C363 0.930 . S
H421 C365 0.929 . S
H422 C366 0.930 . S
H423 C367 0.930 . S
H424 C370 0.930 . S
H425 C373 0.929 . S
H426 C378 0.929 . S
H427 C379 0.930 . S
H428 C386 0.929 . S
H429 C387 0.930 . S
H430 C388 0.930 . S
H431 C389 0.930 . S
H432 C391 0.929 . S
H433 C392 0.930 . S
H434 C393 0.930 . S
H435 C394 0.930 . S
H436 C398 0.929 . S
H437 C400 0.930 . S
H438 C406 0.929 . S
H439 C407 0.930 . S
Li440 N457 1.990 . S
Li440 O500 1.956 . S
Li440 O501 1.970 . S
Li440 O502 1.961 . S
Li441 N465 1.990 . S
Li441 O500 1.970 . S
Li441 O501 1.956 . S
Li441 O503 1.961 . S
Li442 N487 1.990 1_545 S
Li442 O500 1.961 . S
Li442 O502 1.956 . S
Li442 O503 1.970 . S
Li443 N493 1.990 . S
Li443 O501 1.961 . S
Li443 O502 1.970 . S
Li443 O503 1.956 . S
C444 C446 1.348 . S
C444 C447 1.356 1_545 S
C444 O500 1.325 . S
N445 C448 1.314 . S
N445 C449 1.279 . S
C446 C444 1.348 . S
C446 C448 1.353 1_545 S
C446 H504 0.929 . S
C447 C444 1.356 1_565 S
C447 C449 1.358 . S
C447 H505 0.930 . S
C448 N445 1.314 . S
C448 C446 1.353 1_565 S
C448 H506 0.927 1_565 S
C449 N445 1.279 . S
C449 C447 1.358 . S
C449 H507 0.930 . S
C450 C453 1.348 . S
C450 C454 1.356 . S
C450 O501 1.325 . S
C451 N452 1.279 . S
C451 C454 1.358 . S
C451 H508 0.930 . S
N452 C451 1.279 . S
N452 C455 1.314 . S
C453 C450 1.348 . S
C453 C455 1.353 . S
C453 H509 0.929 . S
C454 C450 1.356 . S
C454 C451 1.358 . S
C454 H510 0.930 . S
C455 N452 1.314 . S
C455 C453 1.353 . S
C455 H511 0.930 . S
C456 N457 1.314 . S
C456 C461 1.353 . S
C456 H462 0.930 . S
N457 Li440 1.990 . S
N457 C456 1.314 . S
N457 C459 1.279 . S
C458 C459 1.358 . S
C458 C460 1.356 . S
C458 H512 0.930 . S
C459 N457 1.279 . S
C459 C458 1.358 . S
C459 H463 0.930 . S
C460 C458 1.356 . S
C460 C461 1.348 . S
C461 C456 1.353 . S
C461 C460 1.348 . S
C461 H513 0.929 . S
H462 C456 0.930 . S
H463 C459 0.930 . S
C464 N465 1.314 . S
C464 C466 1.353 . S
C464 H470 0.930 . S
N465 Li441 1.990 . S
N465 C464 1.314 . S
N465 C468 1.279 . S
C466 C464 1.353 . S
C466 C469 1.348 . S
C466 H514 0.929 . S
C467 C468 1.358 . S
C467 C469 1.356 . S
C467 H515 0.930 . S
C468 N465 1.279 . S
C468 C467 1.358 . S
C468 H471 0.930 . S
C469 C466 1.348 . S
C469 C467 1.356 . S
H470 C464 0.930 . S
H471 C468 0.930 . S
C472 C474 1.348 . S
C472 C475 1.356 1_545 S
C472 O502 1.325 . S
N473 C476 1.314 1_565 S
N473 C477 1.279 . S
C474 C472 1.348 . S
C474 C476 1.353 . S
C474 H516 0.929 . S
C475 C472 1.356 1_565 S
C475 C477 1.358 . S
C475 H517 0.930 . S
C476 N473 1.314 1_545 S
C476 C474 1.353 . S
C476 H518 0.930 . S
C477 N473 1.279 . S
C477 C475 1.358 . S
C477 H519 0.930 . S
C478 C479 1.348 . S
C478 C480 1.356 . S
C478 O503 1.325 . S
C479 C478 1.348 . S
C479 C481 1.353 . S
C479 H520 0.929 . S
C480 C478 1.356 . S
C480 C482 1.358 . S
C480 H521 0.930 . S
C481 C479 1.353 . S
C481 N483 1.314 . S
C481 H522 0.930 . S
C482 C480 1.358 . S
C482 N483 1.279 . S
C482 H523 0.930 . S
N483 C481 1.314 . S
N483 C482 1.279 . S
C484 C486 1.353 . S
C484 N487 1.314 . S
C484 H490 0.930 . S
C485 N487 1.279 . S
C485 C488 1.358 . S
C485 H491 0.930 . S
C486 C484 1.353 . S
C486 C489 1.348 . S
C486 H524 0.929 . S
N487 Li442 1.990 1_565 S
N487 C484 1.314 . S
N487 C485 1.279 . S
C488 C485 1.358 . S
C488 C489 1.356 . S
C488 H525 0.930 . S
C489 C486 1.348 . S
C489 C488 1.356 . S
H490 C484 0.930 . S
H491 C485 0.930 . S
C492 N493 1.314 . S
C492 C494 1.353 . S
C492 H498 0.930 . S
N493 Li443 1.990 . S
N493 C492 1.314 . S
N493 C496 1.279 . S
C494 C492 1.353 . S
C494 C497 1.348 . S
C494 H526 0.929 . S
C495 C496 1.358 . S
C495 C497 1.356 . S
C495 H527 0.930 . S
C496 N493 1.279 . S
C496 C495 1.358 . S
C496 H499 0.930 . S
C497 C494 1.348 . S
C497 C495 1.356 . S
H498 C492 0.930 . S
H499 C496 0.930 . S
O500 Li440 1.956 . S
O500 Li441 1.970 . S
O500 Li442 1.961 . S
O500 C444 1.325 . S
O501 Li440 1.970 . S
O501 Li441 1.956 . S
O501 Li443 1.961 . S
O501 C450 1.325 . S
O502 Li440 1.961 . S
O502 Li442 1.956 . S
O502 Li443 1.970 . S
O502 C472 1.325 . S
O503 Li441 1.961 . S
O503 Li442 1.970 . S
O503 Li443 1.956 . S
O503 C478 1.325 . S
H504 C446 0.929 . S
H505 C447 0.930 . S
H506 C448 0.927 1_545 S
H507 C449 0.930 . S
H508 C451 0.930 . S
H509 C453 0.929 . S
H510 C454 0.930 . S
H511 C455 0.930 . S
H512 C458 0.930 . S
H513 C461 0.929 . S
H514 C466 0.929 . S
H515 C467 0.930 . S
H516 C474 0.929 . S
H517 C475 0.930 . S
H518 C476 0.930 . S
H519 C477 0.930 . S
H520 C479 0.929 . S
H521 C480 0.930 . S
H522 C481 0.930 . S
H523 C482 0.930 . S
H524 C486 0.929 . S
H525 C488 0.930 . S
H526 C494 0.929 . S
H527 C495 0.930 . S
Li528 N545 1.990 . S
Li528 O588 1.956 . S
Li528 O589 1.970 . S
Li528 O590 1.961 . S
Li529 N553 1.990 . S
Li529 O588 1.970 . S
Li529 O589 1.956 . S
Li529 O591 1.961 . S
Li530 N575 1.990 . S
Li530 O588 1.961 . S
Li530 O590 1.956 . S
Li530 O591 1.970 . S
Li531 N581 1.990 . S
Li531 O589 1.961 . S
Li531 O590 1.970 . S
Li531 O591 1.956 . S
C532 C534 1.348 . S
C532 C535 1.356 . S
C532 O588 1.325 . S
N533 C536 1.314 . S
N533 C537 1.279 1_554 S
C534 C532 1.348 . S
C534 C536 1.353 1_556 S
C534 H592 0.929 1_556 S
C535 C532 1.356 . S
C535 C537 1.358 . S
C535 H593 0.930 . S
C536 N533 1.314 . S
C536 C534 1.353 1_554 S
C536 H594 0.930 . S
C537 N533 1.279 1_556 S
C537 C535 1.358 . S
C537 H595 0.930 . S
C538 C541 1.348 . S
C538 C542 1.356 . S
C538 O589 1.325 . S
C539 N540 1.279 . S
C539 C542 1.358 . S
C539 H596 0.930 . S
N540 C539 1.279 . S
N540 C543 1.314 . S
C541 C538 1.348 . S
C541 C543 1.353 . S
C541 H597 0.929 . S
C542 C538 1.356 . S
C542 C539 1.358 . S
C542 H598 0.930 . S
C543 N540 1.314 . S
C543 C541 1.353 . S
C543 H599 0.930 . S
C544 N545 1.314 . S
C544 C549 1.353 . S
C544 H550 0.930 . S
N545 Li528 1.990 . S
N545 C544 1.314 . S
N545 C547 1.279 . S
C546 C547 1.358 . S
C546 C548 1.356 . S
C546 H600 0.930 . S
C547 N545 1.279 . S
C547 C546 1.358 . S
C547 H551 0.930 . S
C548 C546 1.356 . S
C548 C549 1.348 . S
C549 C544 1.353 . S
C549 C548 1.348 . S
C549 H601 0.929 . S
H550 C544 0.930 . S
H551 C547 0.930 . S
C552 N553 1.314 . S
C552 C554 1.353 1_556 S
C552 H558 0.930 . S
N553 Li529 1.990 . S
N553 C552 1.314 . S
N553 C556 1.279 . S
C554 C552 1.353 1_554 S
C554 C557 1.348 . S
C554 H602 0.929 . S
C555 C556 1.358 1_554 S
C555 C557 1.356 . S
C555 H603 0.930 . S
C556 N553 1.279 . S
C556 C555 1.358 1_556 S
C556 H559 0.930 . S
C557 C554 1.348 . S
C557 C555 1.356 . S
H558 C552 0.930 . S
H559 C556 0.930 . S
C560 C562 1.348 . S
C560 C563 1.356 . S
C560 O590 1.325 . S
N561 C564 1.314 . S
N561 C565 1.279 . S
C562 C560 1.348 . S
C562 C564 1.353 . S
C562 H604 0.929 . S
C563 C560 1.356 . S
C563 C565 1.358 . S
C563 H605 0.930 . S
C564 N561 1.314 . S
C564 C562 1.353 . S
C564 H606 0.930 . S
C565 N561 1.279 . S
C565 C563 1.358 . S
C565 H607 0.930 . S
C566 C567 1.348 . S
C566 C568 1.356 . S
C566 O591 1.325 . S
C567 C566 1.348 . S
C567 C569 1.353 . S
C567 H608 0.929 . S
C568 C566 1.356 . S
C568 C570 1.358 . S
C568 H609 0.930 . S
C569 C567 1.353 . S
C569 N571 1.314 . S
C569 H610 0.930 . S
C570 C568 1.358 . S
C570 N571 1.279 . S
C570 H611 0.930 . S
N571 C569 1.314 . S
N571 C570 1.279 . S
C572 C574 1.353 . S
C572 N575 1.314 . S
C572 H578 0.930 . S
C573 N575 1.279 . S
C573 C576 1.358 . S
C573 H579 0.930 . S
C574 C572 1.353 . S
C574 C577 1.348 . S
C574 H612 0.929 . S
N575 Li530 1.990 . S
N575 C572 1.314 . S
N575 C573 1.279 . S
C576 C573 1.358 . S
C576 C577 1.356 . S
C576 H613 0.930 . S
C577 C574 1.348 . S
C577 C576 1.356 . S
H578 C572 0.930 . S
H579 C573 0.930 . S
C580 N581 1.314 . S
C580 C582 1.353 . S
C580 H586 0.930 . S
N581 Li531 1.990 . S
N581 C580 1.314 . S
N581 C584 1.279 . S
C582 C580 1.353 . S
C582 C585 1.348 . S
C582 H614 0.929 . S
C583 C584 1.358 . S
C583 C585 1.356 . S
C583 H615 0.930 . S
C584 N581 1.279 . S
C584 C583 1.358 . S
C584 H587 0.930 . S
C585 C582 1.348 . S
C585 C583 1.356 . S
H586 C580 0.930 . S
H587 C584 0.930 . S
O588 Li528 1.956 . S
O588 Li529 1.970 . S
O588 Li530 1.961 . S
O588 C532 1.325 . S
O589 Li528 1.970 . S
O589 Li529 1.956 . S
O589 Li531 1.961 . S
O589 C538 1.325 . S
O590 Li528 1.961 . S
O590 Li530 1.956 . S
O590 Li531 1.970 . S
O590 C560 1.325 . S
O591 Li529 1.961 . S
O591 Li530 1.970 . S
O591 Li531 1.956 . S
O591 C566 1.325 . S
H592 C534 0.929 1_554 S
H593 C535 0.930 . S
H594 C536 0.930 . S
H595 C537 0.930 . S
H596 C539 0.930 . S
H597 C541 0.929 . S
H598 C542 0.930 . S
H599 C543 0.930 . S
H600 C546 0.930 . S
H601 C549 0.929 . S
H602 C554 0.929 . S
H603 C555 0.930 . S
H604 C562 0.929 . S
H605 C563 0.930 . S
H606 C564 0.930 . S
H607 C565 0.930 . S
H608 C567 0.929 . S
H609 C568 0.930 . S
H610 C569 0.930 . S
H611 C570 0.930 . S
H612 C574 0.929 . S
H613 C576 0.930 . S
H614 C582 0.929 . S
H615 C583 0.930 . S
Li616 N633 1.990 . S
Li616 O676 1.956 . S
Li616 O677 1.970 . S
Li616 O678 1.961 . S
Li617 N641 1.990 . S
Li617 O676 1.970 . S
Li617 O677 1.956 . S
Li617 O679 1.961 . S
Li618 N663 1.990 . S
Li618 O676 1.961 . S
Li618 O678 1.956 . S
Li618 O679 1.970 . S
Li619 N669 1.990 . S
Li619 O677 1.961 . S
Li619 O678 1.970 . S
Li619 O679 1.956 . S
C620 C622 1.348 . S
C620 C623 1.356 . S
C620 O676 1.325 . S
N621 C624 1.314 . S
N621 C625 1.279 . S
C622 C620 1.348 . S
C622 C624 1.353 . S
C622 H680 0.929 . S
C623 C620 1.356 . S
C623 C625 1.358 . S
C623 H681 0.930 . S
C624 N621 1.314 . S
C624 C622 1.353 . S
C624 H682 0.930 . S
C625 N621 1.279 . S
C625 C623 1.358 . S
C625 H683 0.930 . S
C626 C629 1.348 . S
C626 C630 1.356 . S
C626 O677 1.325 . S
C627 N628 1.279 . S
C627 C630 1.358 . S
C627 H684 0.930 . S
N628 C627 1.279 . S
N628 C631 1.314 . S
C629 C626 1.348 . S
C629 C631 1.353 . S
C629 H685 0.929 . S
C630 C626 1.356 . S
C630 C627 1.358 . S
C630 H686 0.930 . S
C631 N628 1.314 . S
C631 C629 1.353 . S
C631 H687 0.930 . S
C632 N633 1.314 . S
C632 C637 1.353 . S
C632 H638 0.930 . S
N633 Li616 1.990 . S
N633 C632 1.314 . S
N633 C635 1.279 . S
C634 C635 1.358 . S
C634 C636 1.356 . S
C634 H688 0.930 . S
C635 N633 1.279 . S
C635 C634 1.358 . S
C635 H639 0.930 . S
C636 C634 1.356 . S
C636 C637 1.348 . S
C637 C632 1.353 . S
C637 C636 1.348 . S
C637 H689 0.929 . S
H638 C632 0.930 . S
H639 C635 0.930 . S
C640 N641 1.314 . S
C640 C642 1.353 . S
C640 H646 0.930 . S
N641 Li617 1.990 . S
N641 C640 1.314 . S
N641 C644 1.279 . S
C642 C640 1.353 . S
C642 C645 1.348 . S
C642 H690 0.929 . S
C643 C644 1.358 . S
C643 C645 1.356 . S
C643 H691 0.930 . S
C644 N641 1.279 . S
C644 C643 1.358 . S
C644 H647 0.930 . S
C645 C642 1.348 . S
C645 C643 1.356 . S
H646 C640 0.930 . S
H647 C644 0.930 . S
C648 C650 1.348 . S
C648 C651 1.356 . S
C648 O678 1.325 . S
N649 C652 1.314 . S
N649 C653 1.279 . S
C650 C648 1.348 . S
C650 C652 1.353 . S
C650 H692 0.929 . S
C651 C648 1.356 . S
C651 C653 1.358 . S
C651 H693 0.930 . S
C652 N649 1.314 . S
C652 C650 1.353 . S
C652 H694 0.930 . S
C653 N649 1.279 . S
C653 C651 1.358 . S
C653 H695 0.930 . S
C654 C655 1.348 . S
C654 C656 1.356 . S
C654 O679 1.325 . S
C655 C654 1.348 . S
C655 C657 1.353 . S
C655 H696 0.929 . S
C656 C654 1.356 . S
C656 C658 1.358 . S
C656 H697 0.930 . S
C657 C655 1.353 . S
C657 N659 1.314 . S
C657 H698 0.930 . S
C658 C656 1.358 . S
C658 N659 1.279 . S
C658 H699 0.930 . S
N659 C657 1.314 . S
N659 C658 1.279 . S
C660 C662 1.353 . S
C660 N663 1.314 . S
C660 H666 0.930 . S
C661 N663 1.279 . S
C661 C664 1.358 . S
C661 H667 0.930 . S
C662 C660 1.353 . S
C662 C665 1.348 . S
C662 H700 0.929 . S
N663 Li618 1.990 . S
N663 C660 1.314 . S
N663 C661 1.279 . S
C664 C661 1.358 . S
C664 C665 1.356 . S
C664 H701 0.930 . S
C665 C662 1.348 . S
C665 C664 1.356 . S
H666 C660 0.930 . S
H667 C661 0.930 . S
C668 N669 1.314 . S
C668 C670 1.353 . S
C668 H674 0.930 . S
N669 Li619 1.990 . S
N669 C668 1.314 . S
N669 C672 1.279 . S
C670 C668 1.353 . S
C670 C673 1.348 . S
C670 H702 0.929 . S
C671 C672 1.358 . S
C671 C673 1.356 . S
C671 H703 0.930 . S
C672 N669 1.279 . S
C672 C671 1.358 . S
C672 H675 0.930 . S
C673 C670 1.348 . S
C673 C671 1.356 . S
H674 C668 0.930 . S
H675 C672 0.930 . S
O676 Li616 1.956 . S
O676 Li617 1.970 . S
O676 Li618 1.961 . S
O676 C620 1.325 . S
O677 Li616 1.970 . S
O677 Li617 1.956 . S
O677 Li619 1.961 . S
O677 C626 1.325 . S
O678 Li616 1.961 . S
O678 Li618 1.956 . S
O678 Li619 1.970 . S
O678 C648 1.325 . S
O679 Li617 1.961 . S
O679 Li618 1.970 . S
O679 Li619 1.956 . S
O679 C654 1.325 . S
H680 C622 0.929 . S
H681 C623 0.930 . S
H682 C624 0.930 . S
H683 C625 0.930 . S
H684 C627 0.930 . S
H685 C629 0.929 . S
H686 C630 0.930 . S
H687 C631 0.930 . S
H688 C634 0.930 . S
H689 C637 0.929 . S
H690 C642 0.929 . S
H691 C643 0.930 . S
H692 C650 0.929 . S
H693 C651 0.930 . S
H694 C652 0.930 . S
H695 C653 0.930 . S
H696 C655 0.929 . S
H697 C656 0.930 . S
H698 C657 0.930 . S
H699 C658 0.930 . S
H700 C662 0.929 . S
H701 C664 0.930 . S
H702 C670 0.929 . S
H703 C671 0.930 . S
Li704 N721 1.990 . S
Li704 O764 1.956 . S
Li704 O765 1.970 . S
Li704 O766 1.961 . S
Li705 N729 1.990 . S
Li705 O764 1.970 . S
Li705 O765 1.956 . S
Li705 O767 1.961 . S
Li706 N751 1.990 1_655 S
Li706 O764 1.961 . S
Li706 O766 1.956 . S
Li706 O767 1.970 . S
Li707 N757 1.990 . S
Li707 O765 1.961 . S
Li707 O766 1.970 . S
Li707 O767 1.956 . S
C708 C710 1.348 . S
C708 C711 1.356 1_655 S
C708 O764 1.325 . S
N709 C712 1.314 . S
N709 C713 1.279 . S
C710 C708 1.348 . S
C710 C712 1.353 1_656 S
C710 H768 0.929 . S
C711 C708 1.356 1_455 S
C711 C713 1.358 1_556 S
C711 H769 0.930 . S
C712 N709 1.314 . S
C712 C710 1.353 1_454 S
C712 H770 0.930 . S
C713 N709 1.279 . S
C713 C711 1.358 1_554 S
C713 H771 0.930 . S
C714 C717 1.348 . S
C714 C718 1.356 . S
C714 O765 1.325 . S
C715 N716 1.279 . S
C715 C718 1.358 . S
C715 H772 0.930 . S
N716 C715 1.279 . S
N716 C719 1.314 . S
C717 C714 1.348 . S
C717 C719 1.353 . S
C717 H773 0.929 . S
C718 C714 1.356 . S
C718 C715 1.358 . S
C718 H774 0.930 . S
C719 N716 1.314 . S
C719 C717 1.353 . S
C719 H775 0.930 . S
C720 N721 1.314 . S
C720 C725 1.354 1_556 S
C720 H726 0.930 . S
N721 Li704 1.990 . S
N721 C720 1.314 . S
N721 C723 1.279 1_556 S
C722 C723 1.358 . S
C722 C724 1.356 . S
C722 H776 0.930 . S
C723 N721 1.279 1_554 S
C723 C722 1.358 . S
C723 H727 0.930 . S
C724 C722 1.356 . S
C724 C725 1.347 . S
C725 C720 1.354 1_554 S
C725 C724 1.347 . S
C725 H777 0.930 1_554 S
H726 C720 0.930 . S
H727 C723 0.930 . S
C728 N729 1.314 . S
C728 C730 1.353 . S
C728 H734 0.881 1_655 S
N729 Li705 1.990 . S
N729 C728 1.314 . S
N729 C732 1.279 . S
C730 C728 1.353 . S
C730 C733 1.348 . S
C730 H778 0.929 1_655 S
C731 C732 1.358 . S
C731 C733 1.356 . S
C731 H779 0.930 . S
C732 N729 1.279 . S
C732 C731 1.358 . S
C732 H735 0.930 . S
C733 C730 1.348 . S
C733 C731 1.356 . S
H734 C728 0.881 1_455 S
H735 C732 0.930 . S
C736 C738 1.348 . S
C736 C739 1.356 . S
C736 O766 1.325 . S
N737 C740 1.314 . S
N737 C741 1.279 . S
C738 C736 1.348 . S
C738 C740 1.353 . S
C738 H780 0.929 . S
C739 C736 1.356 . S
C739 C741 1.358 . S
C739 H781 0.930 . S
C740 N737 1.314 . S
C740 C738 1.353 . S
C740 H782 0.930 . S
C741 N737 1.279 . S
C741 C739 1.358 . S
C741 H783 0.930 . S
C742 C743 1.348 1_655 S
C742 C744 1.356 . S
C742 O767 1.325 . S
C743 C742 1.348 1_455 S
C743 C745 1.353 . S
C743 H784 0.929 . S
C744 C742 1.356 . S
C744 C746 1.358 . S
C744 H785 0.930 . S
C745 C743 1.353 . S
C745 N747 1.314 . S
C745 H786 0.930 . S
C746 C744 1.358 . S
C746 N747 1.279 1_655 S
C746 H787 0.930 . S
N747 C745 1.314 . S
N747 C746 1.279 1_455 S
C748 C750 1.353 . S
C748 N751 1.314 . S
C748 H754 0.930 . S
C749 N751 1.279 . S
C749 C752 1.358 . S
C749 H755 0.930 . S
C750 C748 1.353 . S
C750 C753 1.348 . S
C750 H788 0.929 . S
N751 Li706 1.990 1_455 S
N751 C748 1.314 . S
N751 C749 1.279 . S
C752 C749 1.358 . S
C752 C753 1.356 . S
C752 H789 0.930 . S
C753 C750 1.348 . S
C753 C752 1.356 . S
H754 C748 0.930 . S
H755 C749 0.930 . S
C756 N757 1.314 . S
C756 C758 1.353 . S
C756 H762 0.930 . S
N757 Li707 1.990 . S
N757 C756 1.314 . S
N757 C760 1.279 . S
C758 C756 1.353 . S
C758 C761 1.348 . S
C758 H790 0.929 . S
C759 C760 1.358 . S
C759 C761 1.356 . S
C759 H791 0.930 . S
C760 N757 1.279 . S
C760 C759 1.358 . S
C760 H763 0.930 . S
C761 C758 1.348 . S
C761 C759 1.356 . S
H762 C756 0.930 . S
H763 C760 0.930 . S
O764 Li704 1.956 . S
O764 Li705 1.970 . S
O764 Li706 1.961 . S
O764 C708 1.325 . S
O765 Li704 1.970 . S
O765 Li705 1.956 . S
O765 Li707 1.961 . S
O765 C714 1.325 . S
O766 Li704 1.961 . S
O766 Li706 1.956 . S
O766 Li707 1.970 . S
O766 C736 1.325 . S
O767 Li705 1.961 . S
O767 Li706 1.970 . S
O767 Li707 1.956 . S
O767 C742 1.325 . S
H768 C710 0.929 . S
H769 C711 0.930 . S
H770 C712 0.930 . S
H771 C713 0.930 . S
H772 C715 0.930 . S
H773 C717 0.929 . S
H774 C718 0.930 . S
H775 C719 0.930 . S
H776 C722 0.930 . S
H777 C725 0.930 1_556 S
H778 C730 0.929 1_455 S
H779 C731 0.930 . S
H780 C738 0.929 . S
H781 C739 0.930 . S
H782 C740 0.930 . S
H783 C741 0.930 . S
H784 C743 0.929 . S
H785 C744 0.930 . S
H786 C745 0.930 . S
H787 C746 0.930 . S
H788 C750 0.929 . S
H789 C752 0.930 . S
H790 C758 0.929 . S
H791 C759 0.930 . S
Li792 N809 1.990 . S
Li792 O852 1.956 . S
Li792 O853 1.970 . S
Li792 O854 1.961 . S
Li793 N817 1.990 . S
Li793 O852 1.970 . S
Li793 O853 1.956 . S
Li793 O855 1.961 . S
Li794 N839 1.990 1_565 S
Li794 O852 1.961 . S
Li794 O854 1.956 . S
Li794 O855 1.970 . S
Li795 N845 1.990 . S
Li795 O853 1.961 . S
Li795 O854 1.970 . S
Li795 O855 1.956 . S
C796 C798 1.348 . S
C796 C799 1.356 1_565 S
C796 O852 1.325 . S
N797 C800 1.314 . S
N797 C801 1.279 . S
C798 C796 1.348 . S
C798 C800 1.353 1_565 S
C798 H856 0.929 . S
C799 C796 1.356 1_545 S
C799 C801 1.358 . S
C799 H857 0.930 . S
C800 N797 1.314 . S
C800 C798 1.353 1_545 S
C800 H858 0.930 . S
C801 N797 1.279 . S
C801 C799 1.358 . S
C801 H859 0.930 . S
C802 C805 1.348 . S
C802 C806 1.356 . S
C802 O853 1.325 . S
C803 N804 1.279 . S
C803 C806 1.358 . S
C803 H860 0.930 . S
N804 C803 1.279 . S
N804 C807 1.314 . S
C805 C802 1.348 . S
C805 C807 1.353 . S
C805 H861 0.929 . S
C806 C802 1.356 . S
C806 C803 1.358 . S
C806 H862 0.930 . S
C807 N804 1.314 . S
C807 C805 1.353 . S
C807 H863 0.930 . S
C808 N809 1.314 . S
C808 C813 1.353 . S
C808 H814 0.930 . S
N809 Li792 1.990 . S
N809 C808 1.314 . S
N809 C811 1.279 . S
C810 C811 1.358 . S
C810 C812 1.356 . S
C810 H864 0.930 . S
C811 N809 1.279 . S
C811 C810 1.358 . S
C811 H815 0.930 . S
C812 C810 1.356 . S
C812 C813 1.348 . S
C813 C808 1.353 . S
C813 C812 1.348 . S
C813 H865 0.929 . S
H814 C808 0.930 . S
H815 C811 0.930 . S
C816 N817 1.314 . S
C816 C818 1.353 . S
C816 H822 0.881 1_565 S
N817 Li793 1.990 . S
N817 C816 1.314 . S
N817 C820 1.279 . S
C818 C816 1.353 . S
C818 C821 1.348 . S
C818 H866 0.929 1_565 S
C819 C820 1.358 . S
C819 C821 1.356 . S
C819 H867 0.930 . S
C820 N817 1.279 . S
C820 C819 1.358 . S
C820 H823 0.930 . S
C821 C818 1.348 . S
C821 C819 1.356 . S
H822 C816 0.881 1_545 S
H823 C820 0.930 . S
C824 C826 1.348 . S
C824 C827 1.356 . S
C824 O854 1.325 . S
N825 C828 1.314 . S
N825 C829 1.279 . S
C826 C824 1.348 . S
C826 C828 1.353 . S
C826 H868 0.929 . S
C827 C824 1.356 . S
C827 C829 1.358 . S
C827 H869 0.930 . S
C828 N825 1.314 . S
C828 C826 1.353 . S
C828 H870 0.930 . S
C829 N825 1.279 . S
C829 C827 1.358 . S
C829 H871 0.930 . S
C830 C831 1.348 1_565 S
C830 C832 1.356 . S
C830 O855 1.325 . S
C831 C830 1.348 1_545 S
C831 C833 1.353 . S
C831 H872 0.929 . S
C832 C830 1.356 . S
C832 C834 1.358 . S
C832 H873 0.930 . S
C833 C831 1.353 . S
C833 N835 1.314 . S
C833 H874 0.930 . S
C834 C832 1.358 . S
C834 N835 1.279 1_565 S
C834 H875 0.930 . S
N835 C833 1.314 . S
N835 C834 1.279 1_545 S
C836 C838 1.353 . S
C836 N839 1.314 . S
C836 H842 0.930 . S
C837 N839 1.279 . S
C837 C840 1.358 . S
C837 H843 0.930 . S
C838 C836 1.353 . S
C838 C841 1.348 . S
C838 H876 0.929 . S
N839 Li794 1.990 1_545 S
N839 C836 1.314 . S
N839 C837 1.279 . S
C840 C837 1.358 . S
C840 C841 1.356 . S
C840 H877 0.930 . S
C841 C838 1.348 . S
C841 C840 1.356 . S
H842 C836 0.930 . S
H843 C837 0.930 . S
C844 N845 1.314 . S
C844 C846 1.353 . S
C844 H850 0.930 . S
N845 Li795 1.990 . S
N845 C844 1.314 . S
N845 C848 1.279 . S
C846 C844 1.353 . S
C846 C849 1.348 . S
C846 H878 0.929 . S
C847 C848 1.358 . S
C847 C849 1.356 . S
C847 H879 0.930 . S
C848 N845 1.279 . S
C848 C847 1.358 . S
C848 H851 0.930 . S
C849 C846 1.348 . S
C849 C847 1.356 . S
H850 C844 0.930 . S
H851 C848 0.930 . S
O852 Li792 1.956 . S
O852 Li793 1.970 . S
O852 Li794 1.961 . S
O852 C796 1.325 . S
O853 Li792 1.970 . S
O853 Li793 1.956 . S
O853 Li795 1.961 . S
O853 C802 1.325 . S
O854 Li792 1.961 . S
O854 Li794 1.956 . S
O854 Li795 1.970 . S
O854 C824 1.325 . S
O855 Li793 1.961 . S
O855 Li794 1.970 . S
O855 Li795 1.956 . S
O855 C830 1.325 . S
H856 C798 0.929 . S
H857 C799 0.930 . S
H858 C800 0.930 . S
H859 C801 0.930 . S
H860 C803 0.930 . S
H861 C805 0.929 . S
H862 C806 0.930 . S
H863 C807 0.930 . S
H864 C810 0.930 . S
H865 C813 0.929 . S
H866 C818 0.929 1_545 S
H867 C819 0.930 . S
H868 C826 0.929 . S
H869 C827 0.930 . S
H870 C828 0.930 . S
H871 C829 0.930 . S
H872 C831 0.929 . S
H873 C832 0.930 . S
H874 C833 0.930 . S
H875 C834 0.930 . S
H876 C838 0.929 . S
H877 C840 0.930 . S
H878 C846 0.929 . S
H879 C847 0.930 . S
Li880 N897 1.990 . S
Li880 O940 1.956 . S
Li880 O941 1.970 . S
Li880 O942 1.961 . S
Li881 N905 1.990 . S
Li881 O940 1.970 . S
Li881 O941 1.956 . S
Li881 O943 1.961 . S
Li882 N927 1.990 . S
Li882 O940 1.961 . S
Li882 O942 1.956 . S
Li882 O943 1.970 . S
Li883 N933 1.990 . S
Li883 O941 1.961 . S
Li883 O942 1.970 . S
Li883 O943 1.956 . S
C884 C886 1.348 . S
C884 C887 1.356 . S
C884 O940 1.325 . S
N885 C888 1.314 . S
N885 C889 1.279 . S
C886 C884 1.348 . S
C886 C888 1.353 . S
C886 H944 0.929 . S
C887 C884 1.356 . S
C887 C889 1.358 . S
C887 H945 0.930 . S
C888 N885 1.314 . S
C888 C886 1.353 . S
C888 H946 0.930 . S
C889 N885 1.279 . S
C889 C887 1.358 . S
C889 H947 0.930 . S
C890 C893 1.348 . S
C890 C894 1.356 . S
C890 O941 1.325 . S
C891 N892 1.279 . S
C891 C894 1.358 1_554 S
C891 H948 0.930 . S
N892 C891 1.279 . S
N892 C895 1.314 . S
C893 C890 1.348 . S
C893 C895 1.353 1_556 S
C893 H949 0.929 . S
C894 C890 1.356 . S
C894 C891 1.358 1_556 S
C894 H950 0.930 . S
C895 N892 1.314 . S
C895 C893 1.353 1_554 S
C895 H951 0.930 . S
C896 N897 1.314 . S
C896 C901 1.353 . S
C896 H902 0.930 . S
N897 Li880 1.990 . S
N897 C896 1.314 . S
N897 C899 1.279 . S
C898 C899 1.358 . S
C898 C900 1.356 . S
C898 H952 0.930 . S
C899 N897 1.279 . S
C899 C898 1.358 . S
C899 H903 0.930 . S
C900 C898 1.356 . S
C900 C901 1.348 . S
C901 C896 1.353 . S
C901 C900 1.348 . S
C901 H953 0.929 . S
H902 C896 0.930 . S
H903 C899 0.930 . S
C904 N905 1.314 . S
C904 C906 1.352 1_556 S
C904 H910 0.930 . S
N905 Li881 1.990 . S
N905 C904 1.314 . S
N905 C908 1.279 1_556 S
C906 C904 1.352 1_554 S
C906 C909 1.349 . S
C906 H954 0.929 1_554 S
C907 C908 1.358 . S
C907 C909 1.356 . S
C907 H955 0.930 . S
C908 N905 1.279 1_554 S
C908 C907 1.358 . S
C908 H911 0.930 . S
C909 C906 1.349 . S
C909 C907 1.356 . S
H910 C904 0.930 . S
H911 C908 0.930 . S
C912 C914 1.348 . S
C912 C915 1.356 . S
C912 O942 1.325 . S
N913 C916 1.314 . S
N913 C917 1.279 . S
C914 C912 1.348 . S
C914 C916 1.353 . S
C914 H956 0.929 . S
C915 C912 1.356 . S
C915 C917 1.358 . S
C915 H957 0.930 . S
C916 N913 1.314 . S
C916 C914 1.353 . S
C916 H958 0.930 . S
C917 N913 1.279 . S
C917 C915 1.358 . S
C917 H959 0.930 . S
C918 C919 1.348 . S
C918 C920 1.356 . S
C918 O943 1.325 . S
C919 C918 1.348 . S
C919 C921 1.353 . S
C919 H960 0.929 . S
C920 C918 1.356 . S
C920 C922 1.358 . S
C920 H961 0.930 . S
C921 C919 1.353 . S
C921 N923 1.314 . S
C921 H962 0.930 . S
C922 C920 1.358 . S
C922 N923 1.279 . S
C922 H963 0.930 . S
N923 C921 1.314 . S
N923 C922 1.279 . S
C924 C926 1.353 . S
C924 N927 1.314 . S
C924 H930 0.930 . S
C925 N927 1.279 . S
C925 C928 1.358 . S
C925 H931 0.930 . S
C926 C924 1.353 . S
C926 C929 1.348 . S
C926 H964 0.929 . S
N927 Li882 1.990 . S
N927 C924 1.314 . S
N927 C925 1.279 . S
C928 C925 1.358 . S
C928 C929 1.356 . S
C928 H965 0.930 . S
C929 C926 1.348 . S
C929 C928 1.356 . S
H930 C924 0.930 . S
H931 C925 0.930 . S
C932 N933 1.314 . S
C932 C934 1.353 . S
C932 H938 0.930 . S
N933 Li883 1.990 . S
N933 C932 1.314 . S
N933 C936 1.279 . S
C934 C932 1.353 . S
C934 C937 1.348 . S
C934 H966 0.929 . S
C935 C936 1.358 . S
C935 C937 1.356 . S
C935 H967 0.930 . S
C936 N933 1.279 . S
C936 C935 1.358 . S
C936 H939 0.930 . S
C937 C934 1.348 . S
C937 C935 1.356 . S
H938 C932 0.930 . S
H939 C936 0.930 . S
O940 Li880 1.956 . S
O940 Li881 1.970 . S
O940 Li882 1.961 . S
O940 C884 1.325 . S
O941 Li880 1.970 . S
O941 Li881 1.956 . S
O941 Li883 1.961 . S
O941 C890 1.325 . S
O942 Li880 1.961 . S
O942 Li882 1.956 . S
O942 Li883 1.970 . S
O942 C912 1.325 . S
O943 Li881 1.961 . S
O943 Li882 1.970 . S
O943 Li883 1.956 . S
O943 C918 1.325 . S
H944 C886 0.929 . S
H945 C887 0.930 . S
H946 C888 0.930 . S
H947 C889 0.930 . S
H948 C891 0.930 . S
H949 C893 0.929 . S
H950 C894 0.930 . S
H951 C895 0.930 . S
H952 C898 0.930 . S
H953 C901 0.929 . S
H954 C906 0.929 1_556 S
H955 C907 0.930 . S
H956 C914 0.929 . S
H957 C915 0.930 . S
H958 C916 0.930 . S
H959 C917 0.930 . S
H960 C919 0.929 . S
H961 C920 0.930 . S
H962 C921 0.930 . S
H963 C922 0.930 . S
H964 C926 0.929 . S
H965 C928 0.930 . S
H966 C934 0.929 . S
H967 C935 0.930 . S
Li968 N985 1.990 . S
Li968 O1028 1.956 . S
Li968 O1029 1.970 . S
Li968 O1030 1.961 . S
Li969 N993 1.990 . S
Li969 O1028 1.970 . S
Li969 O1029 1.956 . S
Li969 O1031 1.961 . S
Li970 N1015 1.990 . S
Li970 O1028 1.961 . S
Li970 O1030 1.956 . S
Li970 O1031 1.970 . S
Li971 N1021 1.990 . S
Li971 O1029 1.961 . S
Li971 O1030 1.970 . S
Li971 O1031 1.956 . S
C972 C974 1.348 . S
C972 C975 1.356 . S
C972 O1028 1.325 . S
N973 C976 1.314 . S
N973 C977 1.279 . S
C974 C972 1.348 . S
C974 C976 1.353 . S
C974 H1032 0.929 . S
C975 C972 1.356 . S
C975 C977 1.358 . S
C975 H1033 0.930 . S
C976 N973 1.314 . S
C976 C974 1.353 . S
C976 H1034 0.930 . S
C977 N973 1.279 . S
C977 C975 1.358 . S
C977 H1035 0.930 . S
C978 C981 1.348 . S
C978 C982 1.356 . S
C978 O1029 1.325 . S
C979 N980 1.279 . S
C979 C982 1.358 . S
C979 H1036 0.930 . S
N980 C979 1.279 . S
N980 C983 1.314 . S
C981 C978 1.348 . S
C981 C983 1.353 . S
C981 H1037 0.929 . S
C982 C978 1.356 . S
C982 C979 1.358 . S
C982 H1038 0.930 . S
C983 N980 1.314 . S
C983 C981 1.353 . S
C983 H1039 0.930 . S
C984 N985 1.314 . S
C984 C989 1.353 . S
C984 H990 0.930 . S
N985 Li968 1.990 . S
N985 C984 1.314 . S
N985 C987 1.279 . S
C986 C987 1.358 . S
C986 C988 1.356 . S
C986 H1040 0.930 . S
C987 N985 1.279 . S
C987 C986 1.358 . S
C987 H991 0.930 . S
C988 C986 1.356 . S
C988 C989 1.348 . S
C989 C984 1.353 . S
C989 C988 1.348 . S
C989 H1041 0.929 . S
H990 C984 0.930 . S
H991 C987 0.930 . S
C992 N993 1.314 . S
C992 C994 1.353 . S
C992 H998 0.930 . S
N993 Li969 1.990 . S
N993 C992 1.314 . S
N993 C996 1.279 . S
C994 C992 1.353 . S
C994 C997 1.348 . S
C994 H1042 0.929 . S
C995 C996 1.358 . S
C995 C997 1.356 . S
C995 H1043 0.930 . S
C996 N993 1.279 . S
C996 C995 1.358 . S
C996 H999 0.930 . S
C997 C994 1.348 . S
C997 C995 1.356 . S
H998 C992 0.930 . S
H999 C996 0.930 . S
C1000 C1002 1.348 . S
C1000 C1003 1.356 . S
C1000 O1030 1.325 . S
N1001 C1004 1.314 . S
N1001 C1005 1.279 . S
C1002 C1000 1.348 . S
C1002 C1004 1.353 . S
C1002 H1044 0.929 . S
C1003 C1000 1.356 . S
C1003 C1005 1.358 . S
C1003 H1045 0.930 . S
C1004 N1001 1.314 . S
C1004 C1002 1.353 . S
C1004 H1046 0.930 . S
C1005 N1001 1.279 . S
C1005 C1003 1.358 . S
C1005 H1047 0.930 . S
C1006 C1007 1.348 . S
C1006 C1008 1.356 . S
C1006 O1031 1.325 . S
C1007 C1006 1.348 . S
C1007 C1009 1.353 . S
C1007 H1048 0.929 . S
C1008 C1006 1.356 . S
C1008 C1010 1.358 . S
C1008 H1049 0.930 . S
C1009 C1007 1.353 . S
C1009 N1011 1.314 . S
C1009 H1050 0.930 . S
C1010 C1008 1.358 . S
C1010 N1011 1.279 . S
C1010 H1051 0.930 . S
N1011 C1009 1.314 . S
N1011 C1010 1.279 . S
C1012 C1014 1.353 . S
C1012 N1015 1.314 . S
C1012 H1018 0.930 . S
C1013 N1015 1.279 . S
C1013 C1016 1.358 . S
C1013 H1019 0.930 . S
C1014 C1012 1.353 . S
C1014 C1017 1.348 . S
C1014 H1052 0.929 . S
N1015 Li970 1.990 . S
N1015 C1012 1.314 . S
N1015 C1013 1.279 . S
C1016 C1013 1.358 . S
C1016 C1017 1.356 . S
C1016 H1053 0.930 . S
C1017 C1014 1.348 . S
C1017 C1016 1.356 . S
H1018 C1012 0.930 . S
H1019 C1013 0.930 . S
C1020 N1021 1.314 . S
C1020 C1022 1.353 . S
C1020 H1026 0.930 . S
N1021 Li971 1.990 . S
N1021 C1020 1.314 . S
N1021 C1024 1.279 . S
C1022 C1020 1.353 . S
C1022 C1025 1.348 . S
C1022 H1054 0.929 . S
C1023 C1024 1.358 . S
C1023 C1025 1.356 . S
C1023 H1055 0.930 . S
C1024 N1021 1.279 . S
C1024 C1023 1.358 . S
C1024 H1027 0.930 . S
C1025 C1022 1.348 . S
C1025 C1023 1.356 . S
H1026 C1020 0.930 . S
H1027 C1024 0.930 . S
O1028 Li968 1.956 . S
O1028 Li969 1.970 . S
O1028 Li970 1.961 . S
O1028 C972 1.325 . S
O1029 Li968 1.970 . S
O1029 Li969 1.956 . S
O1029 Li971 1.961 . S
O1029 C978 1.325 . S
O1030 Li968 1.961 . S
O1030 Li970 1.956 . S
O1030 Li971 1.970 . S
O1030 C1000 1.325 . S
O1031 Li969 1.961 . S
O1031 Li970 1.970 . S
O1031 Li971 1.956 . S
O1031 C1006 1.325 . S
H1032 C974 0.929 . S
H1033 C975 0.930 . S
H1034 C976 0.930 . S
H1035 C977 0.930 . S
H1036 C979 0.930 . S
H1037 C981 0.929 . S
H1038 C982 0.930 . S
H1039 C983 0.930 . S
H1040 C986 0.930 . S
H1041 C989 0.929 . S
H1042 C994 0.929 . S
H1043 C995 0.930 . S
H1044 C1002 0.929 . S
H1045 C1003 0.930 . S
H1046 C1004 0.930 . S
H1047 C1005 0.930 . S
H1048 C1007 0.929 . S
H1049 C1008 0.930 . S
H1050 C1009 0.930 . S
H1051 C1010 0.930 . S
H1052 C1014 0.929 . S
H1053 C1016 0.930 . S
H1054 C1022 0.929 . S
H1055 C1023 0.930 . S
Li1056 N1073 1.990 . S
Li1056 O1116 1.956 . S
Li1056 O1117 1.970 . S
Li1056 O1118 1.961 . S
Li1057 N1081 1.990 1_655 S
Li1057 O1116 1.970 . S
Li1057 O1117 1.956 . S
Li1057 O1119 1.961 . S
Li1058 N1103 1.990 . S
Li1058 O1116 1.961 . S
Li1058 O1118 1.956 . S
Li1058 O1119 1.970 . S
Li1059 N1109 1.990 . S
Li1059 O1117 1.961 . S
Li1059 O1118 1.970 . S
Li1059 O1119 1.956 . S
C1060 C1062 1.348 1_655 S
C1060 C1063 1.356 . S
C1060 O1116 1.325 . S
N1061 C1064 1.314 . S
N1061 C1065 1.279 1_455 S
C1062 C1060 1.348 1_455 S
C1062 C1064 1.353 . S
C1062 H1120 0.929 . S
C1063 C1060 1.356 . S
C1063 C1065 1.358 . S
C1063 H1121 0.930 . S
C1064 N1061 1.314 . S
C1064 C1062 1.353 . S
C1064 H1122 0.930 . S
C1065 N1061 1.279 1_655 S
C1065 C1063 1.358 . S
C1065 H1123 0.930 . S
C1066 C1069 1.348 . S
C1066 C1070 1.356 . S
C1066 O1117 1.325 . S
C1067 N1068 1.279 . S
C1067 C1070 1.358 . S
C1067 H1124 0.930 . S
N1068 C1067 1.279 . S
N1068 C1071 1.314 . S
C1069 C1066 1.348 . S
C1069 C1071 1.353 . S
C1069 H1125 0.929 . S
C1070 C1066 1.356 . S
C1070 C1067 1.358 . S
C1070 H1126 0.930 . S
C1071 N1068 1.314 . S
C1071 C1069 1.353 . S
C1071 H1127 0.930 . S
C1072 N1073 1.314 . S
C1072 C1077 1.353 . S
C1072 H1078 0.930 . S
N1073 Li1056 1.990 . S
N1073 C1072 1.314 . S
N1073 C1075 1.279 . S
C1074 C1075 1.358 . S
C1074 C1076 1.356 . S
C1074 H1128 0.930 . S
C1075 N1073 1.279 . S
C1075 C1074 1.358 . S
C1075 H1079 0.930 . S
C1076 C1074 1.356 . S
C1076 C1077 1.348 . S
C1077 C1072 1.353 . S
C1077 C1076 1.348 . S
C1077 H1129 0.929 . S
H1078 C1072 0.930 . S
H1079 C1075 0.930 . S
C1080 N1081 1.314 . S
C1080 C1082 1.353 . S
C1080 H1086 0.930 . S
N1081 Li1057 1.990 1_455 S
N1081 C1080 1.314 . S
N1081 C1084 1.279 . S
C1082 C1080 1.353 . S
C1082 C1085 1.348 . S
C1082 H1130 0.929 . S
C1083 C1084 1.358 . S
C1083 C1085 1.356 . S
C1083 H1131 0.930 . S
C1084 N1081 1.279 . S
C1084 C1083 1.358 . S
C1084 H1087 0.930 . S
C1085 C1082 1.348 . S
C1085 C1083 1.356 . S
H1086 C1080 0.930 . S
H1087 C1084 0.930 . S
C1088 C1090 1.348 . S
C1088 C1091 1.356 . S
C1088 O1118 1.325 . S
N1089 C1092 1.314 . S
N1089 C1093 1.279 . S
C1090 C1088 1.348 . S
C1090 C1092 1.353 . S
C1090 H1132 0.929 . S
C1091 C1088 1.356 . S
C1091 C1093 1.358 . S
C1091 H1133 0.930 . S
C1092 N1089 1.314 . S
C1092 C1090 1.353 . S
C1092 H1134 0.930 . S
C1093 N1089 1.279 . S
C1093 C1091 1.358 . S
C1093 H1135 0.930 . S
C1094 C1095 1.348 . S
C1094 C1096 1.356 1_655 S
C1094 O1119 1.325 . S
C1095 C1094 1.348 . S
C1095 C1097 1.353 1_654 S
C1095 H1136 0.929 . S
C1096 C1094 1.356 1_455 S
C1096 C1098 1.358 1_554 S
C1096 H1137 0.930 . S
C1097 C1095 1.353 1_456 S
C1097 N1099 1.314 . S
C1097 H1138 0.930 . S
C1098 C1096 1.358 1_556 S
C1098 N1099 1.279 . S
C1098 H1139 0.930 . S
N1099 C1097 1.314 . S
N1099 C1098 1.279 . S
C1100 C1102 1.353 . S
C1100 N1103 1.314 . S
C1100 H1106 0.881 1_655 S
C1101 N1103 1.279 . S
C1101 C1104 1.358 . S
C1101 H1107 0.930 . S
C1102 C1100 1.353 . S
C1102 C1105 1.348 . S
C1102 H1140 0.929 1_655 S
N1103 Li1058 1.990 . S
N1103 C1100 1.314 . S
N1103 C1101 1.279 . S
C1104 C1101 1.358 . S
C1104 C1105 1.356 . S
C1104 H1141 0.930 . S
C1105 C1102 1.348 . S
C1105 C1104 1.356 . S
H1106 C1100 0.881 1_455 S
H1107 C1101 0.930 . S
C1108 N1109 1.314 . S
C1108 C1110 1.352 1_554 S
C1108 H1114 0.930 . S
N1109 Li1059 1.990 . S
N1109 C1108 1.314 . S
N1109 C1112 1.279 1_554 S
C1110 C1108 1.352 1_556 S
C1110 C1113 1.348 . S
C1110 H1142 0.929 1_556 S
C1111 C1112 1.358 . S
C1111 C1113 1.356 . S
C1111 H1143 0.930 . S
C1112 N1109 1.279 1_556 S
C1112 C1111 1.358 . S
C1112 H1115 0.930 . S
C1113 C1110 1.348 . S
C1113 C1111 1.356 . S
H1114 C1108 0.930 . S
H1115 C1112 0.930 . S
O1116 Li1056 1.956 . S
O1116 Li1057 1.970 . S
O1116 Li1058 1.961 . S
O1116 C1060 1.325 . S
O1117 Li1056 1.970 . S
O1117 Li1057 1.956 . S
O1117 Li1059 1.961 . S
O1117 C1066 1.325 . S
O1118 Li1056 1.961 . S
O1118 Li1058 1.956 . S
O1118 Li1059 1.970 . S
O1118 C1088 1.325 . S
O1119 Li1057 1.961 . S
O1119 Li1058 1.970 . S
O1119 Li1059 1.956 . S
O1119 C1094 1.325 . S
H1120 C1062 0.929 . S
H1121 C1063 0.930 . S
H1122 C1064 0.930 . S
H1123 C1065 0.930 . S
H1124 C1067 0.930 . S
H1125 C1069 0.929 . S
H1126 C1070 0.930 . S
H1127 C1071 0.930 . S
H1128 C1074 0.930 . S
H1129 C1077 0.929 . S
H1130 C1082 0.929 . S
H1131 C1083 0.930 . S
H1132 C1090 0.929 . S
H1133 C1091 0.930 . S
H1134 C1092 0.930 . S
H1135 C1093 0.930 . S
H1136 C1095 0.929 . S
H1137 C1096 0.930 . S
H1138 C1097 0.930 . S
H1139 C1098 0.930 . S
H1140 C1102 0.929 1_455 S
H1141 C1104 0.930 . S
H1142 C1110 0.929 1_554 S
H1143 C1111 0.930 . S
Li1144 N1161 1.990 1_565 S
Li1144 O1204 1.956 . S
Li1144 O1205 1.970 . S
Li1144 O1206 1.961 . S
Li1145 N1169 1.990 . S
Li1145 O1204 1.970 . S
Li1145 O1205 1.956 . S
Li1145 O1207 1.961 . S
Li1146 N1191 1.990 . S
Li1146 O1204 1.961 . S
Li1146 O1206 1.956 . S
Li1146 O1207 1.970 . S
Li1147 N1197 1.990 . S
Li1147 O1205 1.961 . S
Li1147 O1206 1.970 . S
Li1147 O1207 1.956 . S
C1148 C1150 1.348 . S
C1148 C1151 1.356 . S
C1148 O1204 1.325 . S
N1149 C1152 1.314 . S
N1149 C1153 1.279 . S
C1150 C1148 1.348 . S
C1150 C1152 1.353 . S
C1150 H1208 0.929 . S
C1151 C1148 1.356 . S
C1151 C1153 1.358 . S
C1151 H1209 0.930 . S
C1152 N1149 1.314 . S
C1152 C1150 1.353 . S
C1152 H1210 0.930 . S
C1153 N1149 1.279 . S
C1153 C1151 1.358 . S
C1153 H1211 0.930 . S
C1154 C1157 1.348 1_565 S
C1154 C1158 1.356 . S
C1154 O1205 1.325 . S
C1155 N1156 1.279 1_565 S
C1155 C1158 1.358 . S
C1155 H1212 0.930 . S
N1156 C1155 1.279 1_545 S
N1156 C1159 1.314 . S
C1157 C1154 1.348 1_545 S
C1157 C1159 1.353 . S
C1157 H1213 0.929 . S
C1158 C1154 1.356 . S
C1158 C1155 1.358 . S
C1158 H1214 0.930 . S
C1159 N1156 1.314 . S
C1159 C1157 1.353 . S
C1159 H1215 0.930 . S
C1160 N1161 1.314 . S
C1160 C1165 1.353 . S
C1160 H1166 0.930 . S
N1161 Li1144 1.990 1_545 S
N1161 C1160 1.314 . S
N1161 C1163 1.279 . S
C1162 C1163 1.358 . S
C1162 C1164 1.356 . S
C1162 H1216 0.930 . S
C1163 N1161 1.279 . S
C1163 C1162 1.358 . S
C1163 H1167 0.930 . S
C1164 C1162 1.356 . S
C1164 C1165 1.348 . S
C1165 C1160 1.353 . S
C1165 C1164 1.348 . S
C1165 H1217 0.929 . S
H1166 C1160 0.930 . S
H1167 C1163 0.930 . S
C1168 N1169 1.314 . S
C1168 C1170 1.353 . S
C1168 H1174 0.930 . S
N1169 Li1145 1.990 . S
N1169 C1168 1.314 . S
N1169 C1172 1.279 . S
C1170 C1168 1.353 . S
C1170 C1173 1.348 . S
C1170 H1218 0.929 . S
C1171 C1172 1.358 . S
C1171 C1173 1.356 . S
C1171 H1219 0.930 . S
C1172 N1169 1.279 . S
C1172 C1171 1.358 . S
C1172 H1175 0.930 . S
C1173 C1170 1.348 . S
C1173 C1171 1.356 . S
H1174 C1168 0.930 . S
H1175 C1172 0.930 . S
C1176 C1178 1.348 . S
C1176 C1179 1.356 1_565 S
C1176 O1206 1.325 . S
N1177 C1180 1.314 . S
N1177 C1181 1.279 . S
C1178 C1176 1.348 . S
C1178 C1180 1.353 1_565 S
C1178 H1220 0.929 . S
C1179 C1176 1.356 1_545 S
C1179 C1181 1.358 . S
C1179 H1221 0.930 . S
C1180 N1177 1.314 . S
C1180 C1178 1.353 1_545 S
C1180 H1222 0.930 . S
C1181 N1177 1.279 . S
C1181 C1179 1.358 . S
C1181 H1223 0.930 . S
C1182 C1183 1.348 . S
C1182 C1184 1.356 . S
C1182 O1207 1.325 . S
C1183 C1182 1.348 . S
C1183 C1185 1.353 . S
C1183 H1224 0.929 . S
C1184 C1182 1.356 . S
C1184 C1186 1.358 . S
C1184 H1225 0.930 . S
C1185 C1183 1.353 . S
C1185 N1187 1.314 . S
C1185 H1226 0.930 . S
C1186 C1184 1.358 . S
C1186 N1187 1.279 . S
C1186 H1227 0.930 . S
N1187 C1185 1.314 . S
N1187 C1186 1.279 . S
C1188 C1190 1.353 . S
C1188 N1191 1.314 . S
C1188 H1194 0.930 . S
C1189 N1191 1.279 . S
C1189 C1192 1.358 . S
C1189 H1195 0.930 . S
C1190 C1188 1.353 . S
C1190 C1193 1.348 . S
C1190 H1228 0.929 . S
N1191 Li1146 1.990 . S
N1191 C1188 1.314 . S
N1191 C1189 1.279 . S
C1192 C1189 1.358 . S
C1192 C1193 1.356 . S
C1192 H1229 0.930 . S
C1193 C1190 1.348 . S
C1193 C1192 1.356 . S
H1194 C1188 0.930 . S
H1195 C1189 0.930 . S
C1196 N1197 1.314 . S
C1196 C1198 1.353 . S
C1196 H1202 0.881 1_565 S
N1197 Li1147 1.990 . S
N1197 C1196 1.314 . S
N1197 C1200 1.279 . S
C1198 C1196 1.353 . S
C1198 C1201 1.348 . S
C1198 H1230 0.929 1_565 S
C1199 C1200 1.358 . S
C1199 C1201 1.356 . S
C1199 H1231 0.930 . S
C1200 N1197 1.279 . S
C1200 C1199 1.358 . S
C1200 H1203 0.930 . S
C1201 C1198 1.348 . S
C1201 C1199 1.356 . S
H1202 C1196 0.881 1_545 S
H1203 C1200 0.930 . S
O1204 Li1144 1.956 . S
O1204 Li1145 1.970 . S
O1204 Li1146 1.961 . S
O1204 C1148 1.325 . S
O1205 Li1144 1.970 . S
O1205 Li1145 1.956 . S
O1205 Li1147 1.961 . S
O1205 C1154 1.325 . S
O1206 Li1144 1.961 . S
O1206 Li1146 1.956 . S
O1206 Li1147 1.970 . S
O1206 C1176 1.325 . S
O1207 Li1145 1.961 . S
O1207 Li1146 1.970 . S
O1207 Li1147 1.956 . S
O1207 C1182 1.325 . S
H1208 C1150 0.929 . S
H1209 C1151 0.930 . S
H1210 C1152 0.930 . S
H1211 C1153 0.930 . S
H1212 C1155 0.930 . S
H1213 C1157 0.929 . S
H1214 C1158 0.930 . S
H1215 C1159 0.930 . S
H1216 C1162 0.930 . S
H1217 C1165 0.929 . S
H1218 C1170 0.929 . S
H1219 C1171 0.930 . S
H1220 C1178 0.929 . S
H1221 C1179 0.930 . S
H1222 C1180 0.930 . S
H1223 C1181 0.930 . S
H1224 C1183 0.929 . S
H1225 C1184 0.930 . S
H1226 C1185 0.930 . S
H1227 C1186 0.930 . S
H1228 C1190 0.929 . S
H1229 C1192 0.930 . S
H1230 C1198 0.929 1_545 S
H1231 C1199 0.930 . S
Li1232 N1249 1.990 . S
Li1232 O1292 1.956 . S
Li1232 O1293 1.970 . S
Li1232 O1294 1.961 . S
Li1233 N1257 1.990 . S
Li1233 O1292 1.970 . S
Li1233 O1293 1.956 . S
Li1233 O1295 1.961 . S
Li1234 N1279 1.990 . S
Li1234 O1292 1.961 . S
Li1234 O1294 1.956 . S
Li1234 O1295 1.970 . S
Li1235 N1285 1.990 . S
Li1235 O1293 1.961 . S
Li1235 O1294 1.970 . S
Li1235 O1295 1.956 . S
C1236 C1238 1.348 . S
C1236 C1239 1.356 . S
C1236 O1292 1.325 . S
N1237 C1240 1.314 . S
N1237 C1241 1.279 . S
C1238 C1236 1.348 . S
C1238 C1240 1.353 . S
C1238 H1296 0.929 . S
C1239 C1236 1.356 . S
C1239 C1241 1.358 . S
C1239 H1297 0.930 . S
C1240 N1237 1.314 . S
C1240 C1238 1.353 . S
C1240 H1298 0.930 . S
C1241 N1237 1.279 . S
C1241 C1239 1.358 . S
C1241 H1299 0.930 . S
C1242 C1245 1.348 . S
C1242 C1246 1.356 . S
C1242 O1293 1.325 . S
C1243 N1244 1.279 . S
C1243 C1246 1.358 . S
C1243 H1300 0.930 . S
N1244 C1243 1.279 . S
N1244 C1247 1.314 . S
C1245 C1242 1.348 . S
C1245 C1247 1.353 . S
C1245 H1301 0.929 . S
C1246 C1242 1.356 . S
C1246 C1243 1.358 . S
C1246 H1302 0.930 . S
C1247 N1244 1.314 . S
C1247 C1245 1.353 . S
C1247 H1303 0.930 . S
C1248 N1249 1.314 . S
C1248 C1253 1.353 . S
C1248 H1254 0.930 . S
N1249 Li1232 1.990 . S
N1249 C1248 1.314 . S
N1249 C1251 1.279 . S
C1250 C1251 1.358 . S
C1250 C1252 1.356 . S
C1250 H1304 0.930 . S
C1251 N1249 1.279 . S
C1251 C1250 1.358 . S
C1251 H1255 0.930 . S
C1252 C1250 1.356 . S
C1252 C1253 1.348 . S
C1253 C1248 1.353 . S
C1253 C1252 1.348 . S
C1253 H1305 0.929 . S
H1254 C1248 0.930 . S
H1255 C1251 0.930 . S
C1256 N1257 1.314 . S
C1256 C1258 1.353 . S
C1256 H1262 0.930 . S
N1257 Li1233 1.990 . S
N1257 C1256 1.314 . S
N1257 C1260 1.279 . S
C1258 C1256 1.353 . S
C1258 C1261 1.348 . S
C1258 H1306 0.929 . S
C1259 C1260 1.358 . S
C1259 C1261 1.356 . S
C1259 H1307 0.930 . S
C1260 N1257 1.279 . S
C1260 C1259 1.358 . S
C1260 H1263 0.930 . S
C1261 C1258 1.348 . S
C1261 C1259 1.356 . S
H1262 C1256 0.930 . S
H1263 C1260 0.930 . S
C1264 C1266 1.348 . S
C1264 C1267 1.356 . S
C1264 O1294 1.325 . S
N1265 C1268 1.314 . S
N1265 C1269 1.279 . S
C1266 C1264 1.348 . S
C1266 C1268 1.353 1_554 S
C1266 H1308 0.929 . S
C1267 C1264 1.356 . S
C1267 C1269 1.358 1_554 S
C1267 H1309 0.930 . S
C1268 N1265 1.314 . S
C1268 C1266 1.353 1_556 S
C1268 H1310 0.930 . S
C1269 N1265 1.279 . S
C1269 C1267 1.358 1_556 S
C1269 H1311 0.930 . S
C1270 C1271 1.348 . S
C1270 C1272 1.356 . S
C1270 O1295 1.325 . S
C1271 C1270 1.348 . S
C1271 C1273 1.353 . S
C1271 H1312 0.929 . S
C1272 C1270 1.356 . S
C1272 C1274 1.358 . S
C1272 H1313 0.930 . S
C1273 C1271 1.353 . S
C1273 N1275 1.314 . S
C1273 H1314 0.930 . S
C1274 C1272 1.358 . S
C1274 N1275 1.279 . S
C1274 H1315 0.930 . S
N1275 C1273 1.314 . S
N1275 C1274 1.279 . S
C1276 C1278 1.354 1_554 S
C1276 N1279 1.314 . S
C1276 H1282 0.930 . S
C1277 N1279 1.279 1_556 S
C1277 C1280 1.358 . S
C1277 H1283 0.930 . S
C1278 C1276 1.354 1_556 S
C1278 C1281 1.346 . S
C1278 H1316 0.930 1_556 S
N1279 Li1234 1.990 . S
N1279 C1276 1.314 . S
N1279 C1277 1.279 1_554 S
C1280 C1277 1.358 . S
C1280 C1281 1.356 . S
C1280 H1317 0.930 . S
C1281 C1278 1.346 . S
C1281 C1280 1.356 . S
H1282 C1276 0.930 . S
H1283 C1277 0.930 . S
C1284 N1285 1.314 . S
C1284 C1286 1.353 . S
C1284 H1290 0.930 . S
N1285 Li1235 1.990 . S
N1285 C1284 1.314 . S
N1285 C1288 1.279 . S
C1286 C1284 1.353 . S
C1286 C1289 1.348 . S
C1286 H1318 0.929 . S
C1287 C1288 1.358 . S
C1287 C1289 1.356 . S
C1287 H1319 0.930 . S
C1288 N1285 1.279 . S
C1288 C1287 1.358 . S
C1288 H1291 0.930 . S
C1289 C1286 1.348 . S
C1289 C1287 1.356 . S
H1290 C1284 0.930 . S
H1291 C1288 0.930 . S
O1292 Li1232 1.956 . S
O1292 Li1233 1.970 . S
O1292 Li1234 1.961 . S
O1292 C1236 1.325 . S
O1293 Li1232 1.970 . S
O1293 Li1233 1.956 . S
O1293 Li1235 1.961 . S
O1293 C1242 1.325 . S
O1294 Li1232 1.961 . S
O1294 Li1234 1.956 . S
O1294 Li1235 1.970 . S
O1294 C1264 1.325 . S
O1295 Li1233 1.961 . S
O1295 Li1234 1.970 . S
O1295 Li1235 1.956 . S
O1295 C1270 1.325 . S
H1296 C1238 0.929 . S
H1297 C1239 0.930 . S
H1298 C1240 0.930 . S
H1299 C1241 0.930 . S
H1300 C1243 0.930 . S
H1301 C1245 0.929 . S
H1302 C1246 0.930 . S
H1303 C1247 0.930 . S
H1304 C1250 0.930 . S
H1305 C1253 0.929 . S
H1306 C1258 0.929 . S
H1307 C1259 0.930 . S
H1308 C1266 0.929 . S
H1309 C1267 0.930 . S
H1310 C1268 0.930 . S
H1311 C1269 0.930 . S
H1312 C1271 0.929 . S
H1313 C1272 0.930 . S
H1314 C1273 0.930 . S
H1315 C1274 0.930 . S
H1316 C1278 0.930 1_554 S
H1317 C1280 0.930 . S
H1318 C1286 0.929 . S
H1319 C1287 0.930 . S
Li1320 N1337 1.990 . S
Li1320 O1380 1.956 . S
Li1320 O1381 1.970 . S
Li1320 O1382 1.961 . S
Li1321 N1345 1.990 . S
Li1321 O1380 1.970 . S
Li1321 O1381 1.956 . S
Li1321 O1383 1.961 . S
Li1322 N1367 1.990 . S
Li1322 O1380 1.961 . S
Li1322 O1382 1.956 . S
Li1322 O1383 1.970 . S
Li1323 N1373 1.990 . S
Li1323 O1381 1.961 . S
Li1323 O1382 1.970 . S
Li1323 O1383 1.956 . S
C1324 C1326 1.348 . S
C1324 C1327 1.356 . S
C1324 O1380 1.325 . S
N1325 C1328 1.314 . S
N1325 C1329 1.279 . S
C1326 C1324 1.348 . S
C1326 C1328 1.353 . S
C1326 H1384 0.929 . S
C1327 C1324 1.356 . S
C1327 C1329 1.358 . S
C1327 H1385 0.930 . S
C1328 N1325 1.314 . S
C1328 C1326 1.353 . S
C1328 H1386 0.930 . S
C1329 N1325 1.279 . S
C1329 C1327 1.358 . S
C1329 H1387 0.930 . S
C1330 C1333 1.348 . S
C1330 C1334 1.356 . S
C1330 O1381 1.325 . S
C1331 N1332 1.279 . S
C1331 C1334 1.358 . S
C1331 H1388 0.930 . S
N1332 C1331 1.279 . S
N1332 C1335 1.314 . S
C1333 C1330 1.348 . S
C1333 C1335 1.353 . S
C1333 H1389 0.929 . S
C1334 C1330 1.356 . S
C1334 C1331 1.358 . S
C1334 H1390 0.930 . S
C1335 N1332 1.314 . S
C1335 C1333 1.353 . S
C1335 H1391 0.930 . S
C1336 N1337 1.314 . S
C1336 C1341 1.353 . S
C1336 H1342 0.930 . S
N1337 Li1320 1.990 . S
N1337 C1336 1.314 . S
N1337 C1339 1.279 . S
C1338 C1339 1.358 . S
C1338 C1340 1.356 . S
C1338 H1392 0.930 . S
C1339 N1337 1.279 . S
C1339 C1338 1.358 . S
C1339 H1343 0.930 . S
C1340 C1338 1.356 . S
C1340 C1341 1.348 . S
C1341 C1336 1.353 . S
C1341 C1340 1.348 . S
C1341 H1393 0.929 . S
H1342 C1336 0.930 . S
H1343 C1339 0.930 . S
C1344 N1345 1.314 . S
C1344 C1346 1.353 . S
C1344 H1350 0.930 . S
N1345 Li1321 1.990 . S
N1345 C1344 1.314 . S
N1345 C1348 1.279 . S
C1346 C1344 1.353 . S
C1346 C1349 1.348 . S
C1346 H1394 0.929 . S
C1347 C1348 1.358 . S
C1347 C1349 1.356 . S
C1347 H1395 0.930 . S
C1348 N1345 1.279 . S
C1348 C1347 1.358 . S
C1348 H1351 0.930 . S
C1349 C1346 1.348 . S
C1349 C1347 1.356 . S
H1350 C1344 0.930 . S
H1351 C1348 0.930 . S
C1352 C1354 1.348 . S
C1352 C1355 1.356 . S
C1352 O1382 1.325 . S
N1353 C1356 1.314 . S
N1353 C1357 1.279 . S
C1354 C1352 1.348 . S
C1354 C1356 1.353 . S
C1354 H1396 0.929 . S
C1355 C1352 1.356 . S
C1355 C1357 1.358 . S
C1355 H1397 0.930 . S
C1356 N1353 1.314 . S
C1356 C1354 1.353 . S
C1356 H1398 0.930 . S
C1357 N1353 1.279 . S
C1357 C1355 1.358 . S
C1357 H1399 0.930 . S
C1358 C1359 1.348 . S
C1358 C1360 1.356 . S
C1358 O1383 1.325 . S
C1359 C1358 1.348 . S
C1359 C1361 1.353 . S
C1359 H1400 0.929 . S
C1360 C1358 1.356 . S
C1360 C1362 1.358 . S
C1360 H1401 0.930 . S
C1361 C1359 1.353 . S
C1361 N1363 1.314 . S
C1361 H1402 0.930 . S
C1362 C1360 1.358 . S
C1362 N1363 1.279 . S
C1362 H1403 0.930 . S
N1363 C1361 1.314 . S
N1363 C1362 1.279 . S
C1364 C1366 1.353 . S
C1364 N1367 1.314 . S
C1364 H1370 0.930 . S
C1365 N1367 1.279 . S
C1365 C1368 1.358 . S
C1365 H1371 0.930 . S
C1366 C1364 1.353 . S
C1366 C1369 1.348 . S
C1366 H1404 0.929 . S
N1367 Li1322 1.990 . S
N1367 C1364 1.314 . S
N1367 C1365 1.279 . S
C1368 C1365 1.358 . S
C1368 C1369 1.356 . S
C1368 H1405 0.930 . S
C1369 C1366 1.348 . S
C1369 C1368 1.356 . S
H1370 C1364 0.930 . S
H1371 C1365 0.930 . S
C1372 N1373 1.314 . S
C1372 C1374 1.353 . S
C1372 H1378 0.930 . S
N1373 Li1323 1.990 . S
N1373 C1372 1.314 . S
N1373 C1376 1.279 . S
C1374 C1372 1.353 . S
C1374 C1377 1.348 . S
C1374 H1406 0.929 . S
C1375 C1376 1.358 . S
C1375 C1377 1.356 . S
C1375 H1407 0.930 . S
C1376 N1373 1.279 . S
C1376 C1375 1.358 . S
C1376 H1379 0.930 . S
C1377 C1374 1.348 . S
C1377 C1375 1.356 . S
H1378 C1372 0.930 . S
H1379 C1376 0.930 . S
O1380 Li1320 1.956 . S
O1380 Li1321 1.970 . S
O1380 Li1322 1.961 . S
O1380 C1324 1.325 . S
O1381 Li1320 1.970 . S
O1381 Li1321 1.956 . S
O1381 Li1323 1.961 . S
O1381 C1330 1.325 . S
O1382 Li1320 1.961 . S
O1382 Li1322 1.956 . S
O1382 Li1323 1.970 . S
O1382 C1352 1.325 . S
O1383 Li1321 1.961 . S
O1383 Li1322 1.970 . S
O1383 Li1323 1.956 . S
O1383 C1358 1.325 . S
H1384 C1326 0.929 . S
H1385 C1327 0.930 . S
H1386 C1328 0.930 . S
H1387 C1329 0.930 . S
H1388 C1331 0.930 . S
H1389 C1333 0.929 . S
H1390 C1334 0.930 . S
H1391 C1335 0.930 . S
H1392 C1338 0.930 . S
H1393 C1341 0.929 . S
H1394 C1346 0.929 . S
H1395 C1347 0.930 . S
H1396 C1354 0.929 . S
H1397 C1355 0.930 . S
H1398 C1356 0.930 . S
H1399 C1357 0.930 . S
H1400 C1359 0.929 . S
H1401 C1360 0.930 . S
H1402 C1361 0.930 . S
H1403 C1362 0.930 . S
H1404 C1366 0.929 . S
H1405 C1368 0.930 . S
H1406 C1374 0.929 . S
H1407 C1375 0.930 . S
H1408 C1414 0.930 . S
H1409 C1417 0.930 . S
H1410 C1418 0.930 . S
H1411 C1419 0.930 . S
H1412 C1422 0.930 . S
H1413 C1423 0.930 . S
C1414 H1408 0.930 . S
C1414 C1415 1.355 . S
C1414 C1416 1.415 1_554 S
C1415 C1414 1.355 . S
C1415 C1417 1.419 . S
C1416 C1414 1.415 1_556 S
C1416 C1421 1.425 1_556 S
C1416 C1423 1.409 . S
C1417 H1409 0.930 . S
C1417 C1415 1.419 . S
C1417 C1418 1.362 . S
C1418 H1410 0.930 . S
C1418 C1417 1.362 . S
C1418 C1421 1.409 . S
C1419 H1411 0.930 . S
C1419 C1420 1.355 . S
C1419 C1421 1.415 1_556 S
C1420 C1419 1.355 . S
C1420 C1422 1.419 . S
C1421 C1416 1.425 1_554 S
C1421 C1418 1.409 . S
C1421 C1419 1.415 1_554 S
C1422 H1412 0.930 . S
C1422 C1420 1.419 . S
C1422 C1423 1.362 . S
C1423 H1413 0.930 . S
C1423 C1416 1.409 . S
C1423 C1422 1.362 . S
H1424 C1430 0.930 . S
H1425 C1433 0.930 . S
H1426 C1434 0.930 . S
H1427 C1435 0.930 . S
H1428 C1438 0.930 . S
H1429 C1439 0.930 . S
C1430 H1424 0.930 . S
C1430 C1431 1.355 . S
C1430 C1432 1.415 . S
C1431 C1430 1.355 . S
C1431 C1433 1.419 . S
C1432 C1430 1.415 . S
C1432 C1437 1.425 . S
C1432 C1439 1.409 . S
C1433 H1425 0.930 . S
C1433 C1431 1.419 . S
C1433 C1434 1.362 . S
C1434 H1426 0.930 . S
C1434 C1433 1.362 . S
C1434 C1437 1.409 . S
C1435 H1427 0.930 . S
C1435 C1436 1.355 . S
C1435 C1437 1.415 . S
C1436 C1435 1.355 . S
C1436 C1438 1.419 . S
C1437 C1432 1.425 . S
C1437 C1434 1.409 . S
C1437 C1435 1.415 . S
C1438 H1428 0.930 . S
C1438 C1436 1.419 . S
C1438 C1439 1.362 . S
C1439 H1429 0.930 . S
C1439 C1432 1.409 . S
C1439 C1438 1.362 . S
H1440 C1446 0.930 . S
H1441 C1449 0.930 . S
H1442 C1450 0.930 1_556 S
H1443 C1451 0.930 . S
H1444 C1454 0.930 . S
H1445 C1455 0.930 1_554 S
C1446 H1440 0.930 . S
C1446 C1447 1.355 . S
C1446 C1448 1.415 . S
C1447 C1446 1.355 . S
C1447 C1449 1.419 . S
C1448 C1446 1.415 . S
C1448 C1453 1.425 1_554 S
C1448 C1455 1.409 1_554 S
C1449 H1441 0.930 . S
C1449 C1447 1.419 . S
C1449 C1450 1.362 . S
C1450 H1442 0.930 1_554 S
C1450 C1449 1.362 . S
C1450 C1453 1.409 1_554 S
C1451 H1443 0.930 . S
C1451 C1452 1.355 . S
C1451 C1453 1.415 . S
C1452 C1451 1.355 . S
C1452 C1454 1.419 . S
C1453 C1448 1.425 1_556 S
C1453 C1450 1.409 1_556 S
C1453 C1451 1.415 . S
C1454 H1444 0.930 . S
C1454 C1452 1.419 . S
C1454 C1455 1.362 . S
C1455 H1445 0.930 1_556 S
C1455 C1448 1.409 1_556 S
C1455 C1454 1.362 . S
H1456 C1462 0.930 . S
H1457 C1465 0.930 . S
H1458 C1466 0.930 . S
H1459 C1467 0.930 . S
H1460 C1470 0.930 . S
H1461 C1471 0.930 . S
C1462 H1456 0.930 . S
C1462 C1463 1.355 . S
C1462 C1464 1.415 . S
C1463 C1462 1.355 . S
C1463 C1465 1.419 . S
C1464 C1462 1.415 . S
C1464 C1469 1.425 . S
C1464 C1471 1.409 . S
C1465 H1457 0.930 . S
C1465 C1463 1.419 . S
C1465 C1466 1.362 . S
C1466 H1458 0.930 . S
C1466 C1465 1.362 . S
C1466 C1469 1.409 . S
C1467 H1459 0.930 . S
C1467 C1468 1.355 . S
C1467 C1469 1.415 . S
C1468 C1467 1.355 . S
C1468 C1470 1.419 . S
C1469 C1464 1.425 . S
C1469 C1466 1.409 . S
C1469 C1467 1.415 . S
C1470 H1460 0.930 . S
C1470 C1468 1.419 . S
C1470 C1471 1.362 . S
C1471 H1461 0.930 . S
C1471 C1464 1.409 . S
C1471 C1470 1.362 . S
H1472 C1478 0.930 1_455 S
H1473 C1481 0.930 . S
H1474 C1482 0.930 . S
H1475 C1483 0.930 . S
H1476 C1486 0.929 . S
H1477 C1487 0.930 . S
C1478 H1472 0.930 1_655 S
C1478 C1479 1.355 . S
C1478 C1480 1.415 . S
C1479 C1478 1.355 . S
C1479 C1481 1.419 . S
C1480 C1478 1.415 . S
C1480 C1485 1.425 1_556 S
C1480 C1487 1.409 1_655 S
C1481 H1473 0.930 . S
C1481 C1479 1.419 . S
C1481 C1482 1.362 1_556 S
C1482 H1474 0.930 . S
C1482 C1481 1.362 1_554 S
C1482 C1485 1.409 . S
C1483 H1475 0.930 . S
C1483 C1484 1.355 . S
C1483 C1485 1.415 . S
C1484 C1483 1.355 . S
C1484 C1486 1.420 1_655 S
C1485 C1480 1.425 1_554 S
C1485 C1482 1.409 . S
C1485 C1483 1.415 . S
C1486 H1476 0.929 . S
C1486 C1484 1.420 1_455 S
C1486 C1487 1.362 1_554 S
C1487 H1477 0.930 . S
C1487 C1480 1.409 1_455 S
C1487 C1486 1.362 1_556 S
H1488 C1494 0.930 1_545 S
H1489 C1497 0.930 . S
H1490 C1498 0.930 . S
H1491 C1499 0.930 . S
H1492 C1502 0.930 . S
H1493 C1503 0.930 . S
C1494 H1488 0.930 1_565 S
C1494 C1495 1.355 . S
C1494 C1496 1.415 . S
C1495 C1494 1.355 . S
C1495 C1497 1.419 . S
C1496 C1494 1.415 . S
C1496 C1501 1.425 . S
C1496 C1503 1.409 1_565 S
C1497 H1489 0.930 . S
C1497 C1495 1.419 . S
C1497 C1498 1.362 . S
C1498 H1490 0.930 . S
C1498 C1497 1.362 . S
C1498 C1501 1.409 . S
C1499 H1491 0.930 . S
C1499 C1500 1.355 . S
C1499 C1501 1.415 . S
C1500 C1499 1.355 . S
C1500 C1502 1.419 1_565 S
C1501 C1496 1.425 . S
C1501 C1498 1.409 . S
C1501 C1499 1.415 . S
C1502 H1492 0.930 . S
C1502 C1500 1.419 1_545 S
C1502 C1503 1.362 . S
C1503 H1493 0.930 . S
C1503 C1496 1.409 1_545 S
C1503 C1502 1.362 . S
H1504 C1510 0.930 . S
H1505 C1513 0.930 . S
H1506 C1514 0.930 . S
H1507 C1515 0.930 . S
H1508 C1518 0.930 . S
H1509 C1519 0.930 . S
C1510 H1504 0.930 . S
C1510 C1511 1.355 . S
C1510 C1512 1.415 1_556 S
C1511 C1510 1.355 . S
C1511 C1513 1.419 . S
C1512 C1510 1.415 1_554 S
C1512 C1517 1.425 1_554 S
C1512 C1519 1.409 . S
C1513 H1505 0.930 . S
C1513 C1511 1.419 . S
C1513 C1514 1.362 . S
C1514 H1506 0.930 . S
C1514 C1513 1.362 . S
C1514 C1517 1.409 . S
C1515 H1507 0.930 . S
C1515 C1516 1.355 . S
C1515 C1517 1.415 1_554 S
C1516 C1515 1.355 . S
C1516 C1518 1.419 . S
C1517 C1512 1.425 1_556 S
C1517 C1514 1.409 . S
C1517 C1515 1.415 1_556 S
C1518 H1508 0.930 . S
C1518 C1516 1.419 . S
C1518 C1519 1.362 . S
C1519 H1509 0.930 . S
C1519 C1512 1.409 . S
C1519 C1518 1.362 . S
H1520 C1526 0.930 . S
H1521 C1529 0.930 . S
H1522 C1530 0.930 . S
H1523 C1531 0.930 . S
H1524 C1534 0.930 . S
H1525 C1535 0.930 . S
C1526 H1520 0.930 . S
C1526 C1527 1.355 . S
C1526 C1528 1.415 . S
C1527 C1526 1.355 . S
C1527 C1529 1.419 . S
C1528 C1526 1.415 . S
C1528 C1533 1.425 . S
C1528 C1535 1.409 . S
C1529 H1521 0.930 . S
C1529 C1527 1.419 . S
C1529 C1530 1.362 . S
C1530 H1522 0.930 . S
C1530 C1529 1.362 . S
C1530 C1533 1.409 . S
C1531 H1523 0.930 . S
C1531 C1532 1.355 . S
C1531 C1533 1.415 . S
C1532 C1531 1.355 . S
C1532 C1534 1.419 . S
C1533 C1528 1.425 . S
C1533 C1530 1.409 . S
C1533 C1531 1.415 . S
C1534 H1524 0.930 . S
C1534 C1532 1.419 . S
C1534 C1535 1.362 . S
C1535 H1525 0.930 . S
C1535 C1528 1.409 . S
C1535 C1534 1.362 . S
H1536 C1542 0.930 . S
H1537 C1545 0.930 . S
H1538 C1546 0.930 . S
H1539 C1547 0.930 . S
H1540 C1550 0.930 . S
H1541 C1551 0.930 . S
C1542 H1536 0.930 . S
C1542 C1543 1.355 . S
C1542 C1544 1.415 . S
C1543 C1542 1.355 . S
C1543 C1545 1.419 . S
C1544 C1542 1.415 . S
C1544 C1549 1.425 . S
C1544 C1551 1.409 . S
C1545 H1537 0.930 . S
C1545 C1543 1.419 . S
C1545 C1546 1.362 . S
C1546 H1538 0.930 . S
C1546 C1545 1.362 . S
C1546 C1549 1.409 . S
C1547 H1539 0.930 . S
C1547 C1548 1.355 . S
C1547 C1549 1.415 . S
C1548 C1547 1.355 . S
C1548 C1550 1.419 . S
C1549 C1544 1.425 . S
C1549 C1546 1.409 . S
C1549 C1547 1.415 . S
C1550 H1540 0.930 . S
C1550 C1548 1.419 . S
C1550 C1551 1.362 . S
C1551 H1541 0.930 . S
C1551 C1544 1.409 . S
C1551 C1550 1.362 . S
H1552 C1558 0.930 . S
H1553 C1561 0.930 . S
H1554 C1562 0.930 . S
H1555 C1563 0.930 . S
H1556 C1566 0.930 . S
H1557 C1567 0.930 . S
C1558 H1552 0.930 . S
C1558 C1559 1.355 . S
C1558 C1560 1.415 . S
C1559 C1558 1.355 . S
C1559 C1561 1.419 . S
C1560 C1558 1.415 . S
C1560 C1565 1.425 . S
C1560 C1567 1.409 . S
C1561 H1553 0.930 . S
C1561 C1559 1.419 . S
C1561 C1562 1.362 . S
C1562 H1554 0.930 . S
C1562 C1561 1.362 . S
C1562 C1565 1.409 . S
C1563 H1555 0.930 . S
C1563 C1564 1.355 . S
C1563 C1565 1.415 . S
C1564 C1563 1.355 . S
C1564 C1566 1.419 . S
C1565 C1560 1.425 . S
C1565 C1562 1.409 . S
C1565 C1563 1.415 . S
C1566 H1556 0.930 . S
C1566 C1564 1.419 . S
C1566 C1567 1.362 . S
C1567 H1557 0.930 . S
C1567 C1560 1.409 . S
C1567 C1566 1.362 . S
H1568 C1574 0.930 . S
H1569 C1577 0.930 . S
H1570 C1578 0.930 . S
H1571 C1579 0.930 . S
H1572 C1582 0.930 . S
H1573 C1583 0.930 . S
C1574 H1568 0.930 . S
C1574 C1575 1.355 . S
C1574 C1576 1.415 . S
C1575 C1574 1.355 . S
C1575 C1577 1.419 . S
C1576 C1574 1.415 . S
C1576 C1581 1.425 . S
C1576 C1583 1.409 . S
C1577 H1569 0.930 . S
C1577 C1575 1.419 . S
C1577 C1578 1.362 . S
C1578 H1570 0.930 . S
C1578 C1577 1.362 . S
C1578 C1581 1.409 . S
C1579 H1571 0.930 . S
C1579 C1580 1.355 . S
C1579 C1581 1.415 . S
C1580 C1579 1.355 . S
C1580 C1582 1.419 . S
C1581 C1576 1.425 . S
C1581 C1578 1.409 . S
C1581 C1579 1.415 . S
C1582 H1572 0.930 . S
C1582 C1580 1.419 . S
C1582 C1583 1.362 . S
C1583 H1573 0.930 . S
C1583 C1576 1.409 . S
C1583 C1582 1.362 . S
H1584 C1590 0.930 . S
H1585 C1593 0.930 . S
H1586 C1594 0.930 . S
H1587 C1595 0.930 . S
H1588 C1598 0.930 . S
H1589 C1599 0.930 . S
C1590 H1584 0.930 . S
C1590 C1591 1.355 . S
C1590 C1592 1.415 . S
C1591 C1590 1.355 . S
C1591 C1593 1.419 . S
C1592 C1590 1.415 . S
C1592 C1597 1.425 . S
C1592 C1599 1.409 . S
C1593 H1585 0.930 . S
C1593 C1591 1.419 . S
C1593 C1594 1.362 . S
C1594 H1586 0.930 . S
C1594 C1593 1.362 . S
C1594 C1597 1.409 . S
C1595 H1587 0.930 . S
C1595 C1596 1.355 . S
C1595 C1597 1.415 . S
C1596 C1595 1.355 . S
C1596 C1598 1.419 . S
C1597 C1592 1.425 . S
C1597 C1594 1.409 . S
C1597 C1595 1.415 . S
C1598 H1588 0.930 . S
C1598 C1596 1.419 . S
C1598 C1599 1.362 . S
C1599 H1589 0.930 . S
C1599 C1592 1.409 . S
C1599 C1598 1.362 . S
H1600 C1606 0.930 . S
H1601 C1609 0.930 . S
H1602 C1610 0.930 . S
H1603 C1611 0.930 . S
H1604 C1614 0.930 . S
H1605 C1615 0.930 . S
C1606 H1600 0.930 . S
C1606 C1607 1.355 . S
C1606 C1608 1.415 . S
C1607 C1606 1.355 . S
C1607 C1609 1.419 . S
C1608 C1606 1.415 . S
C1608 C1613 1.425 . S
C1608 C1615 1.409 . S
C1609 H1601 0.930 . S
C1609 C1607 1.419 . S
C1609 C1610 1.362 . S
C1610 H1602 0.930 . S
C1610 C1609 1.362 . S
C1610 C1613 1.409 . S
C1611 H1603 0.930 . S
C1611 C1612 1.355 . S
C1611 C1613 1.415 . S
C1612 C1611 1.355 . S
C1612 C1614 1.419 . S
C1613 C1608 1.425 . S
C1613 C1610 1.409 . S
C1613 C1611 1.415 . S
C1614 H1604 0.930 . S
C1614 C1612 1.419 . S
C1614 C1615 1.362 . S
C1615 H1605 0.930 . S
C1615 C1608 1.409 . S
C1615 C1614 1.362 . S
H1616 C1622 0.930 . S
H1617 C1625 0.930 . S
H1618 C1626 0.930 . S
H1619 C1627 0.930 . S
H1620 C1630 0.930 . S
H1621 C1631 0.930 . S
C1622 H1616 0.930 . S
C1622 C1623 1.355 . S
C1622 C1624 1.415 . S
C1623 C1622 1.355 . S
C1623 C1625 1.419 . S
C1624 C1622 1.415 . S
C1624 C1629 1.425 . S
C1624 C1631 1.409 . S
C1625 H1617 0.930 . S
C1625 C1623 1.419 . S
C1625 C1626 1.362 . S
C1626 H1618 0.930 . S
C1626 C1625 1.362 . S
C1626 C1629 1.409 . S
C1627 H1619 0.930 . S
C1627 C1628 1.355 . S
C1627 C1629 1.415 . S
C1628 C1627 1.355 . S
C1628 C1630 1.419 . S
C1629 C1624 1.425 . S
C1629 C1626 1.409 . S
C1629 C1627 1.415 . S
C1630 H1620 0.930 . S
C1630 C1628 1.419 . S
C1630 C1631 1.362 . S
C1631 H1621 0.930 . S
C1631 C1624 1.409 . S
C1631 C1630 1.362 . S
H1632 C1638 0.930 . S
H1633 C1641 0.930 . S
H1634 C1642 0.930 . S
H1635 C1643 0.930 . S
H1636 C1646 0.930 . S
H1637 C1647 0.930 . S
C1638 H1632 0.930 . S
C1638 C1639 1.355 . S
C1638 C1640 1.415 . S
C1639 C1638 1.355 . S
C1639 C1641 1.419 . S
C1640 C1638 1.415 . S
C1640 C1645 1.425 . S
C1640 C1647 1.409 . S
C1641 H1633 0.930 . S
C1641 C1639 1.419 . S
C1641 C1642 1.362 . S
C1642 H1634 0.930 . S
C1642 C1641 1.362 . S
C1642 C1645 1.409 . S
C1643 H1635 0.930 . S
C1643 C1644 1.355 . S
C1643 C1645 1.415 . S
C1644 C1643 1.355 . S
C1644 C1646 1.419 . S
C1645 C1640 1.425 . S
C1645 C1642 1.409 . S
C1645 C1643 1.415 . S
C1646 H1636 0.930 . S
C1646 C1644 1.419 . S
C1646 C1647 1.362 . S
C1647 H1637 0.930 . S
C1647 C1640 1.409 . S
C1647 C1646 1.362 . S
H1648 C1654 0.930 . S
H1649 C1657 0.930 . S
H1650 C1658 0.930 . S
H1651 C1659 0.930 . S
H1652 C1662 0.930 . S
H1653 C1663 0.930 . S
C1654 H1648 0.930 . S
C1654 C1655 1.355 . S
C1654 C1656 1.415 . S
C1655 C1654 1.355 . S
C1655 C1657 1.419 . S
C1656 C1654 1.415 . S
C1656 C1661 1.425 . S
C1656 C1663 1.409 . S
C1657 H1649 0.930 . S
C1657 C1655 1.419 . S
C1657 C1658 1.362 . S
C1658 H1650 0.930 . S
C1658 C1657 1.362 . S
C1658 C1661 1.409 . S
C1659 H1651 0.930 . S
C1659 C1660 1.355 . S
C1659 C1661 1.415 . S
C1660 C1659 1.355 . S
C1660 C1662 1.419 . S
C1661 C1656 1.425 . S
C1661 C1658 1.409 . S
C1661 C1659 1.415 . S
C1662 H1652 0.930 . S
C1662 C1660 1.419 . S
C1662 C1663 1.362 . S
C1663 H1653 0.930 . S
C1663 C1656 1.409 . S
C1663 C1662 1.362 . S
H1664 C1670 0.930 . S
H1665 C1673 0.930 . S
H1666 C1674 0.930 . S
H1667 C1675 0.930 . S
H1668 C1678 0.930 . S
H1669 C1679 0.930 . S
C1670 H1664 0.930 . S
C1670 C1671 1.355 . S
C1670 C1672 1.415 . S
C1671 C1670 1.355 . S
C1671 C1673 1.419 . S
C1672 C1670 1.415 . S
C1672 C1677 1.425 . S
C1672 C1679 1.409 . S
C1673 H1665 0.930 . S
C1673 C1671 1.419 . S
C1673 C1674 1.362 . S
C1674 H1666 0.930 . S
C1674 C1673 1.362 . S
C1674 C1677 1.409 . S
C1675 H1667 0.930 . S
C1675 C1676 1.355 . S
C1675 C1677 1.415 . S
C1676 C1675 1.355 . S
C1676 C1678 1.419 . S
C1677 C1672 1.425 . S
C1677 C1674 1.409 . S
C1677 C1675 1.415 . S
C1678 H1668 0.930 . S
C1678 C1676 1.419 . S
C1678 C1679 1.362 . S
C1679 H1669 0.930 . S
C1679 C1672 1.409 . S
C1679 C1678 1.362 . S
H1680 C1686 0.930 . S
H1681 C1689 0.930 . S
H1682 C1690 0.930 . S
H1683 C1691 0.930 . S
H1684 C1694 0.930 . S
H1685 C1695 0.930 . S
C1686 H1680 0.930 . S
C1686 C1687 1.355 . S
C1686 C1688 1.415 . S
C1687 C1686 1.355 . S
C1687 C1689 1.419 . S
C1688 C1686 1.415 . S
C1688 C1693 1.425 . S
C1688 C1695 1.409 . S
C1689 H1681 0.930 . S
C1689 C1687 1.419 . S
C1689 C1690 1.362 . S
C1690 H1682 0.930 . S
C1690 C1689 1.362 . S
C1690 C1693 1.409 . S
C1691 H1683 0.930 . S
C1691 C1692 1.355 . S
C1691 C1693 1.415 . S
C1692 C1691 1.355 . S
C1692 C1694 1.419 . S
C1693 C1688 1.425 . S
C1693 C1690 1.409 . S
C1693 C1691 1.415 . S
C1694 H1684 0.930 . S
C1694 C1692 1.419 . S
C1694 C1695 1.362 . S
C1695 H1685 0.930 . S
C1695 C1688 1.409 . S
C1695 C1694 1.362 . S
H1696 C1702 0.930 . S
H1697 C1705 0.930 . S
H1698 C1706 0.930 . S
H1699 C1707 0.930 . S
H1700 C1710 0.930 . S
H1701 C1711 0.930 . S
C1702 H1696 0.930 . S
C1702 C1703 1.355 . S
C1702 C1704 1.415 . S
C1703 C1702 1.355 . S
C1703 C1705 1.419 . S
C1704 C1702 1.415 . S
C1704 C1709 1.425 . S
C1704 C1711 1.409 . S
C1705 H1697 0.930 . S
C1705 C1703 1.419 . S
C1705 C1706 1.362 . S
C1706 H1698 0.930 . S
C1706 C1705 1.362 . S
C1706 C1709 1.409 . S
C1707 H1699 0.930 . S
C1707 C1708 1.355 . S
C1707 C1709 1.415 . S
C1708 C1707 1.355 . S
C1708 C1710 1.419 . S
C1709 C1704 1.425 . S
C1709 C1706 1.409 . S
C1709 C1707 1.415 . S
C1710 H1700 0.930 . S
C1710 C1708 1.419 . S
C1710 C1711 1.362 . S
C1711 H1701 0.930 . S
C1711 C1704 1.409 . S
C1711 C1710 1.362 . S
H1712 C1718 0.930 . S
H1713 C1721 0.930 . S
H1714 C1722 0.930 . S
H1715 C1723 0.930 . S
H1716 C1726 0.930 . S
H1717 C1727 0.930 . S
C1718 H1712 0.930 . S
C1718 C1719 1.355 . S
C1718 C1720 1.415 . S
C1719 C1718 1.355 . S
C1719 C1721 1.419 . S
C1720 C1718 1.415 . S
C1720 C1725 1.425 . S
C1720 C1727 1.409 . S
C1721 H1713 0.930 . S
C1721 C1719 1.419 . S
C1721 C1722 1.362 . S
C1722 H1714 0.930 . S
C1722 C1721 1.362 . S
C1722 C1725 1.409 . S
C1723 H1715 0.930 . S
C1723 C1724 1.355 . S
C1723 C1725 1.415 . S
C1724 C1723 1.355 . S
C1724 C1726 1.419 . S
C1725 C1720 1.425 . S
C1725 C1722 1.409 . S
C1725 C1723 1.415 . S
C1726 H1716 0.930 . S
C1726 C1724 1.419 . S
C1726 C1727 1.362 . S
C1727 H1717 0.930 . S
C1727 C1720 1.409 . S
C1727 C1726 1.362 . S
H1728 C1734 0.930 . S
H1729 C1737 0.930 . S
H1730 C1738 0.930 . S
H1731 C1739 0.930 . S
H1732 C1742 0.930 . S
H1733 C1743 0.930 . S
C1734 H1728 0.930 . S
C1734 C1735 1.355 . S
C1734 C1736 1.415 . S
C1735 C1734 1.355 . S
C1735 C1737 1.419 . S
C1736 C1734 1.415 . S
C1736 C1741 1.425 . S
C1736 C1743 1.409 . S
C1737 H1729 0.930 . S
C1737 C1735 1.419 . S
C1737 C1738 1.362 . S
C1738 H1730 0.930 . S
C1738 C1737 1.362 . S
C1738 C1741 1.409 . S
C1739 H1731 0.930 . S
C1739 C1740 1.355 . S
C1739 C1741 1.415 . S
C1740 C1739 1.355 . S
C1740 C1742 1.419 . S
C1741 C1736 1.425 . S
C1741 C1738 1.409 . S
C1741 C1739 1.415 . S
C1742 H1732 0.930 . S
C1742 C1740 1.419 . S
C1742 C1743 1.362 . S
C1743 H1733 0.930 . S
C1743 C1736 1.409 . S
C1743 C1742 1.362 . S
H1744 C1750 0.930 . S
H1745 C1753 0.930 . S
H1746 C1754 0.930 . S
H1747 C1755 0.930 . S
H1748 C1758 0.930 . S
H1749 C1759 0.930 . S
C1750 H1744 0.930 . S
C1750 C1751 1.355 . S
C1750 C1752 1.415 . S
C1751 C1750 1.355 . S
C1751 C1753 1.419 . S
C1752 C1750 1.415 . S
C1752 C1757 1.425 . S
C1752 C1759 1.409 . S
C1753 H1745 0.930 . S
C1753 C1751 1.419 . S
C1753 C1754 1.362 . S
C1754 H1746 0.930 . S
C1754 C1753 1.362 . S
C1754 C1757 1.409 . S
C1755 H1747 0.930 . S
C1755 C1756 1.355 . S
C1755 C1757 1.415 . S
C1756 C1755 1.355 . S
C1756 C1758 1.419 . S
C1757 C1752 1.425 . S
C1757 C1754 1.409 . S
C1757 C1755 1.415 . S
C1758 H1748 0.930 . S
C1758 C1756 1.419 . S
C1758 C1759 1.362 . S
C1759 H1749 0.930 . S
C1759 C1752 1.409 . S
C1759 C1758 1.362 . S
H1760 C1766 0.930 . S
H1761 C1769 0.930 . S
H1762 C1770 0.930 . S
H1763 C1771 0.930 . S
H1764 C1774 0.930 . S
H1765 C1775 0.930 . S
C1766 H1760 0.930 . S
C1766 C1767 1.355 . S
C1766 C1768 1.415 . S
C1767 C1766 1.355 . S
C1767 C1769 1.419 . S
C1768 C1766 1.415 . S
C1768 C1773 1.425 . S
C1768 C1775 1.409 . S
C1769 H1761 0.930 . S
C1769 C1767 1.419 . S
C1769 C1770 1.362 . S
C1770 H1762 0.930 . S
C1770 C1769 1.362 . S
C1770 C1773 1.409 . S
C1771 H1763 0.930 . S
C1771 C1772 1.355 . S
C1771 C1773 1.415 . S
C1772 C1771 1.355 . S
C1772 C1774 1.419 . S
C1773 C1768 1.425 . S
C1773 C1770 1.409 . S
C1773 C1771 1.415 . S
C1774 H1764 0.930 . S
C1774 C1772 1.419 . S
C1774 C1775 1.362 . S
C1775 H1765 0.930 . S
C1775 C1768 1.409 . S
C1775 C1774 1.362 . S
H1776 C1782 0.930 . S
H1777 C1785 0.930 . S
H1778 C1786 0.930 . S
H1779 C1787 0.930 . S
H1780 C1790 0.930 . S
H1781 C1791 0.930 . S
C1782 H1776 0.930 . S
C1782 C1783 1.355 . S
C1782 C1784 1.415 . S
C1783 C1782 1.355 . S
C1783 C1785 1.419 . S
C1784 C1782 1.415 . S
C1784 C1789 1.425 . S
C1784 C1791 1.409 . S
C1785 H1777 0.930 . S
C1785 C1783 1.419 . S
C1785 C1786 1.362 . S
C1786 H1778 0.930 . S
C1786 C1785 1.362 . S
C1786 C1789 1.409 . S
C1787 H1779 0.930 . S
C1787 C1788 1.355 . S
C1787 C1789 1.415 . S
C1788 C1787 1.355 . S
C1788 C1790 1.419 . S
C1789 C1784 1.425 . S
C1789 C1786 1.409 . S
C1789 C1787 1.415 . S
C1790 H1780 0.930 . S
C1790 C1788 1.419 . S
C1790 C1791 1.362 . S
C1791 H1781 0.930 . S
C1791 C1784 1.409 . S
C1791 C1790 1.362 . S
H1792 C1798 0.930 . S
H1793 C1801 0.930 . S
H1794 C1802 0.930 . S
H1795 C1803 0.930 . S
H1796 C1806 0.930 . S
H1797 C1807 0.930 . S
C1798 H1792 0.930 . S
C1798 C1799 1.355 . S
C1798 C1800 1.415 . S
C1799 C1798 1.355 . S
C1799 C1801 1.419 . S
C1800 C1798 1.415 . S
C1800 C1805 1.425 . S
C1800 C1807 1.409 . S
C1801 H1793 0.930 . S
C1801 C1799 1.419 . S
C1801 C1802 1.362 . S
C1802 H1794 0.930 . S
C1802 C1801 1.362 . S
C1802 C1805 1.409 . S
C1803 H1795 0.930 . S
C1803 C1804 1.355 . S
C1803 C1805 1.415 . S
C1804 C1803 1.355 . S
C1804 C1806 1.419 . S
C1805 C1800 1.425 . S
C1805 C1802 1.409 . S
C1805 C1803 1.415 . S
C1806 H1796 0.930 . S
C1806 C1804 1.419 . S
C1806 C1807 1.362 . S
C1807 H1797 0.930 . S
C1807 C1800 1.409 . S
C1807 C1806 1.362 . S
H1808 C1814 0.930 . S
H1809 C1817 0.930 . S
H1810 C1818 0.930 . S
H1811 C1819 0.930 . S
H1812 C1822 0.930 . S
H1813 C1823 0.930 . S
C1814 H1808 0.930 . S
C1814 C1815 1.355 . S
C1814 C1816 1.415 . S
C1815 C1814 1.355 . S
C1815 C1817 1.419 . S
C1816 C1814 1.415 . S
C1816 C1821 1.425 . S
C1816 C1823 1.409 . S
C1817 H1809 0.930 . S
C1817 C1815 1.419 . S
C1817 C1818 1.362 . S
C1818 H1810 0.930 . S
C1818 C1817 1.362 . S
C1818 C1821 1.409 . S
C1819 H1811 0.930 . S
C1819 C1820 1.355 . S
C1819 C1821 1.415 . S
C1820 C1819 1.355 . S
C1820 C1822 1.419 . S
C1821 C1816 1.425 . S
C1821 C1818 1.409 . S
C1821 C1819 1.415 . S
C1822 H1812 0.930 . S
C1822 C1820 1.419 . S
C1822 C1823 1.362 . S
C1823 H1813 0.930 . S
C1823 C1816 1.409 . S
C1823 C1822 1.362 . S
H1824 C1830 0.930 . S
H1825 C1833 0.930 . S
H1826 C1834 0.930 . S
H1827 C1835 0.930 . S
H1828 C1838 0.930 . S
H1829 C1839 0.930 . S
C1830 H1824 0.930 . S
C1830 C1831 1.355 . S
C1830 C1832 1.415 . S
C1831 C1830 1.355 . S
C1831 C1833 1.419 . S
C1832 C1830 1.415 . S
C1832 C1837 1.425 . S
C1832 C1839 1.409 . S
C1833 H1825 0.930 . S
C1833 C1831 1.419 . S
C1833 C1834 1.362 . S
C1834 H1826 0.930 . S
C1834 C1833 1.362 . S
C1834 C1837 1.409 . S
C1835 H1827 0.930 . S
C1835 C1836 1.355 . S
C1835 C1837 1.415 . S
C1836 C1835 1.355 . S
C1836 C1838 1.419 . S
C1837 C1832 1.425 . S
C1837 C1834 1.409 . S
C1837 C1835 1.415 . S
C1838 H1828 0.930 . S
C1838 C1836 1.419 . S
C1838 C1839 1.362 . S
C1839 H1829 0.930 . S
C1839 C1832 1.409 . S
C1839 C1838 1.362 . S
H1840 C1846 0.930 . S
H1841 C1849 0.930 . S
H1842 C1850 0.930 . S
H1843 C1851 0.930 . S
H1844 C1854 0.930 . S
H1845 C1855 0.930 . S
C1846 H1840 0.930 . S
C1846 C1847 1.355 . S
C1846 C1848 1.415 . S
C1847 C1846 1.355 . S
C1847 C1849 1.419 . S
C1848 C1846 1.415 . S
C1848 C1853 1.425 . S
C1848 C1855 1.409 . S
C1849 H1841 0.930 . S
C1849 C1847 1.419 . S
C1849 C1850 1.362 . S
C1850 H1842 0.930 . S
C1850 C1849 1.362 . S
C1850 C1853 1.409 . S
C1851 H1843 0.930 . S
C1851 C1852 1.355 . S
C1851 C1853 1.415 . S
C1852 C1851 1.355 . S
C1852 C1854 1.419 . S
C1853 C1848 1.425 . S
C1853 C1850 1.409 . S
C1853 C1851 1.415 . S
C1854 H1844 0.930 . S
C1854 C1852 1.419 . S
C1854 C1855 1.362 . S
C1855 H1845 0.930 . S
C1855 C1848 1.409 . S
C1855 C1854 1.362 . S
H1856 C1862 0.930 . S
H1857 C1865 0.930 . S
H1858 C1866 0.930 . S
H1859 C1867 0.930 . S
H1860 C1870 0.930 . S
H1861 C1871 0.930 . S
C1862 H1856 0.930 . S
C1862 C1863 1.355 . S
C1862 C1864 1.415 . S
C1863 C1862 1.355 . S
C1863 C1865 1.419 . S
C1864 C1862 1.415 . S
C1864 C1869 1.425 . S
C1864 C1871 1.409 . S
C1865 H1857 0.930 . S
C1865 C1863 1.419 . S
C1865 C1866 1.362 . S
C1866 H1858 0.930 . S
C1866 C1865 1.362 . S
C1866 C1869 1.409 . S
C1867 H1859 0.930 . S
C1867 C1868 1.355 . S
C1867 C1869 1.415 . S
C1868 C1867 1.355 . S
C1868 C1870 1.419 . S
C1869 C1864 1.425 . S
C1869 C1866 1.409 . S
C1869 C1867 1.415 . S
C1870 H1860 0.930 . S
C1870 C1868 1.419 . S
C1870 C1871 1.362 . S
C1871 H1861 0.930 . S
C1871 C1864 1.409 . S
C1871 C1870 1.362 . S
H1872 C1878 0.930 . S
H1873 C1881 0.930 . S
H1874 C1882 0.930 . S
H1875 C1883 0.930 . S
H1876 C1886 0.930 . S
H1877 C1887 0.930 . S
C1878 H1872 0.930 . S
C1878 C1879 1.355 . S
C1878 C1880 1.415 . S
C1879 C1878 1.355 . S
C1879 C1881 1.419 . S
C1880 C1878 1.415 . S
C1880 C1885 1.425 . S
C1880 C1887 1.409 . S
C1881 H1873 0.930 . S
C1881 C1879 1.419 . S
C1881 C1882 1.362 . S
C1882 H1874 0.930 . S
C1882 C1881 1.362 . S
C1882 C1885 1.409 . S
C1883 H1875 0.930 . S
C1883 C1884 1.355 . S
C1883 C1885 1.415 . S
C1884 C1883 1.355 . S
C1884 C1886 1.419 . S
C1885 C1880 1.425 . S
C1885 C1882 1.409 . S
C1885 C1883 1.415 . S
C1886 H1876 0.930 . S
C1886 C1884 1.419 . S
C1886 C1887 1.362 . S
C1887 H1877 0.930 . S
C1887 C1880 1.409 . S
C1887 C1886 1.362 . S
H1888 C1894 0.930 . S
H1889 C1897 0.930 . S
H1890 C1898 0.930 . S
H1891 C1899 0.930 . S
H1892 C1902 0.930 . S
H1893 C1903 0.930 . S
C1894 H1888 0.930 . S
C1894 C1895 1.355 . S
C1894 C1896 1.415 . S
C1895 C1894 1.355 . S
C1895 C1897 1.419 . S
C1896 C1894 1.415 . S
C1896 C1901 1.425 . S
C1896 C1903 1.409 . S
C1897 H1889 0.930 . S
C1897 C1895 1.419 . S
C1897 C1898 1.362 . S
C1898 H1890 0.930 . S
C1898 C1897 1.362 . S
C1898 C1901 1.409 . S
C1899 H1891 0.930 . S
C1899 C1900 1.355 . S
C1899 C1901 1.415 . S
C1900 C1899 1.355 . S
C1900 C1902 1.419 . S
C1901 C1896 1.425 . S
C1901 C1898 1.409 . S
C1901 C1899 1.415 . S
C1902 H1892 0.930 . S
C1902 C1900 1.419 . S
C1902 C1903 1.362 . S
C1903 H1893 0.930 . S
C1903 C1896 1.409 . S
C1903 C1902 1.362 . S
H1904 C1910 0.930 . S
H1905 C1913 0.930 . S
H1906 C1914 0.930 . S
H1907 C1915 0.930 . S
H1908 C1918 0.930 . S
H1909 C1919 0.930 . S
C1910 H1904 0.930 . S
C1910 C1911 1.355 . S
C1910 C1912 1.415 . S
C1911 C1910 1.355 . S
C1911 C1913 1.419 . S
C1912 C1910 1.415 . S
C1912 C1917 1.425 . S
C1912 C1919 1.409 . S
C1913 H1905 0.930 . S
C1913 C1911 1.419 . S
C1913 C1914 1.362 . S
C1914 H1906 0.930 . S
C1914 C1913 1.362 . S
C1914 C1917 1.409 . S
C1915 H1907 0.930 . S
C1915 C1916 1.355 . S
C1915 C1917 1.415 . S
C1916 C1915 1.355 . S
C1916 C1918 1.419 . S
C1917 C1912 1.425 . S
C1917 C1914 1.409 . S
C1917 C1915 1.415 . S
C1918 H1908 0.930 . S
C1918 C1916 1.419 . S
C1918 C1919 1.362 . S
C1919 H1909 0.930 . S
C1919 C1912 1.409 . S
C1919 C1918 1.362 . S
C1415 C49 1.426 . S
C1420 C372 1.431 . S
C1431 C460 1.341 . S
C1436 C137 1.334 . S
C1447 C225 1.391 . S
C1452 C548 1.379 . S
C1463 C313 1.348 . S
C1468 C636 1.358 . S
C1479 C733 1.345 . S
C1484 C1105 1.367 . S
C1495 C1201 1.407 . S
C1500 C821 1.421 . S
C1511 C900 1.416 . S
C1516 C1289 1.399 . S
C1527 C988 1.423 . S
C1532 C1369 1.410 . S
C1543 C57 1.308 . S
C1548 C1340 1.267 . S
C1559 C1076 1.316 . S
C1564 C145 1.358 . S
C1575 C233 1.277 . S
C1580 C1173 1.217 . S
C1591 C1261 1.322 . S
C1596 C321 1.357 . S
C1607 C849 1.322 . S
C1612 C381 1.359 . S
C1623 C929 1.307 . S
C1628 C469 1.340 . S
C1639 C1017 1.274 . S
C1644 C557 1.313 . S
C1655 C761 1.262 . S
C1660 C645 1.326 . S
C1671 C724 1.368 . S
C1676 C673 1.309 . S
C1687 C409 1.191 . S
C1692 C812 1.304 . S
C1703 C497 1.224 . S
C1708 C909 1.315 . S
C1719 C997 1.304 . S
C1724 C585 1.190 . S
C1735 C117 1.270 . S
C1740 C1113 1.342 . S
C1751 C1193 1.373 . S
C1756 C205 1.305 . S
C1767 C1281 1.310 . S
C1772 C293 1.197 . S
C1783 C1377 1.334 . S
C1788 C29 1.258 . S
C1799 C665 1.541 . S
C1804 C20 1.501 . S
C1815 C108 1.554 . S
C1820 C401 1.528 . S
C1831 C196 1.552 . S
C1836 C489 1.521 . S
C1847 C284 1.482 . S
C1852 C577 1.498 . S
C1863 C1349 1.489 . S
C1868 C753 1.474 . S
C1879 C1085 1.544 . S
C1884 C841 1.506 . S
C1895 C1164 1.531 . S
C1900 C937 1.539 . S
C1911 C1252 1.477 . S
C1916 C1025 1.484 . S
