# Generated by pormake.
# Topology wgm, (5)-cn, num edge types: 1
# Building blocks:
#     Node 0, Type 0, BuildingBlock: BEQFEK_clean_sbu_0, # of connection points: 5
#     Node 1, Type 0, BuildingBlock: BEQFEK_clean_sbu_0, # of connection points: 5
#     Node 2, Type 0, BuildingBlock: BEQFEK_clean_sbu_0, # of connection points: 5
#     Node 3, Type 0, BuildingBlock: BEQFEK_clean_sbu_0, # of connection points: 5
#     Node 4, Type 0, BuildingBlock: BEQFEK_clean_sbu_0, # of connection points: 5
#     Node 5, Type 0, BuildingBlock: BEQFEK_clean_sbu_0, # of connection points: 5
#     Node 6, Type 0, BuildingBlock: BEQFEK_clean_sbu_0, # of connection points: 5
#     Node 7, Type 0, BuildingBlock: BEQFEK_clean_sbu_0, # of connection points: 5
#     Node 8, Type 0, BuildingBlock: BEQFEK_clean_sbu_0, # of connection points: 5
#     Node 9, Type 0, BuildingBlock: BEQFEK_clean_sbu_0, # of connection points: 5
#     Node 10, Type 0, BuildingBlock: BEQFEK_clean_sbu_0, # of connection points: 5
#     Node 11, Type 0, BuildingBlock: BEQFEK_clean_sbu_0, # of connection points: 5
#     Node 12, Type 0, BuildingBlock: BEQFEK_clean_sbu_0, # of connection points: 5
#     Node 13, Type 0, BuildingBlock: BEQFEK_clean_sbu_0, # of connection points: 5
#     Node 14, Type 0, BuildingBlock: BEQFEK_clean_sbu_0, # of connection points: 5
#     Node 15, Type 0, BuildingBlock: BEQFEK_clean_sbu_0, # of connection points: 5
#     Node 16, Type 0, BuildingBlock: BEQFEK_clean_sbu_0, # of connection points: 5
#     Node 17, Type 0, BuildingBlock: BEQFEK_clean_sbu_0, # of connection points: 5
#     Node 18, Type 0, BuildingBlock: BEQFEK_clean_sbu_0, # of connection points: 5
#     Node 19, Type 0, BuildingBlock: BEQFEK_clean_sbu_0, # of connection points: 5
#     Node 20, Type 0, BuildingBlock: BEQFEK_clean_sbu_0, # of connection points: 5
#     Node 21, Type 0, BuildingBlock: BEQFEK_clean_sbu_0, # of connection points: 5
#     Node 22, Type 0, BuildingBlock: BEQFEK_clean_sbu_0, # of connection points: 5
#     Node 23, Type 0, BuildingBlock: BEQFEK_clean_sbu_0, # of connection points: 5
#     Node 24, Type 0, BuildingBlock: BEQFEK_clean_sbu_0, # of connection points: 5
#     Node 25, Type 0, BuildingBlock: BEQFEK_clean_sbu_0, # of connection points: 5
#     Node 26, Type 0, BuildingBlock: BEQFEK_clean_sbu_0, # of connection points: 5
#     Node 27, Type 0, BuildingBlock: BEQFEK_clean_sbu_0, # of connection points: 5
#     Node 28, Type 0, BuildingBlock: BEQFEK_clean_sbu_0, # of connection points: 5
#     Node 29, Type 0, BuildingBlock: BEQFEK_clean_sbu_0, # of connection points: 5
#     Node 30, Type 0, BuildingBlock: BEQFEK_clean_sbu_0, # of connection points: 5
#     Node 31, Type 0, BuildingBlock: BEQFEK_clean_sbu_0, # of connection points: 5
#     Edge 32, Type (0, 0), BuildingBlock: OJICUG_clean_linker_0, # of connection points: 2
#     Edge 33, Type (0, 0), BuildingBlock: OJICUG_clean_linker_0, # of connection points: 2
#     Edge 34, Type (0, 0), BuildingBlock: OJICUG_clean_linker_0, # of connection points: 2
#     Edge 35, Type (0, 0), BuildingBlock: OJICUG_clean_linker_0, # of connection points: 2
#     Edge 36, Type (0, 0), BuildingBlock: OJICUG_clean_linker_0, # of connection points: 2
#     Edge 37, Type (0, 0), BuildingBlock: OJICUG_clean_linker_0, # of connection points: 2
#     Edge 38, Type (0, 0), BuildingBlock: OJICUG_clean_linker_0, # of connection points: 2
#     Edge 39, Type (0, 0), BuildingBlock: OJICUG_clean_linker_0, # of connection points: 2
#     Edge 40, Type (0, 0), BuildingBlock: OJICUG_clean_linker_0, # of connection points: 2
#     Edge 41, Type (0, 0), BuildingBlock: OJICUG_clean_linker_0, # of connection points: 2
#     Edge 42, Type (0, 0), BuildingBlock: OJICUG_clean_linker_0, # of connection points: 2
#     Edge 43, Type (0, 0), BuildingBlock: OJICUG_clean_linker_0, # of connection points: 2
#     Edge 44, Type (0, 0), BuildingBlock: OJICUG_clean_linker_0, # of connection points: 2
#     Edge 45, Type (0, 0), BuildingBlock: OJICUG_clean_linker_0, # of connection points: 2
#     Edge 46, Type (0, 0), BuildingBlock: OJICUG_clean_linker_0, # of connection points: 2
#     Edge 47, Type (0, 0), BuildingBlock: OJICUG_clean_linker_0, # of connection points: 2
#     Edge 48, Type (0, 0), BuildingBlock: OJICUG_clean_linker_0, # of connection points: 2
#     Edge 49, Type (0, 0), BuildingBlock: OJICUG_clean_linker_0, # of connection points: 2
#     Edge 50, Type (0, 0), BuildingBlock: OJICUG_clean_linker_0, # of connection points: 2
#     Edge 51, Type (0, 0), BuildingBlock: OJICUG_clean_linker_0, # of connection points: 2
#     Edge 52, Type (0, 0), BuildingBlock: OJICUG_clean_linker_0, # of connection points: 2
#     Edge 53, Type (0, 0), BuildingBlock: OJICUG_clean_linker_0, # of connection points: 2
#     Edge 54, Type (0, 0), BuildingBlock: OJICUG_clean_linker_0, # of connection points: 2
#     Edge 55, Type (0, 0), BuildingBlock: OJICUG_clean_linker_0, # of connection points: 2
#     Edge 56, Type (0, 0), BuildingBlock: OJICUG_clean_linker_0, # of connection points: 2
#     Edge 57, Type (0, 0), BuildingBlock: OJICUG_clean_linker_0, # of connection points: 2
#     Edge 58, Type (0, 0), BuildingBlock: OJICUG_clean_linker_0, # of connection points: 2
#     Edge 59, Type (0, 0), BuildingBlock: OJICUG_clean_linker_0, # of connection points: 2
#     Edge 60, Type (0, 0), BuildingBlock: OJICUG_clean_linker_0, # of connection points: 2
#     Edge 61, Type (0, 0), BuildingBlock: OJICUG_clean_linker_0, # of connection points: 2
#     Edge 62, Type (0, 0), BuildingBlock: OJICUG_clean_linker_0, # of connection points: 2
#     Edge 63, Type (0, 0), BuildingBlock: OJICUG_clean_linker_0, # of connection points: 2
#     Edge 64, Type (0, 0), BuildingBlock: OJICUG_clean_linker_0, # of connection points: 2
#     Edge 65, Type (0, 0), BuildingBlock: OJICUG_clean_linker_0, # of connection points: 2
#     Edge 66, Type (0, 0), BuildingBlock: OJICUG_clean_linker_0, # of connection points: 2
#     Edge 67, Type (0, 0), BuildingBlock: OJICUG_clean_linker_0, # of connection points: 2
#     Edge 68, Type (0, 0), BuildingBlock: OJICUG_clean_linker_0, # of connection points: 2
#     Edge 69, Type (0, 0), BuildingBlock: OJICUG_clean_linker_0, # of connection points: 2
#     Edge 70, Type (0, 0), BuildingBlock: OJICUG_clean_linker_0, # of connection points: 2
#     Edge 71, Type (0, 0), BuildingBlock: OJICUG_clean_linker_0, # of connection points: 2
#     Edge 72, Type (0, 0), BuildingBlock: OJICUG_clean_linker_0, # of connection points: 2
#     Edge 73, Type (0, 0), BuildingBlock: OJICUG_clean_linker_0, # of connection points: 2
#     Edge 74, Type (0, 0), BuildingBlock: OJICUG_clean_linker_0, # of connection points: 2
#     Edge 75, Type (0, 0), BuildingBlock: OJICUG_clean_linker_0, # of connection points: 2
#     Edge 76, Type (0, 0), BuildingBlock: OJICUG_clean_linker_0, # of connection points: 2
#     Edge 77, Type (0, 0), BuildingBlock: OJICUG_clean_linker_0, # of connection points: 2
#     Edge 78, Type (0, 0), BuildingBlock: OJICUG_clean_linker_0, # of connection points: 2
#     Edge 79, Type (0, 0), BuildingBlock: OJICUG_clean_linker_0, # of connection points: 2
#     Edge 80, Type (0, 0), BuildingBlock: OJICUG_clean_linker_0, # of connection points: 2
#     Edge 81, Type (0, 0), BuildingBlock: OJICUG_clean_linker_0, # of connection points: 2
#     Edge 82, Type (0, 0), BuildingBlock: OJICUG_clean_linker_0, # of connection points: 2
#     Edge 83, Type (0, 0), BuildingBlock: OJICUG_clean_linker_0, # of connection points: 2
#     Edge 84, Type (0, 0), BuildingBlock: OJICUG_clean_linker_0, # of connection points: 2
#     Edge 85, Type (0, 0), BuildingBlock: OJICUG_clean_linker_0, # of connection points: 2
#     Edge 86, Type (0, 0), BuildingBlock: OJICUG_clean_linker_0, # of connection points: 2
#     Edge 87, Type (0, 0), BuildingBlock: OJICUG_clean_linker_0, # of connection points: 2
#     Edge 88, Type (0, 0), BuildingBlock: OJICUG_clean_linker_0, # of connection points: 2
#     Edge 89, Type (0, 0), BuildingBlock: OJICUG_clean_linker_0, # of connection points: 2
#     Edge 90, Type (0, 0), BuildingBlock: OJICUG_clean_linker_0, # of connection points: 2
#     Edge 91, Type (0, 0), BuildingBlock: OJICUG_clean_linker_0, # of connection points: 2
#     Edge 92, Type (0, 0), BuildingBlock: OJICUG_clean_linker_0, # of connection points: 2
#     Edge 93, Type (0, 0), BuildingBlock: OJICUG_clean_linker_0, # of connection points: 2
#     Edge 94, Type (0, 0), BuildingBlock: OJICUG_clean_linker_0, # of connection points: 2
#     Edge 95, Type (0, 0), BuildingBlock: OJICUG_clean_linker_0, # of connection points: 2
#     Edge 96, Type (0, 0), BuildingBlock: OJICUG_clean_linker_0, # of connection points: 2
#     Edge 97, Type (0, 0), BuildingBlock: OJICUG_clean_linker_0, # of connection points: 2
#     Edge 98, Type (0, 0), BuildingBlock: OJICUG_clean_linker_0, # of connection points: 2
#     Edge 99, Type (0, 0), BuildingBlock: OJICUG_clean_linker_0, # of connection points: 2
#     Edge 100, Type (0, 0), BuildingBlock: OJICUG_clean_linker_0, # of connection points: 2
#     Edge 101, Type (0, 0), BuildingBlock: OJICUG_clean_linker_0, # of connection points: 2
#     Edge 102, Type (0, 0), BuildingBlock: OJICUG_clean_linker_0, # of connection points: 2
#     Edge 103, Type (0, 0), BuildingBlock: OJICUG_clean_linker_0, # of connection points: 2
#     Edge 104, Type (0, 0), BuildingBlock: OJICUG_clean_linker_0, # of connection points: 2
#     Edge 105, Type (0, 0), BuildingBlock: OJICUG_clean_linker_0, # of connection points: 2
#     Edge 106, Type (0, 0), BuildingBlock: OJICUG_clean_linker_0, # of connection points: 2
#     Edge 107, Type (0, 0), BuildingBlock: OJICUG_clean_linker_0, # of connection points: 2
#     Edge 108, Type (0, 0), BuildingBlock: OJICUG_clean_linker_0, # of connection points: 2
#     Edge 109, Type (0, 0), BuildingBlock: OJICUG_clean_linker_0, # of connection points: 2
#     Edge 110, Type (0, 0), BuildingBlock: OJICUG_clean_linker_0, # of connection points: 2
#     Edge 111, Type (0, 0), BuildingBlock: OJICUG_clean_linker_0, # of connection points: 2
# Relax obj value: 0.071
# Max RMSD: 0.113
# Mean RMSD: 0.113
data_MOF--net-wgm--node1-BEQFEK_clean_sbu_0--edge1-OJICUG_clean_linker_0
_symmetry_space_group_name_H-M    P1
_symmetry_Int_Tables_number       1
_symmetry_cell_setting            triclinic
loop_
_symmetry_equiv_pos_as_xyz
'x, y, z'
_cell_length_a     36.632451
_cell_length_b     36.629485
_cell_length_c     63.576159
_cell_angle_alpha  89.997514
_cell_angle_beta   90.014082
_cell_angle_gamma 90.003491
loop_
_atom_site_label
_atom_site_type_symbol
_atom_site_fract_x
_atom_site_fract_y
_atom_site_fract_z
_atom_type_partial_charge
Co0 Co 0.21648 0.10357 0.31337 0.0
Co1 Co 0.21255 0.16868 0.34546 0.0
C2 C 0.15208 0.11414 0.34206 0.0
O3 O 0.16888 0.09701 0.32762 0.0
O4 O 0.1658 0.1425 0.35049 0.0
C5 C 0.1885 0.06002 0.28051 0.0
O6 O 0.15851 0.07784 0.28529 0.0
C7 C 0.1855 0.23677 0.3657 0.0
C8 C 0.23623 0.25717 0.38035 0.0
C9 C 0.19961 0.26537 0.37759 0.0
N10 N 0.21275 0.21314 0.36142 0.0
N11 N 0.2429 0.22554 0.37031 0.0
C12 C 0.1466 0.23148 0.35908 0.0
H13 H 0.14029 0.20231 0.35677 0.0
H14 H 0.14193 0.24572 0.34392 0.0
H15 H 0.12767 0.24292 0.371 0.0
C16 C 0.22936 0.16411 0.28354 0.0
N17 N 0.22184 0.1515 0.30296 0.0
N18 N 0.22012 0.17907 0.3162 0.0
C19 C 0.22641 0.21029 0.30549 0.0
C20 C 0.23242 0.20184 0.28443 0.0
C21 C 0.23649 0.14009 0.26494 0.0
H22 H 0.25346 0.11646 0.26976 0.0
H23 H 0.21011 0.12953 0.25889 0.0
H24 H 0.25067 0.15503 0.25215 0.0
O25 O 0.25638 0.09215 0.33313 0.0
O26 O 0.25273 0.13706 0.35658 0.0
H27 H 0.24829 0.24951 0.32697 0.0
H28 H 0.22915 0.2694 0.30334 0.0
C29 C 0.226 0.24749 0.31522 0.0
H30 H 0.19974 0.25161 0.32349 0.0
H31 H 0.26815 0.21243 0.36945 0.0
O32 O 0.2178 0.06739 0.29033 0.0
C33 C 0.26739 0.10767 0.34989 0.0
Co34 Co 0.1478 0.96442 0.56326 0.0
Co35 Co 0.08226 0.95989 0.59496 0.0
C36 C 0.13693 0.89996 0.59205 0.0
O37 O 0.15488 0.91794 0.57844 0.0
O38 O 0.10714 0.91212 0.59959 0.0
C39 C 0.19516 0.9361 0.53206 0.0
O40 O 0.18108 0.90506 0.53848 0.0
C41 C 0.01247 0.93436 0.6135 0.0
C42 C 0.99647 0.98275 0.63206 0.0
C43 C 0.98542 0.94766 0.62688 0.0
N44 N 0.03794 0.96055 0.61092 0.0
N45 N 0.02811 0.98935 0.62205 0.0
C46 C 0.01508 0.89704 0.60401 0.0
H47 H 0.04315 0.89122 0.59861 0.0
H48 H 0.99684 0.89542 0.59012 0.0
H49 H 0.00644 0.87603 0.61556 0.0
C50 C 0.08767 0.97617 0.53309 0.0
N51 N 0.09993 0.96905 0.55262 0.0
N52 N 0.0722 0.96823 0.56578 0.0
C53 C 0.04126 0.97523 0.55494 0.0
C54 C 0.05004 0.98043 0.53385 0.0
C55 C 0.11174 0.97801 0.51409 0.0
H56 H 0.13115 0.00108 0.51584 0.0
H57 H 0.12786 0.95249 0.51296 0.0
H58 H 0.0959 0.98133 0.49936 0.0
O59 O 0.15867 0.00482 0.58263 0.0
O60 O 0.1147 0.9992 0.60652 0.0
H61 H 0.00707 0.99683 0.57928 0.0
H62 H 0.98501 0.99354 0.554 0.0
C63 C 0.00452 0.98007 0.56485 0.0
H64 H 0.99352 0.95297 0.56931 0.0
H65 H 0.04312 0.01352 0.62289 0.0
O66 O 0.18415 0.96577 0.54026 0.0
C67 C 0.14358 0.01471 0.59973 0.0
Co68 Co 0.28508 0.89771 0.81323 0.0
Co69 Co 0.28834 0.8326 0.84535 0.0
C70 C 0.34901 0.88706 0.84224 0.0
O71 O 0.33247 0.90424 0.82771 0.0
O72 O 0.3351 0.85872 0.85059 0.0
C73 C 0.31315 0.94206 0.78064 0.0
O74 O 0.34349 0.92507 0.78571 0.0
C75 C 0.31506 0.76422 0.86531 0.0
C76 C 0.26465 0.74467 0.88067 0.0
C77 C 0.30105 0.73593 0.87749 0.0
N78 N 0.28797 0.78817 0.86131 0.0
N79 N 0.258 0.77627 0.87061 0.0
C80 C 0.35374 0.769 0.85817 0.0
H81 H 0.35994 0.79793 0.85494 0.0
H82 H 0.35804 0.75348 0.8434 0.0
H83 H 0.37299 0.75853 0.87024 0.0
C84 C 0.27328 0.83711 0.78327 0.0
N85 N 0.28003 0.84977 0.80278 0.0
N86 N 0.28111 0.82222 0.81606 0.0
C87 C 0.27491 0.79101 0.80533 0.0
C88 C 0.26989 0.79942 0.78418 0.0
C89 C 0.26742 0.86104 0.76449 0.0
H90 H 0.24959 0.88433 0.76881 0.0
H91 H 0.2941 0.87215 0.75927 0.0
H92 H 0.25473 0.84589 0.75127 0.0
O93 O 0.2449 0.90913 0.83286 0.0
O94 O 0.24813 0.86421 0.85631 0.0
H95 H 0.25256 0.75278 0.82724 0.0
H96 H 0.26965 0.73205 0.80333 0.0
C97 C 0.27429 0.75387 0.81512 0.0
H98 H 0.30078 0.74873 0.82295 0.0
H99 H 0.23292 0.78974 0.87004 0.0
O100 O 0.2838 0.9339 0.79018 0.0
C101 C 0.23364 0.89364 0.84957 0.0
Co102 Co 0.35432 0.03731 0.0627 0.0
Co103 Co 0.41821 0.03947 0.09551 0.0
C104 C 0.36672 0.10218 0.09084 0.0
O105 O 0.34901 0.08519 0.0767 0.0
O106 O 0.39482 0.08809 0.0994 0.0
C107 C 0.30866 0.06541 0.0304 0.0
O108 O 0.32353 0.09639 0.0363 0.0
C109 C 0.48778 0.06407 0.11362 0.0
C110 C 0.49997 0.0197 0.13604 0.0
C111 C 0.51335 0.05273 0.12856 0.0
N112 N 0.46107 0.03891 0.11254 0.0
N113 N 0.46846 0.01256 0.12604 0.0
C114 C 0.48886 0.09699 0.09971 0.0
H115 H 0.46975 0.09368 0.08629 0.0
H116 H 0.51692 0.10152 0.09368 0.0
H117 H 0.48023 0.1213 0.10885 0.0
C118 C 0.41531 0.02225 0.03363 0.0
N119 N 0.40245 0.03003 0.05295 0.0
N120 N 0.42956 0.02982 0.06655 0.0
C121 C 0.46065 0.02131 0.05622 0.0
C122 C 0.45265 0.01636 0.03501 0.0
C123 C 0.39215 0.02171 0.01423 0.0
H124 H 0.37183 0.99935 0.01548 0.0
H125 H 0.37705 0.04784 0.01302 0.0
H126 H 0.40858 0.01811 0.99974 0.0
O127 O 0.34072 0.99824 0.08265 0.0
O128 O 0.38443 0.00156 0.10682 0.0
H129 H 0.49283 0.00166 0.08209 0.0
H130 H 0.51473 0.99768 0.05674 0.0
C131 C 0.49677 0.01502 0.06662 0.0
H132 H 0.51049 0.04165 0.06912 0.0
H133 H 0.452 0.98966 0.12839 0.0
O134 O 0.31871 0.03594 0.03923 0.0
C135 C 0.35496 0.98756 0.09985 0.0
Co136 Co 0.21259 0.89656 0.18728 0.0
Co137 Co 0.21115 0.83213 0.15482 0.0
C138 C 0.14818 0.8835 0.15894 0.0
O139 O 0.16485 0.90138 0.17314 0.0
O140 O 0.16255 0.85546 0.15047 0.0
C141 C 0.18478 0.94512 0.21838 0.0
O142 O 0.1533 0.93232 0.21182 0.0
C143 C 0.18682 0.76222 0.13704 0.0
C144 C 0.23152 0.74958 0.11494 0.0
C145 C 0.19836 0.73638 0.12232 0.0
N146 N 0.21199 0.78892 0.13809 0.0
N147 N 0.23855 0.78126 0.12479 0.0
C148 C 0.15368 0.76144 0.15078 0.0
H149 H 0.15683 0.78075 0.16411 0.0
H150 H 0.14899 0.73348 0.15693 0.0
H151 H 0.12953 0.76998 0.14146 0.0
C152 C 0.22649 0.83613 0.21687 0.0
N153 N 0.21963 0.84867 0.19737 0.0
N154 N 0.22027 0.82133 0.18393 0.0
C155 C 0.2283 0.7904 0.19457 0.0
C156 C 0.23234 0.79875 0.21581 0.0
C157 C 0.22591 0.8596 0.23615 0.0
H158 H 0.24929 0.87884 0.23564 0.0
H159 H 0.20043 0.87592 0.23633 0.0
H160 H 0.22719 0.84325 0.2508 0.0
O161 O 0.25181 0.90982 0.16736 0.0
O162 O 0.24917 0.86567 0.14344 0.0
H163 H 0.24843 0.75776 0.16902 0.0
H164 H 0.25223 0.73647 0.19455 0.0
C165 C 0.2349 0.7541 0.18446 0.0
H166 H 0.20839 0.74016 0.18196 0.0
H167 H 0.2615 0.79765 0.12246 0.0
O168 O 0.21413 0.93271 0.21046 0.0
C169 C 0.26287 0.89535 0.15031 0.0
Co170 Co 0.35402 0.96479 0.43678 0.0
Co171 Co 0.41941 0.9603 0.40505 0.0
C172 C 0.36405 0.90079 0.40753 0.0
O173 O 0.34637 0.91853 0.42137 0.0
O174 O 0.39385 0.91299 0.40002 0.0
C175 C 0.30678 0.93634 0.46797 0.0
O176 O 0.32087 0.90535 0.46148 0.0
C177 C 0.48867 0.93395 0.38639 0.0
C178 C 0.50515 0.98199 0.36768 0.0
C179 C 0.51573 0.94677 0.37287 0.0
N180 N 0.46363 0.96051 0.38902 0.0
N181 N 0.47373 0.98911 0.3778 0.0
C182 C 0.4856 0.89671 0.39594 0.0
H183 H 0.45751 0.89131 0.40145 0.0
H184 H 0.50393 0.89488 0.40978 0.0
H185 H 0.49384 0.87551 0.3844 0.0
C186 C 0.41438 0.9758 0.46698 0.0
N187 N 0.40201 0.96881 0.44745 0.0
N188 N 0.4297 0.96792 0.43427 0.0
C189 C 0.46071 0.97471 0.44509 0.0
C190 C 0.45204 0.97987 0.4662 0.0
C191 C 0.39036 0.9779 0.48599 0.0
H192 H 0.37112 0.0011 0.48423 0.0
H193 H 0.37405 0.9525 0.48717 0.0
H194 H 0.40626 0.98115 0.50071 0.0
O195 O 0.34349 0.00572 0.41765 0.0
O196 O 0.38761 1.00035 0.39383 0.0
H197 H 0.49481 0.99646 0.42074 0.0
H198 H 0.51702 0.99287 0.44597 0.0
C199 C 0.49741 0.97956 0.43512 0.0
H200 H 0.5083 0.95247 0.43055 0.0
H201 H 0.45904 0.01348 0.37697 0.0
O202 O 0.31776 0.96607 0.45983 0.0
C203 C 0.35883 0.01596 0.40068 0.0
Co204 Co 0.2869 0.10446 0.68695 0.0
Co205 Co 0.2883 0.1689 0.65454 0.0
C206 C 0.35101 0.11707 0.6583 0.0
O207 O 0.33443 0.09925 0.67255 0.0
O208 O 0.33667 0.14521 0.64992 0.0
C209 C 0.31521 0.05645 0.71815 0.0
O210 O 0.34651 0.06976 0.71162 0.0
C211 C 0.31317 0.23846 0.63668 0.0
C212 C 0.26861 0.25142 0.61453 0.0
C213 C 0.30193 0.26429 0.62187 0.0
N214 N 0.2877 0.21207 0.6378 0.0
N215 N 0.26121 0.21992 0.62448 0.0
C216 C 0.34636 0.23893 0.65039 0.0
H217 H 0.34303 0.21972 0.66376 0.0
H218 H 0.35137 0.26686 0.65651 0.0
H219 H 0.37038 0.23008 0.64108 0.0
C220 C 0.27372 0.16503 0.71663 0.0
N221 N 0.2804 0.15245 0.69712 0.0
N222 N 0.27978 0.17979 0.68368 0.0
C223 C 0.27195 0.21076 0.69432 0.0
C224 C 0.26801 0.20245 0.71557 0.0
C225 C 0.27418 0.14155 0.7359 0.0
H226 H 0.25084 0.12227 0.73533 0.0
H227 H 0.29968 0.12528 0.73615 0.0
H228 H 0.27278 0.15788 0.75056 0.0
O229 O 0.24706 0.09154 0.66729 0.0
O230 O 0.2496 0.13584 0.64346 0.0
H231 H 0.25159 0.24335 0.6688 0.0
H232 H 0.24809 0.26474 0.69431 0.0
C233 C 0.26529 0.24704 0.68419 0.0
H234 H 0.2918 0.26093 0.68159 0.0
H235 H 0.2381 0.20375 0.62218 0.0
O236 O 0.2857 0.06835 0.71016 0.0
C237 C 0.2357 0.10629 0.65037 0.0
Co238 Co 0.14704 0.03647 0.93642 0.0
Co239 Co 0.08116 0.04061 0.90484 0.0
C240 C 0.13627 0.10037 0.90712 0.0
O241 O 0.15417 0.08268 0.92089 0.0
O242 O 0.1064 0.08809 0.89972 0.0
C243 C 0.19563 0.06508 0.96703 0.0
O244 O 0.18212 0.09615 0.96026 0.0
C245 C 0.01131 0.06635 0.88648 0.0
C246 C 0.99507 0.01822 0.86777 0.0
C247 C 0.98416 0.05329 0.87307 0.0
N248 N 0.0367 0.04005 0.88896 0.0
N249 N 0.02673 0.0114 0.87773 0.0
C250 C 0.01417 0.10358 0.89607 0.0
H251 H 0.04232 0.10922 0.90142 0.0
H252 H 0.99607 0.10516 0.91001 0.0
H253 H 0.00552 0.12473 0.8846 0.0
C254 C 0.08706 0.02549 0.96683 0.0
N255 N 0.09918 0.03229 0.94723 0.0
N256 N 0.07134 0.03293 0.93414 0.0
C257 C 0.04048 0.02609 0.94509 0.0
C258 C 0.04941 0.02124 0.96619 0.0
C259 C 0.1113 0.02382 0.98577 0.0
H260 H 0.13015 1.00025 0.98424 0.0
H261 H 0.12803 0.04899 0.98653 0.0
H262 H 0.09553 0.02138 0.00058 0.0
O263 O 0.15746 0.99558 0.91723 0.0
O264 O 0.11313 0.00077 0.89351 0.0
H265 H 0.00628 0.00425 0.9208 0.0
H266 H 0.98444 0.00721 0.94616 0.0
C267 C 0.0037 0.02092 0.93527 0.0
H268 H 0.99238 0.04793 0.93089 0.0
H269 H 0.04167 0.98721 0.87678 0.0
O270 O 0.18376 0.03533 0.95932 0.0
C271 C 0.14204 0.98529 0.9003 0.0
Co272 Co 0.7868 0.89787 0.68734 0.0
Co273 Co 0.78859 0.83262 0.65526 0.0
C274 C 0.85041 0.88594 0.65833 0.0
O275 O 0.83413 0.90347 0.67281 0.0
O276 O 0.83607 0.85776 0.65002 0.0
C277 C 0.81479 0.94654 0.71826 0.0
O278 O 0.84614 0.93341 0.71171 0.0
C279 C 0.81438 0.76288 0.63705 0.0
C280 C 0.76689 0.74699 0.61772 0.0
C281 C 0.80174 0.73591 0.6234 0.0
N282 N 0.78809 0.78832 0.63928 0.0
N283 N 0.7598 0.77857 0.62769 0.0
C284 C 0.85124 0.76554 0.64712 0.0
H285 H 0.85661 0.79353 0.65283 0.0
H286 H 0.85238 0.747 0.66089 0.0
H287 H 0.87282 0.75729 0.63582 0.0
C288 C 0.77471 0.83758 0.71742 0.0
N289 N 0.7811 0.85001 0.69783 0.0
N290 N 0.78089 0.82246 0.68454 0.0
C291 C 0.7737 0.7915 0.69533 0.0
C292 C 0.76968 0.80004 0.71655 0.0
C293 C 0.77466 0.86136 0.73657 0.0
H294 H 0.75109 0.88034 0.73581 0.0
H295 H 0.79995 0.87795 0.73682 0.0
H296 H 0.7733 0.84523 0.7513 0.0
O297 O 0.74682 0.90981 0.66755 0.0
O298 O 0.74919 0.86486 0.64408 0.0
H299 H 0.75135 0.75827 0.67073 0.0
H300 H 0.75304 0.7361 0.69604 0.0
C301 C 0.76761 0.75503 0.68531 0.0
H302 H 0.79434 0.74289 0.68112 0.0
H303 H 0.73571 0.79362 0.62649 0.0
O304 O 0.78532 0.93434 0.71038 0.0
C305 C 0.73532 0.89459 0.6508 0.0
Co306 Co 0.85513 0.03752 0.43715 0.0
Co307 Co 0.91992 0.03998 0.40473 0.0
C308 C 0.86669 0.10168 0.40843 0.0
O309 O 0.84944 0.08509 0.4229 0.0
O310 O 0.89477 0.08757 0.39987 0.0
C311 C 0.80836 0.06535 0.46889 0.0
O312 O 0.82303 0.09641 0.46298 0.0
C313 C 0.9896 0.06525 0.38604 0.0
C314 C 0.00532 0.01705 0.36725 0.0
C315 C 0.01659 0.052 0.3726 0.0
N316 N 0.96401 0.03917 0.38853 0.0
N317 N 0.97364 0.01049 0.37723 0.0
C318 C 0.98711 0.10245 0.3957 0.0
H319 H 0.95896 0.10844 0.40091 0.0
H320 H 0.00502 0.10369 0.40975 0.0
H321 H 0.9962 0.12357 0.38433 0.0
C322 C 0.91564 0.02389 0.46673 0.0
N323 N 0.90305 0.03133 0.44731 0.0
N324 N 0.93045 0.03168 0.43392 0.0
C325 C 0.96151 0.02403 0.44451 0.0
C326 C 0.95314 0.01892 0.46566 0.0
C327 C 0.89201 0.0225 0.48593 0.0
H328 H 0.87208 0.99985 0.48432 0.0
H329 H 0.87644 0.04835 0.48721 0.0
H330 H 0.90814 0.01879 0.50052 0.0
O331 O 0.84281 0.99803 0.41725 0.0
O332 O 0.88734 0.0009 0.39354 0.0
H333 H 0.99478 0.00185 0.41991 0.0
H334 H 0.01745 0.00479 0.44505 0.0
C335 C 0.99793 0.01857 0.43432 0.0
H336 H 0.00929 0.04548 0.42978 0.0
H337 H 0.95851 0.9864 0.37631 0.0
O338 O 0.81898 0.03587 0.4603 0.0
C339 C 0.85774 0.9869 0.40035 0.0
Co340 Co 0.71453 0.10341 0.18669 0.0
Co341 Co 0.7103 0.16915 0.15506 0.0
C342 C 0.65028 0.11435 0.15769 0.0
O343 O 0.66803 0.09641 0.17142 0.0
O344 O 0.66268 0.14408 0.15019 0.0
C345 C 0.68619 0.05522 0.21756 0.0
O346 O 0.6551 0.06891 0.21095 0.0
C347 C 0.68429 0.23901 0.13693 0.0
C348 C 0.73201 0.25517 0.11787 0.0
C349 C 0.69707 0.26613 0.12342 0.0
N350 N 0.7106 0.21358 0.1392 0.0
N351 N 0.73902 0.22351 0.12777 0.0
C352 C 0.6473 0.23624 0.14681 0.0
H353 H 0.64187 0.2082 0.15241 0.0
H354 H 0.64597 0.25466 0.16063 0.0
H355 H 0.62587 0.24459 0.13544 0.0
C356 C 0.726 0.16352 0.21701 0.0
N357 N 0.71906 0.1513 0.19743 0.0
N358 N 0.71842 0.17907 0.1843 0.0
C359 C 0.72543 0.20997 0.19517 0.0
C360 C 0.73036 0.20116 0.21629 0.0
C361 C 0.72759 0.1394 0.23599 0.0
H362 H 0.75103 0.12038 0.23448 0.0
H363 H 0.70232 0.12283 0.23682 0.0
H364 H 0.73018 0.15525 0.25077 0.0
O365 O 0.75508 0.09273 0.16729 0.0
O366 O 0.74986 0.13702 0.14354 0.0
H367 H 0.74705 0.24397 0.17072 0.0
H368 H 0.74471 0.26588 0.19608 0.0
C369 C 0.73066 0.24668 0.18529 0.0
H370 H 0.70365 0.25819 0.18108 0.0
H371 H 0.76317 0.20853 0.12664 0.0
O372 O 0.71588 0.0668 0.20964 0.0
C373 C 0.76524 0.10803 0.15029 0.0
Co374 Co 0.64716 0.96427 0.93673 0.0
Co375 Co 0.58128 0.96059 0.9052 0.0
C376 C 0.63634 0.90075 0.90722 0.0
O377 O 0.65426 0.91831 0.92104 0.0
O378 O 0.60645 0.91309 0.89988 0.0
C379 C 0.69636 0.93568 0.96706 0.0
O380 O 0.68368 0.90447 0.95998 0.0
C381 C 0.51131 0.93548 0.88672 0.0
C382 C 0.4952 0.98411 0.8684 0.0
C383 C 0.48415 0.94898 0.87346 0.0
N384 N 0.53682 0.9616 0.88935 0.0
N385 N 0.52694 0.99055 0.87835 0.0
C386 C 0.51404 0.89803 0.89602 0.0
H387 H 0.5422 0.89213 0.90126 0.0
H388 H 0.49603 0.89622 0.90999 0.0
H389 H 0.5052 0.87717 0.88442 0.0
C390 C 0.5873 0.97443 0.96727 0.0
N391 N 0.59937 0.96816 0.94759 0.0
N392 N 0.5715 0.96783 0.93452 0.0
C393 C 0.54068 0.97446 0.94555 0.0
C394 C 0.54967 0.97876 0.96668 0.0
C395 C 0.61158 0.97543 0.9862 0.0
H396 H 0.63016 0.99927 0.98506 0.0
H397 H 0.62857 0.95041 0.98655 0.0
H398 H 0.59581 0.97696 0.00106 0.0
O399 O 0.65754 0.00544 0.91778 0.0
O400 O 0.61322 1.00055 0.89405 0.0
H401 H 0.50653 0.99682 0.92139 0.0
H402 H 0.48476 0.99369 0.94675 0.0
C403 C 0.5039 0.97998 0.93578 0.0
H404 H 0.4924 0.9531 0.93131 0.0
H405 H 0.54198 0.01471 0.87758 0.0
O406 O 0.68381 0.96534 0.95961 0.0
C407 C 0.64211 0.01597 0.90091 0.0
Co408 Co 0.78427 0.10428 0.81385 0.0
Co409 Co 0.7879 0.16941 0.84585 0.0
C410 C 0.84899 0.11597 0.84242 0.0
O411 O 0.83197 0.09842 0.8282 0.0
O412 O 0.83534 0.14449 0.85073 0.0
C413 C 0.81241 0.06059 0.78096 0.0
O414 O 0.84255 0.07813 0.78579 0.0
C415 C 0.81452 0.23558 0.86757 0.0
C416 C 0.76271 0.26035 0.87822 0.0
C417 C 0.80015 0.26571 0.87799 0.0
N418 N 0.78669 0.21387 0.86164 0.0
N419 N 0.75587 0.22874 0.86818 0.0
C420 C 0.85388 0.22613 0.8643 0.0
H421 H 0.85969 0.22472 0.84719 0.0
H422 H 0.87253 0.24585 0.87197 0.0
H423 H 0.85933 0.19881 0.87108 0.0
C424 C 0.77105 0.16465 0.78396 0.0
N425 N 0.77844 0.15208 0.8034 0.0
N426 N 0.78044 0.1797 0.81659 0.0
C427 C 0.77482 0.21095 0.80579 0.0
C428 C 0.76859 0.20244 0.78475 0.0
C429 C 0.76369 0.14058 0.76541 0.0
H430 H 0.74705 0.11678 0.77034 0.0
H431 H 0.79001 0.13031 0.75913 0.0
H432 H 0.74904 0.15542 0.75275 0.0
O433 O 0.74445 0.09249 0.8335 0.0
O434 O 0.74821 0.13725 0.85702 0.0
H435 H 0.75267 0.25233 0.82573 0.0
H436 H 0.77693 0.26994 0.80314 0.0
C437 C 0.77661 0.24826 0.81532 0.0
H438 H 0.80167 0.2507 0.82496 0.0
H439 H 0.73009 0.21747 0.86559 0.0
O440 O 0.78318 0.06809 0.7908 0.0
C441 C 0.73356 0.10787 0.85032 0.0
Co442 Co 0.64726 0.03694 0.56303 0.0
Co443 Co 0.58224 0.04051 0.59518 0.0
C444 C 0.63612 0.1016 0.59152 0.0
O445 O 0.65347 0.0845 0.57728 0.0
O446 O 0.60763 0.08802 0.5999 0.0
C447 C 0.69384 0.06475 0.5313 0.0
O448 O 0.6787 0.09566 0.53708 0.0
C449 C 0.51277 0.06689 0.61362 0.0
C450 C 0.49686 0.01947 0.633 0.0
C451 C 0.48589 0.05437 0.62735 0.0
N452 N 0.53808 0.04047 0.6113 0.0
N453 N 0.5283 0.01224 0.62293 0.0
C454 C 0.51545 0.10373 0.60354 0.0
H455 H 0.54345 0.10906 0.59782 0.0
H456 H 0.4969 0.10486 0.58977 0.0
H457 H 0.50724 0.12534 0.61483 0.0
C458 C 0.58679 0.02351 0.53327 0.0
N459 N 0.59931 0.03115 0.55269 0.0
N460 N 0.57181 0.03192 0.56601 0.0
C461 C 0.54076 0.02436 0.55538 0.0
C462 C 0.54922 0.01886 0.53427 0.0
C463 C 0.61056 0.0216 0.51415 0.0
H464 H 0.63039 0.99892 0.51597 0.0
H465 H 0.62623 0.04736 0.51272 0.0
H466 H 0.59452 0.01765 0.49954 0.0
O467 O 0.65903 0.9973 0.583 0.0
O468 O 0.61445 0.00118 0.60664 0.0
H469 H 0.50722 0.00296 0.58009 0.0
H470 H 0.48474 0.00534 0.55488 0.0
C471 C 0.50424 0.01931 0.56553 0.0
H472 H 0.49297 0.04639 0.56981 0.0
H473 H 0.54324 0.98806 0.62407 0.0
O474 O 0.68356 0.0352 0.53995 0.0
C475 C 0.64387 0.98662 0.59995 0.0
Co476 Co 0.71462 0.89662 0.31325 0.0
Co477 Co 0.71295 0.8323 0.34579 0.0
C478 C 0.65025 0.88393 0.34168 0.0
O479 O 0.66694 0.90177 0.32747 0.0
O480 O 0.66453 0.85583 0.35012 0.0
C481 C 0.6862 0.94271 0.28123 0.0
O482 O 0.65524 0.92795 0.28725 0.0
C483 C 0.68822 0.76275 0.36379 0.0
C484 C 0.73285 0.75003 0.38594 0.0
C485 C 0.69957 0.737 0.37862 0.0
N486 N 0.71359 0.78923 0.36263 0.0
N487 N 0.74012 0.78153 0.37595 0.0
C488 C 0.65502 0.7621 0.35009 0.0
H489 H 0.65826 0.7813 0.3367 0.0
H490 H 0.65013 0.73414 0.34399 0.0
H491 H 0.63096 0.77087 0.3594 0.0
C492 C 0.72872 0.83598 0.28381 0.0
N493 N 0.72152 0.84862 0.30325 0.0
N494 N 0.72189 0.82132 0.31673 0.0
C495 C 0.72992 0.79032 0.30618 0.0
C496 C 0.73438 0.79859 0.28498 0.0
C497 C 0.72885 0.85938 0.2645 0.0
H498 H 0.7512 0.87972 0.26569 0.0
H499 H 0.70268 0.87446 0.26353 0.0
H500 H 0.73218 0.84315 0.24992 0.0
O501 O 0.75411 0.90979 0.33302 0.0
O502 O 0.75127 0.86566 0.35696 0.0
H503 H 0.74989 0.75762 0.33175 0.0
H504 H 0.75317 0.73607 0.30626 0.0
C505 C 0.73617 0.75401 0.31636 0.0
H506 H 0.70951 0.74043 0.31898 0.0
H507 H 0.76318 0.79778 0.37822 0.0
O508 O 0.71575 0.93249 0.2899 0.0
C509 C 0.76519 0.8952 0.35004 0.0
Co510 Co 0.85401 0.96508 0.06296 0.0
Co511 Co 0.91859 0.96253 0.09533 0.0
C512 C 0.86483 0.90116 0.09192 0.0
O513 O 0.8477 0.91763 0.07735 0.0
O514 O 0.89297 0.91527 0.1004 0.0
C515 C 0.8086 0.93683 0.03082 0.0
O516 O 0.82418 0.90612 0.03658 0.0
C517 C 0.9876 0.93575 0.11381 0.0
C518 C 0.00347 0.98256 0.1337 0.0
C519 C 0.0143 0.94773 0.12782 0.0
N520 N 0.96253 0.96238 0.11158 0.0
N521 N 0.97226 0.99027 0.12349 0.0
C522 C 0.98483 0.89917 0.10342 0.0
H523 H 0.95696 0.89427 0.09738 0.0
H524 H 0.00376 0.89815 0.08983 0.0
H525 H 0.99249 0.87722 0.11462 0.0
C526 C 0.91478 0.97809 0.03331 0.0
N527 N 0.90206 0.97078 0.05273 0.0
N528 N 0.92941 0.97042 0.06615 0.0
C529 C 0.96054 0.97796 0.05562 0.0
C530 C 0.95231 0.98299 0.03444 0.0
C531 C 0.89125 0.97945 0.01407 0.0
H532 H 0.87099 0.00179 0.01573 0.0
H533 H 0.87609 0.9534 0.01262 0.0
H534 H 0.90739 0.98356 0.99952 0.0
O535 O 0.84191 0.00509 0.0827 0.0
O536 O 0.88658 0.00228 0.10633 0.0
H537 H 0.99353 0.99982 0.08046 0.0
H538 H 0.01624 0.99787 0.0553 0.0
C539 C 0.99688 0.98356 0.06589 0.0
H540 H 0.00856 0.95666 0.07016 0.0
H541 H 0.95742 0.01448 0.12477 0.0
O542 O 0.81809 0.96642 0.03972 0.0
C543 C 0.85706 0.01645 0.09951 0.0
Co544 Co 0.71359 0.60419 0.81316 0.0
Co545 Co 0.71206 0.66849 0.84572 0.0
C546 C 0.64911 0.6171 0.84151 0.0
O547 O 0.66575 0.59925 0.82729 0.0
O548 O 0.66353 0.64508 0.85 0.0
C549 C 0.68557 0.55622 0.78178 0.0
O550 O 0.65422 0.56947 0.78824 0.0
C551 C 0.68734 0.73822 0.86345 0.0
C552 C 0.73183 0.7511 0.88566 0.0
C553 C 0.69867 0.76414 0.87818 0.0
N554 N 0.71263 0.71164 0.86249 0.0
N555 N 0.73907 0.71943 0.87585 0.0
C556 C 0.65429 0.73886 0.84963 0.0
H557 H 0.65763 0.7196 0.83629 0.0
H558 H 0.6495 0.76681 0.84348 0.0
H559 H 0.63013 0.73018 0.85888 0.0
C560 C 0.72788 0.66491 0.78371 0.0
N561 N 0.72071 0.65221 0.80315 0.0
N562 N 0.72123 0.67945 0.81666 0.0
C563 C 0.72941 0.71046 0.80615 0.0
C564 C 0.73374 0.7023 0.78492 0.0
C565 C 0.72779 0.64158 0.76439 0.0
H566 H 0.75102 0.62217 0.76512 0.0
H567 H 0.70223 0.62543 0.76388 0.0
H568 H 0.7297 0.65803 0.74979 0.0
O569 O 0.75289 0.59088 0.83311 0.0
O570 O 0.75021 0.63504 0.85704 0.0
H571 H 0.74958 0.74282 0.83182 0.0
H572 H 0.75333 0.76442 0.80638 0.0
C573 C 0.73602 0.74666 0.8164 0.0
H574 H 0.70951 0.76055 0.81895 0.0
H575 H 0.76207 0.70314 0.87825 0.0
O576 O 0.71501 0.56813 0.78986 0.0
C577 C 0.76398 0.60539 0.85016 0.0
Co578 Co 0.64619 0.46492 0.06368 0.0
Co579 Co 0.58092 0.46282 0.09571 0.0
C580 C 0.63426 0.40109 0.09261 0.0
O581 O 0.65174 0.41758 0.07819 0.0
O582 O 0.60602 0.41526 0.10095 0.0
C583 C 0.69331 0.4365 0.03232 0.0
O584 O 0.67845 0.40558 0.03832 0.0
C585 C 0.5111 0.4375 0.11412 0.0
C586 C 0.49515 0.48559 0.13294 0.0
C587 C 0.48404 0.45062 0.12755 0.0
N588 N 0.53661 0.46367 0.11169 0.0
N589 N 0.52683 0.49231 0.12298 0.0
C590 C 0.51377 0.40033 0.10444 0.0
H591 H 0.54189 0.39458 0.09909 0.0
H592 H 0.49567 0.39894 0.09048 0.0
H593 H 0.50501 0.37913 0.11585 0.0
C594 C 0.58614 0.47767 0.03362 0.0
N595 N 0.59843 0.47076 0.05317 0.0
N596 N 0.57081 0.47062 0.06641 0.0
C597 C 0.5399 0.47792 0.05559 0.0
C598 C 0.5486 0.48253 0.03444 0.0
C599 C 0.61006 0.47851 0.01453 0.0
H600 H 0.62996 0.50121 0.01602 0.0
H601 H 0.62564 0.45263 0.01358 0.0
H602 H 0.59416 0.48178 0.99982 0.0
O603 O 0.65809 0.50487 0.08338 0.0
O604 O 0.6132 0.50222 0.10687 0.0
H605 H 0.50622 0.50019 0.07998 0.0
H606 H 0.48406 0.49737 0.05469 0.0
C607 C 0.5033 0.4835 0.06554 0.0
H608 H 0.49175 0.45663 0.06998 0.0
H609 H 0.5419 0.51642 0.12397 0.0
O610 O 0.68268 0.46615 0.04071 0.0
C611 C 0.64283 0.51626 0.10014 0.0
Co612 Co 0.78609 0.3968 0.31311 0.0
Co613 Co 0.78838 0.33205 0.34544 0.0
C614 C 0.84995 0.38563 0.34209 0.0
O615 O 0.83357 0.40286 0.32753 0.0
O616 O 0.83572 0.35753 0.35055 0.0
C617 C 0.81422 0.44307 0.28126 0.0
O618 O 0.84513 0.4281 0.2872 0.0
C619 C 0.81473 0.26276 0.36383 0.0
C620 C 0.76754 0.24677 0.38338 0.0
C621 C 0.8024 0.23586 0.37761 0.0
N622 N 0.78825 0.288 0.3616 0.0
N623 N 0.76015 0.2782 0.37332 0.0
C624 C 0.85147 0.26553 0.35364 0.0
H625 H 0.85254 0.24696 0.33989 0.0
H626 H 0.87321 0.25741 0.36488 0.0
H627 H 0.85666 0.29352 0.34788 0.0
C628 C 0.77317 0.3361 0.28338 0.0
N629 N 0.78031 0.34878 0.30283 0.0
N630 N 0.78053 0.32139 0.31624 0.0
C631 C 0.77304 0.29029 0.30565 0.0
C632 C 0.76823 0.29857 0.28446 0.0
C633 C 0.77202 0.35968 0.26415 0.0
H634 H 0.74937 0.37962 0.26564 0.0
H635 H 0.79789 0.37521 0.26296 0.0
H636 H 0.76849 0.3435 0.24956 0.0
O637 O 0.74612 0.40889 0.33286 0.0
O638 O 0.74871 0.36414 0.35644 0.0
H639 H 0.75092 0.25727 0.3304 0.0
H640 H 0.75303 0.23463 0.30523 0.0
C641 C 0.76729 0.25393 0.31587 0.0
H642 H 0.79413 0.24218 0.32021 0.0
H643 H 0.73597 0.29311 0.37454 0.0
O644 O 0.78465 0.43287 0.28991 0.0
C645 C 0.73466 0.39373 0.34964 0.0
Co646 Co 0.85437 0.5377 0.56337 0.0
Co647 Co 0.91939 0.54026 0.59563 0.0
C648 C 0.86547 0.60153 0.59237 0.0
O649 O 0.84824 0.58501 0.57785 0.0
O650 O 0.89373 0.58751 0.60078 0.0
C651 C 0.80757 0.56557 0.53163 0.0
O652 O 0.82211 0.59665 0.53763 0.0
C653 C 0.98885 0.56643 0.61418 0.0
C654 C 0.0049 0.51881 0.63337 0.0
C655 C 0.01582 0.55379 0.62785 0.0
N656 N 0.96358 0.54001 0.61178 0.0
N657 N 0.97343 0.51166 0.62329 0.0
C658 C 0.98603 0.60339 0.60426 0.0
H659 H 0.95795 0.60876 0.59868 0.0
H660 H 0.00439 0.60469 0.59042 0.0
H661 H 0.99437 0.62488 0.6156 0.0
C662 C 0.91479 0.5251 0.53357 0.0
N663 N 0.9023 0.53222 0.55305 0.0
N664 N 0.92981 0.53254 0.56638 0.0
C665 C 0.96082 0.52514 0.5557 0.0
C666 C 0.95232 0.52026 0.53455 0.0
C667 C 0.89103 0.52384 0.51442 0.0
H668 H 0.87121 0.50109 0.51596 0.0
H669 H 0.87537 0.54964 0.51327 0.0
H670 H 0.90708 0.52041 0.49977 0.0
O671 O 0.84264 0.49762 0.58304 0.0
O672 O 0.88742 0.50044 0.60662 0.0
H673 H 0.99417 0.50297 0.58028 0.0
H674 H 0.01665 0.50561 0.55507 0.0
C675 C 0.99729 0.51956 0.56581 0.0
H676 H 0.00883 0.54645 0.57026 0.0
H677 H 0.95853 0.48744 0.62435 0.0
O678 O 0.81819 0.53609 0.54022 0.0
C679 C 0.85792 0.48622 0.59979 0.0
Co680 Co 0.71616 0.39708 0.68683 0.0
Co681 Co 0.71266 0.33173 0.65484 0.0
C682 C 0.65137 0.38491 0.65839 0.0
O683 O 0.66836 0.4026 0.67256 0.0
O684 O 0.6651 0.35644 0.65008 0.0
C685 C 0.688 0.44133 0.71954 0.0
O686 O 0.65778 0.42395 0.71469 0.0
C687 C 0.68614 0.2653 0.63319 0.0
C688 C 0.73804 0.24049 0.62273 0.0
C689 C 0.7006 0.23507 0.62289 0.0
N690 N 0.71391 0.28711 0.63912 0.0
N691 N 0.74478 0.2722 0.63268 0.0
C692 C 0.64675 0.27472 0.63635 0.0
H693 H 0.64138 0.30218 0.62975 0.0
H694 H 0.6407 0.27573 0.65345 0.0
H695 H 0.6282 0.25516 0.62845 0.0
C696 C 0.72979 0.33687 0.71672 0.0
N697 N 0.72231 0.34934 0.69728 0.0
N698 N 0.72038 0.32166 0.68412 0.0
C699 C 0.72615 0.29047 0.69496 0.0
C700 C 0.7324 0.29909 0.71598 0.0
C701 C 0.73701 0.36105 0.73525 0.0
H702 H 0.75361 0.38486 0.7303 0.0
H703 H 0.71063 0.37131 0.74146 0.0
H704 H 0.75162 0.34631 0.74795 0.0
O705 O 0.75568 0.40897 0.66701 0.0
O706 O 0.75201 0.36418 0.64348 0.0
H707 H 0.74833 0.24899 0.6751 0.0
H708 H 0.72402 0.2315 0.69771 0.0
C709 C 0.72437 0.25311 0.68549 0.0
H710 H 0.69932 0.25062 0.67584 0.0
H711 H 0.77053 0.28352 0.63529 0.0
O712 O 0.71727 0.43348 0.70982 0.0
C713 C 0.76649 0.39368 0.65015 0.0
Co714 Co 0.85387 0.46353 0.93783 0.0
Co715 Co 0.91829 0.46032 0.9053 0.0
C716 C 0.86482 0.39893 0.90938 0.0
O717 O 0.84764 0.41589 0.92374 0.0
O718 O 0.89303 0.41272 0.90081 0.0
C719 C 0.8076 0.43592 0.96981 0.0
O720 O 0.82242 0.40489 0.96397 0.0
C721 C 0.98749 0.43406 0.88661 0.0
C722 C 0.00284 0.48121 0.86686 0.0
C723 C 0.01406 0.44645 0.87265 0.0
N724 N 0.96212 0.4604 0.88893 0.0
N725 N 0.97155 0.48848 0.87708 0.0
C726 C 0.98513 0.39737 0.89691 0.0
H727 H 0.95726 0.39202 0.90282 0.0
H728 H 0.00392 0.39655 0.91058 0.0
H729 H 0.99324 0.37561 0.8857 0.0
C730 C 0.91479 0.47714 0.96723 0.0
N731 N 0.90195 0.46958 0.94787 0.0
N732 N 0.92921 0.46906 0.93439 0.0
C733 C 0.96041 0.47676 0.94483 0.0
C734 C 0.9523 0.48205 0.966 0.0
C735 C 0.8914 0.47859 0.98652 0.0
H736 H 0.8716 0.50137 0.98502 0.0
H737 H 0.87569 0.45284 0.98783 0.0
H738 H 0.90772 0.48213 0.00106 0.0
O739 O 0.84148 0.5029 0.91784 0.0
O740 O 0.88569 0.49935 0.89396 0.0
H741 H 0.99332 0.49821 0.91985 0.0
H742 H 0.01618 0.49647 0.94497 0.0
C743 C 0.9967 0.48211 0.93448 0.0
H744 H 0.00825 0.45511 0.93028 0.0
H745 H 0.95648 0.51256 0.87589 0.0
O746 O 0.81797 0.46538 0.96109 0.0
C747 C 0.85624 0.51364 0.90079 0.0
Co748 Co 0.78657 0.60414 0.1869 0.0
Co749 Co 0.78887 0.66963 0.15492 0.0
C750 C 0.85029 0.61594 0.15794 0.0
O751 O 0.83378 0.59843 0.17234 0.0
O752 O 0.83624 0.6443 0.14966 0.0
C753 C 0.8147 0.55646 0.21814 0.0
O754 O 0.84579 0.57076 0.21199 0.0
C755 C 0.81459 0.73944 0.13659 0.0
C756 C 0.76668 0.75553 0.11766 0.0
C757 C 0.80168 0.76651 0.12308 0.0
N758 N 0.78829 0.71404 0.13899 0.0
N759 N 0.75976 0.72392 0.12764 0.0
C760 C 0.85169 0.73665 0.14634 0.0
H761 H 0.8572 0.70857 0.15187 0.0
H762 H 0.85316 0.75499 0.16019 0.0
H763 H 0.873 0.74507 0.13491 0.0
C764 C 0.7747 0.66417 0.21705 0.0
N765 N 0.78116 0.65191 0.19745 0.0
N766 N 0.78124 0.67958 0.18424 0.0
C767 C 0.77425 0.71048 0.19512 0.0
C768 C 0.76998 0.70173 0.21628 0.0
C769 C 0.7743 0.6402 0.23613 0.0
H770 H 0.75127 0.62063 0.23494 0.0
H771 H 0.79999 0.62428 0.23673 0.0
H772 H 0.77187 0.65611 0.25089 0.0
O773 O 0.74649 0.59262 0.1672 0.0
O774 O 0.74928 0.63758 0.14375 0.0
H775 H 0.75204 0.74426 0.17074 0.0
H776 H 0.75463 0.76626 0.19608 0.0
C777 C 0.76863 0.74713 0.18522 0.0
H778 H 0.7955 0.75879 0.18087 0.0
H779 H 0.73559 0.70894 0.12662 0.0
O780 O 0.78513 0.56757 0.20987 0.0
C781 C 0.73512 0.60799 0.15048 0.0
Co782 Co 0.64763 0.5362 0.43684 0.0
Co783 Co 0.58214 0.54075 0.40509 0.0
C784 C 0.63707 0.60057 0.40789 0.0
O785 O 0.65488 0.58271 0.42162 0.0
O786 O 0.60733 0.58831 0.40032 0.0
C787 C 0.69505 0.56464 0.46798 0.0
O788 O 0.68085 0.5956 0.46151 0.0
C789 C 0.51261 0.56709 0.38676 0.0
C790 C 0.49665 0.51967 0.36739 0.0
C791 C 0.48572 0.55459 0.37302 0.0
N792 N 0.53789 0.54066 0.38908 0.0
N793 N 0.52808 0.51242 0.37747 0.0
C794 C 0.51532 0.60395 0.39682 0.0
H795 H 0.54326 0.60919 0.40265 0.0
H796 H 0.49661 0.60519 0.41051 0.0
H797 H 0.50731 0.62556 0.38548 0.0
C798 C 0.58734 0.52441 0.46697 0.0
N799 N 0.59967 0.53169 0.44747 0.0
N800 N 0.57198 0.53251 0.43428 0.0
C801 C 0.54102 0.52531 0.44506 0.0
C802 C 0.54972 0.52002 0.46615 0.0
C803 C 0.61137 0.52241 0.48599 0.0
H804 H 0.63058 0.49917 0.48427 0.0
H805 H 0.62772 0.54778 0.48711 0.0
H806 H 0.59547 0.51925 0.50071 0.0
O807 O 0.65837 0.49567 0.41745 0.0
O808 O 0.61426 0.50115 0.3936 0.0
H809 H 0.50718 0.5039 0.42047 0.0
H810 H 0.48505 0.50616 0.44577 0.0
C811 C 0.50437 0.52021 0.43506 0.0
H812 H 0.49298 0.54727 0.43085 0.0
H813 H 0.54301 0.48824 0.37632 0.0
O814 O 0.68404 0.53489 0.45987 0.0
C815 C 0.64315 0.48564 0.4004 0.0
Co816 Co 0.28496 0.39708 0.18715 0.0
Co817 Co 0.2893 0.33216 0.15488 0.0
C818 C 0.34934 0.38718 0.15837 0.0
O819 O 0.33249 0.40409 0.17288 0.0
O820 O 0.33581 0.35876 0.1499 0.0
C821 C 0.31253 0.44084 0.2201 0.0
O822 O 0.34276 0.42349 0.21525 0.0
C823 C 0.3168 0.26445 0.13437 0.0
C824 C 0.26626 0.24408 0.1195 0.0
C825 C 0.30291 0.23601 0.12225 0.0
N826 N 0.2894 0.28785 0.13876 0.0
N827 N 0.25936 0.27547 0.12973 0.0
C828 C 0.35562 0.26983 0.14111 0.0
H829 H 0.3617 0.29897 0.14373 0.0
H830 H 0.36034 0.25515 0.15612 0.0
H831 H 0.37468 0.25888 0.12909 0.0
C832 C 0.27259 0.33621 0.21682 0.0
N833 N 0.27998 0.34901 0.19743 0.0
N834 N 0.28185 0.32154 0.18412 0.0
C835 C 0.27577 0.2902 0.19475 0.0
C836 C 0.26976 0.29847 0.21585 0.0
C837 C 0.26534 0.36006 0.23548 0.0
H838 H 0.24812 0.38355 0.23073 0.0
H839 H 0.29165 0.37084 0.24149 0.0
H840 H 0.25138 0.34493 0.24826 0.0
O841 O 0.24498 0.40834 0.1674 0.0
O842 O 0.24892 0.36359 0.14387 0.0
H843 H 0.25403 0.25108 0.17317 0.0
H844 H 0.27324 0.23107 0.19675 0.0
C845 C 0.27632 0.25309 0.18492 0.0
H846 H 0.30259 0.24914 0.17664 0.0
H847 H 0.23405 0.28844 0.13061 0.0
O848 O 0.28331 0.43312 0.21029 0.0
C849 C 0.23408 0.39285 0.15061 0.0
Co850 Co 0.3536 0.5376 0.93733 0.0
Co851 Co 0.41833 0.5405 0.90499 0.0
C852 C 0.36478 0.60192 0.90877 0.0
O853 O 0.3475 0.58514 0.92315 0.0
O854 O 0.39302 0.58801 0.90029 0.0
C855 C 0.30751 0.56534 0.96933 0.0
O856 O 0.32244 0.59634 0.96351 0.0
C857 C 0.48764 0.56677 0.88641 0.0
C858 C 0.50323 0.51952 0.8668 0.0
C859 C 0.51433 0.55435 0.87251 0.0
N860 N 0.46233 0.54037 0.88874 0.0
N861 N 0.47191 0.51224 0.87698 0.0
C862 C 0.48511 0.60353 0.8966 0.0
H863 H 0.4572 0.60883 0.90245 0.0
H864 H 0.50383 0.60453 0.9103 0.0
H865 H 0.49321 0.62523 0.88534 0.0
C866 C 0.41421 0.52443 0.96698 0.0
N867 N 0.40158 0.53166 0.94754 0.0
N868 N 0.42898 0.53206 0.93415 0.0
C869 C 0.46007 0.52459 0.94475 0.0
C870 C 0.45173 0.51959 0.96592 0.0
C871 C 0.39062 0.52335 0.9862 0.0
H872 H 0.37053 0.50083 0.98468 0.0
H873 H 0.37527 0.54932 0.98742 0.0
H874 H 0.40674 0.51969 0.0008 0.0
O875 O 0.3414 0.49808 0.9174 0.0
O876 O 0.38586 0.50134 0.89366 0.0
H877 H 0.49338 0.50309 0.91996 0.0
H878 H 0.51589 0.50507 0.94518 0.0
C879 C 0.49652 0.51929 0.93457 0.0
H880 H 0.50804 0.5463 0.93036 0.0
H881 H 0.4569 0.48811 0.87581 0.0
O882 O 0.31764 0.53588 0.96053 0.0
C883 C 0.35633 0.48715 0.90045 0.0
Co884 Co 0.21565 0.60461 0.68694 0.0
Co885 Co 0.21314 0.66877 0.65446 0.0
C886 C 0.15092 0.61668 0.65851 0.0
O887 O 0.16779 0.5991 0.67276 0.0
O888 O 0.16498 0.64482 0.65 0.0
C889 C 0.18719 0.56086 0.71986 0.0
O890 O 0.15689 0.57793 0.7148 0.0
C891 C 0.18747 0.73716 0.63541 0.0
C892 C 0.23469 0.75266 0.61579 0.0
C893 C 0.19982 0.76389 0.62145 0.0
N894 N 0.21387 0.71193 0.63772 0.0
N895 N 0.24192 0.72125 0.62587 0.0
C896 C 0.15233 0.73585 0.64738 0.0
H897 H 0.15433 0.71624 0.66064 0.0
H898 H 0.14539 0.76329 0.6536 0.0
H899 H 0.13014 0.7266 0.63676 0.0
C900 C 0.22992 0.66547 0.71636 0.0
N901 N 0.22237 0.65266 0.697 0.0
N902 N 0.22188 0.67995 0.68352 0.0
C903 C 0.22941 0.71117 0.69399 0.0
C904 C 0.23452 0.70301 0.71519 0.0
C905 C 0.23528 0.64168 0.73526 0.0
H906 H 0.25234 0.61779 0.731 0.0
H907 H 0.20834 0.63146 0.74063 0.0
H908 H 0.24861 0.65664 0.74834 0.0
O909 O 0.25524 0.5916 0.66725 0.0
O910 O 0.25196 0.63576 0.64336 0.0
H911 H 0.24935 0.74713 0.67003 0.0
H912 H 0.2405 0.76947 0.69492 0.0
C913 C 0.23102 0.74806 0.6839 0.0
H914 H 0.20338 0.75569 0.67842 0.0
H915 H 0.26605 0.70624 0.62474 0.0
O916 O 0.21652 0.56879 0.71022 0.0
C917 C 0.26622 0.60635 0.65026 0.0
Co918 Co 0.14689 0.46342 0.43753 0.0
Co919 Co 0.08181 0.4605 0.4053 0.0
C920 C 0.13543 0.39913 0.4089 0.0
O921 O 0.15281 0.41599 0.42322 0.0
O922 O 0.10704 0.41292 0.4005 0.0
C923 C 0.19351 0.43553 0.46928 0.0
O924 O 0.17858 0.40454 0.46345 0.0
C925 C 0.01208 0.43484 0.38674 0.0
C926 C 0.99632 0.48278 0.36774 0.0
C927 C 0.98513 0.44784 0.37317 0.0
N928 N 0.03759 0.46103 0.38917 0.0
N929 N 0.02791 0.48956 0.37777 0.0
C930 C 0.01461 0.39776 0.39654 0.0
H931 H 0.04269 0.39206 0.40202 0.0
H932 H 0.99635 0.39653 0.41043 0.0
H933 H 0.00596 0.37647 0.38517 0.0
C934 C 0.08655 0.47667 0.46729 0.0
N935 N 0.099 0.46931 0.44783 0.0
N936 N 0.07149 0.46889 0.43451 0.0
C937 C 0.0405 0.47643 0.44518 0.0
C938 C 0.04903 0.48154 0.46631 0.0
C939 C 0.11033 0.47796 0.48643 0.0
H940 H 0.13027 0.5006 0.48482 0.0
H941 H 0.12586 0.45209 0.48765 0.0
H942 H 0.09432 0.4816 0.50107 0.0
O943 O 0.15885 0.50304 0.41764 0.0
O944 O 0.11428 0.49968 0.39396 0.0
H945 H 0.00701 0.49834 0.42058 0.0
H946 H 0.98457 0.49571 0.44579 0.0
C947 C 0.00398 0.48179 0.43507 0.0
H948 H 0.99257 0.45483 0.43067 0.0
H949 H 0.04299 0.51367 0.37677 0.0
O950 O 0.18314 0.46504 0.46062 0.0
C951 C 0.1438 0.51395 0.40072 0.0
Co952 Co 0.28673 0.60404 0.31346 0.0
Co953 Co 0.28805 0.66877 0.34575 0.0
C954 C 0.35095 0.61723 0.34196 0.0
O955 O 0.33436 0.59923 0.32778 0.0
O956 O 0.33656 0.64536 0.3503 0.0
C957 C 0.31491 0.5555 0.28245 0.0
O958 O 0.34627 0.56859 0.28902 0.0
C959 C 0.31262 0.73861 0.36347 0.0
C960 C 0.26787 0.75165 0.38546 0.0
C961 C 0.3012 0.76457 0.37816 0.0
N962 N 0.28726 0.71211 0.36238 0.0
N963 N 0.26065 0.72001 0.3756 0.0
C964 C 0.34588 0.73908 0.34982 0.0
H965 H 0.34267 0.71978 0.33649 0.0
H966 H 0.35087 0.76699 0.34366 0.0
H967 H 0.36988 0.73034 0.3592 0.0
C968 C 0.27326 0.66433 0.28367 0.0
N969 N 0.27994 0.65191 0.30321 0.0
N970 N 0.27927 0.67935 0.31659 0.0
C971 C 0.27142 0.71022 0.30586 0.0
C972 C 0.2675 0.70174 0.28463 0.0
C973 C 0.27387 0.64072 0.26445 0.0
H974 H 0.25052 0.62145 0.265 0.0
H975 H 0.29936 0.62444 0.26431 0.0
H976 H 0.27257 0.65696 0.24976 0.0
O977 O 0.24717 0.5911 0.33327 0.0
O978 O 0.24971 0.63549 0.35705 0.0
H979 H 0.25109 0.74306 0.33128 0.0
H980 H 0.24766 0.76424 0.3057 0.0
C981 C 0.26481 0.7466 0.31589 0.0
H982 H 0.29134 0.76046 0.31847 0.0
H983 H 0.23757 0.7038 0.37789 0.0
O984 O 0.28545 0.56771 0.29032 0.0
C985 C 0.23593 0.60582 0.35021 0.0
Co986 Co 0.14738 0.53574 0.0638 0.0
Co987 Co 0.08169 0.53971 0.09533 0.0
C988 C 0.13667 0.59956 0.09309 0.0
O989 O 0.15459 0.58194 0.07931 0.0
O990 O 0.10686 0.58718 0.10049 0.0
C991 C 0.19528 0.56454 0.03304 0.0
O992 O 0.18142 0.5955 0.03973 0.0
C993 C 0.01196 0.56563 0.11348 0.0
C994 C 0.9957 0.51778 0.13243 0.0
C995 C 0.98483 0.55279 0.12695 0.0
N996 N 0.0373 0.53927 0.11115 0.0
N997 N 0.02733 0.51078 0.12251 0.0
C998 C 0.01481 0.6027 0.1037 0.0
H999 H 0.04287 0.60812 0.09812 0.0
H1000 H 0.99641 0.6042 0.08988 0.0
H1001 H 0.00651 0.62405 0.11513 0.0
C1002 C 0.08738 0.52479 0.03336 0.0
N1003 N 0.09955 0.53156 0.05296 0.0
N1004 N 0.07175 0.53211 0.06607 0.0
C1005 C 0.04088 0.52521 0.05514 0.0
C1006 C 0.04975 0.52045 0.03403 0.0
C1007 C 0.11156 0.5232 0.0144 0.0
H1008 H 0.13068 0.49986 0.01598 0.0
H1009 H 0.12799 0.54856 0.01354 0.0
H1010 H 0.09576 0.52046 0.99962 0.0
O1011 O 0.1579 0.49477 0.08292 0.0
O1012 O 0.11357 0.4998 0.10663 0.0
H1013 H 0.00686 0.50325 0.07948 0.0
H1014 H 0.98498 0.5059 0.05412 0.0
C1015 C 0.00415 0.51982 0.06499 0.0
H1016 H 0.99262 0.54677 0.0693 0.0
H1017 H 0.04226 0.48659 0.12357 0.0
O1018 O 0.18391 0.53472 0.04089 0.0
C1019 C 0.14248 0.48437 0.09982 0.0
Co1020 Co 0.2131 0.39735 0.81307 0.0
Co1021 Co 0.21184 0.3326 0.84535 0.0
C1022 C 0.14887 0.38404 0.84153 0.0
O1023 O 0.16542 0.40208 0.82735 0.0
O1024 O 0.16332 0.35595 0.84988 0.0
C1025 C 0.18486 0.44592 0.78205 0.0
O1026 O 0.15351 0.43274 0.78858 0.0
C1027 C 0.1873 0.2627 0.86304 0.0
C1028 C 0.23205 0.24972 0.88506 0.0
C1029 C 0.19875 0.23675 0.87773 0.0
N1030 N 0.21263 0.28924 0.86197 0.0
N1031 N 0.23923 0.28137 0.87521 0.0
C1032 C 0.15406 0.26218 0.84937 0.0
H1033 H 0.15725 0.28151 0.83605 0.0
H1034 H 0.14914 0.23427 0.8432 0.0
H1035 H 0.13004 0.27086 0.85875 0.0
C1036 C 0.22676 0.33706 0.78328 0.0
N1037 N 0.22 0.34949 0.80282 0.0
N1038 N 0.22067 0.32205 0.81619 0.0
C1039 C 0.22861 0.29118 0.80549 0.0
C1040 C 0.23257 0.29965 0.78426 0.0
C1041 C 0.22621 0.36067 0.76406 0.0
H1042 H 0.24957 0.37993 0.76464 0.0
H1043 H 0.20072 0.37696 0.76389 0.0
H1044 H 0.22755 0.34442 0.74937 0.0
O1045 O 0.25262 0.41034 0.83293 0.0
O1046 O 0.25012 0.36591 0.85668 0.0
H1047 H 0.24897 0.2584 0.83093 0.0
H1048 H 0.25246 0.2372 0.80536 0.0
C1049 C 0.23526 0.25482 0.81553 0.0
H1050 H 0.20875 0.24093 0.8181 0.0
H1051 H 0.26228 0.29763 0.87753 0.0
O1052 O 0.21433 0.43373 0.78995 0.0
C1053 C 0.26386 0.39561 0.84987 0.0
Co1054 Co 0.3547 0.46442 0.56334 0.0
Co1055 Co 0.41994 0.46023 0.5953 0.0
C1056 C 0.36513 0.40031 0.59248 0.0
O1057 O 0.34745 0.41805 0.57865 0.0
O1058 O 0.3948 0.41262 0.60011 0.0
C1059 C 0.30703 0.4359 0.53232 0.0
O1060 O 0.32086 0.40487 0.53892 0.0
C1061 C 0.48948 0.43454 0.61393 0.0
C1062 C 0.50527 0.48246 0.63295 0.0
C1063 C 0.51637 0.4475 0.62754 0.0
N1064 N 0.46406 0.46079 0.61145 0.0
N1065 N 0.47375 0.48931 0.62286 0.0
C1066 C 0.4869 0.39744 0.60416 0.0
H1067 H 0.45885 0.39174 0.59866 0.0
H1068 H 0.50517 0.39612 0.59028 0.0
H1069 H 0.49549 0.37615 0.61556 0.0
C1070 C 0.41515 0.47621 0.53336 0.0
N1071 N 0.40271 0.469 0.55285 0.0
N1072 N 0.43031 0.46831 0.5661 0.0
C1073 C 0.46132 0.47552 0.55538 0.0
C1074 C 0.45275 0.48069 0.53425 0.0
C1075 C 0.39123 0.47811 0.51429 0.0
H1076 H 0.37215 0.50148 0.51588 0.0
H1077 H 0.37473 0.45282 0.51324 0.0
H1078 H 0.40724 0.48101 0.4996 0.0
O1079 O 0.34367 0.50496 0.58261 0.0
O1080 O 0.38755 0.49972 0.6066 0.0
H1081 H 0.49499 0.49727 0.57994 0.0
H1082 H 0.51732 0.49461 0.55471 0.0
C1083 C 0.4979 0.48074 0.56544 0.0
H1084 H 0.50923 0.45374 0.56982 0.0
H1085 H 0.45871 0.51345 0.62383 0.0
O1086 O 0.31841 0.46564 0.54027 0.0
C1087 C 0.35867 0.51509 0.5997 0.0
C1088 C 0.19313 0.31363 0.40499 0.0
C1089 C 0.1811 0.29832 0.38597 0.0
H1090 H 0.18795 0.35697 0.42725 0.0
C1091 C 0.15306 0.31596 0.37476 0.0
H1092 H 0.21475 0.3008 0.41397 0.0
C1093 C 0.13731 0.34808 0.3825 0.0
C1094 C 0.14976 0.3636 0.40141 0.0
H1095 H 0.14408 0.30585 0.35965 0.0
H1096 H 0.1162 0.36133 0.37334 0.0
C1097 C 0.17767 0.34583 0.41263 0.0
C1098 C 0.93781 0.94069 0.65464 0.0
C1099 C 0.95195 0.92967 0.63509 0.0
H1100 H 0.89515 0.93546 0.67732 0.0
C1101 C 0.93276 0.90322 0.62345 0.0
H1102 H 0.95178 0.96101 0.66405 0.0
C1103 C 0.90036 0.88809 0.63125 0.0
C1104 C 0.88605 0.89964 0.65065 0.0
H1105 H 0.94175 0.89502 0.608 0.0
H1106 H 0.88593 0.86821 0.62176 0.0
C1107 C 0.90531 0.92595 0.6623 0.0
C1108 C 0.32295 0.65552 0.9126 0.0
C1109 C 0.35054 0.63748 0.90128 0.0
H1110 H 0.28625 0.70084 0.91403 0.0
C1111 C 0.36281 0.65279 0.88228 0.0
H1112 H 0.31283 0.64454 0.9273 0.0
C1113 C 0.34718 0.68497 0.87454 0.0
C1114 C 0.31945 0.70289 0.88584 0.0
H1115 H 0.38368 0.63933 0.87304 0.0
H1116 H 0.35599 0.69485 0.85936 0.0
C1117 C 0.30762 0.6878 0.90497 0.0
C1118 C 0.58899 0.12181 0.14032 0.0
C1119 C 0.61519 0.09939 0.15 0.0
H1120 H 0.53577 0.12567 0.12697 0.0
C1121 C 0.60765 0.06204 0.15239 0.0
H1122 H 0.59385 0.15082 0.13853 0.0
C1123 C 0.57488 0.04734 0.14513 0.0
C1124 C 0.54842 0.06956 0.13545 0.0
H1125 H 0.6273 0.04394 0.15971 0.0
H1126 H 0.5704 0.01831 0.14711 0.0
C1127 C 0.55574 0.10715 0.13339 0.0
C1128 C 0.1891 0.64189 0.09874 0.0
C1129 C 0.15169 0.63453 0.10092 0.0
H1130 H 0.23289 0.679 0.10419 0.0
C1131 C 0.12922 0.66086 0.11042 0.0
H1132 H 0.20723 0.62213 0.09155 0.0
C1133 C 0.14389 0.6941 0.11737 0.0
C1134 C 0.18154 0.70127 0.11548 0.0
H1135 H 0.10016 0.65615 0.11204 0.0
H1136 H 0.12534 0.71419 0.12362 0.0
C1137 C 0.20382 0.67464 0.10602 0.0
C1138 C 0.56295 0.93884 0.34497 0.0
C1139 C 0.54885 0.92825 0.36461 0.0
H1140 H 0.60554 0.93301 0.32228 0.0
C1141 C 0.56783 0.90176 0.37633 0.0
H1142 H 0.54911 0.95917 0.33551 0.0
C1143 C 0.60007 0.88628 0.36857 0.0
C1144 C 0.61443 0.89752 0.34912 0.0
H1145 H 0.55887 0.89387 0.39185 0.0
H1146 H 0.61442 0.86649 0.37816 0.0
C1147 C 0.59531 0.92375 0.33735 0.0
C1148 C 0.29725 0.32585 0.60526 0.0
C1149 C 0.31918 0.29912 0.61491 0.0
H1150 H 0.29445 0.37825 0.59064 0.0
C1151 C 0.35689 0.30594 0.61687 0.0
H1152 H 0.26815 0.32175 0.60336 0.0
C1153 C 0.37194 0.33897 0.60987 0.0
C1154 C 0.3498 0.36543 0.60023 0.0
H1155 H 0.37521 0.28574 0.62324 0.0
H1156 H 0.40102 0.34346 0.6116 0.0
C1157 C 0.31234 0.35838 0.59793 0.0
C1158 C 0.90365 0.07571 0.83801 0.0
C1159 C 0.88466 0.10193 0.84986 0.0
H1160 H 0.95002 0.04052 0.83593 0.0
C1161 C 0.89924 0.11312 0.86926 0.0
H1162 H 0.89324 0.0665 0.82297 0.0
C1163 C 0.93167 0.09777 0.87687 0.0
C1164 C 0.95065 0.07145 0.86503 0.0
H1165 H 0.88498 0.13284 0.87894 0.0
H1166 H 0.94084 0.1057 0.89234 0.0
C1167 C 0.93622 0.06075 0.84548 0.0
C1168 C 0.81005 0.68856 0.5956 0.0
C1169 C 0.8202 0.70258 0.61534 0.0
H1170 H 0.81646 0.64613 0.57285 0.0
C1171 C 0.84633 0.68345 0.62726 0.0
H1172 H 0.79002 0.70248 0.58597 0.0
C1173 C 0.86199 0.65124 0.61955 0.0
C1174 C 0.85128 0.63704 0.59996 0.0
H1175 H 0.85387 0.69233 0.64284 0.0
H1176 H 0.88158 0.63684 0.62925 0.0
C1177 C 0.8253 0.65622 0.58804 0.0
C1178 C 0.06942 0.09604 0.3765 0.0
C1179 C 0.05033 0.06983 0.36463 0.0
H1180 H 0.11618 0.13102 0.37857 0.0
C1181 C 0.0648 0.05898 0.34513 0.0
H1182 H 0.06024 0.10405 0.39195 0.0
C1183 C 0.09748 0.07377 0.3377 0.0
C1184 C 0.1165 0.09997 0.34954 0.0
H1185 H 0.05094 0.0388 0.33557 0.0
H1186 H 0.10789 0.06449 0.32267 0.0
C1187 C 0.10192 0.11125 0.36893 0.0
C1188 C 0.65252 0.31864 0.12727 0.0
C1189 C 0.67872 0.29955 0.11539 0.0
H1190 H 0.61746 0.36541 0.1293 0.0
C1191 C 0.68914 0.31374 0.09575 0.0
H1192 H 0.64476 0.3096 0.14279 0.0
C1193 C 0.67412 0.34622 0.08824 0.0
C1194 C 0.64811 0.36541 0.10014 0.0
H1195 H 0.70923 0.29984 0.08615 0.0
H1196 H 0.68319 0.35643 0.07313 0.0
C1197 C 0.6371 0.35102 0.11962 0.0
C1198 C 0.39908 0.88947 0.86921 0.0
C1199 C 0.38452 0.90114 0.84989 0.0
H1200 H 0.44071 0.89624 0.89234 0.0
C1201 C 0.40353 0.92766 0.83827 0.0
H1202 H 0.38485 0.86942 0.87869 0.0
C1203 C 0.43611 0.94239 0.84586 0.0
C1204 C 0.45054 0.93116 0.86531 0.0
H1205 H 0.39315 0.93724 0.8233 0.0
H1206 H 0.44993 0.96283 0.83647 0.0
C1207 C 0.43152 0.90459 0.87694 0.0
C1208 C 0.84745 0.3153 0.87556 0.0
C1209 C 0.81902 0.29812 0.88663 0.0
H1210 H 0.88471 0.36034 0.87421 0.0
C1211 C 0.80656 0.31378 0.90544 0.0
H1212 H 0.85662 0.30471 0.86057 0.0
C1213 C 0.82211 0.34596 0.91306 0.0
C1214 C 0.85044 0.36335 0.90199 0.0
H1215 H 0.78447 0.30128 0.9142 0.0
H1216 H 0.8115 0.35745 0.92752 0.0
C1217 C 0.86327 0.34741 0.88327 0.0
C1218 C 0.43338 0.09895 0.62357 0.0
C1219 C 0.45263 0.07289 0.63548 0.0
H1220 H 0.38648 0.13383 0.62155 0.0
C1221 C 0.43869 0.0627 0.65522 0.0
H1222 H 0.44222 0.10654 0.60799 0.0
C1223 C 0.40625 0.07773 0.66278 0.0
C1224 C 0.38685 0.10352 0.65083 0.0
H1225 H 0.45273 0.04274 0.66485 0.0
H1226 H 0.39619 0.06878 0.67794 0.0
C1227 C 0.40104 0.11439 0.63127 0.0
C1228 C 0.62996 0.66194 0.3906 0.0
C1229 C 0.65225 0.63556 0.40021 0.0
H1230 H 0.62641 0.71519 0.37727 0.0
C1231 C 0.68966 0.64281 0.40252 0.0
H1232 H 0.60091 0.65731 0.38887 0.0
C1233 C 0.70457 0.67545 0.39522 0.0
C1234 C 0.6825 0.70209 0.38559 0.0
H1235 H 0.70766 0.62301 0.40979 0.0
H1236 H 0.73365 0.6797 0.39713 0.0
C1237 C 0.64483 0.69508 0.38363 0.0
C1238 C 0.06068 0.93806 0.15599 0.0
C1239 C 0.04718 0.92868 0.13602 0.0
H1240 H 0.10265 0.93095 0.17894 0.0
C1241 C 0.0665 0.90288 0.12397 0.0
H1242 H 0.04655 0.95779 0.16573 0.0
C1243 C 0.09855 0.88698 0.13173 0.0
C1244 C 0.11238 0.89712 0.15151 0.0
H1245 H 0.05798 0.89591 0.10823 0.0
H1246 H 0.11325 0.86783 0.12189 0.0
C1247 C 0.09285 0.92257 0.16362 0.0
C1248 C 0.64398 0.80618 0.88301 0.0
C1249 C 0.68168 0.79922 0.8849 0.0
H1250 H 0.60005 0.84393 0.88829 0.0
C1251 C 0.70384 0.82604 0.89428 0.0
H1252 H 0.62553 0.78593 0.87681 0.0
C1253 C 0.68896 0.85875 0.90149 0.0
C1254 C 0.6515 0.86588 0.89934 0.0
H1255 H 0.73294 0.82185 0.8961 0.0
H1256 H 0.70702 0.87865 0.90862 0.0
C1257 C 0.62914 0.83939 0.88989 0.0
C1258 C 0.40361 0.42804 0.16264 0.0
C1259 C 0.38473 0.40171 0.15082 0.0
H1260 H 0.44985 0.46343 0.16468 0.0
C1261 C 0.39924 0.39066 0.13137 0.0
H1262 H 0.39324 0.43716 0.17771 0.0
C1263 C 0.43152 0.4062 0.12373 0.0
C1264 C 0.45048 0.43252 0.13557 0.0
H1265 H 0.38507 0.3708 0.12174 0.0
H1266 H 0.44063 0.39833 0.10824 0.0
C1267 C 0.43608 0.44317 0.15513 0.0
C1268 C 0.86292 0.15141 0.38129 0.0
C1269 C 0.85257 0.13728 0.40095 0.0
H1270 H 0.8543 0.19235 0.35797 0.0
C1271 C 0.82682 0.1565 0.41301 0.0
H1272 H 0.88232 0.13696 0.37149 0.0
C1273 C 0.81139 0.18878 0.40549 0.0
C1274 C 0.82113 0.20269 0.38566 0.0
H1275 H 0.81825 0.14645 0.42826 0.0
H1276 H 0.7915 0.20273 0.4152 0.0
C1277 C 0.84708 0.18356 0.37363 0.0
C1278 C 0.06819 0.59851 0.62408 0.0
C1279 C 0.04918 0.57222 0.63594 0.0
H1280 H 0.11486 0.63363 0.62201 0.0
C1281 C 0.06348 0.56176 0.65556 0.0
H1282 H 0.05911 0.6063 0.60857 0.0
C1283 C 0.096 0.57681 0.66305 0.0
C1284 C 0.11508 0.60289 0.65115 0.0
H1285 H 0.04966 0.54159 0.66515 0.0
H1286 H 0.10635 0.56769 0.67812 0.0
C1287 C 0.10056 0.61396 0.63171 0.0
C1288 C 0.65314 0.18554 0.62521 0.0
C1289 C 0.68183 0.20254 0.61427 0.0
H1290 H 0.6157 0.14061 0.62646 0.0
C1291 C 0.69466 0.18659 0.59562 0.0
H1292 H 0.64367 0.19633 0.64009 0.0
C1293 C 0.67918 0.15436 0.58801 0.0
C1294 C 0.65055 0.13717 0.59894 0.0
H1295 H 0.71695 0.19893 0.58696 0.0
H1296 H 0.69005 0.14268 0.57367 0.0
C1297 C 0.63739 0.15337 0.61751 0.0
C1298 C 0.09328 0.42284 0.83698 0.0
C1299 C 0.11298 0.39739 0.849 0.0
H1300 H 0.04658 0.45754 0.8349 0.0
C1301 C 0.09911 0.38678 0.86868 0.0
H1302 H 0.1031 0.43157 0.82172 0.0
C1303 C 0.0668 0.40219 0.87643 0.0
C1304 C 0.04726 0.42794 0.86446 0.0
H1305 H 0.11392 0.36762 0.87846 0.0
H1306 H 0.05824 0.39485 0.89211 0.0
C1307 C 0.06085 0.43782 0.84458 0.0
C1308 C 0.84634 0.81895 0.12673 0.0
C1309 C 0.81998 0.7999 0.11495 0.0
H1310 H 0.88162 0.86555 0.12861 0.0
C1311 C 0.80939 0.8141 0.09533 0.0
H1312 H 0.85423 0.80993 0.14224 0.0
C1313 C 0.82448 0.84652 0.08773 0.0
C1314 C 0.85071 0.86561 0.09952 0.0
H1315 H 0.78915 0.80024 0.08581 0.0
H1316 H 0.81531 0.85673 0.07264 0.0
C1317 C 0.86182 0.85124 0.119 0.0
C1318 C 0.40095 0.61465 0.369 0.0
C1319 C 0.38684 0.60382 0.34942 0.0
H1320 H 0.44204 0.60675 0.39234 0.0
C1321 C 0.40631 0.5781 0.33747 0.0
H1322 H 0.38634 0.63405 0.37872 0.0
C1323 C 0.43872 0.56306 0.34506 0.0
C1324 C 0.45255 0.57317 0.36484 0.0
H1325 H 0.39631 0.56919 0.32228 0.0
H1326 H 0.4528 0.54313 0.33543 0.0
C1327 C 0.43326 0.59921 0.37674 0.0
C1328 C 0.34964 0.18556 0.12489 0.0
C1329 C 0.3216 0.20326 0.11373 0.0
H1330 H 0.38635 0.14008 0.12628 0.0
C1331 C 0.30963 0.18812 0.09464 0.0
H1332 H 0.3586 0.19553 0.14003 0.0
C1333 C 0.32504 0.15592 0.08695 0.0
C1334 C 0.35284 0.13799 0.09818 0.0
H1335 H 0.28802 0.20101 0.08569 0.0
H1336 H 0.31472 0.14482 0.07232 0.0
C1337 C 0.36534 0.15345 0.11709 0.0
C1338 C 0.59919 0.61429 0.86856 0.0
C1339 C 0.61322 0.60363 0.84893 0.0
H1340 H 0.55823 0.60623 0.89193 0.0
C1341 C 0.59369 0.57801 0.83693 0.0
H1342 H 0.61386 0.63359 0.87832 0.0
C1343 C 0.56127 0.56294 0.84451 0.0
C1344 C 0.54752 0.57292 0.86434 0.0
H1345 H 0.60364 0.56921 0.82171 0.0
H1346 H 0.54713 0.5431 0.83485 0.0
C1347 C 0.5669 0.59882 0.87628 0.0
C1348 C 0.20484 0.82619 0.60583 0.0
C1349 C 0.1825 0.79851 0.6142 0.0
H1350 H 0.20804 0.87944 0.59227 0.0
C1351 C 0.1445 0.80444 0.61485 0.0
H1352 H 0.23417 0.82284 0.60493 0.0
C1353 C 0.12954 0.83758 0.60797 0.0
C1354 C 0.15211 0.86499 0.59967 0.0
H1355 H 0.12595 0.78354 0.62014 0.0
H1356 H 0.10024 0.84142 0.60871 0.0
C1357 C 0.18986 0.8588 0.59854 0.0
C1358 C 0.90484 0.42565 0.3379 0.0
C1359 C 0.8856 0.39953 0.34969 0.0
H1360 H 0.95136 0.46063 0.33594 0.0
C1361 C 0.89996 0.3883 0.36915 0.0
H1362 H 0.89465 0.4349 0.32282 0.0
C1363 C 0.93239 0.40353 0.37686 0.0
C1364 C 0.95159 0.42977 0.36507 0.0
H1365 H 0.88554 0.36858 0.37876 0.0
H1366 H 0.94139 0.39556 0.39235 0.0
C1367 C 0.9374 0.44048 0.34546 0.0
C1368 C 0.35603 0.80635 0.38322 0.0
C1369 C 0.31832 0.7995 0.38507 0.0
H1370 H 0.40008 0.84391 0.38858 0.0
C1371 C 0.29627 0.82628 0.39458 0.0
H1372 H 0.37443 0.78613 0.37695 0.0
C1373 C 0.31127 0.85887 0.40191 0.0
C1374 C 0.34874 0.86593 0.39973 0.0
H1375 H 0.26716 0.82216 0.3964 0.0
H1376 H 0.2933 0.87877 0.40911 0.0
C1377 C 0.37098 0.83944 0.3902 0.0
C1378 C 0.90505 0.57595 0.16225 0.0
C1379 C 0.88588 0.60199 0.15037 0.0
H1380 H 0.95136 0.54074 0.16429 0.0
C1381 C 0.90016 0.61294 0.13085 0.0
H1382 H 0.89492 0.56694 0.17739 0.0
C1383 C 0.93244 0.59742 0.12316 0.0
C1384 C 0.95152 0.5712 0.13503 0.0
H1385 H 0.88576 0.6326 0.12119 0.0
H1386 H 0.94141 0.60513 0.10761 0.0
C1387 C 0.93744 0.56084 0.1547 0.0
C1388 C 0.18893 0.14239 0.90142 0.0
C1389 C 0.15146 0.13526 0.89927 0.0
H1390 H 0.23294 0.17919 0.89589 0.0
C1391 C 0.12914 0.16171 0.88976 0.0
H1392 H 0.20696 0.12254 0.9086 0.0
C1393 C 0.14401 0.19483 0.88276 0.0
C1394 C 0.18171 0.20177 0.88461 0.0
H1395 H 0.10004 0.15717 0.88815 0.0
H1396 H 0.12556 0.21502 0.8765 0.0
C1397 C 0.20384 0.17502 0.89409 0.0
C1398 C 0.56396 0.43979 0.65531 0.0
C1399 C 0.54982 0.42933 0.63564 0.0
H1400 H 0.6067 0.43386 0.67795 0.0
C1401 C 0.56902 0.40325 0.62375 0.0
H1402 H 0.54998 0.45984 0.66489 0.0
C1403 C 0.60138 0.38789 0.63142 0.0
C1404 C 0.61569 0.39885 0.65093 0.0
H1405 H 0.56009 0.39554 0.6082 0.0
H1406 H 0.61583 0.36837 0.6217 0.0
C1407 C 0.59648 0.42482 0.66283 0.0
C1408 C 0.15446 0.01939 0.25579 0.0
C1409 C 0.1878 0.03093 0.26444 0.0
H1410 H 0.12735 0.98308 0.23462 0.0
C1411 C 0.22025 0.01389 0.2579 0.0
H1412 H 0.12896 0.03188 0.26056 0.0
C1413 C 0.21933 0.9859 0.24298 0.0
C1414 C 0.18593 0.97429 0.2344 0.0
H1415 H 0.24639 0.02218 0.26428 0.0
H1416 H 0.24479 0.97332 0.23821 0.0
C1417 C 0.15352 0.99129 0.24099 0.0
C1418 C 0.23741 0.9695 0.50778 0.0
C1419 C 0.22357 0.93638 0.51559 0.0
H1420 H 0.27466 0.99551 0.48661 0.0
C1421 C 0.23741 0.90337 0.50767 0.0
H1422 H 0.22729 0.9954 0.51357 0.0
C1423 C 0.26457 0.90343 0.4923 0.0
C1424 C 0.2784 0.9365 0.48446 0.0
H1425 H 0.22737 0.87738 0.51339 0.0
H1426 H 0.27461 0.87748 0.48652 0.0
C1427 C 0.26455 0.96956 0.49234 0.0
C1428 C 0.28124 0.01515 0.74272 0.0
C1429 C 0.31449 0.0274 0.73426 0.0
H1430 H 0.25469 0.97849 0.76401 0.0
C1431 C 0.34718 0.01119 0.74106 0.0
H1432 H 0.25558 0.02711 0.73779 0.0
C1433 C 0.34665 0.98323 0.75597 0.0
C1434 C 0.31345 0.97104 0.76449 0.0
H1435 H 0.37325 0.01991 0.73479 0.0
H1436 H 0.37235 0.97136 0.76089 0.0
C1437 C 0.28073 0.98729 0.75773 0.0
C1438 C 0.26524 0.03195 0.00679 0.0
C1439 C 0.28011 0.06505 0.01399 0.0
H1440 H 0.22679 0.00594 0.98631 0.0
C1441 C 0.26696 0.09802 0.00563 0.0
H1442 H 0.2748 0.00607 0.01293 0.0
C1443 C 0.23941 0.09795 0.99047 0.0
C1444 C 0.22449 0.0649 0.98326 0.0
H1445 H 0.27776 0.124 0.01087 0.0
H1446 H 0.2299 0.12387 0.98437 0.0
C1447 C 0.23773 0.03187 0.99155 0.0
C1448 C 0.78072 0.98737 0.74305 0.0
C1449 C 0.81397 0.97558 0.73437 0.0
H1450 H 0.75411 0.02355 0.76459 0.0
C1451 C 0.84658 0.99219 0.74101 0.0
H1452 H 0.75514 0.97511 0.73825 0.0
C1453 C 0.84598 0.02005 0.75597 0.0
C1454 C 0.81278 0.03174 0.76473 0.0
H1455 H 0.87264 0.98383 0.73457 0.0
H1456 H 0.87161 0.03222 0.76077 0.0
C1457 C 0.78014 0.01512 0.75813 0.0
C1458 C 0.7649 0.09787 0.49264 0.0
C1459 C 0.77933 0.06491 0.48501 0.0
H1460 H 0.72649 0.12363 0.5131 0.0
C1461 C 0.76529 0.03174 0.49264 0.0
H1462 H 0.77503 0.12389 0.48704 0.0
C1463 C 0.7374 0.03159 0.50764 0.0
C1464 C 0.72293 0.0646 0.51521 0.0
H1465 H 0.77584 0.00588 0.48705 0.0
H1466 H 0.72716 0.00562 0.51326 0.0
C1467 C 0.73695 0.09772 0.50754 0.0
C1468 C 0.65345 0.01189 0.24132 0.0
C1469 C 0.68646 0.02652 0.23389 0.0
H1470 H 0.62749 0.9739 0.26198 0.0
C1471 C 0.71954 0.01316 0.24204 0.0
H1472 H 0.62749 0.02151 0.23533 0.0
C1473 C 0.71954 0.9858 0.25736 0.0
C1474 C 0.68647 0.9712 0.26478 0.0
H1475 H 0.74545 0.02388 0.23662 0.0
H1476 H 0.74546 0.97611 0.26339 0.0
C1477 C 0.65345 0.98449 0.25657 0.0
C1478 C 0.74064 0.90337 0.99043 0.0
C1479 C 0.725 0.93619 0.9834 0.0
H1480 H 0.77939 0.87786 0.01081 0.0
C1481 C 0.73726 0.96936 0.99198 0.0
H1482 H 0.73187 0.87735 0.9841 0.0
C1483 C 0.76456 0.96965 0.00734 0.0
C1484 C 0.78017 0.93679 0.01435 0.0
H1485 H 0.72574 0.99512 0.98689 0.0
H1486 H 0.77339 0.99563 0.0137 0.0
C1487 C 0.76797 0.90367 0.00571 0.0
C1488 C 0.6538 0.51064 0.75898 0.0
C1489 C 0.68642 0.52709 0.76571 0.0
H1490 H 0.62875 0.47051 0.73929 0.0
C1491 C 0.7197 0.51494 0.75723 0.0
H1492 H 0.6277 0.51926 0.76526 0.0
C1493 C 0.7203 0.48697 0.74228 0.0
C1494 C 0.68764 0.47047 0.73561 0.0
H1495 H 0.74531 0.52708 0.76211 0.0
H1496 H 0.74636 0.47825 0.73599 0.0
C1497 C 0.65441 0.48255 0.74415 0.0
C1498 C 0.76458 0.40337 0.99381 0.0
C1499 C 0.77868 0.43634 0.98598 0.0
H1500 H 0.72645 0.37759 0.01445 0.0
C1501 C 0.7644 0.4695 0.99346 0.0
H1502 H 0.77492 0.37735 0.98833 0.0
C1503 C 0.73656 0.46964 0.00849 0.0
C1504 C 0.7224 0.43662 0.01625 0.0
H1505 H 0.7747 0.49536 0.98772 0.0
H1506 H 0.72611 0.49561 0.01397 0.0
C1507 C 0.73668 0.40351 0.00874 0.0
C1508 C 0.84728 0.51301 0.2419 0.0
C1509 C 0.81431 0.52757 0.23435 0.0
H1510 H 0.87308 0.47481 0.26249 0.0
C1511 C 0.78116 0.51395 0.24225 0.0
H1512 H 0.87328 0.52282 0.23609 0.0
C1513 C 0.78104 0.48636 0.25744 0.0
C1514 C 0.81406 0.4718 0.26496 0.0
H1515 H 0.7553 0.52462 0.23674 0.0
H1516 H 0.75509 0.47647 0.26328 0.0
C1517 C 0.84716 0.48537 0.257 0.0
C1518 C 0.73783 0.59776 0.4919 0.0
C1519 C 0.72368 0.56461 0.48434 0.0
H1520 H 0.77548 0.62403 0.51263 0.0
C1521 C 0.73748 0.53164 0.49239 0.0
H1522 H 0.72786 0.62364 0.48599 0.0
C1523 C 0.76484 0.53186 0.50772 0.0
C1524 C 0.779 0.56506 0.51523 0.0
H1525 H 0.72713 0.50564 0.48688 0.0
H1526 H 0.7749 0.50603 0.51365 0.0
C1527 C 0.76523 0.59798 0.50714 0.0
C1528 C 0.28081 0.51441 0.25778 0.0
C1529 C 0.31408 0.52634 0.2664 0.0
H1530 H 0.25419 0.47796 0.23639 0.0
C1531 C 0.34668 0.50971 0.25981 0.0
H1532 H 0.25522 0.52669 0.26255 0.0
C1533 C 0.34607 0.48168 0.24494 0.0
C1534 C 0.31287 0.46984 0.23625 0.0
H1535 H 0.37275 0.51816 0.2662 0.0
H1536 H 0.37171 0.4695 0.24018 0.0
C1537 C 0.28022 0.48649 0.2428 0.0
C1538 C 0.26449 0.53173 0.99305 0.0
C1539 C 0.27906 0.5649 0.98577 0.0
H1540 H 0.2265 0.50556 0.01371 0.0
C1541 C 0.26582 0.59783 0.99412 0.0
H1542 H 0.27415 0.50589 0.98692 0.0
C1543 C 0.23847 0.59764 0.00939 0.0
C1544 C 0.22389 0.56452 0.0167 0.0
H1545 H 0.27641 0.62385 0.98881 0.0
H1546 H 0.22888 0.62352 0.0155 0.0
C1547 C 0.2372 0.53154 0.0084 0.0
C1548 C 0.15362 0.51974 0.74454 0.0
C1549 C 0.18684 0.53184 0.73599 0.0
H1550 H 0.12694 0.48297 0.76564 0.0
C1551 C 0.21951 0.51537 0.74267 0.0
H1552 H 0.12796 0.53177 0.73969 0.0
C1553 C 0.21894 0.48737 0.7576 0.0
C1554 C 0.18567 0.47517 0.76606 0.0
H1555 H 0.24556 0.5241 0.73637 0.0
H1556 H 0.24456 0.47523 0.76245 0.0
C1557 C 0.15303 0.49164 0.75936 0.0
C1558 C 0.26355 0.40298 0.50873 0.0
C1559 C 0.2782 0.43605 0.51608 0.0
H1560 H 0.22523 0.37691 0.48832 0.0
C1561 C 0.26464 0.46909 0.50799 0.0
H1562 H 0.27332 0.37705 0.51469 0.0
C1563 C 0.237 0.469 0.49283 0.0
C1564 C 0.22234 0.43589 0.48552 0.0
H1565 H 0.27537 0.49503 0.51334 0.0
H1566 H 0.22714 0.49489 0.48685 0.0
C1567 C 0.23587 0.4029 0.49366 0.0
C1568 C 0.3169 0.06954 0.39715 0.0
C1569 C 0.34039 0.04396 0.38773 0.0
H1570 H 0.276 0.11057 0.39248 0.0
C1571 C 0.3428 0.04272 0.3657 0.0
H1572 H 0.31462 0.07119 0.41412 0.0
C1573 C 0.32016 0.06471 0.35333 0.0
C1574 C 0.29535 0.08899 0.36276 0.0
H1575 H 0.36056 0.02321 0.358 0.0
H1576 H 0.3212 0.06185 0.33638 0.0
C1577 C 0.2949 0.09217 0.38477 0.0
C1578 C 0.18404 0.0618 0.64717 0.0
C1579 C 0.20797 0.0869 0.63768 0.0
H1580 H 0.14398 0.0199 0.64254 0.0
C1581 C 0.20736 0.0909 0.61571 0.0
H1582 H 0.18378 0.05831 0.66409 0.0
C1583 C 0.18511 0.06846 0.60338 0.0
C1584 C 0.16238 0.04225 0.61281 0.0
H1585 H 0.22551 0.10997 0.60795 0.0
H1586 H 0.18652 0.07086 0.58641 0.0
C1587 C 0.16111 0.03998 0.63485 0.0
C1588 C 0.15836 0.95886 0.86528 0.0
C1589 C 0.16051 0.95736 0.88732 0.0
H1590 H 0.18023 0.93994 0.83597 0.0
C1591 C 0.18379 0.93161 0.89674 0.0
H1592 H 0.14077 0.97853 0.85758 0.0
C1593 C 0.20582 0.90901 0.88437 0.0
C1594 C 0.20564 0.9124 0.86237 0.0
H1595 H 0.18587 0.92978 0.91371 0.0
H1596 H 0.22454 0.89045 0.8921 0.0
C1597 C 0.18106 0.9369 0.85292 0.0
C1598 C 0.28925 0.91261 0.11543 0.0
C1599 C 0.29001 0.91519 0.13748 0.0
H1600 H 0.30903 0.93393 0.08619 0.0
C1601 C 0.31478 0.93935 0.14703 0.0
H1602 H 0.27033 0.89432 0.10765 0.0
C1603 C 0.33748 0.96144 0.13475 0.0
C1604 C 0.33512 0.96045 0.11271 0.0
H1605 H 0.31603 0.94177 0.16399 0.0
H1606 H 0.35554 0.98057 0.14254 0.0
C1607 C 0.31126 0.93537 0.10316 0.0
C1608 C 0.6606 0.96045 0.63499 0.0
C1609 C 0.66287 0.95907 0.61294 0.0
H1610 H 0.68218 0.94127 0.66432 0.0
C1611 C 0.68634 0.93349 0.60353 0.0
H1612 H 0.64286 0.98 0.64267 0.0
C1613 C 0.70823 0.91077 0.61592 0.0
C1614 C 0.70777 0.91389 0.63794 0.0
H1615 H 0.68852 0.93175 0.58656 0.0
H1616 H 0.72698 0.89222 0.60821 0.0
C1617 C 0.6832 0.93841 0.64737 0.0
C1618 C 0.81749 0.93878 0.35322 0.0
C1619 C 0.79267 0.91471 0.3628 0.0
H1620 H 0.85842 0.97985 0.35767 0.0
C1621 C 0.79222 0.91188 0.38483 0.0
H1622 H 0.81853 0.94136 0.33625 0.0
C1623 C 0.81447 0.93444 0.39708 0.0
C1624 C 0.83827 0.95953 0.38751 0.0
H1625 H 0.7733 0.89363 0.39264 0.0
H1626 H 0.81237 0.93293 0.41406 0.0
C1627 C 0.84044 0.96066 0.36546 0.0
C1628 C 0.81894 0.06634 0.14665 0.0
C1629 C 0.79298 0.0894 0.13725 0.0
H1630 H 0.86032 0.02583 0.14201 0.0
C1631 C 0.79117 0.09125 0.1152 0.0
H1632 H 0.82099 0.06448 0.16362 0.0
C1633 C 0.81313 0.06854 0.10284 0.0
C1634 C 0.83793 0.04425 0.11228 0.0
H1635 H 0.77133 0.10867 0.10752 0.0
H1636 H 0.80992 0.06919 0.0859 0.0
C1637 C 0.84153 0.04431 0.13428 0.0
C1638 C 0.658 0.04306 0.86601 0.0
C1639 C 0.66056 0.04405 0.88804 0.0
H1640 H 0.6795 0.06243 0.83672 0.0
C1641 C 0.68423 0.0694 0.89752 0.0
H1642 H 0.64009 0.02372 0.85827 0.0
C1643 C 0.70626 0.09206 0.88519 0.0
C1644 C 0.70566 0.08913 0.86317 0.0
H1645 H 0.68663 0.07083 0.91449 0.0
H1646 H 0.7253 0.11028 0.89293 0.0
C1647 C 0.68067 0.06509 0.85368 0.0
C1648 C 0.8388 0.53949 0.8658 0.0
C1649 C 0.83674 0.54089 0.88785 0.0
H1650 H 0.81693 0.5586 0.83652 0.0
C1651 C 0.81307 0.56621 0.89733 0.0
H1652 H 0.85667 0.52012 0.85806 0.0
C1653 C 0.79091 0.58875 0.88501 0.0
C1654 C 0.79129 0.58571 0.86298 0.0
H1655 H 0.81104 0.56793 0.9143 0.0
H1656 H 0.77213 0.60721 0.89277 0.0
C1657 C 0.81594 0.56136 0.85348 0.0
C1658 C 0.65943 0.54317 0.13497 0.0
C1659 C 0.66199 0.54394 0.11293 0.0
H1660 H 0.68102 0.56273 0.16421 0.0
C1661 C 0.68594 0.56892 0.10338 0.0
H1662 H 0.64132 0.52409 0.14276 0.0
C1663 C 0.70806 0.5916 0.11565 0.0
C1664 C 0.70731 0.589 0.13768 0.0
H1665 H 0.68833 0.57016 0.08641 0.0
H1666 H 0.7272 0.60964 0.10786 0.0
C1667 C 0.68224 0.56516 0.14724 0.0
C1668 C 0.66 0.45978 0.3653 0.0
C1669 C 0.66176 0.4579 0.38735 0.0
H1670 H 0.68211 0.44106 0.33601 0.0
C1671 C 0.68472 0.43185 0.39676 0.0
H1672 H 0.64267 0.47969 0.35763 0.0
C1673 C 0.70674 0.40924 0.38439 0.0
C1674 C 0.70688 0.4129 0.3624 0.0
H1675 H 0.68651 0.42974 0.41373 0.0
H1676 H 0.72513 0.39037 0.39213 0.0
C1677 C 0.6827 0.4378 0.35295 0.0
C1678 C 0.81457 0.43367 0.60293 0.0
C1679 C 0.83895 0.45824 0.61249 0.0
H1680 H 0.77315 0.39307 0.60742 0.0
C1681 C 0.84219 0.4583 0.6345 0.0
H1682 H 0.81165 0.43294 0.58597 0.0
C1683 C 0.81963 0.43607 0.64677 0.0
C1684 C 0.7941 0.41268 0.63723 0.0
H1685 H 0.86065 0.47702 0.64231 0.0
H1686 H 0.82139 0.43798 0.66374 0.0
C1687 C 0.79267 0.41074 0.61519 0.0
C1688 C 0.15846 0.45756 0.1348 0.0
C1689 C 0.16095 0.45639 0.11277 0.0
H1690 H 0.18004 0.43842 0.16413 0.0
C1691 C 0.18456 0.43093 0.10335 0.0
H1692 H 0.1406 0.47699 0.1425 0.0
C1693 C 0.20659 0.40834 0.11573 0.0
C1694 C 0.20607 0.41145 0.13775 0.0
H1695 H 0.1869 0.42934 0.08639 0.0
H1696 H 0.22558 0.39003 0.10802 0.0
C1697 C 0.18114 0.43561 0.14718 0.0
C1698 C 0.3132 0.43455 0.89702 0.0
C1699 C 0.33688 0.45984 0.88752 0.0
H1700 H 0.27216 0.39363 0.89247 0.0
C1701 C 0.33892 0.46125 0.86547 0.0
H1702 H 0.31118 0.43284 0.91399 0.0
C1703 C 0.31599 0.43943 0.85317 0.0
C1704 C 0.29131 0.41513 0.86268 0.0
H1705 H 0.3568 0.48061 0.85773 0.0
H1706 H 0.31694 0.44222 0.83621 0.0
C1707 C 0.29097 0.41205 0.8847 0.0
C1708 C 0.29415 0.59076 0.61552 0.0
C1709 C 0.29398 0.58716 0.63752 0.0
H1710 H 0.31475 0.57045 0.58624 0.0
C1711 C 0.3184 0.56257 0.64703 0.0
H1712 H 0.2756 0.60944 0.60775 0.0
C1713 C 0.3414 0.54083 0.63473 0.0
C1714 C 0.33972 0.54265 0.61268 0.0
H1715 H 0.31901 0.5594 0.66397 0.0
H1716 H 0.35893 0.52113 0.64245 0.0
C1717 C 0.31649 0.56839 0.60321 0.0
C1718 C 0.18385 0.56194 0.35347 0.0
C1719 C 0.20848 0.58628 0.363 0.0
H1720 H 0.14318 0.52062 0.35801 0.0
C1721 C 0.20883 0.58933 0.38502 0.0
H1722 H 0.1829 0.55918 0.33651 0.0
C1723 C 0.18668 0.56673 0.39732 0.0
C1724 C 0.16309 0.54138 0.38781 0.0
H1725 H 0.22759 0.60778 0.3928 0.0
H1726 H 0.18872 0.56842 0.41429 0.0
C1727 C 0.161 0.54002 0.36576 0.0
C1728 C 0.28028 0.27448 0.25218 0.0
C1729 C 0.26051 0.2733 0.23327 0.0
H1730 H 0.28702 0.25241 0.28321 0.0
C1731 C 0.23129 0.24874 0.23134 0.0
H1732 H 0.30302 0.29314 0.25399 0.0
C1733 C 0.22206 0.22565 0.24803 0.0
C1734 C 0.2418 0.22685 0.26695 0.0
H1735 H 0.21532 0.24773 0.217 0.0
H1736 H 0.19931 0.20701 0.24623 0.0
C1737 C 0.27106 0.25139 0.26887 0.0
C1738 C 0.03279 0.0206 0.50357 0.0
C1739 C 0.02524 0.99025 0.51636 0.0
H1740 H 0.01568 0.05342 0.47739 0.0
C1741 C 0.99396 0.96928 0.51233 0.0
H1742 H 0.05655 0.03742 0.50655 0.0
C1743 C 0.97064 0.97846 0.49574 0.0
C1744 C 0.97817 0.00883 0.48297 0.0
H1745 H 0.98775 0.94562 0.52191 0.0
H1746 H 0.9468 0.96172 0.4928 0.0
C1747 C 0.0095 0.02974 0.48696 0.0
C1748 C 0.28265 0.77426 0.74836 0.0
C1749 C 0.2611 0.77442 0.76662 0.0
H1750 H 0.2914 0.75096 0.7178 0.0
C1751 C 0.23064 0.75128 0.7678 0.0
H1752 H 0.30634 0.79184 0.74717 0.0
C1753 C 0.22189 0.72829 0.75098 0.0
C1754 C 0.24343 0.72811 0.73271 0.0
H1755 H 0.21339 0.75129 0.78164 0.0
H1756 H 0.19817 0.71075 0.75218 0.0
C1757 C 0.274 0.75114 0.73158 0.0
C1758 C 0.50988 0.02645 0.01437 0.0
C1759 C 0.47795 0.00618 0.01784 0.0
H1760 H 0.55731 0.03403 0.99508 0.0
C1761 C 0.46995 0.97655 0.00459 0.0
H1762 H 0.51646 0.04955 0.02431 0.0
C1763 C 0.49329 0.96762 0.98796 0.0
C1764 C 0.52506 0.98808 0.98436 0.0
H1765 H 0.44567 0.96027 0.00714 0.0
H1766 H 0.48664 0.94458 0.97798 0.0
C1767 C 0.53317 0.01757 0.99771 0.0
C1768 C 0.27 0.78228 0.24731 0.0
C1769 C 0.24159 0.77371 0.2333 0.0
H1770 H 0.30045 0.76606 0.27459 0.0
C1771 C 0.22174 0.74136 0.23627 0.0
H1772 H 0.28598 0.80689 0.24518 0.0
C1773 C 0.22998 0.7181 0.25306 0.0
C1774 C 0.25836 0.72669 0.26708 0.0
H1775 H 0.19951 0.73434 0.22578 0.0
H1776 H 0.21397 0.69351 0.2552 0.0
C1777 C 0.27824 0.75903 0.26409 0.0
C1778 C 0.49287 0.02961 0.5129 0.0
C1779 C 0.52417 0.00868 0.51695 0.0
H1780 H 0.44576 0.03716 0.49333 0.0
C1781 C 0.53159 0.97816 0.50428 0.0
H1782 H 0.48675 0.0534 0.52239 0.0
C1783 C 0.5082 0.96886 0.48772 0.0
C1784 C 0.47693 0.98982 0.48364 0.0
H1785 H 0.55538 0.96137 0.50726 0.0
H1786 H 0.51434 0.94509 0.47822 0.0
C1787 C 0.4695 0.02032 0.49634 0.0
C1788 C 0.2702 0.28324 0.75274 0.0
C1789 C 0.24177 0.27468 0.76672 0.0
H1790 H 0.30078 0.26691 0.72553 0.0
C1791 C 0.22193 0.24231 0.76375 0.0
H1792 H 0.28617 0.30785 0.75486 0.0
C1793 C 0.23026 0.21899 0.74701 0.0
C1794 C 0.25872 0.22752 0.73304 0.0
H1795 H 0.19969 0.2353 0.77423 0.0
H1796 H 0.21429 0.19438 0.74489 0.0
C1797 C 0.27853 0.25991 0.736 0.0
C1798 C 0.9699 0.0233 0.00426 0.0
C1799 C 0.97748 0.9931 0.01716 0.0
H1800 H 0.98693 0.05589 0.97797 0.0
C1801 C 0.00901 0.97239 0.01334 0.0
H1802 H 0.94595 0.03995 0.00708 0.0
C1803 C 0.03237 0.9815 0.99674 0.0
C1804 C 0.02469 0.0116 0.98378 0.0
H1805 H 0.01529 0.94887 0.02302 0.0
H1806 H 0.05626 0.96479 0.99389 0.0
C1807 C 0.99325 0.03241 0.98767 0.0
C1808 C 0.78071 0.74291 0.73722 0.0
C1809 C 0.76057 0.77505 0.73411 0.0
H1810 H 0.78828 0.69488 0.75604 0.0
C1811 C 0.73173 0.78325 0.74788 0.0
H1812 H 0.80327 0.73617 0.72691 0.0
C1813 C 0.72323 0.75977 0.76452 0.0
C1814 C 0.74326 0.72755 0.76757 0.0
H1815 H 0.71551 0.80768 0.74563 0.0
H1816 H 0.70066 0.76649 0.77482 0.0
C1817 C 0.77217 0.71938 0.75384 0.0
C1818 C 0.72826 0.28101 0.25413 0.0
C1819 C 0.75831 0.27341 0.26715 0.0
H1820 H 0.69583 0.26385 0.2278 0.0
C1821 C 0.77899 0.24181 0.26345 0.0
H1822 H 0.71165 0.30501 0.25685 0.0
C1823 C 0.76996 0.21836 0.24687 0.0
C1824 C 0.73997 0.226 0.23382 0.0
H1825 H 0.8024 0.23553 0.27321 0.0
H1826 H 0.78664 0.19441 0.24412 0.0
C1827 C 0.71922 0.25754 0.23757 0.0
C1828 C 0.7314 0.25319 0.76936 0.0
C1829 C 0.75961 0.22752 0.76724 0.0
H1830 H 0.70038 0.29575 0.75458 0.0
C1831 C 0.77865 0.2253 0.74812 0.0
H1832 H 0.716 0.25506 0.78387 0.0
C1833 C 0.76966 0.24842 0.7314 0.0
C1834 C 0.74144 0.27408 0.73351 0.0
H1835 H 0.80066 0.20585 0.74618 0.0
H1836 H 0.78505 0.24654 0.71689 0.0
C1837 C 0.72241 0.2763 0.75264 0.0
C1838 C 0.77325 0.7814 0.25416 0.0
C1839 C 0.74388 0.77347 0.26761 0.0
H1840 H 0.80455 0.76467 0.22731 0.0
C1841 C 0.72327 0.74175 0.26418 0.0
H1842 H 0.78978 0.80553 0.25667 0.0
C1843 C 0.73162 0.71854 0.2474 0.0
C1844 C 0.76092 0.72652 0.23391 0.0
H1845 H 0.70035 0.73525 0.27427 0.0
H1846 H 0.71499 0.69449 0.24484 0.0
C1847 C 0.78166 0.75814 0.23741 0.0
C1848 C 0.46915 0.47988 0.99637 0.0
C1849 C 0.47682 0.50983 0.98329 0.0
H1850 H 0.48604 0.44781 0.02291 0.0
C1851 C 0.50827 0.53068 0.98707 0.0
H1852 H 0.44525 0.46315 0.9936 0.0
C1853 C 0.53152 0.52192 0.00378 0.0
C1854 C 0.52379 0.49204 0.0169 0.0
H1855 H 0.51458 0.55404 0.97727 0.0
H1856 H 0.55541 0.53866 0.00657 0.0
C1857 C 0.49239 0.47113 0.01308 0.0
C1858 C 0.99265 0.47087 0.48763 0.0
C1859 C 0.02413 0.49159 0.4837 0.0
H1860 H 0.94548 0.46345 0.50716 0.0
C1861 C 0.03192 0.52175 0.49659 0.0
H1862 H 0.98625 0.44735 0.47798 0.0
C1863 C 0.0087 0.53093 0.51323 0.0
C1864 C 0.97722 0.51022 0.51716 0.0
H1865 H 0.05586 0.53836 0.4937 0.0
H1866 H 0.0151 0.55444 0.52289 0.0
C1867 C 0.96943 0.48006 0.50427 0.0
C1868 C 0.03263 0.48071 0.00351 0.0
C1869 C 0.02498 0.5108 0.01648 0.0
H1870 H 0.01541 0.44802 0.97729 0.0
C1871 C 0.99349 0.53157 0.01265 0.0
H1872 H 0.05655 0.46403 0.00633 0.0
C1873 C 0.97003 0.52241 0.99611 0.0
C1874 C 0.97759 0.49222 0.98321 0.0
H1875 H 0.98718 0.55503 0.02237 0.0
H1876 H 0.94602 0.539 0.99335 0.0
C1877 C 0.00917 0.47155 0.98697 0.0
C1878 C 0.5325 0.47955 0.49634 0.0
C1879 C 0.52485 0.50991 0.48357 0.0
H1880 H 0.51548 0.4465 0.52245 0.0
C1881 C 0.49336 0.5306 0.48756 0.0
H1882 H 0.55641 0.46291 0.4934 0.0
C1883 C 0.47001 0.5212 0.5041 0.0
C1884 C 0.47767 0.49085 0.51687 0.0
H1885 H 0.48704 0.55425 0.478 0.0
H1886 H 0.44609 0.53782 0.50703 0.0
C1887 C 0.50916 0.47016 0.51289 0.0
loop_
_geom_bond_atom_site_label_1
_geom_bond_atom_site_label_2
_geom_bond_distance
_geom_bond_site_symmetry_2
_ccdc_geom_bond_type
Co0 O3 1.970 . S
Co0 N17 1.989 . S
Co0 O25 1.967 . S
Co0 O32 1.920 . S
Co1 O4 1.966 . S
Co1 N10 2.022 . S
Co1 N18 1.993 . S
Co1 O26 1.941 . S
C2 O3 1.258 . S
C2 O4 1.263 . S
O3 Co0 1.970 . S
O3 C2 1.258 . S
O4 Co1 1.966 . S
O4 C2 1.263 . S
C5 O6 1.235 . S
C5 O32 1.289 . S
O6 C5 1.235 . S
C7 C9 1.400 . S
C7 N10 1.351 . S
C7 C12 1.501 . S
C8 C9 1.387 . S
C8 N11 1.341 . S
C9 C7 1.400 . S
C9 C8 1.387 . S
N10 Co1 2.022 . S
N10 C7 1.351 . S
N10 N11 1.365 . S
N11 C8 1.341 . S
N11 N10 1.365 . S
N11 H31 0.862 . S
C12 C7 1.501 . S
C12 H13 0.961 . S
C12 H14 0.961 . S
C12 H15 0.960 . S
H13 C12 0.961 . S
H14 C12 0.961 . S
H15 C12 0.960 . S
C16 N17 1.342 . S
C16 C20 1.401 . S
C16 C21 1.499 . S
N17 Co0 1.989 . S
N17 C16 1.342 . S
N17 N18 1.388 . S
N18 Co1 1.993 . S
N18 N17 1.388 . S
N18 C19 1.346 . S
C19 N18 1.346 . S
C19 C20 1.396 . S
C19 C29 1.510 . S
C20 C16 1.401 . S
C20 C19 1.396 . S
C21 C16 1.499 . S
C21 H22 0.959 . S
C21 H23 0.960 . S
C21 H24 0.961 . S
H22 C21 0.959 . S
H23 C21 0.960 . S
H24 C21 0.961 . S
O25 Co0 1.967 . S
O25 C33 1.258 . S
O26 Co1 1.941 . S
O26 C33 1.266 . S
H27 C29 0.959 . S
H28 C29 0.961 . S
C29 C19 1.510 . S
C29 H27 0.959 . S
C29 H28 0.961 . S
C29 H30 0.960 . S
H30 C29 0.960 . S
H31 N11 0.862 . S
O32 Co0 1.920 . S
O32 C5 1.289 . S
C33 O25 1.258 . S
C33 O26 1.266 . S
Co34 O37 1.970 . S
Co34 N51 1.989 . S
Co34 O59 1.962 1_565 S
Co34 O66 1.920 . S
Co35 O38 1.966 . S
Co35 N44 2.022 . S
Co35 N52 1.993 . S
Co35 O60 1.941 1_565 S
C36 O37 1.258 . S
C36 O38 1.263 . S
O37 Co34 1.970 . S
O37 C36 1.258 . S
O38 Co35 1.966 . S
O38 C36 1.263 . S
C39 O40 1.235 . S
C39 O66 1.289 . S
O40 C39 1.235 . S
C41 C43 1.400 1_455 S
C41 N44 1.351 . S
C41 C46 1.501 . S
C42 C43 1.387 . S
C42 N45 1.341 1_655 S
C43 C41 1.400 1_655 S
C43 C42 1.387 . S
N44 Co35 2.022 . S
N44 C41 1.351 . S
N44 N45 1.365 . S
N45 C42 1.341 1_455 S
N45 N44 1.365 . S
N45 H65 0.862 1_565 S
C46 C41 1.501 . S
C46 H47 0.961 . S
C46 H48 0.961 . S
C46 H49 0.960 . S
H47 C46 0.961 . S
H48 C46 0.961 . S
H49 C46 0.960 . S
C50 N51 1.342 . S
C50 C54 1.401 . S
C50 C55 1.505 . S
N51 Co34 1.989 . S
N51 C50 1.342 . S
N51 N52 1.388 . S
N52 Co35 1.993 . S
N52 N51 1.388 . S
N52 C53 1.346 . S
C53 N52 1.346 . S
C53 C54 1.396 . S
C53 C63 1.510 1_455 S
C54 C50 1.401 . S
C54 C53 1.396 . S
C55 C50 1.505 . S
C55 H56 0.964 . S
C55 H57 0.976 . S
C55 H58 0.933 1_565 S
H56 C55 0.964 . S
H57 C55 0.976 . S
H58 C55 0.933 1_545 S
O59 Co34 1.962 1_545 S
O59 C67 1.261 . S
O60 Co35 1.941 1_545 S
O60 C67 1.266 . S
H61 C63 0.959 1_545 S
H62 C63 0.961 . S
C63 C53 1.510 1_655 S
C63 H61 0.959 1_565 S
C63 H62 0.961 . S
C63 H64 0.960 1_655 S
H64 C63 0.960 1_455 S
H65 N45 0.862 1_545 S
O66 Co34 1.920 . S
O66 C39 1.289 . S
C67 O59 1.261 . S
C67 O60 1.266 . S
Co68 O71 1.970 . S
Co68 N85 1.989 . S
Co68 O93 1.967 . S
Co68 O100 1.920 . S
Co69 O72 1.966 . S
Co69 N78 2.022 . S
Co69 N86 1.993 . S
Co69 O94 1.941 . S
C70 O71 1.258 . S
C70 O72 1.263 . S
O71 Co68 1.970 . S
O71 C70 1.258 . S
O72 Co69 1.966 . S
O72 C70 1.263 . S
C73 O74 1.235 . S
C73 O100 1.289 . S
O74 C73 1.235 . S
C75 C77 1.400 . S
C75 N78 1.351 . S
C75 C80 1.501 . S
C76 C77 1.387 . S
C76 N79 1.341 . S
C77 C75 1.400 . S
C77 C76 1.387 . S
N78 Co69 2.022 . S
N78 C75 1.351 . S
N78 N79 1.365 . S
N79 C76 1.341 . S
N79 N78 1.365 . S
N79 H99 0.862 . S
C80 C75 1.501 . S
C80 H81 0.961 . S
C80 H82 0.961 . S
C80 H83 0.960 . S
H81 C80 0.961 . S
H82 C80 0.961 . S
H83 C80 0.960 . S
C84 N85 1.342 . S
C84 C88 1.401 . S
C84 C89 1.499 . S
N85 Co68 1.989 . S
N85 C84 1.342 . S
N85 N86 1.388 . S
N86 Co69 1.993 . S
N86 N85 1.388 . S
N86 C87 1.346 . S
C87 N86 1.346 . S
C87 C88 1.396 . S
C87 C97 1.510 . S
C88 C84 1.401 . S
C88 C87 1.396 . S
C89 C84 1.499 . S
C89 H90 0.959 . S
C89 H91 0.960 . S
C89 H92 0.961 . S
H90 C89 0.959 . S
H91 C89 0.960 . S
H92 C89 0.961 . S
O93 Co68 1.967 . S
O93 C101 1.258 . S
O94 Co69 1.941 . S
O94 C101 1.266 . S
H95 C97 0.959 . S
H96 C97 0.961 . S
C97 C87 1.510 . S
C97 H95 0.959 . S
C97 H96 0.961 . S
C97 H98 0.960 . S
H98 C97 0.960 . S
H99 N79 0.862 . S
O100 Co68 1.920 . S
O100 C73 1.289 . S
C101 O93 1.258 . S
C101 O94 1.266 . S
Co102 O105 1.970 . S
Co102 N119 1.989 . S
Co102 O127 1.962 1_545 S
Co102 O134 1.920 . S
Co103 O106 1.966 . S
Co103 N112 2.022 . S
Co103 N120 1.993 . S
Co103 O128 1.941 1_545 S
C104 O105 1.258 . S
C104 O106 1.263 . S
O105 Co102 1.970 . S
O105 C104 1.258 . S
O106 Co103 1.966 . S
O106 C104 1.263 . S
C107 O108 1.235 . S
C107 O134 1.289 . S
O108 C107 1.235 . S
C109 C111 1.400 . S
C109 N112 1.351 . S
C109 C114 1.501 . S
C110 C111 1.387 . S
C110 N113 1.341 . S
C111 C109 1.400 . S
C111 C110 1.387 . S
N112 Co103 2.022 . S
N112 C109 1.351 . S
N112 N113 1.365 . S
N113 C110 1.341 . S
N113 N112 1.365 . S
N113 H133 0.862 1_545 S
C114 C109 1.501 . S
C114 H115 0.961 . S
C114 H116 0.961 . S
C114 H117 0.960 . S
H115 C114 0.961 . S
H116 C114 0.961 . S
H117 C114 0.960 . S
C118 N119 1.342 . S
C118 C122 1.401 . S
C118 C123 1.505 . S
N119 Co102 1.989 . S
N119 C118 1.342 . S
N119 N120 1.388 . S
N120 Co103 1.993 . S
N120 N119 1.388 . S
N120 C121 1.346 . S
C121 N120 1.346 . S
C121 C122 1.396 . S
C121 C131 1.510 . S
C122 C118 1.401 . S
C122 C121 1.396 . S
C123 C118 1.505 . S
C123 H124 0.964 . S
C123 H125 0.976 . S
C123 H126 0.933 1_545 S
H124 C123 0.964 . S
H125 C123 0.976 . S
H126 C123 0.933 1_565 S
O127 Co102 1.962 1_565 S
O127 C135 1.261 . S
O128 Co103 1.941 1_565 S
O128 C135 1.266 . S
H129 C131 0.959 1_565 S
H130 C131 0.961 . S
C131 C121 1.510 . S
C131 H129 0.959 1_545 S
C131 H130 0.961 . S
C131 H132 0.960 . S
H132 C131 0.960 . S
H133 N113 0.862 1_565 S
O134 Co102 1.920 . S
O134 C107 1.289 . S
C135 O127 1.261 . S
C135 O128 1.266 . S
Co136 O139 1.970 . S
Co136 N153 1.989 . S
Co136 O161 1.967 . S
Co136 O168 1.920 . S
Co137 O140 1.966 . S
Co137 N146 2.022 . S
Co137 N154 1.993 . S
Co137 O162 1.941 . S
C138 O139 1.258 . S
C138 O140 1.263 . S
O139 Co136 1.970 . S
O139 C138 1.258 . S
O140 Co137 1.966 . S
O140 C138 1.263 . S
C141 O142 1.235 . S
C141 O168 1.289 . S
O142 C141 1.235 . S
C143 C145 1.400 . S
C143 N146 1.351 . S
C143 C148 1.501 . S
C144 C145 1.387 . S
C144 N147 1.341 . S
C145 C143 1.400 . S
C145 C144 1.387 . S
N146 Co137 2.022 . S
N146 C143 1.351 . S
N146 N147 1.365 . S
N147 C144 1.341 . S
N147 N146 1.365 . S
N147 H167 0.862 . S
C148 C143 1.501 . S
C148 H149 0.961 . S
C148 H150 0.961 . S
C148 H151 0.960 . S
H149 C148 0.961 . S
H150 C148 0.961 . S
H151 C148 0.960 . S
C152 N153 1.342 . S
C152 C156 1.401 . S
C152 C157 1.499 . S
N153 Co136 1.989 . S
N153 C152 1.342 . S
N153 N154 1.388 . S
N154 Co137 1.993 . S
N154 N153 1.388 . S
N154 C155 1.346 . S
C155 N154 1.346 . S
C155 C156 1.396 . S
C155 C165 1.510 . S
C156 C152 1.401 . S
C156 C155 1.396 . S
C157 C152 1.499 . S
C157 H158 0.959 . S
C157 H159 0.960 . S
C157 H160 0.961 . S
H158 C157 0.959 . S
H159 C157 0.960 . S
H160 C157 0.961 . S
O161 Co136 1.967 . S
O161 C169 1.258 . S
O162 Co137 1.941 . S
O162 C169 1.266 . S
H163 C165 0.959 . S
H164 C165 0.961 . S
C165 C155 1.510 . S
C165 H163 0.959 . S
C165 H164 0.961 . S
C165 H166 0.960 . S
H166 C165 0.960 . S
H167 N147 0.862 . S
O168 Co136 1.920 . S
O168 C141 1.289 . S
C169 O161 1.258 . S
C169 O162 1.266 . S
Co170 O173 1.970 . S
Co170 N187 1.989 . S
Co170 O195 1.962 1_565 S
Co170 O202 1.920 . S
Co171 O174 1.966 . S
Co171 N180 2.022 . S
Co171 N188 1.993 . S
Co171 O196 1.941 1_565 S
C172 O173 1.258 . S
C172 O174 1.263 . S
O173 Co170 1.970 . S
O173 C172 1.258 . S
O174 Co171 1.966 . S
O174 C172 1.263 . S
C175 O176 1.235 . S
C175 O202 1.289 . S
O176 C175 1.235 . S
C177 C179 1.400 . S
C177 N180 1.351 . S
C177 C182 1.501 . S
C178 C179 1.387 . S
C178 N181 1.341 . S
C179 C177 1.400 . S
C179 C178 1.387 . S
N180 Co171 2.022 . S
N180 C177 1.351 . S
N180 N181 1.365 . S
N181 C178 1.341 . S
N181 N180 1.365 . S
N181 H201 0.862 1_565 S
C182 C177 1.501 . S
C182 H183 0.961 . S
C182 H184 0.961 . S
C182 H185 0.960 . S
H183 C182 0.961 . S
H184 C182 0.961 . S
H185 C182 0.960 . S
C186 N187 1.342 . S
C186 C190 1.401 . S
C186 C191 1.505 . S
N187 Co170 1.989 . S
N187 C186 1.342 . S
N187 N188 1.388 . S
N188 Co171 1.993 . S
N188 N187 1.388 . S
N188 C189 1.346 . S
C189 N188 1.346 . S
C189 C190 1.396 . S
C189 C199 1.510 . S
C190 C186 1.401 . S
C190 C189 1.396 . S
C191 C186 1.505 . S
C191 H192 0.964 . S
C191 H193 0.976 . S
C191 H194 0.933 1_565 S
H192 C191 0.964 . S
H193 C191 0.976 . S
H194 C191 0.933 1_545 S
O195 Co170 1.962 1_545 S
O195 C203 1.261 . S
O196 Co171 1.941 1_545 S
O196 C203 1.266 . S
H197 C199 0.959 1_545 S
H198 C199 0.961 . S
C199 C189 1.510 . S
C199 H197 0.959 1_565 S
C199 H198 0.961 . S
C199 H200 0.960 . S
H200 C199 0.960 . S
H201 N181 0.862 1_545 S
O202 Co170 1.920 . S
O202 C175 1.289 . S
C203 O195 1.261 . S
C203 O196 1.266 . S
Co204 O207 1.970 . S
Co204 N221 1.989 . S
Co204 O229 1.967 . S
Co204 O236 1.920 . S
Co205 O208 1.966 . S
Co205 N214 2.022 . S
Co205 N222 1.993 . S
Co205 O230 1.941 . S
C206 O207 1.258 . S
C206 O208 1.263 . S
O207 Co204 1.970 . S
O207 C206 1.258 . S
O208 Co205 1.966 . S
O208 C206 1.263 . S
C209 O210 1.235 . S
C209 O236 1.289 . S
O210 C209 1.235 . S
C211 C213 1.400 . S
C211 N214 1.351 . S
C211 C216 1.501 . S
C212 C213 1.387 . S
C212 N215 1.341 . S
C213 C211 1.400 . S
C213 C212 1.387 . S
N214 Co205 2.022 . S
N214 C211 1.351 . S
N214 N215 1.365 . S
N215 C212 1.341 . S
N215 N214 1.365 . S
N215 H235 0.862 . S
C216 C211 1.501 . S
C216 H217 0.961 . S
C216 H218 0.961 . S
C216 H219 0.960 . S
H217 C216 0.961 . S
H218 C216 0.961 . S
H219 C216 0.960 . S
C220 N221 1.342 . S
C220 C224 1.401 . S
C220 C225 1.499 . S
N221 Co204 1.989 . S
N221 C220 1.342 . S
N221 N222 1.388 . S
N222 Co205 1.993 . S
N222 N221 1.388 . S
N222 C223 1.346 . S
C223 N222 1.346 . S
C223 C224 1.396 . S
C223 C233 1.510 . S
C224 C220 1.401 . S
C224 C223 1.396 . S
C225 C220 1.499 . S
C225 H226 0.959 . S
C225 H227 0.960 . S
C225 H228 0.961 . S
H226 C225 0.959 . S
H227 C225 0.960 . S
H228 C225 0.961 . S
O229 Co204 1.967 . S
O229 C237 1.258 . S
O230 Co205 1.941 . S
O230 C237 1.266 . S
H231 C233 0.959 . S
H232 C233 0.961 . S
C233 C223 1.510 . S
C233 H231 0.959 . S
C233 H232 0.961 . S
C233 H234 0.960 . S
H234 C233 0.960 . S
H235 N215 0.862 . S
O236 Co204 1.920 . S
O236 C209 1.289 . S
C237 O229 1.258 . S
C237 O230 1.266 . S
Co238 O241 1.970 . S
Co238 N255 1.989 . S
Co238 O263 1.962 1_545 S
Co238 O270 1.920 . S
Co239 O242 1.966 . S
Co239 N248 2.022 . S
Co239 N256 1.993 . S
Co239 O264 1.941 1_545 S
C240 O241 1.258 . S
C240 O242 1.263 . S
O241 Co238 1.970 . S
O241 C240 1.258 . S
O242 Co239 1.966 . S
O242 C240 1.263 . S
C243 O244 1.235 . S
C243 O270 1.289 . S
O244 C243 1.235 . S
C245 C247 1.400 1_455 S
C245 N248 1.351 . S
C245 C250 1.501 . S
C246 C247 1.387 . S
C246 N249 1.341 1_655 S
C247 C245 1.400 1_655 S
C247 C246 1.387 . S
N248 Co239 2.022 . S
N248 C245 1.351 . S
N248 N249 1.365 . S
N249 C246 1.341 1_455 S
N249 N248 1.365 . S
N249 H269 0.862 1_545 S
C250 C245 1.501 . S
C250 H251 0.961 . S
C250 H252 0.961 . S
C250 H253 0.960 . S
H251 C250 0.961 . S
H252 C250 0.961 . S
H253 C250 0.960 . S
C254 N255 1.342 . S
C254 C258 1.401 . S
C254 C259 1.505 . S
N255 Co238 1.989 . S
N255 C254 1.342 . S
N255 N256 1.388 . S
N256 Co239 1.993 . S
N256 N255 1.388 . S
N256 C257 1.346 . S
C257 N256 1.346 . S
C257 C258 1.396 . S
C257 C267 1.510 1_455 S
C258 C254 1.401 . S
C258 C257 1.396 . S
C259 C254 1.505 . S
C259 H260 0.964 . S
C259 H261 0.976 . S
C259 H262 0.933 1_545 S
H260 C259 0.964 . S
H261 C259 0.976 . S
H262 C259 0.933 1_565 S
O263 Co238 1.962 1_565 S
O263 C271 1.261 . S
O264 Co239 1.941 1_565 S
O264 C271 1.266 . S
H265 C267 0.959 1_565 S
H266 C267 0.961 . S
C267 C257 1.510 1_655 S
C267 H265 0.959 1_545 S
C267 H266 0.961 . S
C267 H268 0.960 1_655 S
H268 C267 0.960 1_455 S
H269 N249 0.862 1_565 S
O270 Co238 1.920 . S
O270 C243 1.289 . S
C271 O263 1.261 . S
C271 O264 1.266 . S
Co272 O275 1.970 . S
Co272 N289 1.989 . S
Co272 O297 1.967 . S
Co272 O304 1.920 . S
Co273 O276 1.966 . S
Co273 N282 2.022 . S
Co273 N290 1.993 . S
Co273 O298 1.941 . S
C274 O275 1.258 . S
C274 O276 1.263 . S
O275 Co272 1.970 . S
O275 C274 1.258 . S
O276 Co273 1.966 . S
O276 C274 1.263 . S
C277 O278 1.235 . S
C277 O304 1.289 . S
O278 C277 1.235 . S
C279 C281 1.400 . S
C279 N282 1.351 . S
C279 C284 1.501 . S
C280 C281 1.387 . S
C280 N283 1.341 . S
C281 C279 1.400 . S
C281 C280 1.387 . S
N282 Co273 2.022 . S
N282 C279 1.351 . S
N282 N283 1.365 . S
N283 C280 1.341 . S
N283 N282 1.365 . S
N283 H303 0.862 . S
C284 C279 1.501 . S
C284 H285 0.961 . S
C284 H286 0.961 . S
C284 H287 0.960 . S
H285 C284 0.961 . S
H286 C284 0.961 . S
H287 C284 0.960 . S
C288 N289 1.342 . S
C288 C292 1.401 . S
C288 C293 1.499 . S
N289 Co272 1.989 . S
N289 C288 1.342 . S
N289 N290 1.388 . S
N290 Co273 1.993 . S
N290 N289 1.388 . S
N290 C291 1.346 . S
C291 N290 1.346 . S
C291 C292 1.396 . S
C291 C301 1.510 . S
C292 C288 1.401 . S
C292 C291 1.396 . S
C293 C288 1.499 . S
C293 H294 0.959 . S
C293 H295 0.960 . S
C293 H296 0.961 . S
H294 C293 0.959 . S
H295 C293 0.960 . S
H296 C293 0.961 . S
O297 Co272 1.967 . S
O297 C305 1.258 . S
O298 Co273 1.941 . S
O298 C305 1.266 . S
H299 C301 0.959 . S
H300 C301 0.961 . S
C301 C291 1.510 . S
C301 H299 0.959 . S
C301 H300 0.961 . S
C301 H302 0.960 . S
H302 C301 0.960 . S
H303 N283 0.862 . S
O304 Co272 1.920 . S
O304 C277 1.289 . S
C305 O297 1.258 . S
C305 O298 1.266 . S
Co306 O309 1.970 . S
Co306 N323 1.989 . S
Co306 O331 1.962 1_545 S
Co306 O338 1.920 . S
Co307 O310 1.966 . S
Co307 N316 2.022 . S
Co307 N324 1.993 . S
Co307 O332 1.941 1_545 S
C308 O309 1.258 . S
C308 O310 1.263 . S
O309 Co306 1.970 . S
O309 C308 1.258 . S
O310 Co307 1.966 . S
O310 C308 1.263 . S
C311 O312 1.235 . S
C311 O338 1.289 . S
O312 C311 1.235 . S
C313 C315 1.400 1_655 S
C313 N316 1.351 . S
C313 C318 1.501 . S
C314 C315 1.387 . S
C314 N317 1.341 1_455 S
C315 C313 1.400 1_455 S
C315 C314 1.387 . S
N316 Co307 2.022 . S
N316 C313 1.351 . S
N316 N317 1.365 . S
N317 C314 1.341 1_655 S
N317 N316 1.365 . S
N317 H337 0.862 1_545 S
C318 C313 1.501 . S
C318 H319 0.961 . S
C318 H320 0.961 . S
C318 H321 0.960 . S
H319 C318 0.961 . S
H320 C318 0.961 . S
H321 C318 0.960 . S
C322 N323 1.342 . S
C322 C326 1.401 . S
C322 C327 1.505 . S
N323 Co306 1.989 . S
N323 C322 1.342 . S
N323 N324 1.388 . S
N324 Co307 1.993 . S
N324 N323 1.388 . S
N324 C325 1.346 . S
C325 N324 1.346 . S
C325 C326 1.396 . S
C325 C335 1.510 1_655 S
C326 C322 1.401 . S
C326 C325 1.396 . S
C327 C322 1.505 . S
C327 H328 0.964 . S
C327 H329 0.976 . S
C327 H330 0.933 1_545 S
H328 C327 0.964 . S
H329 C327 0.976 . S
H330 C327 0.933 1_565 S
O331 Co306 1.962 1_565 S
O331 C339 1.261 . S
O332 Co307 1.941 1_565 S
O332 C339 1.266 . S
H333 C335 0.959 1_565 S
H334 C335 0.961 . S
C335 C325 1.510 1_455 S
C335 H333 0.959 1_545 S
C335 H334 0.961 . S
C335 H336 0.960 1_455 S
H336 C335 0.960 1_655 S
H337 N317 0.862 1_565 S
O338 Co306 1.920 . S
O338 C311 1.289 . S
C339 O331 1.261 . S
C339 O332 1.266 . S
Co340 O343 1.970 . S
Co340 N357 1.989 . S
Co340 O365 1.967 . S
Co340 O372 1.920 . S
Co341 O344 1.966 . S
Co341 N350 2.022 . S
Co341 N358 1.993 . S
Co341 O366 1.941 . S
C342 O343 1.258 . S
C342 O344 1.263 . S
O343 Co340 1.970 . S
O343 C342 1.258 . S
O344 Co341 1.966 . S
O344 C342 1.263 . S
C345 O346 1.235 . S
C345 O372 1.289 . S
O346 C345 1.235 . S
C347 C349 1.400 . S
C347 N350 1.351 . S
C347 C352 1.501 . S
C348 C349 1.387 . S
C348 N351 1.341 . S
C349 C347 1.400 . S
C349 C348 1.387 . S
N350 Co341 2.022 . S
N350 C347 1.351 . S
N350 N351 1.365 . S
N351 C348 1.341 . S
N351 N350 1.365 . S
N351 H371 0.862 . S
C352 C347 1.501 . S
C352 H353 0.961 . S
C352 H354 0.961 . S
C352 H355 0.960 . S
H353 C352 0.961 . S
H354 C352 0.961 . S
H355 C352 0.960 . S
C356 N357 1.342 . S
C356 C360 1.401 . S
C356 C361 1.499 . S
N357 Co340 1.989 . S
N357 C356 1.342 . S
N357 N358 1.388 . S
N358 Co341 1.993 . S
N358 N357 1.388 . S
N358 C359 1.346 . S
C359 N358 1.346 . S
C359 C360 1.396 . S
C359 C369 1.510 . S
C360 C356 1.401 . S
C360 C359 1.396 . S
C361 C356 1.499 . S
C361 H362 0.959 . S
C361 H363 0.960 . S
C361 H364 0.961 . S
H362 C361 0.959 . S
H363 C361 0.960 . S
H364 C361 0.961 . S
O365 Co340 1.967 . S
O365 C373 1.258 . S
O366 Co341 1.941 . S
O366 C373 1.266 . S
H367 C369 0.959 . S
H368 C369 0.961 . S
C369 C359 1.510 . S
C369 H367 0.959 . S
C369 H368 0.961 . S
C369 H370 0.960 . S
H370 C369 0.960 . S
H371 N351 0.862 . S
O372 Co340 1.920 . S
O372 C345 1.289 . S
C373 O365 1.258 . S
C373 O366 1.266 . S
Co374 O377 1.970 . S
Co374 N391 1.989 . S
Co374 O399 1.962 1_565 S
Co374 O406 1.920 . S
Co375 O378 1.966 . S
Co375 N384 2.022 . S
Co375 N392 1.993 . S
Co375 O400 1.941 1_565 S
C376 O377 1.258 . S
C376 O378 1.263 . S
O377 Co374 1.970 . S
O377 C376 1.258 . S
O378 Co375 1.966 . S
O378 C376 1.263 . S
C379 O380 1.235 . S
C379 O406 1.289 . S
O380 C379 1.235 . S
C381 C383 1.400 . S
C381 N384 1.351 . S
C381 C386 1.501 . S
C382 C383 1.387 . S
C382 N385 1.341 . S
C383 C381 1.400 . S
C383 C382 1.387 . S
N384 Co375 2.022 . S
N384 C381 1.351 . S
N384 N385 1.365 . S
N385 C382 1.341 . S
N385 N384 1.365 . S
N385 H405 0.862 1_565 S
C386 C381 1.501 . S
C386 H387 0.961 . S
C386 H388 0.961 . S
C386 H389 0.960 . S
H387 C386 0.961 . S
H388 C386 0.961 . S
H389 C386 0.960 . S
C390 N391 1.342 . S
C390 C394 1.401 . S
C390 C395 1.505 . S
N391 Co374 1.989 . S
N391 C390 1.342 . S
N391 N392 1.388 . S
N392 Co375 1.993 . S
N392 N391 1.388 . S
N392 C393 1.346 . S
C393 N392 1.346 . S
C393 C394 1.396 . S
C393 C403 1.510 . S
C394 C390 1.401 . S
C394 C393 1.396 . S
C395 C390 1.505 . S
C395 H396 0.964 . S
C395 H397 0.976 . S
C395 H398 0.933 1_565 S
H396 C395 0.964 . S
H397 C395 0.976 . S
H398 C395 0.933 1_545 S
O399 Co374 1.962 1_545 S
O399 C407 1.261 . S
O400 Co375 1.941 1_545 S
O400 C407 1.266 . S
H401 C403 0.959 1_545 S
H402 C403 0.961 . S
C403 C393 1.510 . S
C403 H401 0.959 1_565 S
C403 H402 0.961 . S
C403 H404 0.960 . S
H404 C403 0.960 . S
H405 N385 0.862 1_545 S
O406 Co374 1.920 . S
O406 C379 1.289 . S
C407 O399 1.261 . S
C407 O400 1.266 . S
Co408 O411 1.970 . S
Co408 N425 1.989 . S
Co408 O433 1.967 . S
Co408 O440 1.920 . S
Co409 O412 1.966 . S
Co409 N418 2.022 . S
Co409 N426 1.993 . S
Co409 O434 1.941 . S
C410 O411 1.258 . S
C410 O412 1.263 . S
O411 Co408 1.970 . S
O411 C410 1.258 . S
O412 Co409 1.966 . S
O412 C410 1.263 . S
C413 O414 1.235 . S
C413 O440 1.289 . S
O414 C413 1.235 . S
C415 C417 1.400 . S
C415 N418 1.351 . S
C415 C420 1.501 . S
C416 C417 1.387 . S
C416 N419 1.341 . S
C417 C415 1.400 . S
C417 C416 1.387 . S
N418 Co409 2.022 . S
N418 C415 1.351 . S
N418 N419 1.365 . S
N419 C416 1.341 . S
N419 N418 1.365 . S
N419 H439 0.862 . S
C420 C415 1.501 . S
C420 H421 0.961 . S
C420 H422 0.961 . S
C420 H423 0.960 . S
H421 C420 0.961 . S
H422 C420 0.961 . S
H423 C420 0.960 . S
C424 N425 1.342 . S
C424 C428 1.401 . S
C424 C429 1.499 . S
N425 Co408 1.989 . S
N425 C424 1.342 . S
N425 N426 1.388 . S
N426 Co409 1.993 . S
N426 N425 1.388 . S
N426 C427 1.346 . S
C427 N426 1.346 . S
C427 C428 1.396 . S
C427 C437 1.510 . S
C428 C424 1.401 . S
C428 C427 1.396 . S
C429 C424 1.499 . S
C429 H430 0.959 . S
C429 H431 0.960 . S
C429 H432 0.961 . S
H430 C429 0.959 . S
H431 C429 0.960 . S
H432 C429 0.961 . S
O433 Co408 1.967 . S
O433 C441 1.258 . S
O434 Co409 1.941 . S
O434 C441 1.266 . S
H435 C437 0.959 . S
H436 C437 0.961 . S
C437 C427 1.510 . S
C437 H435 0.959 . S
C437 H436 0.961 . S
C437 H438 0.960 . S
H438 C437 0.960 . S
H439 N419 0.862 . S
O440 Co408 1.920 . S
O440 C413 1.289 . S
C441 O433 1.258 . S
C441 O434 1.266 . S
Co442 O445 1.970 . S
Co442 N459 1.989 . S
Co442 O467 1.962 1_545 S
Co442 O474 1.920 . S
Co443 O446 1.966 . S
Co443 N452 2.022 . S
Co443 N460 1.993 . S
Co443 O468 1.941 1_545 S
C444 O445 1.258 . S
C444 O446 1.263 . S
O445 Co442 1.970 . S
O445 C444 1.258 . S
O446 Co443 1.966 . S
O446 C444 1.263 . S
C447 O448 1.235 . S
C447 O474 1.289 . S
O448 C447 1.235 . S
C449 C451 1.400 . S
C449 N452 1.351 . S
C449 C454 1.501 . S
C450 C451 1.387 . S
C450 N453 1.341 . S
C451 C449 1.400 . S
C451 C450 1.387 . S
N452 Co443 2.022 . S
N452 C449 1.351 . S
N452 N453 1.365 . S
N453 C450 1.341 . S
N453 N452 1.365 . S
N453 H473 0.862 1_545 S
C454 C449 1.501 . S
C454 H455 0.961 . S
C454 H456 0.961 . S
C454 H457 0.960 . S
H455 C454 0.961 . S
H456 C454 0.961 . S
H457 C454 0.960 . S
C458 N459 1.342 . S
C458 C462 1.401 . S
C458 C463 1.505 . S
N459 Co442 1.989 . S
N459 C458 1.342 . S
N459 N460 1.388 . S
N460 Co443 1.993 . S
N460 N459 1.388 . S
N460 C461 1.346 . S
C461 N460 1.346 . S
C461 C462 1.396 . S
C461 C471 1.510 . S
C462 C458 1.401 . S
C462 C461 1.396 . S
C463 C458 1.505 . S
C463 H464 0.964 . S
C463 H465 0.976 . S
C463 H466 0.933 1_545 S
H464 C463 0.964 . S
H465 C463 0.976 . S
H466 C463 0.933 1_565 S
O467 Co442 1.962 1_565 S
O467 C475 1.261 . S
O468 Co443 1.941 1_565 S
O468 C475 1.266 . S
H469 C471 0.959 1_565 S
H470 C471 0.961 . S
C471 C461 1.510 . S
C471 H469 0.959 1_545 S
C471 H470 0.961 . S
C471 H472 0.960 . S
H472 C471 0.960 . S
H473 N453 0.862 1_565 S
O474 Co442 1.920 . S
O474 C447 1.289 . S
C475 O467 1.261 . S
C475 O468 1.266 . S
Co476 O479 1.970 . S
Co476 N493 1.989 . S
Co476 O501 1.967 . S
Co476 O508 1.920 . S
Co477 O480 1.966 . S
Co477 N486 2.022 . S
Co477 N494 1.993 . S
Co477 O502 1.941 . S
C478 O479 1.258 . S
C478 O480 1.263 . S
O479 Co476 1.970 . S
O479 C478 1.258 . S
O480 Co477 1.966 . S
O480 C478 1.263 . S
C481 O482 1.235 . S
C481 O508 1.289 . S
O482 C481 1.235 . S
C483 C485 1.400 . S
C483 N486 1.351 . S
C483 C488 1.501 . S
C484 C485 1.387 . S
C484 N487 1.341 . S
C485 C483 1.400 . S
C485 C484 1.387 . S
N486 Co477 2.022 . S
N486 C483 1.351 . S
N486 N487 1.365 . S
N487 C484 1.341 . S
N487 N486 1.365 . S
N487 H507 0.862 . S
C488 C483 1.501 . S
C488 H489 0.961 . S
C488 H490 0.961 . S
C488 H491 0.960 . S
H489 C488 0.961 . S
H490 C488 0.961 . S
H491 C488 0.960 . S
C492 N493 1.342 . S
C492 C496 1.401 . S
C492 C497 1.499 . S
N493 Co476 1.989 . S
N493 C492 1.342 . S
N493 N494 1.388 . S
N494 Co477 1.993 . S
N494 N493 1.388 . S
N494 C495 1.346 . S
C495 N494 1.346 . S
C495 C496 1.396 . S
C495 C505 1.510 . S
C496 C492 1.401 . S
C496 C495 1.396 . S
C497 C492 1.499 . S
C497 H498 0.959 . S
C497 H499 0.960 . S
C497 H500 0.961 . S
H498 C497 0.959 . S
H499 C497 0.960 . S
H500 C497 0.961 . S
O501 Co476 1.967 . S
O501 C509 1.258 . S
O502 Co477 1.941 . S
O502 C509 1.266 . S
H503 C505 0.959 . S
H504 C505 0.961 . S
C505 C495 1.510 . S
C505 H503 0.959 . S
C505 H504 0.961 . S
C505 H506 0.960 . S
H506 C505 0.960 . S
H507 N487 0.862 . S
O508 Co476 1.920 . S
O508 C481 1.289 . S
C509 O501 1.258 . S
C509 O502 1.266 . S
Co510 O513 1.970 . S
Co510 N527 1.989 . S
Co510 O535 1.962 1_565 S
Co510 O542 1.920 . S
Co511 O514 1.966 . S
Co511 N520 2.022 . S
Co511 N528 1.993 . S
Co511 O536 1.941 1_565 S
C512 O513 1.258 . S
C512 O514 1.263 . S
O513 Co510 1.970 . S
O513 C512 1.258 . S
O514 Co511 1.966 . S
O514 C512 1.263 . S
C515 O516 1.235 . S
C515 O542 1.289 . S
O516 C515 1.235 . S
C517 C519 1.400 1_655 S
C517 N520 1.351 . S
C517 C522 1.501 . S
C518 C519 1.387 . S
C518 N521 1.341 1_455 S
C519 C517 1.400 1_455 S
C519 C518 1.387 . S
N520 Co511 2.022 . S
N520 C517 1.351 . S
N520 N521 1.365 . S
N521 C518 1.341 1_655 S
N521 N520 1.365 . S
N521 H541 0.862 1_565 S
C522 C517 1.501 . S
C522 H523 0.961 . S
C522 H524 0.961 . S
C522 H525 0.960 . S
H523 C522 0.961 . S
H524 C522 0.961 . S
H525 C522 0.960 . S
C526 N527 1.342 . S
C526 C530 1.401 . S
C526 C531 1.505 . S
N527 Co510 1.989 . S
N527 C526 1.342 . S
N527 N528 1.388 . S
N528 Co511 1.993 . S
N528 N527 1.388 . S
N528 C529 1.346 . S
C529 N528 1.346 . S
C529 C530 1.396 . S
C529 C539 1.510 1_655 S
C530 C526 1.401 . S
C530 C529 1.396 . S
C531 C526 1.505 . S
C531 H532 0.964 . S
C531 H533 0.976 . S
C531 H534 0.933 1_565 S
H532 C531 0.964 . S
H533 C531 0.976 . S
H534 C531 0.933 1_545 S
O535 Co510 1.962 1_545 S
O535 C543 1.261 . S
O536 Co511 1.941 1_545 S
O536 C543 1.266 . S
H537 C539 0.959 1_545 S
H538 C539 0.961 . S
C539 C529 1.510 1_455 S
C539 H537 0.959 1_565 S
C539 H538 0.961 . S
C539 H540 0.960 1_455 S
H540 C539 0.960 1_655 S
H541 N521 0.862 1_545 S
O542 Co510 1.920 . S
O542 C515 1.289 . S
C543 O535 1.261 . S
C543 O536 1.266 . S
Co544 O547 1.970 . S
Co544 N561 1.989 . S
Co544 O569 1.967 . S
Co544 O576 1.920 . S
Co545 O548 1.966 . S
Co545 N554 2.022 . S
Co545 N562 1.993 . S
Co545 O570 1.941 . S
C546 O547 1.258 . S
C546 O548 1.263 . S
O547 Co544 1.970 . S
O547 C546 1.258 . S
O548 Co545 1.966 . S
O548 C546 1.263 . S
C549 O550 1.235 . S
C549 O576 1.289 . S
O550 C549 1.235 . S
C551 C553 1.400 . S
C551 N554 1.351 . S
C551 C556 1.501 . S
C552 C553 1.387 . S
C552 N555 1.341 . S
C553 C551 1.400 . S
C553 C552 1.387 . S
N554 Co545 2.022 . S
N554 C551 1.351 . S
N554 N555 1.365 . S
N555 C552 1.341 . S
N555 N554 1.365 . S
N555 H575 0.862 . S
C556 C551 1.501 . S
C556 H557 0.961 . S
C556 H558 0.961 . S
C556 H559 0.960 . S
H557 C556 0.961 . S
H558 C556 0.961 . S
H559 C556 0.960 . S
C560 N561 1.342 . S
C560 C564 1.401 . S
C560 C565 1.499 . S
N561 Co544 1.989 . S
N561 C560 1.342 . S
N561 N562 1.388 . S
N562 Co545 1.993 . S
N562 N561 1.388 . S
N562 C563 1.346 . S
C563 N562 1.346 . S
C563 C564 1.396 . S
C563 C573 1.510 . S
C564 C560 1.401 . S
C564 C563 1.396 . S
C565 C560 1.499 . S
C565 H566 0.959 . S
C565 H567 0.960 . S
C565 H568 0.961 . S
H566 C565 0.959 . S
H567 C565 0.960 . S
H568 C565 0.961 . S
O569 Co544 1.967 . S
O569 C577 1.258 . S
O570 Co545 1.941 . S
O570 C577 1.266 . S
H571 C573 0.959 . S
H572 C573 0.961 . S
C573 C563 1.510 . S
C573 H571 0.959 . S
C573 H572 0.961 . S
C573 H574 0.960 . S
H574 C573 0.960 . S
H575 N555 0.862 . S
O576 Co544 1.920 . S
O576 C549 1.289 . S
C577 O569 1.258 . S
C577 O570 1.266 . S
Co578 O581 1.970 . S
Co578 N595 1.989 . S
Co578 O603 1.967 . S
Co578 O610 1.920 . S
Co579 O582 1.966 . S
Co579 N588 2.022 . S
Co579 N596 1.993 . S
Co579 O604 1.941 . S
C580 O581 1.258 . S
C580 O582 1.263 . S
O581 Co578 1.970 . S
O581 C580 1.258 . S
O582 Co579 1.966 . S
O582 C580 1.263 . S
C583 O584 1.235 . S
C583 O610 1.289 . S
O584 C583 1.235 . S
C585 C587 1.400 . S
C585 N588 1.351 . S
C585 C590 1.501 . S
C586 C587 1.387 . S
C586 N589 1.341 . S
C587 C585 1.400 . S
C587 C586 1.387 . S
N588 Co579 2.022 . S
N588 C585 1.351 . S
N588 N589 1.365 . S
N589 C586 1.341 . S
N589 N588 1.365 . S
N589 H609 0.862 . S
C590 C585 1.501 . S
C590 H591 0.961 . S
C590 H592 0.961 . S
C590 H593 0.960 . S
H591 C590 0.961 . S
H592 C590 0.961 . S
H593 C590 0.960 . S
C594 N595 1.342 . S
C594 C598 1.401 . S
C594 C599 1.499 . S
N595 Co578 1.989 . S
N595 C594 1.342 . S
N595 N596 1.388 . S
N596 Co579 1.993 . S
N596 N595 1.388 . S
N596 C597 1.346 . S
C597 N596 1.346 . S
C597 C598 1.396 . S
C597 C607 1.510 . S
C598 C594 1.401 . S
C598 C597 1.396 . S
C599 C594 1.499 . S
C599 H600 0.959 . S
C599 H601 0.960 . S
C599 H602 0.961 . S
H600 C599 0.959 . S
H601 C599 0.960 . S
H602 C599 0.961 . S
O603 Co578 1.967 . S
O603 C611 1.258 . S
O604 Co579 1.941 . S
O604 C611 1.266 . S
H605 C607 0.959 . S
H606 C607 0.961 . S
C607 C597 1.510 . S
C607 H605 0.959 . S
C607 H606 0.961 . S
C607 H608 0.960 . S
H608 C607 0.960 . S
H609 N589 0.862 . S
O610 Co578 1.920 . S
O610 C583 1.289 . S
C611 O603 1.258 . S
C611 O604 1.266 . S
Co612 O615 1.970 . S
Co612 N629 1.989 . S
Co612 O637 1.967 . S
Co612 O644 1.920 . S
Co613 O616 1.966 . S
Co613 N622 2.022 . S
Co613 N630 1.993 . S
Co613 O638 1.941 . S
C614 O615 1.258 . S
C614 O616 1.263 . S
O615 Co612 1.970 . S
O615 C614 1.258 . S
O616 Co613 1.966 . S
O616 C614 1.263 . S
C617 O618 1.235 . S
C617 O644 1.289 . S
O618 C617 1.235 . S
C619 C621 1.400 . S
C619 N622 1.351 . S
C619 C624 1.501 . S
C620 C621 1.387 . S
C620 N623 1.341 . S
C621 C619 1.400 . S
C621 C620 1.387 . S
N622 Co613 2.022 . S
N622 C619 1.351 . S
N622 N623 1.365 . S
N623 C620 1.341 . S
N623 N622 1.365 . S
N623 H643 0.862 . S
C624 C619 1.501 . S
C624 H625 0.961 . S
C624 H626 0.961 . S
C624 H627 0.960 . S
H625 C624 0.961 . S
H626 C624 0.961 . S
H627 C624 0.960 . S
C628 N629 1.342 . S
C628 C632 1.401 . S
C628 C633 1.499 . S
N629 Co612 1.989 . S
N629 C628 1.342 . S
N629 N630 1.388 . S
N630 Co613 1.993 . S
N630 N629 1.388 . S
N630 C631 1.346 . S
C631 N630 1.346 . S
C631 C632 1.396 . S
C631 C641 1.510 . S
C632 C628 1.401 . S
C632 C631 1.396 . S
C633 C628 1.499 . S
C633 H634 0.959 . S
C633 H635 0.960 . S
C633 H636 0.961 . S
H634 C633 0.959 . S
H635 C633 0.960 . S
H636 C633 0.961 . S
O637 Co612 1.967 . S
O637 C645 1.258 . S
O638 Co613 1.941 . S
O638 C645 1.266 . S
H639 C641 0.959 . S
H640 C641 0.961 . S
C641 C631 1.510 . S
C641 H639 0.959 . S
C641 H640 0.961 . S
C641 H642 0.960 . S
H642 C641 0.960 . S
H643 N623 0.862 . S
O644 Co612 1.920 . S
O644 C617 1.289 . S
C645 O637 1.258 . S
C645 O638 1.266 . S
Co646 O649 1.970 . S
Co646 N663 1.989 . S
Co646 O671 1.967 . S
Co646 O678 1.920 . S
Co647 O650 1.966 . S
Co647 N656 2.022 . S
Co647 N664 1.993 . S
Co647 O672 1.941 . S
C648 O649 1.258 . S
C648 O650 1.263 . S
O649 Co646 1.970 . S
O649 C648 1.258 . S
O650 Co647 1.966 . S
O650 C648 1.263 . S
C651 O652 1.235 . S
C651 O678 1.289 . S
O652 C651 1.235 . S
C653 C655 1.400 1_655 S
C653 N656 1.351 . S
C653 C658 1.501 . S
C654 C655 1.387 . S
C654 N657 1.341 1_455 S
C655 C653 1.400 1_455 S
C655 C654 1.387 . S
N656 Co647 2.022 . S
N656 C653 1.351 . S
N656 N657 1.365 . S
N657 C654 1.341 1_655 S
N657 N656 1.365 . S
N657 H677 0.862 . S
C658 C653 1.501 . S
C658 H659 0.961 . S
C658 H660 0.961 . S
C658 H661 0.960 . S
H659 C658 0.961 . S
H660 C658 0.961 . S
H661 C658 0.960 . S
C662 N663 1.342 . S
C662 C666 1.401 . S
C662 C667 1.499 . S
N663 Co646 1.989 . S
N663 C662 1.342 . S
N663 N664 1.388 . S
N664 Co647 1.993 . S
N664 N663 1.388 . S
N664 C665 1.346 . S
C665 N664 1.346 . S
C665 C666 1.396 . S
C665 C675 1.510 1_655 S
C666 C662 1.401 . S
C666 C665 1.396 . S
C667 C662 1.499 . S
C667 H668 0.959 . S
C667 H669 0.960 . S
C667 H670 0.961 . S
H668 C667 0.959 . S
H669 C667 0.960 . S
H670 C667 0.961 . S
O671 Co646 1.967 . S
O671 C679 1.258 . S
O672 Co647 1.941 . S
O672 C679 1.266 . S
H673 C675 0.959 . S
H674 C675 0.961 . S
C675 C665 1.510 1_455 S
C675 H673 0.959 . S
C675 H674 0.961 . S
C675 H676 0.960 1_455 S
H676 C675 0.960 1_655 S
H677 N657 0.862 . S
O678 Co646 1.920 . S
O678 C651 1.289 . S
C679 O671 1.258 . S
C679 O672 1.266 . S
Co680 O683 1.970 . S
Co680 N697 1.989 . S
Co680 O705 1.967 . S
Co680 O712 1.920 . S
Co681 O684 1.966 . S
Co681 N690 2.022 . S
Co681 N698 1.993 . S
Co681 O706 1.941 . S
C682 O683 1.258 . S
C682 O684 1.263 . S
O683 Co680 1.970 . S
O683 C682 1.258 . S
O684 Co681 1.966 . S
O684 C682 1.263 . S
C685 O686 1.235 . S
C685 O712 1.289 . S
O686 C685 1.235 . S
C687 C689 1.400 . S
C687 N690 1.351 . S
C687 C692 1.501 . S
C688 C689 1.387 . S
C688 N691 1.341 . S
C689 C687 1.400 . S
C689 C688 1.387 . S
N690 Co681 2.022 . S
N690 C687 1.351 . S
N690 N691 1.365 . S
N691 C688 1.341 . S
N691 N690 1.365 . S
N691 H711 0.862 . S
C692 C687 1.501 . S
C692 H693 0.961 . S
C692 H694 0.961 . S
C692 H695 0.960 . S
H693 C692 0.961 . S
H694 C692 0.961 . S
H695 C692 0.960 . S
C696 N697 1.342 . S
C696 C700 1.401 . S
C696 C701 1.499 . S
N697 Co680 1.989 . S
N697 C696 1.342 . S
N697 N698 1.388 . S
N698 Co681 1.993 . S
N698 N697 1.388 . S
N698 C699 1.346 . S
C699 N698 1.346 . S
C699 C700 1.396 . S
C699 C709 1.510 . S
C700 C696 1.401 . S
C700 C699 1.396 . S
C701 C696 1.499 . S
C701 H702 0.959 . S
C701 H703 0.960 . S
C701 H704 0.961 . S
H702 C701 0.959 . S
H703 C701 0.960 . S
H704 C701 0.961 . S
O705 Co680 1.967 . S
O705 C713 1.258 . S
O706 Co681 1.941 . S
O706 C713 1.266 . S
H707 C709 0.959 . S
H708 C709 0.961 . S
C709 C699 1.510 . S
C709 H707 0.959 . S
C709 H708 0.961 . S
C709 H710 0.960 . S
H710 C709 0.960 . S
H711 N691 0.862 . S
O712 Co680 1.920 . S
O712 C685 1.289 . S
C713 O705 1.258 . S
C713 O706 1.266 . S
Co714 O717 1.970 . S
Co714 N731 1.989 . S
Co714 O739 1.967 . S
Co714 O746 1.920 . S
Co715 O718 1.966 . S
Co715 N724 2.022 . S
Co715 N732 1.993 . S
Co715 O740 1.941 . S
C716 O717 1.258 . S
C716 O718 1.263 . S
O717 Co714 1.970 . S
O717 C716 1.258 . S
O718 Co715 1.966 . S
O718 C716 1.263 . S
C719 O720 1.235 . S
C719 O746 1.289 . S
O720 C719 1.235 . S
C721 C723 1.400 1_655 S
C721 N724 1.351 . S
C721 C726 1.501 . S
C722 C723 1.387 . S
C722 N725 1.341 1_455 S
C723 C721 1.400 1_455 S
C723 C722 1.387 . S
N724 Co715 2.022 . S
N724 C721 1.351 . S
N724 N725 1.365 . S
N725 C722 1.341 1_655 S
N725 N724 1.365 . S
N725 H745 0.862 . S
C726 C721 1.501 . S
C726 H727 0.961 . S
C726 H728 0.961 . S
C726 H729 0.960 . S
H727 C726 0.961 . S
H728 C726 0.961 . S
H729 C726 0.960 . S
C730 N731 1.342 . S
C730 C734 1.401 . S
C730 C735 1.499 . S
N731 Co714 1.989 . S
N731 C730 1.342 . S
N731 N732 1.388 . S
N732 Co715 1.993 . S
N732 N731 1.388 . S
N732 C733 1.346 . S
C733 N732 1.346 . S
C733 C734 1.396 . S
C733 C743 1.510 1_655 S
C734 C730 1.401 . S
C734 C733 1.396 . S
C735 C730 1.499 . S
C735 H736 0.959 . S
C735 H737 0.960 . S
C735 H738 0.961 . S
H736 C735 0.959 . S
H737 C735 0.960 . S
H738 C735 0.961 . S
O739 Co714 1.967 . S
O739 C747 1.258 . S
O740 Co715 1.941 . S
O740 C747 1.266 . S
H741 C743 0.959 . S
H742 C743 0.961 . S
C743 C733 1.510 1_455 S
C743 H741 0.959 . S
C743 H742 0.961 . S
C743 H744 0.960 1_455 S
H744 C743 0.960 1_655 S
H745 N725 0.862 . S
O746 Co714 1.920 . S
O746 C719 1.289 . S
C747 O739 1.258 . S
C747 O740 1.266 . S
Co748 O751 1.970 . S
Co748 N765 1.989 . S
Co748 O773 1.967 . S
Co748 O780 1.920 . S
Co749 O752 1.966 . S
Co749 N758 2.022 . S
Co749 N766 1.993 . S
Co749 O774 1.941 . S
C750 O751 1.258 . S
C750 O752 1.263 . S
O751 Co748 1.970 . S
O751 C750 1.258 . S
O752 Co749 1.966 . S
O752 C750 1.263 . S
C753 O754 1.235 . S
C753 O780 1.289 . S
O754 C753 1.235 . S
C755 C757 1.400 . S
C755 N758 1.351 . S
C755 C760 1.501 . S
C756 C757 1.387 . S
C756 N759 1.341 . S
C757 C755 1.400 . S
C757 C756 1.387 . S
N758 Co749 2.022 . S
N758 C755 1.351 . S
N758 N759 1.365 . S
N759 C756 1.341 . S
N759 N758 1.365 . S
N759 H779 0.862 . S
C760 C755 1.501 . S
C760 H761 0.961 . S
C760 H762 0.961 . S
C760 H763 0.960 . S
H761 C760 0.961 . S
H762 C760 0.961 . S
H763 C760 0.960 . S
C764 N765 1.342 . S
C764 C768 1.401 . S
C764 C769 1.499 . S
N765 Co748 1.989 . S
N765 C764 1.342 . S
N765 N766 1.388 . S
N766 Co749 1.993 . S
N766 N765 1.388 . S
N766 C767 1.346 . S
C767 N766 1.346 . S
C767 C768 1.396 . S
C767 C777 1.510 . S
C768 C764 1.401 . S
C768 C767 1.396 . S
C769 C764 1.499 . S
C769 H770 0.959 . S
C769 H771 0.960 . S
C769 H772 0.961 . S
H770 C769 0.959 . S
H771 C769 0.960 . S
H772 C769 0.961 . S
O773 Co748 1.967 . S
O773 C781 1.258 . S
O774 Co749 1.941 . S
O774 C781 1.266 . S
H775 C777 0.959 . S
H776 C777 0.961 . S
C777 C767 1.510 . S
C777 H775 0.959 . S
C777 H776 0.961 . S
C777 H778 0.960 . S
H778 C777 0.960 . S
H779 N759 0.862 . S
O780 Co748 1.920 . S
O780 C753 1.289 . S
C781 O773 1.258 . S
C781 O774 1.266 . S
Co782 O785 1.970 . S
Co782 N799 1.989 . S
Co782 O807 1.967 . S
Co782 O814 1.920 . S
Co783 O786 1.966 . S
Co783 N792 2.022 . S
Co783 N800 1.993 . S
Co783 O808 1.941 . S
C784 O785 1.258 . S
C784 O786 1.263 . S
O785 Co782 1.970 . S
O785 C784 1.258 . S
O786 Co783 1.966 . S
O786 C784 1.263 . S
C787 O788 1.235 . S
C787 O814 1.289 . S
O788 C787 1.235 . S
C789 C791 1.400 . S
C789 N792 1.351 . S
C789 C794 1.501 . S
C790 C791 1.387 . S
C790 N793 1.341 . S
C791 C789 1.400 . S
C791 C790 1.387 . S
N792 Co783 2.022 . S
N792 C789 1.351 . S
N792 N793 1.365 . S
N793 C790 1.341 . S
N793 N792 1.365 . S
N793 H813 0.862 . S
C794 C789 1.501 . S
C794 H795 0.961 . S
C794 H796 0.961 . S
C794 H797 0.960 . S
H795 C794 0.961 . S
H796 C794 0.961 . S
H797 C794 0.960 . S
C798 N799 1.342 . S
C798 C802 1.401 . S
C798 C803 1.499 . S
N799 Co782 1.989 . S
N799 C798 1.342 . S
N799 N800 1.388 . S
N800 Co783 1.993 . S
N800 N799 1.388 . S
N800 C801 1.346 . S
C801 N800 1.346 . S
C801 C802 1.396 . S
C801 C811 1.510 . S
C802 C798 1.401 . S
C802 C801 1.396 . S
C803 C798 1.499 . S
C803 H804 0.959 . S
C803 H805 0.960 . S
C803 H806 0.961 . S
H804 C803 0.959 . S
H805 C803 0.960 . S
H806 C803 0.961 . S
O807 Co782 1.967 . S
O807 C815 1.258 . S
O808 Co783 1.941 . S
O808 C815 1.266 . S
H809 C811 0.959 . S
H810 C811 0.961 . S
C811 C801 1.510 . S
C811 H809 0.959 . S
C811 H810 0.961 . S
C811 H812 0.960 . S
H812 C811 0.960 . S
H813 N793 0.862 . S
O814 Co782 1.920 . S
O814 C787 1.289 . S
C815 O807 1.258 . S
C815 O808 1.266 . S
Co816 O819 1.970 . S
Co816 N833 1.989 . S
Co816 O841 1.967 . S
Co816 O848 1.920 . S
Co817 O820 1.966 . S
Co817 N826 2.022 . S
Co817 N834 1.993 . S
Co817 O842 1.941 . S
C818 O819 1.258 . S
C818 O820 1.263 . S
O819 Co816 1.970 . S
O819 C818 1.258 . S
O820 Co817 1.966 . S
O820 C818 1.263 . S
C821 O822 1.235 . S
C821 O848 1.289 . S
O822 C821 1.235 . S
C823 C825 1.400 . S
C823 N826 1.351 . S
C823 C828 1.501 . S
C824 C825 1.387 . S
C824 N827 1.341 . S
C825 C823 1.400 . S
C825 C824 1.387 . S
N826 Co817 2.022 . S
N826 C823 1.351 . S
N826 N827 1.365 . S
N827 C824 1.341 . S
N827 N826 1.365 . S
N827 H847 0.862 . S
C828 C823 1.501 . S
C828 H829 0.961 . S
C828 H830 0.961 . S
C828 H831 0.960 . S
H829 C828 0.961 . S
H830 C828 0.961 . S
H831 C828 0.960 . S
C832 N833 1.342 . S
C832 C836 1.401 . S
C832 C837 1.499 . S
N833 Co816 1.989 . S
N833 C832 1.342 . S
N833 N834 1.388 . S
N834 Co817 1.993 . S
N834 N833 1.388 . S
N834 C835 1.346 . S
C835 N834 1.346 . S
C835 C836 1.396 . S
C835 C845 1.510 . S
C836 C832 1.401 . S
C836 C835 1.396 . S
C837 C832 1.499 . S
C837 H838 0.959 . S
C837 H839 0.960 . S
C837 H840 0.961 . S
H838 C837 0.959 . S
H839 C837 0.960 . S
H840 C837 0.961 . S
O841 Co816 1.967 . S
O841 C849 1.258 . S
O842 Co817 1.941 . S
O842 C849 1.266 . S
H843 C845 0.959 . S
H844 C845 0.961 . S
C845 C835 1.510 . S
C845 H843 0.959 . S
C845 H844 0.961 . S
C845 H846 0.960 . S
H846 C845 0.960 . S
H847 N827 0.862 . S
O848 Co816 1.920 . S
O848 C821 1.289 . S
C849 O841 1.258 . S
C849 O842 1.266 . S
Co850 O853 1.970 . S
Co850 N867 1.989 . S
Co850 O875 1.967 . S
Co850 O882 1.920 . S
Co851 O854 1.966 . S
Co851 N860 2.022 . S
Co851 N868 1.993 . S
Co851 O876 1.941 . S
C852 O853 1.258 . S
C852 O854 1.263 . S
O853 Co850 1.970 . S
O853 C852 1.258 . S
O854 Co851 1.966 . S
O854 C852 1.263 . S
C855 O856 1.235 . S
C855 O882 1.289 . S
O856 C855 1.235 . S
C857 C859 1.400 . S
C857 N860 1.351 . S
C857 C862 1.501 . S
C858 C859 1.387 . S
C858 N861 1.341 . S
C859 C857 1.400 . S
C859 C858 1.387 . S
N860 Co851 2.022 . S
N860 C857 1.351 . S
N860 N861 1.365 . S
N861 C858 1.341 . S
N861 N860 1.365 . S
N861 H881 0.862 . S
C862 C857 1.501 . S
C862 H863 0.961 . S
C862 H864 0.961 . S
C862 H865 0.960 . S
H863 C862 0.961 . S
H864 C862 0.961 . S
H865 C862 0.960 . S
C866 N867 1.342 . S
C866 C870 1.401 . S
C866 C871 1.499 . S
N867 Co850 1.989 . S
N867 C866 1.342 . S
N867 N868 1.388 . S
N868 Co851 1.993 . S
N868 N867 1.388 . S
N868 C869 1.346 . S
C869 N868 1.346 . S
C869 C870 1.396 . S
C869 C879 1.510 . S
C870 C866 1.401 . S
C870 C869 1.396 . S
C871 C866 1.499 . S
C871 H872 0.959 . S
C871 H873 0.960 . S
C871 H874 0.961 . S
H872 C871 0.959 . S
H873 C871 0.960 . S
H874 C871 0.961 . S
O875 Co850 1.967 . S
O875 C883 1.258 . S
O876 Co851 1.941 . S
O876 C883 1.266 . S
H877 C879 0.959 . S
H878 C879 0.961 . S
C879 C869 1.510 . S
C879 H877 0.959 . S
C879 H878 0.961 . S
C879 H880 0.960 . S
H880 C879 0.960 . S
H881 N861 0.862 . S
O882 Co850 1.920 . S
O882 C855 1.289 . S
C883 O875 1.258 . S
C883 O876 1.266 . S
Co884 O887 1.970 . S
Co884 N901 1.989 . S
Co884 O909 1.967 . S
Co884 O916 1.920 . S
Co885 O888 1.966 . S
Co885 N894 2.022 . S
Co885 N902 1.993 . S
Co885 O910 1.941 . S
C886 O887 1.258 . S
C886 O888 1.263 . S
O887 Co884 1.970 . S
O887 C886 1.258 . S
O888 Co885 1.966 . S
O888 C886 1.263 . S
C889 O890 1.235 . S
C889 O916 1.289 . S
O890 C889 1.235 . S
C891 C893 1.400 . S
C891 N894 1.351 . S
C891 C896 1.501 . S
C892 C893 1.387 . S
C892 N895 1.341 . S
C893 C891 1.400 . S
C893 C892 1.387 . S
N894 Co885 2.022 . S
N894 C891 1.351 . S
N894 N895 1.365 . S
N895 C892 1.341 . S
N895 N894 1.365 . S
N895 H915 0.862 . S
C896 C891 1.501 . S
C896 H897 0.961 . S
C896 H898 0.961 . S
C896 H899 0.960 . S
H897 C896 0.961 . S
H898 C896 0.961 . S
H899 C896 0.960 . S
C900 N901 1.342 . S
C900 C904 1.401 . S
C900 C905 1.499 . S
N901 Co884 1.989 . S
N901 C900 1.342 . S
N901 N902 1.388 . S
N902 Co885 1.993 . S
N902 N901 1.388 . S
N902 C903 1.346 . S
C903 N902 1.346 . S
C903 C904 1.396 . S
C903 C913 1.510 . S
C904 C900 1.401 . S
C904 C903 1.396 . S
C905 C900 1.499 . S
C905 H906 0.959 . S
C905 H907 0.960 . S
C905 H908 0.961 . S
H906 C905 0.959 . S
H907 C905 0.960 . S
H908 C905 0.961 . S
O909 Co884 1.967 . S
O909 C917 1.258 . S
O910 Co885 1.941 . S
O910 C917 1.266 . S
H911 C913 0.959 . S
H912 C913 0.961 . S
C913 C903 1.510 . S
C913 H911 0.959 . S
C913 H912 0.961 . S
C913 H914 0.960 . S
H914 C913 0.960 . S
H915 N895 0.862 . S
O916 Co884 1.920 . S
O916 C889 1.289 . S
C917 O909 1.258 . S
C917 O910 1.266 . S
Co918 O921 1.970 . S
Co918 N935 1.989 . S
Co918 O943 1.967 . S
Co918 O950 1.920 . S
Co919 O922 1.966 . S
Co919 N928 2.022 . S
Co919 N936 1.993 . S
Co919 O944 1.941 . S
C920 O921 1.258 . S
C920 O922 1.263 . S
O921 Co918 1.970 . S
O921 C920 1.258 . S
O922 Co919 1.966 . S
O922 C920 1.263 . S
C923 O924 1.235 . S
C923 O950 1.289 . S
O924 C923 1.235 . S
C925 C927 1.400 1_455 S
C925 N928 1.351 . S
C925 C930 1.501 . S
C926 C927 1.387 . S
C926 N929 1.341 1_655 S
C927 C925 1.400 1_655 S
C927 C926 1.387 . S
N928 Co919 2.022 . S
N928 C925 1.351 . S
N928 N929 1.365 . S
N929 C926 1.341 1_455 S
N929 N928 1.365 . S
N929 H949 0.862 . S
C930 C925 1.501 . S
C930 H931 0.961 . S
C930 H932 0.961 . S
C930 H933 0.960 . S
H931 C930 0.961 . S
H932 C930 0.961 . S
H933 C930 0.960 . S
C934 N935 1.342 . S
C934 C938 1.401 . S
C934 C939 1.499 . S
N935 Co918 1.989 . S
N935 C934 1.342 . S
N935 N936 1.388 . S
N936 Co919 1.993 . S
N936 N935 1.388 . S
N936 C937 1.346 . S
C937 N936 1.346 . S
C937 C938 1.396 . S
C937 C947 1.510 1_455 S
C938 C934 1.401 . S
C938 C937 1.396 . S
C939 C934 1.499 . S
C939 H940 0.959 . S
C939 H941 0.960 . S
C939 H942 0.961 . S
H940 C939 0.959 . S
H941 C939 0.960 . S
H942 C939 0.961 . S
O943 Co918 1.967 . S
O943 C951 1.258 . S
O944 Co919 1.941 . S
O944 C951 1.266 . S
H945 C947 0.959 . S
H946 C947 0.961 . S
C947 C937 1.510 1_655 S
C947 H945 0.959 . S
C947 H946 0.961 . S
C947 H948 0.960 1_655 S
H948 C947 0.960 1_455 S
H949 N929 0.862 . S
O950 Co918 1.920 . S
O950 C923 1.289 . S
C951 O943 1.258 . S
C951 O944 1.266 . S
Co952 O955 1.970 . S
Co952 N969 1.989 . S
Co952 O977 1.967 . S
Co952 O984 1.920 . S
Co953 O956 1.966 . S
Co953 N962 2.022 . S
Co953 N970 1.993 . S
Co953 O978 1.941 . S
C954 O955 1.258 . S
C954 O956 1.263 . S
O955 Co952 1.970 . S
O955 C954 1.258 . S
O956 Co953 1.966 . S
O956 C954 1.263 . S
C957 O958 1.235 . S
C957 O984 1.289 . S
O958 C957 1.235 . S
C959 C961 1.400 . S
C959 N962 1.351 . S
C959 C964 1.501 . S
C960 C961 1.387 . S
C960 N963 1.341 . S
C961 C959 1.400 . S
C961 C960 1.387 . S
N962 Co953 2.022 . S
N962 C959 1.351 . S
N962 N963 1.365 . S
N963 C960 1.341 . S
N963 N962 1.365 . S
N963 H983 0.862 . S
C964 C959 1.501 . S
C964 H965 0.961 . S
C964 H966 0.961 . S
C964 H967 0.960 . S
H965 C964 0.961 . S
H966 C964 0.961 . S
H967 C964 0.960 . S
C968 N969 1.342 . S
C968 C972 1.401 . S
C968 C973 1.499 . S
N969 Co952 1.989 . S
N969 C968 1.342 . S
N969 N970 1.388 . S
N970 Co953 1.993 . S
N970 N969 1.388 . S
N970 C971 1.346 . S
C971 N970 1.346 . S
C971 C972 1.396 . S
C971 C981 1.510 . S
C972 C968 1.401 . S
C972 C971 1.396 . S
C973 C968 1.499 . S
C973 H974 0.959 . S
C973 H975 0.960 . S
C973 H976 0.961 . S
H974 C973 0.959 . S
H975 C973 0.960 . S
H976 C973 0.961 . S
O977 Co952 1.967 . S
O977 C985 1.258 . S
O978 Co953 1.941 . S
O978 C985 1.266 . S
H979 C981 0.959 . S
H980 C981 0.961 . S
C981 C971 1.510 . S
C981 H979 0.959 . S
C981 H980 0.961 . S
C981 H982 0.960 . S
H982 C981 0.960 . S
H983 N963 0.862 . S
O984 Co952 1.920 . S
O984 C957 1.289 . S
C985 O977 1.258 . S
C985 O978 1.266 . S
Co986 O989 1.970 . S
Co986 N1003 1.989 . S
Co986 O1011 1.967 . S
Co986 O1018 1.920 . S
Co987 O990 1.966 . S
Co987 N996 2.022 . S
Co987 N1004 1.993 . S
Co987 O1012 1.941 . S
C988 O989 1.258 . S
C988 O990 1.263 . S
O989 Co986 1.970 . S
O989 C988 1.258 . S
O990 Co987 1.966 . S
O990 C988 1.263 . S
C991 O992 1.235 . S
C991 O1018 1.289 . S
O992 C991 1.235 . S
C993 C995 1.400 1_455 S
C993 N996 1.351 . S
C993 C998 1.501 . S
C994 C995 1.387 . S
C994 N997 1.341 1_655 S
C995 C993 1.400 1_655 S
C995 C994 1.387 . S
N996 Co987 2.022 . S
N996 C993 1.351 . S
N996 N997 1.365 . S
N997 C994 1.341 1_455 S
N997 N996 1.365 . S
N997 H1017 0.862 . S
C998 C993 1.501 . S
C998 H999 0.961 . S
C998 H1000 0.961 . S
C998 H1001 0.960 . S
H999 C998 0.961 . S
H1000 C998 0.961 . S
H1001 C998 0.960 . S
C1002 N1003 1.342 . S
C1002 C1006 1.401 . S
C1002 C1007 1.499 . S
N1003 Co986 1.989 . S
N1003 C1002 1.342 . S
N1003 N1004 1.388 . S
N1004 Co987 1.993 . S
N1004 N1003 1.388 . S
N1004 C1005 1.346 . S
C1005 N1004 1.346 . S
C1005 C1006 1.396 . S
C1005 C1015 1.510 1_455 S
C1006 C1002 1.401 . S
C1006 C1005 1.396 . S
C1007 C1002 1.499 . S
C1007 H1008 0.959 . S
C1007 H1009 0.960 . S
C1007 H1010 0.961 . S
H1008 C1007 0.959 . S
H1009 C1007 0.960 . S
H1010 C1007 0.961 . S
O1011 Co986 1.967 . S
O1011 C1019 1.258 . S
O1012 Co987 1.941 . S
O1012 C1019 1.266 . S
H1013 C1015 0.959 . S
H1014 C1015 0.961 . S
C1015 C1005 1.510 1_655 S
C1015 H1013 0.959 . S
C1015 H1014 0.961 . S
C1015 H1016 0.960 1_655 S
H1016 C1015 0.960 1_455 S
H1017 N997 0.862 . S
O1018 Co986 1.920 . S
O1018 C991 1.289 . S
C1019 O1011 1.258 . S
C1019 O1012 1.266 . S
Co1020 O1023 1.970 . S
Co1020 N1037 1.989 . S
Co1020 O1045 1.967 . S
Co1020 O1052 1.920 . S
Co1021 O1024 1.966 . S
Co1021 N1030 2.022 . S
Co1021 N1038 1.993 . S
Co1021 O1046 1.941 . S
C1022 O1023 1.258 . S
C1022 O1024 1.263 . S
O1023 Co1020 1.970 . S
O1023 C1022 1.258 . S
O1024 Co1021 1.966 . S
O1024 C1022 1.263 . S
C1025 O1026 1.235 . S
C1025 O1052 1.289 . S
O1026 C1025 1.235 . S
C1027 C1029 1.400 . S
C1027 N1030 1.351 . S
C1027 C1032 1.501 . S
C1028 C1029 1.387 . S
C1028 N1031 1.341 . S
C1029 C1027 1.400 . S
C1029 C1028 1.387 . S
N1030 Co1021 2.022 . S
N1030 C1027 1.351 . S
N1030 N1031 1.365 . S
N1031 C1028 1.341 . S
N1031 N1030 1.365 . S
N1031 H1051 0.862 . S
C1032 C1027 1.501 . S
C1032 H1033 0.961 . S
C1032 H1034 0.961 . S
C1032 H1035 0.960 . S
H1033 C1032 0.961 . S
H1034 C1032 0.961 . S
H1035 C1032 0.960 . S
C1036 N1037 1.342 . S
C1036 C1040 1.401 . S
C1036 C1041 1.499 . S
N1037 Co1020 1.989 . S
N1037 C1036 1.342 . S
N1037 N1038 1.388 . S
N1038 Co1021 1.993 . S
N1038 N1037 1.388 . S
N1038 C1039 1.346 . S
C1039 N1038 1.346 . S
C1039 C1040 1.396 . S
C1039 C1049 1.510 . S
C1040 C1036 1.401 . S
C1040 C1039 1.396 . S
C1041 C1036 1.499 . S
C1041 H1042 0.959 . S
C1041 H1043 0.960 . S
C1041 H1044 0.961 . S
H1042 C1041 0.959 . S
H1043 C1041 0.960 . S
H1044 C1041 0.961 . S
O1045 Co1020 1.967 . S
O1045 C1053 1.258 . S
O1046 Co1021 1.941 . S
O1046 C1053 1.266 . S
H1047 C1049 0.959 . S
H1048 C1049 0.961 . S
C1049 C1039 1.510 . S
C1049 H1047 0.959 . S
C1049 H1048 0.961 . S
C1049 H1050 0.960 . S
H1050 C1049 0.960 . S
H1051 N1031 0.862 . S
O1052 Co1020 1.920 . S
O1052 C1025 1.289 . S
C1053 O1045 1.258 . S
C1053 O1046 1.266 . S
Co1054 O1057 1.970 . S
Co1054 N1071 1.989 . S
Co1054 O1079 1.967 . S
Co1054 O1086 1.920 . S
Co1055 O1058 1.966 . S
Co1055 N1064 2.022 . S
Co1055 N1072 1.993 . S
Co1055 O1080 1.941 . S
C1056 O1057 1.258 . S
C1056 O1058 1.263 . S
O1057 Co1054 1.970 . S
O1057 C1056 1.258 . S
O1058 Co1055 1.966 . S
O1058 C1056 1.263 . S
C1059 O1060 1.235 . S
C1059 O1086 1.289 . S
O1060 C1059 1.235 . S
C1061 C1063 1.400 . S
C1061 N1064 1.351 . S
C1061 C1066 1.501 . S
C1062 C1063 1.387 . S
C1062 N1065 1.341 . S
C1063 C1061 1.400 . S
C1063 C1062 1.387 . S
N1064 Co1055 2.022 . S
N1064 C1061 1.351 . S
N1064 N1065 1.365 . S
N1065 C1062 1.341 . S
N1065 N1064 1.365 . S
N1065 H1085 0.862 . S
C1066 C1061 1.501 . S
C1066 H1067 0.961 . S
C1066 H1068 0.961 . S
C1066 H1069 0.960 . S
H1067 C1066 0.961 . S
H1068 C1066 0.961 . S
H1069 C1066 0.960 . S
C1070 N1071 1.342 . S
C1070 C1074 1.401 . S
C1070 C1075 1.499 . S
N1071 Co1054 1.989 . S
N1071 C1070 1.342 . S
N1071 N1072 1.388 . S
N1072 Co1055 1.993 . S
N1072 N1071 1.388 . S
N1072 C1073 1.346 . S
C1073 N1072 1.346 . S
C1073 C1074 1.396 . S
C1073 C1083 1.510 . S
C1074 C1070 1.401 . S
C1074 C1073 1.396 . S
C1075 C1070 1.499 . S
C1075 H1076 0.959 . S
C1075 H1077 0.960 . S
C1075 H1078 0.961 . S
H1076 C1075 0.959 . S
H1077 C1075 0.960 . S
H1078 C1075 0.961 . S
O1079 Co1054 1.967 . S
O1079 C1087 1.258 . S
O1080 Co1055 1.941 . S
O1080 C1087 1.266 . S
H1081 C1083 0.959 . S
H1082 C1083 0.961 . S
C1083 C1073 1.510 . S
C1083 H1081 0.959 . S
C1083 H1082 0.961 . S
C1083 H1084 0.960 . S
H1084 C1083 0.960 . S
H1085 N1065 0.862 . S
O1086 Co1054 1.920 . S
O1086 C1059 1.289 . S
C1087 O1079 1.258 . S
C1087 O1080 1.266 . S
C1088 C1089 1.387 . S
C1088 H1092 0.950 . S
C1088 C1097 1.390 . S
C1089 C1088 1.387 . S
C1089 C1091 1.387 . S
H1090 C1097 0.950 . S
C1091 C1089 1.387 . S
C1091 C1093 1.390 . S
C1091 H1095 0.950 . S
H1092 C1088 0.950 . S
C1093 C1091 1.390 . S
C1093 C1094 1.387 . S
C1093 H1096 0.950 . S
C1094 C1093 1.387 . S
C1094 C1097 1.387 . S
H1095 C1091 0.950 . S
H1096 C1093 0.950 . S
C1097 C1088 1.390 . S
C1097 H1090 0.950 . S
C1097 C1094 1.387 . S
C1098 C1099 1.387 . S
C1098 H1102 0.950 . S
C1098 C1107 1.390 . S
C1099 C1098 1.387 . S
C1099 C1101 1.387 . S
H1100 C1107 0.950 . S
C1101 C1099 1.387 . S
C1101 C1103 1.390 . S
C1101 H1105 0.950 . S
H1102 C1098 0.950 . S
C1103 C1101 1.390 . S
C1103 C1104 1.387 . S
C1103 H1106 0.950 . S
C1104 C1103 1.387 . S
C1104 C1107 1.387 . S
H1105 C1101 0.950 . S
H1106 C1103 0.950 . S
C1107 C1098 1.390 . S
C1107 H1100 0.950 . S
C1107 C1104 1.387 . S
C1108 C1109 1.387 . S
C1108 H1112 0.950 . S
C1108 C1117 1.390 . S
C1109 C1108 1.387 . S
C1109 C1111 1.387 . S
H1110 C1117 0.950 . S
C1111 C1109 1.387 . S
C1111 C1113 1.390 . S
C1111 H1115 0.950 . S
H1112 C1108 0.950 . S
C1113 C1111 1.390 . S
C1113 C1114 1.387 . S
C1113 H1116 0.950 . S
C1114 C1113 1.387 . S
C1114 C1117 1.387 . S
H1115 C1111 0.950 . S
H1116 C1113 0.950 . S
C1117 C1108 1.390 . S
C1117 H1110 0.950 . S
C1117 C1114 1.387 . S
C1118 C1119 1.387 . S
C1118 H1122 0.950 . S
C1118 C1127 1.390 . S
C1119 C1118 1.387 . S
C1119 C1121 1.387 . S
H1120 C1127 0.950 . S
C1121 C1119 1.387 . S
C1121 C1123 1.390 . S
C1121 H1125 0.950 . S
H1122 C1118 0.950 . S
C1123 C1121 1.390 . S
C1123 C1124 1.387 . S
C1123 H1126 0.950 . S
C1124 C1123 1.387 . S
C1124 C1127 1.387 . S
H1125 C1121 0.950 . S
H1126 C1123 0.950 . S
C1127 C1118 1.390 . S
C1127 H1120 0.950 . S
C1127 C1124 1.387 . S
C1128 C1129 1.387 . S
C1128 H1132 0.950 . S
C1128 C1137 1.390 . S
C1129 C1128 1.387 . S
C1129 C1131 1.387 . S
H1130 C1137 0.950 . S
C1131 C1129 1.387 . S
C1131 C1133 1.390 . S
C1131 H1135 0.950 . S
H1132 C1128 0.950 . S
C1133 C1131 1.390 . S
C1133 C1134 1.387 . S
C1133 H1136 0.950 . S
C1134 C1133 1.387 . S
C1134 C1137 1.387 . S
H1135 C1131 0.950 . S
H1136 C1133 0.950 . S
C1137 C1128 1.390 . S
C1137 H1130 0.950 . S
C1137 C1134 1.387 . S
C1138 C1139 1.387 . S
C1138 H1142 0.950 . S
C1138 C1147 1.390 . S
C1139 C1138 1.387 . S
C1139 C1141 1.387 . S
H1140 C1147 0.950 . S
C1141 C1139 1.387 . S
C1141 C1143 1.390 . S
C1141 H1145 0.950 . S
H1142 C1138 0.950 . S
C1143 C1141 1.390 . S
C1143 C1144 1.387 . S
C1143 H1146 0.950 . S
C1144 C1143 1.387 . S
C1144 C1147 1.387 . S
H1145 C1141 0.950 . S
H1146 C1143 0.950 . S
C1147 C1138 1.390 . S
C1147 H1140 0.950 . S
C1147 C1144 1.387 . S
C1148 C1149 1.387 . S
C1148 H1152 0.950 . S
C1148 C1157 1.390 . S
C1149 C1148 1.387 . S
C1149 C1151 1.387 . S
H1150 C1157 0.950 . S
C1151 C1149 1.387 . S
C1151 C1153 1.390 . S
C1151 H1155 0.950 . S
H1152 C1148 0.950 . S
C1153 C1151 1.390 . S
C1153 C1154 1.387 . S
C1153 H1156 0.950 . S
C1154 C1153 1.387 . S
C1154 C1157 1.387 . S
H1155 C1151 0.950 . S
H1156 C1153 0.950 . S
C1157 C1148 1.390 . S
C1157 H1150 0.950 . S
C1157 C1154 1.387 . S
C1158 C1159 1.387 . S
C1158 H1162 0.950 . S
C1158 C1167 1.390 . S
C1159 C1158 1.387 . S
C1159 C1161 1.387 . S
H1160 C1167 0.950 . S
C1161 C1159 1.387 . S
C1161 C1163 1.390 . S
C1161 H1165 0.950 . S
H1162 C1158 0.950 . S
C1163 C1161 1.390 . S
C1163 C1164 1.387 . S
C1163 H1166 0.950 . S
C1164 C1163 1.387 . S
C1164 C1167 1.387 . S
H1165 C1161 0.950 . S
H1166 C1163 0.950 . S
C1167 C1158 1.390 . S
C1167 H1160 0.950 . S
C1167 C1164 1.387 . S
C1168 C1169 1.387 . S
C1168 H1172 0.950 . S
C1168 C1177 1.390 . S
C1169 C1168 1.387 . S
C1169 C1171 1.387 . S
H1170 C1177 0.950 . S
C1171 C1169 1.387 . S
C1171 C1173 1.390 . S
C1171 H1175 0.950 . S
H1172 C1168 0.950 . S
C1173 C1171 1.390 . S
C1173 C1174 1.387 . S
C1173 H1176 0.950 . S
C1174 C1173 1.387 . S
C1174 C1177 1.387 . S
H1175 C1171 0.950 . S
H1176 C1173 0.950 . S
C1177 C1168 1.390 . S
C1177 H1170 0.950 . S
C1177 C1174 1.387 . S
C1178 C1179 1.387 . S
C1178 H1182 0.950 . S
C1178 C1187 1.390 . S
C1179 C1178 1.387 . S
C1179 C1181 1.387 . S
H1180 C1187 0.950 . S
C1181 C1179 1.387 . S
C1181 C1183 1.390 . S
C1181 H1185 0.950 . S
H1182 C1178 0.950 . S
C1183 C1181 1.390 . S
C1183 C1184 1.387 . S
C1183 H1186 0.950 . S
C1184 C1183 1.387 . S
C1184 C1187 1.387 . S
H1185 C1181 0.950 . S
H1186 C1183 0.950 . S
C1187 C1178 1.390 . S
C1187 H1180 0.950 . S
C1187 C1184 1.387 . S
C1188 C1189 1.387 . S
C1188 H1192 0.950 . S
C1188 C1197 1.390 . S
C1189 C1188 1.387 . S
C1189 C1191 1.387 . S
H1190 C1197 0.950 . S
C1191 C1189 1.387 . S
C1191 C1193 1.390 . S
C1191 H1195 0.950 . S
H1192 C1188 0.950 . S
C1193 C1191 1.390 . S
C1193 C1194 1.387 . S
C1193 H1196 0.950 . S
C1194 C1193 1.387 . S
C1194 C1197 1.387 . S
H1195 C1191 0.950 . S
H1196 C1193 0.950 . S
C1197 C1188 1.390 . S
C1197 H1190 0.950 . S
C1197 C1194 1.387 . S
C1198 C1199 1.387 . S
C1198 H1202 0.950 . S
C1198 C1207 1.390 . S
C1199 C1198 1.387 . S
C1199 C1201 1.387 . S
H1200 C1207 0.950 . S
C1201 C1199 1.387 . S
C1201 C1203 1.390 . S
C1201 H1205 0.950 . S
H1202 C1198 0.950 . S
C1203 C1201 1.390 . S
C1203 C1204 1.387 . S
C1203 H1206 0.950 . S
C1204 C1203 1.387 . S
C1204 C1207 1.387 . S
H1205 C1201 0.950 . S
H1206 C1203 0.950 . S
C1207 C1198 1.390 . S
C1207 H1200 0.950 . S
C1207 C1204 1.387 . S
C1208 C1209 1.387 . S
C1208 H1212 0.950 . S
C1208 C1217 1.390 . S
C1209 C1208 1.387 . S
C1209 C1211 1.387 . S
H1210 C1217 0.950 . S
C1211 C1209 1.387 . S
C1211 C1213 1.390 . S
C1211 H1215 0.950 . S
H1212 C1208 0.950 . S
C1213 C1211 1.390 . S
C1213 C1214 1.387 . S
C1213 H1216 0.950 . S
C1214 C1213 1.387 . S
C1214 C1217 1.387 . S
H1215 C1211 0.950 . S
H1216 C1213 0.950 . S
C1217 C1208 1.390 . S
C1217 H1210 0.950 . S
C1217 C1214 1.387 . S
C1218 C1219 1.387 . S
C1218 H1222 0.950 . S
C1218 C1227 1.390 . S
C1219 C1218 1.387 . S
C1219 C1221 1.387 . S
H1220 C1227 0.950 . S
C1221 C1219 1.387 . S
C1221 C1223 1.390 . S
C1221 H1225 0.950 . S
H1222 C1218 0.950 . S
C1223 C1221 1.390 . S
C1223 C1224 1.387 . S
C1223 H1226 0.950 . S
C1224 C1223 1.387 . S
C1224 C1227 1.387 . S
H1225 C1221 0.950 . S
H1226 C1223 0.950 . S
C1227 C1218 1.390 . S
C1227 H1220 0.950 . S
C1227 C1224 1.387 . S
C1228 C1229 1.387 . S
C1228 H1232 0.950 . S
C1228 C1237 1.390 . S
C1229 C1228 1.387 . S
C1229 C1231 1.387 . S
H1230 C1237 0.950 . S
C1231 C1229 1.387 . S
C1231 C1233 1.390 . S
C1231 H1235 0.950 . S
H1232 C1228 0.950 . S
C1233 C1231 1.390 . S
C1233 C1234 1.387 . S
C1233 H1236 0.950 . S
C1234 C1233 1.387 . S
C1234 C1237 1.387 . S
H1235 C1231 0.950 . S
H1236 C1233 0.950 . S
C1237 C1228 1.390 . S
C1237 H1230 0.950 . S
C1237 C1234 1.387 . S
C1238 C1239 1.387 . S
C1238 H1242 0.950 . S
C1238 C1247 1.390 . S
C1239 C1238 1.387 . S
C1239 C1241 1.387 . S
H1240 C1247 0.950 . S
C1241 C1239 1.387 . S
C1241 C1243 1.390 . S
C1241 H1245 0.950 . S
H1242 C1238 0.950 . S
C1243 C1241 1.390 . S
C1243 C1244 1.387 . S
C1243 H1246 0.950 . S
C1244 C1243 1.387 . S
C1244 C1247 1.387 . S
H1245 C1241 0.950 . S
H1246 C1243 0.950 . S
C1247 C1238 1.390 . S
C1247 H1240 0.950 . S
C1247 C1244 1.387 . S
C1248 C1249 1.387 . S
C1248 H1252 0.950 . S
C1248 C1257 1.390 . S
C1249 C1248 1.387 . S
C1249 C1251 1.387 . S
H1250 C1257 0.950 . S
C1251 C1249 1.387 . S
C1251 C1253 1.390 . S
C1251 H1255 0.950 . S
H1252 C1248 0.950 . S
C1253 C1251 1.390 . S
C1253 C1254 1.387 . S
C1253 H1256 0.950 . S
C1254 C1253 1.387 . S
C1254 C1257 1.387 . S
H1255 C1251 0.950 . S
H1256 C1253 0.950 . S
C1257 C1248 1.390 . S
C1257 H1250 0.950 . S
C1257 C1254 1.387 . S
C1258 C1259 1.387 . S
C1258 H1262 0.950 . S
C1258 C1267 1.390 . S
C1259 C1258 1.387 . S
C1259 C1261 1.387 . S
H1260 C1267 0.950 . S
C1261 C1259 1.387 . S
C1261 C1263 1.390 . S
C1261 H1265 0.950 . S
H1262 C1258 0.950 . S
C1263 C1261 1.390 . S
C1263 C1264 1.387 . S
C1263 H1266 0.950 . S
C1264 C1263 1.387 . S
C1264 C1267 1.387 . S
H1265 C1261 0.950 . S
H1266 C1263 0.950 . S
C1267 C1258 1.390 . S
C1267 H1260 0.950 . S
C1267 C1264 1.387 . S
C1268 C1269 1.387 . S
C1268 H1272 0.950 . S
C1268 C1277 1.390 . S
C1269 C1268 1.387 . S
C1269 C1271 1.387 . S
H1270 C1277 0.950 . S
C1271 C1269 1.387 . S
C1271 C1273 1.390 . S
C1271 H1275 0.950 . S
H1272 C1268 0.950 . S
C1273 C1271 1.390 . S
C1273 C1274 1.387 . S
C1273 H1276 0.950 . S
C1274 C1273 1.387 . S
C1274 C1277 1.387 . S
H1275 C1271 0.950 . S
H1276 C1273 0.950 . S
C1277 C1268 1.390 . S
C1277 H1270 0.950 . S
C1277 C1274 1.387 . S
C1278 C1279 1.387 . S
C1278 H1282 0.950 . S
C1278 C1287 1.390 . S
C1279 C1278 1.387 . S
C1279 C1281 1.387 . S
H1280 C1287 0.950 . S
C1281 C1279 1.387 . S
C1281 C1283 1.390 . S
C1281 H1285 0.950 . S
H1282 C1278 0.950 . S
C1283 C1281 1.390 . S
C1283 C1284 1.387 . S
C1283 H1286 0.950 . S
C1284 C1283 1.387 . S
C1284 C1287 1.387 . S
H1285 C1281 0.950 . S
H1286 C1283 0.950 . S
C1287 C1278 1.390 . S
C1287 H1280 0.950 . S
C1287 C1284 1.387 . S
C1288 C1289 1.387 . S
C1288 H1292 0.950 . S
C1288 C1297 1.390 . S
C1289 C1288 1.387 . S
C1289 C1291 1.387 . S
H1290 C1297 0.950 . S
C1291 C1289 1.387 . S
C1291 C1293 1.390 . S
C1291 H1295 0.950 . S
H1292 C1288 0.950 . S
C1293 C1291 1.390 . S
C1293 C1294 1.387 . S
C1293 H1296 0.950 . S
C1294 C1293 1.387 . S
C1294 C1297 1.387 . S
H1295 C1291 0.950 . S
H1296 C1293 0.950 . S
C1297 C1288 1.390 . S
C1297 H1290 0.950 . S
C1297 C1294 1.387 . S
C1298 C1299 1.387 . S
C1298 H1302 0.950 . S
C1298 C1307 1.390 . S
C1299 C1298 1.387 . S
C1299 C1301 1.387 . S
H1300 C1307 0.950 . S
C1301 C1299 1.387 . S
C1301 C1303 1.390 . S
C1301 H1305 0.950 . S
H1302 C1298 0.950 . S
C1303 C1301 1.390 . S
C1303 C1304 1.387 . S
C1303 H1306 0.950 . S
C1304 C1303 1.387 . S
C1304 C1307 1.387 . S
H1305 C1301 0.950 . S
H1306 C1303 0.950 . S
C1307 C1298 1.390 . S
C1307 H1300 0.950 . S
C1307 C1304 1.387 . S
C1308 C1309 1.387 . S
C1308 H1312 0.950 . S
C1308 C1317 1.390 . S
C1309 C1308 1.387 . S
C1309 C1311 1.387 . S
H1310 C1317 0.950 . S
C1311 C1309 1.387 . S
C1311 C1313 1.390 . S
C1311 H1315 0.950 . S
H1312 C1308 0.950 . S
C1313 C1311 1.390 . S
C1313 C1314 1.387 . S
C1313 H1316 0.950 . S
C1314 C1313 1.387 . S
C1314 C1317 1.387 . S
H1315 C1311 0.950 . S
H1316 C1313 0.950 . S
C1317 C1308 1.390 . S
C1317 H1310 0.950 . S
C1317 C1314 1.387 . S
C1318 C1319 1.387 . S
C1318 H1322 0.950 . S
C1318 C1327 1.390 . S
C1319 C1318 1.387 . S
C1319 C1321 1.387 . S
H1320 C1327 0.950 . S
C1321 C1319 1.387 . S
C1321 C1323 1.390 . S
C1321 H1325 0.950 . S
H1322 C1318 0.950 . S
C1323 C1321 1.390 . S
C1323 C1324 1.387 . S
C1323 H1326 0.950 . S
C1324 C1323 1.387 . S
C1324 C1327 1.387 . S
H1325 C1321 0.950 . S
H1326 C1323 0.950 . S
C1327 C1318 1.390 . S
C1327 H1320 0.950 . S
C1327 C1324 1.387 . S
C1328 C1329 1.387 . S
C1328 H1332 0.950 . S
C1328 C1337 1.390 . S
C1329 C1328 1.387 . S
C1329 C1331 1.387 . S
H1330 C1337 0.950 . S
C1331 C1329 1.387 . S
C1331 C1333 1.390 . S
C1331 H1335 0.950 . S
H1332 C1328 0.950 . S
C1333 C1331 1.390 . S
C1333 C1334 1.387 . S
C1333 H1336 0.950 . S
C1334 C1333 1.387 . S
C1334 C1337 1.387 . S
H1335 C1331 0.950 . S
H1336 C1333 0.950 . S
C1337 C1328 1.390 . S
C1337 H1330 0.950 . S
C1337 C1334 1.387 . S
C1338 C1339 1.387 . S
C1338 H1342 0.950 . S
C1338 C1347 1.390 . S
C1339 C1338 1.387 . S
C1339 C1341 1.387 . S
H1340 C1347 0.950 . S
C1341 C1339 1.387 . S
C1341 C1343 1.390 . S
C1341 H1345 0.950 . S
H1342 C1338 0.950 . S
C1343 C1341 1.390 . S
C1343 C1344 1.387 . S
C1343 H1346 0.950 . S
C1344 C1343 1.387 . S
C1344 C1347 1.387 . S
H1345 C1341 0.950 . S
H1346 C1343 0.950 . S
C1347 C1338 1.390 . S
C1347 H1340 0.950 . S
C1347 C1344 1.387 . S
C1348 C1349 1.387 . S
C1348 H1352 0.950 . S
C1348 C1357 1.390 . S
C1349 C1348 1.387 . S
C1349 C1351 1.387 . S
H1350 C1357 0.950 . S
C1351 C1349 1.387 . S
C1351 C1353 1.390 . S
C1351 H1355 0.950 . S
H1352 C1348 0.950 . S
C1353 C1351 1.390 . S
C1353 C1354 1.387 . S
C1353 H1356 0.950 . S
C1354 C1353 1.387 . S
C1354 C1357 1.387 . S
H1355 C1351 0.950 . S
H1356 C1353 0.950 . S
C1357 C1348 1.390 . S
C1357 H1350 0.950 . S
C1357 C1354 1.387 . S
C1358 C1359 1.387 . S
C1358 H1362 0.950 . S
C1358 C1367 1.390 . S
C1359 C1358 1.387 . S
C1359 C1361 1.387 . S
H1360 C1367 0.950 . S
C1361 C1359 1.387 . S
C1361 C1363 1.390 . S
C1361 H1365 0.950 . S
H1362 C1358 0.950 . S
C1363 C1361 1.390 . S
C1363 C1364 1.387 . S
C1363 H1366 0.950 . S
C1364 C1363 1.387 . S
C1364 C1367 1.387 . S
H1365 C1361 0.950 . S
H1366 C1363 0.950 . S
C1367 C1358 1.390 . S
C1367 H1360 0.950 . S
C1367 C1364 1.387 . S
C1368 C1369 1.387 . S
C1368 H1372 0.950 . S
C1368 C1377 1.390 . S
C1369 C1368 1.387 . S
C1369 C1371 1.387 . S
H1370 C1377 0.950 . S
C1371 C1369 1.387 . S
C1371 C1373 1.390 . S
C1371 H1375 0.950 . S
H1372 C1368 0.950 . S
C1373 C1371 1.390 . S
C1373 C1374 1.387 . S
C1373 H1376 0.950 . S
C1374 C1373 1.387 . S
C1374 C1377 1.387 . S
H1375 C1371 0.950 . S
H1376 C1373 0.950 . S
C1377 C1368 1.390 . S
C1377 H1370 0.950 . S
C1377 C1374 1.387 . S
C1378 C1379 1.387 . S
C1378 H1382 0.950 . S
C1378 C1387 1.390 . S
C1379 C1378 1.387 . S
C1379 C1381 1.387 . S
H1380 C1387 0.950 . S
C1381 C1379 1.387 . S
C1381 C1383 1.390 . S
C1381 H1385 0.950 . S
H1382 C1378 0.950 . S
C1383 C1381 1.390 . S
C1383 C1384 1.387 . S
C1383 H1386 0.950 . S
C1384 C1383 1.387 . S
C1384 C1387 1.387 . S
H1385 C1381 0.950 . S
H1386 C1383 0.950 . S
C1387 C1378 1.390 . S
C1387 H1380 0.950 . S
C1387 C1384 1.387 . S
C1388 C1389 1.387 . S
C1388 H1392 0.950 . S
C1388 C1397 1.390 . S
C1389 C1388 1.387 . S
C1389 C1391 1.387 . S
H1390 C1397 0.950 . S
C1391 C1389 1.387 . S
C1391 C1393 1.390 . S
C1391 H1395 0.950 . S
H1392 C1388 0.950 . S
C1393 C1391 1.390 . S
C1393 C1394 1.387 . S
C1393 H1396 0.950 . S
C1394 C1393 1.387 . S
C1394 C1397 1.387 . S
H1395 C1391 0.950 . S
H1396 C1393 0.950 . S
C1397 C1388 1.390 . S
C1397 H1390 0.950 . S
C1397 C1394 1.387 . S
C1398 C1399 1.387 . S
C1398 H1402 0.950 . S
C1398 C1407 1.390 . S
C1399 C1398 1.387 . S
C1399 C1401 1.387 . S
H1400 C1407 0.950 . S
C1401 C1399 1.387 . S
C1401 C1403 1.390 . S
C1401 H1405 0.950 . S
H1402 C1398 0.950 . S
C1403 C1401 1.390 . S
C1403 C1404 1.387 . S
C1403 H1406 0.950 . S
C1404 C1403 1.387 . S
C1404 C1407 1.387 . S
H1405 C1401 0.950 . S
H1406 C1403 0.950 . S
C1407 C1398 1.390 . S
C1407 H1400 0.950 . S
C1407 C1404 1.387 . S
C1408 C1409 1.387 . S
C1408 H1412 0.950 . S
C1408 C1417 1.390 1_545 S
C1409 C1408 1.387 . S
C1409 C1411 1.387 . S
H1410 C1417 0.950 . S
C1411 C1409 1.387 . S
C1411 C1413 1.390 1_545 S
C1411 H1415 0.950 . S
H1412 C1408 0.950 . S
C1413 C1411 1.390 1_565 S
C1413 C1414 1.387 . S
C1413 H1416 0.950 . S
C1414 C1413 1.387 . S
C1414 C1417 1.387 . S
H1415 C1411 0.950 . S
H1416 C1413 0.950 . S
C1417 C1408 1.390 1_565 S
C1417 H1410 0.950 . S
C1417 C1414 1.387 . S
C1418 C1419 1.387 . S
C1418 H1422 0.950 1_565 S
C1418 C1427 1.390 . S
C1419 C1418 1.387 . S
C1419 C1421 1.387 . S
H1420 C1427 0.950 1_545 S
C1421 C1419 1.387 . S
C1421 C1423 1.390 . S
C1421 H1425 0.950 . S
H1422 C1418 0.950 1_545 S
C1423 C1421 1.390 . S
C1423 C1424 1.387 . S
C1423 H1426 0.950 . S
C1424 C1423 1.387 . S
C1424 C1427 1.387 . S
H1425 C1421 0.950 . S
H1426 C1423 0.950 . S
C1427 C1418 1.390 . S
C1427 H1420 0.950 1_565 S
C1427 C1424 1.387 . S
C1428 C1429 1.387 . S
C1428 H1432 0.950 . S
C1428 C1437 1.390 1_545 S
C1429 C1428 1.387 . S
C1429 C1431 1.387 . S
H1430 C1437 0.950 . S
C1431 C1429 1.387 . S
C1431 C1433 1.390 1_545 S
C1431 H1435 0.950 . S
H1432 C1428 0.950 . S
C1433 C1431 1.390 1_565 S
C1433 C1434 1.387 . S
C1433 H1436 0.950 . S
C1434 C1433 1.387 . S
C1434 C1437 1.387 . S
H1435 C1431 0.950 . S
H1436 C1433 0.950 . S
C1437 C1428 1.390 1_565 S
C1437 H1430 0.950 . S
C1437 C1434 1.387 . S
C1438 C1439 1.387 . S
C1438 H1442 0.950 1_545 S
C1438 C1447 1.390 1_554 S
C1439 C1438 1.387 . S
C1439 C1441 1.387 . S
H1440 C1447 0.950 1_565 S
C1441 C1439 1.387 . S
C1441 C1443 1.390 1_554 S
C1441 H1445 0.950 . S
H1442 C1438 0.950 1_565 S
C1443 C1441 1.390 1_556 S
C1443 C1444 1.387 . S
C1443 H1446 0.950 . S
C1444 C1443 1.387 . S
C1444 C1447 1.387 . S
H1445 C1441 0.950 . S
H1446 C1443 0.950 . S
C1447 C1438 1.390 1_556 S
C1447 H1440 0.950 1_545 S
C1447 C1444 1.387 . S
C1448 C1449 1.387 . S
C1448 H1452 0.950 . S
C1448 C1457 1.390 1_565 S
C1449 C1448 1.387 . S
C1449 C1451 1.387 . S
H1450 C1457 0.950 . S
C1451 C1449 1.387 . S
C1451 C1453 1.390 1_565 S
C1451 H1455 0.950 . S
H1452 C1448 0.950 . S
C1453 C1451 1.390 1_545 S
C1453 C1454 1.387 . S
C1453 H1456 0.950 . S
C1454 C1453 1.387 . S
C1454 C1457 1.387 . S
H1455 C1451 0.950 . S
H1456 C1453 0.950 . S
C1457 C1448 1.390 1_545 S
C1457 H1450 0.950 . S
C1457 C1454 1.387 . S
C1458 C1459 1.387 . S
C1458 H1462 0.950 . S
C1458 C1467 1.390 . S
C1459 C1458 1.387 . S
C1459 C1461 1.387 . S
H1460 C1467 0.950 . S
C1461 C1459 1.387 . S
C1461 C1463 1.390 . S
C1461 H1465 0.950 1_545 S
H1462 C1458 0.950 . S
C1463 C1461 1.390 . S
C1463 C1464 1.387 . S
C1463 H1466 0.950 1_545 S
C1464 C1463 1.387 . S
C1464 C1467 1.387 . S
H1465 C1461 0.950 1_565 S
H1466 C1463 0.950 1_565 S
C1467 C1458 1.390 . S
C1467 H1460 0.950 . S
C1467 C1464 1.387 . S
C1468 C1469 1.387 . S
C1468 H1472 0.950 . S
C1468 C1477 1.390 1_545 S
C1469 C1468 1.387 . S
C1469 C1471 1.387 . S
H1470 C1477 0.950 . S
C1471 C1469 1.387 . S
C1471 C1473 1.390 1_545 S
C1471 H1475 0.950 . S
H1472 C1468 0.950 . S
C1473 C1471 1.390 1_565 S
C1473 C1474 1.387 . S
C1473 H1476 0.950 . S
C1474 C1473 1.387 . S
C1474 C1477 1.387 . S
H1475 C1471 0.950 . S
H1476 C1473 0.950 . S
C1477 C1468 1.390 1_565 S
C1477 H1470 0.950 . S
C1477 C1474 1.387 . S
C1478 C1479 1.387 . S
C1478 H1482 0.950 . S
C1478 C1487 1.390 1_556 S
C1479 C1478 1.387 . S
C1479 C1481 1.387 . S
H1480 C1487 0.950 . S
C1481 C1479 1.387 . S
C1481 C1483 1.390 1_556 S
C1481 H1485 0.950 1_565 S
H1482 C1478 0.950 . S
C1483 C1481 1.390 1_554 S
C1483 C1484 1.387 . S
C1483 H1486 0.950 1_565 S
C1484 C1483 1.387 . S
C1484 C1487 1.387 . S
H1485 C1481 0.950 1_545 S
H1486 C1483 0.950 1_545 S
C1487 C1478 1.390 1_554 S
C1487 H1480 0.950 . S
C1487 C1484 1.387 . S
C1488 C1489 1.387 . S
C1488 H1492 0.950 . S
C1488 C1497 1.390 . S
C1489 C1488 1.387 . S
C1489 C1491 1.387 . S
H1490 C1497 0.950 . S
C1491 C1489 1.387 . S
C1491 C1493 1.390 . S
C1491 H1495 0.950 . S
H1492 C1488 0.950 . S
C1493 C1491 1.390 . S
C1493 C1494 1.387 . S
C1493 H1496 0.950 . S
C1494 C1493 1.387 . S
C1494 C1497 1.387 . S
H1495 C1491 0.950 . S
H1496 C1493 0.950 . S
C1497 C1488 1.390 . S
C1497 H1490 0.950 . S
C1497 C1494 1.387 . S
C1498 C1499 1.387 . S
C1498 H1502 0.950 . S
C1498 C1507 1.390 1_556 S
C1499 C1498 1.387 . S
C1499 C1501 1.387 . S
H1500 C1507 0.950 . S
C1501 C1499 1.387 . S
C1501 C1503 1.390 1_556 S
C1501 H1505 0.950 . S
H1502 C1498 0.950 . S
C1503 C1501 1.390 1_554 S
C1503 C1504 1.387 . S
C1503 H1506 0.950 . S
C1504 C1503 1.387 . S
C1504 C1507 1.387 . S
H1505 C1501 0.950 . S
H1506 C1503 0.950 . S
C1507 C1498 1.390 1_554 S
C1507 H1500 0.950 . S
C1507 C1504 1.387 . S
C1508 C1509 1.387 . S
C1508 H1512 0.950 . S
C1508 C1517 1.390 . S
C1509 C1508 1.387 . S
C1509 C1511 1.387 . S
H1510 C1517 0.950 . S
C1511 C1509 1.387 . S
C1511 C1513 1.390 . S
C1511 H1515 0.950 . S
H1512 C1508 0.950 . S
C1513 C1511 1.390 . S
C1513 C1514 1.387 . S
C1513 H1516 0.950 . S
C1514 C1513 1.387 . S
C1514 C1517 1.387 . S
H1515 C1511 0.950 . S
H1516 C1513 0.950 . S
C1517 C1508 1.390 . S
C1517 H1510 0.950 . S
C1517 C1514 1.387 . S
C1518 C1519 1.387 . S
C1518 H1522 0.950 . S
C1518 C1527 1.390 . S
C1519 C1518 1.387 . S
C1519 C1521 1.387 . S
H1520 C1527 0.950 . S
C1521 C1519 1.387 . S
C1521 C1523 1.390 . S
C1521 H1525 0.950 . S
H1522 C1518 0.950 . S
C1523 C1521 1.390 . S
C1523 C1524 1.387 . S
C1523 H1526 0.950 . S
C1524 C1523 1.387 . S
C1524 C1527 1.387 . S
H1525 C1521 0.950 . S
H1526 C1523 0.950 . S
C1527 C1518 1.390 . S
C1527 H1520 0.950 . S
C1527 C1524 1.387 . S
C1528 C1529 1.387 . S
C1528 H1532 0.950 . S
C1528 C1537 1.390 . S
C1529 C1528 1.387 . S
C1529 C1531 1.387 . S
H1530 C1537 0.950 . S
C1531 C1529 1.387 . S
C1531 C1533 1.390 . S
C1531 H1535 0.950 . S
H1532 C1528 0.950 . S
C1533 C1531 1.390 . S
C1533 C1534 1.387 . S
C1533 H1536 0.950 . S
C1534 C1533 1.387 . S
C1534 C1537 1.387 . S
H1535 C1531 0.950 . S
H1536 C1533 0.950 . S
C1537 C1528 1.390 . S
C1537 H1530 0.950 . S
C1537 C1534 1.387 . S
C1538 C1539 1.387 . S
C1538 H1542 0.950 . S
C1538 C1547 1.390 1_556 S
C1539 C1538 1.387 . S
C1539 C1541 1.387 . S
H1540 C1547 0.950 . S
C1541 C1539 1.387 . S
C1541 C1543 1.390 1_556 S
C1541 H1545 0.950 . S
H1542 C1538 0.950 . S
C1543 C1541 1.390 1_554 S
C1543 C1544 1.387 . S
C1543 H1546 0.950 . S
C1544 C1543 1.387 . S
C1544 C1547 1.387 . S
H1545 C1541 0.950 . S
H1546 C1543 0.950 . S
C1547 C1538 1.390 1_554 S
C1547 H1540 0.950 . S
C1547 C1544 1.387 . S
C1548 C1549 1.387 . S
C1548 H1552 0.950 . S
C1548 C1557 1.390 . S
C1549 C1548 1.387 . S
C1549 C1551 1.387 . S
H1550 C1557 0.950 . S
C1551 C1549 1.387 . S
C1551 C1553 1.390 . S
C1551 H1555 0.950 . S
H1552 C1548 0.950 . S
C1553 C1551 1.390 . S
C1553 C1554 1.387 . S
C1553 H1556 0.950 . S
C1554 C1553 1.387 . S
C1554 C1557 1.387 . S
H1555 C1551 0.950 . S
H1556 C1553 0.950 . S
C1557 C1548 1.390 . S
C1557 H1550 0.950 . S
C1557 C1554 1.387 . S
C1558 C1559 1.387 . S
C1558 H1562 0.950 . S
C1558 C1567 1.390 . S
C1559 C1558 1.387 . S
C1559 C1561 1.387 . S
H1560 C1567 0.950 . S
C1561 C1559 1.387 . S
C1561 C1563 1.390 . S
C1561 H1565 0.950 . S
H1562 C1558 0.950 . S
C1563 C1561 1.390 . S
C1563 C1564 1.387 . S
C1563 H1566 0.950 . S
C1564 C1563 1.387 . S
C1564 C1567 1.387 . S
H1565 C1561 0.950 . S
H1566 C1563 0.950 . S
C1567 C1558 1.390 . S
C1567 H1560 0.950 . S
C1567 C1564 1.387 . S
C1568 C1569 1.387 . S
C1568 H1572 0.950 . S
C1568 C1577 1.390 . S
C1569 C1568 1.387 . S
C1569 C1571 1.387 . S
H1570 C1577 0.950 . S
C1571 C1569 1.387 . S
C1571 C1573 1.390 . S
C1571 H1575 0.950 . S
H1572 C1568 0.950 . S
C1573 C1571 1.390 . S
C1573 C1574 1.387 . S
C1573 H1576 0.950 . S
C1574 C1573 1.387 . S
C1574 C1577 1.387 . S
H1575 C1571 0.950 . S
H1576 C1573 0.950 . S
C1577 C1568 1.390 . S
C1577 H1570 0.950 . S
C1577 C1574 1.387 . S
C1578 C1579 1.387 . S
C1578 H1582 0.950 . S
C1578 C1587 1.390 . S
C1579 C1578 1.387 . S
C1579 C1581 1.387 . S
H1580 C1587 0.950 . S
C1581 C1579 1.387 . S
C1581 C1583 1.390 . S
C1581 H1585 0.950 . S
H1582 C1578 0.950 . S
C1583 C1581 1.390 . S
C1583 C1584 1.387 . S
C1583 H1586 0.950 . S
C1584 C1583 1.387 . S
C1584 C1587 1.387 . S
H1585 C1581 0.950 . S
H1586 C1583 0.950 . S
C1587 C1578 1.390 . S
C1587 H1580 0.950 . S
C1587 C1584 1.387 . S
C1588 C1589 1.387 . S
C1588 H1592 0.950 . S
C1588 C1597 1.390 . S
C1589 C1588 1.387 . S
C1589 C1591 1.387 . S
H1590 C1597 0.950 . S
C1591 C1589 1.387 . S
C1591 C1593 1.390 . S
C1591 H1595 0.950 . S
H1592 C1588 0.950 . S
C1593 C1591 1.390 . S
C1593 C1594 1.387 . S
C1593 H1596 0.950 . S
C1594 C1593 1.387 . S
C1594 C1597 1.387 . S
H1595 C1591 0.950 . S
H1596 C1593 0.950 . S
C1597 C1588 1.390 . S
C1597 H1590 0.950 . S
C1597 C1594 1.387 . S
C1598 C1599 1.387 . S
C1598 H1602 0.950 . S
C1598 C1607 1.390 . S
C1599 C1598 1.387 . S
C1599 C1601 1.387 . S
H1600 C1607 0.950 . S
C1601 C1599 1.387 . S
C1601 C1603 1.390 . S
C1601 H1605 0.950 . S
H1602 C1598 0.950 . S
C1603 C1601 1.390 . S
C1603 C1604 1.387 . S
C1603 H1606 0.950 . S
C1604 C1603 1.387 . S
C1604 C1607 1.387 . S
H1605 C1601 0.950 . S
H1606 C1603 0.950 . S
C1607 C1598 1.390 . S
C1607 H1600 0.950 . S
C1607 C1604 1.387 . S
C1608 C1609 1.387 . S
C1608 H1612 0.950 . S
C1608 C1617 1.390 . S
C1609 C1608 1.387 . S
C1609 C1611 1.387 . S
H1610 C1617 0.950 . S
C1611 C1609 1.387 . S
C1611 C1613 1.390 . S
C1611 H1615 0.950 . S
H1612 C1608 0.950 . S
C1613 C1611 1.390 . S
C1613 C1614 1.387 . S
C1613 H1616 0.950 . S
C1614 C1613 1.387 . S
C1614 C1617 1.387 . S
H1615 C1611 0.950 . S
H1616 C1613 0.950 . S
C1617 C1608 1.390 . S
C1617 H1610 0.950 . S
C1617 C1614 1.387 . S
C1618 C1619 1.387 . S
C1618 H1622 0.950 . S
C1618 C1627 1.390 . S
C1619 C1618 1.387 . S
C1619 C1621 1.387 . S
H1620 C1627 0.950 . S
C1621 C1619 1.387 . S
C1621 C1623 1.390 . S
C1621 H1625 0.950 . S
H1622 C1618 0.950 . S
C1623 C1621 1.390 . S
C1623 C1624 1.387 . S
C1623 H1626 0.950 . S
C1624 C1623 1.387 . S
C1624 C1627 1.387 . S
H1625 C1621 0.950 . S
H1626 C1623 0.950 . S
C1627 C1618 1.390 . S
C1627 H1620 0.950 . S
C1627 C1624 1.387 . S
C1628 C1629 1.387 . S
C1628 H1632 0.950 . S
C1628 C1637 1.390 . S
C1629 C1628 1.387 . S
C1629 C1631 1.387 . S
H1630 C1637 0.950 . S
C1631 C1629 1.387 . S
C1631 C1633 1.390 . S
C1631 H1635 0.950 . S
H1632 C1628 0.950 . S
C1633 C1631 1.390 . S
C1633 C1634 1.387 . S
C1633 H1636 0.950 . S
C1634 C1633 1.387 . S
C1634 C1637 1.387 . S
H1635 C1631 0.950 . S
H1636 C1633 0.950 . S
C1637 C1628 1.390 . S
C1637 H1630 0.950 . S
C1637 C1634 1.387 . S
C1638 C1639 1.387 . S
C1638 H1642 0.950 . S
C1638 C1647 1.390 . S
C1639 C1638 1.387 . S
C1639 C1641 1.387 . S
H1640 C1647 0.950 . S
C1641 C1639 1.387 . S
C1641 C1643 1.390 . S
C1641 H1645 0.950 . S
H1642 C1638 0.950 . S
C1643 C1641 1.390 . S
C1643 C1644 1.387 . S
C1643 H1646 0.950 . S
C1644 C1643 1.387 . S
C1644 C1647 1.387 . S
H1645 C1641 0.950 . S
H1646 C1643 0.950 . S
C1647 C1638 1.390 . S
C1647 H1640 0.950 . S
C1647 C1644 1.387 . S
C1648 C1649 1.387 . S
C1648 H1652 0.950 . S
C1648 C1657 1.390 . S
C1649 C1648 1.387 . S
C1649 C1651 1.387 . S
H1650 C1657 0.950 . S
C1651 C1649 1.387 . S
C1651 C1653 1.390 . S
C1651 H1655 0.950 . S
H1652 C1648 0.950 . S
C1653 C1651 1.390 . S
C1653 C1654 1.387 . S
C1653 H1656 0.950 . S
C1654 C1653 1.387 . S
C1654 C1657 1.387 . S
H1655 C1651 0.950 . S
H1656 C1653 0.950 . S
C1657 C1648 1.390 . S
C1657 H1650 0.950 . S
C1657 C1654 1.387 . S
C1658 C1659 1.387 . S
C1658 H1662 0.950 . S
C1658 C1667 1.390 . S
C1659 C1658 1.387 . S
C1659 C1661 1.387 . S
H1660 C1667 0.950 . S
C1661 C1659 1.387 . S
C1661 C1663 1.390 . S
C1661 H1665 0.950 . S
H1662 C1658 0.950 . S
C1663 C1661 1.390 . S
C1663 C1664 1.387 . S
C1663 H1666 0.950 . S
C1664 C1663 1.387 . S
C1664 C1667 1.387 . S
H1665 C1661 0.950 . S
H1666 C1663 0.950 . S
C1667 C1658 1.390 . S
C1667 H1660 0.950 . S
C1667 C1664 1.387 . S
C1668 C1669 1.387 . S
C1668 H1672 0.950 . S
C1668 C1677 1.390 . S
C1669 C1668 1.387 . S
C1669 C1671 1.387 . S
H1670 C1677 0.950 . S
C1671 C1669 1.387 . S
C1671 C1673 1.390 . S
C1671 H1675 0.950 . S
H1672 C1668 0.950 . S
C1673 C1671 1.390 . S
C1673 C1674 1.387 . S
C1673 H1676 0.950 . S
C1674 C1673 1.387 . S
C1674 C1677 1.387 . S
H1675 C1671 0.950 . S
H1676 C1673 0.950 . S
C1677 C1668 1.390 . S
C1677 H1670 0.950 . S
C1677 C1674 1.387 . S
C1678 C1679 1.387 . S
C1678 H1682 0.950 . S
C1678 C1687 1.390 . S
C1679 C1678 1.387 . S
C1679 C1681 1.387 . S
H1680 C1687 0.950 . S
C1681 C1679 1.387 . S
C1681 C1683 1.390 . S
C1681 H1685 0.950 . S
H1682 C1678 0.950 . S
C1683 C1681 1.390 . S
C1683 C1684 1.387 . S
C1683 H1686 0.950 . S
C1684 C1683 1.387 . S
C1684 C1687 1.387 . S
H1685 C1681 0.950 . S
H1686 C1683 0.950 . S
C1687 C1678 1.390 . S
C1687 H1680 0.950 . S
C1687 C1684 1.387 . S
C1688 C1689 1.387 . S
C1688 H1692 0.950 . S
C1688 C1697 1.390 . S
C1689 C1688 1.387 . S
C1689 C1691 1.387 . S
H1690 C1697 0.950 . S
C1691 C1689 1.387 . S
C1691 C1693 1.390 . S
C1691 H1695 0.950 . S
H1692 C1688 0.950 . S
C1693 C1691 1.390 . S
C1693 C1694 1.387 . S
C1693 H1696 0.950 . S
C1694 C1693 1.387 . S
C1694 C1697 1.387 . S
H1695 C1691 0.950 . S
H1696 C1693 0.950 . S
C1697 C1688 1.390 . S
C1697 H1690 0.950 . S
C1697 C1694 1.387 . S
C1698 C1699 1.387 . S
C1698 H1702 0.950 . S
C1698 C1707 1.390 . S
C1699 C1698 1.387 . S
C1699 C1701 1.387 . S
H1700 C1707 0.950 . S
C1701 C1699 1.387 . S
C1701 C1703 1.390 . S
C1701 H1705 0.950 . S
H1702 C1698 0.950 . S
C1703 C1701 1.390 . S
C1703 C1704 1.387 . S
C1703 H1706 0.950 . S
C1704 C1703 1.387 . S
C1704 C1707 1.387 . S
H1705 C1701 0.950 . S
H1706 C1703 0.950 . S
C1707 C1698 1.390 . S
C1707 H1700 0.950 . S
C1707 C1704 1.387 . S
C1708 C1709 1.387 . S
C1708 H1712 0.950 . S
C1708 C1717 1.390 . S
C1709 C1708 1.387 . S
C1709 C1711 1.387 . S
H1710 C1717 0.950 . S
C1711 C1709 1.387 . S
C1711 C1713 1.390 . S
C1711 H1715 0.950 . S
H1712 C1708 0.950 . S
C1713 C1711 1.390 . S
C1713 C1714 1.387 . S
C1713 H1716 0.950 . S
C1714 C1713 1.387 . S
C1714 C1717 1.387 . S
H1715 C1711 0.950 . S
H1716 C1713 0.950 . S
C1717 C1708 1.390 . S
C1717 H1710 0.950 . S
C1717 C1714 1.387 . S
C1718 C1719 1.387 . S
C1718 H1722 0.950 . S
C1718 C1727 1.390 . S
C1719 C1718 1.387 . S
C1719 C1721 1.387 . S
H1720 C1727 0.950 . S
C1721 C1719 1.387 . S
C1721 C1723 1.390 . S
C1721 H1725 0.950 . S
H1722 C1718 0.950 . S
C1723 C1721 1.390 . S
C1723 C1724 1.387 . S
C1723 H1726 0.950 . S
C1724 C1723 1.387 . S
C1724 C1727 1.387 . S
H1725 C1721 0.950 . S
H1726 C1723 0.950 . S
C1727 C1718 1.390 . S
C1727 H1720 0.950 . S
C1727 C1724 1.387 . S
C1728 C1729 1.387 . S
C1728 H1732 0.950 . S
C1728 C1737 1.390 . S
C1729 C1728 1.387 . S
C1729 C1731 1.387 . S
H1730 C1737 0.950 . S
C1731 C1729 1.387 . S
C1731 C1733 1.390 . S
C1731 H1735 0.950 . S
H1732 C1728 0.950 . S
C1733 C1731 1.390 . S
C1733 C1734 1.387 . S
C1733 H1736 0.950 . S
C1734 C1733 1.387 . S
C1734 C1737 1.387 . S
H1735 C1731 0.950 . S
H1736 C1733 0.950 . S
C1737 C1728 1.390 . S
C1737 H1730 0.950 . S
C1737 C1734 1.387 . S
C1738 C1739 1.387 . S
C1738 H1742 0.950 . S
C1738 C1747 1.390 1_455 S
C1739 C1738 1.387 . S
C1739 C1741 1.387 1_545 S
H1740 C1747 0.950 . S
C1741 C1739 1.387 1_565 S
C1741 C1743 1.390 1_455 S
C1741 H1745 0.950 . S
H1742 C1738 0.950 . S
C1743 C1741 1.390 1_655 S
C1743 C1744 1.387 . S
C1743 H1746 0.950 . S
C1744 C1743 1.387 . S
C1744 C1747 1.387 1_565 S
H1745 C1741 0.950 . S
H1746 C1743 0.950 . S
C1747 C1738 1.390 1_655 S
C1747 H1740 0.950 . S
C1747 C1744 1.387 1_545 S
C1748 C1749 1.387 . S
C1748 H1752 0.950 . S
C1748 C1757 1.390 . S
C1749 C1748 1.387 . S
C1749 C1751 1.387 . S
H1750 C1757 0.950 . S
C1751 C1749 1.387 . S
C1751 C1753 1.390 . S
C1751 H1755 0.950 . S
H1752 C1748 0.950 . S
C1753 C1751 1.390 . S
C1753 C1754 1.387 . S
C1753 H1756 0.950 . S
C1754 C1753 1.387 . S
C1754 C1757 1.387 . S
H1755 C1751 0.950 . S
H1756 C1753 0.950 . S
C1757 C1748 1.390 . S
C1757 H1750 0.950 . S
C1757 C1754 1.387 . S
C1758 C1759 1.387 1_545 S
C1758 H1762 0.950 . S
C1758 C1767 1.390 1_554 S
C1759 C1758 1.387 1_565 S
C1759 C1761 1.387 . S
H1760 C1767 0.950 . S
C1761 C1759 1.387 . S
C1761 C1763 1.390 1_554 S
C1761 H1765 0.950 . S
H1762 C1758 0.950 . S
C1763 C1761 1.390 1_556 S
C1763 C1764 1.387 1_565 S
C1763 H1766 0.950 . S
C1764 C1763 1.387 1_545 S
C1764 C1767 1.387 . S
H1765 C1761 0.950 . S
H1766 C1763 0.950 . S
C1767 C1758 1.390 1_556 S
C1767 H1760 0.950 . S
C1767 C1764 1.387 . S
C1768 C1769 1.387 . S
C1768 H1772 0.950 . S
C1768 C1777 1.390 . S
C1769 C1768 1.387 . S
C1769 C1771 1.387 . S
H1770 C1777 0.950 . S
C1771 C1769 1.387 . S
C1771 C1773 1.390 . S
C1771 H1775 0.950 . S
H1772 C1768 0.950 . S
C1773 C1771 1.390 . S
C1773 C1774 1.387 . S
C1773 H1776 0.950 . S
C1774 C1773 1.387 . S
C1774 C1777 1.387 . S
H1775 C1771 0.950 . S
H1776 C1773 0.950 . S
C1777 C1768 1.390 . S
C1777 H1770 0.950 . S
C1777 C1774 1.387 . S
C1778 C1779 1.387 1_545 S
C1778 H1782 0.950 . S
C1778 C1787 1.390 . S
C1779 C1778 1.387 1_565 S
C1779 C1781 1.387 . S
H1780 C1787 0.950 . S
C1781 C1779 1.387 . S
C1781 C1783 1.390 . S
C1781 H1785 0.950 . S
H1782 C1778 0.950 . S
C1783 C1781 1.390 . S
C1783 C1784 1.387 1_565 S
C1783 H1786 0.950 . S
C1784 C1783 1.387 1_545 S
C1784 C1787 1.387 . S
H1785 C1781 0.950 . S
H1786 C1783 0.950 . S
C1787 C1778 1.390 . S
C1787 H1780 0.950 . S
C1787 C1784 1.387 . S
C1788 C1789 1.387 . S
C1788 H1792 0.950 . S
C1788 C1797 1.390 . S
C1789 C1788 1.387 . S
C1789 C1791 1.387 . S
H1790 C1797 0.950 . S
C1791 C1789 1.387 . S
C1791 C1793 1.390 . S
C1791 H1795 0.950 . S
H1792 C1788 0.950 . S
C1793 C1791 1.390 . S
C1793 C1794 1.387 . S
C1793 H1796 0.950 . S
C1794 C1793 1.387 . S
C1794 C1797 1.387 . S
H1795 C1791 0.950 . S
H1796 C1793 0.950 . S
C1797 C1788 1.390 . S
C1797 H1790 0.950 . S
C1797 C1794 1.387 . S
C1798 C1799 1.387 . S
C1798 H1802 0.950 . S
C1798 C1807 1.390 1_654 S
C1799 C1798 1.387 . S
C1799 C1801 1.387 1_545 S
H1800 C1807 0.950 . S
C1801 C1799 1.387 1_565 S
C1801 C1803 1.390 1_654 S
C1801 H1805 0.950 . S
H1802 C1798 0.950 . S
C1803 C1801 1.390 1_456 S
C1803 C1804 1.387 . S
C1803 H1806 0.950 . S
C1804 C1803 1.387 . S
C1804 C1807 1.387 1_565 S
H1805 C1801 0.950 . S
H1806 C1803 0.950 . S
C1807 C1798 1.390 1_456 S
C1807 H1800 0.950 . S
C1807 C1804 1.387 1_545 S
C1808 C1809 1.387 . S
C1808 H1812 0.950 . S
C1808 C1817 1.390 . S
C1809 C1808 1.387 . S
C1809 C1811 1.387 . S
H1810 C1817 0.950 . S
C1811 C1809 1.387 . S
C1811 C1813 1.390 . S
C1811 H1815 0.950 . S
H1812 C1808 0.950 . S
C1813 C1811 1.390 . S
C1813 C1814 1.387 . S
C1813 H1816 0.950 . S
C1814 C1813 1.387 . S
C1814 C1817 1.387 . S
H1815 C1811 0.950 . S
H1816 C1813 0.950 . S
C1817 C1808 1.390 . S
C1817 H1810 0.950 . S
C1817 C1814 1.387 . S
C1818 C1819 1.387 . S
C1818 H1822 0.950 . S
C1818 C1827 1.390 . S
C1819 C1818 1.387 . S
C1819 C1821 1.387 . S
H1820 C1827 0.950 . S
C1821 C1819 1.387 . S
C1821 C1823 1.390 . S
C1821 H1825 0.950 . S
H1822 C1818 0.950 . S
C1823 C1821 1.390 . S
C1823 C1824 1.387 . S
C1823 H1826 0.950 . S
C1824 C1823 1.387 . S
C1824 C1827 1.387 . S
H1825 C1821 0.950 . S
H1826 C1823 0.950 . S
C1827 C1818 1.390 . S
C1827 H1820 0.950 . S
C1827 C1824 1.387 . S
C1828 C1829 1.387 . S
C1828 H1832 0.950 . S
C1828 C1837 1.390 . S
C1829 C1828 1.387 . S
C1829 C1831 1.387 . S
H1830 C1837 0.950 . S
C1831 C1829 1.387 . S
C1831 C1833 1.390 . S
C1831 H1835 0.950 . S
H1832 C1828 0.950 . S
C1833 C1831 1.390 . S
C1833 C1834 1.387 . S
C1833 H1836 0.950 . S
C1834 C1833 1.387 . S
C1834 C1837 1.387 . S
H1835 C1831 0.950 . S
H1836 C1833 0.950 . S
C1837 C1828 1.390 . S
C1837 H1830 0.950 . S
C1837 C1834 1.387 . S
C1838 C1839 1.387 . S
C1838 H1842 0.950 . S
C1838 C1847 1.390 . S
C1839 C1838 1.387 . S
C1839 C1841 1.387 . S
H1840 C1847 0.950 . S
C1841 C1839 1.387 . S
C1841 C1843 1.390 . S
C1841 H1845 0.950 . S
H1842 C1838 0.950 . S
C1843 C1841 1.390 . S
C1843 C1844 1.387 . S
C1843 H1846 0.950 . S
C1844 C1843 1.387 . S
C1844 C1847 1.387 . S
H1845 C1841 0.950 . S
H1846 C1843 0.950 . S
C1847 C1838 1.390 . S
C1847 H1840 0.950 . S
C1847 C1844 1.387 . S
C1848 C1849 1.387 . S
C1848 H1852 0.950 . S
C1848 C1857 1.390 1_556 S
C1849 C1848 1.387 . S
C1849 C1851 1.387 . S
H1850 C1857 0.950 . S
C1851 C1849 1.387 . S
C1851 C1853 1.390 1_556 S
C1851 H1855 0.950 . S
H1852 C1848 0.950 . S
C1853 C1851 1.390 1_554 S
C1853 C1854 1.387 . S
C1853 H1856 0.950 . S
C1854 C1853 1.387 . S
C1854 C1857 1.387 . S
H1855 C1851 0.950 . S
H1856 C1853 0.950 . S
C1857 C1848 1.390 1_554 S
C1857 H1850 0.950 . S
C1857 C1854 1.387 . S
C1858 C1859 1.387 . S
C1858 H1862 0.950 . S
C1858 C1867 1.390 1_455 S
C1859 C1858 1.387 . S
C1859 C1861 1.387 . S
H1860 C1867 0.950 . S
C1861 C1859 1.387 . S
C1861 C1863 1.390 1_455 S
C1861 H1865 0.950 . S
H1862 C1858 0.950 . S
C1863 C1861 1.390 1_655 S
C1863 C1864 1.387 . S
C1863 H1866 0.950 . S
C1864 C1863 1.387 . S
C1864 C1867 1.387 . S
H1865 C1861 0.950 . S
H1866 C1863 0.950 . S
C1867 C1858 1.390 1_655 S
C1867 H1860 0.950 . S
C1867 C1864 1.387 . S
C1868 C1869 1.387 . S
C1868 H1872 0.950 . S
C1868 C1877 1.390 1_454 S
C1869 C1868 1.387 . S
C1869 C1871 1.387 . S
H1870 C1877 0.950 . S
C1871 C1869 1.387 . S
C1871 C1873 1.390 1_454 S
C1871 H1875 0.950 . S
H1872 C1868 0.950 . S
C1873 C1871 1.390 1_656 S
C1873 C1874 1.387 . S
C1873 H1876 0.950 . S
C1874 C1873 1.387 . S
C1874 C1877 1.387 . S
H1875 C1871 0.950 . S
H1876 C1873 0.950 . S
C1877 C1868 1.390 1_656 S
C1877 H1870 0.950 . S
C1877 C1874 1.387 . S
C1878 C1879 1.387 . S
C1878 H1882 0.950 . S
C1878 C1887 1.390 . S
C1879 C1878 1.387 . S
C1879 C1881 1.387 . S
H1880 C1887 0.950 . S
C1881 C1879 1.387 . S
C1881 C1883 1.390 . S
C1881 H1885 0.950 . S
H1882 C1878 0.950 . S
C1883 C1881 1.390 . S
C1883 C1884 1.387 . S
C1883 H1886 0.950 . S
C1884 C1883 1.387 . S
C1884 C1887 1.387 . S
H1885 C1881 0.950 . S
H1886 C1883 0.950 . S
C1887 C1878 1.390 . S
C1887 H1880 0.950 . S
C1887 C1884 1.387 . S
C1089 C9 1.520 . S
C1094 C920 1.539 . S
C1099 C43 1.519 . S
C1104 C274 1.540 . S
C1109 C852 1.539 . S
C1114 C77 1.520 . S
C1119 C342 1.539 . S
C1124 C111 1.520 . S
C1129 C988 1.540 . S
C1134 C145 1.519 . S
C1139 C179 1.520 . S
C1144 C478 1.539 . S
C1149 C213 1.519 . S
C1154 C1056 1.540 . S
C1159 C410 1.539 . S
C1164 C247 1.520 . S
C1169 C281 1.519 . S
C1174 C648 1.539 . S
C1179 C315 1.519 . S
C1184 C2 1.539 . S
C1189 C349 1.520 . S
C1194 C580 1.539 . S
C1199 C70 1.539 . S
C1204 C383 1.520 . S
C1209 C417 1.520 . S
C1214 C716 1.539 . S
C1219 C451 1.520 . S
C1224 C206 1.539 . S
C1229 C784 1.540 . S
C1234 C485 1.519 . S
C1239 C519 1.519 . S
C1244 C138 1.539 . S
C1249 C553 1.520 . S
C1254 C376 1.539 . S
C1259 C818 1.539 . S
C1264 C587 1.520 . S
C1269 C308 1.539 . S
C1274 C621 1.519 . S
C1279 C655 1.519 . S
C1284 C886 1.539 . S
C1289 C689 1.519 . S
C1294 C444 1.539 . S
C1299 C1022 1.539 . S
C1304 C723 1.520 . S
C1309 C757 1.519 . S
C1314 C512 1.539 . S
C1319 C954 1.539 . S
C1324 C791 1.519 . S
C1329 C825 1.520 . S
C1334 C104 1.539 . S
C1339 C546 1.539 . S
C1344 C859 1.520 . S
C1349 C893 1.520 . S
C1354 C36 1.539 . S
C1359 C614 1.539 . S
C1364 C927 1.519 . S
C1369 C961 1.519 . S
C1374 C172 1.540 . S
C1379 C750 1.539 . S
C1384 C995 1.519 . S
C1389 C240 1.539 . S
C1394 C1029 1.520 . S
C1399 C1063 1.519 . S
C1404 C682 1.539 . S
C1409 C5 1.515 . S
C1414 C141 1.515 . S
C1419 C39 1.513 . S
C1424 C175 1.513 . S
C1429 C209 1.513 . S
C1434 C73 1.513 . S
C1439 C107 1.513 . S
C1444 C243 1.513 . S
C1449 C277 1.515 . S
C1454 C413 1.515 . S
C1459 C311 1.513 . S
C1464 C447 1.513 . S
C1469 C345 1.513 . S
C1474 C481 1.513 . S
C1479 C379 1.513 . S
C1484 C515 1.513 . S
C1489 C549 1.515 . S
C1494 C685 1.515 . S
C1499 C719 1.515 . S
C1504 C583 1.515 . S
C1509 C753 1.515 . S
C1514 C617 1.515 . S
C1519 C787 1.515 . S
C1524 C651 1.515 . S
C1529 C957 1.515 . S
C1534 C821 1.515 . S
C1539 C855 1.515 . S
C1544 C991 1.515 . S
C1549 C889 1.513 . S
C1554 C1025 1.513 . S
C1559 C1059 1.513 . S
C1564 C923 1.513 . S
C1569 C203 1.472 . S
C1574 C33 1.473 . S
C1579 C237 1.472 . S
C1584 C67 1.473 . S
C1589 C271 1.473 . S
C1594 C101 1.473 . S
C1599 C169 1.473 . S
C1604 C135 1.472 . S
C1609 C475 1.472 . S
C1614 C305 1.472 . S
C1619 C509 1.472 . S
C1624 C339 1.472 . S
C1629 C373 1.473 . S
C1634 C543 1.472 . S
C1639 C407 1.472 . S
C1644 C441 1.473 . S
C1649 C747 1.473 . S
C1654 C577 1.472 . S
C1659 C611 1.473 . S
C1664 C781 1.472 . S
C1669 C815 1.473 . S
C1674 C645 1.472 . S
C1679 C679 1.472 . S
C1684 C713 1.473 . S
C1689 C1019 1.472 . S
C1694 C849 1.473 . S
C1699 C883 1.473 . S
C1704 C1053 1.472 . S
C1709 C917 1.472 . S
C1714 C1087 1.473 . S
C1719 C985 1.473 . S
C1724 C951 1.472 . S
C1729 C836 1.417 . S
C1734 C20 1.417 . S
C1739 C54 1.418 1_545 S
C1744 C326 1.418 1_565 S
C1749 C88 1.418 . S
C1754 C904 1.418 . S
C1759 C122 1.417 1_565 S
C1764 C394 1.417 1_545 S
C1769 C156 1.418 . S
C1774 C972 1.418 . S
C1779 C462 1.418 1_565 S
C1784 C190 1.418 1_545 S
C1789 C1040 1.417 . S
C1794 C224 1.417 . S
C1799 C530 1.418 1_545 S
C1804 C258 1.418 1_565 S
C1809 C292 1.418 . S
C1814 C564 1.418 . S
C1819 C632 1.418 . S
C1824 C360 1.418 . S
C1829 C428 1.418 . S
C1834 C700 1.418 . S
C1839 C496 1.417 . S
C1844 C768 1.417 . S
C1849 C870 1.417 . S
C1854 C598 1.417 . S
C1859 C938 1.418 . S
C1864 C666 1.418 . S
C1869 C1006 1.417 . S
C1874 C734 1.417 . S
C1879 C802 1.418 . S
C1884 C1074 1.418 . S
