# Generated by pormake.
# Topology umx, (4)-cn, num edge types: 1
# Building blocks:
#     Node 0, Type 0, BuildingBlock: MUDLON_clean_sbu_0, # of connection points: 4
#     Node 1, Type 0, BuildingBlock: MUDLON_clean_sbu_0, # of connection points: 4
#     Node 2, Type 0, BuildingBlock: MUDLON_clean_sbu_0, # of connection points: 4
#     Node 3, Type 0, BuildingBlock: MUDLON_clean_sbu_0, # of connection points: 4
#     Node 4, Type 0, BuildingBlock: MUDLON_clean_sbu_0, # of connection points: 4
#     Node 5, Type 0, BuildingBlock: MUDLON_clean_sbu_0, # of connection points: 4
#     Node 6, Type 0, BuildingBlock: MUDLON_clean_sbu_0, # of connection points: 4
#     Node 7, Type 0, BuildingBlock: MUDLON_clean_sbu_0, # of connection points: 4
#     Edge 8, Type (0, 0), BuildingBlock: EZIPEK_clean_linker_0, # of connection points: 2
#     Edge 9, Type (0, 0), BuildingBlock: EZIPEK_clean_linker_0, # of connection points: 2
#     Edge 10, Type (0, 0), BuildingBlock: EZIPEK_clean_linker_0, # of connection points: 2
#     Edge 11, Type (0, 0), BuildingBlock: EZIPEK_clean_linker_0, # of connection points: 2
#     Edge 12, Type (0, 0), BuildingBlock: EZIPEK_clean_linker_0, # of connection points: 2
#     Edge 13, Type (0, 0), BuildingBlock: EZIPEK_clean_linker_0, # of connection points: 2
#     Edge 14, Type (0, 0), BuildingBlock: EZIPEK_clean_linker_0, # of connection points: 2
#     Edge 15, Type (0, 0), BuildingBlock: EZIPEK_clean_linker_0, # of connection points: 2
#     Edge 16, Type (0, 0), BuildingBlock: EZIPEK_clean_linker_0, # of connection points: 2
#     Edge 17, Type (0, 0), BuildingBlock: EZIPEK_clean_linker_0, # of connection points: 2
#     Edge 18, Type (0, 0), BuildingBlock: EZIPEK_clean_linker_0, # of connection points: 2
#     Edge 19, Type (0, 0), BuildingBlock: EZIPEK_clean_linker_0, # of connection points: 2
#     Edge 20, Type (0, 0), BuildingBlock: EZIPEK_clean_linker_0, # of connection points: 2
#     Edge 21, Type (0, 0), BuildingBlock: EZIPEK_clean_linker_0, # of connection points: 2
#     Edge 22, Type (0, 0), BuildingBlock: EZIPEK_clean_linker_0, # of connection points: 2
#     Edge 23, Type (0, 0), BuildingBlock: EZIPEK_clean_linker_0, # of connection points: 2
# Relax obj value: 0.023
# Max RMSD: 0.223
# Mean RMSD: 0.222
data_MOF--net-umx--node1-MUDLON_clean_sbu_0--edge1-EZIPEK_clean_linker_0
_symmetry_space_group_name_H-M    P1
_symmetry_Int_Tables_number       1
_symmetry_cell_setting            triclinic
loop_
_symmetry_equiv_pos_as_xyz
'x, y, z'
_cell_length_a     29.848884
_cell_length_b     30.225769
_cell_length_c     21.996343
_cell_angle_alpha  90.630392
_cell_angle_beta   90.525878
_cell_angle_gamma 90.391164
loop_
_atom_site_label
_atom_site_type_symbol
_atom_site_fract_x
_atom_site_fract_y
_atom_site_fract_z
_atom_type_partial_charge
Mg0 Mg 0.20668 0.46416 0.03215 0.0
C1 C 0.10251 0.44878 0.04418 0.0
O2 O 0.11106 0.41504 0.07943 0.0
C3 C 0.23819 0.36994 0.06213 0.0
O4 O 0.21446 0.37495 0.11162 0.0
C5 C 0.20274 0.48105 0.16595 0.0
O6 O 0.17164 0.45061 0.15872 0.0
O7 O 0.22493 0.49365 0.12008 0.0
O8 O 0.13446 0.46984 1.01969 0.0
O9 O 0.23044 0.50236 0.95629 0.0
C10 C 0.22236 0.4838 0.90517 0.0
O11 O 0.20473 0.44389 0.90376 0.0
O12 O 0.23787 0.39974 1.0219 0.0
Mg13 Mg 0.55882 0.17669 0.53252 0.0
C14 C 0.54128 0.18734 0.40068 0.0
O15 O 0.58225 0.17184 0.40115 0.0
C16 C 0.55052 0.19756 0.66535 0.0
O17 O 0.59399 0.19178 0.66179 0.0
C18 C 0.63047 0.24526 0.54059 0.0
O19 O 0.59546 0.26738 0.55966 0.0
O20 O 0.62596 0.20459 0.52652 0.0
O21 O 0.52168 0.19465 0.4509 0.0
O22 O 0.55752 0.10509 0.53317 0.0
C23 C 0.51832 0.08836 0.53417 0.0
O24 O 0.48347 0.11466 0.5348 0.0
O25 O 0.52672 0.19578 0.61712 0.0
Mg26 Mg 0.83173 0.55266 0.03092 0.0
C27 C 0.9225 0.515 1.00491 0.0
O28 O 0.89903 0.49701 0.96022 0.0
C29 C 0.80554 0.64832 0.06895 0.0
O30 O 0.82861 0.64152 0.11897 0.0
C31 C 0.82439 0.53099 0.15978 0.0
O32 O 0.86015 0.55646 0.1578 0.0
O33 O 0.80295 0.52238 0.1108 0.0
O34 O 0.90394 0.54309 0.03998 0.0
O35 O 0.8107 0.5219 0.94577 0.0
C36 C 0.81014 0.54718 0.89994 0.0
O37 O 0.81904 0.58951 0.90748 0.0
O38 O 0.80514 0.61927 1.02686 0.0
Mg39 Mg 0.45789 0.80685 0.54312 0.0
C40 C 0.47552 0.77588 0.41336 0.0
O41 O 0.4349 0.75972 0.41944 0.0
C42 C 0.50349 0.80774 0.66889 0.0
O43 O 0.51441 0.84797 0.65274 0.0
C44 C 0.35442 0.79267 0.54237 0.0
O45 O 0.3513 0.83472 0.55728 0.0
O46 O 0.39254 0.77558 0.53288 0.0
O47 O 0.49526 0.79368 0.4592 0.0
O48 O 0.45413 0.8787 0.54778 0.0
C49 C 0.49046 0.89895 0.53578 0.0
O50 O 0.52609 0.87583 0.52178 0.0
O51 O 0.48332 0.78236 0.63083 0.0
Mg52 Mg 0.18321 0.56553 0.53883 0.0
C53 C 0.19094 0.54844 0.40953 0.0
O54 O 0.1541 0.57161 0.41525 0.0
C55 C 0.21173 0.56528 0.66984 0.0
O56 O 0.20338 0.60753 0.66318 0.0
C57 C 0.23699 0.64537 0.5381 0.0
O58 O 0.26545 0.61248 0.54107 0.0
O59 O 0.19522 0.63667 0.53646 0.0
O60 O 0.21389 0.53987 0.45693 0.0
O61 O 0.11478 0.5405 0.53285 0.0
C62 C 0.08303 0.55068 0.56825 0.0
O63 O 0.08902 0.58224 0.60908 0.0
O64 O 0.20913 0.53945 0.62389 0.0
Mg65 Mg 0.44821 0.17494 0.03023 0.0
C66 C 0.4573 0.18738 0.16267 0.0
O67 O 0.41463 0.17733 0.15602 0.0
C68 C 0.46429 0.1987 0.90002 0.0
O69 O 0.42035 0.19676 0.89963 0.0
C70 C 0.38449 0.24813 0.03445 0.0
O71 O 0.4237 0.26817 0.03497 0.0
O72 O 0.38299 0.20616 0.03122 0.0
O73 O 0.48141 0.19153 0.11566 0.0
O74 O 0.4464 0.10342 0.03122 0.0
C75 C 0.48529 0.08654 0.0301 0.0
O76 O 0.52049 0.11271 1.02708 0.0
O77 O 0.48561 0.19293 0.9496 0.0
Mg78 Mg 0.81488 0.45119 0.53235 0.0
C79 C 0.91781 0.44817 0.56153 0.0
O80 O 0.91014 0.41213 0.59272 0.0
C81 C 0.78626 0.35517 0.50424 0.0
O82 O 0.80606 0.36147 0.452 0.0
C83 C 0.81396 0.46554 0.40106 0.0
O84 O 0.84942 0.4408 0.40957 0.0
O85 O 0.78968 0.47553 0.44631 0.0
O86 O 0.88612 0.46616 0.53218 0.0
O87 O 0.79256 0.48815 0.61074 0.0
C88 C 0.80159 0.4689 0.6604 0.0
O89 O 0.81982 0.42952 0.65892 0.0
O90 O 0.78936 0.38456 0.54572 0.0
Mg91 Mg 0.57337 0.81647 0.0462 0.0
C92 C 0.55399 0.7966 0.17462 0.0
O93 O 0.59452 0.81374 0.17685 0.0
C94 C 0.51758 0.78661 0.92974 0.0
O95 O 0.48501 0.77563 0.96651 0.0
C96 C 0.651 0.7576 0.03579 0.0
O97 O 0.61986 0.73653 1.00412 0.0
O98 O 0.64193 0.79487 0.0597 0.0
O99 O 0.5348 0.79109 0.12294 0.0
O100 O 0.56587 0.88747 0.05185 0.0
C101 C 0.52589 0.90049 0.04353 0.0
O102 O 0.4939 0.87111 0.03401 0.0
O103 O 0.5546 0.80093 0.95151 0.0
C104 C 0.20281 0.54608 0.23853 0.0
C105 C 0.21025 0.50042 0.22739 0.0
C106 C 0.2102 0.4863 0.33694 0.0
C107 C 0.20384 0.53217 0.34827 0.0
N108 N 0.20658 0.6069 0.31093 0.0
N109 N 0.2337 0.42975 0.26542 0.0
C110 C 0.20434 0.56244 0.29931 0.0
C111 C 0.21827 0.47148 0.27656 0.0
N112 N 0.19119 0.57336 0.19187 0.0
N113 N 0.20524 0.45636 0.38258 0.0
H114 H 0.24014 0.41805 0.22163 0.0
H115 H 0.2444 0.4086 0.29962 0.0
H116 H 0.198 0.46519 0.42728 0.0
H117 H 0.20432 0.42228 0.37503 0.0
H118 H 0.17999 0.60559 0.19859 0.0
H119 H 0.1892 0.56294 0.14662 0.0
H120 H 0.2117 0.63032 0.27725 0.0
H121 H 0.20777 0.62009 0.3549 0.0
C122 C 0.52974 0.15969 0.76191 0.0
C123 C 0.52879 0.19836 0.72572 0.0
C124 C 0.48937 0.23856 0.80666 0.0
C125 C 0.48839 0.19931 0.84143 0.0
N126 N 0.50195 0.12106 0.85015 0.0
N127 N 0.50453 0.27323 0.70968 0.0
C128 C 0.50739 0.15955 0.81874 0.0
C129 C 0.50756 0.23742 0.74693 0.0
N130 N 0.55179 0.12287 0.74167 0.0
N131 N 0.47416 0.27719 0.83176 0.0
H132 H 0.51935 0.27429 0.66694 0.0
H133 H 0.48536 0.30101 0.71927 0.0
H134 H 0.46055 0.27898 0.87524 0.0
H135 H 0.47775 0.30802 0.81176 0.0
H136 H 0.55915 0.09588 0.76888 0.0
H137 H 0.56476 0.11976 0.698 0.0
H138 H 0.5099 0.08989 0.83304 0.0
H139 H 0.48644 0.11961 0.89232 0.0
C140 C 0.80142 0.45238 0.2901 0.0
C141 C 0.80472 0.48279 0.33951 0.0
C142 C 0.80364 0.54412 0.26791 0.0
C143 C 0.80992 0.51368 0.21927 0.0
N144 N 0.81737 0.43808 0.18405 0.0
N145 N 0.81227 0.55835 0.37572 0.0
C146 C 0.80869 0.46749 0.23002 0.0
C147 C 0.80587 0.52897 0.32869 0.0
N148 N 0.79101 0.40909 0.30077 0.0
N149 N 0.79524 0.58753 0.25585 0.0
H150 H 0.81454 0.549 0.42106 0.0
H151 H 0.81886 0.59186 0.36936 0.0
H152 H 0.7926 0.59935 0.21165 0.0
H153 H 0.78617 0.6105 0.2891 0.0
H154 H 0.78415 0.38608 0.26627 0.0
H155 H 0.78454 0.39745 0.3443 0.0
H156 H 0.82221 0.40443 0.1911 0.0
H157 H 0.82308 0.44757 0.13938 0.0
C158 C 0.53888 0.76254 0.8238 0.0
C159 C 0.51022 0.78722 0.86256 0.0
C160 C 0.47146 0.81683 0.77288 0.0
C161 C 0.50384 0.79693 0.73468 0.0
N162 N 0.56997 0.75279 0.72272 0.0
N163 N 0.45272 0.84258 0.87398 0.0
C164 C 0.53786 0.77002 0.75981 0.0
C165 C 0.47707 0.81527 0.83713 0.0
N166 N 0.56618 0.73109 0.84815 0.0
N167 N 0.43487 0.8368 0.74761 0.0
H168 H 0.45569 0.84302 0.92119 0.0
H169 H 0.43231 0.86767 0.85761 0.0
H170 H 0.42969 0.83884 0.70075 0.0
H171 H 0.40763 0.84766 0.77284 0.0
H172 H 0.58484 0.70905 0.82216 0.0
H173 H 0.56712 0.72434 0.89455 0.0
H174 H 0.59866 0.73716 0.73871 0.0
H175 H 0.56924 0.75653 0.67561 0.0
C176 C 0.7655 0.48463 0.76059 0.0
C177 C 0.80032 0.49316 0.71883 0.0
C178 C 0.84253 0.53421 0.79698 0.0
C179 C 0.80637 0.52845 0.83773 0.0
N180 N 0.73042 0.50475 0.85601 0.0
N181 N 0.86785 0.53268 0.69277 0.0
C182 C 0.76693 0.50544 0.81894 0.0
C183 C 0.83739 0.5203 0.73555 0.0
N184 N 0.73156 0.45604 0.7448 0.0
N185 N 0.88285 0.55035 0.8178 0.0
H186 H 0.86607 0.52211 0.64752 0.0
H187 H 0.89282 0.5563 0.70091 0.0
H188 H 0.88879 0.55951 0.863 0.0
H189 H 0.91182 0.55048 0.79179 0.0
H190 H 0.70802 0.44436 0.77546 0.0
H191 H 0.72844 0.44194 0.70143 0.0
H192 H 0.69918 0.49245 0.84248 0.0
H193 H 0.73028 0.5198 0.89891 0.0
C194 C 0.49377 0.81449 0.2504 0.0
C195 C 0.53053 0.7878 0.23283 0.0
C196 C 0.53295 0.75501 0.33491 0.0
C197 C 0.49476 0.77994 0.3514 0.0
N198 N 0.43573 0.83041 0.32374 0.0
N199 N 0.58106 0.72811 0.25425 0.0
C200 C 0.47407 0.8085 0.30858 0.0
C201 C 0.54901 0.75682 0.27408 0.0
N202 N 0.4795 0.84759 0.21311 0.0
N203 N 0.55415 0.72994 0.37766 0.0
H204 H 0.59322 0.72841 0.21001 0.0
H205 H 0.59296 0.7017 0.27954 0.0
H206 H 0.54213 0.72615 0.42168 0.0
H207 H 0.58508 0.71505 0.37099 0.0
H208 H 0.45699 0.87195 0.22625 0.0
H209 H 0.49253 0.85293 0.17 0.0
H210 H 0.41561 0.84665 0.29229 0.0
H211 H 0.42246 0.83068 0.36741 0.0
C212 C 0.18747 0.5379 0.83481 0.0
C213 C 0.22359 0.50933 0.84833 0.0
C214 C 0.25544 0.52258 0.74765 0.0
C215 C 0.21669 0.54699 0.73177 0.0
N216 N 0.142 0.5714 0.75668 0.0
N217 N 0.29025 0.47107 0.81735 0.0
C218 C 0.18185 0.55336 0.77458 0.0
C219 C 0.25719 0.50074 0.80466 0.0
N220 N 0.1581 0.54989 0.87936 0.0
N221 N 0.29107 0.52148 0.70906 0.0
H222 H 0.29374 0.45623 0.85974 0.0
H223 H 0.31265 0.4593 0.78508 0.0
H224 H 0.291 0.53743 0.66723 0.0
H225 H 0.322 0.50802 0.72046 0.0
H226 H 0.1344 0.57471 0.87403 0.0
H227 H 0.15959 0.53774 0.92348 0.0
H228 H 0.11355 0.57184 0.78372 0.0
H229 H 0.1356 0.58208 0.71265 0.0
C230 C 0.52412 0.22573 0.30241 0.0
C231 C 0.51657 0.18979 0.3421 0.0
C232 C 0.4734 0.15106 0.26238 0.0
C233 C 0.47778 0.18853 0.22436 0.0
N234 N 0.50032 0.26463 0.21191 0.0
N235 N 0.47767 0.12171 0.36423 0.0
C236 C 0.50127 0.22678 0.24535 0.0
C237 C 0.48899 0.15366 0.32351 0.0
N238 N 0.55371 0.25849 0.31882 0.0
N239 N 0.45684 0.11202 0.23913 0.0
H240 H 0.48924 0.12188 0.40906 0.0
H241 H 0.45378 0.09719 0.35518 0.0
H242 H 0.44645 0.10797 0.19404 0.0
H243 H 0.45765 0.08233 0.26268 0.0
H244 H 0.56467 0.28285 0.28921 0.0
H245 H 0.56963 0.25956 0.36115 0.0
H246 H 0.51281 0.29492 0.22773 0.0
H247 H 0.48349 0.2668 0.17028 0.0
C248 C 0.97584 0.45199 1.02011 0.0
C249 C 0.96831 0.49837 1.01822 0.0
C250 C 0.04709 0.51125 0.04543 0.0
C251 C 0.05597 0.46539 0.037 0.0
N252 N 0.02914 0.39318 1.00474 0.0
N253 N 0.99921 0.57245 1.01879 0.0
C254 C 0.02044 0.43597 1.02121 0.0
C255 C 1.00459 0.52818 0.02812 0.0
N256 N 0.94053 0.42314 1.02374 0.0
N257 N 0.07835 0.53841 0.07257 0.0
H258 H 0.96902 0.58616 1.00441 0.0
H259 H 0.02591 0.59486 1.01944 0.0
H260 H 0.10884 0.52701 0.08952 0.0
H261 H 0.07181 0.57115 0.08467 0.0
H262 H 0.94458 0.38936 0.03087 0.0
H263 H 0.90736 0.43344 1.02701 0.0
H264 H 1.00464 0.37182 0.98703 0.0
H265 H 0.06144 0.38039 1.00266 0.0
C266 C 0.50734 0.96876 0.48059 0.0
C267 C 0.49311 0.94797 0.53472 0.0
C268 C 0.49281 0.01999 0.5876 0.0
C269 C 0.51129 0.03985 0.53513 0.0
N270 N 0.54055 0.03314 0.43355 0.0
N271 N 0.47513 0.95256 0.64139 0.0
C272 C 0.51999 0.01419 0.48222 0.0
C273 C 0.48611 0.9733 0.58857 0.0
N274 N 0.50669 0.94542 0.42691 0.0
N275 N 0.48174 0.04583 0.63662 0.0
H276 H 0.46796 0.91889 0.64368 0.0
H277 H 0.47541 0.96808 0.68385 0.0
H278 H 0.48938 0.0795 0.63977 0.0
H279 H 0.46296 0.03458 0.67304 0.0
H280 H 0.51216 0.95963 0.38472 0.0
H281 H 0.49618 0.91247 0.42365 0.0
H282 H 0.55247 0.01514 0.39654 0.0
H283 H 0.54875 0.06667 0.43182 0.0
C284 C 0.01815 0.51588 0.51089 0.0
C285 C 0.04109 0.52377 0.56683 0.0
C286 C 0.98266 0.48249 0.62034 0.0
C287 C 0.96221 0.47087 0.56371 0.0
N288 N 0.96697 0.46814 0.45427 0.0
N289 N 0.05127 0.50392 0.67226 0.0
C290 C 0.98193 0.48508 0.50868 0.0
C291 C 0.02514 0.50403 0.62091 0.0
N292 N 0.02961 0.53911 0.46031 0.0
N293 N 0.96087 0.47515 0.67371 0.0
H294 H 0.08356 0.51722 0.67405 0.0
H295 H 0.04287 0.48619 0.71096 0.0
H296 H 0.9292 0.46064 0.67603 0.0
H297 H 0.97235 0.48764 0.71542 0.0
H298 H 0.01104 0.53784 0.41998 0.0
H299 H 0.05488 0.5631 0.46041 0.0
H300 H 0.98288 0.47416 0.41318 0.0
H301 H 0.94167 0.44423 0.45099 0.0
C302 C 0.52089 0.97536 0.09334 0.0
C303 C 0.51533 0.94816 0.04084 0.0
C304 C 0.48198 0.00999 0.98557 0.0
C305 C 0.4919 0.03832 0.03576 0.0
N306 N 0.52378 0.04965 0.13605 0.0
N307 N 0.49807 0.94081 0.93383 0.0
C308 C 0.51231 0.02148 0.08927 0.0
C309 C 0.49764 0.96572 0.98613 0.0
N310 N 0.53261 0.95683 0.14762 0.0
N311 N 0.45761 0.02534 0.93739 0.0
H312 H 0.51083 0.9088 0.93194 0.0
H313 H 0.48993 0.95317 0.89117 0.0
H314 H 0.44617 0.05776 0.93488 0.0
H315 H 0.44536 0.00504 0.90239 0.0
H316 H 0.53222 0.97389 0.18898 0.0
H317 H 0.53943 0.92324 0.1523 0.0
H318 H 0.54356 0.04049 0.17299 0.0
H319 H 0.51552 0.08312 0.13653 0.0
C320 C 0.30877 0.33536 0.10086 0.0
C321 C 0.27256 0.33494 0.05855 0.0
C322 C 0.30858 0.27536 1.00061 0.0
C323 C 0.34348 0.27438 0.04489 0.0
N324 N 0.37024 0.29476 0.14522 0.0
N325 N 0.23339 0.2996 0.97483 0.0
C326 C 0.34144 0.30164 0.09761 0.0
C327 C 0.27102 0.3033 1.01045 0.0
N328 N 0.31374 0.36951 0.14171 0.0
N329 N 0.31232 0.25139 0.94788 0.0
H330 H 0.20545 0.31969 0.98091 0.0
H331 H 0.22832 0.27433 0.94291 0.0
H332 H 0.33911 0.23039 0.93919 0.0
H333 H 0.29058 0.25465 0.91094 0.0
H334 H 0.34215 0.37383 0.16905 0.0
H335 H 0.29181 0.39612 0.14406 0.0
H336 H 0.36732 0.31074 0.18719 0.0
H337 H 0.39409 0.2697 0.14504 0.0
C338 C 0.75195 0.28599 0.54628 0.0
C339 C 0.74866 0.3232 0.50785 0.0
C340 C 0.67096 0.30332 0.48249 0.0
C341 C 0.67239 0.26949 0.52659 0.0
N342 N 0.71278 0.22976 0.60384 0.0
N343 N 0.70348 0.3712 0.44538 0.0
C344 C 0.71267 0.26073 0.55902 0.0
C345 C 0.70787 0.33274 0.47711 0.0
N346 N 0.79274 0.27469 0.56994 0.0
N347 N 0.63457 0.30672 0.44466 0.0
H348 H 0.7295 0.39394 0.43991 0.0
H349 H 0.67296 0.3825 0.42856 0.0
H350 H 0.60671 0.2859 0.44746 0.0
H351 H 0.63367 0.3273 0.407 0.0
H352 H 0.79852 0.24561 0.59359 0.0
H353 H 0.82185 0.29291 0.56165 0.0
H354 H 0.73952 0.2251 0.63373 0.0
H355 H 0.68478 0.21044 0.61391 0.0
C356 C 0.72596 0.66611 0.09142 0.0
C357 C 0.76825 0.68021 0.06953 0.0
C358 C 0.73473 0.74821 0.03042 0.0
C359 C 0.69253 0.734 0.0525 0.0
N360 N 0.64982 0.6857 0.11679 0.0
N361 N 0.81545 0.73724 0.02894 0.0
C362 C 0.6888 0.69488 0.08709 0.0
C363 C 0.77347 0.72229 0.04263 0.0
N364 N 0.7208 0.62433 0.11382 0.0
N365 N 0.73731 0.7852 0.99539 0.0
H366 H 0.84414 0.71855 0.03697 0.0
H367 H 0.8223 0.76917 1.01423 0.0
H368 H 0.70972 0.80518 0.98645 0.0
H369 H 0.76598 0.7948 0.97229 0.0
H370 H 0.68978 0.61013 0.12315 0.0
H371 H 0.7473 0.60241 0.11927 0.0
H372 H 0.64653 0.66043 0.14825 0.0
H373 H 0.62172 0.70593 0.11428 0.0
C374 C 0.307 0.74072 0.48072 0.0
C375 C 0.31409 0.76398 0.53626 0.0
C376 C 0.25443 0.72009 0.58305 0.0
C377 C 0.25491 0.69095 0.5322 0.0
N378 N 0.28021 0.67353 0.43109 0.0
N379 N 0.29514 0.77582 0.64171 0.0
C380 C 0.28032 0.70166 0.48014 0.0
C381 C 0.28722 0.75445 0.58755 0.0
N382 N 0.32567 0.75637 0.42861 0.0
N383 N 0.22323 0.71441 0.62733 0.0
H384 H 0.31871 0.80118 0.64707 0.0
H385 H 0.28046 0.76649 0.68241 0.0
H386 H 0.19868 0.68978 0.62461 0.0
H387 H 0.21873 0.73672 0.66313 0.0
H388 H 0.31895 0.74306 0.3856 0.0
H389 H 0.34444 0.78564 0.42788 0.0
H390 H 0.30209 0.67652 0.39475 0.0
H391 H 0.25946 0.64568 0.42826 0.0
loop_
_geom_bond_atom_site_label_1
_geom_bond_atom_site_label_2
_geom_bond_distance
_geom_bond_site_symmetry_2
_ccdc_geom_bond_type
Mg0 O7 2.141 . S
Mg0 O8 2.048 . S
Mg0 O9 2.048 1_554 S
Mg0 O12 2.141 . S
C1 O2 1.313 1_554 S
C1 O8 1.195 . S
O2 C1 1.313 1_556 S
C3 O4 1.245 . S
C3 O12 1.289 . S
O4 C3 1.245 . S
C5 O6 1.245 . S
C5 O7 1.289 . S
O6 C5 1.245 . S
O7 Mg0 2.141 . S
O7 C5 1.289 . S
O8 Mg0 2.048 . S
O8 C1 1.195 . S
O9 Mg0 2.048 1_556 S
O9 C10 1.195 . S
C10 O9 1.195 . S
C10 O11 1.313 . S
O11 C10 1.313 . S
O12 Mg0 2.141 . S
O12 C3 1.289 . S
Mg13 O20 2.141 . S
Mg13 O21 2.048 . S
Mg13 O22 2.048 . S
Mg13 O25 2.141 . S
C14 O15 1.313 . S
C14 O21 1.195 . S
O15 C14 1.313 . S
C16 O17 1.245 . S
C16 O25 1.289 . S
O17 C16 1.245 . S
C18 O19 1.245 . S
C18 O20 1.289 . S
O19 C18 1.245 . S
O20 Mg13 2.141 . S
O20 C18 1.289 . S
O21 Mg13 2.048 . S
O21 C14 1.195 . S
O22 Mg13 2.048 . S
O22 C23 1.195 . S
C23 O22 1.195 . S
C23 O24 1.313 . S
O24 C23 1.313 . S
O25 Mg13 2.141 . S
O25 C16 1.289 . S
Mg26 O33 2.141 . S
Mg26 O34 2.048 . S
Mg26 O35 2.048 1_554 S
Mg26 O38 2.141 . S
C27 O28 1.313 1_554 S
C27 O34 1.195 . S
O28 C27 1.313 1_556 S
C29 O30 1.245 . S
C29 O38 1.289 . S
O30 C29 1.245 . S
C31 O32 1.245 . S
C31 O33 1.289 . S
O32 C31 1.245 . S
O33 Mg26 2.141 . S
O33 C31 1.289 . S
O34 Mg26 2.048 . S
O34 C27 1.195 . S
O35 Mg26 2.048 1_556 S
O35 C36 1.195 . S
C36 O35 1.195 . S
C36 O37 1.313 . S
O37 C36 1.313 . S
O38 Mg26 2.141 . S
O38 C29 1.289 . S
Mg39 O46 2.141 . S
Mg39 O47 2.048 . S
Mg39 O48 2.048 . S
Mg39 O51 2.141 . S
C40 O41 1.313 . S
C40 O47 1.195 . S
O41 C40 1.313 . S
C42 O43 1.245 . S
C42 O51 1.289 . S
O43 C42 1.245 . S
C44 O45 1.245 . S
C44 O46 1.289 . S
O45 C44 1.245 . S
O46 Mg39 2.141 . S
O46 C44 1.289 . S
O47 Mg39 2.048 . S
O47 C40 1.195 . S
O48 Mg39 2.048 . S
O48 C49 1.195 . S
C49 O48 1.195 . S
C49 O50 1.313 . S
O50 C49 1.313 . S
O51 Mg39 2.141 . S
O51 C42 1.289 . S
Mg52 O59 2.141 . S
Mg52 O60 2.048 . S
Mg52 O61 2.048 . S
Mg52 O64 2.141 . S
C53 O54 1.313 . S
C53 O60 1.195 . S
O54 C53 1.313 . S
C55 O56 1.245 . S
C55 O64 1.289 . S
O56 C55 1.245 . S
C57 O58 1.245 . S
C57 O59 1.289 . S
O58 C57 1.245 . S
O59 Mg52 2.141 . S
O59 C57 1.289 . S
O60 Mg52 2.048 . S
O60 C53 1.195 . S
O61 Mg52 2.048 . S
O61 C62 1.195 . S
C62 O61 1.195 . S
C62 O63 1.313 . S
O63 C62 1.313 . S
O64 Mg52 2.141 . S
O64 C55 1.289 . S
Mg65 O72 2.141 . S
Mg65 O73 2.048 . S
Mg65 O74 2.048 . S
Mg65 O77 2.141 1_554 S
C66 O67 1.313 . S
C66 O73 1.195 . S
O67 C66 1.313 . S
C68 O69 1.245 . S
C68 O77 1.289 . S
O69 C68 1.245 . S
C70 O71 1.245 . S
C70 O72 1.289 . S
O71 C70 1.245 . S
O72 Mg65 2.141 . S
O72 C70 1.289 . S
O73 Mg65 2.048 . S
O73 C66 1.195 . S
O74 Mg65 2.048 . S
O74 C75 1.195 . S
C75 O74 1.195 . S
C75 O76 1.313 . S
O76 C75 1.313 . S
O77 Mg65 2.141 1_556 S
O77 C68 1.289 . S
Mg78 O85 2.141 . S
Mg78 O86 2.048 . S
Mg78 O87 2.048 . S
Mg78 O90 2.141 . S
C79 O80 1.313 . S
C79 O86 1.195 . S
O80 C79 1.313 . S
C81 O82 1.245 . S
C81 O90 1.289 . S
O82 C81 1.245 . S
C83 O84 1.245 . S
C83 O85 1.289 . S
O84 C83 1.245 . S
O85 Mg78 2.141 . S
O85 C83 1.289 . S
O86 Mg78 2.048 . S
O86 C79 1.195 . S
O87 Mg78 2.048 . S
O87 C88 1.195 . S
C88 O87 1.195 . S
C88 O89 1.313 . S
O89 C88 1.313 . S
O90 Mg78 2.141 . S
O90 C81 1.289 . S
Mg91 O98 2.141 . S
Mg91 O99 2.048 . S
Mg91 O100 2.048 . S
Mg91 O103 2.141 1_554 S
C92 O93 1.313 . S
C92 O99 1.195 . S
O93 C92 1.313 . S
C94 O95 1.245 . S
C94 O103 1.289 . S
O95 C94 1.245 . S
C96 O97 1.245 . S
C96 O98 1.289 . S
O97 C96 1.245 . S
O98 Mg91 2.141 . S
O98 C96 1.289 . S
O99 Mg91 2.048 . S
O99 C92 1.195 . S
O100 Mg91 2.048 . S
O100 C101 1.195 . S
C101 O100 1.195 . S
C101 O102 1.313 . S
O102 C101 1.313 . S
O103 Mg91 2.141 1_556 S
O103 C94 1.289 . S
C104 C105 1.363 . S
C104 C110 1.379 . S
C104 N112 1.356 . S
C105 C104 1.363 . S
C105 C111 1.363 . S
C106 C107 1.363 . S
C106 C111 1.379 . S
C106 N113 1.356 . S
C107 C106 1.363 . S
C107 C110 1.363 . S
N108 C110 1.356 . S
N108 H120 0.984 . S
N108 H121 0.985 . S
N109 C111 1.356 . S
N109 H114 0.984 . S
N109 H115 0.985 . S
C110 C104 1.379 . S
C110 C107 1.363 . S
C110 N108 1.356 . S
C111 C105 1.363 . S
C111 C106 1.379 . S
C111 N109 1.356 . S
N112 C104 1.356 . S
N112 H118 0.984 . S
N112 H119 0.984 . S
N113 C106 1.356 . S
N113 H116 0.984 . S
N113 H117 0.985 . S
H114 N109 0.984 . S
H115 N109 0.985 . S
H116 N113 0.984 . S
H117 N113 0.985 . S
H118 N112 0.984 . S
H119 N112 0.984 . S
H120 N108 0.984 . S
H121 N108 0.985 . S
C122 C123 1.363 . S
C122 C128 1.379 . S
C122 N130 1.356 . S
C123 C122 1.363 . S
C123 C129 1.363 . S
C124 C125 1.363 . S
C124 C129 1.379 . S
C124 N131 1.356 . S
C125 C124 1.363 . S
C125 C128 1.363 . S
N126 C128 1.356 . S
N126 H138 0.984 . S
N126 H139 0.985 . S
N127 C129 1.356 . S
N127 H132 0.984 . S
N127 H133 0.985 . S
C128 C122 1.379 . S
C128 C125 1.363 . S
C128 N126 1.356 . S
C129 C123 1.363 . S
C129 C124 1.379 . S
C129 N127 1.356 . S
N130 C122 1.356 . S
N130 H136 0.984 . S
N130 H137 0.984 . S
N131 C124 1.356 . S
N131 H134 0.984 . S
N131 H135 0.985 . S
H132 N127 0.984 . S
H133 N127 0.985 . S
H134 N131 0.984 . S
H135 N131 0.985 . S
H136 N130 0.984 . S
H137 N130 0.984 . S
H138 N126 0.984 . S
H139 N126 0.985 . S
C140 C141 1.363 . S
C140 C146 1.379 . S
C140 N148 1.356 . S
C141 C140 1.363 . S
C141 C147 1.363 . S
C142 C143 1.363 . S
C142 C147 1.379 . S
C142 N149 1.356 . S
C143 C142 1.363 . S
C143 C146 1.363 . S
N144 C146 1.356 . S
N144 H156 0.984 . S
N144 H157 0.985 . S
N145 C147 1.356 . S
N145 H150 0.984 . S
N145 H151 0.985 . S
C146 C140 1.379 . S
C146 C143 1.363 . S
C146 N144 1.356 . S
C147 C141 1.363 . S
C147 C142 1.379 . S
C147 N145 1.356 . S
N148 C140 1.356 . S
N148 H154 0.984 . S
N148 H155 0.984 . S
N149 C142 1.356 . S
N149 H152 0.984 . S
N149 H153 0.985 . S
H150 N145 0.984 . S
H151 N145 0.985 . S
H152 N149 0.984 . S
H153 N149 0.985 . S
H154 N148 0.984 . S
H155 N148 0.984 . S
H156 N144 0.984 . S
H157 N144 0.985 . S
C158 C159 1.363 . S
C158 C164 1.379 . S
C158 N166 1.356 . S
C159 C158 1.363 . S
C159 C165 1.363 . S
C160 C161 1.363 . S
C160 C165 1.379 . S
C160 N167 1.356 . S
C161 C160 1.363 . S
C161 C164 1.363 . S
N162 C164 1.356 . S
N162 H174 0.984 . S
N162 H175 0.985 . S
N163 C165 1.356 . S
N163 H168 0.984 . S
N163 H169 0.985 . S
C164 C158 1.379 . S
C164 C161 1.363 . S
C164 N162 1.356 . S
C165 C159 1.363 . S
C165 C160 1.379 . S
C165 N163 1.356 . S
N166 C158 1.356 . S
N166 H172 0.984 . S
N166 H173 0.984 . S
N167 C160 1.356 . S
N167 H170 0.984 . S
N167 H171 0.985 . S
H168 N163 0.984 . S
H169 N163 0.985 . S
H170 N167 0.984 . S
H171 N167 0.985 . S
H172 N166 0.984 . S
H173 N166 0.984 . S
H174 N162 0.984 . S
H175 N162 0.985 . S
C176 C177 1.363 . S
C176 C182 1.379 . S
C176 N184 1.356 . S
C177 C176 1.363 . S
C177 C183 1.363 . S
C178 C179 1.363 . S
C178 C183 1.379 . S
C178 N185 1.356 . S
C179 C178 1.363 . S
C179 C182 1.363 . S
N180 C182 1.356 . S
N180 H192 0.984 . S
N180 H193 0.985 . S
N181 C183 1.356 . S
N181 H186 0.984 . S
N181 H187 0.985 . S
C182 C176 1.379 . S
C182 C179 1.363 . S
C182 N180 1.356 . S
C183 C177 1.363 . S
C183 C178 1.379 . S
C183 N181 1.356 . S
N184 C176 1.356 . S
N184 H190 0.984 . S
N184 H191 0.984 . S
N185 C178 1.356 . S
N185 H188 0.984 . S
N185 H189 0.985 . S
H186 N181 0.984 . S
H187 N181 0.985 . S
H188 N185 0.984 . S
H189 N185 0.985 . S
H190 N184 0.984 . S
H191 N184 0.984 . S
H192 N180 0.984 . S
H193 N180 0.985 . S
C194 C195 1.363 . S
C194 C200 1.379 . S
C194 N202 1.356 . S
C195 C194 1.363 . S
C195 C201 1.363 . S
C196 C197 1.363 . S
C196 C201 1.379 . S
C196 N203 1.356 . S
C197 C196 1.363 . S
C197 C200 1.363 . S
N198 C200 1.356 . S
N198 H210 0.984 . S
N198 H211 0.985 . S
N199 C201 1.356 . S
N199 H204 0.984 . S
N199 H205 0.985 . S
C200 C194 1.379 . S
C200 C197 1.363 . S
C200 N198 1.356 . S
C201 C195 1.363 . S
C201 C196 1.379 . S
C201 N199 1.356 . S
N202 C194 1.356 . S
N202 H208 0.984 . S
N202 H209 0.984 . S
N203 C196 1.356 . S
N203 H206 0.984 . S
N203 H207 0.985 . S
H204 N199 0.984 . S
H205 N199 0.985 . S
H206 N203 0.984 . S
H207 N203 0.985 . S
H208 N202 0.984 . S
H209 N202 0.984 . S
H210 N198 0.984 . S
H211 N198 0.985 . S
C212 C213 1.363 . S
C212 C218 1.379 . S
C212 N220 1.356 . S
C213 C212 1.363 . S
C213 C219 1.363 . S
C214 C215 1.363 . S
C214 C219 1.379 . S
C214 N221 1.356 . S
C215 C214 1.363 . S
C215 C218 1.363 . S
N216 C218 1.356 . S
N216 H228 0.984 . S
N216 H229 0.985 . S
N217 C219 1.356 . S
N217 H222 0.984 . S
N217 H223 0.985 . S
C218 C212 1.379 . S
C218 C215 1.363 . S
C218 N216 1.356 . S
C219 C213 1.363 . S
C219 C214 1.379 . S
C219 N217 1.356 . S
N220 C212 1.356 . S
N220 H226 0.984 . S
N220 H227 0.984 . S
N221 C214 1.356 . S
N221 H224 0.984 . S
N221 H225 0.985 . S
H222 N217 0.984 . S
H223 N217 0.985 . S
H224 N221 0.984 . S
H225 N221 0.985 . S
H226 N220 0.984 . S
H227 N220 0.984 . S
H228 N216 0.984 . S
H229 N216 0.985 . S
C230 C231 1.363 . S
C230 C236 1.379 . S
C230 N238 1.356 . S
C231 C230 1.363 . S
C231 C237 1.363 . S
C232 C233 1.363 . S
C232 C237 1.379 . S
C232 N239 1.356 . S
C233 C232 1.363 . S
C233 C236 1.363 . S
N234 C236 1.356 . S
N234 H246 0.984 . S
N234 H247 0.985 . S
N235 C237 1.356 . S
N235 H240 0.984 . S
N235 H241 0.985 . S
C236 C230 1.379 . S
C236 C233 1.363 . S
C236 N234 1.356 . S
C237 C231 1.363 . S
C237 C232 1.379 . S
C237 N235 1.356 . S
N238 C230 1.356 . S
N238 H244 0.984 . S
N238 H245 0.984 . S
N239 C232 1.356 . S
N239 H242 0.984 . S
N239 H243 0.985 . S
H240 N235 0.984 . S
H241 N235 0.985 . S
H242 N239 0.984 . S
H243 N239 0.985 . S
H244 N238 0.984 . S
H245 N238 0.984 . S
H246 N234 0.984 . S
H247 N234 0.985 . S
C248 C249 1.363 1_556 S
C248 C254 1.379 1_655 S
C248 N256 1.356 . S
C249 C248 1.363 1_554 S
C249 C255 1.363 . S
C250 C251 1.363 . S
C250 C255 1.379 1_455 S
C250 N257 1.356 . S
C251 C250 1.363 . S
C251 C254 1.363 1_554 S
N252 C254 1.356 . S
N252 H264 0.984 . S
N252 H265 0.985 . S
N253 C255 1.356 . S
N253 H258 0.984 . S
N253 H259 0.985 . S
C254 C248 1.379 1_455 S
C254 C251 1.363 1_556 S
C254 N252 1.356 . S
C255 C249 1.363 . S
C255 C250 1.379 1_655 S
C255 N253 1.356 . S
N256 C248 1.356 . S
N256 H262 0.984 . S
N256 H263 0.984 . S
N257 C250 1.356 . S
N257 H260 0.984 . S
N257 H261 0.985 . S
H258 N253 0.984 . S
H259 N253 0.985 . S
H260 N257 0.984 . S
H261 N257 0.985 . S
H262 N256 0.984 . S
H263 N256 0.984 . S
H264 N252 0.984 . S
H265 N252 0.985 . S
C266 C267 1.363 . S
C266 C272 1.379 1_565 S
C266 N274 1.356 . S
C267 C266 1.363 . S
C267 C273 1.363 . S
C268 C269 1.363 . S
C268 C273 1.379 1_545 S
C268 N275 1.356 . S
C269 C268 1.363 . S
C269 C272 1.363 . S
N270 C272 1.356 . S
N270 H282 0.984 . S
N270 H283 0.985 . S
N271 C273 1.356 . S
N271 H276 0.984 . S
N271 H277 0.985 . S
C272 C266 1.379 1_545 S
C272 C269 1.363 . S
C272 N270 1.356 . S
C273 C267 1.363 . S
C273 C268 1.379 1_565 S
C273 N271 1.356 . S
N274 C266 1.356 . S
N274 H280 0.984 . S
N274 H281 0.984 . S
N275 C268 1.356 . S
N275 H278 0.984 . S
N275 H279 0.985 . S
H276 N271 0.984 . S
H277 N271 0.985 . S
H278 N275 0.984 . S
H279 N275 0.985 . S
H280 N274 0.984 . S
H281 N274 0.984 . S
H282 N270 0.984 . S
H283 N270 0.985 . S
C284 C285 1.363 . S
C284 C290 1.379 1_455 S
C284 N292 1.356 . S
C285 C284 1.363 . S
C285 C291 1.363 . S
C286 C287 1.363 . S
C286 C291 1.379 1_655 S
C286 N293 1.356 . S
C287 C286 1.363 . S
C287 C290 1.363 . S
N288 C290 1.356 . S
N288 H300 0.984 . S
N288 H301 0.985 . S
N289 C291 1.356 . S
N289 H294 0.984 . S
N289 H295 0.985 . S
C290 C284 1.379 1_655 S
C290 C287 1.363 . S
C290 N288 1.356 . S
C291 C285 1.363 . S
C291 C286 1.379 1_455 S
C291 N289 1.356 . S
N292 C284 1.356 . S
N292 H298 0.984 . S
N292 H299 0.984 . S
N293 C286 1.356 . S
N293 H296 0.984 . S
N293 H297 0.985 . S
H294 N289 0.984 . S
H295 N289 0.985 . S
H296 N293 0.984 . S
H297 N293 0.985 . S
H298 N292 0.984 . S
H299 N292 0.984 . S
H300 N288 0.984 . S
H301 N288 0.985 . S
C302 C303 1.363 . S
C302 C308 1.379 1_565 S
C302 N310 1.356 . S
C303 C302 1.363 . S
C303 C309 1.363 1_554 S
C304 C305 1.363 1_556 S
C304 C309 1.379 1_545 S
C304 N311 1.356 . S
C305 C304 1.363 1_554 S
C305 C308 1.363 . S
N306 C308 1.356 . S
N306 H318 0.984 . S
N306 H319 0.985 . S
N307 C309 1.356 . S
N307 H312 0.984 . S
N307 H313 0.985 . S
C308 C302 1.379 1_545 S
C308 C305 1.363 . S
C308 N306 1.356 . S
C309 C303 1.363 1_556 S
C309 C304 1.379 1_565 S
C309 N307 1.356 . S
N310 C302 1.356 . S
N310 H316 0.984 . S
N310 H317 0.984 . S
N311 C304 1.356 . S
N311 H314 0.984 . S
N311 H315 0.985 . S
H312 N307 0.984 . S
H313 N307 0.985 . S
H314 N311 0.984 . S
H315 N311 0.985 . S
H316 N310 0.984 . S
H317 N310 0.984 . S
H318 N306 0.984 . S
H319 N306 0.985 . S
C320 C321 1.363 . S
C320 C326 1.379 . S
C320 N328 1.356 . S
C321 C320 1.363 . S
C321 C327 1.363 1_554 S
C322 C323 1.363 1_556 S
C322 C327 1.379 . S
C322 N329 1.356 . S
C323 C322 1.363 1_554 S
C323 C326 1.363 . S
N324 C326 1.356 . S
N324 H336 0.984 . S
N324 H337 0.985 . S
N325 C327 1.356 . S
N325 H330 0.984 . S
N325 H331 0.985 . S
C326 C320 1.379 . S
C326 C323 1.363 . S
C326 N324 1.356 . S
C327 C321 1.363 1_556 S
C327 C322 1.379 . S
C327 N325 1.356 . S
N328 C320 1.356 . S
N328 H334 0.984 . S
N328 H335 0.984 . S
N329 C322 1.356 . S
N329 H332 0.984 . S
N329 H333 0.985 . S
H330 N325 0.984 . S
H331 N325 0.985 . S
H332 N329 0.984 . S
H333 N329 0.985 . S
H334 N328 0.984 . S
H335 N328 0.984 . S
H336 N324 0.984 . S
H337 N324 0.985 . S
C338 C339 1.363 . S
C338 C344 1.379 . S
C338 N346 1.356 . S
C339 C338 1.363 . S
C339 C345 1.363 . S
C340 C341 1.363 . S
C340 C345 1.379 . S
C340 N347 1.356 . S
C341 C340 1.363 . S
C341 C344 1.363 . S
N342 C344 1.356 . S
N342 H354 0.984 . S
N342 H355 0.985 . S
N343 C345 1.356 . S
N343 H348 0.984 . S
N343 H349 0.985 . S
C344 C338 1.379 . S
C344 C341 1.363 . S
C344 N342 1.356 . S
C345 C339 1.363 . S
C345 C340 1.379 . S
C345 N343 1.356 . S
N346 C338 1.356 . S
N346 H352 0.984 . S
N346 H353 0.984 . S
N347 C340 1.356 . S
N347 H350 0.984 . S
N347 H351 0.985 . S
H348 N343 0.984 . S
H349 N343 0.985 . S
H350 N347 0.984 . S
H351 N347 0.985 . S
H352 N346 0.984 . S
H353 N346 0.984 . S
H354 N342 0.984 . S
H355 N342 0.985 . S
C356 C357 1.363 . S
C356 C362 1.379 . S
C356 N364 1.356 . S
C357 C356 1.363 . S
C357 C363 1.363 1_554 S
C358 C359 1.363 1_556 S
C358 C363 1.379 . S
C358 N365 1.356 . S
C359 C358 1.363 1_554 S
C359 C362 1.363 . S
N360 C362 1.356 . S
N360 H372 0.984 . S
N360 H373 0.985 . S
N361 C363 1.356 . S
N361 H366 0.984 . S
N361 H367 0.985 . S
C362 C356 1.379 . S
C362 C359 1.363 . S
C362 N360 1.356 . S
C363 C357 1.363 1_556 S
C363 C358 1.379 . S
C363 N361 1.356 . S
N364 C356 1.356 . S
N364 H370 0.984 . S
N364 H371 0.984 . S
N365 C358 1.356 . S
N365 H368 0.984 . S
N365 H369 0.985 . S
H366 N361 0.984 . S
H367 N361 0.985 . S
H368 N365 0.984 . S
H369 N365 0.985 . S
H370 N364 0.984 . S
H371 N364 0.984 . S
H372 N360 0.984 . S
H373 N360 0.985 . S
C374 C375 1.363 . S
C374 C380 1.379 . S
C374 N382 1.356 . S
C375 C374 1.363 . S
C375 C381 1.363 . S
C376 C377 1.363 . S
C376 C381 1.379 . S
C376 N383 1.356 . S
C377 C376 1.363 . S
C377 C380 1.363 . S
N378 C380 1.356 . S
N378 H390 0.984 . S
N378 H391 0.985 . S
N379 C381 1.356 . S
N379 H384 0.984 . S
N379 H385 0.985 . S
C380 C374 1.379 . S
C380 C377 1.363 . S
C380 N378 1.356 . S
C381 C375 1.363 . S
C381 C376 1.379 . S
C381 N379 1.356 . S
N382 C374 1.356 . S
N382 H388 0.984 . S
N382 H389 0.984 . S
N383 C376 1.356 . S
N383 H386 0.984 . S
N383 H387 0.985 . S
H384 N379 0.984 . S
H385 N379 0.985 . S
H386 N383 0.984 . S
H387 N383 0.985 . S
H388 N382 0.984 . S
H389 N382 0.984 . S
H390 N378 0.984 . S
H391 N378 0.985 . S
C105 C5 1.545 . S
C107 C53 1.537 . S
C123 C16 1.490 . S
C125 C68 1.490 . S
C141 C83 1.533 . S
C143 C31 1.533 . S
C159 C94 1.488 . S
C161 C42 1.488 . S
C177 C88 1.629 . S
C179 C36 1.629 . S
C195 C92 1.587 . S
C197 C40 1.586 . S
C213 C10 1.615 . S
C215 C55 1.624 . S
C231 C14 1.585 . S
C233 C66 1.585 . S
C249 C27 1.924 . S
C251 C1 1.923 . S
C267 C49 2.053 . S
C269 C23 2.053 . S
C285 C62 1.924 . S
C287 C79 1.924 . S
C303 C101 2.053 . S
C305 C75 2.053 . S
C321 C3 1.801 . S
C323 C70 1.872 . S
C339 C81 1.801 . S
C341 C18 1.872 . S
C357 C29 1.801 . S
C359 C96 1.872 . S
C375 C44 1.872 . S
C377 C57 1.804 . S
