# Generated by pormake.
# Topology yfb, (5)-cn, num edge types: 1
# Building blocks:
#     Node 0, Type 0, BuildingBlock: XOMCOT_clean_sbu_1, # of connection points: 5
#     Node 1, Type 0, BuildingBlock: XOMCOT_clean_sbu_1, # of connection points: 5
#     Node 2, Type 0, BuildingBlock: XOMCOT_clean_sbu_1, # of connection points: 5
#     Node 3, Type 0, BuildingBlock: XOMCOT_clean_sbu_1, # of connection points: 5
#     Node 4, Type 0, BuildingBlock: XOMCOT_clean_sbu_1, # of connection points: 5
#     Node 5, Type 0, BuildingBlock: XOMCOT_clean_sbu_1, # of connection points: 5
#     Node 6, Type 0, BuildingBlock: XOMCOT_clean_sbu_1, # of connection points: 5
#     Node 7, Type 0, BuildingBlock: XOMCOT_clean_sbu_1, # of connection points: 5
#     Node 8, Type 0, BuildingBlock: XOMCOT_clean_sbu_1, # of connection points: 5
#     Node 9, Type 0, BuildingBlock: XOMCOT_clean_sbu_1, # of connection points: 5
#     Node 10, Type 0, BuildingBlock: XOMCOT_clean_sbu_1, # of connection points: 5
#     Node 11, Type 0, BuildingBlock: XOMCOT_clean_sbu_1, # of connection points: 5
#     Node 12, Type 0, BuildingBlock: XOMCOT_clean_sbu_1, # of connection points: 5
#     Node 13, Type 0, BuildingBlock: XOMCOT_clean_sbu_1, # of connection points: 5
#     Node 14, Type 0, BuildingBlock: XOMCOT_clean_sbu_1, # of connection points: 5
#     Node 15, Type 0, BuildingBlock: XOMCOT_clean_sbu_1, # of connection points: 5
#     Edge 16, Type (0, 0), BuildingBlock: KIFKEQ_clean_linker_1, # of connection points: 2
#     Edge 17, Type (0, 0), BuildingBlock: KIFKEQ_clean_linker_1, # of connection points: 2
#     Edge 18, Type (0, 0), BuildingBlock: KIFKEQ_clean_linker_1, # of connection points: 2
#     Edge 19, Type (0, 0), BuildingBlock: KIFKEQ_clean_linker_1, # of connection points: 2
#     Edge 20, Type (0, 0), BuildingBlock: KIFKEQ_clean_linker_1, # of connection points: 2
#     Edge 21, Type (0, 0), BuildingBlock: KIFKEQ_clean_linker_1, # of connection points: 2
#     Edge 22, Type (0, 0), BuildingBlock: KIFKEQ_clean_linker_1, # of connection points: 2
#     Edge 23, Type (0, 0), BuildingBlock: KIFKEQ_clean_linker_1, # of connection points: 2
#     Edge 24, Type (0, 0), BuildingBlock: KIFKEQ_clean_linker_1, # of connection points: 2
#     Edge 25, Type (0, 0), BuildingBlock: KIFKEQ_clean_linker_1, # of connection points: 2
#     Edge 26, Type (0, 0), BuildingBlock: KIFKEQ_clean_linker_1, # of connection points: 2
#     Edge 27, Type (0, 0), BuildingBlock: KIFKEQ_clean_linker_1, # of connection points: 2
#     Edge 28, Type (0, 0), BuildingBlock: KIFKEQ_clean_linker_1, # of connection points: 2
#     Edge 29, Type (0, 0), BuildingBlock: KIFKEQ_clean_linker_1, # of connection points: 2
#     Edge 30, Type (0, 0), BuildingBlock: KIFKEQ_clean_linker_1, # of connection points: 2
#     Edge 31, Type (0, 0), BuildingBlock: KIFKEQ_clean_linker_1, # of connection points: 2
#     Edge 32, Type (0, 0), BuildingBlock: KIFKEQ_clean_linker_1, # of connection points: 2
#     Edge 33, Type (0, 0), BuildingBlock: KIFKEQ_clean_linker_1, # of connection points: 2
#     Edge 34, Type (0, 0), BuildingBlock: KIFKEQ_clean_linker_1, # of connection points: 2
#     Edge 35, Type (0, 0), BuildingBlock: KIFKEQ_clean_linker_1, # of connection points: 2
#     Edge 36, Type (0, 0), BuildingBlock: KIFKEQ_clean_linker_1, # of connection points: 2
#     Edge 37, Type (0, 0), BuildingBlock: KIFKEQ_clean_linker_1, # of connection points: 2
#     Edge 38, Type (0, 0), BuildingBlock: KIFKEQ_clean_linker_1, # of connection points: 2
#     Edge 39, Type (0, 0), BuildingBlock: KIFKEQ_clean_linker_1, # of connection points: 2
#     Edge 40, Type (0, 0), BuildingBlock: KIFKEQ_clean_linker_1, # of connection points: 2
#     Edge 41, Type (0, 0), BuildingBlock: KIFKEQ_clean_linker_1, # of connection points: 2
#     Edge 42, Type (0, 0), BuildingBlock: KIFKEQ_clean_linker_1, # of connection points: 2
#     Edge 43, Type (0, 0), BuildingBlock: KIFKEQ_clean_linker_1, # of connection points: 2
#     Edge 44, Type (0, 0), BuildingBlock: KIFKEQ_clean_linker_1, # of connection points: 2
#     Edge 45, Type (0, 0), BuildingBlock: KIFKEQ_clean_linker_1, # of connection points: 2
#     Edge 46, Type (0, 0), BuildingBlock: KIFKEQ_clean_linker_1, # of connection points: 2
#     Edge 47, Type (0, 0), BuildingBlock: KIFKEQ_clean_linker_1, # of connection points: 2
#     Edge 48, Type (0, 0), BuildingBlock: KIFKEQ_clean_linker_1, # of connection points: 2
#     Edge 49, Type (0, 0), BuildingBlock: KIFKEQ_clean_linker_1, # of connection points: 2
#     Edge 50, Type (0, 0), BuildingBlock: KIFKEQ_clean_linker_1, # of connection points: 2
#     Edge 51, Type (0, 0), BuildingBlock: KIFKEQ_clean_linker_1, # of connection points: 2
#     Edge 52, Type (0, 0), BuildingBlock: KIFKEQ_clean_linker_1, # of connection points: 2
#     Edge 53, Type (0, 0), BuildingBlock: KIFKEQ_clean_linker_1, # of connection points: 2
#     Edge 54, Type (0, 0), BuildingBlock: KIFKEQ_clean_linker_1, # of connection points: 2
#     Edge 55, Type (0, 0), BuildingBlock: KIFKEQ_clean_linker_1, # of connection points: 2
# Relax obj value: 0.749
# Max RMSD: 0.274
# Mean RMSD: 0.274
data_MOF--net-yfb--node1-XOMCOT_clean_sbu_1--edge1-KIFKEQ_clean_linker_1
_symmetry_space_group_name_H-M    P1
_symmetry_Int_Tables_number       1
_symmetry_cell_setting            triclinic
loop_
_symmetry_equiv_pos_as_xyz
'x, y, z'
_cell_length_a     42.348446
_cell_length_b     42.314794
_cell_length_c     43.904582
_cell_angle_alpha  89.806858
_cell_angle_beta   90.034037
_cell_angle_gamma 90.008825
loop_
_atom_site_label
_atom_site_type_symbol
_atom_site_fract_x
_atom_site_fract_y
_atom_site_fract_z
_atom_type_partial_charge
C0 C 0.6331 0.01993 0.1223 0.0
C1 C 0.60602 1.00773 0.10934 0.0
N2 N 0.59481 0.02866 0.08871 0.0
N3 N 0.63902 0.04856 0.11012 0.0
C4 C 0.61514 0.05333 0.09004 0.0
H5 H 0.64838 1.00787 0.13829 0.0
Co6 Co 0.67581 0.07325 0.11375 0.0
C7 C 0.6521 0.14091 0.11298 0.0
O8 O 0.67933 0.15285 0.1046 0.0
N9 N 0.71307 0.09793 0.11743 0.0
C10 C 0.75687 0.12479 0.10708 0.0
C11 C 0.73782 0.10009 0.09822 0.0
C12 C 0.7191 0.1199 0.13906 0.0
N13 N 0.74457 0.13795 0.13239 0.0
O14 O 0.67545 0.06956 0.15748 0.0
H15 H 0.74077 0.08619 0.07781 0.0
H16 H 0.70288 0.12485 0.15745 0.0
O17 O 0.64833 0.11101 0.11556 0.0
C18 C 0.69732 0.05025 0.16506 0.0
O19 O 0.71001 0.03298 0.14344 0.0
N20 N 0.67887 0.07404 0.07109 0.0
C21 C 0.70243 0.06841 0.01202 0.0
C22 C 0.68949 0.09714 0.02232 0.0
C23 C 0.67732 0.09931 0.05181 0.0
C24 C 0.68803 0.04525 0.0605 0.0
C25 C 0.69908 0.04172 0.03083 0.0
H26 H 0.66898 0.12186 0.05936 0.0
H27 H 0.68868 0.02523 0.07587 0.0
H28 H 0.61366 0.07406 0.07564 0.0
H29 H 0.59651 0.9844 0.11361 0.0
H30 H 0.77648 0.13414 0.09406 0.0
H31 H 0.69102 0.1186 1.00897 0.0
H32 H 0.70707 0.01862 0.0237 0.0
C33 C 0.51945 0.64402 0.11168 0.0
C34 C 0.53164 0.61624 0.10029 0.0
N35 N 0.50861 0.60084 0.08508 0.0
N36 N 0.48878 0.6463 0.10392 0.0
C37 C 0.48274 0.61935 0.08833 0.0
H38 H 0.53269 0.6624 0.12301 0.0
Co39 Co 0.4646 0.68349 0.10549 0.0
C40 C 0.39852 0.66309 0.09517 0.0
O41 O 0.39381 0.68769 0.07741 0.0
N42 N 0.4406 0.72165 0.10741 0.0
C43 C 0.42133 0.77 0.1001 0.0
C44 C 0.44567 0.74969 0.09352 0.0
C45 C 0.4141 0.7266 0.12406 0.0
N46 N 0.40083 0.75526 0.11888 0.0
O47 O 0.46606 0.68417 0.14929 0.0
H48 H 0.46548 0.75542 0.07914 0.0
H49 H 0.40391 0.70854 0.13845 0.0
O50 O 0.42569 0.65793 0.10693 0.0
C51 C 0.4844 0.70616 0.1584 0.0
O52 O 0.50287 0.71976 0.13817 0.0
N53 N 0.46548 0.68497 0.06253 0.0
C54 C 0.46547 0.70319 1.0016 0.0
C55 C 0.44774 0.67695 1.01131 0.0
C56 C 0.44797 0.66825 0.042 0.0
C57 C 0.48761 0.70576 0.05232 0.0
C58 C 0.48743 0.71604 0.02212 0.0
H59 H 0.43294 0.64906 0.049 0.0
H60 H 0.50348 0.71675 0.06844 0.0
H61 H 0.46037 0.61446 0.07759 0.0
H62 H 0.55604 0.60887 0.10191 0.0
H63 H 0.41869 0.79344 0.09061 0.0
H64 H 0.43208 0.66461 0.9959 0.0
H65 H 0.50242 0.73575 0.01599 0.0
C66 C 0.8801 0.49386 0.1249 0.0
C67 C 0.90724 0.50698 0.11297 0.0
N68 N 0.92171 0.48523 0.09541 0.0
N69 N 0.87731 0.46385 0.11513 0.0
C70 C 0.90327 0.4592 0.09763 0.0
H71 H 0.86277 0.50608 0.13854 0.0
Co72 Co 0.84175 0.43735 0.11838 0.0
C73 C 0.86716 0.37175 0.11605 0.0
O74 O 0.84237 0.36214 0.10067 0.0
N75 N 0.80552 0.41087 0.12182 0.0
C76 C 0.76142 0.3841 0.11238 0.0
C77 C 0.7795 0.40969 0.1041 0.0
C78 C 0.80134 0.38696 0.14208 0.0
N79 N 0.77553 0.36916 0.13591 0.0
O80 O 0.84004 0.44256 0.16175 0.0
H81 H 0.77438 0.42526 0.08527 0.0
H82 H 0.81858 0.38121 0.15941 0.0
O83 O 0.87036 0.40089 0.12303 0.0
C84 C 0.81846 0.46271 0.1676 0.0
O85 O 0.80629 0.47869 0.14471 0.0
N86 N 0.84069 0.43484 0.07567 0.0
C87 C 0.82177 0.43287 0.01506 0.0
C88 C 0.84596 0.41294 0.02571 0.0
C89 C 0.85519 0.41434 0.05623 0.0
C90 C 0.82139 0.45782 0.06447 0.0
C91 C 0.81109 0.45698 0.03436 0.0
H92 H 0.87323 0.39833 0.06396 0.0
H93 H 0.81138 0.475 0.07988 0.0
H94 H 0.90753 0.43767 0.08517 0.0
H95 H 0.91501 0.53108 0.11626 0.0
H96 H 0.74081 0.37584 0.1002 0.0
H97 H 0.85626 0.3951 1.01116 0.0
H98 H 0.79272 0.47326 0.02742 0.0
C99 C 0.03588 0.89244 0.11424 0.0
C100 C 0.02021 0.91844 0.10226 0.0
N101 N 0.0375 0.93024 0.07906 0.0
N102 N 0.06295 0.88799 0.09863 0.0
C103 C 0.06296 0.91117 0.07736 0.0
H104 H 0.02748 0.87729 0.13238 0.0
Co105 Co 0.09397 0.85638 0.09848 0.0
C106 C 0.13896 0.90066 0.1012 0.0
O107 O 0.13471 0.89719 0.07177 0.0
N108 N 0.12594 0.82502 0.0969 0.0
C109 C 0.15797 0.78646 0.08144 0.0
C110 C 0.13011 0.80207 0.0759 0.0
C111 C 0.15174 0.82254 0.11505 0.0
N112 N 0.17176 0.79957 0.10591 0.0
O113 O 0.08047 0.8377 0.13673 0.0
H114 H 0.11477 0.79743 0.05683 0.0
H115 H 0.15622 0.8377 0.13431 0.0
O116 O 0.1225 0.884 0.11935 0.0
C117 C 0.0791 0.84642 0.16444 0.0
O118 O 0.08515 0.87592 0.17161 0.0
N119 N 0.06655 0.83059 0.07638 0.0
C120 C 0.03976 0.7882 0.0354 0.0
C121 C 0.05461 0.81599 0.02509 0.0
C122 C 0.06754 0.83698 0.04602 0.0
C123 C 0.04923 0.80576 0.08719 0.0
C124 C 0.03529 0.78445 0.06697 0.0
H125 H 0.08122 0.85687 0.03789 0.0
H126 H 0.0475 0.80098 0.11128 0.0
H127 H 0.08053 0.91303 0.05966 0.0
H128 H 0.99772 0.92766 0.10985 0.0
H129 H 0.1682 0.76814 0.0674 0.0
H130 H 0.05906 0.82026 1.00117 0.0
H131 H 0.02299 0.76411 0.07612 0.0
C132 C 0.62721 0.49813 0.40293 0.0
C133 C 0.59993 0.51017 0.41554 0.0
N134 N 0.59009 0.49044 0.43779 0.0
N135 N 0.63471 0.4708 0.41703 0.0
C136 C 0.61139 0.46658 0.43785 0.0
H137 H 0.64141 0.50954 0.38567 0.0
Co138 Co 0.67285 0.44794 0.41438 0.0
C139 C 0.65513 0.38063 0.42587 0.0
O140 O 0.68185 0.37497 0.44007 0.0
N141 N 0.71139 0.42495 0.41168 0.0
C142 C 0.75755 0.40255 0.42233 0.0
C143 C 0.73767 0.42736 0.42882 0.0
C144 C 0.71692 0.39961 0.3936 0.0
N145 N 0.74417 0.38437 0.40061 0.0
O146 O 0.67111 0.44725 0.37072 0.0
H147 H 0.74157 0.44479 0.44632 0.0
H148 H 0.69949 0.39086 0.37776 0.0
O149 O 0.64837 0.40841 0.41635 0.0
C150 C 0.68963 0.46885 0.36101 0.0
O151 O 0.70077 0.48922 0.38085 0.0
N152 N 0.67726 0.45188 0.45665 0.0
C153 C 0.70214 0.46341 0.51413 0.0
C154 C 0.68323 0.43661 0.50883 0.0
C155 C 0.6704 0.43158 0.47992 0.0
C156 C 0.69144 0.48009 0.46256 0.0
C157 C 0.70388 0.4865 0.49122 0.0
H158 H 0.65617 0.41089 0.47639 0.0
H159 H 0.69533 0.49668 0.44415 0.0
H160 H 0.61123 0.44738 0.45416 0.0
H161 H 0.58883 0.53231 0.40935 0.0
H162 H 0.77912 0.39738 0.43452 0.0
H163 H 0.68036 0.41838 0.52596 0.0
H164 H 0.71699 0.50818 0.49457 0.0
C165 C 0.01842 0.6349 0.3849 0.0
C166 C 1.00606 0.60794 0.39808 0.0
N167 N 0.02526 0.59859 0.42095 0.0
N168 N 0.04547 0.6427 0.39918 0.0
C169 C 0.04915 0.6199 0.42073 0.0
H170 H 1.00755 0.64856 0.36689 0.0
Co171 Co 0.06947 0.68015 0.39524 0.0
C172 C 0.13653 0.65998 0.40565 0.0
O173 O 0.14399 0.68725 0.41789 0.0
N174 N 0.09365 0.71788 0.39131 0.0
C175 C 0.11856 0.7629 0.40128 0.0
C176 C 0.09305 0.7442 0.40854 0.0
C177 C 0.11854 0.72236 0.37235 0.0
N178 N 0.13528 0.74877 0.37897 0.0
O179 O 0.06945 0.67759 0.35138 0.0
H180 H 0.07663 0.74871 0.42679 0.0
H181 H 0.12603 0.70466 0.3562 0.0
O182 O 0.10811 0.65415 0.39751 0.0
C183 C 0.04857 0.69688 0.34147 0.0
O184 O 0.0284 0.70845 0.36127 0.0
N185 N 0.06646 0.68555 0.43755 0.0
C186 C 0.05708 0.71049 0.4954 0.0
C187 C 0.08315 0.69089 0.48938 0.0
C188 C 0.08718 0.6782 0.46031 0.0
C189 C 0.03908 0.70099 0.44405 0.0
C190 C 0.03384 0.71367 0.47285 0.0
H191 H 0.10739 0.66347 0.45632 0.0
H192 H 0.02225 0.70554 0.42602 0.0
H193 H 0.0682 0.61998 0.43711 0.0
H194 H 0.98413 0.59667 0.39166 0.0
H195 H 0.12564 0.78381 0.41363 0.0
H196 H 0.10151 0.68716 0.50618 0.0
H197 H 0.01281 0.72764 0.47672 0.0
C198 C 0.87656 0.01782 0.41088 0.0
C199 C 0.90282 1.00372 0.42383 0.0
N200 N 0.92009 0.02612 0.43797 0.0
N201 N 0.87725 0.04909 0.41653 0.0
C202 C 0.9043 0.05339 0.43257 0.0
H203 H 0.857 1.00564 0.40028 0.0
Co204 Co 0.84339 0.0779 0.41397 0.0
C205 C 0.87345 0.14074 0.42097 0.0
O206 O 0.85024 0.15028 0.43851 0.0
N207 N 0.80907 0.10719 0.41164 0.0
C208 C 0.7657 0.13514 0.42149 0.0
C209 C 0.78213 0.10788 0.42808 0.0
C210 C 0.8073 0.13348 0.3939 0.0
N211 N 0.7819 0.15166 0.40039 0.0
O212 O 0.84131 0.07442 0.37026 0.0
H213 H 0.77515 0.09053 0.44481 0.0
H214 H 0.82555 0.14022 0.37791 0.0
O215 O 0.87405 0.11253 0.41078 0.0
C216 C 0.81723 0.05725 0.36439 0.0
O217 O 0.80365 0.04239 0.38723 0.0
N218 N 0.84234 0.07824 0.4567 0.0
C219 C 0.82626 0.07292 0.51797 0.0
C220 C 0.85122 0.09267 0.50877 0.0
C221 C 0.8592 0.09473 0.4779 0.0
C222 C 0.82134 0.05582 0.4658 0.0
C223 C 0.81252 0.05306 0.49615 0.0
H224 H 0.87848 0.10986 0.47145 0.0
H225 H 0.80961 0.04145 0.4489 0.0
H226 H 0.91129 0.07595 0.44181 0.0
H227 H 0.90739 0.97857 0.42476 0.0
H228 H 0.74458 0.14314 0.433 0.0
H229 H 0.86353 0.10741 0.52503 0.0
H230 H 0.79328 0.03725 0.50179 0.0
C231 C 0.49885 0.87579 0.40618 0.0
C232 C 0.51376 0.90144 0.41919 0.0
N233 N 0.49274 0.91721 0.43658 0.0
N234 N 0.46843 0.87526 0.41506 0.0
C235 C 0.46537 0.90102 0.43315 0.0
H236 H 0.51 0.85776 0.39251 0.0
Co237 Co 0.43948 0.84176 0.41064 0.0
C238 C 0.37605 0.8716 0.41339 0.0
O239 O 0.36494 0.8472 0.42853 0.0
N240 N 0.41033 0.80753 0.40618 0.0
C241 C 0.38146 0.76438 0.41435 0.0
C242 C 0.40782 0.78098 0.42314 0.0
C243 C 0.38618 0.80528 0.38595 0.0
N244 N 0.36731 0.77998 0.39127 0.0
O245 O 0.44564 0.84062 0.36712 0.0
H246 H 0.42321 0.77437 0.44165 0.0
H247 H 0.38131 0.82328 0.36903 0.0
O248 O 0.40526 0.87304 0.40619 0.0
C249 C 0.46266 0.81635 0.36158 0.0
O250 O 0.47552 0.80152 0.38484 0.0
N251 N 0.43631 0.83979 0.45328 0.0
C252 C 0.43459 0.82022 0.51381 0.0
C253 C 0.41555 0.84538 0.50373 0.0
C254 C 0.41692 0.85503 0.47327 0.0
C255 C 0.45829 0.819 0.46382 0.0
C256 C 0.45756 0.80842 0.49384 0.0
H257 H 0.40191 0.87414 0.46607 0.0
H258 H 0.4747 0.80838 0.44801 0.0
H259 H 0.44389 0.9066 0.44521 0.0
H260 H 0.53852 0.9072 0.41679 0.0
H261 H 0.37235 0.74356 0.4257 0.0
H262 H 0.39856 0.85637 0.51877 0.0
H263 H 0.47306 0.7892 0.50031 0.0
C264 C 0.37498 0.99749 0.90994 0.0
C265 C 0.40242 0.01089 0.92093 0.0
N266 N 0.41675 0.99002 0.93975 0.0
N267 N 0.37188 0.96816 0.92154 0.0
C268 C 0.3979 0.96415 0.93915 0.0
H269 H 0.35755 1.00913 0.89583 0.0
Co270 Co 0.3356 0.94252 0.92068 0.0
C271 C 0.35901 0.87628 0.92376 0.0
O272 O 0.33457 0.8675 0.94014 0.0
N273 N 0.29871 0.91697 0.91978 0.0
C274 C 0.25506 0.89084 0.93224 0.0
C275 C 0.27433 0.91587 0.93949 0.0
C276 C 0.29249 0.89352 0.89969 0.0
N277 N 0.26683 0.87616 0.90747 0.0
O278 O 0.33241 0.94597 0.87698 0.0
H279 H 0.27133 0.93102 0.95898 0.0
H280 H 0.30829 0.88779 0.88119 0.0
O281 O 0.36289 0.90523 0.91626 0.0
C282 C 0.30983 0.9643 0.86917 0.0
O283 O 0.29652 0.98155 0.89044 0.0
N284 N 0.33637 0.94154 0.96355 0.0
C285 C 0.32402 0.94651 0.02576 0.0
C286 C 0.34426 0.92289 0.0147 0.0
C287 C 0.35041 0.92095 0.98344 0.0
C288 C 0.31969 0.96661 0.97426 0.0
C289 C 0.3129 0.9694 1.00514 0.0
H290 H 0.36621 0.90281 0.97566 0.0
H291 H 0.30971 0.9834 0.9583 0.0
H292 H 0.40181 0.94336 0.95294 0.0
H293 H 0.41039 0.03469 0.91622 0.0
H294 H 0.23526 0.88291 0.94579 0.0
H295 H 0.35435 0.90538 0.02988 0.0
H296 H 0.29707 0.98806 0.01224 0.0
C297 C 0.51437 0.37871 0.90918 0.0
C298 C 0.50386 0.40632 0.92228 0.0
N299 N 0.52861 0.4211 0.93532 0.0
N300 N 0.54573 0.37592 0.91357 0.0
C301 C 0.55376 0.40239 0.92915 0.0
H302 H 0.49953 0.36063 0.89938 0.0
Co303 Co 0.56897 0.33828 0.90877 0.0
C304 C 0.63344 0.35385 0.929 0.0
O305 O 0.634 0.32739 0.94474 0.0
N306 N 0.59247 0.30015 0.90342 0.0
C307 C 0.61333 0.25183 0.90551 0.0
C308 C 0.58759 0.27016 0.91298 0.0
C309 C 0.6204 0.29858 0.8884 0.0
N310 N 0.63435 0.26997 0.89047 0.0
O311 O 0.57158 0.34373 0.86541 0.0
H312 H 0.56721 0.26176 0.92525 0.0
H313 H 0.63138 0.31895 0.8779 0.0
O314 O 0.60872 0.36186 0.91411 0.0
C315 C 0.55004 0.32795 0.85194 0.0
O316 O 0.52666 0.31675 0.86839 0.0
N317 N 0.56393 0.33079 0.95082 0.0
C318 C 0.55636 0.30772 1.00985 0.0
C319 C 0.57391 0.33537 1.00436 0.0
C320 C 0.57729 0.34666 0.97461 0.0
C321 C 0.54218 0.30785 0.95647 0.0
C322 C 0.53874 0.29517 0.98562 0.0
H323 H 0.5917 0.3673 0.97091 0.0
H324 H 0.529 0.29781 0.93775 0.0
H325 H 0.57733 0.40699 0.93743 0.0
H326 H 0.47942 0.41353 0.92416 0.0
H327 H 0.6166 0.22727 0.91164 0.0
H328 H 0.58628 0.34733 0.02257 0.0
H329 H 0.52412 0.2744 0.98838 0.0
C330 C 0.1411 0.51188 0.9156 0.0
C331 C 0.11526 0.49805 0.92947 0.0
N332 N 0.10139 0.51961 0.94765 0.0
N333 N 0.14353 0.54217 0.92473 0.0
C334 C 0.11886 0.54611 0.94398 0.0
H335 H 0.1578 0.50001 0.901 0.0
Co336 Co 0.17688 0.57101 0.91851 0.0
C337 C 0.14729 0.63429 0.92989 0.0
O338 O 0.17331 0.64517 0.94237 0.0
N339 N 0.21056 0.59996 0.91211 0.0
C340 C 0.25503 0.6277 0.91587 0.0
C341 C 0.23977 0.60039 0.92443 0.0
C342 C 0.20967 0.62633 0.89452 0.0
N343 N 0.23579 0.64446 0.89747 0.0
O344 O 0.17235 0.56915 0.87501 0.0
H345 H 0.24936 0.58277 0.93962 0.0
H346 H 0.18918 0.63307 0.88129 0.0
O347 O 0.14591 0.60571 0.92059 0.0
C348 C 0.19181 0.54937 0.8637 0.0
O349 O 0.20719 0.5305 0.88231 0.0
N350 N 0.18423 0.5707 0.96079 0.0
C351 C 0.21155 0.57099 0.01843 0.0
C352 C 0.18419 0.58877 0.01244 0.0
C353 C 0.17074 0.58821 0.98339 0.0
C354 C 0.20718 0.54935 0.96773 0.0
C355 C 0.22171 0.54951 0.99621 0.0
H356 H 0.15024 0.60259 0.97928 0.0
H357 H 0.2164 0.53426 0.94999 0.0
H358 H 0.11442 0.56781 0.95599 0.0
H359 H 0.10833 0.47353 0.92748 0.0
H360 H 0.27772 0.63548 0.92436 0.0
H361 H 0.17435 0.6044 0.02945 0.0
H362 H 0.24241 0.53492 0.99959 0.0
C363 C 1.00266 0.15381 0.90642 0.0
C364 C 0.01657 0.12701 0.91853 0.0
N365 N 0.99412 0.10972 0.93263 0.0
N366 N 0.9715 0.15339 0.91262 0.0
C367 C 0.96705 0.12598 0.92812 0.0
H368 H 0.01489 0.1734 0.89583 0.0
Co369 Co 0.94295 0.18734 0.91003 0.0
C370 C 0.88079 0.1586 0.92353 0.0
O371 O 0.87364 0.18285 0.94079 0.0
N372 N 0.91368 0.22156 0.90736 0.0
C373 C 0.88428 0.26444 0.91522 0.0
C374 C 0.91215 0.24932 0.92243 0.0
C375 C 0.88729 0.22146 0.88989 0.0
N376 N 0.86831 0.24652 0.89515 0.0
O377 O 0.94403 0.18704 0.86618 0.0
H378 H 0.92923 0.25777 0.93869 0.0
H379 H 0.88111 0.20209 0.87501 0.0
O380 O 0.90775 0.15694 0.91058 0.0
C381 C 0.96107 0.21073 0.85861 0.0
O382 O 0.97725 0.22494 0.88015 0.0
N383 N 0.94511 0.19068 0.95267 0.0
C384 C 0.95353 0.20785 0.01339 0.0
C385 C 0.93545 0.18117 1.00574 0.0
C386 C 0.93175 0.17277 0.97517 0.0
C387 C 0.96611 0.21376 0.96001 0.0
C388 C 0.97019 0.22325 0.99005 0.0
H389 H 0.9179 0.15221 0.96998 0.0
H390 H 0.97835 0.22631 0.94206 0.0
H391 H 0.94458 0.11881 0.93747 0.0
H392 H 0.04162 0.12194 0.91889 0.0
H393 H 0.87552 0.28584 0.92569 0.0
H394 H 0.92335 0.16752 0.02308 0.0
H395 H 0.98464 0.24383 0.99444 0.0
C396 C 0.37219 0.51391 0.61738 0.0
C397 C 0.39954 0.502 0.60486 0.0
N398 N 0.4145 0.52549 0.58989 0.0
N399 N 0.36977 0.54493 0.61067 0.0
C400 C 0.39621 0.55133 0.59429 0.0
H401 H 0.35417 0.50016 0.62871 0.0
Co402 Co 0.33293 0.56962 0.61519 0.0
C403 C 0.35189 0.63443 0.59839 0.0
O404 O 0.32597 0.63709 0.58212 0.0
N405 N 0.29555 0.5944 0.62031 0.0
C406 C 0.24768 0.61607 0.61752 0.0
C407 C 0.2658 0.59024 0.60996 0.0
C408 C 0.29398 0.62197 0.63593 0.0
N409 N 0.26566 0.6365 0.6334 0.0
O410 O 0.33696 0.57008 0.65876 0.0
H411 H 0.25744 0.5702 0.59721 0.0
H412 H 0.31412 0.63221 0.64737 0.0
O413 O 0.35841 0.60853 0.61214 0.0
C414 C 0.31967 0.54891 0.6711 0.0
O415 O 0.3067 0.52746 0.65354 0.0
N416 N 0.32667 0.56674 0.57272 0.0
C417 C 0.30424 0.56311 0.51322 0.0
C418 C 0.33195 0.58002 0.51986 0.0
C419 C 0.34292 0.5814 0.54981 0.0
C420 C 0.30359 0.54561 0.56569 0.0
C421 C 0.29126 0.54407 0.53628 0.0
H422 H 0.36358 0.59544 0.55438 0.0
H423 H 0.29304 0.53155 0.58362 0.0
H424 H 0.40133 0.57421 0.58452 0.0
H425 H 0.40657 0.47741 0.60485 0.0
H426 H 0.22333 0.61975 0.61096 0.0
H427 H 0.34409 0.59352 0.50245 0.0
H428 H 0.27038 0.52988 0.53246 0.0
C429 C 0.99561 0.39032 0.61311 0.0
C430 C 1.0071 0.41755 0.59968 0.0
N431 N 0.98647 0.42724 0.57813 0.0
N432 N 0.96769 0.38279 0.60034 0.0
C433 C 0.96262 0.40592 0.57942 0.0
H434 H 1.00779 0.37598 0.62982 0.0
Co435 Co 0.94498 0.34467 0.60423 0.0
C436 C 0.87733 0.36184 0.59434 0.0
O437 O 0.87192 0.33482 0.58063 0.0
N438 N 0.92194 0.30622 0.60816 0.0
C439 C 0.89632 0.2615 0.59833 0.0
C440 C 0.92162 0.28034 0.5903 0.0
C441 C 0.89788 0.30144 0.62801 0.0
N442 N 0.88081 0.27527 0.62161 0.0
O443 O 0.94574 0.34689 0.64799 0.0
H444 H 0.937 0.27653 0.57104 0.0
H445 H 0.89094 0.31885 0.6447 0.0
O446 O 0.90528 0.36902 0.60307 0.0
C447 C 0.96588 0.32647 0.65716 0.0
O448 O 0.98516 0.31439 0.63683 0.0
N449 N 0.94769 0.33988 0.56188 0.0
C450 C 0.96006 0.31764 0.50313 0.0
C451 C 0.93224 0.33479 0.5097 0.0
C452 C 0.92693 0.34644 0.539 0.0
C453 C 0.97629 0.32704 0.55528 0.0
C454 C 0.9833 0.31653 0.52606 0.0
H455 H 0.90587 0.35994 0.54296 0.0
H456 H 0.99338 0.32369 0.57333 0.0
H457 H 0.94236 0.40624 0.56444 0.0
H458 H 0.02986 0.42816 0.60422 0.0
H459 H 0.88823 0.241 0.58588 0.0
H460 H 0.91361 0.33812 0.49325 0.0
H461 H 1.00628 0.30621 0.52247 0.0
C462 C 0.14045 0.9987 0.61729 0.0
C463 C 0.114 0.01219 0.6043 0.0
N464 N 0.0991 0.99024 0.58728 0.0
N465 N 0.14243 0.96824 0.60875 0.0
C466 C 0.11661 0.96368 0.59092 0.0
H467 H 0.15806 0.01087 0.63067 0.0
Co468 Co 0.17802 0.94192 0.61369 0.0
C469 C 0.1573 0.8782 0.59595 0.0
O470 O 0.18402 0.87501 0.58104 0.0
N471 N 0.21399 0.91503 0.6191 0.0
C472 C 0.25836 0.8872 0.61423 0.0
C473 C 0.24278 0.91449 0.60585 0.0
C474 C 0.21373 0.88873 0.63686 0.0
N475 N 0.2397 0.87056 0.63328 0.0
O476 O 0.17329 0.94146 0.65742 0.0
H477 H 0.25161 0.93163 0.58977 0.0
H478 H 0.19349 0.88184 0.65036 0.0
O479 O 0.15087 0.90428 0.60932 0.0
C480 C 0.19504 0.95949 0.6677 0.0
O481 O 0.21031 0.97742 0.64814 0.0
N482 N 0.18539 0.94564 0.57158 0.0
C483 C 0.20785 0.95567 0.51261 0.0
C484 C 0.18107 0.93674 0.51781 0.0
C485 C 0.17006 0.93215 0.54751 0.0
C486 C 0.2083 0.96755 0.56644 0.0
C487 C 0.22048 0.97237 0.53736 0.0
H488 H 0.14973 0.91723 0.55083 0.0
H489 H 0.21873 0.97983 0.58553 0.0
H490 H 0.1118 0.94182 0.57921 0.0
H491 H 0.10704 0.03667 0.60646 0.0
H492 H 0.28063 0.87917 0.60499 0.0
H493 H 0.16936 0.92463 0.49929 0.0
H494 H 0.24093 0.98749 0.53493 0.0
C495 C 0.52293 0.13367 0.61733 0.0
C496 C 0.51011 0.10686 0.6045 0.0
N497 N 0.53293 0.09149 0.58906 0.0
N498 N 0.55386 0.13538 0.61033 0.0
C499 C 0.55929 0.10905 0.59354 0.0
H500 H 0.5098 0.15193 0.62887 0.0
Co501 Co 0.57963 0.17165 0.61345 0.0
C502 C 0.64387 0.14866 0.59907 0.0
O503 O 0.64869 0.17341 0.58154 0.0
N504 N 0.60552 0.2085 0.61676 0.0
C505 C 0.62728 0.25606 0.61102 0.0
C506 C 0.60123 0.23767 0.60495 0.0
C507 C 0.63351 0.21074 0.63169 0.0
N508 N 0.64814 0.23885 0.62733 0.0
O509 O 0.57962 0.16996 0.65712 0.0
H510 H 0.58086 0.24537 0.59219 0.0
H511 H 0.64374 0.19123 0.64416 0.0
O512 O 0.61736 0.14463 0.61242 0.0
C513 C 0.55872 0.18859 0.66785 0.0
O514 O 0.5382 0.20122 0.64896 0.0
N515 N 0.57703 0.17595 0.57086 0.0
C516 C 0.57125 0.19728 0.51113 0.0
C517 C 0.58995 0.17075 0.51798 0.0
C518 C 0.59227 0.16017 0.54809 0.0
C519 C 0.55467 0.19783 0.56373 0.0
C520 C 0.55185 0.20945 0.53417 0.0
H521 H 0.60719 0.14015 0.55285 0.0
H522 H 0.54063 0.20816 0.58172 0.0
H523 H 0.58184 0.10374 0.58332 0.0
H524 H 0.48533 0.10064 0.60461 0.0
H525 H 0.6307 0.28004 0.60311 0.0
H526 H 0.60402 0.15936 0.5006 0.0
H527 H 0.53653 0.22952 0.53025 0.0
H528 H 0.67784 0.07957 0.21802 0.0
H529 H 0.75503 0.02635 0.17934 0.0
H530 H 0.70759 0.08415 0.26595 0.0
H531 H 0.78456 0.03156 0.2265 0.0
H532 H 0.83998 0.07504 0.30772 0.0
H533 H 0.81053 0.07572 0.25932 0.0
H534 H 0.72693 0.04359 0.30624 0.0
H535 H 0.756 0.0423 0.35389 0.0
C536 C 0.70099 0.06881 0.21972 0.0
C537 C 0.71379 0.05228 0.19493 0.0
C538 C 0.71808 0.07155 0.24705 0.0
C539 C 0.74856 0.05844 0.24983 0.0
C540 C 0.76137 0.04227 0.22494 0.0
C541 C 0.74415 0.039 0.198 0.0
C542 C 0.81537 0.06812 0.30759 0.0
C543 C 0.80054 0.05825 0.33461 0.0
C544 C 0.7985 0.06853 0.27997 0.0
C545 C 0.76634 0.05984 0.27907 0.0
C546 C 0.7515 0.05072 0.30622 0.0
C547 C 0.76839 0.04969 0.3335 0.0
H548 H 0.45084 0.84242 0.30475 0.0
H549 H 0.47682 0.75524 0.3497 0.0
H550 H 0.45409 0.81545 0.25522 0.0
H551 H 0.4795 0.72863 0.30087 0.0
H552 H 0.45093 0.68473 0.20833 0.0
H553 H 0.44299 0.71223 0.25692 0.0
H554 H 0.49979 0.79007 0.22463 0.0
H555 H 0.50819 0.76273 0.17669 0.0
C556 C 0.45711 0.81762 0.3041 0.0
C557 C 0.46393 0.80115 0.33114 0.0
C558 C 0.45898 0.80217 0.27583 0.0
C559 C 0.46695 0.76985 0.27422 0.0
C560 C 0.47301 0.75339 0.30134 0.0
C561 C 0.47176 0.76885 0.32934 0.0
C562 C 0.46189 0.70758 0.21173 0.0
C563 C 0.48047 0.72128 0.18869 0.0
C564 C 0.45725 0.72338 0.23946 0.0
C565 C 0.47057 0.75346 0.24445 0.0
C566 C 0.48887 0.76717 0.22133 0.0
C567 C 0.49396 0.75122 0.19396 0.0
H568 H 0.696 0.41824 0.32197 0.0
H569 H 0.71804 0.51731 0.33168 0.0
H570 H 0.72857 0.41627 0.27571 0.0
H571 H 0.75079 0.51526 0.28647 0.0
H572 H 0.78081 0.50972 0.18786 0.0
H573 H 0.74734 0.51006 0.23261 0.0
H574 H 0.78508 0.41951 0.26012 0.0
H575 H 0.81837 0.41882 0.2143 0.0
C576 C 0.70725 0.43968 0.31392 0.0
C577 C 0.70422 0.468 0.33034 0.0
C578 C 0.72633 0.43845 0.28775 0.0
C579 C 0.74251 0.46557 0.27742 0.0
C580 C 0.73852 0.49398 0.29346 0.0
C581 C 0.71967 0.49516 0.31946 0.0
C582 C 0.78234 0.49 0.20358 0.0
C583 C 0.80246 0.46435 0.19759 0.0
C584 C 0.76309 0.4902 0.22934 0.0
C585 C 0.76336 0.46479 0.25002 0.0
C586 C 0.78399 0.4393 0.24445 0.0
C587 C 0.80345 0.43913 0.21851 0.0
H588 H 0.09714 0.6943 0.29927 0.0
H589 H 1.00567 0.73618 0.31544 0.0
H590 H 0.10392 0.72885 0.25457 0.0
H591 H 0.0128 0.7707 0.27163 0.0
H592 H 0.06004 0.85631 0.22325 0.0
H593 H 0.05195 0.81685 0.26334 0.0
H594 H 0.07808 0.74274 0.20101 0.0
H595 H 0.08569 0.78214 0.16063 0.0
C596 C 0.07823 0.71027 0.29297 0.0
C597 C 0.05094 0.71251 0.31111 0.0
C598 C 0.08218 0.73017 0.26748 0.0
C599 C 0.05909 0.75288 0.25994 0.0
C600 C 0.03123 0.75387 0.27717 0.0
C601 C 0.02712 0.73387 0.30222 0.0
C602 C 0.0639 0.83162 0.21802 0.0
C603 C 0.07327 0.82243 0.18866 0.0
C604 C 0.05922 0.80899 0.24096 0.0
C605 C 0.06435 0.77666 0.23531 0.0
C606 C 0.07407 0.76745 0.20607 0.0
C607 C 0.07817 0.79004 0.18293 0.0
H608 H 0.32318 0.92385 0.82167 0.0
H609 H 0.26017 0.9991 0.84835 0.0
H610 H 0.29366 0.91791 0.77397 0.0
H611 H 0.23092 0.99311 0.80107 0.0
H612 H 0.16736 0.9572 0.72469 0.0
H613 H 0.19516 0.95563 0.77401 0.0
H614 H 0.28438 0.94861 0.7269 0.0
H615 H 0.25681 0.95023 0.67829 0.0
C616 C 0.30331 0.93932 0.81727 0.0
C617 C 0.29427 0.96209 0.83882 0.0
C618 C 0.28626 0.93581 0.79003 0.0
C619 C 0.25963 0.9548 0.78383 0.0
C620 C 0.25083 0.97765 0.80532 0.0
C621 C 0.26794 0.98131 0.83233 0.0
C622 C 0.19282 0.95477 0.72508 0.0
C623 C 0.20996 0.95412 0.69778 0.0
C624 C 0.2088 0.95412 0.7532 0.0
C625 C 0.24209 0.95222 0.7544 0.0
C626 C 0.25883 0.94989 0.72694 0.0
C627 C 0.243 0.95104 0.69906 0.0
H628 H 0.50572 0.31655 0.80898 0.0
H629 H 0.60518 0.30583 0.827 0.0
H630 H 0.51028 0.28193 0.76521 0.0
H631 H 0.60957 0.26875 0.78494 0.0
H632 H 0.61039 0.21736 0.6924 0.0
H633 H 0.61038 0.25465 0.7346 0.0
H634 H 0.51329 0.2298 0.7541 0.0
H635 H 0.51298 0.19481 0.7103 0.0
C636 C 0.52871 0.30701 0.80328 0.0
C637 C 0.55503 0.31391 0.82147 0.0
C638 C 0.53128 0.28645 0.77855 0.0
C639 C 0.56008 0.27122 0.77188 0.0
C640 C 0.58691 0.27972 0.78909 0.0
C641 C 0.58446 0.30113 0.81335 0.0
C642 C 0.58936 0.21941 0.70625 0.0
C643 C 0.56174 0.20303 0.69827 0.0
C644 C 0.58922 0.24099 0.73047 0.0
C645 C 0.56156 0.24622 0.74765 0.0
C646 C 0.53474 0.22772 0.74087 0.0
C647 C 0.53467 0.20695 0.71617 0.0
H648 H 0.29461 0.60189 0.69694 0.0
H649 H 0.31337 0.50341 0.71411 0.0
H650 H 0.25988 0.60366 0.74098 0.0
H651 H 0.2813 0.50546 0.75991 0.0
H652 H 0.19949 0.50274 0.82234 0.0
H653 H 0.23109 0.50464 0.77618 0.0
H654 H 0.2483 0.60426 0.7912 0.0
H655 H 0.21404 0.60246 0.83555 0.0
C656 C 0.29228 0.58092 0.71091 0.0
C657 C 0.30677 0.55253 0.70217 0.0
C658 C 0.27219 0.58182 0.73631 0.0
C659 C 0.26675 0.55448 0.75408 0.0
C660 C 0.28345 0.52676 0.74639 0.0
C661 C 0.30261 0.52566 0.72047 0.0
C662 C 0.20916 0.52522 0.815 0.0
C663 C 0.20396 0.55249 0.83229 0.0
C664 C 0.22806 0.52628 0.78889 0.0
C665 C 0.24351 0.55442 0.78003 0.0
C666 C 0.23696 0.58208 0.79677 0.0
C667 C 0.21712 0.58116 0.82234 0.0
H668 H 0.96984 0.2729 0.84716 0.0
H669 H 0.9451 0.1855 0.80256 0.0
H670 H 0.9671 0.30083 0.79882 0.0
H671 H 0.94291 0.21381 0.75345 0.0
H672 H 0.99239 0.27067 0.674 0.0
H673 H 0.98655 0.24193 0.7216 0.0
H674 H 0.92713 0.31623 0.75654 0.0
H675 H 0.93237 0.34517 0.7081 0.0
C676 C 0.96383 0.25956 0.82696 0.0
C677 C 0.95812 0.2268 0.82864 0.0
C678 C 0.96192 0.27575 0.79929 0.0
C679 C 0.95476 0.25959 0.77237 0.0
C680 C 0.94856 0.22686 0.77393 0.0
C681 C 0.94981 0.21065 0.80193 0.0
C682 C 0.97806 0.28112 0.69174 0.0
C683 C 0.9631 0.31053 0.68727 0.0
C684 C 0.97444 0.26432 0.71892 0.0
C685 C 0.9562 0.27663 0.74269 0.0
C686 C 0.94132 0.30614 0.73851 0.0
C687 C 0.94443 0.32278 0.7109 0.0
H688 H 0.45269 0.94616 0.96969 0.0
H689 H 0.44237 0.04685 0.95604 0.0
H690 H 0.49538 0.95583 1.00564 0.0
H691 H 0.48521 0.0563 0.99165 0.0
H692 H 0.58429 0.05954 0.03481 0.0
H693 H 0.54206 0.05021 0.9984 0.0
H694 H 0.50406 0.97725 0.05671 0.0
H695 H 0.5461 0.98674 0.09342 0.0
C696 C 0.4593 0.97037 0.97428 0.0
C697 C 0.44359 0.99564 0.95973 0.0
C698 C 0.48389 0.97591 0.99503 0.0
C699 C 0.49377 1.00688 1.00178 0.0
C700 C 0.47856 0.03211 0.98684 0.0
C701 C 0.45385 0.02661 0.96623 0.0
C702 C 0.56682 0.04177 0.04026 0.0
C703 C 0.56894 0.02394 0.06738 0.0
C704 C 0.5425 0.03636 0.01918 0.0
C705 C 0.5196 0.01286 0.02442 0.0
C706 C 0.52154 0.99517 0.05157 0.0
C707 C 0.54575 1.00068 0.07274 0.0
H708 H 0.56945 0.43551 0.98139 0.0
H709 H 0.4841 0.46739 0.93703 0.0
H710 H 0.56483 0.47817 0.01816 0.0
H711 H 0.47943 0.51003 0.97396 0.0
H712 H 0.46221 0.56195 0.0638 0.0
H713 H 0.46763 0.51899 0.02736 0.0
H714 H 0.56824 0.53491 0.02378 0.0
H715 H 0.56292 0.57786 0.05996 0.0
C716 C 0.54993 0.45182 0.97908 0.0
C717 C 0.52716 0.44779 0.956 0.0
C718 C 0.54722 0.47635 1.00036 0.0
C719 C 0.52162 0.49758 0.99929 0.0
C720 C 0.49913 0.49384 0.97595 0.0
C721 C 0.50188 0.46937 0.95463 0.0
C722 C 0.48552 0.55646 0.05525 0.0
C723 C 0.51206 0.57375 0.06505 0.0
C724 C 0.48862 0.53176 0.0342 0.0
C725 C 0.51838 0.52345 0.02236 0.0
C726 C 0.54498 0.54029 0.03259 0.0
C727 C 0.54188 0.56504 0.05354 0.0
H728 H 0.08763 0.55389 0.99848 0.0
H729 H 0.05618 0.47377 0.94577 0.0
H730 H 0.0449 0.54524 0.03436 0.0
H731 H 0.01335 0.46503 0.98201 0.0
H732 H 0.95965 0.44022 0.07017 0.0
H733 H 1.00291 0.44827 0.03436 0.0
H734 H 0.98814 0.5491 0.03847 0.0
H735 H 0.94493 0.54118 0.07398 0.0
C736 C 0.07147 0.53462 0.9942 0.0
C737 C 0.07552 0.51466 0.96886 0.0
C738 C 0.04686 0.52961 0.01497 0.0
C739 C 0.02552 0.50444 1.01119 0.0
C740 C 0.02955 0.4844 0.98595 0.0
C741 C 0.05416 0.48946 0.96507 0.0
C742 C 0.96544 0.46413 0.06341 0.0
C743 C 0.9485 0.48999 0.07524 0.0
C744 C 0.99032 0.46874 0.04274 0.0
C745 C 0.99912 0.49936 0.03339 0.0
C746 C 0.98243 0.5252 0.04543 0.0
C747 C 0.95753 0.52061 0.06598 0.0
H748 H 0.04007 0.06514 0.92918 0.0
H749 H 0.95931 0.09343 0.98241 0.0
H750 H 0.04961 0.02143 0.96441 0.0
H751 H 0.96904 0.05023 0.01787 0.0
H752 H 0.97951 0.95225 0.06238 0.0
H753 H 0.96796 0.99472 0.02615 0.0
H754 H 0.06797 0.01072 0.01418 0.0
H755 H 0.07928 0.96811 0.04982 0.0
C756 C 0.02438 0.06209 0.94842 0.0
C757 C 0.99887 0.08285 0.95274 0.0
C758 C 0.0299 0.03706 0.9688 0.0
C759 C 0.01024 0.03217 0.9943 0.0
C760 C 0.98447 0.05276 0.99836 0.0
C761 C 0.97885 0.07766 0.97789 0.0
C762 C 0.99898 0.96501 0.05217 0.0
C763 C 0.03033 0.95651 0.05891 0.0
C764 C 0.99239 0.98944 0.03133 0.0
C765 C 0.01699 1.00619 0.01681 0.0
C766 C 0.04831 0.998 0.02414 0.0
C767 C 0.05486 0.97354 0.04476 0.0
H768 H 0.46212 0.48266 0.59341 0.0
H769 H 0.42694 0.56 0.53884 0.0
H770 H 0.50472 0.47438 0.55692 0.0
H771 H 0.4691 0.55152 0.5021 0.0
H772 H 0.56518 0.54681 0.45534 0.0
H773 H 0.52387 0.55594 0.49269 0.0
H774 H 0.51555 0.45526 0.50722 0.0
H775 H 0.55737 0.44622 0.47005 0.0
C776 C 0.46344 0.49789 0.57361 0.0
C777 C 0.44103 0.52206 0.56926 0.0
C778 C 0.48783 0.49304 0.5525 0.0
C779 C 0.4905 0.51211 0.52625 0.0
C780 C 0.4683 0.53659 0.52216 0.0
C781 C 0.44401 0.54153 0.54335 0.0
C782 C 0.55438 0.52654 0.46619 0.0
C783 C 0.56472 0.49571 0.45943 0.0
C784 C 0.53054 0.5318 0.48775 0.0
C785 C 0.51611 0.5064 0.5032 0.0
C786 C 0.52636 0.47553 0.49631 0.0
C787 C 0.55034 0.47028 0.47483 0.0
H788 H 0.95922 0.43311 0.52198 0.0
H789 H 0.02457 0.47888 0.58316 0.0
H790 H 0.9687 0.47404 0.48405 0.0
H791 H 0.0341 0.51984 0.54509 0.0
H792 H 0.06845 0.56976 0.45802 0.0
H793 H 0.05874 0.52886 0.49609 0.0
H794 H 0.95974 0.52899 0.47266 0.0
H795 H 0.96932 0.56983 0.43476 0.0
C796 C 0.97531 0.45205 0.52764 0.0
C797 C 0.99105 0.45244 0.55593 0.0
C798 C 0.98082 0.47564 0.50571 0.0
C799 C 1.00229 0.5004 0.51128 0.0
C800 C 0.01783 0.50094 0.53965 0.0
C801 C 0.01228 0.47738 0.56161 0.0
C802 C 0.04455 0.56128 0.461 0.0
C803 C 0.01976 0.57341 0.443 0.0
C804 C 0.03895 0.53774 0.48299 0.0
C805 C 1.00839 0.52546 0.48766 0.0
C806 C 0.98367 0.53739 0.46952 0.0
C807 C 0.98924 0.56096 0.44761 0.0
H808 H 0.93802 0.06355 0.48542 0.0
H809 H 0.96193 0.97716 0.43873 0.0
H810 H 0.98062 0.05447 0.5214 0.0
H811 H 1.00486 0.96807 0.4749 0.0
H812 H 0.05924 0.9459 0.56352 0.0
H813 H 0.01641 0.95433 0.52716 0.0
H814 H 0.03664 0.05434 0.52638 0.0
H815 H 0.07916 0.046 0.56257 0.0
C816 C 0.95261 0.04282 0.48241 0.0
C817 C 0.94641 0.02124 0.45877 0.0
C818 C 0.97718 0.03754 0.50326 0.0
C819 C 0.99647 0.01051 0.50124 0.0
C820 C 0.99034 0.98893 0.47758 0.0
C821 C 0.9657 0.99421 0.45668 0.0
C822 C 0.05469 0.96969 0.55557 0.0
C823 C 0.07287 0.99522 0.56637 0.0
C824 C 0.03006 0.97454 0.53455 0.0
C825 C 0.02281 1.00508 0.52366 0.0
C826 C 0.04097 0.03055 0.53452 0.0
C827 C 0.06552 0.02572 0.55548 0.0
H828 H 0.54982 0.93604 0.4593 0.0
H829 H 0.4501 0.95743 0.46243 0.0
H830 H 0.56 0.97744 0.49623 0.0
H831 H 0.46041 0.99876 0.4996 0.0
H832 H 0.48593 0.04756 0.58944 0.0
H833 H 0.4764 1.006 0.55225 0.0
H834 H 0.56013 0.0342 0.50316 0.0
H835 H 0.56958 0.07584 0.54016 0.0
C836 C 0.53 0.94969 0.46746 0.0
C837 C 0.49902 0.943 0.45759 0.0
C838 C 0.53591 0.97357 0.48884 0.0
C839 C 0.51107 0.99152 0.50117 0.0
C840 C 0.48014 0.98512 0.49111 0.0
C841 C 0.47421 0.96131 0.46963 0.0
C842 C 0.50231 0.04504 0.57071 0.0
C843 C 0.52855 0.06534 0.56806 0.0
C844 C 0.49678 0.02116 0.54925 0.0
C845 C 0.51736 0.01669 0.52445 0.0
C846 C 0.54392 0.03658 0.52208 0.0
C847 C 0.54941 0.06054 0.54349 0.0
H848 H 0.609 0.30461 0.04578 0.0
H849 H 0.51379 0.26796 0.03912 0.0
H850 H 0.62133 0.26548 0.08352 0.0
H851 H 0.52702 0.22729 0.07664 0.0
H852 H 0.59639 0.13628 0.08246 0.0
H853 H 0.56282 0.18116 0.06908 0.0
H854 H 0.61436 0.23977 0.13239 0.0
H855 H 0.64861 0.19521 0.14459 0.0
C856 C 0.59014 0.28908 0.05309 0.0
C857 C 0.56049 0.28931 0.03863 0.0
C858 C 0.59735 0.26634 0.07496 0.0
C859 C 0.57526 0.24293 0.08287 0.0
C860 C 0.54466 0.24477 0.07065 0.0
C861 C 0.53723 0.26797 0.04896 0.0
C862 C 0.59946 0.15838 0.09451 0.0
C863 C 0.6252 0.16264 0.11414 0.0
C864 C 0.58022 0.18413 0.08692 0.0
C865 C 0.5865 0.21424 0.09913 0.0
C866 C 0.60942 0.21705 0.12213 0.0
C867 C 0.62893 0.19155 0.12923 0.0
H868 H 0.22178 0.6291 0.0431 0.0
H869 H 0.24999 0.5313 0.05232 0.0
H870 H 0.26531 0.64498 0.07457 0.0
H871 H 0.29456 0.54759 0.08398 0.0
H872 H 0.39271 0.60278 0.07514 0.0
H873 H 0.34285 0.57445 0.06889 0.0
H874 H 0.2949 0.64708 0.12026 0.0
H875 H 0.34449 0.67593 0.12478 0.0
C876 C 0.23645 0.61071 0.05284 0.0
C877 C 0.23252 0.57888 0.04457 0.0
C878 C 0.26171 0.61992 0.07106 0.0
C879 C 0.28384 0.59761 0.08152 0.0
C880 C 0.27827 0.56542 0.07578 0.0
C881 C 0.25275 0.55612 0.05759 0.0
C882 C 0.37164 0.61189 0.08603 0.0
C883 C 0.37208 0.64146 0.10024 0.0
C884 C 0.34306 0.59568 0.08259 0.0
C885 C 0.31469 0.60885 0.09354 0.0
C886 C 0.31615 0.63666 0.11094 0.0
C887 C 0.34453 0.65309 0.11378 0.0
H888 H 0.90199 0.20947 0.05062 0.0
H889 H 0.99903 0.24094 0.04541 0.0
H890 H 0.89212 0.24661 0.09073 0.0
H891 H 0.9886 0.27941 0.08552 0.0
H892 H 0.92474 0.37392 0.08936 0.0
H893 H 0.95649 0.32742 0.07797 0.0
H894 H 0.89906 0.27183 0.13941 0.0
H895 H 0.86675 0.31819 0.1496 0.0
C896 C 0.92171 0.22331 0.05884 0.0
C897 C 0.95108 0.22277 0.04396 0.0
C898 C 0.916 0.24485 0.08208 0.0
C899 C 0.93942 0.26654 0.09093 0.0
C900 C 0.96991 0.26342 0.07874 0.0
C901 C 0.97577 0.24151 0.05562 0.0
C902 C 0.92001 0.35212 0.10154 0.0
C903 C 0.89313 0.34928 0.11991 0.0
C904 C 0.93822 0.32539 0.09512 0.0
C905 C 0.92969 0.29568 0.10716 0.0
C906 C 0.90573 0.29422 0.12924 0.0
C907 C 0.88728 0.32076 0.13519 0.0
H908 H 0.30753 0.89325 0.05751 0.0
H909 H 0.30783 0.99514 0.06442 0.0
H910 H 0.26708 0.89034 0.09618 0.0
H911 H 0.26611 0.99208 0.10261 0.0
H912 H 0.18126 0.88564 0.14632 0.0
H913 H 0.23661 0.90258 0.14588 0.0
H914 H 0.21355 0.97437 0.0793 0.0
H915 H 0.15929 0.95619 0.07848 0.0
C916 C 0.30018 0.91503 0.06826 0.0
C917 C 0.30998 0.94454 0.05681 0.0
C918 C 0.27688 0.91332 0.09068 0.0
C919 C 0.26275 0.94106 0.10172 0.0
C920 C 0.27623 0.97035 0.09403 0.0
C921 C 0.29986 0.97206 0.07188 0.0
C922 C 0.18792 0.90574 0.13246 0.0
C923 C 0.16655 0.91883 0.11148 0.0
C924 C 0.21953 0.91557 0.13238 0.0
C925 C 0.22952 0.93939 0.11215 0.0
C926 C 0.2067 0.95595 0.09517 0.0
C927 C 0.17555 0.94545 0.09454 0.0
H928 H 0.59624 0.37443 0.44961 0.0
H929 H 0.66581 0.32725 0.39454 0.0
H930 H 0.5684 0.32439 0.45683 0.0
H931 H 0.63736 0.27751 0.40011 0.0
H932 H 0.62653 0.20548 0.48036 0.0
H933 H 0.63913 0.24779 0.44596 0.0
H934 H 0.54101 0.27577 0.44331 0.0
H935 H 0.52801 0.23231 0.47786 0.0
C936 C 0.60459 0.35359 0.43781 0.0
C937 C 0.63318 0.35428 0.42187 0.0
C938 C 0.58863 0.3249 0.44177 0.0
C939 C 0.60107 0.29674 0.42957 0.0
C940 C 0.62757 0.29859 0.41038 0.0
C941 C 0.64379 0.32703 0.40703 0.0
C942 C 0.6072 0.21948 0.47147 0.0
C943 C 0.57633 0.21586 0.48269 0.0
C944 C 0.61451 0.24406 0.45156 0.0
C945 C 0.59117 0.26572 0.44235 0.0
C946 C 0.55964 0.2599 0.45059 0.0
C947 C 0.55224 0.23504 0.47044 0.0
H948 H 0.13331 0.60229 0.4329 0.0
H949 H 0.19444 0.66311 0.38055 0.0
H950 H 0.17889 0.57059 0.44831 0.0
H951 H 0.23976 0.63068 0.39432 0.0
H952 H 0.30056 0.61864 0.48176 0.0
H953 H 0.26237 0.63338 0.44396 0.0
H954 H 0.22641 0.53783 0.44239 0.0
H955 H 0.26583 0.52248 0.48036 0.0
C956 C 0.1563 0.6078 0.42342 0.0
C957 C 0.16066 0.63519 0.4059 0.0
C958 C 0.18244 0.58964 0.43214 0.0
C959 C 0.21311 0.5986 0.42312 0.0
C960 C 0.21658 0.62364 0.40226 0.0
C961 C 0.19064 0.6421 0.39419 0.0
C962 C 0.28566 0.60019 0.4726 0.0
C963 C 0.2862 0.56937 0.48467 0.0
C964 C 0.26348 0.60876 0.45071 0.0
C965 C 0.24102 0.58686 0.44027 0.0
C966 C 0.2431 0.55536 0.45034 0.0
C967 C 0.26563 0.54664 0.47219 0.0
H968 H 0.92447 0.14261 0.45715 0.0
H969 H 0.88232 0.18655 0.37842 0.0
H970 H 0.95839 0.18789 0.46408 0.0
H971 H 0.91742 0.23205 0.38414 0.0
H972 H 0.92381 0.31847 0.44962 0.0
H973 H 0.914 0.27351 0.41798 0.0
H974 H 0.99559 0.22646 0.45583 0.0
H975 H 1.00324 0.26916 0.49035 0.0
C976 C 0.92368 0.16148 0.44043 0.0
C977 C 0.90072 0.16155 0.41758 0.0
C978 C 0.94329 0.18759 0.44419 0.0
C979 C 0.94026 0.21431 0.42508 0.0
C980 C 0.91981 0.21241 0.39983 0.0
C981 C 0.89989 0.1863 0.39634 0.0
C982 C 0.93962 0.2986 0.45191 0.0
C983 C 0.96248 0.29703 0.47526 0.0
C984 C 0.93444 0.2728 0.43276 0.0
C985 C 0.95289 0.24531 0.43559 0.0
C986 C 0.97971 0.24646 0.45431 0.0
C987 C 0.98419 0.27165 0.47423 0.0
H988 H 0.37854 0.92695 0.44395 0.0
H989 H 0.32529 0.87596 0.37648 0.0
H990 H 0.33225 0.95906 0.4553 0.0
H991 H 0.27906 0.90844 0.38707 0.0
H992 H 0.21273 0.90544 0.47386 0.0
H993 H 0.25213 0.89743 0.43535 0.0
H994 H 0.28481 0.99337 0.44652 0.0
H995 H 0.24382 1.0022 0.48466 0.0
C996 C 0.35745 0.92397 0.43026 0.0
C997 C 0.3551 0.89883 0.40971 0.0
C998 C 0.33086 0.94236 0.4367 0.0
C999 C 0.30174 0.93566 0.42261 0.0
C1000 C 0.30101 0.91369 0.39869 0.0
C1001 C 0.32746 0.89516 0.39254 0.0
C1002 C 0.22705 0.92552 0.4673 0.0
C1003 C 0.22545 0.95425 0.48323 0.0
C1004 C 0.2499 0.92085 0.44498 0.0
C1005 C 0.27201 0.94463 0.4382 0.0
C1006 C 0.26838 0.97447 0.45164 0.0
C1007 C 0.24506 0.97935 0.47371 0.0
H1008 H 0.50299 0.74069 0.96416 0.0
H1009 H 0.4071 0.70706 0.97518 0.0
H1010 H 0.48377 0.78236 0.9303 0.0
H1011 H 0.38865 0.74719 0.94122 0.0
H1012 H 0.35066 0.8224 0.8924 0.0
H1013 H 0.38431 0.77576 0.89479 0.0
H1014 H 0.45358 0.82908 0.94563 0.0
H1015 H 0.42046 0.87614 0.94143 0.0
C1016 C 0.47804 0.7415 0.95887 0.0
C1017 C 0.4566 0.7209 0.9734 0.0
C1018 C 0.4671 0.76531 0.93929 0.0
C1019 C 0.43463 0.76854 0.93346 0.0
C1020 C 0.41389 0.74544 0.94487 0.0
C1021 C 0.42467 0.72206 0.9646 0.0
C1022 C 0.37377 0.82439 0.90277 0.0
C1023 C 0.38303 0.85248 0.91699 0.0
C1024 C 0.39299 0.79771 0.90429 0.0
C1025 C 0.4212 0.79841 0.92118 0.0
C1026 C 0.43206 0.82765 0.93237 0.0
C1027 C 0.41308 0.85462 0.93015 0.0
H1028 H 0.8088 0.37406 0.99329 0.0
H1029 H 0.79185 0.47299 0.97427 0.0
H1030 H 0.76681 0.35972 0.95942 0.0
H1031 H 0.74871 0.45831 0.94015 0.0
H1032 H 0.64475 0.41471 0.94567 0.0
H1033 H 0.6969 0.43816 0.95359 0.0
H1034 H 0.74023 0.35613 0.91248 0.0
H1035 H 0.68828 0.33222 0.90672 0.0
C1036 C 0.79709 0.39287 0.9809 0.0
C1037 C 0.80341 0.42479 0.98723 0.0
C1038 C 0.77268 0.38455 0.96129 0.0
C1039 C 0.75384 0.40789 0.94745 0.0
C1040 C 0.76232 0.43978 0.95104 0.0
C1041 C 0.78703 0.44816 0.97063 0.0
C1042 C 0.66548 0.40233 0.93755 0.0
C1043 C 0.66289 0.37167 0.92597 0.0
C1044 C 0.69537 0.41575 0.94184 0.0
C1045 C 0.72287 0.39871 0.93422 0.0
C1046 C 0.71965 0.36955 0.91929 0.0
C1047 C 0.68995 0.35591 0.91578 0.0
H1048 H 0.04501 0.72476 0.04799 0.0
H1049 H 0.02522 0.78953 0.97383 0.0
H1050 H 0.05673 0.68373 1.01183 0.0
H1051 H 0.03939 0.74834 0.93754 0.0
H1052 H 0.08741 0.61501 0.94417 0.0
H1053 H 0.04487 0.64916 0.96264 0.0
H1054 H 0.10015 0.73137 0.93896 0.0
H1055 H 0.14291 0.6974 0.92178 0.0
C1056 C 0.04175 0.73014 0.02409 0.0
C1057 C 0.03532 0.76114 0.01403 0.0
C1058 C 0.04858 0.70634 1.00323 0.0
C1059 C 0.04964 0.71311 0.97195 0.0
C1060 C 0.03911 0.74271 0.96163 0.0
C1061 C 0.03145 0.76638 0.98252 0.0
C1062 C 0.08995 0.64034 0.94195 0.0
C1063 C 0.11857 0.65368 0.93211 0.0
C1064 C 0.06558 0.65983 0.95241 0.0
C1065 C 0.06928 0.69283 0.95224 0.0
C1066 C 0.09649 0.70602 0.93904 0.0
C1067 C 0.12109 0.6866 0.92942 0.0
H1068 H 0.70197 0.10632 0.96027 0.0
H1069 H 0.75338 0.02905 1.00214 0.0
H1070 H 0.74736 0.11756 0.92846 0.0
H1071 H 0.79688 0.03828 0.96815 0.0
H1072 H 0.87756 0.1134 0.96641 0.0
H1073 H 0.83254 0.07996 0.97676 0.0
H1074 H 0.78913 0.11034 0.89233 0.0
H1075 H 0.83494 0.14427 0.8823 0.0
C1076 C 0.7224 0.0911 0.96223 0.0
C1077 C 0.72423 0.06783 0.98519 0.0
C1078 C 0.74834 0.09717 0.9434 0.0
C1079 C 0.77632 0.07954 0.9466 0.0
C1080 C 0.77611 0.05304 0.9659 0.0
C1081 C 0.75063 0.04751 0.98527 0.0
C1082 C 0.85899 0.11194 0.9495 0.0
C1083 C 0.85936 0.13151 0.9238 0.0
C1084 C 0.83307 0.09261 0.9553 0.0
C1085 C 0.80683 0.09268 0.93555 0.0
C1086 C 0.80869 0.11011 0.90824 0.0
C1087 C 0.83486 0.12943 0.90242 0.0
H1088 H 0.37615 0.80931 0.53755 0.0
H1089 H 0.47493 0.78933 0.55356 0.0
H1090 H 0.36159 0.76748 0.57186 0.0
H1091 H 0.46005 0.74638 0.588 0.0
H1092 H 0.41268 0.64384 0.58061 0.0
H1093 H 0.43777 0.6954 0.57359 0.0
H1094 H 0.35903 0.74011 0.61903 0.0
H1095 H 0.33353 0.68876 0.62423 0.0
C1096 C 0.39491 0.79696 0.54938 0.0
C1097 C 0.42677 0.80229 0.54204 0.0
C1098 C 0.38648 0.77267 0.56922 0.0
C1099 C 0.40967 0.75302 0.58223 0.0
C1100 C 0.44163 0.76065 0.57776 0.0
C1101 C 0.45011 0.78522 0.55798 0.0
C1102 C 0.40148 0.66466 0.59002 0.0
C1103 C 0.37122 0.66272 0.60266 0.0
C1104 C 0.41583 0.69421 0.58619 0.0
C1105 C 0.40008 0.72201 0.59523 0.0
C1106 C 0.37146 0.71928 0.61122 0.0
C1107 C 0.35692 0.68993 0.6144 0.0
H1108 H 0.76273 0.48548 0.51391 0.0
H1109 H 0.69366 0.44158 0.573 0.0
H1110 H 0.80426 0.47004 0.54813 0.0
H1111 H 0.73605 0.42556 0.60746 0.0
H1112 H 0.87949 0.42649 0.59994 0.0
H1113 H 0.83457 0.46281 0.59515 0.0
H1114 H 0.77109 0.38289 0.59143 0.0
H1115 H 0.81531 0.34727 0.596 0.0
C1116 C 0.75604 0.47386 0.53493 0.0
C1117 C 0.72476 0.46386 0.54009 0.0
C1118 C 0.78015 0.46499 0.55476 0.0
C1119 C 0.77359 0.44575 0.58007 0.0
C1120 C 0.74186 0.43975 0.58766 0.0
C1121 C 0.71761 0.44874 0.56781 0.0
C1122 C 0.85579 0.41691 0.59899 0.0
C1123 C 0.85086 0.38413 0.59768 0.0
C1124 C 0.83012 0.43763 0.59633 0.0
C1125 C 0.79926 0.42577 0.59269 0.0
C1126 C 0.79437 0.39298 0.59453 0.0
C1127 C 0.81987 0.37244 0.59674 0.0
H1128 H 0.0382 0.77208 0.49768 0.0
H1129 H 0.07724 0.69765 0.55394 0.0
H1130 H 0.0532 0.81074 0.53522 0.0
H1131 H 0.09274 0.73696 0.59172 0.0
H1132 H 0.17182 0.81639 0.59261 0.0
H1133 H 0.1367 0.77306 0.58101 0.0
H1134 H 0.0567 0.83632 0.58561 0.0
H1135 H 0.0925 0.88022 0.59768 0.0
C1136 C 0.0487 0.76365 0.51868 0.0
C1137 C 0.05726 0.73172 0.52235 0.0
C1138 C 0.0573 0.78603 0.54038 0.0
C1139 C 0.0748 0.77702 0.56614 0.0
C1140 C 0.07979 0.74465 0.57173 0.0
C1141 C 0.0711 0.72217 0.55001 0.0
C1142 C 0.14665 0.82092 0.59211 0.0
C1143 C 0.13486 0.85167 0.59556 0.0
C1144 C 0.12639 0.79594 0.58578 0.0
C1145 C 0.09386 0.80123 0.58218 0.0
C1146 C 0.0817 0.83159 0.58811 0.0
C1147 C 0.10211 0.85667 0.59502 0.0
H1148 H 0.65363 0.0902 0.57598 0.0
H1149 H 0.69446 0.16111 0.63403 0.0
H1150 H 0.70492 0.06419 0.57206 0.0
H1151 H 0.74563 0.13487 0.63118 0.0
H1152 H 0.8181 0.12786 0.5493 0.0
H1153 H 0.7764 0.13843 0.58497 0.0
H1154 H 0.75436 0.03884 0.58967 0.0
H1155 H 0.79732 0.02791 0.55418 0.0
C1156 C 0.67331 0.0992 0.58914 0.0
C1157 C 0.6705 0.12761 0.6051 0.0
C1158 C 0.70268 0.0843 0.5871 0.0
C1159 C 0.72952 0.0978 0.60095 0.0
C1160 C 0.72554 0.12416 0.61993 0.0
C1161 C 0.69629 0.13915 0.62166 0.0
C1162 C 0.80568 0.10787 0.55902 0.0
C1163 C 0.81035 0.07713 0.54787 0.0
C1164 C 0.78149 0.11399 0.57965 0.0
C1165 C 0.76138 0.08953 0.58944 0.0
C1166 C 0.769 0.05824 0.58186 0.0
C1167 C 0.79353 0.05205 0.56144 0.0
H1168 H 0.81581 0.32864 0.16505 0.0
H1169 H 0.72096 0.33567 0.12949 0.0
H1170 H 0.8092 0.27196 0.1714 0.0
H1171 H 0.71451 0.27897 0.13553 0.0
H1172 H 0.70373 0.17791 0.1612 0.0
H1173 H 0.71093 0.23397 0.1699 0.0
H1174 H 0.80623 0.2277 0.13557 0.0
H1175 H 0.79934 0.17115 0.12751 0.0
C1176 C 0.79344 0.31835 0.1588 0.0
C1177 C 0.76938 0.33695 0.14569 0.0
C1178 C 0.7897 0.28566 0.16238 0.0
C1179 C 0.76156 0.27072 0.15346 0.0
C1180 C 0.73657 0.28959 0.14265 0.0
C1181 C 0.74041 0.32223 0.13887 0.0
C1182 C 0.72655 0.18805 0.15615 0.0
C1183 C 0.75081 0.16974 0.14308 0.0
C1184 C 0.73053 0.22048 0.1609 0.0
C1185 C 0.75895 0.23554 0.15299 0.0
C1186 C 0.784 0.21692 0.142 0.0
C1187 C 0.77997 0.18446 0.13712 0.0
H1188 H 0.21379 0.84249 0.12696 0.0
H1189 H 0.20216 0.74348 0.10715 0.0
H1190 H 0.2697 0.83377 0.13773 0.0
H1191 H 0.25817 0.73463 0.11732 0.0
H1192 H 0.37082 0.8099 0.10161 0.0
H1193 H 0.31505 0.82116 0.10506 0.0
H1194 H 0.30066 0.73511 0.15617 0.0
H1195 H 0.35668 0.72367 0.15321 0.0
C1196 C 0.22301 0.81875 0.12565 0.0
C1197 C 0.20357 0.79369 0.11625 0.0
C1198 C 0.25513 0.81377 0.13148 0.0
C1199 C 0.26847 0.78352 0.12828 0.0
C1200 C 0.24864 0.75817 0.12031 0.0
C1201 C 0.21661 0.76324 0.11424 0.0
C1202 C 0.35623 0.79333 0.11396 0.0
C1203 C 0.36878 0.76505 0.12603 0.0
C1204 C 0.32397 0.80004 0.1161 0.0
C1205 C 0.30325 0.77874 0.13039 0.0
C1206 C 0.31591 0.75166 0.14438 0.0
C1207 C 0.34825 0.74507 0.14252 0.0
H1208 H 0.79691 0.35137 0.41825 0.0
H1209 H 0.71178 0.3425 0.36436 0.0
H1210 H 0.80624 0.29529 0.413 0.0
H1211 H 0.72146 0.28634 0.35919 0.0
H1212 H 0.72622 0.1834 0.39841 0.0
H1213 H 0.71886 0.24036 0.39307 0.0
H1214 H 0.81916 0.25195 0.37929 0.0
H1215 H 0.8265 0.19522 0.3855 0.0
C1216 C 0.78012 0.33784 0.40514 0.0
C1217 C 0.75278 0.35204 0.39282 0.0
C1218 C 0.78574 0.3054 0.40189 0.0
C1219 C 0.76433 0.28603 0.38612 0.0
C1220 C 0.73809 0.30037 0.37214 0.0
C1221 C 0.73256 0.33288 0.37518 0.0
C1222 C 0.74665 0.19806 0.39394 0.0
C1223 C 0.77698 0.18458 0.39254 0.0
C1224 C 0.74242 0.23076 0.39062 0.0
C1225 C 0.76844 0.25091 0.38594 0.0
C1226 C 0.79861 0.23727 0.38324 0.0
C1227 C 0.8028 0.20457 0.38642 0.0
H1228 H 0.33352 0.72525 0.39346 0.0
H1229 H 0.32775 0.82257 0.3642 0.0
H1230 H 0.27732 0.71898 0.38422 0.0
H1231 H 0.27165 0.81608 0.35414 0.0
H1232 H 0.16794 0.80362 0.38784 0.0
H1233 H 0.22473 0.81083 0.38476 0.0
H1234 H 0.23463 0.71678 0.34817 0.0
H1235 H 0.17807 0.70914 0.352 0.0
C1236 C 0.32045 0.74529 0.38474 0.0
C1237 C 0.33536 0.77471 0.38039 0.0
C1238 C 0.28811 0.74158 0.37909 0.0
C1239 C 0.26967 0.76715 0.36878 0.0
C1240 C 0.2849 0.79602 0.36264 0.0
C1241 C 0.31729 0.79969 0.36822 0.0
C1242 C 0.18204 0.78443 0.379 0.0
C1243 C 0.168 0.75537 0.37117 0.0
C1244 C 0.21478 0.78873 0.3769 0.0
C1245 C 0.23451 0.76418 0.36673 0.0
C1246 C 0.22032 0.73597 0.35681 0.0
C1247 C 0.18759 0.73169 0.35885 0.0
H1248 H 0.30056 0.83788 0.86902 0.0
H1249 H 0.2141 0.84175 0.92131 0.0
H1250 H 0.29163 0.78229 0.85943 0.0
H1251 H 0.20594 0.78595 0.91257 0.0
H1252 H 0.1891 0.6868 0.88427 0.0
H1253 H 0.1945 0.74365 0.87891 0.0
H1254 H 0.29563 0.73498 0.88889 0.0
H1255 H 0.29037 0.67792 0.89275 0.0
C1256 C 0.27955 0.82724 0.87844 0.0
C1257 C 0.25871 0.84464 0.89699 0.0
C1258 C 0.27453 0.79504 0.873 0.0
C1259 C 0.24842 0.77928 0.88572 0.0
C1260 C 0.22636 0.79712 0.90233 0.0
C1261 C 0.23132 0.82932 0.90771 0.0
C1262 C 0.21261 0.69676 0.88452 0.0
C1263 C 0.23929 0.67751 0.88941 0.0
C1264 C 0.21566 0.72959 0.88182 0.0
C1265 C 0.24544 0.74414 0.88395 0.0
C1266 C 0.27228 0.72475 0.88697 0.0
C1267 C 0.26924 0.69191 0.88956 0.0
H1268 H 0.82722 0.19904 0.8833 0.0
H1269 H 0.83379 0.30049 0.89031 0.0
H1270 H 0.77037 0.20295 0.87668 0.0
H1271 H 0.77643 0.30446 0.88417 0.0
H1272 H 0.67372 0.30034 0.85088 0.0
H1273 H 0.73099 0.29457 0.84754 0.0
H1274 H 0.72732 0.21792 0.9125 0.0
H1275 H 0.67054 0.22421 0.91671 0.0
C1276 C 0.81669 0.22224 0.88278 0.0
C1277 C 0.83523 0.24942 0.88736 0.0
C1278 C 0.78396 0.22447 0.87931 0.0
C1279 C 0.76884 0.25398 0.88008 0.0
C1280 C 0.78741 0.28136 0.88326 0.0
C1281 C 0.82023 0.27909 0.887 0.0
C1282 C 0.68503 0.28216 0.8644 0.0
C1283 C 0.66726 0.26306 0.8844 0.0
C1284 C 0.7179 0.27889 0.86245 0.0
C1285 C 0.73372 0.25596 0.87991 0.0
C1286 C 0.71583 0.23568 0.89855 0.0
C1287 C 0.68309 0.23923 0.90085 0.0
H1288 H 0.21933 0.67326 0.60869 0.0
H1289 H 0.29651 0.6753 0.67319 0.0
H1290 H 0.2125 0.72978 0.61448 0.0
H1291 H 0.29015 0.73239 0.67809 0.0
H1292 H 0.29408 0.83656 0.63783 0.0
H1293 H 0.2988 0.7792 0.64294 0.0
H1294 H 0.19756 0.77165 0.65149 0.0
H1295 H 0.19273 0.82853 0.64611 0.0
C1296 C 0.23454 0.68545 0.62456 0.0
C1297 C 0.25878 0.66933 0.64017 0.0
C1298 C 0.23063 0.71809 0.6278 0.0
C1299 C 0.25095 0.73568 0.64655 0.0
C1300 C 0.27439 0.71957 0.66312 0.0
C1301 C 0.27802 0.68677 0.66024 0.0
C1302 C 0.27285 0.82273 0.64111 0.0
C1303 C 0.24302 0.83742 0.64113 0.0
C1304 C 0.27558 0.78985 0.64429 0.0
C1305 C 0.24851 0.77082 0.64733 0.0
C1306 C 0.21885 0.78559 0.64882 0.0
C1307 C 0.21615 0.81841 0.64598 0.0
H1308 H 0.83748 0.31797 0.64174 0.0
H1309 H 0.8496 0.21903 0.62079 0.0
H1310 H 0.78114 0.30973 0.64806 0.0
H1311 H 0.7927 0.21082 0.62745 0.0
H1312 H 0.68952 0.20758 0.66485 0.0
H1313 H 0.74659 0.21511 0.66775 0.0
H1314 H 0.73927 0.29569 0.60782 0.0
H1315 H 0.68289 0.28737 0.60331 0.0
C1316 C 0.82841 0.29426 0.63912 0.0
C1317 C 0.84835 0.2692 0.63039 0.0
C1318 C 0.79591 0.28964 0.64257 0.0
C1319 C 0.78242 0.25971 0.638 0.0
C1320 C 0.80244 0.23417 0.63118 0.0
C1321 C 0.835 0.23891 0.62721 0.0
C1322 C 0.69992 0.22671 0.65194 0.0
C1323 C 0.68113 0.24626 0.63317 0.0
C1324 C 0.73272 0.23111 0.65384 0.0
C1325 C 0.74745 0.25584 0.63785 0.0
C1326 C 0.7286 0.27647 0.62054 0.0
C1327 C 0.69601 0.27167 0.61806 0.0
loop_
_geom_bond_atom_site_label_1
_geom_bond_atom_site_label_2
_geom_bond_distance
_geom_bond_site_symmetry_2
_ccdc_geom_bond_type
C0 C1 1.351 . S
C0 N3 1.368 . S
C0 H5 0.931 . S
C1 C0 1.351 . S
C1 N2 1.373 . S
C1 H29 0.930 1_545 S
N2 C1 1.373 . S
N2 C4 1.340 . S
N3 C0 1.368 . S
N3 C4 1.321 . S
N3 Co6 2.135 . S
C4 N2 1.340 . S
C4 N3 1.321 . S
C4 H28 0.930 . S
H5 C0 0.931 . S
Co6 N3 2.135 . S
Co6 N9 2.121 . S
Co6 O14 2.055 . S
Co6 O17 2.039 . S
Co6 N20 2.140 . S
C7 O8 1.227 . S
C7 O17 1.265 . S
O8 C7 1.227 . S
N9 Co6 2.121 . S
N9 C11 1.375 . S
N9 C12 1.313 . S
C10 C11 1.338 . S
C10 N13 1.377 . S
C10 H30 0.930 . S
C11 N9 1.375 . S
C11 C10 1.338 . S
C11 H15 0.931 . S
C12 N9 1.313 . S
C12 N13 1.344 . S
C12 H16 0.930 . S
N13 C10 1.377 . S
N13 C12 1.344 . S
O14 Co6 2.055 . S
O14 C18 1.253 . S
H15 C11 0.931 . S
H16 C12 0.930 . S
O17 Co6 2.039 . S
O17 C7 1.265 . S
C18 O14 1.253 . S
C18 O19 1.227 . S
O19 C18 1.227 . S
N20 Co6 2.140 . S
N20 C23 1.346 . S
N20 C24 1.345 . S
C21 C22 1.387 . S
C21 C25 1.391 . S
C22 C21 1.387 . S
C22 C23 1.369 . S
C22 H31 0.929 . S
C23 N20 1.346 . S
C23 C22 1.369 . S
C23 H26 0.928 . S
C24 N20 1.345 . S
C24 C25 1.371 . S
C24 H27 0.931 . S
C25 C21 1.391 . S
C25 C24 1.371 . S
C25 H32 0.930 . S
H26 C23 0.928 . S
H27 C24 0.931 . S
H28 C4 0.930 . S
H29 C1 0.930 1_565 S
H30 C10 0.930 . S
H31 C22 0.929 . S
H32 C25 0.930 . S
C33 C34 1.351 . S
C33 N36 1.368 . S
C33 H38 0.931 . S
C34 C33 1.351 . S
C34 N35 1.373 . S
C34 H62 0.930 . S
N35 C34 1.373 . S
N35 C37 1.340 . S
N36 C33 1.368 . S
N36 C37 1.321 . S
N36 Co39 2.135 . S
C37 N35 1.340 . S
C37 N36 1.321 . S
C37 H61 0.930 . S
H38 C33 0.931 . S
Co39 N36 2.135 . S
Co39 N42 2.121 . S
Co39 O47 2.055 . S
Co39 O50 2.039 . S
Co39 N53 2.140 . S
C40 O41 1.227 . S
C40 O50 1.265 . S
O41 C40 1.227 . S
N42 Co39 2.121 . S
N42 C44 1.375 . S
N42 C45 1.313 . S
C43 C44 1.338 . S
C43 N46 1.377 . S
C43 H63 0.930 . S
C44 N42 1.375 . S
C44 C43 1.338 . S
C44 H48 0.931 . S
C45 N42 1.313 . S
C45 N46 1.344 . S
C45 H49 0.930 . S
N46 C43 1.377 . S
N46 C45 1.344 . S
O47 Co39 2.055 . S
O47 C51 1.253 . S
H48 C44 0.931 . S
H49 C45 0.930 . S
O50 Co39 2.039 . S
O50 C40 1.265 . S
C51 O47 1.253 . S
C51 O52 1.227 . S
O52 C51 1.227 . S
N53 Co39 2.140 . S
N53 C56 1.346 . S
N53 C57 1.345 . S
C54 C55 1.387 . S
C54 C58 1.391 . S
C55 C54 1.387 . S
C55 C56 1.369 . S
C55 H64 0.929 . S
C56 N53 1.346 . S
C56 C55 1.369 . S
C56 H59 0.928 . S
C57 N53 1.345 . S
C57 C58 1.371 . S
C57 H60 0.931 . S
C58 C54 1.391 . S
C58 C57 1.371 . S
C58 H65 0.930 . S
H59 C56 0.928 . S
H60 C57 0.931 . S
H61 C37 0.930 . S
H62 C34 0.930 . S
H63 C43 0.930 . S
H64 C55 0.929 . S
H65 C58 0.930 . S
C66 C67 1.351 . S
C66 N69 1.368 . S
C66 H71 0.931 . S
C67 C66 1.351 . S
C67 N68 1.373 . S
C67 H95 0.930 . S
N68 C67 1.373 . S
N68 C70 1.340 . S
N69 C66 1.368 . S
N69 C70 1.321 . S
N69 Co72 2.135 . S
C70 N68 1.340 . S
C70 N69 1.321 . S
C70 H94 0.930 . S
H71 C66 0.931 . S
Co72 N69 2.135 . S
Co72 N75 2.121 . S
Co72 O80 2.055 . S
Co72 O83 2.039 . S
Co72 N86 2.140 . S
C73 O74 1.227 . S
C73 O83 1.265 . S
O74 C73 1.227 . S
N75 Co72 2.121 . S
N75 C77 1.375 . S
N75 C78 1.313 . S
C76 C77 1.338 . S
C76 N79 1.377 . S
C76 H96 0.930 . S
C77 N75 1.375 . S
C77 C76 1.338 . S
C77 H81 0.931 . S
C78 N75 1.313 . S
C78 N79 1.344 . S
C78 H82 0.930 . S
N79 C76 1.377 . S
N79 C78 1.344 . S
O80 Co72 2.055 . S
O80 C84 1.253 . S
H81 C77 0.931 . S
H82 C78 0.930 . S
O83 Co72 2.039 . S
O83 C73 1.265 . S
C84 O80 1.253 . S
C84 O85 1.227 . S
O85 C84 1.227 . S
N86 Co72 2.140 . S
N86 C89 1.346 . S
N86 C90 1.345 . S
C87 C88 1.387 . S
C87 C91 1.391 . S
C88 C87 1.387 . S
C88 C89 1.369 . S
C88 H97 0.929 . S
C89 N86 1.346 . S
C89 C88 1.369 . S
C89 H92 0.928 . S
C90 N86 1.345 . S
C90 C91 1.371 . S
C90 H93 0.931 . S
C91 C87 1.391 . S
C91 C90 1.371 . S
C91 H98 0.930 . S
H92 C89 0.928 . S
H93 C90 0.931 . S
H94 C70 0.930 . S
H95 C67 0.930 . S
H96 C76 0.930 . S
H97 C88 0.929 . S
H98 C91 0.930 . S
C99 C100 1.351 . S
C99 N102 1.368 . S
C99 H104 0.931 . S
C100 C99 1.351 . S
C100 N101 1.373 . S
C100 H128 0.930 1_455 S
N101 C100 1.373 . S
N101 C103 1.340 . S
N102 C99 1.368 . S
N102 C103 1.321 . S
N102 Co105 2.135 . S
C103 N101 1.340 . S
C103 N102 1.321 . S
C103 H127 0.930 . S
H104 C99 0.931 . S
Co105 N102 2.135 . S
Co105 N108 2.121 . S
Co105 O113 2.055 . S
Co105 O116 2.039 . S
Co105 N119 2.140 . S
C106 O107 1.227 . S
C106 O116 1.265 . S
O107 C106 1.227 . S
N108 Co105 2.121 . S
N108 C110 1.375 . S
N108 C111 1.313 . S
C109 C110 1.338 . S
C109 N112 1.377 . S
C109 H129 0.930 . S
C110 N108 1.375 . S
C110 C109 1.338 . S
C110 H114 0.931 . S
C111 N108 1.313 . S
C111 N112 1.344 . S
C111 H115 0.930 . S
N112 C109 1.377 . S
N112 C111 1.344 . S
O113 Co105 2.055 . S
O113 C117 1.253 . S
H114 C110 0.931 . S
H115 C111 0.930 . S
O116 Co105 2.039 . S
O116 C106 1.265 . S
C117 O113 1.253 . S
C117 O118 1.227 . S
O118 C117 1.227 . S
N119 Co105 2.140 . S
N119 C122 1.346 . S
N119 C123 1.345 . S
C120 C121 1.387 . S
C120 C124 1.391 . S
C121 C120 1.387 . S
C121 C122 1.369 . S
C121 H130 0.929 . S
C122 N119 1.346 . S
C122 C121 1.369 . S
C122 H125 0.928 . S
C123 N119 1.345 . S
C123 C124 1.371 . S
C123 H126 0.931 . S
C124 C120 1.391 . S
C124 C123 1.371 . S
C124 H131 0.930 . S
H125 C122 0.928 . S
H126 C123 0.931 . S
H127 C103 0.930 . S
H128 C100 0.930 1_655 S
H129 C109 0.930 . S
H130 C121 0.929 . S
H131 C124 0.930 . S
C132 C133 1.351 . S
C132 N135 1.368 . S
C132 H137 0.931 . S
C133 C132 1.351 . S
C133 N134 1.373 . S
C133 H161 0.930 . S
N134 C133 1.373 . S
N134 C136 1.340 . S
N135 C132 1.368 . S
N135 C136 1.321 . S
N135 Co138 2.135 . S
C136 N134 1.340 . S
C136 N135 1.321 . S
C136 H160 0.930 . S
H137 C132 0.931 . S
Co138 N135 2.135 . S
Co138 N141 2.121 . S
Co138 O146 2.055 . S
Co138 O149 2.039 . S
Co138 N152 2.140 . S
C139 O140 1.227 . S
C139 O149 1.265 . S
O140 C139 1.227 . S
N141 Co138 2.121 . S
N141 C143 1.375 . S
N141 C144 1.313 . S
C142 C143 1.338 . S
C142 N145 1.377 . S
C142 H162 0.930 . S
C143 N141 1.375 . S
C143 C142 1.338 . S
C143 H147 0.931 . S
C144 N141 1.313 . S
C144 N145 1.344 . S
C144 H148 0.930 . S
N145 C142 1.377 . S
N145 C144 1.344 . S
O146 Co138 2.055 . S
O146 C150 1.253 . S
H147 C143 0.931 . S
H148 C144 0.930 . S
O149 Co138 2.039 . S
O149 C139 1.265 . S
C150 O146 1.253 . S
C150 O151 1.227 . S
O151 C150 1.227 . S
N152 Co138 2.140 . S
N152 C155 1.346 . S
N152 C156 1.345 . S
C153 C154 1.387 . S
C153 C157 1.391 . S
C154 C153 1.387 . S
C154 C155 1.369 . S
C154 H163 0.929 . S
C155 N152 1.346 . S
C155 C154 1.369 . S
C155 H158 0.928 . S
C156 N152 1.345 . S
C156 C157 1.371 . S
C156 H159 0.931 . S
C157 C153 1.391 . S
C157 C156 1.371 . S
C157 H164 0.930 . S
H158 C155 0.928 . S
H159 C156 0.931 . S
H160 C136 0.930 . S
H161 C133 0.930 . S
H162 C142 0.930 . S
H163 C154 0.929 . S
H164 C157 0.930 . S
C165 C166 1.351 . S
C165 N168 1.368 . S
C165 H170 0.931 . S
C166 C165 1.351 . S
C166 N167 1.373 . S
C166 H194 0.930 1_455 S
N167 C166 1.373 . S
N167 C169 1.340 . S
N168 C165 1.368 . S
N168 C169 1.321 . S
N168 Co171 2.135 . S
C169 N167 1.340 . S
C169 N168 1.321 . S
C169 H193 0.930 . S
H170 C165 0.931 . S
Co171 N168 2.135 . S
Co171 N174 2.121 . S
Co171 O179 2.055 . S
Co171 O182 2.039 . S
Co171 N185 2.140 . S
C172 O173 1.227 . S
C172 O182 1.265 . S
O173 C172 1.227 . S
N174 Co171 2.121 . S
N174 C176 1.375 . S
N174 C177 1.313 . S
C175 C176 1.338 . S
C175 N178 1.377 . S
C175 H195 0.930 . S
C176 N174 1.375 . S
C176 C175 1.338 . S
C176 H180 0.931 . S
C177 N174 1.313 . S
C177 N178 1.344 . S
C177 H181 0.930 . S
N178 C175 1.377 . S
N178 C177 1.344 . S
O179 Co171 2.055 . S
O179 C183 1.253 . S
H180 C176 0.931 . S
H181 C177 0.930 . S
O182 Co171 2.039 . S
O182 C172 1.265 . S
C183 O179 1.253 . S
C183 O184 1.227 . S
O184 C183 1.227 . S
N185 Co171 2.140 . S
N185 C188 1.346 . S
N185 C189 1.345 . S
C186 C187 1.387 . S
C186 C190 1.391 . S
C187 C186 1.387 . S
C187 C188 1.369 . S
C187 H196 0.929 . S
C188 N185 1.346 . S
C188 C187 1.369 . S
C188 H191 0.928 . S
C189 N185 1.345 . S
C189 C190 1.371 . S
C189 H192 0.931 . S
C190 C186 1.391 . S
C190 C189 1.371 . S
C190 H197 0.930 . S
H191 C188 0.928 . S
H192 C189 0.931 . S
H193 C169 0.930 . S
H194 C166 0.930 1_655 S
H195 C175 0.930 . S
H196 C187 0.929 . S
H197 C190 0.930 . S
C198 C199 1.351 . S
C198 N201 1.368 . S
C198 H203 0.931 . S
C199 C198 1.351 . S
C199 N200 1.373 . S
C199 H227 0.930 1_545 S
N200 C199 1.373 . S
N200 C202 1.340 . S
N201 C198 1.368 . S
N201 C202 1.321 . S
N201 Co204 2.135 . S
C202 N200 1.340 . S
C202 N201 1.321 . S
C202 H226 0.930 . S
H203 C198 0.931 . S
Co204 N201 2.135 . S
Co204 N207 2.121 . S
Co204 O212 2.055 . S
Co204 O215 2.039 . S
Co204 N218 2.140 . S
C205 O206 1.227 . S
C205 O215 1.265 . S
O206 C205 1.227 . S
N207 Co204 2.121 . S
N207 C209 1.375 . S
N207 C210 1.313 . S
C208 C209 1.338 . S
C208 N211 1.377 . S
C208 H228 0.930 . S
C209 N207 1.375 . S
C209 C208 1.338 . S
C209 H213 0.931 . S
C210 N207 1.313 . S
C210 N211 1.344 . S
C210 H214 0.930 . S
N211 C208 1.377 . S
N211 C210 1.344 . S
O212 Co204 2.055 . S
O212 C216 1.253 . S
H213 C209 0.931 . S
H214 C210 0.930 . S
O215 Co204 2.039 . S
O215 C205 1.265 . S
C216 O212 1.253 . S
C216 O217 1.227 . S
O217 C216 1.227 . S
N218 Co204 2.140 . S
N218 C221 1.346 . S
N218 C222 1.345 . S
C219 C220 1.387 . S
C219 C223 1.391 . S
C220 C219 1.387 . S
C220 C221 1.369 . S
C220 H229 0.929 . S
C221 N218 1.346 . S
C221 C220 1.369 . S
C221 H224 0.928 . S
C222 N218 1.345 . S
C222 C223 1.371 . S
C222 H225 0.931 . S
C223 C219 1.391 . S
C223 C222 1.371 . S
C223 H230 0.930 . S
H224 C221 0.928 . S
H225 C222 0.931 . S
H226 C202 0.930 . S
H227 C199 0.930 1_565 S
H228 C208 0.930 . S
H229 C220 0.929 . S
H230 C223 0.930 . S
C231 C232 1.351 . S
C231 N234 1.368 . S
C231 H236 0.931 . S
C232 C231 1.351 . S
C232 N233 1.373 . S
C232 H260 0.930 . S
N233 C232 1.373 . S
N233 C235 1.340 . S
N234 C231 1.368 . S
N234 C235 1.321 . S
N234 Co237 2.135 . S
C235 N233 1.340 . S
C235 N234 1.321 . S
C235 H259 0.930 . S
H236 C231 0.931 . S
Co237 N234 2.135 . S
Co237 N240 2.121 . S
Co237 O245 2.055 . S
Co237 O248 2.039 . S
Co237 N251 2.140 . S
C238 O239 1.227 . S
C238 O248 1.265 . S
O239 C238 1.227 . S
N240 Co237 2.121 . S
N240 C242 1.375 . S
N240 C243 1.313 . S
C241 C242 1.338 . S
C241 N244 1.377 . S
C241 H261 0.930 . S
C242 N240 1.375 . S
C242 C241 1.338 . S
C242 H246 0.931 . S
C243 N240 1.313 . S
C243 N244 1.344 . S
C243 H247 0.930 . S
N244 C241 1.377 . S
N244 C243 1.344 . S
O245 Co237 2.055 . S
O245 C249 1.253 . S
H246 C242 0.931 . S
H247 C243 0.930 . S
O248 Co237 2.039 . S
O248 C238 1.265 . S
C249 O245 1.253 . S
C249 O250 1.227 . S
O250 C249 1.227 . S
N251 Co237 2.140 . S
N251 C254 1.346 . S
N251 C255 1.345 . S
C252 C253 1.387 . S
C252 C256 1.391 . S
C253 C252 1.387 . S
C253 C254 1.369 . S
C253 H262 0.929 . S
C254 N251 1.346 . S
C254 C253 1.369 . S
C254 H257 0.928 . S
C255 N251 1.345 . S
C255 C256 1.371 . S
C255 H258 0.931 . S
C256 C252 1.391 . S
C256 C255 1.371 . S
C256 H263 0.930 . S
H257 C254 0.928 . S
H258 C255 0.931 . S
H259 C235 0.930 . S
H260 C232 0.930 . S
H261 C241 0.930 . S
H262 C253 0.929 . S
H263 C256 0.930 . S
C264 C265 1.351 . S
C264 N267 1.368 . S
C264 H269 0.931 . S
C265 C264 1.351 . S
C265 N266 1.373 . S
C265 H293 0.930 1_565 S
N266 C265 1.373 . S
N266 C268 1.340 . S
N267 C264 1.368 . S
N267 C268 1.321 . S
N267 Co270 2.135 . S
C268 N266 1.340 . S
C268 N267 1.321 . S
C268 H292 0.930 . S
H269 C264 0.931 . S
Co270 N267 2.135 . S
Co270 N273 2.121 . S
Co270 O278 2.055 . S
Co270 O281 2.039 . S
Co270 N284 2.140 . S
C271 O272 1.227 . S
C271 O281 1.265 . S
O272 C271 1.227 . S
N273 Co270 2.121 . S
N273 C275 1.375 . S
N273 C276 1.313 . S
C274 C275 1.338 . S
C274 N277 1.377 . S
C274 H294 0.930 . S
C275 N273 1.375 . S
C275 C274 1.338 . S
C275 H279 0.931 . S
C276 N273 1.313 . S
C276 N277 1.344 . S
C276 H280 0.930 . S
N277 C274 1.377 . S
N277 C276 1.344 . S
O278 Co270 2.055 . S
O278 C282 1.253 . S
H279 C275 0.931 . S
H280 C276 0.930 . S
O281 Co270 2.039 . S
O281 C271 1.265 . S
C282 O278 1.253 . S
C282 O283 1.227 . S
O283 C282 1.227 . S
N284 Co270 2.140 . S
N284 C287 1.346 . S
N284 C288 1.345 . S
C285 C286 1.387 . S
C285 C289 1.391 . S
C286 C285 1.387 . S
C286 C287 1.369 . S
C286 H295 0.929 . S
C287 N284 1.346 . S
C287 C286 1.369 . S
C287 H290 0.928 . S
C288 N284 1.345 . S
C288 C289 1.371 . S
C288 H291 0.931 . S
C289 C285 1.391 . S
C289 C288 1.371 . S
C289 H296 0.930 . S
H290 C287 0.928 . S
H291 C288 0.931 . S
H292 C268 0.930 . S
H293 C265 0.930 1_545 S
H294 C274 0.930 . S
H295 C286 0.929 . S
H296 C289 0.930 . S
C297 C298 1.351 . S
C297 N300 1.368 . S
C297 H302 0.931 . S
C298 C297 1.351 . S
C298 N299 1.373 . S
C298 H326 0.930 . S
N299 C298 1.373 . S
N299 C301 1.340 . S
N300 C297 1.368 . S
N300 C301 1.321 . S
N300 Co303 2.135 . S
C301 N299 1.340 . S
C301 N300 1.321 . S
C301 H325 0.930 . S
H302 C297 0.931 . S
Co303 N300 2.135 . S
Co303 N306 2.121 . S
Co303 O311 2.055 . S
Co303 O314 2.039 . S
Co303 N317 2.140 . S
C304 O305 1.227 . S
C304 O314 1.265 . S
O305 C304 1.227 . S
N306 Co303 2.121 . S
N306 C308 1.375 . S
N306 C309 1.313 . S
C307 C308 1.338 . S
C307 N310 1.377 . S
C307 H327 0.930 . S
C308 N306 1.375 . S
C308 C307 1.338 . S
C308 H312 0.931 . S
C309 N306 1.313 . S
C309 N310 1.344 . S
C309 H313 0.930 . S
N310 C307 1.377 . S
N310 C309 1.344 . S
O311 Co303 2.055 . S
O311 C315 1.253 . S
H312 C308 0.931 . S
H313 C309 0.930 . S
O314 Co303 2.039 . S
O314 C304 1.265 . S
C315 O311 1.253 . S
C315 O316 1.227 . S
O316 C315 1.227 . S
N317 Co303 2.140 . S
N317 C320 1.346 . S
N317 C321 1.345 . S
C318 C319 1.387 . S
C318 C322 1.391 . S
C319 C318 1.387 . S
C319 C320 1.369 . S
C319 H328 0.929 . S
C320 N317 1.346 . S
C320 C319 1.369 . S
C320 H323 0.928 . S
C321 N317 1.345 . S
C321 C322 1.371 . S
C321 H324 0.931 . S
C322 C318 1.391 . S
C322 C321 1.371 . S
C322 H329 0.930 . S
H323 C320 0.928 . S
H324 C321 0.931 . S
H325 C301 0.930 . S
H326 C298 0.930 . S
H327 C307 0.930 . S
H328 C319 0.929 . S
H329 C322 0.930 . S
C330 C331 1.351 . S
C330 N333 1.368 . S
C330 H335 0.931 . S
C331 C330 1.351 . S
C331 N332 1.373 . S
C331 H359 0.930 . S
N332 C331 1.373 . S
N332 C334 1.340 . S
N333 C330 1.368 . S
N333 C334 1.321 . S
N333 Co336 2.135 . S
C334 N332 1.340 . S
C334 N333 1.321 . S
C334 H358 0.930 . S
H335 C330 0.931 . S
Co336 N333 2.135 . S
Co336 N339 2.121 . S
Co336 O344 2.055 . S
Co336 O347 2.039 . S
Co336 N350 2.140 . S
C337 O338 1.227 . S
C337 O347 1.265 . S
O338 C337 1.227 . S
N339 Co336 2.121 . S
N339 C341 1.375 . S
N339 C342 1.313 . S
C340 C341 1.338 . S
C340 N343 1.377 . S
C340 H360 0.930 . S
C341 N339 1.375 . S
C341 C340 1.338 . S
C341 H345 0.931 . S
C342 N339 1.313 . S
C342 N343 1.344 . S
C342 H346 0.930 . S
N343 C340 1.377 . S
N343 C342 1.344 . S
O344 Co336 2.055 . S
O344 C348 1.253 . S
H345 C341 0.931 . S
H346 C342 0.930 . S
O347 Co336 2.039 . S
O347 C337 1.265 . S
C348 O344 1.253 . S
C348 O349 1.227 . S
O349 C348 1.227 . S
N350 Co336 2.140 . S
N350 C353 1.346 . S
N350 C354 1.345 . S
C351 C352 1.387 . S
C351 C355 1.391 . S
C352 C351 1.387 . S
C352 C353 1.369 . S
C352 H361 0.929 . S
C353 N350 1.346 . S
C353 C352 1.369 . S
C353 H356 0.928 . S
C354 N350 1.345 . S
C354 C355 1.371 . S
C354 H357 0.931 . S
C355 C351 1.391 . S
C355 C354 1.371 . S
C355 H362 0.930 . S
H356 C353 0.928 . S
H357 C354 0.931 . S
H358 C334 0.930 . S
H359 C331 0.930 . S
H360 C340 0.930 . S
H361 C352 0.929 . S
H362 C355 0.930 . S
C363 C364 1.351 . S
C363 N366 1.368 . S
C363 H368 0.931 . S
C364 C363 1.351 . S
C364 N365 1.373 . S
C364 H392 0.930 1_655 S
N365 C364 1.373 . S
N365 C367 1.340 . S
N366 C363 1.368 . S
N366 C367 1.321 . S
N366 Co369 2.135 . S
C367 N365 1.340 . S
C367 N366 1.321 . S
C367 H391 0.930 . S
H368 C363 0.931 . S
Co369 N366 2.135 . S
Co369 N372 2.121 . S
Co369 O377 2.055 . S
Co369 O380 2.039 . S
Co369 N383 2.140 . S
C370 O371 1.227 . S
C370 O380 1.265 . S
O371 C370 1.227 . S
N372 Co369 2.121 . S
N372 C374 1.375 . S
N372 C375 1.313 . S
C373 C374 1.338 . S
C373 N376 1.377 . S
C373 H393 0.930 . S
C374 N372 1.375 . S
C374 C373 1.338 . S
C374 H378 0.931 . S
C375 N372 1.313 . S
C375 N376 1.344 . S
C375 H379 0.930 . S
N376 C373 1.377 . S
N376 C375 1.344 . S
O377 Co369 2.055 . S
O377 C381 1.253 . S
H378 C374 0.931 . S
H379 C375 0.930 . S
O380 Co369 2.039 . S
O380 C370 1.265 . S
C381 O377 1.253 . S
C381 O382 1.227 . S
O382 C381 1.227 . S
N383 Co369 2.140 . S
N383 C386 1.346 . S
N383 C387 1.345 . S
C384 C385 1.387 . S
C384 C388 1.391 . S
C385 C384 1.387 . S
C385 C386 1.369 . S
C385 H394 0.929 . S
C386 N383 1.346 . S
C386 C385 1.369 . S
C386 H389 0.928 . S
C387 N383 1.345 . S
C387 C388 1.371 . S
C387 H390 0.931 . S
C388 C384 1.391 . S
C388 C387 1.371 . S
C388 H395 0.930 . S
H389 C386 0.928 . S
H390 C387 0.931 . S
H391 C367 0.930 . S
H392 C364 0.930 1_455 S
H393 C373 0.930 . S
H394 C385 0.929 . S
H395 C388 0.930 . S
C396 C397 1.351 . S
C396 N399 1.368 . S
C396 H401 0.931 . S
C397 C396 1.351 . S
C397 N398 1.373 . S
C397 H425 0.930 . S
N398 C397 1.373 . S
N398 C400 1.340 . S
N399 C396 1.368 . S
N399 C400 1.321 . S
N399 Co402 2.135 . S
C400 N398 1.340 . S
C400 N399 1.321 . S
C400 H424 0.930 . S
H401 C396 0.931 . S
Co402 N399 2.135 . S
Co402 N405 2.121 . S
Co402 O410 2.055 . S
Co402 O413 2.039 . S
Co402 N416 2.140 . S
C403 O404 1.227 . S
C403 O413 1.265 . S
O404 C403 1.227 . S
N405 Co402 2.121 . S
N405 C407 1.375 . S
N405 C408 1.313 . S
C406 C407 1.338 . S
C406 N409 1.377 . S
C406 H426 0.930 . S
C407 N405 1.375 . S
C407 C406 1.338 . S
C407 H411 0.931 . S
C408 N405 1.313 . S
C408 N409 1.344 . S
C408 H412 0.930 . S
N409 C406 1.377 . S
N409 C408 1.344 . S
O410 Co402 2.055 . S
O410 C414 1.253 . S
H411 C407 0.931 . S
H412 C408 0.930 . S
O413 Co402 2.039 . S
O413 C403 1.265 . S
C414 O410 1.253 . S
C414 O415 1.227 . S
O415 C414 1.227 . S
N416 Co402 2.140 . S
N416 C419 1.346 . S
N416 C420 1.345 . S
C417 C418 1.387 . S
C417 C421 1.391 . S
C418 C417 1.387 . S
C418 C419 1.369 . S
C418 H427 0.929 . S
C419 N416 1.346 . S
C419 C418 1.369 . S
C419 H422 0.928 . S
C420 N416 1.345 . S
C420 C421 1.371 . S
C420 H423 0.931 . S
C421 C417 1.391 . S
C421 C420 1.371 . S
C421 H428 0.930 . S
H422 C419 0.928 . S
H423 C420 0.931 . S
H424 C400 0.930 . S
H425 C397 0.930 . S
H426 C406 0.930 . S
H427 C418 0.929 . S
H428 C421 0.930 . S
C429 C430 1.351 . S
C429 N432 1.368 . S
C429 H434 0.931 . S
C430 C429 1.351 . S
C430 N431 1.373 . S
C430 H458 0.930 1_655 S
N431 C430 1.373 . S
N431 C433 1.340 . S
N432 C429 1.368 . S
N432 C433 1.321 . S
N432 Co435 2.135 . S
C433 N431 1.340 . S
C433 N432 1.321 . S
C433 H457 0.930 . S
H434 C429 0.931 . S
Co435 N432 2.135 . S
Co435 N438 2.121 . S
Co435 O443 2.055 . S
Co435 O446 2.039 . S
Co435 N449 2.140 . S
C436 O437 1.227 . S
C436 O446 1.265 . S
O437 C436 1.227 . S
N438 Co435 2.121 . S
N438 C440 1.375 . S
N438 C441 1.313 . S
C439 C440 1.338 . S
C439 N442 1.377 . S
C439 H459 0.930 . S
C440 N438 1.375 . S
C440 C439 1.338 . S
C440 H444 0.931 . S
C441 N438 1.313 . S
C441 N442 1.344 . S
C441 H445 0.930 . S
N442 C439 1.377 . S
N442 C441 1.344 . S
O443 Co435 2.055 . S
O443 C447 1.253 . S
H444 C440 0.931 . S
H445 C441 0.930 . S
O446 Co435 2.039 . S
O446 C436 1.265 . S
C447 O443 1.253 . S
C447 O448 1.227 . S
O448 C447 1.227 . S
N449 Co435 2.140 . S
N449 C452 1.346 . S
N449 C453 1.345 . S
C450 C451 1.387 . S
C450 C454 1.391 . S
C451 C450 1.387 . S
C451 C452 1.369 . S
C451 H460 0.929 . S
C452 N449 1.346 . S
C452 C451 1.369 . S
C452 H455 0.928 . S
C453 N449 1.345 . S
C453 C454 1.371 . S
C453 H456 0.931 . S
C454 C450 1.391 . S
C454 C453 1.371 . S
C454 H461 0.930 . S
H455 C452 0.928 . S
H456 C453 0.931 . S
H457 C433 0.930 . S
H458 C430 0.930 1_455 S
H459 C439 0.930 . S
H460 C451 0.929 . S
H461 C454 0.930 . S
C462 C463 1.351 . S
C462 N465 1.368 . S
C462 H467 0.931 . S
C463 C462 1.351 . S
C463 N464 1.373 . S
C463 H491 0.930 1_565 S
N464 C463 1.373 . S
N464 C466 1.340 . S
N465 C462 1.368 . S
N465 C466 1.321 . S
N465 Co468 2.135 . S
C466 N464 1.340 . S
C466 N465 1.321 . S
C466 H490 0.930 . S
H467 C462 0.931 . S
Co468 N465 2.135 . S
Co468 N471 2.121 . S
Co468 O476 2.055 . S
Co468 O479 2.039 . S
Co468 N482 2.140 . S
C469 O470 1.227 . S
C469 O479 1.265 . S
O470 C469 1.227 . S
N471 Co468 2.121 . S
N471 C473 1.375 . S
N471 C474 1.313 . S
C472 C473 1.338 . S
C472 N475 1.377 . S
C472 H492 0.930 . S
C473 N471 1.375 . S
C473 C472 1.338 . S
C473 H477 0.931 . S
C474 N471 1.313 . S
C474 N475 1.344 . S
C474 H478 0.930 . S
N475 C472 1.377 . S
N475 C474 1.344 . S
O476 Co468 2.055 . S
O476 C480 1.253 . S
H477 C473 0.931 . S
H478 C474 0.930 . S
O479 Co468 2.039 . S
O479 C469 1.265 . S
C480 O476 1.253 . S
C480 O481 1.227 . S
O481 C480 1.227 . S
N482 Co468 2.140 . S
N482 C485 1.346 . S
N482 C486 1.345 . S
C483 C484 1.387 . S
C483 C487 1.391 . S
C484 C483 1.387 . S
C484 C485 1.369 . S
C484 H493 0.929 . S
C485 N482 1.346 . S
C485 C484 1.369 . S
C485 H488 0.928 . S
C486 N482 1.345 . S
C486 C487 1.371 . S
C486 H489 0.931 . S
C487 C483 1.391 . S
C487 C486 1.371 . S
C487 H494 0.930 . S
H488 C485 0.928 . S
H489 C486 0.931 . S
H490 C466 0.930 . S
H491 C463 0.930 1_545 S
H492 C472 0.930 . S
H493 C484 0.929 . S
H494 C487 0.930 . S
C495 C496 1.351 . S
C495 N498 1.368 . S
C495 H500 0.931 . S
C496 C495 1.351 . S
C496 N497 1.373 . S
C496 H524 0.930 . S
N497 C496 1.373 . S
N497 C499 1.340 . S
N498 C495 1.368 . S
N498 C499 1.321 . S
N498 Co501 2.135 . S
C499 N497 1.340 . S
C499 N498 1.321 . S
C499 H523 0.930 . S
H500 C495 0.931 . S
Co501 N498 2.135 . S
Co501 N504 2.121 . S
Co501 O509 2.055 . S
Co501 O512 2.039 . S
Co501 N515 2.140 . S
C502 O503 1.227 . S
C502 O512 1.265 . S
O503 C502 1.227 . S
N504 Co501 2.121 . S
N504 C506 1.375 . S
N504 C507 1.313 . S
C505 C506 1.338 . S
C505 N508 1.377 . S
C505 H525 0.930 . S
C506 N504 1.375 . S
C506 C505 1.338 . S
C506 H510 0.931 . S
C507 N504 1.313 . S
C507 N508 1.344 . S
C507 H511 0.930 . S
N508 C505 1.377 . S
N508 C507 1.344 . S
O509 Co501 2.055 . S
O509 C513 1.253 . S
H510 C506 0.931 . S
H511 C507 0.930 . S
O512 Co501 2.039 . S
O512 C502 1.265 . S
C513 O509 1.253 . S
C513 O514 1.227 . S
O514 C513 1.227 . S
N515 Co501 2.140 . S
N515 C518 1.346 . S
N515 C519 1.345 . S
C516 C517 1.387 . S
C516 C520 1.391 . S
C517 C516 1.387 . S
C517 C518 1.369 . S
C517 H526 0.929 . S
C518 N515 1.346 . S
C518 C517 1.369 . S
C518 H521 0.928 . S
C519 N515 1.345 . S
C519 C520 1.371 . S
C519 H522 0.931 . S
C520 C516 1.391 . S
C520 C519 1.371 . S
C520 H527 0.930 . S
H521 C518 0.928 . S
H522 C519 0.931 . S
H523 C499 0.930 . S
H524 C496 0.930 . S
H525 C505 0.930 . S
H526 C517 0.929 . S
H527 C520 0.930 . S
H528 C536 0.950 . S
H529 C541 0.950 . S
H530 C538 0.950 . S
H531 C540 0.950 . S
H532 C542 0.950 . S
H533 C544 0.950 . S
H534 C546 0.950 . S
H535 C547 0.950 . S
C536 H528 0.950 . S
C536 C537 1.386 . S
C536 C538 1.391 . S
C537 C536 1.386 . S
C537 C541 1.393 . S
C538 H530 0.950 . S
C538 C536 1.391 . S
C538 C539 1.400 . S
C539 C538 1.400 . S
C539 C540 1.398 . S
C539 C545 1.491 . S
C540 H531 0.950 . S
C540 C539 1.398 . S
C540 C541 1.391 . S
C541 H529 0.950 . S
C541 C537 1.393 . S
C541 C540 1.391 . S
C542 H532 0.950 . S
C542 C543 1.386 . S
C542 C544 1.391 . S
C543 C542 1.386 . S
C543 C547 1.393 . S
C544 H533 0.950 . S
C544 C542 1.391 . S
C544 C545 1.400 . S
C545 C539 1.491 . S
C545 C544 1.400 . S
C545 C546 1.398 . S
C546 H534 0.950 . S
C546 C545 1.398 . S
C546 C547 1.391 . S
C547 H535 0.950 . S
C547 C543 1.393 . S
C547 C546 1.391 . S
H548 C556 0.950 . S
H549 C561 0.950 . S
H550 C558 0.950 . S
H551 C560 0.950 . S
H552 C562 0.950 . S
H553 C564 0.950 . S
H554 C566 0.950 . S
H555 C567 0.950 . S
C556 H548 0.950 . S
C556 C557 1.386 . S
C556 C558 1.391 . S
C557 C556 1.386 . S
C557 C561 1.393 . S
C558 H550 0.950 . S
C558 C556 1.391 . S
C558 C559 1.400 . S
C559 C558 1.400 . S
C559 C560 1.398 . S
C559 C565 1.491 . S
C560 H551 0.950 . S
C560 C559 1.398 . S
C560 C561 1.391 . S
C561 H549 0.950 . S
C561 C557 1.393 . S
C561 C560 1.391 . S
C562 H552 0.950 . S
C562 C563 1.386 . S
C562 C564 1.391 . S
C563 C562 1.386 . S
C563 C567 1.393 . S
C564 H553 0.950 . S
C564 C562 1.391 . S
C564 C565 1.400 . S
C565 C559 1.491 . S
C565 C564 1.400 . S
C565 C566 1.398 . S
C566 H554 0.950 . S
C566 C565 1.398 . S
C566 C567 1.391 . S
C567 H555 0.950 . S
C567 C563 1.393 . S
C567 C566 1.391 . S
H568 C576 0.950 . S
H569 C581 0.950 . S
H570 C578 0.950 . S
H571 C580 0.950 . S
H572 C582 0.950 . S
H573 C584 0.950 . S
H574 C586 0.950 . S
H575 C587 0.950 . S
C576 H568 0.950 . S
C576 C577 1.386 . S
C576 C578 1.391 . S
C577 C576 1.386 . S
C577 C581 1.393 . S
C578 H570 0.950 . S
C578 C576 1.391 . S
C578 C579 1.400 . S
C579 C578 1.400 . S
C579 C580 1.398 . S
C579 C585 1.491 . S
C580 H571 0.950 . S
C580 C579 1.398 . S
C580 C581 1.391 . S
C581 H569 0.950 . S
C581 C577 1.393 . S
C581 C580 1.391 . S
C582 H572 0.950 . S
C582 C583 1.386 . S
C582 C584 1.391 . S
C583 C582 1.386 . S
C583 C587 1.393 . S
C584 H573 0.950 . S
C584 C582 1.391 . S
C584 C585 1.400 . S
C585 C579 1.491 . S
C585 C584 1.400 . S
C585 C586 1.398 . S
C586 H574 0.950 . S
C586 C585 1.398 . S
C586 C587 1.391 . S
C587 H575 0.950 . S
C587 C583 1.393 . S
C587 C586 1.391 . S
H588 C596 0.950 . S
H589 C601 0.950 . S
H590 C598 0.950 . S
H591 C600 0.950 . S
H592 C602 0.950 . S
H593 C604 0.950 . S
H594 C606 0.950 . S
H595 C607 0.950 . S
C596 H588 0.950 . S
C596 C597 1.386 . S
C596 C598 1.391 . S
C597 C596 1.386 . S
C597 C601 1.393 . S
C598 H590 0.950 . S
C598 C596 1.391 . S
C598 C599 1.400 . S
C599 C598 1.400 . S
C599 C600 1.398 . S
C599 C605 1.491 . S
C600 H591 0.950 . S
C600 C599 1.398 . S
C600 C601 1.391 . S
C601 H589 0.950 . S
C601 C597 1.393 . S
C601 C600 1.391 . S
C602 H592 0.950 . S
C602 C603 1.386 . S
C602 C604 1.391 . S
C603 C602 1.386 . S
C603 C607 1.393 . S
C604 H593 0.950 . S
C604 C602 1.391 . S
C604 C605 1.400 . S
C605 C599 1.491 . S
C605 C604 1.400 . S
C605 C606 1.398 . S
C606 H594 0.950 . S
C606 C605 1.398 . S
C606 C607 1.391 . S
C607 H595 0.950 . S
C607 C603 1.393 . S
C607 C606 1.391 . S
H608 C616 0.950 . S
H609 C621 0.950 . S
H610 C618 0.950 . S
H611 C620 0.950 . S
H612 C622 0.950 . S
H613 C624 0.950 . S
H614 C626 0.950 . S
H615 C627 0.950 . S
C616 H608 0.950 . S
C616 C617 1.386 . S
C616 C618 1.391 . S
C617 C616 1.386 . S
C617 C621 1.393 . S
C618 H610 0.950 . S
C618 C616 1.391 . S
C618 C619 1.400 . S
C619 C618 1.400 . S
C619 C620 1.398 . S
C619 C625 1.491 . S
C620 H611 0.950 . S
C620 C619 1.398 . S
C620 C621 1.391 . S
C621 H609 0.950 . S
C621 C617 1.393 . S
C621 C620 1.391 . S
C622 H612 0.950 . S
C622 C623 1.386 . S
C622 C624 1.391 . S
C623 C622 1.386 . S
C623 C627 1.393 . S
C624 H613 0.950 . S
C624 C622 1.391 . S
C624 C625 1.400 . S
C625 C619 1.491 . S
C625 C624 1.400 . S
C625 C626 1.398 . S
C626 H614 0.950 . S
C626 C625 1.398 . S
C626 C627 1.391 . S
C627 H615 0.950 . S
C627 C623 1.393 . S
C627 C626 1.391 . S
H628 C636 0.950 . S
H629 C641 0.950 . S
H630 C638 0.950 . S
H631 C640 0.950 . S
H632 C642 0.950 . S
H633 C644 0.950 . S
H634 C646 0.950 . S
H635 C647 0.950 . S
C636 H628 0.950 . S
C636 C637 1.386 . S
C636 C638 1.391 . S
C637 C636 1.386 . S
C637 C641 1.393 . S
C638 H630 0.950 . S
C638 C636 1.391 . S
C638 C639 1.400 . S
C639 C638 1.400 . S
C639 C640 1.398 . S
C639 C645 1.491 . S
C640 H631 0.950 . S
C640 C639 1.398 . S
C640 C641 1.391 . S
C641 H629 0.950 . S
C641 C637 1.393 . S
C641 C640 1.391 . S
C642 H632 0.950 . S
C642 C643 1.386 . S
C642 C644 1.391 . S
C643 C642 1.386 . S
C643 C647 1.393 . S
C644 H633 0.950 . S
C644 C642 1.391 . S
C644 C645 1.400 . S
C645 C639 1.491 . S
C645 C644 1.400 . S
C645 C646 1.398 . S
C646 H634 0.950 . S
C646 C645 1.398 . S
C646 C647 1.391 . S
C647 H635 0.950 . S
C647 C643 1.393 . S
C647 C646 1.391 . S
H648 C656 0.950 . S
H649 C661 0.950 . S
H650 C658 0.950 . S
H651 C660 0.950 . S
H652 C662 0.950 . S
H653 C664 0.950 . S
H654 C666 0.950 . S
H655 C667 0.950 . S
C656 H648 0.950 . S
C656 C657 1.386 . S
C656 C658 1.391 . S
C657 C656 1.386 . S
C657 C661 1.393 . S
C658 H650 0.950 . S
C658 C656 1.391 . S
C658 C659 1.400 . S
C659 C658 1.400 . S
C659 C660 1.398 . S
C659 C665 1.491 . S
C660 H651 0.950 . S
C660 C659 1.398 . S
C660 C661 1.391 . S
C661 H649 0.950 . S
C661 C657 1.393 . S
C661 C660 1.391 . S
C662 H652 0.950 . S
C662 C663 1.386 . S
C662 C664 1.391 . S
C663 C662 1.386 . S
C663 C667 1.393 . S
C664 H653 0.950 . S
C664 C662 1.391 . S
C664 C665 1.400 . S
C665 C659 1.491 . S
C665 C664 1.400 . S
C665 C666 1.398 . S
C666 H654 0.950 . S
C666 C665 1.398 . S
C666 C667 1.391 . S
C667 H655 0.950 . S
C667 C663 1.393 . S
C667 C666 1.391 . S
H668 C676 0.950 . S
H669 C681 0.950 . S
H670 C678 0.950 . S
H671 C680 0.950 . S
H672 C682 0.950 . S
H673 C684 0.950 . S
H674 C686 0.950 . S
H675 C687 0.950 . S
C676 H668 0.950 . S
C676 C677 1.386 . S
C676 C678 1.391 . S
C677 C676 1.386 . S
C677 C681 1.393 . S
C678 H670 0.950 . S
C678 C676 1.391 . S
C678 C679 1.400 . S
C679 C678 1.400 . S
C679 C680 1.398 . S
C679 C685 1.491 . S
C680 H671 0.950 . S
C680 C679 1.398 . S
C680 C681 1.391 . S
C681 H669 0.950 . S
C681 C677 1.393 . S
C681 C680 1.391 . S
C682 H672 0.950 . S
C682 C683 1.386 . S
C682 C684 1.391 . S
C683 C682 1.386 . S
C683 C687 1.393 . S
C684 H673 0.950 . S
C684 C682 1.391 . S
C684 C685 1.400 . S
C685 C679 1.491 . S
C685 C684 1.400 . S
C685 C686 1.398 . S
C686 H674 0.950 . S
C686 C685 1.398 . S
C686 C687 1.391 . S
C687 H675 0.950 . S
C687 C683 1.393 . S
C687 C686 1.391 . S
H688 C696 0.950 . S
H689 C701 0.950 . S
H690 C698 0.950 1_554 S
H691 C700 0.950 . S
H692 C702 0.950 . S
H693 C704 0.950 1_556 S
H694 C706 0.950 . S
H695 C707 0.950 . S
C696 H688 0.950 . S
C696 C697 1.386 . S
C696 C698 1.391 . S
C697 C696 1.386 . S
C697 C701 1.393 1_565 S
C698 H690 0.950 1_556 S
C698 C696 1.391 . S
C698 C699 1.400 . S
C699 C698 1.400 . S
C699 C700 1.398 1_565 S
C699 C705 1.491 1_566 S
C700 H691 0.950 . S
C700 C699 1.398 1_545 S
C700 C701 1.391 . S
C701 H689 0.950 . S
C701 C697 1.393 1_545 S
C701 C700 1.391 . S
C702 H692 0.950 . S
C702 C703 1.386 . S
C702 C704 1.391 . S
C703 C702 1.386 . S
C703 C707 1.393 1_545 S
C704 H693 0.950 1_554 S
C704 C702 1.391 . S
C704 C705 1.400 . S
C705 C699 1.491 1_544 S
C705 C704 1.400 . S
C705 C706 1.398 1_545 S
C706 H694 0.950 . S
C706 C705 1.398 1_565 S
C706 C707 1.391 . S
C707 H695 0.950 . S
C707 C703 1.393 1_565 S
C707 C706 1.391 . S
H708 C716 0.950 . S
H709 C721 0.950 . S
H710 C718 0.950 1_554 S
H711 C720 0.950 . S
H712 C722 0.950 . S
H713 C724 0.950 1_556 S
H714 C726 0.950 . S
H715 C727 0.950 . S
C716 H708 0.950 . S
C716 C717 1.386 . S
C716 C718 1.391 . S
C717 C716 1.386 . S
C717 C721 1.393 . S
C718 H710 0.950 1_556 S
C718 C716 1.391 . S
C718 C719 1.400 . S
C719 C718 1.400 . S
C719 C720 1.398 . S
C719 C725 1.491 1_556 S
C720 H711 0.950 . S
C720 C719 1.398 . S
C720 C721 1.391 . S
C721 H709 0.950 . S
C721 C717 1.393 . S
C721 C720 1.391 . S
C722 H712 0.950 . S
C722 C723 1.386 . S
C722 C724 1.391 . S
C723 C722 1.386 . S
C723 C727 1.393 . S
C724 H713 0.950 1_554 S
C724 C722 1.391 . S
C724 C725 1.400 . S
C725 C719 1.491 1_554 S
C725 C724 1.400 . S
C725 C726 1.398 . S
C726 H714 0.950 . S
C726 C725 1.398 . S
C726 C727 1.391 . S
C727 H715 0.950 . S
C727 C723 1.393 . S
C727 C726 1.391 . S
H728 C736 0.950 . S
H729 C741 0.950 . S
H730 C738 0.950 1_554 S
H731 C740 0.950 1_655 S
H732 C742 0.950 . S
H733 C744 0.950 1_556 S
H734 C746 0.950 1_455 S
H735 C747 0.950 . S
C736 H728 0.950 . S
C736 C737 1.386 . S
C736 C738 1.391 . S
C737 C736 1.386 . S
C737 C741 1.393 . S
C738 H730 0.950 1_556 S
C738 C736 1.391 . S
C738 C739 1.400 . S
C739 C738 1.400 . S
C739 C740 1.398 . S
C739 C745 1.491 1_456 S
C740 H731 0.950 1_455 S
C740 C739 1.398 . S
C740 C741 1.391 . S
C741 H729 0.950 . S
C741 C737 1.393 . S
C741 C740 1.391 . S
C742 H732 0.950 . S
C742 C743 1.386 . S
C742 C744 1.391 . S
C743 C742 1.386 . S
C743 C747 1.393 . S
C744 H733 0.950 1_554 S
C744 C742 1.391 . S
C744 C745 1.400 . S
C745 C739 1.491 1_654 S
C745 C744 1.400 . S
C745 C746 1.398 . S
C746 H734 0.950 1_655 S
C746 C745 1.398 . S
C746 C747 1.391 . S
C747 H735 0.950 . S
C747 C743 1.393 . S
C747 C746 1.391 . S
H748 C756 0.950 . S
H749 C761 0.950 . S
H750 C758 0.950 . S
H751 C760 0.950 . S
H752 C762 0.950 . S
H753 C764 0.950 . S
H754 C766 0.950 . S
H755 C767 0.950 . S
C756 H748 0.950 . S
C756 C757 1.386 1_455 S
C756 C758 1.391 . S
C757 C756 1.386 1_655 S
C757 C761 1.393 . S
C758 H750 0.950 . S
C758 C756 1.391 . S
C758 C759 1.400 1_455 S
C759 C758 1.400 1_655 S
C759 C760 1.398 . S
C759 C765 1.491 1_646 S
C760 H751 0.950 . S
C760 C759 1.398 . S
C760 C761 1.391 . S
C761 H749 0.950 . S
C761 C757 1.393 . S
C761 C760 1.391 . S
C762 H752 0.950 . S
C762 C763 1.386 1_655 S
C762 C764 1.391 . S
C763 C762 1.386 1_455 S
C763 C767 1.393 . S
C764 H753 0.950 . S
C764 C762 1.391 . S
C764 C765 1.400 1_655 S
C765 C759 1.491 1_464 S
C765 C764 1.400 1_455 S
C765 C766 1.398 . S
C766 H754 0.950 . S
C766 C765 1.398 . S
C766 C767 1.391 . S
C767 H755 0.950 . S
C767 C763 1.393 . S
C767 C766 1.391 . S
H768 C776 0.950 . S
H769 C781 0.950 . S
H770 C778 0.950 . S
H771 C780 0.950 . S
H772 C782 0.950 . S
H773 C784 0.950 . S
H774 C786 0.950 . S
H775 C787 0.950 . S
C776 H768 0.950 . S
C776 C777 1.386 . S
C776 C778 1.391 . S
C777 C776 1.386 . S
C777 C781 1.393 . S
C778 H770 0.950 . S
C778 C776 1.391 . S
C778 C779 1.400 . S
C779 C778 1.400 . S
C779 C780 1.398 . S
C779 C785 1.491 . S
C780 H771 0.950 . S
C780 C779 1.398 . S
C780 C781 1.391 . S
C781 H769 0.950 . S
C781 C777 1.393 . S
C781 C780 1.391 . S
C782 H772 0.950 . S
C782 C783 1.386 . S
C782 C784 1.391 . S
C783 C782 1.386 . S
C783 C787 1.393 . S
C784 H773 0.950 . S
C784 C782 1.391 . S
C784 C785 1.400 . S
C785 C779 1.491 . S
C785 C784 1.400 . S
C785 C786 1.398 . S
C786 H774 0.950 . S
C786 C785 1.398 . S
C786 C787 1.391 . S
C787 H775 0.950 . S
C787 C783 1.393 . S
C787 C786 1.391 . S
H788 C796 0.950 . S
H789 C801 0.950 . S
H790 C798 0.950 . S
H791 C800 0.950 . S
H792 C802 0.950 . S
H793 C804 0.950 . S
H794 C806 0.950 . S
H795 C807 0.950 . S
C796 H788 0.950 . S
C796 C797 1.386 . S
C796 C798 1.391 . S
C797 C796 1.386 . S
C797 C801 1.393 1_655 S
C798 H790 0.950 . S
C798 C796 1.391 . S
C798 C799 1.400 . S
C799 C798 1.400 . S
C799 C800 1.398 1_655 S
C799 C805 1.491 1_655 S
C800 H791 0.950 . S
C800 C799 1.398 1_455 S
C800 C801 1.391 . S
C801 H789 0.950 . S
C801 C797 1.393 1_455 S
C801 C800 1.391 . S
C802 H792 0.950 . S
C802 C803 1.386 . S
C802 C804 1.391 . S
C803 C802 1.386 . S
C803 C807 1.393 1_455 S
C804 H793 0.950 . S
C804 C802 1.391 . S
C804 C805 1.400 . S
C805 C799 1.491 1_455 S
C805 C804 1.400 . S
C805 C806 1.398 1_455 S
C806 H794 0.950 . S
C806 C805 1.398 1_655 S
C806 C807 1.391 . S
C807 H795 0.950 . S
C807 C803 1.393 1_655 S
C807 C806 1.391 . S
H808 C816 0.950 . S
H809 C821 0.950 . S
H810 C818 0.950 1_455 S
H811 C820 0.950 . S
H812 C822 0.950 . S
H813 C824 0.950 1_655 S
H814 C826 0.950 . S
H815 C827 0.950 . S
C816 H808 0.950 . S
C816 C817 1.386 . S
C816 C818 1.391 . S
C817 C816 1.386 . S
C817 C821 1.393 1_545 S
C818 H810 0.950 1_655 S
C818 C816 1.391 . S
C818 C819 1.400 . S
C819 C818 1.400 . S
C819 C820 1.398 1_545 S
C819 C825 1.491 1_645 S
C820 H811 0.950 . S
C820 C819 1.398 1_565 S
C820 C821 1.391 . S
C821 H809 0.950 . S
C821 C817 1.393 1_565 S
C821 C820 1.391 . S
C822 H812 0.950 . S
C822 C823 1.386 . S
C822 C824 1.391 . S
C823 C822 1.386 . S
C823 C827 1.393 1_565 S
C824 H813 0.950 1_455 S
C824 C822 1.391 . S
C824 C825 1.400 . S
C825 C819 1.491 1_465 S
C825 C824 1.400 . S
C825 C826 1.398 1_565 S
C826 H814 0.950 . S
C826 C825 1.398 1_545 S
C826 C827 1.391 . S
C827 H815 0.950 . S
C827 C823 1.393 1_545 S
C827 C826 1.391 . S
H828 C836 0.950 . S
H829 C841 0.950 . S
H830 C838 0.950 . S
H831 C840 0.950 . S
H832 C842 0.950 . S
H833 C844 0.950 . S
H834 C846 0.950 . S
H835 C847 0.950 . S
C836 H828 0.950 . S
C836 C837 1.386 . S
C836 C838 1.391 . S
C837 C836 1.386 . S
C837 C841 1.393 . S
C838 H830 0.950 . S
C838 C836 1.391 . S
C838 C839 1.400 . S
C839 C838 1.400 . S
C839 C840 1.398 . S
C839 C845 1.491 1_565 S
C840 H831 0.950 . S
C840 C839 1.398 . S
C840 C841 1.391 . S
C841 H829 0.950 . S
C841 C837 1.393 . S
C841 C840 1.391 . S
C842 H832 0.950 . S
C842 C843 1.386 . S
C842 C844 1.391 . S
C843 C842 1.386 . S
C843 C847 1.393 . S
C844 H833 0.950 . S
C844 C842 1.391 . S
C844 C845 1.400 . S
C845 C839 1.491 1_545 S
C845 C844 1.400 . S
C845 C846 1.398 . S
C846 H834 0.950 . S
C846 C845 1.398 . S
C846 C847 1.391 . S
C847 H835 0.950 . S
C847 C843 1.393 . S
C847 C846 1.391 . S
H848 C856 0.950 1_554 S
H849 C861 0.950 . S
H850 C858 0.950 . S
H851 C860 0.950 . S
H852 C862 0.950 . S
H853 C864 0.950 . S
H854 C866 0.950 . S
H855 C867 0.950 . S
C856 H848 0.950 1_556 S
C856 C857 1.386 . S
C856 C858 1.391 1_556 S
C857 C856 1.386 . S
C857 C861 1.393 . S
C858 H850 0.950 . S
C858 C856 1.391 1_554 S
C858 C859 1.400 . S
C859 C858 1.400 . S
C859 C860 1.398 1_554 S
C859 C865 1.491 . S
C860 H851 0.950 . S
C860 C859 1.398 1_556 S
C860 C861 1.391 . S
C861 H849 0.950 . S
C861 C857 1.393 . S
C861 C860 1.391 . S
C862 H852 0.950 . S
C862 C863 1.386 . S
C862 C864 1.391 . S
C863 C862 1.386 . S
C863 C867 1.393 . S
C864 H853 0.950 . S
C864 C862 1.391 . S
C864 C865 1.400 . S
C865 C859 1.491 . S
C865 C864 1.400 . S
C865 C866 1.398 . S
C866 H854 0.950 . S
C866 C865 1.398 . S
C866 C867 1.391 . S
C867 H855 0.950 . S
C867 C863 1.393 . S
C867 C866 1.391 . S
H868 C876 0.950 1_554 S
H869 C881 0.950 . S
H870 C878 0.950 . S
H871 C880 0.950 . S
H872 C882 0.950 . S
H873 C884 0.950 1_556 S
H874 C886 0.950 . S
H875 C887 0.950 . S
C876 H868 0.950 1_556 S
C876 C877 1.386 . S
C876 C878 1.391 1_556 S
C877 C876 1.386 . S
C877 C881 1.393 . S
C878 H870 0.950 . S
C878 C876 1.391 1_554 S
C878 C879 1.400 . S
C879 C878 1.400 . S
C879 C880 1.398 1_554 S
C879 C885 1.491 . S
C880 H871 0.950 . S
C880 C879 1.398 1_556 S
C880 C881 1.391 . S
C881 H869 0.950 . S
C881 C877 1.393 . S
C881 C880 1.391 . S
C882 H872 0.950 . S
C882 C883 1.386 . S
C882 C884 1.391 . S
C883 C882 1.386 . S
C883 C887 1.393 . S
C884 H873 0.950 1_554 S
C884 C882 1.391 . S
C884 C885 1.400 . S
C885 C879 1.491 . S
C885 C884 1.400 . S
C885 C886 1.398 . S
C886 H874 0.950 . S
C886 C885 1.398 . S
C886 C887 1.391 . S
C887 H875 0.950 . S
C887 C883 1.393 . S
C887 C886 1.391 . S
H888 C896 0.950 . S
H889 C901 0.950 . S
H890 C898 0.950 . S
H891 C900 0.950 . S
H892 C902 0.950 . S
H893 C904 0.950 . S
H894 C906 0.950 . S
H895 C907 0.950 . S
C896 H888 0.950 . S
C896 C897 1.386 . S
C896 C898 1.391 1_556 S
C897 C896 1.386 . S
C897 C901 1.393 . S
C898 H890 0.950 . S
C898 C896 1.391 1_554 S
C898 C899 1.400 . S
C899 C898 1.400 . S
C899 C900 1.398 1_554 S
C899 C905 1.491 . S
C900 H891 0.950 . S
C900 C899 1.398 1_556 S
C900 C901 1.391 . S
C901 H889 0.950 . S
C901 C897 1.393 . S
C901 C900 1.391 . S
C902 H892 0.950 . S
C902 C903 1.386 . S
C902 C904 1.391 . S
C903 C902 1.386 . S
C903 C907 1.393 . S
C904 H893 0.950 . S
C904 C902 1.391 . S
C904 C905 1.400 . S
C905 C899 1.491 . S
C905 C904 1.400 . S
C905 C906 1.398 . S
C906 H894 0.950 . S
C906 C905 1.398 . S
C906 C907 1.391 . S
C907 H895 0.950 . S
C907 C903 1.393 . S
C907 C906 1.391 . S
H908 C916 0.950 . S
H909 C921 0.950 1_554 S
H910 C918 0.950 . S
H911 C920 0.950 . S
H912 C922 0.950 . S
H913 C924 0.950 . S
H914 C926 0.950 1_556 S
H915 C927 0.950 . S
C916 H908 0.950 . S
C916 C917 1.386 . S
C916 C918 1.391 . S
C917 C916 1.386 . S
C917 C921 1.393 . S
C918 H910 0.950 . S
C918 C916 1.391 . S
C918 C919 1.400 1_556 S
C919 C918 1.400 1_554 S
C919 C920 1.398 . S
C919 C925 1.491 . S
C920 H911 0.950 . S
C920 C919 1.398 . S
C920 C921 1.391 1_554 S
C921 H909 0.950 1_556 S
C921 C917 1.393 . S
C921 C920 1.391 1_556 S
C922 H912 0.950 . S
C922 C923 1.386 . S
C922 C924 1.391 . S
C923 C922 1.386 . S
C923 C927 1.393 . S
C924 H913 0.950 . S
C924 C922 1.391 . S
C924 C925 1.400 . S
C925 C919 1.491 . S
C925 C924 1.400 . S
C925 C926 1.398 . S
C926 H914 0.950 1_554 S
C926 C925 1.398 . S
C926 C927 1.391 . S
C927 H915 0.950 . S
C927 C923 1.393 . S
C927 C926 1.391 . S
H928 C936 0.950 . S
H929 C941 0.950 . S
H930 C938 0.950 . S
H931 C940 0.950 . S
H932 C942 0.950 . S
H933 C944 0.950 . S
H934 C946 0.950 . S
H935 C947 0.950 . S
C936 H928 0.950 . S
C936 C937 1.386 . S
C936 C938 1.391 . S
C937 C936 1.386 . S
C937 C941 1.393 . S
C938 H930 0.950 . S
C938 C936 1.391 . S
C938 C939 1.400 . S
C939 C938 1.400 . S
C939 C940 1.398 . S
C939 C945 1.491 . S
C940 H931 0.950 . S
C940 C939 1.398 . S
C940 C941 1.391 . S
C941 H929 0.950 . S
C941 C937 1.393 . S
C941 C940 1.391 . S
C942 H932 0.950 . S
C942 C943 1.386 . S
C942 C944 1.391 . S
C943 C942 1.386 . S
C943 C947 1.393 . S
C944 H933 0.950 . S
C944 C942 1.391 . S
C944 C945 1.400 . S
C945 C939 1.491 . S
C945 C944 1.400 . S
C945 C946 1.398 . S
C946 H934 0.950 . S
C946 C945 1.398 . S
C946 C947 1.391 . S
C947 H935 0.950 . S
C947 C943 1.393 . S
C947 C946 1.391 . S
H948 C956 0.950 . S
H949 C961 0.950 . S
H950 C958 0.950 . S
H951 C960 0.950 . S
H952 C962 0.950 . S
H953 C964 0.950 . S
H954 C966 0.950 . S
H955 C967 0.950 . S
C956 H948 0.950 . S
C956 C957 1.386 . S
C956 C958 1.391 . S
C957 C956 1.386 . S
C957 C961 1.393 . S
C958 H950 0.950 . S
C958 C956 1.391 . S
C958 C959 1.400 . S
C959 C958 1.400 . S
C959 C960 1.398 . S
C959 C965 1.491 . S
C960 H951 0.950 . S
C960 C959 1.398 . S
C960 C961 1.391 . S
C961 H949 0.950 . S
C961 C957 1.393 . S
C961 C960 1.391 . S
C962 H952 0.950 . S
C962 C963 1.386 . S
C962 C964 1.391 . S
C963 C962 1.386 . S
C963 C967 1.393 . S
C964 H953 0.950 . S
C964 C962 1.391 . S
C964 C965 1.400 . S
C965 C959 1.491 . S
C965 C964 1.400 . S
C965 C966 1.398 . S
C966 H954 0.950 . S
C966 C965 1.398 . S
C966 C967 1.391 . S
C967 H955 0.950 . S
C967 C963 1.393 . S
C967 C966 1.391 . S
H968 C976 0.950 . S
H969 C981 0.950 . S
H970 C978 0.950 . S
H971 C980 0.950 . S
H972 C982 0.950 . S
H973 C984 0.950 . S
H974 C986 0.950 . S
H975 C987 0.950 . S
C976 H968 0.950 . S
C976 C977 1.386 . S
C976 C978 1.391 . S
C977 C976 1.386 . S
C977 C981 1.393 . S
C978 H970 0.950 . S
C978 C976 1.391 . S
C978 C979 1.400 . S
C979 C978 1.400 . S
C979 C980 1.398 . S
C979 C985 1.491 . S
C980 H971 0.950 . S
C980 C979 1.398 . S
C980 C981 1.391 . S
C981 H969 0.950 . S
C981 C977 1.393 . S
C981 C980 1.391 . S
C982 H972 0.950 . S
C982 C983 1.386 . S
C982 C984 1.391 . S
C983 C982 1.386 . S
C983 C987 1.393 . S
C984 H973 0.950 . S
C984 C982 1.391 . S
C984 C985 1.400 . S
C985 C979 1.491 . S
C985 C984 1.400 . S
C985 C986 1.398 . S
C986 H974 0.950 . S
C986 C985 1.398 . S
C986 C987 1.391 . S
C987 H975 0.950 . S
C987 C983 1.393 . S
C987 C986 1.391 . S
H988 C996 0.950 . S
H989 C1001 0.950 . S
H990 C998 0.950 . S
H991 C1000 0.950 . S
H992 C1002 0.950 . S
H993 C1004 0.950 . S
H994 C1006 0.950 . S
H995 C1007 0.950 . S
C996 H988 0.950 . S
C996 C997 1.386 . S
C996 C998 1.391 . S
C997 C996 1.386 . S
C997 C1001 1.393 . S
C998 H990 0.950 . S
C998 C996 1.391 . S
C998 C999 1.400 . S
C999 C998 1.400 . S
C999 C1000 1.398 . S
C999 C1005 1.491 . S
C1000 H991 0.950 . S
C1000 C999 1.398 . S
C1000 C1001 1.391 . S
C1001 H989 0.950 . S
C1001 C997 1.393 . S
C1001 C1000 1.391 . S
C1002 H992 0.950 . S
C1002 C1003 1.386 . S
C1002 C1004 1.391 . S
C1003 C1002 1.386 . S
C1003 C1007 1.393 . S
C1004 H993 0.950 . S
C1004 C1002 1.391 . S
C1004 C1005 1.400 . S
C1005 C999 1.491 . S
C1005 C1004 1.400 . S
C1005 C1006 1.398 . S
C1006 H994 0.950 . S
C1006 C1005 1.398 . S
C1006 C1007 1.391 . S
C1007 H995 0.950 . S
C1007 C1003 1.393 . S
C1007 C1006 1.391 . S
H1008 C1016 0.950 . S
H1009 C1021 0.950 1_556 S
H1010 C1018 0.950 . S
H1011 C1020 0.950 . S
H1012 C1022 0.950 . S
H1013 C1024 0.950 . S
H1014 C1026 0.950 1_554 S
H1015 C1027 0.950 . S
C1016 H1008 0.950 . S
C1016 C1017 1.386 . S
C1016 C1018 1.391 . S
C1017 C1016 1.386 . S
C1017 C1021 1.393 . S
C1018 H1010 0.950 . S
C1018 C1016 1.391 . S
C1018 C1019 1.400 1_554 S
C1019 C1018 1.400 1_556 S
C1019 C1020 1.398 . S
C1019 C1025 1.491 . S
C1020 H1011 0.950 . S
C1020 C1019 1.398 . S
C1020 C1021 1.391 1_556 S
C1021 H1009 0.950 1_554 S
C1021 C1017 1.393 . S
C1021 C1020 1.391 1_554 S
C1022 H1012 0.950 . S
C1022 C1023 1.386 . S
C1022 C1024 1.391 . S
C1023 C1022 1.386 . S
C1023 C1027 1.393 . S
C1024 H1013 0.950 . S
C1024 C1022 1.391 . S
C1024 C1025 1.400 . S
C1025 C1019 1.491 . S
C1025 C1024 1.400 . S
C1025 C1026 1.398 . S
C1026 H1014 0.950 1_556 S
C1026 C1025 1.398 . S
C1026 C1027 1.391 . S
C1027 H1015 0.950 . S
C1027 C1023 1.393 . S
C1027 C1026 1.391 . S
H1028 C1036 0.950 . S
H1029 C1041 0.950 . S
H1030 C1038 0.950 . S
H1031 C1040 0.950 . S
H1032 C1042 0.950 . S
H1033 C1044 0.950 . S
H1034 C1046 0.950 . S
H1035 C1047 0.950 . S
C1036 H1028 0.950 . S
C1036 C1037 1.386 . S
C1036 C1038 1.391 1_554 S
C1037 C1036 1.386 . S
C1037 C1041 1.393 . S
C1038 H1030 0.950 . S
C1038 C1036 1.391 1_556 S
C1038 C1039 1.400 . S
C1039 C1038 1.400 . S
C1039 C1040 1.398 1_556 S
C1039 C1045 1.491 . S
C1040 H1031 0.950 . S
C1040 C1039 1.398 1_554 S
C1040 C1041 1.391 . S
C1041 H1029 0.950 . S
C1041 C1037 1.393 . S
C1041 C1040 1.391 . S
C1042 H1032 0.950 . S
C1042 C1043 1.386 . S
C1042 C1044 1.391 . S
C1043 C1042 1.386 . S
C1043 C1047 1.393 . S
C1044 H1033 0.950 . S
C1044 C1042 1.391 . S
C1044 C1045 1.400 . S
C1045 C1039 1.491 . S
C1045 C1044 1.400 . S
C1045 C1046 1.398 . S
C1046 H1034 0.950 . S
C1046 C1045 1.398 . S
C1046 C1047 1.391 . S
C1047 H1035 0.950 . S
C1047 C1043 1.393 . S
C1047 C1046 1.391 . S
H1048 C1056 0.950 . S
H1049 C1061 0.950 . S
H1050 C1058 0.953 . S
H1051 C1060 0.950 1_556 S
H1052 C1062 0.950 . S
H1053 C1064 0.950 . S
H1054 C1066 0.950 . S
H1055 C1067 0.950 . S
C1056 H1048 0.950 . S
C1056 C1057 1.386 . S
C1056 C1058 1.391 . S
C1057 C1056 1.386 . S
C1057 C1061 1.393 . S
C1058 H1050 0.953 . S
C1058 C1056 1.391 . S
C1058 C1059 1.400 1_554 S
C1059 C1058 1.400 1_556 S
C1059 C1060 1.398 1_556 S
C1059 C1065 1.491 . S
C1060 H1051 0.950 1_554 S
C1060 C1059 1.398 1_554 S
C1060 C1061 1.391 . S
C1061 H1049 0.950 . S
C1061 C1057 1.393 . S
C1061 C1060 1.391 . S
C1062 H1052 0.950 . S
C1062 C1063 1.386 . S
C1062 C1064 1.391 . S
C1063 C1062 1.386 . S
C1063 C1067 1.393 . S
C1064 H1053 0.950 . S
C1064 C1062 1.391 . S
C1064 C1065 1.400 . S
C1065 C1059 1.491 . S
C1065 C1064 1.400 . S
C1065 C1066 1.398 . S
C1066 H1054 0.950 . S
C1066 C1065 1.398 . S
C1066 C1067 1.391 . S
C1067 H1055 0.950 . S
C1067 C1063 1.393 . S
C1067 C1066 1.391 . S
H1068 C1076 0.950 1_556 S
H1069 C1081 0.950 . S
H1070 C1078 0.950 . S
H1071 C1080 0.950 . S
H1072 C1082 0.950 . S
H1073 C1084 0.950 1_554 S
H1074 C1086 0.950 . S
H1075 C1087 0.950 . S
C1076 H1068 0.950 1_554 S
C1076 C1077 1.386 . S
C1076 C1078 1.391 1_554 S
C1077 C1076 1.386 . S
C1077 C1081 1.393 . S
C1078 H1070 0.950 . S
C1078 C1076 1.391 1_556 S
C1078 C1079 1.400 . S
C1079 C1078 1.400 . S
C1079 C1080 1.398 1_556 S
C1079 C1085 1.491 . S
C1080 H1071 0.950 . S
C1080 C1079 1.398 1_554 S
C1080 C1081 1.391 . S
C1081 H1069 0.950 . S
C1081 C1077 1.393 . S
C1081 C1080 1.391 . S
C1082 H1072 0.950 . S
C1082 C1083 1.386 . S
C1082 C1084 1.391 . S
C1083 C1082 1.386 . S
C1083 C1087 1.393 . S
C1084 H1073 0.950 1_556 S
C1084 C1082 1.391 . S
C1084 C1085 1.400 . S
C1085 C1079 1.491 . S
C1085 C1084 1.400 . S
C1085 C1086 1.398 . S
C1086 H1074 0.950 . S
C1086 C1085 1.398 . S
C1086 C1087 1.391 . S
C1087 H1075 0.950 . S
C1087 C1083 1.393 . S
C1087 C1086 1.391 . S
H1088 C1096 0.950 . S
H1089 C1101 0.950 . S
H1090 C1098 0.950 . S
H1091 C1100 0.950 . S
H1092 C1102 0.950 . S
H1093 C1104 0.950 . S
H1094 C1106 0.950 . S
H1095 C1107 0.950 . S
C1096 H1088 0.950 . S
C1096 C1097 1.386 . S
C1096 C1098 1.391 . S
C1097 C1096 1.386 . S
C1097 C1101 1.393 . S
C1098 H1090 0.950 . S
C1098 C1096 1.391 . S
C1098 C1099 1.400 . S
C1099 C1098 1.400 . S
C1099 C1100 1.398 . S
C1099 C1105 1.491 . S
C1100 H1091 0.950 . S
C1100 C1099 1.398 . S
C1100 C1101 1.391 . S
C1101 H1089 0.950 . S
C1101 C1097 1.393 . S
C1101 C1100 1.391 . S
C1102 H1092 0.950 . S
C1102 C1103 1.386 . S
C1102 C1104 1.391 . S
C1103 C1102 1.386 . S
C1103 C1107 1.393 . S
C1104 H1093 0.950 . S
C1104 C1102 1.391 . S
C1104 C1105 1.400 . S
C1105 C1099 1.491 . S
C1105 C1104 1.400 . S
C1105 C1106 1.398 . S
C1106 H1094 0.950 . S
C1106 C1105 1.398 . S
C1106 C1107 1.391 . S
C1107 H1095 0.950 . S
C1107 C1103 1.393 . S
C1107 C1106 1.391 . S
H1108 C1116 0.950 . S
H1109 C1121 0.950 . S
H1110 C1118 0.950 . S
H1111 C1120 0.950 . S
H1112 C1122 0.950 . S
H1113 C1124 0.950 . S
H1114 C1126 0.950 . S
H1115 C1127 0.950 . S
C1116 H1108 0.950 . S
C1116 C1117 1.386 . S
C1116 C1118 1.391 . S
C1117 C1116 1.386 . S
C1117 C1121 1.393 . S
C1118 H1110 0.950 . S
C1118 C1116 1.391 . S
C1118 C1119 1.400 . S
C1119 C1118 1.400 . S
C1119 C1120 1.398 . S
C1119 C1125 1.491 . S
C1120 H1111 0.950 . S
C1120 C1119 1.398 . S
C1120 C1121 1.391 . S
C1121 H1109 0.950 . S
C1121 C1117 1.393 . S
C1121 C1120 1.391 . S
C1122 H1112 0.950 . S
C1122 C1123 1.386 . S
C1122 C1124 1.391 . S
C1123 C1122 1.386 . S
C1123 C1127 1.393 . S
C1124 H1113 0.950 . S
C1124 C1122 1.391 . S
C1124 C1125 1.400 . S
C1125 C1119 1.491 . S
C1125 C1124 1.400 . S
C1125 C1126 1.398 . S
C1126 H1114 0.950 . S
C1126 C1125 1.398 . S
C1126 C1127 1.391 . S
C1127 H1115 0.950 . S
C1127 C1123 1.393 . S
C1127 C1126 1.391 . S
H1128 C1136 0.950 . S
H1129 C1141 0.950 . S
H1130 C1138 0.950 . S
H1131 C1140 0.950 . S
H1132 C1142 0.950 . S
H1133 C1144 0.950 . S
H1134 C1146 0.950 . S
H1135 C1147 0.950 . S
C1136 H1128 0.950 . S
C1136 C1137 1.386 . S
C1136 C1138 1.391 . S
C1137 C1136 1.386 . S
C1137 C1141 1.393 . S
C1138 H1130 0.950 . S
C1138 C1136 1.391 . S
C1138 C1139 1.400 . S
C1139 C1138 1.400 . S
C1139 C1140 1.398 . S
C1139 C1145 1.491 . S
C1140 H1131 0.950 . S
C1140 C1139 1.398 . S
C1140 C1141 1.391 . S
C1141 H1129 0.950 . S
C1141 C1137 1.393 . S
C1141 C1140 1.391 . S
C1142 H1132 0.950 . S
C1142 C1143 1.386 . S
C1142 C1144 1.391 . S
C1143 C1142 1.386 . S
C1143 C1147 1.393 . S
C1144 H1133 0.950 . S
C1144 C1142 1.391 . S
C1144 C1145 1.400 . S
C1145 C1139 1.491 . S
C1145 C1144 1.400 . S
C1145 C1146 1.398 . S
C1146 H1134 0.950 . S
C1146 C1145 1.398 . S
C1146 C1147 1.391 . S
C1147 H1135 0.950 . S
C1147 C1143 1.393 . S
C1147 C1146 1.391 . S
H1148 C1156 0.950 . S
H1149 C1161 0.950 . S
H1150 C1158 0.950 . S
H1151 C1160 0.950 . S
H1152 C1162 0.950 . S
H1153 C1164 0.950 . S
H1154 C1166 0.950 . S
H1155 C1167 0.950 . S
C1156 H1148 0.950 . S
C1156 C1157 1.386 . S
C1156 C1158 1.391 . S
C1157 C1156 1.386 . S
C1157 C1161 1.393 . S
C1158 H1150 0.950 . S
C1158 C1156 1.391 . S
C1158 C1159 1.400 . S
C1159 C1158 1.400 . S
C1159 C1160 1.398 . S
C1159 C1165 1.491 . S
C1160 H1151 0.950 . S
C1160 C1159 1.398 . S
C1160 C1161 1.391 . S
C1161 H1149 0.950 . S
C1161 C1157 1.393 . S
C1161 C1160 1.391 . S
C1162 H1152 0.950 . S
C1162 C1163 1.386 . S
C1162 C1164 1.391 . S
C1163 C1162 1.386 . S
C1163 C1167 1.393 . S
C1164 H1153 0.950 . S
C1164 C1162 1.391 . S
C1164 C1165 1.400 . S
C1165 C1159 1.491 . S
C1165 C1164 1.400 . S
C1165 C1166 1.398 . S
C1166 H1154 0.950 . S
C1166 C1165 1.398 . S
C1166 C1167 1.391 . S
C1167 H1155 0.950 . S
C1167 C1163 1.393 . S
C1167 C1166 1.391 . S
H1168 C1176 0.950 . S
H1169 C1181 0.950 . S
H1170 C1178 0.950 . S
H1171 C1180 0.950 . S
H1172 C1182 0.950 . S
H1173 C1184 0.950 . S
H1174 C1186 0.950 . S
H1175 C1187 0.950 . S
C1176 H1168 0.950 . S
C1176 C1177 1.386 . S
C1176 C1178 1.391 . S
C1177 C1176 1.386 . S
C1177 C1181 1.393 . S
C1178 H1170 0.950 . S
C1178 C1176 1.391 . S
C1178 C1179 1.400 . S
C1179 C1178 1.400 . S
C1179 C1180 1.398 . S
C1179 C1185 1.491 . S
C1180 H1171 0.950 . S
C1180 C1179 1.398 . S
C1180 C1181 1.391 . S
C1181 H1169 0.950 . S
C1181 C1177 1.393 . S
C1181 C1180 1.391 . S
C1182 H1172 0.950 . S
C1182 C1183 1.386 . S
C1182 C1184 1.391 . S
C1183 C1182 1.386 . S
C1183 C1187 1.393 . S
C1184 H1173 0.950 . S
C1184 C1182 1.391 . S
C1184 C1185 1.400 . S
C1185 C1179 1.491 . S
C1185 C1184 1.400 . S
C1185 C1186 1.398 . S
C1186 H1174 0.950 . S
C1186 C1185 1.398 . S
C1186 C1187 1.391 . S
C1187 H1175 0.950 . S
C1187 C1183 1.393 . S
C1187 C1186 1.391 . S
H1188 C1196 0.950 . S
H1189 C1201 0.950 . S
H1190 C1198 0.950 . S
H1191 C1200 0.950 . S
H1192 C1202 0.950 . S
H1193 C1204 0.950 . S
H1194 C1206 0.950 . S
H1195 C1207 0.950 . S
C1196 H1188 0.950 . S
C1196 C1197 1.386 . S
C1196 C1198 1.391 . S
C1197 C1196 1.386 . S
C1197 C1201 1.393 . S
C1198 H1190 0.950 . S
C1198 C1196 1.391 . S
C1198 C1199 1.400 . S
C1199 C1198 1.400 . S
C1199 C1200 1.398 . S
C1199 C1205 1.491 . S
C1200 H1191 0.950 . S
C1200 C1199 1.398 . S
C1200 C1201 1.391 . S
C1201 H1189 0.950 . S
C1201 C1197 1.393 . S
C1201 C1200 1.391 . S
C1202 H1192 0.950 . S
C1202 C1203 1.386 . S
C1202 C1204 1.391 . S
C1203 C1202 1.386 . S
C1203 C1207 1.393 . S
C1204 H1193 0.950 . S
C1204 C1202 1.391 . S
C1204 C1205 1.400 . S
C1205 C1199 1.491 . S
C1205 C1204 1.400 . S
C1205 C1206 1.398 . S
C1206 H1194 0.950 . S
C1206 C1205 1.398 . S
C1206 C1207 1.391 . S
C1207 H1195 0.950 . S
C1207 C1203 1.393 . S
C1207 C1206 1.391 . S
H1208 C1216 0.950 . S
H1209 C1221 0.950 . S
H1210 C1218 0.950 . S
H1211 C1220 0.950 . S
H1212 C1222 0.950 . S
H1213 C1224 0.950 . S
H1214 C1226 0.950 . S
H1215 C1227 0.950 . S
C1216 H1208 0.950 . S
C1216 C1217 1.386 . S
C1216 C1218 1.391 . S
C1217 C1216 1.386 . S
C1217 C1221 1.393 . S
C1218 H1210 0.950 . S
C1218 C1216 1.391 . S
C1218 C1219 1.400 . S
C1219 C1218 1.400 . S
C1219 C1220 1.398 . S
C1219 C1225 1.491 . S
C1220 H1211 0.950 . S
C1220 C1219 1.398 . S
C1220 C1221 1.391 . S
C1221 H1209 0.950 . S
C1221 C1217 1.393 . S
C1221 C1220 1.391 . S
C1222 H1212 0.950 . S
C1222 C1223 1.386 . S
C1222 C1224 1.391 . S
C1223 C1222 1.386 . S
C1223 C1227 1.393 . S
C1224 H1213 0.950 . S
C1224 C1222 1.391 . S
C1224 C1225 1.400 . S
C1225 C1219 1.491 . S
C1225 C1224 1.400 . S
C1225 C1226 1.398 . S
C1226 H1214 0.950 . S
C1226 C1225 1.398 . S
C1226 C1227 1.391 . S
C1227 H1215 0.950 . S
C1227 C1223 1.393 . S
C1227 C1226 1.391 . S
H1228 C1236 0.950 . S
H1229 C1241 0.950 . S
H1230 C1238 0.950 . S
H1231 C1240 0.950 . S
H1232 C1242 0.950 . S
H1233 C1244 0.950 . S
H1234 C1246 0.950 . S
H1235 C1247 0.950 . S
C1236 H1228 0.950 . S
C1236 C1237 1.386 . S
C1236 C1238 1.391 . S
C1237 C1236 1.386 . S
C1237 C1241 1.393 . S
C1238 H1230 0.950 . S
C1238 C1236 1.391 . S
C1238 C1239 1.400 . S
C1239 C1238 1.400 . S
C1239 C1240 1.398 . S
C1239 C1245 1.491 . S
C1240 H1231 0.950 . S
C1240 C1239 1.398 . S
C1240 C1241 1.391 . S
C1241 H1229 0.950 . S
C1241 C1237 1.393 . S
C1241 C1240 1.391 . S
C1242 H1232 0.950 . S
C1242 C1243 1.386 . S
C1242 C1244 1.391 . S
C1243 C1242 1.386 . S
C1243 C1247 1.393 . S
C1244 H1233 0.950 . S
C1244 C1242 1.391 . S
C1244 C1245 1.400 . S
C1245 C1239 1.491 . S
C1245 C1244 1.400 . S
C1245 C1246 1.398 . S
C1246 H1234 0.950 . S
C1246 C1245 1.398 . S
C1246 C1247 1.391 . S
C1247 H1235 0.950 . S
C1247 C1243 1.393 . S
C1247 C1246 1.391 . S
H1248 C1256 0.950 . S
H1249 C1261 0.950 . S
H1250 C1258 0.950 . S
H1251 C1260 0.950 . S
H1252 C1262 0.950 . S
H1253 C1264 0.950 . S
H1254 C1266 0.950 . S
H1255 C1267 0.950 . S
C1256 H1248 0.950 . S
C1256 C1257 1.386 . S
C1256 C1258 1.391 . S
C1257 C1256 1.386 . S
C1257 C1261 1.393 . S
C1258 H1250 0.950 . S
C1258 C1256 1.391 . S
C1258 C1259 1.400 . S
C1259 C1258 1.400 . S
C1259 C1260 1.398 . S
C1259 C1265 1.491 . S
C1260 H1251 0.950 . S
C1260 C1259 1.398 . S
C1260 C1261 1.391 . S
C1261 H1249 0.950 . S
C1261 C1257 1.393 . S
C1261 C1260 1.391 . S
C1262 H1252 0.950 . S
C1262 C1263 1.386 . S
C1262 C1264 1.391 . S
C1263 C1262 1.386 . S
C1263 C1267 1.393 . S
C1264 H1253 0.950 . S
C1264 C1262 1.391 . S
C1264 C1265 1.400 . S
C1265 C1259 1.491 . S
C1265 C1264 1.400 . S
C1265 C1266 1.398 . S
C1266 H1254 0.950 . S
C1266 C1265 1.398 . S
C1266 C1267 1.391 . S
C1267 H1255 0.950 . S
C1267 C1263 1.393 . S
C1267 C1266 1.391 . S
H1268 C1276 0.950 . S
H1269 C1281 0.950 . S
H1270 C1278 0.950 . S
H1271 C1280 0.950 . S
H1272 C1282 0.950 . S
H1273 C1284 0.950 . S
H1274 C1286 0.950 . S
H1275 C1287 0.950 . S
C1276 H1268 0.950 . S
C1276 C1277 1.386 . S
C1276 C1278 1.391 . S
C1277 C1276 1.386 . S
C1277 C1281 1.393 . S
C1278 H1270 0.950 . S
C1278 C1276 1.391 . S
C1278 C1279 1.400 . S
C1279 C1278 1.400 . S
C1279 C1280 1.398 . S
C1279 C1285 1.491 . S
C1280 H1271 0.950 . S
C1280 C1279 1.398 . S
C1280 C1281 1.391 . S
C1281 H1269 0.950 . S
C1281 C1277 1.393 . S
C1281 C1280 1.391 . S
C1282 H1272 0.950 . S
C1282 C1283 1.386 . S
C1282 C1284 1.391 . S
C1283 C1282 1.386 . S
C1283 C1287 1.393 . S
C1284 H1273 0.950 . S
C1284 C1282 1.391 . S
C1284 C1285 1.400 . S
C1285 C1279 1.491 . S
C1285 C1284 1.400 . S
C1285 C1286 1.398 . S
C1286 H1274 0.950 . S
C1286 C1285 1.398 . S
C1286 C1287 1.391 . S
C1287 H1275 0.950 . S
C1287 C1283 1.393 . S
C1287 C1286 1.391 . S
H1288 C1296 0.950 . S
H1289 C1301 0.950 . S
H1290 C1298 0.950 . S
H1291 C1300 0.950 . S
H1292 C1302 0.950 . S
H1293 C1304 0.950 . S
H1294 C1306 0.950 . S
H1295 C1307 0.950 . S
C1296 H1288 0.950 . S
C1296 C1297 1.386 . S
C1296 C1298 1.391 . S
C1297 C1296 1.386 . S
C1297 C1301 1.393 . S
C1298 H1290 0.950 . S
C1298 C1296 1.391 . S
C1298 C1299 1.400 . S
C1299 C1298 1.400 . S
C1299 C1300 1.398 . S
C1299 C1305 1.491 . S
C1300 H1291 0.950 . S
C1300 C1299 1.398 . S
C1300 C1301 1.391 . S
C1301 H1289 0.950 . S
C1301 C1297 1.393 . S
C1301 C1300 1.391 . S
C1302 H1292 0.950 . S
C1302 C1303 1.386 . S
C1302 C1304 1.391 . S
C1303 C1302 1.386 . S
C1303 C1307 1.393 . S
C1304 H1293 0.950 . S
C1304 C1302 1.391 . S
C1304 C1305 1.400 . S
C1305 C1299 1.491 . S
C1305 C1304 1.400 . S
C1305 C1306 1.398 . S
C1306 H1294 0.950 . S
C1306 C1305 1.398 . S
C1306 C1307 1.391 . S
C1307 H1295 0.950 . S
C1307 C1303 1.393 . S
C1307 C1306 1.391 . S
H1308 C1316 0.950 . S
H1309 C1321 0.950 . S
H1310 C1318 0.950 . S
H1311 C1320 0.950 . S
H1312 C1322 0.950 . S
H1313 C1324 0.950 . S
H1314 C1326 0.950 . S
H1315 C1327 0.950 . S
C1316 H1308 0.950 . S
C1316 C1317 1.386 . S
C1316 C1318 1.391 . S
C1317 C1316 1.386 . S
C1317 C1321 1.393 . S
C1318 H1310 0.950 . S
C1318 C1316 1.391 . S
C1318 C1319 1.400 . S
C1319 C1318 1.400 . S
C1319 C1320 1.398 . S
C1319 C1325 1.491 . S
C1320 H1311 0.950 . S
C1320 C1319 1.398 . S
C1320 C1321 1.391 . S
C1321 H1309 0.950 . S
C1321 C1317 1.393 . S
C1321 C1320 1.391 . S
C1322 H1312 0.950 . S
C1322 C1323 1.386 . S
C1322 C1324 1.391 . S
C1323 C1322 1.386 . S
C1323 C1327 1.393 . S
C1324 H1313 0.950 . S
C1324 C1322 1.391 . S
C1324 C1325 1.400 . S
C1325 C1319 1.491 . S
C1325 C1324 1.400 . S
C1325 C1326 1.398 . S
C1326 H1314 0.950 . S
C1326 C1325 1.398 . S
C1326 C1327 1.391 . S
C1327 H1315 0.950 . S
C1327 C1323 1.393 . S
C1327 C1326 1.391 . S
C537 C18 1.634 . S
C543 C216 1.626 . S
C557 C249 1.642 . S
C563 C51 1.632 . S
C577 C150 1.659 . S
C583 C84 1.657 . S
C597 C183 1.658 . S
C603 C117 1.650 . S
C617 C282 1.625 . S
C623 C480 1.632 . S
C637 C315 1.658 . S
C643 C513 1.652 . S
C657 C414 1.632 . S
C663 C348 1.625 . S
C677 C381 1.654 . S
C683 C447 1.644 . S
C697 N266 2.254 . S
C703 N2 2.254 . S
C717 N299 2.254 . S
C723 N35 2.254 . S
C737 N332 2.253 . S
C743 N68 2.253 . S
C757 N365 2.258 . S
C763 N101 2.258 . S
C777 N398 2.253 . S
C783 N134 2.253 . S
C797 N431 2.259 . S
C803 N167 2.259 . S
C817 N200 2.256 . S
C823 N464 2.256 . S
C837 N233 2.255 . S
C843 N497 2.255 . S
C857 C318 0.682 . S
C863 C7 0.599 . S
C877 C351 0.682 . S
C883 C40 0.604 . S
C897 C384 0.669 . S
C903 C73 0.598 . S
C917 C285 0.623 . S
C923 C106 0.626 . S
C937 C139 0.647 . S
C943 C516 0.616 . S
C957 C172 0.632 . S
C963 C417 0.652 . S
C977 C205 0.646 . S
C983 C450 0.610 . S
C997 C238 0.644 . S
C1003 C483 0.609 . S
C1017 C54 0.682 . S
C1023 C271 0.601 . S
C1037 C87 0.625 . S
C1043 C304 0.645 . S
C1057 C120 0.643 . S
C1063 C337 0.637 . S
C1077 C21 0.609 . S
C1083 C370 0.643 . S
C1097 C252 0.639 . S
C1103 C403 0.640 . S
C1117 C153 0.665 . S
C1123 C436 0.623 . S
C1137 C186 0.646 . S
C1143 C469 0.609 . S
C1157 C502 0.597 . S
C1163 C219 0.673 . S
C1177 N79 0.639 . S
C1183 N13 0.570 . S
C1197 N112 0.628 . S
C1203 N46 0.612 . S
C1217 N145 0.543 . S
C1223 N211 0.612 . S
C1237 N244 0.546 . S
C1243 N178 0.593 . S
C1257 N277 0.550 . S
C1263 N343 0.628 . S
C1277 N376 0.559 . S
C1283 N310 0.635 . S
C1297 N409 0.617 . S
C1303 N475 0.544 . S
C1317 N442 0.544 . S
C1323 N508 0.617 . S
