# Generated by pormake.
# Topology smq, (6)-cn, num edge types: 1
# Building blocks:
#     Node 0, Type 0, BuildingBlock: OJICUG_clean_sbu_0, # of connection points: 6
#     Node 1, Type 0, BuildingBlock: OJICUG_clean_sbu_0, # of connection points: 6
#     Node 2, Type 0, BuildingBlock: OJICUG_clean_sbu_0, # of connection points: 6
#     Node 3, Type 0, BuildingBlock: OJICUG_clean_sbu_0, # of connection points: 6
#     Node 4, Type 0, BuildingBlock: OJICUG_clean_sbu_0, # of connection points: 6
#     Node 5, Type 0, BuildingBlock: OJICUG_clean_sbu_0, # of connection points: 6
#     Node 6, Type 0, BuildingBlock: OJICUG_clean_sbu_0, # of connection points: 6
#     Node 7, Type 0, BuildingBlock: OJICUG_clean_sbu_0, # of connection points: 6
#     Node 8, Type 0, BuildingBlock: OJICUG_clean_sbu_0, # of connection points: 6
#     Node 9, Type 0, BuildingBlock: OJICUG_clean_sbu_0, # of connection points: 6
#     Node 10, Type 0, BuildingBlock: OJICUG_clean_sbu_0, # of connection points: 6
#     Node 11, Type 0, BuildingBlock: OJICUG_clean_sbu_0, # of connection points: 6
#     Node 12, Type 0, BuildingBlock: OJICUG_clean_sbu_0, # of connection points: 6
#     Node 13, Type 0, BuildingBlock: OJICUG_clean_sbu_0, # of connection points: 6
#     Node 14, Type 0, BuildingBlock: OJICUG_clean_sbu_0, # of connection points: 6
#     Node 15, Type 0, BuildingBlock: OJICUG_clean_sbu_0, # of connection points: 6
#     Node 16, Type 0, BuildingBlock: OJICUG_clean_sbu_0, # of connection points: 6
#     Node 17, Type 0, BuildingBlock: OJICUG_clean_sbu_0, # of connection points: 6
#     Node 18, Type 0, BuildingBlock: OJICUG_clean_sbu_0, # of connection points: 6
#     Node 19, Type 0, BuildingBlock: OJICUG_clean_sbu_0, # of connection points: 6
#     Node 20, Type 0, BuildingBlock: OJICUG_clean_sbu_0, # of connection points: 6
#     Node 21, Type 0, BuildingBlock: OJICUG_clean_sbu_0, # of connection points: 6
#     Node 22, Type 0, BuildingBlock: OJICUG_clean_sbu_0, # of connection points: 6
#     Node 23, Type 0, BuildingBlock: OJICUG_clean_sbu_0, # of connection points: 6
#     Edge 24, Type (0, 0), BuildingBlock: EZIPEK_clean_linker_0, # of connection points: 2
#     Edge 25, Type (0, 0), BuildingBlock: EZIPEK_clean_linker_0, # of connection points: 2
#     Edge 26, Type (0, 0), BuildingBlock: EZIPEK_clean_linker_0, # of connection points: 2
#     Edge 27, Type (0, 0), BuildingBlock: EZIPEK_clean_linker_0, # of connection points: 2
#     Edge 28, Type (0, 0), BuildingBlock: EZIPEK_clean_linker_0, # of connection points: 2
#     Edge 29, Type (0, 0), BuildingBlock: EZIPEK_clean_linker_0, # of connection points: 2
#     Edge 30, Type (0, 0), BuildingBlock: EZIPEK_clean_linker_0, # of connection points: 2
#     Edge 31, Type (0, 0), BuildingBlock: EZIPEK_clean_linker_0, # of connection points: 2
#     Edge 32, Type (0, 0), BuildingBlock: EZIPEK_clean_linker_0, # of connection points: 2
#     Edge 33, Type (0, 0), BuildingBlock: EZIPEK_clean_linker_0, # of connection points: 2
#     Edge 34, Type (0, 0), BuildingBlock: EZIPEK_clean_linker_0, # of connection points: 2
#     Edge 35, Type (0, 0), BuildingBlock: EZIPEK_clean_linker_0, # of connection points: 2
#     Edge 36, Type (0, 0), BuildingBlock: EZIPEK_clean_linker_0, # of connection points: 2
#     Edge 37, Type (0, 0), BuildingBlock: EZIPEK_clean_linker_0, # of connection points: 2
#     Edge 38, Type (0, 0), BuildingBlock: EZIPEK_clean_linker_0, # of connection points: 2
#     Edge 39, Type (0, 0), BuildingBlock: EZIPEK_clean_linker_0, # of connection points: 2
#     Edge 40, Type (0, 0), BuildingBlock: EZIPEK_clean_linker_0, # of connection points: 2
#     Edge 41, Type (0, 0), BuildingBlock: EZIPEK_clean_linker_0, # of connection points: 2
#     Edge 42, Type (0, 0), BuildingBlock: EZIPEK_clean_linker_0, # of connection points: 2
#     Edge 43, Type (0, 0), BuildingBlock: EZIPEK_clean_linker_0, # of connection points: 2
#     Edge 44, Type (0, 0), BuildingBlock: EZIPEK_clean_linker_0, # of connection points: 2
#     Edge 45, Type (0, 0), BuildingBlock: EZIPEK_clean_linker_0, # of connection points: 2
#     Edge 46, Type (0, 0), BuildingBlock: EZIPEK_clean_linker_0, # of connection points: 2
#     Edge 47, Type (0, 0), BuildingBlock: EZIPEK_clean_linker_0, # of connection points: 2
#     Edge 48, Type (0, 0), BuildingBlock: EZIPEK_clean_linker_0, # of connection points: 2
#     Edge 49, Type (0, 0), BuildingBlock: EZIPEK_clean_linker_0, # of connection points: 2
#     Edge 50, Type (0, 0), BuildingBlock: EZIPEK_clean_linker_0, # of connection points: 2
#     Edge 51, Type (0, 0), BuildingBlock: EZIPEK_clean_linker_0, # of connection points: 2
#     Edge 52, Type (0, 0), BuildingBlock: EZIPEK_clean_linker_0, # of connection points: 2
#     Edge 53, Type (0, 0), BuildingBlock: EZIPEK_clean_linker_0, # of connection points: 2
#     Edge 54, Type (0, 0), BuildingBlock: EZIPEK_clean_linker_0, # of connection points: 2
#     Edge 55, Type (0, 0), BuildingBlock: EZIPEK_clean_linker_0, # of connection points: 2
#     Edge 56, Type (0, 0), BuildingBlock: EZIPEK_clean_linker_0, # of connection points: 2
#     Edge 57, Type (0, 0), BuildingBlock: EZIPEK_clean_linker_0, # of connection points: 2
#     Edge 58, Type (0, 0), BuildingBlock: EZIPEK_clean_linker_0, # of connection points: 2
#     Edge 59, Type (0, 0), BuildingBlock: EZIPEK_clean_linker_0, # of connection points: 2
#     Edge 60, Type (0, 0), BuildingBlock: EZIPEK_clean_linker_0, # of connection points: 2
#     Edge 61, Type (0, 0), BuildingBlock: EZIPEK_clean_linker_0, # of connection points: 2
#     Edge 62, Type (0, 0), BuildingBlock: EZIPEK_clean_linker_0, # of connection points: 2
#     Edge 63, Type (0, 0), BuildingBlock: EZIPEK_clean_linker_0, # of connection points: 2
#     Edge 64, Type (0, 0), BuildingBlock: EZIPEK_clean_linker_0, # of connection points: 2
#     Edge 65, Type (0, 0), BuildingBlock: EZIPEK_clean_linker_0, # of connection points: 2
#     Edge 66, Type (0, 0), BuildingBlock: EZIPEK_clean_linker_0, # of connection points: 2
#     Edge 67, Type (0, 0), BuildingBlock: EZIPEK_clean_linker_0, # of connection points: 2
#     Edge 68, Type (0, 0), BuildingBlock: EZIPEK_clean_linker_0, # of connection points: 2
#     Edge 69, Type (0, 0), BuildingBlock: EZIPEK_clean_linker_0, # of connection points: 2
#     Edge 70, Type (0, 0), BuildingBlock: EZIPEK_clean_linker_0, # of connection points: 2
#     Edge 71, Type (0, 0), BuildingBlock: EZIPEK_clean_linker_0, # of connection points: 2
#     Edge 72, Type (0, 0), BuildingBlock: EZIPEK_clean_linker_0, # of connection points: 2
#     Edge 73, Type (0, 0), BuildingBlock: EZIPEK_clean_linker_0, # of connection points: 2
#     Edge 74, Type (0, 0), BuildingBlock: EZIPEK_clean_linker_0, # of connection points: 2
#     Edge 75, Type (0, 0), BuildingBlock: EZIPEK_clean_linker_0, # of connection points: 2
#     Edge 76, Type (0, 0), BuildingBlock: EZIPEK_clean_linker_0, # of connection points: 2
#     Edge 77, Type (0, 0), BuildingBlock: EZIPEK_clean_linker_0, # of connection points: 2
#     Edge 78, Type (0, 0), BuildingBlock: EZIPEK_clean_linker_0, # of connection points: 2
#     Edge 79, Type (0, 0), BuildingBlock: EZIPEK_clean_linker_0, # of connection points: 2
#     Edge 80, Type (0, 0), BuildingBlock: EZIPEK_clean_linker_0, # of connection points: 2
#     Edge 81, Type (0, 0), BuildingBlock: EZIPEK_clean_linker_0, # of connection points: 2
#     Edge 82, Type (0, 0), BuildingBlock: EZIPEK_clean_linker_0, # of connection points: 2
#     Edge 83, Type (0, 0), BuildingBlock: EZIPEK_clean_linker_0, # of connection points: 2
#     Edge 84, Type (0, 0), BuildingBlock: EZIPEK_clean_linker_0, # of connection points: 2
#     Edge 85, Type (0, 0), BuildingBlock: EZIPEK_clean_linker_0, # of connection points: 2
#     Edge 86, Type (0, 0), BuildingBlock: EZIPEK_clean_linker_0, # of connection points: 2
#     Edge 87, Type (0, 0), BuildingBlock: EZIPEK_clean_linker_0, # of connection points: 2
#     Edge 88, Type (0, 0), BuildingBlock: EZIPEK_clean_linker_0, # of connection points: 2
#     Edge 89, Type (0, 0), BuildingBlock: EZIPEK_clean_linker_0, # of connection points: 2
#     Edge 90, Type (0, 0), BuildingBlock: EZIPEK_clean_linker_0, # of connection points: 2
#     Edge 91, Type (0, 0), BuildingBlock: EZIPEK_clean_linker_0, # of connection points: 2
#     Edge 92, Type (0, 0), BuildingBlock: EZIPEK_clean_linker_0, # of connection points: 2
#     Edge 93, Type (0, 0), BuildingBlock: EZIPEK_clean_linker_0, # of connection points: 2
#     Edge 94, Type (0, 0), BuildingBlock: EZIPEK_clean_linker_0, # of connection points: 2
#     Edge 95, Type (0, 0), BuildingBlock: EZIPEK_clean_linker_0, # of connection points: 2
# Relax obj value: 0.157
# Max RMSD: 0.181
# Mean RMSD: 0.181
data_MOF--net-smq--node1-OJICUG_clean_sbu_0--edge1-EZIPEK_clean_linker_0
_symmetry_space_group_name_H-M    P1
_symmetry_Int_Tables_number       1
_symmetry_cell_setting            triclinic
loop_
_symmetry_equiv_pos_as_xyz
'x, y, z'
_cell_length_a     35.575851
_cell_length_b     35.374213
_cell_length_c     35.455751
_cell_angle_alpha  90.032091
_cell_angle_beta   89.775031
_cell_angle_gamma 90.217991
loop_
_atom_site_label
_atom_site_type_symbol
_atom_site_fract_x
_atom_site_fract_y
_atom_site_fract_z
_atom_type_partial_charge
Sc0 Sc -0.00873 0.15961 0.20029 0.0
Sc1 Sc 0.98118 0.23004 0.26616 0.0
Sc2 Sc -0.01044 0.13579 0.29473 0.0
O3 O -0.01219 0.17544 0.25393 0.0
C4 C 0.93541 0.10152 0.23532 0.0
C5 C 0.9307 0.22007 0.19227 0.0
C6 C 0.92737 0.19287 0.32493 0.0
C7 C 0.03782 0.23677 0.20017 0.0
C8 C 0.05355 0.11122 0.23744 0.0
C9 C 0.0378 0.19934 0.32934 0.0
O10 O 0.95987 0.10843 0.20999 0.0
O11 O 0.94564 0.24085 0.21753 0.0
O12 O 0.95009 0.16579 0.33087 0.0
O13 O 0.02228 0.20893 0.18378 0.0
O14 O 0.0317 0.10166 0.26453 0.0
O15 O 0.01704 0.22522 0.31554 0.0
O16 O 0.04378 0.13484 0.21257 0.0
O17 O 0.03017 0.24658 0.23384 0.0
O18 O 0.03478 0.16455 0.32116 0.0
O19 O 0.9398 0.18596 0.18667 0.0
O20 O 0.94179 0.10818 0.26988 0.0
O21 O 0.93146 0.21552 0.2974 0.0
Sc22 Sc 0.32122 0.48736 0.71032 0.0
Sc23 Sc 0.22952 0.48788 0.74687 0.0
Sc24 Sc 0.30771 0.48281 0.80765 0.0
O25 O 0.28601 0.48582 0.75486 0.0
C26 C 0.36042 0.42649 0.76298 0.0
C27 C 0.25363 0.43424 0.68107 0.0
C28 C 0.23742 0.42929 0.81554 0.0
C29 C 0.25948 0.54025 0.67864 0.0
C30 C 0.36059 0.5432 0.76904 0.0
C31 C 0.24107 0.54241 0.81619 0.0
O32 O 0.35147 0.43936 0.73083 0.0
O33 O 0.23041 0.44172 0.70739 0.0
O34 O 0.27175 0.43647 0.82207 0.0
O35 O 0.29403 0.53464 0.68486 0.0
O36 O 0.34392 0.53026 0.79791 0.0
O37 O 0.2243 0.5354 0.78525 0.0
O38 O 0.35808 0.52829 0.73649 0.0
O39 O 0.23342 0.52553 0.69861 0.0
O40 O 0.26854 0.52322 0.82829 0.0
O41 O 0.28624 0.44896 0.67848 0.0
O42 O 0.35009 0.44169 0.79367 0.0
O43 O 0.21782 0.44764 0.79184 0.0
Sc44 Sc -0.0025 0.84101 0.20553 0.0
Sc45 Sc 0.97648 0.76309 0.25946 0.0
Sc46 Sc 0.98609 0.85174 0.30206 0.0
O47 O 0.98633 0.81888 0.25587 0.0
C48 C 0.05469 0.88593 0.25749 0.0
C49 C 0.03434 0.7669 0.19007 0.0
C50 C 0.03301 0.77833 0.32494 0.0
C51 C 0.93031 0.78182 0.18935 0.0
C52 C 0.94062 0.89832 0.24175 0.0
C53 C 0.92337 0.796 0.32484 0.0
O54 O 0.04041 0.87894 0.22551 0.0
O55 O 0.00953 0.74937 0.20929 0.0
O56 O 0.0162 0.80903 0.33349 0.0
O57 O 0.95601 0.80493 0.17952 0.0
O58 O 0.95496 0.89623 0.27447 0.0
O59 O 0.9399 0.76842 0.30875 0.0
O60 O 0.95304 0.87982 0.21375 0.0
O61 O 0.92854 0.76727 0.22227 0.0
O62 O 0.93309 0.83006 0.32005 0.0
O63 O 0.04153 0.80142 0.19572 0.0
O64 O 0.03947 0.87636 0.28838 0.0
O65 O 0.02536 0.75927 0.29529 0.0
Sc66 Sc 0.67646 0.48671 0.79471 0.0
Sc67 Sc 0.76696 0.49137 0.75187 0.0
Sc68 Sc 0.68503 0.49101 0.69666 0.0
O69 O 0.70977 0.48979 0.74777 0.0
C70 C 0.63441 0.43025 0.73968 0.0
C71 C 0.74221 0.4292 0.81316 0.0
C72 C 0.75585 0.44024 0.67843 0.0
C73 C 0.74118 0.54255 0.82179 0.0
C74 C 0.63345 0.54622 0.7455 0.0
C75 C 0.75199 0.54988 0.68483 0.0
O76 O 0.63869 0.44496 0.77197 0.0
O77 O 0.76681 0.44434 0.79156 0.0
O78 O 0.72271 0.45144 0.67244 0.0
O79 O 0.70876 0.52791 0.82391 0.0
O80 O 0.6449 0.53284 0.71431 0.0
O81 O 0.77236 0.53779 0.71175 0.0
O82 O 0.64188 0.53254 0.77729 0.0
O83 O 0.7657 0.53258 0.7975 0.0
O84 O 0.71983 0.53624 0.67723 0.0
O85 O 0.70894 0.44142 0.81698 0.0
O86 O 0.64996 0.44363 0.71031 0.0
O87 O 0.77579 0.4514 0.70606 0.0
Sc88 Sc -0.00815 0.82874 0.67691 0.0
Sc89 Sc 0.97394 0.74497 0.725 0.0
Sc90 Sc -0.00074 0.82618 0.77406 0.0
O91 O -0.01123 0.79968 0.72555 0.0
C92 C 0.06374 0.8568 0.71797 0.0
C93 C 0.02904 0.75089 0.65727 0.0
C94 C 0.03238 0.74803 0.79401 0.0
C95 C 0.92179 0.78084 0.66097 0.0
C96 C 0.95046 0.8848 0.72936 0.0
C97 C 0.92875 0.77344 0.79464 0.0
O98 O 0.04883 0.84388 0.68819 0.0
O99 O 0.02077 0.73378 0.68779 0.0
O100 O 0.0377 0.78359 0.79253 0.0
O101 O 0.93552 0.81376 0.66392 0.0
O102 O 0.95764 0.8672 0.7596 0.0
O103 O 0.92782 0.75517 0.76361 0.0
O104 O 0.97017 0.88062 0.6999 0.0
O105 O 0.93588 0.75212 0.67738 0.0
O106 O 0.95462 0.7969 0.80295 0.0
O107 O 0.01318 0.78108 0.64669 0.0
O108 O 0.04674 0.85731 0.74982 0.0
O109 O 0.00913 0.7309 0.77278 0.0
Sc110 Sc 0.6861 0.49406 0.28622 0.0
Sc111 Sc 0.76156 0.48791 0.22283 0.0
Sc112 Sc 0.66847 0.49587 0.19011 0.0
O113 O 0.70571 0.4925 0.2329 0.0
C114 C 0.62893 0.43902 0.24776 0.0
C115 C 0.75342 0.43468 0.2926 0.0
C116 C 0.72413 0.43516 0.15822 0.0
C117 C 0.75756 0.54432 0.29475 0.0
C118 C 0.63484 0.55562 0.24588 0.0
C119 C 0.73669 0.54632 0.16076 0.0
O120 O 0.65043 0.44725 0.27494 0.0
O121 O 0.76742 0.44004 0.26002 0.0
O122 O 0.69106 0.44766 0.16247 0.0
O123 O 0.72281 0.53907 0.30094 0.0
O124 O 0.64505 0.54641 0.21296 0.0
O125 O 0.76063 0.53556 0.18499 0.0
O126 O 0.6426 0.53552 0.27457 0.0
O127 O 0.77605 0.52665 0.26923 0.0
O128 O 0.70396 0.53241 0.15773 0.0
O129 O 0.72643 0.45393 0.30588 0.0
O130 O 0.628 0.45819 0.21734 0.0
O131 O 0.75263 0.44818 0.176 0.0
Sc132 Sc -0.00884 0.15461 0.68069 0.0
Sc133 Sc 0.98514 0.23607 0.73641 0.0
Sc134 Sc -0.00553 0.14747 0.77798 0.0
O135 O -0.00989 0.17952 0.73174 0.0
C136 C 0.93791 0.1015 0.72802 0.0
C137 C 0.93137 0.21577 0.66655 0.0
C138 C 0.93506 0.21171 0.8035 0.0
C139 C 0.04247 0.22757 0.66985 0.0
C140 C 0.05393 0.11016 0.72168 0.0
C141 C 0.03783 0.21486 0.80726 0.0
O142 O 0.9565 0.10749 0.69795 0.0
O143 O 0.94787 0.24017 0.68736 0.0
O144 O 0.95528 0.18265 0.80896 0.0
O145 O 0.02509 0.19888 0.65717 0.0
O146 O 0.03625 0.11005 0.75303 0.0
O147 O 0.01909 0.23812 0.78738 0.0
O148 O 0.04238 0.12705 0.69266 0.0
O149 O 0.03441 0.24363 0.70103 0.0
O150 O 0.04041 0.18018 0.79887 0.0
O151 O 0.94086 0.18144 0.66491 0.0
O152 O 0.94702 0.11516 0.75978 0.0
O153 O 0.93702 0.23172 0.77364 0.0
Sc154 Sc 0.32226 0.49295 0.17861 0.0
Sc155 Sc 0.23412 0.48701 0.22231 0.0
Sc156 Sc 0.31614 0.49699 0.27566 0.0
O157 O 0.29049 0.49221 0.22573 0.0
C158 C 0.36625 0.43839 0.22998 0.0
C159 C 0.25889 0.43271 0.15785 0.0
C160 C 0.2541 0.43842 0.29673 0.0
C161 C 0.25698 0.54406 0.1548 0.0
C162 C 0.36257 0.55458 0.22812 0.0
C163 C 0.24091 0.54542 0.28786 0.0
O164 O 0.35239 0.44543 0.19798 0.0
O165 O 0.23872 0.43753 0.18709 0.0
O166 O 0.2882 0.44878 0.2979 0.0
O167 O 0.29208 0.53974 0.15825 0.0
O168 O 0.34436 0.54715 0.25788 0.0
O169 O 0.2241 0.53517 0.25798 0.0
O170 O 0.36296 0.53298 0.19959 0.0
O171 O 0.23246 0.52418 0.17258 0.0
O172 O 0.27288 0.53305 0.29774 0.0
O173 O 0.28641 0.454 0.14934 0.0
O174 O 0.36115 0.45902 0.25904 0.0
O175 O 0.23064 0.45076 0.27244 0.0
Sc176 Sc 0.21585 -0.00603 0.14712 0.0
Sc177 Sc 0.26749 -0.00075 0.22947 0.0
Sc178 Sc 0.31221 0.98705 0.14214 0.0
O179 O 0.26535 -0.00725 0.17324 0.0
C180 C 0.2555 0.92656 0.1078 0.0
C181 C 0.19553 0.95124 0.22459 0.0
C182 C 0.33243 0.93813 0.21123 0.0
C183 C 0.20178 0.05687 0.20494 0.0
C184 C 0.26702 0.0414 0.09104 0.0
C185 C 0.33466 0.04985 0.20238 0.0
O186 O 0.22644 0.93945 0.12413 0.0
O187 O 0.22791 0.95405 0.23945 0.0
O188 O 0.33053 0.94159 0.17579 0.0
O189 O 0.2045 0.048 0.17037 0.0
O190 O 0.29728 0.03377 0.10769 0.0
O191 O 0.30583 0.04589 0.22328 0.0
O192 O 0.23704 0.02265 0.09739 0.0
O193 O 0.22029 0.03904 0.23008 0.0
O194 O 0.34294 0.02757 0.17547 0.0
O195 O 0.18693 0.96718 0.19367 0.0
O196 O 0.28668 0.94443 0.1062 0.0
O197 O 0.31425 0.95905 0.23443 0.0
Sc198 Sc 0.48109 0.79464 0.66074 0.0
Sc199 Sc 0.49303 0.74898 0.74872 0.0
Sc200 Sc 0.47501 0.69619 0.66593 0.0
O201 O 0.48293 0.74658 0.69212 0.0
C202 C 0.41454 0.74709 0.62429 0.0
C203 C 0.43665 0.81787 0.73477 0.0
C204 C 0.43277 0.68171 0.74387 0.0
C205 C 0.547 0.81463 0.71737 0.0
C206 C 0.53048 0.73984 0.61046 0.0
C207 C 0.53899 0.67553 0.72475 0.0
O208 O 0.43107 0.77801 0.63152 0.0
O209 O 0.45131 0.79312 0.75628 0.0
O210 O 0.43651 0.67647 0.70854 0.0
O211 O 0.52943 0.81808 0.68664 0.0
O212 O 0.51562 0.70967 0.62295 0.0
O213 O 0.53439 0.70367 0.74686 0.0
O214 O 0.51954 0.77265 0.61962 0.0
O215 O 0.53757 0.79108 0.74293 0.0
O216 O 0.52009 0.6705 0.695 0.0
O217 O 0.44473 0.82161 0.70013 0.0
O218 O 0.42763 0.71522 0.63381 0.0
O219 O 0.45048 0.70711 0.76206 0.0
Sc220 Sc 0.66038 -0.00945 0.15793 0.0
Sc221 Sc 0.72824 -0.00349 0.22844 0.0
Sc222 Sc 0.75445 0.98397 0.13466 0.0
O223 O 0.71443 0.98978 0.17384 0.0
C224 C 0.69171 0.92463 0.10909 0.0
C225 C 0.66052 0.94059 0.23288 0.0
C226 C 0.7935 0.94187 0.19757 0.0
C227 C 0.65798 0.0511 0.21996 0.0
C228 C 0.69922 0.04325 0.09886 0.0
C229 C 0.78992 0.04643 0.19054 0.0
O230 O 0.66583 0.93762 0.12985 0.0
O231 O 0.69412 0.94786 0.24311 0.0
O232 O 0.78044 0.93842 0.16449 0.0
O233 O 0.65253 0.04266 0.18577 0.0
O234 O 0.73233 0.03208 0.10573 0.0
O235 O 0.76419 0.04449 0.21573 0.0
O236 O 0.67031 0.02416 0.10805 0.0
O237 O 0.68096 0.03343 0.24091 0.0
O238 O 0.79077 0.02346 0.16296 0.0
O239 O 0.64386 0.95821 0.20655 0.0
O240 O 0.72278 0.94181 0.10339 0.0
O241 O 0.77797 0.9623 0.22268 0.0
Sc242 Sc 0.48065 0.27098 0.6552 0.0
Sc243 Sc 0.50054 0.2246 0.73847 0.0
Sc244 Sc 0.49352 0.17398 0.65328 0.0
O245 O 0.49158 0.22281 0.68234 0.0
C246 C 0.42602 0.21421 0.61325 0.0
C247 C 0.43976 0.29118 0.72679 0.0
C248 C 0.44433 0.15594 0.72678 0.0
C249 C 0.5448 0.29533 0.71422 0.0
C250 C 0.54149 0.23092 0.60322 0.0
C251 C 0.55572 0.15786 0.71292 0.0
O252 O 0.43898 0.24717 0.6185 0.0
O253 O 0.46369 0.27365 0.74697 0.0
O254 O 0.45883 0.14755 0.69498 0.0
O255 O 0.51944 0.3019 0.69005 0.0
O256 O 0.52925 0.19783 0.61013 0.0
O257 O 0.54082 0.17866 0.7381 0.0
O258 O 0.52667 0.26007 0.618 0.0
O259 O 0.54694 0.26376 0.73128 0.0
O260 O 0.54394 0.15618 0.67942 0.0
O261 O 0.43523 0.28369 0.69226 0.0
O262 O 0.44215 0.1847 0.62471 0.0
O263 O 0.45435 0.18465 0.74647 0.0
Sc264 Sc 0.29887 -0.00584 0.82597 0.0
Sc265 Sc 0.26684 0.98856 0.73162 0.0
Sc266 Sc 0.20277 0.98746 0.80756 0.0
O267 O 0.25621 0.9902 0.78811 0.0
C268 C 0.24499 0.9332 0.86338 0.0
C269 C 0.33175 0.93634 0.76662 0.0
C270 C 0.19993 0.92977 0.73824 0.0
C271 C 0.32637 0.04929 0.76056 0.0
C272 C 0.23881 0.05023 0.86086 0.0
C273 C 0.19286 0.0396 0.73654 0.0
O274 O 0.27576 0.95139 0.86252 0.0
O275 O 0.31275 0.94888 0.7389 0.0
O276 O 0.18735 0.94475 0.76818 0.0
O277 O 0.32829 0.03563 0.7935 0.0
O278 O 0.21081 0.03155 0.84873 0.0
O279 O 0.22101 0.02686 0.71821 0.0
O280 O 0.27261 0.04066 0.85466 0.0
O281 O 0.30474 0.03649 0.735 0.0
O282 O 0.18449 0.02978 0.76986 0.0
O283 O 0.32894 0.94908 0.79993 0.0
O284 O 0.21603 0.94279 0.84527 0.0
O285 O 0.22995 0.94064 0.72191 0.0
Sc286 Sc 0.48069 0.71066 0.32908 0.0
Sc287 Sc 0.49883 0.76074 0.24615 0.0
Sc288 Sc 0.48695 0.8094 0.33196 0.0
O289 O 0.48848 0.76038 0.30219 0.0
C290 C 0.42034 0.76393 0.36949 0.0
C291 C 0.43952 0.69197 0.25471 0.0
C292 C 0.44118 0.8279 0.2574 0.0
C293 C 0.5463 0.69023 0.27064 0.0
C294 C 0.5375 0.75597 0.38088 0.0
C295 C 0.55151 0.82893 0.27463 0.0
O296 O 0.43571 0.73193 0.36443 0.0
O297 O 0.46091 0.71353 0.23531 0.0
O298 O 0.4533 0.83604 0.29003 0.0
O299 O 0.52244 0.68181 0.29603 0.0
O300 O 0.52191 0.78781 0.37616 0.0
O301 O 0.53887 0.80733 0.24885 0.0
O302 O 0.52526 0.72542 0.36663 0.0
O303 O 0.54519 0.72122 0.25227 0.0
O304 O 0.53763 0.83033 0.3075 0.0
O305 O 0.43874 0.692 0.29049 0.0
O306 O 0.43503 0.79465 0.35859 0.0
O307 O 0.45283 0.79999 0.23775 0.0
Sc308 Sc 0.76818 0.98033 0.81443 0.0
Sc309 Sc 0.72869 0.98171 0.725 0.0
Sc310 Sc 0.67233 0.98589 0.80536 0.0
O311 O 0.72316 0.98287 0.78152 0.0
C312 C 0.70988 0.92551 0.85573 0.0
C313 C 0.79865 0.93131 0.75354 0.0
C314 C 0.66118 0.92753 0.73803 0.0
C315 C 0.79529 0.03266 0.74438 0.0
C316 C 0.7201 0.04206 0.85493 0.0
C317 C 0.66182 0.04024 0.73923 0.0
O318 O 0.74119 0.94322 0.85548 0.0
O319 O 0.78036 0.94814 0.7276 0.0
O320 O 0.64818 0.94969 0.76313 0.0
O321 O 0.80049 0.0147 0.77507 0.0
O322 O 0.68995 0.02343 0.84984 0.0
O323 O 0.67982 0.01885 0.71639 0.0
O324 O 0.75179 0.03161 0.84221 0.0
O325 O 0.76531 0.0301 0.72504 0.0
O326 O 0.66158 0.03525 0.77448 0.0
O327 O 0.78635 0.93001 0.78692 0.0
O328 O 0.68161 0.93596 0.83702 0.0
O329 O 0.69335 0.93196 0.72269 0.0
Sc330 Sc 0.48843 0.17595 0.32576 0.0
Sc331 Sc 0.49824 0.23165 0.2441 0.0
Sc332 Sc 0.47718 0.27405 0.33079 0.0
O333 O 0.4876 0.22707 0.3 0.0
C334 C 0.41973 0.21459 0.36722 0.0
C335 C 0.44347 0.16048 0.24974 0.0
C336 C 0.43683 0.29692 0.25747 0.0
C337 C 0.55339 0.16467 0.26606 0.0
C338 C 0.53662 0.22832 0.37949 0.0
C339 C 0.54111 0.30302 0.27375 0.0
O340 O 0.43691 0.18575 0.35528 0.0
O341 O 0.45565 0.18913 0.23129 0.0
O342 O 0.43507 0.29352 0.29305 0.0
O343 O 0.53847 0.15785 0.29778 0.0
O344 O 0.52174 0.25915 0.36886 0.0
O345 O 0.54208 0.2731 0.25387 0.0
O346 O 0.52475 0.19588 0.36969 0.0
O347 O 0.54114 0.18928 0.24334 0.0
O348 O 0.5172 0.30762 0.30004 0.0
O349 O 0.45376 0.15253 0.28304 0.0
O350 O 0.43262 0.24792 0.36341 0.0
O351 O 0.45804 0.27685 0.2366 0.0
Sc352 Sc 0.14729 0.21109 0.00545 0.0
Sc353 Sc 0.23143 0.25749 0.98632 0.0
Sc354 Sc 0.14808 0.30842 -0.00165 0.0
O355 O 0.1757 0.259 -0.00335 0.0
C356 C 0.09433 0.25636 0.95125 0.0
C357 C 0.20647 0.18846 0.93999 0.0
C358 C 0.20306 0.32408 0.93234 0.0
C359 C 0.21906 0.18647 0.04231 0.0
C360 C 0.11179 0.26684 0.06688 0.0
C361 C 0.22388 0.32453 0.0428 0.0
O362 O 0.11008 0.22576 0.96087 0.0
O363 O 0.22452 0.21961 0.93929 0.0
O364 O 0.16967 0.32332 0.94464 0.0
O365 O 0.18493 0.19396 0.04885 0.0
O366 O 0.12574 0.29671 0.05301 0.0
O367 O 0.24095 0.29414 0.03402 0.0
O368 O 0.11253 0.23507 0.04991 0.0
O369 O 0.23929 0.20693 0.02061 0.0
O370 O 0.19362 0.33528 0.02722 0.0
O371 O 0.18037 0.18128 0.96358 0.0
O372 O 0.09933 0.28729 0.96874 0.0
O373 O 0.22986 0.30591 0.94781 0.0
Sc374 Sc 0.14382 0.66956 -0.00798 0.0
Sc375 Sc 0.22989 0.71955 0.98432 0.0
Sc376 Sc 0.14466 0.76818 -0.00595 0.0
O377 O 0.17299 0.71917 -0.00978 0.0
C378 C 0.09591 0.7193 0.93655 0.0
C379 C 0.20594 0.65411 0.92867 0.0
C380 C 0.2081 0.79464 0.9385 0.0
C381 C 0.21467 0.6502 0.04065 0.0
C382 C 0.10007 0.71733 0.05309 0.0
C383 C 0.2184 0.78473 0.04339 0.0
O384 O 0.10724 0.68747 0.94808 0.0
O385 O 0.22757 0.68191 0.93609 0.0
O386 O 0.17398 0.79448 0.94867 0.0
O387 O 0.17965 0.64758 0.03468 0.0
O388 O 0.1125 0.74864 0.04097 0.0
O389 O 0.23772 0.7572 0.03111 0.0
O390 O 0.10617 0.68617 0.03667 0.0
O391 O 0.23641 0.67272 0.02293 0.0
O392 O 0.18467 0.79124 0.03348 0.0
O393 O 0.17706 0.64593 0.94806 0.0
O394 O 0.10419 0.75049 0.95236 0.0
O395 O 0.23137 0.76907 0.94797 0.0
Sc396 Sc 0.81032 0.68081 0.48963 0.0
Sc397 Sc 0.74549 0.75476 0.49329 0.0
Sc398 Sc 0.71458 0.66115 0.48525 0.0
O399 O 0.75653 0.69902 0.48944 0.0
C400 C 0.77382 0.62701 0.42828 0.0
C401 C 0.81748 0.75103 0.43833 0.0
C402 C 0.68524 0.73138 0.43546 0.0
C403 C 0.81079 0.74737 0.55045 0.0
C404 C 0.77082 0.62552 0.54615 0.0
C405 C 0.67461 0.71794 0.53804 0.0
O406 O 0.8018 0.63641 0.44838 0.0
O407 O 0.79402 0.77001 0.45803 0.0
O408 O 0.68318 0.69759 0.44781 0.0
O409 O 0.82728 0.72324 0.5297 0.0
O410 O 0.74078 0.62369 0.52651 0.0
O411 O 0.69421 0.74596 0.52647 0.0
O412 O 0.79892 0.64565 0.53703 0.0
O413 O 0.77784 0.75943 0.54419 0.0
O414 O 0.68306 0.68391 0.53105 0.0
O415 O 0.82386 0.71624 0.44342 0.0
O416 O 0.74035 0.63589 0.43668 0.0
O417 O 0.71159 0.75415 0.44372 0.0
Sc418 Sc 0.81273 0.29458 -0.00538 0.0
Sc419 Sc 0.72141 0.25509 0.98502 0.0
Sc420 Sc 0.80036 0.19677 0.00013 0.0
O421 O 0.77784 0.24878 -0.00668 0.0
C422 C 0.85789 0.2369 0.94371 0.0
C423 C 0.75614 0.31794 0.92974 0.0
C424 C 0.73855 0.17926 0.9382 0.0
C425 C 0.74259 0.32277 0.04233 0.0
C426 C 0.8474 0.24421 0.05929 0.0
C427 C 0.72277 0.18787 0.04509 0.0
O428 O 0.85037 0.27027 0.9542 0.0
O429 O 0.72951 0.29546 0.93896 0.0
O430 O 0.76933 0.17334 0.9549 0.0
O431 O 0.77722 0.32345 0.03376 0.0
O432 O 0.83353 0.2134 0.04755 0.0
O433 O 0.70617 0.21519 0.02891 0.0
O434 O 0.84353 0.27542 0.04244 0.0
O435 O 0.71867 0.30068 0.02682 0.0
O436 O 0.75707 0.1796 0.03904 0.0
O437 O 0.78668 0.32016 0.94767 0.0
O438 O 0.84406 0.20761 0.95924 0.0
O439 O 0.7179 0.20812 0.94462 0.0
Sc440 Sc 0.17397 0.30939 0.48916 0.0
Sc441 Sc 0.21329 0.21794 0.49687 0.0
Sc442 Sc 0.27094 0.29811 0.48745 0.0
O443 O 0.21932 0.27484 0.49106 0.0
C444 C 0.22495 0.34718 0.42785 0.0
C445 C 0.1472 0.23796 0.44116 0.0
C446 C 0.28033 0.22666 0.43584 0.0
C447 C 0.15017 0.25213 0.55273 0.0
C448 C 0.22989 0.35317 0.54356 0.0
C449 C 0.28556 0.2305 0.54547 0.0
O450 O 0.19261 0.33715 0.43899 0.0
O451 O 0.17229 0.21541 0.45271 0.0
O452 O 0.28594 0.2615 0.44253 0.0
O453 O 0.15113 0.28491 0.53855 0.0
O454 O 0.25886 0.33467 0.53394 0.0
O455 O 0.2544 0.21349 0.54117 0.0
O456 O 0.19868 0.35089 0.52636 0.0
O457 O 0.16929 0.22434 0.53991 0.0
O458 O 0.2951 0.25962 0.52693 0.0
O459 O 0.14323 0.27148 0.45329 0.0
O460 O 0.25493 0.33888 0.44528 0.0
O461 O 0.25691 0.20641 0.45449 0.0
Sc462 Sc 0.79296 0.78788 -0.00633 0.0
Sc463 Sc 0.72294 0.71818 0.98921 0.0
Sc464 Sc 0.81858 0.69446 -0.00858 0.0
O465 O 0.77758 0.73334 -0.00821 0.0
C466 C 0.85012 0.75414 0.93492 0.0
C467 C 0.7281 0.79093 0.93524 0.0
C468 C 0.75951 0.65846 0.9346 0.0
C469 C 0.71784 0.78753 0.0433 0.0
C470 C 0.84723 0.75369 0.05273 0.0
C471 C 0.76041 0.65825 0.04625 0.0
O472 O 0.84254 0.78079 0.9578 0.0
O473 O 0.70954 0.76363 0.94991 0.0
O474 O 0.78977 0.6573 0.95329 0.0
O475 O 0.74615 0.80312 0.02801 0.0
O476 O 0.85426 0.72576 0.03106 0.0
O477 O 0.73207 0.67211 0.02907 0.0
O478 O 0.82252 0.77798 0.0447 0.0
O479 O 0.70729 0.75396 0.03608 0.0
O480 O 0.79433 0.66623 0.03834 0.0
O481 O 0.76123 0.79997 0.94487 0.0
O482 O 0.84107 0.72028 0.94211 0.0
O483 O 0.73306 0.6815 0.94156 0.0
Sc484 Sc 0.71672 0.3173 0.48737 0.0
Sc485 Sc 0.75226 0.22562 0.49869 0.0
Sc486 Sc 0.81355 0.30355 0.48796 0.0
O487 O 0.76075 0.28195 0.4911 0.0
C488 C 0.77252 0.3501 0.42458 0.0
C489 C 0.68254 0.24763 0.44546 0.0
C490 C 0.81816 0.22818 0.43869 0.0
C491 C 0.69019 0.25932 0.55202 0.0
C492 C 0.77243 0.36216 0.54081 0.0
C493 C 0.82346 0.24288 0.55113 0.0
O494 O 0.74094 0.34927 0.44147 0.0
O495 O 0.7028 0.22379 0.46295 0.0
O496 O 0.83178 0.25824 0.4528 0.0
O497 O 0.68736 0.28825 0.53102 0.0
O498 O 0.80198 0.35031 0.52473 0.0
O499 O 0.79907 0.22012 0.53777 0.0
O500 O 0.73958 0.35279 0.53059 0.0
O501 O 0.71538 0.23438 0.5466 0.0
O502 O 0.83029 0.2751 0.5374 0.0
O503 O 0.68824 0.28308 0.44653 0.0
O504 O 0.8016 0.33393 0.43717 0.0
O505 O 0.78745 0.2132 0.44996 0.0
Sc506 Sc 0.26293 0.6694 0.47967 0.0
Sc507 Sc 0.20867 0.75057 0.49177 0.0
Sc508 Sc 0.16515 0.66084 0.48853 0.0
O509 O 0.21223 0.69366 0.48679 0.0
C510 C 0.21132 0.62197 0.42306 0.0
C511 C 0.27741 0.74315 0.43321 0.0
C512 C 0.14209 0.73035 0.43619 0.0
C513 C 0.27899 0.73348 0.54164 0.0
C514 C 0.22278 0.6156 0.53921 0.0
C515 C 0.14343 0.72185 0.54795 0.0
O516 O 0.24315 0.63241 0.43553 0.0
O517 O 0.25451 0.76258 0.45274 0.0
O518 O 0.13518 0.69887 0.4522 0.0
O519 O 0.28812 0.70524 0.52145 0.0
O520 O 0.18969 0.62099 0.5271 0.0
O521 O 0.16279 0.74804 0.53262 0.0
O522 O 0.25186 0.63031 0.52444 0.0
O523 O 0.24847 0.75182 0.53771 0.0
O524 O 0.14386 0.68794 0.53702 0.0
O525 O 0.2797 0.7075 0.43611 0.0
O526 O 0.1805 0.62999 0.439 0.0
O527 O 0.16988 0.75141 0.44506 0.0
C528 C 0.05534 0.28781 0.15606 0.0
C529 C 0.06672 0.25658 0.17788 0.0
C530 C 0.1174 0.24427 0.1332 0.0
C531 C 0.09896 0.26768 0.10662 0.0
N532 N 0.0516 0.31455 0.09326 0.0
N533 N 0.11108 0.20716 0.19033 0.0
C534 C 0.06881 0.29112 0.1184 0.0
C535 C 0.09916 0.23598 0.16776 0.0
N536 N 0.03112 0.31346 0.17127 0.0
N537 N 0.15259 0.23089 0.12568 0.0
H538 H 0.099 0.20197 0.21672 0.0
H539 H 0.13162 0.18782 0.18227 0.0
H540 H 0.16751 0.23893 0.10161 0.0
H541 H 0.16846 0.21575 0.14509 0.0
H542 H 0.02358 0.33848 0.15785 0.0
H543 H 0.02128 0.31083 0.19894 0.0
H544 H 0.02727 0.32962 0.09951 0.0
H545 H 0.06028 0.31715 0.06526 0.0
C546 C 0.22616 0.59234 0.64399 0.0
C547 C 0.24916 0.55968 0.64302 0.0
C548 C 0.24778 0.56002 0.57356 0.0
C549 C 0.22795 0.59441 0.57464 0.0
N550 N 0.20123 0.64614 0.61007 0.0
N551 N 0.28494 0.51392 0.60647 0.0
C552 C 0.21751 0.61117 0.60963 0.0
C553 C 0.26098 0.54404 0.6077 0.0
N554 N 0.21311 0.60571 0.67778 0.0
N555 N 0.25281 0.54196 0.53975 0.0
H556 H 0.2929 0.4985 0.62995 0.0
H557 H 0.29871 0.5051 0.58208 0.0
H558 H 0.24293 0.55281 0.51429 0.0
H559 H 0.26365 0.51481 0.53705 0.0
H560 H 0.1924 0.62627 0.68023 0.0
H561 H 0.22166 0.59494 0.70372 0.0
H562 H 0.19693 0.66194 0.63445 0.0
H563 H 0.19452 0.66095 0.58565 0.0
C564 C 0.87745 0.79649 0.10041 0.0
C565 C 0.86827 0.75914 0.08873 0.0
C566 C 0.89743 0.73488 0.14663 0.0
C567 C 0.90257 0.77248 0.15964 0.0
N568 N 0.88579 0.83813 0.15374 0.0
N569 N 0.86026 0.69357 0.10736 0.0
C570 C 0.88841 0.80292 0.13814 0.0
C571 C 0.87551 0.72843 0.11372 0.0
N572 N 0.878 0.82561 0.07511 0.0
N573 N 0.91465 0.70539 0.16431 0.0
H574 H 0.8424 0.68781 0.08498 0.0
H575 H 0.86196 0.67155 0.12681 0.0
H576 H 0.93098 0.70856 0.18841 0.0
H577 H 0.91505 0.67813 0.15311 0.0
H578 H 0.88733 0.8527 0.08211 0.0
H579 H 0.87396 0.82169 0.04625 0.0
H580 H 0.87305 0.86075 0.14 0.0
H581 H 0.89241 0.8433 0.18194 0.0
C582 C 0.76594 0.37884 0.64641 0.0
C583 C 0.77282 0.41808 0.64762 0.0
C584 C 0.78956 0.41832 0.58036 0.0
C585 C 0.77639 0.38067 0.57788 0.0
N586 N 0.75512 0.32311 0.60805 0.0
N587 N 0.79239 0.47574 0.61749 0.0
C588 C 0.76594 0.36015 0.61092 0.0
C589 C 0.78591 0.43777 0.61521 0.0
N590 N 0.75928 0.35986 0.67935 0.0
N591 N 0.80489 0.43554 0.54936 0.0
H592 H 0.79169 0.49006 0.64313 0.0
H593 H 0.79679 0.49312 0.59423 0.0
H594 H 0.80642 0.42247 0.52302 0.0
H595 H 0.81836 0.46169 0.55013 0.0
H596 H 0.75659 0.33064 0.68137 0.0
H597 H 0.75949 0.3735 0.70548 0.0
H598 H 0.74264 0.30787 0.62987 0.0
H599 H 0.75751 0.30759 0.58315 0.0
C600 C 0.0293 0.70961 0.8537 0.0
C601 C 0.05108 0.72736 0.82513 0.0
C602 C 0.10464 0.73124 0.86777 0.0
C603 C 0.08047 0.72053 0.8981 0.0
N604 N 0.02025 0.69896 0.92072 0.0
N605 N 0.11237 0.73861 0.79996 0.0
C606 C 0.04308 0.70891 0.89123 0.0
C607 C 0.0898 0.73335 0.83073 0.0
N608 N -0.00322 0.69133 0.84465 0.0
N609 N 0.14136 0.74044 0.87462 0.0
H610 H 0.10152 0.73819 0.77262 0.0
H611 H 0.14158 0.73949 0.80097 0.0
H612 H 0.15407 0.73662 0.90078 0.0
H613 H 0.15905 0.75305 0.85481 0.0
H614 H 0.98221 0.67417 0.86356 0.0
H615 H 0.98758 0.68834 0.81702 0.0
H616 H -0.00856 0.69461 0.91802 0.0
H617 H 0.02968 0.69772 0.94852 0.0
C618 C 0.79517 0.55293 0.35309 0.0
C619 C 0.77665 0.56968 0.32201 0.0
C620 C 0.7699 0.62842 0.35795 0.0
C621 C 0.78037 0.60871 0.39119 0.0
N622 N 0.80399 0.55239 0.42095 0.0
N623 N 0.74897 0.62407 0.29292 0.0
C624 C 0.79417 0.57124 0.38885 0.0
C625 C 0.76546 0.60799 0.32369 0.0
N626 N 0.81301 0.51921 0.34836 0.0
N627 N 0.76453 0.66666 0.35925 0.0
H628 H 0.74743 0.61012 0.26699 0.0
H629 H 0.73569 0.65024 0.29342 0.0
H630 H 0.76815 0.68243 0.38387 0.0
H631 H 0.75987 0.68322 0.33548 0.0
H632 H 0.82937 0.50649 0.36902 0.0
H633 H 0.81467 0.50614 0.3221 0.0
H634 H 0.81009 0.52364 0.42167 0.0
H635 H 0.80379 0.565 0.44754 0.0
C636 C 0.87526 0.21093 0.84124 0.0
C637 C 0.91224 0.2247 0.836 0.0
C638 C 0.91441 0.24546 0.90198 0.0
C639 C 0.87709 0.23243 0.90697 0.0
N640 N 0.81823 0.2136 0.8784 0.0
N641 N 0.96235 0.26516 0.85743 0.0
C642 C 0.85633 0.21823 0.87575 0.0
C643 C 0.93041 0.24513 0.86523 0.0
N644 N 0.85841 0.19047 0.8134 0.0
N645 N 0.93484 0.25716 0.93242 0.0
H646 H 0.97286 0.26759 0.83011 0.0
H647 H 0.97566 0.2828 0.87679 0.0
H648 H 0.92391 0.2575 0.95977 0.0
H649 H 0.9634 0.26357 0.93106 0.0
H650 H 0.83343 0.17546 0.81719 0.0
H651 H 0.87073 0.18729 0.78695 0.0
H652 H 0.8013 0.20691 0.85543 0.0
H653 H 0.8029 0.2203 0.90259 0.0
C654 C 0.24427 0.43232 0.36611 0.0
C655 C 0.24077 0.41608 0.3295 0.0
C656 C 0.22045 0.35613 0.35771 0.0
C657 C 0.2279 0.37138 0.39408 0.0
N658 N 0.24773 0.42306 0.4337 0.0
N659 N 0.22816 0.36236 0.28978 0.0
C660 C 0.23989 0.40928 0.39848 0.0
C661 C 0.22902 0.37804 0.32504 0.0
N662 N 0.25105 0.47018 0.36989 0.0
N663 N 0.20555 0.3206 0.35448 0.0
H664 H 0.23367 0.37786 0.26535 0.0
H665 H 0.22424 0.33366 0.28467 0.0
H666 H 0.20076 0.30307 0.37762 0.0
H667 H 0.19578 0.30921 0.32928 0.0
H668 H 0.24969 0.48479 0.39533 0.0
H669 H 0.25499 0.48801 0.34699 0.0
H670 H 0.26168 0.44847 0.43868 0.0
H671 H 0.24199 0.40816 0.45843 0.0
C672 C 0.14301 0.09036 0.18706 0.0
C673 C 0.16884 0.08124 0.2158 0.0
C674 C 0.11917 0.09576 0.26234 0.0
C675 C 0.09199 0.09501 0.23273 0.0
N676 N 0.07925 0.08155 0.16708 0.0
N677 N 0.18345 0.08379 0.28209 0.0
C678 C 0.10437 0.08896 0.19518 0.0
C679 C 0.15751 0.08647 0.25399 0.0
N680 N 0.15531 0.10176 0.15236 0.0
N681 N 0.10913 0.10719 0.29775 0.0
H682 H 0.21227 0.08495 0.27672 0.0
H683 H 0.17642 0.08102 0.31049 0.0
H684 H 0.08164 0.11294 0.30565 0.0
H685 H 0.12838 0.11302 0.31903 0.0
H686 H 0.13696 0.11069 0.1313 0.0
H687 H 0.18368 0.10723 0.14689 0.0
H688 H 0.08777 0.07493 0.13967 0.0
H689 H 0.05058 0.07775 0.17232 0.0
C690 C 0.42833 0.62492 0.78589 0.0
C691 C 0.41 0.65326 0.76452 0.0
C692 C 0.35513 0.61242 0.75691 0.0
C693 C 0.37643 0.58177 0.77154 0.0
N694 N 0.43182 0.55827 0.80225 0.0
N695 N 0.35215 0.67995 0.74393 0.0
C696 C 0.4123 0.58803 0.7876 0.0
C697 C 0.37201 0.64878 0.75446 0.0
N698 N 0.46075 0.63346 0.80461 0.0
N699 N 0.31941 0.60625 0.74408 0.0
H700 H 0.36445 0.70682 0.74358 0.0
H701 H 0.32333 0.68004 0.73916 0.0
H702 H 0.30534 0.58057 0.74758 0.0
H703 H 0.30388 0.62605 0.72914 0.0
H704 H 0.47406 0.61505 0.82309 0.0
H705 H 0.47281 0.66032 0.80416 0.0
H706 H 0.45984 0.55982 0.81043 0.0
H707 H 0.42043 0.53113 0.80439 0.0
C708 C 0.87271 0.90751 0.25723 0.0
C709 C 0.90466 0.91841 0.23561 0.0
C710 C 0.86333 0.94325 0.18618 0.0
C711 C 0.83172 0.92825 0.20618 0.0
N712 N 0.80709 0.88916 0.25594 0.0
N713 N 0.93136 0.94919 0.18144 0.0
C714 C 0.83676 0.90828 0.24028 0.0
C715 C 0.90006 0.93731 0.20068 0.0
N716 N 0.87626 0.8976 0.29428 0.0
N717 N 0.85835 0.96392 0.15398 0.0
H718 H 0.95799 0.94933 0.19374 0.0
H719 H 0.93154 0.95788 0.15343 0.0
H720 H 0.83261 0.96814 0.14107 0.0
H721 H 0.87975 0.97775 0.13952 0.0
H722 H 0.85337 0.8919 0.31181 0.0
H723 H 0.90119 0.90035 0.30921 0.0
H724 H 0.80979 0.8707 0.27865 0.0
H725 H 0.78052 0.88855 0.24353 0.0
C726 C 0.61102 0.36605 0.76294 0.0
C727 C 0.61096 0.39557 0.73551 0.0
C728 C 0.5784 0.35343 0.69244 0.0
C729 C 0.57156 0.327 0.72188 0.0
N730 N 0.57449 0.31492 0.78935 0.0
N731 N 0.58195 0.41986 0.67882 0.0
C732 C 0.58589 0.33501 0.75847 0.0
C733 C 0.59072 0.39012 0.70167 0.0
N734 N 0.63577 0.36629 0.79227 0.0
N735 N 0.57413 0.34346 0.65553 0.0
H736 H 0.58726 0.4479 0.6863 0.0
H737 H 0.56494 0.41681 0.6551 0.0
H738 H 0.56969 0.31553 0.64725 0.0
H739 H 0.57994 0.36202 0.63342 0.0
H740 H 0.63841 0.3435 0.81072 0.0
H741 H 0.65666 0.38664 0.79559 0.0
H742 H 0.58222 0.3225 0.81668 0.0
H743 H 0.55408 0.29382 0.78857 0.0
C744 C 0.15523 0.90661 0.68985 0.0
C745 C 0.17653 0.89907 0.72245 0.0
C746 C 0.12964 0.85261 0.74226 0.0
C747 C 0.10383 0.86865 0.71637 0.0
N748 N 0.09262 0.91079 0.66377 0.0
N749 N 0.18797 0.86053 0.77674 0.0
C750 C 0.11694 0.89497 0.68892 0.0
C751 C 0.16518 0.87002 0.74733 0.0
N752 N 0.17147 0.92526 0.66032 0.0
N753 N 0.12056 0.82022 0.76106 0.0
H754 H 0.21515 0.8715 0.77914 0.0
H755 H 0.17966 0.8432 0.79902 0.0
H756 H 0.0957 0.8055 0.75593 0.0
H757 H 0.13932 0.80593 0.77831 0.0
H758 H 0.1582 0.9292 0.63449 0.0
H759 H 0.19971 0.93328 0.66063 0.0
H760 H 0.10031 0.93219 0.6451 0.0
H761 H 0.06392 0.90488 0.66345 0.0
C762 C 0.59732 0.64548 0.29116 0.0
C763 C 0.5749 0.66087 0.26179 0.0
C764 C 0.58904 0.6054 0.22319 0.0
C765 C 0.61458 0.59216 0.25097 0.0
N766 N 0.65314 0.60982 0.30442 0.0
N767 N 0.56031 0.66018 0.19502 0.0
C768 C 0.62189 0.61524 0.2829 0.0
C769 C 0.5748 0.64274 0.22604 0.0
N770 N 0.59488 0.65873 0.32722 0.0
N771 N 0.57597 0.58178 0.19566 0.0
H772 H 0.54912 0.6873 0.19555 0.0
H773 H 0.56273 0.64879 0.16799 0.0
H774 H 0.58202 0.55299 0.19479 0.0
H775 H 0.55511 0.5897 0.1767 0.0
H776 H 0.60829 0.64563 0.3498 0.0
H777 H 0.57712 0.68052 0.33523 0.0
H778 H 0.66081 0.62815 0.32615 0.0
H779 H 0.67394 0.59051 0.29728 0.0
C780 C 0.85816 0.03156 0.71401 0.0
C781 C 0.82801 0.05307 0.72889 0.0
C782 C 0.86836 0.10862 0.72981 0.0
C783 C 0.90011 0.08487 0.72461 0.0
N784 N 0.92569 0.02345 0.71056 0.0
N785 N 0.80312 0.11277 0.74927 0.0
C786 C 0.89521 0.04623 0.7159 0.0
C787 C 0.83254 0.09202 0.7358 0.0
N788 N 0.85094 -0.00214 0.69684 0.0
N789 N 0.87226 0.14693 0.72765 0.0
H790 H 0.77609 0.10152 0.75208 0.0
H791 H 0.80597 0.14043 0.759 0.0
H792 H 0.89818 0.16024 0.72369 0.0
H793 H 0.84933 0.16512 0.72655 0.0
H794 H 0.8714 0.98194 0.68309 0.0
H795 H 0.82351 0.98872 0.69211 0.0
H796 H 0.92365 -0.00578 0.70765 0.0
H797 H 0.95325 0.0336 0.71143 0.0
C798 C 0.44089 0.36262 0.23174 0.0
C799 C 0.41848 0.33054 0.24134 0.0
C800 C 0.36182 0.36917 0.24126 0.0
C801 C 0.38457 0.40161 0.2344 0.0
N802 N 0.44491 0.43094 0.2249 0.0
N803 N 0.35809 0.30065 0.24537 0.0
C804 C 0.42388 0.39879 0.22975 0.0
C805 C 0.37897 0.3331 0.24324 0.0
N806 N 0.47821 0.35828 0.22375 0.0
N807 N 0.32407 0.37322 0.24745 0.0
H808 H 0.37048 0.27395 0.24536 0.0
H809 H 0.32891 0.2997 0.24371 0.0
H810 H 0.31027 0.39905 0.24507 0.0
H811 H 0.30655 0.35159 0.25693 0.0
H812 H 0.49576 0.3797 0.2139 0.0
H813 H 0.49129 0.33216 0.22348 0.0
H814 H 0.47412 0.43181 0.22545 0.0
H815 H 0.43301 0.45774 0.22254 0.0
C816 C 0.26808 0.14588 0.07269 0.0
C817 C 0.23358 0.14863 0.05291 0.0
C818 C 0.23335 0.0798 0.04356 0.0
C819 C 0.26398 0.07676 0.06828 0.0
N820 N 0.32135 0.10673 0.0891 0.0
N821 N 0.18121 0.11657 0.0219 0.0
C822 C 0.2848 0.10974 0.07786 0.0
C823 C 0.21574 0.11524 0.03863 0.0
N824 N 0.28377 0.17757 0.08828 0.0
N825 N 0.2223 0.04865 0.02359 0.0
H826 H 0.16596 0.14104 0.01752 0.0
H827 H 0.16556 0.09252 0.0154 0.0
H828 H 0.23645 0.02292 0.02578 0.0
H829 H 0.2028 0.04945 0.00177 0.0
H830 H 0.30669 0.17701 0.10642 0.0
H831 H 0.27179 0.20433 0.08587 0.0
H832 H 0.33876 0.12985 0.09425 0.0
H833 H 0.33614 0.08143 0.08761 0.0
C834 C 0.21697 0.86517 0.93977 0.0
C835 C 0.22225 0.82987 0.9206 0.0
C836 C 0.25087 0.86318 0.86718 0.0
C837 C 0.24262 0.89804 0.88516 0.0
N838 N 0.22592 0.93344 0.94033 0.0
N839 N 0.24101 0.79525 0.86511 0.0
C840 C 0.22804 0.89936 0.92205 0.0
C841 C 0.239 0.82877 0.88427 0.0
N842 N 0.20032 0.86611 0.97455 0.0
N843 N 0.27068 0.86323 0.83406 0.0
H844 H 0.2322 0.76956 0.8766 0.0
H845 H 0.24884 0.793 0.8369 0.0
H846 H 0.2795 0.8881 0.82088 0.0
H847 H 0.28096 0.83897 0.8211 0.0
H848 H 0.19074 0.89046 0.98782 0.0
H849 H 0.19508 0.84213 -0.00959 0.0
H850 H 0.21878 0.93681 0.96858 0.0
H851 H 0.23412 0.95888 0.92781 0.0
C852 C 0.58624 0.7663 0.43099 0.0
C853 C 0.57681 0.75603 0.39378 0.0
C854 C 0.64179 0.73753 0.38069 0.0
C855 C 0.65109 0.7469 0.41811 0.0
N856 N 0.63629 0.78409 0.4734 0.0
N857 N 0.59859 0.7484 0.32956 0.0
C858 C 0.62462 0.76585 0.44159 0.0
C859 C 0.60555 0.7468 0.36736 0.0
N860 N 0.55869 0.77557 0.45626 0.0
N861 N 0.66728 0.71951 0.35815 0.0
H862 H 0.57268 0.75662 0.31869 0.0
H863 H 0.61937 0.74439 0.3092 0.0
H864 H 0.69478 0.71417 0.36677 0.0
H865 H 0.66051 0.70833 0.33183 0.0
H866 H 0.56373 0.77996 0.48484 0.0
H867 H 0.53029 0.77631 0.44908 0.0
H868 H 0.61859 0.80019 0.49042 0.0
H869 H 0.66458 0.78733 0.47992 0.0
C870 C 0.71952 0.11128 0.93579 0.0
C871 C 0.72417 0.14638 0.91642 0.0
C872 C 0.72158 0.11302 0.85588 0.0
C873 C 0.71803 0.07816 0.87568 0.0
N874 N 0.7043 0.04456 0.93319 0.0
N875 N 0.72287 0.1819 0.85873 0.0
C876 C 0.71369 0.07753 0.9152 0.0
C877 C 0.72267 0.14767 0.87655 0.0
N878 N 0.72313 0.10983 0.97407 0.0
N879 N 0.72464 0.11272 0.81741 0.0
H880 H 0.72413 0.20739 0.87344 0.0
H881 H 0.71929 0.18544 0.82985 0.0
H882 H 0.72198 0.0881 0.8014 0.0
H883 H 0.73103 0.1364 0.8012 0.0
H884 H 0.72654 0.08487 0.9892 0.0
H885 H 0.72509 0.13393 -0.0094 0.0
H886 H 0.69624 0.04325 0.96142 0.0
H887 H 0.70172 0.01868 0.91934 0.0
C888 C 0.31497 0.23197 0.37527 0.0
C889 C 0.30601 0.20988 0.40732 0.0
C890 C 0.36947 0.18404 0.40816 0.0
C891 C 0.37995 0.20985 0.37926 0.0
N892 N 0.35889 0.24428 0.32445 0.0
N893 N 0.31756 0.15072 0.43807 0.0
C894 C 0.35146 0.22947 0.35926 0.0
C895 C 0.33092 0.1811 0.41857 0.0
N896 N 0.28882 0.25639 0.36135 0.0
N897 N 0.39614 0.16376 0.42681 0.0
H898 H 0.28899 0.14738 0.44395 0.0
H899 H 0.33393 0.12713 0.44412 0.0
H900 H 0.42479 0.16609 0.42091 0.0
H901 H 0.38997 0.14667 0.44995 0.0
H902 H 0.29481 0.27699 0.34119 0.0
H903 H 0.26115 0.25649 0.37135 0.0
H904 H 0.33827 0.25604 0.30738 0.0
H905 H 0.38468 0.24076 0.31085 0.0
C906 C 0.71896 0.82211 0.10322 0.0
C907 C 0.69814 0.81081 0.07134 0.0
C908 C 0.66537 0.87124 0.07002 0.0
C909 C 0.68961 0.88426 0.09887 0.0
N910 N 0.72835 0.8687 0.15235 0.0
N911 N 0.64185 0.81681 0.03526 0.0
C912 C 0.71272 0.85843 0.11873 0.0
C913 C 0.66775 0.83281 0.0586 0.0
N914 N 0.74634 0.79886 0.11678 0.0
N915 N 0.64182 0.89587 0.05235 0.0
H916 H 0.64363 0.78844 0.02732 0.0
H917 H 0.6173 0.83032 0.02692 0.0
H918 H 0.63934 0.92409 0.06054 0.0
H919 H 0.62629 0.88884 0.0285 0.0
H920 H 0.76605 0.80703 0.13686 0.0
H921 H 0.74988 0.77141 0.10652 0.0
H922 H 0.74345 0.85033 0.16944 0.0
H923 H 0.72294 0.89477 0.16494 0.0
C924 C 0.60571 0.20566 0.58359 0.0
C925 C 0.57929 0.23595 0.58488 0.0
C926 C 0.631 0.28136 0.58097 0.0
C927 C 0.65706 0.2516 0.57703 0.0
N928 N 0.6708 0.1867 0.59125 0.0
N929 N 0.56767 0.30084 0.5678 0.0
C930 C 0.64496 0.214 0.58358 0.0
C931 C 0.59222 0.2734 0.57872 0.0
N932 N 0.59364 0.16941 0.57801 0.0
N933 N 0.64373 0.31736 0.58653 0.0
H934 H 0.53966 0.29474 0.56145 0.0
H935 H 0.5762 0.32804 0.56029 0.0
H936 H 0.67229 0.32317 0.59036 0.0
H937 H 0.62599 0.34027 0.59105 0.0
H938 H 0.61175 0.14664 0.57437 0.0
H939 H 0.56608 0.16295 0.57048 0.0
H940 H 0.66364 0.15906 0.59848 0.0
H941 H 0.69904 0.19318 0.5958 0.0
C942 C 0.31279 0.72335 0.60209 0.0
C943 C 0.30705 0.74562 0.56959 0.0
C944 C 0.37098 0.77048 0.57356 0.0
C945 C 0.37697 0.74839 0.6064 0.0
N946 N 0.3492 0.71426 0.65869 0.0
N947 N 0.32506 0.79964 0.53276 0.0
C948 C 0.34651 0.72795 0.62282 0.0
C949 C 0.33428 0.77249 0.5583 0.0
N950 N 0.2864 0.69721 0.61253 0.0
N951 N 0.40052 0.7873 0.55529 0.0
H952 H 0.29797 0.80184 0.52184 0.0
H953 H 0.3428 0.82221 0.52616 0.0
H954 H 0.42833 0.78466 0.56398 0.0
H955 H 0.39785 0.80066 0.52928 0.0
H956 H 0.29097 0.67678 0.63316 0.0
H957 H 0.26045 0.69505 0.59907 0.0
H958 H 0.32657 0.70212 0.67297 0.0
H959 H 0.37267 0.71889 0.67561 0.0
C960 C 0.86147 0.79328 0.87502 0.0
C961 C 0.86997 0.76144 0.89833 0.0
C962 C 0.90236 0.73216 0.84473 0.0
C963 C 0.90045 0.76638 0.82449 0.0
N964 N 0.87895 0.83064 0.82019 0.0
N965 N 0.90816 0.70559 0.90687 0.0
C966 C 0.88019 0.79731 0.83965 0.0
C967 C 0.89313 0.73224 0.88352 0.0
N968 N 0.83451 0.81874 0.8852 0.0
N969 N 0.91323 0.69962 0.82725 0.0
H970 H 0.90643 0.70742 0.93619 0.0
H971 H 0.92618 0.68446 0.89744 0.0
H972 H 0.91961 0.69833 0.79859 0.0
H973 H 0.91176 0.6733 0.8404 0.0
H974 H 0.82454 0.83955 0.86707 0.0
H975 H 0.81946 0.81752 0.91023 0.0
H976 H 0.86905 0.85579 0.83182 0.0
H977 H 0.88944 0.83335 0.79277 0.0
C978 C 0.80023 0.3948 0.37623 0.0
C979 C 0.77382 0.36626 0.3861 0.0
C980 C 0.74201 0.37406 0.32556 0.0
C981 C 0.76704 0.40391 0.31684 0.0
N982 N 0.82775 0.43217 0.3257 0.0
N983 N 0.72941 0.3193 0.36439 0.0
C984 C 0.79898 0.41058 0.33943 0.0
C985 C 0.74778 0.35282 0.35886 0.0
N986 N 0.82469 0.40864 0.40249 0.0
N987 N 0.71194 0.3671 0.30268 0.0
H988 H 0.73428 0.30215 0.38775 0.0
H989 H 0.71264 0.30667 0.34392 0.0
H990 H 0.70853 0.38077 0.27682 0.0
H991 H 0.68983 0.34913 0.31002 0.0
H992 H 0.84173 0.43219 0.39776 0.0
H993 H 0.82584 0.39858 0.43008 0.0
H994 H 0.8532 0.43576 0.33971 0.0
H995 H 0.82733 0.44317 0.2984 0.0
C996 C 0.07505 0.2593 0.84773 0.0
C997 C 0.05075 0.22753 0.84497 0.0
C998 C 0.04441 0.22585 0.91408 0.0
C999 C 0.07123 0.25502 0.91667 0.0
N1000 N 0.10176 0.30839 0.88728 0.0
N1001 N 0.01398 0.17833 0.87626 0.0
C1002 C 0.08337 0.27461 0.88387 0.0
C1003 C 0.03557 0.21033 0.87831 0.0
N1004 N 0.09207 0.27322 0.81594 0.0
N1005 N 0.02665 0.21399 0.94629 0.0
H1006 H 0.00573 0.16552 0.85136 0.0
H1007 H 0.0063 0.1622 0.89959 0.0
H1008 H 0.03248 0.22599 0.97256 0.0
H1009 H 0.00368 0.19571 0.94677 0.0
H1010 H 0.1133 0.29354 0.81623 0.0
H1011 H 0.08749 0.26199 0.78913 0.0
H1012 H 0.10918 0.32552 0.86458 0.0
H1013 H 0.10535 0.32185 0.91308 0.0
C1014 C 0.22928 0.60718 0.31938 0.0
C1015 C 0.22082 0.56838 0.31593 0.0
C1016 C 0.19891 0.56588 0.38129 0.0
C1017 C 0.20993 0.60412 0.38551 0.0
N1018 N 0.21952 0.66438 0.3553 0.0
N1019 N 0.18464 0.51502 0.33757 0.0
C1020 C 0.22006 0.6259 0.35347 0.0
C1021 C 0.20097 0.54921 0.34492 0.0
N1022 N 0.24739 0.62564 0.29076 0.0
N1023 N 0.1884 0.54512 0.41208 0.0
H1024 H 0.18578 0.5026 0.3109 0.0
H1025 H 0.16741 0.5008 0.35672 0.0
H1026 H 0.18647 0.55667 0.43909 0.0
H1027 H 0.18387 0.51603 0.41124 0.0
H1028 H 0.25823 0.65292 0.29346 0.0
H1029 H 0.25276 0.61279 0.26478 0.0
H1030 H 0.22204 0.6814 0.33143 0.0
H1031 H 0.21233 0.67895 0.3799 0.0
C1032 C 0.90588 0.25424 0.09664 0.0
C1033 C 0.86739 0.24406 0.09546 0.0
C1034 C 0.86822 0.22728 0.16238 0.0
C1035 C 0.90671 0.23702 0.16336 0.0
N1036 N 0.95977 0.26889 0.13537 0.0
N1037 N 0.80948 0.23061 0.12853 0.0
C1038 C 0.92459 0.2539 0.13178 0.0
C1039 C 0.84774 0.2336 0.12882 0.0
N1040 N 0.92511 0.26178 0.06397 0.0
N1041 N 0.85176 0.21073 0.19314 0.0
H1042 H 0.79364 0.23495 0.10427 0.0
H1043 H 0.79334 0.22724 0.15287 0.0
H1044 H 0.86565 0.20825 0.21889 0.0
H1045 H 0.8252 0.19824 0.19268 0.0
H1046 H 0.95417 0.2651 0.06264 0.0
H1047 H 0.91252 0.26166 0.03746 0.0
H1048 H 0.97308 0.28464 0.1144 0.0
H1049 H 0.97405 0.26872 0.16089 0.0
C1050 C 0.22556 0.43138 0.61696 0.0
C1051 C 0.24051 0.41198 0.64855 0.0
C1052 C 0.23781 0.35291 0.61342 0.0
C1053 C 0.231 0.37362 0.57982 0.0
N1054 N 0.21908 0.43309 0.54899 0.0
N1055 N 0.26175 0.35428 0.67726 0.0
C1056 C 0.22465 0.41303 0.5814 0.0
C1057 C 0.24669 0.37265 0.64703 0.0
N1058 N 0.21145 0.46695 0.62124 0.0
N1059 N 0.2338 0.31453 0.6137 0.0
H1060 H 0.2672 0.36779 0.70286 0.0
H1061 H 0.27073 0.32629 0.67607 0.0
H1062 H 0.22643 0.29902 0.58978 0.0
H1063 H 0.23346 0.29886 0.63858 0.0
H1064 H 0.19729 0.48134 0.60002 0.0
H1065 H 0.21042 0.48042 0.64733 0.0
H1066 H 0.21805 0.46248 0.54817 0.0
H1067 H 0.21812 0.42047 0.52244 0.0
C1068 C 0.08823 0.70357 0.12187 0.0
C1069 C 0.07606 0.71891 0.08703 0.0
C1070 C 0.03592 0.76382 0.11936 0.0
C1071 C 0.04827 0.74942 0.15479 0.0
N1072 N 0.07972 0.70048 0.18991 0.0
N1073 N 0.02814 0.75133 0.05271 0.0
C1074 C 0.072 0.71723 0.15609 0.0
C1075 C 0.04616 0.7447 0.08602 0.0
N1076 N 0.1164 0.67749 0.12231 0.0
N1077 N 0.01622 0.79681 0.1169 0.0
H1078 H 0.03545 0.73719 0.02788 0.0
H1079 H 0.00365 0.76728 0.05074 0.0
H1080 H 0.00957 0.81369 0.13982 0.0
H1081 H 0.01006 0.80988 0.09135 0.0
H1082 H 0.12935 0.66811 0.14682 0.0
H1083 H 0.12764 0.66581 0.09779 0.0
H1084 H 0.09361 0.67477 0.19244 0.0
H1085 H 0.07021 0.71119 0.21563 0.0
C1086 C 0.74076 0.60822 0.64759 0.0
C1087 C 0.76595 0.57926 0.65822 0.0
C1088 C 0.79769 0.5837 0.59697 0.0
C1089 C 0.77039 0.61022 0.58512 0.0
N1090 N 0.72703 0.65904 0.60427 0.0
N1091 N 0.82799 0.55334 0.65008 0.0
C1092 C 0.74519 0.62602 0.61202 0.0
C1093 C 0.79774 0.57158 0.63526 0.0
N1094 N 0.71218 0.61802 0.67146 0.0
N1095 N 0.82255 0.56902 0.57146 0.0
H1096 H 0.82939 0.54574 0.6784 0.0
H1097 H 0.85311 0.5495 0.63541 0.0
H1098 H 0.82295 0.57696 0.54313 0.0
H1099 H 0.84081 0.54697 0.57773 0.0
H1100 H 0.68986 0.6353 0.66371 0.0
H1101 H 0.71048 0.60754 0.69893 0.0
H1102 H 0.71053 0.6735 0.6238 0.0
H1103 H 0.73227 0.67443 0.57977 0.0
C1104 C 0.86828 0.93606 0.76993 0.0
C1105 C 0.83884 0.9215 0.74626 0.0
C1106 C 0.88644 0.89727 0.70231 0.0
C1107 C 0.91505 0.90694 0.72839 0.0
N1108 N 0.93545 0.94626 0.77899 0.0
N1109 N 0.82061 0.88275 0.69331 0.0
C1110 C 0.90646 0.92944 0.75997 0.0
C1111 C 0.84817 0.9009 0.71318 0.0
N1112 N 0.86031 0.95523 0.80249 0.0
N1113 N 0.89562 0.88645 0.66649 0.0
H1114 H 0.79233 0.8833 0.70118 0.0
H1115 H 0.8262 0.86377 0.67154 0.0
H1116 H 0.92299 0.8874 0.65611 0.0
H1117 H 0.87578 0.88186 0.64543 0.0
H1118 H 0.87998 0.96056 0.82347 0.0
H1119 H 0.83398 0.96479 0.8103 0.0
H1120 H 0.93216 0.96663 0.79989 0.0
H1121 H 0.96345 0.94262 0.7708 0.0
C1122 C 0.57895 0.34514 0.22852 0.0
C1123 C 0.56713 0.33532 0.26582 0.0
C1124 C 0.58865 0.39718 0.28779 0.0
C1125 C 0.60519 0.40469 0.2522 0.0
N1126 N 0.62585 0.37871 0.19238 0.0
N1127 N 0.57493 0.34815 0.33262 0.0
C1128 C 0.60327 0.37667 0.22352 0.0
C1129 C 0.57639 0.36012 0.29602 0.0
N1130 N 0.56613 0.32622 0.19748 0.0
N1131 N 0.58374 0.42545 0.31358 0.0
H1132 H 0.56927 0.32021 0.34007 0.0
H1133 H 0.58418 0.36485 0.35502 0.0
H1134 H 0.59003 0.45368 0.30771 0.0
H1135 H 0.56923 0.42133 0.33888 0.0
H1136 H 0.57167 0.33555 0.17011 0.0
H1137 H 0.54682 0.30416 0.19819 0.0
H1138 H 0.62776 0.35683 0.17273 0.0
H1139 H 0.6459 0.39978 0.18853 0.0
C1140 C 0.15971 0.09955 0.72823 0.0
C1141 C 0.16364 0.06156 0.71746 0.0
C1142 C 0.09684 0.05824 0.7012 0.0
C1143 C 0.09169 0.09348 0.71944 0.0
N1144 N 0.11787 0.1488 0.74978 0.0
N1145 N 0.13802 0.00482 0.69072 0.0
C1146 C 0.12312 0.11476 0.73238 0.0
C1147 C 0.13291 0.04128 0.70205 0.0
N1148 N 0.19125 0.12065 0.73459 0.0
N1149 N 0.06729 0.04097 0.68354 0.0
H1150 H 0.16471 -0.00713 0.68906 0.0
H1151 H 0.11614 0.98637 0.68433 0.0
H1152 H 0.04008 0.05189 0.68395 0.0
H1153 H 0.07005 0.01712 0.66657 0.0
H1154 H 0.19091 0.14968 0.73943 0.0
H1155 H 0.21812 0.10916 0.73157 0.0
H1156 H 0.13919 0.1637 0.76334 0.0
H1157 H 0.0916 0.16145 0.75219 0.0
C1158 C 0.42248 0.59137 0.22733 0.0
C1159 C 0.38279 0.59085 0.2263 0.0
C1160 C 0.38073 0.65981 0.23305 0.0
C1161 C 0.42033 0.66 0.23605 0.0
N1162 N 0.47935 0.62881 0.22476 0.0
N1163 N 0.32413 0.62394 0.21874 0.0
C1164 C 0.44132 0.62664 0.22921 0.0
C1165 C 0.36185 0.62501 0.22604 0.0
N1166 N 0.44204 0.55817 0.22889 0.0
N1167 N 0.36147 0.69282 0.23771 0.0
H1168 H 0.30969 0.59881 0.21321 0.0
H1169 H 0.30755 0.64784 0.21536 0.0
H1170 H 0.37515 0.71885 0.2404 0.0
H1171 H 0.33235 0.69449 0.23992 0.0
H1172 H 0.4707 0.55662 0.23447 0.0
H1173 H 0.42919 0.53169 0.22716 0.0
H1174 H 0.49601 0.60617 0.21638 0.0
H1175 H 0.49367 0.6544 0.22565 0.0
C1176 C 0.85683 0.0633 0.17445 0.0
C1177 C 0.82429 0.07066 0.19656 0.0
C1178 C 0.86442 0.10813 0.23871 0.0
C1179 C 0.8969 0.08998 0.22325 0.0
N1180 N 0.92212 0.04602 0.17747 0.0
N1181 N 0.79663 0.10878 0.24578 0.0
C1182 C 0.89255 0.06624 0.1914 0.0
C1183 C 0.82789 0.09546 0.22787 0.0
N1184 N 0.85391 0.05593 0.1368 0.0
N1185 N 0.86821 0.13967 0.26067 0.0
H1186 H 0.77002 0.10749 0.23365 0.0
H1187 H 0.79742 0.12173 0.27217 0.0
H1188 H 0.89386 0.15308 0.26511 0.0
H1189 H 0.8456 0.15559 0.2704 0.0
H1190 H 0.87736 0.05265 0.11936 0.0
H1191 H 0.82863 0.05907 0.12232 0.0
H1192 H 0.91957 0.0278 0.15453 0.0
H1193 H 0.94794 0.04432 0.19117 0.0
C1194 C 0.43328 0.36193 0.72573 0.0
C1195 C 0.42234 0.32635 0.74138 0.0
C1196 C 0.37437 0.35825 0.77965 0.0
C1197 C 0.38567 0.39334 0.76353 0.0
N1198 N 0.43473 0.42976 0.73424 0.0
N1199 N 0.38813 0.29153 0.78892 0.0
C1200 C 0.41827 0.39544 0.74106 0.0
C1201 C 0.39503 0.32487 0.77065 0.0
N1202 N 0.45637 0.36416 0.69493 0.0
N1203 N 0.34293 0.35641 0.80178 0.0
H1204 H 0.40115 0.26623 0.78147 0.0
H1205 H 0.37148 0.28931 0.81303 0.0
H1206 H 0.3274 0.38011 0.80939 0.0
H1207 H 0.33126 0.33122 0.81148 0.0
H1208 H 0.46175 0.38934 0.68061 0.0
H1209 H 0.46683 0.34088 0.68075 0.0
H1210 H 0.46078 0.43275 0.72099 0.0
H1211 H 0.42434 0.45482 0.74581 0.0
C1212 C 0.1352 0.95614 0.25923 0.0
C1213 C 0.16444 0.93281 0.24539 0.0
C1214 C 0.12395 0.87725 0.25202 0.0
C1215 C 0.09297 0.90176 0.25827 0.0
N1216 N 0.06821 0.96413 0.26905 0.0
N1217 N 0.18941 0.87115 0.23292 0.0
C1218 C 0.09839 0.94109 0.26288 0.0
C1219 C 0.15984 0.89316 0.24375 0.0
N1220 N 0.14312 -0.00746 0.26929 0.0
N1221 N 0.11882 0.83895 0.25398 0.0
H1222 H 0.21642 0.88221 0.22945 0.0
H1223 H 0.1873 0.84246 0.22684 0.0
H1224 H 0.09275 0.82656 0.2597 0.0
H1225 H 0.14057 0.81942 0.25266 0.0
H1226 H 0.12389 0.01047 0.28228 0.0
H1227 H 0.17047 0.00319 0.26842 0.0
H1228 H 0.06973 -0.00648 0.26823 0.0
H1229 H 0.04099 0.95372 0.27299 0.0
C1230 C 0.6024 0.64829 0.74089 0.0
C1231 C 0.56318 0.64346 0.73582 0.0
C1232 C 0.57019 0.57447 0.7382 0.0
C1233 C 0.60899 0.57949 0.74465 0.0
N1234 N 0.66134 0.62011 0.76013 0.0
N1235 N 0.50853 0.60244 0.73776 0.0
C1236 C 0.62486 0.61613 0.74876 0.0
C1237 C 0.54673 0.60664 0.73703 0.0
N1238 N 0.61851 0.68301 0.73571 0.0
N1239 N 0.55591 0.53899 0.73224 0.0
H1240 H 0.49013 0.62517 0.73658 0.0
H1241 H 0.49495 0.57683 0.74293 0.0
H1242 H 0.57196 0.51448 0.73461 0.0
H1243 H 0.52879 0.53385 0.7225 0.0
H1244 H 0.64744 0.68752 0.73478 0.0
H1245 H 0.6029 0.70694 0.72917 0.0
H1246 H 0.67336 0.64602 0.76725 0.0
H1247 H 0.67886 0.5971 0.76528 0.0
C1248 C 0.72536 0.85683 0.854 0.0
C1249 C 0.70809 0.88766 0.87299 0.0
C1250 C 0.68614 0.8448 0.92236 0.0
C1251 C 0.71055 0.81672 0.90802 0.0
N1252 N 0.75041 0.79322 0.85868 0.0
N1253 N 0.67063 0.91152 0.92445 0.0
C1254 C 0.72873 0.82173 0.8729 0.0
C1255 C 0.68745 0.88171 0.90668 0.0
N1256 N 0.73777 0.86105 0.81774 0.0
N1257 N 0.66203 0.83602 0.95104 0.0
H1258 H 0.67083 0.93885 0.91338 0.0
H1259 H 0.65863 0.90976 0.95122 0.0
H1260 H 0.65987 0.80866 0.96168 0.0
H1261 H 0.64148 0.85436 0.96109 0.0
H1262 H 0.7483 0.83905 0.80137 0.0
H1263 H 0.73406 0.886 0.80268 0.0
H1264 H 0.7683 0.79621 0.83557 0.0
H1265 H 0.75127 0.76655 0.87129 0.0
C1266 C 0.67575 0.13533 0.04796 0.0
C1267 C 0.70083 0.15978 0.06733 0.0
C1268 C 0.71018 0.11115 0.11514 0.0
C1269 C 0.69457 0.08396 0.08993 0.0
N1270 N 0.65884 0.07018 0.03397 0.0
N1271 N 0.73472 0.17483 0.12338 0.0
C1272 C 0.67532 0.09613 0.05725 0.0
C1273 C 0.71516 0.14894 0.10268 0.0
N1274 N 0.65345 0.14939 0.0201 0.0
N1275 N 0.7196 0.10084 0.15103 0.0
H1276 H 0.73534 0.20332 0.11568 0.0
H1277 H 0.75035 0.16824 0.14723 0.0
H1278 H 0.71551 0.07355 0.1613 0.0
H1279 H 0.72832 0.11982 0.17169 0.0
H1280 H 0.63292 0.13354 0.00639 0.0
H1281 H 0.65277 0.17807 0.01353 0.0
H1282 H 0.64787 0.07682 0.00764 0.0
H1283 H 0.65825 0.04133 0.03998 0.0
C1284 C 0.38034 0.19342 0.56387 0.0
C1285 C 0.38739 0.21055 0.59917 0.0
C1286 C 0.32109 0.22766 0.60566 0.0
C1287 C 0.31503 0.21364 0.56899 0.0
N1288 N 0.33322 0.17053 0.52025 0.0
N1289 N 0.36317 0.23211 0.65915 0.0
C1290 C 0.34292 0.19218 0.55047 0.0
C1291 C 0.35725 0.22396 0.62195 0.0
N1292 N 0.40945 0.18033 0.54232 0.0
N1293 N 0.29234 0.24501 0.62428 0.0
H1294 H 0.3891 0.22816 0.67214 0.0
H1295 H 0.34188 0.23946 0.67796 0.0
H1296 H 0.265 0.24434 0.61377 0.0
H1297 H 0.29554 0.26003 0.64932 0.0
H1298 H 0.4063 0.17144 0.51451 0.0
H1299 H 0.4373 0.1807 0.55142 0.0
H1300 H 0.35138 0.15104 0.50798 0.0
H1301 H 0.30552 0.16899 0.51078 0.0
C1302 C 0.22905 0.8233 0.10146 0.0
C1303 C 0.23795 0.8155 0.06345 0.0
C1304 C 0.26278 0.87956 0.05498 0.0
C1305 C 0.25348 0.88757 0.09299 0.0
N1306 N 0.24146 0.8631 0.15546 0.0
N1307 N 0.2753 0.83122 0.00846 0.0
C1308 C 0.24085 0.85816 0.11728 0.0
C1309 C 0.25919 0.84188 0.04182 0.0
N1310 N 0.20863 0.79786 0.12211 0.0
N1311 N 0.27259 0.90806 0.03081 0.0
H1312 H 0.27365 0.80379 -0.002 0.0
H1313 H 0.29356 0.84852 -0.00683 0.0
H1314 H 0.27429 0.93632 0.03896 0.0
H1315 H 0.27583 0.90416 0.00186 0.0
H1316 H 0.19758 0.804 0.14868 0.0
H1317 H 0.20134 0.77122 0.1117 0.0
H1318 H 0.23643 0.8411 0.17436 0.0
H1319 H 0.25133 0.88786 0.16809 0.0
C1320 C 0.63596 0.74115 0.59271 0.0
C1321 C 0.63763 0.72498 0.55624 0.0
C1322 C 0.56839 0.72338 0.55341 0.0
C1323 C 0.56699 0.73653 0.5909 0.0
N1324 N 0.59892 0.75099 0.6492 0.0
N1325 N 0.60537 0.69581 0.50341 0.0
C1326 C 0.60061 0.74383 0.61133 0.0
C1327 C 0.60382 0.71466 0.53702 0.0
N1328 N 0.66812 0.75356 0.60981 0.0
N1329 N 0.5358 0.71991 0.5333 0.0
H1330 H 0.63026 0.68991 0.4894 0.0
H1331 H 0.58213 0.6836 0.49043 0.0
H1332 H 0.50943 0.72594 0.54477 0.0
H1333 H 0.53485 0.71406 0.50455 0.0
H1334 H 0.66816 0.76974 0.63436 0.0
H1335 H 0.69483 0.74982 0.59819 0.0
H1336 H 0.62254 0.75148 0.66642 0.0
H1337 H 0.57375 0.75289 0.66423 0.0
C1338 C 0.19973 0.14811 0.88247 0.0
C1339 C 0.21903 0.15672 0.91615 0.0
C1340 C 0.24873 0.09437 0.91546 0.0
C1341 C 0.23174 0.08672 0.88019 0.0
N1342 N 0.19928 0.11082 0.82544 0.0
N1343 N 0.26918 0.14245 0.95937 0.0
C1344 C 0.20945 0.11483 0.86231 0.0
C1345 C 0.24592 0.13122 0.93093 0.0
N1346 N 0.17192 0.17146 0.86993 0.0
N1347 N 0.26608 0.0661 0.93499 0.0
H1348 H 0.26927 0.16999 0.96967 0.0
H1349 H 0.29118 0.12601 0.96947 0.0
H1350 H 0.26748 0.03833 0.92521 0.0
H1351 H 0.27571 0.0693 0.96252 0.0
H1352 H 0.15378 0.16428 0.84804 0.0
H1353 H 0.16549 0.19708 0.88305 0.0
H1354 H 0.18573 0.13195 0.81035 0.0
H1355 H 0.20807 0.08828 0.80874 0.0
C1356 C 0.33149 0.78808 0.42476 0.0
C1357 C 0.30617 0.76173 0.4088 0.0
C1358 C 0.35263 0.74706 0.35998 0.0
C1359 C 0.38069 0.76497 0.38231 0.0
N1360 N 0.39675 0.80408 0.43576 0.0
N1361 N 0.28836 0.72398 0.35596 0.0
C1362 C 0.37005 0.78652 0.41434 0.0
C1363 C 0.31549 0.74397 0.37438 0.0
N1364 N 0.31849 0.81551 0.44837 0.0
N1365 N 0.3612 0.73435 0.3246 0.0
H1366 H 0.26027 0.72599 0.36423 0.0
H1367 H 0.29342 0.70585 0.33339 0.0
H1368 H 0.3877 0.73764 0.31248 0.0
H1369 H 0.34136 0.72383 0.30587 0.0
H1370 H 0.33526 0.83769 0.45797 0.0
H1371 H 0.28995 0.81898 0.45398 0.0
H1372 H 0.39067 0.81717 0.46139 0.0
H1373 H 0.42538 0.80305 0.4294 0.0
C1374 C 0.57986 0.21934 0.4344 0.0
C1375 C 0.57443 0.23013 0.39648 0.0
C1376 C 0.64246 0.23977 0.38854 0.0
C1377 C 0.64711 0.23472 0.42767 0.0
N1378 N 0.62056 0.22004 0.4887 0.0
N1379 N 0.6001 0.25084 0.33662 0.0
C1380 C 0.61601 0.22397 0.45076 0.0
C1381 C 0.60564 0.24035 0.37327 0.0
N1382 N 0.55051 0.20457 0.45471 0.0
N1383 N 0.67351 0.24233 0.36588 0.0
H1384 H 0.5743 0.2482 0.32305 0.0
H1385 H 0.62074 0.26355 0.31997 0.0
H1386 H 0.70073 0.24047 0.37659 0.0
H1387 H 0.67247 0.24239 0.33654 0.0
H1388 H 0.55352 0.19191 0.48102 0.0
H1389 H 0.52325 0.20263 0.44412 0.0
H1390 H 0.59817 0.21821 0.5075 0.0
H1391 H 0.64672 0.22027 0.50159 0.0
C1392 C 0.08263 0.21806 0.42372 0.0
C1393 C 0.12038 0.22453 0.4127 0.0
C1394 C 0.10451 0.21145 0.34691 0.0
C1395 C 0.06605 0.20964 0.35755 0.0
N1396 N 0.01738 0.21458 0.4049 0.0
N1397 N 0.16808 0.22911 0.36439 0.0
C1398 C 0.05473 0.21407 0.39564 0.0
C1399 C 0.13169 0.22144 0.37444 0.0
N1400 N 0.07395 0.21384 0.46108 0.0
N1401 N 0.11497 0.20316 0.31067 0.0
H1402 H 0.18906 0.23485 0.38406 0.0
H1403 H 0.17719 0.23178 0.33659 0.0
H1404 H 0.09563 0.19739 0.28936 0.0
H1405 H 0.14276 0.19966 0.30211 0.0
H1406 H 0.04749 0.20585 0.47094 0.0
H1407 H 0.09443 0.21425 0.48206 0.0
H1408 H 0.0074 0.22181 0.43159 0.0
H1409 H -0.00396 0.21051 0.3852 0.0
C1410 C 0.2192 0.63828 0.86037 0.0
C1411 C 0.21595 0.62689 0.89868 0.0
C1412 C 0.21909 0.56059 0.87979 0.0
C1413 C 0.22691 0.57177 0.84222 0.0
N1414 N 0.23847 0.62134 0.79685 0.0
N1415 N 0.22009 0.57737 0.94554 0.0
C1416 C 0.22784 0.61068 0.83236 0.0
C1417 C 0.21787 0.58807 0.90854 0.0
N1418 N 0.21279 0.67504 0.85059 0.0
N1419 N 0.21233 0.52343 0.88795 0.0
H1420 H 0.21952 0.59647 0.96786 0.0
H1421 H 0.22615 0.54988 0.95406 0.0
H1422 H 0.21352 0.50235 0.86754 0.0
H1423 H 0.20215 0.51406 0.91392 0.0
H1424 H 0.21051 0.68415 0.82277 0.0
H1425 H 0.20702 0.69606 0.87034 0.0
H1426 H 0.24416 0.64924 0.78932 0.0
H1427 H 0.24386 0.60197 0.77537 0.0
C1428 C 0.85699 0.78099 0.34396 0.0
C1429 C 0.89486 0.78825 0.35419 0.0
C1430 C 0.87992 0.77745 0.42076 0.0
C1431 C 0.84205 0.77013 0.4107 0.0
N1432 N 0.79249 0.77011 0.36476 0.0
N1433 N 0.94099 0.80153 0.4023 0.0
C1434 C 0.82989 0.7738 0.37284 0.0
C1435 C 0.90582 0.78921 0.39263 0.0
N1436 N 0.84732 0.78029 0.30666 0.0
N1437 N 0.89154 0.77121 0.45697 0.0
H1438 H 0.9615 0.80883 0.38256 0.0
H1439 H 0.94909 0.80726 0.42991 0.0
H1440 H 0.87317 0.76359 0.47864 0.0
H1441 H 0.91959 0.77119 0.46519 0.0
H1442 H 0.82114 0.77182 0.29673 0.0
H1443 H 0.86631 0.78672 0.28507 0.0
H1444 H 0.78093 0.77498 0.33832 0.0
H1445 H 0.77229 0.76455 0.38546 0.0
C1446 C 0.76664 0.40879 0.87479 0.0
C1447 C 0.75297 0.39845 0.83897 0.0
C1448 C 0.74397 0.33323 0.86102 0.0
C1449 C 0.75183 0.34538 0.89841 0.0
N1450 N 0.76344 0.39716 0.94163 0.0
N1451 N 0.72729 0.35149 0.79715 0.0
C1452 C 0.76128 0.38386 0.90547 0.0
C1453 C 0.74123 0.36076 0.83179 0.0
N1454 N 0.78494 0.44247 0.87948 0.0
N1455 N 0.74083 0.29554 0.85313 0.0
H1456 H 0.7271 0.37059 0.77472 0.0
H1457 H 0.71433 0.32571 0.79129 0.0
H1458 H 0.74348 0.27465 0.87365 0.0
H1459 H 0.73876 0.28484 0.82585 0.0
H1460 H 0.79852 0.44998 0.90439 0.0
H1461 H 0.78987 0.46112 0.8572 0.0
H1462 H 0.76638 0.42575 0.94811 0.0
H1463 H 0.75828 0.38032 0.96519 0.0
C1464 C 0.07658 0.72711 0.56658 0.0
C1465 C 0.11496 0.73097 0.57664 0.0
C1466 C 0.09716 0.74326 0.64219 0.0
C1467 C 0.05897 0.73684 0.63239 0.0
N1468 N 0.01272 0.71564 0.58779 0.0
N1469 N 0.16278 0.73727 0.6242 0.0
C1470 C 0.04888 0.72641 0.5953 0.0
C1471 C 0.12562 0.73745 0.61455 0.0
N1472 N 0.0666 0.72555 0.52938 0.0
N1473 N 0.10602 0.7567 0.67724 0.0
H1474 H 0.18433 0.73446 0.60437 0.0
H1475 H 0.17215 0.73749 0.65199 0.0
H1476 H 0.08611 0.7602 0.6986 0.0
H1477 H 0.13269 0.76643 0.68451 0.0
H1478 H 0.03888 0.72648 0.52012 0.0
H1479 H 0.08617 0.72702 0.50744 0.0
H1480 H 0.00421 0.70437 0.56205 0.0
H1481 H -0.00809 0.71459 0.60863 0.0
C1482 C 0.73128 0.61297 0.13893 0.0
C1483 C 0.74675 0.57638 0.13403 0.0
C1484 C 0.7682 0.59276 0.07062 0.0
C1485 C 0.75431 0.62996 0.07608 0.0
N1486 N 0.7289 0.67792 0.11721 0.0
N1487 N 0.78521 0.53283 0.09881 0.0
C1488 C 0.73749 0.64081 0.11073 0.0
C1489 C 0.76703 0.56677 0.10101 0.0
N1490 N 0.71015 0.62082 0.17028 0.0
N1491 N 0.78098 0.5818 0.03585 0.0
H1492 H 0.78426 0.51272 0.1203 0.0
H1493 H 0.80372 0.52574 0.07715 0.0
H1494 H 0.78236 0.59999 0.01276 0.0
H1495 H 0.78732 0.55396 0.02886 0.0
H1496 H 0.6942 0.64525 0.17336 0.0
H1497 H 0.70701 0.60187 0.19264 0.0
H1498 H 0.7204 0.68832 0.14334 0.0
H1499 H 0.73299 0.69909 0.09713 0.0
C1500 C 0.83792 0.23617 0.61976 0.0
C1501 C 0.84869 0.23093 0.58154 0.0
C1502 C 0.9144 0.22449 0.59971 0.0
C1503 C 0.90364 0.22739 0.63816 0.0
N1504 N 0.85572 0.23331 0.68588 0.0
N1505 N 0.89501 0.21319 0.53526 0.0
C1506 C 0.8655 0.23267 0.64857 0.0
C1507 C 0.88635 0.22297 0.57161 0.0
N1508 N 0.80153 0.24515 0.62819 0.0
N1509 N 0.95168 0.22404 0.59015 0.0
H1510 H 0.87477 0.21134 0.51408 0.0
H1511 H 0.9213 0.20346 0.52679 0.0
H1512 H 0.97299 0.2253 0.61018 0.0
H1513 H 0.96157 0.22594 0.56254 0.0
H1514 H 0.79242 0.25367 0.65478 0.0
H1515 H 0.78038 0.24514 0.60789 0.0
H1516 H 0.8281 0.23297 0.69563 0.0
H1517 H 0.8756 0.2326 0.70743 0.0
C1518 C 0.25065 0.36453 0.13872 0.0
C1519 C 0.24844 0.40359 0.12998 0.0
C1520 C 0.24169 0.38873 0.06328 0.0
C1521 C 0.23891 0.34984 0.07219 0.0
N1522 N 0.2349 0.3007 0.11953 0.0
N1523 N 0.23079 0.45203 0.08578 0.0
C1524 C 0.24207 0.33752 0.11023 0.0
C1525 C 0.24086 0.41548 0.09272 0.0
N1526 N 0.26154 0.35323 0.17383 0.0
N1527 N 0.24526 0.40004 0.02658 0.0
H1528 H 0.22695 0.47169 0.1074 0.0
H1529 H 0.22193 0.46143 0.05942 0.0
H1530 H 0.24723 0.38083 0.0043 0.0
H1531 H 0.25033 0.42804 0.01886 0.0
H1532 H 0.26779 0.32527 0.18048 0.0
H1533 H 0.26675 0.37225 0.19564 0.0
H1534 H 0.23248 0.29132 0.14729 0.0
H1535 H 0.22864 0.27991 0.09968 0.0
C1536 C 0.35609 0.11743 0.20418 0.0
C1537 C 0.36244 0.07884 0.2127 0.0
C1538 C 0.42487 0.09394 0.23624 0.0
C1539 C 0.41704 0.13319 0.23234 0.0
N1540 N 0.37219 0.18248 0.21837 0.0
N1541 N 0.39896 0.03133 0.24441 0.0
C1542 C 0.38195 0.14515 0.21749 0.0
C1543 C 0.3958 0.0673 0.23068 0.0
N1544 N 0.32553 0.12751 0.18329 0.0
N1545 N 0.46022 0.08192 0.24512 0.0
H1546 H 0.37743 0.01135 0.24242 0.0
H1547 H 0.42118 0.02252 0.26128 0.0
H1548 H 0.48243 0.10028 0.25057 0.0
H1549 H 0.46833 0.05366 0.2438 0.0
H1550 H 0.32148 0.15473 0.17294 0.0
H1551 H 0.30568 0.10792 0.17383 0.0
H1552 H 0.34539 0.19213 0.21178 0.0
H1553 H 0.38971 0.20366 0.22882 0.0
C1554 C 0.39656 0.90912 0.77042 0.0
C1555 C 0.35811 0.90468 0.76047 0.0
C1556 C 0.37039 0.84006 0.73883 0.0
C1557 C 0.40846 0.84431 0.74981 0.0
N1558 N 0.45625 0.87889 0.78324 0.0
N1559 N 0.30661 0.86346 0.74328 0.0
C1560 C 0.42096 0.87754 0.76817 0.0
C1561 C 0.34443 0.86941 0.74696 0.0
N1562 N 0.41024 0.944 0.78003 0.0
N1563 N 0.35932 0.80825 0.71987 0.0
H1564 H 0.28658 0.88406 0.74928 0.0
H1565 H 0.29477 0.83714 0.73749 0.0
H1566 H 0.37701 0.78514 0.71566 0.0
H1567 H 0.33332 0.80547 0.70674 0.0
H1568 H 0.43873 0.94991 0.78328 0.0
H1569 H 0.39352 0.96809 0.78159 0.0
H1570 H 0.46582 0.90094 0.80019 0.0
H1571 H 0.47492 0.85628 0.78167 0.0
C1572 C 0.64601 0.87235 0.24655 0.0
C1573 C 0.63795 0.91122 0.25224 0.0
C1574 C 0.57341 0.89581 0.27042 0.0
C1575 C 0.58134 0.85678 0.26558 0.0
N1576 N 0.62614 0.80703 0.25427 0.0
N1577 N 0.59835 0.95898 0.27937 0.0
C1578 C 0.618 0.84474 0.25522 0.0
C1579 C 0.60302 0.9225 0.26758 0.0
N1580 N 0.67979 0.86201 0.2314 0.0
N1581 N 0.53714 0.90764 0.27537 0.0
H1582 H 0.62001 0.97896 0.27797 0.0
H1583 H 0.57466 0.96832 0.29394 0.0
H1584 H 0.51421 0.88919 0.27586 0.0
H1585 H 0.52928 0.93597 0.27508 0.0
H1586 H 0.68569 0.83492 0.22161 0.0
H1587 H 0.70184 0.88109 0.22756 0.0
H1588 H 0.65324 0.79639 0.25136 0.0
H1589 H 0.60588 0.78611 0.25848 0.0
C1590 C 0.59765 0.06551 0.73983 0.0
C1591 C 0.6349 0.06884 0.72597 0.0
C1592 C 0.62136 0.13331 0.70499 0.0
C1593 C 0.58558 0.13089 0.72289 0.0
N1594 N 0.54495 0.09829 0.76698 0.0
N1595 N 0.68439 0.1074 0.69959 0.0
C1596 C 0.57533 0.09815 0.74333 0.0
C1597 C 0.64746 0.10315 0.70945 0.0
N1598 N 0.58352 0.03086 0.74955 0.0
N1599 N 0.63035 0.16452 0.68408 0.0
H1600 H 0.70381 0.08549 0.70173 0.0
H1601 H 0.69622 0.13308 0.69135 0.0
H1602 H 0.61278 0.18801 0.68228 0.0
H1603 H 0.6545 0.16656 0.66756 0.0
H1604 H 0.55535 0.02637 0.75646 0.0
H1605 H 0.59908 0.0061 0.74672 0.0
H1606 H 0.53856 0.07594 0.78507 0.0
H1607 H 0.52842 0.12208 0.77158 0.0
C1608 C 0.86306 0.78743 0.57235 0.0
C1609 C 0.83279 0.76334 0.58169 0.0
C1610 C 0.85661 0.75762 0.64606 0.0
C1611 C 0.89044 0.77558 0.63428 0.0
N1612 N 0.92823 0.80188 0.58351 0.0
N1613 N 0.79996 0.7245 0.62686 0.0
C1614 C 0.89423 0.78943 0.5968 0.0
C1615 C 0.82906 0.7484 0.61857 0.0
N1616 N 0.86195 0.80821 0.53993 0.0
N1617 N 0.85041 0.75039 0.68343 0.0
H1618 H 0.77841 0.71894 0.60778 0.0
H1619 H 0.79817 0.709 0.65177 0.0
H1620 H 0.86967 0.7576 0.70436 0.0
H1621 H 0.82485 0.74047 0.69398 0.0
H1622 H 0.88193 0.82878 0.53321 0.0
H1623 H 0.83886 0.80753 0.52185 0.0
H1624 H 0.93297 0.80869 0.5553 0.0
H1625 H 0.95281 0.80141 0.59939 0.0
C1626 C 0.72131 0.38658 0.06282 0.0
C1627 C 0.73076 0.34909 0.07265 0.0
C1628 C 0.73371 0.36725 0.13956 0.0
C1629 C 0.72904 0.40562 0.12897 0.0
N1630 N 0.72218 0.45281 0.08038 0.0
N1631 N 0.74617 0.30273 0.11964 0.0
C1632 C 0.72371 0.41554 0.09053 0.0
C1633 C 0.73684 0.3391 0.11092 0.0
N1634 N 0.70929 0.39419 0.02709 0.0
N1635 N 0.73392 0.35766 0.17692 0.0
H1636 H 0.74561 0.28107 0.09966 0.0
H1637 H 0.75553 0.29425 0.14607 0.0
H1638 H 0.73245 0.37766 0.19852 0.0
H1639 H 0.73316 0.32992 0.18664 0.0
H1640 H 0.69889 0.42032 0.01868 0.0
H1641 H 0.70608 0.37304 0.00681 0.0
H1642 H 0.72237 0.46204 0.05251 0.0
H1643 H 0.72395 0.47485 0.09986 0.0
C1644 C 0.10997 0.22946 0.65014 0.0
C1645 C 0.07267 0.24252 0.64551 0.0
C1646 C 0.08578 0.25941 0.58021 0.0
C1647 C 0.12358 0.24695 0.58458 0.0
N1648 N 0.17394 0.22856 0.62616 0.0
N1649 N 0.02847 0.27989 0.61109 0.0
C1650 C 0.13644 0.23436 0.62031 0.0
C1651 C 0.06182 0.2609 0.6121 0.0
N1652 N 0.11968 0.21155 0.68273 0.0
N1653 N 0.0721 0.26804 0.54527 0.0
H1654 H 0.01076 0.28164 0.63458 0.0
H1655 H 0.02031 0.29689 0.5886 0.0
H1656 H 0.08821 0.26681 0.52074 0.0
H1657 H 0.04375 0.27302 0.54005 0.0
H1658 H 0.1448 0.19698 0.68625 0.0
H1659 H 0.1016 0.21035 0.70592 0.0
H1660 H 0.1854 0.22314 0.65257 0.0
H1661 H 0.19416 0.23217 0.60511 0.0
C1662 C 0.25814 0.56599 0.08814 0.0
C1663 C 0.24539 0.5715 0.12586 0.0
C1664 C 0.21915 0.63298 0.1086 0.0
C1665 C 0.23014 0.62625 0.07072 0.0
N1666 N 0.27002 0.59336 0.02668 0.0
N1667 N 0.2141 0.60949 0.17287 0.0
C1668 C 0.25259 0.59482 0.06109 0.0
C1669 C 0.22603 0.60489 0.13643 0.0
N1670 N 0.27425 0.53247 0.07776 0.0
N1671 N 0.20453 0.66742 0.11808 0.0
H1672 H 0.22053 0.59052 0.19436 0.0
H1673 H 0.19645 0.63112 0.18179 0.0
H1674 H 0.20029 0.68881 0.09828 0.0
H1675 H 0.1994 0.67623 0.1456 0.0
H1676 H 0.27931 0.52471 0.04988 0.0
H1677 H 0.27994 0.51073 0.09664 0.0
H1678 H 0.28993 0.57317 0.0193 0.0
H1679 H 0.26777 0.61472 0.00664 0.0
C1680 C 0.849 0.24221 0.37812 0.0
C1681 C 0.83773 0.2144 0.40443 0.0
C1682 C 0.87722 0.169 0.37082 0.0
C1683 C 0.89561 0.1995 0.3517 0.0
N1684 N 0.90359 0.26783 0.34785 0.0
N1685 N 0.84354 0.15051 0.42751 0.0
C1686 C 0.88262 0.23696 0.3579 0.0
C1687 C 0.85222 0.17731 0.40121 0.0
N1688 N 0.82825 0.27421 0.3735 0.0
N1689 N 0.88216 0.1325 0.35936 0.0
H1690 H 0.82516 0.1555 0.4499 0.0
H1691 H 0.85672 0.12424 0.42834 0.0
H1692 H 0.89756 0.12523 0.33541 0.0
H1693 H 0.86703 0.10999 0.37089 0.0
H1694 H 0.83462 0.29445 0.35302 0.0
H1695 H 0.80243 0.27779 0.38709 0.0
H1696 H 0.89533 0.29535 0.35433 0.0
H1697 H 0.93134 0.26611 0.33854 0.0
C1698 C 0.19731 0.38745 0.90231 0.0
C1699 C 0.21046 0.34963 0.9001 0.0
C1700 C 0.23315 0.36158 0.83575 0.0
C1701 C 0.21988 0.3992 0.83866 0.0
N1702 N 0.17492 0.44111 0.8671 0.0
N1703 N 0.23227 0.29783 0.86151 0.0
C1704 C 0.1972 0.40994 0.86946 0.0
C1705 C 0.22586 0.33567 0.86576 0.0
N1706 N 0.18672 0.40271 0.93615 0.0
N1707 N 0.2523 0.35085 0.80408 0.0
H1708 H 0.22659 0.27817 0.88269 0.0
H1709 H 0.24047 0.28538 0.83621 0.0
H1710 H 0.25579 0.36888 0.781 0.0
H1711 H 0.26514 0.32469 0.80079 0.0
H1712 H 0.18034 0.43126 0.93945 0.0
H1713 H 0.18832 0.38804 0.96159 0.0
H1714 H 0.15551 0.44842 0.88795 0.0
H1715 H 0.17271 0.45692 0.84241 0.0
C1716 C 0.10006 0.71568 0.38088 0.0
C1717 C 0.11616 0.74272 0.40586 0.0
C1718 C 0.08579 0.79244 0.36985 0.0
C1719 C 0.06314 0.76525 0.35088 0.0
N1720 N 0.04389 0.69942 0.34676 0.0
N1721 N 0.11461 0.80723 0.42925 0.0
C1722 C 0.06885 0.7263 0.35859 0.0
C1723 C 0.10633 0.78131 0.40193 0.0
N1724 N 0.11512 0.68043 0.37715 0.0
N1725 N 0.08919 0.82846 0.35657 0.0
H1726 H 0.12622 0.80004 0.45519 0.0
H1727 H 0.10525 0.83512 0.42792 0.0
H1728 H 0.07816 0.83662 0.33073 0.0
H1729 H 0.10746 0.84822 0.36853 0.0
H1730 H 0.10555 0.66106 0.35714 0.0
H1731 H 0.14003 0.6725 0.39026 0.0
H1732 H 0.04614 0.67111 0.35459 0.0
H1733 H 0.01866 0.70578 0.33344 0.0
C1734 C 0.74409 0.56325 0.88896 0.0
C1735 C 0.74997 0.57196 0.85023 0.0
C1736 C 0.76421 0.63775 0.86711 0.0
C1737 C 0.75433 0.62963 0.90505 0.0
N1738 N 0.72895 0.58665 0.95135 0.0
N1739 N 0.75962 0.61886 0.80156 0.0
C1740 C 0.74261 0.59292 0.91578 0.0
C1741 C 0.7587 0.60956 0.83897 0.0
N1742 N 0.74079 0.52643 0.90022 0.0
N1743 N 0.77931 0.67219 0.85808 0.0
H1744 H 0.75541 0.59924 0.78003 0.0
H1745 H 0.76155 0.64659 0.79186 0.0
H1746 H 0.7826 0.69388 0.87778 0.0
H1747 H 0.791 0.67832 0.8318 0.0
H1748 H 0.74072 0.51805 0.92838 0.0
H1749 H 0.74157 0.50382 0.88142 0.0
H1750 H 0.71633 0.56138 0.9597 0.0
H1751 H 0.72702 0.60791 0.97167 0.0
C1752 C 0.61504 0.83069 0.73091 0.0
C1753 C 0.57756 0.84242 0.72387 0.0
C1754 C 0.59946 0.90727 0.71387 0.0
C1755 C 0.63577 0.89679 0.7258 0.0
N1756 N 0.67873 0.84895 0.74727 0.0
N1757 N 0.53312 0.89355 0.71707 0.0
C1758 C 0.64389 0.85851 0.73449 0.0
C1759 C 0.56951 0.88122 0.71762 0.0
N1760 N 0.62326 0.79309 0.73307 0.0
N1761 N 0.59382 0.94218 0.69847 0.0
H1762 H 0.51016 0.87567 0.72155 0.0
H1763 H 0.5259 0.92206 0.71634 0.0
H1764 H 0.61578 0.96142 0.69431 0.0
H1765 H 0.56853 0.95031 0.68621 0.0
H1766 H 0.65053 0.78254 0.73377 0.0
H1767 H 0.60274 0.77212 0.73155 0.0
H1768 H 0.68503 0.82274 0.75895 0.0
H1769 H 0.70117 0.86793 0.74749 0.0
C1770 C 0.61909 0.13899 0.26818 0.0
C1771 C 0.58231 0.13832 0.25281 0.0
C1772 C 0.59388 0.07653 0.22588 0.0
C1773 C 0.63226 0.07939 0.23598 0.0
N1774 N 0.6831 0.11654 0.26204 0.0
N1775 N 0.5391 0.11125 0.20757 0.0
C1776 C 0.64552 0.11143 0.25609 0.0
C1777 C 0.5711 0.10872 0.22855 0.0
N1778 N 0.6287 0.16585 0.29406 0.0
N1779 N 0.57876 0.04267 0.21498 0.0
H1780 H 0.52148 0.1347 0.20803 0.0
H1781 H 0.53201 0.09134 0.18705 0.0
H1782 H 0.59406 0.01757 0.21511 0.0
H1783 H 0.55005 0.03887 0.2104 0.0
H1784 H 0.65381 0.16541 0.30909 0.0
H1785 H 0.6103 0.18724 0.30206 0.0
H1786 H 0.6944 0.14135 0.27316 0.0
H1787 H 0.70332 0.09726 0.25309 0.0
C1788 C 0.34868 0.11661 0.7574 0.0
C1789 C 0.35502 0.07768 0.75054 0.0
C1790 C 0.42125 0.09032 0.73775 0.0
C1791 C 0.41438 0.12984 0.7402 0.0
N1792 N 0.3696 0.18089 0.74623 0.0
N1793 N 0.39521 0.02794 0.72763 0.0
C1794 C 0.3776 0.14321 0.74869 0.0
C1795 C 0.39068 0.0647 0.73874 0.0
N1796 N 0.31517 0.12809 0.77242 0.0
N1797 N 0.45724 0.07716 0.73531 0.0
H1798 H 0.37333 0.00824 0.72775 0.0
H1799 H 0.41967 0.01786 0.71497 0.0
H1800 H 0.4805 0.09502 0.73442 0.0
H1801 H 0.46424 0.0487 0.73779 0.0
H1802 H 0.31039 0.15549 0.78202 0.0
H1803 H 0.29289 0.10948 0.77756 0.0
H1804 H 0.3424 0.19158 0.74787 0.0
H1805 H 0.38958 0.20141 0.73951 0.0
C1806 C 0.37477 0.85057 0.25633 0.0
C1807 C 0.41216 0.85321 0.24232 0.0
C1808 C 0.39814 0.91404 0.21322 0.0
C1809 C 0.35998 0.91025 0.22493 0.0
N1810 N 0.31032 0.87223 0.25193 0.0
N1811 N 0.45855 0.88399 0.2033 0.0
C1812 C 0.34778 0.87782 0.24507 0.0
C1813 C 0.42351 0.88385 0.21934 0.0
N1814 N 0.36533 0.82237 0.28098 0.0
N1815 N 0.41047 0.94717 0.19745 0.0
H1816 H 0.4782 0.86269 0.20795 0.0
H1817 H 0.46719 0.90343 0.18298 0.0
H1818 H 0.39288 0.97001 0.19218 0.0
H1819 H 0.43867 0.95341 0.19248 0.0
H1820 H 0.34001 0.82143 0.29579 0.0
H1821 H 0.38391 0.8009 0.28827 0.0
H1822 H 0.29927 0.84714 0.26268 0.0
H1823 H 0.28976 0.89167 0.24427 0.0
loop_
_geom_bond_atom_site_label_1
_geom_bond_atom_site_label_2
_geom_bond_distance
_geom_bond_site_symmetry_2
_ccdc_geom_bond_type
Sc0 O3 2.025 . S
Sc0 O10 2.105 1_455 S
Sc0 O13 2.105 . S
Sc0 O16 2.105 . S
Sc0 O19 2.105 1_455 S
Sc1 O3 2.025 . S
Sc1 O11 2.105 1_455 S
Sc1 O15 2.105 . S
Sc1 O17 2.105 . S
Sc1 O21 2.105 1_455 S
Sc2 O3 2.025 . S
Sc2 O12 2.105 1_455 S
Sc2 O14 2.105 . S
Sc2 O18 2.105 . S
Sc2 O20 2.105 1_455 S
O3 Sc0 2.025 . S
O3 Sc1 2.025 . S
O3 Sc2 2.025 . S
C4 O10 1.268 . S
C4 O20 1.268 . S
C5 O11 1.268 . S
C5 O19 1.268 . S
C6 O12 1.268 . S
C6 O21 1.268 . S
C7 O13 1.268 . S
C7 O17 1.268 . S
C8 O14 1.268 . S
C8 O16 1.268 . S
C9 O15 1.268 . S
C9 O18 1.268 . S
O10 Sc0 2.105 1_655 S
O10 C4 1.268 . S
O11 Sc1 2.105 1_655 S
O11 C5 1.268 . S
O12 Sc2 2.105 1_655 S
O12 C6 1.268 . S
O13 Sc0 2.105 . S
O13 C7 1.268 . S
O14 Sc2 2.105 . S
O14 C8 1.268 . S
O15 Sc1 2.105 . S
O15 C9 1.268 . S
O16 Sc0 2.105 . S
O16 C8 1.268 . S
O17 Sc1 2.105 . S
O17 C7 1.268 . S
O18 Sc2 2.105 . S
O18 C9 1.268 . S
O19 Sc0 2.105 1_655 S
O19 C5 1.268 . S
O20 Sc2 2.105 1_655 S
O20 C4 1.268 . S
O21 Sc1 2.105 1_655 S
O21 C6 1.268 . S
Sc22 O25 2.025 . S
Sc22 O32 2.105 . S
Sc22 O35 2.105 . S
Sc22 O38 2.105 . S
Sc22 O41 2.105 . S
Sc23 O25 2.025 . S
Sc23 O33 2.105 . S
Sc23 O37 2.105 . S
Sc23 O39 2.105 . S
Sc23 O43 2.105 . S
Sc24 O25 2.025 . S
Sc24 O34 2.105 . S
Sc24 O36 2.105 . S
Sc24 O40 2.105 . S
Sc24 O42 2.105 . S
O25 Sc22 2.025 . S
O25 Sc23 2.025 . S
O25 Sc24 2.025 . S
C26 O32 1.268 . S
C26 O42 1.268 . S
C27 O33 1.268 . S
C27 O41 1.268 . S
C28 O34 1.268 . S
C28 O43 1.268 . S
C29 O35 1.268 . S
C29 O39 1.268 . S
C30 O36 1.268 . S
C30 O38 1.268 . S
C31 O37 1.268 . S
C31 O40 1.268 . S
O32 Sc22 2.105 . S
O32 C26 1.268 . S
O33 Sc23 2.105 . S
O33 C27 1.268 . S
O34 Sc24 2.105 . S
O34 C28 1.268 . S
O35 Sc22 2.105 . S
O35 C29 1.268 . S
O36 Sc24 2.105 . S
O36 C30 1.268 . S
O37 Sc23 2.105 . S
O37 C31 1.268 . S
O38 Sc22 2.105 . S
O38 C30 1.268 . S
O39 Sc23 2.105 . S
O39 C29 1.268 . S
O40 Sc24 2.105 . S
O40 C31 1.268 . S
O41 Sc22 2.105 . S
O41 C27 1.268 . S
O42 Sc24 2.105 . S
O42 C26 1.268 . S
O43 Sc23 2.105 . S
O43 C28 1.268 . S
Sc44 O47 2.025 . S
Sc44 O54 2.105 . S
Sc44 O57 2.105 1_455 S
Sc44 O60 2.105 1_455 S
Sc44 O63 2.105 . S
Sc45 O47 2.025 . S
Sc45 O55 2.105 . S
Sc45 O59 2.105 1_455 S
Sc45 O61 2.105 1_455 S
Sc45 O65 2.105 . S
Sc46 O47 2.025 . S
Sc46 O56 2.105 . S
Sc46 O58 2.105 1_455 S
Sc46 O62 2.105 1_455 S
Sc46 O64 2.105 . S
O47 Sc44 2.025 . S
O47 Sc45 2.025 . S
O47 Sc46 2.025 . S
C48 O54 1.268 . S
C48 O64 1.268 . S
C49 O55 1.268 . S
C49 O63 1.268 . S
C50 O56 1.268 . S
C50 O65 1.268 . S
C51 O57 1.268 . S
C51 O61 1.268 . S
C52 O58 1.268 . S
C52 O60 1.268 . S
C53 O59 1.268 . S
C53 O62 1.268 . S
O54 Sc44 2.105 . S
O54 C48 1.268 . S
O55 Sc45 2.105 . S
O55 C49 1.268 . S
O56 Sc46 2.105 . S
O56 C50 1.268 . S
O57 Sc44 2.105 1_655 S
O57 C51 1.268 . S
O58 Sc46 2.105 1_655 S
O58 C52 1.268 . S
O59 Sc45 2.105 1_655 S
O59 C53 1.268 . S
O60 Sc44 2.105 1_655 S
O60 C52 1.268 . S
O61 Sc45 2.105 1_655 S
O61 C51 1.268 . S
O62 Sc46 2.105 1_655 S
O62 C53 1.268 . S
O63 Sc44 2.105 . S
O63 C49 1.268 . S
O64 Sc46 2.105 . S
O64 C48 1.268 . S
O65 Sc45 2.105 . S
O65 C50 1.268 . S
Sc66 O69 2.025 . S
Sc66 O76 2.105 . S
Sc66 O79 2.105 . S
Sc66 O82 2.105 . S
Sc66 O85 2.105 . S
Sc67 O69 2.025 . S
Sc67 O77 2.105 . S
Sc67 O81 2.105 . S
Sc67 O83 2.105 . S
Sc67 O87 2.105 . S
Sc68 O69 2.025 . S
Sc68 O78 2.105 . S
Sc68 O80 2.105 . S
Sc68 O84 2.105 . S
Sc68 O86 2.105 . S
O69 Sc66 2.025 . S
O69 Sc67 2.025 . S
O69 Sc68 2.025 . S
C70 O76 1.268 . S
C70 O86 1.268 . S
C71 O77 1.268 . S
C71 O85 1.268 . S
C72 O78 1.268 . S
C72 O87 1.268 . S
C73 O79 1.268 . S
C73 O83 1.268 . S
C74 O80 1.268 . S
C74 O82 1.268 . S
C75 O81 1.268 . S
C75 O84 1.268 . S
O76 Sc66 2.105 . S
O76 C70 1.268 . S
O77 Sc67 2.105 . S
O77 C71 1.268 . S
O78 Sc68 2.105 . S
O78 C72 1.268 . S
O79 Sc66 2.105 . S
O79 C73 1.268 . S
O80 Sc68 2.105 . S
O80 C74 1.268 . S
O81 Sc67 2.105 . S
O81 C75 1.268 . S
O82 Sc66 2.105 . S
O82 C74 1.268 . S
O83 Sc67 2.105 . S
O83 C73 1.268 . S
O84 Sc68 2.105 . S
O84 C75 1.268 . S
O85 Sc66 2.105 . S
O85 C71 1.268 . S
O86 Sc68 2.105 . S
O86 C70 1.268 . S
O87 Sc67 2.105 . S
O87 C72 1.268 . S
Sc88 O91 2.025 . S
Sc88 O98 2.105 . S
Sc88 O101 2.105 1_455 S
Sc88 O104 2.105 1_455 S
Sc88 O107 2.105 . S
Sc89 O91 2.025 . S
Sc89 O99 2.105 . S
Sc89 O103 2.105 1_455 S
Sc89 O105 2.105 1_455 S
Sc89 O109 2.105 . S
Sc90 O91 2.025 . S
Sc90 O100 2.105 . S
Sc90 O102 2.105 1_455 S
Sc90 O106 2.105 1_455 S
Sc90 O108 2.105 . S
O91 Sc88 2.025 . S
O91 Sc89 2.025 . S
O91 Sc90 2.025 . S
C92 O98 1.268 . S
C92 O108 1.268 . S
C93 O99 1.268 . S
C93 O107 1.268 . S
C94 O100 1.268 . S
C94 O109 1.268 . S
C95 O101 1.268 . S
C95 O105 1.268 . S
C96 O102 1.268 . S
C96 O104 1.268 . S
C97 O103 1.268 . S
C97 O106 1.268 . S
O98 Sc88 2.105 . S
O98 C92 1.268 . S
O99 Sc89 2.105 . S
O99 C93 1.268 . S
O100 Sc90 2.105 . S
O100 C94 1.268 . S
O101 Sc88 2.105 1_655 S
O101 C95 1.268 . S
O102 Sc90 2.105 1_655 S
O102 C96 1.268 . S
O103 Sc89 2.105 1_655 S
O103 C97 1.268 . S
O104 Sc88 2.105 1_655 S
O104 C96 1.268 . S
O105 Sc89 2.105 1_655 S
O105 C95 1.268 . S
O106 Sc90 2.105 1_655 S
O106 C97 1.268 . S
O107 Sc88 2.105 . S
O107 C93 1.268 . S
O108 Sc90 2.105 . S
O108 C92 1.268 . S
O109 Sc89 2.105 . S
O109 C94 1.268 . S
Sc110 O113 2.025 . S
Sc110 O120 2.105 . S
Sc110 O123 2.105 . S
Sc110 O126 2.105 . S
Sc110 O129 2.105 . S
Sc111 O113 2.025 . S
Sc111 O121 2.105 . S
Sc111 O125 2.105 . S
Sc111 O127 2.105 . S
Sc111 O131 2.105 . S
Sc112 O113 2.025 . S
Sc112 O122 2.105 . S
Sc112 O124 2.105 . S
Sc112 O128 2.105 . S
Sc112 O130 2.105 . S
O113 Sc110 2.025 . S
O113 Sc111 2.025 . S
O113 Sc112 2.025 . S
C114 O120 1.268 . S
C114 O130 1.268 . S
C115 O121 1.268 . S
C115 O129 1.268 . S
C116 O122 1.268 . S
C116 O131 1.268 . S
C117 O123 1.268 . S
C117 O127 1.268 . S
C118 O124 1.268 . S
C118 O126 1.268 . S
C119 O125 1.268 . S
C119 O128 1.268 . S
O120 Sc110 2.105 . S
O120 C114 1.268 . S
O121 Sc111 2.105 . S
O121 C115 1.268 . S
O122 Sc112 2.105 . S
O122 C116 1.268 . S
O123 Sc110 2.105 . S
O123 C117 1.268 . S
O124 Sc112 2.105 . S
O124 C118 1.268 . S
O125 Sc111 2.105 . S
O125 C119 1.268 . S
O126 Sc110 2.105 . S
O126 C118 1.268 . S
O127 Sc111 2.105 . S
O127 C117 1.268 . S
O128 Sc112 2.105 . S
O128 C119 1.268 . S
O129 Sc110 2.105 . S
O129 C115 1.268 . S
O130 Sc112 2.105 . S
O130 C114 1.268 . S
O131 Sc111 2.105 . S
O131 C116 1.268 . S
Sc132 O135 2.025 . S
Sc132 O142 2.105 1_455 S
Sc132 O145 2.105 . S
Sc132 O148 2.105 . S
Sc132 O151 2.105 1_455 S
Sc133 O135 2.025 . S
Sc133 O143 2.105 1_455 S
Sc133 O147 2.105 . S
Sc133 O149 2.105 . S
Sc133 O153 2.105 1_455 S
Sc134 O135 2.025 . S
Sc134 O144 2.105 1_455 S
Sc134 O146 2.105 . S
Sc134 O150 2.105 . S
Sc134 O152 2.105 1_455 S
O135 Sc132 2.025 . S
O135 Sc133 2.025 . S
O135 Sc134 2.025 . S
C136 O142 1.268 . S
C136 O152 1.268 . S
C137 O143 1.268 . S
C137 O151 1.268 . S
C138 O144 1.268 . S
C138 O153 1.268 . S
C139 O145 1.268 . S
C139 O149 1.268 . S
C140 O146 1.268 . S
C140 O148 1.268 . S
C141 O147 1.268 . S
C141 O150 1.268 . S
O142 Sc132 2.105 1_655 S
O142 C136 1.268 . S
O143 Sc133 2.105 1_655 S
O143 C137 1.268 . S
O144 Sc134 2.105 1_655 S
O144 C138 1.268 . S
O145 Sc132 2.105 . S
O145 C139 1.268 . S
O146 Sc134 2.105 . S
O146 C140 1.268 . S
O147 Sc133 2.105 . S
O147 C141 1.268 . S
O148 Sc132 2.105 . S
O148 C140 1.268 . S
O149 Sc133 2.105 . S
O149 C139 1.268 . S
O150 Sc134 2.105 . S
O150 C141 1.268 . S
O151 Sc132 2.105 1_655 S
O151 C137 1.268 . S
O152 Sc134 2.105 1_655 S
O152 C136 1.268 . S
O153 Sc133 2.105 1_655 S
O153 C138 1.268 . S
Sc154 O157 2.025 . S
Sc154 O164 2.105 . S
Sc154 O167 2.105 . S
Sc154 O170 2.105 . S
Sc154 O173 2.105 . S
Sc155 O157 2.025 . S
Sc155 O165 2.105 . S
Sc155 O169 2.105 . S
Sc155 O171 2.105 . S
Sc155 O175 2.105 . S
Sc156 O157 2.025 . S
Sc156 O166 2.105 . S
Sc156 O168 2.105 . S
Sc156 O172 2.105 . S
Sc156 O174 2.105 . S
O157 Sc154 2.025 . S
O157 Sc155 2.025 . S
O157 Sc156 2.025 . S
C158 O164 1.268 . S
C158 O174 1.268 . S
C159 O165 1.268 . S
C159 O173 1.268 . S
C160 O166 1.268 . S
C160 O175 1.268 . S
C161 O167 1.268 . S
C161 O171 1.268 . S
C162 O168 1.268 . S
C162 O170 1.268 . S
C163 O169 1.268 . S
C163 O172 1.268 . S
O164 Sc154 2.105 . S
O164 C158 1.268 . S
O165 Sc155 2.105 . S
O165 C159 1.268 . S
O166 Sc156 2.105 . S
O166 C160 1.268 . S
O167 Sc154 2.105 . S
O167 C161 1.268 . S
O168 Sc156 2.105 . S
O168 C162 1.268 . S
O169 Sc155 2.105 . S
O169 C163 1.268 . S
O170 Sc154 2.105 . S
O170 C162 1.268 . S
O171 Sc155 2.105 . S
O171 C161 1.268 . S
O172 Sc156 2.105 . S
O172 C163 1.268 . S
O173 Sc154 2.105 . S
O173 C159 1.268 . S
O174 Sc156 2.105 . S
O174 C158 1.268 . S
O175 Sc155 2.105 . S
O175 C160 1.268 . S
Sc176 O179 2.025 . S
Sc176 O186 2.105 1_545 S
Sc176 O189 2.105 . S
Sc176 O192 2.105 . S
Sc176 O195 2.105 1_545 S
Sc177 O179 2.025 . S
Sc177 O187 2.105 1_545 S
Sc177 O191 2.105 . S
Sc177 O193 2.105 . S
Sc177 O197 2.105 1_545 S
Sc178 O179 2.025 . S
Sc178 O188 2.105 1_545 S
Sc178 O190 2.105 . S
Sc178 O194 2.105 . S
Sc178 O196 2.105 1_545 S
O179 Sc176 2.025 . S
O179 Sc177 2.025 . S
O179 Sc178 2.025 . S
C180 O186 1.268 . S
C180 O196 1.268 . S
C181 O187 1.268 . S
C181 O195 1.268 . S
C182 O188 1.268 . S
C182 O197 1.268 . S
C183 O189 1.268 . S
C183 O193 1.268 . S
C184 O190 1.268 . S
C184 O192 1.268 . S
C185 O191 1.268 . S
C185 O194 1.268 . S
O186 Sc176 2.105 1_565 S
O186 C180 1.268 . S
O187 Sc177 2.105 1_565 S
O187 C181 1.268 . S
O188 Sc178 2.105 1_565 S
O188 C182 1.268 . S
O189 Sc176 2.105 . S
O189 C183 1.268 . S
O190 Sc178 2.105 . S
O190 C184 1.268 . S
O191 Sc177 2.105 . S
O191 C185 1.268 . S
O192 Sc176 2.105 . S
O192 C184 1.268 . S
O193 Sc177 2.105 . S
O193 C183 1.268 . S
O194 Sc178 2.105 . S
O194 C185 1.268 . S
O195 Sc176 2.105 1_565 S
O195 C181 1.268 . S
O196 Sc178 2.105 1_565 S
O196 C180 1.268 . S
O197 Sc177 2.105 1_565 S
O197 C182 1.268 . S
Sc198 O201 2.025 . S
Sc198 O208 2.105 . S
Sc198 O211 2.105 . S
Sc198 O214 2.105 . S
Sc198 O217 2.105 . S
Sc199 O201 2.025 . S
Sc199 O209 2.105 . S
Sc199 O213 2.105 . S
Sc199 O215 2.105 . S
Sc199 O219 2.105 . S
Sc200 O201 2.025 . S
Sc200 O210 2.105 . S
Sc200 O212 2.105 . S
Sc200 O216 2.105 . S
Sc200 O218 2.105 . S
O201 Sc198 2.025 . S
O201 Sc199 2.025 . S
O201 Sc200 2.025 . S
C202 O208 1.268 . S
C202 O218 1.268 . S
C203 O209 1.268 . S
C203 O217 1.268 . S
C204 O210 1.268 . S
C204 O219 1.268 . S
C205 O211 1.268 . S
C205 O215 1.268 . S
C206 O212 1.268 . S
C206 O214 1.268 . S
C207 O213 1.268 . S
C207 O216 1.268 . S
O208 Sc198 2.105 . S
O208 C202 1.268 . S
O209 Sc199 2.105 . S
O209 C203 1.268 . S
O210 Sc200 2.105 . S
O210 C204 1.268 . S
O211 Sc198 2.105 . S
O211 C205 1.268 . S
O212 Sc200 2.105 . S
O212 C206 1.268 . S
O213 Sc199 2.105 . S
O213 C207 1.268 . S
O214 Sc198 2.105 . S
O214 C206 1.268 . S
O215 Sc199 2.105 . S
O215 C205 1.268 . S
O216 Sc200 2.105 . S
O216 C207 1.268 . S
O217 Sc198 2.105 . S
O217 C203 1.268 . S
O218 Sc200 2.105 . S
O218 C202 1.268 . S
O219 Sc199 2.105 . S
O219 C204 1.268 . S
Sc220 O223 2.025 . S
Sc220 O230 2.105 1_545 S
Sc220 O233 2.105 . S
Sc220 O236 2.105 . S
Sc220 O239 2.105 1_545 S
Sc221 O223 2.025 . S
Sc221 O231 2.105 1_545 S
Sc221 O235 2.105 . S
Sc221 O237 2.105 . S
Sc221 O241 2.105 1_545 S
Sc222 O223 2.025 . S
Sc222 O232 2.105 1_545 S
Sc222 O234 2.105 . S
Sc222 O238 2.105 . S
Sc222 O240 2.105 1_545 S
O223 Sc220 2.025 . S
O223 Sc221 2.025 . S
O223 Sc222 2.025 . S
C224 O230 1.268 . S
C224 O240 1.268 . S
C225 O231 1.268 . S
C225 O239 1.268 . S
C226 O232 1.268 . S
C226 O241 1.268 . S
C227 O233 1.268 . S
C227 O237 1.268 . S
C228 O234 1.268 . S
C228 O236 1.268 . S
C229 O235 1.268 . S
C229 O238 1.268 . S
O230 Sc220 2.105 1_565 S
O230 C224 1.268 . S
O231 Sc221 2.105 1_565 S
O231 C225 1.268 . S
O232 Sc222 2.105 1_565 S
O232 C226 1.268 . S
O233 Sc220 2.105 . S
O233 C227 1.268 . S
O234 Sc222 2.105 . S
O234 C228 1.268 . S
O235 Sc221 2.105 . S
O235 C229 1.268 . S
O236 Sc220 2.105 . S
O236 C228 1.268 . S
O237 Sc221 2.105 . S
O237 C227 1.268 . S
O238 Sc222 2.105 . S
O238 C229 1.268 . S
O239 Sc220 2.105 1_565 S
O239 C225 1.268 . S
O240 Sc222 2.105 1_565 S
O240 C224 1.268 . S
O241 Sc221 2.105 1_565 S
O241 C226 1.268 . S
Sc242 O245 2.025 . S
Sc242 O252 2.105 . S
Sc242 O255 2.105 . S
Sc242 O258 2.105 . S
Sc242 O261 2.105 . S
Sc243 O245 2.025 . S
Sc243 O253 2.105 . S
Sc243 O257 2.105 . S
Sc243 O259 2.105 . S
Sc243 O263 2.105 . S
Sc244 O245 2.025 . S
Sc244 O254 2.105 . S
Sc244 O256 2.105 . S
Sc244 O260 2.105 . S
Sc244 O262 2.105 . S
O245 Sc242 2.025 . S
O245 Sc243 2.025 . S
O245 Sc244 2.025 . S
C246 O252 1.268 . S
C246 O262 1.268 . S
C247 O253 1.268 . S
C247 O261 1.268 . S
C248 O254 1.268 . S
C248 O263 1.268 . S
C249 O255 1.268 . S
C249 O259 1.268 . S
C250 O256 1.268 . S
C250 O258 1.268 . S
C251 O257 1.268 . S
C251 O260 1.268 . S
O252 Sc242 2.105 . S
O252 C246 1.268 . S
O253 Sc243 2.105 . S
O253 C247 1.268 . S
O254 Sc244 2.105 . S
O254 C248 1.268 . S
O255 Sc242 2.105 . S
O255 C249 1.268 . S
O256 Sc244 2.105 . S
O256 C250 1.268 . S
O257 Sc243 2.105 . S
O257 C251 1.268 . S
O258 Sc242 2.105 . S
O258 C250 1.268 . S
O259 Sc243 2.105 . S
O259 C249 1.268 . S
O260 Sc244 2.105 . S
O260 C251 1.268 . S
O261 Sc242 2.105 . S
O261 C247 1.268 . S
O262 Sc244 2.105 . S
O262 C246 1.268 . S
O263 Sc243 2.105 . S
O263 C248 1.268 . S
Sc264 O267 2.025 . S
Sc264 O274 2.105 1_545 S
Sc264 O277 2.105 . S
Sc264 O280 2.105 . S
Sc264 O283 2.105 1_545 S
Sc265 O267 2.025 . S
Sc265 O275 2.105 1_545 S
Sc265 O279 2.105 . S
Sc265 O281 2.105 . S
Sc265 O285 2.105 1_545 S
Sc266 O267 2.025 . S
Sc266 O276 2.105 1_545 S
Sc266 O278 2.105 . S
Sc266 O282 2.105 . S
Sc266 O284 2.105 1_545 S
O267 Sc264 2.025 . S
O267 Sc265 2.025 . S
O267 Sc266 2.025 . S
C268 O274 1.268 . S
C268 O284 1.268 . S
C269 O275 1.268 . S
C269 O283 1.268 . S
C270 O276 1.268 . S
C270 O285 1.268 . S
C271 O277 1.268 . S
C271 O281 1.268 . S
C272 O278 1.268 . S
C272 O280 1.268 . S
C273 O279 1.268 . S
C273 O282 1.268 . S
O274 Sc264 2.105 1_565 S
O274 C268 1.268 . S
O275 Sc265 2.105 1_565 S
O275 C269 1.268 . S
O276 Sc266 2.105 1_565 S
O276 C270 1.268 . S
O277 Sc264 2.105 . S
O277 C271 1.268 . S
O278 Sc266 2.105 . S
O278 C272 1.268 . S
O279 Sc265 2.105 . S
O279 C273 1.268 . S
O280 Sc264 2.105 . S
O280 C272 1.268 . S
O281 Sc265 2.105 . S
O281 C271 1.268 . S
O282 Sc266 2.105 . S
O282 C273 1.268 . S
O283 Sc264 2.105 1_565 S
O283 C269 1.268 . S
O284 Sc266 2.105 1_565 S
O284 C268 1.268 . S
O285 Sc265 2.105 1_565 S
O285 C270 1.268 . S
Sc286 O289 2.025 . S
Sc286 O296 2.105 . S
Sc286 O299 2.105 . S
Sc286 O302 2.105 . S
Sc286 O305 2.105 . S
Sc287 O289 2.025 . S
Sc287 O297 2.105 . S
Sc287 O301 2.105 . S
Sc287 O303 2.105 . S
Sc287 O307 2.105 . S
Sc288 O289 2.025 . S
Sc288 O298 2.105 . S
Sc288 O300 2.105 . S
Sc288 O304 2.105 . S
Sc288 O306 2.105 . S
O289 Sc286 2.025 . S
O289 Sc287 2.025 . S
O289 Sc288 2.025 . S
C290 O296 1.268 . S
C290 O306 1.268 . S
C291 O297 1.268 . S
C291 O305 1.268 . S
C292 O298 1.268 . S
C292 O307 1.268 . S
C293 O299 1.268 . S
C293 O303 1.268 . S
C294 O300 1.268 . S
C294 O302 1.268 . S
C295 O301 1.268 . S
C295 O304 1.268 . S
O296 Sc286 2.105 . S
O296 C290 1.268 . S
O297 Sc287 2.105 . S
O297 C291 1.268 . S
O298 Sc288 2.105 . S
O298 C292 1.268 . S
O299 Sc286 2.105 . S
O299 C293 1.268 . S
O300 Sc288 2.105 . S
O300 C294 1.268 . S
O301 Sc287 2.105 . S
O301 C295 1.268 . S
O302 Sc286 2.105 . S
O302 C294 1.268 . S
O303 Sc287 2.105 . S
O303 C293 1.268 . S
O304 Sc288 2.105 . S
O304 C295 1.268 . S
O305 Sc286 2.105 . S
O305 C291 1.268 . S
O306 Sc288 2.105 . S
O306 C290 1.268 . S
O307 Sc287 2.105 . S
O307 C292 1.268 . S
Sc308 O311 2.025 . S
Sc308 O318 2.105 1_545 S
Sc308 O321 2.105 . S
Sc308 O324 2.105 . S
Sc308 O327 2.105 1_545 S
Sc309 O311 2.025 . S
Sc309 O319 2.105 1_545 S
Sc309 O323 2.105 . S
Sc309 O325 2.105 . S
Sc309 O329 2.105 1_545 S
Sc310 O311 2.025 . S
Sc310 O320 2.105 1_545 S
Sc310 O322 2.105 . S
Sc310 O326 2.105 . S
Sc310 O328 2.105 1_545 S
O311 Sc308 2.025 . S
O311 Sc309 2.025 . S
O311 Sc310 2.025 . S
C312 O318 1.268 . S
C312 O328 1.268 . S
C313 O319 1.268 . S
C313 O327 1.268 . S
C314 O320 1.268 . S
C314 O329 1.268 . S
C315 O321 1.268 . S
C315 O325 1.268 . S
C316 O322 1.268 . S
C316 O324 1.268 . S
C317 O323 1.268 . S
C317 O326 1.268 . S
O318 Sc308 2.105 1_565 S
O318 C312 1.268 . S
O319 Sc309 2.105 1_565 S
O319 C313 1.268 . S
O320 Sc310 2.105 1_565 S
O320 C314 1.268 . S
O321 Sc308 2.105 . S
O321 C315 1.268 . S
O322 Sc310 2.105 . S
O322 C316 1.268 . S
O323 Sc309 2.105 . S
O323 C317 1.268 . S
O324 Sc308 2.105 . S
O324 C316 1.268 . S
O325 Sc309 2.105 . S
O325 C315 1.268 . S
O326 Sc310 2.105 . S
O326 C317 1.268 . S
O327 Sc308 2.105 1_565 S
O327 C313 1.268 . S
O328 Sc310 2.105 1_565 S
O328 C312 1.268 . S
O329 Sc309 2.105 1_565 S
O329 C314 1.268 . S
Sc330 O333 2.025 . S
Sc330 O340 2.105 . S
Sc330 O343 2.105 . S
Sc330 O346 2.105 . S
Sc330 O349 2.105 . S
Sc331 O333 2.025 . S
Sc331 O341 2.105 . S
Sc331 O345 2.105 . S
Sc331 O347 2.105 . S
Sc331 O351 2.105 . S
Sc332 O333 2.025 . S
Sc332 O342 2.105 . S
Sc332 O344 2.105 . S
Sc332 O348 2.105 . S
Sc332 O350 2.105 . S
O333 Sc330 2.025 . S
O333 Sc331 2.025 . S
O333 Sc332 2.025 . S
C334 O340 1.268 . S
C334 O350 1.268 . S
C335 O341 1.268 . S
C335 O349 1.268 . S
C336 O342 1.268 . S
C336 O351 1.268 . S
C337 O343 1.268 . S
C337 O347 1.268 . S
C338 O344 1.268 . S
C338 O346 1.268 . S
C339 O345 1.268 . S
C339 O348 1.268 . S
O340 Sc330 2.105 . S
O340 C334 1.268 . S
O341 Sc331 2.105 . S
O341 C335 1.268 . S
O342 Sc332 2.105 . S
O342 C336 1.268 . S
O343 Sc330 2.105 . S
O343 C337 1.268 . S
O344 Sc332 2.105 . S
O344 C338 1.268 . S
O345 Sc331 2.105 . S
O345 C339 1.268 . S
O346 Sc330 2.105 . S
O346 C338 1.268 . S
O347 Sc331 2.105 . S
O347 C337 1.268 . S
O348 Sc332 2.105 . S
O348 C339 1.268 . S
O349 Sc330 2.105 . S
O349 C335 1.268 . S
O350 Sc332 2.105 . S
O350 C334 1.268 . S
O351 Sc331 2.105 . S
O351 C336 1.268 . S
Sc352 O355 2.025 . S
Sc352 O362 2.105 1_554 S
Sc352 O365 2.105 . S
Sc352 O368 2.105 . S
Sc352 O371 2.105 1_554 S
Sc353 O355 2.025 . S
Sc353 O363 2.105 1_554 S
Sc353 O367 2.105 . S
Sc353 O369 2.105 . S
Sc353 O373 2.105 1_554 S
Sc354 O355 2.025 . S
Sc354 O364 2.105 1_554 S
Sc354 O366 2.105 . S
Sc354 O370 2.105 . S
Sc354 O372 2.105 1_554 S
O355 Sc352 2.025 . S
O355 Sc353 2.025 . S
O355 Sc354 2.025 . S
C356 O362 1.268 . S
C356 O372 1.268 . S
C357 O363 1.268 . S
C357 O371 1.268 . S
C358 O364 1.268 . S
C358 O373 1.268 . S
C359 O365 1.268 . S
C359 O369 1.268 . S
C360 O366 1.268 . S
C360 O368 1.268 . S
C361 O367 1.268 . S
C361 O370 1.268 . S
O362 Sc352 2.105 1_556 S
O362 C356 1.268 . S
O363 Sc353 2.105 1_556 S
O363 C357 1.268 . S
O364 Sc354 2.105 1_556 S
O364 C358 1.268 . S
O365 Sc352 2.105 . S
O365 C359 1.268 . S
O366 Sc354 2.105 . S
O366 C360 1.268 . S
O367 Sc353 2.105 . S
O367 C361 1.268 . S
O368 Sc352 2.105 . S
O368 C360 1.268 . S
O369 Sc353 2.105 . S
O369 C359 1.268 . S
O370 Sc354 2.105 . S
O370 C361 1.268 . S
O371 Sc352 2.105 1_556 S
O371 C357 1.268 . S
O372 Sc354 2.105 1_556 S
O372 C356 1.268 . S
O373 Sc353 2.105 1_556 S
O373 C358 1.268 . S
Sc374 O377 2.025 . S
Sc374 O384 2.105 1_554 S
Sc374 O387 2.105 . S
Sc374 O390 2.105 . S
Sc374 O393 2.105 1_554 S
Sc375 O377 2.025 . S
Sc375 O385 2.105 1_554 S
Sc375 O389 2.105 . S
Sc375 O391 2.105 . S
Sc375 O395 2.105 1_554 S
Sc376 O377 2.025 . S
Sc376 O386 2.105 1_554 S
Sc376 O388 2.105 . S
Sc376 O392 2.105 . S
Sc376 O394 2.105 1_554 S
O377 Sc374 2.025 . S
O377 Sc375 2.025 . S
O377 Sc376 2.025 . S
C378 O384 1.268 . S
C378 O394 1.268 . S
C379 O385 1.268 . S
C379 O393 1.268 . S
C380 O386 1.268 . S
C380 O395 1.268 . S
C381 O387 1.268 . S
C381 O391 1.268 . S
C382 O388 1.268 . S
C382 O390 1.268 . S
C383 O389 1.268 . S
C383 O392 1.268 . S
O384 Sc374 2.105 1_556 S
O384 C378 1.268 . S
O385 Sc375 2.105 1_556 S
O385 C379 1.268 . S
O386 Sc376 2.105 1_556 S
O386 C380 1.268 . S
O387 Sc374 2.105 . S
O387 C381 1.268 . S
O388 Sc376 2.105 . S
O388 C382 1.268 . S
O389 Sc375 2.105 . S
O389 C383 1.268 . S
O390 Sc374 2.105 . S
O390 C382 1.268 . S
O391 Sc375 2.105 . S
O391 C381 1.268 . S
O392 Sc376 2.105 . S
O392 C383 1.268 . S
O393 Sc374 2.105 1_556 S
O393 C379 1.268 . S
O394 Sc376 2.105 1_556 S
O394 C378 1.268 . S
O395 Sc375 2.105 1_556 S
O395 C380 1.268 . S
Sc396 O399 2.025 . S
Sc396 O406 2.105 . S
Sc396 O409 2.105 . S
Sc396 O412 2.105 . S
Sc396 O415 2.105 . S
Sc397 O399 2.025 . S
Sc397 O407 2.105 . S
Sc397 O411 2.105 . S
Sc397 O413 2.105 . S
Sc397 O417 2.105 . S
Sc398 O399 2.025 . S
Sc398 O408 2.105 . S
Sc398 O410 2.105 . S
Sc398 O414 2.105 . S
Sc398 O416 2.105 . S
O399 Sc396 2.025 . S
O399 Sc397 2.025 . S
O399 Sc398 2.025 . S
C400 O406 1.268 . S
C400 O416 1.268 . S
C401 O407 1.268 . S
C401 O415 1.268 . S
C402 O408 1.268 . S
C402 O417 1.268 . S
C403 O409 1.268 . S
C403 O413 1.268 . S
C404 O410 1.268 . S
C404 O412 1.268 . S
C405 O411 1.268 . S
C405 O414 1.268 . S
O406 Sc396 2.105 . S
O406 C400 1.268 . S
O407 Sc397 2.105 . S
O407 C401 1.268 . S
O408 Sc398 2.105 . S
O408 C402 1.268 . S
O409 Sc396 2.105 . S
O409 C403 1.268 . S
O410 Sc398 2.105 . S
O410 C404 1.268 . S
O411 Sc397 2.105 . S
O411 C405 1.268 . S
O412 Sc396 2.105 . S
O412 C404 1.268 . S
O413 Sc397 2.105 . S
O413 C403 1.268 . S
O414 Sc398 2.105 . S
O414 C405 1.268 . S
O415 Sc396 2.105 . S
O415 C401 1.268 . S
O416 Sc398 2.105 . S
O416 C400 1.268 . S
O417 Sc397 2.105 . S
O417 C402 1.268 . S
Sc418 O421 2.025 . S
Sc418 O428 2.105 1_554 S
Sc418 O431 2.105 . S
Sc418 O434 2.105 . S
Sc418 O437 2.105 1_554 S
Sc419 O421 2.025 . S
Sc419 O429 2.105 1_554 S
Sc419 O433 2.105 . S
Sc419 O435 2.105 . S
Sc419 O439 2.105 1_554 S
Sc420 O421 2.025 . S
Sc420 O430 2.105 1_554 S
Sc420 O432 2.105 . S
Sc420 O436 2.105 . S
Sc420 O438 2.105 1_554 S
O421 Sc418 2.025 . S
O421 Sc419 2.025 . S
O421 Sc420 2.025 . S
C422 O428 1.268 . S
C422 O438 1.268 . S
C423 O429 1.268 . S
C423 O437 1.268 . S
C424 O430 1.268 . S
C424 O439 1.268 . S
C425 O431 1.268 . S
C425 O435 1.268 . S
C426 O432 1.268 . S
C426 O434 1.268 . S
C427 O433 1.268 . S
C427 O436 1.268 . S
O428 Sc418 2.105 1_556 S
O428 C422 1.268 . S
O429 Sc419 2.105 1_556 S
O429 C423 1.268 . S
O430 Sc420 2.105 1_556 S
O430 C424 1.268 . S
O431 Sc418 2.105 . S
O431 C425 1.268 . S
O432 Sc420 2.105 . S
O432 C426 1.268 . S
O433 Sc419 2.105 . S
O433 C427 1.268 . S
O434 Sc418 2.105 . S
O434 C426 1.268 . S
O435 Sc419 2.105 . S
O435 C425 1.268 . S
O436 Sc420 2.105 . S
O436 C427 1.268 . S
O437 Sc418 2.105 1_556 S
O437 C423 1.268 . S
O438 Sc420 2.105 1_556 S
O438 C422 1.268 . S
O439 Sc419 2.105 1_556 S
O439 C424 1.268 . S
Sc440 O443 2.025 . S
Sc440 O450 2.105 . S
Sc440 O453 2.105 . S
Sc440 O456 2.105 . S
Sc440 O459 2.105 . S
Sc441 O443 2.025 . S
Sc441 O451 2.105 . S
Sc441 O455 2.105 . S
Sc441 O457 2.105 . S
Sc441 O461 2.105 . S
Sc442 O443 2.025 . S
Sc442 O452 2.105 . S
Sc442 O454 2.105 . S
Sc442 O458 2.105 . S
Sc442 O460 2.105 . S
O443 Sc440 2.025 . S
O443 Sc441 2.025 . S
O443 Sc442 2.025 . S
C444 O450 1.268 . S
C444 O460 1.268 . S
C445 O451 1.268 . S
C445 O459 1.268 . S
C446 O452 1.268 . S
C446 O461 1.268 . S
C447 O453 1.268 . S
C447 O457 1.268 . S
C448 O454 1.268 . S
C448 O456 1.268 . S
C449 O455 1.268 . S
C449 O458 1.268 . S
O450 Sc440 2.105 . S
O450 C444 1.268 . S
O451 Sc441 2.105 . S
O451 C445 1.268 . S
O452 Sc442 2.105 . S
O452 C446 1.268 . S
O453 Sc440 2.105 . S
O453 C447 1.268 . S
O454 Sc442 2.105 . S
O454 C448 1.268 . S
O455 Sc441 2.105 . S
O455 C449 1.268 . S
O456 Sc440 2.105 . S
O456 C448 1.268 . S
O457 Sc441 2.105 . S
O457 C447 1.268 . S
O458 Sc442 2.105 . S
O458 C449 1.268 . S
O459 Sc440 2.105 . S
O459 C445 1.268 . S
O460 Sc442 2.105 . S
O460 C444 1.268 . S
O461 Sc441 2.105 . S
O461 C446 1.268 . S
Sc462 O465 2.025 . S
Sc462 O472 2.105 1_554 S
Sc462 O475 2.105 . S
Sc462 O478 2.105 . S
Sc462 O481 2.105 1_554 S
Sc463 O465 2.025 . S
Sc463 O473 2.105 1_554 S
Sc463 O477 2.105 . S
Sc463 O479 2.105 . S
Sc463 O483 2.105 1_554 S
Sc464 O465 2.025 . S
Sc464 O474 2.105 1_554 S
Sc464 O476 2.105 . S
Sc464 O480 2.105 . S
Sc464 O482 2.105 1_554 S
O465 Sc462 2.025 . S
O465 Sc463 2.025 . S
O465 Sc464 2.025 . S
C466 O472 1.268 . S
C466 O482 1.268 . S
C467 O473 1.268 . S
C467 O481 1.268 . S
C468 O474 1.268 . S
C468 O483 1.268 . S
C469 O475 1.268 . S
C469 O479 1.268 . S
C470 O476 1.268 . S
C470 O478 1.268 . S
C471 O477 1.268 . S
C471 O480 1.268 . S
O472 Sc462 2.105 1_556 S
O472 C466 1.268 . S
O473 Sc463 2.105 1_556 S
O473 C467 1.268 . S
O474 Sc464 2.105 1_556 S
O474 C468 1.268 . S
O475 Sc462 2.105 . S
O475 C469 1.268 . S
O476 Sc464 2.105 . S
O476 C470 1.268 . S
O477 Sc463 2.105 . S
O477 C471 1.268 . S
O478 Sc462 2.105 . S
O478 C470 1.268 . S
O479 Sc463 2.105 . S
O479 C469 1.268 . S
O480 Sc464 2.105 . S
O480 C471 1.268 . S
O481 Sc462 2.105 1_556 S
O481 C467 1.268 . S
O482 Sc464 2.105 1_556 S
O482 C466 1.268 . S
O483 Sc463 2.105 1_556 S
O483 C468 1.268 . S
Sc484 O487 2.025 . S
Sc484 O494 2.105 . S
Sc484 O497 2.105 . S
Sc484 O500 2.105 . S
Sc484 O503 2.105 . S
Sc485 O487 2.025 . S
Sc485 O495 2.105 . S
Sc485 O499 2.105 . S
Sc485 O501 2.105 . S
Sc485 O505 2.105 . S
Sc486 O487 2.025 . S
Sc486 O496 2.105 . S
Sc486 O498 2.105 . S
Sc486 O502 2.105 . S
Sc486 O504 2.105 . S
O487 Sc484 2.025 . S
O487 Sc485 2.025 . S
O487 Sc486 2.025 . S
C488 O494 1.268 . S
C488 O504 1.268 . S
C489 O495 1.268 . S
C489 O503 1.268 . S
C490 O496 1.268 . S
C490 O505 1.268 . S
C491 O497 1.268 . S
C491 O501 1.268 . S
C492 O498 1.268 . S
C492 O500 1.268 . S
C493 O499 1.268 . S
C493 O502 1.268 . S
O494 Sc484 2.105 . S
O494 C488 1.268 . S
O495 Sc485 2.105 . S
O495 C489 1.268 . S
O496 Sc486 2.105 . S
O496 C490 1.268 . S
O497 Sc484 2.105 . S
O497 C491 1.268 . S
O498 Sc486 2.105 . S
O498 C492 1.268 . S
O499 Sc485 2.105 . S
O499 C493 1.268 . S
O500 Sc484 2.105 . S
O500 C492 1.268 . S
O501 Sc485 2.105 . S
O501 C491 1.268 . S
O502 Sc486 2.105 . S
O502 C493 1.268 . S
O503 Sc484 2.105 . S
O503 C489 1.268 . S
O504 Sc486 2.105 . S
O504 C488 1.268 . S
O505 Sc485 2.105 . S
O505 C490 1.268 . S
Sc506 O509 2.025 . S
Sc506 O516 2.105 . S
Sc506 O519 2.105 . S
Sc506 O522 2.105 . S
Sc506 O525 2.105 . S
Sc507 O509 2.025 . S
Sc507 O517 2.105 . S
Sc507 O521 2.105 . S
Sc507 O523 2.105 . S
Sc507 O527 2.105 . S
Sc508 O509 2.025 . S
Sc508 O518 2.105 . S
Sc508 O520 2.105 . S
Sc508 O524 2.105 . S
Sc508 O526 2.105 . S
O509 Sc506 2.025 . S
O509 Sc507 2.025 . S
O509 Sc508 2.025 . S
C510 O516 1.268 . S
C510 O526 1.268 . S
C511 O517 1.268 . S
C511 O525 1.268 . S
C512 O518 1.268 . S
C512 O527 1.268 . S
C513 O519 1.268 . S
C513 O523 1.268 . S
C514 O520 1.268 . S
C514 O522 1.268 . S
C515 O521 1.268 . S
C515 O524 1.268 . S
O516 Sc506 2.105 . S
O516 C510 1.268 . S
O517 Sc507 2.105 . S
O517 C511 1.268 . S
O518 Sc508 2.105 . S
O518 C512 1.268 . S
O519 Sc506 2.105 . S
O519 C513 1.268 . S
O520 Sc508 2.105 . S
O520 C514 1.268 . S
O521 Sc507 2.105 . S
O521 C515 1.268 . S
O522 Sc506 2.105 . S
O522 C514 1.268 . S
O523 Sc507 2.105 . S
O523 C513 1.268 . S
O524 Sc508 2.105 . S
O524 C515 1.268 . S
O525 Sc506 2.105 . S
O525 C511 1.268 . S
O526 Sc508 2.105 . S
O526 C510 1.268 . S
O527 Sc507 2.105 . S
O527 C512 1.268 . S
C528 C529 1.363 . S
C528 C534 1.379 . S
C528 N536 1.356 . S
C529 C528 1.363 . S
C529 C535 1.363 . S
C530 C531 1.363 . S
C530 C535 1.379 . S
C530 N537 1.356 . S
C531 C530 1.363 . S
C531 C534 1.363 . S
N532 C534 1.356 . S
N532 H544 0.984 . S
N532 H545 0.985 . S
N533 C535 1.356 . S
N533 H538 0.984 . S
N533 H539 0.985 . S
C534 C528 1.379 . S
C534 C531 1.363 . S
C534 N532 1.356 . S
C535 C529 1.363 . S
C535 C530 1.379 . S
C535 N533 1.356 . S
N536 C528 1.356 . S
N536 H542 0.984 . S
N536 H543 0.984 . S
N537 C530 1.356 . S
N537 H540 0.984 . S
N537 H541 0.985 . S
H538 N533 0.984 . S
H539 N533 0.985 . S
H540 N537 0.984 . S
H541 N537 0.985 . S
H542 N536 0.984 . S
H543 N536 0.984 . S
H544 N532 0.984 . S
H545 N532 0.985 . S
C546 C547 1.363 . S
C546 C552 1.379 . S
C546 N554 1.356 . S
C547 C546 1.363 . S
C547 C553 1.363 . S
C548 C549 1.363 . S
C548 C553 1.379 . S
C548 N555 1.356 . S
C549 C548 1.363 . S
C549 C552 1.363 . S
N550 C552 1.356 . S
N550 H562 0.984 . S
N550 H563 0.985 . S
N551 C553 1.356 . S
N551 H556 0.984 . S
N551 H557 0.985 . S
C552 C546 1.379 . S
C552 C549 1.363 . S
C552 N550 1.356 . S
C553 C547 1.363 . S
C553 C548 1.379 . S
C553 N551 1.356 . S
N554 C546 1.356 . S
N554 H560 0.984 . S
N554 H561 0.984 . S
N555 C548 1.356 . S
N555 H558 0.984 . S
N555 H559 0.985 . S
H556 N551 0.984 . S
H557 N551 0.985 . S
H558 N555 0.984 . S
H559 N555 0.985 . S
H560 N554 0.984 . S
H561 N554 0.984 . S
H562 N550 0.984 . S
H563 N550 0.985 . S
C564 C565 1.363 . S
C564 C570 1.379 . S
C564 N572 1.356 . S
C565 C564 1.363 . S
C565 C571 1.363 . S
C566 C567 1.363 . S
C566 C571 1.379 . S
C566 N573 1.356 . S
C567 C566 1.363 . S
C567 C570 1.363 . S
N568 C570 1.356 . S
N568 H580 0.984 . S
N568 H581 0.985 . S
N569 C571 1.356 . S
N569 H574 0.984 . S
N569 H575 0.985 . S
C570 C564 1.379 . S
C570 C567 1.363 . S
C570 N568 1.356 . S
C571 C565 1.363 . S
C571 C566 1.379 . S
C571 N569 1.356 . S
N572 C564 1.356 . S
N572 H578 0.984 . S
N572 H579 0.984 . S
N573 C566 1.356 . S
N573 H576 0.984 . S
N573 H577 0.985 . S
H574 N569 0.984 . S
H575 N569 0.985 . S
H576 N573 0.984 . S
H577 N573 0.985 . S
H578 N572 0.984 . S
H579 N572 0.984 . S
H580 N568 0.984 . S
H581 N568 0.985 . S
C582 C583 1.363 . S
C582 C588 1.379 . S
C582 N590 1.356 . S
C583 C582 1.363 . S
C583 C589 1.363 . S
C584 C585 1.363 . S
C584 C589 1.379 . S
C584 N591 1.356 . S
C585 C584 1.363 . S
C585 C588 1.363 . S
N586 C588 1.356 . S
N586 H598 0.984 . S
N586 H599 0.985 . S
N587 C589 1.356 . S
N587 H592 0.984 . S
N587 H593 0.985 . S
C588 C582 1.379 . S
C588 C585 1.363 . S
C588 N586 1.356 . S
C589 C583 1.363 . S
C589 C584 1.379 . S
C589 N587 1.356 . S
N590 C582 1.356 . S
N590 H596 0.984 . S
N590 H597 0.984 . S
N591 C584 1.356 . S
N591 H594 0.984 . S
N591 H595 0.985 . S
H592 N587 0.984 . S
H593 N587 0.985 . S
H594 N591 0.984 . S
H595 N591 0.985 . S
H596 N590 0.984 . S
H597 N590 0.984 . S
H598 N586 0.984 . S
H599 N586 0.985 . S
C600 C601 1.363 . S
C600 C606 1.379 . S
C600 N608 1.356 . S
C601 C600 1.363 . S
C601 C607 1.363 . S
C602 C603 1.363 . S
C602 C607 1.379 . S
C602 N609 1.356 . S
C603 C602 1.363 . S
C603 C606 1.363 . S
N604 C606 1.356 . S
N604 H616 0.984 . S
N604 H617 0.985 . S
N605 C607 1.356 . S
N605 H610 0.984 . S
N605 H611 0.985 . S
C606 C600 1.379 . S
C606 C603 1.363 . S
C606 N604 1.356 . S
C607 C601 1.363 . S
C607 C602 1.379 . S
C607 N605 1.356 . S
N608 C600 1.356 . S
N608 H614 0.984 . S
N608 H615 0.984 . S
N609 C602 1.356 . S
N609 H612 0.984 . S
N609 H613 0.985 . S
H610 N605 0.984 . S
H611 N605 0.985 . S
H612 N609 0.984 . S
H613 N609 0.985 . S
H614 N608 0.984 . S
H615 N608 0.984 . S
H616 N604 0.984 . S
H617 N604 0.985 . S
C618 C619 1.363 . S
C618 C624 1.379 . S
C618 N626 1.356 . S
C619 C618 1.363 . S
C619 C625 1.363 . S
C620 C621 1.363 . S
C620 C625 1.379 . S
C620 N627 1.356 . S
C621 C620 1.363 . S
C621 C624 1.363 . S
N622 C624 1.356 . S
N622 H634 0.984 . S
N622 H635 0.985 . S
N623 C625 1.356 . S
N623 H628 0.984 . S
N623 H629 0.985 . S
C624 C618 1.379 . S
C624 C621 1.363 . S
C624 N622 1.356 . S
C625 C619 1.363 . S
C625 C620 1.379 . S
C625 N623 1.356 . S
N626 C618 1.356 . S
N626 H632 0.984 . S
N626 H633 0.984 . S
N627 C620 1.356 . S
N627 H630 0.984 . S
N627 H631 0.985 . S
H628 N623 0.984 . S
H629 N623 0.985 . S
H630 N627 0.984 . S
H631 N627 0.985 . S
H632 N626 0.984 . S
H633 N626 0.984 . S
H634 N622 0.984 . S
H635 N622 0.985 . S
C636 C637 1.363 . S
C636 C642 1.379 . S
C636 N644 1.356 . S
C637 C636 1.363 . S
C637 C643 1.363 . S
C638 C639 1.363 . S
C638 C643 1.379 . S
C638 N645 1.356 . S
C639 C638 1.363 . S
C639 C642 1.363 . S
N640 C642 1.356 . S
N640 H652 0.984 . S
N640 H653 0.985 . S
N641 C643 1.356 . S
N641 H646 0.984 . S
N641 H647 0.985 . S
C642 C636 1.379 . S
C642 C639 1.363 . S
C642 N640 1.356 . S
C643 C637 1.363 . S
C643 C638 1.379 . S
C643 N641 1.356 . S
N644 C636 1.356 . S
N644 H650 0.984 . S
N644 H651 0.984 . S
N645 C638 1.356 . S
N645 H648 0.984 . S
N645 H649 0.985 . S
H646 N641 0.984 . S
H647 N641 0.985 . S
H648 N645 0.984 . S
H649 N645 0.985 . S
H650 N644 0.984 . S
H651 N644 0.984 . S
H652 N640 0.984 . S
H653 N640 0.985 . S
C654 C655 1.363 . S
C654 C660 1.379 . S
C654 N662 1.356 . S
C655 C654 1.363 . S
C655 C661 1.363 . S
C656 C657 1.363 . S
C656 C661 1.379 . S
C656 N663 1.356 . S
C657 C656 1.363 . S
C657 C660 1.363 . S
N658 C660 1.356 . S
N658 H670 0.984 . S
N658 H671 0.985 . S
N659 C661 1.356 . S
N659 H664 0.984 . S
N659 H665 0.985 . S
C660 C654 1.379 . S
C660 C657 1.363 . S
C660 N658 1.356 . S
C661 C655 1.363 . S
C661 C656 1.379 . S
C661 N659 1.356 . S
N662 C654 1.356 . S
N662 H668 0.984 . S
N662 H669 0.984 . S
N663 C656 1.356 . S
N663 H666 0.984 . S
N663 H667 0.985 . S
H664 N659 0.984 . S
H665 N659 0.985 . S
H666 N663 0.984 . S
H667 N663 0.985 . S
H668 N662 0.984 . S
H669 N662 0.984 . S
H670 N658 0.984 . S
H671 N658 0.985 . S
C672 C673 1.363 . S
C672 C678 1.379 . S
C672 N680 1.356 . S
C673 C672 1.363 . S
C673 C679 1.363 . S
C674 C675 1.363 . S
C674 C679 1.379 . S
C674 N681 1.356 . S
C675 C674 1.363 . S
C675 C678 1.363 . S
N676 C678 1.356 . S
N676 H688 0.984 . S
N676 H689 0.985 . S
N677 C679 1.356 . S
N677 H682 0.984 . S
N677 H683 0.985 . S
C678 C672 1.379 . S
C678 C675 1.363 . S
C678 N676 1.356 . S
C679 C673 1.363 . S
C679 C674 1.379 . S
C679 N677 1.356 . S
N680 C672 1.356 . S
N680 H686 0.984 . S
N680 H687 0.984 . S
N681 C674 1.356 . S
N681 H684 0.984 . S
N681 H685 0.985 . S
H682 N677 0.984 . S
H683 N677 0.985 . S
H684 N681 0.984 . S
H685 N681 0.985 . S
H686 N680 0.984 . S
H687 N680 0.984 . S
H688 N676 0.984 . S
H689 N676 0.985 . S
C690 C691 1.363 . S
C690 C696 1.379 . S
C690 N698 1.356 . S
C691 C690 1.363 . S
C691 C697 1.363 . S
C692 C693 1.363 . S
C692 C697 1.379 . S
C692 N699 1.356 . S
C693 C692 1.363 . S
C693 C696 1.363 . S
N694 C696 1.356 . S
N694 H706 0.984 . S
N694 H707 0.985 . S
N695 C697 1.356 . S
N695 H700 0.984 . S
N695 H701 0.985 . S
C696 C690 1.379 . S
C696 C693 1.363 . S
C696 N694 1.356 . S
C697 C691 1.363 . S
C697 C692 1.379 . S
C697 N695 1.356 . S
N698 C690 1.356 . S
N698 H704 0.984 . S
N698 H705 0.984 . S
N699 C692 1.356 . S
N699 H702 0.984 . S
N699 H703 0.985 . S
H700 N695 0.984 . S
H701 N695 0.985 . S
H702 N699 0.984 . S
H703 N699 0.985 . S
H704 N698 0.984 . S
H705 N698 0.984 . S
H706 N694 0.984 . S
H707 N694 0.985 . S
C708 C709 1.363 . S
C708 C714 1.379 . S
C708 N716 1.356 . S
C709 C708 1.363 . S
C709 C715 1.363 . S
C710 C711 1.363 . S
C710 C715 1.379 . S
C710 N717 1.356 . S
C711 C710 1.363 . S
C711 C714 1.363 . S
N712 C714 1.356 . S
N712 H724 0.984 . S
N712 H725 0.985 . S
N713 C715 1.356 . S
N713 H718 0.984 . S
N713 H719 0.985 . S
C714 C708 1.379 . S
C714 C711 1.363 . S
C714 N712 1.356 . S
C715 C709 1.363 . S
C715 C710 1.379 . S
C715 N713 1.356 . S
N716 C708 1.356 . S
N716 H722 0.984 . S
N716 H723 0.984 . S
N717 C710 1.356 . S
N717 H720 0.984 . S
N717 H721 0.985 . S
H718 N713 0.984 . S
H719 N713 0.985 . S
H720 N717 0.984 . S
H721 N717 0.985 . S
H722 N716 0.984 . S
H723 N716 0.984 . S
H724 N712 0.984 . S
H725 N712 0.985 . S
C726 C727 1.363 . S
C726 C732 1.379 . S
C726 N734 1.356 . S
C727 C726 1.363 . S
C727 C733 1.363 . S
C728 C729 1.363 . S
C728 C733 1.379 . S
C728 N735 1.356 . S
C729 C728 1.363 . S
C729 C732 1.363 . S
N730 C732 1.356 . S
N730 H742 0.984 . S
N730 H743 0.985 . S
N731 C733 1.356 . S
N731 H736 0.984 . S
N731 H737 0.985 . S
C732 C726 1.379 . S
C732 C729 1.363 . S
C732 N730 1.356 . S
C733 C727 1.363 . S
C733 C728 1.379 . S
C733 N731 1.356 . S
N734 C726 1.356 . S
N734 H740 0.984 . S
N734 H741 0.984 . S
N735 C728 1.356 . S
N735 H738 0.984 . S
N735 H739 0.985 . S
H736 N731 0.984 . S
H737 N731 0.985 . S
H738 N735 0.984 . S
H739 N735 0.985 . S
H740 N734 0.984 . S
H741 N734 0.984 . S
H742 N730 0.984 . S
H743 N730 0.985 . S
C744 C745 1.363 . S
C744 C750 1.379 . S
C744 N752 1.356 . S
C745 C744 1.363 . S
C745 C751 1.363 . S
C746 C747 1.363 . S
C746 C751 1.379 . S
C746 N753 1.356 . S
C747 C746 1.363 . S
C747 C750 1.363 . S
N748 C750 1.356 . S
N748 H760 0.984 . S
N748 H761 0.985 . S
N749 C751 1.356 . S
N749 H754 0.984 . S
N749 H755 0.985 . S
C750 C744 1.379 . S
C750 C747 1.363 . S
C750 N748 1.356 . S
C751 C745 1.363 . S
C751 C746 1.379 . S
C751 N749 1.356 . S
N752 C744 1.356 . S
N752 H758 0.984 . S
N752 H759 0.984 . S
N753 C746 1.356 . S
N753 H756 0.984 . S
N753 H757 0.985 . S
H754 N749 0.984 . S
H755 N749 0.985 . S
H756 N753 0.984 . S
H757 N753 0.985 . S
H758 N752 0.984 . S
H759 N752 0.984 . S
H760 N748 0.984 . S
H761 N748 0.985 . S
C762 C763 1.363 . S
C762 C768 1.379 . S
C762 N770 1.356 . S
C763 C762 1.363 . S
C763 C769 1.363 . S
C764 C765 1.363 . S
C764 C769 1.379 . S
C764 N771 1.356 . S
C765 C764 1.363 . S
C765 C768 1.363 . S
N766 C768 1.356 . S
N766 H778 0.984 . S
N766 H779 0.985 . S
N767 C769 1.356 . S
N767 H772 0.984 . S
N767 H773 0.985 . S
C768 C762 1.379 . S
C768 C765 1.363 . S
C768 N766 1.356 . S
C769 C763 1.363 . S
C769 C764 1.379 . S
C769 N767 1.356 . S
N770 C762 1.356 . S
N770 H776 0.984 . S
N770 H777 0.984 . S
N771 C764 1.356 . S
N771 H774 0.984 . S
N771 H775 0.985 . S
H772 N767 0.984 . S
H773 N767 0.985 . S
H774 N771 0.984 . S
H775 N771 0.985 . S
H776 N770 0.984 . S
H777 N770 0.984 . S
H778 N766 0.984 . S
H779 N766 0.985 . S
C780 C781 1.363 . S
C780 C786 1.379 . S
C780 N788 1.356 . S
C781 C780 1.363 . S
C781 C787 1.363 . S
C782 C783 1.363 . S
C782 C787 1.379 . S
C782 N789 1.356 . S
C783 C782 1.363 . S
C783 C786 1.363 . S
N784 C786 1.356 . S
N784 H796 0.984 . S
N784 H797 0.985 . S
N785 C787 1.356 . S
N785 H790 0.984 . S
N785 H791 0.985 . S
C786 C780 1.379 . S
C786 C783 1.363 . S
C786 N784 1.356 . S
C787 C781 1.363 . S
C787 C782 1.379 . S
C787 N785 1.356 . S
N788 C780 1.356 . S
N788 H794 0.984 . S
N788 H795 0.984 . S
N789 C782 1.356 . S
N789 H792 0.984 . S
N789 H793 0.985 . S
H790 N785 0.984 . S
H791 N785 0.985 . S
H792 N789 0.984 . S
H793 N789 0.985 . S
H794 N788 0.984 . S
H795 N788 0.984 . S
H796 N784 0.984 . S
H797 N784 0.985 . S
C798 C799 1.363 . S
C798 C804 1.379 . S
C798 N806 1.356 . S
C799 C798 1.363 . S
C799 C805 1.363 . S
C800 C801 1.363 . S
C800 C805 1.379 . S
C800 N807 1.356 . S
C801 C800 1.363 . S
C801 C804 1.363 . S
N802 C804 1.356 . S
N802 H814 0.984 . S
N802 H815 0.985 . S
N803 C805 1.356 . S
N803 H808 0.984 . S
N803 H809 0.985 . S
C804 C798 1.379 . S
C804 C801 1.363 . S
C804 N802 1.356 . S
C805 C799 1.363 . S
C805 C800 1.379 . S
C805 N803 1.356 . S
N806 C798 1.356 . S
N806 H812 0.984 . S
N806 H813 0.984 . S
N807 C800 1.356 . S
N807 H810 0.984 . S
N807 H811 0.985 . S
H808 N803 0.984 . S
H809 N803 0.985 . S
H810 N807 0.984 . S
H811 N807 0.985 . S
H812 N806 0.984 . S
H813 N806 0.984 . S
H814 N802 0.984 . S
H815 N802 0.985 . S
C816 C817 1.363 . S
C816 C822 1.379 . S
C816 N824 1.356 . S
C817 C816 1.363 . S
C817 C823 1.363 . S
C818 C819 1.363 . S
C818 C823 1.379 . S
C818 N825 1.356 . S
C819 C818 1.363 . S
C819 C822 1.363 . S
N820 C822 1.356 . S
N820 H832 0.984 . S
N820 H833 0.985 . S
N821 C823 1.356 . S
N821 H826 0.984 . S
N821 H827 0.985 . S
C822 C816 1.379 . S
C822 C819 1.363 . S
C822 N820 1.356 . S
C823 C817 1.363 . S
C823 C818 1.379 . S
C823 N821 1.356 . S
N824 C816 1.356 . S
N824 H830 0.984 . S
N824 H831 0.984 . S
N825 C818 1.356 . S
N825 H828 0.984 . S
N825 H829 0.985 . S
H826 N821 0.984 . S
H827 N821 0.985 . S
H828 N825 0.984 . S
H829 N825 0.985 . S
H830 N824 0.984 . S
H831 N824 0.984 . S
H832 N820 0.984 . S
H833 N820 0.985 . S
C834 C835 1.363 . S
C834 C840 1.379 . S
C834 N842 1.356 . S
C835 C834 1.363 . S
C835 C841 1.363 . S
C836 C837 1.363 . S
C836 C841 1.379 . S
C836 N843 1.356 . S
C837 C836 1.363 . S
C837 C840 1.363 . S
N838 C840 1.356 . S
N838 H850 0.984 . S
N838 H851 0.985 . S
N839 C841 1.356 . S
N839 H844 0.984 . S
N839 H845 0.985 . S
C840 C834 1.379 . S
C840 C837 1.363 . S
C840 N838 1.356 . S
C841 C835 1.363 . S
C841 C836 1.379 . S
C841 N839 1.356 . S
N842 C834 1.356 . S
N842 H848 0.984 . S
N842 H849 0.984 . S
N843 C836 1.356 . S
N843 H846 0.984 . S
N843 H847 0.985 . S
H844 N839 0.984 . S
H845 N839 0.985 . S
H846 N843 0.984 . S
H847 N843 0.985 . S
H848 N842 0.984 . S
H849 N842 0.984 . S
H850 N838 0.984 . S
H851 N838 0.985 . S
C852 C853 1.363 . S
C852 C858 1.379 . S
C852 N860 1.356 . S
C853 C852 1.363 . S
C853 C859 1.363 . S
C854 C855 1.363 . S
C854 C859 1.379 . S
C854 N861 1.356 . S
C855 C854 1.363 . S
C855 C858 1.363 . S
N856 C858 1.356 . S
N856 H868 0.984 . S
N856 H869 0.985 . S
N857 C859 1.356 . S
N857 H862 0.984 . S
N857 H863 0.985 . S
C858 C852 1.379 . S
C858 C855 1.363 . S
C858 N856 1.356 . S
C859 C853 1.363 . S
C859 C854 1.379 . S
C859 N857 1.356 . S
N860 C852 1.356 . S
N860 H866 0.984 . S
N860 H867 0.984 . S
N861 C854 1.356 . S
N861 H864 0.984 . S
N861 H865 0.985 . S
H862 N857 0.984 . S
H863 N857 0.985 . S
H864 N861 0.984 . S
H865 N861 0.985 . S
H866 N860 0.984 . S
H867 N860 0.984 . S
H868 N856 0.984 . S
H869 N856 0.985 . S
C870 C871 1.363 . S
C870 C876 1.379 . S
C870 N878 1.356 . S
C871 C870 1.363 . S
C871 C877 1.363 . S
C872 C873 1.363 . S
C872 C877 1.379 . S
C872 N879 1.356 . S
C873 C872 1.363 . S
C873 C876 1.363 . S
N874 C876 1.356 . S
N874 H886 0.984 . S
N874 H887 0.985 . S
N875 C877 1.356 . S
N875 H880 0.984 . S
N875 H881 0.985 . S
C876 C870 1.379 . S
C876 C873 1.363 . S
C876 N874 1.356 . S
C877 C871 1.363 . S
C877 C872 1.379 . S
C877 N875 1.356 . S
N878 C870 1.356 . S
N878 H884 0.984 . S
N878 H885 0.984 . S
N879 C872 1.356 . S
N879 H882 0.984 . S
N879 H883 0.985 . S
H880 N875 0.984 . S
H881 N875 0.985 . S
H882 N879 0.984 . S
H883 N879 0.985 . S
H884 N878 0.984 . S
H885 N878 0.984 . S
H886 N874 0.984 . S
H887 N874 0.985 . S
C888 C889 1.363 . S
C888 C894 1.379 . S
C888 N896 1.356 . S
C889 C888 1.363 . S
C889 C895 1.363 . S
C890 C891 1.363 . S
C890 C895 1.379 . S
C890 N897 1.356 . S
C891 C890 1.363 . S
C891 C894 1.363 . S
N892 C894 1.356 . S
N892 H904 0.984 . S
N892 H905 0.985 . S
N893 C895 1.356 . S
N893 H898 0.984 . S
N893 H899 0.985 . S
C894 C888 1.379 . S
C894 C891 1.363 . S
C894 N892 1.356 . S
C895 C889 1.363 . S
C895 C890 1.379 . S
C895 N893 1.356 . S
N896 C888 1.356 . S
N896 H902 0.984 . S
N896 H903 0.984 . S
N897 C890 1.356 . S
N897 H900 0.984 . S
N897 H901 0.985 . S
H898 N893 0.984 . S
H899 N893 0.985 . S
H900 N897 0.984 . S
H901 N897 0.985 . S
H902 N896 0.984 . S
H903 N896 0.984 . S
H904 N892 0.984 . S
H905 N892 0.985 . S
C906 C907 1.363 . S
C906 C912 1.379 . S
C906 N914 1.356 . S
C907 C906 1.363 . S
C907 C913 1.363 . S
C908 C909 1.363 . S
C908 C913 1.379 . S
C908 N915 1.356 . S
C909 C908 1.363 . S
C909 C912 1.363 . S
N910 C912 1.356 . S
N910 H922 0.984 . S
N910 H923 0.985 . S
N911 C913 1.356 . S
N911 H916 0.984 . S
N911 H917 0.985 . S
C912 C906 1.379 . S
C912 C909 1.363 . S
C912 N910 1.356 . S
C913 C907 1.363 . S
C913 C908 1.379 . S
C913 N911 1.356 . S
N914 C906 1.356 . S
N914 H920 0.984 . S
N914 H921 0.984 . S
N915 C908 1.356 . S
N915 H918 0.984 . S
N915 H919 0.985 . S
H916 N911 0.984 . S
H917 N911 0.985 . S
H918 N915 0.984 . S
H919 N915 0.985 . S
H920 N914 0.984 . S
H921 N914 0.984 . S
H922 N910 0.984 . S
H923 N910 0.985 . S
C924 C925 1.363 . S
C924 C930 1.379 . S
C924 N932 1.356 . S
C925 C924 1.363 . S
C925 C931 1.363 . S
C926 C927 1.363 . S
C926 C931 1.379 . S
C926 N933 1.356 . S
C927 C926 1.363 . S
C927 C930 1.363 . S
N928 C930 1.356 . S
N928 H940 0.984 . S
N928 H941 0.985 . S
N929 C931 1.356 . S
N929 H934 0.984 . S
N929 H935 0.985 . S
C930 C924 1.379 . S
C930 C927 1.363 . S
C930 N928 1.356 . S
C931 C925 1.363 . S
C931 C926 1.379 . S
C931 N929 1.356 . S
N932 C924 1.356 . S
N932 H938 0.984 . S
N932 H939 0.984 . S
N933 C926 1.356 . S
N933 H936 0.984 . S
N933 H937 0.985 . S
H934 N929 0.984 . S
H935 N929 0.985 . S
H936 N933 0.984 . S
H937 N933 0.985 . S
H938 N932 0.984 . S
H939 N932 0.984 . S
H940 N928 0.984 . S
H941 N928 0.985 . S
C942 C943 1.363 . S
C942 C948 1.379 . S
C942 N950 1.356 . S
C943 C942 1.363 . S
C943 C949 1.363 . S
C944 C945 1.363 . S
C944 C949 1.379 . S
C944 N951 1.356 . S
C945 C944 1.363 . S
C945 C948 1.363 . S
N946 C948 1.356 . S
N946 H958 0.984 . S
N946 H959 0.985 . S
N947 C949 1.356 . S
N947 H952 0.984 . S
N947 H953 0.985 . S
C948 C942 1.379 . S
C948 C945 1.363 . S
C948 N946 1.356 . S
C949 C943 1.363 . S
C949 C944 1.379 . S
C949 N947 1.356 . S
N950 C942 1.356 . S
N950 H956 0.984 . S
N950 H957 0.984 . S
N951 C944 1.356 . S
N951 H954 0.984 . S
N951 H955 0.985 . S
H952 N947 0.984 . S
H953 N947 0.985 . S
H954 N951 0.984 . S
H955 N951 0.985 . S
H956 N950 0.984 . S
H957 N950 0.984 . S
H958 N946 0.984 . S
H959 N946 0.985 . S
C960 C961 1.363 . S
C960 C966 1.379 . S
C960 N968 1.356 . S
C961 C960 1.363 . S
C961 C967 1.363 . S
C962 C963 1.363 . S
C962 C967 1.379 . S
C962 N969 1.356 . S
C963 C962 1.363 . S
C963 C966 1.363 . S
N964 C966 1.356 . S
N964 H976 0.984 . S
N964 H977 0.985 . S
N965 C967 1.356 . S
N965 H970 0.984 . S
N965 H971 0.985 . S
C966 C960 1.379 . S
C966 C963 1.363 . S
C966 N964 1.356 . S
C967 C961 1.363 . S
C967 C962 1.379 . S
C967 N965 1.356 . S
N968 C960 1.356 . S
N968 H974 0.984 . S
N968 H975 0.984 . S
N969 C962 1.356 . S
N969 H972 0.984 . S
N969 H973 0.985 . S
H970 N965 0.984 . S
H971 N965 0.985 . S
H972 N969 0.984 . S
H973 N969 0.985 . S
H974 N968 0.984 . S
H975 N968 0.984 . S
H976 N964 0.984 . S
H977 N964 0.985 . S
C978 C979 1.363 . S
C978 C984 1.379 . S
C978 N986 1.356 . S
C979 C978 1.363 . S
C979 C985 1.363 . S
C980 C981 1.363 . S
C980 C985 1.379 . S
C980 N987 1.356 . S
C981 C980 1.363 . S
C981 C984 1.363 . S
N982 C984 1.356 . S
N982 H994 0.984 . S
N982 H995 0.985 . S
N983 C985 1.356 . S
N983 H988 0.984 . S
N983 H989 0.985 . S
C984 C978 1.379 . S
C984 C981 1.363 . S
C984 N982 1.356 . S
C985 C979 1.363 . S
C985 C980 1.379 . S
C985 N983 1.356 . S
N986 C978 1.356 . S
N986 H992 0.984 . S
N986 H993 0.984 . S
N987 C980 1.356 . S
N987 H990 0.984 . S
N987 H991 0.985 . S
H988 N983 0.984 . S
H989 N983 0.985 . S
H990 N987 0.984 . S
H991 N987 0.985 . S
H992 N986 0.984 . S
H993 N986 0.984 . S
H994 N982 0.984 . S
H995 N982 0.985 . S
C996 C997 1.363 . S
C996 C1002 1.379 . S
C996 N1004 1.356 . S
C997 C996 1.363 . S
C997 C1003 1.363 . S
C998 C999 1.363 . S
C998 C1003 1.379 . S
C998 N1005 1.356 . S
C999 C998 1.363 . S
C999 C1002 1.363 . S
N1000 C1002 1.356 . S
N1000 H1012 0.984 . S
N1000 H1013 0.985 . S
N1001 C1003 1.356 . S
N1001 H1006 0.984 . S
N1001 H1007 0.985 . S
C1002 C996 1.379 . S
C1002 C999 1.363 . S
C1002 N1000 1.356 . S
C1003 C997 1.363 . S
C1003 C998 1.379 . S
C1003 N1001 1.356 . S
N1004 C996 1.356 . S
N1004 H1010 0.984 . S
N1004 H1011 0.984 . S
N1005 C998 1.356 . S
N1005 H1008 0.984 . S
N1005 H1009 0.985 . S
H1006 N1001 0.984 . S
H1007 N1001 0.985 . S
H1008 N1005 0.984 . S
H1009 N1005 0.985 . S
H1010 N1004 0.984 . S
H1011 N1004 0.984 . S
H1012 N1000 0.984 . S
H1013 N1000 0.985 . S
C1014 C1015 1.363 . S
C1014 C1020 1.379 . S
C1014 N1022 1.356 . S
C1015 C1014 1.363 . S
C1015 C1021 1.363 . S
C1016 C1017 1.363 . S
C1016 C1021 1.379 . S
C1016 N1023 1.356 . S
C1017 C1016 1.363 . S
C1017 C1020 1.363 . S
N1018 C1020 1.356 . S
N1018 H1030 0.984 . S
N1018 H1031 0.985 . S
N1019 C1021 1.356 . S
N1019 H1024 0.984 . S
N1019 H1025 0.985 . S
C1020 C1014 1.379 . S
C1020 C1017 1.363 . S
C1020 N1018 1.356 . S
C1021 C1015 1.363 . S
C1021 C1016 1.379 . S
C1021 N1019 1.356 . S
N1022 C1014 1.356 . S
N1022 H1028 0.984 . S
N1022 H1029 0.984 . S
N1023 C1016 1.356 . S
N1023 H1026 0.984 . S
N1023 H1027 0.985 . S
H1024 N1019 0.984 . S
H1025 N1019 0.985 . S
H1026 N1023 0.984 . S
H1027 N1023 0.985 . S
H1028 N1022 0.984 . S
H1029 N1022 0.984 . S
H1030 N1018 0.984 . S
H1031 N1018 0.985 . S
C1032 C1033 1.363 . S
C1032 C1038 1.379 . S
C1032 N1040 1.356 . S
C1033 C1032 1.363 . S
C1033 C1039 1.363 . S
C1034 C1035 1.363 . S
C1034 C1039 1.379 . S
C1034 N1041 1.356 . S
C1035 C1034 1.363 . S
C1035 C1038 1.363 . S
N1036 C1038 1.356 . S
N1036 H1048 0.984 . S
N1036 H1049 0.985 . S
N1037 C1039 1.356 . S
N1037 H1042 0.984 . S
N1037 H1043 0.985 . S
C1038 C1032 1.379 . S
C1038 C1035 1.363 . S
C1038 N1036 1.356 . S
C1039 C1033 1.363 . S
C1039 C1034 1.379 . S
C1039 N1037 1.356 . S
N1040 C1032 1.356 . S
N1040 H1046 0.984 . S
N1040 H1047 0.984 . S
N1041 C1034 1.356 . S
N1041 H1044 0.984 . S
N1041 H1045 0.985 . S
H1042 N1037 0.984 . S
H1043 N1037 0.985 . S
H1044 N1041 0.984 . S
H1045 N1041 0.985 . S
H1046 N1040 0.984 . S
H1047 N1040 0.984 . S
H1048 N1036 0.984 . S
H1049 N1036 0.985 . S
C1050 C1051 1.363 . S
C1050 C1056 1.379 . S
C1050 N1058 1.356 . S
C1051 C1050 1.363 . S
C1051 C1057 1.363 . S
C1052 C1053 1.363 . S
C1052 C1057 1.379 . S
C1052 N1059 1.356 . S
C1053 C1052 1.363 . S
C1053 C1056 1.363 . S
N1054 C1056 1.356 . S
N1054 H1066 0.984 . S
N1054 H1067 0.985 . S
N1055 C1057 1.356 . S
N1055 H1060 0.984 . S
N1055 H1061 0.985 . S
C1056 C1050 1.379 . S
C1056 C1053 1.363 . S
C1056 N1054 1.356 . S
C1057 C1051 1.363 . S
C1057 C1052 1.379 . S
C1057 N1055 1.356 . S
N1058 C1050 1.356 . S
N1058 H1064 0.984 . S
N1058 H1065 0.984 . S
N1059 C1052 1.356 . S
N1059 H1062 0.984 . S
N1059 H1063 0.985 . S
H1060 N1055 0.984 . S
H1061 N1055 0.985 . S
H1062 N1059 0.984 . S
H1063 N1059 0.985 . S
H1064 N1058 0.984 . S
H1065 N1058 0.984 . S
H1066 N1054 0.984 . S
H1067 N1054 0.985 . S
C1068 C1069 1.363 . S
C1068 C1074 1.379 . S
C1068 N1076 1.356 . S
C1069 C1068 1.363 . S
C1069 C1075 1.363 . S
C1070 C1071 1.363 . S
C1070 C1075 1.379 . S
C1070 N1077 1.356 . S
C1071 C1070 1.363 . S
C1071 C1074 1.363 . S
N1072 C1074 1.356 . S
N1072 H1084 0.984 . S
N1072 H1085 0.985 . S
N1073 C1075 1.356 . S
N1073 H1078 0.984 . S
N1073 H1079 0.985 . S
C1074 C1068 1.379 . S
C1074 C1071 1.363 . S
C1074 N1072 1.356 . S
C1075 C1069 1.363 . S
C1075 C1070 1.379 . S
C1075 N1073 1.356 . S
N1076 C1068 1.356 . S
N1076 H1082 0.984 . S
N1076 H1083 0.984 . S
N1077 C1070 1.356 . S
N1077 H1080 0.984 . S
N1077 H1081 0.985 . S
H1078 N1073 0.984 . S
H1079 N1073 0.985 . S
H1080 N1077 0.984 . S
H1081 N1077 0.985 . S
H1082 N1076 0.984 . S
H1083 N1076 0.984 . S
H1084 N1072 0.984 . S
H1085 N1072 0.985 . S
C1086 C1087 1.363 . S
C1086 C1092 1.379 . S
C1086 N1094 1.356 . S
C1087 C1086 1.363 . S
C1087 C1093 1.363 . S
C1088 C1089 1.363 . S
C1088 C1093 1.379 . S
C1088 N1095 1.356 . S
C1089 C1088 1.363 . S
C1089 C1092 1.363 . S
N1090 C1092 1.356 . S
N1090 H1102 0.984 . S
N1090 H1103 0.985 . S
N1091 C1093 1.356 . S
N1091 H1096 0.984 . S
N1091 H1097 0.985 . S
C1092 C1086 1.379 . S
C1092 C1089 1.363 . S
C1092 N1090 1.356 . S
C1093 C1087 1.363 . S
C1093 C1088 1.379 . S
C1093 N1091 1.356 . S
N1094 C1086 1.356 . S
N1094 H1100 0.984 . S
N1094 H1101 0.984 . S
N1095 C1088 1.356 . S
N1095 H1098 0.984 . S
N1095 H1099 0.985 . S
H1096 N1091 0.984 . S
H1097 N1091 0.985 . S
H1098 N1095 0.984 . S
H1099 N1095 0.985 . S
H1100 N1094 0.984 . S
H1101 N1094 0.984 . S
H1102 N1090 0.984 . S
H1103 N1090 0.985 . S
C1104 C1105 1.363 . S
C1104 C1110 1.379 . S
C1104 N1112 1.356 . S
C1105 C1104 1.363 . S
C1105 C1111 1.363 . S
C1106 C1107 1.363 . S
C1106 C1111 1.379 . S
C1106 N1113 1.356 . S
C1107 C1106 1.363 . S
C1107 C1110 1.363 . S
N1108 C1110 1.356 . S
N1108 H1120 0.984 . S
N1108 H1121 0.985 . S
N1109 C1111 1.356 . S
N1109 H1114 0.984 . S
N1109 H1115 0.985 . S
C1110 C1104 1.379 . S
C1110 C1107 1.363 . S
C1110 N1108 1.356 . S
C1111 C1105 1.363 . S
C1111 C1106 1.379 . S
C1111 N1109 1.356 . S
N1112 C1104 1.356 . S
N1112 H1118 0.984 . S
N1112 H1119 0.984 . S
N1113 C1106 1.356 . S
N1113 H1116 0.984 . S
N1113 H1117 0.985 . S
H1114 N1109 0.984 . S
H1115 N1109 0.985 . S
H1116 N1113 0.984 . S
H1117 N1113 0.985 . S
H1118 N1112 0.984 . S
H1119 N1112 0.984 . S
H1120 N1108 0.984 . S
H1121 N1108 0.985 . S
C1122 C1123 1.363 . S
C1122 C1128 1.379 . S
C1122 N1130 1.356 . S
C1123 C1122 1.363 . S
C1123 C1129 1.363 . S
C1124 C1125 1.363 . S
C1124 C1129 1.379 . S
C1124 N1131 1.356 . S
C1125 C1124 1.363 . S
C1125 C1128 1.363 . S
N1126 C1128 1.356 . S
N1126 H1138 0.984 . S
N1126 H1139 0.985 . S
N1127 C1129 1.356 . S
N1127 H1132 0.984 . S
N1127 H1133 0.985 . S
C1128 C1122 1.379 . S
C1128 C1125 1.363 . S
C1128 N1126 1.356 . S
C1129 C1123 1.363 . S
C1129 C1124 1.379 . S
C1129 N1127 1.356 . S
N1130 C1122 1.356 . S
N1130 H1136 0.984 . S
N1130 H1137 0.984 . S
N1131 C1124 1.356 . S
N1131 H1134 0.984 . S
N1131 H1135 0.985 . S
H1132 N1127 0.984 . S
H1133 N1127 0.985 . S
H1134 N1131 0.984 . S
H1135 N1131 0.985 . S
H1136 N1130 0.984 . S
H1137 N1130 0.984 . S
H1138 N1126 0.984 . S
H1139 N1126 0.985 . S
C1140 C1141 1.363 . S
C1140 C1146 1.379 . S
C1140 N1148 1.356 . S
C1141 C1140 1.363 . S
C1141 C1147 1.363 . S
C1142 C1143 1.363 . S
C1142 C1147 1.379 . S
C1142 N1149 1.356 . S
C1143 C1142 1.363 . S
C1143 C1146 1.363 . S
N1144 C1146 1.356 . S
N1144 H1156 0.984 . S
N1144 H1157 0.985 . S
N1145 C1147 1.356 . S
N1145 H1150 0.984 . S
N1145 H1151 0.985 . S
C1146 C1140 1.379 . S
C1146 C1143 1.363 . S
C1146 N1144 1.356 . S
C1147 C1141 1.363 . S
C1147 C1142 1.379 . S
C1147 N1145 1.356 . S
N1148 C1140 1.356 . S
N1148 H1154 0.984 . S
N1148 H1155 0.984 . S
N1149 C1142 1.356 . S
N1149 H1152 0.984 . S
N1149 H1153 0.985 . S
H1150 N1145 0.984 . S
H1151 N1145 0.985 . S
H1152 N1149 0.984 . S
H1153 N1149 0.985 . S
H1154 N1148 0.984 . S
H1155 N1148 0.984 . S
H1156 N1144 0.984 . S
H1157 N1144 0.985 . S
C1158 C1159 1.363 . S
C1158 C1164 1.379 . S
C1158 N1166 1.356 . S
C1159 C1158 1.363 . S
C1159 C1165 1.363 . S
C1160 C1161 1.363 . S
C1160 C1165 1.379 . S
C1160 N1167 1.356 . S
C1161 C1160 1.363 . S
C1161 C1164 1.363 . S
N1162 C1164 1.356 . S
N1162 H1174 0.984 . S
N1162 H1175 0.985 . S
N1163 C1165 1.356 . S
N1163 H1168 0.984 . S
N1163 H1169 0.985 . S
C1164 C1158 1.379 . S
C1164 C1161 1.363 . S
C1164 N1162 1.356 . S
C1165 C1159 1.363 . S
C1165 C1160 1.379 . S
C1165 N1163 1.356 . S
N1166 C1158 1.356 . S
N1166 H1172 0.984 . S
N1166 H1173 0.984 . S
N1167 C1160 1.356 . S
N1167 H1170 0.984 . S
N1167 H1171 0.985 . S
H1168 N1163 0.984 . S
H1169 N1163 0.985 . S
H1170 N1167 0.984 . S
H1171 N1167 0.985 . S
H1172 N1166 0.984 . S
H1173 N1166 0.984 . S
H1174 N1162 0.984 . S
H1175 N1162 0.985 . S
C1176 C1177 1.363 . S
C1176 C1182 1.379 . S
C1176 N1184 1.356 . S
C1177 C1176 1.363 . S
C1177 C1183 1.363 . S
C1178 C1179 1.363 . S
C1178 C1183 1.379 . S
C1178 N1185 1.356 . S
C1179 C1178 1.363 . S
C1179 C1182 1.363 . S
N1180 C1182 1.356 . S
N1180 H1192 0.984 . S
N1180 H1193 0.985 . S
N1181 C1183 1.356 . S
N1181 H1186 0.984 . S
N1181 H1187 0.985 . S
C1182 C1176 1.379 . S
C1182 C1179 1.363 . S
C1182 N1180 1.356 . S
C1183 C1177 1.363 . S
C1183 C1178 1.379 . S
C1183 N1181 1.356 . S
N1184 C1176 1.356 . S
N1184 H1190 0.984 . S
N1184 H1191 0.984 . S
N1185 C1178 1.356 . S
N1185 H1188 0.984 . S
N1185 H1189 0.985 . S
H1186 N1181 0.984 . S
H1187 N1181 0.985 . S
H1188 N1185 0.984 . S
H1189 N1185 0.985 . S
H1190 N1184 0.984 . S
H1191 N1184 0.984 . S
H1192 N1180 0.984 . S
H1193 N1180 0.985 . S
C1194 C1195 1.363 . S
C1194 C1200 1.379 . S
C1194 N1202 1.356 . S
C1195 C1194 1.363 . S
C1195 C1201 1.363 . S
C1196 C1197 1.363 . S
C1196 C1201 1.379 . S
C1196 N1203 1.356 . S
C1197 C1196 1.363 . S
C1197 C1200 1.363 . S
N1198 C1200 1.356 . S
N1198 H1210 0.984 . S
N1198 H1211 0.985 . S
N1199 C1201 1.356 . S
N1199 H1204 0.984 . S
N1199 H1205 0.985 . S
C1200 C1194 1.379 . S
C1200 C1197 1.363 . S
C1200 N1198 1.356 . S
C1201 C1195 1.363 . S
C1201 C1196 1.379 . S
C1201 N1199 1.356 . S
N1202 C1194 1.356 . S
N1202 H1208 0.984 . S
N1202 H1209 0.984 . S
N1203 C1196 1.356 . S
N1203 H1206 0.984 . S
N1203 H1207 0.985 . S
H1204 N1199 0.984 . S
H1205 N1199 0.985 . S
H1206 N1203 0.984 . S
H1207 N1203 0.985 . S
H1208 N1202 0.984 . S
H1209 N1202 0.984 . S
H1210 N1198 0.984 . S
H1211 N1198 0.985 . S
C1212 C1213 1.363 . S
C1212 C1218 1.379 . S
C1212 N1220 1.356 . S
C1213 C1212 1.363 . S
C1213 C1219 1.363 . S
C1214 C1215 1.363 . S
C1214 C1219 1.379 . S
C1214 N1221 1.356 . S
C1215 C1214 1.363 . S
C1215 C1218 1.363 . S
N1216 C1218 1.356 . S
N1216 H1228 0.984 . S
N1216 H1229 0.985 . S
N1217 C1219 1.356 . S
N1217 H1222 0.984 . S
N1217 H1223 0.985 . S
C1218 C1212 1.379 . S
C1218 C1215 1.363 . S
C1218 N1216 1.356 . S
C1219 C1213 1.363 . S
C1219 C1214 1.379 . S
C1219 N1217 1.356 . S
N1220 C1212 1.356 . S
N1220 H1226 0.984 . S
N1220 H1227 0.984 . S
N1221 C1214 1.356 . S
N1221 H1224 0.984 . S
N1221 H1225 0.985 . S
H1222 N1217 0.984 . S
H1223 N1217 0.985 . S
H1224 N1221 0.984 . S
H1225 N1221 0.985 . S
H1226 N1220 0.984 . S
H1227 N1220 0.984 . S
H1228 N1216 0.984 . S
H1229 N1216 0.985 . S
C1230 C1231 1.363 . S
C1230 C1236 1.379 . S
C1230 N1238 1.356 . S
C1231 C1230 1.363 . S
C1231 C1237 1.363 . S
C1232 C1233 1.363 . S
C1232 C1237 1.379 . S
C1232 N1239 1.356 . S
C1233 C1232 1.363 . S
C1233 C1236 1.363 . S
N1234 C1236 1.356 . S
N1234 H1246 0.984 . S
N1234 H1247 0.985 . S
N1235 C1237 1.356 . S
N1235 H1240 0.984 . S
N1235 H1241 0.985 . S
C1236 C1230 1.379 . S
C1236 C1233 1.363 . S
C1236 N1234 1.356 . S
C1237 C1231 1.363 . S
C1237 C1232 1.379 . S
C1237 N1235 1.356 . S
N1238 C1230 1.356 . S
N1238 H1244 0.984 . S
N1238 H1245 0.984 . S
N1239 C1232 1.356 . S
N1239 H1242 0.984 . S
N1239 H1243 0.985 . S
H1240 N1235 0.984 . S
H1241 N1235 0.985 . S
H1242 N1239 0.984 . S
H1243 N1239 0.985 . S
H1244 N1238 0.984 . S
H1245 N1238 0.984 . S
H1246 N1234 0.984 . S
H1247 N1234 0.985 . S
C1248 C1249 1.363 . S
C1248 C1254 1.379 . S
C1248 N1256 1.356 . S
C1249 C1248 1.363 . S
C1249 C1255 1.363 . S
C1250 C1251 1.363 . S
C1250 C1255 1.379 . S
C1250 N1257 1.356 . S
C1251 C1250 1.363 . S
C1251 C1254 1.363 . S
N1252 C1254 1.356 . S
N1252 H1264 0.984 . S
N1252 H1265 0.985 . S
N1253 C1255 1.356 . S
N1253 H1258 0.984 . S
N1253 H1259 0.985 . S
C1254 C1248 1.379 . S
C1254 C1251 1.363 . S
C1254 N1252 1.356 . S
C1255 C1249 1.363 . S
C1255 C1250 1.379 . S
C1255 N1253 1.356 . S
N1256 C1248 1.356 . S
N1256 H1262 0.984 . S
N1256 H1263 0.984 . S
N1257 C1250 1.356 . S
N1257 H1260 0.984 . S
N1257 H1261 0.985 . S
H1258 N1253 0.984 . S
H1259 N1253 0.985 . S
H1260 N1257 0.984 . S
H1261 N1257 0.985 . S
H1262 N1256 0.984 . S
H1263 N1256 0.984 . S
H1264 N1252 0.984 . S
H1265 N1252 0.985 . S
C1266 C1267 1.363 . S
C1266 C1272 1.379 . S
C1266 N1274 1.356 . S
C1267 C1266 1.363 . S
C1267 C1273 1.363 . S
C1268 C1269 1.363 . S
C1268 C1273 1.379 . S
C1268 N1275 1.356 . S
C1269 C1268 1.363 . S
C1269 C1272 1.363 . S
N1270 C1272 1.356 . S
N1270 H1282 0.984 . S
N1270 H1283 0.985 . S
N1271 C1273 1.356 . S
N1271 H1276 0.984 . S
N1271 H1277 0.985 . S
C1272 C1266 1.379 . S
C1272 C1269 1.363 . S
C1272 N1270 1.356 . S
C1273 C1267 1.363 . S
C1273 C1268 1.379 . S
C1273 N1271 1.356 . S
N1274 C1266 1.356 . S
N1274 H1280 0.984 . S
N1274 H1281 0.984 . S
N1275 C1268 1.356 . S
N1275 H1278 0.984 . S
N1275 H1279 0.985 . S
H1276 N1271 0.984 . S
H1277 N1271 0.985 . S
H1278 N1275 0.984 . S
H1279 N1275 0.985 . S
H1280 N1274 0.984 . S
H1281 N1274 0.984 . S
H1282 N1270 0.984 . S
H1283 N1270 0.985 . S
C1284 C1285 1.363 . S
C1284 C1290 1.379 . S
C1284 N1292 1.356 . S
C1285 C1284 1.363 . S
C1285 C1291 1.363 . S
C1286 C1287 1.363 . S
C1286 C1291 1.379 . S
C1286 N1293 1.356 . S
C1287 C1286 1.363 . S
C1287 C1290 1.363 . S
N1288 C1290 1.356 . S
N1288 H1300 0.984 . S
N1288 H1301 0.985 . S
N1289 C1291 1.356 . S
N1289 H1294 0.984 . S
N1289 H1295 0.985 . S
C1290 C1284 1.379 . S
C1290 C1287 1.363 . S
C1290 N1288 1.356 . S
C1291 C1285 1.363 . S
C1291 C1286 1.379 . S
C1291 N1289 1.356 . S
N1292 C1284 1.356 . S
N1292 H1298 0.984 . S
N1292 H1299 0.984 . S
N1293 C1286 1.356 . S
N1293 H1296 0.984 . S
N1293 H1297 0.985 . S
H1294 N1289 0.984 . S
H1295 N1289 0.985 . S
H1296 N1293 0.984 . S
H1297 N1293 0.985 . S
H1298 N1292 0.984 . S
H1299 N1292 0.984 . S
H1300 N1288 0.984 . S
H1301 N1288 0.985 . S
C1302 C1303 1.363 . S
C1302 C1308 1.379 . S
C1302 N1310 1.356 . S
C1303 C1302 1.363 . S
C1303 C1309 1.363 . S
C1304 C1305 1.363 . S
C1304 C1309 1.379 . S
C1304 N1311 1.356 . S
C1305 C1304 1.363 . S
C1305 C1308 1.363 . S
N1306 C1308 1.356 . S
N1306 H1318 0.984 . S
N1306 H1319 0.985 . S
N1307 C1309 1.356 . S
N1307 H1312 0.984 . S
N1307 H1313 0.985 . S
C1308 C1302 1.379 . S
C1308 C1305 1.363 . S
C1308 N1306 1.356 . S
C1309 C1303 1.363 . S
C1309 C1304 1.379 . S
C1309 N1307 1.356 . S
N1310 C1302 1.356 . S
N1310 H1316 0.984 . S
N1310 H1317 0.984 . S
N1311 C1304 1.356 . S
N1311 H1314 0.984 . S
N1311 H1315 0.985 . S
H1312 N1307 0.984 . S
H1313 N1307 0.985 . S
H1314 N1311 0.984 . S
H1315 N1311 0.985 . S
H1316 N1310 0.984 . S
H1317 N1310 0.984 . S
H1318 N1306 0.984 . S
H1319 N1306 0.985 . S
C1320 C1321 1.363 . S
C1320 C1326 1.379 . S
C1320 N1328 1.356 . S
C1321 C1320 1.363 . S
C1321 C1327 1.363 . S
C1322 C1323 1.363 . S
C1322 C1327 1.379 . S
C1322 N1329 1.356 . S
C1323 C1322 1.363 . S
C1323 C1326 1.363 . S
N1324 C1326 1.356 . S
N1324 H1336 0.984 . S
N1324 H1337 0.985 . S
N1325 C1327 1.356 . S
N1325 H1330 0.984 . S
N1325 H1331 0.985 . S
C1326 C1320 1.379 . S
C1326 C1323 1.363 . S
C1326 N1324 1.356 . S
C1327 C1321 1.363 . S
C1327 C1322 1.379 . S
C1327 N1325 1.356 . S
N1328 C1320 1.356 . S
N1328 H1334 0.984 . S
N1328 H1335 0.984 . S
N1329 C1322 1.356 . S
N1329 H1332 0.984 . S
N1329 H1333 0.985 . S
H1330 N1325 0.984 . S
H1331 N1325 0.985 . S
H1332 N1329 0.984 . S
H1333 N1329 0.985 . S
H1334 N1328 0.984 . S
H1335 N1328 0.984 . S
H1336 N1324 0.984 . S
H1337 N1324 0.985 . S
C1338 C1339 1.363 . S
C1338 C1344 1.379 . S
C1338 N1346 1.356 . S
C1339 C1338 1.363 . S
C1339 C1345 1.363 . S
C1340 C1341 1.363 . S
C1340 C1345 1.379 . S
C1340 N1347 1.356 . S
C1341 C1340 1.363 . S
C1341 C1344 1.363 . S
N1342 C1344 1.356 . S
N1342 H1354 0.984 . S
N1342 H1355 0.985 . S
N1343 C1345 1.356 . S
N1343 H1348 0.984 . S
N1343 H1349 0.985 . S
C1344 C1338 1.379 . S
C1344 C1341 1.363 . S
C1344 N1342 1.356 . S
C1345 C1339 1.363 . S
C1345 C1340 1.379 . S
C1345 N1343 1.356 . S
N1346 C1338 1.356 . S
N1346 H1352 0.984 . S
N1346 H1353 0.984 . S
N1347 C1340 1.356 . S
N1347 H1350 0.984 . S
N1347 H1351 0.985 . S
H1348 N1343 0.984 . S
H1349 N1343 0.985 . S
H1350 N1347 0.984 . S
H1351 N1347 0.985 . S
H1352 N1346 0.984 . S
H1353 N1346 0.984 . S
H1354 N1342 0.984 . S
H1355 N1342 0.985 . S
C1356 C1357 1.363 . S
C1356 C1362 1.379 . S
C1356 N1364 1.356 . S
C1357 C1356 1.363 . S
C1357 C1363 1.363 . S
C1358 C1359 1.363 . S
C1358 C1363 1.379 . S
C1358 N1365 1.356 . S
C1359 C1358 1.363 . S
C1359 C1362 1.363 . S
N1360 C1362 1.356 . S
N1360 H1372 0.984 . S
N1360 H1373 0.985 . S
N1361 C1363 1.356 . S
N1361 H1366 0.984 . S
N1361 H1367 0.985 . S
C1362 C1356 1.379 . S
C1362 C1359 1.363 . S
C1362 N1360 1.356 . S
C1363 C1357 1.363 . S
C1363 C1358 1.379 . S
C1363 N1361 1.356 . S
N1364 C1356 1.356 . S
N1364 H1370 0.984 . S
N1364 H1371 0.984 . S
N1365 C1358 1.356 . S
N1365 H1368 0.984 . S
N1365 H1369 0.985 . S
H1366 N1361 0.984 . S
H1367 N1361 0.985 . S
H1368 N1365 0.984 . S
H1369 N1365 0.985 . S
H1370 N1364 0.984 . S
H1371 N1364 0.984 . S
H1372 N1360 0.984 . S
H1373 N1360 0.985 . S
C1374 C1375 1.363 . S
C1374 C1380 1.379 . S
C1374 N1382 1.356 . S
C1375 C1374 1.363 . S
C1375 C1381 1.363 . S
C1376 C1377 1.363 . S
C1376 C1381 1.379 . S
C1376 N1383 1.356 . S
C1377 C1376 1.363 . S
C1377 C1380 1.363 . S
N1378 C1380 1.356 . S
N1378 H1390 0.984 . S
N1378 H1391 0.985 . S
N1379 C1381 1.356 . S
N1379 H1384 0.984 . S
N1379 H1385 0.985 . S
C1380 C1374 1.379 . S
C1380 C1377 1.363 . S
C1380 N1378 1.356 . S
C1381 C1375 1.363 . S
C1381 C1376 1.379 . S
C1381 N1379 1.356 . S
N1382 C1374 1.356 . S
N1382 H1388 0.984 . S
N1382 H1389 0.984 . S
N1383 C1376 1.356 . S
N1383 H1386 0.984 . S
N1383 H1387 0.985 . S
H1384 N1379 0.984 . S
H1385 N1379 0.985 . S
H1386 N1383 0.984 . S
H1387 N1383 0.985 . S
H1388 N1382 0.984 . S
H1389 N1382 0.984 . S
H1390 N1378 0.984 . S
H1391 N1378 0.985 . S
C1392 C1393 1.363 . S
C1392 C1398 1.379 . S
C1392 N1400 1.356 . S
C1393 C1392 1.363 . S
C1393 C1399 1.363 . S
C1394 C1395 1.363 . S
C1394 C1399 1.379 . S
C1394 N1401 1.356 . S
C1395 C1394 1.363 . S
C1395 C1398 1.363 . S
N1396 C1398 1.356 . S
N1396 H1408 0.984 . S
N1396 H1409 0.985 . S
N1397 C1399 1.356 . S
N1397 H1402 0.984 . S
N1397 H1403 0.985 . S
C1398 C1392 1.379 . S
C1398 C1395 1.363 . S
C1398 N1396 1.356 . S
C1399 C1393 1.363 . S
C1399 C1394 1.379 . S
C1399 N1397 1.356 . S
N1400 C1392 1.356 . S
N1400 H1406 0.984 . S
N1400 H1407 0.984 . S
N1401 C1394 1.356 . S
N1401 H1404 0.984 . S
N1401 H1405 0.985 . S
H1402 N1397 0.984 . S
H1403 N1397 0.985 . S
H1404 N1401 0.984 . S
H1405 N1401 0.985 . S
H1406 N1400 0.984 . S
H1407 N1400 0.984 . S
H1408 N1396 0.984 . S
H1409 N1396 0.985 . S
C1410 C1411 1.363 . S
C1410 C1416 1.379 . S
C1410 N1418 1.356 . S
C1411 C1410 1.363 . S
C1411 C1417 1.363 . S
C1412 C1413 1.363 . S
C1412 C1417 1.379 . S
C1412 N1419 1.356 . S
C1413 C1412 1.363 . S
C1413 C1416 1.363 . S
N1414 C1416 1.356 . S
N1414 H1426 0.984 . S
N1414 H1427 0.985 . S
N1415 C1417 1.356 . S
N1415 H1420 0.984 . S
N1415 H1421 0.985 . S
C1416 C1410 1.379 . S
C1416 C1413 1.363 . S
C1416 N1414 1.356 . S
C1417 C1411 1.363 . S
C1417 C1412 1.379 . S
C1417 N1415 1.356 . S
N1418 C1410 1.356 . S
N1418 H1424 0.984 . S
N1418 H1425 0.984 . S
N1419 C1412 1.356 . S
N1419 H1422 0.984 . S
N1419 H1423 0.985 . S
H1420 N1415 0.984 . S
H1421 N1415 0.985 . S
H1422 N1419 0.984 . S
H1423 N1419 0.985 . S
H1424 N1418 0.984 . S
H1425 N1418 0.984 . S
H1426 N1414 0.984 . S
H1427 N1414 0.985 . S
C1428 C1429 1.363 . S
C1428 C1434 1.379 . S
C1428 N1436 1.356 . S
C1429 C1428 1.363 . S
C1429 C1435 1.363 . S
C1430 C1431 1.363 . S
C1430 C1435 1.379 . S
C1430 N1437 1.356 . S
C1431 C1430 1.363 . S
C1431 C1434 1.363 . S
N1432 C1434 1.356 . S
N1432 H1444 0.984 . S
N1432 H1445 0.985 . S
N1433 C1435 1.356 . S
N1433 H1438 0.984 . S
N1433 H1439 0.985 . S
C1434 C1428 1.379 . S
C1434 C1431 1.363 . S
C1434 N1432 1.356 . S
C1435 C1429 1.363 . S
C1435 C1430 1.379 . S
C1435 N1433 1.356 . S
N1436 C1428 1.356 . S
N1436 H1442 0.984 . S
N1436 H1443 0.984 . S
N1437 C1430 1.356 . S
N1437 H1440 0.984 . S
N1437 H1441 0.985 . S
H1438 N1433 0.984 . S
H1439 N1433 0.985 . S
H1440 N1437 0.984 . S
H1441 N1437 0.985 . S
H1442 N1436 0.984 . S
H1443 N1436 0.984 . S
H1444 N1432 0.984 . S
H1445 N1432 0.985 . S
C1446 C1447 1.363 . S
C1446 C1452 1.379 . S
C1446 N1454 1.356 . S
C1447 C1446 1.363 . S
C1447 C1453 1.363 . S
C1448 C1449 1.363 . S
C1448 C1453 1.379 . S
C1448 N1455 1.356 . S
C1449 C1448 1.363 . S
C1449 C1452 1.363 . S
N1450 C1452 1.356 . S
N1450 H1462 0.984 . S
N1450 H1463 0.985 . S
N1451 C1453 1.356 . S
N1451 H1456 0.984 . S
N1451 H1457 0.985 . S
C1452 C1446 1.379 . S
C1452 C1449 1.363 . S
C1452 N1450 1.356 . S
C1453 C1447 1.363 . S
C1453 C1448 1.379 . S
C1453 N1451 1.356 . S
N1454 C1446 1.356 . S
N1454 H1460 0.984 . S
N1454 H1461 0.984 . S
N1455 C1448 1.356 . S
N1455 H1458 0.984 . S
N1455 H1459 0.985 . S
H1456 N1451 0.984 . S
H1457 N1451 0.985 . S
H1458 N1455 0.984 . S
H1459 N1455 0.985 . S
H1460 N1454 0.984 . S
H1461 N1454 0.984 . S
H1462 N1450 0.984 . S
H1463 N1450 0.985 . S
C1464 C1465 1.363 . S
C1464 C1470 1.379 . S
C1464 N1472 1.356 . S
C1465 C1464 1.363 . S
C1465 C1471 1.363 . S
C1466 C1467 1.363 . S
C1466 C1471 1.379 . S
C1466 N1473 1.356 . S
C1467 C1466 1.363 . S
C1467 C1470 1.363 . S
N1468 C1470 1.356 . S
N1468 H1480 0.984 . S
N1468 H1481 0.985 . S
N1469 C1471 1.356 . S
N1469 H1474 0.984 . S
N1469 H1475 0.985 . S
C1470 C1464 1.379 . S
C1470 C1467 1.363 . S
C1470 N1468 1.356 . S
C1471 C1465 1.363 . S
C1471 C1466 1.379 . S
C1471 N1469 1.356 . S
N1472 C1464 1.356 . S
N1472 H1478 0.984 . S
N1472 H1479 0.984 . S
N1473 C1466 1.356 . S
N1473 H1476 0.984 . S
N1473 H1477 0.985 . S
H1474 N1469 0.984 . S
H1475 N1469 0.985 . S
H1476 N1473 0.984 . S
H1477 N1473 0.985 . S
H1478 N1472 0.984 . S
H1479 N1472 0.984 . S
H1480 N1468 0.984 . S
H1481 N1468 0.985 . S
C1482 C1483 1.363 . S
C1482 C1488 1.379 . S
C1482 N1490 1.356 . S
C1483 C1482 1.363 . S
C1483 C1489 1.363 . S
C1484 C1485 1.363 . S
C1484 C1489 1.379 . S
C1484 N1491 1.356 . S
C1485 C1484 1.363 . S
C1485 C1488 1.363 . S
N1486 C1488 1.356 . S
N1486 H1498 0.984 . S
N1486 H1499 0.985 . S
N1487 C1489 1.356 . S
N1487 H1492 0.984 . S
N1487 H1493 0.985 . S
C1488 C1482 1.379 . S
C1488 C1485 1.363 . S
C1488 N1486 1.356 . S
C1489 C1483 1.363 . S
C1489 C1484 1.379 . S
C1489 N1487 1.356 . S
N1490 C1482 1.356 . S
N1490 H1496 0.984 . S
N1490 H1497 0.984 . S
N1491 C1484 1.356 . S
N1491 H1494 0.984 . S
N1491 H1495 0.985 . S
H1492 N1487 0.984 . S
H1493 N1487 0.985 . S
H1494 N1491 0.984 . S
H1495 N1491 0.985 . S
H1496 N1490 0.984 . S
H1497 N1490 0.984 . S
H1498 N1486 0.984 . S
H1499 N1486 0.985 . S
C1500 C1501 1.363 . S
C1500 C1506 1.379 . S
C1500 N1508 1.356 . S
C1501 C1500 1.363 . S
C1501 C1507 1.363 . S
C1502 C1503 1.363 . S
C1502 C1507 1.379 . S
C1502 N1509 1.356 . S
C1503 C1502 1.363 . S
C1503 C1506 1.363 . S
N1504 C1506 1.356 . S
N1504 H1516 0.984 . S
N1504 H1517 0.985 . S
N1505 C1507 1.356 . S
N1505 H1510 0.984 . S
N1505 H1511 0.985 . S
C1506 C1500 1.379 . S
C1506 C1503 1.363 . S
C1506 N1504 1.356 . S
C1507 C1501 1.363 . S
C1507 C1502 1.379 . S
C1507 N1505 1.356 . S
N1508 C1500 1.356 . S
N1508 H1514 0.984 . S
N1508 H1515 0.984 . S
N1509 C1502 1.356 . S
N1509 H1512 0.984 . S
N1509 H1513 0.985 . S
H1510 N1505 0.984 . S
H1511 N1505 0.985 . S
H1512 N1509 0.984 . S
H1513 N1509 0.985 . S
H1514 N1508 0.984 . S
H1515 N1508 0.984 . S
H1516 N1504 0.984 . S
H1517 N1504 0.985 . S
C1518 C1519 1.363 . S
C1518 C1524 1.379 . S
C1518 N1526 1.356 . S
C1519 C1518 1.363 . S
C1519 C1525 1.363 . S
C1520 C1521 1.363 . S
C1520 C1525 1.379 . S
C1520 N1527 1.356 . S
C1521 C1520 1.363 . S
C1521 C1524 1.363 . S
N1522 C1524 1.356 . S
N1522 H1534 0.984 . S
N1522 H1535 0.985 . S
N1523 C1525 1.356 . S
N1523 H1528 0.984 . S
N1523 H1529 0.985 . S
C1524 C1518 1.379 . S
C1524 C1521 1.363 . S
C1524 N1522 1.356 . S
C1525 C1519 1.363 . S
C1525 C1520 1.379 . S
C1525 N1523 1.356 . S
N1526 C1518 1.356 . S
N1526 H1532 0.984 . S
N1526 H1533 0.984 . S
N1527 C1520 1.356 . S
N1527 H1530 0.984 . S
N1527 H1531 0.985 . S
H1528 N1523 0.984 . S
H1529 N1523 0.985 . S
H1530 N1527 0.984 . S
H1531 N1527 0.985 . S
H1532 N1526 0.984 . S
H1533 N1526 0.984 . S
H1534 N1522 0.984 . S
H1535 N1522 0.985 . S
C1536 C1537 1.363 . S
C1536 C1542 1.379 . S
C1536 N1544 1.356 . S
C1537 C1536 1.363 . S
C1537 C1543 1.363 . S
C1538 C1539 1.363 . S
C1538 C1543 1.379 . S
C1538 N1545 1.356 . S
C1539 C1538 1.363 . S
C1539 C1542 1.363 . S
N1540 C1542 1.356 . S
N1540 H1552 0.984 . S
N1540 H1553 0.985 . S
N1541 C1543 1.356 . S
N1541 H1546 0.984 . S
N1541 H1547 0.985 . S
C1542 C1536 1.379 . S
C1542 C1539 1.363 . S
C1542 N1540 1.356 . S
C1543 C1537 1.363 . S
C1543 C1538 1.379 . S
C1543 N1541 1.356 . S
N1544 C1536 1.356 . S
N1544 H1550 0.984 . S
N1544 H1551 0.984 . S
N1545 C1538 1.356 . S
N1545 H1548 0.984 . S
N1545 H1549 0.985 . S
H1546 N1541 0.984 . S
H1547 N1541 0.985 . S
H1548 N1545 0.984 . S
H1549 N1545 0.985 . S
H1550 N1544 0.984 . S
H1551 N1544 0.984 . S
H1552 N1540 0.984 . S
H1553 N1540 0.985 . S
C1554 C1555 1.363 . S
C1554 C1560 1.379 . S
C1554 N1562 1.356 . S
C1555 C1554 1.363 . S
C1555 C1561 1.363 . S
C1556 C1557 1.363 . S
C1556 C1561 1.379 . S
C1556 N1563 1.356 . S
C1557 C1556 1.363 . S
C1557 C1560 1.363 . S
N1558 C1560 1.356 . S
N1558 H1570 0.984 . S
N1558 H1571 0.985 . S
N1559 C1561 1.356 . S
N1559 H1564 0.984 . S
N1559 H1565 0.985 . S
C1560 C1554 1.379 . S
C1560 C1557 1.363 . S
C1560 N1558 1.356 . S
C1561 C1555 1.363 . S
C1561 C1556 1.379 . S
C1561 N1559 1.356 . S
N1562 C1554 1.356 . S
N1562 H1568 0.984 . S
N1562 H1569 0.984 . S
N1563 C1556 1.356 . S
N1563 H1566 0.984 . S
N1563 H1567 0.985 . S
H1564 N1559 0.984 . S
H1565 N1559 0.985 . S
H1566 N1563 0.984 . S
H1567 N1563 0.985 . S
H1568 N1562 0.984 . S
H1569 N1562 0.984 . S
H1570 N1558 0.984 . S
H1571 N1558 0.985 . S
C1572 C1573 1.363 . S
C1572 C1578 1.379 . S
C1572 N1580 1.356 . S
C1573 C1572 1.363 . S
C1573 C1579 1.363 . S
C1574 C1575 1.363 . S
C1574 C1579 1.379 . S
C1574 N1581 1.356 . S
C1575 C1574 1.363 . S
C1575 C1578 1.363 . S
N1576 C1578 1.356 . S
N1576 H1588 0.984 . S
N1576 H1589 0.985 . S
N1577 C1579 1.356 . S
N1577 H1582 0.984 . S
N1577 H1583 0.985 . S
C1578 C1572 1.379 . S
C1578 C1575 1.363 . S
C1578 N1576 1.356 . S
C1579 C1573 1.363 . S
C1579 C1574 1.379 . S
C1579 N1577 1.356 . S
N1580 C1572 1.356 . S
N1580 H1586 0.984 . S
N1580 H1587 0.984 . S
N1581 C1574 1.356 . S
N1581 H1584 0.984 . S
N1581 H1585 0.985 . S
H1582 N1577 0.984 . S
H1583 N1577 0.985 . S
H1584 N1581 0.984 . S
H1585 N1581 0.985 . S
H1586 N1580 0.984 . S
H1587 N1580 0.984 . S
H1588 N1576 0.984 . S
H1589 N1576 0.985 . S
C1590 C1591 1.363 . S
C1590 C1596 1.379 . S
C1590 N1598 1.356 . S
C1591 C1590 1.363 . S
C1591 C1597 1.363 . S
C1592 C1593 1.363 . S
C1592 C1597 1.379 . S
C1592 N1599 1.356 . S
C1593 C1592 1.363 . S
C1593 C1596 1.363 . S
N1594 C1596 1.356 . S
N1594 H1606 0.984 . S
N1594 H1607 0.985 . S
N1595 C1597 1.356 . S
N1595 H1600 0.984 . S
N1595 H1601 0.985 . S
C1596 C1590 1.379 . S
C1596 C1593 1.363 . S
C1596 N1594 1.356 . S
C1597 C1591 1.363 . S
C1597 C1592 1.379 . S
C1597 N1595 1.356 . S
N1598 C1590 1.356 . S
N1598 H1604 0.984 . S
N1598 H1605 0.984 . S
N1599 C1592 1.356 . S
N1599 H1602 0.984 . S
N1599 H1603 0.985 . S
H1600 N1595 0.984 . S
H1601 N1595 0.985 . S
H1602 N1599 0.984 . S
H1603 N1599 0.985 . S
H1604 N1598 0.984 . S
H1605 N1598 0.984 . S
H1606 N1594 0.984 . S
H1607 N1594 0.985 . S
C1608 C1609 1.363 . S
C1608 C1614 1.379 . S
C1608 N1616 1.356 . S
C1609 C1608 1.363 . S
C1609 C1615 1.363 . S
C1610 C1611 1.363 . S
C1610 C1615 1.379 . S
C1610 N1617 1.356 . S
C1611 C1610 1.363 . S
C1611 C1614 1.363 . S
N1612 C1614 1.356 . S
N1612 H1624 0.984 . S
N1612 H1625 0.985 . S
N1613 C1615 1.356 . S
N1613 H1618 0.984 . S
N1613 H1619 0.985 . S
C1614 C1608 1.379 . S
C1614 C1611 1.363 . S
C1614 N1612 1.356 . S
C1615 C1609 1.363 . S
C1615 C1610 1.379 . S
C1615 N1613 1.356 . S
N1616 C1608 1.356 . S
N1616 H1622 0.984 . S
N1616 H1623 0.984 . S
N1617 C1610 1.356 . S
N1617 H1620 0.984 . S
N1617 H1621 0.985 . S
H1618 N1613 0.984 . S
H1619 N1613 0.985 . S
H1620 N1617 0.984 . S
H1621 N1617 0.985 . S
H1622 N1616 0.984 . S
H1623 N1616 0.984 . S
H1624 N1612 0.984 . S
H1625 N1612 0.985 . S
C1626 C1627 1.363 . S
C1626 C1632 1.379 . S
C1626 N1634 1.356 . S
C1627 C1626 1.363 . S
C1627 C1633 1.363 . S
C1628 C1629 1.363 . S
C1628 C1633 1.379 . S
C1628 N1635 1.356 . S
C1629 C1628 1.363 . S
C1629 C1632 1.363 . S
N1630 C1632 1.356 . S
N1630 H1642 0.984 . S
N1630 H1643 0.985 . S
N1631 C1633 1.356 . S
N1631 H1636 0.984 . S
N1631 H1637 0.985 . S
C1632 C1626 1.379 . S
C1632 C1629 1.363 . S
C1632 N1630 1.356 . S
C1633 C1627 1.363 . S
C1633 C1628 1.379 . S
C1633 N1631 1.356 . S
N1634 C1626 1.356 . S
N1634 H1640 0.984 . S
N1634 H1641 0.984 . S
N1635 C1628 1.356 . S
N1635 H1638 0.984 . S
N1635 H1639 0.985 . S
H1636 N1631 0.984 . S
H1637 N1631 0.985 . S
H1638 N1635 0.984 . S
H1639 N1635 0.985 . S
H1640 N1634 0.984 . S
H1641 N1634 0.984 . S
H1642 N1630 0.984 . S
H1643 N1630 0.985 . S
C1644 C1645 1.363 . S
C1644 C1650 1.379 . S
C1644 N1652 1.356 . S
C1645 C1644 1.363 . S
C1645 C1651 1.363 . S
C1646 C1647 1.363 . S
C1646 C1651 1.379 . S
C1646 N1653 1.356 . S
C1647 C1646 1.363 . S
C1647 C1650 1.363 . S
N1648 C1650 1.356 . S
N1648 H1660 0.984 . S
N1648 H1661 0.985 . S
N1649 C1651 1.356 . S
N1649 H1654 0.984 . S
N1649 H1655 0.985 . S
C1650 C1644 1.379 . S
C1650 C1647 1.363 . S
C1650 N1648 1.356 . S
C1651 C1645 1.363 . S
C1651 C1646 1.379 . S
C1651 N1649 1.356 . S
N1652 C1644 1.356 . S
N1652 H1658 0.984 . S
N1652 H1659 0.984 . S
N1653 C1646 1.356 . S
N1653 H1656 0.984 . S
N1653 H1657 0.985 . S
H1654 N1649 0.984 . S
H1655 N1649 0.985 . S
H1656 N1653 0.984 . S
H1657 N1653 0.985 . S
H1658 N1652 0.984 . S
H1659 N1652 0.984 . S
H1660 N1648 0.984 . S
H1661 N1648 0.985 . S
C1662 C1663 1.363 . S
C1662 C1668 1.379 . S
C1662 N1670 1.356 . S
C1663 C1662 1.363 . S
C1663 C1669 1.363 . S
C1664 C1665 1.363 . S
C1664 C1669 1.379 . S
C1664 N1671 1.356 . S
C1665 C1664 1.363 . S
C1665 C1668 1.363 . S
N1666 C1668 1.356 . S
N1666 H1678 0.984 . S
N1666 H1679 0.985 . S
N1667 C1669 1.356 . S
N1667 H1672 0.984 . S
N1667 H1673 0.985 . S
C1668 C1662 1.379 . S
C1668 C1665 1.363 . S
C1668 N1666 1.356 . S
C1669 C1663 1.363 . S
C1669 C1664 1.379 . S
C1669 N1667 1.356 . S
N1670 C1662 1.356 . S
N1670 H1676 0.984 . S
N1670 H1677 0.984 . S
N1671 C1664 1.356 . S
N1671 H1674 0.984 . S
N1671 H1675 0.985 . S
H1672 N1667 0.984 . S
H1673 N1667 0.985 . S
H1674 N1671 0.984 . S
H1675 N1671 0.985 . S
H1676 N1670 0.984 . S
H1677 N1670 0.984 . S
H1678 N1666 0.984 . S
H1679 N1666 0.985 . S
C1680 C1681 1.363 . S
C1680 C1686 1.379 . S
C1680 N1688 1.356 . S
C1681 C1680 1.363 . S
C1681 C1687 1.363 . S
C1682 C1683 1.363 . S
C1682 C1687 1.379 . S
C1682 N1689 1.356 . S
C1683 C1682 1.363 . S
C1683 C1686 1.363 . S
N1684 C1686 1.356 . S
N1684 H1696 0.984 . S
N1684 H1697 0.985 . S
N1685 C1687 1.356 . S
N1685 H1690 0.984 . S
N1685 H1691 0.985 . S
C1686 C1680 1.379 . S
C1686 C1683 1.363 . S
C1686 N1684 1.356 . S
C1687 C1681 1.363 . S
C1687 C1682 1.379 . S
C1687 N1685 1.356 . S
N1688 C1680 1.356 . S
N1688 H1694 0.984 . S
N1688 H1695 0.984 . S
N1689 C1682 1.356 . S
N1689 H1692 0.984 . S
N1689 H1693 0.985 . S
H1690 N1685 0.984 . S
H1691 N1685 0.985 . S
H1692 N1689 0.984 . S
H1693 N1689 0.985 . S
H1694 N1688 0.984 . S
H1695 N1688 0.984 . S
H1696 N1684 0.984 . S
H1697 N1684 0.985 . S
C1698 C1699 1.363 . S
C1698 C1704 1.379 . S
C1698 N1706 1.356 . S
C1699 C1698 1.363 . S
C1699 C1705 1.363 . S
C1700 C1701 1.363 . S
C1700 C1705 1.379 . S
C1700 N1707 1.356 . S
C1701 C1700 1.363 . S
C1701 C1704 1.363 . S
N1702 C1704 1.356 . S
N1702 H1714 0.984 . S
N1702 H1715 0.985 . S
N1703 C1705 1.356 . S
N1703 H1708 0.984 . S
N1703 H1709 0.985 . S
C1704 C1698 1.379 . S
C1704 C1701 1.363 . S
C1704 N1702 1.356 . S
C1705 C1699 1.363 . S
C1705 C1700 1.379 . S
C1705 N1703 1.356 . S
N1706 C1698 1.356 . S
N1706 H1712 0.984 . S
N1706 H1713 0.984 . S
N1707 C1700 1.356 . S
N1707 H1710 0.984 . S
N1707 H1711 0.985 . S
H1708 N1703 0.984 . S
H1709 N1703 0.985 . S
H1710 N1707 0.984 . S
H1711 N1707 0.985 . S
H1712 N1706 0.984 . S
H1713 N1706 0.984 . S
H1714 N1702 0.984 . S
H1715 N1702 0.985 . S
C1716 C1717 1.363 . S
C1716 C1722 1.379 . S
C1716 N1724 1.356 . S
C1717 C1716 1.363 . S
C1717 C1723 1.363 . S
C1718 C1719 1.363 . S
C1718 C1723 1.379 . S
C1718 N1725 1.356 . S
C1719 C1718 1.363 . S
C1719 C1722 1.363 . S
N1720 C1722 1.356 . S
N1720 H1732 0.984 . S
N1720 H1733 0.985 . S
N1721 C1723 1.356 . S
N1721 H1726 0.984 . S
N1721 H1727 0.985 . S
C1722 C1716 1.379 . S
C1722 C1719 1.363 . S
C1722 N1720 1.356 . S
C1723 C1717 1.363 . S
C1723 C1718 1.379 . S
C1723 N1721 1.356 . S
N1724 C1716 1.356 . S
N1724 H1730 0.984 . S
N1724 H1731 0.984 . S
N1725 C1718 1.356 . S
N1725 H1728 0.984 . S
N1725 H1729 0.985 . S
H1726 N1721 0.984 . S
H1727 N1721 0.985 . S
H1728 N1725 0.984 . S
H1729 N1725 0.985 . S
H1730 N1724 0.984 . S
H1731 N1724 0.984 . S
H1732 N1720 0.984 . S
H1733 N1720 0.985 . S
C1734 C1735 1.363 . S
C1734 C1740 1.379 . S
C1734 N1742 1.356 . S
C1735 C1734 1.363 . S
C1735 C1741 1.363 . S
C1736 C1737 1.363 . S
C1736 C1741 1.379 . S
C1736 N1743 1.356 . S
C1737 C1736 1.363 . S
C1737 C1740 1.363 . S
N1738 C1740 1.356 . S
N1738 H1750 0.984 . S
N1738 H1751 0.985 . S
N1739 C1741 1.356 . S
N1739 H1744 0.984 . S
N1739 H1745 0.985 . S
C1740 C1734 1.379 . S
C1740 C1737 1.363 . S
C1740 N1738 1.356 . S
C1741 C1735 1.363 . S
C1741 C1736 1.379 . S
C1741 N1739 1.356 . S
N1742 C1734 1.356 . S
N1742 H1748 0.984 . S
N1742 H1749 0.984 . S
N1743 C1736 1.356 . S
N1743 H1746 0.984 . S
N1743 H1747 0.985 . S
H1744 N1739 0.984 . S
H1745 N1739 0.985 . S
H1746 N1743 0.984 . S
H1747 N1743 0.985 . S
H1748 N1742 0.984 . S
H1749 N1742 0.984 . S
H1750 N1738 0.984 . S
H1751 N1738 0.985 . S
C1752 C1753 1.363 . S
C1752 C1758 1.379 . S
C1752 N1760 1.356 . S
C1753 C1752 1.363 . S
C1753 C1759 1.363 . S
C1754 C1755 1.363 . S
C1754 C1759 1.379 . S
C1754 N1761 1.356 . S
C1755 C1754 1.363 . S
C1755 C1758 1.363 . S
N1756 C1758 1.356 . S
N1756 H1768 0.984 . S
N1756 H1769 0.985 . S
N1757 C1759 1.356 . S
N1757 H1762 0.984 . S
N1757 H1763 0.985 . S
C1758 C1752 1.379 . S
C1758 C1755 1.363 . S
C1758 N1756 1.356 . S
C1759 C1753 1.363 . S
C1759 C1754 1.379 . S
C1759 N1757 1.356 . S
N1760 C1752 1.356 . S
N1760 H1766 0.984 . S
N1760 H1767 0.984 . S
N1761 C1754 1.356 . S
N1761 H1764 0.984 . S
N1761 H1765 0.985 . S
H1762 N1757 0.984 . S
H1763 N1757 0.985 . S
H1764 N1761 0.984 . S
H1765 N1761 0.985 . S
H1766 N1760 0.984 . S
H1767 N1760 0.984 . S
H1768 N1756 0.984 . S
H1769 N1756 0.985 . S
C1770 C1771 1.363 . S
C1770 C1776 1.379 . S
C1770 N1778 1.356 . S
C1771 C1770 1.363 . S
C1771 C1777 1.363 . S
C1772 C1773 1.363 . S
C1772 C1777 1.379 . S
C1772 N1779 1.356 . S
C1773 C1772 1.363 . S
C1773 C1776 1.363 . S
N1774 C1776 1.356 . S
N1774 H1786 0.984 . S
N1774 H1787 0.985 . S
N1775 C1777 1.356 . S
N1775 H1780 0.984 . S
N1775 H1781 0.985 . S
C1776 C1770 1.379 . S
C1776 C1773 1.363 . S
C1776 N1774 1.356 . S
C1777 C1771 1.363 . S
C1777 C1772 1.379 . S
C1777 N1775 1.356 . S
N1778 C1770 1.356 . S
N1778 H1784 0.984 . S
N1778 H1785 0.984 . S
N1779 C1772 1.356 . S
N1779 H1782 0.984 . S
N1779 H1783 0.985 . S
H1780 N1775 0.984 . S
H1781 N1775 0.985 . S
H1782 N1779 0.984 . S
H1783 N1779 0.985 . S
H1784 N1778 0.984 . S
H1785 N1778 0.984 . S
H1786 N1774 0.984 . S
H1787 N1774 0.985 . S
C1788 C1789 1.363 . S
C1788 C1794 1.379 . S
C1788 N1796 1.356 . S
C1789 C1788 1.363 . S
C1789 C1795 1.363 . S
C1790 C1791 1.363 . S
C1790 C1795 1.379 . S
C1790 N1797 1.356 . S
C1791 C1790 1.363 . S
C1791 C1794 1.363 . S
N1792 C1794 1.356 . S
N1792 H1804 0.984 . S
N1792 H1805 0.985 . S
N1793 C1795 1.356 . S
N1793 H1798 0.984 . S
N1793 H1799 0.985 . S
C1794 C1788 1.379 . S
C1794 C1791 1.363 . S
C1794 N1792 1.356 . S
C1795 C1789 1.363 . S
C1795 C1790 1.379 . S
C1795 N1793 1.356 . S
N1796 C1788 1.356 . S
N1796 H1802 0.984 . S
N1796 H1803 0.984 . S
N1797 C1790 1.356 . S
N1797 H1800 0.984 . S
N1797 H1801 0.985 . S
H1798 N1793 0.984 . S
H1799 N1793 0.985 . S
H1800 N1797 0.984 . S
H1801 N1797 0.985 . S
H1802 N1796 0.984 . S
H1803 N1796 0.984 . S
H1804 N1792 0.984 . S
H1805 N1792 0.985 . S
C1806 C1807 1.363 . S
C1806 C1812 1.379 . S
C1806 N1814 1.356 . S
C1807 C1806 1.363 . S
C1807 C1813 1.363 . S
C1808 C1809 1.363 . S
C1808 C1813 1.379 . S
C1808 N1815 1.356 . S
C1809 C1808 1.363 . S
C1809 C1812 1.363 . S
N1810 C1812 1.356 . S
N1810 H1822 0.984 . S
N1810 H1823 0.985 . S
N1811 C1813 1.356 . S
N1811 H1816 0.984 . S
N1811 H1817 0.985 . S
C1812 C1806 1.379 . S
C1812 C1809 1.363 . S
C1812 N1810 1.356 . S
C1813 C1807 1.363 . S
C1813 C1808 1.379 . S
C1813 N1811 1.356 . S
N1814 C1806 1.356 . S
N1814 H1820 0.984 . S
N1814 H1821 0.984 . S
N1815 C1808 1.356 . S
N1815 H1818 0.984 . S
N1815 H1819 0.985 . S
H1816 N1811 0.984 . S
H1817 N1811 0.985 . S
H1818 N1815 0.984 . S
H1819 N1815 0.985 . S
H1820 N1814 0.984 . S
H1821 N1814 0.984 . S
H1822 N1810 0.984 . S
H1823 N1810 0.985 . S
C529 C7 1.325 . S
C531 C360 1.407 . S
C547 C29 1.325 . S
C549 C514 1.412 . S
C565 C470 1.412 . S
C567 C51 1.325 . S
C583 C72 1.325 . S
C585 C492 1.412 . S
C601 C94 1.325 . S
C603 C378 1.413 . S
C619 C117 1.325 . S
C621 C400 1.412 . S
C637 C138 1.325 . S
C639 C422 1.416 . S
C655 C160 1.325 . S
C657 C444 1.412 . S
C673 C183 1.325 . S
C675 C8 1.407 . S
C691 C204 1.325 . S
C693 C30 1.412 . S
C709 C52 1.412 . S
C711 C226 1.330 . S
C727 C70 1.412 . S
C729 C249 1.325 . S
C745 C270 1.325 . S
C747 C92 1.410 . S
C763 C293 1.325 . S
C765 C118 1.412 . S
C781 C315 1.325 . S
C783 C136 1.413 . S
C799 C336 1.325 . S
C801 C158 1.412 . S
C817 C359 1.325 . S
C819 C184 1.407 . S
C835 C380 1.325 . S
C837 C268 1.416 . S
C853 C294 1.412 . S
C855 C402 1.325 . S
C871 C424 1.325 . S
C873 C316 1.410 . S
C889 C446 1.325 . S
C891 C334 1.412 . S
C907 C469 1.325 . S
C909 C224 1.413 . S
C925 C250 1.412 . S
C927 C491 1.325 . S
C943 C513 1.325 . S
C945 C202 1.412 . S
C961 C466 1.412 . S
C963 C97 1.330 . S
C979 C488 1.412 . S
C981 C115 1.325 . S
C997 C141 1.325 . S
C999 C356 1.413 . S
C1015 C163 1.325 . S
C1017 C510 1.412 . S
C1033 C426 1.412 . S
C1035 C5 1.325 . S
C1051 C27 1.325 . S
C1053 C448 1.412 . S
C1069 C382 1.412 . S
C1071 C49 1.320 . S
C1087 C75 1.325 . S
C1089 C404 1.412 . S
C1105 C313 1.325 . S
C1107 C96 1.416 . S
C1123 C339 1.325 . S
C1125 C114 1.412 . S
C1141 C273 1.325 . S
C1143 C140 1.407 . S
C1159 C162 1.412 . S
C1161 C291 1.325 . S
C1177 C229 1.325 . S
C1179 C4 1.413 . S
C1195 C247 1.325 . S
C1197 C26 1.412 . S
C1213 C181 1.325 . S
C1215 C48 1.410 . S
C1231 C207 1.325 . S
C1233 C74 1.412 . S
C1249 C312 1.412 . S
C1251 C467 1.330 . S
C1267 C427 1.325 . S
C1269 C228 1.407 . S
C1285 C246 1.412 . S
C1287 C449 1.325 . S
C1303 C383 1.325 . S
C1305 C180 1.413 . S
C1321 C405 1.325 . S
C1323 C206 1.412 . S
C1339 C357 1.325 . S
C1341 C272 1.410 . S
C1357 C511 1.325 . S
C1359 C290 1.412 . S
C1375 C338 1.412 . S
C1377 C489 1.325 . S
C1393 C445 1.502 . S
C1395 C9 1.499 . S
C1411 C379 1.502 . S
C1413 C31 1.504 . S
C1429 C53 1.502 . S
C1431 C401 1.504 . S
C1447 C71 1.502 . S
C1449 C423 1.504 . S
C1465 C515 1.501 . S
C1467 C93 1.499 . S
C1483 C119 1.501 . S
C1485 C471 1.499 . S
C1501 C493 1.502 . S
C1503 C137 1.504 . S
C1519 C159 1.502 . S
C1521 C361 1.499 . S
C1537 C185 1.502 . S
C1539 C335 1.499 . S
C1555 C269 1.502 . S
C1557 C203 1.504 . S
C1573 C225 1.502 . S
C1575 C295 1.504 . S
C1591 C317 1.501 . S
C1593 C251 1.499 . S
C1609 C403 1.502 . S
C1611 C95 1.504 . S
C1627 C425 1.502 . S
C1629 C116 1.499 . S
C1645 C139 1.502 . S
C1647 C447 1.499 . S
C1663 C161 1.502 . S
C1665 C381 1.499 . S
C1681 C490 1.502 . S
C1683 C6 1.504 . S
C1699 C358 1.502 . S
C1701 C28 1.504 . S
C1717 C512 1.501 . S
C1719 C50 1.499 . S
C1735 C73 1.502 . S
C1737 C468 1.504 . S
C1753 C205 1.502 . S
C1755 C314 1.504 . S
C1771 C337 1.502 . S
C1773 C227 1.499 . S
C1789 C271 1.502 . S
C1791 C248 1.499 . S
C1807 C292 1.502 . S
C1809 C182 1.504 . S
