# Generated by pormake.
# Topology uox, (4)-cn, num edge types: 1
# Building blocks:
#     Node 0, Type 0, BuildingBlock: GALJAG_clean_sbu_0, # of connection points: 4
#     Node 1, Type 0, BuildingBlock: GALJAG_clean_sbu_0, # of connection points: 4
#     Node 2, Type 0, BuildingBlock: GALJAG_clean_sbu_0, # of connection points: 4
#     Node 3, Type 0, BuildingBlock: GALJAG_clean_sbu_0, # of connection points: 4
#     Node 4, Type 0, BuildingBlock: GALJAG_clean_sbu_0, # of connection points: 4
#     Node 5, Type 0, BuildingBlock: GALJAG_clean_sbu_0, # of connection points: 4
#     Node 6, Type 0, BuildingBlock: GALJAG_clean_sbu_0, # of connection points: 4
#     Node 7, Type 0, BuildingBlock: GALJAG_clean_sbu_0, # of connection points: 4
#     Node 8, Type 0, BuildingBlock: GALJAG_clean_sbu_0, # of connection points: 4
#     Node 9, Type 0, BuildingBlock: GALJAG_clean_sbu_0, # of connection points: 4
#     Node 10, Type 0, BuildingBlock: GALJAG_clean_sbu_0, # of connection points: 4
#     Node 11, Type 0, BuildingBlock: GALJAG_clean_sbu_0, # of connection points: 4
#     Node 12, Type 0, BuildingBlock: GALJAG_clean_sbu_0, # of connection points: 4
#     Node 13, Type 0, BuildingBlock: GALJAG_clean_sbu_0, # of connection points: 4
#     Node 14, Type 0, BuildingBlock: GALJAG_clean_sbu_0, # of connection points: 4
#     Node 15, Type 0, BuildingBlock: GALJAG_clean_sbu_0, # of connection points: 4
#     Node 16, Type 0, BuildingBlock: GALJAG_clean_sbu_0, # of connection points: 4
#     Node 17, Type 0, BuildingBlock: GALJAG_clean_sbu_0, # of connection points: 4
#     Node 18, Type 0, BuildingBlock: GALJAG_clean_sbu_0, # of connection points: 4
#     Node 19, Type 0, BuildingBlock: GALJAG_clean_sbu_0, # of connection points: 4
#     Node 20, Type 0, BuildingBlock: GALJAG_clean_sbu_0, # of connection points: 4
#     Node 21, Type 0, BuildingBlock: GALJAG_clean_sbu_0, # of connection points: 4
#     Node 22, Type 0, BuildingBlock: GALJAG_clean_sbu_0, # of connection points: 4
#     Node 23, Type 0, BuildingBlock: GALJAG_clean_sbu_0, # of connection points: 4
#     Node 24, Type 0, BuildingBlock: GALJAG_clean_sbu_0, # of connection points: 4
#     Node 25, Type 0, BuildingBlock: GALJAG_clean_sbu_0, # of connection points: 4
#     Node 26, Type 0, BuildingBlock: GALJAG_clean_sbu_0, # of connection points: 4
#     Node 27, Type 0, BuildingBlock: GALJAG_clean_sbu_0, # of connection points: 4
#     Node 28, Type 0, BuildingBlock: GALJAG_clean_sbu_0, # of connection points: 4
#     Node 29, Type 0, BuildingBlock: GALJAG_clean_sbu_0, # of connection points: 4
#     Node 30, Type 0, BuildingBlock: GALJAG_clean_sbu_0, # of connection points: 4
#     Node 31, Type 0, BuildingBlock: GALJAG_clean_sbu_0, # of connection points: 4
#     Edge 32, Type (0, 0), BuildingBlock: TEMPAE_clean_linker_10, # of connection points: 2
#     Edge 33, Type (0, 0), BuildingBlock: TEMPAE_clean_linker_10, # of connection points: 2
#     Edge 34, Type (0, 0), BuildingBlock: TEMPAE_clean_linker_10, # of connection points: 2
#     Edge 35, Type (0, 0), BuildingBlock: TEMPAE_clean_linker_10, # of connection points: 2
#     Edge 36, Type (0, 0), BuildingBlock: TEMPAE_clean_linker_10, # of connection points: 2
#     Edge 37, Type (0, 0), BuildingBlock: TEMPAE_clean_linker_10, # of connection points: 2
#     Edge 38, Type (0, 0), BuildingBlock: TEMPAE_clean_linker_10, # of connection points: 2
#     Edge 39, Type (0, 0), BuildingBlock: TEMPAE_clean_linker_10, # of connection points: 2
#     Edge 40, Type (0, 0), BuildingBlock: TEMPAE_clean_linker_10, # of connection points: 2
#     Edge 41, Type (0, 0), BuildingBlock: TEMPAE_clean_linker_10, # of connection points: 2
#     Edge 42, Type (0, 0), BuildingBlock: TEMPAE_clean_linker_10, # of connection points: 2
#     Edge 43, Type (0, 0), BuildingBlock: TEMPAE_clean_linker_10, # of connection points: 2
#     Edge 44, Type (0, 0), BuildingBlock: TEMPAE_clean_linker_10, # of connection points: 2
#     Edge 45, Type (0, 0), BuildingBlock: TEMPAE_clean_linker_10, # of connection points: 2
#     Edge 46, Type (0, 0), BuildingBlock: TEMPAE_clean_linker_10, # of connection points: 2
#     Edge 47, Type (0, 0), BuildingBlock: TEMPAE_clean_linker_10, # of connection points: 2
#     Edge 48, Type (0, 0), BuildingBlock: TEMPAE_clean_linker_10, # of connection points: 2
#     Edge 49, Type (0, 0), BuildingBlock: TEMPAE_clean_linker_10, # of connection points: 2
#     Edge 50, Type (0, 0), BuildingBlock: TEMPAE_clean_linker_10, # of connection points: 2
#     Edge 51, Type (0, 0), BuildingBlock: TEMPAE_clean_linker_10, # of connection points: 2
#     Edge 52, Type (0, 0), BuildingBlock: TEMPAE_clean_linker_10, # of connection points: 2
#     Edge 53, Type (0, 0), BuildingBlock: TEMPAE_clean_linker_10, # of connection points: 2
#     Edge 54, Type (0, 0), BuildingBlock: TEMPAE_clean_linker_10, # of connection points: 2
#     Edge 55, Type (0, 0), BuildingBlock: TEMPAE_clean_linker_10, # of connection points: 2
#     Edge 56, Type (0, 0), BuildingBlock: TEMPAE_clean_linker_10, # of connection points: 2
#     Edge 57, Type (0, 0), BuildingBlock: TEMPAE_clean_linker_10, # of connection points: 2
#     Edge 58, Type (0, 0), BuildingBlock: TEMPAE_clean_linker_10, # of connection points: 2
#     Edge 59, Type (0, 0), BuildingBlock: TEMPAE_clean_linker_10, # of connection points: 2
#     Edge 60, Type (0, 0), BuildingBlock: TEMPAE_clean_linker_10, # of connection points: 2
#     Edge 61, Type (0, 0), BuildingBlock: TEMPAE_clean_linker_10, # of connection points: 2
#     Edge 62, Type (0, 0), BuildingBlock: TEMPAE_clean_linker_10, # of connection points: 2
#     Edge 63, Type (0, 0), BuildingBlock: TEMPAE_clean_linker_10, # of connection points: 2
#     Edge 64, Type (0, 0), BuildingBlock: TEMPAE_clean_linker_10, # of connection points: 2
#     Edge 65, Type (0, 0), BuildingBlock: TEMPAE_clean_linker_10, # of connection points: 2
#     Edge 66, Type (0, 0), BuildingBlock: TEMPAE_clean_linker_10, # of connection points: 2
#     Edge 67, Type (0, 0), BuildingBlock: TEMPAE_clean_linker_10, # of connection points: 2
#     Edge 68, Type (0, 0), BuildingBlock: TEMPAE_clean_linker_10, # of connection points: 2
#     Edge 69, Type (0, 0), BuildingBlock: TEMPAE_clean_linker_10, # of connection points: 2
#     Edge 70, Type (0, 0), BuildingBlock: TEMPAE_clean_linker_10, # of connection points: 2
#     Edge 71, Type (0, 0), BuildingBlock: TEMPAE_clean_linker_10, # of connection points: 2
#     Edge 72, Type (0, 0), BuildingBlock: TEMPAE_clean_linker_10, # of connection points: 2
#     Edge 73, Type (0, 0), BuildingBlock: TEMPAE_clean_linker_10, # of connection points: 2
#     Edge 74, Type (0, 0), BuildingBlock: TEMPAE_clean_linker_10, # of connection points: 2
#     Edge 75, Type (0, 0), BuildingBlock: TEMPAE_clean_linker_10, # of connection points: 2
#     Edge 76, Type (0, 0), BuildingBlock: TEMPAE_clean_linker_10, # of connection points: 2
#     Edge 77, Type (0, 0), BuildingBlock: TEMPAE_clean_linker_10, # of connection points: 2
#     Edge 78, Type (0, 0), BuildingBlock: TEMPAE_clean_linker_10, # of connection points: 2
#     Edge 79, Type (0, 0), BuildingBlock: TEMPAE_clean_linker_10, # of connection points: 2
#     Edge 80, Type (0, 0), BuildingBlock: TEMPAE_clean_linker_10, # of connection points: 2
#     Edge 81, Type (0, 0), BuildingBlock: TEMPAE_clean_linker_10, # of connection points: 2
#     Edge 82, Type (0, 0), BuildingBlock: TEMPAE_clean_linker_10, # of connection points: 2
#     Edge 83, Type (0, 0), BuildingBlock: TEMPAE_clean_linker_10, # of connection points: 2
#     Edge 84, Type (0, 0), BuildingBlock: TEMPAE_clean_linker_10, # of connection points: 2
#     Edge 85, Type (0, 0), BuildingBlock: TEMPAE_clean_linker_10, # of connection points: 2
#     Edge 86, Type (0, 0), BuildingBlock: TEMPAE_clean_linker_10, # of connection points: 2
#     Edge 87, Type (0, 0), BuildingBlock: TEMPAE_clean_linker_10, # of connection points: 2
#     Edge 88, Type (0, 0), BuildingBlock: TEMPAE_clean_linker_10, # of connection points: 2
#     Edge 89, Type (0, 0), BuildingBlock: TEMPAE_clean_linker_10, # of connection points: 2
#     Edge 90, Type (0, 0), BuildingBlock: TEMPAE_clean_linker_10, # of connection points: 2
#     Edge 91, Type (0, 0), BuildingBlock: TEMPAE_clean_linker_10, # of connection points: 2
#     Edge 92, Type (0, 0), BuildingBlock: TEMPAE_clean_linker_10, # of connection points: 2
#     Edge 93, Type (0, 0), BuildingBlock: TEMPAE_clean_linker_10, # of connection points: 2
#     Edge 94, Type (0, 0), BuildingBlock: TEMPAE_clean_linker_10, # of connection points: 2
#     Edge 95, Type (0, 0), BuildingBlock: TEMPAE_clean_linker_10, # of connection points: 2
# Relax obj value: 0.005
# Max RMSD: 0.035
# Mean RMSD: 0.035
data_MOF--net-uox--node1-GALJAG_clean_sbu_0--edge1-TEMPAE_clean_linker_10
_symmetry_space_group_name_H-M    P1
_symmetry_Int_Tables_number       1
_symmetry_cell_setting            triclinic
loop_
_symmetry_equiv_pos_as_xyz
'x, y, z'
_cell_length_a     49.160875
_cell_length_b     49.169596
_cell_length_c     73.422849
_cell_angle_alpha  90.022828
_cell_angle_beta   90.015629
_cell_angle_gamma 89.992566
loop_
_atom_site_label
_atom_site_type_symbol
_atom_site_fract_x
_atom_site_fract_y
_atom_site_fract_z
_atom_type_partial_charge
In0 In 0.39386 0.06652 0.15641 0.0
O1 O 0.38011 0.0313 0.13834 0.0
O2 O 0.3521 0.04704 0.15777 0.0
C3 C 0.44375 0.07385 0.14208 0.0
C4 C 0.40252 0.04791 0.1905 0.0
C5 C 0.37209 0.11479 0.14693 0.0
O6 O 0.42838 0.05469 0.13702 0.0
O7 O 0.434 0.0889 0.15435 0.0
O8 O 0.38266 0.11065 0.16236 0.0
O9 O 0.37213 0.09447 0.13643 0.0
C10 C 0.35669 0.02986 0.14538 0.0
O11 O 0.38636 0.06719 0.1871 0.0
O12 O 0.41464 0.03843 0.17677 0.0
In13 In 0.17789 0.14511 0.40762 0.0
O14 O 0.17751 0.14155 0.43859 0.0
O15 O 0.21025 0.16291 0.4263 0.0
C16 C 0.1287 0.12364 0.40014 0.0
C17 C 0.21266 0.10751 0.3943 0.0
C18 C 0.17016 0.1964 0.39595 0.0
O19 O 0.13822 0.1246 0.41609 0.0
O20 O 0.14413 0.13315 0.38797 0.0
O21 O 0.18859 0.18126 0.38954 0.0
O22 O 0.15583 0.18568 0.40826 0.0
C23 C 0.19948 0.1544 0.44079 0.0
O24 O 0.20986 0.13063 0.3871 0.0
O25 O 0.19759 0.10329 0.40787 0.0
In26 In 0.10834 0.92831 0.65757 0.0
O27 O 0.12318 0.96074 0.63757 0.0
O28 O 0.15062 0.94721 0.65793 0.0
C29 C 0.05772 0.9206 0.64455 0.0
C30 C 0.09788 0.95032 0.6905 0.0
C31 C 0.12966 0.87882 0.65077 0.0
O32 O 0.0734 0.9387 0.63835 0.0
O33 O 0.06754 0.90656 0.65735 0.0
O34 O 0.12748 0.88826 0.66669 0.0
O35 O 0.12145 0.89448 0.63831 0.0
C36 C 0.14647 0.96284 0.64463 0.0
O37 O 0.11133 0.92866 0.6886 0.0
O38 O 0.08941 0.96059 0.67584 0.0
In39 In 0.31145 0.85779 0.905 0.0
O40 O 0.31091 0.86434 0.93571 0.0
O41 O 0.28192 0.83706 0.92443 0.0
C42 C 0.35998 0.88031 0.8971 0.0
C43 C 0.27481 0.89466 0.89348 0.0
C44 C 0.32056 0.80777 0.89134 0.0
O45 O 0.35459 0.87035 0.91252 0.0
O46 O 0.34068 0.87943 0.88578 0.0
O47 O 0.30134 0.82259 0.88566 0.0
O48 O 0.33468 0.81813 0.90387 0.0
C49 C 0.29112 0.84855 0.9385 0.0
O50 O 0.27795 0.87199 0.88562 0.0
O51 O 0.29043 0.89872 0.90684 0.0
In52 In 0.39064 0.93307 0.34522 0.0
O53 O 0.3855 0.93381 0.31439 0.0
O54 O 0.4111 0.96369 0.32637 0.0
C55 C 0.36729 0.88468 0.35244 0.0
C56 C 0.35345 0.96987 0.35612 0.0
C57 C 0.43988 0.9228 0.35994 0.0
O58 O 0.37697 0.89047 0.337 0.0
O59 O 0.36911 0.90343 0.36411 0.0
O60 O 0.42337 0.93937 0.36707 0.0
O61 O 0.43165 0.91196 0.34538 0.0
C62 C 0.40057 0.95428 0.31202 0.0
O63 O 0.37711 0.96898 0.36283 0.0
O64 O 0.34864 0.95206 0.34419 0.0
In65 In 0.31885 0.14164 0.5938 0.0
O66 O 0.28576 0.12658 0.61323 0.0
O67 O 0.29925 0.09994 0.59228 0.0
C68 C 0.32732 0.19126 0.60837 0.0
C69 C 0.29754 0.15142 0.5606 0.0
C70 C 0.36801 0.11969 0.60058 0.0
O71 O 0.30828 0.17595 0.61371 0.0
O72 O 0.34171 0.18156 0.59573 0.0
O73 O 0.36192 0.13004 0.58539 0.0
O74 O 0.34918 0.12013 0.61226 0.0
C75 C 0.28352 0.10364 0.60561 0.0
O76 O 0.31704 0.13517 0.56309 0.0
O77 O 0.28912 0.16309 0.5748 0.0
In78 In 0.10041 0.07172 0.84318 0.0
O79 O 0.11216 0.03525 0.86084 0.0
O80 O 0.14254 0.05304 0.84403 0.0
C81 C 0.05093 0.08141 0.85768 0.0
C82 C 0.09281 0.04971 0.80994 0.0
C83 C 0.12284 0.12089 0.84927 0.0
O84 O 0.06846 0.06687 0.86564 0.0
O85 O 0.05833 0.09065 0.84245 0.0
O86 O 0.11184 0.11466 0.83432 0.0
O87 O 0.12266 0.10227 0.86108 0.0
C88 C 0.1365 0.03472 0.85534 0.0
O89 O 0.10872 0.0694 0.81272 0.0
O90 O 0.08026 0.04149 0.82387 0.0
In91 In 0.179 0.85674 0.09411 0.0
O92 O 0.17921 0.86448 0.06349 0.0
O93 O 0.20734 0.83575 0.07401 0.0
C94 C 0.13035 0.87908 0.10201 0.0
C95 C 0.21544 0.89335 0.10632 0.0
C96 C 0.17187 0.8064 0.10783 0.0
O97 O 0.13549 0.86829 0.0868 0.0
O98 O 0.14987 0.87888 0.11318 0.0
O99 O 0.19213 0.82093 0.11199 0.0
O100 O 0.15542 0.81731 0.09688 0.0
C101 C 0.19832 0.84807 0.06023 0.0
O102 O 0.21139 0.87096 0.11429 0.0
O103 O 0.20086 0.8973 0.09244 0.0
In104 In 0.60076 0.92899 0.84229 0.0
O105 O 0.61515 0.96251 0.86166 0.0
O106 O 0.64274 0.94834 0.84157 0.0
C107 C 0.54979 0.9216 0.85471 0.0
C108 C 0.59105 0.9499 0.809 0.0
C109 C 0.62266 0.88012 0.85016 0.0
O110 O 0.5654 0.93965 0.86108 0.0
O111 O 0.55991 0.90736 0.84211 0.0
O112 O 0.62039 0.8888 0.83406 0.0
O113 O 0.61414 0.8962 0.86228 0.0
C114 C 0.63837 0.96462 0.85449 0.0
O115 O 0.60416 0.92811 0.81131 0.0
O116 O 0.58241 0.96074 0.82343 0.0
In117 In 0.81977 0.85706 0.59271 0.0
O118 O 0.78653 0.87038 0.6125 0.0
O119 O 0.80026 0.89876 0.59263 0.0
C120 C 0.82866 0.80654 0.60545 0.0
C121 C 0.797 0.8493 0.55971 0.0
C122 C 0.86879 0.87852 0.60053 0.0
O123 O 0.81006 0.82156 0.61177 0.0
O124 O 0.84245 0.81701 0.59279 0.0
O125 O 0.86311 0.869 0.58501 0.0
O126 O 0.84962 0.87763 0.61193 0.0
C127 C 0.78432 0.89388 0.60569 0.0
O128 O 0.81675 0.8653 0.56215 0.0
O129 O 0.78928 0.83686 0.57379 0.0
In130 In 0.89162 0.06364 0.34714 0.0
O131 O 0.88711 0.06786 0.31627 0.0
O132 O 0.90886 0.03384 0.32665 0.0
C133 C 0.87234 0.11483 0.34925 0.0
C134 C 0.8549 0.02692 0.35918 0.0
C135 C 0.93976 0.06787 0.36484 0.0
O136 O 0.89157 0.10837 0.33867 0.0
O137 O 0.86277 0.09541 0.35849 0.0
O138 O 0.91833 0.07903 0.37058 0.0
O139 O 0.93673 0.05409 0.35053 0.0
C140 C 0.89993 0.04618 0.31284 0.0
O141 O 0.87749 0.03041 0.367 0.0
O142 O 0.85085 0.04221 0.34572 0.0
In143 In 0.67967 0.14349 0.09108 0.0
O144 O 0.6998 0.10205 0.09034 0.0
O145 O 0.71452 0.13061 0.10977 0.0
C146 C 0.66986 0.19292 0.10558 0.0
C147 C 0.7015 0.15237 0.05793 0.0
C148 C 0.63113 0.12023 0.09809 0.0
O149 O 0.6583 0.18439 0.09135 0.0
O150 O 0.68678 0.17659 0.1125 0.0
O151 O 0.6365 0.13132 0.08301 0.0
O152 O 0.65032 0.12065 0.10949 0.0
C153 C 0.71654 0.10712 0.10291 0.0
O154 O 0.68178 0.13639 0.06045 0.0
O155 O 0.70978 0.16437 0.07206 0.0
In156 In 0.60741 0.06821 0.65608 0.0
O157 O 0.6133 0.067 0.68687 0.0
O158 O 0.58508 0.03939 0.67513 0.0
C159 C 0.63044 0.11658 0.64845 0.0
C160 C 0.6446 0.03171 0.64486 0.0
C161 C 0.55784 0.07656 0.64154 0.0
O162 O 0.62029 0.11122 0.66383 0.0
O163 O 0.62923 0.09743 0.63704 0.0
O164 O 0.5728 0.05698 0.63666 0.0
O165 O 0.56792 0.0917 0.65365 0.0
C166 C 0.59663 0.04785 0.68936 0.0
O167 O 0.62214 0.0349 0.63677 0.0
O168 O 0.64828 0.04713 0.65836 0.0
In169 In 0.67759 0.8509 0.40636 0.0
O170 O 0.67523 0.85613 0.43729 0.0
O171 O 0.70911 0.83498 0.42607 0.0
C172 C 0.62682 0.87116 0.40283 0.0
C173 C 0.715 0.88713 0.39485 0.0
C174 C 0.67291 0.80226 0.38944 0.0
O175 O 0.63241 0.85268 0.41418 0.0
O176 O 0.64679 0.87942 0.39361 0.0
O177 O 0.66884 0.82444 0.38126 0.0
O178 O 0.67964 0.80469 0.4059 0.0
C179 C 0.6975 0.84398 0.44015 0.0
O180 O 0.71297 0.86372 0.38788 0.0
O181 O 0.69794 0.89215 0.4072 0.0
In182 In 0.8909 0.93283 0.15717 0.0
O183 O 0.88177 0.93512 0.18759 0.0
O184 O 0.91073 0.96276 0.17676 0.0
C185 C 0.87002 0.88341 0.14961 0.0
C186 C 0.85418 0.96837 0.14403 0.0
C187 C 0.94163 0.92514 0.14432 0.0
O188 O 0.87959 0.88943 0.16505 0.0
O189 O 0.87063 0.90244 0.1381 0.0
O190 O 0.9262 0.94352 0.13818 0.0
O191 O 0.93148 0.91093 0.15689 0.0
C192 C 0.89781 0.95465 0.19055 0.0
O193 O 0.87768 0.96597 0.13727 0.0
O194 O 0.8492 0.95254 0.15713 0.0
In195 In 0.81053 0.14616 0.9016 0.0
O196 O 0.77744 0.13071 0.88202 0.0
O197 O 0.78984 0.10508 0.90371 0.0
C198 C 0.81384 0.19356 0.88295 0.0
C199 C 0.7936 0.15549 0.93594 0.0
C200 C 0.86192 0.12749 0.89914 0.0
O201 O 0.82515 0.17202 0.87756 0.0
O202 O 0.80024 0.19099 0.89737 0.0
O203 O 0.85571 0.14759 0.90906 0.0
O204 O 0.84219 0.11674 0.89084 0.0
C205 C 0.77454 0.10827 0.89014 0.0
O206 O 0.81539 0.14285 0.93253 0.0
O207 O 0.78087 0.16372 0.9221 0.0
In208 In 0.89635 0.5655 0.64749 0.0
O209 O 0.88688 0.5629 0.67778 0.0
O210 O 0.91547 0.53483 0.66692 0.0
C211 C 0.87532 0.6153 0.64156 0.0
C212 C 0.85986 0.52939 0.63467 0.0
C213 C 0.94652 0.57481 0.63399 0.0
O214 O 0.88559 0.60846 0.65663 0.0
O215 O 0.87549 0.59695 0.62954 0.0
O216 O 0.92901 0.56108 0.62537 0.0
O217 O 0.93871 0.58337 0.64931 0.0
C218 C 0.90257 0.54307 0.6807 0.0
O219 O 0.88456 0.5289 0.6299 0.0
O220 O 0.85373 0.54828 0.64554 0.0
In221 In 0.68599 0.64459 0.90465 0.0
O222 O 0.68314 0.64123 0.93569 0.0
O223 O 0.71667 0.66253 0.92433 0.0
C224 C 0.63483 0.62513 0.90383 0.0
C225 C 0.7211 0.60718 0.89139 0.0
C226 C 0.68073 0.69214 0.88635 0.0
O227 O 0.6414 0.64539 0.9135 0.0
O228 O 0.65416 0.61458 0.89498 0.0
O229 O 0.66743 0.67113 0.88224 0.0
O230 O 0.69728 0.68896 0.89926 0.0
C231 C 0.70493 0.65416 0.9385 0.0
O232 O 0.71674 0.62945 0.88336 0.0
O233 O 0.70772 0.60394 0.90583 0.0
In234 In 0.60577 0.43326 0.15153 0.0
O235 O 0.61199 0.42988 0.18231 0.0
O236 O 0.5882 0.4627 0.1721 0.0
C237 C 0.62425 0.38193 0.14758 0.0
C238 C 0.6426 0.47045 0.14044 0.0
C239 C 0.55752 0.42967 0.13401 0.0
O240 O 0.6061 0.38801 0.15907 0.0
O241 O 0.63314 0.40172 0.13845 0.0
O242 O 0.57979 0.42445 0.12624 0.0
O243 O 0.5597 0.43712 0.15035 0.0
C244 C 0.59827 0.45099 0.18582 0.0
O245 O 0.61902 0.46921 0.13367 0.0
O246 O 0.64743 0.4529 0.15248 0.0
In247 In 0.81668 0.35466 0.40193 0.0
O248 O 0.81509 0.35868 0.43276 0.0
O249 O 0.78545 0.33363 0.41998 0.0
C250 C 0.86519 0.37844 0.39584 0.0
C251 C 0.78003 0.39213 0.39133 0.0
C252 C 0.82675 0.30541 0.38721 0.0
O253 O 0.85922 0.36738 0.41081 0.0
O254 O 0.84658 0.37776 0.38401 0.0
O255 O 0.81002 0.32184 0.38015 0.0
O256 O 0.838 0.31386 0.40156 0.0
C257 C 0.79453 0.34357 0.43461 0.0
O258 O 0.78264 0.3696 0.3832 0.0
O259 O 0.79615 0.39573 0.40447 0.0
In260 In 0.89188 0.42968 0.83602 0.0
O261 O 0.87851 0.46327 0.85561 0.0
O262 O 0.84981 0.44918 0.83622 0.0
C263 C 0.94312 0.4228 0.84811 0.0
C264 C 0.90099 0.4496 0.80233 0.0
C265 C 0.87025 0.38086 0.84445 0.0
O266 O 0.92755 0.44099 0.85432 0.0
O267 O 0.93286 0.40815 0.83577 0.0
O268 O 0.87074 0.38992 0.82838 0.0
O269 O 0.88035 0.39653 0.85626 0.0
C270 C 0.8549 0.4654 0.84905 0.0
O271 O 0.88831 0.42767 0.80503 0.0
O272 O 0.90937 0.46117 0.81658 0.0
In273 In 0.82202 0.64372 0.0925 0.0
O274 O 0.82013 0.6364 0.06185 0.0
O275 O 0.79299 0.66543 0.07315 0.0
C276 C 0.87091 0.62105 0.09946 0.0
C277 C 0.78533 0.60706 0.10422 0.0
C278 C 0.82977 0.69352 0.10697 0.0
O279 O 0.8654 0.63247 0.08452 0.0
O280 O 0.85165 0.6208 0.11082 0.0
O281 O 0.81056 0.6782 0.11198 0.0
O282 O 0.84485 0.6837 0.09473 0.0
C283 C 0.801 0.65301 0.05913 0.0
O284 O 0.78922 0.62938 0.11234 0.0
O285 O 0.80033 0.60314 0.09055 0.0
In286 In 0.60083 0.56442 0.3416 0.0
O287 O 0.60577 0.56495 0.3107 0.0
O288 O 0.5858 0.53105 0.32261 0.0
C289 C 0.61943 0.61457 0.34967 0.0
C290 C 0.63922 0.53109 0.35556 0.0
C291 C 0.54902 0.57077 0.35261 0.0
O292 O 0.62117 0.60459 0.33387 0.0
O293 O 0.6087 0.59916 0.36137 0.0
O294 O 0.56529 0.55467 0.36044 0.0
O295 O 0.55884 0.5833 0.33911 0.0
C296 C 0.59443 0.54221 0.30829 0.0
O297 O 0.61484 0.53059 0.3609 0.0
O298 O 0.64422 0.54877 0.34362 0.0
In299 In 0.68121 0.35373 0.58884 0.0
O300 O 0.68014 0.3597 0.55808 0.0
O301 O 0.70791 0.3307 0.56875 0.0
C302 C 0.63327 0.37714 0.59734 0.0
C303 C 0.71915 0.39036 0.59884 0.0
C304 C 0.67393 0.30439 0.60403 0.0
O305 O 0.65334 0.37718 0.60805 0.0
O306 O 0.63756 0.36575 0.58221 0.0
O307 O 0.69437 0.31898 0.60765 0.0
O308 O 0.65748 0.31469 0.59281 0.0
C309 C 0.69861 0.34255 0.55486 0.0
O310 O 0.70427 0.39329 0.58499 0.0
O311 O 0.71461 0.36903 0.60793 0.0
In312 In 0.10467 0.43355 0.34277 0.0
O313 O 0.11555 0.43365 0.31255 0.0
O314 O 0.08427 0.46025 0.32144 0.0
C315 C 0.12559 0.38493 0.35218 0.0
C316 C 0.14008 0.47118 0.35491 0.0
C317 C 0.05433 0.42572 0.35614 0.0
O318 O 0.11624 0.38973 0.3365 0.0
O319 O 0.12475 0.40481 0.36305 0.0
O320 O 0.06994 0.44392 0.36231 0.0
O321 O 0.0641 0.41181 0.34328 0.0
C322 C 0.09846 0.45171 0.30835 0.0
O323 O 0.11534 0.47117 0.35955 0.0
O324 O 0.14689 0.45203 0.34443 0.0
In325 In 0.32082 0.35273 0.08791 0.0
O326 O 0.32148 0.35487 0.05684 0.0
O327 O 0.28669 0.33774 0.06956 0.0
C328 C 0.37075 0.3725 0.09528 0.0
C329 C 0.28785 0.3915 0.10178 0.0
C330 C 0.32715 0.3013 0.09966 0.0
O331 O 0.36014 0.37426 0.07967 0.0
O332 O 0.35609 0.36111 0.10713 0.0
O333 O 0.31024 0.31748 0.10677 0.0
O334 O 0.34058 0.311 0.08653 0.0
C335 C 0.29821 0.34444 0.05491 0.0
O336 O 0.28858 0.36764 0.10807 0.0
O337 O 0.3041 0.39582 0.08885 0.0
In338 In 0.39779 0.57162 0.84567 0.0
O339 O 0.3836 0.53604 0.86328 0.0
O340 O 0.35608 0.55228 0.84373 0.0
C341 C 0.44622 0.58149 0.8616 0.0
C342 C 0.40908 0.5491 0.81308 0.0
C343 C 0.37391 0.62018 0.85149 0.0
O344 O 0.42859 0.56621 0.8688 0.0
O345 O 0.4394 0.59144 0.84644 0.0
O346 O 0.38586 0.61447 0.83677 0.0
O347 O 0.37391 0.60137 0.86317 0.0
C348 C 0.36038 0.53476 0.85594 0.0
O349 O 0.39388 0.56964 0.81478 0.0
O350 O 0.4191 0.54039 0.82777 0.0
In351 In 0.18907 0.64126 0.59875 0.0
O352 O 0.21943 0.62623 0.62029 0.0
O353 O 0.20999 0.60018 0.59814 0.0
C354 C 0.18444 0.68908 0.61682 0.0
C355 C 0.20908 0.65 0.56507 0.0
C356 C 0.13775 0.62206 0.59884 0.0
O357 O 0.17148 0.66807 0.62142 0.0
O358 O 0.20022 0.68576 0.6035 0.0
O359 O 0.15685 0.61104 0.60765 0.0
O360 O 0.14459 0.64272 0.58968 0.0
C361 C 0.22345 0.60367 0.61253 0.0
O362 O 0.18619 0.63903 0.56766 0.0
O363 O 0.22149 0.65676 0.57938 0.0
In364 In 0.11082 0.56527 0.15305 0.0
O365 O 0.11629 0.56436 0.18384 0.0
O366 O 0.09199 0.53352 0.17176 0.0
C367 C 0.13233 0.61456 0.14612 0.0
C368 C 0.14916 0.53063 0.14085 0.0
C369 C 0.06022 0.57336 0.13989 0.0
O370 O 0.12365 0.60785 0.16166 0.0
O371 O 0.13048 0.59624 0.13413 0.0
O372 O 0.07552 0.55479 0.13385 0.0
O373 O 0.07044 0.58749 0.15247 0.0
C374 C 0.10213 0.54324 0.18613 0.0
O375 O 0.12629 0.53301 0.13315 0.0
O376 O 0.15268 0.54599 0.1544 0.0
In377 In 0.18058 0.3604 0.9013 0.0
O378 O 0.21499 0.37392 0.88243 0.0
O379 O 0.20146 0.40138 0.90292 0.0
C380 C 0.17172 0.31047 0.88754 0.0
C381 C 0.20039 0.35086 0.93493 0.0
C382 C 0.13216 0.3826 0.89273 0.0
O383 O 0.15706 0.32098 0.89975 0.0
O384 O 0.19126 0.32515 0.88221 0.0
O385 O 0.13715 0.37277 0.90826 0.0
O386 O 0.1518 0.38179 0.88168 0.0
C387 C 0.21772 0.39686 0.88999 0.0
O388 O 0.2084 0.33811 0.92105 0.0
O389 O 0.18194 0.36814 0.93194 0.0
In390 In 0.39824 0.42637 0.66173 0.0
O391 O 0.39251 0.42714 0.69259 0.0
O392 O 0.42071 0.45484 0.68099 0.0
C393 C 0.37554 0.37784 0.65382 0.0
C394 C 0.36097 0.46337 0.6513 0.0
C395 C 0.44732 0.41907 0.64615 0.0
O396 O 0.38695 0.38264 0.66889 0.0
O397 O 0.37533 0.3976 0.64287 0.0
O398 O 0.43135 0.43781 0.64125 0.0
O399 O 0.4385 0.40421 0.65885 0.0
C400 C 0.40918 0.44626 0.69519 0.0
O401 O 0.38372 0.46098 0.64346 0.0
O402 O 0.35696 0.44682 0.66414 0.0
In403 In 0.3157 0.64517 0.40756 0.0
O404 O 0.29068 0.60673 0.41033 0.0
O405 O 0.28377 0.63126 0.38691 0.0
C406 C 0.32279 0.69547 0.39378 0.0
C407 C 0.29839 0.65291 0.44203 0.0
C408 C 0.36341 0.6215 0.39868 0.0
O409 O 0.30177 0.68156 0.39047 0.0
O410 O 0.3399 0.68403 0.40402 0.0
O411 O 0.34281 0.62062 0.38845 0.0
O412 O 0.35984 0.63397 0.41351 0.0
C413 C 0.27749 0.61015 0.39578 0.0
O414 O 0.28987 0.66692 0.42883 0.0
O415 O 0.31617 0.63546 0.43791 0.0
C416 C 0.38907 0.95819 0.27905 0.0
C417 C 0.40415 0.96728 0.29406 0.0
C418 C 0.39058 0.97164 0.26225 0.0
C419 C 0.40774 0.9946 0.2604 0.0
C420 C 0.42365 0.00338 0.27536 0.0
C421 C 0.42159 0.98965 0.29206 0.0
C422 C 0.37325 0.96172 0.24661 0.0
C423 C 0.44237 0.02761 0.27383 0.0
C424 C 0.42465 0.01531 0.21194 0.0
C425 C 0.4056 0.03604 0.20885 0.0
C426 C 0.42623 0.00222 0.22888 0.0
C427 C 0.40817 0.00993 0.24298 0.0
C428 C 0.38945 0.0314 0.2401 0.0
C429 C 0.38847 0.04428 0.22307 0.0
C430 C 0.44664 0.97961 0.23152 0.0
C431 C 0.36981 0.04013 0.25479 0.0
H432 H 0.37555 0.94092 0.28054 0.0
H433 H 0.43334 0.9967 0.30363 0.0
H434 H 0.35865 0.97784 0.24256 0.0
H435 H 0.38619 0.95731 0.23459 0.0
H436 H 0.36161 0.94308 0.25012 0.0
H437 H 0.45454 0.03084 0.2864 0.0
H438 H 0.45648 0.02492 0.26217 0.0
H439 H 0.43027 0.04622 0.27114 0.0
H440 H 0.43802 0.00896 0.201 0.0
H441 H 0.37371 0.06029 0.22073 0.0
H442 H 0.43581 0.96005 0.23353 0.0
H443 H 0.45897 0.98336 0.24393 0.0
H444 H 0.46056 0.97747 0.21969 0.0
H445 H 0.35585 0.02309 0.25807 0.0
H446 H 0.35745 0.05801 0.25067 0.0
H447 H 0.38102 0.04527 0.26745 0.0
C448 C 0.29103 0.13779 0.52821 0.0
C449 C 0.28443 0.15511 0.5427 0.0
C450 C 0.27716 0.13951 0.51157 0.0
C451 C 0.25644 0.15924 0.50934 0.0
C452 C 0.25033 0.17739 0.52373 0.0
C453 C 0.26431 0.175 0.54031 0.0
C454 C 0.28413 0.11968 0.49656 0.0
C455 C 0.22863 0.19892 0.52174 0.0
C456 C 0.23577 0.174 0.46059 0.0
C457 C 0.21259 0.15762 0.45873 0.0
C458 C 0.24976 0.1755 0.47721 0.0
C459 C 0.24047 0.16 0.4922 0.0
C460 C 0.21664 0.14402 0.49053 0.0
C461 C 0.20288 0.14315 0.47381 0.0
C462 C 0.27488 0.19304 0.47857 0.0
C463 C 0.20623 0.12707 0.5062 0.0
H464 H 0.30654 0.12235 0.53002 0.0
H465 H 0.25925 0.1885 0.55148 0.0
H466 H 0.26612 0.10691 0.49338 0.0
H467 H 0.28958 0.13083 0.48394 0.0
H468 H 0.30131 0.1061 0.50029 0.0
H469 H 0.2276 0.21258 0.53377 0.0
H470 H 0.23252 0.21141 0.50943 0.0
H471 H 0.20849 0.18911 0.51991 0.0
H472 H 0.24325 0.18533 0.44896 0.0
H473 H 0.18498 0.13044 0.47241 0.0
H474 H 0.29302 0.18001 0.48072 0.0
H475 H 0.27334 0.20687 0.49048 0.0
H476 H 0.27817 0.20546 0.46613 0.0
H477 H 0.22157 0.11143 0.50985 0.0
H478 H 0.18678 0.11667 0.5029 0.0
H479 H 0.20309 0.14002 0.51839 0.0
C480 C 0.10846 0.04296 0.77798 0.0
C481 C 0.09048 0.03618 0.79206 0.0
C482 C 0.10802 0.02883 0.7614 0.0
C483 C 0.08892 0.00763 0.7588 0.0
C484 C 0.07015 0.00125 0.77277 0.0
C485 C 0.07125 0.01553 0.78931 0.0
C486 C 0.12847 0.03611 0.74685 0.0
C487 C 0.0493 0.97899 0.77038 0.0
C488 C 0.07684 0.98641 0.7098 0.0
C489 C 0.09377 0.96357 0.70833 0.0
C490 C 0.07433 0.00046 0.72635 0.0
C491 C 0.08935 0.99158 0.74167 0.0
C492 C 0.10593 0.96811 0.74038 0.0
C493 C 0.10784 0.95429 0.72371 0.0
C494 C 0.05619 0.02521 0.72729 0.0
C495 C 0.12239 0.95814 0.75641 0.0
H496 H 0.1234 0.05887 0.78007 0.0
H497 H 0.05726 0.01029 0.80016 0.0
H498 H 0.14175 0.01835 0.74401 0.0
H499 H 0.11786 0.04128 0.73397 0.0
H500 H 0.14151 0.05358 0.75085 0.0
H501 H 0.03515 0.97763 0.78214 0.0
H502 H 0.03724 0.98255 0.75783 0.0
H503 H 0.0597 0.95911 0.76877 0.0
H504 H 0.06583 0.99357 0.69794 0.0
H505 H 0.12097 0.93665 0.72261 0.0
H506 H 0.06871 0.04361 0.72976 0.0
H507 H 0.04178 0.02335 0.73885 0.0
H508 H 0.04437 0.02825 0.71455 0.0
H509 H 0.1375 0.97384 0.76037 0.0
H510 H 0.13338 0.93893 0.75337 0.0
H511 H 0.10896 0.95475 0.76834 0.0
C512 C 0.25656 0.82735 0.95897 0.0
C513 C 0.27854 0.84518 0.9566 0.0
C514 C 0.24311 0.8255 0.97577 0.0
C515 C 0.25181 0.84197 0.99046 0.0
C516 C 0.27444 0.85948 0.98828 0.0
C517 C 0.28759 0.86081 0.97136 0.0
C518 C 0.2192 0.80644 0.97766 0.0
C519 C 0.28428 0.87737 0.00365 0.0
C520 C 0.202 0.86158 0.02759 0.0
C521 C 0.21042 0.84486 0.04197 0.0
C522 C 0.2149 0.86036 0.01058 0.0
C523 C 0.23661 0.84187 0.00792 0.0
C524 C 0.24459 0.82428 0.0222 0.0
C525 C 0.23142 0.82604 0.03911 0.0
C526 C 0.20586 0.87947 0.99566 0.0
C527 C 0.26751 0.80415 0.01979 0.0
H528 H 0.24956 0.81517 0.94759 0.0
H529 H 0.30458 0.87461 0.96959 0.0
H530 H 0.22218 0.79278 0.98952 0.0
H531 H 0.2004 0.81834 0.98022 0.0
H532 H 0.21607 0.7938 0.96529 0.0
H533 H 0.30279 0.88908 -7e-05 0.0
H534 H 0.26804 0.89194 0.00753 0.0
H535 H 0.28887 0.86486 0.01584 0.0
H536 H 0.18576 0.87614 0.02975 0.0
H537 H 0.23793 0.813 0.05018 0.0
H538 H 0.20076 0.86782 0.98317 0.0
H539 H 0.22273 0.89351 0.99213 0.0
H540 H 0.18787 0.89176 -0.00033 0.0
H541 H 0.26386 0.79134 0.00759 0.0
H542 H 0.26998 0.79068 0.03182 0.0
H543 H 0.28688 0.81522 0.01753 0.0
C544 C 0.57171 0.98618 0.78913 0.0
C545 C 0.58791 0.96289 0.79103 0.0
C546 C 0.57054 0.00026 0.77254 0.0
C547 C 0.58618 0.99092 0.75762 0.0
C548 C 0.60191 0.96693 0.75931 0.0
C549 C 0.60247 0.9531 0.776 0.0
C550 C 0.55325 0.02556 0.77115 0.0
C551 C 0.61895 0.95643 0.7437 0.0
C552 C 0.57216 0.01516 0.70951 0.0
C553 C 0.59238 0.03499 0.70727 0.0
C554 C 0.56933 0.00117 0.72604 0.0
C555 C 0.58735 0.007 0.74055 0.0
C556 C 0.60736 0.02749 0.73851 0.0
C557 C 0.60954 0.04135 0.7219 0.0
C558 C 0.54753 0.97971 0.72783 0.0
C559 C 0.62704 0.03416 0.75367 0.0
H560 H 0.56031 0.99373 0.80071 0.0
H561 H 0.61503 0.93511 0.77743 0.0
H562 H 0.56651 0.04359 0.76919 0.0
H563 H 0.53963 0.02427 0.75913 0.0
H564 H 0.54064 0.02885 0.78351 0.0
H565 H 0.62905 0.93683 0.74698 0.0
H566 H 0.60614 0.95356 0.73141 0.0
H567 H 0.63484 0.97159 0.74022 0.0
H568 H 0.55878 0.01027 0.69823 0.0
H569 H 0.62522 0.05664 0.7202 0.0
H570 H 0.53496 0.98361 0.7401 0.0
H571 H 0.55709 0.95944 0.72959 0.0
H572 H 0.53397 0.97897 0.71573 0.0
H573 H 0.61576 0.03959 0.76623 0.0
H574 H 0.64081 0.05125 0.75009 0.0
H575 H 0.63961 0.01602 0.75684 0.0
C576 C 0.70026 0.85727 0.47295 0.0
C577 C 0.71021 0.84196 0.4583 0.0
C578 C 0.71391 0.85747 0.48975 0.0
C579 C 0.73786 0.84178 0.49192 0.0
C580 C 0.7474 0.82553 0.47736 0.0
C581 C 0.73352 0.82592 0.46069 0.0
C582 C 0.7032 0.87512 0.50498 0.0
C583 C 0.77268 0.80828 0.47923 0.0
C584 C 0.78903 0.86403 0.52763 0.0
C585 C 0.78288 0.84648 0.54208 0.0
C586 C 0.77451 0.86269 0.5112 0.0
C587 C 0.75355 0.84316 0.50917 0.0
C588 C 0.74761 0.82505 0.5236 0.0
C589 C 0.76229 0.827 0.53993 0.0
C590 C 0.78134 0.88241 0.49612 0.0
C591 C 0.72562 0.80377 0.52184 0.0
H592 H 0.68229 0.86975 0.47113 0.0
H593 H 0.74121 0.81394 0.44941 0.0
H594 H 0.69999 0.86276 0.51743 0.0
H595 H 0.7184 0.89101 0.50838 0.0
H596 H 0.68373 0.88523 0.50134 0.0
H597 H 0.77646 0.79557 0.46698 0.0
H598 H 0.79062 0.82155 0.48148 0.0
H599 H 0.77092 0.79474 0.49126 0.0
H600 H 0.80485 0.87918 0.52927 0.0
H601 H 0.75751 0.81336 0.55107 0.0
H602 H 0.76318 0.8948 0.4927 0.0
H603 H 0.78718 0.87111 0.48364 0.0
H604 H 0.79824 0.89632 0.49986 0.0
H605 H 0.70569 0.81373 0.51943 0.0
H606 H 0.72398 0.79081 0.53418 0.0
H607 H 0.72976 0.79052 0.50992 0.0
C608 C 0.91896 0.01189 0.29138 0.0
C609 C 0.90269 0.03489 0.29433 0.0
C610 C 0.91995 -0.0007 0.27427 0.0
C611 C 0.90409 0.00986 0.25984 0.0
C612 C 0.88826 0.03358 0.26258 0.0
C613 C 0.88784 0.04591 0.27981 0.0
C614 C 0.9373 0.97421 0.27181 0.0
C615 C 0.87101 0.04535 0.24749 0.0
C616 C 0.91969 0.98836 0.21131 0.0
C617 C 0.90023 0.96795 0.20849 0.0
C618 C 0.92137 0.00206 0.22804 0.0
C619 C 0.903 0.99529 0.24215 0.0
C620 C 0.88345 0.97454 0.23941 0.0
C621 C 0.88238 0.96102 0.22261 0.0
C622 C 0.94266 0.02388 0.23057 0.0
C623 C 0.86344 0.96685 0.25414 0.0
H624 H 0.93059 0.00339 0.30257 0.0
H625 H 0.87521 0.06367 0.28206 0.0
H626 H 0.92411 0.9564 0.26899 0.0
H627 H 0.95101 0.97674 0.25993 0.0
H628 H 0.94984 0.96971 0.28403 0.0
H629 H 0.86096 0.06465 0.25157 0.0
H630 H 0.88365 0.04923 0.23525 0.0
H631 H 0.85508 0.03049 0.24353 0.0
H632 H 0.93355 0.99375 0.20042 0.0
H633 H 0.86724 0.94532 0.22044 0.0
H634 H 0.95573 0.01894 0.24243 0.0
H635 H 0.93269 0.04365 0.23349 0.0
H636 H 0.95579 0.02629 0.21836 0.0
H637 H 0.87451 0.96016 0.26652 0.0
H638 H 0.84951 0.95028 0.24981 0.0
H639 H 0.85106 0.98483 0.25798 0.0
C640 C 0.79342 0.14376 0.96903 0.0
C641 C 0.78257 0.1587 0.95451 0.0
C642 C 0.78109 0.14435 0.98627 0.0
C643 C 0.75758 0.1605 0.98901 0.0
C644 C 0.74732 0.17659 0.97459 0.0
C645 C 0.75986 0.17538 0.95747 0.0
C646 C 0.79252 0.12682 0.00131 0.0
C647 C 0.72251 0.19433 0.97706 0.0
C648 C 0.70796 0.13825 0.02561 0.0
C649 C 0.71491 0.1555 0.04007 0.0
C650 C 0.72168 0.13975 0.00891 0.0
C651 C 0.74266 0.15916 0.00657 0.0
C652 C 0.74941 0.17702 0.021 0.0
C653 C 0.73552 0.17488 0.03764 0.0
C654 C 0.714 0.12026 0.99385 0.0
C655 C 0.77143 0.19819 0.01891 0.0
H656 H 0.81095 0.13082 0.96678 0.0
H657 H 0.75151 0.1871 0.94628 0.0
H658 H 0.79623 0.13921 0.01369 0.0
H659 H 0.77752 0.11087 0.005 0.0
H660 H 0.81185 0.11675 0.99731 0.0
H661 H 0.71853 0.20733 0.96498 0.0
H662 H 0.70439 0.18138 0.97947 0.0
H663 H 0.72499 0.2076 0.98917 0.0
H664 H 0.69211 0.12318 0.02745 0.0
H665 H 0.74093 0.18829 0.04879 0.0
H666 H 0.7319 0.10778 0.98999 0.0
H667 H 0.70764 0.13174 0.98156 0.0
H668 H 0.69719 0.1064 0.99786 0.0
H669 H 0.7912 0.18812 0.01614 0.0
H670 H 0.77363 0.21108 0.03125 0.0
H671 H 0.76689 0.2115 0.0071 0.0
C672 C 0.88641 0.53652 0.71256 0.0
C673 C 0.90469 0.52975 0.69865 0.0
C674 C 0.88714 0.52302 0.72937 0.0
C675 C 0.90683 0.50249 0.73235 0.0
C676 C 0.92572 0.49596 0.71849 0.0
C677 C 0.92432 0.50959 0.70172 0.0
C678 C 0.86653 0.5304 0.7438 0.0
C679 C 0.9472 0.47441 0.72129 0.0
C680 C 0.92046 0.48496 0.78179 0.0
C681 C 0.90433 0.46171 0.78409 0.0
C682 C 0.9222 0.49796 0.76484 0.0
C683 C 0.90722 0.48757 0.74992 0.0
C684 C 0.89146 0.46368 0.75205 0.0
C685 C 0.89031 0.45094 0.76912 0.0
C686 C 0.93947 0.52321 0.76302 0.0
C687 C 0.87507 0.45211 0.73647 0.0
H688 H 0.87114 0.55204 0.71021 0.0
H689 H 0.93854 0.50436 0.69099 0.0
H690 H 0.85406 0.51231 0.74726 0.0
H691 H 0.87705 0.5369 0.75644 0.0
H692 H 0.85271 0.547 0.73936 0.0
H693 H 0.96101 0.47248 0.70939 0.0
H694 H 0.95955 0.47925 0.73352 0.0
H695 H 0.93738 0.45443 0.72375 0.0
H696 H 0.93144 0.49327 0.79333 0.0
H697 H 0.8778 0.43297 0.77086 0.0
H698 H 0.92628 0.541 0.76009 0.0
H699 H 0.95377 0.52104 0.75142 0.0
H700 H 0.95136 0.52752 0.77556 0.0
H701 H 0.85932 0.46699 0.73223 0.0
H702 H 0.86486 0.43273 0.74015 0.0
H703 H 0.88838 0.44844 0.72452 0.0
C704 C 0.79415 0.63852 0.02692 0.0
C705 C 0.78763 0.65615 0.04126 0.0
C706 C 0.7801 0.63978 0.01033 0.0
C707 C 0.75922 0.65931 0.008 0.0
C708 C 0.75302 0.67764 0.02227 0.0
C709 C 0.76725 0.67576 0.03879 0.0
C710 C 0.78721 0.61982 0.99543 0.0
C711 C 0.7311 0.69893 0.02018 0.0
C712 C 0.73995 0.67419 0.95904 0.0
C713 C 0.71699 0.65761 0.95676 0.0
C714 C 0.75333 0.67574 0.97587 0.0
C715 C 0.74364 0.66012 0.99069 0.0
C716 C 0.71993 0.64404 0.98863 0.0
C717 C 0.70679 0.64308 0.97167 0.0
C718 C 0.77834 0.69337 0.97762 0.0
C719 C 0.70907 0.62703 0.00412 0.0
H720 H 0.80983 0.62328 0.0288 0.0
H721 H 0.76218 0.68946 0.04985 0.0
H722 H 0.76919 0.60717 0.9921 0.0
H723 H 0.79301 0.63089 0.98286 0.0
H724 H 0.80422 0.60613 -0.00067 0.0
H725 H 0.72959 0.71239 0.03229 0.0
H726 H 0.7352 0.71166 0.00801 0.0
H727 H 0.71114 0.68892 0.01802 0.0
H728 H 0.74781 0.68559 0.94756 0.0
H729 H 0.68906 0.63023 0.96994 0.0
H730 H 0.79646 0.68038 0.97995 0.0
H731 H 0.77642 0.70711 0.98954 0.0
H732 H 0.78194 0.7059 0.96526 0.0
H733 H 0.72421 0.61122 0.00783 0.0
H734 H 0.68961 0.61682 0.0006 0.0
H735 H 0.7058 0.63986 0.01636 0.0
C736 C 0.57698 0.50543 0.28798 0.0
C737 C 0.59276 0.52893 0.29031 0.0
C738 C 0.57633 0.49178 0.27121 0.0
C739 C 0.59215 0.50169 0.25654 0.0
C740 C 0.60795 0.52553 0.25879 0.0
C741 C 0.60791 0.53899 0.27563 0.0
C742 C 0.5589 0.46667 0.26921 0.0
C743 C 0.62526 0.53657 0.24349 0.0
C744 C 0.61273 0.45387 0.21836 0.0
C745 C 0.59529 0.46219 0.20434 0.0
C746 C 0.61163 0.46626 0.23557 0.0
C747 C 0.59235 0.48711 0.23883 0.0
C748 C 0.57402 0.49484 0.22491 0.0
C749 C 0.57587 0.48243 0.20777 0.0
C750 C 0.63169 0.45769 0.25005 0.0
C751 C 0.55289 0.51666 0.22798 0.0
H752 H 0.56518 0.49765 0.29931 0.0
H753 H 0.62025 0.55707 0.27742 0.0
H754 H 0.54447 0.46927 0.25772 0.0
H755 H 0.57187 0.44885 0.26598 0.0
H756 H 0.54712 0.46214 0.28176 0.0
H757 H 0.63644 0.55528 0.24748 0.0
H758 H 0.64025 0.52098 0.23915 0.0
H759 H 0.61235 0.54129 0.23151 0.0
H760 H 0.62783 0.43829 0.21571 0.0
H761 H 0.56224 0.48878 0.19696 0.0
H762 H 0.62077 0.45155 0.26261 0.0
H763 H 0.64496 0.47514 0.25366 0.0
H764 H 0.64474 0.44052 0.24555 0.0
H765 H 0.54058 0.51187 0.24023 0.0
H766 H 0.53899 0.51898 0.21615 0.0
H767 H 0.56306 0.53645 0.2305 0.0
C768 C 0.70244 0.35549 0.52215 0.0
C769 C 0.71014 0.33842 0.53652 0.0
C770 C 0.71548 0.35393 0.50521 0.0
C771 C 0.73655 0.33469 0.50259 0.0
C772 C 0.74349 0.3165 0.51678 0.0
C773 C 0.73025 0.31867 0.53364 0.0
C774 C 0.70756 0.37371 0.49039 0.0
C775 C 0.76562 0.29551 0.5144 0.0
C776 C 0.75845 0.32212 0.45376 0.0
C777 C 0.78105 0.33939 0.45233 0.0
C778 C 0.74417 0.3197 0.47022 0.0
C779 C 0.75263 0.33509 0.4855 0.0
C780 C 0.77588 0.35198 0.48425 0.0
C781 C 0.78987 0.35384 0.46768 0.0
C782 C 0.71965 0.30127 0.47114 0.0
C783 C 0.78547 0.36875 0.50025 0.0
H784 H 0.68686 0.37076 0.52432 0.0
H785 H 0.73616 0.30532 0.54471 0.0
H786 H 0.72486 0.38756 0.48751 0.0
H787 H 0.7029 0.36265 0.4776 0.0
H788 H 0.68961 0.3862 0.4942 0.0
H789 H 0.76669 0.28119 0.52608 0.0
H790 H 0.76226 0.28367 0.50173 0.0
H791 H 0.78559 0.30583 0.51306 0.0
H792 H 0.75163 0.31084 0.44192 0.0
H793 H 0.80733 0.36721 0.46662 0.0
H794 H 0.70105 0.31361 0.47338 0.0
H795 H 0.72151 0.28711 0.48283 0.0
H796 H 0.71695 0.28919 0.45848 0.0
H797 H 0.76947 0.38358 0.50413 0.0
H798 H 0.80448 0.3801 0.49721 0.0
H799 H 0.78912 0.35547 0.51221 0.0
C800 C 0.07609 0.48233 0.2858 0.0
C801 C 0.09634 0.4632 0.28985 0.0
C802 C 0.07505 0.49496 0.26869 0.0
C803 C 0.09489 0.4884 0.25544 0.0
C804 C 0.11496 0.46858 0.2593 0.0
C805 C 0.11539 0.45613 0.27647 0.0
C806 C 0.05321 0.51583 0.26498 0.0
C807 C 0.13649 0.46113 0.2455 0.0
C808 C 0.0833 0.50637 0.2058 0.0
C809 C 0.09889 0.53011 0.20406 0.0
C810 C 0.08139 0.49279 0.22254 0.0
C811 C 0.09549 0.5032 0.23783 0.0
C812 C 0.11084 0.52744 0.23623 0.0
C813 C 0.11232 0.54064 0.21935 0.0
C814 C 0.06471 0.46707 0.2238 0.0
C815 C 0.12616 0.53912 0.25226 0.0
H816 H 0.06126 0.48777 0.2961 0.0
H817 H 0.13109 0.44135 0.27957 0.0
H818 H 0.06265 0.53609 0.26293 0.0
H819 H 0.04212 0.51066 0.25228 0.0
H820 H 0.0383 0.51734 0.2763 0.0
H821 H 0.14991 0.44446 0.25035 0.0
H822 H 0.12684 0.45474 0.23253 0.0
H823 H 0.14926 0.47919 0.24249 0.0
H824 H 0.07286 0.49819 0.194 0.0
H825 H 0.1244 0.55898 0.21805 0.0
H826 H 0.04938 0.46895 0.23481 0.0
H827 H 0.07809 0.44968 0.22733 0.0
H828 H 0.05404 0.46233 0.21084 0.0
H829 H 0.11201 0.54287 0.26376 0.0
H830 H 0.13659 0.5585 0.24884 0.0
H831 H 0.14161 0.52431 0.25705 0.0
C832 C 0.25986 0.32805 0.03555 0.0
C833 C 0.28464 0.34198 0.03706 0.0
C834 C 0.24562 0.32735 0.019 0.0
C835 C 0.25632 0.34119 0.00371 0.0
C836 C 0.28166 0.35474 0.00505 0.0
C837 C 0.29561 0.35484 0.02171 0.0
C838 C 0.21885 0.31237 0.018 0.0
C839 C 0.29361 0.36987 0.98904 0.0
C840 C 0.23122 0.32564 0.95597 0.0
C841 C 0.213 0.34712 0.95299 0.0
C842 C 0.24494 0.32299 0.97263 0.0
C843 C 0.24054 0.3425 0.98649 0.0
C844 C 0.22173 0.3639 0.98368 0.0
C845 C 0.20804 0.36585 0.96698 0.0
C846 C 0.26454 0.29967 0.97525 0.0
C847 C 0.21667 0.3852 0.99811 0.0
H848 H 0.25137 0.31798 0.04739 0.0
H849 H 0.31473 0.36568 0.02284 0.0
H850 H 0.20213 0.32701 0.01537 0.0
H851 H 0.21908 0.29771 0.00651 0.0
H852 H 0.21425 0.30116 0.03077 0.0
H853 H 0.31391 0.37863 0.99216 0.0
H854 H 0.29562 0.35606 0.97717 0.0
H855 H 0.27977 0.38662 0.98496 0.0
H856 H 0.23502 0.31105 0.9452 0.0
H857 H 0.19402 0.38253 0.96468 0.0
H858 H 0.25943 0.28829 0.98784 0.0
H859 H 0.28549 0.30766 0.97694 0.0
H860 H 0.26437 0.28531 0.96357 0.0
H861 H 0.21018 0.3754 0.011 0.0
H862 H 0.20085 0.40011 0.99396 0.0
H863 H 0.2358 0.39638 0.00099 0.0
C864 C 0.39804 0.54295 0.7802 0.0
C865 C 0.41307 0.53504 0.79552 0.0
C866 C 0.39957 0.52815 0.76391 0.0
C867 C 0.41671 0.50505 0.76291 0.0
C868 C 0.4327 0.49757 0.77813 0.0
C869 C 0.43061 0.51262 0.79431 0.0
C870 C 0.38216 0.53672 0.74796 0.0
C871 C 0.45143 0.47324 0.77748 0.0
C872 C 0.39639 0.45228 0.72782 0.0
C873 C 0.41317 0.45924 0.71312 0.0
C874 C 0.39792 0.46654 0.74433 0.0
C875 C 0.41682 0.4881 0.74618 0.0
C876 C 0.43463 0.49442 0.73165 0.0
C877 C 0.43251 0.47996 0.71524 0.0
C878 C 0.37856 0.45925 0.75953 0.0
C879 C 0.45524 0.51706 0.73321 0.0
H880 H 0.38445 0.56026 0.78108 0.0
H881 H 0.44233 0.50649 0.80613 0.0
H882 H 0.39499 0.53984 0.73571 0.0
H883 H 0.36737 0.52039 0.74468 0.0
H884 H 0.37072 0.55577 0.75072 0.0
H885 H 0.46393 0.47132 0.79002 0.0
H886 H 0.43927 0.4544 0.77582 0.0
H887 H 0.46521 0.4747 0.76556 0.0
H888 H 0.38142 0.43627 0.72623 0.0
H889 H 0.44561 0.48532 0.70392 0.0
H890 H 0.36465 0.47659 0.76218 0.0
H891 H 0.38999 0.45533 0.77229 0.0
H892 H 0.36611 0.44103 0.75627 0.0
H893 H 0.44457 0.53688 0.73432 0.0
H894 H 0.46911 0.51785 0.72128 0.0
H895 H 0.46761 0.51453 0.74573 0.0
C896 C 0.24571 0.6678 0.54486 0.0
C897 C 0.22122 0.65347 0.54684 0.0
C898 C 0.25858 0.66975 0.52788 0.0
C899 C 0.24678 0.65686 0.51257 0.0
C900 C 0.22173 0.6429 0.5144 0.0
C901 C 0.20916 0.64148 0.53153 0.0
C902 C 0.28512 0.68506 0.52641 0.0
C903 C 0.20861 0.62879 0.49837 0.0
C904 C 0.26859 0.67621 0.46471 0.0
C905 C 0.28682 0.65521 0.46051 0.0
C906 C 0.25582 0.67738 0.48179 0.0
C907 C 0.26123 0.65688 0.49482 0.0
C908 C 0.28004 0.63593 0.49075 0.0
C909 C 0.29274 0.63544 0.47366 0.0
C910 C 0.23618 0.70024 0.48576 0.0
C911 C 0.28622 0.61364 0.50428 0.0
H912 H 0.25504 0.67722 0.55666 0.0
H913 H 0.19025 0.63036 0.53302 0.0
H914 H 0.30171 0.6708 0.5227 0.0
H915 H 0.28385 0.70053 0.51544 0.0
H916 H 0.29069 0.69539 0.53934 0.0
H917 H 0.18863 0.61967 0.50193 0.0
H918 H 0.20561 0.64337 0.48703 0.0
H919 H 0.2222 0.61243 0.49331 0.0
H920 H 0.26403 0.69157 0.45458 0.0
H921 H 0.30675 0.61912 0.47043 0.0
H922 H 0.24214 0.71087 0.49848 0.0
H923 H 0.21548 0.69187 0.48792 0.0
H924 H 0.23529 0.71534 0.47452 0.0
H925 H 0.29362 0.62254 0.51725 0.0
H926 H 0.30176 0.59914 0.49914 0.0
H927 H 0.26736 0.60215 0.50741 0.0
C928 C 0.34253 0.98985 0.12663 0.0
C929 C 0.33621 0.00959 0.13973 0.0
C930 C 0.32319 0.97042 0.12129 0.0
C931 C 0.29694 0.97088 0.12921 0.0
C932 C 0.29047 0.99076 0.14246 0.0
C933 C 0.31022 0.00985 0.14759 0.0
C934 C 0.33081 0.94945 0.10715 0.0
C935 C 0.26264 0.99196 0.15114 0.0
C936 C 0.23881 0.93811 0.1033 0.0
C937 C 0.23602 0.91323 0.11243 0.0
C938 C 0.25858 0.95706 0.10863 0.0
C939 C 0.27601 0.9509 0.1234 0.0
C940 C 0.27328 0.92582 0.13269 0.0
C941 C 0.25325 0.90727 0.12711 0.0
C942 C 0.26079 0.98366 0.09846 0.0
C943 C 0.29158 0.91857 0.14848 0.0
H944 H 0.36263 0.98953 0.12056 0.0
H945 H 0.30523 0.02508 0.15773 0.0
H946 H 0.32792 0.92869 0.11274 0.0
H947 H 0.31727 0.95138 0.09513 0.0
H948 H 0.35223 0.95157 0.10255 0.0
H949 H 0.26098 0.00854 0.16136 0.0
H950 H 0.24692 0.99518 0.14052 0.0
H951 H 0.258 0.97235 0.15793 0.0
H952 H 0.22554 0.94281 0.09194 0.0
H953 H 0.25119 0.88802 0.13416 0.0
H954 H 0.28146 0.98579 0.09256 0.0
H955 H 0.25776 0.00092 0.10798 0.0
H956 H 0.24564 0.98532 0.08729 0.0
H957 H 0.31315 0.91887 0.14405 0.0
H958 H 0.28692 0.89817 0.15418 0.0
H959 H 0.28941 0.9339 0.15948 0.0
C960 C 0.25041 0.09335 0.37352 0.0
C961 C 0.23279 0.08731 0.38796 0.0
C962 C 0.27035 0.07465 0.36796 0.0
C963 C 0.27262 0.04938 0.37707 0.0
C964 C 0.2547 0.0431 0.39155 0.0
C965 C 0.235 0.06215 0.39682 0.0
C966 C 0.28909 0.082 0.35243 0.0
C967 C 0.25644 0.01631 0.40155 0.0
C968 C 0.30722 0.99028 0.35328 0.0
C969 C 0.33297 0.99033 0.3615 0.0
C970 C 0.28748 0.00957 0.35809 0.0
C971 C 0.29365 0.02936 0.37145 0.0
C972 C 0.31967 0.02962 0.37974 0.0
C973 C 0.33905 0.01006 0.37466 0.0
C974 C 0.25995 0.00864 0.34896 0.0
C975 C 0.32695 0.05044 0.39406 0.0
H976 H 0.2488 0.1128 0.36666 0.0
H977 H 0.22144 0.05739 0.40801 0.0
H978 H 0.31052 0.08175 0.35717 0.0
H979 H 0.28732 0.0667 0.34139 0.0
H980 H 0.28455 0.10241 0.3467 0.0
H981 H 0.24088 0.01453 0.41245 0.0
H982 H 0.25371 0.99922 0.39185 0.0
H983 H 0.27688 0.01401 0.40778 0.0
H984 H 0.30243 0.9751 0.34305 0.0
H985 H 0.35895 0.01021 0.38102 0.0
H986 H 0.25562 0.02839 0.34226 0.0
H987 H 0.24385 0.0053 0.3593 0.0
H988 H 0.25858 0.99225 0.33858 0.0
H989 H 0.32431 0.07125 0.38851 0.0
H990 H 0.34822 0.04819 0.39893 0.0
H991 H 0.31304 0.04847 0.40588 0.0
C992 C 0.16053 0.00149 0.62464 0.0
C993 C 0.16691 0.98279 0.6384 0.0
C994 C 0.17942 0.02128 0.61918 0.0
C995 C 0.20528 0.02226 0.62765 0.0
C996 C 0.21193 0.00322 0.6414 0.0
C997 C 0.19262 0.98373 0.64663 0.0
C998 C 0.17162 0.04128 0.60447 0.0
C999 C 0.23937 0.00353 0.65065 0.0
C1000 C 0.26288 0.05752 0.60268 0.0
C1001 C 0.26375 0.08281 0.61151 0.0
C1002 C 0.24397 0.03761 0.60782 0.0
C1003 C 0.22545 0.04317 0.62209 0.0
C1004 C 0.22627 0.06864 0.63109 0.0
C1005 C 0.24547 0.08818 0.6257 0.0
C1006 C 0.24379 0.01064 0.59796 0.0
C1007 C 0.20679 0.07528 0.64636 0.0
H1008 H 0.14064 0.00088 0.61827 0.0
H1009 H 0.19765 0.9693 0.65727 0.0
H1010 H 0.17281 0.06233 0.60985 0.0
H1011 H 0.18614 0.03985 0.59294 0.0
H1012 H 0.15074 0.03771 0.59921 0.0
H1013 H 0.24143 0.98713 0.66096 0.0
H1014 H 0.25575 0.00112 0.64038 0.0
H1015 H 0.24261 0.02341 0.65747 0.0
H1016 H 0.27698 0.05326 0.5917 0.0
H1017 H 0.24605 0.10771 0.63253 0.0
H1018 H 0.22362 0.00722 0.59157 0.0
H1019 H 0.24718 0.99384 0.60779 0.0
H1020 H 0.25964 0.0095 0.58721 0.0
H1021 H 0.18552 0.07372 0.64142 0.0
H1022 H 0.21005 0.09604 0.65192 0.0
H1023 H 0.20918 0.06036 0.65757 0.0
C1024 C 0.18287 0.01432 0.8542 0.0
C1025 C 0.15636 0.01396 0.86122 0.0
C1026 C 0.20195 0.99457 0.8593 0.0
C1027 C 0.19432 0.97397 0.87174 0.0
C1028 C 0.16757 0.97348 0.87889 0.0
C1029 C 0.14887 0.99352 0.87354 0.0
C1030 C 0.2303 0.99577 0.8514 0.0
C1031 C 0.15876 0.95183 0.89223 0.0
C1032 C 0.23727 0.90977 0.87283 0.0
C1033 C 0.25417 0.91478 0.88783 0.0
C1034 C 0.21748 0.92876 0.86752 0.0
C1035 C 0.21456 0.95325 0.87749 0.0
C1036 C 0.23148 0.95832 0.89271 0.0
C1037 C 0.2511 0.93902 0.89768 0.0
C1038 C 0.19981 0.92273 0.85118 0.0
C1039 C 0.22897 0.9842 0.90367 0.0
H1040 H 0.18875 0.03006 0.84464 0.0
H1041 H 0.12837 0.99315 0.87896 0.0
H1042 H 0.24544 0.998 0.86251 0.0
H1043 H 0.23498 0.97651 0.84417 0.0
H1044 H 0.23287 0.01294 0.84173 0.0
H1045 H 0.13716 0.95417 0.89639 0.0
H1046 H 0.16148 0.93139 0.88609 0.0
H1047 H 0.17171 0.95266 0.90459 0.0
H1048 H 0.23954 0.89102 0.86521 0.0
H1049 H 0.26406 0.94296 0.90934 0.0
H1050 H 0.20288 0.93856 0.84062 0.0
H1051 H 0.17804 0.92331 0.85513 0.0
H1052 H 0.20431 0.90253 0.84511 0.0
H1053 H 0.23301 0.00204 0.89483 0.0
H1054 H 0.24332 0.98477 0.91536 0.0
H1055 H 0.20794 0.98634 0.90895 0.0
C1056 C 0.75367 0.06246 0.89386 0.0
C1057 C 0.75464 0.08736 0.88457 0.0
C1058 C 0.73473 0.04239 0.8891 0.0
C1059 C 0.71624 0.04739 0.87472 0.0
C1060 C 0.7171 0.07247 0.86526 0.0
C1061 C 0.73638 0.09219 0.87028 0.0
C1062 C 0.73453 0.01584 0.89944 0.0
C1063 C 0.69762 0.07849 0.84987 0.0
C1064 C 0.68403 0.9863 0.85168 0.0
C1065 C 0.65844 0.98535 0.86008 0.0
C1066 C 0.703 0.00646 0.85627 0.0
C1067 C 0.69615 0.02618 0.86953 0.0
C1068 C 0.67037 0.0253 0.87811 0.0
C1069 C 0.65181 0.00482 0.8733 0.0
C1070 C 0.73037 0.00665 0.84692 0.0
C1071 C 0.66238 0.04601 0.89232 0.0
H1072 H 0.76776 0.05861 0.90492 0.0
H1073 H 0.73703 0.11143 0.86309 0.0
H1074 H 0.71434 0.01265 0.90584 0.0
H1075 H 0.73802 0.99865 0.88993 0.0
H1076 H 0.75033 0.01516 0.91025 0.0
H1077 H 0.70085 0.09903 0.84397 0.0
H1078 H 0.70006 0.06314 0.83891 0.0
H1079 H 0.67635 0.07706 0.85482 0.0
H1080 H 0.68924 0.9713 0.84142 0.0
H1081 H 0.632 0.00423 0.87977 0.0
H1082 H 0.74683 0.00465 0.85718 0.0
H1083 H 0.73346 0.02631 0.83982 0.0
H1084 H 0.73246 0.98992 0.83684 0.0
H1085 H 0.67676 0.04516 0.90395 0.0
H1086 H 0.64143 0.04268 0.89754 0.0
H1087 H 0.66362 0.0668 0.8865 0.0
C1088 C 0.65951 0.99344 0.62481 0.0
C1089 C 0.66495 0.01132 0.63922 0.0
C1090 C 0.67867 0.97382 0.61951 0.0
C1091 C 0.70384 0.97218 0.62883 0.0
C1092 C 0.7094 0.99017 0.64341 0.0
C1093 C 0.68986 0.0095 0.64845 0.0
C1094 C 0.67205 0.95491 0.60392 0.0
C1095 C 0.73607 0.9891 0.65361 0.0
C1096 C 0.74507 0.90709 0.62543 0.0
C1097 C 0.76414 0.91398 0.61202 0.0
C1098 C 0.72524 0.92584 0.63104 0.0
C1099 C 0.72463 0.95206 0.62308 0.0
C1100 C 0.74399 0.95917 0.60965 0.0
C1101 C 0.76349 0.94001 0.60426 0.0
C1102 C 0.70486 0.91758 0.64539 0.0
C1103 C 0.74406 0.987 0.60093 0.0
H1104 H 0.64024 0.99474 0.61768 0.0
H1105 H 0.69414 0.02328 0.65962 0.0
H1106 H 0.68708 0.95763 0.5928 0.0
H1107 H 0.67346 0.93346 0.6085 0.0
H1108 H 0.65135 0.95848 0.59833 0.0
H1109 H 0.73708 0.00433 0.66477 0.0
H1110 H 0.73911 0.96856 0.65951 0.0
H1111 H 0.75318 0.99286 0.64408 0.0
H1112 H 0.74547 0.88695 0.63143 0.0
H1113 H 0.77821 0.94543 0.59388 0.0
H1114 H 0.68393 0.91925 0.63985 0.0
H1115 H 0.70619 0.93152 0.65724 0.0
H1116 H 0.70811 0.89642 0.65023 0.0
H1117 H 0.72432 0.99072 0.59405 0.0
H1118 H 0.76064 0.98934 0.59077 0.0
H1119 H 0.74648 0.0029 0.61153 0.0
C1120 C 0.73667 0.93266 0.39791 0.0
C1121 C 0.73601 0.90704 0.38952 0.0
C1122 C 0.75659 0.95184 0.39334 0.0
C1123 C 0.77636 0.94523 0.38007 0.0
C1124 C 0.77593 0.91934 0.3716 0.0
C1125 C 0.75569 0.90052 0.37643 0.0
C1126 C 0.75632 0.97928 0.40261 0.0
C1127 C 0.79672 0.91163 0.35739 0.0
C1128 C 0.81004 0.00407 0.35557 0.0
C1129 C 0.83492 0.00614 0.3648 0.0
C1130 C 0.79092 0.98417 0.36031 0.0
C1131 C 0.79686 0.96586 0.37462 0.0
C1132 C 0.82198 0.96778 0.384 0.0
C1133 C 0.84074 0.98798 0.37898 0.0
C1134 C 0.7643 0.98286 0.35007 0.0
C1135 C 0.82896 0.94856 0.39933 0.0
H1136 H 0.72154 0.93779 0.40809 0.0
H1137 H 0.7553 0.88069 0.36997 0.0
H1138 H 0.77612 0.98303 0.4094 0.0
H1139 H 0.75346 0.99557 0.39233 0.0
H1140 H 0.73989 0.98098 0.41293 0.0
H1141 H 0.79402 0.89043 0.35246 0.0
H1142 H 0.7952 0.92562 0.34558 0.0
H1143 H 0.81754 0.91376 0.36305 0.0
H1144 H 0.80545 0.01804 0.34457 0.0
H1145 H 0.86 0.98946 0.38611 0.0
H1146 H 0.74709 0.98602 0.35961 0.0
H1147 H 0.76169 0.96243 0.34389 0.0
H1148 H 0.76301 0.99838 0.3391 0.0
H1149 H 0.81384 0.95063 0.41046 0.0
H1150 H 0.84956 0.95242 0.405 0.0
H1151 H 0.82801 0.92723 0.39445 0.0
C1152 C 0.75528 0.0933 0.12294 0.0
C1153 C 0.73704 0.08707 0.10888 0.0
C1154 C 0.77487 0.07433 0.1286 0.0
C1155 C 0.77618 0.04861 0.11997 0.0
C1156 C 0.75789 0.04229 0.1057 0.0
C1157 C 0.73852 0.0616 0.10034 0.0
C1158 C 0.79406 0.08174 0.14388 0.0
C1159 C 0.75867 0.01506 0.09618 0.0
C1160 C 0.84104 0.00704 0.12377 0.0
C1161 C 0.8342 0.9886 0.13758 0.0
C1162 C 0.82237 0.02681 0.11793 0.0
C1163 C 0.79631 0.02804 0.12609 0.0
C1164 C 0.78928 0.00938 0.13997 0.0
C1165 C 0.80833 0.98989 0.14556 0.0
C1166 C 0.83054 0.0464 0.10308 0.0
C1167 C 0.76163 0.01 0.14894 0.0
H1168 H 0.75423 0.11299 0.12955 0.0
H1169 H 0.7245 0.05672 0.08942 0.0
H1170 H 0.79144 0.06736 0.15539 0.0
H1171 H 0.81544 0.07995 0.13919 0.0
H1172 H 0.79067 0.10275 0.14897 0.0
H1173 H 0.74328 0.01352 0.08515 0.0
H1174 H 0.77912 0.01157 0.09024 0.0
H1175 H 0.75494 0.99853 0.10615 0.0
H1176 H 0.86105 0.00615 0.1176 0.0
H1177 H 0.80296 0.97568 0.15626 0.0
H1178 H 0.829 0.06762 0.10812 0.0
H1179 H 0.81645 0.04449 0.09134 0.0
H1180 H 0.85164 0.04283 0.09821 0.0
H1181 H 0.75811 0.03018 0.15528 0.0
H1182 H 0.75942 0.9941 0.15958 0.0
H1183 H 0.74551 0.00698 0.13856 0.0
C1184 C 0.75619 0.40663 0.61949 0.0
C1185 C 0.7404 0.41027 0.60379 0.0
C1186 C 0.77638 0.42553 0.62427 0.0
C1187 C 0.78083 0.44852 0.61305 0.0
C1188 C 0.76512 0.45212 0.59708 0.0
C1189 C 0.74506 0.43296 0.59265 0.0
C1190 C 0.79272 0.42106 0.64142 0.0
C1191 C 0.76929 0.47638 0.58478 0.0
C1192 C 0.81263 0.51105 0.63447 0.0
C1193 C 0.83971 0.50902 0.62863 0.0
C1194 C 0.79329 0.4915 0.62946 0.0
C1195 C 0.80122 0.46936 0.61835 0.0
C1196 C 0.82849 0.46727 0.6123 0.0
C1197 C 0.84745 0.48717 0.61751 0.0
C1198 C 0.76437 0.49448 0.63614 0.0
C1199 C 0.83765 0.44393 0.60042 0.0
H1200 H 0.75269 0.38908 0.6281 0.0
H1201 H 0.73297 0.43581 0.58045 0.0
H1202 H 0.81476 0.42072 0.63818 0.0
H1203 H 0.78929 0.43815 0.65103 0.0
H1204 H 0.7873 0.40174 0.64837 0.0
H1205 H 0.75594 0.47575 0.57257 0.0
H1206 H 0.76503 0.49541 0.59239 0.0
H1207 H 0.79078 0.47732 0.58022 0.0
H1208 H 0.80653 0.5279 0.64307 0.0
H1209 H 0.86838 0.4855 0.613 0.0
H1210 H 0.75855 0.4764 0.6443 0.0
H1211 H 0.75023 0.49555 0.62438 0.0
H1212 H 0.76151 0.51295 0.64464 0.0
H1213 H 0.83408 0.42435 0.60754 0.0
H1214 H 0.85954 0.44533 0.5968 0.0
H1215 H 0.82552 0.4435 0.58768 0.0
C1216 C 0.84267 0.50536 0.8684 0.0
C1217 C 0.83513 0.48595 0.85537 0.0
C1218 C 0.82433 0.52552 0.87406 0.0
C1219 C 0.79779 0.52613 0.86657 0.0
C1220 C 0.79003 0.50649 0.85347 0.0
C1221 C 0.80883 0.48665 0.84799 0.0
C1222 C 0.83333 0.54618 0.88805 0.0
C1223 C 0.76184 0.50638 0.84528 0.0
C1224 C 0.74256 0.56144 0.89374 0.0
C1225 C 0.74045 0.58648 0.88472 0.0
C1226 C 0.76105 0.54158 0.8879 0.0
C1227 C 0.77795 0.54697 0.87274 0.0
C1228 C 0.77589 0.5722 0.86353 0.0
C1229 C 0.75706 0.59167 0.86961 0.0
C1230 C 0.76253 0.51485 0.898 0.0
C1231 C 0.79369 0.57866 0.84735 0.0
H1232 H 0.86302 0.50495 0.87409 0.0
H1233 H 0.80292 0.47169 0.83789 0.0
H1234 H 0.83114 0.56703 0.88245 0.0
H1235 H 0.82015 0.54489 0.90028 0.0
H1236 H 0.8548 0.54317 0.89231 0.0
H1237 H 0.75908 0.48978 0.83518 0.0
H1238 H 0.74642 0.50395 0.85619 0.0
H1239 H 0.75777 0.5261 0.83848 0.0
H1240 H 0.72972 0.55731 0.90542 0.0
H1241 H 0.75551 0.61104 0.86264 0.0
H1242 H 0.7833 0.51185 0.90356 0.0
H1243 H 0.75846 0.49777 0.8885 0.0
H1244 H 0.74774 0.51376 0.90941 0.0
H1245 H 0.81543 0.57753 0.85134 0.0
H1246 H 0.78956 0.5992 0.8417 0.0
H1247 H 0.79042 0.56338 0.83645 0.0
C1248 C 0.74697 0.59299 0.1245 0.0
C1249 C 0.76429 0.58734 0.10982 0.0
C1250 C 0.72648 0.5746 0.12956 0.0
C1251 C 0.72336 0.55003 0.11972 0.0
C1252 C 0.74082 0.54424 0.1049 0.0
C1253 C 0.76107 0.56298 0.10012 0.0
C1254 C 0.70822 0.58142 0.14546 0.0
C1255 C 0.73819 0.51818 0.09414 0.0
C1256 C 0.68908 0.49024 0.14278 0.0
C1257 C 0.66302 0.49092 0.13503 0.0
C1258 C 0.70884 0.50948 0.138 0.0
C1259 C 0.70233 0.52996 0.1252 0.0
C1260 C 0.67601 0.53087 0.11737 0.0
C1261 C 0.65663 0.51126 0.12237 0.0
C1262 C 0.73672 0.50779 0.14658 0.0
C1263 C 0.66838 0.55248 0.10369 0.0
H1264 H 0.74934 0.61185 0.13199 0.0
H1265 H 0.77438 0.55854 0.08873 0.0
H1266 H 0.68664 0.58138 0.14103 0.0
H1267 H 0.71033 0.56571 0.1562 0.0
H1268 H 0.713 0.6016 0.15148 0.0
H1269 H 0.75316 0.51693 0.08284 0.0
H1270 H 0.74121 0.50044 0.10325 0.0
H1271 H 0.71742 0.51652 0.08833 0.0
H1272 H 0.69413 0.47456 0.15259 0.0
H1273 H 0.63647 0.51189 0.11639 0.0
H1274 H 0.74152 0.5271 0.15371 0.0
H1275 H 0.75236 0.50491 0.13585 0.0
H1276 H 0.73838 0.4908 0.15648 0.0
H1277 H 0.67143 0.57297 0.10969 0.0
H1278 H 0.6469 0.55067 0.09914 0.0
H1279 H 0.6818 0.55101 0.09159 0.0
C1280 C 0.74207 0.40823 0.37137 0.0
C1281 C 0.75938 0.41259 0.38624 0.0
C1282 C 0.72221 0.4275 0.36663 0.0
C1283 C 0.71964 0.4516 0.37707 0.0
C1284 C 0.73702 0.45604 0.39214 0.0
C1285 C 0.75672 0.43649 0.39652 0.0
C1286 C 0.70406 0.42215 0.35043 0.0
C1287 C 0.73487 0.48147 0.40359 0.0
C1288 C 0.68647 0.51276 0.35479 0.0
C1289 C 0.66001 0.51155 0.36185 0.0
C1290 C 0.70612 0.49345 0.35972 0.0
C1291 C 0.69911 0.47245 0.37202 0.0
C1292 C 0.67253 0.47134 0.37942 0.0
C1293 C 0.65326 0.49094 0.37424 0.0
C1294 C 0.73427 0.49533 0.35158 0.0
C1295 C 0.66439 0.44928 0.39264 0.0
H1296 H 0.74404 0.38977 0.3634 0.0
H1297 H 0.77001 0.43992 0.40808 0.0
H1298 H 0.68242 0.42238 0.35471 0.0
H1299 H 0.70668 0.4385 0.34017 0.0
H1300 H 0.70849 0.40229 0.34385 0.0
H1301 H 0.74968 0.48163 0.41503 0.0
H1302 H 0.73848 0.49967 0.39501 0.0
H1303 H 0.71405 0.48331 0.40929 0.0
H1304 H 0.69179 0.52864 0.3452 0.0
H1305 H 0.6328 0.48991 0.3797 0.0
H1306 H 0.73884 0.47659 0.34374 0.0
H1307 H 0.74969 0.49689 0.36257 0.0
H1308 H 0.73653 0.51313 0.34239 0.0
H1309 H 0.6666 0.42906 0.38609 0.0
H1310 H 0.64306 0.45157 0.3974 0.0
H1311 H 0.67806 0.44956 0.40466 0.0
C1312 C 0.15056 0.51502 0.37065 0.0
C1313 C 0.15954 0.49218 0.36094 0.0
C1314 C 0.16892 0.53526 0.37617 0.0
C1315 C 0.19688 0.53241 0.37198 0.0
C1316 C 0.20603 0.50939 0.36216 0.0
C1317 C 0.18722 0.48958 0.35671 0.0
C1318 C 0.15845 0.55963 0.38655 0.0
C1319 C 0.23573 0.50555 0.35756 0.0
C1320 C 0.24342 0.59403 0.37289 0.0
C1321 C 0.2564 0.59078 0.38974 0.0
C1322 C 0.22368 0.57536 0.367 0.0
C1323 C 0.21679 0.55306 0.37829 0.0
C1324 C 0.22957 0.54994 0.39543 0.0
C1325 C 0.24926 0.56882 0.40093 0.0
C1326 C 0.21047 0.57928 0.34862 0.0
C1327 C 0.22269 0.52645 0.40786 0.0
H1328 H 0.12914 0.51715 0.37386 0.0
H1329 H 0.19425 0.47195 0.34919 0.0
H1330 H 0.16809 0.56047 0.4002 0.0
H1331 H 0.16402 0.57863 0.37931 0.0
H1332 H 0.13601 0.55912 0.38832 0.0
H1333 H 0.23944 0.4867 0.34959 0.0
H1334 H 0.24324 0.52318 0.34958 0.0
H1335 H 0.24793 0.5046 0.37026 0.0
H1336 H 0.24887 0.61102 0.36422 0.0
H1337 H 0.25914 0.5663 0.41402 0.0
H1338 H 0.18803 0.58016 0.35014 0.0
H1339 H 0.21515 0.56168 0.3397 0.0
H1340 H 0.21746 0.59815 0.34175 0.0
H1341 H 0.20056 0.52628 0.4108 0.0
H1342 H 0.23393 0.5274 0.42098 0.0
H1343 H 0.22765 0.50693 0.40103 0.0
C1344 C 0.24924 0.4061 0.12165 0.0
C1345 C 0.26857 0.41239 0.10828 0.0
C1346 C 0.22988 0.42541 0.12717 0.0
C1347 C 0.22996 0.45158 0.11912 0.0
C1348 C 0.24971 0.45815 0.10582 0.0
C1349 C 0.26877 0.43845 0.10054 0.0
C1350 C 0.20914 0.41771 0.14143 0.0
C1351 C 0.25051 0.48589 0.097 0.0
C1352 C 0.16485 0.49312 0.12038 0.0
C1353 C 0.16998 0.51086 0.13492 0.0
C1354 C 0.18423 0.47371 0.11507 0.0
C1355 C 0.20928 0.47208 0.12454 0.0
C1356 C 0.21463 0.49007 0.13915 0.0
C1357 C 0.1949 0.50925 0.14417 0.0
C1358 C 0.17785 0.45484 0.09941 0.0
C1359 C 0.24115 0.489 0.14952 0.0
H1360 H 0.24899 0.38595 0.12764 0.0
H1361 H 0.28368 0.44342 0.09019 0.0
H1362 H 0.21034 0.43195 0.15312 0.0
H1363 H 0.18834 0.41941 0.13567 0.0
H1364 H 0.21209 0.39665 0.14654 0.0
H1365 H 0.26749 0.4879 0.08711 0.0
H1366 H 0.23108 0.48981 0.08977 0.0
H1367 H 0.25274 0.50187 0.10756 0.0
H1368 H 0.1456 0.49428 0.11322 0.0
H1369 H 0.19896 0.52291 0.15544 0.0
H1370 H 0.17863 0.4334 0.1041 0.0
H1371 H 0.19337 0.45715 0.08856 0.0
H1372 H 0.15746 0.45879 0.09345 0.0
H1373 H 0.2438 0.4686 0.15573 0.0
H1374 H 0.24219 0.50455 0.16047 0.0
H1375 H 0.25845 0.49222 0.14007 0.0
C1376 C 0.31448 0.51402 0.85216 0.0
C1377 C 0.33985 0.51413 0.86089 0.0
C1378 C 0.29473 0.49453 0.85651 0.0
C1379 C 0.30054 0.47466 0.86989 0.0
C1380 C 0.32618 0.47456 0.87868 0.0
C1381 C 0.34557 0.49435 0.87408 0.0
C1382 C 0.26759 0.49532 0.84688 0.0
C1383 C 0.33305 0.45365 0.89303 0.0
C1384 C 0.24068 0.44168 0.89374 0.0
C1385 C 0.23873 0.41673 0.88458 0.0
C1386 C 0.2608 0.46064 0.88915 0.0
C1387 C 0.27942 0.45449 0.87504 0.0
C1388 C 0.27756 0.42935 0.86572 0.0
C1389 C 0.25718 0.41073 0.8706 0.0
C1390 C 0.26211 0.48729 0.89936 0.0
C1391 C 0.29708 0.42215 0.85059 0.0
H1392 H 0.30998 0.52925 0.84192 0.0
H1393 H 0.3652 0.49432 0.8808 0.0
H1394 H 0.26368 0.47559 0.84003 0.0
H1395 H 0.25104 0.49847 0.85694 0.0
H1396 H 0.26651 0.51178 0.83654 0.0
H1397 H 0.35412 0.45599 0.89827 0.0
H1398 H 0.31869 0.45543 0.90462 0.0
H1399 H 0.33076 0.43287 0.88734 0.0
H1400 H 0.22648 0.4464 0.90459 0.0
H1401 H 0.25577 0.39143 0.86352 0.0
H1402 H 0.25954 0.5045 0.88975 0.0
H1403 H 0.28235 0.48963 0.90587 0.0
H1404 H 0.24622 0.48883 0.91007 0.0
H1405 H 0.29558 0.43737 0.83949 0.0
H1406 H 0.29305 0.40166 0.84481 0.0
H1407 H 0.31829 0.42271 0.85574 0.0
C1408 C 0.34688 0.50354 0.63274 0.0
C1409 C 0.34075 0.48417 0.64612 0.0
C1410 C 0.32789 0.52354 0.62784 0.0
C1411 C 0.30214 0.52404 0.63647 0.0
C1412 C 0.29588 0.50459 0.65004 0.0
C1413 C 0.31531 0.48491 0.65473 0.0
C1414 C 0.33529 0.54402 0.61334 0.0
C1415 C 0.26857 0.50438 0.65945 0.0
C1416 C 0.26041 0.58898 0.63381 0.0
C1417 C 0.24288 0.58312 0.61928 0.0
C1418 C 0.27976 0.56987 0.63966 0.0
C1419 C 0.28139 0.54431 0.63082 0.0
C1420 C 0.2634 0.53815 0.61636 0.0
C1421 C 0.24442 0.55767 0.61073 0.0
C1422 C 0.29871 0.57714 0.6551 0.0
C1423 C 0.26437 0.51103 0.6067 0.0
H1424 H 0.36657 0.5031 0.6261 0.0
H1425 H 0.31049 0.46999 0.66511 0.0
H1426 H 0.32123 0.54203 0.6016 0.0
H1427 H 0.33301 0.56497 0.61875 0.0
H1428 H 0.35647 0.54139 0.60838 0.0
H1429 H 0.26714 0.48825 0.66999 0.0
H1430 H 0.26473 0.52436 0.66599 0.0
H1431 H 0.25218 0.5011 0.64929 0.0
H1432 H 0.2593 0.60867 0.64043 0.0
H1433 H 0.23084 0.553 0.59952 0.0
H1434 H 0.32009 0.57653 0.65027 0.0
H1435 H 0.29684 0.562 0.66622 0.0
H1436 H 0.2945 0.59768 0.66073 0.0
H1437 H 0.28457 0.50819 0.60025 0.0
H1438 H 0.24847 0.5092 0.59601 0.0
H1439 H 0.26162 0.49427 0.61665 0.0
C1440 C 0.36939 0.16511 0.1509 0.0
C1441 C 0.36212 0.14173 0.14111 0.0
C1442 C 0.36224 0.19107 0.14458 0.0
C1443 C 0.34709 0.19361 0.12826 0.0
C1444 C 0.33874 0.17 0.11874 0.0
C1445 C 0.34658 0.14432 0.1252 0.0
C1446 C 0.37181 0.21579 0.15497 0.0
C1447 C 0.32216 0.17189 0.10147 0.0
C1448 C 0.31327 0.26168 0.11886 0.0
C1449 C 0.33163 0.27346 0.10657 0.0
C1450 C 0.31776 0.23547 0.12582 0.0
C1451 C 0.3414 0.22099 0.12059 0.0
C1452 C 0.35996 0.23282 0.10816 0.0
C1453 C 0.35472 0.25883 0.10118 0.0
C1454 C 0.29731 0.2233 0.13882 0.0
C1455 C 0.38557 0.21816 0.10243 0.0
H1456 H 0.38149 0.16317 0.16317 0.0
H1457 H 0.34079 0.12625 0.11767 0.0
H1458 H 0.38599 0.22777 0.14639 0.0
H1459 H 0.35433 0.22916 0.15828 0.0
H1460 H 0.38237 0.2103 0.16784 0.0
H1461 H 0.31542 0.15162 0.09655 0.0
H1462 H 0.30396 0.18481 0.10372 0.0
H1463 H 0.33443 0.18166 0.09061 0.0
H1464 H 0.29533 0.27292 0.123 0.0
H1465 H 0.36903 0.26794 0.09175 0.0
H1466 H 0.30709 0.2193 0.15217 0.0
H1467 H 0.28998 0.20349 0.13349 0.0
H1468 H 0.27951 0.23683 0.14102 0.0
H1469 H 0.39819 0.21355 0.11458 0.0
H1470 H 0.39797 0.23026 0.09272 0.0
H1471 H 0.38034 0.19848 0.09593 0.0
C1472 C 0.08725 0.09716 0.40876 0.0
C1473 C 0.10119 0.11327 0.39608 0.0
C1474 C 0.06083 0.08774 0.40513 0.0
C1475 C 0.04793 0.09516 0.38862 0.0
C1476 C 0.06194 0.1115 0.37581 0.0
C1477 C 0.08852 0.12011 0.37962 0.0
C1478 C 0.04672 0.06988 0.41893 0.0
C1479 C 0.04872 0.12022 0.35818 0.0
C1480 C 0.9888 0.05608 0.36832 0.0
C1481 C 0.96674 0.07271 0.37301 0.0
C1482 C 0.01523 0.06233 0.37418 0.0
C1483 C 0.01971 0.0861 0.38464 0.0
C1484 C 0.99734 0.1024 0.39 0.0
C1485 C 0.97104 0.09534 0.38426 0.0
C1486 C 0.03848 0.04412 0.36854 0.0
C1487 C 0.00133 0.12811 0.40093 0.0
H1488 H 0.09708 0.09176 0.42148 0.0
H1489 H 0.09919 0.13272 0.36985 0.0
H1490 H 0.02794 0.07998 0.42386 0.0
H1491 H 0.0405 0.05045 0.41246 0.0
H1492 H 0.05988 0.06526 0.43083 0.0
H1493 H 0.06223 0.13337 0.34984 0.0
H1494 H 0.04313 0.10208 0.35001 0.0
H1495 H 0.02967 0.13152 0.36109 0.0
H1496 H 0.98548 0.03846 0.35971 0.0
H1497 H 0.95401 0.1083 0.38784 0.0
H1498 H 0.05137 0.03907 0.38047 0.0
H1499 H 0.05153 0.0549 0.35856 0.0
H1500 H 0.03126 0.02489 0.36222 0.0
H1501 H 0.01349 0.12388 0.41333 0.0
H1502 H 0.98171 0.13746 0.40507 0.0
H1503 H 0.01287 0.14312 0.39269 0.0
C1504 C 0.15421 0.83665 0.66039 0.0
C1505 C 0.13992 0.85117 0.64702 0.0
C1506 C 0.16341 0.81006 0.65704 0.0
C1507 C 0.15765 0.79762 0.64008 0.0
C1508 C 0.14321 0.81223 0.62656 0.0
C1509 C 0.13476 0.83893 0.63014 0.0
C1510 C 0.17923 0.79529 0.67163 0.0
C1511 C 0.13631 0.79953 0.60841 0.0
C1512 C 0.19732 0.73765 0.62144 0.0
C1513 C 0.1795 0.71605 0.625 0.0
C1514 C 0.19118 0.76416 0.62719 0.0
C1515 C 0.16637 0.7692 0.63638 0.0
C1516 C 0.14883 0.74726 0.64064 0.0
C1517 C 0.15575 0.72086 0.63503 0.0
C1518 C 0.21068 0.78693 0.62275 0.0
C1519 C 0.12203 0.75186 0.65021 0.0
H1520 H 0.15831 0.84613 0.67343 0.0
H1521 H 0.12357 0.85005 0.61982 0.0
H1522 H 0.16805 0.77677 0.67589 0.0
H1523 H 0.19916 0.78857 0.66616 0.0
H1524 H 0.18282 0.80817 0.68382 0.0
H1525 H 0.12462 0.81353 0.59947 0.0
H1526 H 0.15521 0.7935 0.60122 0.0
H1527 H 0.12413 0.78079 0.61053 0.0
H1528 H 0.21581 0.73394 0.61378 0.0
H1529 H 0.14188 0.70421 0.63774 0.0
H1530 H 0.21463 0.7995 0.63502 0.0
H1531 H 0.20151 0.80043 0.61232 0.0
H1532 H 0.23039 0.77923 0.61745 0.0
H1533 H 0.12513 0.76371 0.66289 0.0
H1534 H 0.11167 0.73247 0.65369 0.0
H1535 H 0.10837 0.76393 0.64129 0.0
C1536 C 0.50932 0.93676 0.87264 0.0
C1537 C 0.52186 0.91731 0.86148 0.0
C1538 C 0.48267 0.9329 0.879 0.0
C1539 C 0.4685 0.90883 0.87432 0.0
C1540 C 0.48119 0.88905 0.86316 0.0
C1541 C 0.50765 0.89364 0.85676 0.0
C1542 C 0.46962 0.95459 0.89065 0.0
C1543 C 0.46687 0.86294 0.85808 0.0
C1544 C 0.40973 0.88387 0.90327 0.0
C1545 C 0.38738 0.89014 0.89219 0.0
C1546 C 0.43627 0.8905 0.89785 0.0
C1547 C 0.44043 0.90409 0.88109 0.0
C1548 C 0.41782 0.91156 0.87025 0.0
C1549 C 0.39153 0.90428 0.87586 0.0
C1550 C 0.4599 0.88191 0.90967 0.0
C1551 C 0.42144 0.92647 0.85243 0.0
H1552 H 0.52024 0.95514 0.87624 0.0
H1553 H 0.51734 0.8785 0.8482 0.0
H1554 H 0.45056 0.96178 0.88414 0.0
H1555 H 0.46405 0.94604 0.90411 0.0
H1556 H 0.48324 0.97234 0.89281 0.0
H1557 H 0.47977 0.84945 0.84955 0.0
H1558 H 0.46095 0.85173 0.87058 0.0
H1559 H 0.44792 0.86756 0.85048 0.0
H1560 H 0.40659 0.87285 0.91589 0.0
H1561 H 0.37426 0.90929 0.86732 0.0
H1562 H 0.4732 0.89958 0.91264 0.0
H1563 H 0.47241 0.86668 0.90231 0.0
H1564 H 0.45313 0.87287 0.92278 0.0
H1565 H 0.43435 0.94473 0.85443 0.0
H1566 H 0.40171 0.9329 0.84644 0.0
H1567 H 0.432 0.91311 0.84252 0.0
C1568 C 0.30632 0.73698 0.37738 0.0
C1569 C 0.32721 0.72306 0.38644 0.0
C1570 C 0.31036 0.76352 0.37084 0.0
C1571 C 0.33596 0.7762 0.37329 0.0
C1572 C 0.35722 0.76203 0.38218 0.0
C1573 C 0.35254 0.73569 0.38871 0.0
C1574 C 0.2872 0.77813 0.36154 0.0
C1575 C 0.38489 0.77477 0.38493 0.0
C1576 C 0.35907 0.83595 0.34456 0.0
C1577 C 0.35638 0.85753 0.35692 0.0
C1578 C 0.3514 0.80944 0.34943 0.0
C1579 C 0.34064 0.80453 0.367 0.0
C1580 C 0.33664 0.82648 0.37919 0.0
C1581 C 0.34468 0.85273 0.37402 0.0
C1582 C 0.35604 0.78653 0.33609 0.0
C1583 C 0.325 0.82208 0.39799 0.0
H1584 H 0.28669 0.72727 0.37563 0.0
H1585 H 0.3688 0.72495 0.39562 0.0
H1586 H 0.28187 0.79675 0.36931 0.0
H1587 H 0.29346 0.7847 0.34771 0.0
H1588 H 0.26875 0.76521 0.36034 0.0
H1589 H 0.39945 0.76069 0.39164 0.0
H1590 H 0.39351 0.78108 0.37162 0.0
H1591 H 0.38298 0.79333 0.39343 0.0
H1592 H 0.36807 0.83959 0.33131 0.0
H1593 H 0.34238 0.86939 0.38357 0.0
H1594 H 0.33734 0.77411 0.3346 0.0
H1595 H 0.37226 0.77292 0.34133 0.0
H1596 H 0.36222 0.79404 0.32244 0.0
H1597 H 0.30587 0.81017 0.39717 0.0
H1598 H 0.32076 0.84155 0.40512 0.0
H1599 H 0.33958 0.81015 0.40632 0.0
C1600 C 0.41724 0.11487 0.59294 0.0
C1601 C 0.39555 0.10953 0.6048 0.0
C1602 C 0.44397 0.10778 0.59765 0.0
C1603 C 0.44899 0.09482 0.61453 0.0
C1604 C 0.42699 0.08823 0.62615 0.0
C1605 C 0.40051 0.09582 0.62119 0.0
C1606 C 0.46694 0.11532 0.58497 0.0
C1607 C 0.43152 0.07411 0.64417 0.0
C1608 C 0.51754 0.06153 0.6233 0.0
C1609 C 0.53044 0.08134 0.63398 0.0
C1610 C 0.49103 0.06564 0.61672 0.0
C1611 C 0.47736 0.09026 0.62078 0.0
C1612 C 0.49056 0.11053 0.63124 0.0
C1613 C 0.51688 0.10574 0.6378 0.0
C1614 C 0.47746 0.04351 0.60574 0.0
C1615 C 0.47677 0.13719 0.63568 0.0
H1616 H 0.41347 0.12547 0.58024 0.0
H1617 H 0.38375 0.09149 0.63033 0.0
H1618 H 0.47984 0.13111 0.59147 0.0
H1619 H 0.4801 0.09742 0.58234 0.0
H1620 H 0.45946 0.1233 0.57174 0.0
H1621 H 0.4121 0.06819 0.6508 0.0
H1622 H 0.44412 0.05562 0.64224 0.0
H1623 H 0.44278 0.08782 0.65351 0.0
H1624 H 0.52798 0.04261 0.62037 0.0
H1625 H 0.52685 0.12118 0.64597 0.0
H1626 H 0.47081 0.05161 0.59236 0.0
H1627 H 0.45897 0.03631 0.61294 0.0
H1628 H 0.49111 0.02585 0.60338 0.0
H1629 H 0.47027 0.14746 0.62295 0.0
H1630 H 0.49024 0.1512 0.6434 0.0
H1631 H 0.45821 0.13338 0.64388 0.0
C1632 C 0.12884 0.16974 0.84093 0.0
C1633 C 0.13376 0.14827 0.85305 0.0
C1634 C 0.1369 0.19637 0.84519 0.0
C1635 C 0.1504 0.2015 0.86187 0.0
C1636 C 0.15655 0.17967 0.87374 0.0
C1637 C 0.14802 0.15331 0.86923 0.0
C1638 C 0.12981 0.21916 0.83225 0.0
C1639 C 0.17117 0.18431 0.89157 0.0
C1640 C 0.18557 0.26939 0.86964 0.0
C1641 C 0.16626 0.28301 0.88031 0.0
C1642 C 0.18068 0.24283 0.86337 0.0
C1643 C 0.15579 0.2299 0.86773 0.0
C1644 C 0.13603 0.24384 0.87819 0.0
C1645 C 0.14158 0.27016 0.88444 0.0
C1646 C 0.20229 0.22844 0.8524 0.0
C1647 C 0.10909 0.23086 0.88295 0.0
H1648 H 0.11785 0.1659 0.82839 0.0
H1649 H 0.15205 0.13672 0.87856 0.0
H1650 H 0.11447 0.23266 0.83866 0.0
H1651 H 0.14803 0.23173 0.82934 0.0
H1652 H 0.12143 0.21151 0.81916 0.0
H1653 H 0.17673 0.16493 0.89839 0.0
H1654 H 0.18995 0.19636 0.88932 0.0
H1655 H 0.15796 0.19618 0.90089 0.0
H1656 H 0.20469 0.27929 0.86647 0.0
H1657 H 0.12652 0.2807 0.89259 0.0
H1658 H 0.19379 0.22162 0.83917 0.0
H1659 H 0.20919 0.20999 0.85977 0.0
H1660 H 0.22022 0.2416 0.84974 0.0
H1661 H 0.09845 0.2243 0.87036 0.0
H1662 H 0.09554 0.24487 0.89061 0.0
H1663 H 0.11256 0.21242 0.89134 0.0
C1664 C 0.09927 0.90449 0.12282 0.0
C1665 C 0.10311 0.88949 0.10679 0.0
C1666 C 0.07316 0.91263 0.12827 0.0
C1667 C 0.05038 0.90518 0.11757 0.0
C1668 C 0.05425 0.89074 0.10109 0.0
C1669 C 0.08063 0.88322 0.09583 0.0
C1670 C 0.06987 0.92837 0.14579 0.0
C1671 C 0.03043 0.88216 0.08943 0.0
C1672 C 0.9833 0.89656 0.1423 0.0
C1673 C 0.96937 0.9203 0.13736 0.0
C1674 C 0.0096 0.89137 0.13584 0.0
C1675 C 0.02243 0.91058 0.12434 0.0
C1676 C 0.00854 0.93469 0.11937 0.0
C1677 C 0.98203 0.93919 0.12585 0.0
C1678 C 0.02361 0.86524 0.14126 0.0
C1679 C 0.02175 0.95577 0.10732 0.0
H1680 H 0.11665 0.90954 0.13126 0.0
H1681 H 0.08353 0.87159 0.08344 0.0
H1682 H 0.05723 0.94675 0.14348 0.0
H1683 H 0.05915 0.91562 0.15599 0.0
H1684 H 0.08973 0.93475 0.15162 0.0
H1685 H 0.037 0.87259 0.07644 0.0
H1686 H 0.01772 0.86737 0.09703 0.0
H1687 H 0.01739 0.89994 0.08624 0.0
H1688 H 0.97353 0.88184 0.15113 0.0
H1689 H 0.97132 0.95761 0.12206 0.0
H1690 H 0.04268 0.86987 0.14873 0.0
H1691 H 0.02929 0.85351 0.12892 0.0
H1692 H 0.01061 0.85222 0.15003 0.0
H1693 H 0.04092 0.963 0.11366 0.0
H1694 H 0.00831 0.97356 0.10488 0.0
H1695 H 0.02716 0.94661 0.094 0.0
C1696 C 0.6513 0.72333 0.86822 0.0
C1697 C 0.67528 0.71899 0.87812 0.0
C1698 C 0.64395 0.74953 0.86247 0.0
C1699 C 0.66126 0.77176 0.86644 0.0
C1700 C 0.68624 0.76723 0.87555 0.0
C1701 C 0.69284 0.74089 0.88145 0.0
C1702 C 0.61699 0.75358 0.85298 0.0
C1703 C 0.70548 0.79034 0.87971 0.0
C1704 C 0.648 0.83805 0.84133 0.0
C1705 C 0.63347 0.85285 0.85444 0.0
C1706 C 0.65771 0.8118 0.84515 0.0
C1707 C 0.65224 0.79996 0.86233 0.0
C1708 C 0.63762 0.81489 0.87561 0.0
C1709 C 0.62864 0.84126 0.87156 0.0
C1710 C 0.67369 0.79669 0.83079 0.0
C1711 C 0.63101 0.80281 0.894 0.0
H1712 H 0.63763 0.70645 0.86569 0.0
H1713 H 0.71148 0.73756 0.88902 0.0
H1714 H 0.60337 0.76595 0.86174 0.0
H1715 H 0.61988 0.76493 0.84007 0.0
H1716 H 0.6067 0.734 0.84989 0.0
H1717 H 0.72527 0.78303 0.88513 0.0
H1718 H 0.7093 0.80256 0.86727 0.0
H1719 H 0.69615 0.80408 0.88994 0.0
H1720 H 0.65187 0.84704 0.82811 0.0
H1721 H 0.61728 0.85261 0.88169 0.0
H1722 H 0.66268 0.77794 0.82678 0.0
H1723 H 0.69368 0.79033 0.83637 0.0
H1724 H 0.67719 0.80921 0.81842 0.0
H1725 H 0.61895 0.78391 0.89223 0.0
H1726 H 0.61931 0.81705 0.90276 0.0
H1727 H 0.65004 0.79718 0.9012 0.0
C1728 C 0.01785 0.93508 0.62576 0.0
C1729 C 0.03009 0.91596 0.63732 0.0
C1730 C 0.99147 0.9309 0.61897 0.0
C1731 C 0.97728 0.90685 0.62365 0.0
C1732 C 0.9897 0.88736 0.63515 0.0
C1733 C 0.01588 0.89226 0.64196 0.0
C1734 C 0.9787 0.95229 0.60696 0.0
C1735 C 0.97534 0.86129 0.64026 0.0
C1736 C 0.90033 0.90258 0.6217 0.0
C1737 C 0.89626 0.88816 0.60546 0.0
C1738 C 0.92658 0.90982 0.6274 0.0
C1739 C 0.94927 0.90203 0.61675 0.0
C1740 C 0.94521 0.88813 0.60007 0.0
C1741 C 0.91868 0.88154 0.59455 0.0
C1742 C 0.93007 0.92506 0.64511 0.0
C1743 C 0.96893 0.8792 0.58845 0.0
H1744 H 0.02877 0.95347 0.6222 0.0
H1745 H 0.02535 0.87737 0.65082 0.0
H1746 H 0.97321 0.94335 0.59358 0.0
H1747 H 0.95961 0.95979 0.61327 0.0
H1748 H 0.99245 0.96988 0.60463 0.0
H1749 H 0.98814 0.8479 0.64892 0.0
H1750 H 0.95631 0.86599 0.64773 0.0
H1751 H 0.96957 0.84993 0.62778 0.0
H1752 H 0.883 0.90787 0.63011 0.0
H1753 H 0.91559 0.8703 0.58201 0.0
H1754 H 0.943 0.94328 0.64302 0.0
H1755 H 0.94055 0.91189 0.65518 0.0
H1756 H 0.9103 0.93162 0.65098 0.0
H1757 H 0.98237 0.89674 0.58543 0.0
H1758 H 0.96227 0.86996 0.57538 0.0
H1759 H 0.98128 0.86404 0.59601 0.0
C1760 C 0.85257 0.26187 0.38779 0.0
C1761 C 0.83276 0.27827 0.37954 0.0
C1762 C 0.85826 0.23577 0.38117 0.0
C1763 C 0.84373 0.22574 0.36594 0.0
C1764 C 0.82399 0.24233 0.35735 0.0
C1765 C 0.81873 0.26848 0.36426 0.0
C1766 C 0.87953 0.21874 0.3907 0.0
C1767 C 0.80812 0.23227 0.34108 0.0
C1768 C 0.87644 0.1647 0.34307 0.0
C1769 C 0.86297 0.14315 0.35171 0.0
C1770 C 0.86951 0.19183 0.3469 0.0
C1771 C 0.84863 0.19742 0.35964 0.0
C1772 C 0.83412 0.1757 0.36773 0.0
C1773 C 0.84149 0.14882 0.36368 0.0
C1774 C 0.88541 0.21446 0.33798 0.0
C1775 C 0.81166 0.18081 0.38135 0.0
H1776 H 0.86357 0.26937 0.39956 0.0
H1777 H 0.80344 0.28112 0.35782 0.0
H1778 H 0.86999 0.20013 0.39637 0.0
H1779 H 0.89529 0.21212 0.38085 0.0
H1780 H 0.88965 0.22992 0.40198 0.0
H1781 H 0.79441 0.24813 0.33543 0.0
H1782 H 0.82225 0.2255 0.33021 0.0
H1783 H 0.79568 0.2144 0.34503 0.0
H1784 H 0.89301 0.16042 0.33376 0.0
H1785 H 0.83089 0.13223 0.37032 0.0
H1786 H 0.89808 0.2249 0.34835 0.0
H1787 H 0.87141 0.22985 0.33214 0.0
H1788 H 0.89897 0.20684 0.327 0.0
H1789 H 0.82037 0.18991 0.39389 0.0
H1790 H 0.80076 0.16185 0.38513 0.0
H1791 H 0.79673 0.19553 0.37578 0.0
C1792 C 0.60011 0.09453 0.11869 0.0
C1793 C 0.60401 0.10924 0.10256 0.0
C1794 C 0.57403 0.08623 0.12406 0.0
C1795 C 0.55134 0.09311 0.11313 0.0
C1796 C 0.55529 0.107 0.09645 0.0
C1797 C 0.58166 0.11478 0.0913 0.0
C1798 C 0.57067 0.07114 0.14183 0.0
C1799 C 0.53156 0.11487 0.0845 0.0
C1800 C 0.48334 0.05928 0.12295 0.0
C1801 C 0.471 0.07865 0.13427 0.0
C1802 C 0.50951 0.06369 0.11585 0.0
C1803 C 0.52338 0.08815 0.12004 0.0
C1804 C 0.51078 0.10791 0.13123 0.0
C1805 C 0.48482 0.10284 0.1383 0.0
C1806 C 0.52247 0.04208 0.1041 0.0
C1807 C 0.52478 0.13438 0.13586 0.0
H1808 H 0.61739 0.09001 0.12735 0.0
H1809 H 0.58461 0.12614 0.07881 0.0
H1810 H 0.56002 0.08434 0.15181 0.0
H1811 H 0.55796 0.05274 0.13982 0.0
H1812 H 0.5905 0.06491 0.14776 0.0
H1813 H 0.53824 0.12338 0.07122 0.0
H1814 H 0.51834 0.09701 0.0819 0.0
H1815 H 0.519 0.13035 0.09158 0.0
H1816 H 0.4727 0.04054 0.11985 0.0
H1817 H 0.47528 0.11794 0.14695 0.0
H1818 H 0.54148 0.03475 0.1106 0.0
H1819 H 0.52814 0.05074 0.09068 0.0
H1820 H 0.50878 0.02442 0.10185 0.0
H1821 H 0.54387 0.13024 0.14343 0.0
H1822 H 0.51181 0.14796 0.14427 0.0
H1823 H 0.53042 0.1453 0.12318 0.0
C1824 C 0.64455 0.26401 0.60941 0.0
C1825 C 0.66949 0.27722 0.61203 0.0
C1826 C 0.63995 0.23795 0.61646 0.0
C1827 C 0.66091 0.22467 0.62622 0.0
C1828 C 0.6861 0.23798 0.62907 0.0
C1829 C 0.69006 0.26423 0.622 0.0
C1830 C 0.6127 0.22453 0.61327 0.0
C1831 C 0.70896 0.22431 0.6393 0.0
C1832 C 0.63732 0.16577 0.65555 0.0
C1833 C 0.64113 0.14372 0.64372 0.0
C1834 C 0.64475 0.19221 0.65035 0.0
C1835 C 0.65644 0.19655 0.63297 0.0
C1836 C 0.66156 0.17415 0.62135 0.0
C1837 C 0.65372 0.14799 0.62684 0.0
C1838 C 0.63886 0.21561 0.66307 0.0
C1839 C 0.67423 0.17795 0.60279 0.0
H1840 H 0.62853 0.27404 0.6018 0.0
H1841 H 0.70939 0.2744 0.62402 0.0
H1842 H 0.61546 0.20567 0.60519 0.0
H1843 H 0.60346 0.21861 0.62647 0.0
H1844 H 0.59826 0.23802 0.60593 0.0
H1845 H 0.72701 0.23772 0.64078 0.0
H1846 H 0.70196 0.21816 0.65306 0.0
H1847 H 0.7152 0.20552 0.63205 0.0
H1848 H 0.62762 0.16254 0.66863 0.0
H1849 H 0.65688 0.13096 0.6177 0.0
H1850 H 0.62267 0.22861 0.65713 0.0
H1851 H 0.65719 0.22851 0.66477 0.0
H1852 H 0.63205 0.20858 0.67671 0.0
H1853 H 0.65993 0.18919 0.59384 0.0
H1854 H 0.67928 0.15826 0.59618 0.0
H1855 H 0.69306 0.19029 0.60386 0.0
C1856 C 0.47596 0.9295 0.38367 0.0
C1857 C 0.46663 0.91613 0.36799 0.0
C1858 C 0.50151 0.92327 0.3912 0.0
C1859 C 0.51795 0.90315 0.38287 0.0
C1860 C 0.50841 0.88935 0.3672 0.0
C1861 C 0.48292 0.89605 0.35994 0.0
C1862 C 0.51107 0.93846 0.40789 0.0
C1863 C 0.5253 0.86772 0.35794 0.0
C1864 C 0.59469 0.90294 0.38748 0.0
C1865 C 0.59891 0.88123 0.39953 0.0
C1866 C 0.56836 0.91113 0.38263 0.0
C1867 C 0.54568 0.89717 0.38993 0.0
C1868 C 0.54977 0.87598 0.40271 0.0
C1869 C 0.5764 0.86828 0.4074 0.0
C1870 C 0.56486 0.93392 0.36904 0.0
C1871 C 0.52608 0.86062 0.41078 0.0
H1872 H 0.4634 0.94499 0.38996 0.0
H1873 H 0.47576 0.88553 0.34788 0.0
H1874 H 0.51645 0.9239 0.41885 0.0
H1875 H 0.52972 0.95017 0.40461 0.0
H1876 H 0.49543 0.95275 0.41315 0.0
H1877 H 0.51452 0.85823 0.34625 0.0
H1878 H 0.54458 0.87671 0.3529 0.0
H1879 H 0.53075 0.85153 0.36781 0.0
H1880 H 0.61202 0.91316 0.38145 0.0
H1881 H 0.57958 0.85151 0.41674 0.0
H1882 H 0.55029 0.94926 0.37429 0.0
H1883 H 0.5563 0.92571 0.35618 0.0
H1884 H 0.5844 0.94425 0.36588 0.0
H1885 H 0.5108 0.87499 0.41635 0.0
H1886 H 0.53254 0.84654 0.42179 0.0
H1887 H 0.5159 0.84859 0.39996 0.0
C1888 C 0.85851 0.73481 0.11083 0.0
C1889 C 0.83424 0.72096 0.11457 0.0
C1890 C 0.86303 0.7611 0.11755 0.0
C1891 C 0.84262 0.77399 0.12805 0.0
C1892 C 0.81811 0.76006 0.13198 0.0
C1893 C 0.81428 0.73357 0.12528 0.0
C1894 C 0.8896 0.77516 0.11326 0.0
C1895 C 0.7958 0.7733 0.14297 0.0
C1896 C 0.86612 0.83388 0.15662 0.0
C1897 C 0.86054 0.85577 0.14498 0.0
C1898 C 0.8596 0.80714 0.15155 0.0
C1899 C 0.84692 0.8023 0.13454 0.0
C1900 C 0.84015 0.82447 0.12311 0.0
C1901 C 0.84722 0.85095 0.12841 0.0
C1902 C 0.86736 0.784 0.16403 0.0
C1903 C 0.82631 0.82015 0.10497 0.0
H1904 H 0.87406 0.72506 0.10265 0.0
H1905 H 0.79545 0.72292 0.12815 0.0
H1906 H 0.88567 0.79381 0.10519 0.0
H1907 H 0.89978 0.78153 0.12606 0.0
H1908 H 0.90375 0.76192 0.10547 0.0
H1909 H 0.77818 0.75953 0.14511 0.0
H1910 H 0.80374 0.77968 0.15646 0.0
H1911 H 0.7886 0.79192 0.13592 0.0
H1912 H 0.87645 0.83753 0.16944 0.0
H1913 H 0.84271 0.86785 0.11943 0.0
H1914 H 0.88321 0.77133 0.15741 0.0
H1915 H 0.84956 0.77068 0.16658 0.0
H1916 H 0.87534 0.79129 0.17732 0.0
H1917 H 0.84021 0.80914 0.09563 0.0
H1918 H 0.82031 0.83963 0.09845 0.0
H1919 H 0.80788 0.80738 0.1067 0.0
C1920 C 0.01568 0.07582 0.88204 0.0
C1921 C 0.0239 0.08747 0.8655 0.0
C1922 C 0.98986 0.08138 0.88937 0.0
C1923 C 0.97199 0.09904 0.87994 0.0
C1924 C 0.98036 0.11108 0.86335 0.0
C1925 C 0.00618 0.10511 0.85633 0.0
C1926 C 0.98156 0.06812 0.90706 0.0
C1927 C 0.96193 0.13008 0.8529 0.0
C1928 C 0.89549 0.09535 0.88559 0.0
C1929 C 0.89026 0.11846 0.89621 0.0
C1930 C 0.92216 0.08805 0.88091 0.0
C1931 C 0.94411 0.10436 0.88694 0.0
C1932 C 0.93905 0.12705 0.89834 0.0
C1933 C 0.91213 0.13382 0.90288 0.0
C1934 C 0.92673 0.06361 0.86883 0.0
C1935 C 0.96194 0.14492 0.90502 0.0
H1936 H 0.02934 0.0622 0.88919 0.0
H1937 H 0.01246 0.11426 0.84358 0.0
H1938 H 0.97556 0.08386 0.91711 0.0
H1939 H 0.96357 0.05493 0.90477 0.0
H1940 H 0.99814 0.05558 0.913 0.0
H1941 H 0.97184 0.13838 0.84049 0.0
H1942 H 0.94316 0.11918 0.84876 0.0
H1943 H 0.95567 0.14732 0.86171 0.0
H1944 H 0.87866 0.0833 0.88049 0.0
H1945 H 0.90817 0.15169 0.91111 0.0
H1946 H 0.94236 0.05004 0.87484 0.0
H1947 H 0.93443 0.07038 0.85537 0.0
H1948 H 0.90779 0.0517 0.86666 0.0
H1949 H 0.9782 0.1324 0.91129 0.0
H1950 H 0.9549 0.16019 0.91513 0.0
H1951 H 0.97113 0.15585 0.89331 0.0
C1952 C 0.85817 0.76554 0.60717 0.0
C1953 C 0.83406 0.77878 0.61216 0.0
C1954 C 0.86363 0.739 0.61303 0.0
C1955 C 0.84431 0.72522 0.62393 0.0
C1956 C 0.81996 0.73852 0.62911 0.0
C1957 C 0.81519 0.7653 0.62326 0.0
C1958 C 0.89001 0.72564 0.60742 0.0
C1959 C 0.79879 0.7243 0.64055 0.0
C1960 C 0.85041 0.64847 0.62203 0.0
C1961 C 0.86516 0.64301 0.63794 0.0
C1962 C 0.84234 0.67506 0.61773 0.0
C1963 C 0.84959 0.69668 0.62951 0.0
C1964 C 0.86378 0.69116 0.64588 0.0
C1965 C 0.87125 0.66431 0.64996 0.0
C1966 C 0.82689 0.68012 0.60028 0.0
C1967 C 0.87212 0.71373 0.65866 0.0
H1968 H 0.87289 0.77599 0.59869 0.0
H1969 H 0.7965 0.77549 0.62709 0.0
H1970 H 0.90132 0.71873 0.61966 0.0
H1971 H 0.88572 0.70739 0.59902 0.0
H1972 H 0.90331 0.73953 0.59948 0.0
H1973 H 0.78116 0.73765 0.64368 0.0
H1974 H 0.7913 0.70598 0.63329 0.0
H1975 H 0.80792 0.71731 0.65355 0.0
H1976 H 0.84549 0.632 0.61278 0.0
H1977 H 0.88268 0.66014 0.66228 0.0
H1978 H 0.8398 0.69189 0.59071 0.0
H1979 H 0.80844 0.69245 0.60303 0.0
H1980 H 0.82068 0.66091 0.59349 0.0
H1981 H 0.88717 0.72708 0.65182 0.0
H1982 H 0.88131 0.70585 0.67144 0.0
H1983 H 0.85431 0.72653 0.6622 0.0
C1984 C 0.60079 0.59293 0.89091 0.0
C1985 C 0.60642 0.61598 0.9015 0.0
C1986 C 0.57398 0.58592 0.88642 0.0
C1987 C 0.5523 0.60244 0.89261 0.0
C1988 C 0.55775 0.62487 0.90415 0.0
C1989 C 0.58481 0.63137 0.90849 0.0
C1990 C 0.56902 0.56173 0.87417 0.0
C1991 C 0.53515 0.64292 0.91106 0.0
C1992 C 0.49101 0.60512 0.86139 0.0
C1993 C 0.47288 0.58734 0.87005 0.0
C1994 C 0.51666 0.61059 0.86884 0.0
C1995 C 0.52443 0.59793 0.88535 0.0
C1996 C 0.50607 0.58027 0.89434 0.0
C1997 C 0.48044 0.57517 0.88656 0.0
C1998 C 0.53564 0.62959 0.85884 0.0
C1999 C 0.51369 0.56644 0.91196 0.0
H2000 H 0.61742 0.58083 0.88558 0.0
H2001 H 0.58907 0.64918 0.91672 0.0
H2002 H 0.55296 0.54847 0.87996 0.0
H2003 H 0.56174 0.56887 0.86069 0.0
H2004 H 0.5877 0.5494 0.87208 0.0
H2005 H 0.54237 0.65745 0.92159 0.0
H2006 H 0.5265 0.6547 0.89955 0.0
H2007 H 0.51845 0.63049 0.91689 0.0
H2008 H 0.48523 0.61468 0.84866 0.0
H2009 H 0.46644 0.56146 0.89332 0.0
H2010 H 0.55428 0.61847 0.85469 0.0
H2011 H 0.54207 0.64641 0.86795 0.0
H2012 H 0.52613 0.6385 0.84648 0.0
H2013 H 0.53125 0.55269 0.90967 0.0
H2014 H 0.49662 0.55436 0.9177 0.0
H2015 H 0.5201 0.58177 0.92219 0.0
C2016 C 0.62043 0.33172 0.15264 0.0
C2017 C 0.63327 0.35373 0.1441 0.0
C2018 C 0.62718 0.30482 0.148 0.0
C2019 C 0.64725 0.29995 0.13455 0.0
C2020 C 0.66103 0.32213 0.12645 0.0
C2021 C 0.65385 0.34874 0.13131 0.0
C2022 C 0.61208 0.28168 0.15695 0.0
C2023 C 0.6826 0.31779 0.11209 0.0
C2024 C 0.67837 0.22971 0.1285 0.0
C2025 C 0.66379 0.21992 0.11345 0.0
C2026 C 0.67293 0.25559 0.13577 0.0
C2027 C 0.65237 0.2719 0.12782 0.0
C2028 C 0.6373 0.26188 0.11282 0.0
C2029 C 0.64324 0.23605 0.1058 0.0
C2030 C 0.68945 0.26566 0.15174 0.0
C2031 C 0.61516 0.27861 0.10399 0.0
H2032 H 0.60454 0.33549 0.16256 0.0
H2033 H 0.66395 0.36569 0.12472 0.0
H2034 H 0.59923 0.2712 0.14669 0.0
H2035 H 0.62663 0.26645 0.16236 0.0
H2036 H 0.59882 0.28874 0.16824 0.0
H2037 H 0.69283 0.33706 0.10815 0.0
H2038 H 0.69822 0.3033 0.11706 0.0
H2039 H 0.67324 0.30874 0.09974 0.0
H2040 H 0.69424 0.21728 0.13448 0.0
H2041 H 0.6318 0.22852 0.09422 0.0
H2042 H 0.67578 0.27175 0.16305 0.0
H2043 H 0.70115 0.28398 0.1477 0.0
H2044 H 0.70391 0.25006 0.15683 0.0
H2045 H 0.59982 0.28469 0.1143 0.0
H2046 H 0.60466 0.26744 0.09286 0.0
H2047 H 0.62396 0.29755 0.09827 0.0
C2048 C 0.89694 0.40489 0.37616 0.0
C2049 C 0.89243 0.38962 0.39198 0.0
C2050 C 0.92321 0.4134 0.37141 0.0
C2051 C 0.94548 0.40606 0.38261 0.0
C2052 C 0.94088 0.39158 0.39898 0.0
C2053 C 0.91433 0.38367 0.40354 0.0
C2054 C 0.92728 0.4292 0.35399 0.0
C2055 C 0.96414 0.38315 0.41117 0.0
C2056 C 0.01291 0.39694 0.3585 0.0
C2057 C 0.02675 0.42078 0.36332 0.0
C2058 C 0.98662 0.39179 0.36494 0.0
C2059 C 0.97369 0.41116 0.37627 0.0
C2060 C 0.98756 0.43529 0.38123 0.0
C2061 C 0.01409 0.43974 0.37478 0.0
C2062 C 0.97264 0.36563 0.35955 0.0
C2063 C 0.97423 0.45652 0.39311 0.0
H2064 H 0.87999 0.40972 0.36728 0.0
H2065 H 0.91089 0.37187 0.41579 0.0
H2066 H 0.94002 0.44743 0.35653 0.0
H2067 H 0.93818 0.41636 0.34393 0.0
H2068 H 0.90768 0.43581 0.34788 0.0
H2069 H 0.95695 0.37412 0.42418 0.0
H2070 H 0.97692 0.36792 0.40402 0.0
H2071 H 0.97731 0.40086 0.41432 0.0
H2072 H 0.02272 0.38215 0.34972 0.0
H2073 H 0.02475 0.45823 0.37848 0.0
H2074 H 0.95391 0.37022 0.3517 0.0
H2075 H 0.9664 0.35422 0.3719 0.0
H2076 H 0.98588 0.35231 0.35113 0.0
H2077 H 0.95553 0.4642 0.3864 0.0
H2078 H 0.98791 0.47401 0.39591 0.0
H2079 H 0.96799 0.44738 0.40627 0.0
C2080 C 0.86673 0.3414 0.86558 0.0
C2081 C 0.85965 0.35361 0.84901 0.0
C2082 C 0.85788 0.31507 0.86986 0.0
C2083 C 0.84106 0.30083 0.85742 0.0
C2084 C 0.83339 0.31329 0.84081 0.0
C2085 C 0.84304 0.33947 0.83671 0.0
C2086 C 0.86688 0.30232 0.88758 0.0
C2087 C 0.81503 0.29895 0.82741 0.0
C2088 C 0.84087 0.22409 0.86277 0.0
C2089 C 0.81851 0.22026 0.87432 0.0
C2090 C 0.84792 0.25017 0.85661 0.0
C2091 C 0.8319 0.27279 0.86185 0.0
C2092 C 0.80836 0.26876 0.87262 0.0
C2093 C 0.8021 0.24255 0.8789 0.0
C2094 C 0.87339 0.25368 0.84535 0.0
C2095 C 0.79042 0.29228 0.87816 0.0
H2096 H 0.87971 0.35223 0.87506 0.0
H2097 H 0.83744 0.34894 0.82391 0.0
H2098 H 0.84888 0.2971 0.89599 0.0
H2099 H 0.87799 0.28311 0.88482 0.0
H2100 H 0.88031 0.31597 0.89562 0.0
H2101 H 0.81017 0.31183 0.81541 0.0
H2102 H 0.82486 0.27997 0.82257 0.0
H2103 H 0.79573 0.29305 0.83418 0.0
H2104 H 0.85366 0.20691 0.85928 0.0
H2105 H 0.78469 0.23959 0.88774 0.0
H2106 H 0.88867 0.26534 0.85328 0.0
H2107 H 0.86892 0.26549 0.83284 0.0
H2108 H 0.88251 0.23388 0.84136 0.0
H2109 H 0.80152 0.30552 0.88788 0.0
H2110 H 0.77129 0.28537 0.88474 0.0
H2111 H 0.7852 0.30488 0.86612 0.0
C2112 C 0.01882 0.60233 0.13789 0.0
C2113 C 0.03254 0.57849 0.13287 0.0
C2114 C 0.99249 0.60772 0.13156 0.0
C2115 C 0.97938 0.58863 0.1201 0.0
C2116 C 0.99309 0.56447 0.11498 0.0
C2117 C 0.01965 0.55976 0.12134 0.0
C2118 C 0.97869 0.63389 0.13715 0.0
C2119 C 0.97961 0.54354 0.10295 0.0
C2120 C 0.90251 0.59506 0.11961 0.0
C2121 C 0.89824 0.61035 0.10376 0.0
C2122 C 0.92875 0.58668 0.12464 0.0
C2123 C 0.95123 0.59412 0.11367 0.0
C2124 C 0.94692 0.6088 0.09734 0.0
C2125 C 0.92042 0.6166 0.09252 0.0
C2126 C 0.9325 0.57073 0.14203 0.0
C2127 C 0.9704 0.61735 0.08539 0.0
H2128 H 0.02876 0.61694 0.14673 0.0
H2129 H 0.03018 0.54127 0.11748 0.0
H2130 H 0.9727 0.64563 0.12489 0.0
H2131 H 0.95983 0.6293 0.14485 0.0
H2132 H 0.99196 0.64688 0.14578 0.0
H2133 H 0.99305 0.52585 0.10019 0.0
H2134 H 0.96067 0.53612 0.1095 0.0
H2135 H 0.97372 0.55288 0.08978 0.0
H2136 H 0.88539 0.59002 0.12827 0.0
H2137 H 0.9172 0.62843 0.08025 0.0
H2138 H 0.94352 0.58335 0.15216 0.0
H2139 H 0.94503 0.55236 0.13946 0.0
H2140 H 0.91279 0.56433 0.14806 0.0
H2141 H 0.98332 0.63216 0.09283 0.0
H2142 H 0.96347 0.62691 0.07249 0.0
H2143 H 0.98336 0.59958 0.08204 0.0
C2144 C 0.6484 0.65531 0.34353 0.0
C2145 C 0.62848 0.64238 0.35408 0.0
C2146 C 0.65736 0.68166 0.34789 0.0
C2147 C 0.64551 0.69556 0.3628 0.0
C2148 C 0.62494 0.68274 0.37322 0.0
C2149 C 0.61696 0.65615 0.36889 0.0
C2150 C 0.67983 0.6944 0.33678 0.0
C2151 C 0.61135 0.69711 0.38897 0.0
C2152 C 0.68117 0.75238 0.38819 0.0
C2153 C 0.66834 0.77544 0.38101 0.0
C2154 C 0.67502 0.72631 0.38164 0.0
C2155 C 0.65497 0.72324 0.36795 0.0
C2156 C 0.64251 0.74656 0.36027 0.0
C2157 C 0.64964 0.77248 0.36675 0.0
C2158 C 0.68927 0.70201 0.38983 0.0
C2159 C 0.62062 0.74407 0.34595 0.0
H2160 H 0.65738 0.64459 0.33212 0.0
H2161 H 0.60135 0.64625 0.37694 0.0
H2162 H 0.67281 0.71391 0.33084 0.0
H2163 H 0.69744 0.69907 0.3457 0.0
H2164 H 0.68681 0.68093 0.32556 0.0
H2165 H 0.59466 0.68487 0.39503 0.0
H2166 H 0.62653 0.70153 0.39975 0.0
H2167 H 0.60288 0.71688 0.38438 0.0
H2168 H 0.6958 0.75471 0.39914 0.0
H2169 H 0.63958 0.79032 0.36129 0.0
H2170 H 0.69722 0.68856 0.37893 0.0
H2171 H 0.67459 0.68994 0.39797 0.0
H2172 H 0.70641 0.70805 0.39883 0.0
H2173 H 0.62775 0.73124 0.33448 0.0
H2174 H 0.6143 0.76417 0.3405 0.0
H2175 H 0.60253 0.73392 0.3519 0.0
C2176 C 0.60309 0.40213 0.61896 0.0
C2177 C 0.60625 0.38754 0.60269 0.0
C2178 C 0.57718 0.40967 0.62517 0.0
C2179 C 0.55393 0.40211 0.61497 0.0
C2180 C 0.55709 0.38829 0.59819 0.0
C2181 C 0.58327 0.3813 0.59219 0.0
C2182 C 0.57464 0.42474 0.64301 0.0
C2183 C 0.53277 0.37969 0.58701 0.0
C2184 C 0.48898 0.39105 0.64174 0.0
C2185 C 0.47432 0.41478 0.63784 0.0
C2186 C 0.51477 0.3866 0.63419 0.0
C2187 C 0.52632 0.40654 0.62264 0.0
C2188 C 0.51162 0.43057 0.61864 0.0
C2189 C 0.48566 0.43434 0.62621 0.0
C2190 C 0.52967 0.36055 0.63862 0.0
C2191 C 0.52345 0.45237 0.60653 0.0
H2192 H 0.62084 0.40714 0.62705 0.0
H2193 H 0.58563 0.37001 0.57961 0.0
H2194 H 0.56138 0.44284 0.64136 0.0
H2195 H 0.56497 0.41136 0.6533 0.0
H2196 H 0.59469 0.43146 0.64834 0.0
H2197 H 0.53875 0.37106 0.57361 0.0
H2198 H 0.52101 0.3641 0.59458 0.0
H2199 H 0.51902 0.39723 0.58467 0.0
H2200 H 0.48022 0.37582 0.65066 0.0
H2201 H 0.47439 0.45275 0.62322 0.0
H2202 H 0.5491 0.36526 0.64563 0.0
H2203 H 0.53479 0.34955 0.62587 0.0
H2204 H 0.51754 0.34682 0.64746 0.0
H2205 H 0.54273 0.46004 0.61248 0.0
H2206 H 0.50933 0.4698 0.60467 0.0
H2207 H 0.5284 0.44377 0.59296 0.0
C2208 C 0.1295 0.335 0.34688 0.0
C2209 C 0.13524 0.35775 0.35772 0.0
C2210 C 0.13653 0.30874 0.35267 0.0
C2211 C 0.14996 0.30527 0.36957 0.0
C2212 C 0.15671 0.32828 0.38025 0.0
C2213 C 0.14905 0.35427 0.37426 0.0
C2214 C 0.1287 0.28466 0.34102 0.0
C2215 C 0.1714 0.32539 0.3982 0.0
C2216 C 0.14128 0.23793 0.39403 0.0
C2217 C 0.16536 0.22435 0.38938 0.0
C2218 C 0.13603 0.26426 0.38762 0.0
C2219 C 0.15554 0.27746 0.37654 0.0
C2220 C 0.18007 0.26399 0.372 0.0
C2221 C 0.1846 0.23745 0.37836 0.0
C2222 C 0.10946 0.27783 0.39255 0.0
C2223 C 0.20149 0.27762 0.36044 0.0
H2224 H 0.11875 0.33762 0.33411 0.0
H2225 H 0.15365 0.37186 0.38262 0.0
H2226 H 0.14683 0.27197 0.33809 0.0
H2227 H 0.11398 0.2717 0.3485 0.0
H2228 H 0.11934 0.29091 0.3279 0.0
H2229 H 0.17698 0.34539 0.40417 0.0
H2230 H 0.15829 0.3144 0.40805 0.0
H2231 H 0.19018 0.31316 0.39641 0.0
H2232 H 0.12631 0.2278 0.40248 0.0
H2233 H 0.2033 0.22703 0.37482 0.0
H2234 H 0.0981 0.28315 0.37998 0.0
H2235 H 0.11343 0.29706 0.39999 0.0
H2236 H 0.09635 0.26467 0.40116 0.0
H2237 H 0.19298 0.2826 0.34685 0.0
H2238 H 0.21977 0.26463 0.35854 0.0
H2239 H 0.20784 0.29706 0.36683 0.0
C2240 C 0.41291 0.37115 0.11396 0.0
C2241 C 0.39842 0.38231 0.09934 0.0
C2242 C 0.43934 0.37992 0.11801 0.0
C2243 C 0.45127 0.40089 0.10748 0.0
C2244 C 0.43666 0.41237 0.09275 0.0
C2245 C 0.41047 0.40265 0.08868 0.0
C2246 C 0.45449 0.36673 0.13359 0.0
C2247 C 0.44846 0.43521 0.08153 0.0
C2248 C 0.50759 0.43769 0.13259 0.0
C2249 C 0.53081 0.42516 0.12539 0.0
C2250 C 0.48159 0.43116 0.12607 0.0
C2251 C 0.47878 0.41112 0.11235 0.0
C2252 C 0.50226 0.39917 0.10455 0.0
C2253 C 0.52809 0.40658 0.11104 0.0
C2254 C 0.45709 0.44484 0.13444 0.0
C2255 C 0.50007 0.37738 0.09013 0.0
H2256 H 0.40369 0.35523 0.12209 0.0
H2257 H 0.39919 0.41136 0.07742 0.0
H2258 H 0.47437 0.35882 0.12876 0.0
H2259 H 0.45875 0.38203 0.14432 0.0
H2260 H 0.44288 0.3497 0.13978 0.0
H2261 H 0.43457 0.44175 0.07043 0.0
H2262 H 0.45274 0.45297 0.09041 0.0
H2263 H 0.46809 0.42883 0.07543 0.0
H2264 H 0.50971 0.45222 0.14361 0.0
H2265 H 0.54605 0.39678 0.10553 0.0
H2266 H 0.44558 0.42991 0.14273 0.0
H2267 H 0.4432 0.45236 0.12364 0.0
H2268 H 0.46287 0.46219 0.14333 0.0
H2269 H 0.49074 0.35888 0.09613 0.0
H2270 H 0.52021 0.37181 0.08437 0.0
H2271 H 0.48665 0.38418 0.07888 0.0
C2272 C 0.35076 0.7674 0.88878 0.0
C2273 C 0.32646 0.78047 0.88397 0.0
C2274 C 0.35687 0.74138 0.88222 0.0
C2275 C 0.33807 0.72793 0.87072 0.0
C2276 C 0.31354 0.74105 0.86572 0.0
C2277 C 0.30807 0.76731 0.87233 0.0
C2278 C 0.38339 0.72819 0.88773 0.0
C2279 C 0.29294 0.72718 0.85362 0.0
C2280 C 0.36784 0.66927 0.84376 0.0
C2281 C 0.36217 0.64723 0.85525 0.0
C2282 C 0.35908 0.69561 0.84821 0.0
C2283 C 0.34409 0.69986 0.86443 0.0
C2284 C 0.33713 0.67744 0.87557 0.0
C2285 C 0.34641 0.65139 0.8709 0.0
C2286 C 0.36707 0.71906 0.83606 0.0
C2287 C 0.3209 0.68111 0.89286 0.0
H2288 H 0.36512 0.77757 0.89768 0.0
H2289 H 0.28925 0.77738 0.86862 0.0
H2290 H 0.37927 0.7093 0.89551 0.0
H2291 H 0.39515 0.72235 0.87543 0.0
H2292 H 0.39619 0.74179 0.89625 0.0
H2293 H 0.27515 0.74039 0.85065 0.0
H2294 H 0.30254 0.72118 0.84055 0.0
H2295 H 0.28562 0.70828 0.86025 0.0
H2296 H 0.38 0.66611 0.83162 0.0
H2297 H 0.34177 0.63435 0.87974 0.0
H2298 H 0.38184 0.73226 0.84331 0.0
H2299 H 0.34906 0.73173 0.83279 0.0
H2300 H 0.3765 0.71208 0.82313 0.0
H2301 H 0.33322 0.69247 0.90299 0.0
H2302 H 0.3148 0.66136 0.89897 0.0
H2303 H 0.30232 0.69327 0.89015 0.0
C2304 C 0.9916 0.59743 0.6369 0.0
C2305 C 0.97398 0.58078 0.62685 0.0
C2306 C 0.0178 0.60341 0.63057 0.0
C2307 C 0.02669 0.59238 0.61379 0.0
C2308 C 0.00895 0.5757 0.60347 0.0
C2309 C 0.98272 0.57011 0.61013 0.0
C2310 C 0.03606 0.62135 0.64197 0.0
C2311 C 0.01779 0.56355 0.58555 0.0
C2312 C 0.08788 0.62849 0.59362 0.0
C2313 C 0.1093 0.61266 0.60043 0.0
C2314 C 0.06069 0.62138 0.59707 0.0
C2315 C 0.0549 0.59785 0.60749 0.0
C2316 C 0.07645 0.58101 0.61352 0.0
C2317 C 0.1034 0.58868 0.60997 0.0
C2318 C 0.03826 0.63986 0.59043 0.0
C2319 C 0.07112 0.55565 0.62455 0.0
H2320 H 0.98493 0.60583 0.6498 0.0
H2321 H 0.96914 0.55726 0.6023 0.0
H2322 H 0.05452 0.60989 0.64606 0.0
H2323 H 0.04288 0.63913 0.63387 0.0
H2324 H 0.02578 0.62887 0.65447 0.0
H2325 H 0.00132 0.55164 0.57893 0.0
H2326 H 0.02437 0.57988 0.5761 0.0
H2327 H 0.03555 0.55 0.58772 0.0
H2328 H 0.09235 0.64702 0.58621 0.0
H2329 H 0.1199 0.57625 0.61514 0.0
H2330 H 0.02868 0.6502 0.60224 0.0
H2331 H 0.02216 0.6279 0.58351 0.0
H2332 H 0.04589 0.65563 0.58088 0.0
H2333 H 0.06303 0.56139 0.63812 0.0
H2334 H 0.08983 0.54332 0.62655 0.0
H2335 H 0.05554 0.54283 0.61778 0.0
C2336 C 0.13855 0.6633 0.15463 0.0
C2337 C 0.14212 0.64225 0.14197 0.0
C2338 C 0.14523 0.69023 0.15018 0.0
C2339 C 0.15598 0.69611 0.13274 0.0
C2340 C 0.1608 0.67473 0.12023 0.0
C2341 C 0.15365 0.64804 0.12496 0.0
C2342 C 0.13962 0.71251 0.16383 0.0
C2343 C 0.17253 0.68018 0.10158 0.0
C2344 C 0.14283 0.76546 0.11209 0.0
C2345 C 0.16778 0.7786 0.11487 0.0
C2346 C 0.13864 0.73878 0.11814 0.0
C2347 C 0.16004 0.72478 0.127 0.0
C2348 C 0.18524 0.738 0.12998 0.0
C2349 C 0.18877 0.76489 0.12397 0.0
C2350 C 0.11135 0.72549 0.1149 0.0
C2351 C 0.20857 0.72359 0.13923 0.0
H2352 H 0.12963 0.6589 0.1678 0.0
H2353 H 0.15661 0.63178 0.11519 0.0
H2354 H 0.15796 0.72533 0.16577 0.0
H2355 H 0.12322 0.72592 0.1586 0.0
H2356 H 0.13326 0.70434 0.17728 0.0
H2357 H 0.17733 0.66111 0.09411 0.0
H2358 H 0.15777 0.69209 0.09338 0.0
H2359 H 0.19136 0.6925 0.10272 0.0
H2360 H 0.1265 0.77606 0.10515 0.0
H2361 H 0.20811 0.77499 0.12609 0.0
H2362 H 0.10267 0.71832 0.12799 0.0
H2363 H 0.11389 0.7074 0.10602 0.0
H2364 H 0.09655 0.73951 0.10838 0.0
H2365 H 0.20219 0.71623 0.15286 0.0
H2366 H 0.22664 0.73693 0.14089 0.0
H2367 H 0.21456 0.70548 0.13115 0.0
C2368 C 0.08218 0.3859 0.89814 0.0
C2369 C 0.10486 0.39221 0.88738 0.0
C2370 C 0.05579 0.39232 0.89229 0.0
C2371 C 0.05209 0.40572 0.8754 0.0
C2372 C 0.07501 0.4132 0.86487 0.0
C2373 C 0.10115 0.40615 0.87092 0.0
C2374 C 0.03183 0.38376 0.9038 0.0
C2375 C 0.07189 0.42791 0.84694 0.0
C2376 C 0.98543 0.39505 0.85039 0.0
C2377 C 0.97108 0.41872 0.85492 0.0
C2378 C 0.01178 0.39056 0.85703 0.0
C2379 C 0.02421 0.41043 0.86825 0.0
C2380 C 0.00994 0.43453 0.8727 0.0
C2381 C 0.98341 0.4383 0.86609 0.0
C2382 C 0.02624 0.36443 0.85218 0.0
C2383 C 0.0227 0.45632 0.88441 0.0
H2384 H 0.08498 0.37504 0.91085 0.0
H2385 H 0.11867 0.41118 0.86262 0.0
H2386 H 0.01845 0.40144 0.90658 0.0
H2387 H 0.01951 0.36853 0.89628 0.0
H2388 H 0.03821 0.37474 0.917 0.0
H2389 H 0.09178 0.43427 0.84116 0.0
H2390 H 0.06158 0.41447 0.83696 0.0
H2391 H 0.05894 0.44622 0.84869 0.0
H2392 H 0.9759 0.37982 0.84182 0.0
H2393 H 0.97239 0.45669 0.86955 0.0
H2394 H 0.03175 0.35324 0.86477 0.0
H2395 H 0.04543 0.36901 0.84486 0.0
H2396 H 0.0136 0.35093 0.84348 0.0
H2397 H 0.0278 0.4479 0.89801 0.0
H2398 H 0.0091 0.47414 0.88628 0.0
H2399 H 0.04201 0.46334 0.87816 0.0
C2400 C 0.3138 0.2308 0.6279 0.0
C2401 C 0.33264 0.2184 0.61622 0.0
C2402 C 0.31868 0.25687 0.63505 0.0
C2403 C 0.3431 0.27058 0.63056 0.0
C2404 C 0.36233 0.25794 0.61898 0.0
C2405 C 0.35678 0.23209 0.61186 0.0
C2406 C 0.29761 0.26986 0.64721 0.0
C2407 C 0.38876 0.27177 0.61402 0.0
C2408 C 0.34982 0.34732 0.63282 0.0
C2409 C 0.36482 0.35076 0.64889 0.0
C2410 C 0.34148 0.32139 0.62713 0.0
C2411 C 0.34862 0.29836 0.63767 0.0
C2412 C 0.36297 0.30181 0.65423 0.0
C2413 C 0.37077 0.32803 0.6597 0.0
C2414 C 0.32591 0.31855 0.6095 0.0
C2415 C 0.37115 0.27773 0.66575 0.0
H2416 H 0.29509 0.22028 0.63126 0.0
H2417 H 0.37149 0.22252 0.60292 0.0
H2418 H 0.30675 0.27509 0.66058 0.0
H2419 H 0.29036 0.28912 0.64101 0.0
H2420 H 0.27981 0.25638 0.64955 0.0
H2421 H 0.40187 0.25882 0.60526 0.0
H2422 H 0.38452 0.29104 0.6067 0.0
H2423 H 0.40022 0.27704 0.62655 0.0
H2424 H 0.34501 0.36487 0.62449 0.0
H2425 H 0.38238 0.33061 0.67214 0.0
H2426 H 0.3074 0.30605 0.6116 0.0
H2427 H 0.3387 0.30792 0.59928 0.0
H2428 H 0.31978 0.33857 0.60381 0.0
H2429 H 0.35325 0.26468 0.6686 0.0
H2430 H 0.38041 0.28399 0.6789 0.0
H2431 H 0.3861 0.26513 0.65819 0.0
C2432 C 0.50614 0.59778 0.35259 0.0
C2433 C 0.52106 0.57559 0.35919 0.0
C2434 C 0.48014 0.60364 0.35937 0.0
C2435 C 0.46862 0.58663 0.37288 0.0
C2436 C 0.48332 0.5638 0.37929 0.0
C2437 C 0.50951 0.55866 0.37246 0.0
C2438 C 0.46523 0.62837 0.35234 0.0
C2439 C 0.47149 0.54499 0.39347 0.0
C2440 C 0.41378 0.61873 0.40219 0.0
C2441 C 0.39008 0.61049 0.39313 0.0
C2442 C 0.43951 0.61055 0.39599 0.0
C2443 C 0.44148 0.59334 0.38058 0.0
C2444 C 0.41754 0.584 0.37188 0.0
C2445 C 0.3921 0.59291 0.37816 0.0
C2446 C 0.46458 0.62123 0.40549 0.0
C2447 C 0.41883 0.56523 0.35562 0.0
H2448 H 0.51504 0.61098 0.34238 0.0
H2449 H 0.52096 0.54142 0.37754 0.0
H2450 H 0.44533 0.6223 0.34649 0.0
H2451 H 0.46104 0.64257 0.36375 0.0
H2452 H 0.47697 0.6394 0.34173 0.0
H2453 H 0.48497 0.52736 0.39634 0.0
H2454 H 0.46809 0.55629 0.40635 0.0
H2455 H 0.45142 0.53726 0.38888 0.0
H2456 H 0.41229 0.6324 0.41373 0.0
H2457 H 0.37377 0.58636 0.37121 0.0
H2458 H 0.47637 0.63422 0.39598 0.0
H2459 H 0.47798 0.60415 0.40959 0.0
H2460 H 0.45954 0.6334 0.41779 0.0
H2461 H 0.42819 0.57603 0.34393 0.0
H2462 H 0.39838 0.55791 0.35144 0.0
H2463 H 0.43184 0.54738 0.35871 0.0
loop_
_geom_bond_atom_site_label_1
_geom_bond_atom_site_label_2
_geom_bond_distance
_geom_bond_site_symmetry_2
_ccdc_geom_bond_type
In0 O1 2.294 . S
In0 O2 2.326 . S
In0 O6 2.266 . S
In0 O7 2.326 . S
In0 O8 2.266 . S
In0 O9 2.326 . S
In0 O11 2.294 . S
In0 O12 2.326 . S
O1 In0 2.294 . S
O1 C10 1.240 . S
O2 In0 2.326 . S
O2 C10 1.252 . S
C3 O6 1.252 . S
C3 O7 1.260 . S
C4 O11 1.240 . S
C4 O12 1.252 . S
C5 O8 1.252 . S
C5 O9 1.260 . S
O6 In0 2.266 . S
O6 C3 1.252 . S
O7 In0 2.326 . S
O7 C3 1.260 . S
O8 In0 2.266 . S
O8 C5 1.252 . S
O9 In0 2.326 . S
O9 C5 1.260 . S
C10 O1 1.240 . S
C10 O2 1.252 . S
O11 In0 2.294 . S
O11 C4 1.240 . S
O12 In0 2.326 . S
O12 C4 1.252 . S
In13 O14 2.294 . S
In13 O15 2.326 . S
In13 O19 2.266 . S
In13 O20 2.326 . S
In13 O21 2.266 . S
In13 O22 2.326 . S
In13 O24 2.294 . S
In13 O25 2.326 . S
O14 In13 2.294 . S
O14 C23 1.240 . S
O15 In13 2.326 . S
O15 C23 1.252 . S
C16 O19 1.252 . S
C16 O20 1.260 . S
C17 O24 1.240 . S
C17 O25 1.252 . S
C18 O21 1.252 . S
C18 O22 1.260 . S
O19 In13 2.266 . S
O19 C16 1.252 . S
O20 In13 2.326 . S
O20 C16 1.260 . S
O21 In13 2.266 . S
O21 C18 1.252 . S
O22 In13 2.326 . S
O22 C18 1.260 . S
C23 O14 1.240 . S
C23 O15 1.252 . S
O24 In13 2.294 . S
O24 C17 1.240 . S
O25 In13 2.326 . S
O25 C17 1.252 . S
In26 O27 2.294 . S
In26 O28 2.326 . S
In26 O32 2.266 . S
In26 O33 2.326 . S
In26 O34 2.266 . S
In26 O35 2.326 . S
In26 O37 2.294 . S
In26 O38 2.326 . S
O27 In26 2.294 . S
O27 C36 1.240 . S
O28 In26 2.326 . S
O28 C36 1.252 . S
C29 O32 1.252 . S
C29 O33 1.260 . S
C30 O37 1.240 . S
C30 O38 1.252 . S
C31 O34 1.252 . S
C31 O35 1.260 . S
O32 In26 2.266 . S
O32 C29 1.252 . S
O33 In26 2.326 . S
O33 C29 1.260 . S
O34 In26 2.266 . S
O34 C31 1.252 . S
O35 In26 2.326 . S
O35 C31 1.260 . S
C36 O27 1.240 . S
C36 O28 1.252 . S
O37 In26 2.294 . S
O37 C30 1.240 . S
O38 In26 2.326 . S
O38 C30 1.252 . S
In39 O40 2.294 . S
In39 O41 2.326 . S
In39 O45 2.266 . S
In39 O46 2.326 . S
In39 O47 2.266 . S
In39 O48 2.326 . S
In39 O50 2.294 . S
In39 O51 2.326 . S
O40 In39 2.294 . S
O40 C49 1.240 . S
O41 In39 2.326 . S
O41 C49 1.252 . S
C42 O45 1.252 . S
C42 O46 1.260 . S
C43 O50 1.240 . S
C43 O51 1.252 . S
C44 O47 1.252 . S
C44 O48 1.260 . S
O45 In39 2.266 . S
O45 C42 1.252 . S
O46 In39 2.326 . S
O46 C42 1.260 . S
O47 In39 2.266 . S
O47 C44 1.252 . S
O48 In39 2.326 . S
O48 C44 1.260 . S
C49 O40 1.240 . S
C49 O41 1.252 . S
O50 In39 2.294 . S
O50 C43 1.240 . S
O51 In39 2.326 . S
O51 C43 1.252 . S
In52 O53 2.294 . S
In52 O54 2.326 . S
In52 O58 2.266 . S
In52 O59 2.326 . S
In52 O60 2.266 . S
In52 O61 2.326 . S
In52 O63 2.294 . S
In52 O64 2.326 . S
O53 In52 2.294 . S
O53 C62 1.240 . S
O54 In52 2.326 . S
O54 C62 1.252 . S
C55 O58 1.252 . S
C55 O59 1.260 . S
C56 O63 1.240 . S
C56 O64 1.252 . S
C57 O60 1.252 . S
C57 O61 1.260 . S
O58 In52 2.266 . S
O58 C55 1.252 . S
O59 In52 2.326 . S
O59 C55 1.260 . S
O60 In52 2.266 . S
O60 C57 1.252 . S
O61 In52 2.326 . S
O61 C57 1.260 . S
C62 O53 1.240 . S
C62 O54 1.252 . S
O63 In52 2.294 . S
O63 C56 1.240 . S
O64 In52 2.326 . S
O64 C56 1.252 . S
In65 O66 2.294 . S
In65 O67 2.326 . S
In65 O71 2.266 . S
In65 O72 2.326 . S
In65 O73 2.266 . S
In65 O74 2.326 . S
In65 O76 2.294 . S
In65 O77 2.326 . S
O66 In65 2.294 . S
O66 C75 1.240 . S
O67 In65 2.326 . S
O67 C75 1.252 . S
C68 O71 1.252 . S
C68 O72 1.260 . S
C69 O76 1.240 . S
C69 O77 1.252 . S
C70 O73 1.252 . S
C70 O74 1.260 . S
O71 In65 2.266 . S
O71 C68 1.252 . S
O72 In65 2.326 . S
O72 C68 1.260 . S
O73 In65 2.266 . S
O73 C70 1.252 . S
O74 In65 2.326 . S
O74 C70 1.260 . S
C75 O66 1.240 . S
C75 O67 1.252 . S
O76 In65 2.294 . S
O76 C69 1.240 . S
O77 In65 2.326 . S
O77 C69 1.252 . S
In78 O79 2.294 . S
In78 O80 2.326 . S
In78 O84 2.266 . S
In78 O85 2.326 . S
In78 O86 2.266 . S
In78 O87 2.326 . S
In78 O89 2.294 . S
In78 O90 2.326 . S
O79 In78 2.294 . S
O79 C88 1.240 . S
O80 In78 2.326 . S
O80 C88 1.252 . S
C81 O84 1.252 . S
C81 O85 1.260 . S
C82 O89 1.240 . S
C82 O90 1.252 . S
C83 O86 1.252 . S
C83 O87 1.260 . S
O84 In78 2.266 . S
O84 C81 1.252 . S
O85 In78 2.326 . S
O85 C81 1.260 . S
O86 In78 2.266 . S
O86 C83 1.252 . S
O87 In78 2.326 . S
O87 C83 1.260 . S
C88 O79 1.240 . S
C88 O80 1.252 . S
O89 In78 2.294 . S
O89 C82 1.240 . S
O90 In78 2.326 . S
O90 C82 1.252 . S
In91 O92 2.294 . S
In91 O93 2.326 . S
In91 O97 2.266 . S
In91 O98 2.326 . S
In91 O99 2.266 . S
In91 O100 2.326 . S
In91 O102 2.294 . S
In91 O103 2.326 . S
O92 In91 2.294 . S
O92 C101 1.240 . S
O93 In91 2.326 . S
O93 C101 1.252 . S
C94 O97 1.252 . S
C94 O98 1.260 . S
C95 O102 1.240 . S
C95 O103 1.252 . S
C96 O99 1.252 . S
C96 O100 1.260 . S
O97 In91 2.266 . S
O97 C94 1.252 . S
O98 In91 2.326 . S
O98 C94 1.260 . S
O99 In91 2.266 . S
O99 C96 1.252 . S
O100 In91 2.326 . S
O100 C96 1.260 . S
C101 O92 1.240 . S
C101 O93 1.252 . S
O102 In91 2.294 . S
O102 C95 1.240 . S
O103 In91 2.326 . S
O103 C95 1.252 . S
In104 O105 2.294 . S
In104 O106 2.326 . S
In104 O110 2.266 . S
In104 O111 2.326 . S
In104 O112 2.266 . S
In104 O113 2.326 . S
In104 O115 2.294 . S
In104 O116 2.326 . S
O105 In104 2.294 . S
O105 C114 1.240 . S
O106 In104 2.326 . S
O106 C114 1.252 . S
C107 O110 1.252 . S
C107 O111 1.260 . S
C108 O115 1.240 . S
C108 O116 1.252 . S
C109 O112 1.252 . S
C109 O113 1.260 . S
O110 In104 2.266 . S
O110 C107 1.252 . S
O111 In104 2.326 . S
O111 C107 1.260 . S
O112 In104 2.266 . S
O112 C109 1.252 . S
O113 In104 2.326 . S
O113 C109 1.260 . S
C114 O105 1.240 . S
C114 O106 1.252 . S
O115 In104 2.294 . S
O115 C108 1.240 . S
O116 In104 2.326 . S
O116 C108 1.252 . S
In117 O118 2.294 . S
In117 O119 2.326 . S
In117 O123 2.266 . S
In117 O124 2.326 . S
In117 O125 2.266 . S
In117 O126 2.326 . S
In117 O128 2.294 . S
In117 O129 2.326 . S
O118 In117 2.294 . S
O118 C127 1.240 . S
O119 In117 2.326 . S
O119 C127 1.252 . S
C120 O123 1.252 . S
C120 O124 1.260 . S
C121 O128 1.240 . S
C121 O129 1.252 . S
C122 O125 1.252 . S
C122 O126 1.260 . S
O123 In117 2.266 . S
O123 C120 1.252 . S
O124 In117 2.326 . S
O124 C120 1.260 . S
O125 In117 2.266 . S
O125 C122 1.252 . S
O126 In117 2.326 . S
O126 C122 1.260 . S
C127 O118 1.240 . S
C127 O119 1.252 . S
O128 In117 2.294 . S
O128 C121 1.240 . S
O129 In117 2.326 . S
O129 C121 1.252 . S
In130 O131 2.294 . S
In130 O132 2.326 . S
In130 O136 2.266 . S
In130 O137 2.326 . S
In130 O138 2.266 . S
In130 O139 2.326 . S
In130 O141 2.294 . S
In130 O142 2.326 . S
O131 In130 2.294 . S
O131 C140 1.240 . S
O132 In130 2.326 . S
O132 C140 1.252 . S
C133 O136 1.252 . S
C133 O137 1.260 . S
C134 O141 1.240 . S
C134 O142 1.252 . S
C135 O138 1.252 . S
C135 O139 1.260 . S
O136 In130 2.266 . S
O136 C133 1.252 . S
O137 In130 2.326 . S
O137 C133 1.260 . S
O138 In130 2.266 . S
O138 C135 1.252 . S
O139 In130 2.326 . S
O139 C135 1.260 . S
C140 O131 1.240 . S
C140 O132 1.252 . S
O141 In130 2.294 . S
O141 C134 1.240 . S
O142 In130 2.326 . S
O142 C134 1.252 . S
In143 O144 2.294 . S
In143 O145 2.326 . S
In143 O149 2.266 . S
In143 O150 2.326 . S
In143 O151 2.266 . S
In143 O152 2.326 . S
In143 O154 2.294 . S
In143 O155 2.326 . S
O144 In143 2.294 . S
O144 C153 1.240 . S
O145 In143 2.326 . S
O145 C153 1.252 . S
C146 O149 1.252 . S
C146 O150 1.260 . S
C147 O154 1.240 . S
C147 O155 1.252 . S
C148 O151 1.252 . S
C148 O152 1.260 . S
O149 In143 2.266 . S
O149 C146 1.252 . S
O150 In143 2.326 . S
O150 C146 1.260 . S
O151 In143 2.266 . S
O151 C148 1.252 . S
O152 In143 2.326 . S
O152 C148 1.260 . S
C153 O144 1.240 . S
C153 O145 1.252 . S
O154 In143 2.294 . S
O154 C147 1.240 . S
O155 In143 2.326 . S
O155 C147 1.252 . S
In156 O157 2.294 . S
In156 O158 2.326 . S
In156 O162 2.266 . S
In156 O163 2.326 . S
In156 O164 2.266 . S
In156 O165 2.326 . S
In156 O167 2.294 . S
In156 O168 2.326 . S
O157 In156 2.294 . S
O157 C166 1.240 . S
O158 In156 2.326 . S
O158 C166 1.252 . S
C159 O162 1.252 . S
C159 O163 1.260 . S
C160 O167 1.240 . S
C160 O168 1.252 . S
C161 O164 1.252 . S
C161 O165 1.260 . S
O162 In156 2.266 . S
O162 C159 1.252 . S
O163 In156 2.326 . S
O163 C159 1.260 . S
O164 In156 2.266 . S
O164 C161 1.252 . S
O165 In156 2.326 . S
O165 C161 1.260 . S
C166 O157 1.240 . S
C166 O158 1.252 . S
O167 In156 2.294 . S
O167 C160 1.240 . S
O168 In156 2.326 . S
O168 C160 1.252 . S
In169 O170 2.294 . S
In169 O171 2.326 . S
In169 O175 2.266 . S
In169 O176 2.326 . S
In169 O177 2.266 . S
In169 O178 2.326 . S
In169 O180 2.294 . S
In169 O181 2.326 . S
O170 In169 2.294 . S
O170 C179 1.240 . S
O171 In169 2.326 . S
O171 C179 1.252 . S
C172 O175 1.252 . S
C172 O176 1.260 . S
C173 O180 1.240 . S
C173 O181 1.252 . S
C174 O177 1.252 . S
C174 O178 1.260 . S
O175 In169 2.266 . S
O175 C172 1.252 . S
O176 In169 2.326 . S
O176 C172 1.260 . S
O177 In169 2.266 . S
O177 C174 1.252 . S
O178 In169 2.326 . S
O178 C174 1.260 . S
C179 O170 1.240 . S
C179 O171 1.252 . S
O180 In169 2.294 . S
O180 C173 1.240 . S
O181 In169 2.326 . S
O181 C173 1.252 . S
In182 O183 2.294 . S
In182 O184 2.326 . S
In182 O188 2.266 . S
In182 O189 2.326 . S
In182 O190 2.266 . S
In182 O191 2.326 . S
In182 O193 2.294 . S
In182 O194 2.326 . S
O183 In182 2.294 . S
O183 C192 1.240 . S
O184 In182 2.326 . S
O184 C192 1.252 . S
C185 O188 1.252 . S
C185 O189 1.260 . S
C186 O193 1.240 . S
C186 O194 1.252 . S
C187 O190 1.252 . S
C187 O191 1.260 . S
O188 In182 2.266 . S
O188 C185 1.252 . S
O189 In182 2.326 . S
O189 C185 1.260 . S
O190 In182 2.266 . S
O190 C187 1.252 . S
O191 In182 2.326 . S
O191 C187 1.260 . S
C192 O183 1.240 . S
C192 O184 1.252 . S
O193 In182 2.294 . S
O193 C186 1.240 . S
O194 In182 2.326 . S
O194 C186 1.252 . S
In195 O196 2.294 . S
In195 O197 2.326 . S
In195 O201 2.266 . S
In195 O202 2.326 . S
In195 O203 2.266 . S
In195 O204 2.326 . S
In195 O206 2.294 . S
In195 O207 2.326 . S
O196 In195 2.294 . S
O196 C205 1.240 . S
O197 In195 2.326 . S
O197 C205 1.252 . S
C198 O201 1.252 . S
C198 O202 1.260 . S
C199 O206 1.240 . S
C199 O207 1.252 . S
C200 O203 1.252 . S
C200 O204 1.260 . S
O201 In195 2.266 . S
O201 C198 1.252 . S
O202 In195 2.326 . S
O202 C198 1.260 . S
O203 In195 2.266 . S
O203 C200 1.252 . S
O204 In195 2.326 . S
O204 C200 1.260 . S
C205 O196 1.240 . S
C205 O197 1.252 . S
O206 In195 2.294 . S
O206 C199 1.240 . S
O207 In195 2.326 . S
O207 C199 1.252 . S
In208 O209 2.294 . S
In208 O210 2.326 . S
In208 O214 2.266 . S
In208 O215 2.326 . S
In208 O216 2.266 . S
In208 O217 2.326 . S
In208 O219 2.294 . S
In208 O220 2.326 . S
O209 In208 2.294 . S
O209 C218 1.240 . S
O210 In208 2.326 . S
O210 C218 1.252 . S
C211 O214 1.252 . S
C211 O215 1.260 . S
C212 O219 1.240 . S
C212 O220 1.252 . S
C213 O216 1.252 . S
C213 O217 1.260 . S
O214 In208 2.266 . S
O214 C211 1.252 . S
O215 In208 2.326 . S
O215 C211 1.260 . S
O216 In208 2.266 . S
O216 C213 1.252 . S
O217 In208 2.326 . S
O217 C213 1.260 . S
C218 O209 1.240 . S
C218 O210 1.252 . S
O219 In208 2.294 . S
O219 C212 1.240 . S
O220 In208 2.326 . S
O220 C212 1.252 . S
In221 O222 2.294 . S
In221 O223 2.326 . S
In221 O227 2.266 . S
In221 O228 2.326 . S
In221 O229 2.266 . S
In221 O230 2.326 . S
In221 O232 2.294 . S
In221 O233 2.326 . S
O222 In221 2.294 . S
O222 C231 1.240 . S
O223 In221 2.326 . S
O223 C231 1.252 . S
C224 O227 1.252 . S
C224 O228 1.260 . S
C225 O232 1.240 . S
C225 O233 1.252 . S
C226 O229 1.252 . S
C226 O230 1.260 . S
O227 In221 2.266 . S
O227 C224 1.252 . S
O228 In221 2.326 . S
O228 C224 1.260 . S
O229 In221 2.266 . S
O229 C226 1.252 . S
O230 In221 2.326 . S
O230 C226 1.260 . S
C231 O222 1.240 . S
C231 O223 1.252 . S
O232 In221 2.294 . S
O232 C225 1.240 . S
O233 In221 2.326 . S
O233 C225 1.252 . S
In234 O235 2.294 . S
In234 O236 2.326 . S
In234 O240 2.266 . S
In234 O241 2.326 . S
In234 O242 2.266 . S
In234 O243 2.326 . S
In234 O245 2.294 . S
In234 O246 2.326 . S
O235 In234 2.294 . S
O235 C244 1.240 . S
O236 In234 2.326 . S
O236 C244 1.252 . S
C237 O240 1.252 . S
C237 O241 1.260 . S
C238 O245 1.240 . S
C238 O246 1.252 . S
C239 O242 1.252 . S
C239 O243 1.260 . S
O240 In234 2.266 . S
O240 C237 1.252 . S
O241 In234 2.326 . S
O241 C237 1.260 . S
O242 In234 2.266 . S
O242 C239 1.252 . S
O243 In234 2.326 . S
O243 C239 1.260 . S
C244 O235 1.240 . S
C244 O236 1.252 . S
O245 In234 2.294 . S
O245 C238 1.240 . S
O246 In234 2.326 . S
O246 C238 1.252 . S
In247 O248 2.294 . S
In247 O249 2.326 . S
In247 O253 2.266 . S
In247 O254 2.326 . S
In247 O255 2.266 . S
In247 O256 2.326 . S
In247 O258 2.294 . S
In247 O259 2.326 . S
O248 In247 2.294 . S
O248 C257 1.240 . S
O249 In247 2.326 . S
O249 C257 1.252 . S
C250 O253 1.252 . S
C250 O254 1.260 . S
C251 O258 1.240 . S
C251 O259 1.252 . S
C252 O255 1.252 . S
C252 O256 1.260 . S
O253 In247 2.266 . S
O253 C250 1.252 . S
O254 In247 2.326 . S
O254 C250 1.260 . S
O255 In247 2.266 . S
O255 C252 1.252 . S
O256 In247 2.326 . S
O256 C252 1.260 . S
C257 O248 1.240 . S
C257 O249 1.252 . S
O258 In247 2.294 . S
O258 C251 1.240 . S
O259 In247 2.326 . S
O259 C251 1.252 . S
In260 O261 2.294 . S
In260 O262 2.326 . S
In260 O266 2.266 . S
In260 O267 2.326 . S
In260 O268 2.266 . S
In260 O269 2.326 . S
In260 O271 2.294 . S
In260 O272 2.326 . S
O261 In260 2.294 . S
O261 C270 1.240 . S
O262 In260 2.326 . S
O262 C270 1.252 . S
C263 O266 1.252 . S
C263 O267 1.260 . S
C264 O271 1.240 . S
C264 O272 1.252 . S
C265 O268 1.252 . S
C265 O269 1.260 . S
O266 In260 2.266 . S
O266 C263 1.252 . S
O267 In260 2.326 . S
O267 C263 1.260 . S
O268 In260 2.266 . S
O268 C265 1.252 . S
O269 In260 2.326 . S
O269 C265 1.260 . S
C270 O261 1.240 . S
C270 O262 1.252 . S
O271 In260 2.294 . S
O271 C264 1.240 . S
O272 In260 2.326 . S
O272 C264 1.252 . S
In273 O274 2.294 . S
In273 O275 2.326 . S
In273 O279 2.266 . S
In273 O280 2.326 . S
In273 O281 2.266 . S
In273 O282 2.326 . S
In273 O284 2.294 . S
In273 O285 2.326 . S
O274 In273 2.294 . S
O274 C283 1.240 . S
O275 In273 2.326 . S
O275 C283 1.252 . S
C276 O279 1.252 . S
C276 O280 1.260 . S
C277 O284 1.240 . S
C277 O285 1.252 . S
C278 O281 1.252 . S
C278 O282 1.260 . S
O279 In273 2.266 . S
O279 C276 1.252 . S
O280 In273 2.326 . S
O280 C276 1.260 . S
O281 In273 2.266 . S
O281 C278 1.252 . S
O282 In273 2.326 . S
O282 C278 1.260 . S
C283 O274 1.240 . S
C283 O275 1.252 . S
O284 In273 2.294 . S
O284 C277 1.240 . S
O285 In273 2.326 . S
O285 C277 1.252 . S
In286 O287 2.294 . S
In286 O288 2.326 . S
In286 O292 2.266 . S
In286 O293 2.326 . S
In286 O294 2.266 . S
In286 O295 2.326 . S
In286 O297 2.294 . S
In286 O298 2.326 . S
O287 In286 2.294 . S
O287 C296 1.240 . S
O288 In286 2.326 . S
O288 C296 1.252 . S
C289 O292 1.252 . S
C289 O293 1.260 . S
C290 O297 1.240 . S
C290 O298 1.252 . S
C291 O294 1.252 . S
C291 O295 1.260 . S
O292 In286 2.266 . S
O292 C289 1.252 . S
O293 In286 2.326 . S
O293 C289 1.260 . S
O294 In286 2.266 . S
O294 C291 1.252 . S
O295 In286 2.326 . S
O295 C291 1.260 . S
C296 O287 1.240 . S
C296 O288 1.252 . S
O297 In286 2.294 . S
O297 C290 1.240 . S
O298 In286 2.326 . S
O298 C290 1.252 . S
In299 O300 2.294 . S
In299 O301 2.326 . S
In299 O305 2.266 . S
In299 O306 2.326 . S
In299 O307 2.266 . S
In299 O308 2.326 . S
In299 O310 2.294 . S
In299 O311 2.326 . S
O300 In299 2.294 . S
O300 C309 1.240 . S
O301 In299 2.326 . S
O301 C309 1.252 . S
C302 O305 1.252 . S
C302 O306 1.260 . S
C303 O310 1.240 . S
C303 O311 1.252 . S
C304 O307 1.252 . S
C304 O308 1.260 . S
O305 In299 2.266 . S
O305 C302 1.252 . S
O306 In299 2.326 . S
O306 C302 1.260 . S
O307 In299 2.266 . S
O307 C304 1.252 . S
O308 In299 2.326 . S
O308 C304 1.260 . S
C309 O300 1.240 . S
C309 O301 1.252 . S
O310 In299 2.294 . S
O310 C303 1.240 . S
O311 In299 2.326 . S
O311 C303 1.252 . S
In312 O313 2.294 . S
In312 O314 2.326 . S
In312 O318 2.266 . S
In312 O319 2.326 . S
In312 O320 2.266 . S
In312 O321 2.326 . S
In312 O323 2.294 . S
In312 O324 2.326 . S
O313 In312 2.294 . S
O313 C322 1.240 . S
O314 In312 2.326 . S
O314 C322 1.252 . S
C315 O318 1.252 . S
C315 O319 1.260 . S
C316 O323 1.240 . S
C316 O324 1.252 . S
C317 O320 1.252 . S
C317 O321 1.260 . S
O318 In312 2.266 . S
O318 C315 1.252 . S
O319 In312 2.326 . S
O319 C315 1.260 . S
O320 In312 2.266 . S
O320 C317 1.252 . S
O321 In312 2.326 . S
O321 C317 1.260 . S
C322 O313 1.240 . S
C322 O314 1.252 . S
O323 In312 2.294 . S
O323 C316 1.240 . S
O324 In312 2.326 . S
O324 C316 1.252 . S
In325 O326 2.294 . S
In325 O327 2.326 . S
In325 O331 2.266 . S
In325 O332 2.326 . S
In325 O333 2.266 . S
In325 O334 2.326 . S
In325 O336 2.294 . S
In325 O337 2.326 . S
O326 In325 2.294 . S
O326 C335 1.240 . S
O327 In325 2.326 . S
O327 C335 1.252 . S
C328 O331 1.252 . S
C328 O332 1.260 . S
C329 O336 1.240 . S
C329 O337 1.252 . S
C330 O333 1.252 . S
C330 O334 1.260 . S
O331 In325 2.266 . S
O331 C328 1.252 . S
O332 In325 2.326 . S
O332 C328 1.260 . S
O333 In325 2.266 . S
O333 C330 1.252 . S
O334 In325 2.326 . S
O334 C330 1.260 . S
C335 O326 1.240 . S
C335 O327 1.252 . S
O336 In325 2.294 . S
O336 C329 1.240 . S
O337 In325 2.326 . S
O337 C329 1.252 . S
In338 O339 2.294 . S
In338 O340 2.326 . S
In338 O344 2.266 . S
In338 O345 2.326 . S
In338 O346 2.266 . S
In338 O347 2.326 . S
In338 O349 2.294 . S
In338 O350 2.326 . S
O339 In338 2.294 . S
O339 C348 1.240 . S
O340 In338 2.326 . S
O340 C348 1.252 . S
C341 O344 1.252 . S
C341 O345 1.260 . S
C342 O349 1.240 . S
C342 O350 1.252 . S
C343 O346 1.252 . S
C343 O347 1.260 . S
O344 In338 2.266 . S
O344 C341 1.252 . S
O345 In338 2.326 . S
O345 C341 1.260 . S
O346 In338 2.266 . S
O346 C343 1.252 . S
O347 In338 2.326 . S
O347 C343 1.260 . S
C348 O339 1.240 . S
C348 O340 1.252 . S
O349 In338 2.294 . S
O349 C342 1.240 . S
O350 In338 2.326 . S
O350 C342 1.252 . S
In351 O352 2.294 . S
In351 O353 2.326 . S
In351 O357 2.266 . S
In351 O358 2.326 . S
In351 O359 2.266 . S
In351 O360 2.326 . S
In351 O362 2.294 . S
In351 O363 2.326 . S
O352 In351 2.294 . S
O352 C361 1.240 . S
O353 In351 2.326 . S
O353 C361 1.252 . S
C354 O357 1.252 . S
C354 O358 1.260 . S
C355 O362 1.240 . S
C355 O363 1.252 . S
C356 O359 1.252 . S
C356 O360 1.260 . S
O357 In351 2.266 . S
O357 C354 1.252 . S
O358 In351 2.326 . S
O358 C354 1.260 . S
O359 In351 2.266 . S
O359 C356 1.252 . S
O360 In351 2.326 . S
O360 C356 1.260 . S
C361 O352 1.240 . S
C361 O353 1.252 . S
O362 In351 2.294 . S
O362 C355 1.240 . S
O363 In351 2.326 . S
O363 C355 1.252 . S
In364 O365 2.294 . S
In364 O366 2.326 . S
In364 O370 2.266 . S
In364 O371 2.326 . S
In364 O372 2.266 . S
In364 O373 2.326 . S
In364 O375 2.294 . S
In364 O376 2.326 . S
O365 In364 2.294 . S
O365 C374 1.240 . S
O366 In364 2.326 . S
O366 C374 1.252 . S
C367 O370 1.252 . S
C367 O371 1.260 . S
C368 O375 1.240 . S
C368 O376 1.252 . S
C369 O372 1.252 . S
C369 O373 1.260 . S
O370 In364 2.266 . S
O370 C367 1.252 . S
O371 In364 2.326 . S
O371 C367 1.260 . S
O372 In364 2.266 . S
O372 C369 1.252 . S
O373 In364 2.326 . S
O373 C369 1.260 . S
C374 O365 1.240 . S
C374 O366 1.252 . S
O375 In364 2.294 . S
O375 C368 1.240 . S
O376 In364 2.326 . S
O376 C368 1.252 . S
In377 O378 2.294 . S
In377 O379 2.326 . S
In377 O383 2.266 . S
In377 O384 2.326 . S
In377 O385 2.266 . S
In377 O386 2.326 . S
In377 O388 2.294 . S
In377 O389 2.326 . S
O378 In377 2.294 . S
O378 C387 1.240 . S
O379 In377 2.326 . S
O379 C387 1.252 . S
C380 O383 1.252 . S
C380 O384 1.260 . S
C381 O388 1.240 . S
C381 O389 1.252 . S
C382 O385 1.252 . S
C382 O386 1.260 . S
O383 In377 2.266 . S
O383 C380 1.252 . S
O384 In377 2.326 . S
O384 C380 1.260 . S
O385 In377 2.266 . S
O385 C382 1.252 . S
O386 In377 2.326 . S
O386 C382 1.260 . S
C387 O378 1.240 . S
C387 O379 1.252 . S
O388 In377 2.294 . S
O388 C381 1.240 . S
O389 In377 2.326 . S
O389 C381 1.252 . S
In390 O391 2.294 . S
In390 O392 2.326 . S
In390 O396 2.266 . S
In390 O397 2.326 . S
In390 O398 2.266 . S
In390 O399 2.326 . S
In390 O401 2.294 . S
In390 O402 2.326 . S
O391 In390 2.294 . S
O391 C400 1.240 . S
O392 In390 2.326 . S
O392 C400 1.252 . S
C393 O396 1.252 . S
C393 O397 1.260 . S
C394 O401 1.240 . S
C394 O402 1.252 . S
C395 O398 1.252 . S
C395 O399 1.260 . S
O396 In390 2.266 . S
O396 C393 1.252 . S
O397 In390 2.326 . S
O397 C393 1.260 . S
O398 In390 2.266 . S
O398 C395 1.252 . S
O399 In390 2.326 . S
O399 C395 1.260 . S
C400 O391 1.240 . S
C400 O392 1.252 . S
O401 In390 2.294 . S
O401 C394 1.240 . S
O402 In390 2.326 . S
O402 C394 1.252 . S
In403 O404 2.294 . S
In403 O405 2.326 . S
In403 O409 2.266 . S
In403 O410 2.326 . S
In403 O411 2.266 . S
In403 O412 2.326 . S
In403 O414 2.294 . S
In403 O415 2.326 . S
O404 In403 2.294 . S
O404 C413 1.240 . S
O405 In403 2.326 . S
O405 C413 1.252 . S
C406 O409 1.252 . S
C406 O410 1.260 . S
C407 O414 1.240 . S
C407 O415 1.252 . S
C408 O411 1.252 . S
C408 O412 1.260 . S
O409 In403 2.266 . S
O409 C406 1.252 . S
O410 In403 2.326 . S
O410 C406 1.260 . S
O411 In403 2.266 . S
O411 C408 1.252 . S
O412 In403 2.326 . S
O412 C408 1.260 . S
C413 O404 1.240 . S
C413 O405 1.252 . S
O414 In403 2.294 . S
O414 C407 1.240 . S
O415 In403 2.326 . S
O415 C407 1.252 . S
C416 C417 1.391 . S
C416 C418 1.394 . S
C416 H432 0.931 . S
C417 C416 1.391 . S
C417 C421 1.376 . S
C418 C416 1.394 . S
C418 C419 1.369 . S
C418 C422 1.531 . S
C419 C418 1.369 . S
C419 C420 1.410 1_565 S
C419 C427 1.503 1_565 S
C420 C419 1.410 1_545 S
C420 C421 1.392 1_545 S
C420 C423 1.511 . S
C421 C417 1.376 . S
C421 C420 1.392 1_565 S
C421 H433 0.929 . S
C422 C418 1.531 . S
C422 H434 0.960 . S
C422 H435 0.962 . S
C422 H436 0.960 . S
C423 C420 1.511 . S
C423 H437 0.961 . S
C423 H438 0.961 . S
C423 H439 0.961 . S
C424 C425 1.370 . S
C424 C426 1.363 1_545 S
C424 H440 0.931 1_545 S
C425 C424 1.370 . S
C425 C429 1.408 . S
C426 C424 1.363 1_565 S
C426 C427 1.370 1_565 S
C426 C430 1.524 . S
C427 C419 1.503 1_545 S
C427 C426 1.370 1_545 S
C427 C428 1.403 . S
C428 C427 1.403 . S
C428 C429 1.404 . S
C428 C431 1.539 . S
C429 C425 1.408 . S
C429 C428 1.404 . S
C429 H441 0.930 . S
C430 C426 1.524 . S
C430 H442 0.956 . S
C430 H443 0.961 . S
C430 H444 0.961 . S
C431 C428 1.539 . S
C431 H445 0.958 . S
C431 H446 0.961 . S
C431 H447 0.960 . S
H432 C416 0.931 . S
H433 C421 0.929 . S
H434 C422 0.960 . S
H435 C422 0.962 . S
H436 C422 0.960 . S
H437 C423 0.961 . S
H438 C423 0.961 . S
H439 C423 0.961 . S
H440 C424 0.931 1_565 S
H441 C429 0.930 . S
H442 C430 0.956 . S
H443 C430 0.961 . S
H444 C430 0.961 . S
H445 C431 0.958 . S
H446 C431 0.961 . S
H447 C431 0.960 . S
C448 C449 1.391 . S
C448 C450 1.394 . S
C448 H464 0.931 . S
C449 C448 1.391 . S
C449 C453 1.376 . S
C450 C448 1.394 . S
C450 C451 1.369 . S
C450 C454 1.531 . S
C451 C450 1.369 . S
C451 C452 1.410 . S
C451 C459 1.503 . S
C452 C451 1.410 . S
C452 C453 1.392 . S
C452 C455 1.511 . S
C453 C449 1.376 . S
C453 C452 1.392 . S
C453 H465 0.929 . S
C454 C450 1.531 . S
C454 H466 0.960 . S
C454 H467 0.962 . S
C454 H468 0.960 . S
C455 C452 1.511 . S
C455 H469 0.961 . S
C455 H470 0.961 . S
C455 H471 0.961 . S
C456 C457 1.370 . S
C456 C458 1.363 . S
C456 H472 0.931 . S
C457 C456 1.370 . S
C457 C461 1.408 . S
C458 C456 1.363 . S
C458 C459 1.370 . S
C458 C462 1.524 . S
C459 C451 1.503 . S
C459 C458 1.370 . S
C459 C460 1.403 . S
C460 C459 1.403 . S
C460 C461 1.404 . S
C460 C463 1.539 . S
C461 C457 1.408 . S
C461 C460 1.404 . S
C461 H473 0.930 . S
C462 C458 1.524 . S
C462 H474 0.956 . S
C462 H475 0.961 . S
C462 H476 0.961 . S
C463 C460 1.539 . S
C463 H477 0.958 . S
C463 H478 0.961 . S
C463 H479 0.960 . S
H464 C448 0.931 . S
H465 C453 0.929 . S
H466 C454 0.960 . S
H467 C454 0.962 . S
H468 C454 0.960 . S
H469 C455 0.961 . S
H470 C455 0.961 . S
H471 C455 0.961 . S
H472 C456 0.931 . S
H473 C461 0.930 . S
H474 C462 0.956 . S
H475 C462 0.961 . S
H476 C462 0.961 . S
H477 C463 0.958 . S
H478 C463 0.961 . S
H479 C463 0.960 . S
C480 C481 1.391 . S
C480 C482 1.394 1_545 S
C480 H496 0.931 . S
C481 C480 1.391 . S
C481 C485 1.376 . S
C482 C480 1.394 1_565 S
C482 C483 1.369 1_565 S
C482 C486 1.531 . S
C483 C482 1.369 1_545 S
C483 C484 1.410 . S
C483 C491 1.503 1_545 S
C484 C483 1.410 . S
C484 C485 1.392 . S
C484 C487 1.511 . S
C485 C481 1.376 . S
C485 C484 1.392 . S
C485 H497 0.929 . S
C486 C482 1.531 . S
C486 H498 0.960 . S
C486 H499 0.962 . S
C486 H500 0.960 . S
C487 C484 1.511 . S
C487 H501 0.961 . S
C487 H502 0.961 . S
C487 H503 0.961 . S
C488 C489 1.370 . S
C488 C490 1.363 1_565 S
C488 H504 0.931 1_565 S
C489 C488 1.370 . S
C489 C493 1.408 . S
C490 C488 1.363 1_545 S
C490 C491 1.370 1_545 S
C490 C494 1.524 . S
C491 C483 1.503 1_565 S
C491 C490 1.370 1_565 S
C491 C492 1.403 . S
C492 C491 1.403 . S
C492 C493 1.404 . S
C492 C495 1.539 . S
C493 C489 1.408 . S
C493 C492 1.404 . S
C493 H505 0.930 . S
C494 C490 1.524 . S
C494 H506 0.956 . S
C494 H507 0.961 . S
C494 H508 0.961 . S
C495 C492 1.539 . S
C495 H509 0.958 . S
C495 H510 0.961 . S
C495 H511 0.960 . S
H496 C480 0.931 . S
H497 C485 0.929 . S
H498 C486 0.960 . S
H499 C486 0.962 . S
H500 C486 0.960 . S
H501 C487 0.961 . S
H502 C487 0.961 . S
H503 C487 0.961 . S
H504 C488 0.931 1_545 S
H505 C493 0.930 . S
H506 C494 0.956 . S
H507 C494 0.961 . S
H508 C494 0.961 . S
H509 C495 0.958 . S
H510 C495 0.961 . S
H511 C495 0.960 . S
C512 C513 1.391 . S
C512 C514 1.394 . S
C512 H528 0.931 . S
C513 C512 1.391 . S
C513 C517 1.376 . S
C514 C512 1.394 . S
C514 C515 1.369 . S
C514 C518 1.531 . S
C515 C514 1.369 . S
C515 C516 1.410 . S
C515 C523 1.503 1_556 S
C516 C515 1.410 . S
C516 C517 1.392 . S
C516 C519 1.511 1_556 S
C517 C513 1.376 . S
C517 C516 1.392 . S
C517 H529 0.929 . S
C518 C514 1.531 . S
C518 H530 0.960 . S
C518 H531 0.962 . S
C518 H532 0.960 . S
C519 C516 1.511 1_554 S
C519 H533 0.958 1_554 S
C519 H534 0.961 . S
C519 H535 0.961 . S
C520 C521 1.370 . S
C520 C522 1.363 . S
C520 H536 0.931 . S
C521 C520 1.370 . S
C521 C525 1.408 . S
C522 C520 1.363 . S
C522 C523 1.370 . S
C522 C526 1.524 . S
C523 C515 1.503 1_554 S
C523 C522 1.370 . S
C523 C524 1.403 . S
C524 C523 1.403 . S
C524 C525 1.404 . S
C524 C527 1.539 . S
C525 C521 1.408 . S
C525 C524 1.404 . S
C525 H537 0.930 . S
C526 C522 1.524 . S
C526 H538 0.956 . S
C526 H539 0.961 . S
C526 H540 0.961 . S
C527 C524 1.539 . S
C527 H541 0.958 1_554 S
C527 H542 0.961 . S
C527 H543 0.960 1_554 S
H528 C512 0.931 . S
H529 C517 0.929 . S
H530 C518 0.960 . S
H531 C518 0.962 . S
H532 C518 0.960 . S
H533 C519 0.958 1_556 S
H534 C519 0.961 . S
H535 C519 0.961 . S
H536 C520 0.931 . S
H537 C525 0.930 . S
H538 C526 0.956 . S
H539 C526 0.961 . S
H540 C526 0.961 . S
H541 C527 0.958 1_556 S
H542 C527 0.961 . S
H543 C527 0.960 1_556 S
C544 C545 1.391 . S
C544 C546 1.394 . S
C544 H560 0.931 . S
C545 C544 1.391 . S
C545 C549 1.376 . S
C546 C544 1.394 . S
C546 C547 1.372 . S
C546 C550 1.531 1_565 S
C547 C546 1.372 . S
C547 C548 1.415 . S
C547 C555 1.496 1_565 S
C548 C547 1.415 . S
C548 C549 1.392 . S
C548 C551 1.511 . S
C549 C545 1.376 . S
C549 C548 1.392 . S
C549 H561 0.929 . S
C550 C546 1.531 1_545 S
C550 H562 0.960 . S
C550 H563 0.962 1_545 S
C550 H564 0.960 . S
C551 C548 1.511 . S
C551 H565 0.961 . S
C551 H566 0.961 . S
C551 H567 0.961 1_565 S
C552 C553 1.370 . S
C552 C554 1.363 1_545 S
C552 H568 0.931 1_545 S
C553 C552 1.370 . S
C553 C557 1.408 . S
C554 C552 1.363 1_565 S
C554 C555 1.370 1_565 S
C554 C558 1.524 . S
C555 C547 1.496 1_545 S
C555 C554 1.370 1_545 S
C555 C556 1.403 . S
C556 C555 1.403 . S
C556 C557 1.404 . S
C556 C559 1.539 . S
C557 C553 1.408 . S
C557 C556 1.404 . S
C557 H569 0.930 . S
C558 C554 1.524 . S
C558 H570 0.956 . S
C558 H571 0.961 . S
C558 H572 0.961 . S
C559 C556 1.539 . S
C559 H573 0.958 . S
C559 H574 0.961 . S
C559 H575 0.960 . S
H560 C544 0.931 . S
H561 C549 0.929 . S
H562 C550 0.960 . S
H563 C550 0.962 1_565 S
H564 C550 0.960 . S
H565 C551 0.961 . S
H566 C551 0.961 . S
H567 C551 0.961 1_545 S
H568 C552 0.931 1_565 S
H569 C557 0.930 . S
H570 C558 0.956 . S
H571 C558 0.961 . S
H572 C558 0.961 . S
H573 C559 0.958 . S
H574 C559 0.961 . S
H575 C559 0.960 . S
C576 C577 1.391 . S
C576 C578 1.394 . S
C576 H592 0.931 . S
C577 C576 1.391 . S
C577 C581 1.376 . S
C578 C576 1.394 . S
C578 C579 1.369 . S
C578 C582 1.531 . S
C579 C578 1.369 . S
C579 C580 1.410 . S
C579 C587 1.503 . S
C580 C579 1.410 . S
C580 C581 1.392 . S
C580 C583 1.511 . S
C581 C577 1.376 . S
C581 C580 1.392 . S
C581 H593 0.929 . S
C582 C578 1.531 . S
C582 H594 0.960 . S
C582 H595 0.962 . S
C582 H596 0.960 . S
C583 C580 1.511 . S
C583 H597 0.961 . S
C583 H598 0.961 . S
C583 H599 0.961 . S
C584 C585 1.370 . S
C584 C586 1.363 . S
C584 H600 0.931 . S
C585 C584 1.370 . S
C585 C589 1.408 . S
C586 C584 1.363 . S
C586 C587 1.370 . S
C586 C590 1.524 . S
C587 C579 1.503 . S
C587 C586 1.370 . S
C587 C588 1.403 . S
C588 C587 1.403 . S
C588 C589 1.404 . S
C588 C591 1.539 . S
C589 C585 1.408 . S
C589 C588 1.404 . S
C589 H601 0.930 . S
C590 C586 1.524 . S
C590 H602 0.956 . S
C590 H603 0.961 . S
C590 H604 0.961 . S
C591 C588 1.539 . S
C591 H605 0.958 . S
C591 H606 0.961 . S
C591 H607 0.960 . S
H592 C576 0.931 . S
H593 C581 0.929 . S
H594 C582 0.960 . S
H595 C582 0.962 . S
H596 C582 0.960 . S
H597 C583 0.961 . S
H598 C583 0.961 . S
H599 C583 0.961 . S
H600 C584 0.931 . S
H601 C589 0.930 . S
H602 C590 0.956 . S
H603 C590 0.961 . S
H604 C590 0.961 . S
H605 C591 0.958 . S
H606 C591 0.961 . S
H607 C591 0.960 . S
C608 C609 1.391 . S
C608 C610 1.394 1_545 S
C608 H624 0.931 . S
C609 C608 1.391 . S
C609 C613 1.376 . S
C610 C608 1.394 1_565 S
C610 C611 1.369 1_565 S
C610 C614 1.531 . S
C611 C610 1.369 1_545 S
C611 C612 1.410 . S
C611 C619 1.503 1_545 S
C612 C611 1.410 . S
C612 C613 1.392 . S
C612 C615 1.511 . S
C613 C609 1.376 . S
C613 C612 1.392 . S
C613 H625 0.929 . S
C614 C610 1.531 . S
C614 H626 0.960 . S
C614 H627 0.962 . S
C614 H628 0.960 . S
C615 C612 1.511 . S
C615 H629 0.961 . S
C615 H630 0.961 . S
C615 H631 0.961 . S
C616 C617 1.370 . S
C616 C618 1.363 1_565 S
C616 H632 0.929 1_565 S
C617 C616 1.370 . S
C617 C621 1.408 . S
C618 C616 1.363 1_545 S
C618 C619 1.370 1_545 S
C618 C622 1.524 . S
C619 C611 1.503 1_565 S
C619 C618 1.370 1_565 S
C619 C620 1.403 . S
C620 C619 1.403 . S
C620 C621 1.404 . S
C620 C623 1.539 . S
C621 C617 1.408 . S
C621 C620 1.404 . S
C621 H633 0.930 . S
C622 C618 1.524 . S
C622 H634 0.956 . S
C622 H635 0.961 . S
C622 H636 0.961 . S
C623 C620 1.539 . S
C623 H637 0.958 . S
C623 H638 0.961 . S
C623 H639 0.960 . S
H624 C608 0.931 . S
H625 C613 0.929 . S
H626 C614 0.960 . S
H627 C614 0.962 . S
H628 C614 0.960 . S
H629 C615 0.961 . S
H630 C615 0.961 . S
H631 C615 0.961 . S
H632 C616 0.929 1_545 S
H633 C621 0.930 . S
H634 C622 0.956 . S
H635 C622 0.961 . S
H636 C622 0.961 . S
H637 C623 0.958 . S
H638 C623 0.961 . S
H639 C623 0.960 . S
C640 C641 1.391 . S
C640 C642 1.394 . S
C640 H656 0.931 . S
C641 C640 1.391 . S
C641 C645 1.376 . S
C642 C640 1.394 . S
C642 C643 1.369 . S
C642 C646 1.531 1_556 S
C643 C642 1.369 . S
C643 C644 1.410 . S
C643 C651 1.503 1_556 S
C644 C643 1.410 . S
C644 C645 1.392 . S
C644 C647 1.511 . S
C645 C641 1.376 . S
C645 C644 1.392 . S
C645 H657 0.929 . S
C646 C642 1.531 1_554 S
C646 H658 0.960 . S
C646 H659 0.962 . S
C646 H660 0.960 1_554 S
C647 C644 1.511 . S
C647 H661 0.961 . S
C647 H662 0.961 . S
C647 H663 0.961 . S
C648 C649 1.370 . S
C648 C650 1.363 . S
C648 H664 0.931 . S
C649 C648 1.370 . S
C649 C653 1.408 . S
C650 C648 1.363 . S
C650 C651 1.370 . S
C650 C654 1.524 . S
C651 C643 1.503 1_554 S
C651 C650 1.370 . S
C651 C652 1.403 . S
C652 C651 1.403 . S
C652 C653 1.404 . S
C652 C655 1.539 . S
C653 C649 1.408 . S
C653 C652 1.404 . S
C653 H665 0.930 . S
C654 C650 1.524 . S
C654 H666 0.956 . S
C654 H667 0.961 . S
C654 H668 0.961 . S
C655 C652 1.539 . S
C655 H669 0.958 . S
C655 H670 0.961 . S
C655 H671 0.960 1_554 S
H656 C640 0.931 . S
H657 C645 0.929 . S
H658 C646 0.960 . S
H659 C646 0.962 . S
H660 C646 0.960 1_556 S
H661 C647 0.961 . S
H662 C647 0.961 . S
H663 C647 0.961 . S
H664 C648 0.931 . S
H665 C653 0.930 . S
H666 C654 0.956 . S
H667 C654 0.961 . S
H668 C654 0.961 . S
H669 C655 0.958 . S
H670 C655 0.961 . S
H671 C655 0.960 1_556 S
C672 C673 1.391 . S
C672 C674 1.394 . S
C672 H688 0.931 . S
C673 C672 1.391 . S
C673 C677 1.376 . S
C674 C672 1.394 . S
C674 C675 1.369 . S
C674 C678 1.531 . S
C675 C674 1.369 . S
C675 C676 1.410 . S
C675 C683 1.503 . S
C676 C675 1.410 . S
C676 C677 1.392 . S
C676 C679 1.511 . S
C677 C673 1.376 . S
C677 C676 1.392 . S
C677 H689 0.929 . S
C678 C674 1.531 . S
C678 H690 0.960 . S
C678 H691 0.962 . S
C678 H692 0.960 . S
C679 C676 1.511 . S
C679 H693 0.961 . S
C679 H694 0.961 . S
C679 H695 0.961 . S
C680 C681 1.370 . S
C680 C682 1.363 . S
C680 H696 0.931 . S
C681 C680 1.370 . S
C681 C685 1.408 . S
C682 C680 1.363 . S
C682 C683 1.370 . S
C682 C686 1.524 . S
C683 C675 1.503 . S
C683 C682 1.370 . S
C683 C684 1.403 . S
C684 C683 1.403 . S
C684 C685 1.404 . S
C684 C687 1.539 . S
C685 C681 1.408 . S
C685 C684 1.404 . S
C685 H697 0.930 . S
C686 C682 1.524 . S
C686 H698 0.956 . S
C686 H699 0.961 . S
C686 H700 0.961 . S
C687 C684 1.539 . S
C687 H701 0.958 . S
C687 H702 0.961 . S
C687 H703 0.960 . S
H688 C672 0.931 . S
H689 C677 0.929 . S
H690 C678 0.960 . S
H691 C678 0.962 . S
H692 C678 0.960 . S
H693 C679 0.961 . S
H694 C679 0.961 . S
H695 C679 0.961 . S
H696 C680 0.931 . S
H697 C685 0.930 . S
H698 C686 0.956 . S
H699 C686 0.961 . S
H700 C686 0.961 . S
H701 C687 0.958 . S
H702 C687 0.961 . S
H703 C687 0.960 . S
C704 C705 1.391 . S
C704 C706 1.394 . S
C704 H720 0.931 . S
C705 C704 1.391 . S
C705 C709 1.376 . S
C706 C704 1.394 . S
C706 C707 1.369 . S
C706 C710 1.531 . S
C707 C706 1.369 . S
C707 C708 1.410 . S
C707 C715 1.503 1_554 S
C708 C707 1.410 . S
C708 C709 1.392 . S
C708 C711 1.511 . S
C709 C705 1.376 . S
C709 C708 1.392 . S
C709 H721 0.929 . S
C710 C706 1.531 . S
C710 H722 0.960 . S
C710 H723 0.962 . S
C710 H724 0.960 . S
C711 C708 1.511 . S
C711 H725 0.961 . S
C711 H726 0.961 1_554 S
C711 H727 0.961 . S
C712 C713 1.370 . S
C712 C714 1.363 . S
C712 H728 0.931 . S
C713 C712 1.370 . S
C713 C717 1.408 . S
C714 C712 1.363 . S
C714 C715 1.370 . S
C714 C718 1.524 . S
C715 C707 1.503 1_556 S
C715 C714 1.370 . S
C715 C716 1.403 . S
C716 C715 1.403 . S
C716 C717 1.404 . S
C716 C719 1.539 1_556 S
C717 C713 1.408 . S
C717 C716 1.404 . S
C717 H729 0.930 . S
C718 C714 1.524 . S
C718 H730 0.956 . S
C718 H731 0.961 . S
C718 H732 0.961 . S
C719 C716 1.539 1_554 S
C719 H733 0.958 . S
C719 H734 0.959 1_554 S
C719 H735 0.960 . S
H720 C704 0.931 . S
H721 C709 0.929 . S
H722 C710 0.960 . S
H723 C710 0.962 . S
H724 C710 0.960 . S
H725 C711 0.961 . S
H726 C711 0.961 1_556 S
H727 C711 0.961 . S
H728 C712 0.931 . S
H729 C717 0.930 . S
H730 C718 0.956 . S
H731 C718 0.961 . S
H732 C718 0.961 . S
H733 C719 0.958 . S
H734 C719 0.959 1_556 S
H735 C719 0.960 . S
C736 C737 1.391 . S
C736 C738 1.394 . S
C736 H752 0.931 . S
C737 C736 1.391 . S
C737 C741 1.376 . S
C738 C736 1.394 . S
C738 C739 1.369 . S
C738 C742 1.531 . S
C739 C738 1.369 . S
C739 C740 1.410 . S
C739 C747 1.503 . S
C740 C739 1.410 . S
C740 C741 1.392 . S
C740 C743 1.511 . S
C741 C737 1.376 . S
C741 C740 1.392 . S
C741 H753 0.929 . S
C742 C738 1.531 . S
C742 H754 0.960 . S
C742 H755 0.962 . S
C742 H756 0.960 . S
C743 C740 1.511 . S
C743 H757 0.961 . S
C743 H758 0.961 . S
C743 H759 0.961 . S
C744 C745 1.370 . S
C744 C746 1.363 . S
C744 H760 0.931 . S
C745 C744 1.370 . S
C745 C749 1.408 . S
C746 C744 1.363 . S
C746 C747 1.370 . S
C746 C750 1.524 . S
C747 C739 1.503 . S
C747 C746 1.370 . S
C747 C748 1.403 . S
C748 C747 1.403 . S
C748 C749 1.404 . S
C748 C751 1.539 . S
C749 C745 1.408 . S
C749 C748 1.404 . S
C749 H761 0.930 . S
C750 C746 1.524 . S
C750 H762 0.956 . S
C750 H763 0.961 . S
C750 H764 0.961 . S
C751 C748 1.539 . S
C751 H765 0.958 . S
C751 H766 0.961 . S
C751 H767 0.960 . S
H752 C736 0.931 . S
H753 C741 0.929 . S
H754 C742 0.960 . S
H755 C742 0.962 . S
H756 C742 0.960 . S
H757 C743 0.961 . S
H758 C743 0.961 . S
H759 C743 0.961 . S
H760 C744 0.931 . S
H761 C749 0.930 . S
H762 C750 0.956 . S
H763 C750 0.961 . S
H764 C750 0.961 . S
H765 C751 0.958 . S
H766 C751 0.961 . S
H767 C751 0.960 . S
C768 C769 1.391 . S
C768 C770 1.394 . S
C768 H784 0.931 . S
C769 C768 1.391 . S
C769 C773 1.376 . S
C770 C768 1.394 . S
C770 C771 1.369 . S
C770 C774 1.531 . S
C771 C770 1.369 . S
C771 C772 1.410 . S
C771 C779 1.503 . S
C772 C771 1.410 . S
C772 C773 1.392 . S
C772 C775 1.511 . S
C773 C769 1.376 . S
C773 C772 1.392 . S
C773 H785 0.929 . S
C774 C770 1.531 . S
C774 H786 0.960 . S
C774 H787 0.962 . S
C774 H788 0.960 . S
C775 C772 1.511 . S
C775 H789 0.961 . S
C775 H790 0.961 . S
C775 H791 0.961 . S
C776 C777 1.370 . S
C776 C778 1.363 . S
C776 H792 0.931 . S
C777 C776 1.370 . S
C777 C781 1.408 . S
C778 C776 1.363 . S
C778 C779 1.370 . S
C778 C782 1.524 . S
C779 C771 1.503 . S
C779 C778 1.370 . S
C779 C780 1.403 . S
C780 C779 1.403 . S
C780 C781 1.404 . S
C780 C783 1.539 . S
C781 C777 1.408 . S
C781 C780 1.404 . S
C781 H793 0.930 . S
C782 C778 1.524 . S
C782 H794 0.956 . S
C782 H795 0.961 . S
C782 H796 0.961 . S
C783 C780 1.539 . S
C783 H797 0.958 . S
C783 H798 0.961 . S
C783 H799 0.960 . S
H784 C768 0.931 . S
H785 C773 0.929 . S
H786 C774 0.960 . S
H787 C774 0.962 . S
H788 C774 0.960 . S
H789 C775 0.961 . S
H790 C775 0.961 . S
H791 C775 0.961 . S
H792 C776 0.931 . S
H793 C781 0.930 . S
H794 C782 0.956 . S
H795 C782 0.961 . S
H796 C782 0.961 . S
H797 C783 0.958 . S
H798 C783 0.961 . S
H799 C783 0.960 . S
C800 C801 1.391 . S
C800 C802 1.394 . S
C800 H816 0.931 . S
C801 C800 1.391 . S
C801 C805 1.376 . S
C802 C800 1.394 . S
C802 C803 1.369 . S
C802 C806 1.531 . S
C803 C802 1.369 . S
C803 C804 1.410 . S
C803 C811 1.503 . S
C804 C803 1.410 . S
C804 C805 1.392 . S
C804 C807 1.511 . S
C805 C801 1.376 . S
C805 C804 1.392 . S
C805 H817 0.929 . S
C806 C802 1.531 . S
C806 H818 0.960 . S
C806 H819 0.962 . S
C806 H820 0.960 . S
C807 C804 1.511 . S
C807 H821 0.961 . S
C807 H822 0.961 . S
C807 H823 0.961 . S
C808 C809 1.370 . S
C808 C810 1.363 . S
C808 H824 0.931 . S
C809 C808 1.370 . S
C809 C813 1.408 . S
C810 C808 1.363 . S
C810 C811 1.370 . S
C810 C814 1.524 . S
C811 C803 1.503 . S
C811 C810 1.370 . S
C811 C812 1.403 . S
C812 C811 1.403 . S
C812 C813 1.404 . S
C812 C815 1.539 . S
C813 C809 1.408 . S
C813 C812 1.404 . S
C813 H825 0.930 . S
C814 C810 1.524 . S
C814 H826 0.956 . S
C814 H827 0.961 . S
C814 H828 0.961 . S
C815 C812 1.539 . S
C815 H829 0.958 . S
C815 H830 0.961 . S
C815 H831 0.960 . S
H816 C800 0.931 . S
H817 C805 0.929 . S
H818 C806 0.960 . S
H819 C806 0.962 . S
H820 C806 0.960 . S
H821 C807 0.961 . S
H822 C807 0.961 . S
H823 C807 0.961 . S
H824 C808 0.931 . S
H825 C813 0.930 . S
H826 C814 0.956 . S
H827 C814 0.961 . S
H828 C814 0.961 . S
H829 C815 0.958 . S
H830 C815 0.961 . S
H831 C815 0.960 . S
C832 C833 1.391 . S
C832 C834 1.394 . S
C832 H848 0.931 . S
C833 C832 1.391 . S
C833 C837 1.376 . S
C834 C832 1.394 . S
C834 C835 1.369 . S
C834 C838 1.531 . S
C835 C834 1.369 . S
C835 C836 1.410 . S
C835 C843 1.503 1_554 S
C836 C835 1.410 . S
C836 C837 1.392 . S
C836 C839 1.511 1_554 S
C837 C833 1.376 . S
C837 C836 1.392 . S
C837 H849 0.929 . S
C838 C834 1.531 . S
C838 H850 0.960 . S
C838 H851 0.962 . S
C838 H852 0.960 . S
C839 C836 1.511 1_556 S
C839 H853 0.961 1_556 S
C839 H854 0.961 . S
C839 H855 0.961 . S
C840 C841 1.370 . S
C840 C842 1.363 . S
C840 H856 0.931 . S
C841 C840 1.370 . S
C841 C845 1.408 . S
C842 C840 1.363 . S
C842 C843 1.370 . S
C842 C846 1.524 1_556 S
C843 C835 1.503 1_556 S
C843 C842 1.370 . S
C843 C844 1.403 . S
C844 C843 1.403 . S
C844 C845 1.404 . S
C844 C847 1.539 . S
C845 C841 1.408 . S
C845 C844 1.404 . S
C845 H857 0.930 . S
C846 C842 1.524 1_554 S
C846 H858 0.956 . S
C846 H859 0.961 . S
C846 H860 0.961 1_554 S
C847 C844 1.539 . S
C847 H861 0.958 . S
C847 H862 0.961 . S
C847 H863 0.960 . S
H848 C832 0.931 . S
H849 C837 0.929 . S
H850 C838 0.960 . S
H851 C838 0.962 . S
H852 C838 0.960 . S
H853 C839 0.961 1_554 S
H854 C839 0.961 . S
H855 C839 0.961 . S
H856 C840 0.931 . S
H857 C845 0.930 . S
H858 C846 0.956 . S
H859 C846 0.961 . S
H860 C846 0.961 1_556 S
H861 C847 0.958 . S
H862 C847 0.961 . S
H863 C847 0.960 . S
C864 C865 1.391 . S
C864 C866 1.394 . S
C864 H880 0.931 . S
C865 C864 1.391 . S
C865 C869 1.376 . S
C866 C864 1.394 . S
C866 C867 1.369 . S
C866 C870 1.531 . S
C867 C866 1.369 . S
C867 C868 1.410 . S
C867 C875 1.503 . S
C868 C867 1.410 . S
C868 C869 1.392 . S
C868 C871 1.511 . S
C869 C865 1.376 . S
C869 C868 1.392 . S
C869 H881 0.929 . S
C870 C866 1.531 . S
C870 H882 0.960 . S
C870 H883 0.962 . S
C870 H884 0.960 . S
C871 C868 1.511 . S
C871 H885 0.961 . S
C871 H886 0.961 . S
C871 H887 0.961 . S
C872 C873 1.370 . S
C872 C874 1.363 . S
C872 H888 0.931 . S
C873 C872 1.370 . S
C873 C877 1.408 . S
C874 C872 1.363 . S
C874 C875 1.370 . S
C874 C878 1.524 . S
C875 C867 1.503 . S
C875 C874 1.370 . S
C875 C876 1.403 . S
C876 C875 1.403 . S
C876 C877 1.404 . S
C876 C879 1.539 . S
C877 C873 1.408 . S
C877 C876 1.404 . S
C877 H889 0.930 . S
C878 C874 1.524 . S
C878 H890 0.956 . S
C878 H891 0.961 . S
C878 H892 0.961 . S
C879 C876 1.539 . S
C879 H893 0.958 . S
C879 H894 0.961 . S
C879 H895 0.960 . S
H880 C864 0.931 . S
H881 C869 0.929 . S
H882 C870 0.960 . S
H883 C870 0.962 . S
H884 C870 0.960 . S
H885 C871 0.961 . S
H886 C871 0.961 . S
H887 C871 0.961 . S
H888 C872 0.931 . S
H889 C877 0.930 . S
H890 C878 0.956 . S
H891 C878 0.961 . S
H892 C878 0.961 . S
H893 C879 0.958 . S
H894 C879 0.961 . S
H895 C879 0.960 . S
C896 C897 1.391 . S
C896 C898 1.394 . S
C896 H912 0.931 . S
C897 C896 1.391 . S
C897 C901 1.376 . S
C898 C896 1.394 . S
C898 C899 1.369 . S
C898 C902 1.531 . S
C899 C898 1.369 . S
C899 C900 1.410 . S
C899 C907 1.503 . S
C900 C899 1.410 . S
C900 C901 1.392 . S
C900 C903 1.511 . S
C901 C897 1.376 . S
C901 C900 1.392 . S
C901 H913 0.929 . S
C902 C898 1.531 . S
C902 H914 0.960 . S
C902 H915 0.962 . S
C902 H916 0.960 . S
C903 C900 1.511 . S
C903 H917 0.961 . S
C903 H918 0.961 . S
C903 H919 0.961 . S
C904 C905 1.370 . S
C904 C906 1.363 . S
C904 H920 0.931 . S
C905 C904 1.370 . S
C905 C909 1.408 . S
C906 C904 1.363 . S
C906 C907 1.370 . S
C906 C910 1.524 . S
C907 C899 1.503 . S
C907 C906 1.370 . S
C907 C908 1.403 . S
C908 C907 1.403 . S
C908 C909 1.404 . S
C908 C911 1.539 . S
C909 C905 1.408 . S
C909 C908 1.404 . S
C909 H921 0.930 . S
C910 C906 1.524 . S
C910 H922 0.956 . S
C910 H923 0.961 . S
C910 H924 0.961 . S
C911 C908 1.539 . S
C911 H925 0.958 . S
C911 H926 0.961 . S
C911 H927 0.960 . S
H912 C896 0.931 . S
H913 C901 0.929 . S
H914 C902 0.960 . S
H915 C902 0.962 . S
H916 C902 0.960 . S
H917 C903 0.961 . S
H918 C903 0.961 . S
H919 C903 0.961 . S
H920 C904 0.931 . S
H921 C909 0.930 . S
H922 C910 0.956 . S
H923 C910 0.961 . S
H924 C910 0.961 . S
H925 C911 0.958 . S
H926 C911 0.961 . S
H927 C911 0.960 . S
C928 C929 1.391 1_565 S
C928 C930 1.394 . S
C928 H944 0.931 . S
C929 C928 1.391 1_545 S
C929 C933 1.376 . S
C930 C928 1.394 . S
C930 C931 1.369 . S
C930 C934 1.531 . S
C931 C930 1.369 . S
C931 C932 1.410 . S
C931 C939 1.503 . S
C932 C931 1.410 . S
C932 C933 1.392 1_565 S
C932 C935 1.511 1_565 S
C933 C929 1.376 . S
C933 C932 1.392 1_545 S
C933 H945 0.929 . S
C934 C930 1.531 . S
C934 H946 0.960 . S
C934 H947 0.962 . S
C934 H948 0.960 . S
C935 C932 1.511 1_545 S
C935 H949 0.961 . S
C935 H950 0.961 1_545 S
C935 H951 0.961 . S
C936 C937 1.370 . S
C936 C938 1.363 . S
C936 H952 0.931 . S
C937 C936 1.370 . S
C937 C941 1.408 . S
C938 C936 1.363 . S
C938 C939 1.370 . S
C938 C942 1.524 . S
C939 C931 1.503 . S
C939 C938 1.370 . S
C939 C940 1.403 . S
C940 C939 1.403 . S
C940 C941 1.404 . S
C940 C943 1.539 . S
C941 C937 1.408 . S
C941 C940 1.404 . S
C941 H953 0.930 . S
C942 C938 1.524 . S
C942 H954 0.956 . S
C942 H955 0.961 . S
C942 H956 0.961 . S
C943 C940 1.539 . S
C943 H957 0.958 . S
C943 H958 0.961 . S
C943 H959 0.960 . S
H944 C928 0.931 . S
H945 C933 0.929 . S
H946 C934 0.960 . S
H947 C934 0.962 . S
H948 C934 0.960 . S
H949 C935 0.961 . S
H950 C935 0.961 1_565 S
H951 C935 0.961 . S
H952 C936 0.931 . S
H953 C941 0.930 . S
H954 C942 0.956 . S
H955 C942 0.961 . S
H956 C942 0.961 . S
H957 C943 0.958 . S
H958 C943 0.961 . S
H959 C943 0.960 . S
C960 C961 1.391 . S
C960 C962 1.394 . S
C960 H976 0.931 . S
C961 C960 1.391 . S
C961 C965 1.376 . S
C962 C960 1.394 . S
C962 C963 1.369 . S
C962 C966 1.531 . S
C963 C962 1.369 . S
C963 C964 1.410 . S
C963 C971 1.503 . S
C964 C963 1.410 . S
C964 C965 1.392 . S
C964 C967 1.511 . S
C965 C961 1.376 . S
C965 C964 1.392 . S
C965 H977 0.929 . S
C966 C962 1.531 . S
C966 H978 0.960 . S
C966 H979 0.962 . S
C966 H980 0.960 . S
C967 C964 1.511 . S
C967 H981 0.961 . S
C967 H982 0.961 . S
C967 H983 0.961 . S
C968 C969 1.370 . S
C968 C970 1.363 1_565 S
C968 H984 0.931 . S
C969 C968 1.370 . S
C969 C973 1.408 1_565 S
C970 C968 1.363 1_545 S
C970 C971 1.370 . S
C970 C974 1.524 1_545 S
C971 C963 1.503 . S
C971 C970 1.370 . S
C971 C972 1.403 . S
C972 C971 1.403 . S
C972 C973 1.404 . S
C972 C975 1.539 . S
C973 C969 1.408 1_545 S
C973 C972 1.404 . S
C973 H985 0.930 . S
C974 C970 1.524 1_565 S
C974 H986 0.956 1_565 S
C974 H987 0.961 1_565 S
C974 H988 0.961 . S
C975 C972 1.539 . S
C975 H989 0.958 . S
C975 H990 0.961 . S
C975 H991 0.960 . S
H976 C960 0.931 . S
H977 C965 0.929 . S
H978 C966 0.960 . S
H979 C966 0.962 . S
H980 C966 0.960 . S
H981 C967 0.961 . S
H982 C967 0.961 . S
H983 C967 0.961 . S
H984 C968 0.931 . S
H985 C973 0.930 . S
H986 C974 0.956 1_545 S
H987 C974 0.961 1_545 S
H988 C974 0.961 . S
H989 C975 0.958 . S
H990 C975 0.961 . S
H991 C975 0.960 . S
C992 C993 1.391 1_545 S
C992 C994 1.394 . S
C992 H1008 0.931 . S
C993 C992 1.391 1_565 S
C993 C997 1.376 . S
C994 C992 1.394 . S
C994 C995 1.369 . S
C994 C998 1.531 . S
C995 C994 1.369 . S
C995 C996 1.417 . S
C995 C1003 1.503 . S
C996 C995 1.417 . S
C996 C997 1.387 1_545 S
C996 C999 1.509 1_545 S
C997 C993 1.376 . S
C997 C996 1.387 1_565 S
C997 H1009 0.929 . S
C998 C994 1.531 . S
C998 H1010 0.960 . S
C998 H1011 0.962 . S
C998 H1012 0.960 . S
C999 C996 1.509 1_565 S
C999 H1013 0.961 . S
C999 H1014 0.961 1_565 S
C999 H1015 0.961 . S
C1000 C1001 1.370 . S
C1000 C1002 1.363 . S
C1000 H1016 0.931 . S
C1001 C1000 1.370 . S
C1001 C1005 1.408 . S
C1002 C1000 1.363 . S
C1002 C1003 1.370 . S
C1002 C1006 1.524 . S
C1003 C995 1.503 . S
C1003 C1002 1.370 . S
C1003 C1004 1.403 . S
C1004 C1003 1.403 . S
C1004 C1005 1.404 . S
C1004 C1007 1.539 . S
C1005 C1001 1.408 . S
C1005 C1004 1.404 . S
C1005 H1017 0.930 . S
C1006 C1002 1.524 . S
C1006 H1018 0.956 . S
C1006 H1019 0.961 . S
C1006 H1020 0.961 . S
C1007 C1004 1.539 . S
C1007 H1021 0.958 . S
C1007 H1022 0.961 . S
C1007 H1023 0.960 . S
H1008 C992 0.931 . S
H1009 C997 0.929 . S
H1010 C998 0.960 . S
H1011 C998 0.962 . S
H1012 C998 0.960 . S
H1013 C999 0.961 . S
H1014 C999 0.961 1_545 S
H1015 C999 0.961 . S
H1016 C1000 0.931 . S
H1017 C1005 0.930 . S
H1018 C1006 0.956 . S
H1019 C1006 0.961 . S
H1020 C1006 0.961 . S
H1021 C1007 0.958 . S
H1022 C1007 0.961 . S
H1023 C1007 0.960 . S
C1024 C1025 1.391 . S
C1024 C1026 1.392 . S
C1024 H1040 0.931 . S
C1025 C1024 1.391 . S
C1025 C1029 1.376 1_545 S
C1026 C1024 1.392 . S
C1026 C1027 1.372 1_545 S
C1026 C1030 1.530 . S
C1027 C1026 1.372 1_565 S
C1027 C1028 1.410 . S
C1027 C1035 1.503 . S
C1028 C1027 1.410 . S
C1028 C1029 1.392 . S
C1028 C1031 1.511 . S
C1029 C1025 1.376 1_565 S
C1029 C1028 1.392 . S
C1029 H1041 0.929 . S
C1030 C1026 1.530 . S
C1030 H1042 0.960 1_545 S
C1030 H1043 0.962 . S
C1030 H1044 0.960 . S
C1031 C1028 1.511 . S
C1031 H1045 0.961 . S
C1031 H1046 0.961 . S
C1031 H1047 0.961 . S
C1032 C1033 1.370 . S
C1032 C1034 1.363 . S
C1032 H1048 0.931 . S
C1033 C1032 1.370 . S
C1033 C1037 1.408 . S
C1034 C1032 1.363 . S
C1034 C1035 1.370 . S
C1034 C1038 1.524 . S
C1035 C1027 1.503 . S
C1035 C1034 1.370 . S
C1035 C1036 1.403 . S
C1036 C1035 1.403 . S
C1036 C1037 1.404 . S
C1036 C1039 1.539 . S
C1037 C1033 1.408 . S
C1037 C1036 1.404 . S
C1037 H1049 0.930 . S
C1038 C1034 1.524 . S
C1038 H1050 0.956 . S
C1038 H1051 0.961 . S
C1038 H1052 0.961 . S
C1039 C1036 1.539 . S
C1039 H1053 0.958 . S
C1039 H1054 0.961 . S
C1039 H1055 0.960 . S
H1040 C1024 0.931 . S
H1041 C1029 0.929 . S
H1042 C1030 0.960 1_565 S
H1043 C1030 0.962 . S
H1044 C1030 0.960 . S
H1045 C1031 0.961 . S
H1046 C1031 0.961 . S
H1047 C1031 0.961 . S
H1048 C1032 0.931 . S
H1049 C1037 0.930 . S
H1050 C1038 0.956 . S
H1051 C1038 0.961 . S
H1052 C1038 0.961 . S
H1053 C1039 0.958 . S
H1054 C1039 0.961 . S
H1055 C1039 0.960 . S
C1056 C1057 1.391 . S
C1056 C1058 1.394 . S
C1056 H1072 0.931 . S
C1057 C1056 1.391 . S
C1057 C1061 1.376 . S
C1058 C1056 1.394 . S
C1058 C1059 1.369 . S
C1058 C1062 1.531 . S
C1059 C1058 1.369 . S
C1059 C1060 1.410 . S
C1059 C1067 1.503 . S
C1060 C1059 1.410 . S
C1060 C1061 1.392 . S
C1060 C1063 1.511 . S
C1061 C1057 1.376 . S
C1061 C1060 1.392 . S
C1061 H1073 0.929 . S
C1062 C1058 1.531 . S
C1062 H1074 0.960 . S
C1062 H1075 0.962 . S
C1062 H1076 0.960 . S
C1063 C1060 1.511 . S
C1063 H1077 0.961 . S
C1063 H1078 0.961 . S
C1063 H1079 0.961 . S
C1064 C1065 1.370 . S
C1064 C1066 1.363 1_565 S
C1064 H1080 0.931 . S
C1065 C1064 1.370 . S
C1065 C1069 1.408 1_565 S
C1066 C1064 1.363 1_545 S
C1066 C1067 1.370 . S
C1066 C1070 1.524 1_545 S
C1067 C1059 1.503 . S
C1067 C1066 1.370 . S
C1067 C1068 1.403 . S
C1068 C1067 1.403 . S
C1068 C1069 1.404 . S
C1068 C1071 1.539 . S
C1069 C1065 1.408 1_545 S
C1069 C1068 1.404 . S
C1069 H1081 0.930 . S
C1070 C1066 1.524 1_565 S
C1070 H1082 0.949 1_565 S
C1070 H1083 0.961 1_565 S
C1070 H1084 0.961 . S
C1071 C1068 1.539 . S
C1071 H1085 0.958 . S
C1071 H1086 0.961 . S
C1071 H1087 0.960 . S
H1072 C1056 0.931 . S
H1073 C1061 0.929 . S
H1074 C1062 0.960 . S
H1075 C1062 0.962 . S
H1076 C1062 0.960 . S
H1077 C1063 0.961 . S
H1078 C1063 0.961 . S
H1079 C1063 0.961 . S
H1080 C1064 0.931 . S
H1081 C1069 0.930 . S
H1082 C1070 0.949 1_545 S
H1083 C1070 0.961 1_545 S
H1084 C1070 0.961 . S
H1085 C1071 0.958 . S
H1086 C1071 0.961 . S
H1087 C1071 0.960 . S
C1088 C1089 1.391 . S
C1088 C1090 1.394 1_545 S
C1088 H1104 0.931 . S
C1089 C1088 1.391 . S
C1089 C1093 1.376 . S
C1090 C1088 1.394 1_565 S
C1090 C1091 1.369 . S
C1090 C1094 1.531 . S
C1091 C1090 1.369 . S
C1091 C1092 1.410 . S
C1091 C1099 1.503 . S
C1092 C1091 1.410 . S
C1092 C1093 1.392 1_565 S
C1092 C1095 1.511 . S
C1093 C1089 1.376 . S
C1093 C1092 1.392 1_545 S
C1093 H1105 0.929 . S
C1094 C1090 1.531 . S
C1094 H1106 0.960 . S
C1094 H1107 0.962 . S
C1094 H1108 0.960 1_565 S
C1095 C1092 1.511 . S
C1095 H1109 0.961 . S
C1095 H1110 0.961 . S
C1095 H1111 0.961 . S
C1096 C1097 1.370 . S
C1096 C1098 1.363 . S
C1096 H1112 0.931 . S
C1097 C1096 1.370 . S
C1097 C1101 1.408 . S
C1098 C1096 1.363 . S
C1098 C1099 1.370 . S
C1098 C1102 1.524 . S
C1099 C1091 1.503 . S
C1099 C1098 1.370 . S
C1099 C1100 1.403 . S
C1100 C1099 1.403 . S
C1100 C1101 1.404 . S
C1100 C1103 1.539 . S
C1101 C1097 1.408 . S
C1101 C1100 1.404 . S
C1101 H1113 0.930 . S
C1102 C1098 1.524 . S
C1102 H1114 0.956 . S
C1102 H1115 0.961 . S
C1102 H1116 0.961 . S
C1103 C1100 1.539 . S
C1103 H1117 0.958 1_565 S
C1103 H1118 0.961 . S
C1103 H1119 0.960 1_565 S
H1104 C1088 0.931 . S
H1105 C1093 0.929 . S
H1106 C1094 0.960 . S
H1107 C1094 0.962 . S
H1108 C1094 0.960 1_545 S
H1109 C1095 0.961 . S
H1110 C1095 0.961 . S
H1111 C1095 0.961 . S
H1112 C1096 0.931 . S
H1113 C1101 0.930 . S
H1114 C1102 0.956 . S
H1115 C1102 0.961 . S
H1116 C1102 0.961 . S
H1117 C1103 0.958 1_545 S
H1118 C1103 0.961 . S
H1119 C1103 0.960 1_545 S
C1120 C1121 1.391 . S
C1120 C1122 1.394 . S
C1120 H1136 0.931 . S
C1121 C1120 1.391 . S
C1121 C1125 1.376 . S
C1122 C1120 1.394 . S
C1122 C1123 1.369 . S
C1122 C1126 1.531 . S
C1123 C1122 1.369 . S
C1123 C1124 1.410 . S
C1123 C1131 1.503 . S
C1124 C1123 1.410 . S
C1124 C1125 1.392 . S
C1124 C1127 1.511 . S
C1125 C1121 1.376 . S
C1125 C1124 1.392 . S
C1125 H1137 0.929 . S
C1126 C1122 1.531 . S
C1126 H1138 0.960 . S
C1126 H1139 0.961 1_565 S
C1126 H1140 0.960 . S
C1127 C1124 1.511 . S
C1127 H1141 0.961 . S
C1127 H1142 0.961 . S
C1127 H1143 0.961 . S
C1128 C1129 1.370 . S
C1128 C1130 1.363 1_545 S
C1128 H1144 0.931 . S
C1129 C1128 1.370 . S
C1129 C1133 1.408 1_545 S
C1130 C1128 1.363 1_565 S
C1130 C1131 1.370 . S
C1130 C1134 1.524 . S
C1131 C1123 1.503 . S
C1131 C1130 1.370 . S
C1131 C1132 1.403 . S
C1132 C1131 1.403 . S
C1132 C1133 1.404 . S
C1132 C1135 1.539 . S
C1133 C1129 1.408 1_565 S
C1133 C1132 1.404 . S
C1133 H1145 0.930 1_565 S
C1134 C1130 1.524 . S
C1134 H1146 0.956 . S
C1134 H1147 0.961 . S
C1134 H1148 0.961 . S
C1135 C1132 1.539 . S
C1135 H1149 0.958 . S
C1135 H1150 0.961 . S
C1135 H1151 0.960 . S
H1136 C1120 0.931 . S
H1137 C1125 0.929 . S
H1138 C1126 0.960 . S
H1139 C1126 0.961 1_545 S
H1140 C1126 0.960 . S
H1141 C1127 0.961 . S
H1142 C1127 0.961 . S
H1143 C1127 0.961 . S
H1144 C1128 0.931 . S
H1145 C1133 0.930 1_545 S
H1146 C1134 0.956 . S
H1147 C1134 0.961 . S
H1148 C1134 0.961 . S
H1149 C1135 0.958 . S
H1150 C1135 0.961 . S
H1151 C1135 0.960 . S
C1152 C1153 1.391 . S
C1152 C1154 1.394 . S
C1152 H1168 0.931 . S
C1153 C1152 1.391 . S
C1153 C1157 1.376 . S
C1154 C1152 1.394 . S
C1154 C1155 1.369 . S
C1154 C1158 1.531 . S
C1155 C1154 1.369 . S
C1155 C1156 1.410 . S
C1155 C1163 1.503 . S
C1156 C1155 1.410 . S
C1156 C1157 1.392 . S
C1156 C1159 1.511 . S
C1157 C1153 1.376 . S
C1157 C1156 1.392 . S
C1157 H1169 0.929 . S
C1158 C1154 1.531 . S
C1158 H1170 0.960 . S
C1158 H1171 0.962 . S
C1158 H1172 0.960 . S
C1159 C1156 1.511 . S
C1159 H1173 0.961 . S
C1159 H1174 0.961 . S
C1159 H1175 0.961 . S
C1160 C1161 1.370 1_545 S
C1160 C1162 1.363 . S
C1160 H1176 0.931 . S
C1161 C1160 1.370 1_565 S
C1161 C1165 1.408 . S
C1162 C1160 1.363 . S
C1162 C1163 1.370 . S
C1162 C1166 1.524 . S
C1163 C1155 1.503 . S
C1163 C1162 1.370 . S
C1163 C1164 1.403 1_545 S
C1164 C1163 1.403 1_565 S
C1164 C1165 1.404 . S
C1164 C1167 1.539 . S
C1165 C1161 1.408 . S
C1165 C1164 1.404 . S
C1165 H1177 0.930 . S
C1166 C1162 1.524 . S
C1166 H1178 0.956 . S
C1166 H1179 0.961 . S
C1166 H1180 0.961 . S
C1167 C1164 1.539 . S
C1167 H1181 0.958 . S
C1167 H1182 0.961 . S
C1167 H1183 0.960 1_565 S
H1168 C1152 0.931 . S
H1169 C1157 0.929 . S
H1170 C1158 0.960 . S
H1171 C1158 0.962 . S
H1172 C1158 0.960 . S
H1173 C1159 0.961 . S
H1174 C1159 0.961 . S
H1175 C1159 0.961 . S
H1176 C1160 0.931 . S
H1177 C1165 0.930 . S
H1178 C1166 0.956 . S
H1179 C1166 0.961 . S
H1180 C1166 0.961 . S
H1181 C1167 0.958 . S
H1182 C1167 0.961 . S
H1183 C1167 0.960 1_545 S
C1184 C1185 1.391 . S
C1184 C1186 1.394 . S
C1184 H1200 0.931 . S
C1185 C1184 1.391 . S
C1185 C1189 1.376 . S
C1186 C1184 1.394 . S
C1186 C1187 1.369 . S
C1186 C1190 1.531 . S
C1187 C1186 1.369 . S
C1187 C1188 1.410 . S
C1187 C1195 1.503 . S
C1188 C1187 1.410 . S
C1188 C1189 1.392 . S
C1188 C1191 1.511 . S
C1189 C1185 1.376 . S
C1189 C1188 1.392 . S
C1189 H1201 0.929 . S
C1190 C1186 1.531 . S
C1190 H1202 0.960 . S
C1190 H1203 0.962 . S
C1190 H1204 0.960 . S
C1191 C1188 1.511 . S
C1191 H1205 0.961 . S
C1191 H1206 0.961 . S
C1191 H1207 0.961 . S
C1192 C1193 1.370 . S
C1192 C1194 1.363 . S
C1192 H1208 0.931 . S
C1193 C1192 1.370 . S
C1193 C1197 1.408 . S
C1194 C1192 1.363 . S
C1194 C1195 1.370 . S
C1194 C1198 1.524 . S
C1195 C1187 1.503 . S
C1195 C1194 1.370 . S
C1195 C1196 1.403 . S
C1196 C1195 1.403 . S
C1196 C1197 1.404 . S
C1196 C1199 1.539 . S
C1197 C1193 1.408 . S
C1197 C1196 1.404 . S
C1197 H1209 0.930 . S
C1198 C1194 1.524 . S
C1198 H1210 0.956 . S
C1198 H1211 0.961 . S
C1198 H1212 0.961 . S
C1199 C1196 1.539 . S
C1199 H1213 0.958 . S
C1199 H1214 0.961 . S
C1199 H1215 0.960 . S
H1200 C1184 0.931 . S
H1201 C1189 0.929 . S
H1202 C1190 0.960 . S
H1203 C1190 0.962 . S
H1204 C1190 0.960 . S
H1205 C1191 0.961 . S
H1206 C1191 0.961 . S
H1207 C1191 0.961 . S
H1208 C1192 0.931 . S
H1209 C1197 0.930 . S
H1210 C1198 0.956 . S
H1211 C1198 0.961 . S
H1212 C1198 0.961 . S
H1213 C1199 0.958 . S
H1214 C1199 0.961 . S
H1215 C1199 0.960 . S
C1216 C1217 1.391 . S
C1216 C1218 1.394 . S
C1216 H1232 0.931 . S
C1217 C1216 1.391 . S
C1217 C1221 1.376 . S
C1218 C1216 1.394 . S
C1218 C1219 1.369 . S
C1218 C1222 1.531 . S
C1219 C1218 1.369 . S
C1219 C1220 1.410 . S
C1219 C1227 1.503 . S
C1220 C1219 1.410 . S
C1220 C1221 1.392 . S
C1220 C1223 1.511 . S
C1221 C1217 1.376 . S
C1221 C1220 1.392 . S
C1221 H1233 0.929 . S
C1222 C1218 1.531 . S
C1222 H1234 0.960 . S
C1222 H1235 0.962 . S
C1222 H1236 0.960 . S
C1223 C1220 1.511 . S
C1223 H1237 0.961 . S
C1223 H1238 0.961 . S
C1223 H1239 0.961 . S
C1224 C1225 1.370 . S
C1224 C1226 1.363 . S
C1224 H1240 0.931 . S
C1225 C1224 1.370 . S
C1225 C1229 1.408 . S
C1226 C1224 1.363 . S
C1226 C1227 1.370 . S
C1226 C1230 1.524 . S
C1227 C1219 1.503 . S
C1227 C1226 1.370 . S
C1227 C1228 1.403 . S
C1228 C1227 1.403 . S
C1228 C1229 1.404 . S
C1228 C1231 1.539 . S
C1229 C1225 1.408 . S
C1229 C1228 1.404 . S
C1229 H1241 0.930 . S
C1230 C1226 1.524 . S
C1230 H1242 0.956 . S
C1230 H1243 0.961 . S
C1230 H1244 0.961 . S
C1231 C1228 1.539 . S
C1231 H1245 0.958 . S
C1231 H1246 0.961 . S
C1231 H1247 0.960 . S
H1232 C1216 0.931 . S
H1233 C1221 0.929 . S
H1234 C1222 0.960 . S
H1235 C1222 0.962 . S
H1236 C1222 0.960 . S
H1237 C1223 0.961 . S
H1238 C1223 0.961 . S
H1239 C1223 0.961 . S
H1240 C1224 0.931 . S
H1241 C1229 0.930 . S
H1242 C1230 0.956 . S
H1243 C1230 0.961 . S
H1244 C1230 0.961 . S
H1245 C1231 0.958 . S
H1246 C1231 0.961 . S
H1247 C1231 0.960 . S
C1248 C1249 1.391 . S
C1248 C1250 1.394 . S
C1248 H1264 0.931 . S
C1249 C1248 1.391 . S
C1249 C1253 1.376 . S
C1250 C1248 1.394 . S
C1250 C1251 1.369 . S
C1250 C1254 1.531 . S
C1251 C1250 1.369 . S
C1251 C1252 1.410 . S
C1251 C1259 1.503 . S
C1252 C1251 1.410 . S
C1252 C1253 1.392 . S
C1252 C1255 1.511 . S
C1253 C1249 1.376 . S
C1253 C1252 1.392 . S
C1253 H1265 0.929 . S
C1254 C1250 1.531 . S
C1254 H1266 0.960 . S
C1254 H1267 0.962 . S
C1254 H1268 0.960 . S
C1255 C1252 1.511 . S
C1255 H1269 0.961 . S
C1255 H1270 0.961 . S
C1255 H1271 0.961 . S
C1256 C1257 1.370 . S
C1256 C1258 1.363 . S
C1256 H1272 0.931 . S
C1257 C1256 1.370 . S
C1257 C1261 1.408 . S
C1258 C1256 1.363 . S
C1258 C1259 1.370 . S
C1258 C1262 1.524 . S
C1259 C1251 1.503 . S
C1259 C1258 1.370 . S
C1259 C1260 1.403 . S
C1260 C1259 1.403 . S
C1260 C1261 1.404 . S
C1260 C1263 1.539 . S
C1261 C1257 1.408 . S
C1261 C1260 1.404 . S
C1261 H1273 0.930 . S
C1262 C1258 1.524 . S
C1262 H1274 0.956 . S
C1262 H1275 0.961 . S
C1262 H1276 0.961 . S
C1263 C1260 1.539 . S
C1263 H1277 0.958 . S
C1263 H1278 0.961 . S
C1263 H1279 0.960 . S
H1264 C1248 0.931 . S
H1265 C1253 0.929 . S
H1266 C1254 0.960 . S
H1267 C1254 0.962 . S
H1268 C1254 0.960 . S
H1269 C1255 0.961 . S
H1270 C1255 0.961 . S
H1271 C1255 0.961 . S
H1272 C1256 0.931 . S
H1273 C1261 0.930 . S
H1274 C1262 0.956 . S
H1275 C1262 0.961 . S
H1276 C1262 0.961 . S
H1277 C1263 0.958 . S
H1278 C1263 0.961 . S
H1279 C1263 0.960 . S
C1280 C1281 1.391 . S
C1280 C1282 1.394 . S
C1280 H1296 0.931 . S
C1281 C1280 1.391 . S
C1281 C1285 1.376 . S
C1282 C1280 1.394 . S
C1282 C1283 1.369 . S
C1282 C1286 1.531 . S
C1283 C1282 1.369 . S
C1283 C1284 1.410 . S
C1283 C1291 1.503 . S
C1284 C1283 1.410 . S
C1284 C1285 1.392 . S
C1284 C1287 1.511 . S
C1285 C1281 1.376 . S
C1285 C1284 1.392 . S
C1285 H1297 0.929 . S
C1286 C1282 1.531 . S
C1286 H1298 0.960 . S
C1286 H1299 0.962 . S
C1286 H1300 0.960 . S
C1287 C1284 1.511 . S
C1287 H1301 0.961 . S
C1287 H1302 0.961 . S
C1287 H1303 0.961 . S
C1288 C1289 1.370 . S
C1288 C1290 1.363 . S
C1288 H1304 0.931 . S
C1289 C1288 1.370 . S
C1289 C1293 1.408 . S
C1290 C1288 1.363 . S
C1290 C1291 1.370 . S
C1290 C1294 1.524 . S
C1291 C1283 1.503 . S
C1291 C1290 1.370 . S
C1291 C1292 1.403 . S
C1292 C1291 1.403 . S
C1292 C1293 1.404 . S
C1292 C1295 1.539 . S
C1293 C1289 1.408 . S
C1293 C1292 1.404 . S
C1293 H1305 0.930 . S
C1294 C1290 1.524 . S
C1294 H1306 0.956 . S
C1294 H1307 0.961 . S
C1294 H1308 0.961 . S
C1295 C1292 1.539 . S
C1295 H1309 0.958 . S
C1295 H1310 0.961 . S
C1295 H1311 0.960 . S
H1296 C1280 0.931 . S
H1297 C1285 0.929 . S
H1298 C1286 0.960 . S
H1299 C1286 0.962 . S
H1300 C1286 0.960 . S
H1301 C1287 0.961 . S
H1302 C1287 0.961 . S
H1303 C1287 0.961 . S
H1304 C1288 0.931 . S
H1305 C1293 0.930 . S
H1306 C1294 0.956 . S
H1307 C1294 0.961 . S
H1308 C1294 0.961 . S
H1309 C1295 0.958 . S
H1310 C1295 0.961 . S
H1311 C1295 0.960 . S
C1312 C1313 1.391 . S
C1312 C1314 1.394 . S
C1312 H1328 0.931 . S
C1313 C1312 1.391 . S
C1313 C1317 1.376 . S
C1314 C1312 1.394 . S
C1314 C1315 1.369 . S
C1314 C1318 1.531 . S
C1315 C1314 1.369 . S
C1315 C1316 1.410 . S
C1315 C1323 1.503 . S
C1316 C1315 1.410 . S
C1316 C1317 1.392 . S
C1316 C1319 1.511 . S
C1317 C1313 1.376 . S
C1317 C1316 1.392 . S
C1317 H1329 0.929 . S
C1318 C1314 1.531 . S
C1318 H1330 0.960 . S
C1318 H1331 0.962 . S
C1318 H1332 0.960 . S
C1319 C1316 1.511 . S
C1319 H1333 0.961 . S
C1319 H1334 0.961 . S
C1319 H1335 0.961 . S
C1320 C1321 1.370 . S
C1320 C1322 1.363 . S
C1320 H1336 0.931 . S
C1321 C1320 1.370 . S
C1321 C1325 1.408 . S
C1322 C1320 1.363 . S
C1322 C1323 1.370 . S
C1322 C1326 1.524 . S
C1323 C1315 1.503 . S
C1323 C1322 1.370 . S
C1323 C1324 1.403 . S
C1324 C1323 1.403 . S
C1324 C1325 1.404 . S
C1324 C1327 1.539 . S
C1325 C1321 1.408 . S
C1325 C1324 1.404 . S
C1325 H1337 0.930 . S
C1326 C1322 1.524 . S
C1326 H1338 0.956 . S
C1326 H1339 0.961 . S
C1326 H1340 0.961 . S
C1327 C1324 1.539 . S
C1327 H1341 0.958 . S
C1327 H1342 0.961 . S
C1327 H1343 0.960 . S
H1328 C1312 0.931 . S
H1329 C1317 0.929 . S
H1330 C1318 0.960 . S
H1331 C1318 0.962 . S
H1332 C1318 0.960 . S
H1333 C1319 0.961 . S
H1334 C1319 0.961 . S
H1335 C1319 0.961 . S
H1336 C1320 0.931 . S
H1337 C1325 0.930 . S
H1338 C1326 0.956 . S
H1339 C1326 0.961 . S
H1340 C1326 0.961 . S
H1341 C1327 0.958 . S
H1342 C1327 0.961 . S
H1343 C1327 0.960 . S
C1344 C1345 1.391 . S
C1344 C1346 1.394 . S
C1344 H1360 0.931 . S
C1345 C1344 1.391 . S
C1345 C1349 1.376 . S
C1346 C1344 1.394 . S
C1346 C1347 1.369 . S
C1346 C1350 1.531 . S
C1347 C1346 1.369 . S
C1347 C1348 1.410 . S
C1347 C1355 1.503 . S
C1348 C1347 1.410 . S
C1348 C1349 1.392 . S
C1348 C1351 1.511 . S
C1349 C1345 1.376 . S
C1349 C1348 1.392 . S
C1349 H1361 0.929 . S
C1350 C1346 1.531 . S
C1350 H1362 0.960 . S
C1350 H1363 0.962 . S
C1350 H1364 0.960 . S
C1351 C1348 1.511 . S
C1351 H1365 0.961 . S
C1351 H1366 0.961 . S
C1351 H1367 0.961 . S
C1352 C1353 1.370 . S
C1352 C1354 1.363 . S
C1352 H1368 0.931 . S
C1353 C1352 1.370 . S
C1353 C1357 1.408 . S
C1354 C1352 1.363 . S
C1354 C1355 1.370 . S
C1354 C1358 1.524 . S
C1355 C1347 1.503 . S
C1355 C1354 1.370 . S
C1355 C1356 1.403 . S
C1356 C1355 1.403 . S
C1356 C1357 1.404 . S
C1356 C1359 1.539 . S
C1357 C1353 1.408 . S
C1357 C1356 1.404 . S
C1357 H1369 0.930 . S
C1358 C1354 1.524 . S
C1358 H1370 0.956 . S
C1358 H1371 0.961 . S
C1358 H1372 0.961 . S
C1359 C1356 1.539 . S
C1359 H1373 0.958 . S
C1359 H1374 0.961 . S
C1359 H1375 0.960 . S
H1360 C1344 0.931 . S
H1361 C1349 0.929 . S
H1362 C1350 0.960 . S
H1363 C1350 0.962 . S
H1364 C1350 0.960 . S
H1365 C1351 0.961 . S
H1366 C1351 0.961 . S
H1367 C1351 0.961 . S
H1368 C1352 0.931 . S
H1369 C1357 0.930 . S
H1370 C1358 0.956 . S
H1371 C1358 0.961 . S
H1372 C1358 0.961 . S
H1373 C1359 0.958 . S
H1374 C1359 0.961 . S
H1375 C1359 0.960 . S
C1376 C1377 1.391 . S
C1376 C1378 1.394 . S
C1376 H1392 0.931 . S
C1377 C1376 1.391 . S
C1377 C1381 1.376 . S
C1378 C1376 1.394 . S
C1378 C1379 1.369 . S
C1378 C1382 1.531 . S
C1379 C1378 1.369 . S
C1379 C1380 1.410 . S
C1379 C1387 1.503 . S
C1380 C1379 1.410 . S
C1380 C1381 1.392 . S
C1380 C1383 1.511 . S
C1381 C1377 1.376 . S
C1381 C1380 1.392 . S
C1381 H1393 0.929 . S
C1382 C1378 1.531 . S
C1382 H1394 0.960 . S
C1382 H1395 0.962 . S
C1382 H1396 0.960 . S
C1383 C1380 1.511 . S
C1383 H1397 0.961 . S
C1383 H1398 0.961 . S
C1383 H1399 0.961 . S
C1384 C1385 1.370 . S
C1384 C1386 1.363 . S
C1384 H1400 0.931 . S
C1385 C1384 1.370 . S
C1385 C1389 1.408 . S
C1386 C1384 1.363 . S
C1386 C1387 1.370 . S
C1386 C1390 1.524 . S
C1387 C1379 1.503 . S
C1387 C1386 1.370 . S
C1387 C1388 1.403 . S
C1388 C1387 1.403 . S
C1388 C1389 1.404 . S
C1388 C1391 1.539 . S
C1389 C1385 1.408 . S
C1389 C1388 1.404 . S
C1389 H1401 0.930 . S
C1390 C1386 1.524 . S
C1390 H1402 0.956 . S
C1390 H1403 0.961 . S
C1390 H1404 0.961 . S
C1391 C1388 1.539 . S
C1391 H1405 0.958 . S
C1391 H1406 0.961 . S
C1391 H1407 0.960 . S
H1392 C1376 0.931 . S
H1393 C1381 0.929 . S
H1394 C1382 0.960 . S
H1395 C1382 0.962 . S
H1396 C1382 0.960 . S
H1397 C1383 0.961 . S
H1398 C1383 0.961 . S
H1399 C1383 0.961 . S
H1400 C1384 0.931 . S
H1401 C1389 0.930 . S
H1402 C1390 0.956 . S
H1403 C1390 0.961 . S
H1404 C1390 0.961 . S
H1405 C1391 0.958 . S
H1406 C1391 0.961 . S
H1407 C1391 0.960 . S
C1408 C1409 1.391 . S
C1408 C1410 1.394 . S
C1408 H1424 0.931 . S
C1409 C1408 1.391 . S
C1409 C1413 1.376 . S
C1410 C1408 1.394 . S
C1410 C1411 1.369 . S
C1410 C1414 1.531 . S
C1411 C1410 1.369 . S
C1411 C1412 1.410 . S
C1411 C1419 1.503 . S
C1412 C1411 1.410 . S
C1412 C1413 1.392 . S
C1412 C1415 1.511 . S
C1413 C1409 1.376 . S
C1413 C1412 1.392 . S
C1413 H1425 0.929 . S
C1414 C1410 1.531 . S
C1414 H1426 0.960 . S
C1414 H1427 0.962 . S
C1414 H1428 0.960 . S
C1415 C1412 1.511 . S
C1415 H1429 0.961 . S
C1415 H1430 0.961 . S
C1415 H1431 0.961 . S
C1416 C1417 1.370 . S
C1416 C1418 1.363 . S
C1416 H1432 0.931 . S
C1417 C1416 1.370 . S
C1417 C1421 1.408 . S
C1418 C1416 1.363 . S
C1418 C1419 1.370 . S
C1418 C1422 1.524 . S
C1419 C1411 1.503 . S
C1419 C1418 1.370 . S
C1419 C1420 1.403 . S
C1420 C1419 1.403 . S
C1420 C1421 1.404 . S
C1420 C1423 1.539 . S
C1421 C1417 1.408 . S
C1421 C1420 1.404 . S
C1421 H1433 0.930 . S
C1422 C1418 1.524 . S
C1422 H1434 0.956 . S
C1422 H1435 0.961 . S
C1422 H1436 0.961 . S
C1423 C1420 1.539 . S
C1423 H1437 0.958 . S
C1423 H1438 0.961 . S
C1423 H1439 0.960 . S
H1424 C1408 0.931 . S
H1425 C1413 0.929 . S
H1426 C1414 0.960 . S
H1427 C1414 0.962 . S
H1428 C1414 0.960 . S
H1429 C1415 0.961 . S
H1430 C1415 0.961 . S
H1431 C1415 0.961 . S
H1432 C1416 0.931 . S
H1433 C1421 0.930 . S
H1434 C1422 0.956 . S
H1435 C1422 0.961 . S
H1436 C1422 0.961 . S
H1437 C1423 0.958 . S
H1438 C1423 0.961 . S
H1439 C1423 0.960 . S
C1440 C1441 1.391 . S
C1440 C1442 1.394 . S
C1440 H1456 0.931 . S
C1441 C1440 1.391 . S
C1441 C1445 1.376 . S
C1442 C1440 1.394 . S
C1442 C1443 1.369 . S
C1442 C1446 1.531 . S
C1443 C1442 1.369 . S
C1443 C1444 1.410 . S
C1443 C1451 1.503 . S
C1444 C1443 1.410 . S
C1444 C1445 1.392 . S
C1444 C1447 1.511 . S
C1445 C1441 1.376 . S
C1445 C1444 1.392 . S
C1445 H1457 0.929 . S
C1446 C1442 1.531 . S
C1446 H1458 0.960 . S
C1446 H1459 0.962 . S
C1446 H1460 0.960 . S
C1447 C1444 1.511 . S
C1447 H1461 0.961 . S
C1447 H1462 0.961 . S
C1447 H1463 0.961 . S
C1448 C1449 1.370 . S
C1448 C1450 1.363 . S
C1448 H1464 0.931 . S
C1449 C1448 1.370 . S
C1449 C1453 1.408 . S
C1450 C1448 1.363 . S
C1450 C1451 1.370 . S
C1450 C1454 1.524 . S
C1451 C1443 1.503 . S
C1451 C1450 1.370 . S
C1451 C1452 1.403 . S
C1452 C1451 1.403 . S
C1452 C1453 1.404 . S
C1452 C1455 1.539 . S
C1453 C1449 1.408 . S
C1453 C1452 1.404 . S
C1453 H1465 0.930 . S
C1454 C1450 1.524 . S
C1454 H1466 0.956 . S
C1454 H1467 0.961 . S
C1454 H1468 0.961 . S
C1455 C1452 1.539 . S
C1455 H1469 0.958 . S
C1455 H1470 0.961 . S
C1455 H1471 0.960 . S
H1456 C1440 0.931 . S
H1457 C1445 0.929 . S
H1458 C1446 0.960 . S
H1459 C1446 0.962 . S
H1460 C1446 0.960 . S
H1461 C1447 0.961 . S
H1462 C1447 0.961 . S
H1463 C1447 0.961 . S
H1464 C1448 0.931 . S
H1465 C1453 0.930 . S
H1466 C1454 0.956 . S
H1467 C1454 0.961 . S
H1468 C1454 0.961 . S
H1469 C1455 0.958 . S
H1470 C1455 0.961 . S
H1471 C1455 0.960 . S
C1472 C1473 1.391 . S
C1472 C1474 1.394 . S
C1472 H1488 0.931 . S
C1473 C1472 1.391 . S
C1473 C1477 1.376 . S
C1474 C1472 1.394 . S
C1474 C1475 1.369 . S
C1474 C1478 1.531 . S
C1475 C1474 1.369 . S
C1475 C1476 1.410 . S
C1475 C1483 1.503 . S
C1476 C1475 1.410 . S
C1476 C1477 1.392 . S
C1476 C1479 1.511 . S
C1477 C1473 1.376 . S
C1477 C1476 1.392 . S
C1477 H1489 0.929 . S
C1478 C1474 1.531 . S
C1478 H1490 0.960 . S
C1478 H1491 0.962 . S
C1478 H1492 0.960 . S
C1479 C1476 1.511 . S
C1479 H1493 0.961 . S
C1479 H1494 0.961 . S
C1479 H1495 0.961 . S
C1480 C1481 1.370 . S
C1480 C1482 1.363 1_655 S
C1480 H1496 0.931 . S
C1481 C1480 1.370 . S
C1481 C1485 1.408 . S
C1482 C1480 1.363 1_455 S
C1482 C1483 1.370 . S
C1482 C1486 1.524 . S
C1483 C1475 1.503 . S
C1483 C1482 1.370 . S
C1483 C1484 1.424 . S
C1484 C1483 1.424 . S
C1484 C1485 1.378 1_455 S
C1484 C1487 1.542 . S
C1485 C1481 1.408 . S
C1485 C1484 1.378 1_655 S
C1485 H1497 0.930 . S
C1486 C1482 1.524 . S
C1486 H1498 0.956 . S
C1486 H1499 0.961 . S
C1486 H1500 0.961 . S
C1487 C1484 1.542 . S
C1487 H1501 0.958 . S
C1487 H1502 0.961 1_455 S
C1487 H1503 0.960 . S
H1488 C1472 0.931 . S
H1489 C1477 0.929 . S
H1490 C1478 0.960 . S
H1491 C1478 0.962 . S
H1492 C1478 0.960 . S
H1493 C1479 0.961 . S
H1494 C1479 0.961 . S
H1495 C1479 0.961 . S
H1496 C1480 0.931 . S
H1497 C1485 0.930 . S
H1498 C1486 0.956 . S
H1499 C1486 0.961 . S
H1500 C1486 0.961 . S
H1501 C1487 0.958 . S
H1502 C1487 0.961 1_655 S
H1503 C1487 0.960 . S
C1504 C1505 1.391 . S
C1504 C1506 1.394 . S
C1504 H1520 0.931 . S
C1505 C1504 1.391 . S
C1505 C1509 1.376 . S
C1506 C1504 1.394 . S
C1506 C1507 1.369 . S
C1506 C1510 1.531 . S
C1507 C1506 1.369 . S
C1507 C1508 1.410 . S
C1507 C1515 1.503 . S
C1508 C1507 1.410 . S
C1508 C1509 1.392 . S
C1508 C1511 1.511 . S
C1509 C1505 1.376 . S
C1509 C1508 1.392 . S
C1509 H1521 0.929 . S
C1510 C1506 1.531 . S
C1510 H1522 0.960 . S
C1510 H1523 0.962 . S
C1510 H1524 0.960 . S
C1511 C1508 1.511 . S
C1511 H1525 0.961 . S
C1511 H1526 0.961 . S
C1511 H1527 0.961 . S
C1512 C1513 1.370 . S
C1512 C1514 1.363 . S
C1512 H1528 0.931 . S
C1513 C1512 1.370 . S
C1513 C1517 1.408 . S
C1514 C1512 1.363 . S
C1514 C1515 1.370 . S
C1514 C1518 1.524 . S
C1515 C1507 1.503 . S
C1515 C1514 1.370 . S
C1515 C1516 1.403 . S
C1516 C1515 1.403 . S
C1516 C1517 1.404 . S
C1516 C1519 1.539 . S
C1517 C1513 1.408 . S
C1517 C1516 1.404 . S
C1517 H1529 0.930 . S
C1518 C1514 1.524 . S
C1518 H1530 0.956 . S
C1518 H1531 0.961 . S
C1518 H1532 0.961 . S
C1519 C1516 1.539 . S
C1519 H1533 0.958 . S
C1519 H1534 0.961 . S
C1519 H1535 0.960 . S
H1520 C1504 0.931 . S
H1521 C1509 0.929 . S
H1522 C1510 0.960 . S
H1523 C1510 0.962 . S
H1524 C1510 0.960 . S
H1525 C1511 0.961 . S
H1526 C1511 0.961 . S
H1527 C1511 0.961 . S
H1528 C1512 0.931 . S
H1529 C1517 0.930 . S
H1530 C1518 0.956 . S
H1531 C1518 0.961 . S
H1532 C1518 0.961 . S
H1533 C1519 0.958 . S
H1534 C1519 0.961 . S
H1535 C1519 0.960 . S
C1536 C1537 1.391 . S
C1536 C1538 1.394 . S
C1536 H1552 0.931 . S
C1537 C1536 1.391 . S
C1537 C1541 1.376 . S
C1538 C1536 1.394 . S
C1538 C1539 1.369 . S
C1538 C1542 1.531 . S
C1539 C1538 1.369 . S
C1539 C1540 1.410 . S
C1539 C1547 1.503 . S
C1540 C1539 1.410 . S
C1540 C1541 1.392 . S
C1540 C1543 1.511 . S
C1541 C1537 1.376 . S
C1541 C1540 1.392 . S
C1541 H1553 0.929 . S
C1542 C1538 1.531 . S
C1542 H1554 0.960 . S
C1542 H1555 0.962 . S
C1542 H1556 0.960 . S
C1543 C1540 1.511 . S
C1543 H1557 0.961 . S
C1543 H1558 0.961 . S
C1543 H1559 0.961 . S
C1544 C1545 1.370 . S
C1544 C1546 1.363 . S
C1544 H1560 0.931 . S
C1545 C1544 1.370 . S
C1545 C1549 1.408 . S
C1546 C1544 1.363 . S
C1546 C1547 1.370 . S
C1546 C1550 1.524 . S
C1547 C1539 1.503 . S
C1547 C1546 1.370 . S
C1547 C1548 1.403 . S
C1548 C1547 1.403 . S
C1548 C1549 1.404 . S
C1548 C1551 1.539 . S
C1549 C1545 1.408 . S
C1549 C1548 1.404 . S
C1549 H1561 0.930 . S
C1550 C1546 1.524 . S
C1550 H1562 0.956 . S
C1550 H1563 0.961 . S
C1550 H1564 0.961 . S
C1551 C1548 1.539 . S
C1551 H1565 0.958 . S
C1551 H1566 0.961 . S
C1551 H1567 0.960 . S
H1552 C1536 0.931 . S
H1553 C1541 0.929 . S
H1554 C1542 0.960 . S
H1555 C1542 0.962 . S
H1556 C1542 0.960 . S
H1557 C1543 0.961 . S
H1558 C1543 0.961 . S
H1559 C1543 0.961 . S
H1560 C1544 0.931 . S
H1561 C1549 0.930 . S
H1562 C1550 0.956 . S
H1563 C1550 0.961 . S
H1564 C1550 0.961 . S
H1565 C1551 0.958 . S
H1566 C1551 0.961 . S
H1567 C1551 0.960 . S
C1568 C1569 1.391 . S
C1568 C1570 1.394 . S
C1568 H1584 0.931 . S
C1569 C1568 1.391 . S
C1569 C1573 1.376 . S
C1570 C1568 1.394 . S
C1570 C1571 1.369 . S
C1570 C1574 1.531 . S
C1571 C1570 1.369 . S
C1571 C1572 1.410 . S
C1571 C1579 1.503 . S
C1572 C1571 1.410 . S
C1572 C1573 1.392 . S
C1572 C1575 1.511 . S
C1573 C1569 1.376 . S
C1573 C1572 1.392 . S
C1573 H1585 0.929 . S
C1574 C1570 1.531 . S
C1574 H1586 0.960 . S
C1574 H1587 0.962 . S
C1574 H1588 0.960 . S
C1575 C1572 1.511 . S
C1575 H1589 0.961 . S
C1575 H1590 0.961 . S
C1575 H1591 0.961 . S
C1576 C1577 1.370 . S
C1576 C1578 1.363 . S
C1576 H1592 0.931 . S
C1577 C1576 1.370 . S
C1577 C1581 1.408 . S
C1578 C1576 1.363 . S
C1578 C1579 1.370 . S
C1578 C1582 1.524 . S
C1579 C1571 1.503 . S
C1579 C1578 1.370 . S
C1579 C1580 1.403 . S
C1580 C1579 1.403 . S
C1580 C1581 1.404 . S
C1580 C1583 1.539 . S
C1581 C1577 1.408 . S
C1581 C1580 1.404 . S
C1581 H1593 0.930 . S
C1582 C1578 1.524 . S
C1582 H1594 0.956 . S
C1582 H1595 0.961 . S
C1582 H1596 0.961 . S
C1583 C1580 1.539 . S
C1583 H1597 0.958 . S
C1583 H1598 0.961 . S
C1583 H1599 0.960 . S
H1584 C1568 0.931 . S
H1585 C1573 0.929 . S
H1586 C1574 0.960 . S
H1587 C1574 0.962 . S
H1588 C1574 0.960 . S
H1589 C1575 0.961 . S
H1590 C1575 0.961 . S
H1591 C1575 0.961 . S
H1592 C1576 0.931 . S
H1593 C1581 0.930 . S
H1594 C1582 0.956 . S
H1595 C1582 0.961 . S
H1596 C1582 0.961 . S
H1597 C1583 0.958 . S
H1598 C1583 0.961 . S
H1599 C1583 0.960 . S
C1600 C1601 1.391 . S
C1600 C1602 1.394 . S
C1600 H1616 0.931 . S
C1601 C1600 1.391 . S
C1601 C1605 1.376 . S
C1602 C1600 1.394 . S
C1602 C1603 1.369 . S
C1602 C1606 1.531 . S
C1603 C1602 1.369 . S
C1603 C1604 1.410 . S
C1603 C1611 1.503 . S
C1604 C1603 1.410 . S
C1604 C1605 1.392 . S
C1604 C1607 1.511 . S
C1605 C1601 1.376 . S
C1605 C1604 1.392 . S
C1605 H1617 0.929 . S
C1606 C1602 1.531 . S
C1606 H1618 0.960 . S
C1606 H1619 0.962 . S
C1606 H1620 0.960 . S
C1607 C1604 1.511 . S
C1607 H1621 0.961 . S
C1607 H1622 0.961 . S
C1607 H1623 0.961 . S
C1608 C1609 1.370 . S
C1608 C1610 1.363 . S
C1608 H1624 0.931 . S
C1609 C1608 1.370 . S
C1609 C1613 1.408 . S
C1610 C1608 1.363 . S
C1610 C1611 1.370 . S
C1610 C1614 1.524 . S
C1611 C1603 1.503 . S
C1611 C1610 1.370 . S
C1611 C1612 1.403 . S
C1612 C1611 1.403 . S
C1612 C1613 1.404 . S
C1612 C1615 1.539 . S
C1613 C1609 1.408 . S
C1613 C1612 1.404 . S
C1613 H1625 0.930 . S
C1614 C1610 1.524 . S
C1614 H1626 0.956 . S
C1614 H1627 0.961 . S
C1614 H1628 0.961 . S
C1615 C1612 1.539 . S
C1615 H1629 0.958 . S
C1615 H1630 0.961 . S
C1615 H1631 0.960 . S
H1616 C1600 0.931 . S
H1617 C1605 0.929 . S
H1618 C1606 0.960 . S
H1619 C1606 0.962 . S
H1620 C1606 0.960 . S
H1621 C1607 0.961 . S
H1622 C1607 0.961 . S
H1623 C1607 0.961 . S
H1624 C1608 0.931 . S
H1625 C1613 0.930 . S
H1626 C1614 0.956 . S
H1627 C1614 0.961 . S
H1628 C1614 0.961 . S
H1629 C1615 0.958 . S
H1630 C1615 0.961 . S
H1631 C1615 0.960 . S
C1632 C1633 1.391 . S
C1632 C1634 1.394 . S
C1632 H1648 0.931 . S
C1633 C1632 1.391 . S
C1633 C1637 1.376 . S
C1634 C1632 1.394 . S
C1634 C1635 1.369 . S
C1634 C1638 1.531 . S
C1635 C1634 1.369 . S
C1635 C1636 1.410 . S
C1635 C1643 1.503 . S
C1636 C1635 1.410 . S
C1636 C1637 1.392 . S
C1636 C1639 1.511 . S
C1637 C1633 1.376 . S
C1637 C1636 1.392 . S
C1637 H1649 0.929 . S
C1638 C1634 1.531 . S
C1638 H1650 0.960 . S
C1638 H1651 0.962 . S
C1638 H1652 0.960 . S
C1639 C1636 1.511 . S
C1639 H1653 0.961 . S
C1639 H1654 0.961 . S
C1639 H1655 0.961 . S
C1640 C1641 1.370 . S
C1640 C1642 1.363 . S
C1640 H1656 0.931 . S
C1641 C1640 1.370 . S
C1641 C1645 1.408 . S
C1642 C1640 1.363 . S
C1642 C1643 1.370 . S
C1642 C1646 1.524 . S
C1643 C1635 1.503 . S
C1643 C1642 1.370 . S
C1643 C1644 1.403 . S
C1644 C1643 1.403 . S
C1644 C1645 1.404 . S
C1644 C1647 1.539 . S
C1645 C1641 1.408 . S
C1645 C1644 1.404 . S
C1645 H1657 0.930 . S
C1646 C1642 1.524 . S
C1646 H1658 0.956 . S
C1646 H1659 0.961 . S
C1646 H1660 0.961 . S
C1647 C1644 1.539 . S
C1647 H1661 0.958 . S
C1647 H1662 0.961 . S
C1647 H1663 0.960 . S
H1648 C1632 0.931 . S
H1649 C1637 0.929 . S
H1650 C1638 0.960 . S
H1651 C1638 0.962 . S
H1652 C1638 0.960 . S
H1653 C1639 0.961 . S
H1654 C1639 0.961 . S
H1655 C1639 0.961 . S
H1656 C1640 0.931 . S
H1657 C1645 0.930 . S
H1658 C1646 0.956 . S
H1659 C1646 0.961 . S
H1660 C1646 0.961 . S
H1661 C1647 0.958 . S
H1662 C1647 0.961 . S
H1663 C1647 0.960 . S
C1664 C1665 1.391 . S
C1664 C1666 1.394 . S
C1664 H1680 0.931 . S
C1665 C1664 1.391 . S
C1665 C1669 1.376 . S
C1666 C1664 1.394 . S
C1666 C1667 1.369 . S
C1666 C1670 1.531 . S
C1667 C1666 1.369 . S
C1667 C1668 1.410 . S
C1667 C1675 1.503 . S
C1668 C1667 1.410 . S
C1668 C1669 1.392 . S
C1668 C1671 1.511 . S
C1669 C1665 1.376 . S
C1669 C1668 1.392 . S
C1669 H1681 0.929 . S
C1670 C1666 1.531 . S
C1670 H1682 0.960 . S
C1670 H1683 0.962 . S
C1670 H1684 0.960 . S
C1671 C1668 1.511 . S
C1671 H1685 0.961 . S
C1671 H1686 0.961 . S
C1671 H1687 0.961 . S
C1672 C1673 1.370 . S
C1672 C1674 1.363 1_655 S
C1672 H1688 0.931 . S
C1673 C1672 1.370 . S
C1673 C1677 1.408 . S
C1674 C1672 1.363 1_455 S
C1674 C1675 1.370 . S
C1674 C1678 1.524 . S
C1675 C1667 1.503 . S
C1675 C1674 1.370 . S
C1675 C1676 1.403 . S
C1676 C1675 1.403 . S
C1676 C1677 1.404 1_455 S
C1676 C1679 1.539 . S
C1677 C1673 1.408 . S
C1677 C1676 1.404 1_655 S
C1677 H1689 0.930 . S
C1678 C1674 1.524 . S
C1678 H1690 0.956 . S
C1678 H1691 0.961 . S
C1678 H1692 0.961 . S
C1679 C1676 1.539 . S
C1679 H1693 0.958 . S
C1679 H1694 0.961 1_455 S
C1679 H1695 0.960 . S
H1680 C1664 0.931 . S
H1681 C1669 0.929 . S
H1682 C1670 0.960 . S
H1683 C1670 0.962 . S
H1684 C1670 0.960 . S
H1685 C1671 0.961 . S
H1686 C1671 0.961 . S
H1687 C1671 0.961 . S
H1688 C1672 0.931 . S
H1689 C1677 0.930 . S
H1690 C1678 0.956 . S
H1691 C1678 0.961 . S
H1692 C1678 0.961 . S
H1693 C1679 0.958 . S
H1694 C1679 0.961 1_655 S
H1695 C1679 0.960 . S
C1696 C1697 1.391 . S
C1696 C1698 1.394 . S
C1696 H1712 0.931 . S
C1697 C1696 1.391 . S
C1697 C1701 1.376 . S
C1698 C1696 1.394 . S
C1698 C1699 1.369 . S
C1698 C1702 1.531 . S
C1699 C1698 1.369 . S
C1699 C1700 1.410 . S
C1699 C1707 1.503 . S
C1700 C1699 1.410 . S
C1700 C1701 1.392 . S
C1700 C1703 1.511 . S
C1701 C1697 1.376 . S
C1701 C1700 1.392 . S
C1701 H1713 0.929 . S
C1702 C1698 1.531 . S
C1702 H1714 0.960 . S
C1702 H1715 0.962 . S
C1702 H1716 0.960 . S
C1703 C1700 1.511 . S
C1703 H1717 0.961 . S
C1703 H1718 0.961 . S
C1703 H1719 0.961 . S
C1704 C1705 1.370 . S
C1704 C1706 1.363 . S
C1704 H1720 0.931 . S
C1705 C1704 1.370 . S
C1705 C1709 1.408 . S
C1706 C1704 1.363 . S
C1706 C1707 1.370 . S
C1706 C1710 1.524 . S
C1707 C1699 1.503 . S
C1707 C1706 1.370 . S
C1707 C1708 1.403 . S
C1708 C1707 1.403 . S
C1708 C1709 1.404 . S
C1708 C1711 1.539 . S
C1709 C1705 1.408 . S
C1709 C1708 1.404 . S
C1709 H1721 0.930 . S
C1710 C1706 1.524 . S
C1710 H1722 0.956 . S
C1710 H1723 0.961 . S
C1710 H1724 0.961 . S
C1711 C1708 1.539 . S
C1711 H1725 0.958 . S
C1711 H1726 0.961 . S
C1711 H1727 0.960 . S
H1712 C1696 0.931 . S
H1713 C1701 0.929 . S
H1714 C1702 0.960 . S
H1715 C1702 0.962 . S
H1716 C1702 0.960 . S
H1717 C1703 0.961 . S
H1718 C1703 0.961 . S
H1719 C1703 0.961 . S
H1720 C1704 0.931 . S
H1721 C1709 0.930 . S
H1722 C1710 0.956 . S
H1723 C1710 0.961 . S
H1724 C1710 0.961 . S
H1725 C1711 0.958 . S
H1726 C1711 0.961 . S
H1727 C1711 0.960 . S
C1728 C1729 1.391 . S
C1728 C1730 1.394 1_455 S
C1728 H1744 0.931 . S
C1729 C1728 1.391 . S
C1729 C1733 1.376 . S
C1730 C1728 1.394 1_655 S
C1730 C1731 1.369 . S
C1730 C1734 1.531 . S
C1731 C1730 1.369 . S
C1731 C1732 1.410 . S
C1731 C1739 1.503 . S
C1732 C1731 1.410 . S
C1732 C1733 1.392 1_655 S
C1732 C1735 1.511 . S
C1733 C1729 1.376 . S
C1733 C1732 1.392 1_455 S
C1733 H1745 0.929 . S
C1734 C1730 1.531 . S
C1734 H1746 0.960 . S
C1734 H1747 0.962 . S
C1734 H1748 0.960 . S
C1735 C1732 1.511 . S
C1735 H1749 0.961 . S
C1735 H1750 0.961 . S
C1735 H1751 0.961 . S
C1736 C1737 1.370 . S
C1736 C1738 1.363 . S
C1736 H1752 0.931 . S
C1737 C1736 1.370 . S
C1737 C1741 1.408 . S
C1738 C1736 1.363 . S
C1738 C1739 1.370 . S
C1738 C1742 1.524 . S
C1739 C1731 1.503 . S
C1739 C1738 1.370 . S
C1739 C1740 1.403 . S
C1740 C1739 1.403 . S
C1740 C1741 1.404 . S
C1740 C1743 1.539 . S
C1741 C1737 1.408 . S
C1741 C1740 1.404 . S
C1741 H1753 0.930 . S
C1742 C1738 1.524 . S
C1742 H1754 0.956 . S
C1742 H1755 0.961 . S
C1742 H1756 0.961 . S
C1743 C1740 1.539 . S
C1743 H1757 0.958 . S
C1743 H1758 0.961 . S
C1743 H1759 0.960 . S
H1744 C1728 0.931 . S
H1745 C1733 0.929 . S
H1746 C1734 0.960 . S
H1747 C1734 0.962 . S
H1748 C1734 0.960 . S
H1749 C1735 0.961 . S
H1750 C1735 0.961 . S
H1751 C1735 0.961 . S
H1752 C1736 0.931 . S
H1753 C1741 0.930 . S
H1754 C1742 0.956 . S
H1755 C1742 0.961 . S
H1756 C1742 0.961 . S
H1757 C1743 0.958 . S
H1758 C1743 0.961 . S
H1759 C1743 0.960 . S
C1760 C1761 1.391 . S
C1760 C1762 1.394 . S
C1760 H1776 0.931 . S
C1761 C1760 1.391 . S
C1761 C1765 1.376 . S
C1762 C1760 1.394 . S
C1762 C1763 1.369 . S
C1762 C1766 1.531 . S
C1763 C1762 1.369 . S
C1763 C1764 1.410 . S
C1763 C1771 1.503 . S
C1764 C1763 1.410 . S
C1764 C1765 1.392 . S
C1764 C1767 1.511 . S
C1765 C1761 1.376 . S
C1765 C1764 1.392 . S
C1765 H1777 0.929 . S
C1766 C1762 1.531 . S
C1766 H1778 0.960 . S
C1766 H1779 0.962 . S
C1766 H1780 0.960 . S
C1767 C1764 1.511 . S
C1767 H1781 0.961 . S
C1767 H1782 0.961 . S
C1767 H1783 0.961 . S
C1768 C1769 1.370 . S
C1768 C1770 1.363 . S
C1768 H1784 0.931 . S
C1769 C1768 1.370 . S
C1769 C1773 1.408 . S
C1770 C1768 1.363 . S
C1770 C1771 1.370 . S
C1770 C1774 1.524 . S
C1771 C1763 1.503 . S
C1771 C1770 1.370 . S
C1771 C1772 1.403 . S
C1772 C1771 1.403 . S
C1772 C1773 1.404 . S
C1772 C1775 1.539 . S
C1773 C1769 1.408 . S
C1773 C1772 1.404 . S
C1773 H1785 0.930 . S
C1774 C1770 1.524 . S
C1774 H1786 0.956 . S
C1774 H1787 0.961 . S
C1774 H1788 0.961 . S
C1775 C1772 1.539 . S
C1775 H1789 0.958 . S
C1775 H1790 0.961 . S
C1775 H1791 0.960 . S
H1776 C1760 0.931 . S
H1777 C1765 0.929 . S
H1778 C1766 0.960 . S
H1779 C1766 0.962 . S
H1780 C1766 0.960 . S
H1781 C1767 0.961 . S
H1782 C1767 0.961 . S
H1783 C1767 0.961 . S
H1784 C1768 0.931 . S
H1785 C1773 0.930 . S
H1786 C1774 0.956 . S
H1787 C1774 0.961 . S
H1788 C1774 0.961 . S
H1789 C1775 0.958 . S
H1790 C1775 0.961 . S
H1791 C1775 0.960 . S
C1792 C1793 1.391 . S
C1792 C1794 1.394 . S
C1792 H1808 0.931 . S
C1793 C1792 1.391 . S
C1793 C1797 1.376 . S
C1794 C1792 1.394 . S
C1794 C1795 1.369 . S
C1794 C1798 1.531 . S
C1795 C1794 1.369 . S
C1795 C1796 1.410 . S
C1795 C1803 1.503 . S
C1796 C1795 1.410 . S
C1796 C1797 1.392 . S
C1796 C1799 1.511 . S
C1797 C1793 1.376 . S
C1797 C1796 1.392 . S
C1797 H1809 0.929 . S
C1798 C1794 1.531 . S
C1798 H1810 0.960 . S
C1798 H1811 0.962 . S
C1798 H1812 0.960 . S
C1799 C1796 1.511 . S
C1799 H1813 0.961 . S
C1799 H1814 0.961 . S
C1799 H1815 0.961 . S
C1800 C1801 1.370 . S
C1800 C1802 1.363 . S
C1800 H1816 0.931 . S
C1801 C1800 1.370 . S
C1801 C1805 1.408 . S
C1802 C1800 1.363 . S
C1802 C1803 1.370 . S
C1802 C1806 1.524 . S
C1803 C1795 1.503 . S
C1803 C1802 1.370 . S
C1803 C1804 1.403 . S
C1804 C1803 1.403 . S
C1804 C1805 1.404 . S
C1804 C1807 1.539 . S
C1805 C1801 1.408 . S
C1805 C1804 1.404 . S
C1805 H1817 0.930 . S
C1806 C1802 1.524 . S
C1806 H1818 0.956 . S
C1806 H1819 0.961 . S
C1806 H1820 0.961 . S
C1807 C1804 1.539 . S
C1807 H1821 0.958 . S
C1807 H1822 0.961 . S
C1807 H1823 0.960 . S
H1808 C1792 0.931 . S
H1809 C1797 0.929 . S
H1810 C1798 0.960 . S
H1811 C1798 0.962 . S
H1812 C1798 0.960 . S
H1813 C1799 0.961 . S
H1814 C1799 0.961 . S
H1815 C1799 0.961 . S
H1816 C1800 0.931 . S
H1817 C1805 0.930 . S
H1818 C1806 0.956 . S
H1819 C1806 0.961 . S
H1820 C1806 0.961 . S
H1821 C1807 0.958 . S
H1822 C1807 0.961 . S
H1823 C1807 0.960 . S
C1824 C1825 1.391 . S
C1824 C1826 1.394 . S
C1824 H1840 0.931 . S
C1825 C1824 1.391 . S
C1825 C1829 1.376 . S
C1826 C1824 1.394 . S
C1826 C1827 1.369 . S
C1826 C1830 1.531 . S
C1827 C1826 1.369 . S
C1827 C1828 1.410 . S
C1827 C1835 1.503 . S
C1828 C1827 1.410 . S
C1828 C1829 1.392 . S
C1828 C1831 1.511 . S
C1829 C1825 1.376 . S
C1829 C1828 1.392 . S
C1829 H1841 0.929 . S
C1830 C1826 1.531 . S
C1830 H1842 0.960 . S
C1830 H1843 0.962 . S
C1830 H1844 0.960 . S
C1831 C1828 1.511 . S
C1831 H1845 0.961 . S
C1831 H1846 0.961 . S
C1831 H1847 0.961 . S
C1832 C1833 1.370 . S
C1832 C1834 1.363 . S
C1832 H1848 0.931 . S
C1833 C1832 1.370 . S
C1833 C1837 1.408 . S
C1834 C1832 1.363 . S
C1834 C1835 1.370 . S
C1834 C1838 1.524 . S
C1835 C1827 1.503 . S
C1835 C1834 1.370 . S
C1835 C1836 1.403 . S
C1836 C1835 1.403 . S
C1836 C1837 1.404 . S
C1836 C1839 1.539 . S
C1837 C1833 1.408 . S
C1837 C1836 1.404 . S
C1837 H1849 0.930 . S
C1838 C1834 1.524 . S
C1838 H1850 0.956 . S
C1838 H1851 0.961 . S
C1838 H1852 0.961 . S
C1839 C1836 1.539 . S
C1839 H1853 0.958 . S
C1839 H1854 0.961 . S
C1839 H1855 0.960 . S
H1840 C1824 0.931 . S
H1841 C1829 0.929 . S
H1842 C1830 0.960 . S
H1843 C1830 0.962 . S
H1844 C1830 0.960 . S
H1845 C1831 0.961 . S
H1846 C1831 0.961 . S
H1847 C1831 0.961 . S
H1848 C1832 0.931 . S
H1849 C1837 0.930 . S
H1850 C1838 0.956 . S
H1851 C1838 0.961 . S
H1852 C1838 0.961 . S
H1853 C1839 0.958 . S
H1854 C1839 0.961 . S
H1855 C1839 0.960 . S
C1856 C1857 1.391 . S
C1856 C1858 1.394 . S
C1856 H1872 0.931 . S
C1857 C1856 1.391 . S
C1857 C1861 1.376 . S
C1858 C1856 1.394 . S
C1858 C1859 1.369 . S
C1858 C1862 1.531 . S
C1859 C1858 1.369 . S
C1859 C1860 1.410 . S
C1859 C1867 1.503 . S
C1860 C1859 1.410 . S
C1860 C1861 1.392 . S
C1860 C1863 1.511 . S
C1861 C1857 1.376 . S
C1861 C1860 1.392 . S
C1861 H1873 0.929 . S
C1862 C1858 1.531 . S
C1862 H1874 0.960 . S
C1862 H1875 0.962 . S
C1862 H1876 0.960 . S
C1863 C1860 1.511 . S
C1863 H1877 0.961 . S
C1863 H1878 0.961 . S
C1863 H1879 0.961 . S
C1864 C1865 1.370 . S
C1864 C1866 1.363 . S
C1864 H1880 0.931 . S
C1865 C1864 1.370 . S
C1865 C1869 1.408 . S
C1866 C1864 1.363 . S
C1866 C1867 1.370 . S
C1866 C1870 1.524 . S
C1867 C1859 1.503 . S
C1867 C1866 1.370 . S
C1867 C1868 1.403 . S
C1868 C1867 1.403 . S
C1868 C1869 1.404 . S
C1868 C1871 1.539 . S
C1869 C1865 1.408 . S
C1869 C1868 1.404 . S
C1869 H1881 0.930 . S
C1870 C1866 1.524 . S
C1870 H1882 0.956 . S
C1870 H1883 0.961 . S
C1870 H1884 0.961 . S
C1871 C1868 1.539 . S
C1871 H1885 0.958 . S
C1871 H1886 0.961 . S
C1871 H1887 0.960 . S
H1872 C1856 0.931 . S
H1873 C1861 0.929 . S
H1874 C1862 0.960 . S
H1875 C1862 0.962 . S
H1876 C1862 0.960 . S
H1877 C1863 0.961 . S
H1878 C1863 0.961 . S
H1879 C1863 0.961 . S
H1880 C1864 0.931 . S
H1881 C1869 0.930 . S
H1882 C1870 0.956 . S
H1883 C1870 0.961 . S
H1884 C1870 0.961 . S
H1885 C1871 0.958 . S
H1886 C1871 0.961 . S
H1887 C1871 0.960 . S
C1888 C1889 1.391 . S
C1888 C1890 1.394 . S
C1888 H1904 0.931 . S
C1889 C1888 1.391 . S
C1889 C1893 1.376 . S
C1890 C1888 1.394 . S
C1890 C1891 1.369 . S
C1890 C1894 1.531 . S
C1891 C1890 1.369 . S
C1891 C1892 1.410 . S
C1891 C1899 1.503 . S
C1892 C1891 1.410 . S
C1892 C1893 1.392 . S
C1892 C1895 1.511 . S
C1893 C1889 1.376 . S
C1893 C1892 1.392 . S
C1893 H1905 0.929 . S
C1894 C1890 1.531 . S
C1894 H1906 0.960 . S
C1894 H1907 0.962 . S
C1894 H1908 0.960 . S
C1895 C1892 1.511 . S
C1895 H1909 0.961 . S
C1895 H1910 0.961 . S
C1895 H1911 0.961 . S
C1896 C1897 1.370 . S
C1896 C1898 1.363 . S
C1896 H1912 0.931 . S
C1897 C1896 1.370 . S
C1897 C1901 1.408 . S
C1898 C1896 1.363 . S
C1898 C1899 1.370 . S
C1898 C1902 1.524 . S
C1899 C1891 1.503 . S
C1899 C1898 1.370 . S
C1899 C1900 1.403 . S
C1900 C1899 1.403 . S
C1900 C1901 1.404 . S
C1900 C1903 1.539 . S
C1901 C1897 1.408 . S
C1901 C1900 1.404 . S
C1901 H1913 0.930 . S
C1902 C1898 1.524 . S
C1902 H1914 0.956 . S
C1902 H1915 0.961 . S
C1902 H1916 0.961 . S
C1903 C1900 1.539 . S
C1903 H1917 0.958 . S
C1903 H1918 0.961 . S
C1903 H1919 0.960 . S
H1904 C1888 0.931 . S
H1905 C1893 0.929 . S
H1906 C1894 0.960 . S
H1907 C1894 0.962 . S
H1908 C1894 0.960 . S
H1909 C1895 0.961 . S
H1910 C1895 0.961 . S
H1911 C1895 0.961 . S
H1912 C1896 0.931 . S
H1913 C1901 0.930 . S
H1914 C1902 0.956 . S
H1915 C1902 0.961 . S
H1916 C1902 0.961 . S
H1917 C1903 0.958 . S
H1918 C1903 0.961 . S
H1919 C1903 0.960 . S
C1920 C1921 1.391 . S
C1920 C1922 1.394 1_455 S
C1920 H1936 0.931 . S
C1921 C1920 1.391 . S
C1921 C1925 1.376 . S
C1922 C1920 1.394 1_655 S
C1922 C1923 1.369 . S
C1922 C1926 1.531 . S
C1923 C1922 1.369 . S
C1923 C1924 1.410 . S
C1923 C1931 1.503 . S
C1924 C1923 1.410 . S
C1924 C1925 1.392 1_655 S
C1924 C1927 1.511 . S
C1925 C1921 1.376 . S
C1925 C1924 1.392 1_455 S
C1925 H1937 0.929 . S
C1926 C1922 1.531 . S
C1926 H1938 0.960 . S
C1926 H1939 0.962 . S
C1926 H1940 0.960 . S
C1927 C1924 1.511 . S
C1927 H1941 0.961 1_655 S
C1927 H1942 0.961 . S
C1927 H1943 0.961 . S
C1928 C1929 1.370 . S
C1928 C1930 1.363 . S
C1928 H1944 0.931 . S
C1929 C1928 1.370 . S
C1929 C1933 1.408 . S
C1930 C1928 1.363 . S
C1930 C1931 1.370 . S
C1930 C1934 1.524 . S
C1931 C1923 1.503 . S
C1931 C1930 1.370 . S
C1931 C1932 1.403 . S
C1932 C1931 1.403 . S
C1932 C1933 1.404 . S
C1932 C1935 1.539 . S
C1933 C1929 1.408 . S
C1933 C1932 1.404 . S
C1933 H1945 0.930 . S
C1934 C1930 1.524 . S
C1934 H1946 0.956 . S
C1934 H1947 0.961 . S
C1934 H1948 0.961 . S
C1935 C1932 1.539 . S
C1935 H1949 0.958 . S
C1935 H1950 0.961 . S
C1935 H1951 0.960 . S
H1936 C1920 0.931 . S
H1937 C1925 0.929 . S
H1938 C1926 0.960 . S
H1939 C1926 0.962 . S
H1940 C1926 0.960 . S
H1941 C1927 0.961 1_455 S
H1942 C1927 0.961 . S
H1943 C1927 0.961 . S
H1944 C1928 0.931 . S
H1945 C1933 0.930 . S
H1946 C1934 0.956 . S
H1947 C1934 0.961 . S
H1948 C1934 0.961 . S
H1949 C1935 0.958 . S
H1950 C1935 0.961 . S
H1951 C1935 0.960 . S
C1952 C1953 1.391 . S
C1952 C1954 1.394 . S
C1952 H1968 0.931 . S
C1953 C1952 1.391 . S
C1953 C1957 1.376 . S
C1954 C1952 1.394 . S
C1954 C1955 1.369 . S
C1954 C1958 1.531 . S
C1955 C1954 1.369 . S
C1955 C1956 1.410 . S
C1955 C1963 1.503 . S
C1956 C1955 1.410 . S
C1956 C1957 1.392 . S
C1956 C1959 1.511 . S
C1957 C1953 1.376 . S
C1957 C1956 1.392 . S
C1957 H1969 0.929 . S
C1958 C1954 1.531 . S
C1958 H1970 0.960 . S
C1958 H1971 0.962 . S
C1958 H1972 0.960 . S
C1959 C1956 1.511 . S
C1959 H1973 0.961 . S
C1959 H1974 0.961 . S
C1959 H1975 0.961 . S
C1960 C1961 1.370 . S
C1960 C1962 1.363 . S
C1960 H1976 0.931 . S
C1961 C1960 1.370 . S
C1961 C1965 1.408 . S
C1962 C1960 1.363 . S
C1962 C1963 1.370 . S
C1962 C1966 1.524 . S
C1963 C1955 1.503 . S
C1963 C1962 1.370 . S
C1963 C1964 1.403 . S
C1964 C1963 1.403 . S
C1964 C1965 1.404 . S
C1964 C1967 1.539 . S
C1965 C1961 1.408 . S
C1965 C1964 1.404 . S
C1965 H1977 0.930 . S
C1966 C1962 1.524 . S
C1966 H1978 0.956 . S
C1966 H1979 0.961 . S
C1966 H1980 0.961 . S
C1967 C1964 1.539 . S
C1967 H1981 0.958 . S
C1967 H1982 0.961 . S
C1967 H1983 0.960 . S
H1968 C1952 0.931 . S
H1969 C1957 0.929 . S
H1970 C1958 0.960 . S
H1971 C1958 0.962 . S
H1972 C1958 0.960 . S
H1973 C1959 0.961 . S
H1974 C1959 0.961 . S
H1975 C1959 0.961 . S
H1976 C1960 0.931 . S
H1977 C1965 0.930 . S
H1978 C1966 0.956 . S
H1979 C1966 0.961 . S
H1980 C1966 0.961 . S
H1981 C1967 0.958 . S
H1982 C1967 0.961 . S
H1983 C1967 0.960 . S
C1984 C1985 1.391 . S
C1984 C1986 1.394 . S
C1984 H2000 0.931 . S
C1985 C1984 1.391 . S
C1985 C1989 1.376 . S
C1986 C1984 1.394 . S
C1986 C1987 1.369 . S
C1986 C1990 1.531 . S
C1987 C1986 1.369 . S
C1987 C1988 1.410 . S
C1987 C1995 1.503 . S
C1988 C1987 1.410 . S
C1988 C1989 1.392 . S
C1988 C1991 1.511 . S
C1989 C1985 1.376 . S
C1989 C1988 1.392 . S
C1989 H2001 0.929 . S
C1990 C1986 1.531 . S
C1990 H2002 0.960 . S
C1990 H2003 0.962 . S
C1990 H2004 0.960 . S
C1991 C1988 1.511 . S
C1991 H2005 0.961 . S
C1991 H2006 0.961 . S
C1991 H2007 0.961 . S
C1992 C1993 1.370 . S
C1992 C1994 1.363 . S
C1992 H2008 0.931 . S
C1993 C1992 1.370 . S
C1993 C1997 1.408 . S
C1994 C1992 1.363 . S
C1994 C1995 1.370 . S
C1994 C1998 1.524 . S
C1995 C1987 1.503 . S
C1995 C1994 1.370 . S
C1995 C1996 1.403 . S
C1996 C1995 1.403 . S
C1996 C1997 1.404 . S
C1996 C1999 1.539 . S
C1997 C1993 1.408 . S
C1997 C1996 1.404 . S
C1997 H2009 0.930 . S
C1998 C1994 1.524 . S
C1998 H2010 0.956 . S
C1998 H2011 0.961 . S
C1998 H2012 0.961 . S
C1999 C1996 1.539 . S
C1999 H2013 0.958 . S
C1999 H2014 0.961 . S
C1999 H2015 0.960 . S
H2000 C1984 0.931 . S
H2001 C1989 0.929 . S
H2002 C1990 0.960 . S
H2003 C1990 0.962 . S
H2004 C1990 0.960 . S
H2005 C1991 0.961 . S
H2006 C1991 0.961 . S
H2007 C1991 0.961 . S
H2008 C1992 0.931 . S
H2009 C1997 0.930 . S
H2010 C1998 0.956 . S
H2011 C1998 0.961 . S
H2012 C1998 0.961 . S
H2013 C1999 0.958 . S
H2014 C1999 0.961 . S
H2015 C1999 0.960 . S
C2016 C2017 1.391 . S
C2016 C2018 1.394 . S
C2016 H2032 0.931 . S
C2017 C2016 1.391 . S
C2017 C2021 1.376 . S
C2018 C2016 1.394 . S
C2018 C2019 1.369 . S
C2018 C2022 1.531 . S
C2019 C2018 1.369 . S
C2019 C2020 1.410 . S
C2019 C2027 1.503 . S
C2020 C2019 1.410 . S
C2020 C2021 1.392 . S
C2020 C2023 1.511 . S
C2021 C2017 1.376 . S
C2021 C2020 1.392 . S
C2021 H2033 0.929 . S
C2022 C2018 1.531 . S
C2022 H2034 0.960 . S
C2022 H2035 0.962 . S
C2022 H2036 0.960 . S
C2023 C2020 1.511 . S
C2023 H2037 0.961 . S
C2023 H2038 0.961 . S
C2023 H2039 0.961 . S
C2024 C2025 1.370 . S
C2024 C2026 1.363 . S
C2024 H2040 0.931 . S
C2025 C2024 1.370 . S
C2025 C2029 1.408 . S
C2026 C2024 1.363 . S
C2026 C2027 1.370 . S
C2026 C2030 1.524 . S
C2027 C2019 1.503 . S
C2027 C2026 1.370 . S
C2027 C2028 1.403 . S
C2028 C2027 1.403 . S
C2028 C2029 1.404 . S
C2028 C2031 1.539 . S
C2029 C2025 1.408 . S
C2029 C2028 1.404 . S
C2029 H2041 0.930 . S
C2030 C2026 1.524 . S
C2030 H2042 0.956 . S
C2030 H2043 0.961 . S
C2030 H2044 0.961 . S
C2031 C2028 1.539 . S
C2031 H2045 0.958 . S
C2031 H2046 0.961 . S
C2031 H2047 0.960 . S
H2032 C2016 0.931 . S
H2033 C2021 0.929 . S
H2034 C2022 0.960 . S
H2035 C2022 0.962 . S
H2036 C2022 0.960 . S
H2037 C2023 0.961 . S
H2038 C2023 0.961 . S
H2039 C2023 0.961 . S
H2040 C2024 0.931 . S
H2041 C2029 0.930 . S
H2042 C2030 0.956 . S
H2043 C2030 0.961 . S
H2044 C2030 0.961 . S
H2045 C2031 0.958 . S
H2046 C2031 0.961 . S
H2047 C2031 0.960 . S
C2048 C2049 1.391 . S
C2048 C2050 1.394 . S
C2048 H2064 0.931 . S
C2049 C2048 1.391 . S
C2049 C2053 1.376 . S
C2050 C2048 1.394 . S
C2050 C2051 1.369 . S
C2050 C2054 1.531 . S
C2051 C2050 1.369 . S
C2051 C2052 1.410 . S
C2051 C2059 1.503 . S
C2052 C2051 1.410 . S
C2052 C2053 1.392 . S
C2052 C2055 1.511 . S
C2053 C2049 1.376 . S
C2053 C2052 1.392 . S
C2053 H2065 0.929 . S
C2054 C2050 1.531 . S
C2054 H2066 0.960 . S
C2054 H2067 0.962 . S
C2054 H2068 0.960 . S
C2055 C2052 1.511 . S
C2055 H2069 0.961 . S
C2055 H2070 0.961 . S
C2055 H2071 0.961 . S
C2056 C2057 1.370 . S
C2056 C2058 1.363 1_455 S
C2056 H2072 0.931 . S
C2057 C2056 1.370 . S
C2057 C2061 1.408 . S
C2058 C2056 1.363 1_655 S
C2058 C2059 1.370 . S
C2058 C2062 1.524 . S
C2059 C2051 1.503 . S
C2059 C2058 1.370 . S
C2059 C2060 1.403 . S
C2060 C2059 1.403 . S
C2060 C2061 1.404 1_655 S
C2060 C2063 1.539 . S
C2061 C2057 1.408 . S
C2061 C2060 1.404 1_455 S
C2061 H2073 0.930 . S
C2062 C2058 1.524 . S
C2062 H2074 0.956 . S
C2062 H2075 0.961 . S
C2062 H2076 0.940 1_655 S
C2063 C2060 1.539 . S
C2063 H2077 0.958 . S
C2063 H2078 0.961 . S
C2063 H2079 0.960 . S
H2064 C2048 0.931 . S
H2065 C2053 0.929 . S
H2066 C2054 0.960 . S
H2067 C2054 0.962 . S
H2068 C2054 0.960 . S
H2069 C2055 0.961 . S
H2070 C2055 0.961 . S
H2071 C2055 0.961 . S
H2072 C2056 0.931 . S
H2073 C2061 0.930 . S
H2074 C2062 0.956 . S
H2075 C2062 0.961 . S
H2076 C2062 0.940 1_455 S
H2077 C2063 0.958 . S
H2078 C2063 0.961 . S
H2079 C2063 0.960 . S
C2080 C2081 1.391 . S
C2080 C2082 1.394 . S
C2080 H2096 0.931 . S
C2081 C2080 1.391 . S
C2081 C2085 1.376 . S
C2082 C2080 1.394 . S
C2082 C2083 1.369 . S
C2082 C2086 1.531 . S
C2083 C2082 1.369 . S
C2083 C2084 1.410 . S
C2083 C2091 1.503 . S
C2084 C2083 1.410 . S
C2084 C2085 1.392 . S
C2084 C2087 1.511 . S
C2085 C2081 1.376 . S
C2085 C2084 1.392 . S
C2085 H2097 0.929 . S
C2086 C2082 1.531 . S
C2086 H2098 0.960 . S
C2086 H2099 0.962 . S
C2086 H2100 0.960 . S
C2087 C2084 1.511 . S
C2087 H2101 0.961 . S
C2087 H2102 0.961 . S
C2087 H2103 0.961 . S
C2088 C2089 1.370 . S
C2088 C2090 1.363 . S
C2088 H2104 0.931 . S
C2089 C2088 1.370 . S
C2089 C2093 1.408 . S
C2090 C2088 1.363 . S
C2090 C2091 1.370 . S
C2090 C2094 1.524 . S
C2091 C2083 1.503 . S
C2091 C2090 1.370 . S
C2091 C2092 1.403 . S
C2092 C2091 1.403 . S
C2092 C2093 1.404 . S
C2092 C2095 1.539 . S
C2093 C2089 1.408 . S
C2093 C2092 1.404 . S
C2093 H2105 0.930 . S
C2094 C2090 1.524 . S
C2094 H2106 0.956 . S
C2094 H2107 0.961 . S
C2094 H2108 0.961 . S
C2095 C2092 1.539 . S
C2095 H2109 0.958 . S
C2095 H2110 0.961 . S
C2095 H2111 0.960 . S
H2096 C2080 0.931 . S
H2097 C2085 0.929 . S
H2098 C2086 0.960 . S
H2099 C2086 0.962 . S
H2100 C2086 0.960 . S
H2101 C2087 0.961 . S
H2102 C2087 0.961 . S
H2103 C2087 0.961 . S
H2104 C2088 0.931 . S
H2105 C2093 0.930 . S
H2106 C2094 0.956 . S
H2107 C2094 0.961 . S
H2108 C2094 0.961 . S
H2109 C2095 0.958 . S
H2110 C2095 0.961 . S
H2111 C2095 0.960 . S
C2112 C2113 1.391 . S
C2112 C2114 1.394 1_455 S
C2112 H2128 0.931 . S
C2113 C2112 1.391 . S
C2113 C2117 1.376 . S
C2114 C2112 1.394 1_655 S
C2114 C2115 1.369 . S
C2114 C2118 1.531 . S
C2115 C2114 1.369 . S
C2115 C2116 1.410 . S
C2115 C2123 1.503 . S
C2116 C2115 1.410 . S
C2116 C2117 1.392 1_655 S
C2116 C2119 1.511 . S
C2117 C2113 1.376 . S
C2117 C2116 1.392 1_455 S
C2117 H2129 0.929 . S
C2118 C2114 1.531 . S
C2118 H2130 0.960 . S
C2118 H2131 0.962 . S
C2118 H2132 0.960 . S
C2119 C2116 1.511 . S
C2119 H2133 0.946 1_655 S
C2119 H2134 0.961 . S
C2119 H2135 0.961 . S
C2120 C2121 1.370 . S
C2120 C2122 1.363 . S
C2120 H2136 0.931 . S
C2121 C2120 1.370 . S
C2121 C2125 1.408 . S
C2122 C2120 1.363 . S
C2122 C2123 1.370 . S
C2122 C2126 1.524 . S
C2123 C2115 1.503 . S
C2123 C2122 1.370 . S
C2123 C2124 1.403 . S
C2124 C2123 1.403 . S
C2124 C2125 1.404 . S
C2124 C2127 1.539 . S
C2125 C2121 1.408 . S
C2125 C2124 1.404 . S
C2125 H2137 0.930 . S
C2126 C2122 1.524 . S
C2126 H2138 0.956 . S
C2126 H2139 0.961 . S
C2126 H2140 0.961 . S
C2127 C2124 1.539 . S
C2127 H2141 0.958 . S
C2127 H2142 0.961 . S
C2127 H2143 0.960 . S
H2128 C2112 0.931 . S
H2129 C2117 0.929 . S
H2130 C2118 0.960 . S
H2131 C2118 0.962 . S
H2132 C2118 0.960 . S
H2133 C2119 0.946 1_455 S
H2134 C2119 0.961 . S
H2135 C2119 0.961 . S
H2136 C2120 0.931 . S
H2137 C2125 0.930 . S
H2138 C2126 0.956 . S
H2139 C2126 0.961 . S
H2140 C2126 0.961 . S
H2141 C2127 0.958 . S
H2142 C2127 0.961 . S
H2143 C2127 0.960 . S
C2144 C2145 1.391 . S
C2144 C2146 1.394 . S
C2144 H2160 0.931 . S
C2145 C2144 1.391 . S
C2145 C2149 1.376 . S
C2146 C2144 1.394 . S
C2146 C2147 1.369 . S
C2146 C2150 1.531 . S
C2147 C2146 1.369 . S
C2147 C2148 1.410 . S
C2147 C2155 1.503 . S
C2148 C2147 1.410 . S
C2148 C2149 1.392 . S
C2148 C2151 1.511 . S
C2149 C2145 1.376 . S
C2149 C2148 1.392 . S
C2149 H2161 0.929 . S
C2150 C2146 1.531 . S
C2150 H2162 0.960 . S
C2150 H2163 0.962 . S
C2150 H2164 0.960 . S
C2151 C2148 1.511 . S
C2151 H2165 0.961 . S
C2151 H2166 0.961 . S
C2151 H2167 0.961 . S
C2152 C2153 1.370 . S
C2152 C2154 1.363 . S
C2152 H2168 0.931 . S
C2153 C2152 1.370 . S
C2153 C2157 1.408 . S
C2154 C2152 1.363 . S
C2154 C2155 1.370 . S
C2154 C2158 1.524 . S
C2155 C2147 1.503 . S
C2155 C2154 1.370 . S
C2155 C2156 1.403 . S
C2156 C2155 1.403 . S
C2156 C2157 1.404 . S
C2156 C2159 1.539 . S
C2157 C2153 1.408 . S
C2157 C2156 1.404 . S
C2157 H2169 0.930 . S
C2158 C2154 1.524 . S
C2158 H2170 0.956 . S
C2158 H2171 0.961 . S
C2158 H2172 0.961 . S
C2159 C2156 1.539 . S
C2159 H2173 0.958 . S
C2159 H2174 0.961 . S
C2159 H2175 0.960 . S
H2160 C2144 0.931 . S
H2161 C2149 0.929 . S
H2162 C2150 0.960 . S
H2163 C2150 0.962 . S
H2164 C2150 0.960 . S
H2165 C2151 0.961 . S
H2166 C2151 0.961 . S
H2167 C2151 0.961 . S
H2168 C2152 0.931 . S
H2169 C2157 0.930 . S
H2170 C2158 0.956 . S
H2171 C2158 0.961 . S
H2172 C2158 0.961 . S
H2173 C2159 0.958 . S
H2174 C2159 0.961 . S
H2175 C2159 0.960 . S
C2176 C2177 1.391 . S
C2176 C2178 1.394 . S
C2176 H2192 0.931 . S
C2177 C2176 1.391 . S
C2177 C2181 1.376 . S
C2178 C2176 1.394 . S
C2178 C2179 1.369 . S
C2178 C2182 1.531 . S
C2179 C2178 1.369 . S
C2179 C2180 1.410 . S
C2179 C2187 1.503 . S
C2180 C2179 1.410 . S
C2180 C2181 1.392 . S
C2180 C2183 1.511 . S
C2181 C2177 1.376 . S
C2181 C2180 1.392 . S
C2181 H2193 0.929 . S
C2182 C2178 1.531 . S
C2182 H2194 0.960 . S
C2182 H2195 0.962 . S
C2182 H2196 0.960 . S
C2183 C2180 1.511 . S
C2183 H2197 0.961 . S
C2183 H2198 0.961 . S
C2183 H2199 0.961 . S
C2184 C2185 1.370 . S
C2184 C2186 1.363 . S
C2184 H2200 0.931 . S
C2185 C2184 1.370 . S
C2185 C2189 1.408 . S
C2186 C2184 1.363 . S
C2186 C2187 1.370 . S
C2186 C2190 1.524 . S
C2187 C2179 1.503 . S
C2187 C2186 1.370 . S
C2187 C2188 1.403 . S
C2188 C2187 1.403 . S
C2188 C2189 1.404 . S
C2188 C2191 1.539 . S
C2189 C2185 1.408 . S
C2189 C2188 1.404 . S
C2189 H2201 0.930 . S
C2190 C2186 1.524 . S
C2190 H2202 0.956 . S
C2190 H2203 0.961 . S
C2190 H2204 0.961 . S
C2191 C2188 1.539 . S
C2191 H2205 0.958 . S
C2191 H2206 0.961 . S
C2191 H2207 0.960 . S
H2192 C2176 0.931 . S
H2193 C2181 0.929 . S
H2194 C2182 0.960 . S
H2195 C2182 0.962 . S
H2196 C2182 0.960 . S
H2197 C2183 0.961 . S
H2198 C2183 0.961 . S
H2199 C2183 0.961 . S
H2200 C2184 0.931 . S
H2201 C2189 0.930 . S
H2202 C2190 0.956 . S
H2203 C2190 0.961 . S
H2204 C2190 0.961 . S
H2205 C2191 0.958 . S
H2206 C2191 0.961 . S
H2207 C2191 0.960 . S
C2208 C2209 1.391 . S
C2208 C2210 1.394 . S
C2208 H2224 0.931 . S
C2209 C2208 1.391 . S
C2209 C2213 1.376 . S
C2210 C2208 1.394 . S
C2210 C2211 1.369 . S
C2210 C2214 1.531 . S
C2211 C2210 1.369 . S
C2211 C2212 1.410 . S
C2211 C2219 1.503 . S
C2212 C2211 1.410 . S
C2212 C2213 1.392 . S
C2212 C2215 1.511 . S
C2213 C2209 1.376 . S
C2213 C2212 1.392 . S
C2213 H2225 0.929 . S
C2214 C2210 1.531 . S
C2214 H2226 0.960 . S
C2214 H2227 0.962 . S
C2214 H2228 0.960 . S
C2215 C2212 1.511 . S
C2215 H2229 0.961 . S
C2215 H2230 0.961 . S
C2215 H2231 0.961 . S
C2216 C2217 1.370 . S
C2216 C2218 1.363 . S
C2216 H2232 0.931 . S
C2217 C2216 1.370 . S
C2217 C2221 1.408 . S
C2218 C2216 1.363 . S
C2218 C2219 1.370 . S
C2218 C2222 1.524 . S
C2219 C2211 1.503 . S
C2219 C2218 1.370 . S
C2219 C2220 1.403 . S
C2220 C2219 1.403 . S
C2220 C2221 1.404 . S
C2220 C2223 1.539 . S
C2221 C2217 1.408 . S
C2221 C2220 1.404 . S
C2221 H2233 0.930 . S
C2222 C2218 1.524 . S
C2222 H2234 0.956 . S
C2222 H2235 0.961 . S
C2222 H2236 0.961 . S
C2223 C2220 1.539 . S
C2223 H2237 0.958 . S
C2223 H2238 0.961 . S
C2223 H2239 0.960 . S
H2224 C2208 0.931 . S
H2225 C2213 0.929 . S
H2226 C2214 0.960 . S
H2227 C2214 0.962 . S
H2228 C2214 0.960 . S
H2229 C2215 0.961 . S
H2230 C2215 0.961 . S
H2231 C2215 0.961 . S
H2232 C2216 0.931 . S
H2233 C2221 0.930 . S
H2234 C2222 0.956 . S
H2235 C2222 0.961 . S
H2236 C2222 0.961 . S
H2237 C2223 0.958 . S
H2238 C2223 0.961 . S
H2239 C2223 0.960 . S
C2240 C2241 1.391 . S
C2240 C2242 1.394 . S
C2240 H2256 0.931 . S
C2241 C2240 1.391 . S
C2241 C2245 1.376 . S
C2242 C2240 1.394 . S
C2242 C2243 1.369 . S
C2242 C2246 1.531 . S
C2243 C2242 1.369 . S
C2243 C2244 1.410 . S
C2243 C2251 1.503 . S
C2244 C2243 1.410 . S
C2244 C2245 1.392 . S
C2244 C2247 1.511 . S
C2245 C2241 1.376 . S
C2245 C2244 1.392 . S
C2245 H2257 0.929 . S
C2246 C2242 1.531 . S
C2246 H2258 0.960 . S
C2246 H2259 0.962 . S
C2246 H2260 0.960 . S
C2247 C2244 1.511 . S
C2247 H2261 0.961 . S
C2247 H2262 0.961 . S
C2247 H2263 0.961 . S
C2248 C2249 1.370 . S
C2248 C2250 1.363 . S
C2248 H2264 0.931 . S
C2249 C2248 1.370 . S
C2249 C2253 1.408 . S
C2250 C2248 1.363 . S
C2250 C2251 1.370 . S
C2250 C2254 1.524 . S
C2251 C2243 1.503 . S
C2251 C2250 1.370 . S
C2251 C2252 1.403 . S
C2252 C2251 1.403 . S
C2252 C2253 1.404 . S
C2252 C2255 1.539 . S
C2253 C2249 1.408 . S
C2253 C2252 1.404 . S
C2253 H2265 0.930 . S
C2254 C2250 1.524 . S
C2254 H2266 0.956 . S
C2254 H2267 0.961 . S
C2254 H2268 0.961 . S
C2255 C2252 1.539 . S
C2255 H2269 0.958 . S
C2255 H2270 0.961 . S
C2255 H2271 0.960 . S
H2256 C2240 0.931 . S
H2257 C2245 0.929 . S
H2258 C2246 0.960 . S
H2259 C2246 0.962 . S
H2260 C2246 0.960 . S
H2261 C2247 0.961 . S
H2262 C2247 0.961 . S
H2263 C2247 0.961 . S
H2264 C2248 0.931 . S
H2265 C2253 0.930 . S
H2266 C2254 0.956 . S
H2267 C2254 0.961 . S
H2268 C2254 0.961 . S
H2269 C2255 0.958 . S
H2270 C2255 0.961 . S
H2271 C2255 0.960 . S
C2272 C2273 1.391 . S
C2272 C2274 1.394 . S
C2272 H2288 0.931 . S
C2273 C2272 1.391 . S
C2273 C2277 1.376 . S
C2274 C2272 1.394 . S
C2274 C2275 1.369 . S
C2274 C2278 1.531 . S
C2275 C2274 1.369 . S
C2275 C2276 1.410 . S
C2275 C2283 1.503 . S
C2276 C2275 1.410 . S
C2276 C2277 1.392 . S
C2276 C2279 1.511 . S
C2277 C2273 1.376 . S
C2277 C2276 1.392 . S
C2277 H2289 0.929 . S
C2278 C2274 1.531 . S
C2278 H2290 0.960 . S
C2278 H2291 0.962 . S
C2278 H2292 0.960 . S
C2279 C2276 1.511 . S
C2279 H2293 0.961 . S
C2279 H2294 0.961 . S
C2279 H2295 0.961 . S
C2280 C2281 1.370 . S
C2280 C2282 1.363 . S
C2280 H2296 0.931 . S
C2281 C2280 1.370 . S
C2281 C2285 1.408 . S
C2282 C2280 1.363 . S
C2282 C2283 1.370 . S
C2282 C2286 1.524 . S
C2283 C2275 1.503 . S
C2283 C2282 1.370 . S
C2283 C2284 1.403 . S
C2284 C2283 1.403 . S
C2284 C2285 1.404 . S
C2284 C2287 1.539 . S
C2285 C2281 1.408 . S
C2285 C2284 1.404 . S
C2285 H2297 0.930 . S
C2286 C2282 1.524 . S
C2286 H2298 0.956 . S
C2286 H2299 0.961 . S
C2286 H2300 0.961 . S
C2287 C2284 1.539 . S
C2287 H2301 0.958 . S
C2287 H2302 0.961 . S
C2287 H2303 0.960 . S
H2288 C2272 0.931 . S
H2289 C2277 0.929 . S
H2290 C2278 0.960 . S
H2291 C2278 0.962 . S
H2292 C2278 0.960 . S
H2293 C2279 0.961 . S
H2294 C2279 0.961 . S
H2295 C2279 0.961 . S
H2296 C2280 0.931 . S
H2297 C2285 0.930 . S
H2298 C2286 0.956 . S
H2299 C2286 0.961 . S
H2300 C2286 0.961 . S
H2301 C2287 0.958 . S
H2302 C2287 0.961 . S
H2303 C2287 0.960 . S
C2304 C2305 1.391 . S
C2304 C2306 1.394 1_655 S
C2304 H2320 0.931 . S
C2305 C2304 1.391 . S
C2305 C2309 1.376 . S
C2306 C2304 1.394 1_455 S
C2306 C2307 1.369 . S
C2306 C2310 1.531 . S
C2307 C2306 1.369 . S
C2307 C2308 1.410 . S
C2307 C2315 1.503 . S
C2308 C2307 1.410 . S
C2308 C2309 1.392 1_455 S
C2308 C2311 1.511 . S
C2309 C2305 1.376 . S
C2309 C2308 1.392 1_655 S
C2309 H2321 0.929 . S
C2310 C2306 1.531 . S
C2310 H2322 0.960 . S
C2310 H2323 0.962 . S
C2310 H2324 0.960 . S
C2311 C2308 1.511 . S
C2311 H2325 0.961 1_455 S
C2311 H2326 0.961 . S
C2311 H2327 0.961 . S
C2312 C2313 1.370 . S
C2312 C2314 1.363 . S
C2312 H2328 0.931 . S
C2313 C2312 1.370 . S
C2313 C2317 1.408 . S
C2314 C2312 1.363 . S
C2314 C2315 1.370 . S
C2314 C2318 1.524 . S
C2315 C2307 1.503 . S
C2315 C2314 1.370 . S
C2315 C2316 1.403 . S
C2316 C2315 1.403 . S
C2316 C2317 1.404 . S
C2316 C2319 1.539 . S
C2317 C2313 1.408 . S
C2317 C2316 1.404 . S
C2317 H2329 0.930 . S
C2318 C2314 1.524 . S
C2318 H2330 0.956 . S
C2318 H2331 0.961 . S
C2318 H2332 0.961 . S
C2319 C2316 1.539 . S
C2319 H2333 0.958 . S
C2319 H2334 0.961 . S
C2319 H2335 0.960 . S
H2320 C2304 0.931 . S
H2321 C2309 0.929 . S
H2322 C2310 0.960 . S
H2323 C2310 0.962 . S
H2324 C2310 0.960 . S
H2325 C2311 0.961 1_655 S
H2326 C2311 0.961 . S
H2327 C2311 0.961 . S
H2328 C2312 0.931 . S
H2329 C2317 0.930 . S
H2330 C2318 0.956 . S
H2331 C2318 0.961 . S
H2332 C2318 0.961 . S
H2333 C2319 0.958 . S
H2334 C2319 0.961 . S
H2335 C2319 0.960 . S
C2336 C2337 1.391 . S
C2336 C2338 1.394 . S
C2336 H2352 0.931 . S
C2337 C2336 1.391 . S
C2337 C2341 1.376 . S
C2338 C2336 1.394 . S
C2338 C2339 1.369 . S
C2338 C2342 1.531 . S
C2339 C2338 1.369 . S
C2339 C2340 1.410 . S
C2339 C2347 1.503 . S
C2340 C2339 1.410 . S
C2340 C2341 1.392 . S
C2340 C2343 1.511 . S
C2341 C2337 1.376 . S
C2341 C2340 1.392 . S
C2341 H2353 0.929 . S
C2342 C2338 1.531 . S
C2342 H2354 0.960 . S
C2342 H2355 0.962 . S
C2342 H2356 0.960 . S
C2343 C2340 1.511 . S
C2343 H2357 0.961 . S
C2343 H2358 0.961 . S
C2343 H2359 0.961 . S
C2344 C2345 1.370 . S
C2344 C2346 1.363 . S
C2344 H2360 0.931 . S
C2345 C2344 1.370 . S
C2345 C2349 1.408 . S
C2346 C2344 1.363 . S
C2346 C2347 1.370 . S
C2346 C2350 1.524 . S
C2347 C2339 1.503 . S
C2347 C2346 1.370 . S
C2347 C2348 1.403 . S
C2348 C2347 1.403 . S
C2348 C2349 1.404 . S
C2348 C2351 1.539 . S
C2349 C2345 1.408 . S
C2349 C2348 1.404 . S
C2349 H2361 0.930 . S
C2350 C2346 1.524 . S
C2350 H2362 0.956 . S
C2350 H2363 0.961 . S
C2350 H2364 0.961 . S
C2351 C2348 1.539 . S
C2351 H2365 0.958 . S
C2351 H2366 0.961 . S
C2351 H2367 0.960 . S
H2352 C2336 0.931 . S
H2353 C2341 0.929 . S
H2354 C2342 0.960 . S
H2355 C2342 0.962 . S
H2356 C2342 0.960 . S
H2357 C2343 0.961 . S
H2358 C2343 0.961 . S
H2359 C2343 0.961 . S
H2360 C2344 0.931 . S
H2361 C2349 0.930 . S
H2362 C2350 0.956 . S
H2363 C2350 0.961 . S
H2364 C2350 0.961 . S
H2365 C2351 0.958 . S
H2366 C2351 0.961 . S
H2367 C2351 0.960 . S
C2368 C2369 1.391 . S
C2368 C2370 1.394 . S
C2368 H2384 0.931 . S
C2369 C2368 1.391 . S
C2369 C2373 1.376 . S
C2370 C2368 1.394 . S
C2370 C2371 1.369 . S
C2370 C2374 1.531 . S
C2371 C2370 1.369 . S
C2371 C2372 1.410 . S
C2371 C2379 1.503 . S
C2372 C2371 1.410 . S
C2372 C2373 1.392 . S
C2372 C2375 1.511 . S
C2373 C2369 1.376 . S
C2373 C2372 1.392 . S
C2373 H2385 0.929 . S
C2374 C2370 1.531 . S
C2374 H2386 0.960 . S
C2374 H2387 0.962 . S
C2374 H2388 0.960 . S
C2375 C2372 1.511 . S
C2375 H2389 0.961 . S
C2375 H2390 0.961 . S
C2375 H2391 0.961 . S
C2376 C2377 1.370 . S
C2376 C2378 1.363 1_655 S
C2376 H2392 0.931 . S
C2377 C2376 1.370 . S
C2377 C2381 1.408 . S
C2378 C2376 1.363 1_455 S
C2378 C2379 1.370 . S
C2378 C2382 1.524 . S
C2379 C2371 1.503 . S
C2379 C2378 1.370 . S
C2379 C2380 1.403 . S
C2380 C2379 1.403 . S
C2380 C2381 1.404 1_455 S
C2380 C2383 1.539 . S
C2381 C2377 1.408 . S
C2381 C2380 1.404 1_655 S
C2381 H2393 0.930 . S
C2382 C2378 1.524 . S
C2382 H2394 0.956 . S
C2382 H2395 0.961 . S
C2382 H2396 0.961 . S
C2383 C2380 1.539 . S
C2383 H2397 0.958 . S
C2383 H2398 0.961 . S
C2383 H2399 0.960 . S
H2384 C2368 0.931 . S
H2385 C2373 0.929 . S
H2386 C2374 0.960 . S
H2387 C2374 0.962 . S
H2388 C2374 0.960 . S
H2389 C2375 0.961 . S
H2390 C2375 0.961 . S
H2391 C2375 0.961 . S
H2392 C2376 0.931 . S
H2393 C2381 0.930 . S
H2394 C2382 0.956 . S
H2395 C2382 0.961 . S
H2396 C2382 0.961 . S
H2397 C2383 0.958 . S
H2398 C2383 0.961 . S
H2399 C2383 0.960 . S
C2400 C2401 1.391 . S
C2400 C2402 1.394 . S
C2400 H2416 0.931 . S
C2401 C2400 1.391 . S
C2401 C2405 1.376 . S
C2402 C2400 1.394 . S
C2402 C2403 1.369 . S
C2402 C2406 1.531 . S
C2403 C2402 1.369 . S
C2403 C2404 1.410 . S
C2403 C2411 1.503 . S
C2404 C2403 1.410 . S
C2404 C2405 1.392 . S
C2404 C2407 1.511 . S
C2405 C2401 1.376 . S
C2405 C2404 1.392 . S
C2405 H2417 0.929 . S
C2406 C2402 1.531 . S
C2406 H2418 0.960 . S
C2406 H2419 0.962 . S
C2406 H2420 0.960 . S
C2407 C2404 1.511 . S
C2407 H2421 0.961 . S
C2407 H2422 0.961 . S
C2407 H2423 0.961 . S
C2408 C2409 1.370 . S
C2408 C2410 1.363 . S
C2408 H2424 0.931 . S
C2409 C2408 1.370 . S
C2409 C2413 1.408 . S
C2410 C2408 1.363 . S
C2410 C2411 1.370 . S
C2410 C2414 1.524 . S
C2411 C2403 1.503 . S
C2411 C2410 1.370 . S
C2411 C2412 1.403 . S
C2412 C2411 1.403 . S
C2412 C2413 1.404 . S
C2412 C2415 1.539 . S
C2413 C2409 1.408 . S
C2413 C2412 1.404 . S
C2413 H2425 0.930 . S
C2414 C2410 1.524 . S
C2414 H2426 0.956 . S
C2414 H2427 0.961 . S
C2414 H2428 0.961 . S
C2415 C2412 1.539 . S
C2415 H2429 0.958 . S
C2415 H2430 0.961 . S
C2415 H2431 0.960 . S
H2416 C2400 0.931 . S
H2417 C2405 0.929 . S
H2418 C2406 0.960 . S
H2419 C2406 0.962 . S
H2420 C2406 0.960 . S
H2421 C2407 0.961 . S
H2422 C2407 0.961 . S
H2423 C2407 0.961 . S
H2424 C2408 0.931 . S
H2425 C2413 0.930 . S
H2426 C2414 0.956 . S
H2427 C2414 0.961 . S
H2428 C2414 0.961 . S
H2429 C2415 0.958 . S
H2430 C2415 0.961 . S
H2431 C2415 0.960 . S
C2432 C2433 1.391 . S
C2432 C2434 1.394 . S
C2432 H2448 0.931 . S
C2433 C2432 1.391 . S
C2433 C2437 1.376 . S
C2434 C2432 1.394 . S
C2434 C2435 1.369 . S
C2434 C2438 1.531 . S
C2435 C2434 1.369 . S
C2435 C2436 1.410 . S
C2435 C2443 1.503 . S
C2436 C2435 1.410 . S
C2436 C2437 1.392 . S
C2436 C2439 1.511 . S
C2437 C2433 1.376 . S
C2437 C2436 1.392 . S
C2437 H2449 0.929 . S
C2438 C2434 1.531 . S
C2438 H2450 0.960 . S
C2438 H2451 0.962 . S
C2438 H2452 0.960 . S
C2439 C2436 1.511 . S
C2439 H2453 0.961 . S
C2439 H2454 0.961 . S
C2439 H2455 0.961 . S
C2440 C2441 1.370 . S
C2440 C2442 1.363 . S
C2440 H2456 0.931 . S
C2441 C2440 1.370 . S
C2441 C2445 1.408 . S
C2442 C2440 1.363 . S
C2442 C2443 1.370 . S
C2442 C2446 1.524 . S
C2443 C2435 1.503 . S
C2443 C2442 1.370 . S
C2443 C2444 1.403 . S
C2444 C2443 1.403 . S
C2444 C2445 1.404 . S
C2444 C2447 1.539 . S
C2445 C2441 1.408 . S
C2445 C2444 1.404 . S
C2445 H2457 0.930 . S
C2446 C2442 1.524 . S
C2446 H2458 0.956 . S
C2446 H2459 0.961 . S
C2446 H2460 0.961 . S
C2447 C2444 1.539 . S
C2447 H2461 0.958 . S
C2447 H2462 0.961 . S
C2447 H2463 0.960 . S
H2448 C2432 0.931 . S
H2449 C2437 0.929 . S
H2450 C2438 0.960 . S
H2451 C2438 0.962 . S
H2452 C2438 0.960 . S
H2453 C2439 0.961 . S
H2454 C2439 0.961 . S
H2455 C2439 0.961 . S
H2456 C2440 0.931 . S
H2457 C2445 0.930 . S
H2458 C2446 0.956 . S
H2459 C2446 0.961 . S
H2460 C2446 0.961 . S
H2461 C2447 0.958 . S
H2462 C2447 0.961 . S
H2463 C2447 0.960 . S
C417 C62 1.498 . S
C425 C4 1.502 . S
C449 C69 1.499 . S
C457 C23 1.502 . S
C481 C82 1.502 . S
C489 C30 1.504 . S
C513 C49 1.503 . S
C521 C101 1.504 . S
C545 C108 1.500 . S
C553 C166 1.502 . S
C577 C179 1.503 . S
C585 C121 1.504 . S
C609 C140 1.497 . S
C617 C192 1.501 . S
C641 C199 1.503 . S
C649 C147 1.504 . S
C673 C218 1.502 . S
C681 C264 1.503 . S
C705 C283 1.501 . S
C713 C231 1.503 . S
C737 C296 1.503 . S
C745 C244 1.505 . S
C769 C309 1.495 . S
C777 C257 1.501 . S
C801 C322 1.496 . S
C809 C374 1.501 . S
C833 C335 1.495 . S
C841 C381 1.502 . S
C865 C342 1.501 . S
C873 C400 1.504 . S
C897 C355 1.495 . S
C905 C407 1.502 . S
C929 C10 1.507 . S
C937 C95 1.515 . S
C961 C17 1.507 . S
C969 C56 1.513 . S
C993 C36 1.507 . S
C1001 C75 1.515 . S
C1025 C88 1.511 . S
C1033 C43 1.512 . S
C1057 C205 1.508 . S
C1065 C114 1.512 . S
C1089 C160 1.513 . S
C1097 C127 1.515 . S
C1121 C173 1.506 . S
C1129 C134 1.514 . S
C1153 C153 1.510 . S
C1161 C186 1.516 . S
C1185 C303 1.511 . S
C1193 C212 1.512 . S
C1217 C270 1.506 . S
C1225 C225 1.515 . S
C1249 C277 1.508 . S
C1257 C238 1.516 . S
C1281 C251 1.508 . S
C1289 C290 1.516 . S
C1313 C316 1.510 . S
C1321 C413 1.512 . S
C1345 C329 1.514 . S
C1353 C368 1.514 . S
C1377 C348 1.506 . S
C1385 C387 1.514 . S
C1409 C394 1.514 . S
C1417 C361 1.513 . S
C1441 C5 1.490 . S
C1449 C330 1.495 . S
C1473 C16 1.490 . S
C1481 C135 1.494 . S
C1505 C31 1.490 . S
C1513 C354 1.494 . S
C1537 C107 1.489 . S
C1545 C42 1.493 . S
C1569 C406 1.493 . S
C1577 C55 1.495 . S
C1601 C70 1.488 . S
C1609 C161 1.494 . S
C1633 C83 1.489 . S
C1641 C380 1.494 . S
C1665 C94 1.492 . S
C1673 C187 1.495 . S
C1697 C226 1.488 . S
C1705 C109 1.493 . S
C1729 C29 1.488 . S
C1737 C122 1.493 . S
C1761 C252 1.490 . S
C1769 C133 1.494 . S
C1793 C148 1.488 . S
C1801 C3 1.494 . S
C1825 C304 1.493 . S
C1833 C159 1.495 . S
C1857 C57 1.490 . S
C1865 C172 1.494 . S
C1889 C278 1.490 . S
C1897 C185 1.494 . S
C1921 C81 1.491 . S
C1929 C200 1.495 . S
C1953 C120 1.488 . S
C1961 C211 1.494 . S
C1985 C224 1.493 . S
C1993 C341 1.495 . S
C2017 C237 1.489 . S
C2025 C146 1.494 . S
C2049 C250 1.494 . S
C2057 C317 1.496 . S
C2081 C265 1.493 . S
C2089 C198 1.496 . S
C2113 C369 1.487 . S
C2121 C276 1.493 . S
C2145 C289 1.488 . S
C2153 C174 1.493 . S
C2177 C302 1.490 . S
C2185 C395 1.494 . S
C2209 C315 1.491 . S
C2217 C18 1.495 . S
C2241 C328 1.489 . S
C2249 C239 1.494 . S
C2273 C44 1.492 . S
C2281 C343 1.495 . S
C2305 C213 1.493 . S
C2313 C356 1.496 . S
C2337 C367 1.491 . S
C2345 C96 1.495 . S
C2369 C382 1.494 . S
C2377 C263 1.496 . S
C2401 C68 1.488 . S
C2409 C393 1.493 . S
C2433 C291 1.494 . S
C2441 C408 1.496 . S
