# Generated by pormake.
# Topology lcy-a, (4)-cn, num edge types: 1
# Building blocks:
#     Node 0, Type 0, BuildingBlock: ICAMEG_clean_sbu_1, # of connection points: 4
#     Node 1, Type 0, BuildingBlock: ICAMEG_clean_sbu_1, # of connection points: 4
#     Node 2, Type 0, BuildingBlock: ICAMEG_clean_sbu_1, # of connection points: 4
#     Node 3, Type 0, BuildingBlock: ICAMEG_clean_sbu_1, # of connection points: 4
#     Node 4, Type 0, BuildingBlock: ICAMEG_clean_sbu_1, # of connection points: 4
#     Node 5, Type 0, BuildingBlock: ICAMEG_clean_sbu_1, # of connection points: 4
#     Node 6, Type 0, BuildingBlock: ICAMEG_clean_sbu_1, # of connection points: 4
#     Node 7, Type 0, BuildingBlock: ICAMEG_clean_sbu_1, # of connection points: 4
#     Node 8, Type 0, BuildingBlock: ICAMEG_clean_sbu_1, # of connection points: 4
#     Node 9, Type 0, BuildingBlock: ICAMEG_clean_sbu_1, # of connection points: 4
#     Node 10, Type 0, BuildingBlock: ICAMEG_clean_sbu_1, # of connection points: 4
#     Node 11, Type 0, BuildingBlock: ICAMEG_clean_sbu_1, # of connection points: 4
#     Node 12, Type 0, BuildingBlock: ICAMEG_clean_sbu_1, # of connection points: 4
#     Node 13, Type 0, BuildingBlock: ICAMEG_clean_sbu_1, # of connection points: 4
#     Node 14, Type 0, BuildingBlock: ICAMEG_clean_sbu_1, # of connection points: 4
#     Node 15, Type 0, BuildingBlock: ICAMEG_clean_sbu_1, # of connection points: 4
#     Node 16, Type 0, BuildingBlock: ICAMEG_clean_sbu_1, # of connection points: 4
#     Node 17, Type 0, BuildingBlock: ICAMEG_clean_sbu_1, # of connection points: 4
#     Node 18, Type 0, BuildingBlock: ICAMEG_clean_sbu_1, # of connection points: 4
#     Node 19, Type 0, BuildingBlock: ICAMEG_clean_sbu_1, # of connection points: 4
#     Node 20, Type 0, BuildingBlock: ICAMEG_clean_sbu_1, # of connection points: 4
#     Node 21, Type 0, BuildingBlock: ICAMEG_clean_sbu_1, # of connection points: 4
#     Node 22, Type 0, BuildingBlock: ICAMEG_clean_sbu_1, # of connection points: 4
#     Node 23, Type 0, BuildingBlock: ICAMEG_clean_sbu_1, # of connection points: 4
#     Edge 24, Type (0, 0), BuildingBlock: XIVTED_clean_linker_0, # of connection points: 2
#     Edge 25, Type (0, 0), BuildingBlock: XIVTED_clean_linker_0, # of connection points: 2
#     Edge 26, Type (0, 0), BuildingBlock: XIVTED_clean_linker_0, # of connection points: 2
#     Edge 27, Type (0, 0), BuildingBlock: XIVTED_clean_linker_0, # of connection points: 2
#     Edge 28, Type (0, 0), BuildingBlock: XIVTED_clean_linker_0, # of connection points: 2
#     Edge 29, Type (0, 0), BuildingBlock: XIVTED_clean_linker_0, # of connection points: 2
#     Edge 30, Type (0, 0), BuildingBlock: XIVTED_clean_linker_0, # of connection points: 2
#     Edge 31, Type (0, 0), BuildingBlock: XIVTED_clean_linker_0, # of connection points: 2
#     Edge 32, Type (0, 0), BuildingBlock: XIVTED_clean_linker_0, # of connection points: 2
#     Edge 33, Type (0, 0), BuildingBlock: XIVTED_clean_linker_0, # of connection points: 2
#     Edge 34, Type (0, 0), BuildingBlock: XIVTED_clean_linker_0, # of connection points: 2
#     Edge 35, Type (0, 0), BuildingBlock: XIVTED_clean_linker_0, # of connection points: 2
#     Edge 36, Type (0, 0), BuildingBlock: XIVTED_clean_linker_0, # of connection points: 2
#     Edge 37, Type (0, 0), BuildingBlock: XIVTED_clean_linker_0, # of connection points: 2
#     Edge 38, Type (0, 0), BuildingBlock: XIVTED_clean_linker_0, # of connection points: 2
#     Edge 39, Type (0, 0), BuildingBlock: XIVTED_clean_linker_0, # of connection points: 2
#     Edge 40, Type (0, 0), BuildingBlock: XIVTED_clean_linker_0, # of connection points: 2
#     Edge 41, Type (0, 0), BuildingBlock: XIVTED_clean_linker_0, # of connection points: 2
#     Edge 42, Type (0, 0), BuildingBlock: XIVTED_clean_linker_0, # of connection points: 2
#     Edge 43, Type (0, 0), BuildingBlock: XIVTED_clean_linker_0, # of connection points: 2
#     Edge 44, Type (0, 0), BuildingBlock: XIVTED_clean_linker_0, # of connection points: 2
#     Edge 45, Type (0, 0), BuildingBlock: XIVTED_clean_linker_0, # of connection points: 2
#     Edge 46, Type (0, 0), BuildingBlock: XIVTED_clean_linker_0, # of connection points: 2
#     Edge 47, Type (0, 0), BuildingBlock: XIVTED_clean_linker_0, # of connection points: 2
#     Edge 48, Type (0, 0), BuildingBlock: XIVTED_clean_linker_0, # of connection points: 2
#     Edge 49, Type (0, 0), BuildingBlock: XIVTED_clean_linker_0, # of connection points: 2
#     Edge 50, Type (0, 0), BuildingBlock: XIVTED_clean_linker_0, # of connection points: 2
#     Edge 51, Type (0, 0), BuildingBlock: XIVTED_clean_linker_0, # of connection points: 2
#     Edge 52, Type (0, 0), BuildingBlock: XIVTED_clean_linker_0, # of connection points: 2
#     Edge 53, Type (0, 0), BuildingBlock: XIVTED_clean_linker_0, # of connection points: 2
#     Edge 54, Type (0, 0), BuildingBlock: XIVTED_clean_linker_0, # of connection points: 2
#     Edge 55, Type (0, 0), BuildingBlock: XIVTED_clean_linker_0, # of connection points: 2
#     Edge 56, Type (0, 0), BuildingBlock: XIVTED_clean_linker_0, # of connection points: 2
#     Edge 57, Type (0, 0), BuildingBlock: XIVTED_clean_linker_0, # of connection points: 2
#     Edge 58, Type (0, 0), BuildingBlock: XIVTED_clean_linker_0, # of connection points: 2
#     Edge 59, Type (0, 0), BuildingBlock: XIVTED_clean_linker_0, # of connection points: 2
#     Edge 60, Type (0, 0), BuildingBlock: XIVTED_clean_linker_0, # of connection points: 2
#     Edge 61, Type (0, 0), BuildingBlock: XIVTED_clean_linker_0, # of connection points: 2
#     Edge 62, Type (0, 0), BuildingBlock: XIVTED_clean_linker_0, # of connection points: 2
#     Edge 63, Type (0, 0), BuildingBlock: XIVTED_clean_linker_0, # of connection points: 2
#     Edge 64, Type (0, 0), BuildingBlock: XIVTED_clean_linker_0, # of connection points: 2
#     Edge 65, Type (0, 0), BuildingBlock: XIVTED_clean_linker_0, # of connection points: 2
#     Edge 66, Type (0, 0), BuildingBlock: XIVTED_clean_linker_0, # of connection points: 2
#     Edge 67, Type (0, 0), BuildingBlock: XIVTED_clean_linker_0, # of connection points: 2
#     Edge 68, Type (0, 0), BuildingBlock: XIVTED_clean_linker_0, # of connection points: 2
#     Edge 69, Type (0, 0), BuildingBlock: XIVTED_clean_linker_0, # of connection points: 2
#     Edge 70, Type (0, 0), BuildingBlock: XIVTED_clean_linker_0, # of connection points: 2
#     Edge 71, Type (0, 0), BuildingBlock: XIVTED_clean_linker_0, # of connection points: 2
# Relax obj value: 0.380
# Max RMSD: 0.167
# Mean RMSD: 0.167
data_MOF--net-lcy-a--node1-ICAMEG_clean_sbu_1--edge1-XIVTED_clean_linker_0
_symmetry_space_group_name_H-M    P1
_symmetry_Int_Tables_number       1
_symmetry_cell_setting            triclinic
loop_
_symmetry_equiv_pos_as_xyz
'x, y, z'
_cell_length_a     60.203529
_cell_length_b     60.202398
_cell_length_c     60.201768
_cell_angle_alpha  90.000763
_cell_angle_beta   89.998698
_cell_angle_gamma 89.998044
loop_
_atom_site_label
_atom_site_type_symbol
_atom_site_fract_x
_atom_site_fract_y
_atom_site_fract_z
_atom_type_partial_charge
Co0 Co 0.22305 0.31133 0.38182 0.0
Co1 Co 0.17066 0.29164 0.3764 0.0
O2 O 0.19375 0.30553 0.39475 0.0
C3 C 0.21684 0.34625 0.41774 0.0
O4 O 0.19681 0.33927 0.42278 0.0
C5 C 0.16776 0.2666 0.4185 0.0
O6 O 0.18938 0.26393 0.41756 0.0
O7 O 0.19048 0.26548 0.37231 0.0
O8 O 0.22054 0.28467 0.36195 0.0
H9 H 0.14237 0.24936 0.31026 0.0
H10 H 0.2168 0.30359 0.43077 0.0
O11 O 0.2274 0.33802 0.40133 0.0
H12 H 0.27687 0.25292 0.40817 0.0
H13 H 0.30303 0.33604 0.38236 0.0
H14 H 0.24079 0.31041 0.33572 0.0
H15 H 0.25882 0.27714 0.38066 0.0
H16 H 0.26704 0.32642 0.39926 0.0
O17 O 0.15773 0.27754 0.40348 0.0
H18 H 0.1707 0.26808 0.33319 0.0
H19 H 0.12202 0.28366 0.38182 0.0
H20 H 0.27662 0.31968 0.31819 0.0
H21 H 0.23454 0.27991 0.45877 0.0
H22 H 0.30794 0.3328 0.3416 0.0
H23 H 0.26484 0.25424 0.44761 0.0
O24 O 0.20855 0.33008 0.35893 0.0
H25 H 0.13328 0.35082 0.42181 0.0
H26 H 0.1436 0.32053 0.34641 0.0
H27 H 0.11992 0.3535 0.35181 0.0
H28 H 0.1146 0.36884 0.38974 0.0
H29 H 0.15694 0.31793 0.41562 0.0
H30 H 0.0932 0.26493 0.35952 0.0
H31 H 0.10329 0.24771 0.32341 0.0
O32 O 0.18269 0.30562 0.34849 0.0
C33 C 0.20999 0.26647 0.36424 0.0
C34 C 0.13775 0.25688 0.32592 0.0
C35 C 0.11016 0.26559 0.35358 0.0
N36 N 0.14798 0.27715 0.3587 0.0
C37 C 0.1537 0.26756 0.33894 0.0
C38 C 0.12656 0.27614 0.36616 0.0
C39 C 0.11583 0.25594 0.33332 0.0
C40 C 0.23026 0.29301 0.42572 0.0
N41 N 0.23713 0.29245 0.40409 0.0
C42 C 0.24014 0.27938 0.44169 0.0
C43 C 0.25709 0.26494 0.43542 0.0
C44 C 0.26386 0.26422 0.41332 0.0
C45 C 0.25358 0.27807 0.39781 0.0
C46 C 0.28945 0.33042 0.37201 0.0
C47 C 0.25438 0.31595 0.34604 0.0
C48 C 0.26898 0.32505 0.38147 0.0
N49 N 0.25173 0.3179 0.3685 0.0
C50 C 0.27463 0.3212 0.336 0.0
C51 C 0.29222 0.32853 0.34912 0.0
C52 C 0.19494 0.3225 0.3446 0.0
C53 C 0.13547 0.3443 0.4052 0.0
C54 C 0.1415 0.32719 0.36295 0.0
C55 C 0.128 0.34582 0.36591 0.0
C56 C 0.12501 0.35441 0.3872 0.0
N57 N 0.15171 0.31736 0.3807 0.0
C58 C 0.14884 0.32568 0.40161 0.0
Co59 Co 0.93578 0.97531 0.63433 0.0
Co60 Co 0.95484 0.92266 0.62866 0.0
O61 O 0.94193 0.94609 0.64728 0.0
C62 C 0.90218 0.96948 0.67154 0.0
O63 O 0.90913 0.94937 0.67628 0.0
C64 C 0.98167 0.91997 0.66967 0.0
O65 O 0.98456 0.94154 0.66837 0.0
O66 O 0.98094 0.94218 0.62321 0.0
O67 O 0.96177 0.97254 0.61358 0.0
H68 H 0.99417 0.89315 0.56123 0.0
H69 H 0.94525 0.96935 0.683 0.0
O70 O 0.90985 0.97993 0.65479 0.0
H71 H 0.99529 0.02907 0.65817 0.0
H72 H 0.91097 0.05527 0.63509 0.0
H73 H 0.935 0.99267 0.58807 0.0
H74 H 0.97004 0.01092 0.63167 0.0
H75 H 0.92161 0.01954 0.65195 0.0
O76 O 0.96993 0.90991 0.65528 0.0
H77 H 0.97669 0.92195 0.58455 0.0
H78 H 0.96251 0.87401 0.63432 0.0
H79 H 0.92472 0.02824 0.57056 0.0
H80 H 0.96998 0.98721 0.71001 0.0
H81 H 0.91226 0.05971 0.59416 0.0
H82 H 0.99532 0.01734 0.69772 0.0
O83 O 0.91611 0.96075 0.61223 0.0
H84 H 0.89732 0.88629 0.67693 0.0
H85 H 0.92441 0.89564 0.60019 0.0
H86 H 0.89146 0.87236 0.60723 0.0
H87 H 0.87773 0.86753 0.64584 0.0
H88 H 0.93014 0.90955 0.66911 0.0
H89 H 0.98001 0.84472 0.61164 0.0
H90 H 0.99591 0.85421 0.57476 0.0
O91 O 0.93991 0.93451 0.6012 0.0
C92 C 0.97987 0.96165 0.61507 0.0
C93 C 0.98722 0.88879 0.57723 0.0
C94 C 0.9793 0.86162 0.60553 0.0
N95 N 0.96838 0.89963 0.61065 0.0
C96 C 0.97724 0.90502 0.59047 0.0
C97 C 0.96945 0.87828 0.61832 0.0
C98 C 0.98821 0.86695 0.58484 0.0
C99 C 0.9557 0.98274 0.67748 0.0
N100 N 0.95551 0.98946 0.65579 0.0
C101 C 0.96992 0.99268 0.69288 0.0
C102 C 0.98418 0.00954 0.68597 0.0
C103 C 0.98414 0.01615 0.66381 0.0
C104 C 0.96971 0.00581 0.64888 0.0
C105 C 0.91625 0.04161 0.62465 0.0
C106 C 0.92984 0.00635 0.59847 0.0
C107 C 0.92219 0.02129 0.63409 0.0
N108 N 0.92884 0.00393 0.62103 0.0
C109 C 0.924 0.02645 0.58844 0.0
C110 C 0.91706 0.04413 0.60167 0.0
C111 C 0.92304 0.94691 0.59779 0.0
C112 C 0.90314 0.88827 0.66003 0.0
C113 C 0.91845 0.89376 0.61703 0.0
C114 C 0.89983 0.88048 0.62091 0.0
C115 C 0.89214 0.87776 0.64258 0.0
N116 N 0.92914 0.90402 0.63424 0.0
C117 C 0.92172 0.90141 0.65551 0.0
Co118 Co 0.27498 0.68726 0.88369 0.0
Co119 Co 0.32779 0.706 0.87816 0.0
O120 O 0.30425 0.69313 0.89663 0.0
C121 C 0.28121 0.65312 0.92021 0.0
O122 O 0.30173 0.65941 0.92394 0.0
C123 C 0.33037 0.73238 0.91941 0.0
O124 O 0.30881 0.73531 0.91798 0.0
O125 O 0.30847 0.73226 0.87279 0.0
O126 O 0.27792 0.71337 0.86312 0.0
H127 H 0.35776 0.7455 0.81103 0.0
H128 H 0.28084 0.69578 0.93246 0.0
O129 O 0.27017 0.66124 0.90406 0.0
H130 H 0.22215 0.74733 0.9082 0.0
H131 H 0.19469 0.66349 0.88442 0.0
H132 H 0.25753 0.68704 0.83748 0.0
H133 H 0.23989 0.72211 0.8814 0.0
H134 H 0.23065 0.67336 0.90129 0.0
O135 O 0.34053 0.72086 0.90491 0.0
H136 H 0.32877 0.72811 0.83418 0.0
H137 H 0.37646 0.71333 0.88401 0.0
H138 H 0.22176 0.67751 0.81997 0.0
H139 H 0.26335 0.72047 0.9598 0.0
H140 H 0.19015 0.66535 0.84352 0.0
H141 H 0.23376 0.74658 0.94779 0.0
O142 O 0.28935 0.66768 0.86137 0.0
H143 H 0.36407 0.6482 0.92618 0.0
H144 H 0.35449 0.67545 0.84954 0.0
H145 H 0.37758 0.64234 0.85641 0.0
H146 H 0.38253 0.62852 0.89497 0.0
H147 H 0.34098 0.68117 0.91853 0.0
H148 H 0.40594 0.73074 0.8615 0.0
H149 H 0.39667 0.74688 0.82467 0.0
O150 O 0.31587 0.69133 0.85061 0.0
C151 C 0.28902 0.73135 0.86457 0.0
C152 C 0.36202 0.73844 0.827 0.0
C153 C 0.38906 0.73018 0.85534 0.0
N154 N 0.35096 0.71949 0.86029 0.0
C155 C 0.34569 0.7285 0.84015 0.0
C156 C 0.37229 0.72038 0.86803 0.0
C157 C 0.38385 0.73923 0.83468 0.0
C158 C 0.26768 0.70661 0.92707 0.0
N159 N 0.26106 0.7069 0.90536 0.0
C160 C 0.25795 0.72078 0.94265 0.0
C161 C 0.2414 0.73546 0.9359 0.0
C162 C 0.23486 0.73588 0.91372 0.0
C163 C 0.24497 0.72147 0.89861 0.0
C164 C 0.20841 0.66865 0.874 0.0
C165 C 0.24381 0.68196 0.84786 0.0
C166 C 0.22886 0.67416 0.88345 0.0
N167 N 0.24627 0.68069 0.8704 0.0
C168 C 0.22359 0.67656 0.83783 0.0
C169 C 0.20584 0.66978 0.85104 0.0
C170 C 0.30324 0.67467 0.84699 0.0
C171 C 0.36203 0.65405 0.9093 0.0
C172 C 0.3564 0.66944 0.86635 0.0
C173 C 0.36958 0.65073 0.87014 0.0
C174 C 0.37237 0.643 0.89178 0.0
N175 N 0.34628 0.68016 0.88362 0.0
C176 C 0.34898 0.67271 0.90488 0.0
Co177 Co 0.56036 0.02629 0.13193 0.0
Co178 Co 0.54193 0.07918 0.12653 0.0
O179 O 0.55503 0.05564 0.14491 0.0
C180 C 0.59529 0.03174 0.16798 0.0
O181 O 0.58887 0.05201 0.1728 0.0
C182 C 0.51638 0.08219 0.16826 0.0
O183 O 0.51337 0.06063 0.16703 0.0
O184 O 0.51539 0.06005 0.12185 0.0
O185 O 0.5339 0.02941 0.11186 0.0
H186 H 0.50122 0.10906 0.06009 0.0
H187 H 0.55259 0.03241 0.18083 0.0
O188 O 0.58677 0.02127 0.15166 0.0
H189 H 0.50053 0.97375 0.15765 0.0
H190 H 0.5834 0.94579 0.13224 0.0
H191 H 0.55958 0.00884 0.08573 0.0
H192 H 0.52534 0.99134 0.13036 0.0
H193 H 0.57421 0.98184 0.14928 0.0
O194 O 0.52772 0.0922 0.15352 0.0
H195 H 0.51897 0.08009 0.08298 0.0
H196 H 0.53504 0.12793 0.13227 0.0
H197 H 0.56845 0.97299 0.06805 0.0
H198 H 0.52833 0.0151 0.20863 0.0
H199 H 0.58071 0.94128 0.09139 0.0
H200 H 0.50196 0.98552 0.19717 0.0
O201 O 0.57965 0.04048 0.10928 0.0
H202 H 0.60125 0.11491 0.17307 0.0
H203 H 0.57194 0.10567 0.09715 0.0
H204 H 0.60539 0.1285 0.10319 0.0
H205 H 0.62024 0.13328 0.14138 0.0
H206 H 0.5679 0.09209 0.16625 0.0
H207 H 0.51729 0.15739 0.11001 0.0
H208 H 0.50031 0.14804 0.07358 0.0
O209 O 0.55594 0.067 0.0987 0.0
C210 C 0.516 0.04056 0.11371 0.0
C211 C 0.50864 0.11336 0.07589 0.0
C212 C 0.51763 0.14048 0.10392 0.0
N213 N 0.52823 0.10235 0.10882 0.0
C214 C 0.51878 0.09704 0.08889 0.0
C215 C 0.52762 0.12372 0.11647 0.0
C216 C 0.50811 0.13522 0.08348 0.0
C217 C 0.54167 0.01925 0.17566 0.0
N218 N 0.54102 0.01254 0.15398 0.0
C219 C 0.52773 0.00963 0.19151 0.0
C220 C 0.5129 0.99308 0.18507 0.0
C221 C 0.51212 0.98645 0.16293 0.0
C222 C 0.52629 0.99647 0.14754 0.0
C223 C 0.57818 0.95955 0.12192 0.0
C224 C 0.56473 0.99508 0.09602 0.0
C225 C 0.57305 0.98006 0.13145 0.0
N226 N 0.56643 0.99753 0.11853 0.0
C227 C 0.56975 0.97481 0.08589 0.0
C228 C 0.57659 0.957 0.09898 0.0
C229 C 0.57253 0.05433 0.09494 0.0
C230 C 0.59494 0.11295 0.15635 0.0
C231 C 0.57838 0.10753 0.1138 0.0
C232 C 0.59729 0.12055 0.11713 0.0
C233 C 0.6056 0.12324 0.13856 0.0
N234 N 0.56803 0.09748 0.13134 0.0
C235 C 0.57606 0.10006 0.15239 0.0
Co236 Co 0.72688 0.18767 0.61738 0.0
Co237 Co 0.67324 0.20435 0.62057 0.0
O238 O 0.69817 0.19292 0.60296 0.0
C239 C 0.7239 0.15425 0.57972 0.0
O240 O 0.70329 0.15971 0.57519 0.0
C241 C 0.67169 0.23195 0.58004 0.0
O242 O 0.69306 0.23548 0.58254 0.0
O243 O 0.69128 0.23113 0.62764 0.0
O244 O 0.72177 0.21292 0.63859 0.0
H245 H 0.63844 0.24071 0.68715 0.0
H246 H 0.72354 0.19744 0.56868 0.0
O247 O 0.73384 0.16256 0.59648 0.0
H248 H 0.77869 0.25039 0.59781 0.0
H249 H 0.80787 0.16662 0.6208 0.0
H250 H 0.74156 0.18654 0.6645 0.0
H251 H 0.76045 0.22367 0.62279 0.0
H252 H 0.77273 0.1761 0.60205 0.0
O253 O 0.66129 0.21957 0.59365 0.0
H254 H 0.66921 0.22513 0.66503 0.0
H255 H 0.62467 0.21 0.61246 0.0
H256 H 0.7764 0.17732 0.68387 0.0
H257 H 0.74155 0.22367 0.54314 0.0
H258 H 0.80972 0.1669 0.66197 0.0
H259 H 0.76935 0.25048 0.55762 0.0
O260 O 0.71201 0.16682 0.63816 0.0
H261 H 0.64175 0.14672 0.5691 0.0
H262 H 0.64632 0.17197 0.64689 0.0
H263 H 0.62493 0.13823 0.63788 0.0
H264 H 0.62251 0.12542 0.59874 0.0
H265 H 0.6631 0.1803 0.57889 0.0
H266 H 0.59344 0.2256 0.63392 0.0
H267 H 0.60022 0.241 0.67159 0.0
O268 O 0.68431 0.18931 0.64831 0.0
C269 C 0.71026 0.23061 0.63691 0.0
C270 C 0.63526 0.23396 0.67079 0.0
C271 C 0.61001 0.22551 0.6409 0.0
N272 N 0.6487 0.21644 0.6376 0.0
C273 C 0.65261 0.22505 0.65822 0.0
C274 C 0.62776 0.21673 0.62882 0.0
C275 C 0.61382 0.23414 0.66204 0.0
C276 C 0.7359 0.20863 0.57514 0.0
N277 N 0.74125 0.2085 0.5972 0.0
C278 C 0.74594 0.22365 0.56058 0.0
C279 C 0.76149 0.23872 0.56871 0.0
C280 C 0.76676 0.23866 0.59124 0.0
C281 C 0.75637 0.22342 0.6053 0.0
C282 C 0.79338 0.17097 0.63051 0.0
C283 C 0.75603 0.18223 0.65482 0.0
C284 C 0.77339 0.17624 0.61999 0.0
N285 N 0.75499 0.18169 0.63214 0.0
C286 C 0.77572 0.17702 0.66591 0.0
C287 C 0.79445 0.17123 0.65362 0.0
C288 C 0.69732 0.17298 0.6521 0.0
C289 C 0.64269 0.15213 0.58623 0.0
C290 C 0.6455 0.16641 0.62984 0.0
C291 C 0.63328 0.14734 0.62483 0.0
C292 C 0.63191 0.14017 0.60286 0.0
N293 N 0.65606 0.17803 0.61343 0.0
C294 C 0.65474 0.17113 0.59186 0.0
Co295 Co 0.06215 0.47435 0.86684 0.0
Co296 Co 0.04424 0.42119 0.87113 0.0
O297 O 0.05668 0.44535 0.85313 0.0
C298 C 0.09622 0.46985 0.82993 0.0
O299 O 0.09017 0.44942 0.82538 0.0
C300 C 0.01778 0.41909 0.82988 0.0
O301 O 0.01452 0.44056 0.83177 0.0
O302 O 0.01767 0.43999 0.87695 0.0
O303 O 0.03624 0.47041 0.88748 0.0
H304 H 0.00541 0.38911 0.93767 0.0
H305 H 0.05333 0.46961 0.81803 0.0
O306 O 0.08796 0.48015 0.8465 0.0
H307 H 0.00141 0.52721 0.84406 0.0
H308 H 0.08481 0.55496 0.86852 0.0
H309 H 0.06231 0.49038 0.91354 0.0
H310 H 0.02691 0.50897 0.87028 0.0
H311 H 0.07524 0.51945 0.85055 0.0
O312 O 0.02952 0.40881 0.84412 0.0
H313 H 0.02227 0.41889 0.91513 0.0
H314 H 0.03765 0.37255 0.86421 0.0
H315 H 0.07157 0.52563 0.93214 0.0
H316 H 0.0283 0.48755 0.79129 0.0
H317 H 0.08323 0.5581 0.90959 0.0
H318 H 0.00201 0.5166 0.80421 0.0
O319 O 0.08209 0.45965 0.88856 0.0
H320 H 0.10259 0.38709 0.82219 0.0
H321 H 0.07522 0.39425 0.89906 0.0
H322 H 0.10868 0.37185 0.8916 0.0
H323 H 0.12257 0.36813 0.85292 0.0
H324 H 0.06926 0.40946 0.83044 0.0
H325 H 0.02077 0.34231 0.8861 0.0
H326 H 0.00459 0.35049 0.92316 0.0
O327 O 0.05881 0.4327 0.89894 0.0
C328 C 0.01835 0.45924 0.88566 0.0
C329 C 0.01248 0.38532 0.92158 0.0
C330 C 0.02108 0.35906 0.89263 0.0
N331 N 0.03115 0.39742 0.8885 0.0
C332 C 0.02212 0.4021 0.90878 0.0
C333 C 0.03058 0.37626 0.88029 0.0
C334 C 0.01201 0.36366 0.91342 0.0
C335 C 0.04239 0.48252 0.82382 0.0
N336 N 0.04217 0.48858 0.8457 0.0
C337 C 0.02804 0.49251 0.80858 0.0
C338 C 0.01326 0.50876 0.81583 0.0
C339 C 0.01293 0.51473 0.83817 0.0
C340 C 0.0275 0.50435 0.85294 0.0
C341 C 0.07989 0.54085 0.87852 0.0
C342 C 0.06718 0.50447 0.90357 0.0
C343 C 0.07456 0.52065 0.86844 0.0
N344 N 0.06835 0.50274 0.88096 0.0
C345 C 0.07242 0.5244 0.91422 0.0
C346 C 0.07891 0.54265 0.90157 0.0
C347 C 0.07534 0.44545 0.90274 0.0
C348 C 0.09672 0.3886 0.83912 0.0
C349 C 0.08124 0.39286 0.88221 0.0
C350 C 0.10016 0.38008 0.87807 0.0
C351 C 0.10792 0.37798 0.85637 0.0
N352 N 0.07035 0.40325 0.8652 0.0
C353 C 0.07785 0.40123 0.84388 0.0
Co354 Co 0.77566 0.81092 0.11516 0.0
Co355 Co 0.82801 0.79117 0.12164 0.0
O356 O 0.80521 0.80505 0.10291 0.0
C357 C 0.78281 0.84627 0.0798 0.0
O358 O 0.80287 0.83925 0.07498 0.0
C359 C 0.83116 0.76588 0.07975 0.0
O360 O 0.80953 0.76327 0.08063 0.0
O361 O 0.80817 0.76507 0.12581 0.0
O362 O 0.77751 0.78408 0.13483 0.0
H363 H 0.85558 0.74931 0.18836 0.0
H364 H 0.78301 0.80374 0.06629 0.0
O365 O 0.7719 0.8378 0.09584 0.0
H366 H 0.72241 0.75287 0.08694 0.0
H367 H 0.69564 0.83539 0.11261 0.0
H368 H 0.75676 0.80987 0.1608 0.0
H369 H 0.73987 0.77673 0.11513 0.0
H370 H 0.73218 0.82618 0.09668 0.0
O371 O 0.84116 0.77686 0.09477 0.0
H372 H 0.82751 0.76795 0.16505 0.0
H373 H 0.87666 0.78303 0.11674 0.0
H374 H 0.72034 0.81869 0.17738 0.0
H375 H 0.76585 0.78044 0.03761 0.0
H376 H 0.68955 0.83165 0.15316 0.0
H377 H 0.73528 0.75469 0.04778 0.0
O378 O 0.78961 0.82947 0.13854 0.0
H379 H 0.86615 0.84989 0.07625 0.0
H380 H 0.85467 0.82027 0.15175 0.0
H381 H 0.8785 0.85315 0.14642 0.0
H382 H 0.88441 0.86815 0.10844 0.0
H383 H 0.84233 0.81712 0.08237 0.0
H384 H 0.90523 0.76438 0.13943 0.0
H385 H 0.89477 0.74744 0.17557 0.0
O386 O 0.81565 0.8053 0.14933 0.0
C387 C 0.78848 0.76604 0.1334 0.0
C388 C 0.86036 0.7567 0.17269 0.0
C389 C 0.88822 0.76513 0.14521 0.0
N390 N 0.85048 0.77676 0.13968 0.0
C391 C 0.84456 0.76734 0.15945 0.0
C392 C 0.87196 0.77564 0.13242 0.0
C393 C 0.88234 0.75564 0.16549 0.0
C394 C 0.76943 0.79311 0.07091 0.0
N395 N 0.76209 0.79229 0.09238 0.0
C396 C 0.75988 0.7797 0.05455 0.0
C397 C 0.74278 0.76521 0.06027 0.0
C398 C 0.73554 0.76421 0.08222 0.0
C399 C 0.74549 0.77785 0.09812 0.0
C400 C 0.70897 0.82979 0.12331 0.0
C401 C 0.74341 0.81538 0.15015 0.0
C402 C 0.72975 0.82466 0.1144 0.0
N403 N 0.74665 0.81748 0.12778 0.0
C404 C 0.72283 0.82038 0.15965 0.0
C405 C 0.70555 0.82765 0.14608 0.0
C406 C 0.80319 0.82207 0.15299 0.0
C407 C 0.8637 0.84352 0.09288 0.0
C408 C 0.85702 0.82679 0.13519 0.0
C409 C 0.8706 0.84537 0.13226 0.0
C410 C 0.87393 0.85376 0.11095 0.0
N411 N 0.84705 0.81683 0.11738 0.0
C412 C 0.85024 0.82496 0.09644 0.0
Co413 Co 0.43934 0.52398 0.3673 0.0
Co414 Co 0.45635 0.57736 0.37282 0.0
O415 O 0.44435 0.55337 0.35429 0.0
C416 C 0.40513 0.52852 0.33043 0.0
O417 O 0.41125 0.54888 0.32563 0.0
C418 C 0.48304 0.58061 0.33182 0.0
O419 O 0.48654 0.55914 0.33334 0.0
O420 O 0.4832 0.55892 0.37854 0.0
O421 O 0.46516 0.52782 0.38803 0.0
H422 H 0.49424 0.60885 0.44019 0.0
H423 H 0.44812 0.52993 0.31856 0.0
O424 O 0.41357 0.51826 0.34693 0.0
H425 H 0.50114 0.47286 0.34345 0.0
H426 H 0.41872 0.44283 0.36677 0.0
H427 H 0.43939 0.50676 0.41359 0.0
H428 H 0.47522 0.48998 0.36999 0.0
H429 H 0.42698 0.47915 0.34982 0.0
O430 O 0.47106 0.59047 0.34615 0.0
H431 H 0.47796 0.57923 0.41703 0.0
H432 H 0.46221 0.62621 0.36682 0.0
H433 H 0.43144 0.47064 0.43117 0.0
H434 H 0.47351 0.51307 0.29149 0.0
H435 H 0.42089 0.43845 0.40766 0.0
H436 H 0.50036 0.48429 0.30382 0.0
O437 O 0.41915 0.5378 0.38939 0.0
H438 H 0.39768 0.61125 0.32413 0.0
H439 H 0.42479 0.60332 0.40102 0.0
H440 H 0.39097 0.62525 0.39374 0.0
H441 H 0.37722 0.62936 0.35505 0.0
H442 H 0.43135 0.58934 0.33219 0.0
H443 H 0.4785 0.65632 0.38934 0.0
H444 H 0.49457 0.64772 0.42636 0.0
O445 O 0.44181 0.5651 0.40032 0.0
C446 C 0.48278 0.53949 0.38684 0.0
C447 C 0.48721 0.61282 0.42413 0.0
C448 C 0.4784 0.63945 0.39558 0.0
N449 N 0.46894 0.60102 0.39071 0.0
C450 C 0.4779 0.59613 0.41098 0.0
C451 C 0.46923 0.62233 0.38288 0.0
C452 C 0.48741 0.63462 0.41635 0.0
C453 C 0.45927 0.51712 0.32409 0.0
N454 N 0.45957 0.51059 0.34583 0.0
C455 C 0.47384 0.50775 0.30866 0.0
C456 C 0.48894 0.49165 0.31559 0.0
C457 C 0.48937 0.48521 0.3378 0.0
C458 C 0.47456 0.49496 0.35276 0.0
C459 C 0.42324 0.45678 0.37716 0.0
C460 C 0.43492 0.4928 0.40324 0.0
C461 C 0.42783 0.47744 0.36767 0.0
N462 N 0.43363 0.49514 0.38069 0.0
C463 C 0.43042 0.47239 0.4133 0.0
C464 C 0.42451 0.45431 0.40012 0.0
C465 C 0.42551 0.55197 0.40378 0.0
C466 C 0.40349 0.60957 0.34106 0.0
C467 C 0.41883 0.60489 0.38416 0.0
C468 C 0.39971 0.6174 0.38013 0.0
C469 C 0.39202 0.61972 0.35842 0.0
N470 N 0.42999 0.59498 0.36704 0.0
C471 C 0.42256 0.5972 0.34572 0.0
Co472 Co 0.38309 0.22687 0.31296 0.0
Co473 Co 0.37846 0.17359 0.2956 0.0
O474 O 0.39672 0.19783 0.30741 0.0
C475 C 0.4209 0.22263 0.34608 0.0
O476 O 0.42491 0.20197 0.34044 0.0
C477 C 0.41892 0.17134 0.26795 0.0
O478 O 0.41695 0.1928 0.26463 0.0
O479 O 0.37191 0.19225 0.26909 0.0
O480 O 0.36155 0.22256 0.28786 0.0
H481 H 0.31086 0.14125 0.2589 0.0
H482 H 0.43164 0.2223 0.30291 0.0
O483 O 0.40431 0.23303 0.33798 0.0
H484 H 0.40378 0.27853 0.25044 0.0
H485 H 0.3823 0.30795 0.33387 0.0
H486 H 0.33639 0.2429 0.31473 0.0
H487 H 0.37843 0.26081 0.27716 0.0
H488 H 0.39985 0.27216 0.32458 0.0
O489 O 0.40504 0.16115 0.28018 0.0
H490 H 0.33385 0.17113 0.27494 0.0
H491 H 0.38523 0.12492 0.28908 0.0
H492 H 0.31819 0.27845 0.32374 0.0
H493 H 0.45753 0.23976 0.27667 0.0
H494 H 0.34124 0.3112 0.33363 0.0
H495 H 0.44368 0.2681 0.25008 0.0
O496 O 0.36202 0.21235 0.33376 0.0
H497 H 0.4291 0.13988 0.35271 0.0
H498 H 0.35146 0.14678 0.32754 0.0
H499 H 0.35992 0.12461 0.36091 0.0
H500 H 0.39899 0.12101 0.37369 0.0
H501 H 0.41986 0.16202 0.31949 0.0
H502 H 0.36289 0.09457 0.27302 0.0
H503 H 0.32537 0.10264 0.25788 0.0
O504 O 0.35109 0.18516 0.31097 0.0
C505 C 0.36311 0.21144 0.26991 0.0
C506 C 0.32714 0.13751 0.26553 0.0
C507 C 0.35636 0.11131 0.27342 0.0
N508 N 0.36075 0.14974 0.28315 0.0
C509 C 0.34021 0.15435 0.27469 0.0
C510 C 0.36895 0.12857 0.28246 0.0
C511 C 0.33531 0.11585 0.26494 0.0
C512 C 0.42546 0.2349 0.29184 0.0
N513 N 0.40355 0.24084 0.29211 0.0
C514 C 0.44022 0.24462 0.27681 0.0
C515 C 0.43244 0.26047 0.26186 0.0
C516 C 0.41007 0.26634 0.26206 0.0
C517 C 0.3958 0.25625 0.27731 0.0
C518 C 0.37211 0.29374 0.3297 0.0
C519 C 0.34654 0.25709 0.31887 0.0
C520 C 0.38194 0.27338 0.32454 0.0
N521 N 0.36918 0.25535 0.31923 0.0
C522 C 0.33613 0.27719 0.32397 0.0
C523 C 0.34905 0.29558 0.32948 0.0
C524 C 0.34776 0.19796 0.32757 0.0
C525 C 0.41201 0.14133 0.34732 0.0
C526 C 0.36849 0.14545 0.33308 0.0
C527 C 0.37318 0.13279 0.35194 0.0
C528 C 0.39511 0.13076 0.35909 0.0
N529 N 0.38516 0.15579 0.32164 0.0
C530 C 0.40668 0.15383 0.32852 0.0
Co531 Co 0.02327 0.13179 0.56218 0.0
Co532 Co 0.0769 0.12849 0.54555 0.0
O533 O 0.05202 0.14615 0.55701 0.0
C534 C 0.0263 0.16947 0.59553 0.0
O535 O 0.04694 0.1739 0.59013 0.0
C536 C 0.07874 0.16916 0.51817 0.0
O537 O 0.05737 0.16679 0.51452 0.0
O538 O 0.05884 0.1217 0.51872 0.0
O539 O 0.02839 0.1106 0.5369 0.0
H540 H 0.1114 0.06195 0.50887 0.0
H541 H 0.0268 0.18047 0.55235 0.0
O542 O 0.01633 0.1527 0.58728 0.0
H543 H 0.9714 0.15153 0.49955 0.0
H544 H 0.9424 0.12843 0.58368 0.0
H545 H 0.00849 0.08469 0.56315 0.0
H546 H 0.98961 0.1265 0.52624 0.0
H547 H 0.97744 0.14716 0.57381 0.0
O548 O 0.08901 0.15543 0.53051 0.0
H549 H 0.08072 0.08414 0.52453 0.0
H550 H 0.12552 0.13638 0.54002 0.0
H551 H 0.97376 0.06534 0.57277 0.0
H552 H 0.00885 0.20606 0.52613 0.0
H553 H 0.94057 0.08726 0.58359 0.0
H554 H 0.98092 0.19168 0.4994 0.0
O555 O 0.03809 0.11097 0.583 0.0
H556 H 0.10854 0.17951 0.6035 0.0
H557 H 0.10368 0.10188 0.57782 0.0
H558 H 0.12507 0.11061 0.61164 0.0
H559 H 0.12763 0.14968 0.62467 0.0
H560 H 0.08718 0.16999 0.56985 0.0
H561 H 0.15665 0.11485 0.52433 0.0
H562 H 0.1497 0.0773 0.50871 0.0
O563 O 0.06569 0.10073 0.56047 0.0
C564 C 0.03981 0.11249 0.51917 0.0
C565 C 0.11466 0.07825 0.51571 0.0
C566 C 0.14005 0.10795 0.52437 0.0
N567 N 0.10136 0.11141 0.53341 0.0
C568 C 0.09736 0.09086 0.52467 0.0
C569 C 0.12235 0.12008 0.53319 0.0
C570 C 0.13614 0.08689 0.51561 0.0
C571 C 0.01439 0.17405 0.54119 0.0
N572 N 0.00894 0.15201 0.54135 0.0
C573 C 0.00438 0.18864 0.52618 0.0
C574 C 0.98875 0.18056 0.51116 0.0
C575 C 0.98339 0.15807 0.51126 0.0
C576 C 0.99375 0.14397 0.52648 0.0
C577 C 0.95684 0.11871 0.5792 0.0
C578 C 0.99407 0.09438 0.56759 0.0
C579 C 0.97678 0.12922 0.5737 0.0
N580 N 0.99514 0.11706 0.56813 0.0
C581 C 0.97443 0.0833 0.57304 0.0
C582 C 0.95578 0.0956 0.57902 0.0
C583 C 0.05267 0.09694 0.57679 0.0
C584 C 0.10753 0.16242 0.59801 0.0
C585 C 0.10455 0.11889 0.58348 0.0
C586 C 0.11678 0.12375 0.60259 0.0
C587 C 0.11823 0.14567 0.60988 0.0
N588 N 0.09408 0.13541 0.57194 0.0
C589 C 0.09547 0.15694 0.57896 0.0
Co590 Co 0.11824 0.77447 0.81076 0.0
Co591 Co 0.12277 0.82764 0.79313 0.0
O592 O 0.10456 0.8035 0.80532 0.0
C593 C 0.08071 0.77842 0.84427 0.0
O594 O 0.07567 0.79867 0.83797 0.0
C595 C 0.08173 0.83021 0.76632 0.0
O596 O 0.08346 0.80874 0.76292 0.0
O597 O 0.12864 0.8089 0.76651 0.0
O598 O 0.1393 0.77866 0.78522 0.0
H599 H 0.18978 0.85949 0.75494 0.0
H600 H 0.06956 0.77922 0.80106 0.0
O601 O 0.09758 0.76845 0.83624 0.0
H602 H 0.09659 0.72202 0.74924 0.0
H603 H 0.11967 0.69366 0.8327 0.0
H604 H 0.16496 0.75849 0.81148 0.0
H605 H 0.12232 0.74006 0.77536 0.0
H606 H 0.10182 0.72928 0.82336 0.0
O607 O 0.09595 0.84026 0.77827 0.0
H608 H 0.16696 0.82979 0.77156 0.0
H609 H 0.11616 0.87635 0.78668 0.0
H610 H 0.18345 0.72312 0.82054 0.0
H611 H 0.04332 0.76148 0.7754 0.0
H612 H 0.16074 0.6905 0.83148 0.0
H613 H 0.05674 0.73263 0.74915 0.0
O614 O 0.1396 0.7891 0.83113 0.0
H615 H 0.07358 0.86143 0.85143 0.0
H616 H 0.15057 0.85447 0.82435 0.0
H617 H 0.14294 0.8767 0.85789 0.0
H618 H 0.1042 0.88033 0.87162 0.0
H619 H 0.08199 0.83923 0.81803 0.0
H620 H 0.13833 0.90652 0.77004 0.0
H621 H 0.17548 0.89819 0.75412 0.0
O622 O 0.15042 0.81593 0.80792 0.0
C623 C 0.13739 0.78967 0.76725 0.0
C624 C 0.17366 0.86335 0.76191 0.0
C625 C 0.14477 0.88974 0.77036 0.0
N626 N 0.14037 0.85136 0.78028 0.0
C627 C 0.1607 0.84661 0.7714 0.0
C628 C 0.13228 0.87258 0.77971 0.0
C629 C 0.16561 0.88505 0.76143 0.0
C630 C 0.07557 0.7664 0.79017 0.0
N631 N 0.09745 0.76033 0.79033 0.0
C632 C 0.06061 0.75652 0.77544 0.0
C633 C 0.06814 0.74038 0.76068 0.0
C634 C 0.09049 0.73441 0.76074 0.0
C635 C 0.10497 0.74467 0.77566 0.0
C636 C 0.12973 0.70782 0.82806 0.0
C637 C 0.15494 0.74434 0.81607 0.0
C638 C 0.11972 0.72808 0.82286 0.0
N639 N 0.13231 0.74606 0.81697 0.0
C640 C 0.16552 0.72435 0.82119 0.0
C641 C 0.15278 0.70602 0.82729 0.0
C642 C 0.15389 0.80328 0.8246 0.0
C643 C 0.09053 0.85997 0.84562 0.0
C644 C 0.13368 0.85583 0.8303 0.0
C645 C 0.12946 0.86851 0.84926 0.0
C646 C 0.10772 0.87056 0.85695 0.0
N647 N 0.11673 0.84549 0.81929 0.0
C648 C 0.09538 0.84744 0.82671 0.0
Co649 Co 0.474 0.8676 0.06344 0.0
Co650 Co 0.42164 0.87276 0.04344 0.0
O651 O 0.4448 0.85457 0.05739 0.0
C652 C 0.4674 0.83179 0.09834 0.0
O653 O 0.44719 0.82727 0.09152 0.0
C654 C 0.4193 0.83079 0.01815 0.0
O655 O 0.44091 0.83201 0.01551 0.0
O656 O 0.44154 0.87721 0.01744 0.0
O657 O 0.47168 0.88738 0.03668 0.0
H658 H 0.39293 0.93877 0.00123 0.0
H659 H 0.46795 0.81863 0.05589 0.0
O660 O 0.47819 0.84808 0.09017 0.0
H661 H 0.5283 0.84118 0.00552 0.0
H662 H 0.55383 0.86727 0.08866 0.0
H663 H 0.49161 0.91376 0.06271 0.0
H664 H 0.50997 0.86875 0.02946 0.0
H665 H 0.51797 0.85027 0.07872 0.0
O666 O 0.40907 0.84563 0.02916 0.0
H667 H 0.42139 0.91605 0.02001 0.0
H668 H 0.37311 0.86692 0.0352 0.0
H669 H 0.52731 0.93139 0.07227 0.0
H670 H 0.48599 0.79056 0.03249 0.0
H671 H 0.55863 0.90805 0.08558 0.0
H672 H 0.51643 0.80169 0.00699 0.0
O673 O 0.4593 0.89052 0.08205 0.0
H674 H 0.38411 0.82675 0.10206 0.0
H675 H 0.39431 0.90242 0.07241 0.0
H676 H 0.37047 0.89668 0.10521 0.0
H677 H 0.36521 0.85861 0.12023 0.0
H678 H 0.40793 0.83327 0.06936 0.0
H679 H 0.34416 0.889 0.01641 0.0
H680 H 0.35399 0.92526 0.99935 0.0
O681 O 0.43337 0.9007 0.05753 0.0
C682 C 0.46102 0.88535 0.01851 0.0
C683 C 0.38842 0.92304 0.00868 0.0
C684 C 0.36106 0.8951 0.01718 0.0
N685 N 0.39887 0.89031 0.0289 0.0
C686 C 0.40445 0.91015 0.0194 0.0
C687 C 0.37753 0.88265 0.02776 0.0
C688 C 0.36658 0.91544 0.00761 0.0
C689 C 0.48147 0.82367 0.04536 0.0
N690 N 0.48826 0.84532 0.04473 0.0
C691 C 0.49151 0.80765 0.0319 0.0
C692 C 0.50855 0.81392 0.01755 0.0
C693 C 0.51523 0.83604 0.01674 0.0
C694 C 0.50479 0.85159 0.03043 0.0
C695 C 0.54025 0.87759 0.08298 0.0
C696 C 0.50519 0.90348 0.06832 0.0
C697 C 0.51985 0.86808 0.07743 0.0
N698 N 0.50261 0.881 0.07021 0.0
C699 C 0.52538 0.91357 0.07374 0.0
C700 C 0.54296 0.90049 0.08117 0.0
C701 C 0.44559 0.90472 0.0744 0.0
C702 C 0.38628 0.84341 0.09568 0.0
C703 C 0.39225 0.88582 0.07894 0.0
C704 C 0.37865 0.88266 0.09747 0.0
C705 C 0.37569 0.8613 0.10588 0.0
N706 N 0.40259 0.86819 0.06904 0.0
C707 C 0.39974 0.8472 0.07717 0.0
Co708 Co 0.88204 0.2748 0.68762 0.0
Co709 Co 0.87698 0.32762 0.70651 0.0
O710 O 0.89502 0.30418 0.69279 0.0
C711 C 0.91719 0.28061 0.65187 0.0
O712 O 0.92228 0.30076 0.65843 0.0
C713 C 0.91921 0.33036 0.73124 0.0
O714 O 0.91799 0.30879 0.73413 0.0
O715 O 0.87282 0.3083 0.73301 0.0
O716 O 0.86274 0.27758 0.71465 0.0
H717 H 0.81148 0.35725 0.74888 0.0
H718 H 0.93114 0.28123 0.69416 0.0
O719 O 0.901 0.27012 0.66059 0.0
H720 H 0.90975 0.22199 0.74631 0.0
H721 H 0.88246 0.1944 0.66429 0.0
H722 H 0.83602 0.25693 0.68962 0.0
H723 H 0.88169 0.23961 0.72241 0.0
H724 H 0.89936 0.23065 0.67287 0.0
O725 O 0.90429 0.34048 0.72023 0.0
H726 H 0.83396 0.32839 0.73044 0.0
H727 H 0.88293 0.37631 0.71364 0.0
H728 H 0.81849 0.22083 0.6814 0.0
H729 H 0.95969 0.26388 0.71747 0.0
H730 H 0.84182 0.18935 0.66848 0.0
H731 H 0.94915 0.234 0.74388 0.0
O732 O 0.85871 0.28893 0.66912 0.0
H733 H 0.92228 0.36383 0.64651 0.0
H734 H 0.84698 0.35433 0.67733 0.0
H735 H 0.85232 0.37746 0.64395 0.0
H736 H 0.8902 0.38236 0.62835 0.0
H737 H 0.91615 0.34072 0.6798 0.0
H738 H 0.86108 0.40566 0.73207 0.0
H739 H 0.82503 0.39622 0.74977 0.0
O740 O 0.84887 0.31558 0.69301 0.0
C741 C 0.86478 0.28877 0.7325 0.0
C742 C 0.82712 0.36159 0.74115 0.0
C743 C 0.85497 0.38876 0.73174 0.0
N744 N 0.85961 0.3507 0.72077 0.0
C745 C 0.83988 0.34533 0.73062 0.0
C746 C 0.86729 0.37206 0.72136 0.0
C747 C 0.83474 0.38345 0.74167 0.0
C748 C 0.92635 0.26793 0.70507 0.0
N749 N 0.90474 0.26106 0.70623 0.0
C750 C 0.94264 0.25828 0.71849 0.0
C751 C 0.93671 0.24157 0.73334 0.0
C752 C 0.91463 0.23481 0.73468 0.0
C753 C 0.89881 0.24485 0.72102 0.0
C754 C 0.87215 0.20804 0.66984 0.0
C755 C 0.84629 0.24327 0.68415 0.0
C756 C 0.88161 0.22866 0.67463 0.0
N757 N 0.86871 0.24597 0.68173 0.0
C758 C 0.83626 0.22288 0.67949 0.0
C759 C 0.84932 0.2052 0.67226 0.0
C760 C 0.8446 0.30285 0.67659 0.0
C761 C 0.90569 0.36181 0.65315 0.0
C762 C 0.8635 0.35625 0.67055 0.0
C763 C 0.86643 0.36943 0.65169 0.0
C764 C 0.88769 0.37219 0.64296 0.0
N765 N 0.88125 0.34611 0.68046 0.0
C766 C 0.90213 0.34876 0.672 0.0
Co767 Co 0.97612 0.6319 0.93602 0.0
Co768 Co 0.92306 0.62708 0.9542 0.0
O769 O 0.94691 0.64521 0.94136 0.0
C770 C 0.97098 0.66819 0.90135 0.0
O771 O 0.95056 0.67269 0.90748 0.0
C772 C 0.92059 0.66852 0.98031 0.0
O773 O 0.94211 0.6669 0.98344 0.0
O774 O 0.94204 0.6218 0.98074 0.0
O775 O 0.97264 0.61162 0.96226 0.0
H776 H 0.89202 0.56063 0.99401 0.0
H777 H 0.97059 0.6808 0.94403 0.0
O778 O 0.98148 0.65187 0.90983 0.0
H779 H 0.02863 0.65657 0.99633 0.0
H780 H 0.05688 0.63158 0.91391 0.0
H781 H 0.99305 0.58549 0.93644 0.0
H782 H 0.01082 0.62965 0.97127 0.0
H783 H 0.02084 0.64888 0.92262 0.0
O784 O 0.91042 0.65411 0.96868 0.0
H785 H 0.92141 0.58331 0.97668 0.0
H786 H 0.87438 0.63348 0.96097 0.0
H787 H 0.02889 0.56755 0.92805 0.0
H788 H 0.98811 0.70824 0.96857 0.0
H789 H 0.06104 0.59069 0.91654 0.0
H790 H 0.01738 0.69624 0.99505 0.0
O791 O 0.96176 0.60957 0.91648 0.0
H792 H 0.88807 0.67486 0.89542 0.0
H793 H 0.89633 0.59843 0.9237 0.0
H794 H 0.87369 0.6052 0.89025 0.0
H795 H 0.86941 0.64365 0.87591 0.0
H796 H 0.91069 0.66731 0.92874 0.0
H797 H 0.8445 0.61145 0.9783 0.0
H798 H 0.85323 0.57468 0.99489 0.0
O799 O 0.93487 0.59924 0.9399 0.0
C800 C 0.96142 0.6134 0.98012 0.0
C801 C 0.88799 0.57658 0.98676 0.0
C802 C 0.86133 0.60511 0.97797 0.0
N803 N 0.89958 0.60957 0.96762 0.0
C804 C 0.90455 0.58946 0.97686 0.0
C805 C 0.87832 0.61753 0.96821 0.0
C806 C 0.86623 0.58449 0.98727 0.0
C807 C 0.9836 0.6754 0.95503 0.0
N808 N 0.99002 0.65363 0.95561 0.0
C809 C 0.99335 0.69105 0.96912 0.0
C810 C 0.00972 0.6843 0.984 0.0
C811 C 0.01605 0.66207 0.98471 0.0
C812 C 0.00591 0.64689 0.9704 0.0
C813 C 0.04295 0.62135 0.91883 0.0
C814 C 0.00698 0.59569 0.93156 0.0
C815 C 0.02244 0.63104 0.92367 0.0
N816 N 0.00476 0.61823 0.92998 0.0
C817 C 0.02724 0.58542 0.92681 0.0
C818 C 0.04529 0.59838 0.92037 0.0
C819 C 0.94764 0.59538 0.92341 0.0
C820 C 0.88982 0.65803 0.90149 0.0
C821 C 0.8947 0.61519 0.91747 0.0
C822 C 0.88178 0.61893 0.89857 0.0
C823 C 0.87937 0.64051 0.89055 0.0
N824 N 0.90492 0.63247 0.92811 0.0
C825 C 0.90259 0.65366 0.92036 0.0
Co826 Co 0.61542 0.72654 0.18711 0.0
Co827 Co 0.62047 0.67346 0.2051 0.0
O828 O 0.60208 0.69741 0.19283 0.0
C829 C 0.57792 0.72184 0.15366 0.0
O830 O 0.57311 0.7016 0.16016 0.0
C831 C 0.57971 0.67091 0.23231 0.0
O832 O 0.58139 0.6924 0.23559 0.0
O833 O 0.62652 0.69238 0.23153 0.0
O834 O 0.63641 0.72291 0.21277 0.0
H835 H 0.68785 0.64211 0.24307 0.0
H836 H 0.56678 0.72116 0.19684 0.0
O837 O 0.59476 0.73202 0.1615 0.0
H838 H 0.5929 0.77945 0.24791 0.0
H839 H 0.6157 0.80717 0.16451 0.0
H840 H 0.66193 0.74317 0.18627 0.0
H841 H 0.61893 0.7614 0.2221 0.0
H842 H 0.59838 0.77135 0.17404 0.0
O843 O 0.59382 0.66085 0.22024 0.0
H844 H 0.6648 0.67162 0.22644 0.0
H845 H 0.61411 0.62477 0.21188 0.0
H846 H 0.67989 0.7788 0.17707 0.0
H847 H 0.54024 0.73891 0.22218 0.0
H848 H 0.65669 0.81102 0.16588 0.0
H849 H 0.55319 0.76832 0.24803 0.0
O850 O 0.63709 0.71205 0.16693 0.0
H851 H 0.57101 0.63893 0.14746 0.0
H852 H 0.64818 0.64663 0.17381 0.0
H853 H 0.64042 0.62412 0.14049 0.0
H854 H 0.60159 0.62012 0.12712 0.0
H855 H 0.57955 0.66141 0.18064 0.0
H856 H 0.63651 0.59478 0.22854 0.0
H857 H 0.67372 0.60336 0.24419 0.0
O858 O 0.64795 0.68517 0.19009 0.0
C859 C 0.63501 0.71172 0.23068 0.0
C860 C 0.6717 0.63815 0.23623 0.0
C861 C 0.64288 0.61159 0.2281 0.0
N862 N 0.63825 0.64989 0.21799 0.0
C863 C 0.65861 0.65478 0.22672 0.0
C864 C 0.63026 0.62865 0.21872 0.0
C865 C 0.66375 0.61641 0.23687 0.0
C866 C 0.57259 0.73423 0.20755 0.0
N867 N 0.59437 0.7406 0.20733 0.0
C868 C 0.55745 0.74411 0.2221 0.0
C869 C 0.56472 0.76056 0.23664 0.0
C870 C 0.58698 0.76683 0.23655 0.0
C871 C 0.60164 0.75656 0.2218 0.0
C872 C 0.62596 0.7932 0.16927 0.0
C873 C 0.6517 0.75715 0.18158 0.0
C874 C 0.61626 0.77282 0.17458 0.0
N875 N 0.62911 0.75509 0.18064 0.0
C876 C 0.66199 0.77728 0.17636 0.0
C877 C 0.64898 0.79537 0.17011 0.0
C878 C 0.6514 0.69788 0.17346 0.0
C879 C 0.588 0.64055 0.15311 0.0
C880 C 0.63126 0.64511 0.16802 0.0
C881 C 0.62696 0.63227 0.14918 0.0
C882 C 0.60517 0.63001 0.1417 0.0
N883 N 0.61432 0.65541 0.17911 0.0
C884 C 0.59293 0.65325 0.17189 0.0
Co885 Co 0.5249 0.36574 0.43803 0.0
Co886 Co 0.57704 0.37235 0.45838 0.0
O887 O 0.55447 0.35362 0.44413 0.0
C888 C 0.53257 0.33057 0.40261 0.0
O889 O 0.55248 0.32562 0.40997 0.0
C890 C 0.58017 0.33028 0.48336 0.0
O891 O 0.5585 0.33095 0.48563 0.0
O892 O 0.55692 0.37622 0.48431 0.0
O893 O 0.52629 0.38509 0.46513 0.0
H894 H 0.60385 0.43886 0.50107 0.0
H895 H 0.53263 0.31685 0.44507 0.0
O896 O 0.52162 0.3467 0.41089 0.0
H897 H 0.47089 0.3366 0.49489 0.0
H898 H 0.44532 0.36303 0.41218 0.0
H899 H 0.50568 0.41124 0.43941 0.0
H900 H 0.48857 0.36512 0.4716 0.0
H901 H 0.48177 0.34718 0.42188 0.0
O902 O 0.59021 0.34546 0.47263 0.0
H903 H 0.57608 0.41554 0.48202 0.0
H904 H 0.62565 0.36769 0.46687 0.0
H905 H 0.46934 0.42772 0.43012 0.0
H906 H 0.51527 0.28785 0.4678 0.0
H907 H 0.43893 0.40349 0.41626 0.0
H908 H 0.48412 0.29757 0.49303 0.0
O909 O 0.53891 0.38943 0.41989 0.0
H910 H 0.61591 0.32762 0.39964 0.0
H911 H 0.60381 0.40283 0.42976 0.0
H912 H 0.62794 0.39786 0.39703 0.0
H913 H 0.63415 0.36003 0.38178 0.0
H914 H 0.59179 0.33337 0.43227 0.0
H915 H 0.65393 0.39039 0.48594 0.0
H916 H 0.6431 0.42631 0.50312 0.0
O917 O 0.56469 0.40008 0.44439 0.0
C918 C 0.53716 0.38362 0.48324 0.0
C919 C 0.60879 0.42329 0.49357 0.0
C920 C 0.63689 0.39607 0.4851 0.0
N921 N 0.59928 0.3904 0.47314 0.0
C922 C 0.59315 0.41005 0.4827 0.0
C923 C 0.6208 0.38327 0.47437 0.0
C924 C 0.63081 0.41622 0.49474 0.0
C925 C 0.51878 0.32128 0.45544 0.0
N926 N 0.51124 0.34267 0.45625 0.0
C927 C 0.50913 0.30474 0.46854 0.0
C928 C 0.49171 0.3102 0.48274 0.0
C929 C 0.48426 0.33207 0.48377 0.0
C930 C 0.49434 0.34816 0.47044 0.0
C931 C 0.45848 0.37372 0.41816 0.0
C932 C 0.49249 0.40058 0.43354 0.0
C933 C 0.47921 0.36487 0.42358 0.0
N934 N 0.49591 0.37825 0.43122 0.0
C935 C 0.47195 0.41002 0.42827 0.0
C936 C 0.45489 0.39645 0.42051 0.0
C937 C 0.55235 0.40387 0.42757 0.0
C938 C 0.61333 0.34419 0.40612 0.0
C939 C 0.6063 0.38632 0.42313 0.0
C940 C 0.62005 0.38361 0.40464 0.0
C941 C 0.62355 0.36238 0.3961 0.0
N942 N 0.59634 0.36839 0.43287 0.0
C943 C 0.5997 0.34753 0.4246 0.0
Co944 Co 0.31089 0.38341 0.22556 0.0
Co945 Co 0.29335 0.37774 0.17234 0.0
O946 O 0.30568 0.39629 0.19615 0.0
C947 C 0.34536 0.41995 0.22043 0.0
O948 O 0.33917 0.42457 0.20004 0.0
C949 C 0.26689 0.41888 0.16924 0.0
O950 O 0.26355 0.41739 0.19073 0.0
O951 O 0.26666 0.37224 0.19103 0.0
O952 O 0.28481 0.36291 0.22212 0.0
H953 H 0.25473 0.31052 0.14142 0.0
H954 H 0.30251 0.43219 0.2194 0.0
O955 O 0.33689 0.4036 0.23089 0.0
H956 H 0.2498 0.40811 0.27711 0.0
H957 H 0.33304 0.3842 0.30629 0.0
H958 H 0.31076 0.33721 0.24302 0.0
H959 H 0.27533 0.38124 0.25992 0.0
H960 H 0.32379 0.40105 0.27016 0.0
O961 O 0.2787 0.40447 0.15929 0.0
H962 H 0.27145 0.33365 0.17081 0.0
H963 H 0.28707 0.38362 0.12353 0.0
H964 H 0.31969 0.31971 0.27895 0.0
H965 H 0.27752 0.45959 0.23634 0.0
H966 H 0.33124 0.34329 0.31076 0.0
H967 H 0.25083 0.44767 0.26543 0.0
O968 O 0.33075 0.36107 0.21165 0.0
H969 H 0.35198 0.42592 0.13764 0.0
H970 H 0.32451 0.34923 0.14624 0.0
H971 H 0.35815 0.3562 0.12395 0.0
H972 H 0.37208 0.39478 0.11949 0.0
H973 H 0.31848 0.41817 0.15993 0.0
H974 H 0.27034 0.36112 0.09365 0.0
H975 H 0.25411 0.32424 0.10251 0.0
O976 O 0.3078 0.35019 0.18458 0.0
C977 C 0.26714 0.36409 0.21052 0.0
C978 C 0.26183 0.32652 0.13734 0.0
C979 C 0.27056 0.35494 0.11053 0.0
N980 N 0.28044 0.35985 0.14886 0.0
C981 C 0.27139 0.33966 0.1539 0.0
C982 C 0.27998 0.36762 0.12753 0.0
C983 C 0.26146 0.33424 0.11552 0.0
C984 C 0.29144 0.42683 0.23236 0.0
N985 N 0.291 0.40514 0.23902 0.0
C986 C 0.27709 0.44245 0.24177 0.0
C987 C 0.26208 0.43575 0.25805 0.0
C988 C 0.26151 0.41359 0.26462 0.0
C989 C 0.27609 0.39844 0.25482 0.0
C990 C 0.32815 0.37377 0.29249 0.0
C991 C 0.31555 0.3476 0.25684 0.0
C992 C 0.32299 0.3832 0.27194 0.0
N993 N 0.31682 0.37014 0.2544 0.0
C994 C 0.32061 0.33758 0.27715 0.0
C995 C 0.32705 0.3508 0.29502 0.0
C996 C 0.32417 0.34667 0.1976 0.0
C997 C 0.34608 0.40903 0.13947 0.0
C998 C 0.33055 0.36605 0.14453 0.0
C999 C 0.34957 0.3699 0.13181 0.0
C1000 C 0.35736 0.39155 0.1293 0.0
N1001 N 0.31959 0.38329 0.15446 0.0
C1002 C 0.32712 0.40455 0.15205 0.0
Co1003 Co 0.81311 0.11578 0.7753 0.0
Co1004 Co 0.7934 0.12182 0.82765 0.0
O1005 O 0.80708 0.10317 0.80469 0.0
C1006 C 0.84764 0.07962 0.78207 0.0
O1007 O 0.8408 0.07526 0.8023 0.0
C1008 C 0.76778 0.08009 0.83085 0.0
O1009 O 0.7651 0.0809 0.80923 0.0
O1010 O 0.76733 0.12614 0.8078 0.0
O1011 O 0.78653 0.13583 0.77748 0.0
H1012 H 0.75186 0.1886 0.85555 0.0
H1013 H 0.80499 0.06699 0.78209 0.0
O1014 O 0.83965 0.09598 0.77123 0.0
H1015 H 0.7548 0.08923 0.72147 0.0
H1016 H 0.83848 0.11432 0.69551 0.0
H1017 H 0.81277 0.16173 0.75715 0.0
H1018 H 0.7791 0.11678 0.73934 0.0
H1019 H 0.82806 0.0978 0.73147 0.0
O1020 O 0.77897 0.09501 0.84076 0.0
H1021 H 0.77027 0.16527 0.82735 0.0
H1022 H 0.78543 0.11683 0.87634 0.0
H1023 H 0.8228 0.1789 0.72134 0.0
H1024 H 0.78122 0.03894 0.76452 0.0
H1025 H 0.8361 0.15512 0.69036 0.0
H1026 H 0.75581 0.04992 0.73395 0.0
O1027 O 0.83201 0.13871 0.78962 0.0
H1028 H 0.85196 0.07594 0.86543 0.0
H1029 H 0.82272 0.15166 0.85443 0.0
H1030 H 0.85565 0.14602 0.87811 0.0
H1031 H 0.87046 0.10793 0.88378 0.0
H1032 H 0.81913 0.08236 0.84175 0.0
H1033 H 0.76701 0.13953 0.90504 0.0
H1034 H 0.75015 0.17576 0.89473 0.0
O1035 O 0.80764 0.14947 0.81545 0.0
C1036 C 0.76837 0.13398 0.7882 0.0
C1037 C 0.75922 0.17289 0.86027 0.0
C1038 C 0.7677 0.14534 0.88804 0.0
N1039 N 0.77912 0.13984 0.85023 0.0
C1040 C 0.76973 0.15965 0.84438 0.0
C1041 C 0.77807 0.13254 0.87171 0.0
C1042 C 0.75825 0.16566 0.88224 0.0
C1043 C 0.79451 0.07195 0.7685 0.0
N1044 N 0.79413 0.0935 0.76138 0.0
C1045 C 0.78084 0.05595 0.75873 0.0
C1046 C 0.76654 0.06213 0.74162 0.0
C1047 C 0.766 0.08416 0.7346 0.0
C1048 C 0.77989 0.09969 0.74477 0.0
C1049 C 0.83284 0.12485 0.70896 0.0
C1050 C 0.81831 0.15125 0.74368 0.0
C1051 C 0.82702 0.1156 0.72941 0.0
N1052 N 0.81991 0.12878 0.7465 0.0
C1053 C 0.824 0.16109 0.72344 0.0
C1054 C 0.83141 0.14775 0.70604 0.0
C1055 C 0.82453 0.15316 0.80317 0.0
C1056 C 0.84567 0.09261 0.86308 0.0
C1057 C 0.82915 0.13504 0.85667 0.0
C1058 C 0.84776 0.13195 0.87017 0.0
C1059 C 0.85605 0.11057 0.87336 0.0
N1060 N 0.81907 0.11734 0.84664 0.0
C1061 C 0.82708 0.09634 0.84971 0.0
Co1062 Co 0.13464 0.56292 0.02321 0.0
Co1063 Co 0.12843 0.54421 0.076 0.0
O1064 O 0.14717 0.55708 0.05267 0.0
C1065 C 0.17092 0.59723 0.02993 0.0
O1066 O 0.17452 0.59089 0.05046 0.0
C1067 C 0.16959 0.51773 0.07902 0.0
O1068 O 0.16839 0.51481 0.05744 0.0
O1069 O 0.12323 0.51795 0.05665 0.0
O1070 O 0.11418 0.5367 0.02581 0.0
H1071 H 0.06099 0.50472 0.10527 0.0
H1072 H 0.18336 0.55462 0.02983 0.0
O1073 O 0.15492 0.58906 0.01872 0.0
H1074 H 0.16026 0.50301 0.97072 0.0
H1075 H 0.13648 0.58676 0.94296 0.0
H1076 H 0.08869 0.56301 0.00509 0.0
H1077 H 0.13306 0.52808 0.98809 0.0
H1078 H 0.15285 0.5769 0.97915 0.0
O1079 O 0.15504 0.52932 0.08901 0.0
H1080 H 0.08444 0.52211 0.07652 0.0
H1081 H 0.13376 0.5369 0.12473 0.0
H1082 H 0.07168 0.57253 0.96907 0.0
H1083 H 0.21108 0.5301 0.01273 0.0
H1084 H 0.09566 0.58478 0.93781 0.0
H1085 H 0.19966 0.50397 0.98293 0.0
O1086 O 0.11202 0.58239 0.03724 0.0
H1087 H 0.1761 0.60197 0.1128 0.0
H1088 H 0.09955 0.5748 0.10235 0.0
H1089 H 0.10619 0.60791 0.12552 0.0
H1090 H 0.1447 0.62169 0.13091 0.0
H1091 H 0.16868 0.569 0.08963 0.0
H1092 H 0.11094 0.5195 0.15398 0.0
H1093 H 0.07422 0.50335 0.14433 0.0
O1094 O 0.10102 0.55888 0.06378 0.0
C1095 C 0.11534 0.51879 0.03706 0.0
C1096 C 0.07692 0.51179 0.1097 0.0
C1097 C 0.10497 0.52006 0.13703 0.0
N1098 N 0.11032 0.53073 0.09898 0.0
C1099 C 0.09023 0.52172 0.0935 0.0
C1100 C 0.11783 0.52986 0.12039 0.0
C1101 C 0.08436 0.511 0.13161 0.0
C1102 C 0.17822 0.54378 0.01658 0.0
N1103 N 0.15662 0.5434 0.00962 0.0
C1104 C 0.19402 0.52971 0.00707 0.0
C1105 C 0.1876 0.51501 0.9904 0.0
C1106 C 0.16552 0.51449 0.98353 0.0
C1107 C 0.15018 0.5288 0.99342 0.0
C1108 C 0.12587 0.58155 0.95651 0.0
C1109 C 0.09926 0.56812 0.99152 0.0
C1110 C 0.13503 0.57604 0.97709 0.0
N1111 N 0.12175 0.56945 0.99431 0.0
C1112 C 0.08951 0.57352 0.97116 0.0
C1113 C 0.10295 0.58035 0.9536 0.0
C1114 C 0.09752 0.57546 0.05103 0.0
C1115 C 0.15924 0.59614 0.11057 0.0
C1116 C 0.11634 0.58079 0.10445 0.0
C1117 C 0.12 0.5995 0.11767 0.0
C1118 C 0.14162 0.60721 0.12071 0.0
N1119 N 0.13372 0.57005 0.09453 0.0
C1120 C 0.15495 0.57748 0.09747 0.0
Co1121 Co 0.68942 0.884 0.27164 0.0
Co1122 Co 0.70618 0.87911 0.32517 0.0
O1123 O 0.69437 0.89737 0.30089 0.0
C1124 C 0.65533 0.92101 0.27571 0.0
O1125 O 0.66124 0.92577 0.29614 0.0
C1126 C 0.73304 0.92003 0.32808 0.0
O1127 O 0.73671 0.91825 0.30666 0.0
O1128 O 0.73307 0.87304 0.30692 0.0
O1129 O 0.71513 0.8632 0.27587 0.0
H1130 H 0.74367 0.81201 0.35769 0.0
H1131 H 0.69831 0.93277 0.27699 0.0
O1132 O 0.66378 0.90446 0.26555 0.0
H1133 H 0.75163 0.90692 0.22061 0.0
H1134 H 0.66896 0.88361 0.19046 0.0
H1135 H 0.68927 0.83749 0.25501 0.0
H1136 H 0.72548 0.88071 0.23789 0.0
H1137 H 0.6774 0.90098 0.22654 0.0
O1138 O 0.72092 0.90588 0.33801 0.0
H1139 H 0.72763 0.83486 0.3277 0.0
H1140 H 0.7118 0.8857 0.37397 0.0
H1141 H 0.68114 0.81948 0.21915 0.0
H1142 H 0.72394 0.95951 0.25995 0.0
H1143 H 0.67071 0.84263 0.18665 0.0
H1144 H 0.75094 0.9467 0.23152 0.0
O1145 O 0.66907 0.86215 0.28566 0.0
H1146 H 0.64758 0.92846 0.35823 0.0
H1147 H 0.67435 0.85136 0.35129 0.0
H1148 H 0.64046 0.85905 0.37297 0.0
H1149 H 0.62688 0.89785 0.37658 0.0
H1150 H 0.68132 0.91999 0.33658 0.0
H1151 H 0.72784 0.86349 0.40444 0.0
H1152 H 0.74384 0.82632 0.39639 0.0
O1153 O 0.69158 0.85153 0.31319 0.0
C1154 C 0.7327 0.86447 0.2876 0.0
C1155 C 0.73667 0.82815 0.36142 0.0
C1156 C 0.72781 0.85705 0.38765 0.0
N1157 N 0.71858 0.86147 0.34911 0.0
C1158 C 0.7275 0.84112 0.34452 0.0
C1159 C 0.71879 0.86956 0.37033 0.0
C1160 C 0.73678 0.83619 0.38313 0.0
C1161 C 0.70954 0.92702 0.26433 0.0
N1162 N 0.7098 0.9052 0.25809 0.0
C1163 C 0.72424 0.94227 0.25486 0.0
C1164 C 0.73942 0.93507 0.23896 0.0
C1165 C 0.7398 0.91278 0.23281 0.0
C1166 C 0.72487 0.89801 0.24265 0.0
C1167 C 0.67341 0.87337 0.20455 0.0
C1168 C 0.68489 0.84769 0.24092 0.0
C1169 C 0.6781 0.8831 0.22507 0.0
N1170 N 0.68376 0.87028 0.24295 0.0
C1171 C 0.68028 0.83738 0.22065 0.0
C1172 C 0.67446 0.85036 0.2024 0.0
C1173 C 0.67535 0.84792 0.30003 0.0
C1174 C 0.65332 0.91149 0.35677 0.0
C1175 C 0.66846 0.86827 0.35264 0.0
C1176 C 0.6493 0.87253 0.36501 0.0
C1177 C 0.64171 0.8943 0.36705 0.0
N1178 N 0.67975 0.88522 0.34259 0.0
C1179 C 0.67242 0.9066 0.34455 0.0
Co1180 Co 0.36466 0.43716 0.52272 0.0
Co1181 Co 0.36875 0.45448 0.57614 0.0
O1182 O 0.35084 0.44249 0.55171 0.0
C1183 C 0.3275 0.40331 0.52683 0.0
O1184 O 0.32314 0.40904 0.54739 0.0
C1185 C 0.32794 0.48162 0.5781 0.0
O1186 O 0.33 0.48494 0.55665 0.0
O1187 O 0.3752 0.48112 0.55766 0.0
O1188 O 0.38557 0.46278 0.52703 0.0
H1189 H 0.43557 0.49197 0.60921 0.0
H1190 H 0.31588 0.44626 0.52721 0.0
O1191 O 0.34405 0.41164 0.51656 0.0
H1192 H 0.34276 0.49892 0.47068 0.0
H1193 H 0.36627 0.41577 0.44178 0.0
H1194 H 0.41143 0.43654 0.50685 0.0
H1195 H 0.36863 0.47288 0.48865 0.0
H1196 H 0.34835 0.42491 0.47742 0.0
O1197 O 0.34189 0.46955 0.58839 0.0
H1198 H 0.41305 0.47576 0.57906 0.0
H1199 H 0.36148 0.4607 0.62479 0.0
H1200 H 0.42999 0.42771 0.47144 0.0
H1201 H 0.28948 0.47181 0.5095 0.0
H1202 H 0.40733 0.41697 0.4387 0.0
H1203 H 0.30282 0.49847 0.481 0.0
O1204 O 0.38617 0.41685 0.53728 0.0
H1205 H 0.31853 0.3967 0.60933 0.0
H1206 H 0.39592 0.42276 0.60302 0.0
H1207 H 0.38768 0.38923 0.62503 0.0
H1208 H 0.34874 0.376 0.62833 0.0
H1209 H 0.32754 0.43008 0.58734 0.0
H1210 H 0.38335 0.47693 0.65539 0.0
H1211 H 0.42073 0.49262 0.6477 0.0
O1212 O 0.39641 0.43956 0.56478 0.0
C1213 C 0.38404 0.48053 0.53847 0.0
C1214 C 0.41935 0.4851 0.61279 0.0
C1215 C 0.39003 0.47669 0.6387 0.0
N1216 N 0.38609 0.46707 0.6002 0.0
C1217 C 0.40655 0.47584 0.5958 0.0
C1218 C 0.3777 0.46756 0.6213 0.0
C1219 C 0.411 0.48549 0.63438 0.0
C1220 C 0.32186 0.45737 0.51454 0.0
N1221 N 0.34378 0.45751 0.50864 0.0
C1222 C 0.3068 0.47201 0.50468 0.0
C1223 C 0.3143 0.487 0.48874 0.0
C1224 C 0.33668 0.48725 0.48293 0.0
C1225 C 0.35126 0.47238 0.49316 0.0
C1226 C 0.3763 0.42031 0.45599 0.0
C1227 C 0.40143 0.43205 0.49265 0.0
C1228 C 0.36625 0.42539 0.47627 0.0
N1229 N 0.3788 0.43113 0.49431 0.0
C1230 C 0.41206 0.42705 0.47263 0.0
C1231 C 0.39935 0.42106 0.45424 0.0
C1232 C 0.40021 0.42321 0.55181 0.0
C1233 C 0.33556 0.40228 0.608 0.0
C1234 C 0.37895 0.41703 0.60422 0.0
C1235 C 0.37438 0.39807 0.61679 0.0
C1236 C 0.35252 0.39067 0.61865 0.0
N1237 N 0.36222 0.42831 0.5938 0.0
C1238 C 0.34076 0.42118 0.59559 0.0
Co1239 Co 0.1873 0.61625 0.72568 0.0
Co1240 Co 0.20604 0.62156 0.67287 0.0
O1241 O 0.19281 0.60324 0.69636 0.0
C1242 C 0.15255 0.58009 0.72004 0.0
O1243 O 0.15918 0.57522 0.69985 0.0
C1244 C 0.23159 0.5798 0.67006 0.0
O1245 O 0.23444 0.581 0.69165 0.0
O1246 O 0.23245 0.62627 0.69217 0.0
O1247 O 0.21378 0.63631 0.72271 0.0
H1248 H 0.24687 0.688 0.64315 0.0
H1249 H 0.19522 0.56733 0.71958 0.0
O1250 O 0.16085 0.59652 0.73051 0.0
H1251 H 0.24676 0.59057 0.77865 0.0
H1252 H 0.16398 0.61579 0.80609 0.0
H1253 H 0.18797 0.66244 0.7432 0.0
H1254 H 0.22207 0.61783 0.76087 0.0
H1255 H 0.17312 0.59885 0.76998 0.0
O1256 O 0.22034 0.59457 0.65999 0.0
H1257 H 0.22899 0.66511 0.67205 0.0
H1258 H 0.21321 0.61577 0.62417 0.0
H1259 H 0.17919 0.68002 0.77914 0.0
H1260 H 0.21937 0.53957 0.73708 0.0
H1261 H 0.16692 0.65659 0.81081 0.0
H1262 H 0.24547 0.55106 0.76688 0.0
O1263 O 0.16811 0.63892 0.71137 0.0
H1264 H 0.14697 0.57491 0.63689 0.0
H1265 H 0.17617 0.65088 0.64614 0.0
H1266 H 0.14285 0.64477 0.62313 0.0
H1267 H 0.12805 0.60655 0.61835 0.0
H1268 H 0.18018 0.5818 0.65988 0.0
H1269 H 0.23109 0.63802 0.59477 0.0
H1270 H 0.24799 0.67447 0.60418 0.0
O1271 O 0.19193 0.64939 0.6849 0.0
C1272 C 0.23174 0.63441 0.71166 0.0
C1273 C 0.23949 0.67218 0.63882 0.0
C1274 C 0.23066 0.64412 0.61168 0.0
N1275 N 0.21987 0.63924 0.64976 0.0
C1276 C 0.22928 0.65919 0.65511 0.0
C1277 C 0.2206 0.63158 0.6284 0.0
C1278 C 0.24013 0.66457 0.61697 0.0
C1279 C 0.20601 0.57252 0.73283 0.0
N1280 N 0.20656 0.59419 0.73955 0.0
C1281 C 0.21989 0.55668 0.74257 0.0
C1282 C 0.23457 0.56314 0.75924 0.0
C1283 C 0.23528 0.58528 0.76587 0.0
C1284 C 0.22117 0.60065 0.75574 0.0
C1285 C 0.16924 0.62615 0.79237 0.0
C1286 C 0.1828 0.65213 0.75693 0.0
C1287 C 0.17434 0.61667 0.77183 0.0
N1288 N 0.18105 0.62963 0.75441 0.0
C1289 C 0.17782 0.66219 0.77724 0.0
C1290 C 0.17096 0.64906 0.79502 0.0
C1291 C 0.17525 0.65318 0.69745 0.0
C1292 C 0.15325 0.59164 0.63885 0.0
C1293 C 0.16975 0.63421 0.64428 0.0
C1294 C 0.15092 0.63085 0.63116 0.0
C1295 C 0.14264 0.6094 0.62847 0.0
N1296 N 0.18006 0.6167 0.65442 0.0
C1297 C 0.17206 0.59564 0.65184 0.0
Co1298 Co 0.63274 0.93843 0.97699 0.0
Co1299 Co 0.62844 0.95505 0.92342 0.0
O1300 O 0.64658 0.94377 0.94803 0.0
C1301 C 0.67068 0.90537 0.97339 0.0
O1302 O 0.67517 0.91115 0.95286 0.0
C1303 C 0.66882 0.98284 0.92106 0.0
O1304 O 0.66664 0.98658 0.94243 0.0
O1305 O 0.62152 0.9818 0.94158 0.0
O1306 O 0.61126 0.96352 0.97228 0.0
H1307 H 0.56101 0.99089 0.88977 0.0
H1308 H 0.68129 0.94869 0.97268 0.0
O1309 O 0.65391 0.91346 0.98351 0.0
H1310 H 0.65279 0.00119 0.02857 0.0
H1311 H 0.63106 0.91723 0.05799 0.0
H1312 H 0.58591 0.93692 0.99258 0.0
H1313 H 0.62768 0.97433 0.01072 0.0
H1314 H 0.64903 0.92687 0.0225 0.0
O1315 O 0.65505 0.97039 0.91097 0.0
H1316 H 0.58377 0.9755 0.92016 0.0
H1317 H 0.63566 0.96072 0.87472 0.0
H1318 H 0.5673 0.92754 0.02781 0.0
H1319 H 0.70693 0.9751 0.99026 0.0
H1320 H 0.58994 0.91725 0.06069 0.0
H1321 H 0.69277 0.00168 0.01844 0.0
O1322 O 0.61187 0.91743 0.9625 0.0
H1323 H 0.67973 0.89769 0.89116 0.0
H1324 H 0.60188 0.92248 0.89695 0.0
H1325 H 0.61075 0.88876 0.87546 0.0
H1326 H 0.64992 0.87618 0.87243 0.0
H1327 H 0.6701 0.93123 0.91262 0.0
H1328 H 0.61355 0.97614 0.84386 0.0
H1329 H 0.57589 0.99127 0.85129 0.0
O1330 O 0.60102 0.93981 0.93498 0.0
C1331 C 0.6126 0.98122 0.96074 0.0
C1332 C 0.57736 0.98427 0.88631 0.0
C1333 C 0.60686 0.97601 0.86055 0.0
N1334 N 0.61091 0.967 0.89918 0.0
C1335 C 0.59029 0.97546 0.90344 0.0
C1336 C 0.61931 0.96734 0.87809 0.0
C1337 C 0.58573 0.98449 0.86472 0.0
C1338 C 0.67497 0.95977 0.98521 0.0
N1339 N 0.65302 0.95941 0.991 0.0
C1340 C 0.68959 0.9749 0.99499 0.0
C1341 C 0.68163 0.98984 0.01076 0.0
C1342 C 0.65922 0.98956 0.01646 0.0
C1343 C 0.64509 0.97423 0.00631 0.0
C1344 C 0.62103 0.92154 0.0437 0.0
C1345 C 0.5959 0.93268 0.00686 0.0
C1346 C 0.63111 0.92691 0.02352 0.0
N1347 N 0.61856 0.93231 0.00537 0.0
C1348 C 0.58525 0.92737 0.02677 0.0
C1349 C 0.59795 0.92165 0.04525 0.0
C1350 C 0.59763 0.92342 0.94802 0.0
C1351 C 0.6626 0.90299 0.89237 0.0
C1352 C 0.61895 0.91702 0.89587 0.0
C1353 C 0.62388 0.89796 0.88359 0.0
C1354 C 0.64586 0.89092 0.88188 0.0
N1355 N 0.63546 0.92876 0.90614 0.0
C1356 C 0.65705 0.92198 0.90449 0.0
Co1357 Co 0.86871 0.06094 0.4746 0.0
Co1358 Co 0.87352 0.04198 0.4219 0.0
O1359 O 0.85546 0.05561 0.44536 0.0
C1360 C 0.83296 0.09616 0.46924 0.0
O1361 O 0.82778 0.08956 0.44912 0.0
C1362 C 0.8313 0.01711 0.41894 0.0
O1363 O 0.83241 0.01403 0.4405 0.0
O1364 O 0.87767 0.01551 0.4413 0.0
O1365 O 0.88845 0.03424 0.47149 0.0
H1366 H 0.93914 0.99974 0.39234 0.0
H1367 H 0.81968 0.05358 0.46878 0.0
O1368 O 0.84935 0.08763 0.47958 0.0
H1369 H 0.84268 0.00168 0.52764 0.0
H1370 H 0.86904 0.08431 0.55499 0.0
H1371 H 0.91499 0.05959 0.49187 0.0
H1372 H 0.8701 0.02612 0.50977 0.0
H1373 H 0.85176 0.07535 0.519 0.0
O1374 O 0.84626 0.02822 0.409 0.0
H1375 H 0.9166 0.01817 0.42117 0.0
H1376 H 0.86761 0.03477 0.37321 0.0
H1377 H 0.9329 0.06821 0.52767 0.0
H1378 H 0.79176 0.02968 0.48638 0.0
H1379 H 0.90983 0.08086 0.55943 0.0
H1380 H 0.80313 0.00339 0.51606 0.0
O1381 O 0.89154 0.07982 0.46014 0.0
H1382 H 0.82811 0.10196 0.38584 0.0
H1383 H 0.90344 0.07112 0.39503 0.0
H1384 H 0.89801 0.10449 0.37192 0.0
H1385 H 0.86011 0.12011 0.36716 0.0
H1386 H 0.83432 0.06867 0.40893 0.0
H1387 H 0.88952 0.01635 0.34389 0.0
H1388 H 0.92561 0.99875 0.35337 0.0
O1389 O 0.90162 0.05559 0.4339 0.0
C1390 C 0.886 0.0162 0.46071 0.0
C1391 C 0.92348 0.00742 0.38798 0.0
C1392 C 0.89562 0.01672 0.3608 0.0
N1393 N 0.89094 0.02773 0.39884 0.0
C1394 C 0.91069 0.01794 0.40423 0.0
C1395 C 0.88327 0.02709 0.37748 0.0
C1396 C 0.91587 0.00685 0.36613 0.0
C1397 C 0.82482 0.04271 0.48199 0.0
N1398 N 0.84652 0.04192 0.48861 0.0
C1399 C 0.80889 0.02896 0.49178 0.0
C1400 C 0.81529 0.01418 0.50838 0.0
C1401 C 0.83745 0.01323 0.5149 0.0
C1402 C 0.85291 0.02722 0.50473 0.0
C1403 C 0.87924 0.07889 0.54121 0.0
C1404 C 0.90483 0.06494 0.50565 0.0
C1405 C 0.86957 0.0739 0.52074 0.0
N1406 N 0.88234 0.06701 0.50326 0.0
C1407 C 0.91508 0.06981 0.52588 0.0
C1408 C 0.90215 0.07689 0.54372 0.0
C1409 C 0.90571 0.0723 0.44632 0.0
C1410 C 0.8447 0.09532 0.38778 0.0
C1411 C 0.88691 0.0779 0.39318 0.0
C1412 C 0.88393 0.09676 0.38 0.0
C1413 C 0.86267 0.1055 0.37732 0.0
N1414 N 0.8692 0.068 0.40339 0.0
C1415 C 0.84831 0.07647 0.40082 0.0
H1416 H 0.12313 0.17792 0.52172 0.0
H1417 H 0.12275 0.26794 0.42428 0.0
H1418 H 0.06369 0.20001 0.48815 0.0
H1419 H 0.18251 0.23993 0.45241 0.0
H1420 H 0.10076 0.24695 0.45099 0.0
H1421 H 0.14479 0.20429 0.49997 0.0
C1422 C 0.11457 0.18843 0.50988 0.0
C1423 C 0.09155 0.18657 0.50657 0.0
C1424 C 0.11868 0.24549 0.45142 0.0
C1425 C 0.11636 0.2168 0.48156 0.0
C1426 C 0.13129 0.25749 0.43618 0.0
C1427 C 0.15454 0.25549 0.43593 0.0
C1428 C 0.12935 0.23138 0.46658 0.0
C1429 C 0.16464 0.24184 0.45188 0.0
C1430 C 0.127 0.20348 0.49745 0.0
C1431 C 0.08141 0.20077 0.49113 0.0
N1432 N 0.15196 0.23017 0.46647 0.0
N1433 N 0.09391 0.21519 0.47908 0.0
H1434 H 0.97985 0.87507 0.67612 0.0
H1435 H 0.07442 0.87492 0.76917 0.0
H1436 H 0.01034 0.93465 0.70196 0.0
H1437 H 0.04942 0.81548 0.73771 0.0
H1438 H 0.0477 0.89687 0.74814 0.0
H1439 H 0.00179 0.85303 0.702 0.0
C1440 C 0.99105 0.88357 0.68734 0.0
C1441 C 0.99343 0.90677 0.68669 0.0
C1442 C 0.04796 0.87902 0.74592 0.0
C1443 C 0.01866 0.88152 0.71639 0.0
C1444 C 0.06321 0.86643 0.75794 0.0
C1445 C 0.06433 0.84331 0.75503 0.0
C1446 C 0.03368 0.86845 0.73085 0.0
C1447 C 0.04926 0.83326 0.74037 0.0
C1448 C 0.0036 0.87093 0.70212 0.0
C1449 C 0.00808 0.91682 0.70177 0.0
N1450 N 0.03464 0.84592 0.72872 0.0
N1451 N 0.02026 0.90411 0.71592 0.0
H1452 H 0.37515 0.73007 0.92649 0.0
H1453 H 0.3745 0.82387 0.02027 0.0
H1454 H 0.31541 0.76057 0.95197 0.0
H1455 H 0.43431 0.79798 0.99026 0.0
H1456 H 0.3527 0.79734 0.99886 0.0
H1457 H 0.39695 0.75134 0.95314 0.0
C1458 C 0.36657 0.74114 0.93779 0.0
C1459 C 0.3434 0.74374 0.93682 0.0
C1460 C 0.3706 0.79735 0.99705 0.0
C1461 C 0.36836 0.76818 0.96738 0.0
C1462 C 0.3831 0.81249 0.00929 0.0
C1463 C 0.40629 0.81333 0.00685 0.0
C1464 C 0.38132 0.78291 0.98224 0.0
C1465 C 0.41648 0.79804 0.99253 0.0
C1466 C 0.37907 0.75329 0.95301 0.0
C1467 C 0.33323 0.75817 0.95201 0.0
N1468 N 0.4039 0.78355 0.98063 0.0
N1469 N 0.34581 0.76998 0.96657 0.0
H1470 H 0.51806 0.12715 0.17442 0.0
H1471 H 0.42689 0.12675 0.27082 0.0
H1472 H 0.48912 0.06742 0.20168 0.0
H1473 H 0.45019 0.18633 0.23834 0.0
H1474 H 0.45315 0.10502 0.24902 0.0
H1475 H 0.49693 0.14911 0.20107 0.0
C1476 C 0.50738 0.11861 0.18612 0.0
C1477 C 0.50517 0.09538 0.18565 0.0
C1478 C 0.45263 0.12285 0.24674 0.0
C1479 C 0.48089 0.12053 0.21621 0.0
C1480 C 0.43763 0.13531 0.2592 0.0
C1481 C 0.43616 0.15841 0.25622 0.0
C1482 C 0.46628 0.13351 0.23116 0.0
C1483 C 0.45064 0.16856 0.24106 0.0
C1484 C 0.4953 0.1312 0.20132 0.0
C1485 C 0.49121 0.08528 0.20132 0.0
N1486 N 0.46501 0.15602 0.22898 0.0
N1487 N 0.47948 0.09794 0.21588 0.0
H1488 H 0.68715 0.26167 0.54912 0.0
H1489 H 0.56522 0.2956 0.50888 0.0
H1490 H 0.62723 0.2291 0.57139 0.0
H1491 H 0.62532 0.32554 0.48359 0.0
H1492 H 0.58782 0.26918 0.52985 0.0
H1493 H 0.66499 0.28335 0.52287 0.0
C1494 C 0.66938 0.25895 0.54837 0.0
C1495 C 0.65902 0.24373 0.56264 0.0
C1496 C 0.59605 0.28143 0.51958 0.0
C1497 C 0.63355 0.26852 0.53276 0.0
C1498 C 0.58315 0.29653 0.5076 0.0
C1499 C 0.59338 0.31296 0.49465 0.0
C1500 C 0.61935 0.28286 0.51866 0.0
C1501 C 0.61669 0.31327 0.49351 0.0
C1502 C 0.65673 0.27133 0.53339 0.0
C1503 C 0.63593 0.2408 0.56086 0.0
N1504 N 0.62887 0.29858 0.50551 0.0
N1505 N 0.62397 0.25321 0.54634 0.0
H1506 H 0.92566 0.37527 0.72942 0.0
H1507 H 0.02081 0.37452 0.82183 0.0
H1508 H 0.95261 0.31544 0.75844 0.0
H1509 H 0.98898 0.43421 0.79793 0.0
H1510 H 0.99953 0.35288 0.79507 0.0
H1511 H 0.95228 0.39714 0.75068 0.0
C1512 C 0.93729 0.36669 0.74014 0.0
C1513 C 0.93672 0.34347 0.74236 0.0
C1514 C 0.99729 0.37072 0.79557 0.0
C1515 C 0.96723 0.3685 0.76679 0.0
C1516 C 0.00945 0.38313 0.81085 0.0
C1517 C 0.00647 0.40622 0.81232 0.0
C1518 C 0.98201 0.38144 0.78162 0.0
C1519 C 0.99167 0.41644 0.79751 0.0
C1520 C 0.95248 0.37922 0.75229 0.0
C1521 C 0.95233 0.3333 0.75635 0.0
N1522 N 0.97986 0.40394 0.78288 0.0
N1523 N 0.96685 0.34591 0.76817 0.0
H1524 H 0.87613 0.76749 0.07373 0.0
H1525 H 0.8759 0.67605 0.97761 0.0
H1526 H 0.81643 0.73884 0.04612 0.0
H1527 H 0.9355 0.70048 0.0092 0.0
H1528 H 0.85406 0.70236 0.99927 0.0
H1529 H 0.89812 0.7465 0.047 0.0
C1530 C 0.8676 0.75689 0.06195 0.0
C1531 C 0.84437 0.75472 0.06234 0.0
C1532 C 0.87193 0.70208 0.00137 0.0
C1533 C 0.86956 0.7306 0.03168 0.0
C1534 C 0.88445 0.68706 0.98899 0.0
C1535 C 0.90758 0.68587 0.99178 0.0
C1536 C 0.88257 0.71603 0.0167 0.0
C1537 C 0.9177 0.7007 0.00663 0.0
C1538 C 0.88021 0.7449 0.04669 0.0
C1539 C 0.83428 0.74089 0.04654 0.0
N1540 N 0.90511 0.71506 0.01867 0.0
N1541 N 0.84696 0.72922 0.03195 0.0
H1542 H 0.57247 0.62619 0.22961 0.0
H1543 H 0.48057 0.62548 0.32531 0.0
H1544 H 0.54802 0.68553 0.26169 0.0
H1545 H 0.51114 0.56616 0.29896 0.0
H1546 H 0.50154 0.64767 0.29873 0.0
H1547 H 0.5465 0.60412 0.25142 0.0
C1548 C 0.56153 0.63463 0.24114 0.0
C1549 C 0.5626 0.65776 0.244 0.0
C1550 C 0.50358 0.62979 0.29867 0.0
C1551 C 0.53282 0.63247 0.26908 0.0
C1552 C 0.49159 0.61707 0.31384 0.0
C1553 C 0.49428 0.59391 0.31453 0.0
C1554 C 0.51837 0.61931 0.28404 0.0
C1555 C 0.50867 0.58397 0.29913 0.0
C1556 C 0.54671 0.62197 0.25361 0.0
C1557 C 0.54788 0.66774 0.25906 0.0
N1558 N 0.52029 0.59676 0.2846 0.0
N1559 N 0.53369 0.65501 0.27115 0.0
H1560 H 0.26954 0.42573 0.12443 0.0
H1561 H 0.17613 0.51993 0.12388 0.0
H1562 H 0.23854 0.45147 0.1838 0.0
H1563 H 0.20212 0.4893 0.06443 0.0
H1564 H 0.2023 0.4984 0.14599 0.0
H1565 H 0.24843 0.45226 0.10233 0.0
C1566 C 0.2584 0.43706 0.13287 0.0
C1567 C 0.25562 0.4362 0.15602 0.0
C1568 C 0.20238 0.49648 0.12811 0.0
C1569 C 0.23135 0.46663 0.13071 0.0
C1570 C 0.18744 0.50878 0.11543 0.0
C1571 C 0.18675 0.50623 0.09225 0.0
C1572 C 0.21677 0.48147 0.11758 0.0
C1573 C 0.20195 0.49167 0.08226 0.0
C1574 C 0.24633 0.45221 0.1202 0.0
C1575 C 0.24108 0.45143 0.166 0.0
N1576 N 0.21625 0.47971 0.09501 0.0
N1577 N 0.22937 0.46593 0.15326 0.0
H1578 H 0.67723 0.97899 0.87663 0.0
H1579 H 0.76905 0.07472 0.87591 0.0
H1580 H 0.7 0.01273 0.93571 0.0
H1581 H 0.74038 0.0466 0.81646 0.0
H1582 H 0.7475 0.04871 0.89819 0.0
H1583 H 0.70382 0.00017 0.8547 0.0
C1584 C 0.68792 0.99076 0.88504 0.0
C1585 C 0.6862 0.99427 0.90805 0.0
C1586 C 0.74602 0.04813 0.88027 0.0
C1587 C 0.71672 0.01861 0.88292 0.0
C1588 C 0.75834 0.06297 0.8675 0.0
C1589 C 0.75633 0.06301 0.84425 0.0
C1590 C 0.73157 0.03317 0.86977 0.0
C1591 C 0.74232 0.04727 0.83432 0.0
C1592 C 0.7031 0.00286 0.87247 0.0
C1593 C 0.70063 0.0096 0.91801 0.0
N1594 N 0.73035 0.03307 0.84716 0.0
N1595 N 0.7152 0.02133 0.90536 0.0
H1596 H 0.72965 0.92746 0.37274 0.0
H1597 H 0.82492 0.01975 0.37408 0.0
H1598 H 0.76219 0.95201 0.3137 0.0
H1599 H 0.79798 0.98947 0.43329 0.0
H1600 H 0.79843 0.99884 0.35176 0.0
H1601 H 0.75089 0.95378 0.39497 0.0
C1602 C 0.74116 0.93849 0.3644 0.0
C1603 C 0.74434 0.93734 0.34131 0.0
C1604 C 0.7982 0.99687 0.36964 0.0
C1605 C 0.76875 0.96753 0.36677 0.0
C1606 C 0.81332 0.00882 0.38244 0.0
C1607 C 0.81386 0.00615 0.40561 0.0
C1608 C 0.78347 0.98211 0.38004 0.0
C1609 C 0.79828 0.99191 0.41548 0.0
C1610 C 0.7533 0.95352 0.37714 0.0
C1611 C 0.75934 0.9522 0.33145 0.0
N1612 N 0.78382 0.98029 0.40261 0.0
N1613 N 0.77111 0.96658 0.34427 0.0
H1614 H 0.25818 0.54595 0.68505 0.0
H1615 H 0.29619 0.51058 0.56285 0.0
H1616 H 0.23066 0.57406 0.62505 0.0
H1617 H 0.32026 0.4793 0.62277 0.0
H1618 H 0.27002 0.53212 0.58523 0.0
H1619 H 0.27909 0.51948 0.66244 0.0
C1620 C 0.2564 0.54645 0.66715 0.0
C1621 C 0.24284 0.56239 0.65693 0.0
C1622 C 0.28092 0.52041 0.59345 0.0
C1623 C 0.26677 0.53225 0.63095 0.0
C1624 C 0.29586 0.50811 0.58067 0.0
C1625 C 0.31061 0.4933 0.59096 0.0
C1626 C 0.28081 0.51794 0.61667 0.0
C1627 C 0.30935 0.49068 0.61411 0.0
C1628 C 0.26834 0.53134 0.65424 0.0
C1629 C 0.24106 0.56219 0.63366 0.0
N1630 N 0.29486 0.50302 0.62619 0.0
N1631 N 0.25304 0.54749 0.62146 0.0
H1632 H 0.28353 0.39506 0.53696 0.0
H1633 H 0.2554 0.36851 0.41029 0.0
H1634 H 0.33239 0.38634 0.48517 0.0
H1635 H 0.20917 0.35201 0.46255 0.0
H1636 H 0.2817 0.38144 0.43808 0.0
H1637 H 0.25453 0.38308 0.51079 0.0
C1638 C 0.28824 0.39026 0.52027 0.0
C1639 C 0.31044 0.39193 0.5132 0.0
C1640 C 0.26574 0.37515 0.44352 0.0
C1641 C 0.27736 0.37894 0.48319 0.0
C1642 C 0.25061 0.36796 0.42763 0.0
C1643 C 0.23012 0.35894 0.43409 0.0
C1644 C 0.26044 0.37345 0.46615 0.0
C1645 C 0.22478 0.35886 0.45683 0.0
C1646 C 0.27165 0.38365 0.50532 0.0
C1647 C 0.31551 0.38564 0.49133 0.0
N1648 N 0.23996 0.36582 0.47213 0.0
N1649 N 0.29911 0.3797 0.4771 0.0
H1650 H 0.88111 0.00894 0.66531 0.0
H1651 H 0.85358 0.03517 0.79168 0.0
H1652 H 0.89697 0.9611 0.71633 0.0
H1653 H 0.86804 0.08493 0.74209 0.0
H1654 H 0.86549 0.00629 0.76532 0.0
H1655 H 0.86957 0.03506 0.69386 0.0
C1656 C 0.88185 0.00377 0.68253 0.0
C1657 C 0.89031 0.98287 0.68842 0.0
C1658 C 0.86627 0.02358 0.76042 0.0
C1659 C 0.87727 0.01294 0.72133 0.0
C1660 C 0.85971 0.04009 0.77549 0.0
C1661 C 0.85957 0.06252 0.76901 0.0
C1662 C 0.87241 0.02964 0.73875 0.0
C1663 C 0.86753 0.06787 0.74775 0.0
C1664 C 0.87544 0.0188 0.69885 0.0
C1665 C 0.89057 0.97705 0.71105 0.0
N1666 N 0.87329 0.05157 0.73333 0.0
N1667 N 0.8843 0.99211 0.72677 0.0
H1668 H 0.29202 0.64749 0.96429 0.0
H1669 H 0.21495 0.60281 0.04096 0.0
H1670 H 0.24067 0.6334 0.91629 0.0
H1671 H 0.16714 0.61727 0.98954 0.0
H1672 H 0.24471 0.61479 0.01603 0.0
H1673 H 0.26693 0.63562 0.99395 0.0
C1674 C 0.2757 0.64132 0.95992 0.0
C1675 C 0.26844 0.6415 0.93774 0.0
C1676 C 0.2277 0.61586 0.01035 0.0
C1677 C 0.2395 0.62805 0.97162 0.0
C1678 C 0.21065 0.6091 0.02467 0.0
C1679 C 0.18849 0.60897 0.01733 0.0
C1680 C 0.22248 0.62254 0.98857 0.0
C1681 C 0.18396 0.61693 0.99589 0.0
C1682 C 0.26129 0.63461 0.97693 0.0
C1683 C 0.24697 0.63369 0.93313 0.0
N1684 N 0.20078 0.62312 0.98226 0.0
N1685 N 0.23324 0.62755 0.9499 0.0
H1686 H 0.60289 0.04059 0.21232 0.0
H1687 H 0.63666 0.91459 0.23505 0.0
H1688 H 0.61539 0.99183 0.16123 0.0
H1689 H 0.64721 0.96525 0.28471 0.0
H1690 H 0.62382 0.94292 0.20935 0.0
H1691 H 0.61642 0.01398 0.24022 0.0
C1692 C 0.60891 0.02452 0.2069 0.0
C1693 C 0.60781 0.01837 0.1844 0.0
C1694 C 0.62884 0.9479 0.22589 0.0
C1695 C 0.6226 0.9878 0.21619 0.0
C1696 C 0.63602 0.93167 0.24068 0.0
C1697 C 0.64327 0.93754 0.26204 0.0
C1698 C 0.62872 0.97028 0.23241 0.0
C1699 C 0.64178 0.95997 0.26841 0.0
C1700 C 0.6164 0.00929 0.22285 0.0
C1701 C 0.61565 0.99725 0.17838 0.0
N1702 N 0.63479 0.9756 0.25358 0.0
N1703 N 0.62243 0.9827 0.19417 0.0
H1704 H 0.714 0.14539 0.53584 0.0
H1705 H 0.84071 0.11756 0.50825 0.0
H1706 H 0.76591 0.13816 0.5848 0.0
H1707 H 0.7883 0.10293 0.46157 0.0
H1708 H 0.81312 0.13087 0.53457 0.0
H1709 H 0.74027 0.1332 0.50704 0.0
C1710 C 0.73075 0.14091 0.54062 0.0
C1711 C 0.73779 0.14301 0.56279 0.0
C1712 C 0.8076 0.12491 0.51852 0.0
C1713 C 0.76793 0.12971 0.52991 0.0
C1714 C 0.82339 0.11748 0.50337 0.0
C1715 C 0.81682 0.1089 0.48273 0.0
C1716 C 0.78496 0.12386 0.51307 0.0
C1717 C 0.79411 0.10943 0.47729 0.0
C1718 C 0.74576 0.13416 0.52414 0.0
C1719 C 0.75975 0.13711 0.56794 0.0
N1720 N 0.77891 0.11659 0.49249 0.0
N1721 N 0.77403 0.13097 0.55164 0.0
H1722 H 0.13149 0.58701 0.75938 0.0
H1723 H 0.10373 0.46029 0.78571 0.0
H1724 H 0.14634 0.53543 0.71183 0.0
H1725 H 0.11434 0.51093 0.83538 0.0
H1726 H 0.11576 0.48675 0.757 0.0
H1727 H 0.11904 0.55886 0.78552 0.0
C1728 C 0.1318 0.56975 0.75428 0.0
C1729 C 0.14021 0.56358 0.73344 0.0
C1730 C 0.11562 0.49189 0.77424 0.0
C1731 C 0.12621 0.5311 0.76357 0.0
C1732 C 0.10898 0.47677 0.79066 0.0
C1733 C 0.1078 0.48346 0.813 0.0
C1734 C 0.12085 0.51382 0.78028 0.0
C1735 C 0.11466 0.50508 0.81838 0.0
C1736 C 0.12488 0.55365 0.76932 0.0
C1737 C 0.13997 0.54093 0.72771 0.0
N1738 N 0.1206 0.5195 0.80215 0.0
N1739 N 0.13326 0.52543 0.7428 0.0
H1740 H 0.66541 0.8881 0.01485 0.0
H1741 H 0.791 0.85255 0.03514 0.0
H1742 H 0.71475 0.89722 0.9636 0.0
H1743 H 0.74445 0.86887 0.08718 0.0
H1744 H 0.76416 0.86637 0.00759 0.0
H1745 H 0.69441 0.87612 0.04019 0.0
C1746 C 0.68234 0.88737 0.00881 0.0
C1747 C 0.68764 0.89395 0.98709 0.0
C1748 C 0.76005 0.86718 0.02509 0.0
C1749 C 0.72115 0.88032 0.01628 0.0
C1750 C 0.77542 0.85953 0.04083 0.0
C1751 C 0.76987 0.85936 0.0635 0.0
C1752 C 0.73903 0.87444 0.03216 0.0
C1753 C 0.74936 0.86841 0.06988 0.0
C1754 C 0.69895 0.88068 0.02339 0.0
C1755 C 0.70991 0.89231 0.9802 0.0
N1756 N 0.73462 0.87527 0.05432 0.0
N1757 N 0.72593 0.88574 0.99481 0.0
H1758 H 0.35317 0.46418 0.21114 0.0
H1759 H 0.38546 0.48843 0.33725 0.0
H1760 H 0.36468 0.41375 0.26081 0.0
H1761 H 0.39755 0.53714 0.28603 0.0
H1762 H 0.37244 0.46258 0.30915 0.0
H1763 H 0.36642 0.4924 0.23756 0.0
C1764 C 0.35889 0.45897 0.22738 0.0
C1765 C 0.35761 0.43656 0.23383 0.0
C1766 C 0.37782 0.47895 0.30399 0.0
C1767 C 0.37208 0.46872 0.26416 0.0
C1768 C 0.3851 0.49383 0.32009 0.0
C1769 C 0.39285 0.51495 0.314 0.0
C1770 C 0.37813 0.48514 0.28152 0.0
C1771 C 0.39172 0.52103 0.29147 0.0
C1772 C 0.36623 0.4751 0.24249 0.0
C1773 C 0.36508 0.43081 0.25515 0.0
N1774 N 0.38465 0.50611 0.27596 0.0
N1775 N 0.37171 0.44678 0.26957 0.0
H1776 H 0.49518 0.33834 0.37862 0.0
H1777 H 0.46475 0.21183 0.3542 0.0
H1778 H 0.53985 0.28561 0.39771 0.0
H1779 H 0.4169 0.26464 0.3624 0.0
H1780 H 0.49429 0.23763 0.36569 0.0
H1781 H 0.46876 0.31075 0.36547 0.0
C1782 C 0.49964 0.32093 0.37964 0.0
C1783 C 0.51967 0.31428 0.3895 0.0
C1784 C 0.47727 0.2434 0.3651 0.0
C1785 C 0.48921 0.28248 0.37478 0.0
C1786 C 0.46037 0.22867 0.35876 0.0
C1787 C 0.4383 0.23612 0.3571 0.0
C1788 C 0.47199 0.26569 0.3695 0.0
C1789 C 0.43367 0.25818 0.36309 0.0
C1790 C 0.48443 0.30516 0.37233 0.0
C1791 C 0.5246 0.29146 0.3902 0.0
N1792 N 0.45035 0.27218 0.36874 0.0
N1793 N 0.50933 0.27629 0.38315 0.0
H1794 H 0.0363 0.21342 0.60394 0.0
H1795 H 0.90945 0.24179 0.63015 0.0
H1796 H 0.98417 0.16472 0.61143 0.0
H1797 H 0.9619 0.28823 0.64542 0.0
H1798 H 0.93708 0.21534 0.61718 0.0
H1799 H 0.01003 0.24246 0.61553 0.0
C1800 C 0.0195 0.20875 0.60836 0.0
C1801 C 0.0124 0.18658 0.6065 0.0
C1802 C 0.9426 0.23137 0.6232 0.0
C1803 C 0.98227 0.21973 0.61908 0.0
C1804 C 0.92679 0.24659 0.63041 0.0
C1805 C 0.93336 0.26719 0.6391 0.0
C1806 C 0.96525 0.2367 0.62456 0.0
C1807 C 0.95609 0.27254 0.63883 0.0
C1808 C 0.00449 0.22537 0.61476 0.0
C1809 C 0.99038 0.18157 0.6123 0.0
N1810 N 0.9713 0.25727 0.63188 0.0
N1811 N 0.9761 0.19801 0.61808 0.0
H1812 H 0.96131 0.71233 0.89361 0.0
H1813 H 0.08766 0.73835 0.86398 0.0
H1814 H 0.01169 0.66251 0.88251 0.0
H1815 H 0.03604 0.78639 0.85088 0.0
H1816 H 0.05962 0.71204 0.87622 0.0
H1817 H 0.98761 0.74092 0.88097 0.0
C1818 C 0.97768 0.70733 0.8881 0.0
C1819 C 0.98436 0.68498 0.88933 0.0
C1820 C 0.05436 0.72836 0.87078 0.0
C1821 C 0.01456 0.71757 0.87557 0.0
C1822 C 0.07041 0.7435 0.86395 0.0
C1823 C 0.0642 0.76457 0.85614 0.0
C1824 C 0.03182 0.73424 0.86998 0.0
C1825 C 0.04158 0.77033 0.85678 0.0
C1826 C 0.99273 0.72368 0.88111 0.0
C1827 C 0.00586 0.67952 0.88214 0.0
N1828 N 0.02612 0.75516 0.86342 0.0
N1829 N 0.02021 0.69569 0.87586 0.0
H1830 H 0.58423 0.76194 0.13384 0.0
H1831 H 0.45797 0.78737 0.10463 0.0
H1832 H 0.53324 0.71344 0.14764 0.0
H1833 H 0.50725 0.83748 0.11887 0.0
H1834 H 0.48438 0.75872 0.11693 0.0
H1835 H 0.55574 0.78811 0.12228 0.0
C1836 C 0.56703 0.75665 0.13415 0.0
C1837 C 0.56113 0.73552 0.142 0.0
C1838 C 0.4892 0.77603 0.11759 0.0
C1839 C 0.52827 0.76565 0.12892 0.0
C1840 C 0.4741 0.79241 0.1108 0.0
C1841 C 0.48049 0.81487 0.11049 0.0
C1842 C 0.51081 0.78225 0.12381 0.0
C1843 C 0.50167 0.82038 0.1185 0.0
C1844 C 0.55074 0.77171 0.12772 0.0
C1845 C 0.53854 0.72956 0.14172 0.0
N1846 N 0.51612 0.8042 0.12451 0.0
N1847 N 0.52284 0.74464 0.13543 0.0
H1848 H 0.18194 0.30096 0.30677 0.0
H1849 H 0.25557 0.32208 0.22143 0.0
H1850 H 0.21247 0.36179 0.32946 0.0
H1851 H 0.2343 0.39017 0.22646 0.0
H1852 H 0.22967 0.31215 0.25121 0.0
H1853 H 0.19176 0.31078 0.26859 0.0
C1854 C 0.19023 0.31663 0.30373 0.0
C1855 C 0.19675 0.33042 0.32141 0.0
C1856 C 0.22997 0.3291 0.24518 0.0
C1857 C 0.2078 0.34166 0.27781 0.0
C1858 C 0.24463 0.3347 0.22814 0.0
C1859 C 0.24668 0.35684 0.22141 0.0
C1860 C 0.21802 0.34597 0.256 0.0
C1861 C 0.2328 0.37284 0.23106 0.0
C1862 C 0.19588 0.32211 0.28194 0.0
C1863 C 0.20742 0.35053 0.31637 0.0
N1864 N 0.21955 0.36724 0.24848 0.0
N1865 N 0.21277 0.35549 0.295 0.0
H1866 H 0.85754 0.98398 0.47389 0.0
H1867 H 0.88254 0.96271 0.58399 0.0
H1868 H 0.92623 0.00383 0.47651 0.0
H1869 H 0.94421 0.93564 0.55936 0.0
H1870 H 0.87167 0.97129 0.54567 0.0
H1871 H 0.86385 0.95947 0.50598 0.0
C1872 C 0.8742 0.98225 0.48051 0.0
C1873 C 0.89147 0.99575 0.47267 0.0
C1874 C 0.88726 0.96282 0.54868 0.0
C1875 C 0.89864 0.96828 0.50913 0.0
C1876 C 0.89353 0.95809 0.57052 0.0
C1877 C 0.91433 0.94853 0.57488 0.0
C1878 C 0.90213 0.95844 0.53124 0.0
C1879 C 0.92801 0.94298 0.55678 0.0
C1880 C 0.87766 0.96861 0.49897 0.0
C1881 C 0.9126 0.9935 0.4821 0.0
N1882 N 0.92194 0.9486 0.5358 0.0
N1883 N 0.91559 0.98013 0.50001 0.0
H1884 H 0.2634 0.60649 0.72688 0.0
H1885 H 0.31397 0.69679 0.80896 0.0
H1886 H 0.24463 0.67549 0.72476 0.0
H1887 H 0.28752 0.63438 0.83239 0.0
H1888 H 0.3041 0.68627 0.771 0.0
H1889 H 0.28818 0.61463 0.75835 0.0
C1890 C 0.26544 0.62353 0.7323 0.0
C1891 C 0.25219 0.64043 0.72331 0.0
C1892 C 0.30105 0.6747 0.78444 0.0
C1893 C 0.28027 0.64975 0.7588 0.0
C1894 C 0.30669 0.6806 0.8061 0.0
C1895 C 0.30133 0.66649 0.82392 0.0
C1896 C 0.2905 0.65436 0.78052 0.0
C1897 C 0.29174 0.6458 0.81915 0.0
C1898 C 0.2793 0.62807 0.75034 0.0
C1899 C 0.25482 0.66213 0.73121 0.0
N1900 N 0.28648 0.64037 0.79785 0.0
N1901 N 0.2685 0.66619 0.74867 0.0
H1902 H 0.61329 0.04018 0.08038 0.0
H1903 H 0.57084 0.99135 0.97395 0.0
H1904 H 0.54943 0.0628 0.05694 0.0
H1905 H 0.63813 0.01561 0.97424 0.0
H1906 H 0.5617 0.0174 0.00388 0.0
H1907 H 0.6233 0.03051 0.04205 0.0
C1908 C 0.60159 0.04354 0.06713 0.0
C1909 C 0.58049 0.0522 0.07183 0.0
C1910 C 0.57826 0.01761 0.99683 0.0
C1911 C 0.59161 0.04079 0.0283 0.0
C1912 C 0.58339 0.00292 0.97968 0.0
C1913 C 0.60514 0.00166 0.97159 0.0
C1914 C 0.59526 0.03031 0.00646 0.0
C1915 C 0.62108 0.01645 0.97992 0.0
C1916 C 0.60734 0.03814 0.04531 0.0
C1917 C 0.5659 0.0562 0.05405 0.0
N1918 N 0.61603 0.02971 0.9975 0.0
N1919 N 0.5715 0.04991 0.03312 0.0
H1920 H 0.68549 0.19464 0.69006 0.0
H1921 H 0.73718 0.10562 0.77279 0.0
H1922 H 0.71362 0.13293 0.66672 0.0
H1923 H 0.7554 0.17478 0.77431 0.0
H1924 H 0.71253 0.11324 0.74107 0.0
H1925 H 0.69541 0.18432 0.72807 0.0
C1926 C 0.69311 0.1786 0.69295 0.0
C1927 C 0.69893 0.16467 0.67515 0.0
C1928 C 0.72127 0.12683 0.74899 0.0
C1929 C 0.70985 0.15277 0.71859 0.0
C1930 C 0.73506 0.12259 0.76716 0.0
C1931 C 0.74809 0.13969 0.77608 0.0
C1932 C 0.72014 0.14842 0.74033 0.0
C1933 C 0.74537 0.16128 0.76792 0.0
C1934 C 0.6988 0.17283 0.71463 0.0
C1935 C 0.709 0.1442 0.67995 0.0
N1936 N 0.73174 0.16505 0.75035 0.0
N1937 N 0.7143 0.1389 0.70127 0.0
H1938 H 0.07365 0.50705 0.02509 0.0
H1939 H 0.05447 0.43177 0.94068 0.0
H1940 H 0.14201 0.48643 0.02113 0.0
H1941 H 0.11431 0.46391 0.91761 0.0
H1942 H 0.06407 0.44216 0.97875 0.0
H1943 H 0.06442 0.48093 0.99524 0.0
C1944 C 0.08648 0.49624 0.01857 0.0
C1945 C 0.10849 0.49847 0.02565 0.0
C1946 C 0.07527 0.44648 0.96534 0.0
C1947 C 0.09841 0.46958 0.99103 0.0
C1948 C 0.06992 0.44049 0.94362 0.0
C1949 C 0.08346 0.44732 0.92586 0.0
C1950 C 0.09445 0.45902 0.96934 0.0
C1951 C 0.10327 0.45859 0.93077 0.0
C1952 C 0.08128 0.48146 0.00151 0.0
C1953 C 0.12478 0.48476 0.01625 0.0
N1954 N 0.10811 0.46425 0.95209 0.0
N1955 N 0.11956 0.47137 0.99882 0.0
H1956 H 0.74368 0.82245 0.27608 0.0
H1957 H 0.78921 0.86303 0.16713 0.0
H1958 H 0.76631 0.8902 0.27268 0.0
H1959 H 0.81227 0.79957 0.19126 0.0
H1960 H 0.78043 0.87379 0.20545 0.0
H1961 H 0.76916 0.81278 0.24585 0.0
C1962 C 0.75482 0.83502 0.26961 0.0
C1963 C 0.75321 0.85704 0.27689 0.0
C1964 C 0.78796 0.85775 0.20234 0.0
C1965 C 0.78116 0.84652 0.24164 0.0
C1966 C 0.79283 0.85156 0.18052 0.0
C1967 C 0.80135 0.83035 0.17602 0.0
C1968 C 0.79101 0.84236 0.21959 0.0
C1969 C 0.80572 0.8161 0.19398 0.0
C1970 C 0.76917 0.82959 0.25227 0.0
C1971 C 0.76742 0.87297 0.26761 0.0
N1972 N 0.79997 0.82214 0.21495 0.0
N1973 N 0.78032 0.86758 0.24987 0.0
H1974 H 0.42584 0.49151 0.52614 0.0
H1975 H 0.38498 0.53633 0.4175 0.0
H1976 H 0.35797 0.51397 0.52374 0.0
H1977 H 0.44713 0.56215 0.44223 0.0
H1978 H 0.37425 0.52711 0.45576 0.0
H1979 H 0.435 0.5171 0.49581 0.0
C1980 C 0.41314 0.50262 0.51986 0.0
C1981 C 0.39124 0.50097 0.52747 0.0
C1982 C 0.38997 0.53534 0.45277 0.0
C1983 C 0.40117 0.52902 0.49214 0.0
C1984 C 0.39613 0.54047 0.431 0.0
C1985 C 0.41698 0.54992 0.42669 0.0
C1986 C 0.40506 0.53906 0.47015 0.0
C1987 C 0.43087 0.55491 0.44479 0.0
C1988 C 0.41828 0.51703 0.50248 0.0
C1989 C 0.37512 0.51513 0.51843 0.0
N1990 N 0.42491 0.54889 0.4657 0.0
N1991 N 0.38023 0.52808 0.50064 0.0
H1992 H 0.22355 0.23466 0.39296 0.0
H1993 H 0.33417 0.21483 0.36773 0.0
H1994 H 0.22624 0.25412 0.32417 0.0
H1995 H 0.30928 0.18549 0.30721 0.0
H1996 H 0.29582 0.22335 0.37866 0.0
H1997 H 0.25599 0.21053 0.38696 0.0
C1998 C 0.23027 0.23292 0.37635 0.0
C1999 C 0.22233 0.2462 0.35896 0.0
C2000 C 0.29881 0.21441 0.36333 0.0
C2001 C 0.25913 0.21911 0.35212 0.0
C2002 C 0.32064 0.2097 0.35702 0.0
C2003 C 0.32493 0.19951 0.33651 0.0
C2004 C 0.2813 0.20937 0.34875 0.0
C2005 C 0.30677 0.19332 0.32319 0.0
C2006 C 0.24891 0.21948 0.37306 0.0
C2007 C 0.2319 0.24395 0.33789 0.0
N2008 N 0.28578 0.19893 0.32925 0.0
N2009 N 0.24996 0.23076 0.33506 0.0
H2010 H 0.99142 0.97481 0.57367 0.0
H2011 H 0.06753 0.0591 0.55658 0.0
H2012 H 0.01218 0.97718 0.64207 0.0
H2013 H 0.03315 0.08198 0.61525 0.0
H2014 H 0.05712 0.02096 0.56587 0.0
H2015 H 0.01734 0.00505 0.56515 0.0
C2016 C 0.00221 0.98108 0.58664 0.0
C2017 C 8e-05 0.9734 0.60847 0.0
C2018 C 0.05235 0.03435 0.57691 0.0
C2019 C 0.0287 0.00848 0.5992 0.0
C2020 C 0.05833 0.05611 0.57174 0.0
C2021 C 0.05088 0.07384 0.585 0.0
C2022 C 0.03922 0.03026 0.59566 0.0
C2023 C 0.03899 0.06885 0.60443 0.0
C2024 C 0.01686 0.99836 0.58184 0.0
C2025 C 0.01377 0.9825 0.62496 0.0
N2026 N 0.03336 0.04748 0.60911 0.0
N2027 N 0.02702 0.00016 0.62015 0.0
H2028 H 0.27608 0.74283 0.82308 0.0
H2029 H 0.16767 0.78768 0.86512 0.0
H2030 H 0.27382 0.76399 0.89137 0.0
H2031 H 0.19232 0.81377 0.80305 0.0
H2032 H 0.2059 0.77817 0.87565 0.0
H2033 H 0.24571 0.76858 0.81448 0.0
C2034 C 0.26978 0.75366 0.83601 0.0
C2035 C 0.27748 0.75164 0.85784 0.0
C2036 C 0.20291 0.78653 0.86 0.0
C2037 C 0.24215 0.7799 0.84852 0.0
C2038 C 0.18115 0.79185 0.85395 0.0
C2039 C 0.17681 0.80141 0.83315 0.0
C2040 C 0.22024 0.7902 0.84484 0.0
C2041 C 0.19489 0.80643 0.81925 0.0
C2042 C 0.2524 0.76817 0.83118 0.0
C2043 C 0.26843 0.76544 0.87426 0.0
N2044 N 0.21578 0.80022 0.82509 0.0
N2045 N 0.25066 0.77853 0.86944 0.0
H2046 H 0.48412 0.02563 0.14154 0.0
H2047 H 0.43523 0.94231 0.05135 0.0
H2048 H 0.50324 0.0274 0.07263 0.0
H2049 H 0.46024 0.9201 0.11479 0.0
H2050 H 0.44461 0.98051 0.06148 0.0
H2051 H 0.45939 0.99412 0.13345 0.0
C2052 C 0.48216 0.02013 0.12451 0.0
C2053 C 0.49551 0.02902 0.10764 0.0
C2054 C 0.44745 0.96728 0.07335 0.0
C2055 C 0.46751 0.99344 0.09837 0.0
C2056 C 0.4421 0.94549 0.06766 0.0
C2057 C 0.4472 0.92794 0.08219 0.0
C2058 C 0.45747 0.97161 0.09387 0.0
C2059 C 0.45624 0.93311 0.10304 0.0
C2060 C 0.46833 0.00206 0.12 0.0
C2061 C 0.49298 0.02102 0.08597 0.0
N2062 N 0.46124 0.95453 0.10824 0.0
N2063 N 0.47935 0.00351 0.08193 0.0
H2064 H 0.72253 0.24104 0.67886 0.0
H2065 H 0.80724 0.31585 0.69885 0.0
H2066 H 0.72447 0.26469 0.61138 0.0
H2067 H 0.82871 0.28523 0.63763 0.0
H2068 H 0.76885 0.30607 0.68978 0.0
H2069 H 0.75231 0.26705 0.68845 0.0
C2070 C 0.72854 0.25252 0.66636 0.0
C2071 C 0.72096 0.2511 0.64444 0.0
C2072 C 0.78198 0.30197 0.67818 0.0
C2073 C 0.75557 0.27986 0.65489 0.0
C2074 C 0.80388 0.30758 0.68324 0.0
C2075 C 0.82128 0.30102 0.66911 0.0
C2076 C 0.77745 0.29008 0.6587 0.0
C2077 C 0.81584 0.29032 0.64912 0.0
C2078 C 0.74558 0.26723 0.67177 0.0
C2079 C 0.72971 0.26571 0.62857 0.0
N2080 N 0.79436 0.28504 0.64456 0.0
N2081 N 0.74719 0.27898 0.63391 0.0
H2082 H 0.00688 0.47258 0.92701 0.0
H2083 H 0.96321 0.58063 0.88318 0.0
H2084 H 0.98543 0.47375 0.85879 0.0
H2085 H 0.93694 0.55747 0.94576 0.0
H2086 H 0.97217 0.54208 0.87335 0.0
H2087 H 0.98139 0.50326 0.93518 0.0
C2088 C 0.99601 0.47868 0.91402 0.0
C2089 C 0.99792 0.4706 0.89231 0.0
C2090 C 0.96391 0.54548 0.88896 0.0
C2091 C 0.96998 0.50633 0.90111 0.0
C2092 C 0.95891 0.56742 0.89462 0.0
C2093 C 0.94944 0.57226 0.91534 0.0
C2094 C 0.96002 0.52846 0.90443 0.0
C2095 C 0.94423 0.5545 0.92959 0.0
C2096 C 0.98165 0.49626 0.9186 0.0
C2097 C 0.98406 0.47942 0.87581 0.0
N2098 N 0.95013 0.53343 0.92412 0.0
N2099 N 0.97116 0.4974 0.88036 0.0
H2100 H 0.66517 0.71442 0.13325 0.0
H2101 H 0.77646 0.7532 0.17476 0.0
H2102 H 0.68982 0.68568 0.19416 0.0
H2103 H 0.77155 0.73501 0.10577 0.0
H2104 H 0.74518 0.72849 0.18313 0.0
H2105 H 0.70355 0.72284 0.12237 0.0
C2106 C 0.67865 0.70947 0.1441 0.0
C2107 C 0.67428 0.69947 0.16468 0.0
C2108 C 0.75146 0.72929 0.16628 0.0
C2109 C 0.71793 0.70939 0.15258 0.0
C2110 C 0.76938 0.74319 0.16158 0.0
C2111 C 0.77659 0.7458 0.13964 0.0
C2112 C 0.74021 0.71881 0.14875 0.0
C2113 C 0.76651 0.7331 0.12294 0.0
C2114 C 0.7005 0.71416 0.13784 0.0
C2115 C 0.69239 0.69342 0.17814 0.0
N2116 N 0.74828 0.72065 0.12769 0.0
N2117 N 0.7134 0.69899 0.17211 0.0
H2118 H 0.49399 0.52757 0.42868 0.0
H2119 H 0.538 0.41846 0.38686 0.0
H2120 H 0.51608 0.52453 0.36073 0.0
H2121 H 0.56195 0.4419 0.45025 0.0
H2122 H 0.52948 0.45694 0.37648 0.0
H2123 H 0.51921 0.49697 0.43788 0.0
C2124 C 0.50497 0.5211 0.41596 0.0
C2125 C 0.50327 0.52858 0.39403 0.0
C2126 C 0.53714 0.45363 0.39243 0.0
C2127 C 0.5309 0.49293 0.40401 0.0
C2128 C 0.54186 0.43172 0.3984 0.0
C2129 C 0.55055 0.42698 0.41948 0.0
C2130 C 0.54054 0.47075 0.4079 0.0
C2131 C 0.55525 0.4448 0.43382 0.0
C2132 C 0.51917 0.50355 0.42113 0.0
C2133 C 0.51726 0.5193 0.3779 0.0
N2134 N 0.54966 0.46586 0.428 0.0
N2135 N 0.53 0.50137 0.38304 0.0
H2136 H 0.38928 0.22269 0.23509 0.0
H2137 H 0.3651 0.33273 0.21191 0.0
H2138 H 0.32249 0.22814 0.26019 0.0
H2139 H 0.30164 0.30839 0.18913 0.0
H2140 H 0.37571 0.29452 0.2214 0.0
H2141 H 0.38189 0.25399 0.20987 0.0
C2142 C 0.37272 0.22972 0.23442 0.0
C2143 C 0.35638 0.22294 0.24956 0.0
C2144 C 0.35975 0.29754 0.21367 0.0
C2145 C 0.348 0.25849 0.22124 0.0
C2146 C 0.35364 0.3193 0.20842 0.0
C2147 C 0.33249 0.3237 0.19973 0.0
C2148 C 0.34434 0.28026 0.21076 0.0
C2149 C 0.31817 0.30572 0.19567 0.0
C2150 C 0.36866 0.24773 0.22034 0.0
C2151 C 0.3354 0.23292 0.24861 0.0
N2152 N 0.32411 0.28484 0.20182 0.0
N2153 N 0.33182 0.25037 0.23478 0.0
H2154 H 0.80222 0.19113 0.81381 0.0
H2155 H 0.8931 0.27286 0.76345 0.0
H2156 H 0.8649 0.16791 0.78781 0.0
H2157 H 0.82375 0.27654 0.74631 0.0
H2158 H 0.88492 0.2413 0.78808 0.0
H2159 H 0.81283 0.22917 0.80432 0.0
C2160 C 0.81847 0.19405 0.80667 0.0
C2161 C 0.83263 0.17627 0.80134 0.0
C2162 C 0.87142 0.24966 0.7796 0.0
C2163 C 0.84487 0.21975 0.79093 0.0
C2164 C 0.876 0.26776 0.76583 0.0
C2165 C 0.85899 0.27721 0.75307 0.0
C2166 C 0.84962 0.24157 0.78094 0.0
C2167 C 0.8372 0.26972 0.75612 0.0
C2168 C 0.82443 0.21575 0.80125 0.0
C2169 C 0.85342 0.18111 0.79198 0.0
N2170 N 0.83312 0.25216 0.76968 0.0
N2171 N 0.85889 0.20244 0.78692 0.0
H2172 H 0.97441 0.57212 0.99223 0.0
H2173 H 0.08322 0.61547 0.0344 0.0
H2174 H 0.97637 0.6407 0.01246 0.0
H2175 H 0.05932 0.55389 0.06234 0.0
H2176 H 0.04477 0.62557 0.02531 0.0
H2177 H 0.00519 0.56412 0.01765 0.0
C2178 C 0.98071 0.58525 0.00282 0.0
C2179 C 0.97283 0.607 0.00059 0.0
C2180 C 0.048 0.61013 0.03396 0.0
C2181 C 0.00866 0.59836 0.02842 0.0
C2182 C 0.06989 0.60431 0.03903 0.0
C2183 C 0.07449 0.58377 0.049 0.0
C2184 C 0.0308 0.595 0.03832 0.0
C2185 C 0.05656 0.5699 0.05463 0.0
C2186 C 0.99835 0.58076 0.01714 0.0
C2187 C 0.9819 0.62366 0.01409 0.0
N2188 N 0.03554 0.5755 0.04869 0.0
N2189 N -7e-05 0.61917 0.02694 0.0
H2190 H 0.63512 0.83387 0.28382 0.0
H2191 H 0.67665 0.72451 0.24174 0.0
H2192 H 0.69675 0.80967 0.31135 0.0
H2193 H 0.6086 0.7269 0.26365 0.0
H2194 H 0.6854 0.75541 0.26678 0.0
H2195 H 0.62459 0.79542 0.27515 0.0
C2196 C 0.6462 0.82047 0.28845 0.0
C2197 C 0.66686 0.82497 0.29822 0.0
C2198 C 0.66874 0.74863 0.26672 0.0
C2199 C 0.65515 0.78129 0.288 0.0
C2200 C 0.66382 0.73092 0.25263 0.0
C2201 C 0.64198 0.72313 0.25097 0.0
C2202 C 0.65147 0.7591 0.27836 0.0
C2203 C 0.62571 0.73235 0.26482 0.0
C2204 C 0.64014 0.79859 0.28363 0.0
C2205 C 0.68064 0.80697 0.30384 0.0
N2206 N 0.63058 0.75045 0.27744 0.0
N2207 N 0.6748 0.78595 0.29812 0.0
H2208 H 0.43792 0.44237 0.56836 0.0
H2209 H 0.52595 0.42499 0.49676 0.0
H2210 H 0.41518 0.38503 0.53172 0.0
H2211 H 0.51914 0.35578 0.51343 0.0
H2212 H 0.49492 0.43366 0.52166 0.0
H2213 H 0.47623 0.43239 0.55939 0.0
C2214 C 0.44094 0.42739 0.55889 0.0
C2215 C 0.42323 0.4147 0.55043 0.0
C2216 C 0.50079 0.41669 0.52057 0.0
C2217 C 0.46702 0.40325 0.54038 0.0
C2218 C 0.51853 0.4118 0.50651 0.0
C2219 C 0.52515 0.38974 0.50345 0.0
C2220 C 0.48919 0.39925 0.53086 0.0
C2221 C 0.51459 0.37303 0.51574 0.0
C2222 C 0.46281 0.42182 0.55374 0.0
C2223 C 0.42828 0.39543 0.53831 0.0
N2224 N 0.49656 0.37802 0.52839 0.0
N2225 N 0.44976 0.39036 0.5335 0.0
H2226 H 0.13438 0.66762 0.71148 0.0
H2227 H 0.11056 0.7778 0.73316 0.0
H2228 H 0.19792 0.69121 0.68809 0.0
H2229 H 0.17795 0.77333 0.75677 0.0
H2230 H 0.1176 0.74609 0.70837 0.0
H2231 H 0.12391 0.70606 0.72006 0.0
C2232 C 0.1459 0.68092 0.70768 0.0
C2233 C 0.16704 0.67624 0.69912 0.0
C2234 C 0.13102 0.75263 0.7184 0.0
C2235 C 0.15532 0.71998 0.70907 0.0
C2236 C 0.12716 0.77089 0.73222 0.0
C2237 C 0.14378 0.77807 0.74686 0.0
C2238 C 0.15177 0.74201 0.71907 0.0
C2239 C 0.16481 0.76824 0.74558 0.0
C2240 C 0.13986 0.70282 0.7124 0.0
C2241 C 0.18141 0.69408 0.6946 0.0
N2242 N 0.1682 0.75054 0.73204 0.0
N2243 N 0.17552 0.71512 0.70023 0.0
H2244 H 0.47416 0.92639 0.00575 0.0
H2245 H 0.58396 0.88357 0.96549 0.0
H2246 H 0.47712 0.85734 0.98734 0.0
H2247 H 0.55917 0.94381 0.93548 0.0
H2248 H 0.54563 0.87309 0.97469 0.0
H2249 H 0.50518 0.93407 0.98049 0.0
C2250 C 0.48077 0.91307 0.99561 0.0
C2251 C 0.47306 0.89131 0.99827 0.0
C2252 C 0.54865 0.8883 0.96555 0.0
C2253 C 0.50912 0.89962 0.97062 0.0
C2254 C 0.57046 0.89432 0.9604 0.0
C2255 C 0.57477 0.91464 0.94983 0.0
C2256 C 0.53122 0.90301 0.96066 0.0
C2257 C 0.55664 0.928 0.94364 0.0
C2258 C 0.49852 0.91738 0.98138 0.0
C2259 C 0.48252 0.87439 0.98537 0.0
N2260 N 0.53569 0.92224 0.94968 0.0
N2261 N 0.50063 0.87875 0.97258 0.0
H2262 H 0.94316 0.04843 0.43756 0.0
H2263 H 0.02678 0.13891 0.48528 0.0
H2264 H 0.92126 0.11287 0.46016 0.0
H2265 H 0.02607 0.0711 0.50807 0.0
H2266 H 0.99601 0.13023 0.45983 0.0
H2267 H 0.98128 0.05831 0.44763 0.0
C2268 C 0.94643 0.0649 0.444 0.0
C2269 C 0.92898 0.07982 0.44824 0.0
C2270 C 0.00329 0.1171 0.46975 0.0
C2271 C 0.97253 0.0912 0.45927 0.0
C2272 C 0.02096 0.12192 0.48399 0.0
C2273 C 0.02888 0.1056 0.49857 0.0
C2274 C 0.99413 0.09568 0.46978 0.0
C2275 C 0.02042 0.08401 0.49689 0.0
C2276 C 0.96816 0.07044 0.44976 0.0
C2277 C 0.93422 0.10085 0.45682 0.0
N2278 N 0.00332 0.07967 0.48284 0.0
N2279 N 0.95557 0.1059 0.4622 0.0
loop_
_geom_bond_atom_site_label_1
_geom_bond_atom_site_label_2
_geom_bond_distance
_geom_bond_site_symmetry_2
_ccdc_geom_bond_type
Co0 O2 2.143 . S
Co0 O8 2.074 . S
Co0 O11 2.093 . S
Co0 O24 2.097 . S
Co0 N41 2.151 . S
Co0 N49 2.214 . S
Co1 O2 2.160 . S
Co1 O7 2.058 . S
Co1 O17 2.057 . S
Co1 O32 2.037 . S
Co1 N36 2.145 . S
Co1 N57 2.257 . S
O2 Co0 2.143 . S
O2 Co1 2.160 . S
C3 O4 1.278 . S
C3 O11 1.224 . S
O4 C3 1.278 . S
C5 O6 1.245 . S
C5 O17 1.232 . S
O6 C5 1.245 . S
O7 Co1 2.058 . S
O7 C33 1.269 . S
O8 Co0 2.074 . S
O8 C33 1.257 . S
H9 C34 0.930 . S
H10 C40 0.930 . S
O11 Co0 2.093 . S
O11 C3 1.224 . S
H12 C44 0.929 . S
H13 C46 0.930 . S
H14 C47 0.930 . S
H15 C45 0.929 . S
H16 C48 0.928 . S
O17 Co1 2.057 . S
O17 C5 1.232 . S
H18 C37 0.929 . S
H19 C38 0.929 . S
H20 C50 0.931 . S
H21 C42 0.929 . S
H22 C51 0.930 . S
H23 C43 0.931 . S
O24 Co0 2.097 . S
O24 C52 1.214 . S
H25 C53 0.929 . S
H26 C54 0.929 . S
H27 C55 0.930 . S
H28 C56 0.929 . S
H29 C58 0.930 . S
H30 C35 0.930 . S
H31 C39 0.930 . S
O32 Co1 2.037 . S
O32 C52 1.234 . S
C33 O7 1.269 . S
C33 O8 1.257 . S
C34 H9 0.930 . S
C34 C37 1.388 . S
C34 C39 1.418 . S
C35 H30 0.930 . S
C35 C38 1.404 . S
C35 C39 1.353 . S
N36 Co1 2.145 . S
N36 C37 1.397 . S
N36 C38 1.334 . S
C37 H18 0.929 . S
C37 C34 1.388 . S
C37 N36 1.397 . S
C38 H19 0.929 . S
C38 C35 1.404 . S
C38 N36 1.334 . S
C39 H31 0.930 . S
C39 C34 1.418 . S
C39 C35 1.353 . S
C40 H10 0.930 . S
C40 N41 1.330 . S
C40 C42 1.446 . S
N41 Co0 2.151 . S
N41 C40 1.330 . S
N41 C45 1.418 . S
C42 H21 0.929 . S
C42 C40 1.446 . S
C42 C43 1.332 . S
C43 H23 0.931 . S
C43 C42 1.332 . S
C43 C44 1.267 . S
C44 H12 0.929 . S
C44 C43 1.267 . S
C44 C45 1.251 . S
C45 H15 0.929 . S
C45 N41 1.418 . S
C45 C44 1.251 . S
C46 H13 0.930 . S
C46 C48 1.406 . S
C46 C51 1.261 . S
C47 H14 0.930 . S
C47 N49 1.325 . S
C47 C50 1.357 . S
C48 H16 0.928 . S
C48 C46 1.406 . S
C48 N49 1.261 . S
N49 Co0 2.214 . S
N49 C47 1.325 . S
N49 C48 1.261 . S
C50 H20 0.931 . S
C50 C47 1.357 . S
C50 C51 1.312 . S
C51 H22 0.930 . S
C51 C46 1.261 . S
C51 C50 1.312 . S
C52 O24 1.214 . S
C52 O32 1.234 . S
C53 H25 0.929 . S
C53 C56 1.391 . S
C53 C58 1.391 . S
C54 H26 0.929 . S
C54 C55 1.390 . S
C54 N57 1.391 . S
C55 H27 0.930 . S
C55 C54 1.390 . S
C55 C56 1.392 . S
C56 H28 0.929 . S
C56 C53 1.391 . S
C56 C55 1.392 . S
N57 Co1 2.257 . S
N57 C54 1.391 . S
N57 C58 1.388 . S
C58 H29 0.930 . S
C58 C53 1.391 . S
C58 N57 1.388 . S
Co59 O61 2.143 . S
Co59 O67 2.074 . S
Co59 O70 2.093 . S
Co59 O83 2.097 . S
Co59 N100 2.151 . S
Co59 N108 2.214 1_565 S
Co60 O61 2.160 . S
Co60 O66 2.058 . S
Co60 O76 2.057 . S
Co60 O91 2.037 . S
Co60 N95 2.145 . S
Co60 N116 2.257 . S
O61 Co59 2.143 . S
O61 Co60 2.160 . S
C62 O63 1.278 . S
C62 O70 1.224 . S
O63 C62 1.278 . S
C64 O65 1.245 . S
C64 O76 1.232 . S
O65 C64 1.245 . S
O66 Co60 2.058 . S
O66 C92 1.269 . S
O67 Co59 2.074 . S
O67 C92 1.257 . S
H68 C93 0.930 . S
H69 C99 0.930 . S
O70 Co59 2.093 . S
O70 C62 1.224 . S
H71 C103 0.929 . S
H72 C105 0.930 . S
H73 C106 0.930 . S
H74 C104 0.929 . S
H75 C107 0.928 . S
O76 Co60 2.057 . S
O76 C64 1.232 . S
H77 C96 0.929 . S
H78 C97 0.929 . S
H79 C109 0.931 . S
H80 C101 0.929 . S
H81 C110 0.930 . S
H82 C102 0.931 . S
O83 Co59 2.097 . S
O83 C111 1.214 . S
H84 C112 0.929 . S
H85 C113 0.929 . S
H86 C114 0.930 . S
H87 C115 0.929 . S
H88 C117 0.930 . S
H89 C94 0.930 1_455 S
H90 C98 0.930 . S
O91 Co60 2.037 . S
O91 C111 1.234 . S
C92 O66 1.269 . S
C92 O67 1.257 . S
C93 H68 0.930 . S
C93 C96 1.388 . S
C93 C98 1.418 . S
C94 H89 0.930 1_655 S
C94 C97 1.404 . S
C94 C98 1.353 . S
N95 Co60 2.145 . S
N95 C96 1.397 . S
N95 C97 1.334 . S
C96 H77 0.929 . S
C96 C93 1.388 . S
C96 N95 1.397 . S
C97 H78 0.929 . S
C97 C94 1.404 . S
C97 N95 1.334 . S
C98 H90 0.930 . S
C98 C93 1.418 . S
C98 C94 1.353 . S
C99 H69 0.930 . S
C99 N100 1.330 . S
C99 C101 1.446 . S
N100 Co59 2.151 . S
N100 C99 1.330 . S
N100 C104 1.418 1_565 S
C101 H80 0.929 . S
C101 C99 1.446 . S
C101 C102 1.332 1_565 S
C102 H82 0.931 . S
C102 C101 1.332 1_545 S
C102 C103 1.267 . S
C103 H71 0.929 . S
C103 C102 1.267 . S
C103 C104 1.251 . S
C104 H74 0.929 . S
C104 N100 1.418 1_545 S
C104 C103 1.251 . S
C105 H72 0.930 . S
C105 C107 1.406 . S
C105 C110 1.261 . S
C106 H73 0.930 . S
C106 N108 1.325 . S
C106 C109 1.357 . S
C107 H75 0.928 . S
C107 C105 1.406 . S
C107 N108 1.261 . S
N108 Co59 2.214 1_545 S
N108 C106 1.325 . S
N108 C107 1.261 . S
C109 H79 0.931 . S
C109 C106 1.357 . S
C109 C110 1.312 . S
C110 H81 0.930 . S
C110 C105 1.261 . S
C110 C109 1.312 . S
C111 O83 1.214 . S
C111 O91 1.234 . S
C112 H84 0.929 . S
C112 C115 1.391 . S
C112 C117 1.391 . S
C113 H85 0.929 . S
C113 C114 1.390 . S
C113 N116 1.391 . S
C114 H86 0.930 . S
C114 C113 1.390 . S
C114 C115 1.392 . S
C115 H87 0.929 . S
C115 C112 1.391 . S
C115 C114 1.392 . S
N116 Co60 2.257 . S
N116 C113 1.391 . S
N116 C117 1.388 . S
C117 H88 0.930 . S
C117 C112 1.391 . S
C117 N116 1.388 . S
Co118 O120 2.143 . S
Co118 O126 2.074 . S
Co118 O129 2.093 . S
Co118 O142 2.097 . S
Co118 N159 2.151 . S
Co118 N167 2.214 . S
Co119 O120 2.160 . S
Co119 O125 2.058 . S
Co119 O135 2.057 . S
Co119 O150 2.037 . S
Co119 N154 2.145 . S
Co119 N175 2.257 . S
O120 Co118 2.143 . S
O120 Co119 2.160 . S
C121 O122 1.278 . S
C121 O129 1.224 . S
O122 C121 1.278 . S
C123 O124 1.245 . S
C123 O135 1.232 . S
O124 C123 1.245 . S
O125 Co119 2.058 . S
O125 C151 1.269 . S
O126 Co118 2.074 . S
O126 C151 1.257 . S
H127 C152 0.930 . S
H128 C158 0.930 . S
O129 Co118 2.093 . S
O129 C121 1.224 . S
H130 C162 0.929 . S
H131 C164 0.930 . S
H132 C165 0.930 . S
H133 C163 0.929 . S
H134 C166 0.928 . S
O135 Co119 2.057 . S
O135 C123 1.232 . S
H136 C155 0.929 . S
H137 C156 0.929 . S
H138 C168 0.931 . S
H139 C160 0.929 . S
H140 C169 0.930 . S
H141 C161 0.931 . S
O142 Co118 2.097 . S
O142 C170 1.214 . S
H143 C171 0.929 . S
H144 C172 0.929 . S
H145 C173 0.930 . S
H146 C174 0.929 . S
H147 C176 0.930 . S
H148 C153 0.930 . S
H149 C157 0.930 . S
O150 Co119 2.037 . S
O150 C170 1.234 . S
C151 O125 1.269 . S
C151 O126 1.257 . S
C152 H127 0.930 . S
C152 C155 1.388 . S
C152 C157 1.418 . S
C153 H148 0.930 . S
C153 C156 1.404 . S
C153 C157 1.353 . S
N154 Co119 2.145 . S
N154 C155 1.397 . S
N154 C156 1.334 . S
C155 H136 0.929 . S
C155 C152 1.388 . S
C155 N154 1.397 . S
C156 H137 0.929 . S
C156 C153 1.404 . S
C156 N154 1.334 . S
C157 H149 0.930 . S
C157 C152 1.418 . S
C157 C153 1.353 . S
C158 H128 0.930 . S
C158 N159 1.330 . S
C158 C160 1.446 . S
N159 Co118 2.151 . S
N159 C158 1.330 . S
N159 C163 1.418 . S
C160 H139 0.929 . S
C160 C158 1.446 . S
C160 C161 1.332 . S
C161 H141 0.931 . S
C161 C160 1.332 . S
C161 C162 1.267 . S
C162 H130 0.929 . S
C162 C161 1.267 . S
C162 C163 1.251 . S
C163 H133 0.929 . S
C163 N159 1.418 . S
C163 C162 1.251 . S
C164 H131 0.930 . S
C164 C166 1.406 . S
C164 C169 1.261 . S
C165 H132 0.930 . S
C165 N167 1.325 . S
C165 C168 1.357 . S
C166 H134 0.928 . S
C166 C164 1.406 . S
C166 N167 1.261 . S
N167 Co118 2.214 . S
N167 C165 1.325 . S
N167 C166 1.261 . S
C168 H138 0.931 . S
C168 C165 1.357 . S
C168 C169 1.312 . S
C169 H140 0.930 . S
C169 C164 1.261 . S
C169 C168 1.312 . S
C170 O142 1.214 . S
C170 O150 1.234 . S
C171 H143 0.929 . S
C171 C174 1.391 . S
C171 C176 1.391 . S
C172 H144 0.929 . S
C172 C173 1.390 . S
C172 N175 1.391 . S
C173 H145 0.930 . S
C173 C172 1.390 . S
C173 C174 1.392 . S
C174 H146 0.929 . S
C174 C171 1.391 . S
C174 C173 1.392 . S
N175 Co119 2.257 . S
N175 C172 1.391 . S
N175 C176 1.388 . S
C176 H147 0.930 . S
C176 C171 1.391 . S
C176 N175 1.388 . S
Co177 O179 2.143 . S
Co177 O185 2.074 . S
Co177 O188 2.093 . S
Co177 O201 2.097 . S
Co177 N218 2.151 . S
Co177 N226 2.214 1_545 S
Co178 O179 2.160 . S
Co178 O184 2.058 . S
Co178 O194 2.057 . S
Co178 O209 2.037 . S
Co178 N213 2.145 . S
Co178 N234 2.257 . S
O179 Co177 2.143 . S
O179 Co178 2.160 . S
C180 O181 1.278 . S
C180 O188 1.224 . S
O181 C180 1.278 . S
C182 O183 1.245 . S
C182 O194 1.232 . S
O183 C182 1.245 . S
O184 Co178 2.058 . S
O184 C210 1.269 . S
O185 Co177 2.074 . S
O185 C210 1.257 . S
H186 C211 0.930 . S
H187 C217 0.930 . S
O188 Co177 2.093 . S
O188 C180 1.224 . S
H189 C221 0.929 . S
H190 C223 0.930 . S
H191 C224 0.930 . S
H192 C222 0.929 . S
H193 C225 0.928 . S
O194 Co178 2.057 . S
O194 C182 1.232 . S
H195 C214 0.929 . S
H196 C215 0.929 . S
H197 C227 0.931 . S
H198 C219 0.929 . S
H199 C228 0.930 . S
H200 C220 0.931 . S
O201 Co177 2.097 . S
O201 C229 1.214 . S
H202 C230 0.929 . S
H203 C231 0.929 . S
H204 C232 0.930 . S
H205 C233 0.929 . S
H206 C235 0.930 . S
H207 C212 0.930 . S
H208 C216 0.930 . S
O209 Co178 2.037 . S
O209 C229 1.234 . S
C210 O184 1.269 . S
C210 O185 1.257 . S
C211 H186 0.930 . S
C211 C214 1.388 . S
C211 C216 1.418 . S
C212 H207 0.930 . S
C212 C215 1.404 . S
C212 C216 1.353 . S
N213 Co178 2.145 . S
N213 C214 1.397 . S
N213 C215 1.334 . S
C214 H195 0.929 . S
C214 C211 1.388 . S
C214 N213 1.397 . S
C215 H196 0.929 . S
C215 C212 1.404 . S
C215 N213 1.334 . S
C216 H208 0.930 . S
C216 C211 1.418 . S
C216 C212 1.353 . S
C217 H187 0.930 . S
C217 N218 1.330 . S
C217 C219 1.446 . S
N218 Co177 2.151 . S
N218 C217 1.330 . S
N218 C222 1.418 1_545 S
C219 H198 0.929 . S
C219 C217 1.446 . S
C219 C220 1.332 1_545 S
C220 H200 0.931 . S
C220 C219 1.332 1_565 S
C220 C221 1.267 . S
C221 H189 0.929 . S
C221 C220 1.267 . S
C221 C222 1.251 . S
C222 H192 0.929 . S
C222 N218 1.418 1_565 S
C222 C221 1.251 . S
C223 H190 0.930 . S
C223 C225 1.406 . S
C223 C228 1.261 . S
C224 H191 0.930 . S
C224 N226 1.325 . S
C224 C227 1.357 . S
C225 H193 0.928 . S
C225 C223 1.406 . S
C225 N226 1.261 . S
N226 Co177 2.214 1_565 S
N226 C224 1.325 . S
N226 C225 1.261 . S
C227 H197 0.931 . S
C227 C224 1.357 . S
C227 C228 1.312 . S
C228 H199 0.930 . S
C228 C223 1.261 . S
C228 C227 1.312 . S
C229 O201 1.214 . S
C229 O209 1.234 . S
C230 H202 0.929 . S
C230 C233 1.391 . S
C230 C235 1.391 . S
C231 H203 0.929 . S
C231 C232 1.390 . S
C231 N234 1.391 . S
C232 H204 0.930 . S
C232 C231 1.390 . S
C232 C233 1.392 . S
C233 H205 0.929 . S
C233 C230 1.391 . S
C233 C232 1.392 . S
N234 Co178 2.257 . S
N234 C231 1.391 . S
N234 C235 1.388 . S
C235 H206 0.930 . S
C235 C230 1.391 . S
C235 N234 1.388 . S
Co236 O238 2.143 . S
Co236 O244 2.074 . S
Co236 O247 2.093 . S
Co236 O260 2.097 . S
Co236 N277 2.151 . S
Co236 N285 2.214 . S
Co237 O238 2.160 . S
Co237 O243 2.058 . S
Co237 O253 2.057 . S
Co237 O268 2.037 . S
Co237 N272 2.145 . S
Co237 N293 2.257 . S
O238 Co236 2.143 . S
O238 Co237 2.160 . S
C239 O240 1.278 . S
C239 O247 1.224 . S
O240 C239 1.278 . S
C241 O242 1.245 . S
C241 O253 1.232 . S
O242 C241 1.245 . S
O243 Co237 2.058 . S
O243 C269 1.269 . S
O244 Co236 2.074 . S
O244 C269 1.257 . S
H245 C270 0.930 . S
H246 C276 0.930 . S
O247 Co236 2.093 . S
O247 C239 1.224 . S
H248 C280 0.929 . S
H249 C282 0.930 . S
H250 C283 0.930 . S
H251 C281 0.929 . S
H252 C284 0.928 . S
O253 Co237 2.057 . S
O253 C241 1.232 . S
H254 C273 0.929 . S
H255 C274 0.929 . S
H256 C286 0.931 . S
H257 C278 0.929 . S
H258 C287 0.930 . S
H259 C279 0.931 . S
O260 Co236 2.097 . S
O260 C288 1.214 . S
H261 C289 0.929 . S
H262 C290 0.929 . S
H263 C291 0.930 . S
H264 C292 0.929 . S
H265 C294 0.930 . S
H266 C271 0.930 . S
H267 C275 0.930 . S
O268 Co237 2.037 . S
O268 C288 1.234 . S
C269 O243 1.269 . S
C269 O244 1.257 . S
C270 H245 0.930 . S
C270 C273 1.388 . S
C270 C275 1.418 . S
C271 H266 0.930 . S
C271 C274 1.404 . S
C271 C275 1.353 . S
N272 Co237 2.145 . S
N272 C273 1.397 . S
N272 C274 1.334 . S
C273 H254 0.929 . S
C273 C270 1.388 . S
C273 N272 1.397 . S
C274 H255 0.929 . S
C274 C271 1.404 . S
C274 N272 1.334 . S
C275 H267 0.930 . S
C275 C270 1.418 . S
C275 C271 1.353 . S
C276 H246 0.930 . S
C276 N277 1.330 . S
C276 C278 1.446 . S
N277 Co236 2.151 . S
N277 C276 1.330 . S
N277 C281 1.418 . S
C278 H257 0.929 . S
C278 C276 1.446 . S
C278 C279 1.332 . S
C279 H259 0.931 . S
C279 C278 1.332 . S
C279 C280 1.267 . S
C280 H248 0.929 . S
C280 C279 1.267 . S
C280 C281 1.251 . S
C281 H251 0.929 . S
C281 N277 1.418 . S
C281 C280 1.251 . S
C282 H249 0.930 . S
C282 C284 1.406 . S
C282 C287 1.261 . S
C283 H250 0.930 . S
C283 N285 1.325 . S
C283 C286 1.357 . S
C284 H252 0.928 . S
C284 C282 1.406 . S
C284 N285 1.261 . S
N285 Co236 2.214 . S
N285 C283 1.325 . S
N285 C284 1.261 . S
C286 H256 0.931 . S
C286 C283 1.357 . S
C286 C287 1.312 . S
C287 H258 0.930 . S
C287 C282 1.261 . S
C287 C286 1.312 . S
C288 O260 1.214 . S
C288 O268 1.234 . S
C289 H261 0.929 . S
C289 C292 1.391 . S
C289 C294 1.391 . S
C290 H262 0.929 . S
C290 C291 1.390 . S
C290 N293 1.391 . S
C291 H263 0.930 . S
C291 C290 1.390 . S
C291 C292 1.392 . S
C292 H264 0.929 . S
C292 C289 1.391 . S
C292 C291 1.392 . S
N293 Co237 2.257 . S
N293 C290 1.391 . S
N293 C294 1.388 . S
C294 H265 0.930 . S
C294 C289 1.391 . S
C294 N293 1.388 . S
Co295 O297 2.143 . S
Co295 O303 2.074 . S
Co295 O306 2.093 . S
Co295 O319 2.097 . S
Co295 N336 2.151 . S
Co295 N344 2.214 . S
Co296 O297 2.160 . S
Co296 O302 2.058 . S
Co296 O312 2.057 . S
Co296 O327 2.037 . S
Co296 N331 2.145 . S
Co296 N352 2.257 . S
O297 Co295 2.143 . S
O297 Co296 2.160 . S
C298 O299 1.278 . S
C298 O306 1.224 . S
O299 C298 1.278 . S
C300 O301 1.245 . S
C300 O312 1.232 . S
O301 C300 1.245 . S
O302 Co296 2.058 . S
O302 C328 1.269 . S
O303 Co295 2.074 . S
O303 C328 1.257 . S
H304 C329 0.930 . S
H305 C335 0.930 . S
O306 Co295 2.093 . S
O306 C298 1.224 . S
H307 C339 0.929 . S
H308 C341 0.930 . S
H309 C342 0.930 . S
H310 C340 0.929 . S
H311 C343 0.928 . S
O312 Co296 2.057 . S
O312 C300 1.232 . S
H313 C332 0.929 . S
H314 C333 0.929 . S
H315 C345 0.931 . S
H316 C337 0.929 . S
H317 C346 0.930 . S
H318 C338 0.931 . S
O319 Co295 2.097 . S
O319 C347 1.214 . S
H320 C348 0.929 . S
H321 C349 0.929 . S
H322 C350 0.930 . S
H323 C351 0.929 . S
H324 C353 0.930 . S
H325 C330 0.930 1_655 S
H326 C334 0.930 . S
O327 Co296 2.037 . S
O327 C347 1.234 . S
C328 O302 1.269 . S
C328 O303 1.257 . S
C329 H304 0.930 . S
C329 C332 1.388 . S
C329 C334 1.418 . S
C330 H325 0.930 1_455 S
C330 C333 1.404 . S
C330 C334 1.353 . S
N331 Co296 2.145 . S
N331 C332 1.397 . S
N331 C333 1.334 . S
C332 H313 0.929 . S
C332 C329 1.388 . S
C332 N331 1.397 . S
C333 H314 0.929 . S
C333 C330 1.404 . S
C333 N331 1.334 . S
C334 H326 0.930 . S
C334 C329 1.418 . S
C334 C330 1.353 . S
C335 H305 0.930 . S
C335 N336 1.330 . S
C335 C337 1.446 . S
N336 Co295 2.151 . S
N336 C335 1.330 . S
N336 C340 1.418 . S
C337 H316 0.929 . S
C337 C335 1.446 . S
C337 C338 1.332 . S
C338 H318 0.931 . S
C338 C337 1.332 . S
C338 C339 1.267 . S
C339 H307 0.929 . S
C339 C338 1.267 . S
C339 C340 1.251 . S
C340 H310 0.929 . S
C340 N336 1.418 . S
C340 C339 1.251 . S
C341 H308 0.930 . S
C341 C343 1.406 . S
C341 C346 1.261 . S
C342 H309 0.930 . S
C342 N344 1.325 . S
C342 C345 1.357 . S
C343 H311 0.928 . S
C343 C341 1.406 . S
C343 N344 1.261 . S
N344 Co295 2.214 . S
N344 C342 1.325 . S
N344 C343 1.261 . S
C345 H315 0.931 . S
C345 C342 1.357 . S
C345 C346 1.312 . S
C346 H317 0.930 . S
C346 C341 1.261 . S
C346 C345 1.312 . S
C347 O319 1.214 . S
C347 O327 1.234 . S
C348 H320 0.929 . S
C348 C351 1.391 . S
C348 C353 1.391 . S
C349 H321 0.929 . S
C349 C350 1.390 . S
C349 N352 1.391 . S
C350 H322 0.930 . S
C350 C349 1.390 . S
C350 C351 1.392 . S
C351 H323 0.929 . S
C351 C348 1.391 . S
C351 C350 1.392 . S
N352 Co296 2.257 . S
N352 C349 1.391 . S
N352 C353 1.388 . S
C353 H324 0.930 . S
C353 C348 1.391 . S
C353 N352 1.388 . S
Co354 O356 2.143 . S
Co354 O362 2.074 . S
Co354 O365 2.093 . S
Co354 O378 2.097 . S
Co354 N395 2.151 . S
Co354 N403 2.214 . S
Co355 O356 2.160 . S
Co355 O361 2.058 . S
Co355 O371 2.057 . S
Co355 O386 2.037 . S
Co355 N390 2.145 . S
Co355 N411 2.257 . S
O356 Co354 2.143 . S
O356 Co355 2.160 . S
C357 O358 1.278 . S
C357 O365 1.224 . S
O358 C357 1.278 . S
C359 O360 1.245 . S
C359 O371 1.232 . S
O360 C359 1.245 . S
O361 Co355 2.058 . S
O361 C387 1.269 . S
O362 Co354 2.074 . S
O362 C387 1.257 . S
H363 C388 0.930 . S
H364 C394 0.930 . S
O365 Co354 2.093 . S
O365 C357 1.224 . S
H366 C398 0.929 . S
H367 C400 0.930 . S
H368 C401 0.930 . S
H369 C399 0.929 . S
H370 C402 0.928 . S
O371 Co355 2.057 . S
O371 C359 1.232 . S
H372 C391 0.929 . S
H373 C392 0.929 . S
H374 C404 0.931 . S
H375 C396 0.929 . S
H376 C405 0.930 . S
H377 C397 0.931 . S
O378 Co354 2.097 . S
O378 C406 1.214 . S
H379 C407 0.929 . S
H380 C408 0.929 . S
H381 C409 0.930 . S
H382 C410 0.929 . S
H383 C412 0.930 . S
H384 C389 0.930 . S
H385 C393 0.930 . S
O386 Co355 2.037 . S
O386 C406 1.234 . S
C387 O361 1.269 . S
C387 O362 1.257 . S
C388 H363 0.930 . S
C388 C391 1.388 . S
C388 C393 1.418 . S
C389 H384 0.930 . S
C389 C392 1.404 . S
C389 C393 1.353 . S
N390 Co355 2.145 . S
N390 C391 1.397 . S
N390 C392 1.334 . S
C391 H372 0.929 . S
C391 C388 1.388 . S
C391 N390 1.397 . S
C392 H373 0.929 . S
C392 C389 1.404 . S
C392 N390 1.334 . S
C393 H385 0.930 . S
C393 C388 1.418 . S
C393 C389 1.353 . S
C394 H364 0.930 . S
C394 N395 1.330 . S
C394 C396 1.446 . S
N395 Co354 2.151 . S
N395 C394 1.330 . S
N395 C399 1.418 . S
C396 H375 0.929 . S
C396 C394 1.446 . S
C396 C397 1.332 . S
C397 H377 0.931 . S
C397 C396 1.332 . S
C397 C398 1.267 . S
C398 H366 0.929 . S
C398 C397 1.267 . S
C398 C399 1.251 . S
C399 H369 0.929 . S
C399 N395 1.418 . S
C399 C398 1.251 . S
C400 H367 0.930 . S
C400 C402 1.406 . S
C400 C405 1.261 . S
C401 H368 0.930 . S
C401 N403 1.325 . S
C401 C404 1.357 . S
C402 H370 0.928 . S
C402 C400 1.406 . S
C402 N403 1.261 . S
N403 Co354 2.214 . S
N403 C401 1.325 . S
N403 C402 1.261 . S
C404 H374 0.931 . S
C404 C401 1.357 . S
C404 C405 1.312 . S
C405 H376 0.930 . S
C405 C400 1.261 . S
C405 C404 1.312 . S
C406 O378 1.214 . S
C406 O386 1.234 . S
C407 H379 0.929 . S
C407 C410 1.391 . S
C407 C412 1.391 . S
C408 H380 0.929 . S
C408 C409 1.390 . S
C408 N411 1.391 . S
C409 H381 0.930 . S
C409 C408 1.390 . S
C409 C410 1.392 . S
C410 H382 0.929 . S
C410 C407 1.391 . S
C410 C409 1.392 . S
N411 Co355 2.257 . S
N411 C408 1.391 . S
N411 C412 1.388 . S
C412 H383 0.930 . S
C412 C407 1.391 . S
C412 N411 1.388 . S
Co413 O415 2.143 . S
Co413 O421 2.074 . S
Co413 O424 2.093 . S
Co413 O437 2.097 . S
Co413 N454 2.151 . S
Co413 N462 2.214 . S
Co414 O415 2.160 . S
Co414 O420 2.058 . S
Co414 O430 2.057 . S
Co414 O445 2.037 . S
Co414 N449 2.145 . S
Co414 N470 2.257 . S
O415 Co413 2.143 . S
O415 Co414 2.160 . S
C416 O417 1.278 . S
C416 O424 1.224 . S
O417 C416 1.278 . S
C418 O419 1.245 . S
C418 O430 1.232 . S
O419 C418 1.245 . S
O420 Co414 2.058 . S
O420 C446 1.269 . S
O421 Co413 2.074 . S
O421 C446 1.257 . S
H422 C447 0.930 . S
H423 C453 0.930 . S
O424 Co413 2.093 . S
O424 C416 1.224 . S
H425 C457 0.929 . S
H426 C459 0.930 . S
H427 C460 0.930 . S
H428 C458 0.929 . S
H429 C461 0.928 . S
O430 Co414 2.057 . S
O430 C418 1.232 . S
H431 C450 0.929 . S
H432 C451 0.929 . S
H433 C463 0.931 . S
H434 C455 0.929 . S
H435 C464 0.930 . S
H436 C456 0.931 . S
O437 Co413 2.097 . S
O437 C465 1.214 . S
H438 C466 0.929 . S
H439 C467 0.929 . S
H440 C468 0.930 . S
H441 C469 0.929 . S
H442 C471 0.930 . S
H443 C448 0.930 . S
H444 C452 0.930 . S
O445 Co414 2.037 . S
O445 C465 1.234 . S
C446 O420 1.269 . S
C446 O421 1.257 . S
C447 H422 0.930 . S
C447 C450 1.388 . S
C447 C452 1.418 . S
C448 H443 0.930 . S
C448 C451 1.404 . S
C448 C452 1.353 . S
N449 Co414 2.145 . S
N449 C450 1.397 . S
N449 C451 1.334 . S
C450 H431 0.929 . S
C450 C447 1.388 . S
C450 N449 1.397 . S
C451 H432 0.929 . S
C451 C448 1.404 . S
C451 N449 1.334 . S
C452 H444 0.930 . S
C452 C447 1.418 . S
C452 C448 1.353 . S
C453 H423 0.930 . S
C453 N454 1.330 . S
C453 C455 1.446 . S
N454 Co413 2.151 . S
N454 C453 1.330 . S
N454 C458 1.418 . S
C455 H434 0.929 . S
C455 C453 1.446 . S
C455 C456 1.332 . S
C456 H436 0.931 . S
C456 C455 1.332 . S
C456 C457 1.267 . S
C457 H425 0.929 . S
C457 C456 1.267 . S
C457 C458 1.251 . S
C458 H428 0.929 . S
C458 N454 1.418 . S
C458 C457 1.251 . S
C459 H426 0.930 . S
C459 C461 1.406 . S
C459 C464 1.261 . S
C460 H427 0.930 . S
C460 N462 1.325 . S
C460 C463 1.357 . S
C461 H429 0.928 . S
C461 C459 1.406 . S
C461 N462 1.261 . S
N462 Co413 2.214 . S
N462 C460 1.325 . S
N462 C461 1.261 . S
C463 H433 0.931 . S
C463 C460 1.357 . S
C463 C464 1.312 . S
C464 H435 0.930 . S
C464 C459 1.261 . S
C464 C463 1.312 . S
C465 O437 1.214 . S
C465 O445 1.234 . S
C466 H438 0.929 . S
C466 C469 1.391 . S
C466 C471 1.391 . S
C467 H439 0.929 . S
C467 C468 1.390 . S
C467 N470 1.391 . S
C468 H440 0.930 . S
C468 C467 1.390 . S
C468 C469 1.392 . S
C469 H441 0.929 . S
C469 C466 1.391 . S
C469 C468 1.392 . S
N470 Co414 2.257 . S
N470 C467 1.391 . S
N470 C471 1.388 . S
C471 H442 0.930 . S
C471 C466 1.391 . S
C471 N470 1.388 . S
Co472 O474 2.143 . S
Co472 O480 2.074 . S
Co472 O483 2.093 . S
Co472 O496 2.097 . S
Co472 N513 2.151 . S
Co472 N521 2.214 . S
Co473 O474 2.160 . S
Co473 O479 2.058 . S
Co473 O489 2.057 . S
Co473 O504 2.037 . S
Co473 N508 2.145 . S
Co473 N529 2.257 . S
O474 Co472 2.143 . S
O474 Co473 2.160 . S
C475 O476 1.278 . S
C475 O483 1.224 . S
O476 C475 1.278 . S
C477 O478 1.245 . S
C477 O489 1.232 . S
O478 C477 1.245 . S
O479 Co473 2.058 . S
O479 C505 1.269 . S
O480 Co472 2.074 . S
O480 C505 1.257 . S
H481 C506 0.930 . S
H482 C512 0.930 . S
O483 Co472 2.093 . S
O483 C475 1.224 . S
H484 C516 0.929 . S
H485 C518 0.930 . S
H486 C519 0.930 . S
H487 C517 0.929 . S
H488 C520 0.928 . S
O489 Co473 2.057 . S
O489 C477 1.232 . S
H490 C509 0.929 . S
H491 C510 0.929 . S
H492 C522 0.931 . S
H493 C514 0.929 . S
H494 C523 0.930 . S
H495 C515 0.931 . S
O496 Co472 2.097 . S
O496 C524 1.214 . S
H497 C525 0.929 . S
H498 C526 0.929 . S
H499 C527 0.930 . S
H500 C528 0.929 . S
H501 C530 0.930 . S
H502 C507 0.930 . S
H503 C511 0.930 . S
O504 Co473 2.037 . S
O504 C524 1.234 . S
C505 O479 1.269 . S
C505 O480 1.257 . S
C506 H481 0.930 . S
C506 C509 1.388 . S
C506 C511 1.418 . S
C507 H502 0.930 . S
C507 C510 1.404 . S
C507 C511 1.353 . S
N508 Co473 2.145 . S
N508 C509 1.397 . S
N508 C510 1.334 . S
C509 H490 0.929 . S
C509 C506 1.388 . S
C509 N508 1.397 . S
C510 H491 0.929 . S
C510 C507 1.404 . S
C510 N508 1.334 . S
C511 H503 0.930 . S
C511 C506 1.418 . S
C511 C507 1.353 . S
C512 H482 0.930 . S
C512 N513 1.330 . S
C512 C514 1.446 . S
N513 Co472 2.151 . S
N513 C512 1.330 . S
N513 C517 1.418 . S
C514 H493 0.929 . S
C514 C512 1.446 . S
C514 C515 1.332 . S
C515 H495 0.931 . S
C515 C514 1.332 . S
C515 C516 1.267 . S
C516 H484 0.929 . S
C516 C515 1.267 . S
C516 C517 1.251 . S
C517 H487 0.929 . S
C517 N513 1.418 . S
C517 C516 1.251 . S
C518 H485 0.930 . S
C518 C520 1.406 . S
C518 C523 1.261 . S
C519 H486 0.930 . S
C519 N521 1.325 . S
C519 C522 1.357 . S
C520 H488 0.928 . S
C520 C518 1.406 . S
C520 N521 1.261 . S
N521 Co472 2.214 . S
N521 C519 1.325 . S
N521 C520 1.261 . S
C522 H492 0.931 . S
C522 C519 1.357 . S
C522 C523 1.312 . S
C523 H494 0.930 . S
C523 C518 1.261 . S
C523 C522 1.312 . S
C524 O496 1.214 . S
C524 O504 1.234 . S
C525 H497 0.929 . S
C525 C528 1.391 . S
C525 C530 1.391 . S
C526 H498 0.929 . S
C526 C527 1.390 . S
C526 N529 1.391 . S
C527 H499 0.930 . S
C527 C526 1.390 . S
C527 C528 1.392 . S
C528 H500 0.929 . S
C528 C525 1.391 . S
C528 C527 1.392 . S
N529 Co473 2.257 . S
N529 C526 1.391 . S
N529 C530 1.388 . S
C530 H501 0.930 . S
C530 C525 1.391 . S
C530 N529 1.388 . S
Co531 O533 2.143 . S
Co531 O539 2.074 . S
Co531 O542 2.093 . S
Co531 O555 2.097 . S
Co531 N572 2.151 . S
Co531 N580 2.214 1_455 S
Co532 O533 2.160 . S
Co532 O538 2.058 . S
Co532 O548 2.057 . S
Co532 O563 2.037 . S
Co532 N567 2.145 . S
Co532 N588 2.257 . S
O533 Co531 2.143 . S
O533 Co532 2.160 . S
C534 O535 1.278 . S
C534 O542 1.224 . S
O535 C534 1.278 . S
C536 O537 1.245 . S
C536 O548 1.232 . S
O537 C536 1.245 . S
O538 Co532 2.058 . S
O538 C564 1.269 . S
O539 Co531 2.074 . S
O539 C564 1.257 . S
H540 C565 0.930 . S
H541 C571 0.930 . S
O542 Co531 2.093 . S
O542 C534 1.224 . S
H543 C575 0.929 . S
H544 C577 0.930 . S
H545 C578 0.930 . S
H546 C576 0.929 . S
H547 C579 0.928 . S
O548 Co532 2.057 . S
O548 C536 1.232 . S
H549 C568 0.929 . S
H550 C569 0.929 . S
H551 C581 0.931 . S
H552 C573 0.929 . S
H553 C582 0.930 . S
H554 C574 0.931 . S
O555 Co531 2.097 . S
O555 C583 1.214 . S
H556 C584 0.929 . S
H557 C585 0.929 . S
H558 C586 0.930 . S
H559 C587 0.929 . S
H560 C589 0.930 . S
H561 C566 0.930 . S
H562 C570 0.930 . S
O563 Co532 2.037 . S
O563 C583 1.234 . S
C564 O538 1.269 . S
C564 O539 1.257 . S
C565 H540 0.930 . S
C565 C568 1.388 . S
C565 C570 1.418 . S
C566 H561 0.930 . S
C566 C569 1.404 . S
C566 C570 1.353 . S
N567 Co532 2.145 . S
N567 C568 1.397 . S
N567 C569 1.334 . S
C568 H549 0.929 . S
C568 C565 1.388 . S
C568 N567 1.397 . S
C569 H550 0.929 . S
C569 C566 1.404 . S
C569 N567 1.334 . S
C570 H562 0.930 . S
C570 C565 1.418 . S
C570 C566 1.353 . S
C571 H541 0.930 . S
C571 N572 1.330 . S
C571 C573 1.446 . S
N572 Co531 2.151 . S
N572 C571 1.330 . S
N572 C576 1.418 1_455 S
C573 H552 0.929 . S
C573 C571 1.446 . S
C573 C574 1.332 1_455 S
C574 H554 0.931 . S
C574 C573 1.332 1_655 S
C574 C575 1.267 . S
C575 H543 0.929 . S
C575 C574 1.267 . S
C575 C576 1.251 . S
C576 H546 0.929 . S
C576 N572 1.418 1_655 S
C576 C575 1.251 . S
C577 H544 0.930 . S
C577 C579 1.406 . S
C577 C582 1.261 . S
C578 H545 0.930 . S
C578 N580 1.325 . S
C578 C581 1.357 . S
C579 H547 0.928 . S
C579 C577 1.406 . S
C579 N580 1.261 . S
N580 Co531 2.214 1_655 S
N580 C578 1.325 . S
N580 C579 1.261 . S
C581 H551 0.931 . S
C581 C578 1.357 . S
C581 C582 1.312 . S
C582 H553 0.930 . S
C582 C577 1.261 . S
C582 C581 1.312 . S
C583 O555 1.214 . S
C583 O563 1.234 . S
C584 H556 0.929 . S
C584 C587 1.391 . S
C584 C589 1.391 . S
C585 H557 0.929 . S
C585 C586 1.390 . S
C585 N588 1.391 . S
C586 H558 0.930 . S
C586 C585 1.390 . S
C586 C587 1.392 . S
C587 H559 0.929 . S
C587 C584 1.391 . S
C587 C586 1.392 . S
N588 Co532 2.257 . S
N588 C585 1.391 . S
N588 C589 1.388 . S
C589 H560 0.930 . S
C589 C584 1.391 . S
C589 N588 1.388 . S
Co590 O592 2.143 . S
Co590 O598 2.074 . S
Co590 O601 2.093 . S
Co590 O614 2.097 . S
Co590 N631 2.151 . S
Co590 N639 2.214 . S
Co591 O592 2.160 . S
Co591 O597 2.058 . S
Co591 O607 2.057 . S
Co591 O622 2.037 . S
Co591 N626 2.145 . S
Co591 N647 2.257 . S
O592 Co590 2.143 . S
O592 Co591 2.160 . S
C593 O594 1.278 . S
C593 O601 1.224 . S
O594 C593 1.278 . S
C595 O596 1.245 . S
C595 O607 1.232 . S
O596 C595 1.245 . S
O597 Co591 2.058 . S
O597 C623 1.269 . S
O598 Co590 2.074 . S
O598 C623 1.257 . S
H599 C624 0.930 . S
H600 C630 0.930 . S
O601 Co590 2.093 . S
O601 C593 1.224 . S
H602 C634 0.929 . S
H603 C636 0.930 . S
H604 C637 0.930 . S
H605 C635 0.929 . S
H606 C638 0.928 . S
O607 Co591 2.057 . S
O607 C595 1.232 . S
H608 C627 0.929 . S
H609 C628 0.929 . S
H610 C640 0.931 . S
H611 C632 0.929 . S
H612 C641 0.930 . S
H613 C633 0.931 . S
O614 Co590 2.097 . S
O614 C642 1.214 . S
H615 C643 0.929 . S
H616 C644 0.929 . S
H617 C645 0.930 . S
H618 C646 0.929 . S
H619 C648 0.930 . S
H620 C625 0.930 . S
H621 C629 0.930 . S
O622 Co591 2.037 . S
O622 C642 1.234 . S
C623 O597 1.269 . S
C623 O598 1.257 . S
C624 H599 0.930 . S
C624 C627 1.388 . S
C624 C629 1.418 . S
C625 H620 0.930 . S
C625 C628 1.404 . S
C625 C629 1.353 . S
N626 Co591 2.145 . S
N626 C627 1.397 . S
N626 C628 1.334 . S
C627 H608 0.929 . S
C627 C624 1.388 . S
C627 N626 1.397 . S
C628 H609 0.929 . S
C628 C625 1.404 . S
C628 N626 1.334 . S
C629 H621 0.930 . S
C629 C624 1.418 . S
C629 C625 1.353 . S
C630 H600 0.930 . S
C630 N631 1.330 . S
C630 C632 1.446 . S
N631 Co590 2.151 . S
N631 C630 1.330 . S
N631 C635 1.418 . S
C632 H611 0.929 . S
C632 C630 1.446 . S
C632 C633 1.332 . S
C633 H613 0.931 . S
C633 C632 1.332 . S
C633 C634 1.267 . S
C634 H602 0.929 . S
C634 C633 1.267 . S
C634 C635 1.251 . S
C635 H605 0.929 . S
C635 N631 1.418 . S
C635 C634 1.251 . S
C636 H603 0.930 . S
C636 C638 1.406 . S
C636 C641 1.261 . S
C637 H604 0.930 . S
C637 N639 1.325 . S
C637 C640 1.357 . S
C638 H606 0.928 . S
C638 C636 1.406 . S
C638 N639 1.261 . S
N639 Co590 2.214 . S
N639 C637 1.325 . S
N639 C638 1.261 . S
C640 H610 0.931 . S
C640 C637 1.357 . S
C640 C641 1.312 . S
C641 H612 0.930 . S
C641 C636 1.261 . S
C641 C640 1.312 . S
C642 O614 1.214 . S
C642 O622 1.234 . S
C643 H615 0.929 . S
C643 C646 1.391 . S
C643 C648 1.391 . S
C644 H616 0.929 . S
C644 C645 1.390 . S
C644 N647 1.391 . S
C645 H617 0.930 . S
C645 C644 1.390 . S
C645 C646 1.392 . S
C646 H618 0.929 . S
C646 C643 1.391 . S
C646 C645 1.392 . S
N647 Co591 2.257 . S
N647 C644 1.391 . S
N647 C648 1.388 . S
C648 H619 0.930 . S
C648 C643 1.391 . S
C648 N647 1.388 . S
Co649 O651 2.143 . S
Co649 O657 2.074 . S
Co649 O660 2.093 . S
Co649 O673 2.097 . S
Co649 N690 2.151 . S
Co649 N698 2.214 . S
Co650 O651 2.160 . S
Co650 O656 2.058 . S
Co650 O666 2.057 . S
Co650 O681 2.037 . S
Co650 N685 2.145 . S
Co650 N706 2.257 . S
O651 Co649 2.143 . S
O651 Co650 2.160 . S
C652 O653 1.278 . S
C652 O660 1.224 . S
O653 C652 1.278 . S
C654 O655 1.245 . S
C654 O666 1.232 . S
O655 C654 1.245 . S
O656 Co650 2.058 . S
O656 C682 1.269 . S
O657 Co649 2.074 . S
O657 C682 1.257 . S
H658 C683 0.930 . S
H659 C689 0.930 . S
O660 Co649 2.093 . S
O660 C652 1.224 . S
H661 C693 0.929 . S
H662 C695 0.930 . S
H663 C696 0.930 . S
H664 C694 0.929 . S
H665 C697 0.928 . S
O666 Co650 2.057 . S
O666 C654 1.232 . S
H667 C686 0.929 . S
H668 C687 0.929 . S
H669 C699 0.931 . S
H670 C691 0.929 . S
H671 C700 0.930 . S
H672 C692 0.931 . S
O673 Co649 2.097 . S
O673 C701 1.214 . S
H674 C702 0.929 . S
H675 C703 0.929 . S
H676 C704 0.930 . S
H677 C705 0.929 . S
H678 C707 0.930 . S
H679 C684 0.930 1_556 S
H680 C688 0.930 . S
O681 Co650 2.037 . S
O681 C701 1.234 . S
C682 O656 1.269 . S
C682 O657 1.257 . S
C683 H658 0.930 . S
C683 C686 1.388 . S
C683 C688 1.418 . S
C684 H679 0.930 1_554 S
C684 C687 1.404 . S
C684 C688 1.353 . S
N685 Co650 2.145 . S
N685 C686 1.397 . S
N685 C687 1.334 . S
C686 H667 0.929 . S
C686 C683 1.388 . S
C686 N685 1.397 . S
C687 H668 0.929 . S
C687 C684 1.404 . S
C687 N685 1.334 . S
C688 H680 0.930 . S
C688 C683 1.418 . S
C688 C684 1.353 . S
C689 H659 0.930 . S
C689 N690 1.330 . S
C689 C691 1.446 . S
N690 Co649 2.151 . S
N690 C689 1.330 . S
N690 C694 1.418 . S
C691 H670 0.929 . S
C691 C689 1.446 . S
C691 C692 1.332 . S
C692 H672 0.931 . S
C692 C691 1.332 . S
C692 C693 1.267 . S
C693 H661 0.929 . S
C693 C692 1.267 . S
C693 C694 1.251 . S
C694 H664 0.929 . S
C694 N690 1.418 . S
C694 C693 1.251 . S
C695 H662 0.930 . S
C695 C697 1.406 . S
C695 C700 1.261 . S
C696 H663 0.930 . S
C696 N698 1.325 . S
C696 C699 1.357 . S
C697 H665 0.928 . S
C697 C695 1.406 . S
C697 N698 1.261 . S
N698 Co649 2.214 . S
N698 C696 1.325 . S
N698 C697 1.261 . S
C699 H669 0.931 . S
C699 C696 1.357 . S
C699 C700 1.312 . S
C700 H671 0.930 . S
C700 C695 1.261 . S
C700 C699 1.312 . S
C701 O673 1.214 . S
C701 O681 1.234 . S
C702 H674 0.929 . S
C702 C705 1.391 . S
C702 C707 1.391 . S
C703 H675 0.929 . S
C703 C704 1.390 . S
C703 N706 1.391 . S
C704 H676 0.930 . S
C704 C703 1.390 . S
C704 C705 1.392 . S
C705 H677 0.929 . S
C705 C702 1.391 . S
C705 C704 1.392 . S
N706 Co650 2.257 . S
N706 C703 1.391 . S
N706 C707 1.388 . S
C707 H678 0.930 . S
C707 C702 1.391 . S
C707 N706 1.388 . S
Co708 O710 2.143 . S
Co708 O716 2.074 . S
Co708 O719 2.093 . S
Co708 O732 2.097 . S
Co708 N749 2.151 . S
Co708 N757 2.214 . S
Co709 O710 2.160 . S
Co709 O715 2.058 . S
Co709 O725 2.057 . S
Co709 O740 2.037 . S
Co709 N744 2.145 . S
Co709 N765 2.257 . S
O710 Co708 2.143 . S
O710 Co709 2.160 . S
C711 O712 1.278 . S
C711 O719 1.224 . S
O712 C711 1.278 . S
C713 O714 1.245 . S
C713 O725 1.232 . S
O714 C713 1.245 . S
O715 Co709 2.058 . S
O715 C741 1.269 . S
O716 Co708 2.074 . S
O716 C741 1.257 . S
H717 C742 0.930 . S
H718 C748 0.930 . S
O719 Co708 2.093 . S
O719 C711 1.224 . S
H720 C752 0.929 . S
H721 C754 0.930 . S
H722 C755 0.930 . S
H723 C753 0.929 . S
H724 C756 0.928 . S
O725 Co709 2.057 . S
O725 C713 1.232 . S
H726 C745 0.929 . S
H727 C746 0.929 . S
H728 C758 0.931 . S
H729 C750 0.929 . S
H730 C759 0.930 . S
H731 C751 0.931 . S
O732 Co708 2.097 . S
O732 C760 1.214 . S
H733 C761 0.929 . S
H734 C762 0.929 . S
H735 C763 0.930 . S
H736 C764 0.929 . S
H737 C766 0.930 . S
H738 C743 0.930 . S
H739 C747 0.930 . S
O740 Co709 2.037 . S
O740 C760 1.234 . S
C741 O715 1.269 . S
C741 O716 1.257 . S
C742 H717 0.930 . S
C742 C745 1.388 . S
C742 C747 1.418 . S
C743 H738 0.930 . S
C743 C746 1.404 . S
C743 C747 1.353 . S
N744 Co709 2.145 . S
N744 C745 1.397 . S
N744 C746 1.334 . S
C745 H726 0.929 . S
C745 C742 1.388 . S
C745 N744 1.397 . S
C746 H727 0.929 . S
C746 C743 1.404 . S
C746 N744 1.334 . S
C747 H739 0.930 . S
C747 C742 1.418 . S
C747 C743 1.353 . S
C748 H718 0.930 . S
C748 N749 1.330 . S
C748 C750 1.446 . S
N749 Co708 2.151 . S
N749 C748 1.330 . S
N749 C753 1.418 . S
C750 H729 0.929 . S
C750 C748 1.446 . S
C750 C751 1.332 . S
C751 H731 0.931 . S
C751 C750 1.332 . S
C751 C752 1.267 . S
C752 H720 0.929 . S
C752 C751 1.267 . S
C752 C753 1.251 . S
C753 H723 0.929 . S
C753 N749 1.418 . S
C753 C752 1.251 . S
C754 H721 0.930 . S
C754 C756 1.406 . S
C754 C759 1.261 . S
C755 H722 0.930 . S
C755 N757 1.325 . S
C755 C758 1.357 . S
C756 H724 0.928 . S
C756 C754 1.406 . S
C756 N757 1.261 . S
N757 Co708 2.214 . S
N757 C755 1.325 . S
N757 C756 1.261 . S
C758 H728 0.931 . S
C758 C755 1.357 . S
C758 C759 1.312 . S
C759 H730 0.930 . S
C759 C754 1.261 . S
C759 C758 1.312 . S
C760 O732 1.214 . S
C760 O740 1.234 . S
C761 H733 0.929 . S
C761 C764 1.391 . S
C761 C766 1.391 . S
C762 H734 0.929 . S
C762 C763 1.390 . S
C762 N765 1.391 . S
C763 H735 0.930 . S
C763 C762 1.390 . S
C763 C764 1.392 . S
C764 H736 0.929 . S
C764 C761 1.391 . S
C764 C763 1.392 . S
N765 Co709 2.257 . S
N765 C762 1.391 . S
N765 C766 1.388 . S
C766 H737 0.930 . S
C766 C761 1.391 . S
C766 N765 1.388 . S
Co767 O769 2.143 . S
Co767 O775 2.074 . S
Co767 O778 2.093 . S
Co767 O791 2.097 . S
Co767 N808 2.151 . S
Co767 N816 2.214 1_655 S
Co768 O769 2.160 . S
Co768 O774 2.058 . S
Co768 O784 2.057 . S
Co768 O799 2.037 . S
Co768 N803 2.145 . S
Co768 N824 2.257 . S
O769 Co767 2.143 . S
O769 Co768 2.160 . S
C770 O771 1.278 . S
C770 O778 1.224 . S
O771 C770 1.278 . S
C772 O773 1.245 . S
C772 O784 1.232 . S
O773 C772 1.245 . S
O774 Co768 2.058 . S
O774 C800 1.269 . S
O775 Co767 2.074 . S
O775 C800 1.257 . S
H776 C801 0.930 . S
H777 C807 0.930 . S
O778 Co767 2.093 . S
O778 C770 1.224 . S
H779 C811 0.929 . S
H780 C813 0.930 . S
H781 C814 0.930 . S
H782 C812 0.929 . S
H783 C815 0.928 . S
O784 Co768 2.057 . S
O784 C772 1.232 . S
H785 C804 0.929 . S
H786 C805 0.929 . S
H787 C817 0.931 . S
H788 C809 0.929 . S
H789 C818 0.930 . S
H790 C810 0.931 . S
O791 Co767 2.097 . S
O791 C819 1.214 . S
H792 C820 0.929 . S
H793 C821 0.929 . S
H794 C822 0.930 . S
H795 C823 0.929 . S
H796 C825 0.930 . S
H797 C802 0.930 1_554 S
H798 C806 0.930 . S
O799 Co768 2.037 . S
O799 C819 1.234 . S
C800 O774 1.269 . S
C800 O775 1.257 . S
C801 H776 0.930 . S
C801 C804 1.388 . S
C801 C806 1.418 . S
C802 H797 0.930 1_556 S
C802 C805 1.404 . S
C802 C806 1.353 . S
N803 Co768 2.145 . S
N803 C804 1.397 . S
N803 C805 1.334 . S
C804 H785 0.929 . S
C804 C801 1.388 . S
C804 N803 1.397 . S
C805 H786 0.929 . S
C805 C802 1.404 . S
C805 N803 1.334 . S
C806 H798 0.930 . S
C806 C801 1.418 . S
C806 C802 1.353 . S
C807 H777 0.930 . S
C807 N808 1.330 . S
C807 C809 1.446 . S
N808 Co767 2.151 . S
N808 C807 1.330 . S
N808 C812 1.418 1_655 S
C809 H788 0.929 . S
C809 C807 1.446 . S
C809 C810 1.332 1_655 S
C810 H790 0.931 . S
C810 C809 1.332 1_455 S
C810 C811 1.267 . S
C811 H779 0.929 . S
C811 C810 1.267 . S
C811 C812 1.251 . S
C812 H782 0.929 . S
C812 N808 1.418 1_455 S
C812 C811 1.251 . S
C813 H780 0.930 . S
C813 C815 1.406 . S
C813 C818 1.261 . S
C814 H781 0.930 . S
C814 N816 1.325 . S
C814 C817 1.357 . S
C815 H783 0.928 . S
C815 C813 1.406 . S
C815 N816 1.261 . S
N816 Co767 2.214 1_455 S
N816 C814 1.325 . S
N816 C815 1.261 . S
C817 H787 0.931 . S
C817 C814 1.357 . S
C817 C818 1.312 . S
C818 H789 0.930 . S
C818 C813 1.261 . S
C818 C817 1.312 . S
C819 O791 1.214 . S
C819 O799 1.234 . S
C820 H792 0.929 . S
C820 C823 1.391 . S
C820 C825 1.391 . S
C821 H793 0.929 . S
C821 C822 1.390 . S
C821 N824 1.391 . S
C822 H794 0.930 . S
C822 C821 1.390 . S
C822 C823 1.392 . S
C823 H795 0.929 . S
C823 C820 1.391 . S
C823 C822 1.392 . S
N824 Co768 2.257 . S
N824 C821 1.391 . S
N824 C825 1.388 . S
C825 H796 0.930 . S
C825 C820 1.391 . S
C825 N824 1.388 . S
Co826 O828 2.143 . S
Co826 O834 2.074 . S
Co826 O837 2.093 . S
Co826 O850 2.097 . S
Co826 N867 2.151 . S
Co826 N875 2.214 . S
Co827 O828 2.160 . S
Co827 O833 2.058 . S
Co827 O843 2.057 . S
Co827 O858 2.037 . S
Co827 N862 2.145 . S
Co827 N883 2.257 . S
O828 Co826 2.143 . S
O828 Co827 2.160 . S
C829 O830 1.278 . S
C829 O837 1.224 . S
O830 C829 1.278 . S
C831 O832 1.245 . S
C831 O843 1.232 . S
O832 C831 1.245 . S
O833 Co827 2.058 . S
O833 C859 1.269 . S
O834 Co826 2.074 . S
O834 C859 1.257 . S
H835 C860 0.930 . S
H836 C866 0.930 . S
O837 Co826 2.093 . S
O837 C829 1.224 . S
H838 C870 0.929 . S
H839 C872 0.930 . S
H840 C873 0.930 . S
H841 C871 0.929 . S
H842 C874 0.928 . S
O843 Co827 2.057 . S
O843 C831 1.232 . S
H844 C863 0.929 . S
H845 C864 0.929 . S
H846 C876 0.931 . S
H847 C868 0.929 . S
H848 C877 0.930 . S
H849 C869 0.931 . S
O850 Co826 2.097 . S
O850 C878 1.214 . S
H851 C879 0.929 . S
H852 C880 0.929 . S
H853 C881 0.930 . S
H854 C882 0.929 . S
H855 C884 0.930 . S
H856 C861 0.930 . S
H857 C865 0.930 . S
O858 Co827 2.037 . S
O858 C878 1.234 . S
C859 O833 1.269 . S
C859 O834 1.257 . S
C860 H835 0.930 . S
C860 C863 1.388 . S
C860 C865 1.418 . S
C861 H856 0.930 . S
C861 C864 1.404 . S
C861 C865 1.353 . S
N862 Co827 2.145 . S
N862 C863 1.397 . S
N862 C864 1.334 . S
C863 H844 0.929 . S
C863 C860 1.388 . S
C863 N862 1.397 . S
C864 H845 0.929 . S
C864 C861 1.404 . S
C864 N862 1.334 . S
C865 H857 0.930 . S
C865 C860 1.418 . S
C865 C861 1.353 . S
C866 H836 0.930 . S
C866 N867 1.330 . S
C866 C868 1.446 . S
N867 Co826 2.151 . S
N867 C866 1.330 . S
N867 C871 1.418 . S
C868 H847 0.929 . S
C868 C866 1.446 . S
C868 C869 1.332 . S
C869 H849 0.931 . S
C869 C868 1.332 . S
C869 C870 1.267 . S
C870 H838 0.929 . S
C870 C869 1.267 . S
C870 C871 1.251 . S
C871 H841 0.929 . S
C871 N867 1.418 . S
C871 C870 1.251 . S
C872 H839 0.930 . S
C872 C874 1.406 . S
C872 C877 1.261 . S
C873 H840 0.930 . S
C873 N875 1.325 . S
C873 C876 1.357 . S
C874 H842 0.928 . S
C874 C872 1.406 . S
C874 N875 1.261 . S
N875 Co826 2.214 . S
N875 C873 1.325 . S
N875 C874 1.261 . S
C876 H846 0.931 . S
C876 C873 1.357 . S
C876 C877 1.312 . S
C877 H848 0.930 . S
C877 C872 1.261 . S
C877 C876 1.312 . S
C878 O850 1.214 . S
C878 O858 1.234 . S
C879 H851 0.929 . S
C879 C882 1.391 . S
C879 C884 1.391 . S
C880 H852 0.929 . S
C880 C881 1.390 . S
C880 N883 1.391 . S
C881 H853 0.930 . S
C881 C880 1.390 . S
C881 C882 1.392 . S
C882 H854 0.929 . S
C882 C879 1.391 . S
C882 C881 1.392 . S
N883 Co827 2.257 . S
N883 C880 1.391 . S
N883 C884 1.388 . S
C884 H855 0.930 . S
C884 C879 1.391 . S
C884 N883 1.388 . S
Co885 O887 2.143 . S
Co885 O893 2.074 . S
Co885 O896 2.093 . S
Co885 O909 2.097 . S
Co885 N926 2.151 . S
Co885 N934 2.214 . S
Co886 O887 2.160 . S
Co886 O892 2.058 . S
Co886 O902 2.057 . S
Co886 O917 2.037 . S
Co886 N921 2.145 . S
Co886 N942 2.257 . S
O887 Co885 2.143 . S
O887 Co886 2.160 . S
C888 O889 1.278 . S
C888 O896 1.224 . S
O889 C888 1.278 . S
C890 O891 1.245 . S
C890 O902 1.232 . S
O891 C890 1.245 . S
O892 Co886 2.058 . S
O892 C918 1.269 . S
O893 Co885 2.074 . S
O893 C918 1.257 . S
H894 C919 0.930 . S
H895 C925 0.930 . S
O896 Co885 2.093 . S
O896 C888 1.224 . S
H897 C929 0.929 . S
H898 C931 0.930 . S
H899 C932 0.930 . S
H900 C930 0.929 . S
H901 C933 0.928 . S
O902 Co886 2.057 . S
O902 C890 1.232 . S
H903 C922 0.929 . S
H904 C923 0.929 . S
H905 C935 0.931 . S
H906 C927 0.929 . S
H907 C936 0.930 . S
H908 C928 0.931 . S
O909 Co885 2.097 . S
O909 C937 1.214 . S
H910 C938 0.929 . S
H911 C939 0.929 . S
H912 C940 0.930 . S
H913 C941 0.929 . S
H914 C943 0.930 . S
H915 C920 0.930 . S
H916 C924 0.930 . S
O917 Co886 2.037 . S
O917 C937 1.234 . S
C918 O892 1.269 . S
C918 O893 1.257 . S
C919 H894 0.930 . S
C919 C922 1.388 . S
C919 C924 1.418 . S
C920 H915 0.930 . S
C920 C923 1.404 . S
C920 C924 1.353 . S
N921 Co886 2.145 . S
N921 C922 1.397 . S
N921 C923 1.334 . S
C922 H903 0.929 . S
C922 C919 1.388 . S
C922 N921 1.397 . S
C923 H904 0.929 . S
C923 C920 1.404 . S
C923 N921 1.334 . S
C924 H916 0.930 . S
C924 C919 1.418 . S
C924 C920 1.353 . S
C925 H895 0.930 . S
C925 N926 1.330 . S
C925 C927 1.446 . S
N926 Co885 2.151 . S
N926 C925 1.330 . S
N926 C930 1.418 . S
C927 H906 0.929 . S
C927 C925 1.446 . S
C927 C928 1.332 . S
C928 H908 0.931 . S
C928 C927 1.332 . S
C928 C929 1.267 . S
C929 H897 0.929 . S
C929 C928 1.267 . S
C929 C930 1.251 . S
C930 H900 0.929 . S
C930 N926 1.418 . S
C930 C929 1.251 . S
C931 H898 0.930 . S
C931 C933 1.406 . S
C931 C936 1.261 . S
C932 H899 0.930 . S
C932 N934 1.325 . S
C932 C935 1.357 . S
C933 H901 0.928 . S
C933 C931 1.406 . S
C933 N934 1.261 . S
N934 Co885 2.214 . S
N934 C932 1.325 . S
N934 C933 1.261 . S
C935 H905 0.931 . S
C935 C932 1.357 . S
C935 C936 1.312 . S
C936 H907 0.930 . S
C936 C931 1.261 . S
C936 C935 1.312 . S
C937 O909 1.214 . S
C937 O917 1.234 . S
C938 H910 0.929 . S
C938 C941 1.391 . S
C938 C943 1.391 . S
C939 H911 0.929 . S
C939 C940 1.390 . S
C939 N942 1.391 . S
C940 H912 0.930 . S
C940 C939 1.390 . S
C940 C941 1.392 . S
C941 H913 0.929 . S
C941 C938 1.391 . S
C941 C940 1.392 . S
N942 Co886 2.257 . S
N942 C939 1.391 . S
N942 C943 1.388 . S
C943 H914 0.930 . S
C943 C938 1.391 . S
C943 N942 1.388 . S
Co944 O946 2.143 . S
Co944 O952 2.074 . S
Co944 O955 2.093 . S
Co944 O968 2.097 . S
Co944 N985 2.151 . S
Co944 N993 2.214 . S
Co945 O946 2.160 . S
Co945 O951 2.058 . S
Co945 O961 2.057 . S
Co945 O976 2.037 . S
Co945 N980 2.145 . S
Co945 N1001 2.257 . S
O946 Co944 2.143 . S
O946 Co945 2.160 . S
C947 O948 1.278 . S
C947 O955 1.224 . S
O948 C947 1.278 . S
C949 O950 1.245 . S
C949 O961 1.232 . S
O950 C949 1.245 . S
O951 Co945 2.058 . S
O951 C977 1.269 . S
O952 Co944 2.074 . S
O952 C977 1.257 . S
H953 C978 0.930 . S
H954 C984 0.930 . S
O955 Co944 2.093 . S
O955 C947 1.224 . S
H956 C988 0.929 . S
H957 C990 0.930 . S
H958 C991 0.930 . S
H959 C989 0.929 . S
H960 C992 0.928 . S
O961 Co945 2.057 . S
O961 C949 1.232 . S
H962 C981 0.929 . S
H963 C982 0.929 . S
H964 C994 0.931 . S
H965 C986 0.929 . S
H966 C995 0.930 . S
H967 C987 0.931 . S
O968 Co944 2.097 . S
O968 C996 1.214 . S
H969 C997 0.929 . S
H970 C998 0.929 . S
H971 C999 0.930 . S
H972 C1000 0.929 . S
H973 C1002 0.930 . S
H974 C979 0.930 . S
H975 C983 0.930 . S
O976 Co945 2.037 . S
O976 C996 1.234 . S
C977 O951 1.269 . S
C977 O952 1.257 . S
C978 H953 0.930 . S
C978 C981 1.388 . S
C978 C983 1.418 . S
C979 H974 0.930 . S
C979 C982 1.404 . S
C979 C983 1.353 . S
N980 Co945 2.145 . S
N980 C981 1.397 . S
N980 C982 1.334 . S
C981 H962 0.929 . S
C981 C978 1.388 . S
C981 N980 1.397 . S
C982 H963 0.929 . S
C982 C979 1.404 . S
C982 N980 1.334 . S
C983 H975 0.930 . S
C983 C978 1.418 . S
C983 C979 1.353 . S
C984 H954 0.930 . S
C984 N985 1.330 . S
C984 C986 1.446 . S
N985 Co944 2.151 . S
N985 C984 1.330 . S
N985 C989 1.418 . S
C986 H965 0.929 . S
C986 C984 1.446 . S
C986 C987 1.332 . S
C987 H967 0.931 . S
C987 C986 1.332 . S
C987 C988 1.267 . S
C988 H956 0.929 . S
C988 C987 1.267 . S
C988 C989 1.251 . S
C989 H959 0.929 . S
C989 N985 1.418 . S
C989 C988 1.251 . S
C990 H957 0.930 . S
C990 C992 1.406 . S
C990 C995 1.261 . S
C991 H958 0.930 . S
C991 N993 1.325 . S
C991 C994 1.357 . S
C992 H960 0.928 . S
C992 C990 1.406 . S
C992 N993 1.261 . S
N993 Co944 2.214 . S
N993 C991 1.325 . S
N993 C992 1.261 . S
C994 H964 0.931 . S
C994 C991 1.357 . S
C994 C995 1.312 . S
C995 H966 0.930 . S
C995 C990 1.261 . S
C995 C994 1.312 . S
C996 O968 1.214 . S
C996 O976 1.234 . S
C997 H969 0.929 . S
C997 C1000 1.391 . S
C997 C1002 1.391 . S
C998 H970 0.929 . S
C998 C999 1.390 . S
C998 N1001 1.391 . S
C999 H971 0.930 . S
C999 C998 1.390 . S
C999 C1000 1.392 . S
C1000 H972 0.929 . S
C1000 C997 1.391 . S
C1000 C999 1.392 . S
N1001 Co945 2.257 . S
N1001 C998 1.391 . S
N1001 C1002 1.388 . S
C1002 H973 0.930 . S
C1002 C997 1.391 . S
C1002 N1001 1.388 . S
Co1003 O1005 2.143 . S
Co1003 O1011 2.074 . S
Co1003 O1014 2.093 . S
Co1003 O1027 2.097 . S
Co1003 N1044 2.151 . S
Co1003 N1052 2.214 . S
Co1004 O1005 2.160 . S
Co1004 O1010 2.058 . S
Co1004 O1020 2.057 . S
Co1004 O1035 2.037 . S
Co1004 N1039 2.145 . S
Co1004 N1060 2.257 . S
O1005 Co1003 2.143 . S
O1005 Co1004 2.160 . S
C1006 O1007 1.278 . S
C1006 O1014 1.224 . S
O1007 C1006 1.278 . S
C1008 O1009 1.245 . S
C1008 O1020 1.232 . S
O1009 C1008 1.245 . S
O1010 Co1004 2.058 . S
O1010 C1036 1.269 . S
O1011 Co1003 2.074 . S
O1011 C1036 1.257 . S
H1012 C1037 0.930 . S
H1013 C1043 0.930 . S
O1014 Co1003 2.093 . S
O1014 C1006 1.224 . S
H1015 C1047 0.929 . S
H1016 C1049 0.930 . S
H1017 C1050 0.930 . S
H1018 C1048 0.929 . S
H1019 C1051 0.928 . S
O1020 Co1004 2.057 . S
O1020 C1008 1.232 . S
H1021 C1040 0.929 . S
H1022 C1041 0.929 . S
H1023 C1053 0.931 . S
H1024 C1045 0.929 . S
H1025 C1054 0.930 . S
H1026 C1046 0.931 . S
O1027 Co1003 2.097 . S
O1027 C1055 1.214 . S
H1028 C1056 0.929 . S
H1029 C1057 0.929 . S
H1030 C1058 0.930 . S
H1031 C1059 0.929 . S
H1032 C1061 0.930 . S
H1033 C1038 0.930 . S
H1034 C1042 0.930 . S
O1035 Co1004 2.037 . S
O1035 C1055 1.234 . S
C1036 O1010 1.269 . S
C1036 O1011 1.257 . S
C1037 H1012 0.930 . S
C1037 C1040 1.388 . S
C1037 C1042 1.418 . S
C1038 H1033 0.930 . S
C1038 C1041 1.404 . S
C1038 C1042 1.353 . S
N1039 Co1004 2.145 . S
N1039 C1040 1.397 . S
N1039 C1041 1.334 . S
C1040 H1021 0.929 . S
C1040 C1037 1.388 . S
C1040 N1039 1.397 . S
C1041 H1022 0.929 . S
C1041 C1038 1.404 . S
C1041 N1039 1.334 . S
C1042 H1034 0.930 . S
C1042 C1037 1.418 . S
C1042 C1038 1.353 . S
C1043 H1013 0.930 . S
C1043 N1044 1.330 . S
C1043 C1045 1.446 . S
N1044 Co1003 2.151 . S
N1044 C1043 1.330 . S
N1044 C1048 1.418 . S
C1045 H1024 0.929 . S
C1045 C1043 1.446 . S
C1045 C1046 1.332 . S
C1046 H1026 0.931 . S
C1046 C1045 1.332 . S
C1046 C1047 1.267 . S
C1047 H1015 0.929 . S
C1047 C1046 1.267 . S
C1047 C1048 1.251 . S
C1048 H1018 0.929 . S
C1048 N1044 1.418 . S
C1048 C1047 1.251 . S
C1049 H1016 0.930 . S
C1049 C1051 1.406 . S
C1049 C1054 1.261 . S
C1050 H1017 0.930 . S
C1050 N1052 1.325 . S
C1050 C1053 1.357 . S
C1051 H1019 0.928 . S
C1051 C1049 1.406 . S
C1051 N1052 1.261 . S
N1052 Co1003 2.214 . S
N1052 C1050 1.325 . S
N1052 C1051 1.261 . S
C1053 H1023 0.931 . S
C1053 C1050 1.357 . S
C1053 C1054 1.312 . S
C1054 H1025 0.930 . S
C1054 C1049 1.261 . S
C1054 C1053 1.312 . S
C1055 O1027 1.214 . S
C1055 O1035 1.234 . S
C1056 H1028 0.929 . S
C1056 C1059 1.391 . S
C1056 C1061 1.391 . S
C1057 H1029 0.929 . S
C1057 C1058 1.390 . S
C1057 N1060 1.391 . S
C1058 H1030 0.930 . S
C1058 C1057 1.390 . S
C1058 C1059 1.392 . S
C1059 H1031 0.929 . S
C1059 C1056 1.391 . S
C1059 C1058 1.392 . S
N1060 Co1004 2.257 . S
N1060 C1057 1.391 . S
N1060 C1061 1.388 . S
C1061 H1032 0.930 . S
C1061 C1056 1.391 . S
C1061 N1060 1.388 . S
Co1062 O1064 2.143 . S
Co1062 O1070 2.074 . S
Co1062 O1073 2.093 . S
Co1062 O1086 2.097 . S
Co1062 N1103 2.151 . S
Co1062 N1111 2.214 1_554 S
Co1063 O1064 2.160 . S
Co1063 O1069 2.058 . S
Co1063 O1079 2.057 . S
Co1063 O1094 2.037 . S
Co1063 N1098 2.145 . S
Co1063 N1119 2.257 . S
O1064 Co1062 2.143 . S
O1064 Co1063 2.160 . S
C1065 O1066 1.278 . S
C1065 O1073 1.224 . S
O1066 C1065 1.278 . S
C1067 O1068 1.245 . S
C1067 O1079 1.232 . S
O1068 C1067 1.245 . S
O1069 Co1063 2.058 . S
O1069 C1095 1.269 . S
O1070 Co1062 2.074 . S
O1070 C1095 1.257 . S
H1071 C1096 0.930 . S
H1072 C1102 0.930 . S
O1073 Co1062 2.093 . S
O1073 C1065 1.224 . S
H1074 C1106 0.929 . S
H1075 C1108 0.930 . S
H1076 C1109 0.930 . S
H1077 C1107 0.929 . S
H1078 C1110 0.928 . S
O1079 Co1063 2.057 . S
O1079 C1067 1.232 . S
H1080 C1099 0.929 . S
H1081 C1100 0.929 . S
H1082 C1112 0.931 . S
H1083 C1104 0.929 . S
H1084 C1113 0.930 . S
H1085 C1105 0.931 . S
O1086 Co1062 2.097 . S
O1086 C1114 1.214 . S
H1087 C1115 0.929 . S
H1088 C1116 0.929 . S
H1089 C1117 0.930 . S
H1090 C1118 0.929 . S
H1091 C1120 0.930 . S
H1092 C1097 0.930 . S
H1093 C1101 0.930 . S
O1094 Co1063 2.037 . S
O1094 C1114 1.234 . S
C1095 O1069 1.269 . S
C1095 O1070 1.257 . S
C1096 H1071 0.930 . S
C1096 C1099 1.388 . S
C1096 C1101 1.418 . S
C1097 H1092 0.930 . S
C1097 C1100 1.404 . S
C1097 C1101 1.353 . S
N1098 Co1063 2.145 . S
N1098 C1099 1.397 . S
N1098 C1100 1.334 . S
C1099 H1080 0.929 . S
C1099 C1096 1.388 . S
C1099 N1098 1.397 . S
C1100 H1081 0.929 . S
C1100 C1097 1.404 . S
C1100 N1098 1.334 . S
C1101 H1093 0.930 . S
C1101 C1096 1.418 . S
C1101 C1097 1.353 . S
C1102 H1072 0.930 . S
C1102 N1103 1.330 . S
C1102 C1104 1.446 . S
N1103 Co1062 2.151 . S
N1103 C1102 1.330 . S
N1103 C1107 1.418 1_554 S
C1104 H1083 0.929 . S
C1104 C1102 1.446 . S
C1104 C1105 1.332 1_554 S
C1105 H1085 0.931 . S
C1105 C1104 1.332 1_556 S
C1105 C1106 1.267 . S
C1106 H1074 0.929 . S
C1106 C1105 1.267 . S
C1106 C1107 1.251 . S
C1107 H1077 0.929 . S
C1107 N1103 1.418 1_556 S
C1107 C1106 1.251 . S
C1108 H1075 0.930 . S
C1108 C1110 1.406 . S
C1108 C1113 1.261 . S
C1109 H1076 0.930 . S
C1109 N1111 1.325 . S
C1109 C1112 1.357 . S
C1110 H1078 0.928 . S
C1110 C1108 1.406 . S
C1110 N1111 1.261 . S
N1111 Co1062 2.214 1_556 S
N1111 C1109 1.325 . S
N1111 C1110 1.261 . S
C1112 H1082 0.931 . S
C1112 C1109 1.357 . S
C1112 C1113 1.312 . S
C1113 H1084 0.930 . S
C1113 C1108 1.261 . S
C1113 C1112 1.312 . S
C1114 O1086 1.214 . S
C1114 O1094 1.234 . S
C1115 H1087 0.929 . S
C1115 C1118 1.391 . S
C1115 C1120 1.391 . S
C1116 H1088 0.929 . S
C1116 C1117 1.390 . S
C1116 N1119 1.391 . S
C1117 H1089 0.930 . S
C1117 C1116 1.390 . S
C1117 C1118 1.392 . S
C1118 H1090 0.929 . S
C1118 C1115 1.391 . S
C1118 C1117 1.392 . S
N1119 Co1063 2.257 . S
N1119 C1116 1.391 . S
N1119 C1120 1.388 . S
C1120 H1091 0.930 . S
C1120 C1115 1.391 . S
C1120 N1119 1.388 . S
Co1121 O1123 2.143 . S
Co1121 O1129 2.074 . S
Co1121 O1132 2.093 . S
Co1121 O1145 2.097 . S
Co1121 N1162 2.151 . S
Co1121 N1170 2.214 . S
Co1122 O1123 2.160 . S
Co1122 O1128 2.058 . S
Co1122 O1138 2.057 . S
Co1122 O1153 2.037 . S
Co1122 N1157 2.145 . S
Co1122 N1178 2.257 . S
O1123 Co1121 2.143 . S
O1123 Co1122 2.160 . S
C1124 O1125 1.278 . S
C1124 O1132 1.224 . S
O1125 C1124 1.278 . S
C1126 O1127 1.245 . S
C1126 O1138 1.232 . S
O1127 C1126 1.245 . S
O1128 Co1122 2.058 . S
O1128 C1154 1.269 . S
O1129 Co1121 2.074 . S
O1129 C1154 1.257 . S
H1130 C1155 0.930 . S
H1131 C1161 0.930 . S
O1132 Co1121 2.093 . S
O1132 C1124 1.224 . S
H1133 C1165 0.929 . S
H1134 C1167 0.930 . S
H1135 C1168 0.930 . S
H1136 C1166 0.929 . S
H1137 C1169 0.928 . S
O1138 Co1122 2.057 . S
O1138 C1126 1.232 . S
H1139 C1158 0.929 . S
H1140 C1159 0.929 . S
H1141 C1171 0.931 . S
H1142 C1163 0.929 . S
H1143 C1172 0.930 . S
H1144 C1164 0.931 . S
O1145 Co1121 2.097 . S
O1145 C1173 1.214 . S
H1146 C1174 0.929 . S
H1147 C1175 0.929 . S
H1148 C1176 0.930 . S
H1149 C1177 0.929 . S
H1150 C1179 0.930 . S
H1151 C1156 0.930 . S
H1152 C1160 0.930 . S
O1153 Co1122 2.037 . S
O1153 C1173 1.234 . S
C1154 O1128 1.269 . S
C1154 O1129 1.257 . S
C1155 H1130 0.930 . S
C1155 C1158 1.388 . S
C1155 C1160 1.418 . S
C1156 H1151 0.930 . S
C1156 C1159 1.404 . S
C1156 C1160 1.353 . S
N1157 Co1122 2.145 . S
N1157 C1158 1.397 . S
N1157 C1159 1.334 . S
C1158 H1139 0.929 . S
C1158 C1155 1.388 . S
C1158 N1157 1.397 . S
C1159 H1140 0.929 . S
C1159 C1156 1.404 . S
C1159 N1157 1.334 . S
C1160 H1152 0.930 . S
C1160 C1155 1.418 . S
C1160 C1156 1.353 . S
C1161 H1131 0.930 . S
C1161 N1162 1.330 . S
C1161 C1163 1.446 . S
N1162 Co1121 2.151 . S
N1162 C1161 1.330 . S
N1162 C1166 1.418 . S
C1163 H1142 0.929 . S
C1163 C1161 1.446 . S
C1163 C1164 1.332 . S
C1164 H1144 0.931 . S
C1164 C1163 1.332 . S
C1164 C1165 1.267 . S
C1165 H1133 0.929 . S
C1165 C1164 1.267 . S
C1165 C1166 1.251 . S
C1166 H1136 0.929 . S
C1166 N1162 1.418 . S
C1166 C1165 1.251 . S
C1167 H1134 0.930 . S
C1167 C1169 1.406 . S
C1167 C1172 1.261 . S
C1168 H1135 0.930 . S
C1168 N1170 1.325 . S
C1168 C1171 1.357 . S
C1169 H1137 0.928 . S
C1169 C1167 1.406 . S
C1169 N1170 1.261 . S
N1170 Co1121 2.214 . S
N1170 C1168 1.325 . S
N1170 C1169 1.261 . S
C1171 H1141 0.931 . S
C1171 C1168 1.357 . S
C1171 C1172 1.312 . S
C1172 H1143 0.930 . S
C1172 C1167 1.261 . S
C1172 C1171 1.312 . S
C1173 O1145 1.214 . S
C1173 O1153 1.234 . S
C1174 H1146 0.929 . S
C1174 C1177 1.391 . S
C1174 C1179 1.391 . S
C1175 H1147 0.929 . S
C1175 C1176 1.390 . S
C1175 N1178 1.391 . S
C1176 H1148 0.930 . S
C1176 C1175 1.390 . S
C1176 C1177 1.392 . S
C1177 H1149 0.929 . S
C1177 C1174 1.391 . S
C1177 C1176 1.392 . S
N1178 Co1122 2.257 . S
N1178 C1175 1.391 . S
N1178 C1179 1.388 . S
C1179 H1150 0.930 . S
C1179 C1174 1.391 . S
C1179 N1178 1.388 . S
Co1180 O1182 2.143 . S
Co1180 O1188 2.074 . S
Co1180 O1191 2.093 . S
Co1180 O1204 2.097 . S
Co1180 N1221 2.151 . S
Co1180 N1229 2.214 . S
Co1181 O1182 2.160 . S
Co1181 O1187 2.058 . S
Co1181 O1197 2.057 . S
Co1181 O1212 2.037 . S
Co1181 N1216 2.145 . S
Co1181 N1237 2.257 . S
O1182 Co1180 2.143 . S
O1182 Co1181 2.160 . S
C1183 O1184 1.278 . S
C1183 O1191 1.224 . S
O1184 C1183 1.278 . S
C1185 O1186 1.245 . S
C1185 O1197 1.232 . S
O1186 C1185 1.245 . S
O1187 Co1181 2.058 . S
O1187 C1213 1.269 . S
O1188 Co1180 2.074 . S
O1188 C1213 1.257 . S
H1189 C1214 0.930 . S
H1190 C1220 0.930 . S
O1191 Co1180 2.093 . S
O1191 C1183 1.224 . S
H1192 C1224 0.929 . S
H1193 C1226 0.930 . S
H1194 C1227 0.930 . S
H1195 C1225 0.929 . S
H1196 C1228 0.928 . S
O1197 Co1181 2.057 . S
O1197 C1185 1.232 . S
H1198 C1217 0.929 . S
H1199 C1218 0.929 . S
H1200 C1230 0.931 . S
H1201 C1222 0.929 . S
H1202 C1231 0.930 . S
H1203 C1223 0.931 . S
O1204 Co1180 2.097 . S
O1204 C1232 1.214 . S
H1205 C1233 0.929 . S
H1206 C1234 0.929 . S
H1207 C1235 0.930 . S
H1208 C1236 0.929 . S
H1209 C1238 0.930 . S
H1210 C1215 0.930 . S
H1211 C1219 0.930 . S
O1212 Co1181 2.037 . S
O1212 C1232 1.234 . S
C1213 O1187 1.269 . S
C1213 O1188 1.257 . S
C1214 H1189 0.930 . S
C1214 C1217 1.388 . S
C1214 C1219 1.418 . S
C1215 H1210 0.930 . S
C1215 C1218 1.404 . S
C1215 C1219 1.353 . S
N1216 Co1181 2.145 . S
N1216 C1217 1.397 . S
N1216 C1218 1.334 . S
C1217 H1198 0.929 . S
C1217 C1214 1.388 . S
C1217 N1216 1.397 . S
C1218 H1199 0.929 . S
C1218 C1215 1.404 . S
C1218 N1216 1.334 . S
C1219 H1211 0.930 . S
C1219 C1214 1.418 . S
C1219 C1215 1.353 . S
C1220 H1190 0.930 . S
C1220 N1221 1.330 . S
C1220 C1222 1.446 . S
N1221 Co1180 2.151 . S
N1221 C1220 1.330 . S
N1221 C1225 1.418 . S
C1222 H1201 0.929 . S
C1222 C1220 1.446 . S
C1222 C1223 1.332 . S
C1223 H1203 0.931 . S
C1223 C1222 1.332 . S
C1223 C1224 1.267 . S
C1224 H1192 0.929 . S
C1224 C1223 1.267 . S
C1224 C1225 1.251 . S
C1225 H1195 0.929 . S
C1225 N1221 1.418 . S
C1225 C1224 1.251 . S
C1226 H1193 0.930 . S
C1226 C1228 1.406 . S
C1226 C1231 1.261 . S
C1227 H1194 0.930 . S
C1227 N1229 1.325 . S
C1227 C1230 1.357 . S
C1228 H1196 0.928 . S
C1228 C1226 1.406 . S
C1228 N1229 1.261 . S
N1229 Co1180 2.214 . S
N1229 C1227 1.325 . S
N1229 C1228 1.261 . S
C1230 H1200 0.931 . S
C1230 C1227 1.357 . S
C1230 C1231 1.312 . S
C1231 H1202 0.930 . S
C1231 C1226 1.261 . S
C1231 C1230 1.312 . S
C1232 O1204 1.214 . S
C1232 O1212 1.234 . S
C1233 H1205 0.929 . S
C1233 C1236 1.391 . S
C1233 C1238 1.391 . S
C1234 H1206 0.929 . S
C1234 C1235 1.390 . S
C1234 N1237 1.391 . S
C1235 H1207 0.930 . S
C1235 C1234 1.390 . S
C1235 C1236 1.392 . S
C1236 H1208 0.929 . S
C1236 C1233 1.391 . S
C1236 C1235 1.392 . S
N1237 Co1181 2.257 . S
N1237 C1234 1.391 . S
N1237 C1238 1.388 . S
C1238 H1209 0.930 . S
C1238 C1233 1.391 . S
C1238 N1237 1.388 . S
Co1239 O1241 2.143 . S
Co1239 O1247 2.074 . S
Co1239 O1250 2.093 . S
Co1239 O1263 2.097 . S
Co1239 N1280 2.151 . S
Co1239 N1288 2.214 . S
Co1240 O1241 2.160 . S
Co1240 O1246 2.058 . S
Co1240 O1256 2.057 . S
Co1240 O1271 2.037 . S
Co1240 N1275 2.145 . S
Co1240 N1296 2.257 . S
O1241 Co1239 2.143 . S
O1241 Co1240 2.160 . S
C1242 O1243 1.278 . S
C1242 O1250 1.224 . S
O1243 C1242 1.278 . S
C1244 O1245 1.245 . S
C1244 O1256 1.232 . S
O1245 C1244 1.245 . S
O1246 Co1240 2.058 . S
O1246 C1272 1.269 . S
O1247 Co1239 2.074 . S
O1247 C1272 1.257 . S
H1248 C1273 0.930 . S
H1249 C1279 0.930 . S
O1250 Co1239 2.093 . S
O1250 C1242 1.224 . S
H1251 C1283 0.929 . S
H1252 C1285 0.930 . S
H1253 C1286 0.930 . S
H1254 C1284 0.929 . S
H1255 C1287 0.928 . S
O1256 Co1240 2.057 . S
O1256 C1244 1.232 . S
H1257 C1276 0.929 . S
H1258 C1277 0.929 . S
H1259 C1289 0.931 . S
H1260 C1281 0.929 . S
H1261 C1290 0.930 . S
H1262 C1282 0.931 . S
O1263 Co1239 2.097 . S
O1263 C1291 1.214 . S
H1264 C1292 0.929 . S
H1265 C1293 0.929 . S
H1266 C1294 0.930 . S
H1267 C1295 0.929 . S
H1268 C1297 0.930 . S
H1269 C1274 0.930 . S
H1270 C1278 0.930 . S
O1271 Co1240 2.037 . S
O1271 C1291 1.234 . S
C1272 O1246 1.269 . S
C1272 O1247 1.257 . S
C1273 H1248 0.930 . S
C1273 C1276 1.388 . S
C1273 C1278 1.418 . S
C1274 H1269 0.930 . S
C1274 C1277 1.404 . S
C1274 C1278 1.353 . S
N1275 Co1240 2.145 . S
N1275 C1276 1.397 . S
N1275 C1277 1.334 . S
C1276 H1257 0.929 . S
C1276 C1273 1.388 . S
C1276 N1275 1.397 . S
C1277 H1258 0.929 . S
C1277 C1274 1.404 . S
C1277 N1275 1.334 . S
C1278 H1270 0.930 . S
C1278 C1273 1.418 . S
C1278 C1274 1.353 . S
C1279 H1249 0.930 . S
C1279 N1280 1.330 . S
C1279 C1281 1.446 . S
N1280 Co1239 2.151 . S
N1280 C1279 1.330 . S
N1280 C1284 1.418 . S
C1281 H1260 0.929 . S
C1281 C1279 1.446 . S
C1281 C1282 1.332 . S
C1282 H1262 0.931 . S
C1282 C1281 1.332 . S
C1282 C1283 1.267 . S
C1283 H1251 0.929 . S
C1283 C1282 1.267 . S
C1283 C1284 1.251 . S
C1284 H1254 0.929 . S
C1284 N1280 1.418 . S
C1284 C1283 1.251 . S
C1285 H1252 0.930 . S
C1285 C1287 1.406 . S
C1285 C1290 1.261 . S
C1286 H1253 0.930 . S
C1286 N1288 1.325 . S
C1286 C1289 1.357 . S
C1287 H1255 0.928 . S
C1287 C1285 1.406 . S
C1287 N1288 1.261 . S
N1288 Co1239 2.214 . S
N1288 C1286 1.325 . S
N1288 C1287 1.261 . S
C1289 H1259 0.931 . S
C1289 C1286 1.357 . S
C1289 C1290 1.312 . S
C1290 H1261 0.930 . S
C1290 C1285 1.261 . S
C1290 C1289 1.312 . S
C1291 O1263 1.214 . S
C1291 O1271 1.234 . S
C1292 H1264 0.929 . S
C1292 C1295 1.391 . S
C1292 C1297 1.391 . S
C1293 H1265 0.929 . S
C1293 C1294 1.390 . S
C1293 N1296 1.391 . S
C1294 H1266 0.930 . S
C1294 C1293 1.390 . S
C1294 C1295 1.392 . S
C1295 H1267 0.929 . S
C1295 C1292 1.391 . S
C1295 C1294 1.392 . S
N1296 Co1240 2.257 . S
N1296 C1293 1.391 . S
N1296 C1297 1.388 . S
C1297 H1268 0.930 . S
C1297 C1292 1.391 . S
C1297 N1296 1.388 . S
Co1298 O1300 2.143 . S
Co1298 O1306 2.074 . S
Co1298 O1309 2.093 . S
Co1298 O1322 2.097 . S
Co1298 N1339 2.151 . S
Co1298 N1347 2.214 1_556 S
Co1299 O1300 2.160 . S
Co1299 O1305 2.058 . S
Co1299 O1315 2.057 . S
Co1299 O1330 2.037 . S
Co1299 N1334 2.145 . S
Co1299 N1355 2.257 . S
O1300 Co1298 2.143 . S
O1300 Co1299 2.160 . S
C1301 O1302 1.278 . S
C1301 O1309 1.224 . S
O1302 C1301 1.278 . S
C1303 O1304 1.245 . S
C1303 O1315 1.232 . S
O1304 C1303 1.245 . S
O1305 Co1299 2.058 . S
O1305 C1331 1.269 . S
O1306 Co1298 2.074 . S
O1306 C1331 1.257 . S
H1307 C1332 0.930 . S
H1308 C1338 0.930 . S
O1309 Co1298 2.093 . S
O1309 C1301 1.224 . S
H1310 C1342 0.929 . S
H1311 C1344 0.930 . S
H1312 C1345 0.930 . S
H1313 C1343 0.929 . S
H1314 C1346 0.928 . S
O1315 Co1299 2.057 . S
O1315 C1303 1.232 . S
H1316 C1335 0.929 . S
H1317 C1336 0.929 . S
H1318 C1348 0.931 . S
H1319 C1340 0.929 . S
H1320 C1349 0.930 . S
H1321 C1341 0.931 . S
O1322 Co1298 2.097 . S
O1322 C1350 1.214 . S
H1323 C1351 0.929 . S
H1324 C1352 0.929 . S
H1325 C1353 0.930 . S
H1326 C1354 0.929 . S
H1327 C1356 0.930 . S
H1328 C1333 0.930 1_545 S
H1329 C1337 0.930 . S
O1330 Co1299 2.037 . S
O1330 C1350 1.234 . S
C1331 O1305 1.269 . S
C1331 O1306 1.257 . S
C1332 H1307 0.930 . S
C1332 C1335 1.388 . S
C1332 C1337 1.418 . S
C1333 H1328 0.930 1_565 S
C1333 C1336 1.404 . S
C1333 C1337 1.353 . S
N1334 Co1299 2.145 . S
N1334 C1335 1.397 . S
N1334 C1336 1.334 . S
C1335 H1316 0.929 . S
C1335 C1332 1.388 . S
C1335 N1334 1.397 . S
C1336 H1317 0.929 . S
C1336 C1333 1.404 . S
C1336 N1334 1.334 . S
C1337 H1329 0.930 . S
C1337 C1332 1.418 . S
C1337 C1333 1.353 . S
C1338 H1308 0.930 . S
C1338 N1339 1.330 . S
C1338 C1340 1.446 . S
N1339 Co1298 2.151 . S
N1339 C1338 1.330 . S
N1339 C1343 1.418 1_556 S
C1340 H1319 0.929 . S
C1340 C1338 1.446 . S
C1340 C1341 1.332 1_556 S
C1341 H1321 0.931 . S
C1341 C1340 1.332 1_554 S
C1341 C1342 1.267 . S
C1342 H1310 0.929 . S
C1342 C1341 1.267 . S
C1342 C1343 1.251 . S
C1343 H1313 0.929 . S
C1343 N1339 1.418 1_554 S
C1343 C1342 1.251 . S
C1344 H1311 0.930 . S
C1344 C1346 1.406 . S
C1344 C1349 1.261 . S
C1345 H1312 0.930 . S
C1345 N1347 1.325 . S
C1345 C1348 1.357 . S
C1346 H1314 0.928 . S
C1346 C1344 1.406 . S
C1346 N1347 1.261 . S
N1347 Co1298 2.214 1_554 S
N1347 C1345 1.325 . S
N1347 C1346 1.261 . S
C1348 H1318 0.931 . S
C1348 C1345 1.357 . S
C1348 C1349 1.312 . S
C1349 H1320 0.930 . S
C1349 C1344 1.261 . S
C1349 C1348 1.312 . S
C1350 O1322 1.214 . S
C1350 O1330 1.234 . S
C1351 H1323 0.929 . S
C1351 C1354 1.391 . S
C1351 C1356 1.391 . S
C1352 H1324 0.929 . S
C1352 C1353 1.390 . S
C1352 N1355 1.391 . S
C1353 H1325 0.930 . S
C1353 C1352 1.390 . S
C1353 C1354 1.392 . S
C1354 H1326 0.929 . S
C1354 C1351 1.391 . S
C1354 C1353 1.392 . S
N1355 Co1299 2.257 . S
N1355 C1352 1.391 . S
N1355 C1356 1.388 . S
C1356 H1327 0.930 . S
C1356 C1351 1.391 . S
C1356 N1355 1.388 . S
Co1357 O1359 2.143 . S
Co1357 O1365 2.074 . S
Co1357 O1368 2.093 . S
Co1357 O1381 2.097 . S
Co1357 N1398 2.151 . S
Co1357 N1406 2.214 . S
Co1358 O1359 2.160 . S
Co1358 O1364 2.058 . S
Co1358 O1374 2.057 . S
Co1358 O1389 2.037 . S
Co1358 N1393 2.145 . S
Co1358 N1414 2.257 . S
O1359 Co1357 2.143 . S
O1359 Co1358 2.160 . S
C1360 O1361 1.278 . S
C1360 O1368 1.224 . S
O1361 C1360 1.278 . S
C1362 O1363 1.245 . S
C1362 O1374 1.232 . S
O1363 C1362 1.245 . S
O1364 Co1358 2.058 . S
O1364 C1390 1.269 . S
O1365 Co1357 2.074 . S
O1365 C1390 1.257 . S
H1366 C1391 0.930 . S
H1367 C1397 0.930 . S
O1368 Co1357 2.093 . S
O1368 C1360 1.224 . S
H1369 C1401 0.929 . S
H1370 C1403 0.930 . S
H1371 C1404 0.930 . S
H1372 C1402 0.929 . S
H1373 C1405 0.928 . S
O1374 Co1358 2.057 . S
O1374 C1362 1.232 . S
H1375 C1394 0.929 . S
H1376 C1395 0.929 . S
H1377 C1407 0.931 . S
H1378 C1399 0.929 . S
H1379 C1408 0.930 . S
H1380 C1400 0.931 . S
O1381 Co1357 2.097 . S
O1381 C1409 1.214 . S
H1382 C1410 0.929 . S
H1383 C1411 0.929 . S
H1384 C1412 0.930 . S
H1385 C1413 0.929 . S
H1386 C1415 0.930 . S
H1387 C1392 0.930 1_565 S
H1388 C1396 0.930 . S
O1389 Co1358 2.037 . S
O1389 C1409 1.234 . S
C1390 O1364 1.269 . S
C1390 O1365 1.257 . S
C1391 H1366 0.930 . S
C1391 C1394 1.388 . S
C1391 C1396 1.418 . S
C1392 H1387 0.930 1_545 S
C1392 C1395 1.404 . S
C1392 C1396 1.353 . S
N1393 Co1358 2.145 . S
N1393 C1394 1.397 . S
N1393 C1395 1.334 . S
C1394 H1375 0.929 . S
C1394 C1391 1.388 . S
C1394 N1393 1.397 . S
C1395 H1376 0.929 . S
C1395 C1392 1.404 . S
C1395 N1393 1.334 . S
C1396 H1388 0.930 . S
C1396 C1391 1.418 . S
C1396 C1392 1.353 . S
C1397 H1367 0.930 . S
C1397 N1398 1.330 . S
C1397 C1399 1.446 . S
N1398 Co1357 2.151 . S
N1398 C1397 1.330 . S
N1398 C1402 1.418 . S
C1399 H1378 0.929 . S
C1399 C1397 1.446 . S
C1399 C1400 1.332 . S
C1400 H1380 0.931 . S
C1400 C1399 1.332 . S
C1400 C1401 1.267 . S
C1401 H1369 0.929 . S
C1401 C1400 1.267 . S
C1401 C1402 1.251 . S
C1402 H1372 0.929 . S
C1402 N1398 1.418 . S
C1402 C1401 1.251 . S
C1403 H1370 0.930 . S
C1403 C1405 1.406 . S
C1403 C1408 1.261 . S
C1404 H1371 0.930 . S
C1404 N1406 1.325 . S
C1404 C1407 1.357 . S
C1405 H1373 0.928 . S
C1405 C1403 1.406 . S
C1405 N1406 1.261 . S
N1406 Co1357 2.214 . S
N1406 C1404 1.325 . S
N1406 C1405 1.261 . S
C1407 H1377 0.931 . S
C1407 C1404 1.357 . S
C1407 C1408 1.312 . S
C1408 H1379 0.930 . S
C1408 C1403 1.261 . S
C1408 C1407 1.312 . S
C1409 O1381 1.214 . S
C1409 O1389 1.234 . S
C1410 H1382 0.929 . S
C1410 C1413 1.391 . S
C1410 C1415 1.391 . S
C1411 H1383 0.929 . S
C1411 C1412 1.390 . S
C1411 N1414 1.391 . S
C1412 H1384 0.930 . S
C1412 C1411 1.390 . S
C1412 C1413 1.392 . S
C1413 H1385 0.929 . S
C1413 C1410 1.391 . S
C1413 C1412 1.392 . S
N1414 Co1358 2.257 . S
N1414 C1411 1.391 . S
N1414 C1415 1.388 . S
C1415 H1386 0.930 . S
C1415 C1410 1.391 . S
C1415 N1414 1.388 . S
H1416 C1422 0.930 . S
H1417 C1426 0.930 . S
H1418 C1431 0.929 . S
H1419 C1429 0.929 . S
H1420 C1424 0.929 . S
H1421 C1430 0.929 . S
C1422 H1416 0.930 . S
C1422 C1423 1.367 . S
C1422 C1430 1.378 . S
C1423 C1422 1.367 . S
C1423 C1431 1.433 . S
C1424 H1420 0.929 . S
C1424 C1426 1.378 . S
C1424 C1428 1.350 . S
C1425 C1428 1.463 . S
C1425 C1430 1.350 . S
C1425 N1433 1.427 . S
C1426 H1417 0.930 . S
C1426 C1424 1.378 . S
C1426 C1427 1.367 . S
C1427 C1426 1.367 . S
C1427 C1429 1.433 . S
C1428 C1424 1.350 . S
C1428 C1425 1.463 . S
C1428 N1432 1.427 . S
C1429 H1419 0.929 . S
C1429 C1427 1.433 . S
C1429 N1432 1.384 . S
C1430 H1421 0.929 . S
C1430 C1422 1.378 . S
C1430 C1425 1.350 . S
C1431 H1418 0.929 . S
C1431 C1423 1.433 . S
C1431 N1433 1.384 . S
N1432 C1428 1.427 . S
N1432 C1429 1.384 . S
N1433 C1425 1.427 . S
N1433 C1431 1.384 . S
H1434 C1440 0.930 . S
H1435 C1444 0.930 . S
H1436 C1449 0.929 . S
H1437 C1447 0.929 . S
H1438 C1442 0.929 . S
H1439 C1448 0.929 . S
C1440 H1434 0.930 . S
C1440 C1441 1.367 1_455 S
C1440 C1448 1.378 . S
C1441 C1440 1.367 1_655 S
C1441 C1449 1.433 . S
C1442 H1438 0.929 . S
C1442 C1444 1.378 . S
C1442 C1446 1.350 . S
C1443 C1446 1.463 . S
C1443 C1448 1.350 . S
C1443 N1451 1.427 . S
C1444 H1435 0.930 . S
C1444 C1442 1.378 . S
C1444 C1445 1.367 . S
C1445 C1444 1.367 . S
C1445 C1447 1.433 . S
C1446 C1442 1.350 . S
C1446 C1443 1.463 . S
C1446 N1450 1.427 . S
C1447 H1437 0.929 . S
C1447 C1445 1.433 . S
C1447 N1450 1.384 . S
C1448 H1439 0.929 . S
C1448 C1440 1.378 . S
C1448 C1443 1.350 . S
C1449 H1436 0.929 . S
C1449 C1441 1.433 . S
C1449 N1451 1.384 1_655 S
N1450 C1446 1.427 . S
N1450 C1447 1.384 . S
N1451 C1443 1.427 . S
N1451 C1449 1.384 1_455 S
H1452 C1458 0.930 . S
H1453 C1462 0.930 . S
H1454 C1467 0.929 . S
H1455 C1465 0.929 . S
H1456 C1460 0.929 . S
H1457 C1466 0.929 . S
C1458 H1452 0.930 . S
C1458 C1459 1.367 . S
C1458 C1466 1.378 . S
C1459 C1458 1.367 . S
C1459 C1467 1.433 . S
C1460 H1456 0.929 . S
C1460 C1462 1.378 . S
C1460 C1464 1.350 . S
C1461 C1464 1.463 . S
C1461 C1466 1.350 . S
C1461 N1469 1.427 . S
C1462 H1453 0.930 . S
C1462 C1460 1.378 . S
C1462 C1463 1.367 1_556 S
C1463 C1462 1.367 1_554 S
C1463 C1465 1.433 . S
C1464 C1460 1.350 . S
C1464 C1461 1.463 . S
C1464 N1468 1.427 . S
C1465 H1455 0.929 . S
C1465 C1463 1.433 . S
C1465 N1468 1.384 1_554 S
C1466 H1457 0.929 . S
C1466 C1458 1.378 . S
C1466 C1461 1.350 . S
C1467 H1454 0.929 . S
C1467 C1459 1.433 . S
C1467 N1469 1.384 . S
N1468 C1464 1.427 . S
N1468 C1465 1.384 1_556 S
N1469 C1461 1.427 . S
N1469 C1467 1.384 . S
H1470 C1476 0.930 . S
H1471 C1480 0.930 . S
H1472 C1485 0.929 . S
H1473 C1483 0.929 . S
H1474 C1478 0.929 . S
H1475 C1484 0.929 . S
C1476 H1470 0.930 . S
C1476 C1477 1.367 . S
C1476 C1484 1.378 . S
C1477 C1476 1.367 . S
C1477 C1485 1.433 . S
C1478 H1474 0.929 . S
C1478 C1480 1.378 . S
C1478 C1482 1.350 . S
C1479 C1482 1.463 . S
C1479 C1484 1.350 . S
C1479 N1487 1.427 . S
C1480 H1471 0.930 . S
C1480 C1478 1.378 . S
C1480 C1481 1.367 . S
C1481 C1480 1.367 . S
C1481 C1483 1.433 . S
C1482 C1478 1.350 . S
C1482 C1479 1.463 . S
C1482 N1486 1.427 . S
C1483 H1473 0.929 . S
C1483 C1481 1.433 . S
C1483 N1486 1.384 . S
C1484 H1475 0.929 . S
C1484 C1476 1.378 . S
C1484 C1479 1.350 . S
C1485 H1472 0.929 . S
C1485 C1477 1.433 . S
C1485 N1487 1.384 . S
N1486 C1482 1.427 . S
N1486 C1483 1.384 . S
N1487 C1479 1.427 . S
N1487 C1485 1.384 . S
H1488 C1494 0.930 . S
H1489 C1498 0.930 . S
H1490 C1503 0.929 . S
H1491 C1501 0.929 . S
H1492 C1496 0.929 . S
H1493 C1502 0.929 . S
C1494 H1488 0.930 . S
C1494 C1495 1.367 . S
C1494 C1502 1.378 . S
C1495 C1494 1.367 . S
C1495 C1503 1.433 . S
C1496 H1492 0.929 . S
C1496 C1498 1.378 . S
C1496 C1500 1.350 . S
C1497 C1500 1.463 . S
C1497 C1502 1.350 . S
C1497 N1505 1.427 . S
C1498 H1489 0.930 . S
C1498 C1496 1.378 . S
C1498 C1499 1.367 . S
C1499 C1498 1.367 . S
C1499 C1501 1.433 . S
C1500 C1496 1.350 . S
C1500 C1497 1.463 . S
C1500 N1504 1.427 . S
C1501 H1491 0.929 . S
C1501 C1499 1.433 . S
C1501 N1504 1.384 . S
C1502 H1493 0.929 . S
C1502 C1494 1.378 . S
C1502 C1497 1.350 . S
C1503 H1490 0.929 . S
C1503 C1495 1.433 . S
C1503 N1505 1.384 . S
N1504 C1500 1.427 . S
N1504 C1501 1.384 . S
N1505 C1497 1.427 . S
N1505 C1503 1.384 . S
H1506 C1512 0.930 . S
H1507 C1516 0.924 1_455 S
H1508 C1521 0.929 . S
H1509 C1519 0.929 . S
H1510 C1514 0.929 . S
H1511 C1520 0.929 . S
C1512 H1506 0.930 . S
C1512 C1513 1.367 . S
C1512 C1520 1.378 . S
C1513 C1512 1.367 . S
C1513 C1521 1.433 . S
C1514 H1510 0.929 . S
C1514 C1516 1.387 . S
C1514 C1518 1.350 . S
C1515 C1518 1.463 . S
C1515 C1520 1.350 . S
C1515 N1523 1.427 . S
C1516 H1507 0.924 1_655 S
C1516 C1514 1.387 . S
C1516 C1517 1.365 1_655 S
C1517 C1516 1.365 1_455 S
C1517 C1519 1.433 1_455 S
C1518 C1514 1.350 . S
C1518 C1515 1.463 . S
C1518 N1522 1.427 . S
C1519 H1509 0.929 . S
C1519 C1517 1.433 1_655 S
C1519 N1522 1.384 . S
C1520 H1511 0.929 . S
C1520 C1512 1.378 . S
C1520 C1515 1.350 . S
C1521 H1508 0.929 . S
C1521 C1513 1.433 . S
C1521 N1523 1.384 . S
N1522 C1518 1.427 . S
N1522 C1519 1.384 . S
N1523 C1515 1.427 . S
N1523 C1521 1.384 . S
H1524 C1530 0.930 . S
H1525 C1534 0.930 . S
H1526 C1539 0.929 . S
H1527 C1537 0.929 . S
H1528 C1532 0.929 . S
H1529 C1538 0.929 . S
C1530 H1524 0.930 . S
C1530 C1531 1.367 . S
C1530 C1538 1.378 . S
C1531 C1530 1.367 . S
C1531 C1539 1.433 . S
C1532 H1528 0.929 . S
C1532 C1534 1.378 1_554 S
C1532 C1536 1.350 . S
C1533 C1536 1.463 . S
C1533 C1538 1.350 . S
C1533 N1541 1.427 . S
C1534 H1525 0.930 . S
C1534 C1532 1.378 1_556 S
C1534 C1535 1.367 . S
C1535 C1534 1.367 . S
C1535 C1537 1.433 1_556 S
C1536 C1532 1.350 . S
C1536 C1533 1.463 . S
C1536 N1540 1.427 . S
C1537 H1527 0.929 . S
C1537 C1535 1.433 1_554 S
C1537 N1540 1.384 . S
C1538 H1529 0.929 . S
C1538 C1530 1.378 . S
C1538 C1533 1.350 . S
C1539 H1526 0.929 . S
C1539 C1531 1.433 . S
C1539 N1541 1.384 . S
N1540 C1536 1.427 . S
N1540 C1537 1.384 . S
N1541 C1533 1.427 . S
N1541 C1539 1.384 . S
H1542 C1548 0.930 . S
H1543 C1552 0.930 . S
H1544 C1557 0.929 . S
H1545 C1555 0.929 . S
H1546 C1550 0.929 . S
H1547 C1556 0.929 . S
C1548 H1542 0.930 . S
C1548 C1549 1.367 . S
C1548 C1556 1.378 . S
C1549 C1548 1.367 . S
C1549 C1557 1.433 . S
C1550 H1546 0.929 . S
C1550 C1552 1.378 . S
C1550 C1554 1.350 . S
C1551 C1554 1.463 . S
C1551 C1556 1.350 . S
C1551 N1559 1.427 . S
C1552 H1543 0.930 . S
C1552 C1550 1.378 . S
C1552 C1553 1.367 . S
C1553 C1552 1.367 . S
C1553 C1555 1.433 . S
C1554 C1550 1.350 . S
C1554 C1551 1.463 . S
C1554 N1558 1.427 . S
C1555 H1545 0.929 . S
C1555 C1553 1.433 . S
C1555 N1558 1.384 . S
C1556 H1547 0.929 . S
C1556 C1548 1.378 . S
C1556 C1551 1.350 . S
C1557 H1544 0.929 . S
C1557 C1549 1.433 . S
C1557 N1559 1.384 . S
N1558 C1554 1.427 . S
N1558 C1555 1.384 . S
N1559 C1551 1.427 . S
N1559 C1557 1.384 . S
H1560 C1566 0.930 . S
H1561 C1570 0.930 . S
H1562 C1575 0.929 . S
H1563 C1573 0.929 . S
H1564 C1568 0.929 . S
H1565 C1574 0.929 . S
C1566 H1560 0.930 . S
C1566 C1567 1.367 . S
C1566 C1574 1.378 . S
C1567 C1566 1.367 . S
C1567 C1575 1.433 . S
C1568 H1564 0.929 . S
C1568 C1570 1.378 . S
C1568 C1572 1.350 . S
C1569 C1572 1.463 . S
C1569 C1574 1.350 . S
C1569 N1577 1.427 . S
C1570 H1561 0.930 . S
C1570 C1568 1.378 . S
C1570 C1571 1.367 . S
C1571 C1570 1.367 . S
C1571 C1573 1.433 . S
C1572 C1568 1.350 . S
C1572 C1569 1.463 . S
C1572 N1576 1.427 . S
C1573 H1563 0.929 . S
C1573 C1571 1.433 . S
C1573 N1576 1.384 . S
C1574 H1565 0.929 . S
C1574 C1566 1.378 . S
C1574 C1569 1.350 . S
C1575 H1562 0.929 . S
C1575 C1567 1.433 . S
C1575 N1577 1.384 . S
N1576 C1572 1.427 . S
N1576 C1573 1.384 . S
N1577 C1569 1.427 . S
N1577 C1575 1.384 . S
H1578 C1584 0.930 . S
H1579 C1588 0.930 . S
H1580 C1593 0.929 . S
H1581 C1591 0.929 . S
H1582 C1586 0.929 . S
H1583 C1592 0.929 . S
C1584 H1578 0.930 . S
C1584 C1585 1.367 1_545 S
C1584 C1592 1.378 . S
C1585 C1584 1.367 1_565 S
C1585 C1593 1.433 . S
C1586 H1582 0.929 . S
C1586 C1588 1.378 . S
C1586 C1590 1.350 . S
C1587 C1590 1.463 . S
C1587 C1592 1.350 . S
C1587 N1595 1.427 . S
C1588 H1579 0.930 . S
C1588 C1586 1.378 . S
C1588 C1589 1.367 . S
C1589 C1588 1.367 . S
C1589 C1591 1.433 . S
C1590 C1586 1.350 . S
C1590 C1587 1.463 . S
C1590 N1594 1.427 . S
C1591 H1581 0.929 . S
C1591 C1589 1.433 . S
C1591 N1594 1.384 . S
C1592 H1583 0.929 . S
C1592 C1584 1.378 . S
C1592 C1587 1.350 . S
C1593 H1580 0.929 . S
C1593 C1585 1.433 . S
C1593 N1595 1.384 1_565 S
N1594 C1590 1.427 . S
N1594 C1591 1.384 . S
N1595 C1587 1.427 . S
N1595 C1593 1.384 1_545 S
H1596 C1602 0.930 . S
H1597 C1606 0.944 . S
H1598 C1611 0.929 . S
H1599 C1609 0.929 . S
H1600 C1604 0.929 . S
H1601 C1610 0.929 . S
C1602 H1596 0.930 . S
C1602 C1603 1.367 . S
C1602 C1610 1.378 . S
C1603 C1602 1.367 . S
C1603 C1611 1.433 . S
C1604 H1600 0.929 . S
C1604 C1606 1.361 1_565 S
C1604 C1608 1.350 . S
C1605 C1608 1.463 . S
C1605 C1610 1.350 . S
C1605 N1613 1.427 . S
C1606 H1597 0.944 . S
C1606 C1604 1.361 1_545 S
C1606 C1607 1.370 . S
C1607 C1606 1.370 . S
C1607 C1609 1.433 1_545 S
C1608 C1604 1.350 . S
C1608 C1605 1.463 . S
C1608 N1612 1.427 . S
C1609 H1599 0.929 . S
C1609 C1607 1.433 1_565 S
C1609 N1612 1.384 . S
C1610 H1601 0.929 . S
C1610 C1602 1.378 . S
C1610 C1605 1.350 . S
C1611 H1598 0.929 . S
C1611 C1603 1.433 . S
C1611 N1613 1.384 . S
N1612 C1608 1.427 . S
N1612 C1609 1.384 . S
N1613 C1605 1.427 . S
N1613 C1611 1.384 . S
H1614 C1620 0.930 . S
H1615 C1624 0.930 . S
H1616 C1629 0.929 . S
H1617 C1627 0.929 . S
H1618 C1622 0.929 . S
H1619 C1628 0.929 . S
C1620 H1614 0.930 . S
C1620 C1621 1.367 . S
C1620 C1628 1.378 . S
C1621 C1620 1.367 . S
C1621 C1629 1.433 . S
C1622 H1618 0.929 . S
C1622 C1624 1.378 . S
C1622 C1626 1.350 . S
C1623 C1626 1.463 . S
C1623 C1628 1.350 . S
C1623 N1631 1.427 . S
C1624 H1615 0.930 . S
C1624 C1622 1.378 . S
C1624 C1625 1.367 . S
C1625 C1624 1.367 . S
C1625 C1627 1.433 . S
C1626 C1622 1.350 . S
C1626 C1623 1.463 . S
C1626 N1630 1.427 . S
C1627 H1617 0.929 . S
C1627 C1625 1.433 . S
C1627 N1630 1.384 . S
C1628 H1619 0.929 . S
C1628 C1620 1.378 . S
C1628 C1623 1.350 . S
C1629 H1616 0.929 . S
C1629 C1621 1.433 . S
C1629 N1631 1.384 . S
N1630 C1626 1.427 . S
N1630 C1627 1.384 . S
N1631 C1623 1.427 . S
N1631 C1629 1.384 . S
H1632 C1638 0.930 . S
H1633 C1642 0.930 . S
H1634 C1647 0.929 . S
H1635 C1645 0.929 . S
H1636 C1640 0.929 . S
H1637 C1646 0.929 . S
C1638 H1632 0.930 . S
C1638 C1639 1.367 . S
C1638 C1646 1.378 . S
C1639 C1638 1.367 . S
C1639 C1647 1.433 . S
C1640 H1636 0.929 . S
C1640 C1642 1.378 . S
C1640 C1644 1.350 . S
C1641 C1644 1.463 . S
C1641 C1646 1.350 . S
C1641 N1649 1.427 . S
C1642 H1633 0.930 . S
C1642 C1640 1.378 . S
C1642 C1643 1.367 . S
C1643 C1642 1.367 . S
C1643 C1645 1.433 . S
C1644 C1640 1.350 . S
C1644 C1641 1.463 . S
C1644 N1648 1.427 . S
C1645 H1635 0.929 . S
C1645 C1643 1.433 . S
C1645 N1648 1.384 . S
C1646 H1637 0.929 . S
C1646 C1638 1.378 . S
C1646 C1641 1.350 . S
C1647 H1634 0.929 . S
C1647 C1639 1.433 . S
C1647 N1649 1.384 . S
N1648 C1644 1.427 . S
N1648 C1645 1.384 . S
N1649 C1641 1.427 . S
N1649 C1647 1.384 . S
H1650 C1656 0.930 . S
H1651 C1660 0.930 . S
H1652 C1665 0.929 . S
H1653 C1663 0.929 . S
H1654 C1658 0.929 . S
H1655 C1664 0.929 . S
C1656 H1650 0.930 . S
C1656 C1657 1.367 . S
C1656 C1664 1.378 1_565 S
C1657 C1656 1.367 . S
C1657 C1665 1.433 . S
C1658 H1654 0.929 . S
C1658 C1660 1.378 . S
C1658 C1662 1.350 . S
C1659 C1662 1.463 . S
C1659 C1664 1.350 . S
C1659 N1667 1.427 1_545 S
C1660 H1651 0.930 . S
C1660 C1658 1.378 . S
C1660 C1661 1.367 . S
C1661 C1660 1.367 . S
C1661 C1663 1.433 . S
C1662 C1658 1.350 . S
C1662 C1659 1.463 . S
C1662 N1666 1.427 . S
C1663 H1653 0.929 . S
C1663 C1661 1.433 . S
C1663 N1666 1.384 . S
C1664 H1655 0.929 . S
C1664 C1656 1.378 1_545 S
C1664 C1659 1.350 . S
C1665 H1652 0.929 . S
C1665 C1657 1.433 . S
C1665 N1667 1.384 . S
N1666 C1662 1.427 . S
N1666 C1663 1.384 . S
N1667 C1659 1.427 1_565 S
N1667 C1665 1.384 . S
H1668 C1674 0.930 . S
H1669 C1678 0.930 . S
H1670 C1683 0.929 . S
H1671 C1681 0.929 . S
H1672 C1676 0.929 . S
H1673 C1682 0.929 . S
C1674 H1668 0.930 . S
C1674 C1675 1.367 . S
C1674 C1682 1.378 . S
C1675 C1674 1.367 . S
C1675 C1683 1.433 . S
C1676 H1672 0.929 . S
C1676 C1678 1.378 1_556 S
C1676 C1680 1.350 . S
C1677 C1680 1.463 . S
C1677 C1682 1.350 . S
C1677 N1685 1.427 . S
C1678 H1669 0.930 . S
C1678 C1676 1.378 1_554 S
C1678 C1679 1.367 . S
C1679 C1678 1.367 . S
C1679 C1681 1.433 . S
C1680 C1676 1.350 . S
C1680 C1677 1.463 . S
C1680 N1684 1.427 1_556 S
C1681 H1671 0.929 . S
C1681 C1679 1.433 . S
C1681 N1684 1.384 . S
C1682 H1673 0.929 . S
C1682 C1674 1.378 . S
C1682 C1677 1.350 . S
C1683 H1670 0.929 . S
C1683 C1675 1.433 . S
C1683 N1685 1.384 . S
N1684 C1680 1.427 1_554 S
N1684 C1681 1.384 . S
N1685 C1677 1.427 . S
N1685 C1683 1.384 . S
H1686 C1692 0.930 . S
H1687 C1696 0.930 . S
H1688 C1701 0.929 1_565 S
H1689 C1699 0.929 . S
H1690 C1694 0.929 . S
H1691 C1700 0.929 . S
C1692 H1686 0.930 . S
C1692 C1693 1.367 . S
C1692 C1700 1.378 . S
C1693 C1692 1.367 . S
C1693 C1701 1.433 . S
C1694 H1690 0.929 . S
C1694 C1696 1.378 . S
C1694 C1698 1.350 . S
C1695 C1698 1.463 . S
C1695 C1700 1.350 1_565 S
C1695 N1703 1.427 . S
C1696 H1687 0.930 . S
C1696 C1694 1.378 . S
C1696 C1697 1.367 . S
C1697 C1696 1.367 . S
C1697 C1699 1.433 . S
C1698 C1694 1.350 . S
C1698 C1695 1.463 . S
C1698 N1702 1.427 . S
C1699 H1689 0.929 . S
C1699 C1697 1.433 . S
C1699 N1702 1.384 . S
C1700 H1691 0.929 . S
C1700 C1692 1.378 . S
C1700 C1695 1.350 1_545 S
C1701 H1688 0.929 1_545 S
C1701 C1693 1.433 . S
C1701 N1703 1.384 1_545 S
N1702 C1698 1.427 . S
N1702 C1699 1.384 . S
N1703 C1695 1.427 . S
N1703 C1701 1.384 1_565 S
H1704 C1710 0.930 . S
H1705 C1714 0.930 . S
H1706 C1719 0.929 . S
H1707 C1717 0.929 . S
H1708 C1712 0.929 . S
H1709 C1718 0.929 . S
C1710 H1704 0.930 . S
C1710 C1711 1.367 . S
C1710 C1718 1.378 . S
C1711 C1710 1.367 . S
C1711 C1719 1.433 . S
C1712 H1708 0.929 . S
C1712 C1714 1.378 . S
C1712 C1716 1.350 . S
C1713 C1716 1.463 . S
C1713 C1718 1.350 . S
C1713 N1721 1.427 . S
C1714 H1705 0.930 . S
C1714 C1712 1.378 . S
C1714 C1715 1.367 . S
C1715 C1714 1.367 . S
C1715 C1717 1.433 . S
C1716 C1712 1.350 . S
C1716 C1713 1.463 . S
C1716 N1720 1.427 . S
C1717 H1707 0.929 . S
C1717 C1715 1.433 . S
C1717 N1720 1.384 . S
C1718 H1709 0.929 . S
C1718 C1710 1.378 . S
C1718 C1713 1.350 . S
C1719 H1706 0.929 . S
C1719 C1711 1.433 . S
C1719 N1721 1.384 . S
N1720 C1716 1.427 . S
N1720 C1717 1.384 . S
N1721 C1713 1.427 . S
N1721 C1719 1.384 . S
H1722 C1728 0.930 . S
H1723 C1732 0.930 . S
H1724 C1737 0.929 . S
H1725 C1735 0.929 . S
H1726 C1730 0.929 . S
H1727 C1736 0.929 . S
C1728 H1722 0.930 . S
C1728 C1729 1.367 . S
C1728 C1736 1.378 . S
C1729 C1728 1.367 . S
C1729 C1737 1.433 . S
C1730 H1726 0.929 . S
C1730 C1732 1.378 . S
C1730 C1734 1.350 . S
C1731 C1734 1.463 . S
C1731 C1736 1.350 . S
C1731 N1739 1.427 . S
C1732 H1723 0.930 . S
C1732 C1730 1.378 . S
C1732 C1733 1.367 . S
C1733 C1732 1.367 . S
C1733 C1735 1.433 . S
C1734 C1730 1.350 . S
C1734 C1731 1.463 . S
C1734 N1738 1.427 . S
C1735 H1725 0.929 . S
C1735 C1733 1.433 . S
C1735 N1738 1.384 . S
C1736 H1727 0.929 . S
C1736 C1728 1.378 . S
C1736 C1731 1.350 . S
C1737 H1724 0.929 . S
C1737 C1729 1.433 . S
C1737 N1739 1.384 . S
N1738 C1734 1.427 . S
N1738 C1735 1.384 . S
N1739 C1731 1.427 . S
N1739 C1737 1.384 . S
H1740 C1746 0.930 . S
H1741 C1750 0.930 . S
H1742 C1755 0.929 . S
H1743 C1753 0.929 . S
H1744 C1748 0.929 . S
H1745 C1754 0.929 . S
C1746 H1740 0.930 . S
C1746 C1747 1.367 . S
C1746 C1754 1.378 1_556 S
C1747 C1746 1.367 . S
C1747 C1755 1.433 . S
C1748 H1744 0.929 . S
C1748 C1750 1.378 . S
C1748 C1752 1.350 . S
C1749 C1752 1.463 . S
C1749 C1754 1.350 . S
C1749 N1757 1.427 1_554 S
C1750 H1741 0.930 . S
C1750 C1748 1.378 . S
C1750 C1751 1.367 . S
C1751 C1750 1.367 . S
C1751 C1753 1.433 . S
C1752 C1748 1.350 . S
C1752 C1749 1.463 . S
C1752 N1756 1.427 . S
C1753 H1743 0.929 . S
C1753 C1751 1.433 . S
C1753 N1756 1.384 . S
C1754 H1745 0.929 . S
C1754 C1746 1.378 1_554 S
C1754 C1749 1.350 . S
C1755 H1742 0.929 . S
C1755 C1747 1.433 . S
C1755 N1757 1.384 . S
N1756 C1752 1.427 . S
N1756 C1753 1.384 . S
N1757 C1749 1.427 1_556 S
N1757 C1755 1.384 . S
H1758 C1764 0.930 . S
H1759 C1768 0.930 . S
H1760 C1773 0.929 . S
H1761 C1771 0.929 . S
H1762 C1766 0.929 . S
H1763 C1772 0.929 . S
C1764 H1758 0.930 . S
C1764 C1765 1.367 . S
C1764 C1772 1.378 . S
C1765 C1764 1.367 . S
C1765 C1773 1.433 . S
C1766 H1762 0.929 . S
C1766 C1768 1.378 . S
C1766 C1770 1.350 . S
C1767 C1770 1.463 . S
C1767 C1772 1.350 . S
C1767 N1775 1.427 . S
C1768 H1759 0.930 . S
C1768 C1766 1.378 . S
C1768 C1769 1.367 . S
C1769 C1768 1.367 . S
C1769 C1771 1.433 . S
C1770 C1766 1.350 . S
C1770 C1767 1.463 . S
C1770 N1774 1.427 . S
C1771 H1761 0.929 . S
C1771 C1769 1.433 . S
C1771 N1774 1.384 . S
C1772 H1763 0.929 . S
C1772 C1764 1.378 . S
C1772 C1767 1.350 . S
C1773 H1760 0.929 . S
C1773 C1765 1.433 . S
C1773 N1775 1.384 . S
N1774 C1770 1.427 . S
N1774 C1771 1.384 . S
N1775 C1767 1.427 . S
N1775 C1773 1.384 . S
H1776 C1782 0.930 . S
H1777 C1786 0.930 . S
H1778 C1791 0.929 . S
H1779 C1789 0.929 . S
H1780 C1784 0.929 . S
H1781 C1790 0.929 . S
C1782 H1776 0.930 . S
C1782 C1783 1.367 . S
C1782 C1790 1.378 . S
C1783 C1782 1.367 . S
C1783 C1791 1.433 . S
C1784 H1780 0.929 . S
C1784 C1786 1.378 . S
C1784 C1788 1.350 . S
C1785 C1788 1.463 . S
C1785 C1790 1.350 . S
C1785 N1793 1.427 . S
C1786 H1777 0.930 . S
C1786 C1784 1.378 . S
C1786 C1787 1.367 . S
C1787 C1786 1.367 . S
C1787 C1789 1.433 . S
C1788 C1784 1.350 . S
C1788 C1785 1.463 . S
C1788 N1792 1.427 . S
C1789 H1779 0.929 . S
C1789 C1787 1.433 . S
C1789 N1792 1.384 . S
C1790 H1781 0.929 . S
C1790 C1782 1.378 . S
C1790 C1785 1.350 . S
C1791 H1778 0.929 . S
C1791 C1783 1.433 . S
C1791 N1793 1.384 . S
N1792 C1788 1.427 . S
N1792 C1789 1.384 . S
N1793 C1785 1.427 . S
N1793 C1791 1.384 . S
H1794 C1800 0.930 . S
H1795 C1804 0.930 . S
H1796 C1809 0.929 . S
H1797 C1807 0.929 . S
H1798 C1802 0.929 . S
H1799 C1808 0.929 . S
C1800 H1794 0.930 . S
C1800 C1801 1.367 . S
C1800 C1808 1.378 . S
C1801 C1800 1.367 . S
C1801 C1809 1.433 . S
C1802 H1798 0.929 . S
C1802 C1804 1.378 . S
C1802 C1806 1.350 . S
C1803 C1806 1.463 . S
C1803 C1808 1.350 1_655 S
C1803 N1811 1.427 . S
C1804 H1795 0.930 . S
C1804 C1802 1.378 . S
C1804 C1805 1.367 . S
C1805 C1804 1.367 . S
C1805 C1807 1.433 . S
C1806 C1802 1.350 . S
C1806 C1803 1.463 . S
C1806 N1810 1.427 . S
C1807 H1797 0.929 . S
C1807 C1805 1.433 . S
C1807 N1810 1.384 . S
C1808 H1799 0.929 . S
C1808 C1800 1.378 . S
C1808 C1803 1.350 1_455 S
C1809 H1796 0.929 . S
C1809 C1801 1.433 . S
C1809 N1811 1.384 1_455 S
N1810 C1806 1.427 . S
N1810 C1807 1.384 . S
N1811 C1803 1.427 . S
N1811 C1809 1.384 1_655 S
H1812 C1818 0.930 . S
H1813 C1822 0.930 . S
H1814 C1827 0.929 1_455 S
H1815 C1825 0.929 . S
H1816 C1820 0.929 . S
H1817 C1826 0.929 . S
C1818 H1812 0.930 . S
C1818 C1819 1.367 . S
C1818 C1826 1.378 . S
C1819 C1818 1.367 . S
C1819 C1827 1.433 . S
C1820 H1816 0.929 . S
C1820 C1822 1.378 . S
C1820 C1824 1.350 . S
C1821 C1824 1.463 . S
C1821 C1826 1.350 1_455 S
C1821 N1829 1.427 . S
C1822 H1813 0.930 . S
C1822 C1820 1.378 . S
C1822 C1823 1.367 . S
C1823 C1822 1.367 . S
C1823 C1825 1.433 . S
C1824 C1820 1.350 . S
C1824 C1821 1.463 . S
C1824 N1828 1.427 . S
C1825 H1815 0.929 . S
C1825 C1823 1.433 . S
C1825 N1828 1.384 . S
C1826 H1817 0.929 . S
C1826 C1818 1.378 . S
C1826 C1821 1.350 1_655 S
C1827 H1814 0.929 1_655 S
C1827 C1819 1.433 . S
C1827 N1829 1.384 1_655 S
N1828 C1824 1.427 . S
N1828 C1825 1.384 . S
N1829 C1821 1.427 . S
N1829 C1827 1.384 1_455 S
H1830 C1836 0.930 . S
H1831 C1840 0.930 . S
H1832 C1845 0.929 . S
H1833 C1843 0.929 . S
H1834 C1838 0.929 . S
H1835 C1844 0.929 . S
C1836 H1830 0.930 . S
C1836 C1837 1.367 . S
C1836 C1844 1.378 . S
C1837 C1836 1.367 . S
C1837 C1845 1.433 . S
C1838 H1834 0.929 . S
C1838 C1840 1.378 . S
C1838 C1842 1.350 . S
C1839 C1842 1.463 . S
C1839 C1844 1.350 . S
C1839 N1847 1.427 . S
C1840 H1831 0.930 . S
C1840 C1838 1.378 . S
C1840 C1841 1.367 . S
C1841 C1840 1.367 . S
C1841 C1843 1.433 . S
C1842 C1838 1.350 . S
C1842 C1839 1.463 . S
C1842 N1846 1.427 . S
C1843 H1833 0.929 . S
C1843 C1841 1.433 . S
C1843 N1846 1.384 . S
C1844 H1835 0.929 . S
C1844 C1836 1.378 . S
C1844 C1839 1.350 . S
C1845 H1832 0.929 . S
C1845 C1837 1.433 . S
C1845 N1847 1.384 . S
N1846 C1842 1.427 . S
N1846 C1843 1.384 . S
N1847 C1839 1.427 . S
N1847 C1845 1.384 . S
H1848 C1854 0.930 . S
H1849 C1858 0.930 . S
H1850 C1863 0.929 . S
H1851 C1861 0.929 . S
H1852 C1856 0.929 . S
H1853 C1862 0.929 . S
C1854 H1848 0.930 . S
C1854 C1855 1.367 . S
C1854 C1862 1.378 . S
C1855 C1854 1.367 . S
C1855 C1863 1.433 . S
C1856 H1852 0.929 . S
C1856 C1858 1.378 . S
C1856 C1860 1.350 . S
C1857 C1860 1.463 . S
C1857 C1862 1.350 . S
C1857 N1865 1.427 . S
C1858 H1849 0.930 . S
C1858 C1856 1.378 . S
C1858 C1859 1.367 . S
C1859 C1858 1.367 . S
C1859 C1861 1.433 . S
C1860 C1856 1.350 . S
C1860 C1857 1.463 . S
C1860 N1864 1.427 . S
C1861 H1851 0.929 . S
C1861 C1859 1.433 . S
C1861 N1864 1.384 . S
C1862 H1853 0.929 . S
C1862 C1854 1.378 . S
C1862 C1857 1.350 . S
C1863 H1850 0.929 . S
C1863 C1855 1.433 . S
C1863 N1865 1.384 . S
N1864 C1860 1.427 . S
N1864 C1861 1.384 . S
N1865 C1857 1.427 . S
N1865 C1863 1.384 . S
H1866 C1872 0.930 . S
H1867 C1876 0.930 . S
H1868 C1881 0.929 . S
H1869 C1879 0.929 . S
H1870 C1874 0.929 1_545 S
H1871 C1880 0.929 . S
C1872 H1866 0.930 . S
C1872 C1873 1.367 1_565 S
C1872 C1880 1.378 . S
C1873 C1872 1.367 1_545 S
C1873 C1881 1.433 . S
C1874 H1870 0.929 1_565 S
C1874 C1876 1.378 . S
C1874 C1878 1.350 . S
C1875 C1878 1.463 . S
C1875 C1880 1.350 . S
C1875 N1883 1.427 1_565 S
C1876 H1867 0.930 . S
C1876 C1874 1.378 . S
C1876 C1877 1.367 . S
C1877 C1876 1.367 . S
C1877 C1879 1.433 . S
C1878 C1874 1.350 . S
C1878 C1875 1.463 . S
C1878 N1882 1.427 . S
C1879 H1869 0.929 . S
C1879 C1877 1.433 . S
C1879 N1882 1.384 . S
C1880 H1871 0.929 . S
C1880 C1872 1.378 . S
C1880 C1875 1.350 . S
C1881 H1868 0.929 . S
C1881 C1873 1.433 . S
C1881 N1883 1.384 . S
N1882 C1878 1.427 . S
N1882 C1879 1.384 . S
N1883 C1875 1.427 1_545 S
N1883 C1881 1.384 . S
H1884 C1890 0.930 . S
H1885 C1894 0.930 . S
H1886 C1899 0.929 . S
H1887 C1897 0.929 . S
H1888 C1892 0.929 . S
H1889 C1898 0.929 . S
C1890 H1884 0.930 . S
C1890 C1891 1.367 . S
C1890 C1898 1.378 . S
C1891 C1890 1.367 . S
C1891 C1899 1.433 . S
C1892 H1888 0.929 . S
C1892 C1894 1.378 . S
C1892 C1896 1.350 . S
C1893 C1896 1.463 . S
C1893 C1898 1.350 . S
C1893 N1901 1.427 . S
C1894 H1885 0.930 . S
C1894 C1892 1.378 . S
C1894 C1895 1.367 . S
C1895 C1894 1.367 . S
C1895 C1897 1.433 . S
C1896 C1892 1.350 . S
C1896 C1893 1.463 . S
C1896 N1900 1.427 . S
C1897 H1887 0.929 . S
C1897 C1895 1.433 . S
C1897 N1900 1.384 . S
C1898 H1889 0.929 . S
C1898 C1890 1.378 . S
C1898 C1893 1.350 . S
C1899 H1886 0.929 . S
C1899 C1891 1.433 . S
C1899 N1901 1.384 . S
N1900 C1896 1.427 . S
N1900 C1897 1.384 . S
N1901 C1893 1.427 . S
N1901 C1899 1.384 . S
H1902 C1908 0.930 . S
H1903 C1912 0.930 . S
H1904 C1917 0.929 . S
H1905 C1915 0.929 . S
H1906 C1910 0.929 . S
H1907 C1916 0.929 . S
C1908 H1902 0.930 . S
C1908 C1909 1.367 . S
C1908 C1916 1.378 . S
C1909 C1908 1.367 . S
C1909 C1917 1.433 . S
C1910 H1906 0.929 . S
C1910 C1912 1.378 1_554 S
C1910 C1914 1.350 1_565 S
C1911 C1914 1.463 . S
C1911 C1916 1.350 . S
C1911 N1919 1.427 . S
C1912 H1903 0.930 . S
C1912 C1910 1.378 1_556 S
C1912 C1913 1.367 . S
C1913 C1912 1.367 . S
C1913 C1915 1.433 1_565 S
C1914 C1910 1.350 1_545 S
C1914 C1911 1.463 . S
C1914 N1918 1.427 . S
C1915 H1905 0.929 . S
C1915 C1913 1.433 1_545 S
C1915 N1918 1.384 1_556 S
C1916 H1907 0.929 . S
C1916 C1908 1.378 . S
C1916 C1911 1.350 . S
C1917 H1904 0.929 . S
C1917 C1909 1.433 . S
C1917 N1919 1.384 . S
N1918 C1914 1.427 . S
N1918 C1915 1.384 1_554 S
N1919 C1911 1.427 . S
N1919 C1917 1.384 . S
H1920 C1926 0.930 . S
H1921 C1930 0.930 . S
H1922 C1935 0.929 . S
H1923 C1933 0.929 . S
H1924 C1928 0.929 . S
H1925 C1934 0.929 . S
C1926 H1920 0.930 . S
C1926 C1927 1.367 . S
C1926 C1934 1.378 . S
C1927 C1926 1.367 . S
C1927 C1935 1.433 . S
C1928 H1924 0.929 . S
C1928 C1930 1.378 . S
C1928 C1932 1.350 . S
C1929 C1932 1.463 . S
C1929 C1934 1.350 . S
C1929 N1937 1.427 . S
C1930 H1921 0.930 . S
C1930 C1928 1.378 . S
C1930 C1931 1.367 . S
C1931 C1930 1.367 . S
C1931 C1933 1.433 . S
C1932 C1928 1.350 . S
C1932 C1929 1.463 . S
C1932 N1936 1.427 . S
C1933 H1923 0.929 . S
C1933 C1931 1.433 . S
C1933 N1936 1.384 . S
C1934 H1925 0.929 . S
C1934 C1926 1.378 . S
C1934 C1929 1.350 . S
C1935 H1922 0.929 . S
C1935 C1927 1.433 . S
C1935 N1937 1.384 . S
N1936 C1932 1.427 . S
N1936 C1933 1.384 . S
N1937 C1929 1.427 . S
N1937 C1935 1.384 . S
H1938 C1944 0.930 . S
H1939 C1948 0.930 . S
H1940 C1953 0.929 . S
H1941 C1951 0.929 . S
H1942 C1946 0.929 . S
H1943 C1952 0.929 . S
C1944 H1938 0.930 . S
C1944 C1945 1.373 . S
C1944 C1952 1.371 1_554 S
C1945 C1944 1.373 . S
C1945 C1953 1.433 . S
C1946 H1942 0.929 . S
C1946 C1948 1.378 . S
C1946 C1950 1.350 . S
C1947 C1950 1.463 . S
C1947 C1952 1.350 . S
C1947 N1955 1.472 . S
C1948 H1939 0.930 . S
C1948 C1946 1.378 . S
C1948 C1949 1.367 . S
C1949 C1948 1.367 . S
C1949 C1951 1.433 . S
C1950 C1946 1.350 . S
C1950 C1947 1.463 . S
C1950 N1954 1.427 . S
C1951 H1941 0.929 . S
C1951 C1949 1.433 . S
C1951 N1954 1.384 . S
C1952 H1943 0.929 . S
C1952 C1944 1.371 1_556 S
C1952 C1947 1.350 . S
C1953 H1940 0.929 . S
C1953 C1945 1.433 . S
C1953 N1955 1.336 1_554 S
N1954 C1950 1.427 . S
N1954 C1951 1.384 . S
N1955 C1947 1.472 . S
N1955 C1953 1.336 1_556 S
H1956 C1962 0.930 . S
H1957 C1966 0.930 . S
H1958 C1971 0.929 . S
H1959 C1969 0.929 . S
H1960 C1964 0.929 . S
H1961 C1970 0.929 . S
C1962 H1956 0.930 . S
C1962 C1963 1.367 . S
C1962 C1970 1.378 . S
C1963 C1962 1.367 . S
C1963 C1971 1.433 . S
C1964 H1960 0.929 . S
C1964 C1966 1.378 . S
C1964 C1968 1.350 . S
C1965 C1968 1.463 . S
C1965 C1970 1.350 . S
C1965 N1973 1.427 . S
C1966 H1957 0.930 . S
C1966 C1964 1.378 . S
C1966 C1967 1.367 . S
C1967 C1966 1.367 . S
C1967 C1969 1.433 . S
C1968 C1964 1.350 . S
C1968 C1965 1.463 . S
C1968 N1972 1.427 . S
C1969 H1959 0.929 . S
C1969 C1967 1.433 . S
C1969 N1972 1.384 . S
C1970 H1961 0.929 . S
C1970 C1962 1.378 . S
C1970 C1965 1.350 . S
C1971 H1958 0.929 . S
C1971 C1963 1.433 . S
C1971 N1973 1.384 . S
N1972 C1968 1.427 . S
N1972 C1969 1.384 . S
N1973 C1965 1.427 . S
N1973 C1971 1.384 . S
H1974 C1980 0.930 . S
H1975 C1984 0.930 . S
H1976 C1989 0.929 . S
H1977 C1987 0.929 . S
H1978 C1982 0.929 . S
H1979 C1988 0.929 . S
C1980 H1974 0.930 . S
C1980 C1981 1.367 . S
C1980 C1988 1.378 . S
C1981 C1980 1.367 . S
C1981 C1989 1.433 . S
C1982 H1978 0.929 . S
C1982 C1984 1.378 . S
C1982 C1986 1.350 . S
C1983 C1986 1.463 . S
C1983 C1988 1.350 . S
C1983 N1991 1.427 . S
C1984 H1975 0.930 . S
C1984 C1982 1.378 . S
C1984 C1985 1.367 . S
C1985 C1984 1.367 . S
C1985 C1987 1.433 . S
C1986 C1982 1.350 . S
C1986 C1983 1.463 . S
C1986 N1990 1.427 . S
C1987 H1977 0.929 . S
C1987 C1985 1.433 . S
C1987 N1990 1.384 . S
C1988 H1979 0.929 . S
C1988 C1980 1.378 . S
C1988 C1983 1.350 . S
C1989 H1976 0.929 . S
C1989 C1981 1.433 . S
C1989 N1991 1.384 . S
N1990 C1986 1.427 . S
N1990 C1987 1.384 . S
N1991 C1983 1.427 . S
N1991 C1989 1.384 . S
H1992 C1998 0.930 . S
H1993 C2002 0.930 . S
H1994 C2007 0.929 . S
H1995 C2005 0.929 . S
H1996 C2000 0.929 . S
H1997 C2006 0.929 . S
C1998 H1992 0.930 . S
C1998 C1999 1.367 . S
C1998 C2006 1.378 . S
C1999 C1998 1.367 . S
C1999 C2007 1.433 . S
C2000 H1996 0.929 . S
C2000 C2002 1.378 . S
C2000 C2004 1.350 . S
C2001 C2004 1.463 . S
C2001 C2006 1.350 . S
C2001 N2009 1.427 . S
C2002 H1993 0.930 . S
C2002 C2000 1.378 . S
C2002 C2003 1.367 . S
C2003 C2002 1.367 . S
C2003 C2005 1.433 . S
C2004 C2000 1.350 . S
C2004 C2001 1.463 . S
C2004 N2008 1.427 . S
C2005 H1995 0.929 . S
C2005 C2003 1.433 . S
C2005 N2008 1.384 . S
C2006 H1997 0.929 . S
C2006 C1998 1.378 . S
C2006 C2001 1.350 . S
C2007 H1994 0.929 . S
C2007 C1999 1.433 . S
C2007 N2009 1.384 . S
N2008 C2004 1.427 . S
N2008 C2005 1.384 . S
N2009 C2001 1.427 . S
N2009 C2007 1.384 . S
H2010 C2016 0.930 . S
H2011 C2020 0.930 . S
H2012 C2025 0.929 . S
H2013 C2023 0.929 . S
H2014 C2018 0.929 . S
H2015 C2024 0.929 . S
C2016 H2010 0.930 . S
C2016 C2017 1.367 . S
C2016 C2024 1.378 1_565 S
C2017 C2016 1.367 . S
C2017 C2025 1.433 1_655 S
C2018 H2014 0.929 . S
C2018 C2020 1.378 . S
C2018 C2022 1.350 . S
C2019 C2022 1.463 . S
C2019 C2024 1.350 1_455 S
C2019 N2027 1.427 . S
C2020 H2011 0.930 . S
C2020 C2018 1.378 . S
C2020 C2021 1.367 . S
C2021 C2020 1.367 . S
C2021 C2023 1.433 . S
C2022 C2018 1.350 . S
C2022 C2019 1.463 . S
C2022 N2026 1.427 . S
C2023 H2013 0.929 . S
C2023 C2021 1.433 . S
C2023 N2026 1.384 . S
C2024 H2015 0.929 . S
C2024 C2016 1.378 1_545 S
C2024 C2019 1.350 1_655 S
C2025 H2012 0.929 . S
C2025 C2017 1.433 1_455 S
C2025 N2027 1.384 1_565 S
N2026 C2022 1.427 . S
N2026 C2023 1.384 . S
N2027 C2019 1.427 . S
N2027 C2025 1.384 1_545 S
H2028 C2034 0.930 . S
H2029 C2038 0.930 . S
H2030 C2043 0.929 . S
H2031 C2041 0.929 . S
H2032 C2036 0.929 . S
H2033 C2042 0.929 . S
C2034 H2028 0.930 . S
C2034 C2035 1.367 . S
C2034 C2042 1.378 . S
C2035 C2034 1.367 . S
C2035 C2043 1.433 . S
C2036 H2032 0.929 . S
C2036 C2038 1.378 . S
C2036 C2040 1.350 . S
C2037 C2040 1.463 . S
C2037 C2042 1.350 . S
C2037 N2045 1.427 . S
C2038 H2029 0.930 . S
C2038 C2036 1.378 . S
C2038 C2039 1.367 . S
C2039 C2038 1.367 . S
C2039 C2041 1.433 . S
C2040 C2036 1.350 . S
C2040 C2037 1.463 . S
C2040 N2044 1.427 . S
C2041 H2031 0.929 . S
C2041 C2039 1.433 . S
C2041 N2044 1.384 . S
C2042 H2033 0.929 . S
C2042 C2034 1.378 . S
C2042 C2037 1.350 . S
C2043 H2030 0.929 . S
C2043 C2035 1.433 . S
C2043 N2045 1.384 . S
N2044 C2040 1.427 . S
N2044 C2041 1.384 . S
N2045 C2037 1.427 . S
N2045 C2043 1.384 . S
H2046 C2052 0.930 . S
H2047 C2056 0.930 . S
H2048 C2061 0.929 . S
H2049 C2059 0.929 . S
H2050 C2054 0.929 . S
H2051 C2060 0.929 . S
C2052 H2046 0.930 . S
C2052 C2053 1.367 . S
C2052 C2060 1.378 1_545 S
C2053 C2052 1.367 . S
C2053 C2061 1.433 . S
C2054 H2050 0.929 . S
C2054 C2056 1.378 . S
C2054 C2058 1.350 . S
C2055 C2058 1.463 . S
C2055 C2060 1.350 . S
C2055 N2063 1.427 . S
C2056 H2047 0.930 . S
C2056 C2054 1.378 . S
C2056 C2057 1.367 . S
C2057 C2056 1.367 . S
C2057 C2059 1.433 . S
C2058 C2054 1.350 . S
C2058 C2055 1.463 . S
C2058 N2062 1.427 . S
C2059 H2049 0.929 . S
C2059 C2057 1.433 . S
C2059 N2062 1.384 . S
C2060 H2051 0.929 . S
C2060 C2052 1.378 1_565 S
C2060 C2055 1.350 . S
C2061 H2048 0.929 . S
C2061 C2053 1.433 . S
C2061 N2063 1.384 1_545 S
N2062 C2058 1.427 . S
N2062 C2059 1.384 . S
N2063 C2055 1.427 . S
N2063 C2061 1.384 1_565 S
H2064 C2070 0.930 . S
H2065 C2074 0.930 . S
H2066 C2079 0.929 . S
H2067 C2077 0.929 . S
H2068 C2072 0.929 . S
H2069 C2078 0.929 . S
C2070 H2064 0.930 . S
C2070 C2071 1.367 . S
C2070 C2078 1.378 . S
C2071 C2070 1.367 . S
C2071 C2079 1.433 . S
C2072 H2068 0.929 . S
C2072 C2074 1.378 . S
C2072 C2076 1.350 . S
C2073 C2076 1.463 . S
C2073 C2078 1.350 . S
C2073 N2081 1.427 . S
C2074 H2065 0.930 . S
C2074 C2072 1.378 . S
C2074 C2075 1.367 . S
C2075 C2074 1.367 . S
C2075 C2077 1.433 . S
C2076 C2072 1.350 . S
C2076 C2073 1.463 . S
C2076 N2080 1.427 . S
C2077 H2067 0.929 . S
C2077 C2075 1.433 . S
C2077 N2080 1.384 . S
C2078 H2069 0.929 . S
C2078 C2070 1.378 . S
C2078 C2073 1.350 . S
C2079 H2066 0.929 . S
C2079 C2071 1.433 . S
C2079 N2081 1.384 . S
N2080 C2076 1.427 . S
N2080 C2077 1.384 . S
N2081 C2073 1.427 . S
N2081 C2079 1.384 . S
H2082 C2088 0.930 . S
H2083 C2092 0.930 . S
H2084 C2097 0.929 . S
H2085 C2095 0.929 . S
H2086 C2090 0.929 . S
H2087 C2096 0.925 1_455 S
C2088 H2082 0.930 . S
C2088 C2089 1.367 . S
C2088 C2096 1.372 1_455 S
C2089 C2088 1.367 . S
C2089 C2097 1.433 1_455 S
C2090 H2086 0.929 . S
C2090 C2092 1.378 . S
C2090 C2094 1.350 . S
C2091 C2094 1.463 . S
C2091 C2096 1.359 . S
C2091 N2099 1.427 . S
C2092 H2083 0.930 . S
C2092 C2090 1.378 . S
C2092 C2093 1.367 . S
C2093 C2092 1.367 . S
C2093 C2095 1.433 . S
C2094 C2090 1.350 . S
C2094 C2091 1.463 . S
C2094 N2098 1.427 . S
C2095 H2085 0.929 . S
C2095 C2093 1.433 . S
C2095 N2098 1.384 . S
C2096 H2087 0.925 1_655 S
C2096 C2088 1.372 1_655 S
C2096 C2091 1.359 . S
C2097 H2084 0.929 . S
C2097 C2089 1.433 1_655 S
C2097 N2099 1.384 . S
N2098 C2094 1.427 . S
N2098 C2095 1.384 . S
N2099 C2091 1.427 . S
N2099 C2097 1.384 . S
H2100 C2106 0.930 . S
H2101 C2110 0.930 . S
H2102 C2115 0.929 . S
H2103 C2113 0.929 . S
H2104 C2108 0.929 . S
H2105 C2114 0.929 . S
C2106 H2100 0.930 . S
C2106 C2107 1.367 . S
C2106 C2114 1.378 . S
C2107 C2106 1.367 . S
C2107 C2115 1.433 . S
C2108 H2104 0.929 . S
C2108 C2110 1.378 . S
C2108 C2112 1.350 . S
C2109 C2112 1.463 . S
C2109 C2114 1.350 . S
C2109 N2117 1.427 . S
C2110 H2101 0.930 . S
C2110 C2108 1.378 . S
C2110 C2111 1.367 . S
C2111 C2110 1.367 . S
C2111 C2113 1.433 . S
C2112 C2108 1.350 . S
C2112 C2109 1.463 . S
C2112 N2116 1.427 . S
C2113 H2103 0.929 . S
C2113 C2111 1.433 . S
C2113 N2116 1.384 . S
C2114 H2105 0.929 . S
C2114 C2106 1.378 . S
C2114 C2109 1.350 . S
C2115 H2102 0.929 . S
C2115 C2107 1.433 . S
C2115 N2117 1.384 . S
N2116 C2112 1.427 . S
N2116 C2113 1.384 . S
N2117 C2109 1.427 . S
N2117 C2115 1.384 . S
H2118 C2124 0.930 . S
H2119 C2128 0.930 . S
H2120 C2133 0.929 . S
H2121 C2131 0.929 . S
H2122 C2126 0.929 . S
H2123 C2132 0.929 . S
C2124 H2118 0.930 . S
C2124 C2125 1.367 . S
C2124 C2132 1.378 . S
C2125 C2124 1.367 . S
C2125 C2133 1.433 . S
C2126 H2122 0.929 . S
C2126 C2128 1.378 . S
C2126 C2130 1.350 . S
C2127 C2130 1.463 . S
C2127 C2132 1.350 . S
C2127 N2135 1.427 . S
C2128 H2119 0.930 . S
C2128 C2126 1.378 . S
C2128 C2129 1.367 . S
C2129 C2128 1.367 . S
C2129 C2131 1.433 . S
C2130 C2126 1.350 . S
C2130 C2127 1.463 . S
C2130 N2134 1.427 . S
C2131 H2121 0.929 . S
C2131 C2129 1.433 . S
C2131 N2134 1.384 . S
C2132 H2123 0.929 . S
C2132 C2124 1.378 . S
C2132 C2127 1.350 . S
C2133 H2120 0.929 . S
C2133 C2125 1.433 . S
C2133 N2135 1.384 . S
N2134 C2130 1.427 . S
N2134 C2131 1.384 . S
N2135 C2127 1.427 . S
N2135 C2133 1.384 . S
H2136 C2142 0.930 . S
H2137 C2146 0.930 . S
H2138 C2151 0.929 . S
H2139 C2149 0.929 . S
H2140 C2144 0.929 . S
H2141 C2150 0.929 . S
C2142 H2136 0.930 . S
C2142 C2143 1.367 . S
C2142 C2150 1.378 . S
C2143 C2142 1.367 . S
C2143 C2151 1.433 . S
C2144 H2140 0.929 . S
C2144 C2146 1.378 . S
C2144 C2148 1.350 . S
C2145 C2148 1.463 . S
C2145 C2150 1.350 . S
C2145 N2153 1.427 . S
C2146 H2137 0.930 . S
C2146 C2144 1.378 . S
C2146 C2147 1.367 . S
C2147 C2146 1.367 . S
C2147 C2149 1.433 . S
C2148 C2144 1.350 . S
C2148 C2145 1.463 . S
C2148 N2152 1.427 . S
C2149 H2139 0.929 . S
C2149 C2147 1.433 . S
C2149 N2152 1.384 . S
C2150 H2141 0.929 . S
C2150 C2142 1.378 . S
C2150 C2145 1.350 . S
C2151 H2138 0.929 . S
C2151 C2143 1.433 . S
C2151 N2153 1.384 . S
N2152 C2148 1.427 . S
N2152 C2149 1.384 . S
N2153 C2145 1.427 . S
N2153 C2151 1.384 . S
H2154 C2160 0.930 . S
H2155 C2164 0.930 . S
H2156 C2169 0.929 . S
H2157 C2167 0.929 . S
H2158 C2162 0.929 . S
H2159 C2168 0.929 . S
C2160 H2154 0.930 . S
C2160 C2161 1.367 . S
C2160 C2168 1.378 . S
C2161 C2160 1.367 . S
C2161 C2169 1.433 . S
C2162 H2158 0.929 . S
C2162 C2164 1.378 . S
C2162 C2166 1.350 . S
C2163 C2166 1.463 . S
C2163 C2168 1.350 . S
C2163 N2171 1.427 . S
C2164 H2155 0.930 . S
C2164 C2162 1.378 . S
C2164 C2165 1.367 . S
C2165 C2164 1.367 . S
C2165 C2167 1.433 . S
C2166 C2162 1.350 . S
C2166 C2163 1.463 . S
C2166 N2170 1.427 . S
C2167 H2157 0.929 . S
C2167 C2165 1.433 . S
C2167 N2170 1.384 . S
C2168 H2159 0.929 . S
C2168 C2160 1.378 . S
C2168 C2163 1.350 . S
C2169 H2156 0.929 . S
C2169 C2161 1.433 . S
C2169 N2171 1.384 . S
N2170 C2166 1.427 . S
N2170 C2167 1.384 . S
N2171 C2163 1.427 . S
N2171 C2169 1.384 . S
H2172 C2178 0.935 . S
H2173 C2182 0.930 . S
H2174 C2187 0.929 . S
H2175 C2185 0.929 . S
H2176 C2180 0.929 . S
H2177 C2186 0.929 . S
C2178 H2172 0.935 . S
C2178 C2179 1.368 . S
C2178 C2186 1.373 1_656 S
C2179 C2178 1.368 . S
C2179 C2187 1.433 1_556 S
C2180 H2176 0.929 . S
C2180 C2182 1.378 . S
C2180 C2184 1.350 . S
C2181 C2184 1.463 . S
C2181 C2186 1.350 . S
C2181 N2189 1.427 . S
C2182 H2173 0.930 . S
C2182 C2180 1.378 . S
C2182 C2183 1.367 . S
C2183 C2182 1.367 . S
C2183 C2185 1.433 . S
C2184 C2180 1.350 . S
C2184 C2181 1.463 . S
C2184 N2188 1.427 . S
C2185 H2175 0.929 . S
C2185 C2183 1.433 . S
C2185 N2188 1.384 . S
C2186 H2177 0.929 . S
C2186 C2178 1.373 1_454 S
C2186 C2181 1.350 . S
C2187 H2174 0.929 . S
C2187 C2179 1.433 1_554 S
C2187 N2189 1.384 1_655 S
N2188 C2184 1.427 . S
N2188 C2185 1.384 . S
N2189 C2181 1.427 . S
N2189 C2187 1.384 1_455 S
H2190 C2196 0.930 . S
H2191 C2200 0.930 . S
H2192 C2205 0.929 . S
H2193 C2203 0.929 . S
H2194 C2198 0.929 . S
H2195 C2204 0.929 . S
C2196 H2190 0.930 . S
C2196 C2197 1.367 . S
C2196 C2204 1.378 . S
C2197 C2196 1.367 . S
C2197 C2205 1.433 . S
C2198 H2194 0.929 . S
C2198 C2200 1.378 . S
C2198 C2202 1.350 . S
C2199 C2202 1.463 . S
C2199 C2204 1.350 . S
C2199 N2207 1.427 . S
C2200 H2191 0.930 . S
C2200 C2198 1.378 . S
C2200 C2201 1.367 . S
C2201 C2200 1.367 . S
C2201 C2203 1.433 . S
C2202 C2198 1.350 . S
C2202 C2199 1.463 . S
C2202 N2206 1.427 . S
C2203 H2193 0.929 . S
C2203 C2201 1.433 . S
C2203 N2206 1.384 . S
C2204 H2195 0.929 . S
C2204 C2196 1.378 . S
C2204 C2199 1.350 . S
C2205 H2192 0.929 . S
C2205 C2197 1.433 . S
C2205 N2207 1.384 . S
N2206 C2202 1.427 . S
N2206 C2203 1.384 . S
N2207 C2199 1.427 . S
N2207 C2205 1.384 . S
H2208 C2214 0.930 . S
H2209 C2218 0.930 . S
H2210 C2223 0.929 . S
H2211 C2221 0.929 . S
H2212 C2216 0.929 . S
H2213 C2222 0.929 . S
C2214 H2208 0.930 . S
C2214 C2215 1.367 . S
C2214 C2222 1.378 . S
C2215 C2214 1.367 . S
C2215 C2223 1.433 . S
C2216 H2212 0.929 . S
C2216 C2218 1.378 . S
C2216 C2220 1.350 . S
C2217 C2220 1.463 . S
C2217 C2222 1.350 . S
C2217 N2225 1.427 . S
C2218 H2209 0.930 . S
C2218 C2216 1.378 . S
C2218 C2219 1.367 . S
C2219 C2218 1.367 . S
C2219 C2221 1.433 . S
C2220 C2216 1.350 . S
C2220 C2217 1.463 . S
C2220 N2224 1.427 . S
C2221 H2211 0.929 . S
C2221 C2219 1.433 . S
C2221 N2224 1.384 . S
C2222 H2213 0.929 . S
C2222 C2214 1.378 . S
C2222 C2217 1.350 . S
C2223 H2210 0.929 . S
C2223 C2215 1.433 . S
C2223 N2225 1.384 . S
N2224 C2220 1.427 . S
N2224 C2221 1.384 . S
N2225 C2217 1.427 . S
N2225 C2223 1.384 . S
H2226 C2232 0.930 . S
H2227 C2236 0.930 . S
H2228 C2241 0.929 . S
H2229 C2239 0.929 . S
H2230 C2234 0.929 . S
H2231 C2240 0.929 . S
C2232 H2226 0.930 . S
C2232 C2233 1.367 . S
C2232 C2240 1.378 . S
C2233 C2232 1.367 . S
C2233 C2241 1.433 . S
C2234 H2230 0.929 . S
C2234 C2236 1.378 . S
C2234 C2238 1.350 . S
C2235 C2238 1.463 . S
C2235 C2240 1.350 . S
C2235 N2243 1.427 . S
C2236 H2227 0.930 . S
C2236 C2234 1.378 . S
C2236 C2237 1.367 . S
C2237 C2236 1.367 . S
C2237 C2239 1.433 . S
C2238 C2234 1.350 . S
C2238 C2235 1.463 . S
C2238 N2242 1.427 . S
C2239 H2229 0.929 . S
C2239 C2237 1.433 . S
C2239 N2242 1.384 . S
C2240 H2231 0.929 . S
C2240 C2232 1.378 . S
C2240 C2235 1.350 . S
C2241 H2228 0.929 . S
C2241 C2233 1.433 . S
C2241 N2243 1.384 . S
N2242 C2238 1.427 . S
N2242 C2239 1.384 . S
N2243 C2235 1.427 . S
N2243 C2241 1.384 . S
H2244 C2250 0.930 . S
H2245 C2254 0.930 . S
H2246 C2259 0.929 . S
H2247 C2257 0.929 . S
H2248 C2252 0.929 . S
H2249 C2258 0.920 1_554 S
C2250 H2244 0.930 . S
C2250 C2251 1.367 . S
C2250 C2258 1.378 1_554 S
C2251 C2250 1.367 . S
C2251 C2259 1.433 1_554 S
C2252 H2248 0.929 . S
C2252 C2254 1.378 . S
C2252 C2256 1.350 . S
C2253 C2256 1.463 . S
C2253 C2258 1.350 . S
C2253 N2261 1.427 . S
C2254 H2245 0.930 . S
C2254 C2252 1.378 . S
C2254 C2255 1.367 . S
C2255 C2254 1.367 . S
C2255 C2257 1.433 . S
C2256 C2252 1.350 . S
C2256 C2253 1.463 . S
C2256 N2260 1.427 . S
C2257 H2247 0.929 . S
C2257 C2255 1.433 . S
C2257 N2260 1.384 . S
C2258 H2249 0.920 1_556 S
C2258 C2250 1.378 1_556 S
C2258 C2253 1.350 . S
C2259 H2246 0.929 . S
C2259 C2251 1.433 1_556 S
C2259 N2261 1.384 . S
N2260 C2256 1.427 . S
N2260 C2257 1.384 . S
N2261 C2253 1.427 . S
N2261 C2259 1.384 . S
H2262 C2268 0.930 . S
H2263 C2272 0.930 . S
H2264 C2277 0.929 . S
H2265 C2275 0.929 . S
H2266 C2270 0.929 . S
H2267 C2276 0.929 . S
C2268 H2262 0.930 . S
C2268 C2269 1.367 . S
C2268 C2276 1.378 . S
C2269 C2268 1.367 . S
C2269 C2277 1.433 . S
C2270 H2266 0.929 . S
C2270 C2272 1.378 1_655 S
C2270 C2274 1.350 . S
C2271 C2274 1.463 . S
C2271 C2276 1.350 . S
C2271 N2279 1.427 . S
C2272 H2263 0.930 . S
C2272 C2270 1.378 1_455 S
C2272 C2273 1.367 . S
C2273 C2272 1.367 . S
C2273 C2275 1.433 . S
C2274 C2270 1.350 . S
C2274 C2271 1.463 . S
C2274 N2278 1.427 . S
C2275 H2265 0.929 . S
C2275 C2273 1.433 . S
C2275 N2278 1.384 1_455 S
C2276 H2267 0.929 . S
C2276 C2268 1.378 . S
C2276 C2271 1.350 . S
C2277 H2264 0.929 . S
C2277 C2269 1.433 . S
C2277 N2279 1.384 . S
N2278 C2274 1.427 . S
N2278 C2275 1.384 1_655 S
N2279 C2271 1.427 . S
N2279 C2277 1.384 . S
C1423 C536 1.195 . S
C1427 C5 1.194 . S
C1441 C64 1.193 . S
C1445 C595 1.193 . S
C1459 C123 1.195 . S
C1463 C654 1.194 . S
C1477 C182 1.200 . S
C1481 C477 1.200 . S
C1495 C241 1.192 . S
C1499 C890 1.191 . S
C1513 C713 1.200 . S
C1517 C300 1.200 . S
C1531 C359 1.198 . S
C1535 C772 1.198 . S
C1549 C831 1.197 . S
C1553 C418 1.197 . S
C1567 C949 1.199 . S
C1571 C1067 1.199 . S
C1585 C1303 1.194 . S
C1589 C1008 1.195 . S
C1603 C1126 1.200 . S
C1607 C1362 1.200 . S
C1621 C1244 1.186 . S
C1625 C1185 1.186 . S
C1639 C1183 2.002 . S
C1643 C3 1.995 . S
C1657 C62 1.993 . S
C1661 C1006 2.002 . S
C1675 C121 1.993 . S
C1679 C1065 1.993 . S
C1693 C180 2.002 . S
C1697 C1124 1.992 . S
C1711 C239 2.001 . S
C1715 C1360 1.998 . S
C1729 C1242 1.992 . S
C1733 C298 2.002 . S
C1747 C1301 1.991 . S
C1751 C357 1.996 . S
C1765 C947 2.001 . S
C1769 C416 1.991 . S
C1783 C888 1.995 . S
C1787 C475 2.002 . S
C1801 C534 2.002 . S
C1805 C711 1.996 . S
C1819 C770 2.002 . S
C1823 C593 1.992 . S
C1837 C829 1.993 . S
C1841 C652 2.002 . S
C1855 C52 1.320 . S
C1859 C977 1.285 . S
C1873 C1390 1.297 . S
C1877 C111 1.309 . S
C1891 C1272 1.282 . S
C1895 C170 1.314 . S
C1909 C229 1.321 . S
C1913 C1331 1.288 . S
C1927 C288 1.308 . S
C1931 C1036 1.289 . S
C1945 C1095 1.282 . S
C1949 C347 1.316 . S
C1963 C1154 1.286 . S
C1967 C406 1.320 . S
C1981 C1213 1.299 . S
C1985 C465 1.314 . S
C1999 C33 1.297 . S
C2003 C524 1.309 . S
C2017 C92 1.284 . S
C2021 C583 1.320 . S
C2035 C151 1.297 . S
C2039 C642 1.318 . S
C2053 C210 1.295 . S
C2057 C701 1.308 . S
C2071 C269 1.283 . S
C2075 C760 1.319 . S
C2089 C328 1.290 . S
C2093 C819 1.321 . S
C2107 C878 1.313 . S
C2111 C387 1.299 . S
C2125 C446 1.292 . S
C2129 C937 1.320 . S
C2143 C505 1.296 . S
C2147 C996 1.308 . S
C2161 C1055 1.308 . S
C2165 C741 1.290 . S
C2179 C800 1.295 . S
C2183 C1114 1.319 . S
C2197 C1173 1.320 . S
C2201 C859 1.286 . S
C2215 C1232 1.319 . S
C2219 C918 1.284 . S
C2233 C1291 1.309 . S
C2237 C623 1.297 . S
C2251 C682 1.291 . S
C2255 C1350 1.320 . S
C2269 C1409 1.311 . S
C2273 C564 1.284 . S
