# Generated by pormake.
# Topology fob, (5)-cn, num edge types: 1
# Building blocks:
#     Node 0, Type 0, BuildingBlock: BEQFEK_clean_sbu_0, # of connection points: 5
#     Node 1, Type 0, BuildingBlock: BEQFEK_clean_sbu_0, # of connection points: 5
#     Node 2, Type 0, BuildingBlock: BEQFEK_clean_sbu_0, # of connection points: 5
#     Node 3, Type 0, BuildingBlock: BEQFEK_clean_sbu_0, # of connection points: 5
#     Node 4, Type 0, BuildingBlock: BEQFEK_clean_sbu_0, # of connection points: 5
#     Node 5, Type 0, BuildingBlock: BEQFEK_clean_sbu_0, # of connection points: 5
#     Node 6, Type 0, BuildingBlock: BEQFEK_clean_sbu_0, # of connection points: 5
#     Node 7, Type 0, BuildingBlock: BEQFEK_clean_sbu_0, # of connection points: 5
#     Node 8, Type 0, BuildingBlock: BEQFEK_clean_sbu_0, # of connection points: 5
#     Node 9, Type 0, BuildingBlock: BEQFEK_clean_sbu_0, # of connection points: 5
#     Node 10, Type 0, BuildingBlock: BEQFEK_clean_sbu_0, # of connection points: 5
#     Node 11, Type 0, BuildingBlock: BEQFEK_clean_sbu_0, # of connection points: 5
#     Node 12, Type 0, BuildingBlock: BEQFEK_clean_sbu_0, # of connection points: 5
#     Node 13, Type 0, BuildingBlock: BEQFEK_clean_sbu_0, # of connection points: 5
#     Node 14, Type 0, BuildingBlock: BEQFEK_clean_sbu_0, # of connection points: 5
#     Node 15, Type 0, BuildingBlock: BEQFEK_clean_sbu_0, # of connection points: 5
#     Edge 16, Type (0, 0), BuildingBlock: TEMPAE_clean_linker_10, # of connection points: 2
#     Edge 17, Type (0, 0), BuildingBlock: TEMPAE_clean_linker_10, # of connection points: 2
#     Edge 18, Type (0, 0), BuildingBlock: TEMPAE_clean_linker_10, # of connection points: 2
#     Edge 19, Type (0, 0), BuildingBlock: TEMPAE_clean_linker_10, # of connection points: 2
#     Edge 20, Type (0, 0), BuildingBlock: TEMPAE_clean_linker_10, # of connection points: 2
#     Edge 21, Type (0, 0), BuildingBlock: TEMPAE_clean_linker_10, # of connection points: 2
#     Edge 22, Type (0, 0), BuildingBlock: TEMPAE_clean_linker_10, # of connection points: 2
#     Edge 23, Type (0, 0), BuildingBlock: TEMPAE_clean_linker_10, # of connection points: 2
#     Edge 24, Type (0, 0), BuildingBlock: TEMPAE_clean_linker_10, # of connection points: 2
#     Edge 25, Type (0, 0), BuildingBlock: TEMPAE_clean_linker_10, # of connection points: 2
#     Edge 26, Type (0, 0), BuildingBlock: TEMPAE_clean_linker_10, # of connection points: 2
#     Edge 27, Type (0, 0), BuildingBlock: TEMPAE_clean_linker_10, # of connection points: 2
#     Edge 28, Type (0, 0), BuildingBlock: TEMPAE_clean_linker_10, # of connection points: 2
#     Edge 29, Type (0, 0), BuildingBlock: TEMPAE_clean_linker_10, # of connection points: 2
#     Edge 30, Type (0, 0), BuildingBlock: TEMPAE_clean_linker_10, # of connection points: 2
#     Edge 31, Type (0, 0), BuildingBlock: TEMPAE_clean_linker_10, # of connection points: 2
#     Edge 32, Type (0, 0), BuildingBlock: TEMPAE_clean_linker_10, # of connection points: 2
#     Edge 33, Type (0, 0), BuildingBlock: TEMPAE_clean_linker_10, # of connection points: 2
#     Edge 34, Type (0, 0), BuildingBlock: TEMPAE_clean_linker_10, # of connection points: 2
#     Edge 35, Type (0, 0), BuildingBlock: TEMPAE_clean_linker_10, # of connection points: 2
#     Edge 36, Type (0, 0), BuildingBlock: TEMPAE_clean_linker_10, # of connection points: 2
#     Edge 37, Type (0, 0), BuildingBlock: TEMPAE_clean_linker_10, # of connection points: 2
#     Edge 38, Type (0, 0), BuildingBlock: TEMPAE_clean_linker_10, # of connection points: 2
#     Edge 39, Type (0, 0), BuildingBlock: TEMPAE_clean_linker_10, # of connection points: 2
#     Edge 40, Type (0, 0), BuildingBlock: TEMPAE_clean_linker_10, # of connection points: 2
#     Edge 41, Type (0, 0), BuildingBlock: TEMPAE_clean_linker_10, # of connection points: 2
#     Edge 42, Type (0, 0), BuildingBlock: TEMPAE_clean_linker_10, # of connection points: 2
#     Edge 43, Type (0, 0), BuildingBlock: TEMPAE_clean_linker_10, # of connection points: 2
#     Edge 44, Type (0, 0), BuildingBlock: TEMPAE_clean_linker_10, # of connection points: 2
#     Edge 45, Type (0, 0), BuildingBlock: TEMPAE_clean_linker_10, # of connection points: 2
#     Edge 46, Type (0, 0), BuildingBlock: TEMPAE_clean_linker_10, # of connection points: 2
#     Edge 47, Type (0, 0), BuildingBlock: TEMPAE_clean_linker_10, # of connection points: 2
#     Edge 48, Type (0, 0), BuildingBlock: TEMPAE_clean_linker_10, # of connection points: 2
#     Edge 49, Type (0, 0), BuildingBlock: TEMPAE_clean_linker_10, # of connection points: 2
#     Edge 50, Type (0, 0), BuildingBlock: TEMPAE_clean_linker_10, # of connection points: 2
#     Edge 51, Type (0, 0), BuildingBlock: TEMPAE_clean_linker_10, # of connection points: 2
#     Edge 52, Type (0, 0), BuildingBlock: TEMPAE_clean_linker_10, # of connection points: 2
#     Edge 53, Type (0, 0), BuildingBlock: TEMPAE_clean_linker_10, # of connection points: 2
#     Edge 54, Type (0, 0), BuildingBlock: TEMPAE_clean_linker_10, # of connection points: 2
#     Edge 55, Type (0, 0), BuildingBlock: TEMPAE_clean_linker_10, # of connection points: 2
# Relax obj value: 0.090
# Max RMSD: 0.162
# Mean RMSD: 0.162
data_MOF--net-fob--node1-BEQFEK_clean_sbu_0--edge1-TEMPAE_clean_linker_10
_symmetry_space_group_name_H-M    P1
_symmetry_Int_Tables_number       1
_symmetry_cell_setting            triclinic
loop_
_symmetry_equiv_pos_as_xyz
'x, y, z'
_cell_length_a     19.941897
_cell_length_b     75.476942
_cell_length_c     55.446989
_cell_angle_alpha  90.056603
_cell_angle_beta   90.551436
_cell_angle_gamma 89.901296
loop_
_atom_site_label
_atom_site_type_symbol
_atom_site_fract_x
_atom_site_fract_y
_atom_site_fract_z
_atom_type_partial_charge
Co0 Co 0.09736 0.09815 0.46497 0.0
Co1 Co 0.10847 0.13971 0.46148 0.0
C2 C 0.18155 0.11581 0.4276 0.0
O3 O 0.15595 0.10191 0.4368 0.0
O4 O 0.17057 0.13129 0.43605 0.0
C5 C 0.11164 0.05918 0.46409 0.0
O6 O 0.15076 0.0608 0.44529 0.0
C7 C 0.15822 0.17656 0.46793 0.0
C8 C 0.06138 0.19081 0.46949 0.0
C9 C 0.12997 0.19321 0.47162 0.0
N10 N 0.10817 0.16491 0.46416 0.0
N11 N 0.05065 0.17361 0.46474 0.0
C12 C 0.23047 0.1714 0.47005 0.0
H13 H 0.23536 0.1569 0.47298 0.0
H14 H 0.25514 0.17874 0.48504 0.0
H15 H 0.25626 0.17484 0.45305 0.0
C16 C 0.14466 0.10579 0.51428 0.0
N17 N 0.12736 0.11125 0.492 0.0
N18 N 0.12754 0.12868 0.49137 0.0
C19 C 0.14241 0.13489 0.51358 0.0
C20 C 0.15448 0.12058 0.52875 0.0
C21 C 0.15277 0.08674 0.52124 0.0
H22 H 0.17884 0.07946 0.50668 0.0
H23 H 0.18202 0.08532 0.53825 0.0
H24 H 0.1025 0.08073 0.52357 0.0
O25 O 0.00616 0.10507 0.45505 0.0
O26 O 0.01771 0.13399 0.45051 0.0
H27 H 0.12588 0.15527 0.54036 0.0
H28 H 0.18513 0.16071 0.51729 0.0
C29 C 0.13697 0.15395 0.52088 0.0
H30 H 0.09646 0.16058 0.51049 0.0
H31 H 0.00368 0.16769 0.46278 0.0
O32 O 0.0879 0.07295 0.47405 0.0
C33 C 0.98242 0.12006 0.44905 0.0
Co34 Co 0.12026 0.09745 0.7704 0.0
Co35 Co 0.09935 0.13891 0.77543 0.0
C36 C 0.99133 0.11347 0.7881 0.0
O37 O 0.02861 0.10013 0.78353 0.0
O38 O 0.01058 0.12932 0.78419 0.0
C39 C 0.16491 0.0614 0.77627 0.0
O40 O 0.17106 0.06596 0.79906 0.0
C41 C 0.05617 0.17594 0.76553 0.0
C42 C 0.14225 0.19062 0.78102 0.0
C43 C 0.08191 0.19292 0.76886 0.0
N44 N 0.10008 0.16423 0.77497 0.0
N45 N 0.15112 0.17313 0.7843 0.0
C46 C 0.98985 0.1709 0.75469 0.0
H47 H 0.97346 0.15784 0.76157 0.0
H48 H 0.99451 0.16989 0.73483 0.0
H49 H 0.95142 0.1811 0.75879 0.0
C50 C 0.15138 0.10823 0.72083 0.0
N51 N 0.13435 0.11226 0.74359 0.0
N52 N 0.13036 0.12957 0.74589 0.0
C53 C 0.14709 0.13716 0.7248 0.0
C54 C 0.16058 0.12388 0.70819 0.0
C55 C 0.15271 0.08972 0.71105 0.0
H56 H 0.11072 0.08198 0.71867 0.0
H57 H 0.14814 0.08949 0.69111 0.0
H58 H 0.20052 0.08326 0.71651 0.0
O59 O 0.182 0.10362 0.79702 0.0
O60 O 0.15814 0.13213 0.8023 0.0
H61 H 0.18331 0.15967 0.70464 0.0
H62 H 0.10261 0.16252 0.71848 0.0
C63 C 0.15326 0.1567 0.72088 0.0
H64 H 0.17772 0.16296 0.73674 0.0
H65 H 0.19257 0.16723 0.79267 0.0
O66 O 0.14089 0.07252 0.7613 0.0
C67 C 0.18803 0.11802 0.8087 0.0
Co68 Co 0.8994 0.9052 0.51765 0.0
Co69 Co 0.86423 0.86443 0.5175 0.0
C70 C 0.78662 0.88891 0.54727 0.0
O71 O 0.82457 0.90165 0.54075 0.0
O72 O 0.79254 0.87328 0.53864 0.0
C73 C 0.96115 0.93924 0.52314 0.0
O74 O 0.99338 0.93133 0.54088 0.0
C75 C 0.81647 0.82718 0.51054 0.0
C76 C 0.91216 0.81523 0.49875 0.0
C77 C 0.84531 0.81143 0.50259 0.0
N78 N 0.86446 0.83968 0.51108 0.0
N79 N 0.92148 0.83235 0.5043 0.0
C80 C 0.74412 0.83074 0.51553 0.0
H81 H 0.73305 0.84511 0.51388 0.0
H82 H 0.7116 0.82308 0.50296 0.0
H83 H 0.73286 0.82655 0.53423 0.0
C84 C 0.87687 0.90009 0.46556 0.0
N85 N 0.88037 0.89386 0.48825 0.0
N86 N 0.8647 0.87695 0.48821 0.0
C87 C 0.85 0.87188 0.46552 0.0
C88 C 0.85737 0.88635 0.45049 0.0
C89 C 0.89418 0.91866 0.45854 0.0
H90 H 0.94292 0.9224 0.46689 0.0
H91 H 0.85534 0.92782 0.46553 0.0
H92 H 0.8975 0.92018 0.43869 0.0
O93 O 0.9805 0.89537 0.53276 0.0
O94 O 0.94741 0.86753 0.53585 0.0
H95 H 0.86689 0.84425 0.45966 0.0
H96 H 0.80349 0.85371 0.44008 0.0
C97 C 0.82489 0.85387 0.45862 0.0
H98 H 0.78565 0.84969 0.4714 0.0
H99 H 0.96662 0.83922 0.50284 0.0
O100 O 0.91596 0.93079 0.51161 0.0
C101 C 0.9895 0.87968 0.54032 0.0
Co102 Co 0.88046 0.91235 0.20737 0.0
Co103 Co 0.91138 0.87095 0.20828 0.0
C104 C 0.01926 0.89651 0.1988 0.0
O105 O 0.97729 0.90931 0.19997 0.0
O106 O 0.00219 0.88052 0.20314 0.0
C107 C 0.80981 0.94558 0.20221 0.0
O108 O 0.77883 0.93724 0.18456 0.0
C109 C 0.94986 0.83327 0.21927 0.0
C110 C 0.85308 0.8204 0.21056 0.0
C111 C 0.91716 0.81693 0.21915 0.0
N112 N 0.90645 0.8457 0.21127 0.0
N113 N 0.84913 0.83782 0.20589 0.0
C114 C 0.01892 0.83732 0.22845 0.0
H115 H 0.02353 0.85159 0.23299 0.0
H116 H 0.0309 0.82913 0.24454 0.0
H117 H 0.05572 0.83417 0.21418 0.0
C118 C 0.83206 0.90401 0.25572 0.0
N119 N 0.85645 0.89887 0.23432 0.0
N120 N 0.86995 0.88181 0.23504 0.0
C121 C 0.85518 0.87559 0.25712 0.0
C122 C 0.83074 0.88948 0.27089 0.0
C123 C 0.81426 0.92272 0.26198 0.0
H124 H 0.77821 0.92795 0.2484 0.0
H125 H 0.86013 0.93101 0.26155 0.0
H126 H 0.7913 0.92367 0.28009 0.0
O127 O 0.83128 0.90417 0.17884 0.0
O128 O 0.86207 0.87587 0.17814 0.0
H129 H 0.84197 0.84752 0.25582 0.0
H130 H 0.86439 0.85575 0.28535 0.0
C131 C 0.87284 0.85737 0.26575 0.0
H132 H 0.92629 0.85464 0.26191 0.0
H133 H 0.80655 0.84445 0.19955 0.0
O134 O 0.85722 0.93776 0.21353 0.0
C135 C 0.83231 0.88908 0.16873 0.0
Co136 Co 0.10223 0.60162 0.96977 0.0
Co137 Co 0.11471 0.64322 0.96743 0.0
C138 C 0.18682 0.61983 0.93275 0.0
O139 O 0.16076 0.60588 0.94168 0.0
O140 O 0.17639 0.63524 0.94155 0.0
C141 C 0.111 0.56276 0.96585 0.0
O142 O 0.14333 0.56498 0.94555 0.0
C143 C 0.16281 0.68021 0.97422 0.0
C144 C 0.06549 0.6937 0.97959 0.0
C145 C 0.134 0.6965 0.97974 0.0
N146 N 0.11321 0.66833 0.97129 0.0
N147 N 0.05529 0.67658 0.97413 0.0
C148 C 0.23572 0.67557 0.974 0.0
H149 H 0.2427 0.66105 0.97605 0.0
H150 H 0.26288 0.68272 0.98862 0.0
H151 H 0.25725 0.67968 0.95651 0.0
C152 C 0.15264 0.60843 0.01902 0.0
N153 N 0.13357 0.61421 -0.00293 0.0
N154 N 0.13472 0.63164 -0.00318 0.0
C155 C 0.15207 0.63754 0.01895 0.0
C156 C 0.16486 0.62301 0.03366 0.0
C157 C 0.16051 0.58927 0.02544 0.0
H158 H 0.18499 0.5821 0.01042 0.0
H159 H 0.19109 0.58754 0.0421 0.0
H160 H 0.11021 0.58337 0.02815 0.0
O161 O 0.01078 0.60884 0.9604 0.0
O162 O 0.02386 0.63775 0.95667 0.0
H163 H 0.10602 0.66326 0.0175 0.0
H164 H 0.14175 0.65783 0.04636 0.0
C165 C 0.14863 0.65656 0.02661 0.0
H166 H 0.19583 0.66331 0.02165 0.0
H167 H 0.00863 0.67037 0.97331 0.0
O168 O 0.09293 0.57621 0.97796 0.0
C169 C 0.98767 0.62402 0.95497 0.0
Co170 Co 0.11929 0.59991 0.27264 0.0
Co171 Co 0.08927 0.64104 0.27834 0.0
C172 C 0.98554 0.61365 0.28898 0.0
O173 O 0.02594 0.60099 0.28428 0.0
O174 O 0.00185 0.62987 0.28599 0.0
C175 C 0.11578 0.56119 0.26474 0.0
O176 O 0.05356 0.5615 0.27231 0.0
C177 C 0.04244 0.67809 0.2686 0.0
C178 C 0.12258 0.69297 0.28751 0.0
C179 C 0.065 0.69518 0.2737 0.0
N180 N 0.08549 0.66643 0.27875 0.0
N181 N 0.13294 0.67549 0.29008 0.0
C182 C 0.97961 0.67286 0.25549 0.0
H183 H 0.96448 0.65924 0.26061 0.0
H184 H 0.98843 0.67306 0.23578 0.0
H185 H 0.93861 0.68236 0.25948 0.0
C186 C 0.15422 0.61174 0.22408 0.0
N187 N 0.133 0.61529 0.24649 0.0
N188 N 0.12548 0.63251 0.24905 0.0
C189 C 0.14438 0.64054 0.22851 0.0
C190 C 0.16295 0.62763 0.21199 0.0
C191 C 0.15974 0.59337 0.21398 0.0
H192 H 0.11842 0.58505 0.2209 0.0
H193 H 0.15704 0.59331 0.194 0.0
H194 H 0.2081 0.58743 0.2199 0.0
O195 O 0.17649 0.60667 0.30019 0.0
O196 O 0.14779 0.63484 0.30557 0.0
H197 H 0.18141 0.66368 0.20994 0.0
H198 H 0.09738 0.66546 0.22135 0.0
C199 C 0.14824 0.66019 0.22517 0.0
H200 H 0.16787 0.66652 0.24182 0.0
H201 H 0.17308 0.66971 0.29939 0.0
O202 O 0.14879 0.57556 0.26377 0.0
C203 C 0.17961 0.62105 0.31206 0.0
Co204 Co 0.9066 0.40764 0.02075 0.0
Co205 Co 0.88015 0.36645 0.02606 0.0
C206 C 0.80458 0.39327 0.05473 0.0
O207 O 0.83783 0.40608 0.04589 0.0
O208 O 0.81296 0.3773 0.04779 0.0
C209 C 0.96684 0.44181 0.02332 0.0
O210 O -0.00353 0.43475 0.04228 0.0
C211 C 0.81922 0.33086 0.01852 0.0
C212 C 0.90601 0.31385 0.02788 0.0
C213 C 0.84 0.31327 0.02001 0.0
N214 N 0.87114 0.34127 0.02497 0.0
N215 N 0.92259 0.33097 0.03064 0.0
C216 C 0.75067 0.33772 0.01248 0.0
H217 H 0.74396 0.35128 0.01983 0.0
H218 H 0.74412 0.33832 0.99262 0.0
H219 H 0.71181 0.32872 0.01975 0.0
C220 C 0.88501 0.3987 0.97004 0.0
N221 N 0.88394 0.39406 0.99338 0.0
N222 N 0.87859 0.37672 -0.00494 0.0
C223 C 0.87908 0.36969 0.97273 0.0
C224 C 0.88285 0.38342 0.95618 0.0
C225 C 0.8896 0.41746 0.96142 0.0
H226 H 0.85735 0.42609 0.97264 0.0
H227 H 0.87354 0.41867 0.94228 0.0
H228 H 0.94216 0.4221 0.96335 0.0
O229 O 0.99079 0.39873 0.03489 0.0
O230 O 0.96776 0.37039 0.04085 0.0
H231 H 0.91846 0.34397 0.98169 0.0
H232 H 0.91135 0.34809 0.94982 0.0
C233 C 0.88723 0.35032 0.96752 0.0
H234 H 0.83728 0.34393 0.96713 0.0
H235 H 0.96951 0.33562 0.03618 0.0
O236 O 0.92345 0.43277 0.01171 0.0
C237 C 0.00703 0.38352 0.04281 0.0
Co238 Co 0.83654 0.40537 0.71322 0.0
Co239 Co 0.85227 0.36379 0.70971 0.0
C240 C 0.91597 0.38834 0.67422 0.0
O241 O 0.89028 0.4021 0.68382 0.0
O242 O 0.90794 0.37285 0.68294 0.0
C243 C 0.79362 0.44121 0.70838 0.0
O244 O 0.77233 0.43551 0.68726 0.0
C245 C 0.90899 0.3275 0.71642 0.0
C246 C 0.81542 0.31188 0.71455 0.0
C247 C 0.88381 0.31036 0.71854 0.0
N248 N 0.8573 0.33853 0.71176 0.0
N249 N 0.80188 0.32901 0.71034 0.0
C250 C 0.97945 0.33364 0.72052 0.0
H251 H 0.98065 0.34814 0.72383 0.0
H252 H 0.00261 0.32647 0.73597 0.0
H253 H 0.00931 0.33079 0.70418 0.0
C254 C 0.88986 0.39825 0.76163 0.0
N255 N 0.87351 0.39257 0.73941 0.0
N256 N 0.87463 0.37513 0.739 0.0
C257 C 0.8884 0.36913 0.76138 0.0
C258 C 0.89908 0.38361 0.77638 0.0
C259 C 0.89449 0.41738 0.76858 0.0
H260 H 0.91918 0.42495 0.75402 0.0
H261 H 0.92344 0.41912 0.78561 0.0
H262 H 0.8432 0.42279 0.77094 0.0
O263 O 0.74446 0.39744 0.70624 0.0
O264 O 0.75858 0.36856 0.70195 0.0
H265 H 0.86345 0.34942 0.78812 0.0
H266 H 0.92854 0.34323 0.76759 0.0
C267 C 0.8799 0.35025 0.7691 0.0
H268 H 0.84209 0.34352 0.7576 0.0
H269 H 0.75411 0.33428 0.70722 0.0
O270 O 0.82647 0.43071 0.72198 0.0
C271 C 0.72113 0.38214 0.70166 0.0
Co272 Co 0.60463 0.10107 0.96705 0.0
Co273 Co 0.61642 0.14269 0.96272 0.0
C274 C 0.69175 0.11856 0.93009 0.0
O275 O 0.66487 0.10485 0.93933 0.0
O276 O 0.68091 0.13415 0.93817 0.0
C277 C 0.56021 0.0656 0.96261 0.0
O278 O 0.53403 0.07202 0.9426 0.0
C279 C 0.66377 0.17987 0.96872 0.0
C280 C 0.56613 0.1938 0.96853 0.0
C281 C 0.63437 0.19653 0.97136 0.0
N282 N 0.61469 0.16796 0.96483 0.0
N283 N 0.5567 0.17646 0.96439 0.0
C284 C 0.73605 0.17499 0.97182 0.0
H285 H 0.74132 0.16057 0.97531 0.0
H286 H 0.75909 0.18268 0.98682 0.0
H287 H 0.76317 0.17817 0.95499 0.0
C288 C 0.64771 0.10933 0.0167 0.0
N289 N 0.63239 0.11449 0.99412 0.0
N290 N 0.63288 0.13191 0.99303 0.0
C291 C 0.64604 0.13842 0.01522 0.0
C292 C 0.65667 0.12432 0.03087 0.0
C293 C 0.65464 0.09037 0.02422 0.0
H294 H 0.68115 0.08279 0.01005 0.0
H295 H 0.68288 0.08911 0.04148 0.0
H296 H 0.60399 0.08454 0.02634 0.0
O297 O 0.51393 0.10791 0.95643 0.0
O298 O 0.52704 0.13665 0.9507 0.0
H299 H 0.60064 0.16409 0.01102 0.0
H300 H 0.62779 0.1592 0.04128 0.0
C301 C 0.6403 0.15759 0.02195 0.0
H302 H 0.6888 0.16426 0.01865 0.0
H303 H 0.51023 0.17033 0.96206 0.0
O304 O 0.59696 0.07559 0.97564 0.0
C305 C 0.49137 0.12279 0.94945 0.0
Co306 Co 0.61053 0.09871 0.26955 0.0
Co307 Co 0.59029 0.1399 0.27744 0.0
C308 C 0.47947 0.11439 0.28596 0.0
O309 O 0.51705 0.10115 0.28105 0.0
O310 O 0.49966 0.13035 0.28366 0.0
C311 C 0.60873 0.05961 0.26472 0.0
O312 O 0.55833 0.05928 0.2798 0.0
C313 C 0.55296 0.17761 0.26961 0.0
C314 C 0.64215 0.19075 0.28542 0.0
C315 C 0.58275 0.19408 0.27311 0.0
N316 N 0.5936 0.16516 0.27917 0.0
N317 N 0.64615 0.17317 0.28893 0.0
C318 C 0.49065 0.17353 0.25545 0.0
H319 H 0.4905 0.15945 0.24965 0.0
H320 H 0.48649 0.18236 0.2395 0.0
H321 H 0.4464 0.17587 0.26701 0.0
C322 C 0.64749 0.11134 0.22147 0.0
N323 N 0.6287 0.11457 0.24427 0.0
N324 N 0.62474 0.13178 0.24771 0.0
C325 C 0.64322 0.14009 0.2273 0.0
C326 C 0.65805 0.1274 0.21001 0.0
C327 C 0.64806 0.09324 0.21032 0.0
H328 H 0.60509 0.08542 0.21702 0.0
H329 H 0.64457 0.09382 0.19037 0.0
H330 H 0.69515 0.08635 0.21558 0.0
O331 O 0.66857 0.10335 0.29772 0.0
O332 O 0.64502 0.13168 0.30472 0.0
H333 H 0.67922 0.16331 0.20865 0.0
H334 H 0.5977 0.16546 0.22211 0.0
C335 C 0.64856 0.15975 0.22452 0.0
H336 H 0.67198 0.1656 0.24085 0.0
H337 H 0.68624 0.16654 0.29715 0.0
O338 O 0.63399 0.07439 0.25874 0.0
C339 C 0.67344 0.11723 0.31058 0.0
Co340 Co 0.41608 0.90743 0.02408 0.0
Co341 Co 0.38728 0.86636 0.02725 0.0
C342 C 0.33154 0.89149 0.06323 0.0
O343 O 0.36107 0.90471 0.05368 0.0
O344 O 0.33491 0.87591 0.05436 0.0
C345 C 0.40162 0.94649 0.02236 0.0
O346 O 0.34881 0.9451 0.03621 0.0
C347 C 0.32544 0.83032 0.02452 0.0
C348 C 0.4167 0.81445 0.01771 0.0
C349 C 0.34817 0.81314 0.02062 0.0
N350 N 0.37852 0.8413 0.02374 0.0
N351 N 0.43273 0.83166 0.01976 0.0
C352 C 0.25538 0.83607 0.03001 0.0
H353 H 0.25493 0.84974 0.03735 0.0
H354 H 0.22447 0.83577 0.01329 0.0
H355 H 0.23248 0.82677 0.04306 0.0
C356 C 0.36371 0.90139 0.97496 0.0
N357 N 0.37664 0.89563 -0.00253 0.0
N358 N 0.36566 0.87846 -0.00148 0.0
C359 C 0.34562 0.87272 0.97665 0.0
C360 C 0.34362 0.88704 0.96107 0.0
C361 C 0.37935 0.91971 0.96636 0.0
H362 H 0.43295 0.92266 0.97007 0.0
H363 H 0.34875 0.9294 0.97655 0.0
H364 H 0.36921 0.92134 0.9468 0.0
O365 O 0.50559 0.8978 0.03063 0.0
O366 O 0.48245 0.86937 0.03508 0.0
H367 H 0.37878 0.84581 0.97386 0.0
H368 H 0.31679 0.85207 0.95132 0.0
C369 C 0.33274 0.85372 0.97041 0.0
H370 H 0.29252 0.84858 0.98206 0.0
H371 H 0.48099 0.83684 0.01824 0.0
O372 O 0.43291 0.93261 0.016 0.0
C373 C 0.52404 0.88206 0.03522 0.0
Co374 Co 0.3609 0.90748 0.7133 0.0
Co375 Co 0.39972 0.86673 0.71475 0.0
C376 C 0.48759 0.89252 0.69083 0.0
O377 O 0.44632 0.90506 0.69526 0.0
O378 O 0.47872 0.87679 0.69865 0.0
C379 C 0.3719 0.94602 0.72149 0.0
O380 O 0.43732 0.94423 0.72026 0.0
C381 C 0.45249 0.82987 0.72359 0.0
C382 C 0.35623 0.8154 0.72179 0.0
C383 C 0.42445 0.81303 0.72507 0.0
N384 N 0.40259 0.84163 0.7197 0.0
N385 N 0.34542 0.83281 0.71872 0.0
C386 C 0.52525 0.83459 0.72474 0.0
H387 H 0.53424 0.84747 0.71575 0.0
H388 H 0.54117 0.83576 0.7439 0.0
H389 H 0.5559 0.82406 0.71621 0.0
C390 C 0.35093 0.9012 0.76546 0.0
N391 N 0.36433 0.89555 0.74301 0.0
N392 N 0.38111 0.87869 0.74376 0.0
C393 C 0.37966 0.8731 0.76678 0.0
C394 C 0.36033 0.88718 0.7812 0.0
C395 C 0.32573 0.91937 0.77142 0.0
H396 H 0.28441 0.92301 0.75884 0.0
H397 H 0.36698 0.92905 0.76917 0.0
H398 H 0.307 0.92018 0.79016 0.0
O399 O 0.29082 0.89741 0.69269 0.0
O400 O 0.32589 0.86954 0.69146 0.0
H401 H 0.36047 0.84532 0.76902 0.0
H402 H 0.40607 0.85414 0.79468 0.0
C403 C 0.39955 0.8549 0.77482 0.0
H404 H 0.44731 0.85113 0.76616 0.0
H405 H 0.29868 0.83872 0.71582 0.0
O406 O 0.33465 0.93254 0.71856 0.0
C407 C 0.28623 0.88173 0.68457 0.0
Co408 Co 0.59581 0.59619 0.46747 0.0
Co409 Co 0.62307 0.63723 0.46457 0.0
C410 C 0.69038 0.61236 0.43127 0.0
O411 O 0.6588 0.59915 0.44 0.0
O412 O 0.68439 0.62801 0.43979 0.0
C413 C 0.61446 0.55732 0.47237 0.0
O414 O 0.67331 0.55864 0.46209 0.0
C415 C 0.67565 0.67431 0.46757 0.0
C416 C 0.58058 0.68824 0.47541 0.0
C417 C 0.64831 0.69095 0.47197 0.0
N418 N 0.62593 0.6623 0.46859 0.0
N419 N 0.56944 0.67078 0.47323 0.0
C420 C 0.74679 0.67002 0.4615 0.0
H421 H 0.7499 0.65709 0.45206 0.0
H422 H 0.77705 0.66918 0.47835 0.0
H423 H 0.76841 0.68063 0.45013 0.0
C424 C 0.6358 0.60287 0.51811 0.0
N425 N 0.6258 0.6084 0.4953 0.0
N426 N 0.63692 0.62556 0.49416 0.0
C427 C 0.65453 0.6315 0.5162 0.0
C428 C 0.65449 0.61733 0.53205 0.0
C429 C 0.62157 0.58445 0.52665 0.0
H430 H 0.57047 0.5805 0.52069 0.0
H431 H 0.65787 0.57517 0.51835 0.0
H432 H 0.62504 0.58333 0.54656 0.0
O433 O 0.50805 0.60498 0.45678 0.0
O434 O 0.53196 0.63335 0.45233 0.0
H435 H 0.62568 0.6587 0.51933 0.0
H436 H 0.68998 0.65196 0.54069 0.0
C437 C 0.67108 0.65038 0.52194 0.0
H438 H 0.71005 0.65508 0.50941 0.0
H439 H 0.52297 0.66461 0.47503 0.0
O440 O 0.57904 0.57111 0.47548 0.0
C441 C 0.49125 0.62053 0.45048 0.0
Co442 Co 0.62845 0.59604 0.77836 0.0
Co443 Co 0.60252 0.6374 0.77722 0.0
C444 C 0.49643 0.61337 0.79327 0.0
O445 O 0.53587 0.60011 0.79077 0.0
O446 O 0.51331 0.62902 0.787 0.0
C447 C 0.61045 0.55768 0.76913 0.0
O448 O 0.54533 0.5601 0.7704 0.0
C449 C 0.56506 0.6753 0.76837 0.0
C450 C 0.66664 0.68701 0.76782 0.0
C451 C 0.59942 0.69114 0.765 0.0
N452 N 0.61034 0.66244 0.77286 0.0
N453 N 0.67074 0.66961 0.77274 0.0
C454 C 0.49146 0.67208 0.76542 0.0
H455 H 0.482 0.6581 0.76024 0.0
H456 H 0.4696 0.68111 0.75163 0.0
H457 H 0.46643 0.67467 0.78287 0.0
C458 C 0.66204 0.60306 0.72779 0.0
N459 N 0.64361 0.60865 0.74979 0.0
N460 N 0.6313 0.62575 0.74901 0.0
C461 C 0.64022 0.63156 0.7263 0.0
C462 C 0.66028 0.61736 0.71219 0.0
C463 C 0.68122 0.58438 0.72189 0.0
H464 H 0.718 0.5795 0.73546 0.0
H465 H 0.63602 0.57586 0.7226 0.0
H466 H 0.70379 0.58334 0.70373 0.0
O467 O 0.6895 0.60388 0.80387 0.0
O468 O 0.66085 0.63233 0.80524 0.0
H469 H 0.66271 0.65914 0.72366 0.0
H470 H 0.6177 0.65046 0.69789 0.0
C471 C 0.62277 0.64983 0.71781 0.0
H472 H 0.57491 0.65411 0.72598 0.0
H473 H 0.71507 0.66249 0.77545 0.0
O474 O 0.64965 0.5707 0.77259 0.0
C475 C 0.69278 0.61908 0.81359 0.0
Co476 Co 0.36664 0.40689 0.5266 0.0
Co477 Co 0.3338 0.36583 0.52814 0.0
C478 C 0.22879 0.3921 0.53828 0.0
O479 O 0.27101 0.40471 0.53609 0.0
O480 O 0.24466 0.37599 0.5342 0.0
C481 C 0.42989 0.44102 0.53217 0.0
O482 O 0.45222 0.43436 0.5526 0.0
C483 C 0.28941 0.32844 0.51976 0.0
C484 C 0.38565 0.31467 0.52672 0.0
C485 C 0.31969 0.31181 0.51986 0.0
N486 N 0.33602 0.34057 0.52589 0.0
N487 N 0.39314 0.33218 0.53017 0.0
C488 C 0.21709 0.33266 0.51504 0.0
H489 H 0.20187 0.34455 0.52538 0.0
H490 H 0.20953 0.33548 0.49558 0.0
H491 H 0.18478 0.3213 0.52002 0.0
C492 C 0.4048 0.39727 0.47748 0.0
N493 N 0.38543 0.39272 0.49975 0.0
N494 N 0.37115 0.37572 0.50011 0.0
C495 C 0.38001 0.36895 0.47789 0.0
C496 C 0.4014 0.38243 0.46285 0.0
C497 C 0.42189 0.41576 0.47002 0.0
H498 H 0.45983 0.4213 0.48267 0.0
H499 H 0.37624 0.42416 0.47089 0.0
H500 H 0.44219 0.41616 0.45146 0.0
O501 O 0.42011 0.39923 0.5543 0.0
O502 O 0.38705 0.37122 0.55728 0.0
H503 H 0.3907 0.34081 0.47976 0.0
H504 H 0.36163 0.34865 0.45077 0.0
C505 C 0.35846 0.35073 0.47051 0.0
H506 H 0.30603 0.34856 0.47618 0.0
H507 H 0.43767 0.33849 0.53516 0.0
O508 O 0.39013 0.43191 0.51907 0.0
C509 C 0.41923 0.38451 0.56529 0.0
Co510 Co 0.38166 0.4108 0.21857 0.0
Co511 Co 0.4183 0.36991 0.21449 0.0
C512 C 0.51346 0.39701 0.19851 0.0
O513 O 0.47127 0.40929 0.20316 0.0
O514 O 0.50215 0.38081 0.20364 0.0
C515 C 0.3304 0.44605 0.2121 0.0
O516 O 0.32183 0.44061 0.18977 0.0
C517 C 0.46758 0.33267 0.22148 0.0
C518 C 0.37644 0.31815 0.21004 0.0
C519 C 0.44103 0.31577 0.21868 0.0
N520 N 0.42021 0.34453 0.21495 0.0
N521 N 0.36614 0.33568 0.20805 0.0
C522 C 0.53765 0.33738 0.22888 0.0
H523 H 0.54577 0.35189 0.22765 0.0
H524 H 0.54741 0.333 0.24767 0.0
H525 H 0.5737 0.33032 0.21714 0.0
C526 C 0.36536 0.40037 0.26912 0.0
N527 N 0.37731 0.39623 0.246 0.0
N528 N 0.3917 0.37924 0.24445 0.0
C529 C 0.38927 0.37202 0.26661 0.0
C530 C 0.37288 0.38521 0.28291 0.0
C531 C 0.34895 0.41864 0.27781 0.0
H532 H 0.39266 0.42744 0.27488 0.0
H533 H 0.33573 0.41873 0.29721 0.0
H534 H 0.30607 0.42397 0.26717 0.0
O535 O 0.31665 0.40302 0.19416 0.0
O536 O 0.35296 0.37547 0.18909 0.0
H537 H 0.37962 0.34404 0.26145 0.0
H538 H 0.40458 0.35022 0.29168 0.0
C539 C 0.41014 0.35343 0.27232 0.0
H540 H 0.46344 0.3517 0.26746 0.0
H541 H 0.32171 0.34165 0.20215 0.0
O542 O 0.35822 0.4357 0.22729 0.0
C543 C 0.31554 0.38834 0.18298 0.0
C544 C 0.2228 0.21559 0.46931 0.0
C545 C 0.1621 0.20998 0.47921 0.0
C546 C 0.25064 0.23205 0.47573 0.0
C547 C 0.21691 0.24303 0.49248 0.0
C548 C 0.15611 0.23727 0.50274 0.0
C549 C 0.12931 0.22087 0.49588 0.0
C550 C 0.31536 0.23785 0.46429 0.0
C551 C 0.11898 0.2485 0.52083 0.0
C552 C 0.31222 0.27919 0.52569 0.0
C553 C 0.29148 0.29438 0.51314 0.0
C554 C 0.28886 0.26235 0.51902 0.0
C555 C 0.24436 0.26068 0.49912 0.0
C556 C 0.22397 0.27596 0.48616 0.0
C557 C 0.24786 0.29265 0.49333 0.0
C558 C 0.31132 0.24639 0.53339 0.0
C559 C 0.17701 0.27467 0.46471 0.0
H560 H 0.24748 0.2074 0.45602 0.0
H561 H 0.08245 0.21653 0.50365 0.0
H562 H 0.30681 0.25017 0.45378 0.0
H563 H 0.35327 0.24093 0.47845 0.0
H564 H 0.33621 0.22759 0.45209 0.0
H565 H 0.07314 0.24187 0.52758 0.0
H566 H 0.15219 0.25157 0.53644 0.0
H567 H 0.10421 0.26129 0.51249 0.0
H568 H 0.34646 0.2805 0.54089 0.0
H569 H 0.23367 0.30428 0.48303 0.0
H570 H 0.33557 0.23658 0.52136 0.0
H571 H 0.26718 0.23981 0.54147 0.0
H572 H 0.34716 0.24992 0.54807 0.0
H573 H 0.19837 0.26564 0.45097 0.0
H574 H 0.16733 0.28776 0.45622 0.0
H575 H 0.12841 0.26895 0.47036 0.0
C576 C 0.95035 0.96526 0.49532 0.0
C577 C 0.98181 0.95715 0.51519 0.0
C578 C 0.97207 0.98178 0.48681 0.0
C579 C 0.02662 0.99037 0.49841 0.0
C580 C 0.05828 0.98231 0.51855 0.0
C581 C 0.03542 0.96582 0.52673 0.0
C582 C 0.93673 0.99003 0.46537 0.0
C583 C 0.1166 0.99106 0.53139 0.0
C584 C 0.11978 0.02597 0.46363 0.0
C585 C 0.0918 0.0415 0.47316 0.0
C586 C 0.09947 0.00921 0.47181 0.0
C587 C 0.04965 0.00798 0.48978 0.0
C588 C 0.02151 0.0236 0.49953 0.0
C589 C 0.04312 0.04014 0.4912 0.0
C590 C 0.13106 0.99281 0.46118 0.0
C591 C 0.96803 0.02285 0.51862 0.0
H592 H 0.90902 0.95865 0.48625 0.0
H593 H 0.0602 0.95964 0.54204 0.0
H594 H 0.91589 1.00313 0.47045 0.0
H595 H 0.97299 0.99229 0.45065 0.0
H596 H 0.89526 0.98161 0.45835 0.0
H597 H 0.13619 0.98296 0.54663 0.0
H598 H 0.15791 0.9934 0.51852 0.0
H599 H 0.10106 0.00418 0.53848 0.0
H600 H 0.1575 0.02689 0.44975 0.0
H601 H 0.02106 0.05205 0.49869 0.0
H602 H 0.09197 0.98452 0.45239 0.0
H603 H 0.15444 0.98472 0.47569 0.0
H604 H 0.16992 0.99603 0.44765 0.0
H605 H 0.92384 0.01546 0.51166 0.0
H606 H 0.95134 0.03624 0.52437 0.0
H607 H 0.98713 0.01562 0.53468 0.0
C608 C 0.1943 0.04032 0.743 0.0
C609 C 0.1918 0.04417 0.76775 0.0
C610 C 0.22367 0.02458 0.73462 0.0
C611 C 0.25081 0.01231 0.75139 0.0
C612 C 0.24757 0.01599 0.7764 0.0
C613 C 0.21826 0.03188 0.78427 0.0
C614 C 0.22624 0.02114 0.70781 0.0
C615 C 0.27546 1.00318 0.79486 0.0
C616 C 0.2719 0.96427 0.73247 0.0
C617 C 0.34108 0.96324 0.72813 0.0
C618 C 0.2419 0.98018 0.73984 0.0
C619 C 0.28185 0.99551 0.74284 0.0
C620 C 0.3515 0.99466 0.73814 0.0
C621 C 0.38035 0.97851 0.73091 0.0
C622 C 0.16754 0.9805 0.74477 0.0
C623 C 0.39566 0.01077 0.74101 0.0
H624 H 0.17417 0.04974 0.73007 0.0
H625 H 0.2166 0.03473 0.80342 0.0
H626 H 0.27907 0.01948 0.70212 0.0
H627 H 0.19964 0.00864 0.70341 0.0
H628 H 0.2032 0.03205 0.69713 0.0
H629 H 0.2685 0.00794 0.81364 0.0
H630 H 0.2506 0.99011 0.79288 0.0
H631 H 0.3298 1.00109 0.79181 0.0
H632 H 0.24103 0.95255 0.73046 0.0
H633 H 0.43376 0.97785 0.72757 0.0
H634 H 0.14258 0.99072 0.73344 0.0
H635 H 0.15886 0.98415 0.76388 0.0
H636 H 0.14331 0.96751 0.74116 0.0
H637 H 0.37618 0.02176 0.72966 0.0
H638 H 0.44847 0.00806 0.73596 0.0
H639 H 0.39485 0.01538 0.76001 0.0
C640 C 0.88191 0.2815 0.74002 0.0
C641 C 0.91761 0.29375 0.72615 0.0
C642 C 0.91033 0.26526 0.74679 0.0
C643 C 0.97619 0.26108 0.73945 0.0
C644 C 0.01286 0.2734 0.72555 0.0
C645 C 0.983 0.28962 0.71898 0.0
C646 C 0.8696 0.25251 0.76167 0.0
C647 C 0.08319 0.26935 0.71735 0.0
C648 C 0.0652 0.22526 0.77555 0.0
C649 C 0.0543 0.21025 0.76113 0.0
C650 C 0.0413 0.24197 0.76847 0.0
C651 C 0.00602 0.24372 0.74634 0.0
C652 C 0.99604 0.22868 0.73145 0.0
C653 C 0.02058 0.21212 0.73899 0.0
C654 C 0.05286 0.25769 0.78486 0.0
C655 C 0.95892 0.23006 0.70766 0.0
H656 H 0.83136 0.28462 0.74568 0.0
H657 H 0.01022 0.29877 0.70772 0.0
H658 H 0.86305 0.23984 0.75176 0.0
H659 H 0.8965 0.24945 0.77878 0.0
H660 H 0.81924 0.25786 0.76608 0.0
H661 H 0.10563 0.28052 0.70723 0.0
H662 H 0.11577 0.2663 0.73315 0.0
H663 H 0.08283 0.25743 0.70561 0.0
H664 H 0.09184 0.2239 0.79259 0.0
H665 H 0.01443 0.20075 0.72728 0.0
H666 H 0.00401 0.26299 0.79103 0.0
H667 H 0.07825 0.26846 0.77488 0.0
H668 H 0.08377 0.25424 0.80096 0.0
H669 H 0.90671 0.23456 0.71076 0.0
H670 H 0.9573 0.21723 0.69784 0.0
H671 H 0.98313 0.24008 0.69601 0.0
C672 C 0.76558 0.78689 0.51231 0.0
C673 C 0.8138 0.7942 0.4971 0.0
C674 C 0.73937 0.76994 0.50778 0.0
C675 C 0.76186 0.76022 0.48752 0.0
C676 C 0.80997 0.76766 0.47198 0.0
C677 C 0.83567 0.78452 0.47706 0.0
C678 C 0.68853 0.76232 0.52488 0.0
C679 C 0.83456 0.75779 0.45005 0.0
C680 C 0.74069 0.71024 0.48757 0.0
C681 C 0.68155 0.70831 0.47403 0.0
C682 C 0.76775 0.7271 0.49201 0.0
C683 C 0.73496 0.74226 0.4825 0.0
C684 C 0.67613 0.7403 0.46831 0.0
C685 C 0.64978 0.72333 0.46445 0.0
C686 C 0.83023 0.72873 0.50744 0.0
C687 C 0.64041 0.75613 0.45755 0.0
H688 H 0.74988 0.79415 0.52815 0.0
H689 H 0.87298 0.79018 0.46525 0.0
H690 H 0.64169 0.75898 0.51493 0.0
H691 H 0.70813 0.74984 0.53284 0.0
H692 H 0.6761 0.77161 0.53973 0.0
H693 H 0.87125 0.76562 0.43954 0.0
H694 H 0.85864 0.74517 0.45563 0.0
H695 H 0.79158 0.75437 0.43808 0.0
H696 H 0.76417 0.69869 0.49558 0.0
H697 H 0.60379 0.7218 0.45406 0.0
H698 H 0.81902 0.73655 0.52388 0.0
H699 H 0.86969 0.73594 0.49749 0.0
H700 H 0.85044 0.71562 0.51302 0.0
H701 H 0.62259 0.76496 0.47216 0.0
H702 H 0.5967 0.75225 0.44616 0.0
H703 H 0.67555 0.76392 0.44638 0.0
C704 C 0.80558 0.97012 0.23272 0.0
C705 C 0.78436 0.963 0.21055 0.0
C706 C 0.77747 0.98587 0.24169 0.0
C707 C 0.72742 0.9948 0.22805 0.0
C708 C 0.70691 0.9879 0.20542 0.0
C709 C 0.73543 0.97206 0.19699 0.0
C710 C 0.80057 0.99279 0.26593 0.0
C711 C 0.65421 0.99712 0.19022 0.0
C712 C 0.60968 0.02645 0.2605 0.0
C713 C 0.63811 0.04296 0.25517 0.0
C714 C 0.63814 0.01066 0.25176 0.0
C715 C 0.69653 0.0114 0.23743 0.0
C716 C 0.72533 0.02802 0.23195 0.0
C717 C 0.69578 0.04356 0.24084 0.0
C718 C 0.60579 0.99319 0.25789 0.0
C719 C 0.78755 0.02938 0.21675 0.0
H720 H 0.84313 0.96319 0.24338 0.0
H721 H 0.71882 0.9667 0.17981 0.0
H722 H 0.82023 0.00646 0.26402 0.0
H723 H 0.75751 0.99344 0.27843 0.0
H724 H 0.84029 0.98436 0.27421 0.0
H725 H 0.64473 0.99022 0.17282 0.0
H726 H 0.60642 0.99788 0.20026 0.0
H727 H 0.66998 0.01091 0.18637 0.0
H728 H 0.56514 0.02584 0.27151 0.0
H729 H 0.71837 0.05622 0.23665 0.0
H730 H 0.6422 0.98461 0.26766 0.0
H731 H 0.59112 0.98613 0.24109 0.0
H732 H 0.56058 0.99487 0.26922 0.0
H733 H 0.82939 0.022 0.22545 0.0
H734 H 0.80354 0.04332 0.21403 0.0
H735 H 0.77841 0.02324 0.19883 0.0
C736 C 0.89399 0.78788 0.23858 0.0
C737 C 0.94023 0.79932 0.22777 0.0
C738 C 0.9126 0.7708 0.24602 0.0
C739 C 0.97908 0.7649 0.2424 0.0
C740 C 0.02612 0.77635 0.23144 0.0
C741 C 0.00609 0.79344 0.22422 0.0
C742 C 0.86103 0.75907 0.25776 0.0
C743 C 0.0974 0.77047 0.22714 0.0
C744 C 0.0446 0.72723 0.28144 0.0
C745 C 0.03815 0.71261 0.26595 0.0
C746 C 0.02529 0.74427 0.27405 0.0
C747 C -0.00056 0.74683 0.25045 0.0
C748 C 0.99241 0.73212 0.23473 0.0
C749 C 0.01195 0.71517 0.24267 0.0
C750 C 0.03309 0.75957 0.29143 0.0
C751 C 0.96537 0.73434 0.20939 0.0
H752 H 0.84292 0.79233 0.24137 0.0
H753 H 0.04156 0.80197 0.21524 0.0
H754 H 0.85478 0.74668 0.2472 0.0
H755 H 0.87837 0.75525 0.2761 0.0
H756 H 0.81137 0.76566 0.25923 0.0
H757 H 0.12786 0.78094 0.21845 0.0
H758 H 0.12173 0.76677 0.2445 0.0
H759 H 0.09771 0.75852 0.21548 0.0
H760 H 0.06517 0.72533 0.29943 0.0
H761 H 0.00894 0.70409 0.23031 0.0
H762 H 0.98387 0.76609 0.29424 0.0
H763 H 0.06722 0.76965 0.28377 0.0
H764 H 0.05342 0.75531 0.30923 0.0
H765 H 0.91465 0.74039 0.20984 0.0
H766 H 0.9622 0.72155 0.19952 0.0
H767 H -0.00195 0.74347 0.19916 0.0
C768 C 0.33494 0.781 0.02845 0.0
C769 C 0.31006 0.79655 0.01788 0.0
C770 C 0.30538 0.76455 0.02349 0.0
C771 C 0.25061 0.76364 0.00713 0.0
C772 C 0.2244 0.77938 -0.00323 0.0
C773 C 0.25435 0.79571 0.00238 0.0
C774 C 0.33388 0.7481 0.03525 0.0
C775 C 0.16656 0.77889 0.97901 0.0
C776 C 0.22131 0.71995 0.9746 0.0
C777 C 0.16652 0.7132 0.98719 0.0
C778 C 0.24917 0.73642 0.98087 0.0
C779 C 0.22196 0.74615 0.00036 0.0
C780 C 0.16734 0.73921 0.01335 0.0
C781 C 0.13986 0.72288 0.00644 0.0
C782 C 0.30688 0.74355 0.96639 0.0
C783 C 0.13778 0.74903 0.0345 0.0
H784 H 0.37838 0.7817 0.04033 0.0
H785 H 0.23642 0.80766 0.99363 0.0
H786 H 0.29354 0.74061 0.04434 0.0
H787 H 0.35541 0.73928 0.0213 0.0
H788 H 0.37372 0.75123 0.04873 0.0
H789 H 0.15052 0.79236 0.97329 0.0
H790 H 0.18127 0.77126 0.96278 0.0
H791 H 0.12303 0.77202 0.98704 0.0
H792 H 0.24103 0.71263 0.95941 0.0
H793 H 0.09753 0.71761 0.01623 0.0
H794 H 0.35085 0.74592 0.97836 0.0
H795 H 0.29274 0.75647 0.95827 0.0
H796 H 0.32204 0.73437 0.95174 0.0
H797 H 0.17731 0.75166 0.04825 0.0
H798 H 0.09654 0.74154 0.04312 0.0
H799 H 0.11797 0.76206 0.02848 0.0
C800 C 0.95304 0.46785 -0.00438 0.0
C801 C 0.98728 0.45958 0.01476 0.0
C802 C 0.97327 0.48451 0.98709 0.0
C803 C 0.02946 0.493 -0.00221 0.0
C804 C 0.06443 0.48466 0.017 0.0
C805 C 0.04273 0.46811 0.02532 0.0
C806 C 0.93424 0.4931 0.96676 0.0
C807 C 0.12486 0.49322 0.02876 0.0
C808 C 0.11699 0.52959 0.96295 0.0
C809 C 0.09151 0.54483 0.9741 0.0
C810 C 0.09739 0.5126 0.9705 0.0
C811 C 0.05061 0.51085 0.98942 0.0
C812 C 0.02458 0.52619 0.00066 0.0
C813 C 0.04567 0.54296 0.99299 0.0
C814 C 0.1269 0.49652 0.95831 0.0
C815 C 0.97415 0.5249 0.02074 0.0
H816 H 0.91023 0.46134 0.98734 0.0
H817 H 0.06981 0.46177 0.04001 0.0
H818 H 0.91377 0.50602 0.97281 0.0
H819 H 0.9679 0.49581 0.95139 0.0
H820 H 0.89204 0.48471 0.96027 0.0
H821 H 0.1477 0.48475 0.04302 0.0
H822 H 0.16341 0.49605 0.015 0.0
H823 H 0.11034 0.50606 0.03695 0.0
H824 H 0.15251 0.53091 0.94839 0.0
H825 H 0.0254 0.55465 0.00167 0.0
H826 H 0.08632 0.48839 0.95014 0.0
H827 H 0.15311 0.48811 0.97183 0.0
H828 H 0.16298 0.50013 0.94399 0.0
H829 H 0.92933 0.51748 0.01442 0.0
H830 H 0.95779 0.53812 0.02728 0.0
H831 H 0.99606 0.51746 0.03615 0.0
C832 C 0.21509 0.54414 0.24986 0.0
C833 C 0.14793 0.54431 0.25728 0.0
C834 C 0.24656 0.52835 0.24274 0.0
C835 C 0.21004 0.51229 0.24291 0.0
C836 C 0.14227 0.51234 0.25036 0.0
C837 C 0.11205 0.52834 0.25749 0.0
C838 C 0.3189 0.52887 0.23495 0.0
C839 C 0.10156 0.49549 0.25069 0.0
C840 C 0.26972 0.47442 0.20316 0.0
C841 C 0.30264 0.46339 0.21987 0.0
C842 C 0.23966 0.49038 0.2104 0.0
C843 C 0.24254 0.49549 0.23497 0.0
C844 C 0.27643 0.48454 0.25189 0.0
C845 C 0.30609 0.46864 0.24414 0.0
C846 C 0.20415 0.50169 0.19179 0.0
C847 C 0.28079 0.48955 0.27822 0.0
H848 H 0.24335 0.55639 0.24961 0.0
H849 H 0.06019 0.52832 0.26315 0.0
H850 H 0.34951 0.51984 0.24639 0.0
H851 H 0.32303 0.52412 0.21608 0.0
H852 H 0.34054 0.5424 0.23613 0.0
H853 H 0.04966 0.49773 0.25714 0.0
H854 H 0.09899 0.48971 0.2323 0.0
H855 H 0.12624 0.48556 0.26256 0.0
H856 H 0.26669 0.4705 0.18437 0.0
H857 H 0.33127 0.46021 0.25721 0.0
H858 H 0.22647 0.51514 0.19148 0.0
H859 H 0.15059 0.50324 0.19661 0.0
H860 H 0.20695 0.49594 0.17337 0.0
H861 H 0.30514 0.50269 0.28024 0.0
H862 H 0.30957 0.47971 0.28905 0.0
H863 H 0.22965 0.49071 0.28578 0.0
C864 C 0.72755 0.2189 0.96988 0.0
C865 C 0.66491 0.21363 0.97852 0.0
C866 C 0.75493 0.2354 0.97636 0.0
C867 C 0.71865 0.24684 0.99179 0.0
C868 C 0.65527 0.24159 0.00044 0.0
C869 C 0.62911 0.2251 0.99362 0.0
C870 C 0.82252 0.24063 0.96665 0.0
C871 C 0.61525 0.25335 0.01705 0.0
C872 C 0.81637 0.2814 0.02715 0.0
C873 C 0.80389 0.29679 0.0137 0.0
C874 C 0.7884 0.2651 0.02034 0.0
C875 C 0.74753 0.26413 -0.00061 0.0
C876 C 0.73415 0.27967 0.98584 0.0
C877 C 0.76257 0.29584 0.99317 0.0
C878 C 0.80329 0.24888 0.03541 0.0
C879 C 0.69109 0.27911 0.96331 0.0
H880 H 0.75455 0.21035 0.95765 0.0
H881 H 0.5806 0.22109 0.00037 0.0
H882 H 0.81806 0.2532 0.95639 0.0
H883 H 0.85815 0.24301 0.98179 0.0
H884 H 0.84396 0.23032 0.95464 0.0
H885 H 0.56639 0.24737 0.02198 0.0
H886 H 0.64434 0.25595 0.03384 0.0
H887 H 0.60562 0.26634 0.00833 0.0
H888 H 0.8486 0.28209 0.04299 0.0
H889 H 0.75455 0.30755 0.98226 0.0
H890 H 0.8295 0.23881 0.02435 0.0
H891 H 0.75581 0.24283 0.04161 0.0
H892 H 0.83499 0.25196 0.05146 0.0
H893 H 0.71426 0.2702 0.9498 0.0
H894 H 0.68434 0.29242 0.95509 0.0
H895 H 0.64098 0.27362 0.9675 0.0
C896 C 0.7071 0.539 0.75587 0.0
C897 C 0.63879 0.54037 0.76157 0.0
C898 C 0.73449 0.52308 0.74736 0.0
C899 C 0.69292 0.50801 0.74483 0.0
C900 C 0.62426 0.50916 0.75103 0.0
C901 C 0.59789 0.52537 0.75917 0.0
C902 C 0.80773 0.52246 0.74069 0.0
C903 C 0.57857 0.4933 0.74887 0.0
C904 C 0.7439 0.4713 0.70167 0.0
C905 C 0.77229 0.4588 0.71745 0.0
C906 C 0.71879 0.48748 0.7103 0.0
C907 C 0.72115 0.49113 0.73536 0.0
C908 C 0.75049 0.47865 0.75134 0.0
C909 C 0.7762 0.4627 0.74217 0.0
C910 C 0.68912 0.50061 0.69263 0.0
C911 C 0.75343 0.48198 0.77819 0.0
H912 H 0.73926 0.55049 0.75763 0.0
H913 H 0.54518 0.52628 0.7636 0.0
H914 H 0.83408 0.51212 0.75139 0.0
H915 H 0.81273 0.51884 0.72139 0.0
H916 H 0.83331 0.53534 0.74379 0.0
H917 H 0.52702 0.4962 0.75521 0.0
H918 H 0.5756 0.4889 0.72979 0.0
H919 H 0.59928 0.48209 0.75954 0.0
H920 H 0.7409 0.4684 0.68254 0.0
H921 H 0.79766 0.45307 0.75452 0.0
H922 H 0.7149 0.51357 0.69442 0.0
H923 H 0.63541 0.50284 0.6967 0.0
H924 H 0.69317 0.49603 0.67365 0.0
H925 H 0.78115 0.49441 0.78203 0.0
H926 H 0.77818 0.47097 0.78817 0.0
H927 H 0.70192 0.4837 0.78523 0.0
C928 C 0.49652 0.03731 0.95733 0.0
C929 C 0.54093 0.04771 0.97109 0.0
C930 C 0.47382 0.02089 0.9658 0.0
C931 C 0.49613 0.01465 0.98857 0.0
C932 C 0.54169 0.02493 0.00241 0.0
C933 C 0.56355 0.04135 0.99352 0.0
C934 C 0.42537 0.01029 0.95046 0.0
C935 C 0.56687 0.01868 0.02673 0.0
C936 C 0.39075 0.97961 0.01977 0.0
C937 C 0.42556 0.96403 0.01402 0.0
C938 C 0.41335 0.99621 0.01174 0.0
C939 C 0.47226 0.99724 -0.00228 0.0
C940 C 0.50778 0.98158 0.992 0.0
C941 C 0.48397 0.96519 0.00016 0.0
C942 C 0.37397 0.01264 0.0181 0.0
C943 C 0.57085 0.98211 0.97714 0.0
H944 H 0.47862 0.04211 0.94001 0.0
H945 H 0.5977 0.0493 0.00431 0.0
H946 H 0.44697 0.99707 0.94644 0.0
H947 H 0.3782 0.00808 0.96047 0.0
H948 H 0.413 0.01698 0.93315 0.0
H949 H 0.60258 0.02817 0.03516 0.0
H950 H 0.52401 0.01678 0.03906 0.0
H951 H 0.59222 0.00566 0.02485 0.0
H952 H 0.34561 0.97885 0.03045 0.0
H953 H 0.51137 0.95325 -0.00438 0.0
H954 H 0.35642 0.01933 0.00139 0.0
H955 H 0.40659 0.02213 0.02798 0.0
H956 H 0.32973 0.00962 0.0294 0.0
H957 H 0.55958 0.98779 0.95911 0.0
H958 H 0.59335 0.96876 0.97467 0.0
H959 H 0.60859 0.99083 0.98593 0.0
C960 C 0.49531 0.29554 0.24859 0.0
C961 C 0.47015 0.29846 0.22528 0.0
C962 C 0.51441 0.27848 0.25608 0.0
C963 C 0.50873 0.26409 0.23975 0.0
C964 C 0.48493 0.26711 0.21596 0.0
C965 C 0.46508 0.28424 0.20912 0.0
C966 C 0.5385 0.27574 0.28171 0.0
C967 C 0.4793 0.25219 0.19789 0.0
C968 C 0.6108 0.22287 0.25396 0.0
C969 C 0.56223 0.21159 0.26366 0.0
C970 C 0.59383 0.23985 0.24569 0.0
C971 C 0.52686 0.24585 0.24765 0.0
C972 C 0.47749 0.2345 0.25742 0.0
C973 C 0.49574 0.21742 0.26517 0.0
C974 C 0.64761 0.25141 0.23497 0.0
C975 C 0.40575 0.24054 0.26014 0.0
H976 H 0.49696 0.30641 0.26135 0.0
H977 H 0.44487 0.28652 0.19116 0.0
H978 H 0.50413 0.26657 0.29115 0.0
H979 H 0.58891 0.26951 0.28185 0.0
H980 H 0.54115 0.28835 0.29202 0.0
H981 H 0.46316 0.25693 0.17977 0.0
H982 H 0.52827 0.24533 0.19619 0.0
H983 H 0.44254 0.24226 0.20424 0.0
H984 H 0.66227 0.21833 0.25269 0.0
H985 H 0.45843 0.20885 0.2731 0.0
H986 H 0.65398 0.26357 0.24599 0.0
H987 H 0.63248 0.25565 0.21655 0.0
H988 H 0.69676 0.24451 0.23394 0.0
H989 H 0.40388 0.25241 0.27193 0.0
H990 H 0.37343 0.23009 0.26799 0.0
H991 H 0.38461 0.24442 0.24233 0.0
C992 C 0.50559 0.79349 0.7474 0.0
C993 C 0.45682 0.79567 0.7293 0.0
C994 C 0.53034 0.77655 0.75323 0.0
C995 C 0.50607 0.76156 0.74047 0.0
C996 C 0.45819 0.76381 0.72173 0.0
C997 C 0.43368 0.78081 0.71655 0.0
C998 C 0.58083 0.77465 0.77352 0.0
C999 C 0.43194 0.74821 0.70741 0.0
C1000 C 0.60888 0.71919 0.74176 0.0
C1001 C 0.57347 0.70885 0.75832 0.0
C1002 C 0.58742 0.73634 0.73573 0.0
C1003 C 0.52982 0.74345 0.74689 0.0
C1004 C 0.49411 0.73311 0.76379 0.0
C1005 C 0.51621 0.71587 0.76922 0.0
C1006 C 0.62618 0.7468 0.71733 0.0
C1007 C 0.43295 0.74034 0.7763 0.0
H1008 H 0.52228 0.80489 0.7577 0.0
H1009 H 0.39583 0.7825 0.70256 0.0
H1010 H 0.55927 0.76645 0.78812 0.0
H1011 H 0.62628 0.76769 0.76705 0.0
H1012 H 0.596 0.78765 0.78121 0.0
H1013 H 0.39713 0.75233 0.69268 0.0
H1014 H 0.47426 0.74075 0.69941 0.0
H1015 H 0.40507 0.73899 0.7195 0.0
H1016 H 0.65326 0.71377 0.73333 0.0
H1017 H 0.48974 0.70807 0.78247 0.0
H1018 H 0.64474 0.75931 0.72549 0.0
H1019 H 0.59276 0.75046 0.70201 0.0
H1020 H 0.66968 0.7393 0.7102 0.0
H1021 H 0.44604 0.7527 0.7861 0.0
H1022 H 0.41162 0.73075 0.78932 0.0
H1023 H 0.3937 0.74376 0.76277 0.0
C1024 C 0.62556 0.52436 0.47761 0.0
C1025 C 0.58873 0.54001 0.48085 0.0
C1026 C 0.60081 0.508 0.48572 0.0
C1027 C 0.53787 0.50733 0.49732 0.0
C1028 C 0.50059 0.52308 0.50065 0.0
C1029 C 0.52642 0.53919 0.49239 0.0
C1030 C 0.64194 0.49144 0.48188 0.0
C1031 C 0.43336 0.52292 0.51298 0.0
C1032 C 0.44136 0.46403 0.49994 0.0
C1033 C 0.45574 0.45824 0.52347 0.0
C1034 C 0.4686 0.47984 0.49106 0.0
C1035 C 0.51076 0.49019 0.50615 0.0
C1036 C 0.52508 0.4845 0.52996 0.0
C1037 C 0.49755 0.46857 0.53831 0.0
C1038 C 0.45225 0.48548 0.46555 0.0
C1039 C 0.56935 0.49527 0.54665 0.0
H1040 H 0.67371 0.52487 0.46873 0.0
H1041 H 0.49752 0.5512 0.49505 0.0
H1042 H 0.65373 0.48517 0.49951 0.0
H1043 H 0.61269 0.4817 0.47112 0.0
H1044 H 0.6897 0.49419 0.47245 0.0
H1045 H 0.41068 0.53635 0.51415 0.0
H1046 H 0.39813 0.51413 0.50304 0.0
H1047 H 0.43892 0.51753 0.5315 0.0
H1048 H 0.40938 0.4561 0.4883 0.0
H1049 H 0.50898 0.46421 0.55651 0.0
H1050 H 0.49916 0.48726 0.45524 0.0
H1051 H 0.42591 0.49843 0.46569 0.0
H1052 H 0.42015 0.47569 0.45593 0.0
H1053 H 0.61927 0.49722 0.53842 0.0
H1054 H 0.57638 0.48887 0.56454 0.0
H1055 H 0.5471 0.50859 0.54941 0.0
C1056 C 0.27978 0.12324 0.40222 0.0
C1057 C 0.21953 0.1141 0.40516 0.0
C1058 C 0.31537 0.12194 0.3806 0.0
C1059 C 0.28829 0.1119 0.36119 0.0
C1060 C 0.22642 0.10303 0.36393 0.0
C1061 C 0.19339 0.10395 0.38612 0.0
C1062 C 0.38229 0.13115 0.37863 0.0
C1063 C 0.19473 0.09282 0.34336 0.0
C1064 C 0.36941 0.12447 0.30224 0.0
C1065 C 0.41868 0.11129 0.30034 0.0
C1066 C 0.32224 0.124 0.32087 0.0
C1067 C 0.32624 0.11037 0.33837 0.0
C1068 C 0.37254 0.09633 0.33543 0.0
C1069 C 0.4174 0.0968 0.31616 0.0
C1070 C 0.2715 0.13877 0.3228 0.0
C1071 C 0.37954 0.08175 0.35395 0.0
H1072 H 0.29958 0.13112 0.41702 0.0
H1073 H 0.14597 0.09716 0.38836 0.0
H1074 H 0.42166 0.12143 0.37365 0.0
H1075 H 0.38006 0.14128 0.36417 0.0
H1076 H 0.39754 0.13775 0.39574 0.0
H1077 H 0.14506 0.08727 0.34818 0.0
H1078 H 0.18831 0.1016 0.32746 0.0
H1079 H 0.22796 0.08177 0.33785 0.0
H1080 H 0.37 0.13565 0.28997 0.0
H1081 H 0.45564 0.08662 0.31493 0.0
H1082 H 0.28734 0.14812 0.3372 0.0
H1083 H 0.22162 0.13347 0.32774 0.0
H1084 H 0.2665 0.14629 0.30565 0.0
H1085 H 0.4011 0.08734 0.37084 0.0
H1086 H 0.41273 0.07087 0.34771 0.0
H1087 H 0.32993 0.07609 0.3584 0.0
C1088 C 0.7718 0.10864 0.33565 0.0
C1089 C 0.70834 0.11637 0.33383 0.0
C1090 C 0.80715 0.10896 0.35757 0.0
C1091 C 0.77678 0.1166 0.37815 0.0
C1092 C 0.7108 0.12338 0.37666 0.0
C1093 C 0.67778 0.12352 0.35429 0.0
C1094 C 0.87813 0.10194 0.3584 0.0
C1095 C 0.67594 0.13094 0.39843 0.0
C1096 C 0.87627 0.106 0.43443 0.0
C1097 C 0.91815 0.12088 0.43578 0.0
C1098 C 0.825 0.10505 0.41701 0.0
C1099 C 0.81716 0.1191 0.40036 0.0
C1100 C 0.85513 0.13479 0.40311 0.0
C1101 C 0.9045 0.13559 0.4211 0.0
C1102 C 0.78298 0.08848 0.41527 0.0
C1103 C 0.84863 0.15001 0.38555 0.0
H1104 H 0.79482 0.10307 0.31969 0.0
H1105 H 0.62789 0.12919 0.35278 0.0
H1106 H 0.91322 0.11282 0.36316 0.0
H1107 H 0.88318 0.09164 0.37255 0.0
H1108 H 0.8937 0.09614 0.3409 0.0
H1109 H 0.62127 0.13271 0.39518 0.0
H1110 H 0.68336 0.12221 0.41433 0.0
H1111 H 0.69774 0.14404 0.40301 0.0
H1112 H 0.88585 0.09471 0.44605 0.0
H1113 H 0.93619 0.14723 0.42219 0.0
H1114 H 0.80182 0.08001 0.40044 0.0
H1115 H 0.72989 0.09179 0.41109 0.0
H1116 H 0.78509 0.08068 0.43225 0.0
H1117 H 0.86721 0.14578 0.36763 0.0
H1118 H 0.87772 0.16181 0.39146 0.0
H1119 H 0.7954 0.15394 0.38321 0.0
C1120 C 0.19315 0.12538 0.85202 0.0
C1121 C 0.2239 0.11796 0.83177 0.0
C1122 C 0.22594 0.12552 0.87442 0.0
C1123 C 0.29187 0.11875 0.87616 0.0
C1124 C 0.32266 0.11096 0.85576 0.0
C1125 C 0.28751 0.11035 0.8338 0.0
C1126 C 0.1907 0.13324 0.89601 0.0
C1127 C 0.39364 0.10396 0.85687 0.0
C1128 C 0.41644 0.13798 0.92014 0.0
C1129 C 0.42863 0.12341 0.93525 0.0
C1130 C 0.36902 0.13698 0.90151 0.0
C1131 C 0.33141 0.12126 0.89853 0.0
C1132 C 0.33788 0.10731 0.91542 0.0
C1133 C 0.38725 0.10846 0.9335 0.0
C1134 C 0.36405 0.15208 0.88367 0.0
C1135 C 0.2963 0.09068 0.91334 0.0
H1136 H 0.14306 0.1309 0.85036 0.0
H1137 H 0.31057 0.10453 0.81802 0.0
H1138 H 0.19565 0.12422 0.91173 0.0
H1139 H 0.21429 0.14601 0.90115 0.0
H1140 H 0.13657 0.13565 0.89235 0.0
H1141 H 0.40972 0.09813 0.83945 0.0
H1142 H 0.42856 0.11487 0.86173 0.0
H1143 H 0.39832 0.0937 0.87108 0.0
H1144 H 0.4478 0.14966 0.9215 0.0
H1145 H 0.3958 0.09726 0.94538 0.0
H1146 H 0.31106 0.15607 0.88082 0.0
H1147 H 0.3837 0.14767 0.86598 0.0
H1148 H 0.393 0.16388 0.88965 0.0
H1149 H 0.2434 0.09393 0.90876 0.0
H1150 H 0.29752 0.08287 0.93032 0.0
H1151 H 0.31615 0.08225 0.89865 0.0
C1152 C 0.93372 0.09734 0.82085 0.0
C1153 C 0.93233 0.11091 0.80357 0.0
C1154 C 0.88961 0.0975 0.84035 0.0
C1155 C 0.84146 0.11122 0.84213 0.0
C1156 C 0.83547 0.12394 0.82346 0.0
C1157 C 0.88186 0.12382 0.80458 0.0
C1158 C 0.89875 0.08393 0.86013 0.0
C1159 C 0.7829 0.13833 0.82423 0.0
C1160 C 0.70747 0.1053 0.88956 0.0
C1161 C 0.73109 0.11645 0.90799 0.0
C1162 C 0.74176 0.10385 0.86768 0.0
C1163 C 0.80237 0.11325 0.86463 0.0
C1164 C 0.82695 0.12432 0.88341 0.0
C1165 C 0.79014 0.12607 0.90472 0.0
C1166 C 0.71273 0.09248 0.84775 0.0
C1167 C 0.89252 0.13413 0.88112 0.0
H1168 H 0.9731 0.08743 0.82034 0.0
H1169 H 0.88058 0.13431 0.79122 0.0
H1170 H 0.91831 0.09057 0.87662 0.0
H1171 H 0.85012 0.0778 0.86481 0.0
H1172 H 0.93435 0.07326 0.85502 0.0
H1173 H 0.77758 0.14523 0.80662 0.0
H1174 H 0.73353 0.13276 0.82928 0.0
H1175 H 0.79696 0.14827 0.83812 0.0
H1176 H 0.66098 0.09812 0.892 0.0
H1177 H 0.80809 0.13471 0.91902 0.0
H1178 H 0.74785 0.08156 0.84336 0.0
H1179 H 0.70594 0.1005 0.83114 0.0
H1180 H 0.66363 0.08664 0.85267 0.0
H1181 H 0.93359 0.12464 0.87718 0.0
H1182 H 0.90581 0.14161 0.89775 0.0
H1183 H 0.88958 0.14358 0.86584 0.0
C1184 C 0.59535 0.88421 0.67118 0.0
C1185 C 0.53941 0.89541 0.67245 0.0
C1186 C 0.63786 0.88467 0.65118 0.0
C1187 C 0.6227 0.89623 0.63176 0.0
C1188 C 0.56786 0.90805 0.63339 0.0
C1189 C 0.52742 0.90768 0.6539 0.0
C1190 C 0.69725 0.87226 0.65037 0.0
C1191 C 0.54926 0.92029 0.61283 0.0
C1192 C 0.75585 0.9048 0.58492 0.0
C1193 C 0.74041 0.89191 0.56749 0.0
C1194 C 0.71776 0.90644 0.6059 0.0
C1195 C 0.66193 0.89521 0.6092 0.0
C1196 C 0.64436 0.88268 0.59118 0.0
C1197 C 0.68448 0.881 0.57066 0.0
C1198 C 0.73882 0.91968 0.62495 0.0
C1199 C 0.58394 0.87083 0.59379 0.0
H1200 H 0.60473 0.87473 0.68551 0.0
H1201 H 0.48368 0.91621 0.65462 0.0
H1202 H 0.68865 0.86201 0.63634 0.0
H1203 H 0.74324 0.87961 0.64542 0.0
H1204 H 0.70616 0.86551 0.66792 0.0
H1205 H 0.50794 0.9295 0.61762 0.0
H1206 H 0.59326 0.9282 0.60726 0.0
H1207 H 0.53312 0.91231 0.59699 0.0
H1208 H 0.79963 0.91312 0.58269 0.0
H1209 H 0.67242 0.87105 0.55718 0.0
H1210 H 0.75262 0.9126 0.64181 0.0
H1211 H 0.69656 0.92868 0.62926 0.0
H1212 H 0.78227 0.92781 0.61925 0.0
H1213 H 0.5914 0.8618 0.60937 0.0
H1214 H 0.57449 0.86269 0.57741 0.0
H1215 H 0.53862 0.87891 0.59745 0.0
C1216 C 0.18247 0.88836 0.66112 0.0
C1217 C 0.24048 0.87818 0.66432 0.0
C1218 C 0.14331 0.88659 0.64021 0.0
C1219 C 0.16414 0.87473 0.62193 0.0
C1220 C 0.22168 0.86407 0.62537 0.0
C1221 C 0.25881 0.86576 0.64675 0.0
C1222 C 0.08081 0.89777 0.63737 0.0
C1223 C 0.24585 0.85155 0.60602 0.0
C1224 C 0.03241 0.86294 0.57559 0.0
C1225 C 0.04235 0.87624 0.55833 0.0
C1226 C 0.07341 0.86185 0.5961 0.0
C1227 C 0.12661 0.87401 0.59892 0.0
C1228 C 0.14037 0.8865 0.5806 0.0
C1229 C 0.09729 0.88764 0.56058 0.0
C1230 C 0.05645 0.84862 0.61554 0.0
C1231 C 0.19823 0.8993 0.5828 0.0
H1232 H 0.16833 0.8979 0.67482 0.0
H1233 H 0.30424 0.85801 0.64912 0.0
H1234 H 0.08752 0.9074 0.62249 0.0
H1235 H 0.03732 0.88928 0.63252 0.0
H1236 H 0.06881 0.90522 0.65407 0.0
H1237 H 0.28936 0.84345 0.61214 0.0
H1238 H 0.20494 0.84251 0.60025 0.0
H1239 H 0.26087 0.85926 0.58992 0.0
H1240 H 0.98963 0.85416 0.57401 0.0
H1241 H 0.10516 0.89785 0.54716 0.0
H1242 H 0.03725 0.85577 0.63156 0.0
H1243 H 0.1018 0.8412 0.62139 0.0
H1244 H 0.01776 0.83897 0.60949 0.0
H1245 H 0.18769 0.90911 0.5972 0.0
H1246 H 0.20703 0.90659 0.56572 0.0
H1247 H 0.24488 0.89217 0.58798 0.0
C1248 C 0.83145 0.87699 0.12715 0.0
C1249 C 0.80003 0.88692 0.14517 0.0
C1250 C 0.80128 0.87496 0.10441 0.0
C1251 C 0.73704 0.88235 0.10027 0.0
C1252 C 0.70541 0.89247 0.11851 0.0
C1253 C 0.73811 0.89493 0.14064 0.0
C1254 C 0.83787 0.86464 0.08526 0.0
C1255 C 0.63614 0.9003 0.11498 0.0
C1256 C 0.64047 0.89224 0.04402 0.0
C1257 C 0.59144 0.87901 0.04538 0.0
C1258 C 0.69553 0.8921 0.05986 0.0
C1259 C 0.69966 0.87878 0.0777 0.0
C1260 C 0.65579 0.8641 0.07678 0.0
C1261 C 0.60245 0.86427 0.06028 0.0
C1262 C 0.74467 0.90726 0.05932 0.0
C1263 C 0.65939 0.84947 0.0953 0.0
H1264 H 0.8801 0.87105 0.13071 0.0
H1265 H 0.71429 0.90262 0.15471 0.0
H1266 H 0.82461 0.85042 0.0867 0.0
H1267 H 0.82444 0.86922 0.06682 0.0
H1268 H 0.89306 0.86574 0.08774 0.0
H1269 H 0.61804 0.90726 0.13134 0.0
H1270 H 0.63636 0.90988 0.09983 0.0
H1271 H 0.59983 0.88968 0.11029 0.0
H1272 H 0.63325 0.90337 0.03191 0.0
H1273 H 0.56551 0.85376 0.06098 0.0
H1274 H 0.79624 0.90255 0.06353 0.0
H1275 H 0.7308 0.91719 0.07318 0.0
H1276 H 0.74453 0.91394 0.04147 0.0
H1277 H 0.71167 0.84475 0.09764 0.0
H1278 H 0.62723 0.83802 0.09027 0.0
H1279 H 0.64245 0.85466 0.11298 0.0
C1280 C 0.08932 0.91417 0.17092 0.0
C1281 C 0.08375 0.89966 0.18659 0.0
C1282 C 0.13854 0.91452 0.15309 0.0
C1283 C 0.18465 0.90032 0.15149 0.0
C1284 C 0.18483 0.88687 0.16929 0.0
C1285 C 0.13363 0.88655 0.18648 0.0
C1286 C 0.13575 0.92898 0.13428 0.0
C1287 C 0.23513 0.87192 0.16882 0.0
C1288 C 0.2324 0.88561 0.08865 0.0
C1289 C 0.29399 0.8941 0.08563 0.0
C1290 C 0.19624 0.88769 0.10999 0.0
C1291 C 0.22381 0.89794 0.12909 0.0
C1292 C 0.2869 0.9062 0.12632 0.0
C1293 C 0.32077 0.90446 0.10435 0.0
C1294 C 0.12814 0.87908 0.11194 0.0
C1295 C 0.3189 0.91662 0.14662 0.0
H1296 H 0.05122 0.92444 0.17091 0.0
H1297 H 0.13021 0.87543 0.19877 0.0
H1298 H 0.18662 0.93394 0.13015 0.0
H1299 H 0.11412 0.92352 0.11732 0.0
H1300 H 0.10421 0.94034 0.14007 0.0
H1301 H 0.238 0.86493 0.18643 0.0
H1302 H 0.22016 0.86218 0.15478 0.0
H1303 H 0.28575 0.8769 0.16423 0.0
H1304 H 0.21193 0.87761 0.07408 0.0
H1305 H 0.3691 0.91076 0.10204 0.0
H1306 H 0.08967 0.88922 0.11625 0.0
H1307 H 0.12856 0.86927 0.12682 0.0
H1308 H 0.11284 0.87221 0.09504 0.0
H1309 H 0.2862 0.92787 0.15178 0.0
H1310 H 0.36891 0.92189 0.1417 0.0
H1311 H 0.32468 0.90806 0.16276 0.0
C1312 C 0.20505 0.60664 0.89224 0.0
C1313 C 0.22647 0.61813 0.91062 0.0
C1314 C 0.24083 0.60517 0.87068 0.0
C1315 C 0.30076 0.61492 0.86791 0.0
C1316 C 0.32278 0.62648 0.88654 0.0
C1317 C 0.28451 0.62821 0.90752 0.0
C1318 C 0.21451 0.59324 0.85088 0.0
C1319 C 0.38751 0.63672 0.88455 0.0
C1320 C 0.43752 0.59836 0.82677 0.0
C1321 C 0.43683 0.61132 0.80863 0.0
C1322 C 0.39166 0.59897 0.84572 0.0
C1323 C 0.34247 0.61249 0.84609 0.0
C1324 C 0.33754 0.6246 0.82665 0.0
C1325 C 0.38558 0.62406 0.80831 0.0
C1326 C 0.39963 0.58604 0.86636 0.0
C1327 C 0.28403 0.63876 0.82594 0.0
H1328 H 0.15939 0.59906 0.89455 0.0
H1329 H 0.30085 0.6371 0.92178 0.0
H1330 H 0.21023 0.60074 0.83372 0.0
H1331 H 0.25009 0.58218 0.8478 0.0
H1332 H 0.16468 0.58757 0.85521 0.0
H1333 H 0.39813 0.64485 0.90085 0.0
H1334 H 0.42995 0.62741 0.88185 0.0
H1335 H 0.38542 0.6456 0.86865 0.0
H1336 H 0.47733 0.58857 0.82728 0.0
H1337 H 0.38472 0.63406 0.79428 0.0
H1338 H 0.3511 0.57963 0.87046 0.0
H1339 H 0.41599 0.5933 0.88281 0.0
H1340 H 0.43715 0.57555 0.86247 0.0
H1341 H 0.2345 0.6331 0.83062 0.0
H1342 H 0.28014 0.64513 0.80792 0.0
H1343 H 0.29598 0.64914 0.83947 0.0
C1344 C 0.69241 0.62784 0.85646 0.0
C1345 C 0.7272 0.62088 0.83678 0.0
C1346 C 0.72267 0.62866 0.87931 0.0
C1347 C 0.78988 0.62301 0.88206 0.0
C1348 C 0.82533 0.61613 0.86205 0.0
C1349 C 0.79286 0.6148 0.83966 0.0
C1350 C 0.68273 0.63535 0.90046 0.0
C1351 C 0.89781 0.61041 0.8642 0.0
C1352 C 0.90878 0.64085 0.9288 0.0
C1353 C 0.92319 0.62538 0.94191 0.0
C1354 C 0.86082 0.64074 0.91029 0.0
C1355 C 0.82508 0.62496 0.90544 0.0
C1356 C 0.8326 0.61013 0.92083 0.0
C1357 C 0.88239 0.61043 0.93882 0.0
C1358 C 0.85471 0.65679 0.89415 0.0
C1359 C 0.79288 0.59337 0.91683 0.0
H1360 H 0.64086 0.63216 0.85409 0.0
H1361 H 0.81904 0.60934 0.82428 0.0
H1362 H 0.68218 0.62518 0.91491 0.0
H1363 H 0.7066 0.64736 0.9082 0.0
H1364 H 0.63014 0.63862 0.89536 0.0
H1365 H 0.91854 0.60595 0.84668 0.0
H1366 H 0.92884 0.62155 0.87108 0.0
H1367 H 0.9026 0.59938 0.87731 0.0
H1368 H 0.93931 0.65258 0.93136 0.0
H1369 H 0.8923 0.59857 0.94927 0.0
H1370 H 0.80148 0.65981 0.88992 0.0
H1371 H 0.88016 0.65402 0.87682 0.0
H1372 H 0.8781 0.66872 0.90241 0.0
H1373 H 0.74015 0.59644 0.91179 0.0
H1374 H 0.79323 0.58484 0.93315 0.0
H1375 H 0.81519 0.58573 0.90179 0.0
C1376 C 0.19057 0.63061 0.35463 0.0
C1377 C 0.21705 0.62148 0.33486 0.0
C1378 C 0.22479 0.63092 0.37677 0.0
C1379 C 0.28783 0.62245 0.3787 0.0
C1380 C 0.31462 0.61317 0.35874 0.0
C1381 C 0.27813 0.61254 0.33709 0.0
C1382 C 0.19387 0.64038 0.39796 0.0
C1383 C 0.3826 0.60432 0.36003 0.0
C1384 C 0.4227 0.63791 0.42143 0.0
C1385 C 0.4286 0.62318 0.4367 0.0
C1386 C 0.37367 0.63843 0.4033 0.0
C1387 C 0.32839 0.62413 0.40098 0.0
C1388 C 0.32901 0.61027 0.41813 0.0
C1389 C 0.37989 0.60983 0.43571 0.0
C1390 C 0.3751 0.65335 0.38515 0.0
C1391 C 0.27953 0.59519 0.41673 0.0
H1392 H 0.1425 0.63725 0.35287 0.0
H1393 H 0.29815 0.60548 0.3217 0.0
H1394 H 0.19343 0.63155 0.41395 0.0
H1395 H 0.22435 0.65214 0.40283 0.0
H1396 H 0.14173 0.64481 0.39405 0.0
H1397 H 0.39625 0.59781 0.34278 0.0
H1398 H 0.42164 0.61428 0.36458 0.0
H1399 H 0.38331 0.5942 0.37451 0.0
H1400 H 0.45989 0.64836 0.42222 0.0
H1401 H 0.38362 0.59857 0.44778 0.0
H1402 H 0.32401 0.65868 0.38183 0.0
H1403 H 0.39393 0.64822 0.3677 0.0
H1404 H 0.40811 0.6644 0.3911 0.0
H1405 H 0.2284 0.60016 0.41243 0.0
H1406 H 0.27792 0.5876 0.43387 0.0
H1407 H 0.29425 0.58599 0.40209 0.0
C1408 C 0.7903 0.61892 0.40634 0.0
C1409 C 0.72971 0.6099 0.40922 0.0
C1410 C 0.82577 0.6177 0.3847 0.0
C1411 C 0.79841 0.60783 0.3652 0.0
C1412 C 0.73689 0.59879 0.368 0.0
C1413 C 0.70379 0.59968 0.3902 0.0
C1414 C 0.89236 0.62708 0.38268 0.0
C1415 C 0.70507 0.58868 0.34737 0.0
C1416 C 0.87514 0.62243 0.30639 0.0
C1417 C 0.92585 0.60973 0.30363 0.0
C1418 C 0.82885 0.62109 0.32522 0.0
C1419 C 0.83498 0.60704 0.34201 0.0
C1420 C 0.88255 0.59344 0.33813 0.0
C1421 C 0.92667 0.5948 0.31872 0.0
C1422 C 0.77685 0.63546 0.3282 0.0
C1423 C 0.8917 0.57841 0.35584 0.0
H1424 H 0.81004 0.62685 0.4211 0.0
H1425 H 0.65614 0.59299 0.39235 0.0
H1426 H 0.93168 0.61759 0.37692 0.0
H1427 H 0.88894 0.63759 0.36876 0.0
H1428 H 0.90845 0.63325 0.39999 0.0
H1429 H 0.65763 0.5821 0.35266 0.0
H1430 H 0.69419 0.59787 0.33222 0.0
H1431 H 0.74011 0.57846 0.34053 0.0
H1432 H 0.87392 0.63392 0.29467 0.0
H1433 H 0.96582 0.58493 0.31679 0.0
H1434 H 0.79235 0.64446 0.34306 0.0
H1435 H 0.72767 0.62968 0.33305 0.0
H1436 H 0.77053 0.64347 0.31152 0.0
H1437 H 0.91479 0.5836 0.3727 0.0
H1438 H 0.92457 0.56778 0.34865 0.0
H1439 H 0.84275 0.57251 0.36065 0.0
C1440 C 0.62388 0.38942 0.18047 0.0
C1441 C 0.56886 0.40091 0.18195 0.0
C1442 C 0.66742 0.39019 0.1608 0.0
C1443 C 0.65414 0.40238 0.14194 0.0
C1444 C 0.60149 0.41483 0.1442 0.0
C1445 C 0.56004 0.41412 0.16441 0.0
C1446 C 0.72473 0.37715 0.15941 0.0
C1447 C 0.58495 0.42781 0.12429 0.0
C1448 C 0.78285 0.40924 0.09302 0.0
C1449 C 0.76222 0.39672 0.07579 0.0
C1450 C 0.74827 0.41124 0.11473 0.0
C1451 C 0.69061 0.40086 0.11887 0.0
C1452 C 0.66804 0.3887 0.10108 0.0
C1453 C 0.70494 0.38653 0.07988 0.0
C1454 C 0.77489 0.42394 0.13358 0.0
C1455 C 0.60548 0.37778 0.10458 0.0
H1456 H 0.63094 0.37925 0.19407 0.0
H1457 H 0.51719 0.42295 0.16534 0.0
H1458 H 0.71276 0.36681 0.1458 0.0
H1459 H 0.77127 0.38389 0.1536 0.0
H1460 H 0.73445 0.37053 0.17699 0.0
H1461 H 0.54765 0.43789 0.13001 0.0
H1462 H 0.63072 0.43473 0.11815 0.0
H1463 H 0.56403 0.42051 0.10855 0.0
H1464 H 0.82794 0.4169 0.09001 0.0
H1465 H 0.68917 0.37685 0.06653 0.0
H1466 H 0.78959 0.41647 0.15003 0.0
H1467 H 0.73536 0.43349 0.13887 0.0
H1468 H 0.81911 0.43147 0.12719 0.0
H1469 H 0.61281 0.36858 0.11997 0.0
H1470 H 0.59226 0.36987 0.08831 0.0
H1471 H 0.56252 0.38653 0.10899 0.0
C1472 C 0.07148 0.36759 0.07444 0.0
C1473 C 0.06711 0.38174 0.05814 0.0
C1474 C 0.1184 0.3678 0.09327 0.0
C1475 C 0.16295 0.38227 0.09531 0.0
C1476 C 0.16343 0.39566 0.07749 0.0
C1477 C 0.11477 0.39534 0.05915 0.0
C1478 C 0.11604 0.35339 0.11215 0.0
C1479 C 0.21206 0.41095 0.07874 0.0
C1480 C 0.21403 0.39534 0.15855 0.0
C1481 C 0.2758 0.38673 0.16082 0.0
C1482 C 0.17672 0.39402 0.13715 0.0
C1483 C 0.20332 0.38436 0.1175 0.0
C1484 C 0.26663 0.37607 0.11951 0.0
C1485 C 0.30176 0.37712 0.14137 0.0
C1486 C 0.10844 0.40268 0.1357 0.0
C1487 C 0.29715 0.36615 0.09862 0.0
H1488 H 0.03494 0.35698 0.07368 0.0
H1489 H 0.11208 0.40617 0.04633 0.0
H1490 H 0.16694 0.34807 0.11587 0.0
H1491 H 0.097 0.35901 0.12928 0.0
H1492 H 0.0829 0.34225 0.10665 0.0
H1493 H 0.21349 0.41845 0.06152 0.0
H1494 H 0.19684 0.42018 0.09328 0.0
H1495 H 0.26338 0.40618 0.08315 0.0
H1496 H 0.19446 0.4028 0.17366 0.0
H1497 H 0.3504 0.37077 0.14308 0.0
H1498 H 0.06966 0.39256 0.13159 0.0
H1499 H 0.10716 0.41251 0.12084 0.0
H1500 H 0.09491 0.40951 0.15274 0.0
H1501 H 0.26559 0.35457 0.09382 0.0
H1502 H 0.34873 0.3614 0.10277 0.0
H1503 H 0.2989 0.37483 0.08249 0.0
C1504 C 0.61205 0.39545 0.68873 0.0
C1505 C 0.65312 0.38047 0.69135 0.0
C1506 C 0.5585 0.39537 0.67223 0.0
C1507 C 0.5475 0.38013 0.65789 0.0
C1508 C 0.58262 0.36427 0.66298 0.0
C1509 C 0.63457 0.36457 0.68002 0.0
C1510 C 0.51938 0.41225 0.6681 0.0
C1511 C 0.57242 0.3477 0.64808 0.0
C1512 C 0.41552 0.37718 0.60866 0.0
C1513 C 0.4518 0.38326 0.58884 0.0
C1514 C 0.44498 0.37672 0.63167 0.0
C1515 C 0.51269 0.38188 0.63443 0.0
C1516 C 0.54947 0.38794 0.61428 0.0
C1517 C 0.5179 0.3889 0.59173 0.0
C1518 C 0.4036 0.37104 0.65297 0.0
C1519 C 0.62249 0.39314 0.6164 0.0
H1520 H 0.62491 0.40765 0.69802 0.0
H1521 H 0.66498 0.35278 0.68245 0.0
H1522 H 0.5412 0.41955 0.6527 0.0
H1523 H 0.46618 0.40936 0.6636 0.0
H1524 H 0.5214 0.42101 0.6842 0.0
H1525 H 0.59452 0.33585 0.65699 0.0
H1526 H 0.51846 0.34521 0.64458 0.0
H1527 H 0.59701 0.34944 0.63036 0.0
H1528 H 0.36362 0.37322 0.60623 0.0
H1529 H 0.54521 0.39369 0.57622 0.0
H1530 H 0.39833 0.38233 0.66564 0.0
H1531 H 0.42897 0.3602 0.66301 0.0
H1532 H 0.3527 0.36652 0.64747 0.0
H1533 H 0.62807 0.40454 0.62888 0.0
H1534 H 0.64419 0.39686 0.59874 0.0
H1535 H 0.65223 0.38199 0.62401 0.0
C1536 C 0.93031 0.4016 0.63357 0.0
C1537 C 0.95395 0.39033 0.65184 0.0
C1538 C 0.96501 0.40324 0.6118 0.0
C1539 C 0.02591 0.3939 0.60879 0.0
C1540 C 0.05018 0.38262 0.62737 0.0
C1541 C 0.01307 0.3807 0.64852 0.0
C1542 C 0.93646 0.41483 0.59203 0.0
C1543 C 0.11598 0.37282 0.62512 0.0
C1544 C 0.11356 0.38323 0.55057 0.0
C1545 C 0.16584 0.39561 0.55121 0.0
C1546 C 0.06299 0.38361 0.56797 0.0
C1547 C 0.06634 0.39631 0.58674 0.0
C1548 C 0.11549 0.40979 0.58615 0.0
C1549 C 0.16405 0.40945 0.5681 0.0
C1550 C 0.00953 0.36948 0.56743 0.0
C1551 C 0.12168 0.42339 0.60606 0.0
H1552 H 0.88385 0.40882 0.63612 0.0
H1553 H 0.03112 0.37202 0.66275 0.0
H1554 H 0.97112 0.42595 0.58831 0.0
H1555 H 0.93127 0.40708 0.5751 0.0
H1556 H 0.88667 0.4204 0.59676 0.0
H1557 H 0.12864 0.36505 0.64156 0.0
H1558 H 0.11382 0.36363 0.60952 0.0
H1559 H 0.15714 0.38236 0.62176 0.0
H1560 H 0.11438 0.37262 0.53737 0.0
H1561 H 0.20439 0.41905 0.56875 0.0
H1562 H 0.96 0.37512 0.57224 0.0
H1563 H 0.02205 0.3591 0.5809 0.0
H1564 H 0.00547 0.36308 0.54942 0.0
H1565 H 0.07217 0.42922 0.61035 0.0
H1566 H 0.1566 0.43426 0.60131 0.0
H1567 H 0.14088 0.41683 0.62267 0.0
C1568 C 0.13194 0.13685 0.66822 0.0
C1569 C 0.17316 0.1258 0.68218 0.0
C1570 C 0.13751 0.13718 0.64309 0.0
C1571 C 0.18442 0.12589 0.63178 0.0
C1572 C 0.22849 0.11537 0.6459 0.0
C1573 C 0.22271 0.11559 0.67106 0.0
C1574 C 0.09037 0.14881 0.62862 0.0
C1575 C 0.27866 0.10304 0.63443 0.0
C1576 C 0.12827 0.11029 0.57016 0.0
C1577 C 0.16634 0.12105 0.55502 0.0
C1578 C 0.1359 0.11125 0.59521 0.0
C1579 C 0.18156 0.1236 0.6053 0.0
C1580 C 0.22095 0.13433 0.59009 0.0
C1581 C 0.21322 0.13281 0.56502 0.0
C1582 C 0.09351 0.09943 0.61088 0.0
C1583 C 0.26942 0.1478 0.60029 0.0
H1584 H 0.0932 0.14463 0.67683 0.0
H1585 H 0.25516 0.10725 0.682 0.0
H1586 H 0.11828 0.15624 0.61469 0.0
H1587 H 0.05285 0.14042 0.61912 0.0
H1588 H 0.06322 0.15842 0.64016 0.0
H1589 H 0.31418 0.09732 0.64788 0.0
H1590 H 0.25164 0.09202 0.62535 0.0
H1591 H 0.30771 0.11008 0.62044 0.0
H1592 H 0.0911 0.10143 0.56243 0.0
H1593 H 0.24296 0.14104 0.55321 0.0
H1594 H 0.05775 0.10762 0.62132 0.0
H1595 H 0.12564 0.09221 0.62406 0.0
H1596 H 0.06449 0.08959 0.60015 0.0
H1597 H 0.24132 0.15814 0.61024 0.0
H1598 H 0.29926 0.15433 0.58601 0.0
H1599 H 0.30428 0.14142 0.61336 0.0
C1600 C 0.88213 0.87492 0.40971 0.0
C1601 C 0.84728 0.88683 0.42429 0.0
C1602 C 0.8739 0.87525 0.38466 0.0
C1603 C 0.82954 0.88779 0.37418 0.0
C1604 C 0.79315 0.89961 0.38894 0.0
C1605 C 0.80271 0.89903 0.41397 0.0
C1606 C 0.91398 0.86255 0.3694 0.0
C1607 C 0.74523 0.91306 0.37828 0.0
C1608 C 0.87013 0.90069 0.31037 0.0
C1609 C 0.82588 0.88996 0.29724 0.0
C1610 C 0.87033 0.90049 0.33554 0.0
C1611 C 0.82513 0.88926 0.34769 0.0
C1612 C 0.77901 0.87873 0.33445 0.0
C1613 C 0.78014 0.87916 0.3092 0.0
C1614 C 0.92056 0.9118 0.34909 0.0
C1615 C 0.73003 0.86668 0.34695 0.0
H1616 H 0.91668 0.86554 0.41794 0.0
H1617 H 0.77541 0.90807 0.42551 0.0
H1618 H 0.88008 0.85489 0.35735 0.0
H1619 H 0.94869 0.87009 0.35774 0.0
H1620 H 0.94387 0.85311 0.3805 0.0
H1621 H 0.71783 0.92055 0.39236 0.0
H1622 H 0.77325 0.92262 0.36703 0.0
H1623 H 0.70819 0.90638 0.36631 0.0
H1624 H 0.90595 0.90886 0.30089 0.0
H1625 H 0.74617 0.87089 0.29878 0.0
H1626 H 0.95616 0.90318 0.35917 0.0
H1627 H 0.89467 0.92024 0.3625 0.0
H1628 H 0.94969 0.92049 0.33689 0.0
H1629 H 0.75779 0.85608 0.35668 0.0
H1630 H 0.69427 0.86039 0.33408 0.0
H1631 H 0.7012 0.87422 0.36057 0.0
C1632 C 0.14212 0.61252 0.07524 0.0
C1633 C 0.17937 0.62322 0.05977 0.0
C1634 C 0.15041 0.61378 0.10024 0.0
C1635 C 0.1957 0.62641 0.10992 0.0
C1636 C 0.23507 0.63686 0.09436 0.0
C1637 C 0.22694 0.63498 0.06936 0.0
C1638 C 0.10841 0.60215 0.1163 0.0
C1639 C 0.28309 0.65062 0.10408 0.0
C1640 C 0.13998 0.6407 0.17162 0.0
C1641 C 0.18004 0.62993 0.18639 0.0
C1642 C 0.14851 0.64079 0.14661 0.0
C1643 C 0.19712 0.62949 0.13625 0.0
C1644 C 0.24063 0.61947 0.15123 0.0
C1645 C 0.23204 0.62 0.17626 0.0
C1646 C 0.10218 0.65198 0.1312 0.0
C1647 C 0.29255 0.60714 0.14081 0.0
H1648 H 0.10459 0.60363 0.06785 0.0
H1649 H 0.25623 0.64311 0.05728 0.0
H1650 H 0.1405 0.59554 0.13007 0.0
H1651 H 0.07131 0.6104 0.12602 0.0
H1652 H 0.08089 0.59181 0.10593 0.0
H1653 H 0.31485 0.65635 0.08971 0.0
H1654 H 0.25427 0.66152 0.11258 0.0
H1655 H 0.31611 0.64484 0.11824 0.0
H1656 H 0.09948 0.64831 0.17944 0.0
H1657 H 0.26374 0.61192 0.18784 0.0
H1658 H 0.06524 0.64331 0.12188 0.0
H1659 H 0.13081 0.65905 0.11712 0.0
H1660 H 0.07429 0.66188 0.14206 0.0
H1661 H 0.26702 0.59551 0.13263 0.0
H1662 H 0.32846 0.60231 0.15478 0.0
H1663 H 0.321 0.61378 0.12632 0.0
C1664 C 0.94242 0.39172 0.91872 0.0
C1665 C 0.8921 0.38195 0.93 0.0
C1666 C 0.94909 0.39136 0.89366 0.0
C1667 C 0.90555 0.38053 0.87983 0.0
C1668 C 0.85709 0.36986 0.89129 0.0
C1669 C 0.85041 0.37086 0.91634 0.0
C1670 C 0.00056 0.40313 0.88195 0.0
C1671 C 0.81077 0.35789 0.87704 0.0
C1672 C 0.86174 0.39434 0.81637 0.0
C1673 C 0.90396 0.38342 0.80285 0.0
C1674 C 0.86324 0.39383 0.84152 0.0
C1675 C 0.90637 0.38166 0.8533 0.0
C1676 C 0.94893 0.3705 0.83977 0.0
C1677 C 0.94777 0.37168 0.81457 0.0
C1678 C 0.81792 0.40614 0.85544 0.0
C1679 C 0.9944 0.35712 0.85187 0.0
H1680 H 0.97596 0.39988 0.92946 0.0
H1681 H 0.81169 0.36327 0.92521 0.0
H1682 H 0.03283 0.39527 0.86975 0.0
H1683 H 0.97474 0.4133 0.87078 0.0
H1684 H 0.033 0.40998 0.89542 0.0
H1685 H 0.78145 0.34898 0.88887 0.0
H1686 H 0.77517 0.36603 0.86625 0.0
H1687 H 0.83984 0.34968 0.86422 0.0
H1688 H 0.82638 0.40302 0.80728 0.0
H1689 H 0.98029 0.36325 0.80399 0.0
H1690 H 0.84767 0.41385 0.86881 0.0
H1691 H 0.78059 0.39831 0.8656 0.0
H1692 H 0.79059 0.41556 0.84349 0.0
H1693 H 0.02888 0.36385 0.86472 0.0
H1694 H 0.02471 0.34954 0.83868 0.0
H1695 H 0.96398 0.34765 0.86245 0.0
C1696 C 0.72245 0.12015 0.17307 0.0
C1697 C 0.67231 0.13011 0.18426 0.0
C1698 C 0.72863 0.12018 0.14793 0.0
C1699 C 0.68441 0.13073 0.13392 0.0
C1700 C 0.63735 0.14192 0.14534 0.0
C1701 C 0.63135 0.14132 0.17045 0.0
C1702 C 0.77893 0.10794 0.13636 0.0
C1703 C 0.59018 0.1536 0.13097 0.0
C1704 C 0.71384 0.13712 0.06708 0.0
C1705 C 0.66737 0.1252 0.05719 0.0
C1706 C 0.72081 0.13898 0.09214 0.0
C1707 C 0.68119 0.12839 0.10744 0.0
C1708 C 0.63574 0.11593 0.09748 0.0
C1709 C 0.62879 0.11465 0.07242 0.0
C1710 C 0.76897 0.15258 0.1022 0.0
C1711 C 0.5932 0.10423 0.11327 0.0
H1712 H 0.75463 0.11166 0.18391 0.0
H1713 H 0.59219 0.14892 0.17911 0.0
H1714 H 0.75203 0.09683 0.12744 0.0
H1715 H 0.80747 0.11499 0.12225 0.0
H1716 H 0.8149 0.10232 0.14975 0.0
H1717 H 0.56366 0.16329 0.14259 0.0
H1718 H 0.61787 0.16094 0.11689 0.0
H1719 H 0.55213 0.14526 0.12168 0.0
H1720 H 0.74399 0.14518 0.0552 0.0
H1721 H 0.59191 0.10568 0.06476 0.0
H1722 H 0.80447 0.14627 0.11511 0.0
H1723 H 0.74076 0.16281 0.11232 0.0
H1724 H 0.79812 0.15922 0.08784 0.0
H1725 H 0.62529 0.09703 0.12647 0.0
H1726 H 0.56393 0.09439 0.10264 0.0
H1727 H 0.55766 0.1125 0.12368 0.0
C1728 C 0.38708 0.89987 0.82133 0.0
C1729 C 0.35252 0.88734 0.80745 0.0
C1730 C 0.38141 0.9 0.84644 0.0
C1731 C 0.34021 0.88726 0.85769 0.0
C1732 C 0.30429 0.87475 0.84364 0.0
C1733 C 0.31099 0.87494 0.81854 0.0
C1734 C 0.4207 0.91347 0.86094 0.0
C1735 C 0.2599 0.86102 0.85514 0.0
C1736 C 0.38585 0.87613 0.92204 0.0
C1737 C 0.33952 0.88637 0.9347 0.0
C1738 C 0.38556 0.87599 0.89686 0.0
C1739 C 0.33789 0.88644 0.88424 0.0
C1740 C 0.29023 0.89661 0.89701 0.0
C1741 C 0.29174 0.89648 0.92227 0.0
C1742 C 0.4373 0.86504 0.88378 0.0
C1743 C 0.23878 0.90788 0.88401 0.0
H1744 H 0.41942 0.90937 0.81253 0.0
H1745 H 0.28396 0.86538 0.80756 0.0
H1746 H 0.38663 0.92105 0.87283 0.0
H1747 H 0.45768 0.90659 0.87274 0.0
H1748 H 0.44798 0.92295 0.84929 0.0
H1749 H 0.23306 0.85278 0.84154 0.0
H1750 H 0.29057 0.85217 0.86681 0.0
H1751 H 0.22238 0.86755 0.86683 0.0
H1752 H 0.42321 0.8685 0.9319 0.0
H1753 H 0.25621 0.9044 0.93233 0.0
H1754 H 0.47045 0.87386 0.87325 0.0
H1755 H 0.41236 0.85593 0.87082 0.0
H1756 H 0.46891 0.85708 0.89634 0.0
H1757 H 0.26438 0.91835 0.87352 0.0
H1758 H 0.20327 0.91431 0.89663 0.0
H1759 H 0.2098 0.89968 0.87099 0.0
C1760 C 0.6217 0.62914 0.5719 0.0
C1761 C 0.66278 0.61798 0.55836 0.0
C1762 C 0.62639 0.62938 0.59707 0.0
C1763 C 0.67332 0.61815 0.60878 0.0
C1764 C 0.71608 0.60714 0.59508 0.0
C1765 C 0.7101 0.60715 0.56989 0.0
C1766 C 0.5797 0.64121 0.61114 0.0
C1767 C 0.76678 0.59506 0.60705 0.0
C1768 C 0.71036 0.6287 0.67431 0.0
C1769 C 0.66712 0.61694 0.68585 0.0
C1770 C 0.71459 0.62891 0.6491 0.0
C1771 C 0.67423 0.61714 0.6354 0.0
C1772 C 0.63143 0.60501 0.6471 0.0
C1773 C 0.62836 0.60509 0.67227 0.0
C1774 C 0.76088 0.64195 0.63713 0.0
C1775 C 0.58737 0.59234 0.63304 0.0
H1776 H 0.58479 0.63739 0.56278 0.0
H1777 H 0.74188 0.5986 0.55917 0.0
H1778 H 0.54576 0.63298 0.62221 0.0
H1779 H 0.6088 0.64976 0.6237 0.0
H1780 H 0.54864 0.64981 0.5992 0.0
H1781 H 0.79916 0.58822 0.59375 0.0
H1782 H 0.79911 0.60273 0.61966 0.0
H1783 H 0.74047 0.58489 0.61785 0.0
H1784 H 0.74033 0.6378 0.68503 0.0
H1785 H 0.59439 0.59616 0.68136 0.0
H1786 H 0.73103 0.65157 0.62634 0.0
H1787 H 0.79468 0.63495 0.6245 0.0
H1788 H 0.79189 0.64941 0.65042 0.0
H1789 H 0.55055 0.59992 0.622 0.0
H1790 H 0.55952 0.58317 0.64497 0.0
H1791 H 0.61807 0.58437 0.62044 0.0
C1792 C 0.33722 0.3724 0.32193 0.0
C1793 C 0.3776 0.3842 0.30924 0.0
C1794 C 0.34251 0.37117 0.34706 0.0
C1795 C 0.38903 0.38209 0.35946 0.0
C1796 C 0.43026 0.39394 0.34659 0.0
C1797 C 0.42407 0.39482 0.32151 0.0
C1798 C 0.29782 0.35841 0.36033 0.0
C1799 C 0.48015 0.40583 0.35933 0.0
C1800 C 0.35466 0.39354 0.42433 0.0
C1801 C 0.39957 0.38233 0.43643 0.0
C1802 C 0.35057 0.39352 0.39919 0.0
C1803 C 0.39214 0.38188 0.38603 0.0
C1804 C 0.43729 0.37041 0.39822 0.0
C1805 C 0.44052 0.37079 0.42346 0.0
C1806 C 0.30193 0.40595 0.38674 0.0
C1807 C 0.4821 0.35782 0.3846 0.0
H1808 H 0.30142 0.36423 0.31217 0.0
H1809 H 0.4557 0.40377 0.31142 0.0
H1810 H 0.32859 0.34941 0.37176 0.0
H1811 H 0.26409 0.36585 0.37251 0.0
H1812 H 0.26663 0.35028 0.34785 0.0
H1813 H 0.5098 0.41389 0.34652 0.0
H1814 H 0.45347 0.41492 0.37172 0.0
H1815 H 0.51522 0.39777 0.37046 0.0
H1816 H 0.32229 0.40223 0.4346 0.0
H1817 H 0.47487 0.3621 0.43308 0.0
H1818 H 0.26605 0.39829 0.37545 0.0
H1819 H 0.32946 0.41497 0.37454 0.0
H1820 H 0.27308 0.4141 0.39973 0.0
H1821 H 0.45132 0.34896 0.373 0.0
H1822 H 0.51345 0.34955 0.39686 0.0
H1823 H 0.51563 0.3654 0.37255 0.0
loop_
_geom_bond_atom_site_label_1
_geom_bond_atom_site_label_2
_geom_bond_distance
_geom_bond_site_symmetry_2
_ccdc_geom_bond_type
Co0 O3 1.970 . S
Co0 N17 1.989 . S
Co0 O25 1.967 . S
Co0 O32 1.920 . S
Co1 O4 1.966 . S
Co1 N10 2.022 . S
Co1 N18 1.993 . S
Co1 O26 1.941 . S
C2 O3 1.258 . S
C2 O4 1.263 . S
O3 Co0 1.970 . S
O3 C2 1.258 . S
O4 Co1 1.966 . S
O4 C2 1.263 . S
C5 O6 1.235 . S
C5 O32 1.289 . S
O6 C5 1.235 . S
C7 C9 1.400 . S
C7 N10 1.351 . S
C7 C12 1.501 . S
C8 C9 1.387 . S
C8 N11 1.341 . S
C9 C7 1.400 . S
C9 C8 1.387 . S
N10 Co1 2.022 . S
N10 C7 1.351 . S
N10 N11 1.365 . S
N11 C8 1.341 . S
N11 N10 1.365 . S
N11 H31 0.862 . S
C12 C7 1.501 . S
C12 H13 0.961 . S
C12 H14 0.961 . S
C12 H15 0.960 . S
H13 C12 0.961 . S
H14 C12 0.961 . S
H15 C12 0.960 . S
C16 N17 1.342 . S
C16 C20 1.401 . S
C16 C21 1.499 . S
N17 Co0 1.989 . S
N17 C16 1.342 . S
N17 N18 1.388 . S
N18 Co1 1.993 . S
N18 N17 1.388 . S
N18 C19 1.346 . S
C19 N18 1.346 . S
C19 C20 1.396 . S
C19 C29 1.510 . S
C20 C16 1.401 . S
C20 C19 1.396 . S
C21 C16 1.499 . S
C21 H22 0.959 . S
C21 H23 0.960 . S
C21 H24 0.961 . S
H22 C21 0.959 . S
H23 C21 0.960 . S
H24 C21 0.961 . S
O25 Co0 1.967 . S
O25 C33 1.258 . S
O26 Co1 1.941 . S
O26 C33 1.266 . S
H27 C29 0.959 . S
H28 C29 0.961 . S
C29 C19 1.510 . S
C29 H27 0.959 . S
C29 H28 0.961 . S
C29 H30 0.960 . S
H30 C29 0.960 . S
H31 N11 0.862 . S
O32 Co0 1.920 . S
O32 C5 1.289 . S
C33 O25 1.258 . S
C33 O26 1.266 . S
Co34 O37 1.970 . S
Co34 N51 1.989 . S
Co34 O59 1.967 . S
Co34 O66 1.920 . S
Co35 O38 1.966 . S
Co35 N44 2.022 . S
Co35 N52 1.993 . S
Co35 O60 1.941 . S
C36 O37 1.258 . S
C36 O38 1.263 . S
O37 Co34 1.970 . S
O37 C36 1.258 . S
O38 Co35 1.966 . S
O38 C36 1.263 . S
C39 O40 1.235 . S
C39 O66 1.289 . S
O40 C39 1.235 . S
C41 C43 1.400 . S
C41 N44 1.351 . S
C41 C46 1.501 1_455 S
C42 C43 1.387 . S
C42 N45 1.341 . S
C43 C41 1.400 . S
C43 C42 1.387 . S
N44 Co35 2.022 . S
N44 C41 1.351 . S
N44 N45 1.365 . S
N45 C42 1.341 . S
N45 N44 1.365 . S
N45 H65 0.862 . S
C46 C41 1.501 1_655 S
C46 H47 0.961 . S
C46 H48 0.961 . S
C46 H49 0.960 . S
H47 C46 0.961 . S
H48 C46 0.961 . S
H49 C46 0.960 . S
C50 N51 1.342 . S
C50 C54 1.401 . S
C50 C55 1.499 . S
N51 Co34 1.989 . S
N51 C50 1.342 . S
N51 N52 1.388 . S
N52 Co35 1.993 . S
N52 N51 1.388 . S
N52 C53 1.346 . S
C53 N52 1.346 . S
C53 C54 1.396 . S
C53 C63 1.510 . S
C54 C50 1.401 . S
C54 C53 1.396 . S
C55 C50 1.499 . S
C55 H56 0.959 . S
C55 H57 0.960 . S
C55 H58 0.961 . S
H56 C55 0.959 . S
H57 C55 0.960 . S
H58 C55 0.961 . S
O59 Co34 1.967 . S
O59 C67 1.258 . S
O60 Co35 1.941 . S
O60 C67 1.266 . S
H61 C63 0.959 . S
H62 C63 0.961 . S
C63 C53 1.510 . S
C63 H61 0.959 . S
C63 H62 0.961 . S
C63 H64 0.960 . S
H64 C63 0.960 . S
H65 N45 0.862 . S
O66 Co34 1.920 . S
O66 C39 1.289 . S
C67 O59 1.258 . S
C67 O60 1.266 . S
Co68 O71 1.970 . S
Co68 N85 1.989 . S
Co68 O93 1.967 . S
Co68 O100 1.920 . S
Co69 O72 1.966 . S
Co69 N78 2.022 . S
Co69 N86 1.993 . S
Co69 O94 1.941 . S
C70 O71 1.258 . S
C70 O72 1.263 . S
O71 Co68 1.970 . S
O71 C70 1.258 . S
O72 Co69 1.966 . S
O72 C70 1.263 . S
C73 O74 1.235 . S
C73 O100 1.289 . S
O74 C73 1.235 . S
C75 C77 1.400 . S
C75 N78 1.351 . S
C75 C80 1.501 . S
C76 C77 1.387 . S
C76 N79 1.341 . S
C77 C75 1.400 . S
C77 C76 1.387 . S
N78 Co69 2.022 . S
N78 C75 1.351 . S
N78 N79 1.365 . S
N79 C76 1.341 . S
N79 N78 1.365 . S
N79 H99 0.862 . S
C80 C75 1.501 . S
C80 H81 0.961 . S
C80 H82 0.961 . S
C80 H83 0.960 . S
H81 C80 0.961 . S
H82 C80 0.961 . S
H83 C80 0.960 . S
C84 N85 1.342 . S
C84 C88 1.401 . S
C84 C89 1.499 . S
N85 Co68 1.989 . S
N85 C84 1.342 . S
N85 N86 1.388 . S
N86 Co69 1.993 . S
N86 N85 1.388 . S
N86 C87 1.346 . S
C87 N86 1.346 . S
C87 C88 1.396 . S
C87 C97 1.510 . S
C88 C84 1.401 . S
C88 C87 1.396 . S
C89 C84 1.499 . S
C89 H90 0.959 . S
C89 H91 0.960 . S
C89 H92 0.961 . S
H90 C89 0.959 . S
H91 C89 0.960 . S
H92 C89 0.961 . S
O93 Co68 1.967 . S
O93 C101 1.258 . S
O94 Co69 1.941 . S
O94 C101 1.266 . S
H95 C97 0.959 . S
H96 C97 0.961 . S
C97 C87 1.510 . S
C97 H95 0.959 . S
C97 H96 0.961 . S
C97 H98 0.960 . S
H98 C97 0.960 . S
H99 N79 0.862 . S
O100 Co68 1.920 . S
O100 C73 1.289 . S
C101 O93 1.258 . S
C101 O94 1.266 . S
Co102 O105 1.970 . S
Co102 N119 1.989 . S
Co102 O127 1.967 . S
Co102 O134 1.920 . S
Co103 O106 1.966 . S
Co103 N112 2.022 . S
Co103 N120 1.993 . S
Co103 O128 1.941 . S
C104 O105 1.258 . S
C104 O106 1.263 . S
O105 Co102 1.970 . S
O105 C104 1.258 . S
O106 Co103 1.966 . S
O106 C104 1.263 . S
C107 O108 1.235 . S
C107 O134 1.289 . S
O108 C107 1.235 . S
C109 C111 1.400 . S
C109 N112 1.351 . S
C109 C114 1.501 1_655 S
C110 C111 1.387 . S
C110 N113 1.341 . S
C111 C109 1.400 . S
C111 C110 1.387 . S
N112 Co103 2.022 . S
N112 C109 1.351 . S
N112 N113 1.365 . S
N113 C110 1.341 . S
N113 N112 1.365 . S
N113 H133 0.862 . S
C114 C109 1.501 1_455 S
C114 H115 0.961 . S
C114 H116 0.961 . S
C114 H117 0.960 . S
H115 C114 0.961 . S
H116 C114 0.961 . S
H117 C114 0.960 . S
C118 N119 1.342 . S
C118 C122 1.401 . S
C118 C123 1.499 . S
N119 Co102 1.989 . S
N119 C118 1.342 . S
N119 N120 1.388 . S
N120 Co103 1.993 . S
N120 N119 1.388 . S
N120 C121 1.346 . S
C121 N120 1.346 . S
C121 C122 1.396 . S
C121 C131 1.510 . S
C122 C118 1.401 . S
C122 C121 1.396 . S
C123 C118 1.499 . S
C123 H124 0.959 . S
C123 H125 0.960 . S
C123 H126 0.961 . S
H124 C123 0.959 . S
H125 C123 0.960 . S
H126 C123 0.961 . S
O127 Co102 1.967 . S
O127 C135 1.258 . S
O128 Co103 1.941 . S
O128 C135 1.266 . S
H129 C131 0.959 . S
H130 C131 0.961 . S
C131 C121 1.510 . S
C131 H129 0.959 . S
C131 H130 0.961 . S
C131 H132 0.960 . S
H132 C131 0.960 . S
H133 N113 0.862 . S
O134 Co102 1.920 . S
O134 C107 1.289 . S
C135 O127 1.258 . S
C135 O128 1.266 . S
Co136 O139 1.970 . S
Co136 N153 1.989 1_556 S
Co136 O161 1.967 . S
Co136 O168 1.920 . S
Co137 O140 1.966 . S
Co137 N146 2.022 . S
Co137 N154 1.993 1_556 S
Co137 O162 1.941 . S
C138 O139 1.258 . S
C138 O140 1.263 . S
O139 Co136 1.970 . S
O139 C138 1.258 . S
O140 Co137 1.966 . S
O140 C138 1.263 . S
C141 O142 1.235 . S
C141 O168 1.289 . S
O142 C141 1.235 . S
C143 C145 1.400 . S
C143 N146 1.351 . S
C143 C148 1.501 . S
C144 C145 1.387 . S
C144 N147 1.341 . S
C145 C143 1.400 . S
C145 C144 1.387 . S
N146 Co137 2.022 . S
N146 C143 1.351 . S
N146 N147 1.365 . S
N147 C144 1.341 . S
N147 N146 1.365 . S
N147 H167 0.862 . S
C148 C143 1.501 . S
C148 H149 0.961 . S
C148 H150 0.961 . S
C148 H151 0.960 . S
H149 C148 0.961 . S
H150 C148 0.961 . S
H151 C148 0.960 . S
C152 N153 1.342 . S
C152 C156 1.401 . S
C152 C157 1.499 . S
N153 Co136 1.989 1_554 S
N153 C152 1.342 . S
N153 N154 1.388 . S
N154 Co137 1.993 1_554 S
N154 N153 1.388 . S
N154 C155 1.346 . S
C155 N154 1.346 . S
C155 C156 1.396 . S
C155 C165 1.510 . S
C156 C152 1.401 . S
C156 C155 1.396 . S
C157 C152 1.499 . S
C157 H158 0.959 . S
C157 H159 0.960 . S
C157 H160 0.961 . S
H158 C157 0.959 . S
H159 C157 0.960 . S
H160 C157 0.961 . S
O161 Co136 1.967 . S
O161 C169 1.258 . S
O162 Co137 1.941 . S
O162 C169 1.266 . S
H163 C165 0.959 . S
H164 C165 0.961 . S
C165 C155 1.510 . S
C165 H163 0.959 . S
C165 H164 0.961 . S
C165 H166 0.960 . S
H166 C165 0.960 . S
H167 N147 0.862 . S
O168 Co136 1.920 . S
O168 C141 1.289 . S
C169 O161 1.258 . S
C169 O162 1.266 . S
Co170 O173 1.970 . S
Co170 N187 1.989 . S
Co170 O195 1.967 . S
Co170 O202 1.920 . S
Co171 O174 1.966 . S
Co171 N180 2.022 . S
Co171 N188 1.993 . S
Co171 O196 1.941 . S
C172 O173 1.258 . S
C172 O174 1.263 . S
O173 Co170 1.970 . S
O173 C172 1.258 . S
O174 Co171 1.966 . S
O174 C172 1.263 . S
C175 O176 1.235 . S
C175 O202 1.289 . S
O176 C175 1.235 . S
C177 C179 1.400 . S
C177 N180 1.351 . S
C177 C182 1.501 1_455 S
C178 C179 1.387 . S
C178 N181 1.341 . S
C179 C177 1.400 . S
C179 C178 1.387 . S
N180 Co171 2.022 . S
N180 C177 1.351 . S
N180 N181 1.365 . S
N181 C178 1.341 . S
N181 N180 1.365 . S
N181 H201 0.862 . S
C182 C177 1.501 1_655 S
C182 H183 0.961 . S
C182 H184 0.961 . S
C182 H185 0.960 . S
H183 C182 0.961 . S
H184 C182 0.961 . S
H185 C182 0.960 . S
C186 N187 1.342 . S
C186 C190 1.401 . S
C186 C191 1.499 . S
N187 Co170 1.989 . S
N187 C186 1.342 . S
N187 N188 1.388 . S
N188 Co171 1.993 . S
N188 N187 1.388 . S
N188 C189 1.346 . S
C189 N188 1.346 . S
C189 C190 1.396 . S
C189 C199 1.510 . S
C190 C186 1.401 . S
C190 C189 1.396 . S
C191 C186 1.499 . S
C191 H192 0.959 . S
C191 H193 0.960 . S
C191 H194 0.961 . S
H192 C191 0.959 . S
H193 C191 0.960 . S
H194 C191 0.961 . S
O195 Co170 1.967 . S
O195 C203 1.258 . S
O196 Co171 1.941 . S
O196 C203 1.266 . S
H197 C199 0.959 . S
H198 C199 0.961 . S
C199 C189 1.510 . S
C199 H197 0.959 . S
C199 H198 0.961 . S
C199 H200 0.960 . S
H200 C199 0.960 . S
H201 N181 0.862 . S
O202 Co170 1.920 . S
O202 C175 1.289 . S
C203 O195 1.258 . S
C203 O196 1.266 . S
Co204 O207 1.970 . S
Co204 N221 1.989 1_554 S
Co204 O229 1.967 . S
Co204 O236 1.920 . S
Co205 O208 1.966 . S
Co205 N214 2.022 . S
Co205 N222 1.993 1_554 S
Co205 O230 1.941 . S
C206 O207 1.258 . S
C206 O208 1.263 . S
O207 Co204 1.970 . S
O207 C206 1.258 . S
O208 Co205 1.966 . S
O208 C206 1.263 . S
C209 O210 1.235 . S
C209 O236 1.289 . S
O210 C209 1.235 . S
C211 C213 1.400 . S
C211 N214 1.351 . S
C211 C216 1.501 . S
C212 C213 1.387 . S
C212 N215 1.341 . S
C213 C211 1.400 . S
C213 C212 1.387 . S
N214 Co205 2.022 . S
N214 C211 1.351 . S
N214 N215 1.365 . S
N215 C212 1.341 . S
N215 N214 1.365 . S
N215 H235 0.862 . S
C216 C211 1.501 . S
C216 H217 0.961 . S
C216 H218 0.961 . S
C216 H219 0.960 . S
H217 C216 0.961 . S
H218 C216 0.961 . S
H219 C216 0.960 . S
C220 N221 1.342 . S
C220 C224 1.401 . S
C220 C225 1.499 . S
N221 Co204 1.989 1_556 S
N221 C220 1.342 . S
N221 N222 1.388 . S
N222 Co205 1.993 1_556 S
N222 N221 1.388 . S
N222 C223 1.346 . S
C223 N222 1.346 . S
C223 C224 1.396 . S
C223 C233 1.510 . S
C224 C220 1.401 . S
C224 C223 1.396 . S
C225 C220 1.499 . S
C225 H226 0.959 . S
C225 H227 0.960 . S
C225 H228 0.961 . S
H226 C225 0.959 . S
H227 C225 0.960 . S
H228 C225 0.961 . S
O229 Co204 1.967 . S
O229 C237 1.258 . S
O230 Co205 1.941 . S
O230 C237 1.266 . S
H231 C233 0.959 . S
H232 C233 0.961 . S
C233 C223 1.510 . S
C233 H231 0.959 . S
C233 H232 0.961 . S
C233 H234 0.960 . S
H234 C233 0.960 . S
H235 N215 0.862 . S
O236 Co204 1.920 . S
O236 C209 1.289 . S
C237 O229 1.258 . S
C237 O230 1.266 . S
Co238 O241 1.970 . S
Co238 N255 1.989 . S
Co238 O263 1.967 . S
Co238 O270 1.920 . S
Co239 O242 1.966 . S
Co239 N248 2.022 . S
Co239 N256 1.993 . S
Co239 O264 1.941 . S
C240 O241 1.258 . S
C240 O242 1.263 . S
O241 Co238 1.970 . S
O241 C240 1.258 . S
O242 Co239 1.966 . S
O242 C240 1.263 . S
C243 O244 1.235 . S
C243 O270 1.289 . S
O244 C243 1.235 . S
C245 C247 1.400 . S
C245 N248 1.351 . S
C245 C250 1.501 1_655 S
C246 C247 1.387 . S
C246 N249 1.341 . S
C247 C245 1.400 . S
C247 C246 1.387 . S
N248 Co239 2.022 . S
N248 C245 1.351 . S
N248 N249 1.365 . S
N249 C246 1.341 . S
N249 N248 1.365 . S
N249 H269 0.862 . S
C250 C245 1.501 1_455 S
C250 H251 0.961 . S
C250 H252 0.961 . S
C250 H253 0.960 . S
H251 C250 0.961 . S
H252 C250 0.961 . S
H253 C250 0.960 . S
C254 N255 1.342 . S
C254 C258 1.401 . S
C254 C259 1.499 . S
N255 Co238 1.989 . S
N255 C254 1.342 . S
N255 N256 1.388 . S
N256 Co239 1.993 . S
N256 N255 1.388 . S
N256 C257 1.346 . S
C257 N256 1.346 . S
C257 C258 1.396 . S
C257 C267 1.510 . S
C258 C254 1.401 . S
C258 C257 1.396 . S
C259 C254 1.499 . S
C259 H260 0.959 . S
C259 H261 0.960 . S
C259 H262 0.961 . S
H260 C259 0.959 . S
H261 C259 0.960 . S
H262 C259 0.961 . S
O263 Co238 1.967 . S
O263 C271 1.258 . S
O264 Co239 1.941 . S
O264 C271 1.266 . S
H265 C267 0.959 . S
H266 C267 0.961 . S
C267 C257 1.510 . S
C267 H265 0.959 . S
C267 H266 0.961 . S
C267 H268 0.960 . S
H268 C267 0.960 . S
H269 N249 0.862 . S
O270 Co238 1.920 . S
O270 C243 1.289 . S
C271 O263 1.258 . S
C271 O264 1.266 . S
Co272 O275 1.970 . S
Co272 N289 1.989 1_556 S
Co272 O297 1.967 . S
Co272 O304 1.920 . S
Co273 O276 1.966 . S
Co273 N282 2.022 . S
Co273 N290 1.993 1_556 S
Co273 O298 1.941 . S
C274 O275 1.258 . S
C274 O276 1.263 . S
O275 Co272 1.970 . S
O275 C274 1.258 . S
O276 Co273 1.966 . S
O276 C274 1.263 . S
C277 O278 1.235 . S
C277 O304 1.289 . S
O278 C277 1.235 . S
C279 C281 1.400 . S
C279 N282 1.351 . S
C279 C284 1.501 . S
C280 C281 1.387 . S
C280 N283 1.341 . S
C281 C279 1.400 . S
C281 C280 1.387 . S
N282 Co273 2.022 . S
N282 C279 1.351 . S
N282 N283 1.365 . S
N283 C280 1.341 . S
N283 N282 1.365 . S
N283 H303 0.862 . S
C284 C279 1.501 . S
C284 H285 0.961 . S
C284 H286 0.961 . S
C284 H287 0.960 . S
H285 C284 0.961 . S
H286 C284 0.961 . S
H287 C284 0.960 . S
C288 N289 1.342 . S
C288 C292 1.401 . S
C288 C293 1.499 . S
N289 Co272 1.989 1_554 S
N289 C288 1.342 . S
N289 N290 1.388 . S
N290 Co273 1.993 1_554 S
N290 N289 1.388 . S
N290 C291 1.346 . S
C291 N290 1.346 . S
C291 C292 1.396 . S
C291 C301 1.510 . S
C292 C288 1.401 . S
C292 C291 1.396 . S
C293 C288 1.499 . S
C293 H294 0.959 . S
C293 H295 0.960 . S
C293 H296 0.961 . S
H294 C293 0.959 . S
H295 C293 0.960 . S
H296 C293 0.961 . S
O297 Co272 1.967 . S
O297 C305 1.258 . S
O298 Co273 1.941 . S
O298 C305 1.266 . S
H299 C301 0.959 . S
H300 C301 0.961 . S
C301 C291 1.510 . S
C301 H299 0.959 . S
C301 H300 0.961 . S
C301 H302 0.960 . S
H302 C301 0.960 . S
H303 N283 0.862 . S
O304 Co272 1.920 . S
O304 C277 1.289 . S
C305 O297 1.258 . S
C305 O298 1.266 . S
Co306 O309 1.970 . S
Co306 N323 1.989 . S
Co306 O331 1.967 . S
Co306 O338 1.920 . S
Co307 O310 1.966 . S
Co307 N316 2.022 . S
Co307 N324 1.993 . S
Co307 O332 1.941 . S
C308 O309 1.258 . S
C308 O310 1.263 . S
O309 Co306 1.970 . S
O309 C308 1.258 . S
O310 Co307 1.966 . S
O310 C308 1.263 . S
C311 O312 1.235 . S
C311 O338 1.289 . S
O312 C311 1.235 . S
C313 C315 1.400 . S
C313 N316 1.351 . S
C313 C318 1.501 . S
C314 C315 1.387 . S
C314 N317 1.341 . S
C315 C313 1.400 . S
C315 C314 1.387 . S
N316 Co307 2.022 . S
N316 C313 1.351 . S
N316 N317 1.365 . S
N317 C314 1.341 . S
N317 N316 1.365 . S
N317 H337 0.862 . S
C318 C313 1.501 . S
C318 H319 0.961 . S
C318 H320 0.961 . S
C318 H321 0.960 . S
H319 C318 0.961 . S
H320 C318 0.961 . S
H321 C318 0.960 . S
C322 N323 1.342 . S
C322 C326 1.401 . S
C322 C327 1.499 . S
N323 Co306 1.989 . S
N323 C322 1.342 . S
N323 N324 1.388 . S
N324 Co307 1.993 . S
N324 N323 1.388 . S
N324 C325 1.346 . S
C325 N324 1.346 . S
C325 C326 1.396 . S
C325 C335 1.510 . S
C326 C322 1.401 . S
C326 C325 1.396 . S
C327 C322 1.499 . S
C327 H328 0.959 . S
C327 H329 0.960 . S
C327 H330 0.961 . S
H328 C327 0.959 . S
H329 C327 0.960 . S
H330 C327 0.961 . S
O331 Co306 1.967 . S
O331 C339 1.258 . S
O332 Co307 1.941 . S
O332 C339 1.266 . S
H333 C335 0.959 . S
H334 C335 0.961 . S
C335 C325 1.510 . S
C335 H333 0.959 . S
C335 H334 0.961 . S
C335 H336 0.960 . S
H336 C335 0.960 . S
H337 N317 0.862 . S
O338 Co306 1.920 . S
O338 C311 1.289 . S
C339 O331 1.258 . S
C339 O332 1.266 . S
Co340 O343 1.970 . S
Co340 N357 1.989 1_554 S
Co340 O365 1.967 . S
Co340 O372 1.920 . S
Co341 O344 1.966 . S
Co341 N350 2.022 . S
Co341 N358 1.993 1_554 S
Co341 O366 1.941 . S
C342 O343 1.258 . S
C342 O344 1.263 . S
O343 Co340 1.970 . S
O343 C342 1.258 . S
O344 Co341 1.966 . S
O344 C342 1.263 . S
C345 O346 1.235 . S
C345 O372 1.289 . S
O346 C345 1.235 . S
C347 C349 1.400 . S
C347 N350 1.351 . S
C347 C352 1.501 . S
C348 C349 1.387 . S
C348 N351 1.341 . S
C349 C347 1.400 . S
C349 C348 1.387 . S
N350 Co341 2.022 . S
N350 C347 1.351 . S
N350 N351 1.365 . S
N351 C348 1.341 . S
N351 N350 1.365 . S
N351 H371 0.862 . S
C352 C347 1.501 . S
C352 H353 0.961 . S
C352 H354 0.961 . S
C352 H355 0.960 . S
H353 C352 0.961 . S
H354 C352 0.961 . S
H355 C352 0.960 . S
C356 N357 1.342 . S
C356 C360 1.401 . S
C356 C361 1.499 . S
N357 Co340 1.989 1_556 S
N357 C356 1.342 . S
N357 N358 1.388 . S
N358 Co341 1.993 1_556 S
N358 N357 1.388 . S
N358 C359 1.346 . S
C359 N358 1.346 . S
C359 C360 1.396 . S
C359 C369 1.510 . S
C360 C356 1.401 . S
C360 C359 1.396 . S
C361 C356 1.499 . S
C361 H362 0.959 . S
C361 H363 0.960 . S
C361 H364 0.961 . S
H362 C361 0.959 . S
H363 C361 0.960 . S
H364 C361 0.961 . S
O365 Co340 1.967 . S
O365 C373 1.258 . S
O366 Co341 1.941 . S
O366 C373 1.266 . S
H367 C369 0.959 . S
H368 C369 0.961 . S
C369 C359 1.510 . S
C369 H367 0.959 . S
C369 H368 0.961 . S
C369 H370 0.960 . S
H370 C369 0.960 . S
H371 N351 0.862 . S
O372 Co340 1.920 . S
O372 C345 1.289 . S
C373 O365 1.258 . S
C373 O366 1.266 . S
Co374 O377 1.970 . S
Co374 N391 1.989 . S
Co374 O399 1.967 . S
Co374 O406 1.920 . S
Co375 O378 1.966 . S
Co375 N384 2.022 . S
Co375 N392 1.993 . S
Co375 O400 1.941 . S
C376 O377 1.258 . S
C376 O378 1.263 . S
O377 Co374 1.970 . S
O377 C376 1.258 . S
O378 Co375 1.966 . S
O378 C376 1.263 . S
C379 O380 1.235 . S
C379 O406 1.289 . S
O380 C379 1.235 . S
C381 C383 1.400 . S
C381 N384 1.351 . S
C381 C386 1.501 . S
C382 C383 1.387 . S
C382 N385 1.341 . S
C383 C381 1.400 . S
C383 C382 1.387 . S
N384 Co375 2.022 . S
N384 C381 1.351 . S
N384 N385 1.365 . S
N385 C382 1.341 . S
N385 N384 1.365 . S
N385 H405 0.862 . S
C386 C381 1.501 . S
C386 H387 0.961 . S
C386 H388 0.961 . S
C386 H389 0.960 . S
H387 C386 0.961 . S
H388 C386 0.961 . S
H389 C386 0.960 . S
C390 N391 1.342 . S
C390 C394 1.401 . S
C390 C395 1.499 . S
N391 Co374 1.989 . S
N391 C390 1.342 . S
N391 N392 1.388 . S
N392 Co375 1.993 . S
N392 N391 1.388 . S
N392 C393 1.346 . S
C393 N392 1.346 . S
C393 C394 1.396 . S
C393 C403 1.510 . S
C394 C390 1.401 . S
C394 C393 1.396 . S
C395 C390 1.499 . S
C395 H396 0.959 . S
C395 H397 0.960 . S
C395 H398 0.961 . S
H396 C395 0.959 . S
H397 C395 0.960 . S
H398 C395 0.961 . S
O399 Co374 1.967 . S
O399 C407 1.258 . S
O400 Co375 1.941 . S
O400 C407 1.266 . S
H401 C403 0.959 . S
H402 C403 0.961 . S
C403 C393 1.510 . S
C403 H401 0.959 . S
C403 H402 0.961 . S
C403 H404 0.960 . S
H404 C403 0.960 . S
H405 N385 0.862 . S
O406 Co374 1.920 . S
O406 C379 1.289 . S
C407 O399 1.258 . S
C407 O400 1.266 . S
Co408 O411 1.970 . S
Co408 N425 1.989 . S
Co408 O433 1.967 . S
Co408 O440 1.920 . S
Co409 O412 1.966 . S
Co409 N418 2.022 . S
Co409 N426 1.993 . S
Co409 O434 1.941 . S
C410 O411 1.258 . S
C410 O412 1.263 . S
O411 Co408 1.970 . S
O411 C410 1.258 . S
O412 Co409 1.966 . S
O412 C410 1.263 . S
C413 O414 1.235 . S
C413 O440 1.289 . S
O414 C413 1.235 . S
C415 C417 1.400 . S
C415 N418 1.351 . S
C415 C420 1.501 . S
C416 C417 1.387 . S
C416 N419 1.341 . S
C417 C415 1.400 . S
C417 C416 1.387 . S
N418 Co409 2.022 . S
N418 C415 1.351 . S
N418 N419 1.365 . S
N419 C416 1.341 . S
N419 N418 1.365 . S
N419 H439 0.862 . S
C420 C415 1.501 . S
C420 H421 0.961 . S
C420 H422 0.961 . S
C420 H423 0.960 . S
H421 C420 0.961 . S
H422 C420 0.961 . S
H423 C420 0.960 . S
C424 N425 1.342 . S
C424 C428 1.401 . S
C424 C429 1.499 . S
N425 Co408 1.989 . S
N425 C424 1.342 . S
N425 N426 1.388 . S
N426 Co409 1.993 . S
N426 N425 1.388 . S
N426 C427 1.346 . S
C427 N426 1.346 . S
C427 C428 1.396 . S
C427 C437 1.510 . S
C428 C424 1.401 . S
C428 C427 1.396 . S
C429 C424 1.499 . S
C429 H430 0.959 . S
C429 H431 0.960 . S
C429 H432 0.961 . S
H430 C429 0.959 . S
H431 C429 0.960 . S
H432 C429 0.961 . S
O433 Co408 1.967 . S
O433 C441 1.258 . S
O434 Co409 1.941 . S
O434 C441 1.266 . S
H435 C437 0.959 . S
H436 C437 0.961 . S
C437 C427 1.510 . S
C437 H435 0.959 . S
C437 H436 0.961 . S
C437 H438 0.960 . S
H438 C437 0.960 . S
H439 N419 0.862 . S
O440 Co408 1.920 . S
O440 C413 1.289 . S
C441 O433 1.258 . S
C441 O434 1.266 . S
Co442 O445 1.970 . S
Co442 N459 1.989 . S
Co442 O467 1.967 . S
Co442 O474 1.920 . S
Co443 O446 1.966 . S
Co443 N452 2.022 . S
Co443 N460 1.993 . S
Co443 O468 1.941 . S
C444 O445 1.258 . S
C444 O446 1.263 . S
O445 Co442 1.970 . S
O445 C444 1.258 . S
O446 Co443 1.966 . S
O446 C444 1.263 . S
C447 O448 1.235 . S
C447 O474 1.289 . S
O448 C447 1.235 . S
C449 C451 1.400 . S
C449 N452 1.351 . S
C449 C454 1.501 . S
C450 C451 1.387 . S
C450 N453 1.341 . S
C451 C449 1.400 . S
C451 C450 1.387 . S
N452 Co443 2.022 . S
N452 C449 1.351 . S
N452 N453 1.365 . S
N453 C450 1.341 . S
N453 N452 1.365 . S
N453 H473 0.862 . S
C454 C449 1.501 . S
C454 H455 0.961 . S
C454 H456 0.961 . S
C454 H457 0.960 . S
H455 C454 0.961 . S
H456 C454 0.961 . S
H457 C454 0.960 . S
C458 N459 1.342 . S
C458 C462 1.401 . S
C458 C463 1.499 . S
N459 Co442 1.989 . S
N459 C458 1.342 . S
N459 N460 1.388 . S
N460 Co443 1.993 . S
N460 N459 1.388 . S
N460 C461 1.346 . S
C461 N460 1.346 . S
C461 C462 1.396 . S
C461 C471 1.510 . S
C462 C458 1.401 . S
C462 C461 1.396 . S
C463 C458 1.499 . S
C463 H464 0.959 . S
C463 H465 0.960 . S
C463 H466 0.961 . S
H464 C463 0.959 . S
H465 C463 0.960 . S
H466 C463 0.961 . S
O467 Co442 1.967 . S
O467 C475 1.258 . S
O468 Co443 1.941 . S
O468 C475 1.266 . S
H469 C471 0.959 . S
H470 C471 0.961 . S
C471 C461 1.510 . S
C471 H469 0.959 . S
C471 H470 0.961 . S
C471 H472 0.960 . S
H472 C471 0.960 . S
H473 N453 0.862 . S
O474 Co442 1.920 . S
O474 C447 1.289 . S
C475 O467 1.258 . S
C475 O468 1.266 . S
Co476 O479 1.970 . S
Co476 N493 1.989 . S
Co476 O501 1.967 . S
Co476 O508 1.920 . S
Co477 O480 1.966 . S
Co477 N486 2.022 . S
Co477 N494 1.993 . S
Co477 O502 1.941 . S
C478 O479 1.258 . S
C478 O480 1.263 . S
O479 Co476 1.970 . S
O479 C478 1.258 . S
O480 Co477 1.966 . S
O480 C478 1.263 . S
C481 O482 1.235 . S
C481 O508 1.289 . S
O482 C481 1.235 . S
C483 C485 1.400 . S
C483 N486 1.351 . S
C483 C488 1.501 . S
C484 C485 1.387 . S
C484 N487 1.341 . S
C485 C483 1.400 . S
C485 C484 1.387 . S
N486 Co477 2.022 . S
N486 C483 1.351 . S
N486 N487 1.365 . S
N487 C484 1.341 . S
N487 N486 1.365 . S
N487 H507 0.862 . S
C488 C483 1.501 . S
C488 H489 0.961 . S
C488 H490 0.961 . S
C488 H491 0.960 . S
H489 C488 0.961 . S
H490 C488 0.961 . S
H491 C488 0.960 . S
C492 N493 1.342 . S
C492 C496 1.401 . S
C492 C497 1.499 . S
N493 Co476 1.989 . S
N493 C492 1.342 . S
N493 N494 1.388 . S
N494 Co477 1.993 . S
N494 N493 1.388 . S
N494 C495 1.346 . S
C495 N494 1.346 . S
C495 C496 1.396 . S
C495 C505 1.510 . S
C496 C492 1.401 . S
C496 C495 1.396 . S
C497 C492 1.499 . S
C497 H498 0.959 . S
C497 H499 0.960 . S
C497 H500 0.961 . S
H498 C497 0.959 . S
H499 C497 0.960 . S
H500 C497 0.961 . S
O501 Co476 1.967 . S
O501 C509 1.258 . S
O502 Co477 1.941 . S
O502 C509 1.266 . S
H503 C505 0.959 . S
H504 C505 0.961 . S
C505 C495 1.510 . S
C505 H503 0.959 . S
C505 H504 0.961 . S
C505 H506 0.960 . S
H506 C505 0.960 . S
H507 N487 0.862 . S
O508 Co476 1.920 . S
O508 C481 1.289 . S
C509 O501 1.258 . S
C509 O502 1.266 . S
Co510 O513 1.970 . S
Co510 N527 1.989 . S
Co510 O535 1.967 . S
Co510 O542 1.920 . S
Co511 O514 1.966 . S
Co511 N520 2.022 . S
Co511 N528 1.993 . S
Co511 O536 1.941 . S
C512 O513 1.258 . S
C512 O514 1.263 . S
O513 Co510 1.970 . S
O513 C512 1.258 . S
O514 Co511 1.966 . S
O514 C512 1.263 . S
C515 O516 1.235 . S
C515 O542 1.289 . S
O516 C515 1.235 . S
C517 C519 1.400 . S
C517 N520 1.351 . S
C517 C522 1.501 . S
C518 C519 1.387 . S
C518 N521 1.341 . S
C519 C517 1.400 . S
C519 C518 1.387 . S
N520 Co511 2.022 . S
N520 C517 1.351 . S
N520 N521 1.365 . S
N521 C518 1.341 . S
N521 N520 1.365 . S
N521 H541 0.862 . S
C522 C517 1.501 . S
C522 H523 0.961 . S
C522 H524 0.961 . S
C522 H525 0.960 . S
H523 C522 0.961 . S
H524 C522 0.961 . S
H525 C522 0.960 . S
C526 N527 1.342 . S
C526 C530 1.401 . S
C526 C531 1.499 . S
N527 Co510 1.989 . S
N527 C526 1.342 . S
N527 N528 1.388 . S
N528 Co511 1.993 . S
N528 N527 1.388 . S
N528 C529 1.346 . S
C529 N528 1.346 . S
C529 C530 1.396 . S
C529 C539 1.510 . S
C530 C526 1.401 . S
C530 C529 1.396 . S
C531 C526 1.499 . S
C531 H532 0.959 . S
C531 H533 0.960 . S
C531 H534 0.961 . S
H532 C531 0.959 . S
H533 C531 0.960 . S
H534 C531 0.961 . S
O535 Co510 1.967 . S
O535 C543 1.258 . S
O536 Co511 1.941 . S
O536 C543 1.266 . S
H537 C539 0.959 . S
H538 C539 0.961 . S
C539 C529 1.510 . S
C539 H537 0.959 . S
C539 H538 0.961 . S
C539 H540 0.960 . S
H540 C539 0.960 . S
H541 N521 0.862 . S
O542 Co510 1.920 . S
O542 C515 1.289 . S
C543 O535 1.258 . S
C543 O536 1.266 . S
C544 C545 1.391 . S
C544 C546 1.394 . S
C544 H560 0.931 . S
C545 C544 1.391 . S
C545 C549 1.376 . S
C546 C544 1.394 . S
C546 C547 1.369 . S
C546 C550 1.531 . S
C547 C546 1.369 . S
C547 C548 1.410 . S
C547 C555 1.503 . S
C548 C547 1.410 . S
C548 C549 1.392 . S
C548 C551 1.511 . S
C549 C545 1.376 . S
C549 C548 1.392 . S
C549 H561 0.929 . S
C550 C546 1.531 . S
C550 H562 0.960 . S
C550 H563 0.962 . S
C550 H564 0.960 . S
C551 C548 1.511 . S
C551 H565 0.961 . S
C551 H566 0.961 . S
C551 H567 0.961 . S
C552 C553 1.370 . S
C552 C554 1.363 . S
C552 H568 0.931 . S
C553 C552 1.370 . S
C553 C557 1.408 . S
C554 C552 1.363 . S
C554 C555 1.370 . S
C554 C558 1.524 . S
C555 C547 1.503 . S
C555 C554 1.370 . S
C555 C556 1.403 . S
C556 C555 1.403 . S
C556 C557 1.404 . S
C556 C559 1.539 . S
C557 C553 1.408 . S
C557 C556 1.404 . S
C557 H569 0.930 . S
C558 C554 1.524 . S
C558 H570 0.956 . S
C558 H571 0.961 . S
C558 H572 0.961 . S
C559 C556 1.539 . S
C559 H573 0.958 . S
C559 H574 0.961 . S
C559 H575 0.960 . S
H560 C544 0.931 . S
H561 C549 0.929 . S
H562 C550 0.960 . S
H563 C550 0.962 . S
H564 C550 0.960 . S
H565 C551 0.961 . S
H566 C551 0.961 . S
H567 C551 0.961 . S
H568 C552 0.931 . S
H569 C557 0.930 . S
H570 C558 0.956 . S
H571 C558 0.961 . S
H572 C558 0.961 . S
H573 C559 0.958 . S
H574 C559 0.961 . S
H575 C559 0.960 . S
C576 C577 1.391 . S
C576 C578 1.394 . S
C576 H592 0.931 . S
C577 C576 1.391 . S
C577 C581 1.376 . S
C578 C576 1.394 . S
C578 C579 1.369 . S
C578 C582 1.531 . S
C579 C578 1.369 . S
C579 C580 1.410 . S
C579 C587 1.503 1_665 S
C580 C579 1.410 . S
C580 C581 1.392 . S
C580 C583 1.511 1_565 S
C581 C577 1.376 . S
C581 C580 1.392 . S
C581 H593 0.929 . S
C582 C578 1.531 . S
C582 H594 0.960 . S
C582 H595 0.962 1_655 S
C582 H596 0.960 . S
C583 C580 1.511 1_545 S
C583 H597 0.961 . S
C583 H598 0.961 . S
C583 H599 0.961 . S
C584 C585 1.370 . S
C584 C586 1.363 . S
C584 H600 0.931 . S
C585 C584 1.370 . S
C585 C589 1.408 . S
C586 C584 1.363 . S
C586 C587 1.370 . S
C586 C590 1.524 1_545 S
C587 C579 1.503 1_445 S
C587 C586 1.370 . S
C587 C588 1.403 1_455 S
C588 C587 1.403 1_655 S
C588 C589 1.404 1_655 S
C588 C591 1.539 . S
C589 C585 1.408 . S
C589 C588 1.404 1_455 S
C589 H601 0.930 . S
C590 C586 1.524 1_565 S
C590 H602 0.956 . S
C590 H603 0.961 . S
C590 H604 0.961 . S
C591 C588 1.539 . S
C591 H605 0.958 . S
C591 H606 0.961 . S
C591 H607 0.960 . S
H592 C576 0.931 . S
H593 C581 0.929 . S
H594 C582 0.960 . S
H595 C582 0.962 1_455 S
H596 C582 0.960 . S
H597 C583 0.961 . S
H598 C583 0.961 . S
H599 C583 0.961 . S
H600 C584 0.931 . S
H601 C589 0.930 . S
H602 C590 0.956 . S
H603 C590 0.961 . S
H604 C590 0.961 . S
H605 C591 0.958 . S
H606 C591 0.961 . S
H607 C591 0.960 . S
C608 C609 1.391 . S
C608 C610 1.394 . S
C608 H624 0.931 . S
C609 C608 1.391 . S
C609 C613 1.376 . S
C610 C608 1.394 . S
C610 C611 1.369 . S
C610 C614 1.531 . S
C611 C610 1.369 . S
C611 C612 1.410 . S
C611 C619 1.503 1_545 S
C612 C611 1.410 . S
C612 C613 1.392 . S
C612 C615 1.511 1_545 S
C613 C609 1.376 . S
C613 C612 1.392 . S
C613 H625 0.929 . S
C614 C610 1.531 . S
C614 H626 0.960 . S
C614 H627 0.962 . S
C614 H628 0.960 . S
C615 C612 1.511 1_565 S
C615 H629 0.961 . S
C615 H630 0.961 . S
C615 H631 0.961 . S
C616 C617 1.370 . S
C616 C618 1.363 . S
C616 H632 0.931 . S
C617 C616 1.370 . S
C617 C621 1.408 . S
C618 C616 1.363 . S
C618 C619 1.370 . S
C618 C622 1.524 . S
C619 C611 1.503 1_565 S
C619 C618 1.370 . S
C619 C620 1.403 . S
C620 C619 1.403 . S
C620 C621 1.404 . S
C620 C623 1.539 1_565 S
C621 C617 1.408 . S
C621 C620 1.404 . S
C621 H633 0.930 . S
C622 C618 1.524 . S
C622 H634 0.956 . S
C622 H635 0.961 . S
C622 H636 0.961 . S
C623 C620 1.539 1_545 S
C623 H637 0.958 . S
C623 H638 0.961 1_545 S
C623 H639 0.960 . S
H624 C608 0.931 . S
H625 C613 0.929 . S
H626 C614 0.960 . S
H627 C614 0.962 . S
H628 C614 0.960 . S
H629 C615 0.961 . S
H630 C615 0.961 . S
H631 C615 0.961 . S
H632 C616 0.931 . S
H633 C621 0.930 . S
H634 C622 0.956 . S
H635 C622 0.961 . S
H636 C622 0.961 . S
H637 C623 0.958 . S
H638 C623 0.961 1_565 S
H639 C623 0.960 . S
C640 C641 1.391 . S
C640 C642 1.394 . S
C640 H656 0.931 . S
C641 C640 1.391 . S
C641 C645 1.376 1_655 S
C642 C640 1.394 . S
C642 C643 1.369 . S
C642 C646 1.531 . S
C643 C642 1.369 . S
C643 C644 1.410 1_655 S
C643 C651 1.503 1_655 S
C644 C643 1.410 1_455 S
C644 C645 1.392 . S
C644 C647 1.511 . S
C645 C641 1.376 1_455 S
C645 C644 1.392 . S
C645 H657 0.929 . S
C646 C642 1.531 . S
C646 H658 0.960 . S
C646 H659 0.962 . S
C646 H660 0.960 . S
C647 C644 1.511 . S
C647 H661 0.961 . S
C647 H662 0.961 . S
C647 H663 0.961 . S
C648 C649 1.370 . S
C648 C650 1.363 . S
C648 H664 0.931 . S
C649 C648 1.370 . S
C649 C653 1.408 . S
C650 C648 1.363 . S
C650 C651 1.370 . S
C650 C654 1.524 . S
C651 C643 1.503 1_455 S
C651 C650 1.370 . S
C651 C652 1.403 . S
C652 C651 1.403 . S
C652 C653 1.404 . S
C652 C655 1.539 . S
C653 C649 1.408 . S
C653 C652 1.404 . S
C653 H665 0.930 . S
C654 C650 1.524 . S
C654 H666 0.956 1_455 S
C654 H667 0.961 . S
C654 H668 0.961 . S
C655 C652 1.539 . S
C655 H669 0.958 1_455 S
C655 H670 0.961 . S
C655 H671 0.960 . S
H656 C640 0.931 . S
H657 C645 0.929 . S
H658 C646 0.960 . S
H659 C646 0.962 . S
H660 C646 0.960 . S
H661 C647 0.961 . S
H662 C647 0.961 . S
H663 C647 0.961 . S
H664 C648 0.931 . S
H665 C653 0.930 . S
H666 C654 0.956 1_655 S
H667 C654 0.961 . S
H668 C654 0.961 . S
H669 C655 0.958 1_655 S
H670 C655 0.961 . S
H671 C655 0.960 . S
C672 C673 1.391 . S
C672 C674 1.394 . S
C672 H688 0.931 . S
C673 C672 1.391 . S
C673 C677 1.376 . S
C674 C672 1.394 . S
C674 C675 1.369 . S
C674 C678 1.531 . S
C675 C674 1.369 . S
C675 C676 1.410 . S
C675 C683 1.503 . S
C676 C675 1.410 . S
C676 C677 1.392 . S
C676 C679 1.511 . S
C677 C673 1.376 . S
C677 C676 1.392 . S
C677 H689 0.929 . S
C678 C674 1.531 . S
C678 H690 0.960 . S
C678 H691 0.962 . S
C678 H692 0.960 . S
C679 C676 1.511 . S
C679 H693 0.961 . S
C679 H694 0.961 . S
C679 H695 0.961 . S
C680 C681 1.370 . S
C680 C682 1.363 . S
C680 H696 0.931 . S
C681 C680 1.370 . S
C681 C685 1.408 . S
C682 C680 1.363 . S
C682 C683 1.370 . S
C682 C686 1.524 . S
C683 C675 1.503 . S
C683 C682 1.370 . S
C683 C684 1.403 . S
C684 C683 1.403 . S
C684 C685 1.404 . S
C684 C687 1.539 . S
C685 C681 1.408 . S
C685 C684 1.404 . S
C685 H697 0.930 . S
C686 C682 1.524 . S
C686 H698 0.956 . S
C686 H699 0.961 . S
C686 H700 0.961 . S
C687 C684 1.539 . S
C687 H701 0.958 . S
C687 H702 0.961 . S
C687 H703 0.960 . S
H688 C672 0.931 . S
H689 C677 0.929 . S
H690 C678 0.960 . S
H691 C678 0.962 . S
H692 C678 0.960 . S
H693 C679 0.961 . S
H694 C679 0.961 . S
H695 C679 0.961 . S
H696 C680 0.931 . S
H697 C685 0.930 . S
H698 C686 0.956 . S
H699 C686 0.961 . S
H700 C686 0.961 . S
H701 C687 0.958 . S
H702 C687 0.961 . S
H703 C687 0.960 . S
C704 C705 1.391 . S
C704 C706 1.394 . S
C704 H720 0.931 . S
C705 C704 1.391 . S
C705 C709 1.376 . S
C706 C704 1.394 . S
C706 C707 1.369 . S
C706 C710 1.531 . S
C707 C706 1.369 . S
C707 C708 1.410 . S
C707 C715 1.503 1_565 S
C708 C707 1.410 . S
C708 C709 1.392 . S
C708 C711 1.511 1_565 S
C709 C705 1.376 . S
C709 C708 1.392 . S
C709 H721 0.929 . S
C710 C706 1.531 . S
C710 H722 0.960 . S
C710 H723 0.962 . S
C710 H724 0.960 . S
C711 C708 1.511 1_545 S
C711 H725 0.961 . S
C711 H726 0.961 . S
C711 H727 0.961 . S
C712 C713 1.370 . S
C712 C714 1.363 . S
C712 H728 0.931 . S
C713 C712 1.370 . S
C713 C717 1.408 . S
C714 C712 1.363 . S
C714 C715 1.370 . S
C714 C718 1.503 1_545 S
C715 C707 1.503 1_545 S
C715 C714 1.370 . S
C715 C716 1.403 . S
C716 C715 1.403 . S
C716 C717 1.404 . S
C716 C719 1.539 . S
C717 C713 1.408 . S
C717 C716 1.404 . S
C717 H729 0.930 . S
C718 C714 1.503 1_565 S
C718 H730 0.986 . S
C718 H731 0.965 . S
C718 H732 0.948 1_565 S
C719 C716 1.539 . S
C719 H733 0.958 . S
C719 H734 0.961 . S
C719 H735 0.960 . S
H720 C704 0.931 . S
H721 C709 0.929 . S
H722 C710 0.960 . S
H723 C710 0.962 . S
H724 C710 0.960 . S
H725 C711 0.961 . S
H726 C711 0.961 . S
H727 C711 0.961 . S
H728 C712 0.931 . S
H729 C717 0.930 . S
H730 C718 0.986 . S
H731 C718 0.965 . S
H732 C718 0.948 1_545 S
H733 C719 0.958 . S
H734 C719 0.961 . S
H735 C719 0.960 . S
C736 C737 1.391 . S
C736 C738 1.394 . S
C736 H752 0.931 . S
C737 C736 1.391 . S
C737 C741 1.376 1_655 S
C738 C736 1.394 . S
C738 C739 1.369 . S
C738 C742 1.531 . S
C739 C738 1.369 . S
C739 C740 1.410 1_655 S
C739 C747 1.503 . S
C740 C739 1.410 1_455 S
C740 C741 1.392 . S
C740 C743 1.511 . S
C741 C737 1.376 1_455 S
C741 C740 1.392 . S
C741 H753 0.929 . S
C742 C738 1.531 . S
C742 H754 0.960 . S
C742 H755 0.962 . S
C742 H756 0.960 . S
C743 C740 1.511 . S
C743 H757 0.961 . S
C743 H758 0.961 . S
C743 H759 0.961 . S
C744 C745 1.370 . S
C744 C746 1.363 . S
C744 H760 0.931 . S
C745 C744 1.370 . S
C745 C749 1.408 1_455 S
C746 C744 1.363 . S
C746 C747 1.370 1_455 S
C746 C750 1.524 . S
C747 C739 1.503 . S
C747 C746 1.370 1_655 S
C747 C748 1.403 . S
C748 C747 1.403 . S
C748 C749 1.404 . S
C748 C751 1.539 . S
C749 C745 1.408 1_655 S
C749 C748 1.404 . S
C749 H761 0.930 . S
C750 C746 1.524 . S
C750 H762 0.956 . S
C750 H763 0.961 . S
C750 H764 0.961 . S
C751 C748 1.539 . S
C751 H765 0.958 . S
C751 H766 0.961 . S
C751 H767 0.960 . S
H752 C736 0.931 . S
H753 C741 0.929 . S
H754 C742 0.960 . S
H755 C742 0.962 . S
H756 C742 0.960 . S
H757 C743 0.961 . S
H758 C743 0.961 . S
H759 C743 0.961 . S
H760 C744 0.931 . S
H761 C749 0.930 . S
H762 C750 0.956 . S
H763 C750 0.961 . S
H764 C750 0.961 . S
H765 C751 0.958 . S
H766 C751 0.961 . S
H767 C751 0.960 . S
C768 C769 1.391 . S
C768 C770 1.394 . S
C768 H784 0.931 . S
C769 C768 1.391 . S
C769 C773 1.376 1_554 S
C770 C768 1.394 . S
C770 C771 1.369 . S
C770 C774 1.531 . S
C771 C770 1.369 . S
C771 C772 1.410 1_554 S
C771 C779 1.503 . S
C772 C771 1.410 1_556 S
C772 C773 1.392 . S
C772 C775 1.511 . S
C773 C769 1.376 1_556 S
C773 C772 1.392 . S
C773 H785 0.929 . S
C774 C770 1.531 . S
C774 H786 0.960 . S
C774 H787 0.962 . S
C774 H788 0.960 . S
C775 C772 1.511 . S
C775 H789 0.961 . S
C775 H790 0.961 . S
C775 H791 0.961 . S
C776 C777 1.370 . S
C776 C778 1.363 . S
C776 H792 0.931 . S
C777 C776 1.370 . S
C777 C781 1.408 1_556 S
C778 C776 1.363 . S
C778 C779 1.370 1_556 S
C778 C782 1.524 . S
C779 C771 1.503 . S
C779 C778 1.370 1_554 S
C779 C780 1.403 . S
C780 C779 1.403 . S
C780 C781 1.404 . S
C780 C783 1.539 . S
C781 C777 1.408 1_554 S
C781 C780 1.404 . S
C781 H793 0.930 . S
C782 C778 1.524 . S
C782 H794 0.956 . S
C782 H795 0.961 . S
C782 H796 0.961 . S
C783 C780 1.539 . S
C783 H797 0.958 . S
C783 H798 0.961 . S
C783 H799 0.960 . S
H784 C768 0.931 . S
H785 C773 0.929 . S
H786 C774 0.960 . S
H787 C774 0.962 . S
H788 C774 0.960 . S
H789 C775 0.961 . S
H790 C775 0.961 . S
H791 C775 0.961 . S
H792 C776 0.931 . S
H793 C781 0.930 . S
H794 C782 0.956 . S
H795 C782 0.961 . S
H796 C782 0.961 . S
H797 C783 0.958 . S
H798 C783 0.961 . S
H799 C783 0.960 . S
C800 C801 1.391 1_556 S
C800 C802 1.394 . S
C800 H816 0.931 . S
C801 C800 1.391 1_554 S
C801 C805 1.376 . S
C802 C800 1.394 . S
C802 C803 1.369 . S
C802 C806 1.531 1_655 S
C803 C802 1.369 . S
C803 C804 1.410 1_556 S
C803 C811 1.503 1_655 S
C804 C803 1.410 1_554 S
C804 C805 1.392 . S
C804 C807 1.511 . S
C805 C801 1.376 . S
C805 C804 1.392 . S
C805 H817 0.929 . S
C806 C802 1.531 1_455 S
C806 H818 0.960 . S
C806 H819 0.962 . S
C806 H820 0.960 . S
C807 C804 1.511 . S
C807 H821 0.961 . S
C807 H822 0.961 . S
C807 H823 0.961 . S
C808 C809 1.370 1_554 S
C808 C810 1.363 . S
C808 H824 0.931 . S
C809 C808 1.370 1_556 S
C809 C813 1.408 . S
C810 C808 1.363 . S
C810 C811 1.370 1_554 S
C810 C814 1.524 . S
C811 C803 1.503 1_455 S
C811 C810 1.370 1_556 S
C811 C812 1.403 1_455 S
C812 C811 1.403 1_655 S
C812 C813 1.404 1_655 S
C812 C815 1.539 . S
C813 C809 1.408 . S
C813 C812 1.404 1_455 S
C813 H825 0.930 . S
C814 C810 1.524 . S
C814 H826 0.956 . S
C814 H827 0.961 . S
C814 H828 0.961 . S
C815 C812 1.539 . S
C815 H829 0.958 . S
C815 H830 0.961 . S
C815 H831 0.960 . S
H816 C800 0.931 . S
H817 C805 0.929 . S
H818 C806 0.960 . S
H819 C806 0.962 . S
H820 C806 0.960 . S
H821 C807 0.961 . S
H822 C807 0.961 . S
H823 C807 0.961 . S
H824 C808 0.931 . S
H825 C813 0.930 . S
H826 C814 0.956 . S
H827 C814 0.961 . S
H828 C814 0.961 . S
H829 C815 0.958 . S
H830 C815 0.961 . S
H831 C815 0.960 . S
C832 C833 1.391 . S
C832 C834 1.394 . S
C832 H848 0.931 . S
C833 C832 1.391 . S
C833 C837 1.376 . S
C834 C832 1.394 . S
C834 C835 1.369 . S
C834 C838 1.531 . S
C835 C834 1.369 . S
C835 C836 1.410 . S
C835 C843 1.503 . S
C836 C835 1.410 . S
C836 C837 1.392 . S
C836 C839 1.511 . S
C837 C833 1.376 . S
C837 C836 1.392 . S
C837 H849 0.929 . S
C838 C834 1.531 . S
C838 H850 0.960 . S
C838 H851 0.962 . S
C838 H852 0.960 . S
C839 C836 1.511 . S
C839 H853 0.961 . S
C839 H854 0.961 . S
C839 H855 0.961 . S
C840 C841 1.370 . S
C840 C842 1.363 . S
C840 H856 0.931 . S
C841 C840 1.370 . S
C841 C845 1.408 . S
C842 C840 1.363 . S
C842 C843 1.370 . S
C842 C846 1.524 . S
C843 C835 1.503 . S
C843 C842 1.370 . S
C843 C844 1.403 . S
C844 C843 1.403 . S
C844 C845 1.404 . S
C844 C847 1.539 . S
C845 C841 1.408 . S
C845 C844 1.404 . S
C845 H857 0.930 . S
C846 C842 1.524 . S
C846 H858 0.956 . S
C846 H859 0.961 . S
C846 H860 0.961 . S
C847 C844 1.539 . S
C847 H861 0.958 . S
C847 H862 0.961 . S
C847 H863 0.960 . S
H848 C832 0.931 . S
H849 C837 0.929 . S
H850 C838 0.960 . S
H851 C838 0.962 . S
H852 C838 0.960 . S
H853 C839 0.961 . S
H854 C839 0.961 . S
H855 C839 0.961 . S
H856 C840 0.931 . S
H857 C845 0.930 . S
H858 C846 0.956 . S
H859 C846 0.961 . S
H860 C846 0.961 . S
H861 C847 0.958 . S
H862 C847 0.961 . S
H863 C847 0.960 . S
C864 C865 1.391 . S
C864 C866 1.394 . S
C864 H880 0.931 . S
C865 C864 1.391 . S
C865 C869 1.376 . S
C866 C864 1.394 . S
C866 C867 1.369 . S
C866 C870 1.531 . S
C867 C866 1.369 . S
C867 C868 1.410 . S
C867 C875 1.503 . S
C868 C867 1.410 . S
C868 C869 1.392 . S
C868 C871 1.511 . S
C869 C865 1.376 . S
C869 C868 1.392 . S
C869 H881 0.929 . S
C870 C866 1.531 . S
C870 H882 0.960 . S
C870 H883 0.962 1_556 S
C870 H884 0.960 . S
C871 C868 1.511 . S
C871 H885 0.961 1_556 S
C871 H886 0.961 1_556 S
C871 H887 0.961 . S
C872 C873 1.370 . S
C872 C874 1.363 . S
C872 H888 0.931 . S
C873 C872 1.370 . S
C873 C877 1.408 1_554 S
C874 C872 1.363 . S
C874 C875 1.370 1_554 S
C874 C878 1.524 . S
C875 C867 1.503 . S
C875 C874 1.370 1_556 S
C875 C876 1.403 . S
C876 C875 1.403 . S
C876 C877 1.404 . S
C876 C879 1.539 . S
C877 C873 1.408 1_556 S
C877 C876 1.404 . S
C877 H889 0.930 . S
C878 C874 1.524 . S
C878 H890 0.956 . S
C878 H891 0.961 . S
C878 H892 0.961 . S
C879 C876 1.539 . S
C879 H893 0.958 . S
C879 H894 0.961 . S
C879 H895 0.960 . S
H880 C864 0.931 . S
H881 C869 0.929 . S
H882 C870 0.960 . S
H883 C870 0.962 1_554 S
H884 C870 0.960 . S
H885 C871 0.961 1_554 S
H886 C871 0.961 1_554 S
H887 C871 0.961 . S
H888 C872 0.931 . S
H889 C877 0.930 . S
H890 C878 0.956 . S
H891 C878 0.961 . S
H892 C878 0.961 . S
H893 C879 0.958 . S
H894 C879 0.961 . S
H895 C879 0.960 . S
C896 C897 1.391 . S
C896 C898 1.394 . S
C896 H912 0.931 . S
C897 C896 1.391 . S
C897 C901 1.376 . S
C898 C896 1.394 . S
C898 C899 1.369 . S
C898 C902 1.531 . S
C899 C898 1.369 . S
C899 C900 1.410 . S
C899 C907 1.503 . S
C900 C899 1.410 . S
C900 C901 1.392 . S
C900 C903 1.511 . S
C901 C897 1.376 . S
C901 C900 1.392 . S
C901 H913 0.929 . S
C902 C898 1.531 . S
C902 H914 0.960 . S
C902 H915 0.962 . S
C902 H916 0.960 . S
C903 C900 1.511 . S
C903 H917 0.961 . S
C903 H918 0.961 . S
C903 H919 0.961 . S
C904 C905 1.370 . S
C904 C906 1.363 . S
C904 H920 0.931 . S
C905 C904 1.370 . S
C905 C909 1.408 . S
C906 C904 1.363 . S
C906 C907 1.370 . S
C906 C910 1.524 . S
C907 C899 1.503 . S
C907 C906 1.370 . S
C907 C908 1.403 . S
C908 C907 1.403 . S
C908 C909 1.404 . S
C908 C911 1.539 . S
C909 C905 1.408 . S
C909 C908 1.404 . S
C909 H921 0.930 . S
C910 C906 1.524 . S
C910 H922 0.956 . S
C910 H923 0.961 . S
C910 H924 0.961 . S
C911 C908 1.539 . S
C911 H925 0.958 . S
C911 H926 0.961 . S
C911 H927 0.960 . S
H912 C896 0.931 . S
H913 C901 0.929 . S
H914 C902 0.960 . S
H915 C902 0.962 . S
H916 C902 0.960 . S
H917 C903 0.961 . S
H918 C903 0.961 . S
H919 C903 0.961 . S
H920 C904 0.931 . S
H921 C909 0.930 . S
H922 C910 0.956 . S
H923 C910 0.961 . S
H924 C910 0.961 . S
H925 C911 0.958 . S
H926 C911 0.961 . S
H927 C911 0.960 . S
C928 C929 1.391 . S
C928 C930 1.394 . S
C928 H944 0.931 . S
C929 C928 1.391 . S
C929 C933 1.376 1_556 S
C930 C928 1.394 . S
C930 C931 1.369 . S
C930 C934 1.531 1_545 S
C931 C930 1.369 . S
C931 C932 1.410 1_556 S
C931 C939 1.503 1_546 S
C932 C931 1.410 1_554 S
C932 C933 1.392 . S
C932 C935 1.511 . S
C933 C929 1.376 1_554 S
C933 C932 1.392 . S
C933 H945 0.929 . S
C934 C930 1.531 1_565 S
C934 H946 0.960 . S
C934 H947 0.962 1_565 S
C934 H948 0.961 . S
C935 C932 1.511 . S
C935 H949 0.961 . S
C935 H950 0.961 . S
C935 H951 0.961 . S
C936 C937 1.370 . S
C936 C938 1.363 . S
C936 H952 0.931 . S
C937 C936 1.370 . S
C937 C941 1.408 . S
C938 C936 1.363 . S
C938 C939 1.370 . S
C938 C942 1.524 1_565 S
C939 C931 1.503 1_564 S
C939 C938 1.370 . S
C939 C940 1.403 . S
C940 C939 1.403 . S
C940 C941 1.404 . S
C940 C943 1.539 . S
C941 C937 1.408 . S
C941 C940 1.404 . S
C941 H953 0.930 . S
C942 C938 1.524 1_545 S
C942 H954 0.956 1_554 S
C942 H955 0.961 . S
C942 H956 0.961 . S
C943 C940 1.539 . S
C943 H957 0.958 1_554 S
C943 H958 0.961 . S
C943 H959 0.960 . S
H944 C928 0.931 . S
H945 C933 0.929 . S
H946 C934 0.960 . S
H947 C934 0.962 1_545 S
H948 C934 0.961 . S
H949 C935 0.961 . S
H950 C935 0.961 . S
H951 C935 0.961 . S
H952 C936 0.931 . S
H953 C941 0.930 . S
H954 C942 0.956 1_556 S
H955 C942 0.961 . S
H956 C942 0.961 . S
H957 C943 0.958 1_556 S
H958 C943 0.961 . S
H959 C943 0.960 . S
C960 C961 1.391 . S
C960 C962 1.394 . S
C960 H976 0.931 . S
C961 C960 1.391 . S
C961 C965 1.376 . S
C962 C960 1.394 . S
C962 C963 1.369 . S
C962 C966 1.531 . S
C963 C962 1.369 . S
C963 C964 1.410 . S
C963 C971 1.503 . S
C964 C963 1.410 . S
C964 C965 1.392 . S
C964 C967 1.511 . S
C965 C961 1.376 . S
C965 C964 1.392 . S
C965 H977 0.929 . S
C966 C962 1.531 . S
C966 H978 0.960 . S
C966 H979 0.962 . S
C966 H980 0.960 . S
C967 C964 1.511 . S
C967 H981 0.961 . S
C967 H982 0.961 . S
C967 H983 0.961 . S
C968 C969 1.370 . S
C968 C970 1.363 . S
C968 H984 0.931 . S
C969 C968 1.370 . S
C969 C973 1.408 . S
C970 C968 1.363 . S
C970 C971 1.370 . S
C970 C974 1.524 . S
C971 C963 1.503 . S
C971 C970 1.370 . S
C971 C972 1.403 . S
C972 C971 1.403 . S
C972 C973 1.404 . S
C972 C975 1.539 . S
C973 C969 1.408 . S
C973 C972 1.404 . S
C973 H985 0.930 . S
C974 C970 1.524 . S
C974 H986 0.956 . S
C974 H987 0.961 . S
C974 H988 0.961 . S
C975 C972 1.539 . S
C975 H989 0.958 . S
C975 H990 0.961 . S
C975 H991 0.960 . S
H976 C960 0.931 . S
H977 C965 0.929 . S
H978 C966 0.960 . S
H979 C966 0.962 . S
H980 C966 0.960 . S
H981 C967 0.961 . S
H982 C967 0.961 . S
H983 C967 0.961 . S
H984 C968 0.931 . S
H985 C973 0.930 . S
H986 C974 0.956 . S
H987 C974 0.961 . S
H988 C974 0.961 . S
H989 C975 0.958 . S
H990 C975 0.961 . S
H991 C975 0.960 . S
C992 C993 1.391 . S
C992 C994 1.394 . S
C992 H1008 0.931 . S
C993 C992 1.391 . S
C993 C997 1.376 . S
C994 C992 1.394 . S
C994 C995 1.369 . S
C994 C998 1.531 . S
C995 C994 1.369 . S
C995 C996 1.410 . S
C995 C1003 1.503 . S
C996 C995 1.410 . S
C996 C997 1.392 . S
C996 C999 1.511 . S
C997 C993 1.376 . S
C997 C996 1.392 . S
C997 H1009 0.929 . S
C998 C994 1.531 . S
C998 H1010 0.960 . S
C998 H1011 0.962 . S
C998 H1012 0.960 . S
C999 C996 1.511 . S
C999 H1013 0.961 . S
C999 H1014 0.961 . S
C999 H1015 0.961 . S
C1000 C1001 1.370 . S
C1000 C1002 1.363 . S
C1000 H1016 0.931 . S
C1001 C1000 1.370 . S
C1001 C1005 1.408 . S
C1002 C1000 1.363 . S
C1002 C1003 1.370 . S
C1002 C1006 1.524 . S
C1003 C995 1.503 . S
C1003 C1002 1.370 . S
C1003 C1004 1.403 . S
C1004 C1003 1.403 . S
C1004 C1005 1.404 . S
C1004 C1007 1.539 . S
C1005 C1001 1.408 . S
C1005 C1004 1.404 . S
C1005 H1017 0.930 . S
C1006 C1002 1.524 . S
C1006 H1018 0.956 . S
C1006 H1019 0.961 . S
C1006 H1020 0.961 . S
C1007 C1004 1.539 . S
C1007 H1021 0.958 . S
C1007 H1022 0.961 . S
C1007 H1023 0.960 . S
H1008 C992 0.931 . S
H1009 C997 0.929 . S
H1010 C998 0.960 . S
H1011 C998 0.962 . S
H1012 C998 0.960 . S
H1013 C999 0.961 . S
H1014 C999 0.961 . S
H1015 C999 0.961 . S
H1016 C1000 0.931 . S
H1017 C1005 0.930 . S
H1018 C1006 0.956 . S
H1019 C1006 0.961 . S
H1020 C1006 0.961 . S
H1021 C1007 0.958 . S
H1022 C1007 0.961 . S
H1023 C1007 0.960 . S
C1024 C1025 1.391 . S
C1024 C1026 1.394 . S
C1024 H1040 0.931 . S
C1025 C1024 1.391 . S
C1025 C1029 1.376 . S
C1026 C1024 1.394 . S
C1026 C1027 1.369 . S
C1026 C1030 1.531 . S
C1027 C1026 1.369 . S
C1027 C1028 1.410 . S
C1027 C1035 1.503 . S
C1028 C1027 1.410 . S
C1028 C1029 1.392 . S
C1028 C1031 1.511 . S
C1029 C1025 1.376 . S
C1029 C1028 1.392 . S
C1029 H1041 0.929 . S
C1030 C1026 1.531 . S
C1030 H1042 0.960 . S
C1030 H1043 0.962 . S
C1030 H1044 0.960 . S
C1031 C1028 1.511 . S
C1031 H1045 0.961 . S
C1031 H1046 0.961 . S
C1031 H1047 0.961 . S
C1032 C1033 1.370 . S
C1032 C1034 1.363 . S
C1032 H1048 0.931 . S
C1033 C1032 1.370 . S
C1033 C1037 1.408 . S
C1034 C1032 1.363 . S
C1034 C1035 1.370 . S
C1034 C1038 1.524 . S
C1035 C1027 1.503 . S
C1035 C1034 1.370 . S
C1035 C1036 1.403 . S
C1036 C1035 1.403 . S
C1036 C1037 1.404 . S
C1036 C1039 1.539 . S
C1037 C1033 1.408 . S
C1037 C1036 1.404 . S
C1037 H1049 0.930 . S
C1038 C1034 1.524 . S
C1038 H1050 0.956 . S
C1038 H1051 0.961 . S
C1038 H1052 0.961 . S
C1039 C1036 1.539 . S
C1039 H1053 0.958 . S
C1039 H1054 0.961 . S
C1039 H1055 0.960 . S
H1040 C1024 0.931 . S
H1041 C1029 0.929 . S
H1042 C1030 0.960 . S
H1043 C1030 0.962 . S
H1044 C1030 0.960 . S
H1045 C1031 0.961 . S
H1046 C1031 0.961 . S
H1047 C1031 0.961 . S
H1048 C1032 0.931 . S
H1049 C1037 0.930 . S
H1050 C1038 0.956 . S
H1051 C1038 0.961 . S
H1052 C1038 0.961 . S
H1053 C1039 0.958 . S
H1054 C1039 0.961 . S
H1055 C1039 0.960 . S
C1056 C1057 1.391 . S
C1056 C1058 1.394 . S
C1056 H1072 0.931 . S
C1057 C1056 1.391 . S
C1057 C1061 1.376 . S
C1058 C1056 1.394 . S
C1058 C1059 1.369 . S
C1058 C1062 1.531 . S
C1059 C1058 1.369 . S
C1059 C1060 1.410 . S
C1059 C1067 1.503 . S
C1060 C1059 1.410 . S
C1060 C1061 1.392 . S
C1060 C1063 1.511 . S
C1061 C1057 1.376 . S
C1061 C1060 1.392 . S
C1061 H1073 0.929 . S
C1062 C1058 1.531 . S
C1062 H1074 0.960 . S
C1062 H1075 0.962 . S
C1062 H1076 0.960 . S
C1063 C1060 1.511 . S
C1063 H1077 0.961 . S
C1063 H1078 0.961 . S
C1063 H1079 0.961 . S
C1064 C1065 1.370 . S
C1064 C1066 1.363 . S
C1064 H1080 0.931 . S
C1065 C1064 1.370 . S
C1065 C1069 1.408 . S
C1066 C1064 1.363 . S
C1066 C1067 1.370 . S
C1066 C1070 1.524 . S
C1067 C1059 1.503 . S
C1067 C1066 1.370 . S
C1067 C1068 1.403 . S
C1068 C1067 1.403 . S
C1068 C1069 1.404 . S
C1068 C1071 1.539 . S
C1069 C1065 1.408 . S
C1069 C1068 1.404 . S
C1069 H1081 0.930 . S
C1070 C1066 1.524 . S
C1070 H1082 0.956 . S
C1070 H1083 0.961 . S
C1070 H1084 0.961 . S
C1071 C1068 1.539 . S
C1071 H1085 0.958 . S
C1071 H1086 0.961 . S
C1071 H1087 0.960 . S
H1072 C1056 0.931 . S
H1073 C1061 0.929 . S
H1074 C1062 0.960 . S
H1075 C1062 0.962 . S
H1076 C1062 0.960 . S
H1077 C1063 0.961 . S
H1078 C1063 0.961 . S
H1079 C1063 0.961 . S
H1080 C1064 0.931 . S
H1081 C1069 0.930 . S
H1082 C1070 0.956 . S
H1083 C1070 0.961 . S
H1084 C1070 0.961 . S
H1085 C1071 0.958 . S
H1086 C1071 0.961 . S
H1087 C1071 0.960 . S
C1088 C1089 1.391 . S
C1088 C1090 1.394 . S
C1088 H1104 0.931 . S
C1089 C1088 1.391 . S
C1089 C1093 1.376 . S
C1090 C1088 1.394 . S
C1090 C1091 1.369 . S
C1090 C1094 1.531 . S
C1091 C1090 1.369 . S
C1091 C1092 1.410 . S
C1091 C1099 1.503 . S
C1092 C1091 1.410 . S
C1092 C1093 1.392 . S
C1092 C1095 1.511 . S
C1093 C1089 1.376 . S
C1093 C1092 1.392 . S
C1093 H1105 0.929 . S
C1094 C1090 1.531 . S
C1094 H1106 0.960 . S
C1094 H1107 0.962 . S
C1094 H1108 0.960 . S
C1095 C1092 1.511 . S
C1095 H1109 0.961 . S
C1095 H1110 0.961 . S
C1095 H1111 0.961 . S
C1096 C1097 1.370 . S
C1096 C1098 1.363 . S
C1096 H1112 0.931 1_655 S
C1097 C1096 1.370 . S
C1097 C1101 1.408 . S
C1098 C1096 1.363 . S
C1098 C1099 1.370 . S
C1098 C1102 1.524 . S
C1099 C1091 1.503 . S
C1099 C1098 1.370 . S
C1099 C1100 1.403 . S
C1100 C1099 1.403 . S
C1100 C1101 1.404 . S
C1100 C1103 1.539 . S
C1101 C1097 1.408 . S
C1101 C1100 1.404 . S
C1101 H1113 0.930 . S
C1102 C1098 1.524 . S
C1102 H1114 0.956 . S
C1102 H1115 0.961 . S
C1102 H1116 0.961 . S
C1103 C1100 1.539 . S
C1103 H1117 0.958 . S
C1103 H1118 0.961 . S
C1103 H1119 0.960 . S
H1104 C1088 0.931 . S
H1105 C1093 0.929 . S
H1106 C1094 0.960 . S
H1107 C1094 0.962 . S
H1108 C1094 0.960 . S
H1109 C1095 0.961 . S
H1110 C1095 0.961 . S
H1111 C1095 0.961 . S
H1112 C1096 0.931 1_455 S
H1113 C1101 0.930 . S
H1114 C1102 0.956 . S
H1115 C1102 0.961 . S
H1116 C1102 0.961 . S
H1117 C1103 0.958 . S
H1118 C1103 0.961 . S
H1119 C1103 0.960 . S
C1120 C1121 1.391 . S
C1120 C1122 1.394 . S
C1120 H1136 0.931 . S
C1121 C1120 1.391 . S
C1121 C1125 1.376 . S
C1122 C1120 1.394 . S
C1122 C1123 1.369 . S
C1122 C1126 1.531 . S
C1123 C1122 1.369 . S
C1123 C1124 1.410 . S
C1123 C1131 1.503 . S
C1124 C1123 1.410 . S
C1124 C1125 1.392 . S
C1124 C1127 1.511 . S
C1125 C1121 1.376 . S
C1125 C1124 1.392 . S
C1125 H1137 0.929 . S
C1126 C1122 1.531 . S
C1126 H1138 0.960 . S
C1126 H1139 0.962 . S
C1126 H1140 0.960 . S
C1127 C1124 1.511 . S
C1127 H1141 0.961 . S
C1127 H1142 0.961 . S
C1127 H1143 0.961 . S
C1128 C1129 1.370 . S
C1128 C1130 1.363 . S
C1128 H1144 0.931 . S
C1129 C1128 1.370 . S
C1129 C1133 1.408 . S
C1130 C1128 1.363 . S
C1130 C1131 1.370 . S
C1130 C1134 1.524 . S
C1131 C1123 1.503 . S
C1131 C1130 1.370 . S
C1131 C1132 1.403 . S
C1132 C1131 1.403 . S
C1132 C1133 1.404 . S
C1132 C1135 1.539 . S
C1133 C1129 1.408 . S
C1133 C1132 1.404 . S
C1133 H1145 0.930 . S
C1134 C1130 1.524 . S
C1134 H1146 0.956 . S
C1134 H1147 0.961 . S
C1134 H1148 0.961 . S
C1135 C1132 1.539 . S
C1135 H1149 0.958 . S
C1135 H1150 0.961 . S
C1135 H1151 0.960 . S
H1136 C1120 0.931 . S
H1137 C1125 0.929 . S
H1138 C1126 0.960 . S
H1139 C1126 0.962 . S
H1140 C1126 0.960 . S
H1141 C1127 0.961 . S
H1142 C1127 0.961 . S
H1143 C1127 0.961 . S
H1144 C1128 0.931 . S
H1145 C1133 0.930 . S
H1146 C1134 0.956 . S
H1147 C1134 0.961 . S
H1148 C1134 0.961 . S
H1149 C1135 0.958 . S
H1150 C1135 0.961 . S
H1151 C1135 0.960 . S
C1152 C1153 1.391 . S
C1152 C1154 1.394 . S
C1152 H1168 0.931 1_655 S
C1153 C1152 1.391 . S
C1153 C1157 1.376 . S
C1154 C1152 1.394 . S
C1154 C1155 1.369 . S
C1154 C1158 1.531 . S
C1155 C1154 1.369 . S
C1155 C1156 1.410 . S
C1155 C1163 1.503 . S
C1156 C1155 1.410 . S
C1156 C1157 1.392 . S
C1156 C1159 1.511 . S
C1157 C1153 1.376 . S
C1157 C1156 1.392 . S
C1157 H1169 0.929 . S
C1158 C1154 1.531 . S
C1158 H1170 0.960 . S
C1158 H1171 0.962 . S
C1158 H1172 0.960 . S
C1159 C1156 1.511 . S
C1159 H1173 0.961 . S
C1159 H1174 0.961 . S
C1159 H1175 0.961 . S
C1160 C1161 1.370 . S
C1160 C1162 1.363 . S
C1160 H1176 0.931 . S
C1161 C1160 1.370 . S
C1161 C1165 1.408 . S
C1162 C1160 1.363 . S
C1162 C1163 1.370 . S
C1162 C1166 1.524 . S
C1163 C1155 1.503 . S
C1163 C1162 1.370 . S
C1163 C1164 1.403 . S
C1164 C1163 1.403 . S
C1164 C1165 1.404 . S
C1164 C1167 1.539 . S
C1165 C1161 1.408 . S
C1165 C1164 1.404 . S
C1165 H1177 0.930 . S
C1166 C1162 1.524 . S
C1166 H1178 0.956 . S
C1166 H1179 0.961 . S
C1166 H1180 0.961 . S
C1167 C1164 1.539 . S
C1167 H1181 0.958 . S
C1167 H1182 0.961 . S
C1167 H1183 0.960 . S
H1168 C1152 0.931 1_455 S
H1169 C1157 0.929 . S
H1170 C1158 0.960 . S
H1171 C1158 0.962 . S
H1172 C1158 0.960 . S
H1173 C1159 0.961 . S
H1174 C1159 0.961 . S
H1175 C1159 0.961 . S
H1176 C1160 0.931 . S
H1177 C1165 0.930 . S
H1178 C1166 0.956 . S
H1179 C1166 0.961 . S
H1180 C1166 0.961 . S
H1181 C1167 0.958 . S
H1182 C1167 0.961 . S
H1183 C1167 0.960 . S
C1184 C1185 1.391 . S
C1184 C1186 1.394 . S
C1184 H1200 0.931 . S
C1185 C1184 1.391 . S
C1185 C1189 1.376 . S
C1186 C1184 1.394 . S
C1186 C1187 1.369 . S
C1186 C1190 1.531 . S
C1187 C1186 1.369 . S
C1187 C1188 1.410 . S
C1187 C1195 1.503 . S
C1188 C1187 1.410 . S
C1188 C1189 1.392 . S
C1188 C1191 1.511 . S
C1189 C1185 1.376 . S
C1189 C1188 1.392 . S
C1189 H1201 0.929 . S
C1190 C1186 1.531 . S
C1190 H1202 0.960 . S
C1190 H1203 0.962 . S
C1190 H1204 0.960 . S
C1191 C1188 1.511 . S
C1191 H1205 0.961 . S
C1191 H1206 0.961 . S
C1191 H1207 0.961 . S
C1192 C1193 1.370 . S
C1192 C1194 1.363 . S
C1192 H1208 0.931 . S
C1193 C1192 1.370 . S
C1193 C1197 1.408 . S
C1194 C1192 1.363 . S
C1194 C1195 1.370 . S
C1194 C1198 1.524 . S
C1195 C1187 1.503 . S
C1195 C1194 1.370 . S
C1195 C1196 1.403 . S
C1196 C1195 1.403 . S
C1196 C1197 1.404 . S
C1196 C1199 1.539 . S
C1197 C1193 1.408 . S
C1197 C1196 1.404 . S
C1197 H1209 0.930 . S
C1198 C1194 1.524 . S
C1198 H1210 0.956 . S
C1198 H1211 0.961 . S
C1198 H1212 0.961 . S
C1199 C1196 1.539 . S
C1199 H1213 0.958 . S
C1199 H1214 0.961 . S
C1199 H1215 0.960 . S
H1200 C1184 0.931 . S
H1201 C1189 0.929 . S
H1202 C1190 0.960 . S
H1203 C1190 0.962 . S
H1204 C1190 0.960 . S
H1205 C1191 0.961 . S
H1206 C1191 0.961 . S
H1207 C1191 0.961 . S
H1208 C1192 0.931 . S
H1209 C1197 0.930 . S
H1210 C1198 0.956 . S
H1211 C1198 0.961 . S
H1212 C1198 0.961 . S
H1213 C1199 0.958 . S
H1214 C1199 0.961 . S
H1215 C1199 0.960 . S
C1216 C1217 1.391 . S
C1216 C1218 1.394 . S
C1216 H1232 0.931 . S
C1217 C1216 1.391 . S
C1217 C1221 1.376 . S
C1218 C1216 1.394 . S
C1218 C1219 1.369 . S
C1218 C1222 1.531 . S
C1219 C1218 1.369 . S
C1219 C1220 1.410 . S
C1219 C1227 1.503 . S
C1220 C1219 1.410 . S
C1220 C1221 1.392 . S
C1220 C1223 1.511 . S
C1221 C1217 1.376 . S
C1221 C1220 1.392 . S
C1221 H1233 0.929 . S
C1222 C1218 1.531 . S
C1222 H1234 0.960 . S
C1222 H1235 0.962 . S
C1222 H1236 0.960 . S
C1223 C1220 1.511 . S
C1223 H1237 0.961 . S
C1223 H1238 0.961 . S
C1223 H1239 0.961 . S
C1224 C1225 1.370 . S
C1224 C1226 1.363 . S
C1224 H1240 0.931 . S
C1225 C1224 1.370 . S
C1225 C1229 1.408 . S
C1226 C1224 1.363 . S
C1226 C1227 1.370 . S
C1226 C1230 1.524 . S
C1227 C1219 1.503 . S
C1227 C1226 1.370 . S
C1227 C1228 1.403 . S
C1228 C1227 1.403 . S
C1228 C1229 1.404 . S
C1228 C1231 1.539 . S
C1229 C1225 1.408 . S
C1229 C1228 1.404 . S
C1229 H1241 0.930 . S
C1230 C1226 1.524 . S
C1230 H1242 0.956 . S
C1230 H1243 0.961 . S
C1230 H1244 0.961 . S
C1231 C1228 1.539 . S
C1231 H1245 0.958 . S
C1231 H1246 0.961 . S
C1231 H1247 0.960 . S
H1232 C1216 0.931 . S
H1233 C1221 0.929 . S
H1234 C1222 0.960 . S
H1235 C1222 0.962 . S
H1236 C1222 0.960 . S
H1237 C1223 0.961 . S
H1238 C1223 0.961 . S
H1239 C1223 0.961 . S
H1240 C1224 0.931 . S
H1241 C1229 0.930 . S
H1242 C1230 0.956 . S
H1243 C1230 0.961 . S
H1244 C1230 0.961 . S
H1245 C1231 0.958 . S
H1246 C1231 0.961 . S
H1247 C1231 0.960 . S
C1248 C1249 1.391 . S
C1248 C1250 1.394 . S
C1248 H1264 0.931 . S
C1249 C1248 1.391 . S
C1249 C1253 1.376 . S
C1250 C1248 1.394 . S
C1250 C1251 1.369 . S
C1250 C1254 1.531 . S
C1251 C1250 1.369 . S
C1251 C1252 1.410 . S
C1251 C1259 1.503 . S
C1252 C1251 1.410 . S
C1252 C1253 1.392 . S
C1252 C1255 1.511 . S
C1253 C1249 1.376 . S
C1253 C1252 1.392 . S
C1253 H1265 0.929 . S
C1254 C1250 1.531 . S
C1254 H1266 0.960 . S
C1254 H1267 0.962 . S
C1254 H1268 0.960 . S
C1255 C1252 1.511 . S
C1255 H1269 0.961 . S
C1255 H1270 0.961 . S
C1255 H1271 0.961 . S
C1256 C1257 1.370 . S
C1256 C1258 1.363 . S
C1256 H1272 0.931 . S
C1257 C1256 1.370 . S
C1257 C1261 1.408 . S
C1258 C1256 1.363 . S
C1258 C1259 1.370 . S
C1258 C1262 1.524 . S
C1259 C1251 1.503 . S
C1259 C1258 1.370 . S
C1259 C1260 1.403 . S
C1260 C1259 1.403 . S
C1260 C1261 1.404 . S
C1260 C1263 1.539 . S
C1261 C1257 1.408 . S
C1261 C1260 1.404 . S
C1261 H1273 0.930 . S
C1262 C1258 1.524 . S
C1262 H1274 0.956 . S
C1262 H1275 0.961 . S
C1262 H1276 0.961 . S
C1263 C1260 1.539 . S
C1263 H1277 0.958 . S
C1263 H1278 0.961 . S
C1263 H1279 0.960 . S
H1264 C1248 0.931 . S
H1265 C1253 0.929 . S
H1266 C1254 0.960 . S
H1267 C1254 0.962 . S
H1268 C1254 0.960 . S
H1269 C1255 0.961 . S
H1270 C1255 0.961 . S
H1271 C1255 0.961 . S
H1272 C1256 0.931 . S
H1273 C1261 0.930 . S
H1274 C1262 0.956 . S
H1275 C1262 0.961 . S
H1276 C1262 0.961 . S
H1277 C1263 0.958 . S
H1278 C1263 0.961 . S
H1279 C1263 0.960 . S
C1280 C1281 1.390 1_655 S
C1280 C1282 1.392 1_655 S
C1280 H1296 0.932 . S
C1281 C1280 1.390 1_455 S
C1281 C1285 1.376 . S
C1282 C1280 1.392 1_455 S
C1282 C1283 1.369 . S
C1282 C1286 1.531 . S
C1283 C1282 1.369 . S
C1283 C1284 1.410 . S
C1283 C1291 1.503 . S
C1284 C1283 1.410 . S
C1284 C1285 1.392 . S
C1284 C1287 1.511 . S
C1285 C1281 1.376 . S
C1285 C1284 1.392 . S
C1285 H1297 0.929 . S
C1286 C1282 1.531 . S
C1286 H1298 0.960 . S
C1286 H1299 0.962 1_455 S
C1286 H1300 0.960 1_455 S
C1287 C1284 1.511 . S
C1287 H1301 0.961 . S
C1287 H1302 0.961 . S
C1287 H1303 0.961 . S
C1288 C1289 1.370 . S
C1288 C1290 1.363 . S
C1288 H1304 0.931 . S
C1289 C1288 1.370 . S
C1289 C1293 1.408 . S
C1290 C1288 1.363 . S
C1290 C1291 1.370 . S
C1290 C1294 1.524 . S
C1291 C1283 1.503 . S
C1291 C1290 1.370 . S
C1291 C1292 1.403 . S
C1292 C1291 1.403 . S
C1292 C1293 1.404 . S
C1292 C1295 1.539 . S
C1293 C1289 1.408 . S
C1293 C1292 1.404 . S
C1293 H1305 0.930 . S
C1294 C1290 1.524 . S
C1294 H1306 0.956 . S
C1294 H1307 0.961 . S
C1294 H1308 0.961 . S
C1295 C1292 1.539 . S
C1295 H1309 0.958 . S
C1295 H1310 0.961 . S
C1295 H1311 0.960 . S
H1296 C1280 0.932 . S
H1297 C1285 0.929 . S
H1298 C1286 0.960 . S
H1299 C1286 0.962 1_655 S
H1300 C1286 0.960 1_655 S
H1301 C1287 0.961 . S
H1302 C1287 0.961 . S
H1303 C1287 0.961 . S
H1304 C1288 0.931 . S
H1305 C1293 0.930 . S
H1306 C1294 0.956 . S
H1307 C1294 0.961 . S
H1308 C1294 0.961 . S
H1309 C1295 0.958 . S
H1310 C1295 0.961 . S
H1311 C1295 0.960 . S
C1312 C1313 1.391 . S
C1312 C1314 1.394 . S
C1312 H1328 0.931 . S
C1313 C1312 1.391 . S
C1313 C1317 1.376 . S
C1314 C1312 1.394 . S
C1314 C1315 1.369 . S
C1314 C1318 1.531 . S
C1315 C1314 1.369 . S
C1315 C1316 1.410 . S
C1315 C1323 1.503 . S
C1316 C1315 1.410 . S
C1316 C1317 1.392 . S
C1316 C1319 1.511 . S
C1317 C1313 1.376 . S
C1317 C1316 1.392 . S
C1317 H1329 0.929 . S
C1318 C1314 1.531 . S
C1318 H1330 0.960 . S
C1318 H1331 0.962 . S
C1318 H1332 0.960 . S
C1319 C1316 1.511 . S
C1319 H1333 0.961 . S
C1319 H1334 0.961 . S
C1319 H1335 0.961 . S
C1320 C1321 1.370 . S
C1320 C1322 1.363 . S
C1320 H1336 0.931 . S
C1321 C1320 1.370 . S
C1321 C1325 1.408 . S
C1322 C1320 1.363 . S
C1322 C1323 1.370 . S
C1322 C1326 1.524 . S
C1323 C1315 1.503 . S
C1323 C1322 1.370 . S
C1323 C1324 1.403 . S
C1324 C1323 1.403 . S
C1324 C1325 1.404 . S
C1324 C1327 1.539 . S
C1325 C1321 1.408 . S
C1325 C1324 1.404 . S
C1325 H1337 0.930 . S
C1326 C1322 1.524 . S
C1326 H1338 0.956 . S
C1326 H1339 0.961 . S
C1326 H1340 0.961 . S
C1327 C1324 1.539 . S
C1327 H1341 0.958 . S
C1327 H1342 0.961 . S
C1327 H1343 0.960 . S
H1328 C1312 0.931 . S
H1329 C1317 0.929 . S
H1330 C1318 0.960 . S
H1331 C1318 0.962 . S
H1332 C1318 0.960 . S
H1333 C1319 0.961 . S
H1334 C1319 0.961 . S
H1335 C1319 0.961 . S
H1336 C1320 0.931 . S
H1337 C1325 0.930 . S
H1338 C1326 0.956 . S
H1339 C1326 0.961 . S
H1340 C1326 0.961 . S
H1341 C1327 0.958 . S
H1342 C1327 0.961 . S
H1343 C1327 0.960 . S
C1344 C1345 1.391 . S
C1344 C1346 1.394 . S
C1344 H1360 0.931 . S
C1345 C1344 1.391 . S
C1345 C1349 1.376 . S
C1346 C1344 1.394 . S
C1346 C1347 1.369 . S
C1346 C1350 1.531 . S
C1347 C1346 1.369 . S
C1347 C1348 1.410 . S
C1347 C1355 1.503 . S
C1348 C1347 1.410 . S
C1348 C1349 1.392 . S
C1348 C1351 1.511 . S
C1349 C1345 1.376 . S
C1349 C1348 1.392 . S
C1349 H1361 0.929 . S
C1350 C1346 1.531 . S
C1350 H1362 0.960 . S
C1350 H1363 0.962 . S
C1350 H1364 0.960 . S
C1351 C1348 1.511 . S
C1351 H1365 0.961 . S
C1351 H1366 0.961 . S
C1351 H1367 0.961 . S
C1352 C1353 1.370 . S
C1352 C1354 1.363 . S
C1352 H1368 0.931 . S
C1353 C1352 1.370 . S
C1353 C1357 1.408 1_655 S
C1354 C1352 1.363 . S
C1354 C1355 1.370 . S
C1354 C1358 1.524 . S
C1355 C1347 1.503 . S
C1355 C1354 1.370 . S
C1355 C1356 1.403 . S
C1356 C1355 1.403 . S
C1356 C1357 1.404 1_655 S
C1356 C1359 1.539 . S
C1357 C1353 1.408 1_455 S
C1357 C1356 1.404 1_455 S
C1357 H1369 0.930 . S
C1358 C1354 1.524 . S
C1358 H1370 0.956 . S
C1358 H1371 0.961 . S
C1358 H1372 0.961 . S
C1359 C1356 1.539 . S
C1359 H1373 0.958 . S
C1359 H1374 0.961 1_655 S
C1359 H1375 0.960 . S
H1360 C1344 0.931 . S
H1361 C1349 0.929 . S
H1362 C1350 0.960 . S
H1363 C1350 0.962 . S
H1364 C1350 0.960 . S
H1365 C1351 0.961 . S
H1366 C1351 0.961 . S
H1367 C1351 0.961 . S
H1368 C1352 0.931 . S
H1369 C1357 0.930 . S
H1370 C1358 0.956 . S
H1371 C1358 0.961 . S
H1372 C1358 0.961 . S
H1373 C1359 0.958 . S
H1374 C1359 0.961 1_455 S
H1375 C1359 0.960 . S
C1376 C1377 1.391 . S
C1376 C1378 1.394 . S
C1376 H1392 0.931 . S
C1377 C1376 1.391 . S
C1377 C1381 1.376 . S
C1378 C1376 1.394 . S
C1378 C1379 1.369 . S
C1378 C1382 1.531 . S
C1379 C1378 1.369 . S
C1379 C1380 1.410 . S
C1379 C1387 1.503 . S
C1380 C1379 1.410 . S
C1380 C1381 1.392 . S
C1380 C1383 1.511 . S
C1381 C1377 1.376 . S
C1381 C1380 1.392 . S
C1381 H1393 0.929 . S
C1382 C1378 1.531 . S
C1382 H1394 0.960 . S
C1382 H1395 0.962 . S
C1382 H1396 0.960 . S
C1383 C1380 1.511 . S
C1383 H1397 0.961 . S
C1383 H1398 0.961 . S
C1383 H1399 0.961 . S
C1384 C1385 1.370 . S
C1384 C1386 1.363 . S
C1384 H1400 0.931 . S
C1385 C1384 1.370 . S
C1385 C1389 1.408 . S
C1386 C1384 1.363 . S
C1386 C1387 1.370 . S
C1386 C1390 1.524 . S
C1387 C1379 1.503 . S
C1387 C1386 1.370 . S
C1387 C1388 1.403 . S
C1388 C1387 1.403 . S
C1388 C1389 1.404 . S
C1388 C1391 1.539 . S
C1389 C1385 1.408 . S
C1389 C1388 1.404 . S
C1389 H1401 0.930 . S
C1390 C1386 1.524 . S
C1390 H1402 0.956 . S
C1390 H1403 0.961 . S
C1390 H1404 0.961 . S
C1391 C1388 1.539 . S
C1391 H1405 0.958 . S
C1391 H1406 0.961 . S
C1391 H1407 0.960 . S
H1392 C1376 0.931 . S
H1393 C1381 0.929 . S
H1394 C1382 0.960 . S
H1395 C1382 0.962 . S
H1396 C1382 0.960 . S
H1397 C1383 0.961 . S
H1398 C1383 0.961 . S
H1399 C1383 0.961 . S
H1400 C1384 0.931 . S
H1401 C1389 0.930 . S
H1402 C1390 0.956 . S
H1403 C1390 0.961 . S
H1404 C1390 0.961 . S
H1405 C1391 0.958 . S
H1406 C1391 0.961 . S
H1407 C1391 0.960 . S
C1408 C1409 1.391 . S
C1408 C1410 1.394 . S
C1408 H1424 0.931 . S
C1409 C1408 1.391 . S
C1409 C1413 1.376 . S
C1410 C1408 1.394 . S
C1410 C1411 1.369 . S
C1410 C1414 1.531 . S
C1411 C1410 1.369 . S
C1411 C1412 1.410 . S
C1411 C1419 1.503 . S
C1412 C1411 1.410 . S
C1412 C1413 1.392 . S
C1412 C1415 1.511 . S
C1413 C1409 1.376 . S
C1413 C1412 1.392 . S
C1413 H1425 0.929 . S
C1414 C1410 1.531 . S
C1414 H1426 0.960 . S
C1414 H1427 0.962 . S
C1414 H1428 0.960 . S
C1415 C1412 1.511 . S
C1415 H1429 0.961 . S
C1415 H1430 0.961 . S
C1415 H1431 0.961 . S
C1416 C1417 1.370 . S
C1416 C1418 1.363 . S
C1416 H1432 0.931 . S
C1417 C1416 1.370 . S
C1417 C1421 1.408 . S
C1418 C1416 1.363 . S
C1418 C1419 1.370 . S
C1418 C1422 1.524 . S
C1419 C1411 1.503 . S
C1419 C1418 1.370 . S
C1419 C1420 1.403 . S
C1420 C1419 1.403 . S
C1420 C1421 1.404 . S
C1420 C1423 1.539 . S
C1421 C1417 1.408 . S
C1421 C1420 1.404 . S
C1421 H1433 0.930 1_655 S
C1422 C1418 1.524 . S
C1422 H1434 0.956 . S
C1422 H1435 0.961 . S
C1422 H1436 0.961 . S
C1423 C1420 1.539 . S
C1423 H1437 0.958 . S
C1423 H1438 0.961 . S
C1423 H1439 0.960 . S
H1424 C1408 0.931 . S
H1425 C1413 0.929 . S
H1426 C1414 0.960 . S
H1427 C1414 0.962 . S
H1428 C1414 0.960 . S
H1429 C1415 0.961 . S
H1430 C1415 0.961 . S
H1431 C1415 0.961 . S
H1432 C1416 0.931 . S
H1433 C1421 0.930 1_455 S
H1434 C1422 0.956 . S
H1435 C1422 0.961 . S
H1436 C1422 0.961 . S
H1437 C1423 0.958 . S
H1438 C1423 0.961 . S
H1439 C1423 0.960 . S
C1440 C1441 1.391 . S
C1440 C1442 1.394 . S
C1440 H1456 0.931 . S
C1441 C1440 1.391 . S
C1441 C1445 1.376 . S
C1442 C1440 1.394 . S
C1442 C1443 1.369 . S
C1442 C1446 1.531 . S
C1443 C1442 1.369 . S
C1443 C1444 1.410 . S
C1443 C1451 1.503 . S
C1444 C1443 1.410 . S
C1444 C1445 1.392 . S
C1444 C1447 1.511 . S
C1445 C1441 1.376 . S
C1445 C1444 1.392 . S
C1445 H1457 0.929 . S
C1446 C1442 1.531 . S
C1446 H1458 0.960 . S
C1446 H1459 0.962 . S
C1446 H1460 0.960 . S
C1447 C1444 1.511 . S
C1447 H1461 0.961 . S
C1447 H1462 0.961 . S
C1447 H1463 0.961 . S
C1448 C1449 1.370 . S
C1448 C1450 1.363 . S
C1448 H1464 0.931 . S
C1449 C1448 1.370 . S
C1449 C1453 1.408 . S
C1450 C1448 1.363 . S
C1450 C1451 1.370 . S
C1450 C1454 1.524 . S
C1451 C1443 1.503 . S
C1451 C1450 1.370 . S
C1451 C1452 1.403 . S
C1452 C1451 1.403 . S
C1452 C1453 1.404 . S
C1452 C1455 1.539 . S
C1453 C1449 1.408 . S
C1453 C1452 1.404 . S
C1453 H1465 0.930 . S
C1454 C1450 1.524 . S
C1454 H1466 0.956 . S
C1454 H1467 0.961 . S
C1454 H1468 0.961 . S
C1455 C1452 1.539 . S
C1455 H1469 0.958 . S
C1455 H1470 0.961 . S
C1455 H1471 0.960 . S
H1456 C1440 0.931 . S
H1457 C1445 0.929 . S
H1458 C1446 0.960 . S
H1459 C1446 0.962 . S
H1460 C1446 0.960 . S
H1461 C1447 0.961 . S
H1462 C1447 0.961 . S
H1463 C1447 0.961 . S
H1464 C1448 0.931 . S
H1465 C1453 0.930 . S
H1466 C1454 0.956 . S
H1467 C1454 0.961 . S
H1468 C1454 0.961 . S
H1469 C1455 0.958 . S
H1470 C1455 0.961 . S
H1471 C1455 0.960 . S
C1472 C1473 1.391 . S
C1472 C1474 1.394 . S
C1472 H1488 0.931 1_455 S
C1473 C1472 1.391 . S
C1473 C1477 1.376 . S
C1474 C1472 1.394 . S
C1474 C1475 1.369 . S
C1474 C1478 1.531 . S
C1475 C1474 1.369 . S
C1475 C1476 1.410 . S
C1475 C1483 1.503 . S
C1476 C1475 1.410 . S
C1476 C1477 1.392 . S
C1476 C1479 1.511 . S
C1477 C1473 1.376 . S
C1477 C1476 1.392 . S
C1477 H1489 0.929 . S
C1478 C1474 1.531 . S
C1478 H1490 0.960 . S
C1478 H1491 0.962 . S
C1478 H1492 0.960 . S
C1479 C1476 1.511 . S
C1479 H1493 0.961 . S
C1479 H1494 0.961 . S
C1479 H1495 0.961 . S
C1480 C1481 1.370 . S
C1480 C1482 1.363 . S
C1480 H1496 0.931 . S
C1481 C1480 1.370 . S
C1481 C1485 1.408 . S
C1482 C1480 1.363 . S
C1482 C1483 1.370 . S
C1482 C1486 1.524 . S
C1483 C1475 1.503 . S
C1483 C1482 1.370 . S
C1483 C1484 1.403 . S
C1484 C1483 1.403 . S
C1484 C1485 1.404 . S
C1484 C1487 1.539 . S
C1485 C1481 1.408 . S
C1485 C1484 1.404 . S
C1485 H1497 0.930 . S
C1486 C1482 1.524 . S
C1486 H1498 0.956 . S
C1486 H1499 0.961 . S
C1486 H1500 0.961 . S
C1487 C1484 1.539 . S
C1487 H1501 0.958 . S
C1487 H1502 0.961 . S
C1487 H1503 0.960 . S
H1488 C1472 0.931 1_655 S
H1489 C1477 0.929 . S
H1490 C1478 0.960 . S
H1491 C1478 0.962 . S
H1492 C1478 0.960 . S
H1493 C1479 0.961 . S
H1494 C1479 0.961 . S
H1495 C1479 0.961 . S
H1496 C1480 0.931 . S
H1497 C1485 0.930 . S
H1498 C1486 0.956 . S
H1499 C1486 0.961 . S
H1500 C1486 0.961 . S
H1501 C1487 0.958 . S
H1502 C1487 0.961 . S
H1503 C1487 0.960 . S
C1504 C1505 1.391 . S
C1504 C1506 1.394 . S
C1504 H1520 0.931 . S
C1505 C1504 1.391 . S
C1505 C1509 1.376 . S
C1506 C1504 1.394 . S
C1506 C1507 1.369 . S
C1506 C1510 1.531 . S
C1507 C1506 1.369 . S
C1507 C1508 1.410 . S
C1507 C1515 1.503 . S
C1508 C1507 1.410 . S
C1508 C1509 1.392 . S
C1508 C1511 1.511 . S
C1509 C1505 1.376 . S
C1509 C1508 1.392 . S
C1509 H1521 0.929 . S
C1510 C1506 1.531 . S
C1510 H1522 0.960 . S
C1510 H1523 0.962 . S
C1510 H1524 0.960 . S
C1511 C1508 1.511 . S
C1511 H1525 0.961 . S
C1511 H1526 0.961 . S
C1511 H1527 0.961 . S
C1512 C1513 1.370 . S
C1512 C1514 1.363 . S
C1512 H1528 0.931 . S
C1513 C1512 1.370 . S
C1513 C1517 1.408 . S
C1514 C1512 1.363 . S
C1514 C1515 1.370 . S
C1514 C1518 1.524 . S
C1515 C1507 1.503 . S
C1515 C1514 1.370 . S
C1515 C1516 1.403 . S
C1516 C1515 1.403 . S
C1516 C1517 1.404 . S
C1516 C1519 1.539 . S
C1517 C1513 1.408 . S
C1517 C1516 1.404 . S
C1517 H1529 0.930 . S
C1518 C1514 1.524 . S
C1518 H1530 0.956 . S
C1518 H1531 0.961 . S
C1518 H1532 0.961 . S
C1519 C1516 1.539 . S
C1519 H1533 0.958 . S
C1519 H1534 0.961 . S
C1519 H1535 0.960 . S
H1520 C1504 0.931 . S
H1521 C1509 0.929 . S
H1522 C1510 0.960 . S
H1523 C1510 0.962 . S
H1524 C1510 0.960 . S
H1525 C1511 0.961 . S
H1526 C1511 0.961 . S
H1527 C1511 0.961 . S
H1528 C1512 0.931 . S
H1529 C1517 0.930 . S
H1530 C1518 0.956 . S
H1531 C1518 0.961 . S
H1532 C1518 0.961 . S
H1533 C1519 0.958 . S
H1534 C1519 0.961 . S
H1535 C1519 0.960 . S
C1536 C1537 1.391 1_655 S
C1536 C1538 1.394 1_655 S
C1536 H1552 0.931 . S
C1537 C1536 1.391 1_455 S
C1537 C1541 1.376 . S
C1538 C1536 1.394 1_455 S
C1538 C1539 1.369 . S
C1538 C1542 1.531 . S
C1539 C1538 1.369 . S
C1539 C1540 1.410 . S
C1539 C1547 1.503 . S
C1540 C1539 1.410 . S
C1540 C1541 1.392 . S
C1540 C1543 1.511 . S
C1541 C1537 1.376 . S
C1541 C1540 1.392 . S
C1541 H1553 0.929 . S
C1542 C1538 1.531 . S
C1542 H1554 0.960 . S
C1542 H1555 0.962 1_455 S
C1542 H1556 0.960 1_455 S
C1543 C1540 1.511 . S
C1543 H1557 0.961 . S
C1543 H1558 0.961 . S
C1543 H1559 0.961 . S
C1544 C1545 1.370 . S
C1544 C1546 1.363 . S
C1544 H1560 0.931 . S
C1545 C1544 1.370 . S
C1545 C1549 1.408 . S
C1546 C1544 1.363 . S
C1546 C1547 1.370 . S
C1546 C1550 1.524 . S
C1547 C1539 1.503 . S
C1547 C1546 1.370 . S
C1547 C1548 1.403 . S
C1548 C1547 1.403 . S
C1548 C1549 1.404 . S
C1548 C1551 1.539 . S
C1549 C1545 1.408 . S
C1549 C1548 1.404 . S
C1549 H1561 0.930 . S
C1550 C1546 1.524 . S
C1550 H1562 0.956 . S
C1550 H1563 0.961 . S
C1550 H1564 0.961 . S
C1551 C1548 1.539 . S
C1551 H1565 0.958 . S
C1551 H1566 0.961 . S
C1551 H1567 0.960 . S
H1552 C1536 0.931 . S
H1553 C1541 0.929 . S
H1554 C1542 0.960 . S
H1555 C1542 0.962 1_655 S
H1556 C1542 0.960 1_655 S
H1557 C1543 0.961 . S
H1558 C1543 0.961 . S
H1559 C1543 0.961 . S
H1560 C1544 0.931 . S
H1561 C1549 0.930 . S
H1562 C1550 0.956 . S
H1563 C1550 0.961 . S
H1564 C1550 0.961 . S
H1565 C1551 0.958 . S
H1566 C1551 0.961 . S
H1567 C1551 0.960 . S
C1568 C1569 1.391 . S
C1568 C1570 1.394 . S
C1568 H1584 0.931 . S
C1569 C1568 1.391 . S
C1569 C1573 1.376 . S
C1570 C1568 1.394 . S
C1570 C1571 1.369 . S
C1570 C1574 1.531 . S
C1571 C1570 1.369 . S
C1571 C1572 1.410 . S
C1571 C1579 1.503 . S
C1572 C1571 1.410 . S
C1572 C1573 1.392 . S
C1572 C1575 1.511 . S
C1573 C1569 1.376 . S
C1573 C1572 1.392 . S
C1573 H1585 0.929 . S
C1574 C1570 1.531 . S
C1574 H1586 0.960 . S
C1574 H1587 0.952 1_455 S
C1574 H1588 0.960 . S
C1575 C1572 1.511 . S
C1575 H1589 0.961 . S
C1575 H1590 0.961 . S
C1575 H1591 0.961 . S
C1576 C1577 1.370 . S
C1576 C1578 1.363 . S
C1576 H1592 0.931 . S
C1577 C1576 1.370 . S
C1577 C1581 1.408 . S
C1578 C1576 1.363 . S
C1578 C1579 1.370 . S
C1578 C1582 1.524 . S
C1579 C1571 1.503 . S
C1579 C1578 1.370 . S
C1579 C1580 1.403 . S
C1580 C1579 1.403 . S
C1580 C1581 1.404 . S
C1580 C1583 1.539 . S
C1581 C1577 1.408 . S
C1581 C1580 1.404 . S
C1581 H1593 0.930 . S
C1582 C1578 1.524 . S
C1582 H1594 0.956 . S
C1582 H1595 0.961 . S
C1582 H1596 0.961 . S
C1583 C1580 1.539 . S
C1583 H1597 0.958 . S
C1583 H1598 0.961 . S
C1583 H1599 0.960 . S
H1584 C1568 0.931 . S
H1585 C1573 0.929 . S
H1586 C1574 0.960 . S
H1587 C1574 0.952 1_655 S
H1588 C1574 0.960 . S
H1589 C1575 0.961 . S
H1590 C1575 0.961 . S
H1591 C1575 0.961 . S
H1592 C1576 0.931 . S
H1593 C1581 0.930 . S
H1594 C1582 0.956 . S
H1595 C1582 0.961 . S
H1596 C1582 0.961 . S
H1597 C1583 0.958 . S
H1598 C1583 0.961 . S
H1599 C1583 0.960 . S
C1600 C1601 1.391 . S
C1600 C1602 1.394 . S
C1600 H1616 0.931 . S
C1601 C1600 1.391 . S
C1601 C1605 1.376 . S
C1602 C1600 1.394 . S
C1602 C1603 1.369 . S
C1602 C1606 1.531 1_655 S
C1603 C1602 1.369 . S
C1603 C1604 1.410 . S
C1603 C1611 1.503 . S
C1604 C1603 1.410 . S
C1604 C1605 1.392 . S
C1604 C1607 1.511 . S
C1605 C1601 1.376 . S
C1605 C1604 1.392 . S
C1605 H1617 0.929 . S
C1606 C1602 1.531 1_455 S
C1606 H1618 0.961 . S
C1606 H1619 0.962 . S
C1606 H1620 0.960 . S
C1607 C1604 1.511 . S
C1607 H1621 0.961 . S
C1607 H1622 0.961 . S
C1607 H1623 0.961 . S
C1608 C1609 1.370 . S
C1608 C1610 1.363 . S
C1608 H1624 0.931 . S
C1609 C1608 1.370 . S
C1609 C1613 1.408 . S
C1610 C1608 1.363 . S
C1610 C1611 1.370 . S
C1610 C1614 1.524 . S
C1611 C1603 1.503 . S
C1611 C1610 1.370 . S
C1611 C1612 1.403 . S
C1612 C1611 1.403 . S
C1612 C1613 1.404 . S
C1612 C1615 1.539 . S
C1613 C1609 1.408 . S
C1613 C1612 1.404 . S
C1613 H1625 0.930 . S
C1614 C1610 1.524 . S
C1614 H1626 0.956 . S
C1614 H1627 0.961 . S
C1614 H1628 0.961 . S
C1615 C1612 1.539 . S
C1615 H1629 0.958 . S
C1615 H1630 0.961 . S
C1615 H1631 0.960 . S
H1616 C1600 0.931 . S
H1617 C1605 0.929 . S
H1618 C1606 0.961 . S
H1619 C1606 0.962 . S
H1620 C1606 0.960 . S
H1621 C1607 0.961 . S
H1622 C1607 0.961 . S
H1623 C1607 0.961 . S
H1624 C1608 0.931 . S
H1625 C1613 0.930 . S
H1626 C1614 0.956 . S
H1627 C1614 0.961 . S
H1628 C1614 0.961 . S
H1629 C1615 0.958 . S
H1630 C1615 0.961 . S
H1631 C1615 0.960 . S
C1632 C1633 1.391 . S
C1632 C1634 1.394 . S
C1632 H1648 0.931 . S
C1633 C1632 1.391 . S
C1633 C1637 1.376 . S
C1634 C1632 1.394 . S
C1634 C1635 1.369 . S
C1634 C1638 1.531 . S
C1635 C1634 1.369 . S
C1635 C1636 1.410 . S
C1635 C1643 1.503 . S
C1636 C1635 1.410 . S
C1636 C1637 1.392 . S
C1636 C1639 1.511 . S
C1637 C1633 1.376 . S
C1637 C1636 1.392 . S
C1637 H1649 0.929 . S
C1638 C1634 1.531 . S
C1638 H1650 0.960 . S
C1638 H1651 0.962 1_455 S
C1638 H1652 0.960 . S
C1639 C1636 1.511 . S
C1639 H1653 0.961 . S
C1639 H1654 0.961 . S
C1639 H1655 0.961 . S
C1640 C1641 1.370 . S
C1640 C1642 1.363 . S
C1640 H1656 0.931 . S
C1641 C1640 1.370 . S
C1641 C1645 1.408 . S
C1642 C1640 1.363 . S
C1642 C1643 1.370 . S
C1642 C1646 1.524 . S
C1643 C1635 1.503 . S
C1643 C1642 1.370 . S
C1643 C1644 1.403 . S
C1644 C1643 1.403 . S
C1644 C1645 1.404 . S
C1644 C1647 1.539 . S
C1645 C1641 1.408 . S
C1645 C1644 1.404 . S
C1645 H1657 0.930 . S
C1646 C1642 1.524 . S
C1646 H1658 0.956 . S
C1646 H1659 0.961 . S
C1646 H1660 0.961 . S
C1647 C1644 1.539 . S
C1647 H1661 0.958 . S
C1647 H1662 0.961 . S
C1647 H1663 0.960 . S
H1648 C1632 0.931 . S
H1649 C1637 0.929 . S
H1650 C1638 0.960 . S
H1651 C1638 0.962 1_655 S
H1652 C1638 0.960 . S
H1653 C1639 0.961 . S
H1654 C1639 0.961 . S
H1655 C1639 0.961 . S
H1656 C1640 0.931 . S
H1657 C1645 0.930 . S
H1658 C1646 0.956 . S
H1659 C1646 0.961 . S
H1660 C1646 0.961 . S
H1661 C1647 0.958 . S
H1662 C1647 0.961 . S
H1663 C1647 0.960 . S
C1664 C1665 1.391 . S
C1664 C1666 1.394 . S
C1664 H1680 0.931 . S
C1665 C1664 1.391 . S
C1665 C1669 1.376 . S
C1666 C1664 1.394 . S
C1666 C1667 1.369 . S
C1666 C1670 1.531 . S
C1667 C1666 1.369 . S
C1667 C1668 1.410 . S
C1667 C1675 1.503 . S
C1668 C1667 1.410 . S
C1668 C1669 1.392 . S
C1668 C1671 1.511 . S
C1669 C1665 1.376 . S
C1669 C1668 1.392 . S
C1669 H1681 0.929 . S
C1670 C1666 1.531 . S
C1670 H1682 0.960 . S
C1670 H1683 0.962 . S
C1670 H1684 0.960 1_655 S
C1671 C1668 1.511 . S
C1671 H1685 0.961 . S
C1671 H1686 0.961 . S
C1671 H1687 0.961 . S
C1672 C1673 1.370 . S
C1672 C1674 1.363 . S
C1672 H1688 0.931 . S
C1673 C1672 1.370 . S
C1673 C1677 1.408 . S
C1674 C1672 1.363 . S
C1674 C1675 1.370 . S
C1674 C1678 1.524 . S
C1675 C1667 1.503 . S
C1675 C1674 1.370 . S
C1675 C1676 1.403 . S
C1676 C1675 1.403 . S
C1676 C1677 1.404 . S
C1676 C1679 1.539 . S
C1677 C1673 1.408 . S
C1677 C1676 1.404 . S
C1677 H1689 0.930 . S
C1678 C1674 1.524 . S
C1678 H1690 0.956 . S
C1678 H1691 0.961 . S
C1678 H1692 0.961 . S
C1679 C1676 1.539 . S
C1679 H1693 0.972 . S
C1679 H1694 0.961 . S
C1679 H1695 0.960 . S
H1680 C1664 0.931 . S
H1681 C1669 0.929 . S
H1682 C1670 0.960 . S
H1683 C1670 0.962 . S
H1684 C1670 0.960 1_455 S
H1685 C1671 0.961 . S
H1686 C1671 0.961 . S
H1687 C1671 0.961 . S
H1688 C1672 0.931 . S
H1689 C1677 0.930 . S
H1690 C1678 0.956 . S
H1691 C1678 0.961 . S
H1692 C1678 0.961 . S
H1693 C1679 0.972 . S
H1694 C1679 0.961 . S
H1695 C1679 0.960 . S
C1696 C1697 1.391 . S
C1696 C1698 1.394 . S
C1696 H1712 0.931 . S
C1697 C1696 1.391 . S
C1697 C1701 1.376 . S
C1698 C1696 1.394 . S
C1698 C1699 1.369 . S
C1698 C1702 1.531 . S
C1699 C1698 1.369 . S
C1699 C1700 1.410 . S
C1699 C1707 1.503 . S
C1700 C1699 1.410 . S
C1700 C1701 1.392 . S
C1700 C1703 1.511 . S
C1701 C1697 1.376 . S
C1701 C1700 1.392 . S
C1701 H1713 0.929 . S
C1702 C1698 1.531 . S
C1702 H1714 0.960 . S
C1702 H1715 0.962 . S
C1702 H1716 0.960 . S
C1703 C1700 1.511 . S
C1703 H1717 0.961 . S
C1703 H1718 0.961 . S
C1703 H1719 0.961 . S
C1704 C1705 1.370 . S
C1704 C1706 1.363 . S
C1704 H1720 0.931 . S
C1705 C1704 1.370 . S
C1705 C1709 1.408 . S
C1706 C1704 1.363 . S
C1706 C1707 1.370 . S
C1706 C1710 1.524 . S
C1707 C1699 1.503 . S
C1707 C1706 1.370 . S
C1707 C1708 1.403 . S
C1708 C1707 1.403 . S
C1708 C1709 1.404 . S
C1708 C1711 1.539 . S
C1709 C1705 1.408 . S
C1709 C1708 1.404 . S
C1709 H1721 0.930 . S
C1710 C1706 1.524 . S
C1710 H1722 0.956 . S
C1710 H1723 0.961 . S
C1710 H1724 0.961 . S
C1711 C1708 1.539 . S
C1711 H1725 0.958 . S
C1711 H1726 0.961 . S
C1711 H1727 0.960 . S
H1712 C1696 0.931 . S
H1713 C1701 0.929 . S
H1714 C1702 0.960 . S
H1715 C1702 0.962 . S
H1716 C1702 0.960 . S
H1717 C1703 0.961 . S
H1718 C1703 0.961 . S
H1719 C1703 0.961 . S
H1720 C1704 0.931 . S
H1721 C1709 0.930 . S
H1722 C1710 0.956 . S
H1723 C1710 0.961 . S
H1724 C1710 0.961 . S
H1725 C1711 0.958 . S
H1726 C1711 0.961 . S
H1727 C1711 0.960 . S
C1728 C1729 1.391 . S
C1728 C1730 1.394 . S
C1728 H1744 0.931 . S
C1729 C1728 1.391 . S
C1729 C1733 1.376 . S
C1730 C1728 1.394 . S
C1730 C1731 1.369 . S
C1730 C1734 1.531 . S
C1731 C1730 1.369 . S
C1731 C1732 1.410 . S
C1731 C1739 1.503 . S
C1732 C1731 1.410 . S
C1732 C1733 1.392 . S
C1732 C1735 1.511 . S
C1733 C1729 1.376 . S
C1733 C1732 1.392 . S
C1733 H1745 0.929 . S
C1734 C1730 1.531 . S
C1734 H1746 0.960 . S
C1734 H1747 0.962 . S
C1734 H1748 0.960 . S
C1735 C1732 1.511 . S
C1735 H1749 0.961 . S
C1735 H1750 0.961 . S
C1735 H1751 0.961 . S
C1736 C1737 1.370 . S
C1736 C1738 1.363 . S
C1736 H1752 0.931 . S
C1737 C1736 1.370 . S
C1737 C1741 1.408 . S
C1738 C1736 1.363 . S
C1738 C1739 1.370 . S
C1738 C1742 1.524 . S
C1739 C1731 1.503 . S
C1739 C1738 1.370 . S
C1739 C1740 1.403 . S
C1740 C1739 1.403 . S
C1740 C1741 1.404 . S
C1740 C1743 1.539 . S
C1741 C1737 1.408 . S
C1741 C1740 1.404 . S
C1741 H1753 0.930 . S
C1742 C1738 1.524 . S
C1742 H1754 0.956 . S
C1742 H1755 0.961 . S
C1742 H1756 0.961 . S
C1743 C1740 1.539 . S
C1743 H1757 0.958 . S
C1743 H1758 0.961 . S
C1743 H1759 0.960 . S
H1744 C1728 0.931 . S
H1745 C1733 0.929 . S
H1746 C1734 0.960 . S
H1747 C1734 0.962 . S
H1748 C1734 0.960 . S
H1749 C1735 0.961 . S
H1750 C1735 0.961 . S
H1751 C1735 0.961 . S
H1752 C1736 0.931 . S
H1753 C1741 0.930 . S
H1754 C1742 0.956 . S
H1755 C1742 0.961 . S
H1756 C1742 0.961 . S
H1757 C1743 0.958 . S
H1758 C1743 0.961 . S
H1759 C1743 0.960 . S
C1760 C1761 1.391 . S
C1760 C1762 1.394 . S
C1760 H1776 0.931 . S
C1761 C1760 1.391 . S
C1761 C1765 1.376 . S
C1762 C1760 1.394 . S
C1762 C1763 1.369 . S
C1762 C1766 1.531 . S
C1763 C1762 1.369 . S
C1763 C1764 1.410 . S
C1763 C1771 1.503 . S
C1764 C1763 1.410 . S
C1764 C1765 1.392 . S
C1764 C1767 1.511 . S
C1765 C1761 1.376 . S
C1765 C1764 1.392 . S
C1765 H1777 0.929 . S
C1766 C1762 1.531 . S
C1766 H1778 0.960 . S
C1766 H1779 0.962 . S
C1766 H1780 0.960 . S
C1767 C1764 1.511 . S
C1767 H1781 0.961 . S
C1767 H1782 0.961 . S
C1767 H1783 0.961 . S
C1768 C1769 1.370 . S
C1768 C1770 1.363 . S
C1768 H1784 0.931 . S
C1769 C1768 1.370 . S
C1769 C1773 1.408 . S
C1770 C1768 1.363 . S
C1770 C1771 1.370 . S
C1770 C1774 1.524 . S
C1771 C1763 1.503 . S
C1771 C1770 1.370 . S
C1771 C1772 1.403 . S
C1772 C1771 1.403 . S
C1772 C1773 1.404 . S
C1772 C1775 1.539 . S
C1773 C1769 1.408 . S
C1773 C1772 1.404 . S
C1773 H1785 0.930 . S
C1774 C1770 1.524 . S
C1774 H1786 0.956 . S
C1774 H1787 0.961 . S
C1774 H1788 0.961 . S
C1775 C1772 1.539 . S
C1775 H1789 0.958 . S
C1775 H1790 0.961 . S
C1775 H1791 0.960 . S
H1776 C1760 0.931 . S
H1777 C1765 0.929 . S
H1778 C1766 0.960 . S
H1779 C1766 0.962 . S
H1780 C1766 0.960 . S
H1781 C1767 0.961 . S
H1782 C1767 0.961 . S
H1783 C1767 0.961 . S
H1784 C1768 0.931 . S
H1785 C1773 0.930 . S
H1786 C1774 0.956 . S
H1787 C1774 0.961 . S
H1788 C1774 0.961 . S
H1789 C1775 0.958 . S
H1790 C1775 0.961 . S
H1791 C1775 0.960 . S
C1792 C1793 1.391 . S
C1792 C1794 1.394 . S
C1792 H1808 0.931 . S
C1793 C1792 1.391 . S
C1793 C1797 1.376 . S
C1794 C1792 1.394 . S
C1794 C1795 1.369 . S
C1794 C1798 1.531 . S
C1795 C1794 1.369 . S
C1795 C1796 1.410 . S
C1795 C1803 1.503 . S
C1796 C1795 1.410 . S
C1796 C1797 1.392 . S
C1796 C1799 1.511 . S
C1797 C1793 1.376 . S
C1797 C1796 1.392 . S
C1797 H1809 0.929 . S
C1798 C1794 1.531 . S
C1798 H1810 0.960 . S
C1798 H1811 0.962 . S
C1798 H1812 0.960 . S
C1799 C1796 1.511 . S
C1799 H1813 0.961 . S
C1799 H1814 0.961 . S
C1799 H1815 0.961 . S
C1800 C1801 1.370 . S
C1800 C1802 1.363 . S
C1800 H1816 0.931 . S
C1801 C1800 1.370 . S
C1801 C1805 1.408 . S
C1802 C1800 1.363 . S
C1802 C1803 1.370 . S
C1802 C1806 1.524 . S
C1803 C1795 1.503 . S
C1803 C1802 1.370 . S
C1803 C1804 1.403 . S
C1804 C1803 1.403 . S
C1804 C1805 1.404 . S
C1804 C1807 1.539 . S
C1805 C1801 1.408 . S
C1805 C1804 1.404 . S
C1805 H1817 0.930 . S
C1806 C1802 1.524 . S
C1806 H1818 0.956 . S
C1806 H1819 0.961 . S
C1806 H1820 0.961 . S
C1807 C1804 1.539 . S
C1807 H1821 0.958 . S
C1807 H1822 0.961 . S
C1807 H1823 0.960 . S
H1808 C1792 0.931 . S
H1809 C1797 0.929 . S
H1810 C1798 0.960 . S
H1811 C1798 0.962 . S
H1812 C1798 0.960 . S
H1813 C1799 0.961 . S
H1814 C1799 0.961 . S
H1815 C1799 0.961 . S
H1816 C1800 0.931 . S
H1817 C1805 0.930 . S
H1818 C1806 0.956 . S
H1819 C1806 0.961 . S
H1820 C1806 0.961 . S
H1821 C1807 0.958 . S
H1822 C1807 0.961 . S
H1823 C1807 0.960 . S
C545 C9 1.428 . S
C553 C485 1.466 . S
C577 C73 1.832 . S
C585 C5 1.827 . S
C609 C39 1.823 . S
C617 C379 1.831 . S
C641 C247 1.447 . S
C649 C43 1.453 . S
C673 C77 1.458 . S
C681 C417 1.454 . S
C705 C107 1.824 . S
C713 C311 1.831 . S
C737 C111 1.426 . S
C745 C179 1.462 . S
C769 C349 1.471 . S
C777 C145 1.443 . S
C801 C209 1.824 . S
C809 C141 1.831 . S
C833 C175 1.844 . S
C841 C515 1.824 . S
C865 C281 1.444 . S
C873 C213 1.460 . S
C897 C447 1.844 . S
C905 C243 1.824 . S
C929 C277 1.838 . S
C937 C345 1.827 . S
C961 C519 1.439 . S
C969 C315 1.462 . S
C993 C383 1.427 . S
C1001 C451 1.466 . S
C1025 C413 1.809 . S
C1033 C481 1.838 . S
C1057 C2 1.342 . S
C1065 C308 1.341 . S
C1089 C339 1.294 . S
C1097 C33 1.311 1_655 S
C1121 C67 1.302 . S
C1129 C305 1.305 . S
C1153 C36 1.326 1_655 S
C1161 C274 1.342 . S
C1185 C376 1.329 . S
C1193 C70 1.341 . S
C1217 C407 1.302 . S
C1225 C101 1.308 1_455 S
C1249 C135 1.299 . S
C1257 C373 1.306 . S
C1281 C104 1.344 1_455 S
C1289 C342 1.338 . S
C1313 C138 1.326 . S
C1321 C444 1.342 . S
C1345 C475 1.319 . S
C1353 C169 1.298 1_655 S
C1377 C203 1.306 . S
C1385 C441 1.303 . S
C1409 C410 1.344 . S
C1417 C172 1.340 1_655 S
C1441 C512 1.328 . S
C1449 C206 1.344 . S
C1473 C237 1.317 1_455 S
C1481 C543 1.299 . S
C1505 C271 1.286 . S
C1513 C509 1.312 . S
C1537 C240 1.344 1_455 S
C1545 C478 1.339 . S
C1569 C54 1.112 . S
C1577 C20 1.088 . S
C1601 C88 1.101 . S
C1609 C122 1.097 . S
C1633 C156 1.072 . S
C1641 C190 1.100 . S
C1665 C224 1.112 . S
C1673 C258 1.092 . S
C1697 C326 1.069 . S
C1705 C292 1.102 . S
C1729 C394 1.089 . S
C1737 C360 1.089 . S
C1761 C428 1.080 . S
C1769 C462 1.096 . S
C1793 C530 1.086 . S
C1801 C496 1.103 . S
