# Generated by pormake.
# Topology snp, (6)-cn, num edge types: 1
# Building blocks:
#     Node 0, Type 0, BuildingBlock: GEDQOX_clean_sbu_0, # of connection points: 6
#     Node 1, Type 0, BuildingBlock: GEDQOX_clean_sbu_0, # of connection points: 6
#     Node 2, Type 0, BuildingBlock: GEDQOX_clean_sbu_0, # of connection points: 6
#     Node 3, Type 0, BuildingBlock: GEDQOX_clean_sbu_0, # of connection points: 6
#     Edge 4, Type (0, 0), BuildingBlock: KIFKEQ_clean_linker_1, # of connection points: 2
#     Edge 5, Type (0, 0), BuildingBlock: KIFKEQ_clean_linker_1, # of connection points: 2
#     Edge 6, Type (0, 0), BuildingBlock: KIFKEQ_clean_linker_1, # of connection points: 2
#     Edge 7, Type (0, 0), BuildingBlock: KIFKEQ_clean_linker_1, # of connection points: 2
#     Edge 8, Type (0, 0), BuildingBlock: KIFKEQ_clean_linker_1, # of connection points: 2
#     Edge 9, Type (0, 0), BuildingBlock: KIFKEQ_clean_linker_1, # of connection points: 2
#     Edge 10, Type (0, 0), BuildingBlock: KIFKEQ_clean_linker_1, # of connection points: 2
#     Edge 11, Type (0, 0), BuildingBlock: KIFKEQ_clean_linker_1, # of connection points: 2
#     Edge 12, Type (0, 0), BuildingBlock: KIFKEQ_clean_linker_1, # of connection points: 2
#     Edge 13, Type (0, 0), BuildingBlock: KIFKEQ_clean_linker_1, # of connection points: 2
#     Edge 14, Type (0, 0), BuildingBlock: KIFKEQ_clean_linker_1, # of connection points: 2
#     Edge 15, Type (0, 0), BuildingBlock: KIFKEQ_clean_linker_1, # of connection points: 2
# Relax obj value: 0.198
# Max RMSD: 0.223
# Mean RMSD: 0.209
data_MOF--net-snp--node1-GEDQOX_clean_sbu_0--edge1-KIFKEQ_clean_linker_1
_symmetry_space_group_name_H-M    P1
_symmetry_Int_Tables_number       1
_symmetry_cell_setting            triclinic
loop_
_symmetry_equiv_pos_as_xyz
'x, y, z'
_cell_length_a     26.870587
_cell_length_b     25.731991
_cell_length_c     36.211776
_cell_angle_alpha  85.175923
_cell_angle_beta   103.28075
_cell_angle_gamma 95.997643
loop_
_atom_site_label
_atom_site_type_symbol
_atom_site_fract_x
_atom_site_fract_y
_atom_site_fract_z
_atom_type_partial_charge
Nd0 Nd 0.26866 0.96584 0.09695 0.0
Nd1 Nd 0.25487 0.07223 0.1297 0.0
C2 C 0.30121 0.89707 0.05997 0.0
C3 C 0.29108 0.8843 1.01973 0.0
C4 C 0.29576 0.92311 0.99064 0.0
C5 C 0.2812 0.91099 0.95245 0.0
C6 C 0.26115 0.86006 0.9427 0.0
C7 C 0.25781 0.82108 0.97187 0.0
C8 C 0.27285 0.83305 1.00998 0.0
C9 C 0.17254 0.97593 0.105 0.0
C10 C 0.23936 0.07333 0.03877 0.0
C11 C 0.22732 0.14333 0.16822 0.0
C12 C 0.21376 0.14529 0.20534 0.0
C13 C 0.19684 0.09974 0.22485 0.0
C14 C 0.18524 0.10243 0.26045 0.0
C15 C 0.18982 0.15082 0.277 0.0
C16 C 0.20637 0.19628 0.2571 0.0
C17 C 0.21835 0.19347 0.22173 0.0
C18 C 0.3522 0.05441 0.1257 0.0
C19 C 0.26816 0.96365 0.18584 0.0
O20 O 0.32727 0.94197 0.06911 0.0
O21 O 0.26247 0.88623 0.07649 0.0
O22 O 0.1908 0.93073 0.10649 0.0
O23 O 0.20255 0.0123 0.09451 0.0
O24 O 0.25395 0.02489 0.04373 0.0
O25 O 0.23424 0.09957 0.06731 0.0
O26 O 0.1949 0.11593 0.14286 0.0
O27 O 0.27522 0.1368 0.16907 0.0
O28 O 0.33539 0.10072 0.11862 0.0
O29 O 0.31918 0.0217 0.13571 0.0
O30 O 0.24964 0.00984 0.17782 0.0
O31 O 0.28539 0.93974 0.16081 0.0
H32 H 0.30934 0.96312 0.99725 0.0
H33 H 0.28377 0.94187 0.93054 0.0
H34 H 0.24292 0.7814 0.96515 0.0
H35 H 0.26891 0.80251 1.03188 0.0
H36 H 0.19259 0.06212 0.21261 0.0
H37 H 0.17215 0.06675 0.27481 0.0
H38 H 0.21095 0.23405 0.26918 0.0
H39 H 0.23143 0.22902 0.20721 0.0
Nd40 Nd 0.03126 0.21738 0.68538 0.0
Nd41 Nd 0.94816 0.2408 0.72719 0.0
C42 C 0.10821 0.20956 0.65238 0.0
C43 C 0.11528 0.20416 0.61353 0.0
C44 C 0.09137 0.23568 0.5822 0.0
C45 C 0.09829 0.22928 0.54568 0.0
C46 C 0.12881 0.1909 0.53963 0.0
C47 C 0.15239 0.15927 0.57107 0.0
C48 C 0.1458 0.16596 0.60758 0.0
C49 C 0.95335 0.14159 0.68609 0.0
C50 C 0.92403 0.25086 0.63305 0.0
C51 C 0.86991 0.24328 0.76008 0.0
C52 C 0.86302 0.23083 0.79924 0.0
C53 C 0.89982 0.2045 0.82606 0.0
C54 C 0.89406 0.19357 0.86341 0.0
C55 C 0.85131 0.20877 0.87487 0.0
C56 C 0.8143 0.2349 0.84775 0.0
C57 C 0.82021 0.24592 0.81031 0.0
C58 C 0.01825 0.32335 0.7154 0.0
C59 C 0.05475 0.20362 0.77878 0.0
O60 O 0.09482 0.25448 0.6598 0.0
O61 O 0.08453 0.16923 0.66762 0.0
O62 O 0.9752 0.15288 0.65767 0.0
O63 O 0.97577 0.16641 0.71477 0.0
O64 O 0.97399 0.25244 0.63544 0.0
O65 O 0.90414 0.24233 0.66364 0.0
O66 O 0.87624 0.20365 0.74174 0.0
O67 O 0.90148 0.28422 0.75537 0.0
O68 O 0.00048 0.31602 0.74608 0.0
O69 O -0.00287 0.28947 0.69273 0.0
O70 O 0.00526 0.20481 0.77671 0.0
O71 O 0.07476 0.21387 0.74851 0.0
H72 H 0.06712 0.26508 0.58584 0.0
H73 H 0.07908 0.25387 0.52206 0.0
H74 H 0.17656 0.12974 0.56753 0.0
H75 H 0.16455 0.14114 0.63127 0.0
H76 H 0.93306 0.1923 0.81811 0.0
H77 H 0.92288 0.17257 0.88321 0.0
H78 H 0.78115 0.24756 0.8556 0.0
H79 H 0.79147 0.26646 0.79005 0.0
Nd80 Nd 0.81879 0.94741 0.18015 0.0
Nd81 Nd 0.79342 0.04233 0.21962 0.0
C82 C 0.85641 0.88425 0.14116 0.0
C83 C 0.85743 0.87591 0.1012 0.0
C84 C 0.88858 0.90929 0.08127 0.0
C85 C 0.89106 0.89937 0.0443 0.0
C86 C 0.86255 0.85581 1.02626 0.0
C87 C 0.83109 0.82278 0.04617 0.0
C88 C 0.82876 0.83259 0.08317 0.0
C89 C 0.71675 0.96482 0.16736 0.0
C90 C 0.81844 0.06416 0.13605 0.0
C91 C 0.75198 0.10713 0.25441 0.0
C92 C 0.75964 0.12613 0.2931 0.0
C93 C 0.72685 0.1066 0.31721 0.0
C94 C 0.73403 0.12499 0.3536 0.0
C95 C 0.77389 0.16366 0.36651 0.0
C96 C 0.80635 0.18333 0.34221 0.0
C97 C 0.79925 0.16498 0.30601 0.0
C98 C 0.89546 0.0304 0.23113 0.0
C99 C 0.80696 0.92476 0.26707 0.0
O100 O 0.88219 0.92625 0.15615 0.0
O101 O 0.81267 0.87316 0.15144 0.0
O102 O 0.7323 0.91837 0.16968 0.0
O103 O 0.75368 -0.00097 0.16892 0.0
O104 O 0.83916 0.01907 0.14258 0.0
O105 O 0.78986 0.07839 0.15824 0.0
O106 O 0.73314 0.05846 0.24924 0.0
O107 O 0.78823 0.12186 0.23599 0.0
O108 O 0.87784 0.0757 0.23022 0.0
O109 O 0.86004 -0.00593 0.2297 0.0
O110 O 0.78792 0.97113 0.26392 0.0
O111 O 0.82674 0.9091 0.24007 0.0
H112 H 0.91162 0.9428 0.09434 0.0
H113 H 0.91629 0.9253 1.03021 0.0
H114 H 0.80797 0.78932 1.03312 0.0
H115 H 0.80467 0.80594 0.09781 0.0
H116 H 0.6956 0.07712 0.30794 0.0
H117 H 0.70807 0.10931 0.37147 0.0
H118 H 0.838 0.21242 0.35139 0.0
H119 H 0.82514 0.18127 0.28824 0.0
Nd120 Nd 0.07554 0.78489 0.57811 0.0
Nd121 Nd 0.98643 0.76652 0.61563 0.0
C122 C 0.15656 0.8164 0.54924 0.0
C123 C 0.16716 0.82474 0.51099 0.0
C124 C 0.12755 0.83355 0.47895 0.0
C125 C 0.13821 0.84159 0.44277 0.0
C126 C 0.18861 0.84055 0.43795 0.0
C127 C 0.22793 0.83056 0.4701 0.0
C128 C 0.21726 0.82281 0.50631 0.0
C129 C 0.04605 0.68118 0.59319 0.0
C130 C 0.96394 0.77073 0.52225 0.0
C131 C 0.90858 0.74726 0.64966 0.0
C132 C 0.90148 0.75811 0.68773 0.0
C133 C 0.89262 0.71665 0.7139 0.0
C134 C 0.88745 0.72658 0.75027 0.0
C135 C 0.89065 0.77827 0.76123 0.0
C136 C 0.89908 0.81973 0.73486 0.0
C137 C 0.90455 0.80983 0.69866 0.0
C138 C 0.01893 0.86985 0.60476 0.0
C139 C 0.09747 0.78358 0.67102 0.0
O140 O 0.12717 0.84856 0.55816 0.0
O141 O 0.14561 0.76786 0.56041 0.0
O142 O 0.06085 0.69831 0.56237 0.0
O143 O 0.04908 0.7176 0.6146 0.0
O144 O 0.01178 0.79049 0.52504 0.0
O145 O 0.94667 0.75174 0.55264 0.0
O146 O 0.93993 0.71207 0.6485 0.0
O147 O 0.91345 0.78784 0.62613 0.0
O148 O 0.01501 0.84671 0.63722 0.0
O149 O 0.01269 0.83622 0.58036 0.0
O150 O 0.05146 0.75875 0.66817 0.0
O151 O 0.11317 0.80406 0.64047 0.0
H152 H 0.08844 0.83446 0.48193 0.0
H153 H 0.10699 0.84859 0.41853 0.0
H154 H 0.2672 0.83009 0.4674 0.0
H155 H 0.24823 0.81569 0.53072 0.0
H156 H 0.88996 0.67647 0.70628 0.0
H157 H 0.88045 0.69373 0.76971 0.0
H158 H 0.90243 0.85998 0.74245 0.0
H159 H 0.91166 0.84289 0.6794 0.0
H160 H 0.96871 0.10678 0.21872 0.0
H161 H 0.93604 0.93897 0.22931 0.0
H162 H 0.04453 0.09541 0.19493 0.0
H163 H 0.00938 0.92739 0.20327 0.0
H164 H 0.15404 0.91692 0.16651 0.0
H165 H 0.09815 0.93396 0.20735 0.0
H166 H 0.05229 0.07103 0.13466 0.0
H167 H 0.11106 0.05539 0.0952 0.0
C168 C 0.97823 0.06748 0.2164 0.0
C169 C 0.94606 0.02368 0.22468 0.0
C170 C 0.02122 0.06097 0.20244 0.0
C171 C 0.03211 0.01061 0.19621 0.0
C172 C 0.00224 0.96676 0.20775 0.0
C173 C 0.95987 0.97331 0.2223 0.0
C174 C 0.13183 0.9506 0.15929 0.0
C175 C 0.13603 -0.01533 0.1276 0.0
C176 C 0.1 0.96045 0.18273 0.0
C177 C 0.07067 0.00373 0.17423 0.0
C178 C 0.07514 0.0379 0.14245 0.0
C179 C 0.10798 0.02862 0.11949 0.0
H180 H 0.059 0.96562 0.6256 0.0
H181 H 0.91983 0.87874 0.56972 0.0
H182 H 0.00829 0.02202 0.65001 0.0
H183 H 0.86878 0.93428 0.59549 0.0
H184 H 0.86523 0.12589 0.63354 0.0
H185 H 0.8608 0.04636 0.60101 0.0
H186 H 0.94991 0.97418 0.70324 0.0
H187 H 0.95664 0.05503 0.73494 0.0
C188 C 0.0175 0.96062 0.61673 0.0
C189 C -0.00676 0.91777 0.59642 0.0
C190 C -0.01146 -0.00844 0.63167 0.0
C191 C 0.93517 0.97973 0.6264 0.0
C192 C 0.91008 0.94258 0.60083 0.0
C193 C 0.93922 0.91196 0.58535 0.0
C194 C 0.88022 0.09161 0.65005 0.0
C195 C 0.91488 0.09711 0.68532 0.0
C196 C 0.87789 0.04609 0.63119 0.0
C197 C 0.90786 0.00605 0.64915 0.0
C198 C 0.92807 0.00589 0.68863 0.0
C199 C 0.93142 0.05204 0.70703 0.0
H200 H 0.63058 0.89892 0.14487 0.0
H201 H 0.68225 0.05926 0.17004 0.0
H202 H 0.54172 0.9212 0.12933 0.0
H203 H 0.59378 0.08117 0.15662 0.0
H204 H 0.43068 0.11643 0.10308 0.0
H205 H 0.5187 0.09399 0.10903 0.0
H206 H 0.47957 0.9417 0.16031 0.0
H207 H 0.39217 0.96321 0.15267 0.0
C208 C 0.62278 0.93877 0.14741 0.0
C209 C 0.66301 0.97728 0.15885 0.0
C210 C 0.57196 0.95162 0.13865 0.0
C211 C 0.56045 0.00305 0.14181 0.0
C212 C 0.60107 0.04147 0.15316 0.0
C213 C 0.65179 0.02877 0.16132 0.0
C214 C 0.44111 0.0781 0.11524 0.0
C215 C 0.40484 0.04167 0.1275 0.0
C216 C 0.49146 0.06526 0.1189 0.0
C217 C 0.50636 0.01598 0.13524 0.0
C218 C 0.46949 0.97956 0.14693 0.0
C219 C 0.41934 -0.00788 0.14287 0.0
H220 H 0.04511 0.41394 0.75269 0.0
H221 H 0.03927 0.347 0.64615 0.0
H222 H 0.06135 0.50122 0.72337 0.0
H223 H 0.05202 0.4335 0.61632 0.0
H224 H 0.09094 0.60001 0.5732 0.0
H225 H 0.09892 0.51352 0.60674 0.0
H226 H 0.00567 0.55441 0.68098 0.0
H227 H 0.00057 0.64067 0.64901 0.0
C228 C 0.04817 0.41787 0.72326 0.0
C229 C 0.03984 0.37405 0.70148 0.0
C230 C 0.05681 0.46777 0.70626 0.0
C231 C 0.05632 0.47452 0.66711 0.0
C232 C 0.05264 0.43003 0.64642 0.0
C233 C 0.04495 0.3803 0.66355 0.0
C234 C 0.07181 0.58991 0.59642 0.0
C235 C 0.04477 0.62657 0.60843 0.0
C236 C 0.07657 0.54063 0.61581 0.0
C237 C 0.05372 0.52723 0.64709 0.0
C238 C 0.02529 0.56374 0.65796 0.0
C239 C 0.02135 0.61291 0.6391 0.0
H240 H 0.127 0.09917 0.5056 0.0
H241 H 0.14773 0.26695 0.48573 0.0
H242 H 0.13939 0.08791 0.44218 0.0
H243 H 0.16127 0.25593 0.42271 0.0
H244 H 0.13602 0.22313 0.2986 0.0
H245 H 0.1196 0.23145 0.36113 0.0
H246 H 0.20139 0.09518 0.40436 0.0
H247 H 0.2167 0.08633 0.3414 0.0
C248 C 0.13465 0.13368 0.48779 0.0
C249 C 0.13625 0.18399 0.50078 0.0
C250 C 0.1419 0.12725 0.45138 0.0
C251 C 0.15132 0.17096 0.42701 0.0
C252 C 0.15309 0.22126 0.44018 0.0
C253 C 0.14544 0.22767 0.47645 0.0
C254 C 0.15058 0.195 0.32148 0.0
C255 C 0.17794 0.15425 0.31498 0.0
C256 C 0.14133 0.19985 0.35748 0.0
C257 C 0.15951 0.16432 0.38818 0.0
C258 C 0.18618 0.12298 0.38147 0.0
C259 C 0.19508 0.1179 0.34532 0.0
H260 H 0.92608 0.21553 0.94041 0.0
H261 H 0.76355 0.17524 0.90014 0.0
H262 H 0.91852 0.1894 1.00526 0.0
H263 H 0.75599 0.1493 0.96526 0.0
H264 H 0.75577 0.13565 0.09285 0.0
H265 H 0.76312 0.17836 1.03074 0.0
H266 H 0.90284 0.10497 0.0383 0.0
H267 H 0.8958 0.06325 0.0997 0.0
C268 C 0.88869 0.2011 0.94535 0.0
C269 C 0.84557 0.19686 0.91486 0.0
C270 C 0.88433 0.18628 0.9826 0.0
C271 C 0.83671 0.16685 0.99049 0.0
C272 C 0.79314 0.16461 0.96027 0.0
C273 C 0.79752 0.1794 0.92289 0.0
C274 C 0.78847 0.12959 0.08145 0.0
C275 C 0.82509 0.09601 0.10114 0.0
C276 C 0.79245 0.15359 0.04577 0.0
C277 C 0.83355 0.14504 1.02948 0.0
C278 C 0.87103 0.11302 0.05006 0.0
C279 C 0.86679 0.08878 0.08526 0.0
H280 H 0.8638 0.79517 0.50561 0.0
H281 H 0.98613 0.76427 0.45369 0.0
H282 H 0.81409 0.82551 0.4431 0.0
H283 H 0.93706 0.79402 0.39183 0.0
H284 H 0.83285 0.82407 0.28053 0.0
H285 H 0.85986 0.77658 0.34167 0.0
H286 H 0.82544 0.90476 0.39854 0.0
H287 H 0.79775 0.95248 0.33701 0.0
C288 C 0.87927 0.79319 0.4807 0.0
C289 C 0.92867 0.77697 0.48445 0.0
C290 C 0.85116 0.8112 0.44502 0.0
C291 C 0.8716 0.81237 0.41241 0.0
C292 C 0.91974 0.79314 0.41612 0.0
C293 C 0.94798 0.77606 0.45164 0.0
C294 C 0.83012 0.84195 0.30595 0.0
C295 C 0.81381 0.89257 0.30376 0.0
C296 C 0.84577 0.81465 0.34108 0.0
C297 C 0.84563 0.83712 0.3751 0.0
C298 C 0.82586 0.88616 0.37289 0.0
C299 C 0.8101 0.91363 0.33757 0.0
H300 H 0.09733 0.71989 0.73451 0.0
H301 H 0.1689 0.86502 0.69444 0.0
H302 H 0.14147 0.73645 0.79945 0.0
H303 H 0.21143 0.88333 0.75993 0.0
H304 H 0.30724 0.88428 0.88247 0.0
H305 H 0.27327 0.86324 0.8162 0.0
H306 H 0.13403 0.79054 0.84596 0.0
H307 H 0.16892 0.80973 0.91187 0.0
C308 C 0.12273 0.75537 0.73967 0.0
C309 C 0.12952 0.79129 0.70949 0.0
C310 C 0.14771 0.7652 0.77699 0.0
C311 C 0.1793 0.81183 0.78525 0.0
C312 C 0.18772 0.84685 0.75476 0.0
C313 C 0.16332 0.83647 0.7172 0.0
C314 C 0.26946 0.86366 0.87464 0.0
C315 C 0.24094 0.84808 0.90234 0.0
C316 C 0.24985 0.85176 0.83668 0.0
C317 C 0.20103 0.8246 0.82558 0.0
C318 C 0.17235 0.81003 0.85341 0.0
C319 C 0.1922 0.82126 0.89127 0.0
H320 H 0.86344 0.76004 0.99815 0.0
H321 H 0.87012 0.92557 0.96547 0.0
H322 H 0.86838 0.74123 0.93444 0.0
H323 H 0.87785 0.90689 0.90229 0.0
H324 H 0.83778 0.85319 0.78104 0.0
H325 H 0.83052 0.87163 0.84444 0.0
H326 H 0.92602 0.7469 0.89291 0.0
H327 H 0.93255 0.72806 0.82941 0.0
C328 C 0.86585 0.79251 0.9774 0.0
C329 C 0.86617 0.84439 0.98715 0.0
C330 C 0.86944 0.78171 0.94088 0.0
C331 C 0.87366 0.82246 0.91301 0.0
C332 C 0.87404 0.87436 0.92275 0.0
C333 C 0.87028 0.88516 0.95926 0.0
C334 C 0.85743 0.82986 0.80525 0.0
C335 C 0.88572 0.78908 0.80005 0.0
C336 C 0.85338 0.84052 0.8417 0.0
C337 C 0.87772 0.81087 0.87403 0.0
C338 C 0.90599 0.77004 0.86876 0.0
C339 C 0.90981 0.75922 0.83228 0.0
H340 H 0.27815 0.0149 0.24926 0.0
H341 H 0.25478 0.859 0.20898 0.0
H342 H 0.25977 0.98054 0.30954 0.0
H343 H 0.23638 0.82402 0.27041 0.0
H344 H 0.25127 0.79091 0.40462 0.0
H345 H 0.27534 0.81585 0.3437 0.0
H346 H 0.17663 0.94205 0.32469 0.0
H347 H 0.15338 0.91795 0.38535 0.0
C348 C 0.26973 0.973 0.25352 0.0
C349 C 0.26736 0.93964 0.22424 0.0
C350 C 0.25894 0.95339 0.28805 0.0
C351 C 0.24555 0.89979 0.29438 0.0
C352 C 0.24646 0.8656 0.26616 0.0
C353 C 0.25725 0.88547 0.23118 0.0
C354 C 0.23471 0.8239 0.38731 0.0
C355 C 0.2006 0.85263 0.39988 0.0
C356 C 0.24816 0.83783 0.35237 0.0
C357 C 0.22825 0.88114 0.32968 0.0
C358 C 0.1931 0.90884 0.34182 0.0
C359 C 0.1794 0.89474 0.37643 0.0
H360 H 0.15145 0.16921 0.7939 0.0
H361 H 0.03285 0.20437 0.84846 0.0
H362 H 0.20318 0.14071 0.85602 0.0
H363 H 0.08416 0.17619 0.90988 0.0
H364 H 0.20492 0.17 1.01777 0.0
H365 H 0.1664 0.20475 0.95434 0.0
H366 H 0.19636 0.06596 0.90687 0.0
H367 H 0.23526 0.03068 0.97068 0.0
C368 C 0.13662 0.17129 0.81909 0.0
C369 C 0.08798 0.18902 0.81619 0.0
C370 C 0.16608 0.15469 0.85457 0.0
C371 C 0.14782 0.15639 0.88784 0.0
C372 C 0.09963 0.17499 0.88487 0.0
C373 C 0.07003 0.19085 0.84955 0.0
C374 C 0.20401 0.14693 0.99391 0.0
C375 C 0.22272 0.09712 0.99954 0.0
C376 C 0.1817 0.1669 0.9575 0.0
C377 C 0.17771 0.13782 0.92566 0.0
C378 C 0.199 0.08934 0.93087 0.0
C379 C 0.22114 0.06908 0.96748 0.0
H380 H 0.79973 0.2642 0.38807 0.0
H381 H 0.76892 0.10634 0.43324 0.0
H382 H 0.82584 0.29374 0.45249 0.0
H383 H 0.79455 0.13613 0.4977 0.0
H384 H 0.82408 0.20956 0.61099 0.0
H385 H 0.77734 0.19344 0.54582 0.0
H386 H 0.90254 0.27681 0.50301 0.0
H387 H 0.94897 0.29251 0.56756 0.0
C388 C 0.79816 0.23584 0.41172 0.0
C389 C 0.78302 0.18271 0.40546 0.0
C390 C 0.81291 0.25285 0.44862 0.0
C391 C 0.81264 0.21724 0.4802 0.0
C392 C 0.79467 0.16467 0.47395 0.0
C393 C 0.78005 0.14757 0.43698 0.0
C394 C 0.84092 0.22555 0.58756 0.0
C395 C 0.89041 0.25185 0.59442 0.0
C396 C 0.81437 0.21595 0.5503 0.0
C397 C 0.83643 0.23346 0.51928 0.0
C398 C 0.88424 0.26309 0.52617 0.0
C399 C 0.91097 0.27197 0.56326 0.0
loop_
_geom_bond_atom_site_label_1
_geom_bond_atom_site_label_2
_geom_bond_distance
_geom_bond_site_symmetry_2
_ccdc_geom_bond_type
Nd0 C2 2.836 1_554 S
Nd0 O20 2.500 . S
Nd0 O21 2.492 . S
Nd0 O22 2.487 . S
Nd0 O23 2.682 1_565 S
Nd0 O24 2.410 1_565 S
Nd0 O29 2.414 1_565 S
Nd0 O31 2.424 . S
Nd1 C11 2.836 . S
Nd1 O23 2.414 . S
Nd1 O25 2.424 . S
Nd1 O26 2.500 . S
Nd1 O27 2.492 . S
Nd1 O28 2.487 . S
Nd1 O29 2.682 . S
Nd1 O30 2.410 . S
C2 Nd0 2.836 1_556 S
C2 C3 1.498 . S
C2 O20 1.258 1_556 S
C2 O21 1.239 1_556 S
C3 C2 1.498 . S
C3 C4 1.366 . S
C3 C8 1.407 . S
C4 C3 1.366 . S
C4 C5 1.392 . S
C4 H32 0.930 . S
C5 C4 1.392 . S
C5 C6 1.398 . S
C5 H33 0.929 . S
C6 C5 1.398 . S
C6 C7 1.352 . S
C7 C6 1.352 . S
C7 C8 1.384 . S
C7 H34 0.930 . S
C8 C3 1.407 . S
C8 C7 1.384 . S
C8 H35 0.929 . S
C9 O22 1.241 1_545 S
C9 O23 1.273 . S
C10 O24 1.251 . S
C10 O25 1.268 . S
C11 Nd1 2.836 . S
C11 C12 1.498 . S
C11 O26 1.258 . S
C11 O27 1.239 . S
C12 C11 1.498 . S
C12 C13 1.366 . S
C12 C17 1.407 . S
C13 C12 1.366 . S
C13 C14 1.392 . S
C13 H36 0.930 . S
C14 C13 1.392 . S
C14 C15 1.398 . S
C14 H37 0.929 . S
C15 C14 1.398 . S
C15 C16 1.352 . S
C16 C15 1.352 . S
C16 C17 1.384 . S
C16 H38 0.930 . S
C17 C12 1.407 . S
C17 C16 1.384 . S
C17 H39 0.929 . S
C18 O28 1.241 . S
C18 O29 1.273 . S
C19 O30 1.251 1_565 S
C19 O31 1.268 . S
O20 Nd0 2.500 . S
O20 C2 1.258 1_554 S
O21 Nd0 2.492 . S
O21 C2 1.239 1_554 S
O22 Nd0 2.487 . S
O22 C9 1.241 1_565 S
O23 Nd0 2.682 1_545 S
O23 Nd1 2.414 . S
O23 C9 1.273 . S
O24 Nd0 2.410 1_545 S
O24 C10 1.251 . S
O25 Nd1 2.424 . S
O25 C10 1.268 . S
O26 Nd1 2.500 . S
O26 C11 1.258 . S
O27 Nd1 2.492 . S
O27 C11 1.239 . S
O28 Nd1 2.487 . S
O28 C18 1.241 . S
O29 Nd0 2.414 1_545 S
O29 Nd1 2.682 . S
O29 C18 1.273 . S
O30 Nd1 2.410 . S
O30 C19 1.251 1_545 S
O31 Nd0 2.424 . S
O31 C19 1.268 . S
H32 C4 0.930 . S
H33 C5 0.929 . S
H34 C7 0.930 . S
H35 C8 0.929 . S
H36 C13 0.930 . S
H37 C14 0.929 . S
H38 C16 0.930 . S
H39 C17 0.929 . S
Nd40 C42 2.836 . S
Nd40 O60 2.500 . S
Nd40 O61 2.492 . S
Nd40 O62 2.487 . S
Nd40 O63 2.682 . S
Nd40 O64 2.410 . S
Nd40 O69 2.414 . S
Nd40 O71 2.424 . S
Nd41 C51 2.836 . S
Nd41 O63 2.414 1_655 S
Nd41 O65 2.424 . S
Nd41 O66 2.500 . S
Nd41 O67 2.492 . S
Nd41 O68 2.487 1_655 S
Nd41 O69 2.682 1_655 S
Nd41 O70 2.410 1_655 S
C42 Nd40 2.836 . S
C42 C43 1.498 . S
C42 O60 1.258 . S
C42 O61 1.239 . S
C43 C42 1.498 . S
C43 C44 1.366 . S
C43 C48 1.407 . S
C44 C43 1.366 . S
C44 C45 1.392 . S
C44 H72 0.930 . S
C45 C44 1.392 . S
C45 C46 1.398 . S
C45 H73 0.929 . S
C46 C45 1.398 . S
C46 C47 1.352 . S
C47 C46 1.352 . S
C47 C48 1.384 . S
C47 H74 0.930 . S
C48 C43 1.407 . S
C48 C47 1.384 . S
C48 H75 0.929 . S
C49 O62 1.241 . S
C49 O63 1.273 . S
C50 O64 1.251 . S
C50 O65 1.268 1_455 S
C51 Nd41 2.836 . S
C51 C52 1.498 . S
C51 O66 1.258 . S
C51 O67 1.239 . S
C52 C51 1.498 . S
C52 C53 1.366 . S
C52 C57 1.407 . S
C53 C52 1.366 . S
C53 C54 1.392 . S
C53 H76 0.930 . S
C54 C53 1.392 . S
C54 C55 1.398 . S
C54 H77 0.929 . S
C55 C54 1.398 . S
C55 C56 1.352 . S
C56 C55 1.352 . S
C56 C57 1.384 . S
C56 H78 0.930 . S
C57 C52 1.407 . S
C57 C56 1.384 . S
C57 H79 0.929 . S
C58 O68 1.241 . S
C58 O69 1.273 . S
C59 O70 1.251 . S
C59 O71 1.268 . S
O60 Nd40 2.500 . S
O60 C42 1.258 . S
O61 Nd40 2.492 . S
O61 C42 1.239 . S
O62 Nd40 2.487 . S
O62 C49 1.241 . S
O63 Nd40 2.682 . S
O63 Nd41 2.414 1_455 S
O63 C49 1.273 . S
O64 Nd40 2.410 . S
O64 C50 1.251 . S
O65 Nd41 2.424 . S
O65 C50 1.268 1_655 S
O66 Nd41 2.500 . S
O66 C51 1.258 . S
O67 Nd41 2.492 . S
O67 C51 1.239 . S
O68 Nd41 2.487 1_455 S
O68 C58 1.241 . S
O69 Nd40 2.414 . S
O69 Nd41 2.682 1_455 S
O69 C58 1.273 . S
O70 Nd41 2.410 1_455 S
O70 C59 1.251 . S
O71 Nd40 2.424 . S
O71 C59 1.268 . S
H72 C44 0.930 . S
H73 C45 0.929 . S
H74 C47 0.930 . S
H75 C48 0.929 . S
H76 C53 0.930 . S
H77 C54 0.929 . S
H78 C56 0.930 . S
H79 C57 0.929 . S
Nd80 C82 2.836 . S
Nd80 O100 2.500 . S
Nd80 O101 2.492 . S
Nd80 O102 2.487 . S
Nd80 O103 2.682 1_565 S
Nd80 O104 2.410 1_565 S
Nd80 O109 2.414 1_565 S
Nd80 O111 2.424 . S
Nd81 C91 2.836 . S
Nd81 O103 2.414 . S
Nd81 O105 2.424 . S
Nd81 O106 2.500 . S
Nd81 O107 2.492 . S
Nd81 O108 2.487 . S
Nd81 O109 2.682 . S
Nd81 O110 2.410 1_545 S
C82 Nd80 2.836 . S
C82 C83 1.498 . S
C82 O100 1.258 . S
C82 O101 1.239 . S
C83 C82 1.498 . S
C83 C84 1.366 . S
C83 C88 1.407 1_554 S
C84 C83 1.366 . S
C84 C85 1.392 1_554 S
C84 H112 0.930 . S
C85 C84 1.392 1_556 S
C85 C86 1.398 . S
C85 H113 0.929 . S
C86 C85 1.398 . S
C86 C87 1.352 . S
C87 C86 1.352 . S
C87 C88 1.384 . S
C87 H114 0.930 . S
C88 C83 1.407 1_556 S
C88 C87 1.384 . S
C88 H115 0.929 1_556 S
C89 O102 1.241 . S
C89 O103 1.273 1_565 S
C90 O104 1.251 . S
C90 O105 1.268 . S
C91 Nd81 2.836 . S
C91 C92 1.498 . S
C91 O106 1.258 . S
C91 O107 1.239 . S
C92 C91 1.498 . S
C92 C93 1.366 . S
C92 C97 1.407 . S
C93 C92 1.366 . S
C93 C94 1.392 . S
C93 H116 0.930 . S
C94 C93 1.392 . S
C94 C95 1.398 . S
C94 H117 0.929 . S
C95 C94 1.398 . S
C95 C96 1.352 . S
C96 C95 1.352 . S
C96 C97 1.384 . S
C96 H118 0.930 . S
C97 C92 1.407 . S
C97 C96 1.384 . S
C97 H119 0.929 . S
C98 O108 1.241 . S
C98 O109 1.273 . S
C99 O110 1.251 . S
C99 O111 1.268 . S
O100 Nd80 2.500 . S
O100 C82 1.258 . S
O101 Nd80 2.492 . S
O101 C82 1.239 . S
O102 Nd80 2.487 . S
O102 C89 1.241 . S
O103 Nd80 2.682 1_545 S
O103 Nd81 2.414 . S
O103 C89 1.273 1_545 S
O104 Nd80 2.410 1_545 S
O104 C90 1.251 . S
O105 Nd81 2.424 . S
O105 C90 1.268 . S
O106 Nd81 2.500 . S
O106 C91 1.258 . S
O107 Nd81 2.492 . S
O107 C91 1.239 . S
O108 Nd81 2.487 . S
O108 C98 1.241 . S
O109 Nd80 2.414 1_545 S
O109 Nd81 2.682 . S
O109 C98 1.273 . S
O110 Nd81 2.410 1_565 S
O110 C99 1.251 . S
O111 Nd80 2.424 . S
O111 C99 1.268 . S
H112 C84 0.930 . S
H113 C85 0.929 . S
H114 C87 0.930 . S
H115 C88 0.929 1_554 S
H116 C93 0.930 . S
H117 C94 0.929 . S
H118 C96 0.930 . S
H119 C97 0.929 . S
Nd120 C122 2.836 . S
Nd120 O140 2.500 . S
Nd120 O141 2.492 . S
Nd120 O142 2.487 . S
Nd120 O143 2.682 1_455 S
Nd120 O144 2.410 1_455 S
Nd120 O149 2.414 . S
Nd120 O151 2.424 . S
Nd121 C131 2.836 . S
Nd121 O143 2.414 . S
Nd121 O145 2.424 . S
Nd121 O146 2.500 . S
Nd121 O147 2.492 . S
Nd121 O148 2.487 . S
Nd121 O149 2.682 1_655 S
Nd121 O150 2.410 1_655 S
C122 Nd120 2.836 . S
C122 C123 1.498 . S
C122 O140 1.258 . S
C122 O141 1.239 . S
C123 C122 1.498 . S
C123 C124 1.366 . S
C123 C128 1.407 . S
C124 C123 1.366 . S
C124 C125 1.392 . S
C124 H152 0.930 . S
C125 C124 1.392 . S
C125 C126 1.398 . S
C125 H153 0.929 . S
C126 C125 1.398 . S
C126 C127 1.352 . S
C127 C126 1.352 . S
C127 C128 1.384 . S
C127 H154 0.930 . S
C128 C123 1.407 . S
C128 C127 1.384 . S
C128 H155 0.929 . S
C129 O142 1.241 . S
C129 O143 1.273 1_455 S
C130 O144 1.251 . S
C130 O145 1.268 . S
C131 Nd121 2.836 . S
C131 C132 1.498 . S
C131 O146 1.258 . S
C131 O147 1.239 . S
C132 C131 1.498 . S
C132 C133 1.366 . S
C132 C137 1.407 . S
C133 C132 1.366 . S
C133 C134 1.392 . S
C133 H156 0.930 . S
C134 C133 1.392 . S
C134 C135 1.398 . S
C134 H157 0.929 . S
C135 C134 1.398 . S
C135 C136 1.352 . S
C136 C135 1.352 . S
C136 C137 1.384 . S
C136 H158 0.930 . S
C137 C132 1.407 . S
C137 C136 1.384 . S
C137 H159 0.929 . S
C138 O148 1.241 . S
C138 O149 1.273 1_655 S
C139 O150 1.251 . S
C139 O151 1.268 . S
O140 Nd120 2.500 . S
O140 C122 1.258 . S
O141 Nd120 2.492 . S
O141 C122 1.239 . S
O142 Nd120 2.487 . S
O142 C129 1.241 . S
O143 Nd120 2.682 1_655 S
O143 Nd121 2.414 . S
O143 C129 1.273 1_655 S
O144 Nd120 2.410 1_655 S
O144 C130 1.251 . S
O145 Nd121 2.424 . S
O145 C130 1.268 . S
O146 Nd121 2.500 . S
O146 C131 1.258 . S
O147 Nd121 2.492 . S
O147 C131 1.239 . S
O148 Nd121 2.487 . S
O148 C138 1.241 . S
O149 Nd120 2.414 . S
O149 Nd121 2.682 1_455 S
O149 C138 1.273 1_455 S
O150 Nd121 2.410 1_455 S
O150 C139 1.251 . S
O151 Nd120 2.424 . S
O151 C139 1.268 . S
H152 C124 0.930 . S
H153 C125 0.929 . S
H154 C127 0.930 . S
H155 C128 0.929 . S
H156 C133 0.930 . S
H157 C134 0.929 . S
H158 C136 0.930 . S
H159 C137 0.929 . S
H160 C168 0.950 . S
H161 C173 0.950 . S
H162 C170 0.950 . S
H163 C172 0.950 . S
H164 C174 0.945 1_565 S
H165 C176 0.950 . S
H166 C178 0.950 . S
H167 C179 0.950 . S
C168 H160 0.950 . S
C168 C169 1.386 . S
C168 C170 1.391 . S
C169 C168 1.386 . S
C169 C173 1.393 1_545 S
C170 H162 0.950 . S
C170 C168 1.391 . S
C170 C171 1.400 1_655 S
C171 C170 1.400 1_455 S
C171 C172 1.398 1_545 S
C171 C177 1.491 . S
C172 H163 0.950 . S
C172 C171 1.398 1_565 S
C172 C173 1.391 1_455 S
C173 H161 0.950 . S
C173 C169 1.393 1_565 S
C173 C172 1.391 1_655 S
C174 H164 0.945 1_545 S
C174 C175 1.390 . S
C174 C176 1.392 1_545 S
C175 C174 1.390 . S
C175 C179 1.393 . S
C176 H165 0.950 . S
C176 C174 1.392 1_565 S
C176 C177 1.400 1_565 S
C177 C171 1.491 . S
C177 C176 1.400 1_545 S
C177 C178 1.398 . S
C178 H166 0.950 . S
C178 C177 1.398 . S
C178 C179 1.391 . S
C179 H167 0.950 . S
C179 C175 1.393 . S
C179 C178 1.391 . S
H180 C188 0.950 . S
H181 C193 0.950 . S
H182 C190 0.950 1_545 S
H183 C192 0.950 . S
H184 C194 0.950 1_655 S
H185 C196 0.950 1_655 S
H186 C198 0.950 . S
H187 C199 0.950 . S
C188 H180 0.950 . S
C188 C189 1.386 1_455 S
C188 C190 1.391 . S
C189 C188 1.386 1_655 S
C189 C193 1.393 . S
C190 H182 0.950 1_565 S
C190 C188 1.391 . S
C190 C191 1.396 1_565 S
C191 C190 1.396 1_545 S
C191 C192 1.389 1_445 S
C191 C197 1.503 . S
C192 H183 0.950 . S
C192 C191 1.389 1_665 S
C192 C193 1.391 . S
C193 H181 0.950 . S
C193 C189 1.393 . S
C193 C192 1.391 . S
C194 H184 0.950 1_455 S
C194 C195 1.386 . S
C194 C196 1.391 . S
C195 C194 1.386 . S
C195 C199 1.393 . S
C196 H185 0.950 1_455 S
C196 C194 1.391 . S
C196 C197 1.400 . S
C197 C191 1.503 . S
C197 C196 1.400 . S
C197 C198 1.398 . S
C198 H186 0.950 . S
C198 C197 1.398 . S
C198 C199 1.391 . S
C199 H187 0.950 . S
C199 C195 1.393 . S
C199 C198 1.391 . S
H200 C208 0.950 . S
H201 C213 0.950 . S
H202 C210 0.950 . S
H203 C212 0.950 . S
H204 C214 0.950 . S
H205 C216 0.950 . S
H206 C218 0.950 . S
H207 C219 0.950 . S
C208 H200 0.950 . S
C208 C209 1.386 1_565 S
C208 C210 1.391 . S
C209 C208 1.386 1_545 S
C209 C213 1.393 . S
C210 H202 0.950 . S
C210 C208 1.391 . S
C210 C211 1.400 1_565 S
C211 C210 1.400 1_545 S
C211 C212 1.398 . S
C211 C217 1.491 . S
C212 H203 0.950 . S
C212 C211 1.398 . S
C212 C213 1.391 . S
C213 H201 0.950 . S
C213 C209 1.393 . S
C213 C212 1.391 . S
C214 H204 0.950 . S
C214 C215 1.386 . S
C214 C216 1.391 . S
C215 C214 1.386 . S
C215 C219 1.393 1_545 S
C216 H205 0.950 . S
C216 C214 1.391 . S
C216 C217 1.400 . S
C217 C211 1.491 . S
C217 C216 1.400 . S
C217 C218 1.398 1_545 S
C218 H206 0.950 . S
C218 C217 1.398 1_565 S
C218 C219 1.391 . S
C219 H207 0.950 . S
C219 C215 1.393 1_565 S
C219 C218 1.391 . S
H220 C228 0.950 . S
H221 C233 0.950 1_655 S
H222 C230 0.950 . S
H223 C232 0.950 1_655 S
H224 C234 0.950 . S
H225 C236 0.950 . S
H226 C238 0.950 . S
H227 C239 0.950 . S
C228 H220 0.950 . S
C228 C229 1.386 . S
C228 C230 1.391 . S
C229 C228 1.386 . S
C229 C233 1.393 . S
C230 H222 0.950 . S
C230 C228 1.391 . S
C230 C231 1.400 . S
C231 C230 1.400 . S
C231 C232 1.398 . S
C231 C237 1.491 . S
C232 H223 0.950 1_455 S
C232 C231 1.398 . S
C232 C233 1.391 . S
C233 H221 0.950 1_455 S
C233 C229 1.393 . S
C233 C232 1.391 . S
C234 H224 0.950 . S
C234 C235 1.382 1_655 S
C234 C236 1.391 . S
C235 C234 1.382 1_455 S
C235 C239 1.399 . S
C236 H225 0.950 . S
C236 C234 1.391 . S
C236 C237 1.400 1_655 S
C237 C231 1.491 . S
C237 C236 1.400 1_455 S
C237 C238 1.398 . S
C238 H226 0.950 . S
C238 C237 1.398 . S
C238 C239 1.391 . S
C239 H227 0.950 . S
C239 C235 1.399 . S
C239 C238 1.391 . S
H240 C248 0.950 . S
H241 C253 0.950 . S
H242 C250 0.950 . S
H243 C252 0.950 . S
H244 C254 0.950 . S
H245 C256 0.950 . S
H246 C258 0.950 . S
H247 C259 0.950 . S
C248 H240 0.950 . S
C248 C249 1.386 . S
C248 C250 1.391 . S
C249 C248 1.386 . S
C249 C253 1.393 . S
C250 H242 0.950 . S
C250 C248 1.391 . S
C250 C251 1.400 . S
C251 C250 1.400 . S
C251 C252 1.398 . S
C251 C257 1.491 . S
C252 H243 0.950 . S
C252 C251 1.398 . S
C252 C253 1.391 . S
C253 H241 0.950 . S
C253 C249 1.393 . S
C253 C252 1.391 . S
C254 H244 0.950 . S
C254 C255 1.386 . S
C254 C256 1.391 . S
C255 C254 1.386 . S
C255 C259 1.393 . S
C256 H245 0.950 . S
C256 C254 1.391 . S
C256 C257 1.400 . S
C257 C251 1.491 . S
C257 C256 1.400 . S
C257 C258 1.398 . S
C258 H246 0.950 . S
C258 C257 1.398 . S
C258 C259 1.391 . S
C259 H247 0.950 . S
C259 C255 1.393 . S
C259 C258 1.391 . S
H260 C268 0.950 . S
H261 C273 0.950 . S
H262 C270 0.950 . S
H263 C272 0.950 . S
H264 C274 0.950 . S
H265 C276 0.950 . S
H266 C278 0.950 1_556 S
H267 C279 0.950 . S
C268 H260 0.950 . S
C268 C269 1.386 . S
C268 C270 1.391 . S
C269 C268 1.386 . S
C269 C273 1.393 . S
C270 H262 0.950 . S
C270 C268 1.391 . S
C270 C271 1.400 . S
C271 C270 1.400 . S
C271 C272 1.398 . S
C271 C277 1.491 . S
C272 H263 0.950 . S
C272 C271 1.398 . S
C272 C273 1.391 . S
C273 H261 0.950 . S
C273 C269 1.393 . S
C273 C272 1.391 . S
C274 H264 0.950 . S
C274 C275 1.386 . S
C274 C276 1.391 1_554 S
C275 C274 1.386 . S
C275 C279 1.393 . S
C276 H265 0.950 . S
C276 C274 1.391 1_556 S
C276 C277 1.400 . S
C277 C271 1.491 . S
C277 C276 1.400 . S
C277 C278 1.398 1_556 S
C278 H266 0.950 1_554 S
C278 C277 1.398 1_554 S
C278 C279 1.391 . S
C279 H267 0.950 . S
C279 C275 1.393 . S
C279 C278 1.391 . S
H280 C288 0.950 . S
H281 C293 0.950 . S
H282 C290 0.950 . S
H283 C292 0.950 . S
H284 C294 0.950 . S
H285 C296 0.950 . S
H286 C298 0.950 . S
H287 C299 0.950 . S
C288 H280 0.950 . S
C288 C289 1.386 . S
C288 C290 1.391 . S
C289 C288 1.386 . S
C289 C293 1.393 . S
C290 H282 0.950 . S
C290 C288 1.391 . S
C290 C291 1.400 . S
C291 C290 1.400 . S
C291 C292 1.398 . S
C291 C297 1.491 . S
C292 H283 0.950 . S
C292 C291 1.398 . S
C292 C293 1.391 . S
C293 H281 0.950 . S
C293 C289 1.393 . S
C293 C292 1.391 . S
C294 H284 0.950 . S
C294 C295 1.386 . S
C294 C296 1.391 . S
C295 C294 1.386 . S
C295 C299 1.393 . S
C296 H285 0.950 . S
C296 C294 1.391 . S
C296 C297 1.400 . S
C297 C291 1.491 . S
C297 C296 1.400 . S
C297 C298 1.398 . S
C298 H286 0.950 . S
C298 C297 1.398 . S
C298 C299 1.391 . S
C299 H287 0.950 . S
C299 C295 1.393 . S
C299 C298 1.391 . S
H300 C308 0.950 . S
H301 C313 0.950 . S
H302 C310 0.950 . S
H303 C312 0.950 . S
H304 C314 0.950 . S
H305 C316 0.950 . S
H306 C318 0.950 . S
H307 C319 0.950 . S
C308 H300 0.950 . S
C308 C309 1.386 . S
C308 C310 1.391 . S
C309 C308 1.386 . S
C309 C313 1.393 . S
C310 H302 0.950 . S
C310 C308 1.391 . S
C310 C311 1.400 . S
C311 C310 1.400 . S
C311 C312 1.398 . S
C311 C317 1.491 . S
C312 H303 0.950 . S
C312 C311 1.398 . S
C312 C313 1.391 . S
C313 H301 0.950 . S
C313 C309 1.393 . S
C313 C312 1.391 . S
C314 H304 0.950 . S
C314 C315 1.386 . S
C314 C316 1.391 . S
C315 C314 1.386 . S
C315 C319 1.393 . S
C316 H305 0.950 . S
C316 C314 1.391 . S
C316 C317 1.400 . S
C317 C311 1.491 . S
C317 C316 1.400 . S
C317 C318 1.398 . S
C318 H306 0.950 . S
C318 C317 1.398 . S
C318 C319 1.391 . S
C319 H307 0.950 . S
C319 C315 1.393 . S
C319 C318 1.391 . S
H320 C328 0.950 . S
H321 C333 0.950 . S
H322 C330 0.950 . S
H323 C332 0.950 . S
H324 C334 0.950 . S
H325 C336 0.950 . S
H326 C338 0.950 . S
H327 C339 0.950 . S
C328 H320 0.950 . S
C328 C329 1.386 . S
C328 C330 1.391 . S
C329 C328 1.386 . S
C329 C333 1.393 . S
C330 H322 0.950 . S
C330 C328 1.391 . S
C330 C331 1.400 . S
C331 C330 1.400 . S
C331 C332 1.398 . S
C331 C337 1.491 . S
C332 H323 0.950 . S
C332 C331 1.398 . S
C332 C333 1.391 . S
C333 H321 0.950 . S
C333 C329 1.393 . S
C333 C332 1.391 . S
C334 H324 0.950 . S
C334 C335 1.386 . S
C334 C336 1.391 . S
C335 C334 1.386 . S
C335 C339 1.393 . S
C336 H325 0.950 . S
C336 C334 1.391 . S
C336 C337 1.400 . S
C337 C331 1.491 . S
C337 C336 1.400 . S
C337 C338 1.398 . S
C338 H326 0.950 . S
C338 C337 1.398 . S
C338 C339 1.391 . S
C339 H327 0.950 . S
C339 C335 1.393 . S
C339 C338 1.391 . S
H340 C348 0.950 . S
H341 C353 0.950 . S
H342 C350 0.950 . S
H343 C352 0.950 . S
H344 C354 0.950 . S
H345 C356 0.950 . S
H346 C358 0.950 . S
H347 C359 0.950 . S
C348 H340 0.950 . S
C348 C349 1.386 . S
C348 C350 1.391 . S
C349 C348 1.386 . S
C349 C353 1.393 . S
C350 H342 0.950 . S
C350 C348 1.391 . S
C350 C351 1.400 . S
C351 C350 1.400 . S
C351 C352 1.398 . S
C351 C357 1.491 . S
C352 H343 0.950 . S
C352 C351 1.398 . S
C352 C353 1.391 . S
C353 H341 0.950 . S
C353 C349 1.393 . S
C353 C352 1.391 . S
C354 H344 0.950 . S
C354 C355 1.386 . S
C354 C356 1.391 . S
C355 C354 1.386 . S
C355 C359 1.393 . S
C356 H345 0.950 . S
C356 C354 1.391 . S
C356 C357 1.400 . S
C357 C351 1.491 . S
C357 C356 1.400 . S
C357 C358 1.398 . S
C358 H346 0.950 . S
C358 C357 1.398 . S
C358 C359 1.391 . S
C359 H347 0.950 . S
C359 C355 1.393 . S
C359 C358 1.391 . S
H360 C368 0.950 . S
H361 C373 0.950 . S
H362 C370 0.950 . S
H363 C372 0.950 . S
H364 C374 0.950 . S
H365 C376 0.950 . S
H366 C378 0.950 . S
H367 C379 0.950 . S
C368 H360 0.950 . S
C368 C369 1.386 . S
C368 C370 1.391 . S
C369 C368 1.386 . S
C369 C373 1.393 . S
C370 H362 0.950 . S
C370 C368 1.391 . S
C370 C371 1.400 . S
C371 C370 1.400 . S
C371 C372 1.398 . S
C371 C377 1.491 . S
C372 H363 0.950 . S
C372 C371 1.398 . S
C372 C373 1.391 . S
C373 H361 0.950 . S
C373 C369 1.393 . S
C373 C372 1.391 . S
C374 H364 0.950 . S
C374 C375 1.386 . S
C374 C376 1.391 . S
C375 C374 1.386 . S
C375 C379 1.393 . S
C376 H365 0.950 . S
C376 C374 1.391 . S
C376 C377 1.400 . S
C377 C371 1.491 . S
C377 C376 1.400 . S
C377 C378 1.398 . S
C378 H366 0.950 . S
C378 C377 1.398 . S
C378 C379 1.391 . S
C379 H367 0.950 . S
C379 C375 1.393 . S
C379 C378 1.391 . S
H380 C388 0.950 . S
H381 C393 0.950 . S
H382 C390 0.950 . S
H383 C392 0.950 . S
H384 C394 0.950 . S
H385 C396 0.950 . S
H386 C398 0.950 1_455 S
H387 C399 0.950 . S
C388 H380 0.950 . S
C388 C389 1.386 . S
C388 C390 1.391 . S
C389 C388 1.386 . S
C389 C393 1.393 . S
C390 H382 0.950 . S
C390 C388 1.391 . S
C390 C391 1.400 . S
C391 C390 1.400 . S
C391 C392 1.398 . S
C391 C397 1.491 . S
C392 H383 0.950 . S
C392 C391 1.398 . S
C392 C393 1.391 . S
C393 H381 0.950 . S
C393 C389 1.393 . S
C393 C392 1.391 . S
C394 H384 0.950 . S
C394 C395 1.386 . S
C394 C396 1.391 . S
C395 C394 1.386 . S
C395 C399 1.393 1_655 S
C396 H385 0.950 . S
C396 C394 1.391 . S
C396 C397 1.400 . S
C397 C391 1.491 . S
C397 C396 1.400 . S
C397 C398 1.398 . S
C398 H386 0.950 1_655 S
C398 C397 1.398 . S
C398 C399 1.391 1_655 S
C399 H387 0.950 . S
C399 C395 1.393 1_455 S
C399 C398 1.391 1_455 S
C169 C98 0.384 . S
C175 C9 0.384 . S
C189 C138 0.690 . S
C195 C49 0.689 . S
C209 C89 0.998 1_545 S
C215 C18 0.998 . S
C229 C58 1.101 . S
C235 C129 1.103 . S
C249 C46 1.044 . S
C255 C15 1.065 . S
C269 C55 1.728 . S
C275 C90 1.737 . S
C289 C130 2.146 . S
C295 C99 2.093 . S
C309 C139 1.349 . S
C315 C6 1.347 . S
C329 C86 1.065 . S
C335 C135 1.038 . S
C349 C19 1.735 . S
C355 C126 1.728 . S
C369 C59 2.147 . S
C375 C10 2.089 1_556 S
C389 C95 1.360 . S
C395 C50 1.326 1_655 S
