# Generated by pormake.
# Topology uoi, (4)-cn, num edge types: 1
# Building blocks:
#     Node 0, Type 0, BuildingBlock: QUQFOY_clean_sbu_1, # of connection points: 4
#     Node 1, Type 0, BuildingBlock: QUQFOY_clean_sbu_1, # of connection points: 4
#     Node 2, Type 0, BuildingBlock: QUQFOY_clean_sbu_1, # of connection points: 4
#     Node 3, Type 0, BuildingBlock: QUQFOY_clean_sbu_1, # of connection points: 4
#     Node 4, Type 0, BuildingBlock: QUQFOY_clean_sbu_1, # of connection points: 4
#     Node 5, Type 0, BuildingBlock: QUQFOY_clean_sbu_1, # of connection points: 4
#     Node 6, Type 0, BuildingBlock: QUQFOY_clean_sbu_1, # of connection points: 4
#     Node 7, Type 0, BuildingBlock: QUQFOY_clean_sbu_1, # of connection points: 4
#     Node 8, Type 0, BuildingBlock: QUQFOY_clean_sbu_1, # of connection points: 4
#     Node 9, Type 0, BuildingBlock: QUQFOY_clean_sbu_1, # of connection points: 4
#     Node 10, Type 0, BuildingBlock: QUQFOY_clean_sbu_1, # of connection points: 4
#     Node 11, Type 0, BuildingBlock: QUQFOY_clean_sbu_1, # of connection points: 4
#     Node 12, Type 0, BuildingBlock: QUQFOY_clean_sbu_1, # of connection points: 4
#     Node 13, Type 0, BuildingBlock: QUQFOY_clean_sbu_1, # of connection points: 4
#     Node 14, Type 0, BuildingBlock: QUQFOY_clean_sbu_1, # of connection points: 4
#     Node 15, Type 0, BuildingBlock: QUQFOY_clean_sbu_1, # of connection points: 4
#     Node 16, Type 0, BuildingBlock: QUQFOY_clean_sbu_1, # of connection points: 4
#     Node 17, Type 0, BuildingBlock: QUQFOY_clean_sbu_1, # of connection points: 4
#     Node 18, Type 0, BuildingBlock: QUQFOY_clean_sbu_1, # of connection points: 4
#     Node 19, Type 0, BuildingBlock: QUQFOY_clean_sbu_1, # of connection points: 4
#     Node 20, Type 0, BuildingBlock: QUQFOY_clean_sbu_1, # of connection points: 4
#     Node 21, Type 0, BuildingBlock: QUQFOY_clean_sbu_1, # of connection points: 4
#     Node 22, Type 0, BuildingBlock: QUQFOY_clean_sbu_1, # of connection points: 4
#     Node 23, Type 0, BuildingBlock: QUQFOY_clean_sbu_1, # of connection points: 4
#     Node 24, Type 0, BuildingBlock: QUQFOY_clean_sbu_1, # of connection points: 4
#     Node 25, Type 0, BuildingBlock: QUQFOY_clean_sbu_1, # of connection points: 4
#     Node 26, Type 0, BuildingBlock: QUQFOY_clean_sbu_1, # of connection points: 4
#     Node 27, Type 0, BuildingBlock: QUQFOY_clean_sbu_1, # of connection points: 4
#     Node 28, Type 0, BuildingBlock: QUQFOY_clean_sbu_1, # of connection points: 4
#     Node 29, Type 0, BuildingBlock: QUQFOY_clean_sbu_1, # of connection points: 4
#     Node 30, Type 0, BuildingBlock: QUQFOY_clean_sbu_1, # of connection points: 4
#     Node 31, Type 0, BuildingBlock: QUQFOY_clean_sbu_1, # of connection points: 4
#     Edge 32, Type (0, 0), BuildingBlock: XIVTED_clean_linker_0, # of connection points: 2
#     Edge 33, Type (0, 0), BuildingBlock: XIVTED_clean_linker_0, # of connection points: 2
#     Edge 34, Type (0, 0), BuildingBlock: XIVTED_clean_linker_0, # of connection points: 2
#     Edge 35, Type (0, 0), BuildingBlock: XIVTED_clean_linker_0, # of connection points: 2
#     Edge 36, Type (0, 0), BuildingBlock: XIVTED_clean_linker_0, # of connection points: 2
#     Edge 37, Type (0, 0), BuildingBlock: XIVTED_clean_linker_0, # of connection points: 2
#     Edge 38, Type (0, 0), BuildingBlock: XIVTED_clean_linker_0, # of connection points: 2
#     Edge 39, Type (0, 0), BuildingBlock: XIVTED_clean_linker_0, # of connection points: 2
#     Edge 40, Type (0, 0), BuildingBlock: XIVTED_clean_linker_0, # of connection points: 2
#     Edge 41, Type (0, 0), BuildingBlock: XIVTED_clean_linker_0, # of connection points: 2
#     Edge 42, Type (0, 0), BuildingBlock: XIVTED_clean_linker_0, # of connection points: 2
#     Edge 43, Type (0, 0), BuildingBlock: XIVTED_clean_linker_0, # of connection points: 2
#     Edge 44, Type (0, 0), BuildingBlock: XIVTED_clean_linker_0, # of connection points: 2
#     Edge 45, Type (0, 0), BuildingBlock: XIVTED_clean_linker_0, # of connection points: 2
#     Edge 46, Type (0, 0), BuildingBlock: XIVTED_clean_linker_0, # of connection points: 2
#     Edge 47, Type (0, 0), BuildingBlock: XIVTED_clean_linker_0, # of connection points: 2
#     Edge 48, Type (0, 0), BuildingBlock: XIVTED_clean_linker_0, # of connection points: 2
#     Edge 49, Type (0, 0), BuildingBlock: XIVTED_clean_linker_0, # of connection points: 2
#     Edge 50, Type (0, 0), BuildingBlock: XIVTED_clean_linker_0, # of connection points: 2
#     Edge 51, Type (0, 0), BuildingBlock: XIVTED_clean_linker_0, # of connection points: 2
#     Edge 52, Type (0, 0), BuildingBlock: XIVTED_clean_linker_0, # of connection points: 2
#     Edge 53, Type (0, 0), BuildingBlock: XIVTED_clean_linker_0, # of connection points: 2
#     Edge 54, Type (0, 0), BuildingBlock: XIVTED_clean_linker_0, # of connection points: 2
#     Edge 55, Type (0, 0), BuildingBlock: XIVTED_clean_linker_0, # of connection points: 2
#     Edge 56, Type (0, 0), BuildingBlock: XIVTED_clean_linker_0, # of connection points: 2
#     Edge 57, Type (0, 0), BuildingBlock: XIVTED_clean_linker_0, # of connection points: 2
#     Edge 58, Type (0, 0), BuildingBlock: XIVTED_clean_linker_0, # of connection points: 2
#     Edge 59, Type (0, 0), BuildingBlock: XIVTED_clean_linker_0, # of connection points: 2
#     Edge 60, Type (0, 0), BuildingBlock: XIVTED_clean_linker_0, # of connection points: 2
#     Edge 61, Type (0, 0), BuildingBlock: XIVTED_clean_linker_0, # of connection points: 2
#     Edge 62, Type (0, 0), BuildingBlock: XIVTED_clean_linker_0, # of connection points: 2
#     Edge 63, Type (0, 0), BuildingBlock: XIVTED_clean_linker_0, # of connection points: 2
#     Edge 64, Type (0, 0), BuildingBlock: XIVTED_clean_linker_0, # of connection points: 2
#     Edge 65, Type (0, 0), BuildingBlock: XIVTED_clean_linker_0, # of connection points: 2
#     Edge 66, Type (0, 0), BuildingBlock: XIVTED_clean_linker_0, # of connection points: 2
#     Edge 67, Type (0, 0), BuildingBlock: XIVTED_clean_linker_0, # of connection points: 2
#     Edge 68, Type (0, 0), BuildingBlock: XIVTED_clean_linker_0, # of connection points: 2
#     Edge 69, Type (0, 0), BuildingBlock: XIVTED_clean_linker_0, # of connection points: 2
#     Edge 70, Type (0, 0), BuildingBlock: XIVTED_clean_linker_0, # of connection points: 2
#     Edge 71, Type (0, 0), BuildingBlock: XIVTED_clean_linker_0, # of connection points: 2
#     Edge 72, Type (0, 0), BuildingBlock: XIVTED_clean_linker_0, # of connection points: 2
#     Edge 73, Type (0, 0), BuildingBlock: XIVTED_clean_linker_0, # of connection points: 2
#     Edge 74, Type (0, 0), BuildingBlock: XIVTED_clean_linker_0, # of connection points: 2
#     Edge 75, Type (0, 0), BuildingBlock: XIVTED_clean_linker_0, # of connection points: 2
#     Edge 76, Type (0, 0), BuildingBlock: XIVTED_clean_linker_0, # of connection points: 2
#     Edge 77, Type (0, 0), BuildingBlock: XIVTED_clean_linker_0, # of connection points: 2
#     Edge 78, Type (0, 0), BuildingBlock: XIVTED_clean_linker_0, # of connection points: 2
#     Edge 79, Type (0, 0), BuildingBlock: XIVTED_clean_linker_0, # of connection points: 2
#     Edge 80, Type (0, 0), BuildingBlock: XIVTED_clean_linker_0, # of connection points: 2
#     Edge 81, Type (0, 0), BuildingBlock: XIVTED_clean_linker_0, # of connection points: 2
#     Edge 82, Type (0, 0), BuildingBlock: XIVTED_clean_linker_0, # of connection points: 2
#     Edge 83, Type (0, 0), BuildingBlock: XIVTED_clean_linker_0, # of connection points: 2
#     Edge 84, Type (0, 0), BuildingBlock: XIVTED_clean_linker_0, # of connection points: 2
#     Edge 85, Type (0, 0), BuildingBlock: XIVTED_clean_linker_0, # of connection points: 2
#     Edge 86, Type (0, 0), BuildingBlock: XIVTED_clean_linker_0, # of connection points: 2
#     Edge 87, Type (0, 0), BuildingBlock: XIVTED_clean_linker_0, # of connection points: 2
#     Edge 88, Type (0, 0), BuildingBlock: XIVTED_clean_linker_0, # of connection points: 2
#     Edge 89, Type (0, 0), BuildingBlock: XIVTED_clean_linker_0, # of connection points: 2
#     Edge 90, Type (0, 0), BuildingBlock: XIVTED_clean_linker_0, # of connection points: 2
#     Edge 91, Type (0, 0), BuildingBlock: XIVTED_clean_linker_0, # of connection points: 2
#     Edge 92, Type (0, 0), BuildingBlock: XIVTED_clean_linker_0, # of connection points: 2
#     Edge 93, Type (0, 0), BuildingBlock: XIVTED_clean_linker_0, # of connection points: 2
#     Edge 94, Type (0, 0), BuildingBlock: XIVTED_clean_linker_0, # of connection points: 2
#     Edge 95, Type (0, 0), BuildingBlock: XIVTED_clean_linker_0, # of connection points: 2
# Relax obj value: 0.227
# Max RMSD: 0.152
# Mean RMSD: 0.152
data_MOF--net-uoi--node1-QUQFOY_clean_sbu_1--edge1-XIVTED_clean_linker_0
_symmetry_space_group_name_H-M    P1
_symmetry_Int_Tables_number       1
_symmetry_cell_setting            triclinic
loop_
_symmetry_equiv_pos_as_xyz
'x, y, z'
_cell_length_a     87.786953
_cell_length_b     87.787107
_cell_length_c     20.313589
_cell_angle_alpha  90.008357
_cell_angle_beta   90.012031
_cell_angle_gamma 90.00424
loop_
_atom_site_label
_atom_site_type_symbol
_atom_site_fract_x
_atom_site_fract_y
_atom_site_fract_z
_atom_type_partial_charge
O0 O 0.17564 0.20185 0.1718 0.0
Cd1 Cd 0.17153 0.18986 0.25611 0.0
Cd2 Cd 0.20153 0.18977 0.25395 0.0
O3 O 0.19967 0.19567 0.15554 0.0
O4 O 0.14974 0.18394 0.2455 0.0
O5 O 0.16854 0.16718 0.24557 0.0
C6 C 0.15424 0.17009 0.23693 0.0
C7 C 0.21772 0.17245 0.30543 0.0
C8 C 0.18751 0.20222 0.13623 0.0
C9 C 0.18599 0.21083 0.34872 0.0
O10 O 0.19777 0.20788 0.31484 0.0
O11 O 0.17381 0.20317 0.34019 0.0
O12 O 0.22303 0.18405 0.2739 0.0
O13 O 0.20328 0.1697 0.30126 0.0
O14 O 0.05179 0.92789 0.4174 0.0
Cd15 Cd 0.06339 0.92394 0.50293 0.0
Cd16 Cd 0.06318 0.95388 0.50054 0.0
O17 O 0.05771 0.952 0.40167 0.0
O18 O 0.06934 0.90214 0.49352 0.0
O19 O 0.08612 0.92092 0.49467 0.0
C20 C 0.08324 0.9066 0.48626 0.0
C21 C 0.08061 0.96967 0.55351 0.0
C22 C 0.05142 0.93976 0.38179 0.0
C23 C 0.04184 0.93828 0.59365 0.0
O24 O 0.04482 0.9501 0.56004 0.0
O25 O 0.04967 0.92619 0.58575 0.0
O26 O 0.06917 0.97524 0.52164 0.0
O27 O 0.08312 0.95519 0.54892 0.0
O28 O 0.32747 0.8017 0.67638 0.0
Cd29 Cd 0.33144 0.81372 0.76077 0.0
Cd30 Cd 0.30151 0.81372 0.75828 0.0
O31 O 0.30344 0.80782 0.6599 0.0
O32 O 0.35315 0.81991 0.7503 0.0
O33 O 0.33414 0.83644 0.75073 0.0
C34 C 0.34848 0.83371 0.74203 0.0
C35 C 0.28505 0.83094 0.80889 0.0
C36 C 0.31561 0.8013 0.6407 0.0
C37 C 0.31708 0.79269 0.85317 0.0
O38 O 0.30529 0.79563 0.81928 0.0
O39 O 0.32923 0.80039 0.84475 0.0
O40 O 0.27993 0.81925 0.77737 0.0
O41 O 0.29948 0.8338 0.80542 0.0
O42 O 0.44978 0.07544 0.92402 0.0
Cd43 Cd 0.43771 0.07923 0.00838 0.0
Cd44 Cd 0.43824 0.04936 0.00632 0.0
O45 O 0.44395 0.05133 0.90773 0.0
O46 O 0.43054 0.10063 0.99748 0.0
O47 O 0.41493 0.08085 -0.00195 0.0
C48 C 0.41699 0.09529 0.98901 0.0
C49 C 0.42134 0.03284 0.0585 0.0
C50 C 0.45029 0.06359 0.88837 0.0
C51 C 0.45906 0.06535 0.10064 0.0
O52 O 0.45635 0.05352 0.06669 0.0
O53 O 0.4511 0.07734 0.09241 0.0
O54 O 0.43299 0.02776 0.02659 0.0
O55 O 0.41829 0.04722 0.05428 0.0
O56 O 0.17818 0.80362 0.3283 0.0
Cd57 Cd 0.17353 0.81535 0.24374 0.0
Cd58 Cd 0.20369 0.81481 0.24224 0.0
O59 O 0.20247 0.80917 0.34106 0.0
O60 O 0.15177 0.8211 0.25694 0.0
O61 O 0.17033 0.83807 0.25258 0.0
C62 C 0.15614 0.83505 0.26335 0.0
C63 C 0.22013 0.83156 0.1885 0.0
C64 C 0.19029 0.803 0.36227 0.0
C65 C 0.18693 0.7938 0.15071 0.0
O66 O 0.19901 0.79666 0.18269 0.0
O67 O 0.17497 0.80171 0.16037 0.0
O68 O 0.22521 0.81974 0.21919 0.0
O69 O 0.20584 0.83483 0.19464 0.0
O70 O 0.45197 0.92701 0.57756 0.0
Cd71 Cd 0.43997 0.92268 0.49343 0.0
Cd72 Cd 0.44015 0.95264 0.49395 0.0
O73 O 0.44588 0.95109 0.59265 0.0
O74 O 0.43422 0.90088 0.50499 0.0
O75 O 0.41729 0.91951 0.50374 0.0
C76 C 0.42032 0.90525 0.51297 0.0
C77 C 0.42286 0.96866 0.44123 0.0
C78 C 0.45239 0.93897 0.61257 0.0
C79 C 0.46118 0.93665 0.40062 0.0
O80 O 0.45835 0.94855 0.4339 0.0
O81 O 0.45331 0.92462 0.4094 0.0
O82 O 0.43446 0.97406 0.47249 0.0
O83 O 0.42012 0.95423 0.44616 0.0
O84 O 0.3281 0.20085 0.8093 0.0
Cd85 Cd 0.33187 0.18793 0.72724 0.0
Cd86 Cd 0.30203 0.18905 0.72744 0.0
O87 O 0.30386 0.19554 0.82519 0.0
O88 O 0.35302 0.18023 0.74048 0.0
O89 O 0.33278 0.1652 0.74069 0.0
C90 C 0.34726 0.16689 0.75017 0.0
C91 C 0.28502 0.17225 0.67744 0.0
C92 C 0.31615 0.2019 0.84413 0.0
C93 C 0.3188 0.2088 0.63115 0.0
O94 O 0.30682 0.20657 0.6647 0.0
O95 O 0.3306 0.20065 0.64116 0.0
O96 O 0.28029 0.18434 0.70724 0.0
O97 O 0.2993 0.16879 0.68246 0.0
O98 O 0.05171 0.07635 0.06846 0.0
Cd99 Cd 0.06362 0.08082 0.98426 0.0
Cd100 Cd 0.0638 0.05079 0.98472 0.0
O101 O 0.05789 0.05226 0.08321 0.0
O102 O 0.06949 0.10258 0.99654 0.0
O103 O 0.08631 0.08384 0.99439 0.0
C104 C 0.08337 0.09809 0.00434 0.0
C105 C 0.08109 0.03473 0.93225 0.0
C106 C 0.05135 0.06435 0.10327 0.0
C107 C 0.04264 0.06662 0.89105 0.0
O108 O 0.04567 0.05474 0.92414 0.0
O109 O 0.05025 0.07881 0.90023 0.0
O110 O 0.06947 0.02935 0.96341 0.0
O111 O 0.08387 0.04915 0.93735 0.0
O112 O 0.82503 0.80211 0.82907 0.0
Cd113 Cd 0.82919 0.8137 0.74375 0.0
Cd114 Cd 0.7993 0.81374 0.74569 0.0
O115 O 0.80101 0.80837 0.84472 0.0
O116 O 0.85104 0.81945 0.75381 0.0
O117 O 0.83241 0.8364 0.75225 0.0
C118 C 0.84669 0.83339 0.76107 0.0
C119 C 0.78377 0.83128 0.69198 0.0
C120 C 0.81316 0.80191 0.86466 0.0
C121 C 0.81478 0.79224 0.653 0.0
O122 O 0.80298 0.79529 0.68656 0.0
O123 O 0.82691 0.80001 0.66086 0.0
O124 O 0.77803 0.81995 0.72394 0.0
O125 O 0.79827 0.83365 0.69691 0.0
O126 O 0.95044 0.0755 0.56621 0.0
Cd127 Cd 0.93823 0.07915 0.48206 0.0
Cd128 Cd 0.93867 0.04931 0.48571 0.0
O129 O 0.94452 0.05147 0.58409 0.0
O130 O 0.93235 0.10098 0.49081 0.0
O131 O 0.91558 0.08221 0.49414 0.0
C132 C 0.91855 0.09655 0.501 0.0
C133 C 0.92113 0.03342 0.43415 0.0
C134 C 0.95095 0.06376 0.60256 0.0
C135 C 0.95938 0.06478 0.38996 0.0
O136 O 0.95677 0.05307 0.42476 0.0
O137 O 0.95141 0.07678 0.39769 0.0
O138 O 0.93266 0.02791 0.46559 0.0
O139 O 0.91858 0.0479 0.43864 0.0
O140 O 0.67546 0.20166 0.31812 0.0
Cd141 Cd 0.67095 0.18922 0.23532 0.0
Cd142 Cd 0.70102 0.1894 0.23486 0.0
O143 O 0.69961 0.19574 0.33285 0.0
O144 O 0.64922 0.18336 0.24843 0.0
O145 O 0.66799 0.16657 0.24752 0.0
C146 C 0.65373 0.16952 0.25715 0.0
C147 C 0.71768 0.17239 0.18396 0.0
C148 C 0.68751 0.20233 0.35254 0.0
C149 C 0.68465 0.20991 0.13993 0.0
O150 O 0.69662 0.20718 0.1729 0.0
O151 O 0.6726 0.20216 0.15002 0.0
O152 O 0.72263 0.18438 0.21379 0.0
O153 O 0.70337 0.16912 0.18949 0.0
O154 O 0.55356 0.92782 0.07738 0.0
Cd155 Cd 0.56573 0.92391 0.99334 0.0
Cd156 Cd 0.56491 0.95376 0.99406 0.0
O157 O 0.55924 0.95199 0.09275 0.0
O158 O 0.57294 0.90254 0.00501 0.0
O159 O 0.58852 0.92235 0.0036 0.0
C160 C 0.5865 0.90791 0.013 0.0
C161 C 0.5817 0.97032 0.94141 0.0
C162 C 0.55294 0.93975 0.11253 0.0
C163 C 0.54425 0.93735 0.90049 0.0
O164 O 0.54681 0.94928 0.93396 0.0
O165 O 0.55237 0.92548 0.90914 0.0
O166 O 0.56998 0.97536 0.97294 0.0
O167 O 0.58486 0.95597 0.94611 0.0
O168 O 0.82846 0.20035 0.68299 0.0
Cd169 Cd 0.83205 0.18755 0.76557 0.0
Cd170 Cd 0.80206 0.18866 0.76327 0.0
O171 O 0.80428 0.195 0.66555 0.0
O172 O 0.85372 0.18124 0.75523 0.0
O173 O 0.83458 0.1649 0.75125 0.0
C174 C 0.84897 0.16758 0.74411 0.0
C175 C 0.78475 0.17194 0.8117 0.0
C176 C 0.81664 0.20132 0.64728 0.0
C177 C 0.81841 0.20847 0.86045 0.0
O178 O 0.80655 0.20627 0.82602 0.0
O179 O 0.83021 0.20029 0.8514 0.0
O180 O 0.78022 0.18401 0.78125 0.0
O181 O 0.79904 0.16845 0.80843 0.0
O182 O 0.55124 0.0762 0.42389 0.0
Cd183 Cd 0.56314 0.08027 0.50849 0.0
Cd184 Cd 0.56317 0.05037 0.50628 0.0
O185 O 0.55741 0.05218 0.40769 0.0
O186 O 0.56916 0.10202 0.49789 0.0
O187 O 0.58585 0.08316 0.49869 0.0
C188 C 0.583 0.09747 0.48978 0.0
C189 C 0.5806 0.03443 0.5585 0.0
C190 C 0.5509 0.06434 0.38826 0.0
C191 C 0.54201 0.0659 0.60047 0.0
O192 O 0.54497 0.05411 0.56662 0.0
O193 O 0.54974 0.07805 0.59223 0.0
O194 O 0.56909 0.02896 0.52683 0.0
O195 O 0.5832 0.0489 0.55406 0.0
O196 O 0.67701 0.80297 0.17744 0.0
Cd197 Cd 0.67331 0.81508 0.26182 0.0
Cd198 Cd 0.70306 0.81465 0.25961 0.0
O199 O 0.70112 0.80883 0.16113 0.0
O200 O 0.652 0.82256 0.25126 0.0
O201 O 0.67203 0.83787 0.25183 0.0
C202 C 0.65755 0.83605 0.24306 0.0
C203 C 0.71919 0.83191 0.31173 0.0
C204 C 0.68887 0.80244 0.14183 0.0
C205 C 0.68726 0.79381 0.35422 0.0
O206 O 0.69907 0.79655 0.32026 0.0
O207 O 0.67523 0.80171 0.34589 0.0
O208 O 0.72454 0.82031 0.28029 0.0
O209 O 0.70477 0.8347 0.30699 0.0
O210 O 0.94996 0.92744 0.91676 0.0
Cd211 Cd 0.93842 0.92318 0.00214 0.0
Cd212 Cd 0.93831 0.95311 0.00083 0.0
O213 O 0.94377 0.95151 0.90188 0.0
O214 O 0.93248 0.90141 0.99137 0.0
O215 O 0.91569 0.92017 0.99404 0.0
C216 C 0.91858 0.90589 0.98454 0.0
C217 C 0.92088 0.96879 0.05445 0.0
C218 C 0.95019 0.93938 0.88157 0.0
C219 C 0.95984 0.93752 0.09328 0.0
O220 O 0.95671 0.94936 0.06009 0.0
O221 O 0.95215 0.92535 0.08502 0.0
O222 O 0.93228 0.97443 0.02258 0.0
O223 O 0.91838 0.95431 0.04948 0.0
O224 O 0.67684 0.70154 0.67773 0.0
Cd225 Cd 0.67296 0.68946 0.76204 0.0
Cd226 Cd 0.70285 0.68967 0.75919 0.0
O227 O 0.70086 0.69545 0.66071 0.0
O228 O 0.65112 0.68362 0.75285 0.0
O229 O 0.66985 0.6668 0.75068 0.0
C230 C 0.65552 0.66978 0.7434 0.0
C231 C 0.7188 0.67223 0.81118 0.0
C232 C 0.68865 0.70196 0.64178 0.0
C233 C 0.68735 0.7106 0.85412 0.0
O234 O 0.69909 0.70784 0.81973 0.0
O235 O 0.67529 0.70273 0.8462 0.0
O236 O 0.72427 0.68376 0.7796 0.0
O237 O 0.70433 0.66962 0.80666 0.0
O238 O 0.55342 0.42664 0.93045 0.0
Cd239 Cd 0.566 0.42298 0.01359 0.0
Cd240 Cd 0.56505 0.45278 0.01238 0.0
O241 O 0.55885 0.45085 0.91434 0.0
O242 O 0.57351 0.40172 0.00179 0.0
O243 O 0.58876 0.42179 0.00158 0.0
C244 C 0.58694 0.40731 0.99261 0.0
C245 C 0.58199 0.46957 0.06276 0.0
C246 C 0.55255 0.43855 0.89525 0.0
C247 C 0.5449 0.43637 0.10806 0.0
O248 O 0.54729 0.44829 0.07427 0.0
O249 O 0.55302 0.42452 0.09883 0.0
O250 O 0.57007 0.47446 0.03222 0.0
O251 O 0.58522 0.45523 0.05834 0.0
O252 O 0.8293 0.30126 0.18267 0.0
Cd253 Cd 0.83339 0.31387 0.26537 0.0
Cd254 Cd 0.80347 0.31384 0.26367 0.0
O255 O 0.80529 0.3074 0.16588 0.0
O256 O 0.85497 0.32035 0.25332 0.0
O257 O 0.83568 0.33656 0.25284 0.0
C258 C 0.85004 0.33403 0.24391 0.0
C259 C 0.7868 0.33105 0.31309 0.0
C260 C 0.8174 0.30067 0.1473 0.0
C261 C 0.81927 0.29339 0.36034 0.0
O262 O 0.80745 0.29611 0.32636 0.0
O263 O 0.83141 0.30105 0.35091 0.0
O264 O 0.78182 0.31917 0.28256 0.0
O265 O 0.80118 0.3341 0.30912 0.0
O266 O 0.95058 0.57427 0.41146 0.0
Cd267 Cd 0.9392 0.5785 0.49724 0.0
Cd268 Cd 0.93933 0.54857 0.49584 0.0
O269 O 0.9445 0.55018 0.39658 0.0
O270 O 0.93333 0.60031 0.48681 0.0
O271 O 0.91646 0.58164 0.49003 0.0
C272 C 0.91939 0.5959 0.48057 0.0
C273 C 0.92203 0.53301 0.5508 0.0
C274 C 0.95082 0.56236 0.37614 0.0
C275 C 0.96094 0.56431 0.58734 0.0
O276 O 0.95788 0.55246 0.55412 0.0
O277 O 0.9531 0.5764 0.57957 0.0
O278 O 0.93333 0.5273 0.51851 0.0
O279 O 0.91954 0.54748 0.54546 0.0
O280 O 0.67666 0.30279 0.81652 0.0
Cd281 Cd 0.67324 0.31556 0.73378 0.0
Cd282 Cd 0.70302 0.31441 0.73603 0.0
O283 O 0.70083 0.30818 0.83393 0.0
O284 O 0.65201 0.32319 0.74511 0.0
O285 O 0.67218 0.33831 0.74663 0.0
C286 C 0.65768 0.33656 0.755 0.0
C287 C 0.72006 0.33126 0.68672 0.0
C288 C 0.68847 0.30185 0.85227 0.0
C289 C 0.68664 0.29452 0.6392 0.0
O290 O 0.69851 0.29675 0.67354 0.0
O291 O 0.67485 0.30273 0.64818 0.0
O292 O 0.72478 0.31927 0.71722 0.0
O293 O 0.70574 0.33461 0.69058 0.0
O294 O 0.95138 0.42896 0.07674 0.0
Cd295 Cd 0.93978 0.42423 0.99195 0.0
Cd296 Cd 0.93978 0.45428 0.99113 0.0
O297 O 0.94518 0.45307 0.09024 0.0
O298 O 0.93452 0.40232 0.00429 0.0
O299 O 0.91715 0.42052 0.00107 0.0
C300 C 0.9205 0.40637 0.01127 0.0
C301 C 0.92247 0.46985 0.93614 0.0
C302 C 0.95163 0.44101 0.1112 0.0
C303 C 0.96123 0.4382 0.89992 0.0
O304 O 0.95821 0.45016 0.93247 0.0
O305 O 0.95343 0.42613 0.90875 0.0
O306 O 0.9339 0.47554 0.96765 0.0
O307 O 0.91988 0.45541 0.94217 0.0
O308 O 0.82536 0.70016 0.3306 0.0
Cd309 Cd 0.82974 0.68871 0.24507 0.0
Cd310 Cd 0.79969 0.68904 0.24498 0.0
O311 O 0.80115 0.69436 0.34409 0.0
O312 O 0.85158 0.68301 0.25612 0.0
O313 O 0.83305 0.66599 0.25274 0.0
C314 C 0.84728 0.66904 0.26235 0.0
C315 C 0.78378 0.67192 0.19062 0.0
C316 C 0.81333 0.70056 0.36516 0.0
C317 C 0.81584 0.71044 0.15384 0.0
O318 O 0.80387 0.70747 0.1864 0.0
O319 O 0.82786 0.70254 0.16244 0.0
O320 O 0.77831 0.68341 0.22244 0.0
O321 O 0.7982 0.66918 0.19588 0.0
O322 O 0.55233 0.57761 0.57066 0.0
Cd323 Cd 0.56479 0.58147 0.48738 0.0
Cd324 Cd 0.56464 0.55159 0.4905 0.0
O325 O 0.55857 0.55368 0.58862 0.0
O326 O 0.57071 0.60328 0.49693 0.0
O327 O 0.58742 0.58446 0.50033 0.0
C328 C 0.58449 0.59881 0.5073 0.0
C329 C 0.58196 0.53523 0.44011 0.0
C330 C 0.55186 0.56584 0.60681 0.0
C331 C 0.54402 0.56707 0.39408 0.0
O332 O 0.54667 0.55536 0.42885 0.0
O333 O 0.55188 0.57914 0.40227 0.0
O334 O 0.57029 0.53004 0.47149 0.0
O335 O 0.58478 0.54967 0.44387 0.0
O336 O 0.32944 0.30165 0.30829 0.0
Cd337 Cd 0.33334 0.31456 0.22629 0.0
Cd338 Cd 0.30338 0.31415 0.22838 0.0
O339 O 0.30544 0.30769 0.32604 0.0
O340 O 0.35506 0.32066 0.2372 0.0
O341 O 0.33606 0.33716 0.2413 0.0
C342 C 0.35042 0.33435 0.24857 0.0
C343 C 0.28636 0.33117 0.17988 0.0
C344 C 0.31761 0.30096 0.34402 0.0
C345 C 0.31932 0.29409 0.13087 0.0
O346 O 0.30752 0.2965 0.16543 0.0
O347 O 0.33129 0.30202 0.14002 0.0
O348 O 0.28162 0.31917 0.21031 0.0
O349 O 0.3007 0.33442 0.18328 0.0
O350 O 0.45115 0.57729 0.07191 0.0
Cd351 Cd 0.43868 0.58098 0.98849 0.0
Cd352 Cd 0.43961 0.55118 0.98951 0.0
O353 O 0.44571 0.55307 0.08767 0.0
O354 O 0.43109 0.60222 0.00023 0.0
O355 O 0.4159 0.58211 -9e-05 0.0
C356 C 0.41767 0.59658 0.00899 0.0
C357 C 0.42269 0.53441 0.93884 0.0
C358 C 0.45199 0.56537 0.10701 0.0
C359 C 0.45987 0.5676 0.89435 0.0
O360 O 0.45743 0.55567 0.92795 0.0
O361 O 0.45177 0.57946 0.90354 0.0
O362 O 0.43458 0.52951 0.9695 0.0
O363 O 0.41947 0.54875 0.94324 0.0
O364 O 0.17709 0.70174 0.82661 0.0
Cd365 Cd 0.17304 0.6899 0.74178 0.0
Cd366 Cd 0.20296 0.69012 0.74363 0.0
O367 O 0.20115 0.69565 0.84245 0.0
O368 O 0.15123 0.684 0.75183 0.0
O369 O 0.16997 0.66719 0.75097 0.0
C370 C 0.15567 0.67011 0.75944 0.0
C371 C 0.21897 0.67283 0.69097 0.0
C372 C 0.18898 0.7021 0.86214 0.0
C373 C 0.18724 0.71129 0.65022 0.0
O374 O 0.19906 0.70843 0.68394 0.0
O375 O 0.17519 0.70339 0.6583 0.0
O376 O 0.22439 0.68434 0.72283 0.0
O377 O 0.20451 0.67017 0.69529 0.0
O378 O 0.05319 0.42948 0.57621 0.0
Cd379 Cd 0.06489 0.42521 0.49125 0.0
Cd380 Cd 0.06444 0.45522 0.49194 0.0
O381 O 0.05909 0.45362 0.59098 0.0
O382 O 0.07051 0.40336 0.50228 0.0
O383 O 0.08758 0.42186 0.50031 0.0
C384 C 0.08446 0.40763 0.50958 0.0
C385 C 0.0815 0.47123 0.43798 0.0
C386 C 0.05279 0.44143 0.61131 0.0
C387 C 0.04325 0.4391 0.39976 0.0
O388 O 0.04606 0.45102 0.43298 0.0
O389 O 0.05126 0.42714 0.40804 0.0
O390 O 0.07 0.47664 0.46989 0.0
O391 O 0.0843 0.45681 0.44299 0.0
O392 O 0.3264 0.70024 0.17644 0.0
Cd393 Cd 0.33002 0.68808 0.26073 0.0
Cd394 Cd 0.30019 0.68876 0.25826 0.0
O395 O 0.30226 0.69458 0.15983 0.0
O396 O 0.35138 0.68076 0.25029 0.0
O397 O 0.33148 0.6653 0.2504 0.0
C398 C 0.34595 0.66724 0.24179 0.0
C399 C 0.28359 0.67183 0.30972 0.0
C400 C 0.31457 0.70087 0.14069 0.0
C401 C 0.31619 0.70942 0.35315 0.0
O402 O 0.30437 0.7068 0.31907 0.0
O403 O 0.32816 0.70142 0.34488 0.0
O404 O 0.27856 0.68354 0.27807 0.0
O405 O 0.29796 0.66875 0.30568 0.0
O406 O 0.05268 0.57532 0.91067 0.0
Cd407 Cd 0.06401 0.57968 0.99652 0.0
Cd408 Cd 0.06387 0.54971 0.9962 0.0
O409 O 0.05871 0.55117 0.89694 0.0
O410 O 0.06983 0.60148 0.98554 0.0
O411 O 0.08675 0.58286 0.9895 0.0
C412 C 0.08378 0.5971 0.97959 0.0
C413 C 0.08108 0.53397 0.05086 0.0
C414 C 0.05245 0.56332 0.87587 0.0
C415 C 0.04223 0.56564 0.08703 0.0
O416 O 0.04531 0.55371 0.05435 0.0
O417 O 0.05008 0.5777 0.0788 0.0
O418 O 0.06969 0.52838 0.0187 0.0
O419 O 0.08367 0.54843 0.04581 0.0
O420 O 0.17697 0.30337 0.67162 0.0
Cd421 Cd 0.17296 0.31539 0.756 0.0
Cd422 Cd 0.20302 0.31481 0.75461 0.0
O423 O 0.20121 0.30881 0.65629 0.0
O424 O 0.1513 0.32167 0.74467 0.0
O425 O 0.17035 0.33814 0.74613 0.0
C426 C 0.15602 0.33546 0.73685 0.0
C427 C 0.2197 0.33171 0.806 0.0
C428 C 0.1889 0.30263 0.63653 0.0
C429 C 0.18678 0.29413 0.84907 0.0
O430 O 0.1987 0.29688 0.8158 0.0
O431 O 0.17476 0.30198 0.83995 0.0
O432 O 0.22465 0.31984 0.77528 0.0
O433 O 0.20537 0.33495 0.80098 0.0
O434 O 0.45242 0.42626 0.43158 0.0
Cd435 Cd 0.43983 0.42232 0.51444 0.0
Cd436 Cd 0.43995 0.45222 0.51162 0.0
O437 O 0.44613 0.45019 0.41361 0.0
O438 O 0.43399 0.4005 0.50429 0.0
O439 O 0.41724 0.41929 0.50065 0.0
C440 C 0.42022 0.40496 0.49345 0.0
C441 C 0.42266 0.46867 0.56172 0.0
C442 C 0.45289 0.43805 0.39551 0.0
C443 C 0.46047 0.43668 0.60835 0.0
O444 O 0.45785 0.4484 0.57361 0.0
O445 O 0.45263 0.42461 0.59991 0.0
O446 O 0.43439 0.4738 0.53057 0.0
O447 O 0.41978 0.45425 0.55788 0.0
H448 H 0.29336 0.15729 0.56516 0.0
H449 H 0.20875 0.15865 0.41958 0.0
H450 H 0.25388 0.17069 0.67736 0.0
H451 H 0.24877 0.16943 0.30558 0.0
H452 H 0.22513 0.15281 0.51411 0.0
H453 H 0.27673 0.1515 0.47133 0.0
C454 C 0.28115 0.15848 0.57094 0.0
C455 C 0.27499 0.1646 0.62901 0.0
C456 C 0.23031 0.15604 0.46778 0.0
C457 C 0.25598 0.158 0.522 0.0
C458 C 0.221 0.15924 0.41361 0.0
C459 C 0.22741 0.16466 0.35475 0.0
C460 C 0.24614 0.15799 0.4626 0.0
C461 C 0.24336 0.16539 0.35018 0.0
C462 C 0.27171 0.1553 0.51717 0.0
C463 C 0.2591 0.16609 0.63336 0.0
N464 N 0.25217 0.16225 0.40359 0.0
N465 N 0.25015 0.16296 0.58036 0.0
H466 H 0.0947 0.96018 0.66628 0.0
H467 H 0.09528 0.04406 0.81951 0.0
H468 H 0.08356 1.00072 0.55645 0.0
H469 H 0.08369 0.00366 0.92938 0.0
H470 H 0.10108 0.02807 0.72373 0.0
H471 H 0.10076 0.9761 0.76198 0.0
C472 C 0.09406 0.97245 0.66146 0.0
C473 C 0.08848 0.97914 0.60345 0.0
C474 C 0.09767 0.02271 0.76943 0.0
C475 C 0.09537 0.99735 0.7127 0.0
C476 C 0.09449 0.0318 0.82433 0.0
C477 C 0.08886 0.02518 0.88237 0.0
C478 C 0.09545 0.00689 0.77304 0.0
C479 C 0.08789 0.00923 0.88544 0.0
C480 C 0.09739 0.98151 0.71631 0.0
C481 C 0.08771 0.9951 0.60037 0.0
N482 N 0.09099 1.00063 0.83133 0.0
N483 N 0.09095 0.00366 0.65444 0.0
H484 H 0.21101 0.8485 0.0822 0.0
H485 H 0.25404 0.83373 0.80644 0.0
H486 H 0.25123 0.83126 0.1788 0.0
H487 H 0.29346 0.8448 0.92372 0.0
H488 H 0.23771 0.83994 0.90001 0.0
H489 H 0.22644 0.85447 0.98505 0.0
C490 C 0.22316 0.84635 0.08375 0.0
C491 C 0.2298 0.83913 0.13836 0.0
C492 C 0.24988 0.84158 0.90473 0.0
C493 C 0.24743 0.84562 0.0269 0.0
C494 C 0.25923 0.83799 0.85123 0.0
C495 C 0.27513 0.83875 0.85726 0.0
C496 C 0.25652 0.84563 0.96527 0.0
C497 C 0.28125 0.84415 0.91676 0.0
C498 C 0.23191 0.84958 0.02788 0.0
C499 C 0.2456 0.83662 0.13745 0.0
N500 N 0.27196 0.84697 0.96906 0.0
N501 N 0.25384 0.83971 0.08233 0.0
H502 H 0.41927 1.00174 0.05977 0.0
H503 H 0.41991 0.99968 0.43975 0.0
H504 H 0.40738 0.04161 0.17259 0.0
H505 H 0.40891 0.95943 0.32773 0.0
H506 H 0.41345 0.01536 0.34412 0.0
H507 H 0.41359 0.98585 0.15569 0.0
C508 C 0.41503 0.00711 0.10416 0.0
C509 C 0.41387 0.02302 0.10827 0.0
C510 C 0.41204 0.00312 0.34094 0.0
C511 C 0.40785 0.00497 0.21895 0.0
C512 C 0.41571 0.99417 0.39561 0.0
C513 C 0.41502 0.97823 0.39162 0.0
C514 C 0.4081 0.99606 0.28124 0.0
C515 C 0.40958 0.97169 0.33304 0.0
C516 C 0.41182 0.99804 0.15899 0.0
C517 C 0.4084 0.02938 0.16717 0.0
N518 N 0.40671 0.9806 0.27959 0.0
N519 N 0.40597 0.02038 0.22073 0.0
H520 H 0.7099 0.84637 0.42392 0.0
H521 H 0.79358 0.84508 0.57906 0.0
H522 H 0.7503 0.8342 0.31518 0.0
H523 H 0.75277 0.83461 0.68822 0.0
H524 H 0.77785 0.85117 0.4828 0.0
H525 H 0.72584 0.85215 0.51986 0.0
C526 C 0.72216 0.84545 0.41937 0.0
C527 C 0.72878 0.83966 0.36162 0.0
C528 C 0.77235 0.84794 0.52844 0.0
C529 C 0.74702 0.84622 0.47116 0.0
C530 C 0.78129 0.84459 0.5836 0.0
C531 C 0.77447 0.83919 0.6416 0.0
C532 C 0.75648 0.84612 0.53172 0.0
C533 C 0.75849 0.83862 0.64432 0.0
C534 C 0.73122 0.84861 0.47437 0.0
C535 C 0.74472 0.83852 0.3589 0.0
N536 N 0.75004 0.84188 0.58995 0.0
N537 N 0.75329 0.84161 0.41312 0.0
H538 H 0.90668 0.04285 0.32213 0.0
H539 H 0.90704 0.95912 0.1675 0.0
H540 H 0.91843 0.00235 0.43103 0.0
H541 H 0.91776 0.99982 0.05801 0.0
H542 H 0.90112 0.97492 0.26374 0.0
H543 H 0.90064 0.02694 0.22639 0.0
C544 C 0.90746 0.03058 0.32676 0.0
C545 C 0.91321 0.02392 0.38449 0.0
C546 C 0.90437 0.98038 0.21803 0.0
C547 C 0.90635 0.00572 0.27517 0.0
C548 C 0.90762 0.9714 0.16288 0.0
C549 C 0.91304 0.97816 0.1048 0.0
C550 C 0.90632 0.99624 0.21465 0.0
C551 C 0.91373 0.99413 0.10198 0.0
C552 C 0.90414 0.02154 0.27188 0.0
C553 C 0.91414 0.00796 0.38732 0.0
N554 N 0.91057 0.00262 0.15634 0.0
N555 N 0.91091 0.99941 0.33321 0.0
H556 H 0.7537 0.17004 0.8063 0.0
H557 H 0.70892 0.15547 0.07709 0.0
H558 H 0.7922 0.15761 0.92661 0.0
H559 H 0.74882 0.17226 0.17758 0.0
H560 H 0.7248 0.14927 0.98151 0.0
H561 H 0.73674 0.16406 0.8981 0.0
C562 C 0.75854 0.16554 0.85136 0.0
C563 C 0.77438 0.16431 0.85879 0.0
C564 C 0.73009 0.15409 0.02491 0.0
C565 C 0.75505 0.15771 0.96475 0.0
C566 C 0.72108 0.15745 0.07987 0.0
C567 C 0.72752 0.16462 0.13507 0.0
C568 C 0.74566 0.15785 0.02547 0.0
C569 C 0.74335 0.16693 0.13573 0.0
C570 C 0.74884 0.16208 0.90382 0.0
C571 C 0.78005 0.15861 0.91859 0.0
N572 N 0.75185 0.16371 0.08149 0.0
N573 N 0.77043 0.15595 0.96991 0.0
H574 H 0.58368 1.00142 0.9399 0.0
H575 H 0.58368 0.00341 0.55991 0.0
H576 H 0.59581 0.96154 0.82766 0.0
H577 H 0.59441 0.04369 0.67226 0.0
H578 H 0.59003 0.98775 0.65574 0.0
H579 H 0.58949 0.01729 0.84408 0.0
C580 C 0.58799 0.99605 0.89567 0.0
C581 C 0.58919 0.98013 0.89168 0.0
C582 C 0.5914 0.99999 0.65895 0.0
C583 C 0.59537 0.99817 0.7811 0.0
C584 C 0.5878 0.00893 0.60416 0.0
C585 C 0.58844 0.02488 0.60819 0.0
C586 C 0.59522 0.00706 0.71877 0.0
C587 C 0.59379 0.03143 0.66692 0.0
C588 C 0.59129 0.0051 0.84089 0.0
C589 C 0.59476 0.97376 0.83298 0.0
N590 N 0.59659 0.02253 0.72045 0.0
N591 N 0.59726 0.98276 0.77944 0.0
H592 H 0.70943 0.65794 0.92364 0.0
H593 H 0.79327 0.65803 0.0774 0.0
H594 H 0.74988 0.66955 0.81411 0.0
H595 H 0.75272 0.66917 0.18717 0.0
H596 H 0.77736 0.65221 0.98133 0.0
H597 H 0.72539 0.65199 0.01932 0.0
C598 C 0.72169 0.65871 0.91887 0.0
C599 C 0.72833 0.66439 0.86096 0.0
C600 C 0.77195 0.65553 0.02705 0.0
C601 C 0.74659 0.65762 0.9702 0.0
C602 C 0.78099 0.65872 0.0821 0.0
C603 C 0.7743 0.66422 0.14023 0.0
C604 C 0.75612 0.6576 0.03059 0.0
C605 C 0.75835 0.66507 0.14317 0.0
C606 C 0.73077 0.65544 0.97371 0.0
C607 C 0.74429 0.66532 0.85795 0.0
N608 N 0.7498 0.66195 0.08892 0.0
N609 N 0.75287 0.66213 0.91203 0.0
H610 H 0.58477 0.50419 0.44106 0.0
H611 H 0.58404 0.50066 0.06193 0.0
H612 H 0.59588 0.54391 0.32583 0.0
H613 H 0.59647 0.46118 0.17617 0.0
H614 H 0.5902 0.51688 0.15629 0.0
H615 H 0.59092 0.4881 0.34631 0.0
C616 C 0.58894 0.50949 0.39641 0.0
C617 C 0.58974 0.52541 0.39125 0.0
C618 C 0.59199 0.5047 0.16019 0.0
C619 C 0.59628 0.50711 0.28191 0.0
C620 C 0.58849 0.49545 0.10626 0.0
C621 C 0.58968 0.47955 0.11129 0.0
C622 C 0.59625 0.49798 0.22021 0.0
C623 C 0.59543 0.47339 0.17008 0.0
C624 C 0.59242 0.5003 0.34225 0.0
C625 C 0.59514 0.53168 0.33205 0.0
N626 N 0.59812 0.48258 0.22284 0.0
N627 N 0.59781 0.52255 0.27912 0.0
H628 H 0.75577 0.3337 0.31064 0.0
H629 H 0.75116 0.33312 0.68914 0.0
H630 H 0.79515 0.34513 0.42745 0.0
H631 H 0.71206 0.34585 0.57308 0.0
H632 H 0.76766 0.33924 0.59565 0.0
H633 H 0.73941 0.3399 0.4045 0.0
C634 C 0.76094 0.33796 0.35544 0.0
C635 C 0.77684 0.33885 0.36132 0.0
C636 C 0.7555 0.3411 0.59118 0.0
C637 C 0.75824 0.34543 0.46965 0.0
C638 C 0.74609 0.33763 0.6446 0.0
C639 C 0.73021 0.33892 0.63879 0.0
C640 C 0.74896 0.34543 0.53088 0.0
C641 C 0.72424 0.34473 0.57977 0.0
C642 C 0.7516 0.34147 0.40908 0.0
C643 C 0.78295 0.34433 0.4207 0.0
N644 N 0.73358 0.34739 0.52749 0.0
N645 N 0.77367 0.34703 0.47315 0.0
H646 H 0.90843 0.45983 0.82405 0.0
H647 H 0.90817 0.54297 0.66338 0.0
H648 H 0.91963 0.50088 0.93023 0.0
H649 H 0.91922 0.50196 0.55662 0.0
H650 H 0.90242 0.52748 0.76069 0.0
H651 H 0.90245 0.4753 0.72686 0.0
C652 C 0.90911 0.47213 0.82774 0.0
C653 C 0.91467 0.47908 0.88518 0.0
C654 C 0.90571 0.52188 0.71537 0.0
C655 C 0.90788 0.49677 0.77423 0.0
C656 C 0.90886 0.53068 0.6596 0.0
C657 C 0.91433 0.52375 0.60193 0.0
C658 C 0.90779 0.50603 0.71307 0.0
C659 C 0.91516 0.50778 0.60022 0.0
C660 C 0.90582 0.48091 0.77205 0.0
C661 C 0.91549 0.49505 0.8868 0.0
N662 N 0.91209 0.49946 0.65518 0.0
N663 N 0.91229 0.50335 0.83193 0.0
H664 H 0.21099 0.34857 0.91311 0.0
H665 H 0.25533 0.33347 0.18467 0.0
H666 H 0.25084 0.33158 0.81298 0.0
H667 H 0.29411 0.34542 0.06516 0.0
H668 H 0.23854 0.33968 0.09257 0.0
H669 H 0.22683 0.35453 0.0091 0.0
C670 C 0.22314 0.3465 0.91052 0.0
C671 C 0.22957 0.33934 0.85527 0.0
C672 C 0.25067 0.34151 0.08709 0.0
C673 C 0.24766 0.34582 0.96537 0.0
C674 C 0.26027 0.33792 0.13973 0.0
C675 C 0.27613 0.33894 0.13261 0.0
C676 C 0.257 0.34581 0.02629 0.0
C677 C 0.28194 0.34458 0.07294 0.0
C678 C 0.23213 0.34971 0.96572 0.0
C679 C 0.24538 0.3369 0.85485 0.0
N680 N 0.2724 0.34738 0.02145 0.0
N681 N 0.25385 0.33998 0.90933 0.0
H682 H 0.41996 0.49972 0.56063 0.0
H683 H 0.42059 0.50333 0.93971 0.0
H684 H 0.40866 0.46006 0.67591 0.0
H685 H 0.40827 0.54281 0.8253 0.0
H686 H 0.41441 0.48711 0.84538 0.0
H687 H 0.41383 0.51585 0.65528 0.0
C688 C 0.41575 0.49443 0.60527 0.0
C689 C 0.41489 0.47852 0.61048 0.0
C690 C 0.41265 0.49929 0.84142 0.0
C691 C 0.40837 0.49687 0.71971 0.0
C692 C 0.41615 0.50854 0.89534 0.0
C693 C 0.415 0.52444 0.89026 0.0
C694 C 0.40842 0.50601 0.78137 0.0
C695 C 0.40928 0.5306 0.83143 0.0
C696 C 0.41228 0.50365 0.65937 0.0
C697 C 0.40945 0.47228 0.66966 0.0
N698 N 0.40659 0.52141 0.77868 0.0
N699 N 0.40679 0.48144 0.72254 0.0
H700 H 0.25248 0.66981 0.31026 0.0
H701 H 0.24999 0.66977 0.69019 0.0
H702 H 0.2922 0.65765 0.42356 0.0
H703 H 0.20985 0.65909 0.57685 0.0
H704 H 0.26576 0.66342 0.59472 0.0
H705 H 0.23648 0.66398 0.40562 0.0
C706 C 0.25779 0.66548 0.35462 0.0
C707 C 0.2737 0.66429 0.35905 0.0
C708 C 0.25353 0.66206 0.59121 0.0
C709 C 0.25551 0.6581 0.46911 0.0
C710 C 0.24452 0.66566 0.64578 0.0
C711 C 0.22858 0.66503 0.64138 0.0
C712 C 0.24653 0.65825 0.53121 0.0
C713 C 0.22209 0.6597 0.58248 0.0
C714 C 0.24866 0.66218 0.40913 0.0
C715 C 0.27998 0.6587 0.4179 0.0
N716 N 0.23107 0.6569 0.52915 0.0
N717 N 0.27091 0.6562 0.47118 0.0
H718 H 0.08403 0.50229 0.43475 0.0
H719 H 0.08408 0.50295 0.05422 0.0
H720 H 0.09539 0.46188 0.32453 0.0
H721 H 0.09475 0.54355 0.16448 0.0
H722 H 0.09028 0.48758 0.15105 0.0
H723 H 0.09002 0.51777 0.33798 0.0
C724 C 0.08821 0.49671 0.39074 0.0
C725 C 0.08913 0.48077 0.38761 0.0
C726 C 0.09167 0.49983 0.15361 0.0
C727 C 0.09551 0.49837 0.27595 0.0
C728 C 0.08815 0.50861 0.09825 0.0
C729 C 0.08881 0.52456 0.10138 0.0
C730 C 0.09544 0.50707 0.2131 0.0
C731 C 0.0941 0.53129 0.15984 0.0
C732 C 0.0916 0.50555 0.33542 0.0
C733 C 0.09455 0.47413 0.32919 0.0
N734 N 0.09683 0.52254 0.21392 0.0
N735 N 0.09715 0.48293 0.27513 0.0
H736 H 0.11309 0.09198 0.03953 0.0
H737 H 0.12378 0.17326 0.21346 0.0
H738 H 0.07985 0.12819 0.03455 0.0
H739 H 0.16045 0.14075 0.19648 0.0
H740 H 0.10713 0.15578 0.15445 0.0
H741 H 0.13052 0.10891 0.09949 0.0
C742 C 0.10953 0.10354 0.05015 0.0
C743 C 0.09496 0.10865 0.03185 0.0
C744 C 0.11879 0.15239 0.16381 0.0
C745 C 0.11472 0.12795 0.10164 0.0
C746 C 0.12831 0.16235 0.19807 0.0
C747 C 0.14358 0.15851 0.21002 0.0
C748 C 0.12451 0.1384 0.14106 0.0
C749 C 0.14875 0.14418 0.18857 0.0
C750 C 0.11945 0.11316 0.08478 0.0
C751 C 0.09094 0.12371 0.04749 0.0
N752 N 0.13926 0.13467 0.15488 0.0
N753 N 0.1007 0.13275 0.08172 0.0
H754 H 0.16202 0.86496 0.29619 0.0
H755 H 0.08025 0.87605 0.46525 0.0
H756 H 0.12607 0.83143 0.2936 0.0
H757 H 0.1127 0.91274 0.44739 0.0
H758 H 0.09799 0.85919 0.4089 0.0
H759 H 0.14489 0.88257 0.35407 0.0
C760 C 0.15048 0.86137 0.30692 0.0
C761 C 0.1455 0.84667 0.28989 0.0
C762 C 0.10131 0.8709 0.4175 0.0
C763 C 0.12596 0.86664 0.35724 0.0
C764 C 0.0912 0.88054 0.45022 0.0
C765 C 0.09495 0.89588 0.46111 0.0
C766 C 0.11536 0.87657 0.39521 0.0
C767 C 0.10934 0.901 0.44025 0.0
C768 C 0.14075 0.87139 0.34036 0.0
C769 C 0.13045 0.84262 0.3056 0.0
N770 N 0.119 0.89138 0.40801 0.0
N771 N 0.1213 0.85248 0.3386 0.0
H772 H 0.42378 0.87489 0.5374 0.0
H773 H 0.34205 0.86329 0.70578 0.0
H774 H 0.39082 0.91121 0.55189 0.0
H775 H 0.37876 0.83066 0.71471 0.0
H776 H 0.35897 0.88091 0.64688 0.0
H777 H 0.40632 0.85811 0.59577 0.0
C778 C 0.41278 0.87931 0.55213 0.0
C779 C 0.4088 0.89453 0.53967 0.0
C780 C 0.36332 0.86994 0.66224 0.0
C781 C 0.38871 0.87531 0.60785 0.0
C782 C 0.35371 0.85991 0.69627 0.0
C783 C 0.35897 0.84544 0.71532 0.0
C784 C 0.37826 0.86542 0.64675 0.0
C785 C 0.37416 0.84166 0.70112 0.0
C786 C 0.40283 0.86972 0.58602 0.0
C787 C 0.39436 0.89956 0.56024 0.0
N788 N 0.38319 0.85151 0.66744 0.0
N789 N 0.38485 0.88999 0.59356 0.0
H790 H 0.33816 0.13858 0.7931 0.0
H791 H 0.38831 0.08706 0.94742 0.0
H792 H 0.3778 0.16736 0.77606 0.0
H793 H 0.41819 0.12587 0.96456 0.0
H794 H 0.37026 0.10275 0.88615 0.0
H795 H 0.35329 0.1202 0.85526 0.0
C796 C 0.35014 0.14088 0.80121 0.0
C797 C 0.35671 0.15454 0.77897 0.0
C798 C 0.38057 0.108 0.90437 0.0
C799 C 0.37424 0.13348 0.85047 0.0
C800 C 0.39092 0.09898 0.9396 0.0
C801 C 0.4048 0.10514 0.96148 0.0
C802 C 0.38412 0.12333 0.89095 0.0
C803 C 0.40765 0.1206 0.9489 0.0
C804 C 0.35883 0.13034 0.83692 0.0
C805 C 0.37222 0.157 0.79193 0.0
N806 N 0.39749 0.12908 0.91419 0.0
N807 N 0.38038 0.14666 0.82706 0.0
H808 H 0.88877 0.91199 0.9508 0.0
H809 H 0.87714 0.83006 0.78386 0.0
H810 H 0.92187 0.87567 0.95633 0.0
H811 H 0.84078 0.86295 0.79923 0.0
H812 H 0.89405 0.84767 0.84078 0.0
H813 H 0.87108 0.89491 0.8931 0.0
C814 C 0.89225 0.90038 0.94079 0.0
C815 C 0.90685 0.89528 0.95855 0.0
C816 C 0.8824 0.85111 0.83152 0.0
C817 C 0.88679 0.8758 0.89135 0.0
C818 C 0.87274 0.84108 0.79846 0.0
C819 C 0.85748 0.84499 0.78668 0.0
C820 C 0.87684 0.86525 0.85324 0.0
C821 C 0.85246 0.85946 0.80705 0.0
C822 C 0.88218 0.89068 0.90744 0.0
C823 C 0.91076 0.88014 0.94374 0.0
N824 N 0.8621 0.86904 0.8396 0.0
N825 N 0.90086 0.87102 0.91077 0.0
H826 H 0.87988 0.16944 0.73314 0.0
H827 H 0.92094 0.12745 0.51057 0.0
H828 H 0.8421 0.13966 0.68938 0.0
H829 H 0.89042 0.09032 0.55512 0.0
H830 H 0.90434 0.14467 0.57098 0.0
H831 H 0.89668 0.15256 0.67204 0.0
C832 C 0.8751 0.1593 0.7108 0.0
C833 C 0.8595 0.15607 0.71595 0.0
C834 C 0.90132 0.13273 0.56848 0.0
C835 C 0.87866 0.1369 0.64285 0.0
C836 C 0.91069 0.12291 0.53289 0.0
C837 C 0.90717 0.10736 0.52823 0.0
C838 C 0.88834 0.127 0.60059 0.0
C839 C 0.89361 0.10222 0.55761 0.0
C840 C 0.88469 0.14976 0.67483 0.0
C841 C 0.85405 0.14263 0.68653 0.0
N842 N 0.88472 0.112 0.59287 0.0
N843 N 0.86361 0.13356 0.65095 0.0
H844 H 0.61261 0.09123 0.45328 0.0
H845 H 0.62341 0.17285 0.28294 0.0
H846 H 0.57973 0.12773 0.46229 0.0
H847 H 0.65996 0.14014 0.29697 0.0
H848 H 0.60686 0.15538 0.34242 0.0
H849 H 0.63005 0.10823 0.39382 0.0
C850 C 0.60914 0.10286 0.44369 0.0
C851 C 0.59465 0.10804 0.46289 0.0
C852 C 0.61848 0.15195 0.33235 0.0
C853 C 0.61442 0.12741 0.39369 0.0
C854 C 0.62793 0.1619 0.29783 0.0
C855 C 0.64314 0.158 0.28487 0.0
C856 C 0.62418 0.13789 0.35432 0.0
C857 C 0.64831 0.14362 0.30569 0.0
C858 C 0.61906 0.11252 0.40934 0.0
C859 C 0.59075 0.12319 0.44857 0.0
N860 N 0.63887 0.1341 0.33961 0.0
N861 N 0.6005 0.13227 0.41457 0.0
H862 H 0.61525 0.91621 0.05342 0.0
H863 H 0.66618 0.86468 0.20253 0.0
H864 H 0.58543 0.87732 0.03737 0.0
H865 H 0.6269 0.8354 0.21947 0.0
H866 H 0.65066 0.88318 0.14306 0.0
H867 H 0.63356 0.90051 0.11313 0.0
C868 C 0.6127 0.90427 0.0612 0.0
C869 C 0.59877 0.89809 0.04002 0.0
C870 C 0.64528 0.87291 0.16081 0.0
C871 C 0.61976 0.87988 0.10872 0.0
C872 C 0.6542 0.86229 0.19501 0.0
C873 C 0.64785 0.84846 0.21635 0.0
C874 C 0.62985 0.86967 0.1479 0.0
C875 C 0.63231 0.8459 0.20421 0.0
C876 C 0.6232 0.89525 0.09553 0.0
C877 C 0.59601 0.88261 0.05249 0.0
N878 N 0.62393 0.85632 0.17054 0.0
N879 N 0.60632 0.87411 0.08627 0.0
H880 H 0.58218 0.62971 0.51703 0.0
H881 H 0.62463 0.67218 0.73364 0.0
H882 H 0.61268 0.59252 0.56074 0.0
H883 H 0.66171 0.64147 0.69102 0.0
H884 H 0.60735 0.65532 0.6749 0.0
H885 H 0.59902 0.64694 0.57608 0.0
C886 C 0.59246 0.62516 0.53896 0.0
C887 C 0.59592 0.60959 0.53436 0.0
C888 C 0.61929 0.65231 0.67739 0.0
C889 C 0.61505 0.62925 0.60523 0.0
C890 C 0.62914 0.66184 0.71204 0.0
C891 C 0.6447 0.65834 0.71682 0.0
C892 C 0.62499 0.63918 0.64629 0.0
C893 C 0.64981 0.64465 0.68842 0.0
C894 C 0.60199 0.63499 0.57379 0.0
C895 C 0.60954 0.60443 0.56319 0.0
N896 N 0.64 0.6356 0.65406 0.0
N897 N 0.61858 0.61423 0.59769 0.0
H898 H 0.61545 0.41599 0.95059 0.0
H899 H 0.66646 0.36493 0.79843 0.0
H900 H 0.58615 0.37674 0.96777 0.0
H901 H 0.62705 0.33593 0.77869 0.0
H902 H 0.65103 0.38319 0.85993 0.0
H903 H 0.63372 0.40056 0.88921 0.0
C904 C 0.61301 0.40404 0.94272 0.0
C905 C 0.59924 0.39767 0.96469 0.0
C906 C 0.64562 0.37303 0.84108 0.0
C907 C 0.62016 0.37979 0.8941 0.0
C908 C 0.65448 0.36256 0.80576 0.0
C909 C 0.64806 0.34887 0.78304 0.0
C910 C 0.63019 0.36978 0.85375 0.0
C911 C 0.63252 0.34632 0.79499 0.0
C912 C 0.62349 0.39517 0.90747 0.0
C913 C 0.5966 0.38217 0.95207 0.0
N914 N 0.62419 0.35658 0.82981 0.0
N915 N 0.60688 0.37384 0.91733 0.0
H916 H 0.84308 0.36338 0.20614 0.0
H917 H 0.92457 0.37613 0.03691 0.0
H918 H 0.88032 0.33136 0.21546 0.0
H919 H 0.89082 0.41176 0.04924 0.0
H920 H 0.90743 0.35912 0.09572 0.0
H921 H 0.85963 0.38113 0.14603 0.0
C922 C 0.85478 0.36016 0.19642 0.0
C923 C 0.8603 0.34583 0.216 0.0
C924 C 0.90369 0.37063 0.08538 0.0
C925 C 0.87918 0.36596 0.14609 0.0
C926 C 0.91346 0.38035 0.05124 0.0
C927 C 0.90917 0.39545 0.03806 0.0
C928 C 0.88944 0.37596 0.10677 0.0
C929 C 0.8946 0.40021 0.05814 0.0
C930 C 0.86418 0.37026 0.16171 0.0
C931 C 0.87553 0.34225 0.2015 0.0
N932 N 0.88528 0.39052 0.09175 0.0
N933 N 0.88436 0.35217 0.1672 0.0
H934 H 0.87771 0.67241 0.28573 0.0
H935 H 0.88951 0.58995 0.44752 0.0
H936 H 0.84145 0.63934 0.29871 0.0
H937 H 0.92273 0.62618 0.45352 0.0
H938 H 0.87176 0.60721 0.39124 0.0
H939 H 0.89467 0.65465 0.34142 0.0
C940 C 0.87334 0.66132 0.29957 0.0
C941 C 0.85809 0.6574 0.28746 0.0
C942 C 0.8829 0.61139 0.40536 0.0
C943 C 0.87752 0.63696 0.35259 0.0
C944 C 0.893 0.60158 0.43791 0.0
C945 C 0.90766 0.6066 0.45537 0.0
C946 C 0.88752 0.62629 0.38982 0.0
C947 C 0.91158 0.62176 0.44112 0.0
C948 C 0.88303 0.6512 0.33192 0.0
C949 C 0.85313 0.64284 0.30682 0.0
N950 N 0.90163 0.63099 0.40895 0.0
N951 N 0.86279 0.63317 0.33869 0.0
H952 H 0.42266 0.37408 0.48258 0.0
H953 H 0.38131 0.33222 0.26007 0.0
H954 H 0.39214 0.41126 0.43899 0.0
H955 H 0.34376 0.36231 0.30341 0.0
H956 H 0.39822 0.34898 0.32127 0.0
H957 H 0.40608 0.35694 0.42172 0.0
C958 C 0.41242 0.37865 0.46034 0.0
C959 C 0.40889 0.39419 0.46547 0.0
C960 C 0.38626 0.35187 0.31839 0.0
C961 C 0.39006 0.37464 0.39257 0.0
C962 C 0.37661 0.3424 0.28235 0.0
C963 C 0.36103 0.34576 0.27702 0.0
C964 C 0.38033 0.36479 0.35028 0.0
C965 C 0.35568 0.35924 0.30639 0.0
C966 C 0.40305 0.36887 0.42449 0.0
C967 C 0.39533 0.39937 0.43616 0.0
N968 N 0.3653 0.36824 0.34204 0.0
N969 N 0.38644 0.38963 0.40066 0.0
H970 H 0.38914 0.58779 0.0504 0.0
H971 H 0.33758 0.63858 0.20041 0.0
H972 H 0.41826 0.62718 0.03348 0.0
H973 H 0.37659 0.6682 0.21849 0.0
H974 H 0.35328 0.62033 0.14031 0.0
H975 H 0.37069 0.60317 0.11088 0.0
C976 C 0.39151 0.59976 0.05815 0.0
C977 C 0.40528 0.60619 0.03649 0.0
C978 C 0.35856 0.63062 0.15848 0.0
C979 C 0.38413 0.62402 0.10605 0.0
C980 C 0.34954 0.64109 0.19303 0.0
C981 C 0.35576 0.65495 0.21484 0.0
C982 C 0.37395 0.63404 0.14569 0.0
C983 C 0.37127 0.65767 0.20286 0.0
C984 C 0.38092 0.6086 0.09289 0.0
C985 C 0.40781 0.62171 0.04894 0.0
N986 N 0.37975 0.6474 0.16881 0.0
N987 N 0.39742 0.63002 0.08316 0.0
H988 H 0.12516 0.67325 0.78126 0.0
H989 H 0.11371 0.59121 0.94727 0.0
H990 H 0.16171 0.6406 0.79798 0.0
H991 H 0.08035 0.6273 0.9513 0.0
H992 H 0.13143 0.60842 0.89053 0.0
H993 H 0.10827 0.65552 0.83745 0.0
C994 C 0.12961 0.66226 0.79603 0.0
C995 C 0.14492 0.65845 0.78483 0.0
C996 C 0.12027 0.61258 0.90434 0.0
C997 C 0.12556 0.63805 0.85052 0.0
C998 C 0.11018 0.60279 0.93714 0.0
C999 C 0.09549 0.60779 0.95417 0.0
C1000 C 0.11559 0.62742 0.88809 0.0
C1001 C 0.09152 0.6229 0.93925 0.0
C1002 C 0.11996 0.65216 0.82866 0.0
C1003 C 0.14999 0.64401 0.80537 0.0
N1004 N 0.10144 0.6321 0.90682 0.0
N1005 N 0.14035 0.63436 0.83748 0.0
H1006 H 0.16259 0.36506 0.70124 0.0
H1007 H 0.08089 0.37723 0.53303 0.0
H1008 H 0.12575 0.33255 0.70885 0.0
H1009 H 0.11404 0.41338 0.54817 0.0
H1010 H 0.0983 0.36029 0.59073 0.0
H1011 H 0.14577 0.38282 0.64254 0.0
C1012 C 0.15092 0.36173 0.69147 0.0
C1013 C 0.1456 0.34726 0.71011 0.0
C1014 C 0.10185 0.3719 0.58126 0.0
C1015 C 0.12642 0.3674 0.64179 0.0
C1016 C 0.09193 0.38158 0.54775 0.0
C1017 C 0.09597 0.3968 0.53569 0.0
C1018 C 0.11601 0.37738 0.60314 0.0
C1019 C 0.11045 0.40173 0.55622 0.0
C1020 C 0.14137 0.37184 0.65756 0.0
C1021 C 0.1304 0.34355 0.69559 0.0
N1022 N 0.11993 0.39207 0.5892 0.0
N1023 N 0.12143 0.35348 0.66205 0.0
H1024 H 0.16296 0.21354 0.07047 0.0
H1025 H 0.21156 0.27874 0.89444 0.0
H1026 H 0.21207 0.21563 0.0757 0.0
H1027 H 0.16242 0.27865 0.90226 0.0
H1028 H 0.21195 0.25482 0.95488 0.0
H1029 H 0.16263 0.23577 -0.00144 0.0
C1030 C 0.17371 0.21849 0.05533 0.0
C1031 C 0.18758 0.21279 0.07966 0.0
C1032 C 0.20107 0.26002 0.94363 0.0
C1033 C 0.18723 0.23848 -0.00164 0.0
C1034 C 0.20082 0.27375 0.90937 0.0
C1035 C 0.18691 0.28074 0.89321 0.0
C1036 C 0.18731 0.25312 0.96188 0.0
C1037 C 0.17339 0.27373 0.91402 0.0
C1038 C 0.17349 0.23127 0.01472 0.0
C1039 C 0.20113 0.21961 0.05811 0.0
N1040 N 0.17392 0.26025 0.94708 0.0
N1041 N 0.20061 0.23223 0.01933 0.0
H1042 H 0.97522 0.96259 0.13584 0.0
H1043 H 0.04076 0.91506 0.31497 0.0
H1044 H 0.97565 0.91348 0.14737 0.0
H1045 H 0.03788 0.96412 0.32037 0.0
H1046 H 0.01876 0.91439 0.24186 0.0
H1047 H 0.99919 0.96337 0.19594 0.0
C1048 C 0.9803 0.95194 0.15146 0.0
C1049 C 0.97338 0.93792 0.13655 0.0
C1050 C 0.02303 0.92532 0.2583 0.0
C1051 C 1.00105 0.93878 0.20485 0.0
C1052 C 0.0357 0.92574 0.29959 0.0
C1053 C 0.04108 0.93968 0.32438 0.0
C1054 C 0.01564 0.93895 0.24168 0.0
C1055 C 0.03412 0.95313 0.30248 0.0
C1056 C 0.99406 0.95242 0.18554 0.0
C1057 C 0.98052 0.92453 0.15817 0.0
N1058 N 0.02162 0.95242 0.26302 0.0
N1059 N 0.99401 0.92529 0.19106 0.0
H1060 H 0.29144 0.72512 0.39676 0.0
H1061 H 0.34021 0.78976 0.57591 0.0
H1062 H 0.34055 0.72461 0.408 0.0
H1063 H 0.29107 0.78808 0.57916 0.0
H1064 H 0.3405 0.76755 0.50388 0.0
H1065 H 0.29113 0.74903 0.45733 0.0
C1066 C 0.30219 0.72997 0.41247 0.0
C1067 C 0.31607 0.72282 0.39725 0.0
C1068 C 0.32964 0.77213 0.51965 0.0
C1069 C 0.31576 0.75043 0.46606 0.0
C1070 C 0.32944 0.78491 0.56033 0.0
C1071 C 0.31558 0.79071 0.58415 0.0
C1072 C 0.31588 0.76505 0.50266 0.0
C1073 C 0.30201 0.78401 0.56201 0.0
C1074 C 0.30198 0.7437 0.4468 0.0
C1075 C 0.3296 0.72966 0.41903 0.0
N1076 N 0.30251 0.7714 0.52314 0.0
N1077 N 0.3291 0.74314 0.45213 0.0
H1078 H 0.52675 0.04082 0.64361 0.0
H1079 H 0.46119 0.08833 0.82267 0.0
H1080 H 0.52632 0.08992 0.65522 0.0
H1081 H 0.46395 0.03925 0.82717 0.0
H1082 H 0.48332 0.08902 0.75028 0.0
H1083 H 0.50283 0.04003 0.70406 0.0
C1084 C 0.52168 0.05146 0.65936 0.0
C1085 C 0.52858 0.06549 0.64431 0.0
C1086 C 0.47899 0.07808 0.76639 0.0
C1087 C 0.50097 0.06462 0.71298 0.0
C1088 C 0.46626 0.07766 0.80727 0.0
C1089 C 0.4608 0.0637 0.83156 0.0
C1090 C 0.48636 0.06446 0.74966 0.0
C1091 C 0.46777 0.05026 0.80964 0.0
C1092 C 0.50796 0.05098 0.69363 0.0
C1093 C 0.52147 0.07887 0.66611 0.0
N1094 N 0.48033 0.05098 0.77057 0.0
N1095 N 0.50801 0.07811 0.69915 0.0
H1096 H 0.16297 0.72629 0.5941 0.0
H1097 H 0.21501 0.78982 0.4229 0.0
H1098 H 0.21203 0.72734 0.60904 0.0
H1099 H 0.16589 0.79167 0.42891 0.0
H1100 H 0.21428 0.76768 0.49606 0.0
H1101 H 0.16384 0.75033 0.533 0.0
C1102 C 0.17392 0.73147 0.5839 0.0
C1103 C 0.18743 0.72479 0.60668 0.0
C1104 C 0.20367 0.77307 0.48207 0.0
C1105 C 0.18852 0.75238 0.53787 0.0
C1106 C 0.2041 0.78583 0.44093 0.0
C1107 C 0.19049 0.79251 0.41918 0.0
C1108 C 0.18953 0.76695 0.5012 0.0
C1109 C 0.17667 0.78677 0.44379 0.0
C1110 C 0.17441 0.74527 0.54966 0.0
C1111 C 0.2013 0.7321 0.59259 0.0
N1112 N 0.17653 0.77421 0.48269 0.0
N1113 N 0.20149 0.74548 0.55917 0.0
H1114 H 0.46492 0.96371 0.67547 0.0
H1115 H 0.52974 0.91274 0.84447 0.0
H1116 H 0.4646 0.91454 0.67619 0.0
H1117 H 0.52781 0.96178 0.85843 0.0
H1118 H 0.5057 0.91313 0.78307 0.0
H1119 H 0.48712 0.96326 0.74832 0.0
C1120 C 0.46926 0.95284 0.69224 0.0
C1121 C 0.46299 0.93915 0.66914 0.0
C1122 C 0.51057 0.9238 0.79957 0.0
C1123 C 0.48862 0.93852 0.75086 0.0
C1124 C 0.52437 0.92358 0.83399 0.0
C1125 C 0.5308 0.93723 0.85661 0.0
C1126 C 0.50321 0.93777 0.78753 0.0
C1127 C 0.52325 0.95096 0.84215 0.0
C1128 C 0.48206 0.95257 0.7332 0.0
C1129 C 0.46918 0.92538 0.69217 0.0
N1130 N 0.50988 0.95087 0.80866 0.0
N1131 N 0.48176 0.92541 0.731 0.0
H1132 H 0.2917 0.21504 0.9068 0.0
H1133 H 0.34367 0.27955 0.07304 0.0
H1134 H 0.34088 0.21445 0.90447 0.0
H1135 H 0.29462 0.27827 0.08736 0.0
H1136 H 0.34291 0.25568 0.01055 0.0
H1137 H 0.29253 0.23754 0.97784 0.0
C1138 C 0.30266 0.21941 0.92245 0.0
C1139 C 0.31623 0.21293 0.89916 0.0
C1140 C 0.33232 0.26066 0.02729 0.0
C1141 C 0.31729 0.23889 0.97887 0.0
C1142 C 0.33275 0.27437 0.06232 0.0
C1143 C 0.31921 0.28091 0.08553 0.0
C1144 C 0.31824 0.2535 0.01528 0.0
C1145 C 0.30536 0.27361 0.07071 0.0
C1146 C 0.30314 0.23237 0.96239 0.0
C1147 C 0.33012 0.21916 0.9207 0.0
N1148 N 0.30525 0.26031 0.03673 0.0
N1149 N 0.33029 0.23188 0.95865 0.0
H1150 H 0.04012 0.08869 0.17067 0.0
H1151 H 0.97506 0.03993 0.34698 0.0
H1152 H 0.03783 0.03962 0.1621 0.0
H1153 H 0.97456 0.08902 0.33448 0.0
H1154 H 0.99901 0.03954 0.28646 0.0
H1155 H 0.01787 0.08886 0.24235 0.0
C1156 C 0.03512 0.07791 0.18503 0.0
C1157 C 0.04077 0.06411 0.15982 0.0
C1158 C 0.99366 0.0504 0.2967 0.0
C1159 C 0.01505 0.06427 0.2409 0.0
C1160 C 0.97993 0.05065 0.33099 0.0
C1161 C 0.97277 0.06455 0.34583 0.0
C1162 C 1.0004 0.06416 0.27724 0.0
C1163 C 0.97961 0.07805 0.32375 0.0
C1164 C 0.02232 0.07804 0.2255 0.0
C1165 C 0.03388 0.05051 0.18041 0.0
N1166 N 0.9931 0.07752 0.29081 0.0
N1167 N 0.02125 0.05094 0.21913 0.0
H1168 H 0.78855 0.78942 0.92861 0.0
H1169 H 0.84026 0.72535 0.09832 0.0
H1170 H 0.83772 0.79027 0.92926 0.0
H1171 H 0.79121 0.72682 0.1132 0.0
H1172 H 0.83958 0.74943 0.03741 0.0
H1173 H 0.78925 0.76745 0.00272 0.0
C1174 C 0.79947 0.78525 0.94567 0.0
C1175 C 0.81309 0.79158 0.92213 0.0
C1176 C 0.82897 0.74446 0.05405 0.0
C1177 C 0.81401 0.76622 0.00525 0.0
C1178 C 0.82936 0.73064 0.08821 0.0
C1179 C 0.81579 0.72404 0.11084 0.0
C1180 C 0.81492 0.75168 0.04224 0.0
C1181 C 0.80198 0.73149 0.09686 0.0
C1182 C 0.79989 0.77259 0.98735 0.0
C1183 C 0.82693 0.78563 0.94555 0.0
N1184 N 0.80191 0.74488 0.06353 0.0
N1185 N 0.82704 0.77317 0.98503 0.0
H1186 H 0.02769 0.04153 0.84616 0.0
H1187 H 0.96192 0.08868 0.66681 0.0
H1188 H 0.02673 0.09066 0.83733 0.0
H1189 H 0.96465 0.0396 0.66478 0.0
H1190 H 0.98407 0.08956 0.73914 0.0
H1191 H 0.00383 0.04064 0.7854 0.0
C1192 C 0.02252 0.05216 0.83096 0.0
C1193 C 0.02925 0.06621 0.84692 0.0
C1194 C 0.97973 0.07858 0.7236 0.0
C1195 C 1.00169 0.06524 0.77782 0.0
C1196 C 0.96699 0.07805 0.68273 0.0
C1197 C 0.96151 0.06403 0.6592 0.0
C1198 C 0.98709 0.065 0.74101 0.0
C1199 C 0.96848 0.05065 0.68174 0.0
C1200 C 0.00882 0.05163 0.79651 0.0
C1201 C 0.02201 0.07958 0.82575 0.0
N1202 N 0.98105 0.05147 0.72075 0.0
N1203 N 0.00857 0.07877 0.79246 0.0
H1204 H 0.66195 0.28041 0.5821 0.0
H1205 H 0.71237 0.21498 0.41413 0.0
H1206 H 0.71098 0.27812 0.59586 0.0
H1207 H 0.66319 0.21511 0.41496 0.0
H1208 H 0.71212 0.23743 0.48553 0.0
H1209 H 0.66216 0.25647 0.52004 0.0
C1210 C 0.67275 0.27499 0.57136 0.0
C1211 C 0.68645 0.28127 0.59426 0.0
C1212 C 0.70138 0.23242 0.47071 0.0
C1213 C 0.68678 0.25379 0.52447 0.0
C1214 C 0.70153 0.21949 0.43058 0.0
C1215 C 0.68779 0.21323 0.40801 0.0
C1216 C 0.6874 0.23915 0.4881 0.0
C1217 C 0.67407 0.21964 0.43058 0.0
C1218 C 0.67287 0.26124 0.53658 0.0
C1219 C 0.70012 0.27367 0.57943 0.0
N1220 N 0.67422 0.23234 0.46865 0.0
N1221 N 0.69993 0.26034 0.54565 0.0
H1222 H 0.47602 0.91229 0.34425 0.0
H1223 H 0.54013 0.96426 0.17607 0.0
H1224 H 0.47732 0.96135 0.35916 0.0
H1225 H 0.54101 0.91509 0.17555 0.0
H1226 H 0.51798 0.96345 0.24907 0.0
H1227 H 0.50003 0.91306 0.28286 0.0
C1228 C 0.48125 0.92321 0.33399 0.0
C1229 C 0.47464 0.93676 0.35686 0.0
C1230 C 0.52315 0.95284 0.23364 0.0
C1231 C 0.5022 0.93773 0.28776 0.0
C1232 C 0.53592 0.95331 0.19258 0.0
C1233 C 0.54234 0.93973 0.1691 0.0
C1234 C 0.51677 0.93869 0.25101 0.0
C1235 C 0.53632 0.92585 0.19183 0.0
C1236 C 0.49503 0.92365 0.29957 0.0
C1237 C 0.48201 0.9506 0.34267 0.0
N1238 N 0.52377 0.92569 0.23076 0.0
N1239 N 0.49537 0.95072 0.30915 0.0
H1240 H 0.79423 0.27864 0.40684 0.0
H1241 H 0.8416 0.2128 0.58486 0.0
H1242 H 0.84337 0.2777 0.41471 0.0
H1243 H 0.79249 0.21527 0.58595 0.0
H1244 H 0.84243 0.2352 0.51404 0.0
H1245 H 0.79344 0.25486 0.46823 0.0
C1246 C 0.80489 0.27349 0.42203 0.0
C1247 C 0.81892 0.28019 0.40551 0.0
C1248 C 0.83146 0.23076 0.5291 0.0
C1249 C 0.81804 0.25273 0.47527 0.0
C1250 C 0.83096 0.21788 0.56911 0.0
C1251 C 0.81694 0.21222 0.59186 0.0
C1252 C 0.81786 0.23809 0.51175 0.0
C1253 C 0.80354 0.21922 0.56958 0.0
C1254 C 0.8044 0.25985 0.45683 0.0
C1255 C 0.83232 0.273 0.42671 0.0
N1256 N 0.80434 0.23191 0.53136 0.0
N1257 N 0.83155 0.2596 0.46026 0.0
H1258 H 0.47457 0.04051 0.14459 0.0
H1259 H 0.53968 0.08892 0.32237 0.0
H1260 H 0.47448 0.08963 0.15489 0.0
H1261 H 0.53749 0.03981 0.32737 0.0
H1262 H 0.5175 0.08931 0.25019 0.0
H1263 H 0.4985 0.04006 0.20501 0.0
C1264 C 0.47953 0.05123 0.16005 0.0
C1265 C 0.47248 0.06516 0.14462 0.0
C1266 C 0.52197 0.07843 0.26635 0.0
C1267 C 0.50011 0.06468 0.21327 0.0
C1268 C 0.53473 0.07818 0.30711 0.0
C1269 C 0.54037 0.0643 0.33148 0.0
C1270 C 0.51474 0.06471 0.24984 0.0
C1271 C 0.53354 0.05076 0.30977 0.0
C1272 C 0.49326 0.05094 0.19431 0.0
C1273 C 0.47945 0.07865 0.16609 0.0
N1274 N 0.52095 0.05132 0.27082 0.0
N1275 N 0.49293 0.07807 0.19912 0.0
H1276 H 0.66417 0.79112 0.07702 0.0
H1277 H 0.7123 0.7262 0.89655 0.0
H1278 H 0.71329 0.78903 0.08023 0.0
H1279 H 0.66322 0.72591 0.90996 0.0
H1280 H 0.71286 0.75011 0.95718 0.0
H1281 H 0.66368 0.76894 0.00491 0.0
C1282 C 0.67489 0.78618 0.06142 0.0
C1283 C 0.68881 0.79186 0.08525 0.0
C1284 C 0.70196 0.74482 0.94711 0.0
C1285 C 0.68828 0.76622 0.00365 0.0
C1286 C 0.70161 0.73111 0.91274 0.0
C1287 C 0.68766 0.72401 0.89813 0.0
C1288 C 0.68826 0.75161 0.96698 0.0
C1289 C 0.67422 0.73092 0.92049 0.0
C1290 C 0.67458 0.77342 0.02069 0.0
C1291 C 0.70231 0.78505 0.06307 0.0
N1292 N 0.67485 0.74438 0.95359 0.0
N1293 N 0.7017 0.77245 0.02413 0.0
H1294 H 0.02615 0.96322 0.63572 0.0
H1295 H 0.961 0.91492 0.81364 0.0
H1296 H 0.02632 0.91412 0.64809 0.0
H1297 H 0.96358 0.96399 0.82131 0.0
H1298 H 0.98303 0.91458 0.74069 0.0
H1299 H 0.00215 0.96376 0.69572 0.0
C1300 C 0.0212 0.95252 0.65151 0.0
C1301 C 0.02829 0.93858 0.63688 0.0
C1302 C 0.97868 0.92544 0.7576 0.0
C1303 C 1.0006 0.93915 0.70498 0.0
C1304 C 0.966 0.92567 0.79879 0.0
C1305 C 0.96052 0.93951 0.82418 0.0
C1306 C 0.98599 0.93915 0.74166 0.0
C1307 C 0.96741 0.95306 0.80293 0.0
C1308 C 0.00743 0.95286 0.68552 0.0
C1309 C 0.02132 0.92512 0.65868 0.0
N1310 N 0.97993 0.95253 0.76355 0.0
N1311 N 0.00782 0.92574 0.69145 0.0
H1312 H 0.71214 0.77832 0.39783 0.0
H1313 H 0.66394 0.7133 0.57715 0.0
H1314 H 0.66303 0.7784 0.40896 0.0
H1315 H 0.71306 0.71534 0.58002 0.0
H1316 H 0.66345 0.73549 0.50509 0.0
H1317 H 0.71266 0.75441 0.45836 0.0
C1318 C 0.70144 0.77336 0.4135 0.0
C1319 C 0.68749 0.7804 0.39826 0.0
C1320 C 0.67435 0.73099 0.52077 0.0
C1321 C 0.68804 0.7528 0.46704 0.0
C1322 C 0.67466 0.71823 0.56147 0.0
C1323 C 0.68858 0.71253 0.58519 0.0
C1324 C 0.68805 0.73818 0.50366 0.0
C1325 C 0.70208 0.71933 0.56294 0.0
C1326 C 0.70176 0.75965 0.44781 0.0
C1327 C 0.67402 0.77344 0.41999 0.0
N1328 N 0.70147 0.73193 0.52405 0.0
N1329 N 0.67463 0.75997 0.45309 0.0
H1330 H 0.47568 0.46167 0.65275 0.0
H1331 H 0.54104 0.41377 0.83152 0.0
H1332 H 0.47582 0.41256 0.6641 0.0
H1333 H 0.53877 0.46289 0.83454 0.0
H1334 H 0.51867 0.41318 0.76048 0.0
H1335 H 0.49951 0.46231 0.71394 0.0
C1336 C 0.48066 0.45099 0.66865 0.0
C1337 C 0.47372 0.43701 0.65321 0.0
C1338 C 0.52315 0.4241 0.77601 0.0
C1339 C 0.50123 0.4377 0.72267 0.0
C1340 C 0.53601 0.42447 0.81613 0.0
C1341 C 0.54172 0.43842 0.83954 0.0
C1342 C 0.51587 0.43777 0.75914 0.0
C1343 C 0.53479 0.45189 0.81768 0.0
C1344 C 0.49433 0.45139 0.70333 0.0
C1345 C 0.48071 0.42358 0.67526 0.0
N1346 N 0.5221 0.45122 0.77931 0.0
N1347 N 0.49413 0.42426 0.70864 0.0
H1348 H 0.79268 0.28827 0.08374 0.0
H1349 H 0.84308 0.22241 0.91858 0.0
H1350 H 0.84185 0.28753 0.08722 0.0
H1351 H 0.79409 0.225 0.90312 0.0
H1352 H 0.84289 0.24632 0.98085 0.0
H1353 H 0.79298 0.2658 0.01243 0.0
C1354 C 0.80353 0.28362 0.06827 0.0
C1355 C 0.81724 0.28971 0.09199 0.0
C1356 C 0.83218 0.24162 0.9639 0.0
C1357 C 0.81769 0.26379 0.01198 0.0
C1358 C 0.83228 0.22789 0.92899 0.0
C1359 C 0.81859 0.2217 0.90555 0.0
C1360 C 0.81829 0.24916 0.97556 0.0
C1361 C 0.80494 0.22937 0.91997 0.0
C1362 C 0.80371 0.27068 0.02818 0.0
C1363 C 0.83098 0.28313 0.07067 0.0
N1364 N 0.80514 0.24269 0.95386 0.0
N1365 N 0.83085 0.27043 0.03258 0.0
H1366 H 0.96352 0.53778 0.31271 0.0
H1367 H 0.02711 0.58993 0.14246 0.0
H1368 H 0.96208 0.58693 0.31042 0.0
H1369 H 0.02598 0.54088 0.12714 0.0
H1370 H 0.003 0.58907 0.20311 0.0
H1371 H 0.98545 0.53861 0.23839 0.0
C1372 C 0.96754 0.54872 0.29523 0.0
C1373 C 0.96106 0.5623 0.3184 0.0
C1374 C 0.00805 0.5785 0.18642 0.0
C1375 C 0.98639 0.56337 0.23505 0.0
C1376 C 0.02189 0.57899 0.15241 0.0
C1377 C 0.02859 0.56547 0.12976 0.0
C1378 C 1.00092 0.56439 0.19809 0.0
C1379 C 0.02122 0.55161 0.14353 0.0
C1380 C 0.98019 0.54921 0.25343 0.0
C1381 C 0.96684 0.57617 0.29444 0.0
N1382 N 0.00782 0.55143 0.17675 0.0
N1383 N 0.97929 0.57635 0.25488 0.0
H1384 H 0.7127 0.28889 0.91716 0.0
H1385 H 0.66026 0.22486 0.08412 0.0
H1386 H 0.66354 0.28947 0.91166 0.0
H1387 H 0.70938 0.22554 0.0956 0.0
H1388 H 0.66112 0.24878 0.02192 0.0
H1389 H 0.71164 0.26657 0.98909 0.0
C1390 C 0.70169 0.28456 0.9323 0.0
C1391 C 0.6882 0.29097 0.90783 0.0
C1392 C 0.6717 0.24365 0.038 0.0
C1393 C 0.68688 0.26521 0.9886 0.0
C1394 C 0.67121 0.22992 0.07288 0.0
C1395 C 0.68475 0.22319 0.09514 0.0
C1396 C 0.68583 0.25064 0.02525 0.0
C1397 C 0.69863 0.23034 0.07969 0.0
C1398 C 0.70108 0.2717 0.97275 0.0
C1399 C 0.67424 0.2848 0.92879 0.0
N1400 N 0.6988 0.24366 0.04591 0.0
N1401 N 0.67395 0.27217 0.96728 0.0
H1402 H 0.96438 0.46589 0.17231 0.0
H1403 H 0.02846 0.41463 0.34421 0.0
H1404 H 0.96316 0.41675 0.17814 0.0
H1405 H 0.02687 0.46368 0.35858 0.0
H1406 H 0.00439 0.4152 0.28324 0.0
H1407 H 0.98646 0.46543 0.24595 0.0
C1408 C 0.96849 0.45504 0.19042 0.0
C1409 C 0.96202 0.44134 0.16847 0.0
C1410 C 0.00933 0.42584 0.29977 0.0
C1411 C 0.9875 0.4407 0.25101 0.0
C1412 C 0.02315 0.42552 0.33394 0.0
C1413 C 0.0297 0.43911 0.35649 0.0
C1414 C 0.00207 0.43987 0.28781 0.0
C1415 C 0.02223 0.4529 0.3423 0.0
C1416 C 0.98121 0.45476 0.23183 0.0
C1417 C 0.9679 0.42759 0.19318 0.0
N1418 N 0.00884 0.45292 0.30894 0.0
N1419 N 0.98042 0.42761 0.23233 0.0
H1420 H 0.83775 0.7111 0.43418 0.0
H1421 H 0.78976 0.77669 0.61077 0.0
H1422 H 0.78873 0.71418 0.42456 0.0
H1423 H 0.83887 0.77653 0.59894 0.0
H1424 H 0.7891 0.75267 0.55086 0.0
H1425 H 0.83817 0.73313 0.50718 0.0
C1426 C 0.82702 0.71621 0.44861 0.0
C1427 C 0.81318 0.71088 0.42264 0.0
C1428 C 0.80003 0.75788 0.56116 0.0
C1429 C 0.81363 0.73634 0.50522 0.0
C1430 C 0.80043 0.77166 0.59512 0.0
C1431 C 0.81442 0.77867 0.60986 0.0
C1432 C 0.8137 0.75096 0.54189 0.0
C1433 C 0.82784 0.7716 0.58825 0.0
C1434 C 0.8273 0.72889 0.48983 0.0
C1435 C 0.79965 0.7179 0.44337 0.0
N1436 N 0.82715 0.75809 0.55554 0.0
N1437 N 0.80023 0.73041 0.4828 0.0
H1438 H 0.53958 0.54131 0.67205 0.0
H1439 H 0.47414 0.59224 0.83732 0.0
H1440 H 0.53898 0.59047 0.66651 0.0
H1441 H 0.47632 0.54321 0.85193 0.0
H1442 H 0.49811 0.5919 0.77542 0.0
H1443 H 0.51728 0.54185 0.74421 0.0
C1444 C 0.535 0.55221 0.68726 0.0
C1445 C 0.54107 0.56584 0.66268 0.0
C1446 C 0.4933 0.58123 0.79214 0.0
C1447 C 0.51532 0.56656 0.74367 0.0
C1448 C 0.47954 0.58141 0.82685 0.0
C1449 C 0.47321 0.56775 0.84986 0.0
C1450 C 0.50072 0.56728 0.78028 0.0
C1451 C 0.4808 0.55405 0.83539 0.0
C1452 C 0.52215 0.55252 0.72783 0.0
C1453 C 0.53458 0.57966 0.68371 0.0
N1454 N 0.49413 0.55417 0.8017 0.0
N1455 N 0.52196 0.57965 0.72228 0.0
H1456 H 0.3436 0.22293 0.57474 0.0
H1457 H 0.29304 0.28861 0.40869 0.0
H1458 H 0.29454 0.22507 0.5864 0.0
H1459 H 0.34219 0.28766 0.40252 0.0
H1460 H 0.29347 0.26616 0.48001 0.0
H1461 H 0.34344 0.24683 0.51225 0.0
C1462 C 0.33281 0.2283 0.56345 0.0
C1463 C 0.31908 0.22199 0.5859 0.0
C1464 C 0.30417 0.27098 0.46363 0.0
C1465 C 0.3188 0.24942 0.5157 0.0
C1466 C 0.30392 0.28391 0.42353 0.0
C1467 C 0.31758 0.28995 0.39909 0.0
C1468 C 0.31817 0.26404 0.47918 0.0
C1469 C 0.33136 0.2833 0.41966 0.0
C1470 C 0.33271 0.24202 0.52841 0.0
C1471 C 0.30542 0.22953 0.57037 0.0
N1472 N 0.3313 0.27062 0.45784 0.0
N1473 N 0.30563 0.24284 0.53647 0.0
H1474 H 0.52866 0.54209 0.35045 0.0
H1475 H 0.46347 0.5901 0.17115 0.0
H1476 H 0.52873 0.59119 0.33807 0.0
H1477 H 0.46568 0.54099 0.16777 0.0
H1478 H 0.48579 0.59064 0.24244 0.0
H1479 H 0.50481 0.54149 0.28938 0.0
C1480 C 0.52372 0.55277 0.33436 0.0
C1481 C 0.53072 0.56674 0.34945 0.0
C1482 C 0.48131 0.57973 0.22678 0.0
C1483 C 0.50319 0.56609 0.28013 0.0
C1484 C 0.46847 0.57939 0.18651 0.0
C1485 C 0.46277 0.56546 0.16292 0.0
C1486 C 0.48856 0.56605 0.2436 0.0
C1487 C 0.46967 0.55197 0.18476 0.0
C1488 C 0.51004 0.5524 0.29974 0.0
C1489 C 0.52379 0.58018 0.32718 0.0
N1490 N 0.48233 0.55261 0.22327 0.0
N1491 N 0.51035 0.57952 0.29387 0.0
H1492 H 0.1623 0.77897 0.09628 0.0
H1493 H 0.21358 0.71449 0.92653 0.0
H1494 H 0.21139 0.77748 0.10804 0.0
H1495 H 0.1644 0.7142 0.92521 0.0
H1496 H 0.21298 0.73656 3e-05 0.0
H1497 H 0.16275 0.7549 0.03513 0.0
C1498 C 0.17316 0.77369 0.08541 0.0
C1499 C 0.18681 0.78027 0.10728 0.0
C1500 C 0.20231 0.73153 0.98433 0.0
C1501 C 0.18743 0.75264 0.03848 0.0
C1502 C 0.20267 0.71881 0.94299 0.0
C1503 C 0.18903 0.71259 0.91911 0.0
C1504 C 0.18823 0.73808 0.00161 0.0
C1505 C 0.17521 0.71874 0.94179 0.0
C1506 C 0.17342 0.75987 0.05112 0.0
C1507 C 0.20056 0.77282 0.09233 0.0
N1508 N 0.17516 0.73126 0.98102 0.0
N1509 N 0.20051 0.75944 0.05899 0.0
H1510 H 0.03994 0.466 0.67422 0.0
H1511 H 0.97639 0.41386 0.845 0.0
H1512 H 0.04137 0.41685 0.67652 0.0
H1513 H 0.97729 0.46294 0.85834 0.0
H1514 H 1.00046 0.4147 0.78409 0.0
H1515 H 0.01792 0.46517 0.74798 0.0
C1516 C 0.03589 0.45506 0.69156 0.0
C1517 C 0.04241 0.44148 0.66859 0.0
C1518 C 0.99537 0.42528 0.80038 0.0
C1519 C 0.01698 0.44041 0.75132 0.0
C1520 C 0.98155 0.4248 0.83453 0.0
C1521 C 0.9748 0.43833 0.85675 0.0
C1522 C 0.00243 0.4394 0.78817 0.0
C1523 C 0.98209 0.4522 0.84232 0.0
C1524 C 0.02319 0.45457 0.73305 0.0
C1525 C 0.03659 0.42761 0.69236 0.0
N1526 N 0.99548 0.45237 0.80903 0.0
N1527 N 0.0241 0.42743 0.73165 0.0
H1528 H 0.3394 0.71189 0.07592 0.0
H1529 H 0.29199 0.7775 0.89663 0.0
H1530 H 0.29031 0.71457 0.07909 0.0
H1531 H 0.3411 0.777 0.90802 0.0
H1532 H 0.29117 0.7536 0.95716 0.0
H1533 H 0.34015 0.73407 0.00384 0.0
C1534 C 0.32874 0.71696 0.06031 0.0
C1535 C 0.31476 0.71145 0.08412 0.0
C1536 C 0.30213 0.75871 0.94667 0.0
C1537 C 0.31558 0.73708 0.00258 0.0
C1538 C 0.30263 0.77242 0.91236 0.0
C1539 C 0.31666 0.77929 0.8972 0.0
C1540 C 0.31577 0.75169 0.96596 0.0
C1541 C 0.33004 0.77217 0.91899 0.0
C1542 C 0.3292 0.72972 0.0196 0.0
C1543 C 0.30133 0.71841 0.06195 0.0
N1544 N 0.32926 0.75871 0.95207 0.0
N1545 N 0.30209 0.731 0.02305 0.0
H1546 H 0.97671 0.53939 0.62906 0.0
H1547 H 0.04188 0.58771 0.80682 0.0
H1548 H 0.97657 0.5885 0.64114 0.0
H1549 H 0.0391 0.53867 0.81569 0.0
H1550 H 0.01996 0.58804 0.73323 0.0
H1551 H 1.00074 0.53887 0.68881 0.0
C1552 C 0.98168 0.5501 0.64471 0.0
C1553 C 0.97457 0.56404 0.63013 0.0
C1554 C 0.02424 0.57718 0.75053 0.0
C1555 C 0.00231 0.56348 0.69796 0.0
C1556 C 0.03686 0.57697 0.79209 0.0
C1557 C 0.04224 0.56314 0.81805 0.0
C1558 C 0.0169 0.56348 0.7348 0.0
C1559 C 0.03535 0.54958 0.79692 0.0
C1560 C 0.99546 0.54977 0.67858 0.0
C1561 C 0.98157 0.5775 0.65172 0.0
N1562 N 0.02288 0.55011 0.75718 0.0
N1563 N 0.99509 0.57689 0.68439 0.0
H1564 H 0.16414 0.29195 0.57018 0.0
H1565 H 0.21116 0.2257 0.39339 0.0
H1566 H 0.21317 0.28856 0.57657 0.0
H1567 H 0.16204 0.22677 0.40279 0.0
H1568 H 0.21213 0.24958 0.45412 0.0
H1569 H 0.1633 0.26975 0.4982 0.0
C1570 C 0.17478 0.28672 0.55529 0.0
C1571 C 0.18876 0.29204 0.57997 0.0
C1572 C 0.20113 0.2446 0.44316 0.0
C1573 C 0.18782 0.26639 0.49853 0.0
C1574 C 0.20055 0.2309 0.40873 0.0
C1575 C 0.18647 0.2242 0.39294 0.0
C1576 C 0.18754 0.25177 0.46192 0.0
C1577 C 0.17313 0.23147 0.41426 0.0
C1578 C 0.17426 0.27395 0.51464 0.0
C1579 C 0.20215 0.28487 0.55872 0.0
N1580 N 0.174 0.24491 0.44744 0.0
N1581 N 0.20134 0.27227 0.51984 0.0
H1582 H 0.46523 0.46261 0.33072 0.0
H1583 H 0.53068 0.41174 0.16522 0.0
H1584 H 0.46582 0.41345 0.33577 0.0
H1585 H 0.52851 0.46076 0.15081 0.0
H1586 H 0.50674 0.41206 0.22727 0.0
H1587 H 0.48758 0.46211 0.25877 0.0
C1588 C 0.46982 0.45172 0.31545 0.0
C1589 C 0.46373 0.43807 0.33982 0.0
C1590 C 0.51154 0.42274 0.21057 0.0
C1591 C 0.48952 0.43739 0.25908 0.0
C1592 C 0.52529 0.42256 0.17578 0.0
C1593 C 0.53161 0.43622 0.15275 0.0
C1594 C 0.50412 0.43669 0.2225 0.0
C1595 C 0.52403 0.44993 0.16735 0.0
C1596 C 0.48269 0.45142 0.275 0.0
C1597 C 0.47023 0.42427 0.31873 0.0
N1598 N 0.51071 0.4498 0.20111 0.0
N1599 N 0.48287 0.42429 0.28027 0.0
loop_
_geom_bond_atom_site_label_1
_geom_bond_atom_site_label_2
_geom_bond_distance
_geom_bond_site_symmetry_2
_ccdc_geom_bond_type
O0 Cd1 2.223 . S
O0 C8 1.315 . S
Cd1 O0 2.223 . S
Cd1 O4 2.297 . S
Cd1 O5 2.439 . S
Cd1 O11 2.240 . S
Cd2 O3 2.240 . S
Cd2 O10 2.223 . S
Cd2 O12 2.297 . S
Cd2 O13 2.439 . S
O3 Cd2 2.240 . S
O3 C8 1.279 . S
O4 Cd1 2.297 . S
O4 C6 1.247 . S
O5 Cd1 2.439 . S
O5 C6 1.208 . S
C6 O4 1.247 . S
C6 O5 1.208 . S
C7 O12 1.247 . S
C7 O13 1.208 . S
C8 O0 1.315 . S
C8 O3 1.279 . S
C9 O10 1.315 . S
C9 O11 1.279 . S
O10 Cd2 2.223 . S
O10 C9 1.315 . S
O11 Cd1 2.240 . S
O11 C9 1.279 . S
O12 Cd2 2.297 . S
O12 C7 1.247 . S
O13 Cd2 2.439 . S
O13 C7 1.208 . S
O14 Cd15 2.223 . S
O14 C22 1.315 . S
Cd15 O14 2.223 . S
Cd15 O18 2.297 . S
Cd15 O19 2.439 . S
Cd15 O25 2.240 . S
Cd16 O17 2.240 . S
Cd16 O24 2.223 . S
Cd16 O26 2.297 . S
Cd16 O27 2.439 . S
O17 Cd16 2.240 . S
O17 C22 1.279 . S
O18 Cd15 2.297 . S
O18 C20 1.247 . S
O19 Cd15 2.439 . S
O19 C20 1.208 . S
C20 O18 1.247 . S
C20 O19 1.208 . S
C21 O26 1.247 . S
C21 O27 1.208 . S
C22 O14 1.315 . S
C22 O17 1.279 . S
C23 O24 1.315 . S
C23 O25 1.279 . S
O24 Cd16 2.223 . S
O24 C23 1.315 . S
O25 Cd15 2.240 . S
O25 C23 1.279 . S
O26 Cd16 2.297 . S
O26 C21 1.247 . S
O27 Cd16 2.439 . S
O27 C21 1.208 . S
O28 Cd29 2.223 . S
O28 C36 1.315 . S
Cd29 O28 2.223 . S
Cd29 O32 2.297 . S
Cd29 O33 2.439 . S
Cd29 O39 2.240 . S
Cd30 O31 2.240 . S
Cd30 O38 2.223 . S
Cd30 O40 2.297 . S
Cd30 O41 2.439 . S
O31 Cd30 2.240 . S
O31 C36 1.279 . S
O32 Cd29 2.297 . S
O32 C34 1.247 . S
O33 Cd29 2.439 . S
O33 C34 1.208 . S
C34 O32 1.247 . S
C34 O33 1.208 . S
C35 O40 1.247 . S
C35 O41 1.208 . S
C36 O28 1.315 . S
C36 O31 1.279 . S
C37 O38 1.315 . S
C37 O39 1.279 . S
O38 Cd30 2.223 . S
O38 C37 1.315 . S
O39 Cd29 2.240 . S
O39 C37 1.279 . S
O40 Cd30 2.297 . S
O40 C35 1.247 . S
O41 Cd30 2.439 . S
O41 C35 1.208 . S
O42 Cd43 2.223 . S
O42 C50 1.315 1_554 S
Cd43 O42 2.223 . S
Cd43 O46 2.297 . S
Cd43 O47 2.439 . S
Cd43 O53 2.240 . S
Cd44 O45 2.240 . S
Cd44 O52 2.223 . S
Cd44 O54 2.297 . S
Cd44 O55 2.439 . S
O45 Cd44 2.240 . S
O45 C50 1.279 1_554 S
O46 Cd43 2.297 . S
O46 C48 1.247 . S
O47 Cd43 2.439 . S
O47 C48 1.208 . S
C48 O46 1.247 . S
C48 O47 1.208 . S
C49 O54 1.247 . S
C49 O55 1.208 . S
C50 O42 1.315 1_556 S
C50 O45 1.279 1_556 S
C51 O52 1.315 . S
C51 O53 1.279 . S
O52 Cd44 2.223 . S
O52 C51 1.315 . S
O53 Cd43 2.240 . S
O53 C51 1.279 . S
O54 Cd44 2.297 . S
O54 C49 1.247 . S
O55 Cd44 2.439 . S
O55 C49 1.208 . S
O56 Cd57 2.223 . S
O56 C64 1.315 . S
Cd57 O56 2.223 . S
Cd57 O60 2.297 . S
Cd57 O61 2.439 . S
Cd57 O67 2.240 . S
Cd58 O59 2.240 . S
Cd58 O66 2.223 . S
Cd58 O68 2.297 . S
Cd58 O69 2.439 . S
O59 Cd58 2.240 . S
O59 C64 1.279 . S
O60 Cd57 2.297 . S
O60 C62 1.247 . S
O61 Cd57 2.439 . S
O61 C62 1.208 . S
C62 O60 1.247 . S
C62 O61 1.208 . S
C63 O68 1.247 . S
C63 O69 1.208 . S
C64 O56 1.315 . S
C64 O59 1.279 . S
C65 O66 1.315 . S
C65 O67 1.279 . S
O66 Cd58 2.223 . S
O66 C65 1.315 . S
O67 Cd57 2.240 . S
O67 C65 1.279 . S
O68 Cd58 2.297 . S
O68 C63 1.247 . S
O69 Cd58 2.439 . S
O69 C63 1.208 . S
O70 Cd71 2.223 . S
O70 C78 1.315 . S
Cd71 O70 2.223 . S
Cd71 O74 2.297 . S
Cd71 O75 2.439 . S
Cd71 O81 2.240 . S
Cd72 O73 2.240 . S
Cd72 O80 2.223 . S
Cd72 O82 2.297 . S
Cd72 O83 2.439 . S
O73 Cd72 2.240 . S
O73 C78 1.279 . S
O74 Cd71 2.297 . S
O74 C76 1.247 . S
O75 Cd71 2.439 . S
O75 C76 1.208 . S
C76 O74 1.247 . S
C76 O75 1.208 . S
C77 O82 1.247 . S
C77 O83 1.208 . S
C78 O70 1.315 . S
C78 O73 1.279 . S
C79 O80 1.315 . S
C79 O81 1.279 . S
O80 Cd72 2.223 . S
O80 C79 1.315 . S
O81 Cd71 2.240 . S
O81 C79 1.279 . S
O82 Cd72 2.297 . S
O82 C77 1.247 . S
O83 Cd72 2.439 . S
O83 C77 1.208 . S
O84 Cd85 2.223 . S
O84 C92 1.315 . S
Cd85 O84 2.223 . S
Cd85 O88 2.297 . S
Cd85 O89 2.439 . S
Cd85 O95 2.240 . S
Cd86 O87 2.240 . S
Cd86 O94 2.223 . S
Cd86 O96 2.297 . S
Cd86 O97 2.439 . S
O87 Cd86 2.240 . S
O87 C92 1.279 . S
O88 Cd85 2.297 . S
O88 C90 1.247 . S
O89 Cd85 2.439 . S
O89 C90 1.208 . S
C90 O88 1.247 . S
C90 O89 1.208 . S
C91 O96 1.247 . S
C91 O97 1.208 . S
C92 O84 1.315 . S
C92 O87 1.279 . S
C93 O94 1.315 . S
C93 O95 1.279 . S
O94 Cd86 2.223 . S
O94 C93 1.315 . S
O95 Cd85 2.240 . S
O95 C93 1.279 . S
O96 Cd86 2.297 . S
O96 C91 1.247 . S
O97 Cd86 2.439 . S
O97 C91 1.208 . S
O98 Cd99 2.223 . S
O98 C106 1.315 1_556 S
Cd99 O98 2.223 . S
Cd99 O102 2.297 . S
Cd99 O103 2.439 . S
Cd99 O109 2.240 . S
Cd100 O101 2.240 . S
Cd100 O108 2.223 . S
Cd100 O110 2.297 . S
Cd100 O111 2.439 . S
O101 Cd100 2.240 . S
O101 C106 1.279 1_556 S
O102 Cd99 2.297 . S
O102 C104 1.247 . S
O103 Cd99 2.439 . S
O103 C104 1.208 . S
C104 O102 1.247 . S
C104 O103 1.208 . S
C105 O110 1.247 . S
C105 O111 1.208 . S
C106 O98 1.315 1_554 S
C106 O101 1.279 1_554 S
C107 O108 1.315 . S
C107 O109 1.279 . S
O108 Cd100 2.223 . S
O108 C107 1.315 . S
O109 Cd99 2.240 . S
O109 C107 1.279 . S
O110 Cd100 2.297 . S
O110 C105 1.247 . S
O111 Cd100 2.439 . S
O111 C105 1.208 . S
O112 Cd113 2.223 . S
O112 C120 1.315 . S
Cd113 O112 2.223 . S
Cd113 O116 2.297 . S
Cd113 O117 2.439 . S
Cd113 O123 2.240 . S
Cd114 O115 2.240 . S
Cd114 O122 2.223 . S
Cd114 O124 2.297 . S
Cd114 O125 2.439 . S
O115 Cd114 2.240 . S
O115 C120 1.279 . S
O116 Cd113 2.297 . S
O116 C118 1.247 . S
O117 Cd113 2.439 . S
O117 C118 1.208 . S
C118 O116 1.247 . S
C118 O117 1.208 . S
C119 O124 1.247 . S
C119 O125 1.208 . S
C120 O112 1.315 . S
C120 O115 1.279 . S
C121 O122 1.315 . S
C121 O123 1.279 . S
O122 Cd114 2.223 . S
O122 C121 1.315 . S
O123 Cd113 2.240 . S
O123 C121 1.279 . S
O124 Cd114 2.297 . S
O124 C119 1.247 . S
O125 Cd114 2.439 . S
O125 C119 1.208 . S
O126 Cd127 2.223 . S
O126 C134 1.315 . S
Cd127 O126 2.223 . S
Cd127 O130 2.297 . S
Cd127 O131 2.439 . S
Cd127 O137 2.240 . S
Cd128 O129 2.240 . S
Cd128 O136 2.223 . S
Cd128 O138 2.297 . S
Cd128 O139 2.439 . S
O129 Cd128 2.240 . S
O129 C134 1.279 . S
O130 Cd127 2.297 . S
O130 C132 1.247 . S
O131 Cd127 2.439 . S
O131 C132 1.208 . S
C132 O130 1.247 . S
C132 O131 1.208 . S
C133 O138 1.247 . S
C133 O139 1.208 . S
C134 O126 1.315 . S
C134 O129 1.279 . S
C135 O136 1.315 . S
C135 O137 1.279 . S
O136 Cd128 2.223 . S
O136 C135 1.315 . S
O137 Cd127 2.240 . S
O137 C135 1.279 . S
O138 Cd128 2.297 . S
O138 C133 1.247 . S
O139 Cd128 2.439 . S
O139 C133 1.208 . S
O140 Cd141 2.223 . S
O140 C148 1.315 . S
Cd141 O140 2.223 . S
Cd141 O144 2.297 . S
Cd141 O145 2.439 . S
Cd141 O151 2.240 . S
Cd142 O143 2.240 . S
Cd142 O150 2.223 . S
Cd142 O152 2.297 . S
Cd142 O153 2.439 . S
O143 Cd142 2.240 . S
O143 C148 1.279 . S
O144 Cd141 2.297 . S
O144 C146 1.247 . S
O145 Cd141 2.439 . S
O145 C146 1.208 . S
C146 O144 1.247 . S
C146 O145 1.208 . S
C147 O152 1.247 . S
C147 O153 1.208 . S
C148 O140 1.315 . S
C148 O143 1.279 . S
C149 O150 1.315 . S
C149 O151 1.279 . S
O150 Cd142 2.223 . S
O150 C149 1.315 . S
O151 Cd141 2.240 . S
O151 C149 1.279 . S
O152 Cd142 2.297 . S
O152 C147 1.247 . S
O153 Cd142 2.439 . S
O153 C147 1.208 . S
O154 Cd155 2.223 . S
O154 C162 1.315 1_556 S
Cd155 O154 2.223 . S
Cd155 O158 2.297 . S
Cd155 O159 2.439 . S
Cd155 O165 2.240 . S
Cd156 O157 2.240 . S
Cd156 O164 2.223 . S
Cd156 O166 2.297 . S
Cd156 O167 2.439 . S
O157 Cd156 2.240 . S
O157 C162 1.279 1_556 S
O158 Cd155 2.297 . S
O158 C160 1.247 . S
O159 Cd155 2.439 . S
O159 C160 1.208 . S
C160 O158 1.247 . S
C160 O159 1.208 . S
C161 O166 1.247 . S
C161 O167 1.208 . S
C162 O154 1.315 1_554 S
C162 O157 1.279 1_554 S
C163 O164 1.315 . S
C163 O165 1.279 . S
O164 Cd156 2.223 . S
O164 C163 1.315 . S
O165 Cd155 2.240 . S
O165 C163 1.279 . S
O166 Cd156 2.297 . S
O166 C161 1.247 . S
O167 Cd156 2.439 . S
O167 C161 1.208 . S
O168 Cd169 2.223 . S
O168 C176 1.315 . S
Cd169 O168 2.223 . S
Cd169 O172 2.297 . S
Cd169 O173 2.439 . S
Cd169 O179 2.240 . S
Cd170 O171 2.240 . S
Cd170 O178 2.223 . S
Cd170 O180 2.297 . S
Cd170 O181 2.439 . S
O171 Cd170 2.240 . S
O171 C176 1.279 . S
O172 Cd169 2.297 . S
O172 C174 1.247 . S
O173 Cd169 2.439 . S
O173 C174 1.208 . S
C174 O172 1.247 . S
C174 O173 1.208 . S
C175 O180 1.247 . S
C175 O181 1.208 . S
C176 O168 1.315 . S
C176 O171 1.279 . S
C177 O178 1.315 . S
C177 O179 1.279 . S
O178 Cd170 2.223 . S
O178 C177 1.315 . S
O179 Cd169 2.240 . S
O179 C177 1.279 . S
O180 Cd170 2.297 . S
O180 C175 1.247 . S
O181 Cd170 2.439 . S
O181 C175 1.208 . S
O182 Cd183 2.223 . S
O182 C190 1.315 . S
Cd183 O182 2.223 . S
Cd183 O186 2.297 . S
Cd183 O187 2.439 . S
Cd183 O193 2.240 . S
Cd184 O185 2.240 . S
Cd184 O192 2.223 . S
Cd184 O194 2.297 . S
Cd184 O195 2.439 . S
O185 Cd184 2.240 . S
O185 C190 1.279 . S
O186 Cd183 2.297 . S
O186 C188 1.247 . S
O187 Cd183 2.439 . S
O187 C188 1.208 . S
C188 O186 1.247 . S
C188 O187 1.208 . S
C189 O194 1.247 . S
C189 O195 1.208 . S
C190 O182 1.315 . S
C190 O185 1.279 . S
C191 O192 1.315 . S
C191 O193 1.279 . S
O192 Cd184 2.223 . S
O192 C191 1.315 . S
O193 Cd183 2.240 . S
O193 C191 1.279 . S
O194 Cd184 2.297 . S
O194 C189 1.247 . S
O195 Cd184 2.439 . S
O195 C189 1.208 . S
O196 Cd197 2.223 . S
O196 C204 1.315 . S
Cd197 O196 2.223 . S
Cd197 O200 2.297 . S
Cd197 O201 2.439 . S
Cd197 O207 2.240 . S
Cd198 O199 2.240 . S
Cd198 O206 2.223 . S
Cd198 O208 2.297 . S
Cd198 O209 2.439 . S
O199 Cd198 2.240 . S
O199 C204 1.279 . S
O200 Cd197 2.297 . S
O200 C202 1.247 . S
O201 Cd197 2.439 . S
O201 C202 1.208 . S
C202 O200 1.247 . S
C202 O201 1.208 . S
C203 O208 1.247 . S
C203 O209 1.208 . S
C204 O196 1.315 . S
C204 O199 1.279 . S
C205 O206 1.315 . S
C205 O207 1.279 . S
O206 Cd198 2.223 . S
O206 C205 1.315 . S
O207 Cd197 2.240 . S
O207 C205 1.279 . S
O208 Cd198 2.297 . S
O208 C203 1.247 . S
O209 Cd198 2.439 . S
O209 C203 1.208 . S
O210 Cd211 2.223 . S
O210 C218 1.315 1_554 S
Cd211 O210 2.223 . S
Cd211 O214 2.297 . S
Cd211 O215 2.439 . S
Cd211 O221 2.240 . S
Cd212 O213 2.240 . S
Cd212 O220 2.223 . S
Cd212 O222 2.297 . S
Cd212 O223 2.439 . S
O213 Cd212 2.240 . S
O213 C218 1.279 1_554 S
O214 Cd211 2.297 . S
O214 C216 1.247 . S
O215 Cd211 2.439 . S
O215 C216 1.208 . S
C216 O214 1.247 . S
C216 O215 1.208 . S
C217 O222 1.247 . S
C217 O223 1.208 . S
C218 O210 1.315 1_556 S
C218 O213 1.279 1_556 S
C219 O220 1.315 . S
C219 O221 1.279 . S
O220 Cd212 2.223 . S
O220 C219 1.315 . S
O221 Cd211 2.240 . S
O221 C219 1.279 . S
O222 Cd212 2.297 . S
O222 C217 1.247 . S
O223 Cd212 2.439 . S
O223 C217 1.208 . S
O224 Cd225 2.223 . S
O224 C232 1.315 . S
Cd225 O224 2.223 . S
Cd225 O228 2.297 . S
Cd225 O229 2.439 . S
Cd225 O235 2.240 . S
Cd226 O227 2.240 . S
Cd226 O234 2.223 . S
Cd226 O236 2.297 . S
Cd226 O237 2.439 . S
O227 Cd226 2.240 . S
O227 C232 1.279 . S
O228 Cd225 2.297 . S
O228 C230 1.247 . S
O229 Cd225 2.439 . S
O229 C230 1.208 . S
C230 O228 1.247 . S
C230 O229 1.208 . S
C231 O236 1.247 . S
C231 O237 1.208 . S
C232 O224 1.315 . S
C232 O227 1.279 . S
C233 O234 1.315 . S
C233 O235 1.279 . S
O234 Cd226 2.223 . S
O234 C233 1.315 . S
O235 Cd225 2.240 . S
O235 C233 1.279 . S
O236 Cd226 2.297 . S
O236 C231 1.247 . S
O237 Cd226 2.439 . S
O237 C231 1.208 . S
O238 Cd239 2.223 . S
O238 C246 1.315 1_554 S
Cd239 O238 2.223 . S
Cd239 O242 2.297 . S
Cd239 O243 2.439 . S
Cd239 O249 2.240 . S
Cd240 O241 2.240 . S
Cd240 O248 2.223 . S
Cd240 O250 2.297 . S
Cd240 O251 2.439 . S
O241 Cd240 2.240 . S
O241 C246 1.279 1_554 S
O242 Cd239 2.297 . S
O242 C244 1.247 . S
O243 Cd239 2.439 . S
O243 C244 1.208 . S
C244 O242 1.247 . S
C244 O243 1.208 . S
C245 O250 1.247 . S
C245 O251 1.208 . S
C246 O238 1.315 1_556 S
C246 O241 1.279 1_556 S
C247 O248 1.315 . S
C247 O249 1.279 . S
O248 Cd240 2.223 . S
O248 C247 1.315 . S
O249 Cd239 2.240 . S
O249 C247 1.279 . S
O250 Cd240 2.297 . S
O250 C245 1.247 . S
O251 Cd240 2.439 . S
O251 C245 1.208 . S
O252 Cd253 2.223 . S
O252 C260 1.315 . S
Cd253 O252 2.223 . S
Cd253 O256 2.297 . S
Cd253 O257 2.439 . S
Cd253 O263 2.240 . S
Cd254 O255 2.240 . S
Cd254 O262 2.223 . S
Cd254 O264 2.297 . S
Cd254 O265 2.439 . S
O255 Cd254 2.240 . S
O255 C260 1.279 . S
O256 Cd253 2.297 . S
O256 C258 1.247 . S
O257 Cd253 2.439 . S
O257 C258 1.208 . S
C258 O256 1.247 . S
C258 O257 1.208 . S
C259 O264 1.247 . S
C259 O265 1.208 . S
C260 O252 1.315 . S
C260 O255 1.279 . S
C261 O262 1.315 . S
C261 O263 1.279 . S
O262 Cd254 2.223 . S
O262 C261 1.315 . S
O263 Cd253 2.240 . S
O263 C261 1.279 . S
O264 Cd254 2.297 . S
O264 C259 1.247 . S
O265 Cd254 2.439 . S
O265 C259 1.208 . S
O266 Cd267 2.223 . S
O266 C274 1.315 . S
Cd267 O266 2.223 . S
Cd267 O270 2.297 . S
Cd267 O271 2.439 . S
Cd267 O277 2.240 . S
Cd268 O269 2.240 . S
Cd268 O276 2.223 . S
Cd268 O278 2.297 . S
Cd268 O279 2.439 . S
O269 Cd268 2.240 . S
O269 C274 1.279 . S
O270 Cd267 2.297 . S
O270 C272 1.247 . S
O271 Cd267 2.439 . S
O271 C272 1.208 . S
C272 O270 1.247 . S
C272 O271 1.208 . S
C273 O278 1.247 . S
C273 O279 1.208 . S
C274 O266 1.315 . S
C274 O269 1.279 . S
C275 O276 1.315 . S
C275 O277 1.279 . S
O276 Cd268 2.223 . S
O276 C275 1.315 . S
O277 Cd267 2.240 . S
O277 C275 1.279 . S
O278 Cd268 2.297 . S
O278 C273 1.247 . S
O279 Cd268 2.439 . S
O279 C273 1.208 . S
O280 Cd281 2.223 . S
O280 C288 1.315 . S
Cd281 O280 2.223 . S
Cd281 O284 2.297 . S
Cd281 O285 2.439 . S
Cd281 O291 2.240 . S
Cd282 O283 2.240 . S
Cd282 O290 2.223 . S
Cd282 O292 2.297 . S
Cd282 O293 2.439 . S
O283 Cd282 2.240 . S
O283 C288 1.279 . S
O284 Cd281 2.297 . S
O284 C286 1.247 . S
O285 Cd281 2.439 . S
O285 C286 1.208 . S
C286 O284 1.247 . S
C286 O285 1.208 . S
C287 O292 1.247 . S
C287 O293 1.208 . S
C288 O280 1.315 . S
C288 O283 1.279 . S
C289 O290 1.315 . S
C289 O291 1.279 . S
O290 Cd282 2.223 . S
O290 C289 1.315 . S
O291 Cd281 2.240 . S
O291 C289 1.279 . S
O292 Cd282 2.297 . S
O292 C287 1.247 . S
O293 Cd282 2.439 . S
O293 C287 1.208 . S
O294 Cd295 2.223 . S
O294 C302 1.315 1_556 S
Cd295 O294 2.223 . S
Cd295 O298 2.297 . S
Cd295 O299 2.439 . S
Cd295 O305 2.240 . S
Cd296 O297 2.240 . S
Cd296 O304 2.223 . S
Cd296 O306 2.297 . S
Cd296 O307 2.439 . S
O297 Cd296 2.240 . S
O297 C302 1.279 1_556 S
O298 Cd295 2.297 . S
O298 C300 1.247 . S
O299 Cd295 2.439 . S
O299 C300 1.208 . S
C300 O298 1.247 . S
C300 O299 1.208 . S
C301 O306 1.247 . S
C301 O307 1.208 . S
C302 O294 1.315 1_554 S
C302 O297 1.279 1_554 S
C303 O304 1.315 . S
C303 O305 1.279 . S
O304 Cd296 2.223 . S
O304 C303 1.315 . S
O305 Cd295 2.240 . S
O305 C303 1.279 . S
O306 Cd296 2.297 . S
O306 C301 1.247 . S
O307 Cd296 2.439 . S
O307 C301 1.208 . S
O308 Cd309 2.223 . S
O308 C316 1.315 . S
Cd309 O308 2.223 . S
Cd309 O312 2.297 . S
Cd309 O313 2.439 . S
Cd309 O319 2.240 . S
Cd310 O311 2.240 . S
Cd310 O318 2.223 . S
Cd310 O320 2.297 . S
Cd310 O321 2.439 . S
O311 Cd310 2.240 . S
O311 C316 1.279 . S
O312 Cd309 2.297 . S
O312 C314 1.247 . S
O313 Cd309 2.439 . S
O313 C314 1.208 . S
C314 O312 1.247 . S
C314 O313 1.208 . S
C315 O320 1.247 . S
C315 O321 1.208 . S
C316 O308 1.315 . S
C316 O311 1.279 . S
C317 O318 1.315 . S
C317 O319 1.279 . S
O318 Cd310 2.223 . S
O318 C317 1.315 . S
O319 Cd309 2.240 . S
O319 C317 1.279 . S
O320 Cd310 2.297 . S
O320 C315 1.247 . S
O321 Cd310 2.439 . S
O321 C315 1.208 . S
O322 Cd323 2.223 . S
O322 C330 1.315 . S
Cd323 O322 2.223 . S
Cd323 O326 2.297 . S
Cd323 O327 2.439 . S
Cd323 O333 2.240 . S
Cd324 O325 2.240 . S
Cd324 O332 2.223 . S
Cd324 O334 2.297 . S
Cd324 O335 2.439 . S
O325 Cd324 2.240 . S
O325 C330 1.279 . S
O326 Cd323 2.297 . S
O326 C328 1.247 . S
O327 Cd323 2.439 . S
O327 C328 1.208 . S
C328 O326 1.247 . S
C328 O327 1.208 . S
C329 O334 1.247 . S
C329 O335 1.208 . S
C330 O322 1.315 . S
C330 O325 1.279 . S
C331 O332 1.315 . S
C331 O333 1.279 . S
O332 Cd324 2.223 . S
O332 C331 1.315 . S
O333 Cd323 2.240 . S
O333 C331 1.279 . S
O334 Cd324 2.297 . S
O334 C329 1.247 . S
O335 Cd324 2.439 . S
O335 C329 1.208 . S
O336 Cd337 2.223 . S
O336 C344 1.315 . S
Cd337 O336 2.223 . S
Cd337 O340 2.297 . S
Cd337 O341 2.439 . S
Cd337 O347 2.240 . S
Cd338 O339 2.240 . S
Cd338 O346 2.223 . S
Cd338 O348 2.297 . S
Cd338 O349 2.439 . S
O339 Cd338 2.240 . S
O339 C344 1.279 . S
O340 Cd337 2.297 . S
O340 C342 1.247 . S
O341 Cd337 2.439 . S
O341 C342 1.208 . S
C342 O340 1.247 . S
C342 O341 1.208 . S
C343 O348 1.247 . S
C343 O349 1.208 . S
C344 O336 1.315 . S
C344 O339 1.279 . S
C345 O346 1.315 . S
C345 O347 1.279 . S
O346 Cd338 2.223 . S
O346 C345 1.315 . S
O347 Cd337 2.240 . S
O347 C345 1.279 . S
O348 Cd338 2.297 . S
O348 C343 1.247 . S
O349 Cd338 2.439 . S
O349 C343 1.208 . S
O350 Cd351 2.223 . S
O350 C358 1.315 1_556 S
Cd351 O350 2.223 . S
Cd351 O354 2.297 . S
Cd351 O355 2.439 . S
Cd351 O361 2.240 . S
Cd352 O353 2.240 . S
Cd352 O360 2.223 . S
Cd352 O362 2.297 . S
Cd352 O363 2.439 . S
O353 Cd352 2.240 . S
O353 C358 1.279 1_556 S
O354 Cd351 2.297 . S
O354 C356 1.247 . S
O355 Cd351 2.439 . S
O355 C356 1.208 . S
C356 O354 1.247 . S
C356 O355 1.208 . S
C357 O362 1.247 . S
C357 O363 1.208 . S
C358 O350 1.315 1_554 S
C358 O353 1.279 1_554 S
C359 O360 1.315 . S
C359 O361 1.279 . S
O360 Cd352 2.223 . S
O360 C359 1.315 . S
O361 Cd351 2.240 . S
O361 C359 1.279 . S
O362 Cd352 2.297 . S
O362 C357 1.247 . S
O363 Cd352 2.439 . S
O363 C357 1.208 . S
O364 Cd365 2.223 . S
O364 C372 1.315 . S
Cd365 O364 2.223 . S
Cd365 O368 2.297 . S
Cd365 O369 2.439 . S
Cd365 O375 2.240 . S
Cd366 O367 2.240 . S
Cd366 O374 2.223 . S
Cd366 O376 2.297 . S
Cd366 O377 2.439 . S
O367 Cd366 2.240 . S
O367 C372 1.279 . S
O368 Cd365 2.297 . S
O368 C370 1.247 . S
O369 Cd365 2.439 . S
O369 C370 1.208 . S
C370 O368 1.247 . S
C370 O369 1.208 . S
C371 O376 1.247 . S
C371 O377 1.208 . S
C372 O364 1.315 . S
C372 O367 1.279 . S
C373 O374 1.315 . S
C373 O375 1.279 . S
O374 Cd366 2.223 . S
O374 C373 1.315 . S
O375 Cd365 2.240 . S
O375 C373 1.279 . S
O376 Cd366 2.297 . S
O376 C371 1.247 . S
O377 Cd366 2.439 . S
O377 C371 1.208 . S
O378 Cd379 2.223 . S
O378 C386 1.315 . S
Cd379 O378 2.223 . S
Cd379 O382 2.297 . S
Cd379 O383 2.439 . S
Cd379 O389 2.240 . S
Cd380 O381 2.240 . S
Cd380 O388 2.223 . S
Cd380 O390 2.297 . S
Cd380 O391 2.439 . S
O381 Cd380 2.240 . S
O381 C386 1.279 . S
O382 Cd379 2.297 . S
O382 C384 1.247 . S
O383 Cd379 2.439 . S
O383 C384 1.208 . S
C384 O382 1.247 . S
C384 O383 1.208 . S
C385 O390 1.247 . S
C385 O391 1.208 . S
C386 O378 1.315 . S
C386 O381 1.279 . S
C387 O388 1.315 . S
C387 O389 1.279 . S
O388 Cd380 2.223 . S
O388 C387 1.315 . S
O389 Cd379 2.240 . S
O389 C387 1.279 . S
O390 Cd380 2.297 . S
O390 C385 1.247 . S
O391 Cd380 2.439 . S
O391 C385 1.208 . S
O392 Cd393 2.223 . S
O392 C400 1.315 . S
Cd393 O392 2.223 . S
Cd393 O396 2.297 . S
Cd393 O397 2.439 . S
Cd393 O403 2.240 . S
Cd394 O395 2.240 . S
Cd394 O402 2.223 . S
Cd394 O404 2.297 . S
Cd394 O405 2.439 . S
O395 Cd394 2.240 . S
O395 C400 1.279 . S
O396 Cd393 2.297 . S
O396 C398 1.247 . S
O397 Cd393 2.439 . S
O397 C398 1.208 . S
C398 O396 1.247 . S
C398 O397 1.208 . S
C399 O404 1.247 . S
C399 O405 1.208 . S
C400 O392 1.315 . S
C400 O395 1.279 . S
C401 O402 1.315 . S
C401 O403 1.279 . S
O402 Cd394 2.223 . S
O402 C401 1.315 . S
O403 Cd393 2.240 . S
O403 C401 1.279 . S
O404 Cd394 2.297 . S
O404 C399 1.247 . S
O405 Cd394 2.439 . S
O405 C399 1.208 . S
O406 Cd407 2.223 . S
O406 C414 1.315 1_554 S
Cd407 O406 2.223 . S
Cd407 O410 2.297 . S
Cd407 O411 2.439 . S
Cd407 O417 2.240 . S
Cd408 O409 2.240 . S
Cd408 O416 2.223 . S
Cd408 O418 2.297 . S
Cd408 O419 2.439 . S
O409 Cd408 2.240 . S
O409 C414 1.279 1_554 S
O410 Cd407 2.297 . S
O410 C412 1.247 . S
O411 Cd407 2.439 . S
O411 C412 1.208 . S
C412 O410 1.247 . S
C412 O411 1.208 . S
C413 O418 1.247 . S
C413 O419 1.208 . S
C414 O406 1.315 1_556 S
C414 O409 1.279 1_556 S
C415 O416 1.315 . S
C415 O417 1.279 . S
O416 Cd408 2.223 . S
O416 C415 1.315 . S
O417 Cd407 2.240 . S
O417 C415 1.279 . S
O418 Cd408 2.297 . S
O418 C413 1.247 . S
O419 Cd408 2.439 . S
O419 C413 1.208 . S
O420 Cd421 2.223 . S
O420 C428 1.315 . S
Cd421 O420 2.223 . S
Cd421 O424 2.297 . S
Cd421 O425 2.439 . S
Cd421 O431 2.240 . S
Cd422 O423 2.240 . S
Cd422 O430 2.223 . S
Cd422 O432 2.297 . S
Cd422 O433 2.439 . S
O423 Cd422 2.240 . S
O423 C428 1.279 . S
O424 Cd421 2.297 . S
O424 C426 1.247 . S
O425 Cd421 2.439 . S
O425 C426 1.208 . S
C426 O424 1.247 . S
C426 O425 1.208 . S
C427 O432 1.247 . S
C427 O433 1.208 . S
C428 O420 1.315 . S
C428 O423 1.279 . S
C429 O430 1.315 . S
C429 O431 1.279 . S
O430 Cd422 2.223 . S
O430 C429 1.315 . S
O431 Cd421 2.240 . S
O431 C429 1.279 . S
O432 Cd422 2.297 . S
O432 C427 1.247 . S
O433 Cd422 2.439 . S
O433 C427 1.208 . S
O434 Cd435 2.223 . S
O434 C442 1.315 . S
Cd435 O434 2.223 . S
Cd435 O438 2.297 . S
Cd435 O439 2.439 . S
Cd435 O445 2.240 . S
Cd436 O437 2.240 . S
Cd436 O444 2.223 . S
Cd436 O446 2.297 . S
Cd436 O447 2.439 . S
O437 Cd436 2.240 . S
O437 C442 1.279 . S
O438 Cd435 2.297 . S
O438 C440 1.247 . S
O439 Cd435 2.439 . S
O439 C440 1.208 . S
C440 O438 1.247 . S
C440 O439 1.208 . S
C441 O446 1.247 . S
C441 O447 1.208 . S
C442 O434 1.315 . S
C442 O437 1.279 . S
C443 O444 1.315 . S
C443 O445 1.279 . S
O444 Cd436 2.223 . S
O444 C443 1.315 . S
O445 Cd435 2.240 . S
O445 C443 1.279 . S
O446 Cd436 2.297 . S
O446 C441 1.247 . S
O447 Cd436 2.439 . S
O447 C441 1.208 . S
H448 C454 0.930 . S
H449 C458 0.930 . S
H450 C463 0.929 . S
H451 C461 0.929 . S
H452 C456 0.929 . S
H453 C462 0.929 . S
C454 H448 0.930 . S
C454 C455 1.367 . S
C454 C462 1.378 . S
C455 C454 1.367 . S
C455 C463 1.433 . S
C456 H452 0.929 . S
C456 C458 1.378 . S
C456 C460 1.350 . S
C457 C460 1.463 . S
C457 C462 1.350 . S
C457 N465 1.427 . S
C458 H449 0.930 . S
C458 C456 1.378 . S
C458 C459 1.367 . S
C459 C458 1.367 . S
C459 C461 1.433 . S
C460 C456 1.350 . S
C460 C457 1.463 . S
C460 N464 1.427 . S
C461 H451 0.929 . S
C461 C459 1.433 . S
C461 N464 1.384 . S
C462 H453 0.929 . S
C462 C454 1.378 . S
C462 C457 1.350 . S
C463 H450 0.929 . S
C463 C455 1.433 . S
C463 N465 1.384 . S
N464 C460 1.427 . S
N464 C461 1.384 . S
N465 C457 1.427 . S
N465 C463 1.384 . S
H466 C472 0.930 . S
H467 C476 0.930 . S
H468 C481 0.929 . S
H469 C479 0.929 . S
H470 C474 0.929 . S
H471 C480 0.929 . S
C472 H466 0.930 . S
C472 C473 1.367 . S
C472 C480 1.378 . S
C473 C472 1.367 . S
C473 C481 1.433 . S
C474 H470 0.929 . S
C474 C476 1.378 . S
C474 C478 1.350 . S
C475 C478 1.463 1_565 S
C475 C480 1.350 . S
C475 N483 1.427 . S
C476 H467 0.930 . S
C476 C474 1.378 . S
C476 C477 1.367 . S
C477 C476 1.367 . S
C477 C479 1.433 . S
C478 C474 1.350 . S
C478 C475 1.463 1_545 S
C478 N482 1.427 . S
C479 H469 0.929 . S
C479 C477 1.433 . S
C479 N482 1.384 . S
C480 H471 0.929 . S
C480 C472 1.378 . S
C480 C475 1.350 . S
C481 H468 0.929 . S
C481 C473 1.433 . S
C481 N483 1.384 . S
N482 C478 1.427 . S
N482 C479 1.384 . S
N483 C475 1.427 . S
N483 C481 1.384 . S
H484 C490 0.930 . S
H485 C494 0.930 . S
H486 C499 0.929 . S
H487 C497 0.929 . S
H488 C492 0.929 . S
H489 C498 0.929 . S
C490 H484 0.930 . S
C490 C491 1.367 . S
C490 C498 1.378 . S
C491 C490 1.367 . S
C491 C499 1.433 . S
C492 H488 0.929 . S
C492 C494 1.378 . S
C492 C496 1.350 . S
C493 C496 1.463 1_554 S
C493 C498 1.350 . S
C493 N501 1.427 . S
C494 H485 0.930 . S
C494 C492 1.378 . S
C494 C495 1.367 . S
C495 C494 1.367 . S
C495 C497 1.433 . S
C496 C492 1.350 . S
C496 C493 1.463 1_556 S
C496 N500 1.427 . S
C497 H487 0.929 . S
C497 C495 1.433 . S
C497 N500 1.384 . S
C498 H489 0.929 . S
C498 C490 1.378 . S
C498 C493 1.350 . S
C499 H486 0.929 . S
C499 C491 1.433 . S
C499 N501 1.384 . S
N500 C496 1.427 . S
N500 C497 1.384 . S
N501 C493 1.427 . S
N501 C499 1.384 . S
H502 C508 0.930 . S
H503 C512 0.930 . S
H504 C517 0.929 . S
H505 C515 0.929 . S
H506 C510 0.929 . S
H507 C516 0.929 . S
C508 H502 0.930 . S
C508 C509 1.367 . S
C508 C516 1.378 . S
C509 C508 1.367 . S
C509 C517 1.433 . S
C510 H506 0.929 . S
C510 C512 1.378 . S
C510 C514 1.350 . S
C511 C514 1.463 1_545 S
C511 C516 1.350 . S
C511 N519 1.427 . S
C512 H503 0.930 . S
C512 C510 1.378 . S
C512 C513 1.367 . S
C513 C512 1.367 . S
C513 C515 1.433 . S
C514 C510 1.350 . S
C514 C511 1.463 1_565 S
C514 N518 1.427 . S
C515 H505 0.929 . S
C515 C513 1.433 . S
C515 N518 1.384 . S
C516 H507 0.929 . S
C516 C508 1.378 . S
C516 C511 1.350 . S
C517 H504 0.929 . S
C517 C509 1.433 . S
C517 N519 1.384 . S
N518 C514 1.427 . S
N518 C515 1.384 . S
N519 C511 1.427 . S
N519 C517 1.384 . S
H520 C526 0.930 . S
H521 C530 0.930 . S
H522 C535 0.929 . S
H523 C533 0.929 . S
H524 C528 0.929 . S
H525 C534 0.929 . S
C526 H520 0.930 . S
C526 C527 1.367 . S
C526 C534 1.378 . S
C527 C526 1.367 . S
C527 C535 1.433 . S
C528 H524 0.929 . S
C528 C530 1.378 . S
C528 C532 1.350 . S
C529 C532 1.463 . S
C529 C534 1.350 . S
C529 N537 1.427 . S
C530 H521 0.930 . S
C530 C528 1.378 . S
C530 C531 1.367 . S
C531 C530 1.367 . S
C531 C533 1.433 . S
C532 C528 1.350 . S
C532 C529 1.463 . S
C532 N536 1.427 . S
C533 H523 0.929 . S
C533 C531 1.433 . S
C533 N536 1.384 . S
C534 H525 0.929 . S
C534 C526 1.378 . S
C534 C529 1.350 . S
C535 H522 0.929 . S
C535 C527 1.433 . S
C535 N537 1.384 . S
N536 C532 1.427 . S
N536 C533 1.384 . S
N537 C529 1.427 . S
N537 C535 1.384 . S
H538 C544 0.930 . S
H539 C548 0.930 . S
H540 C553 0.929 . S
H541 C551 0.929 . S
H542 C546 0.929 . S
H543 C552 0.929 . S
C544 H538 0.930 . S
C544 C545 1.367 . S
C544 C552 1.378 . S
C545 C544 1.367 . S
C545 C553 1.433 . S
C546 H542 0.929 . S
C546 C548 1.378 . S
C546 C550 1.350 . S
C547 C550 1.463 1_545 S
C547 C552 1.350 . S
C547 N555 1.427 . S
C548 H539 0.930 . S
C548 C546 1.378 . S
C548 C549 1.367 . S
C549 C548 1.367 . S
C549 C551 1.433 . S
C550 C546 1.350 . S
C550 C547 1.463 1_565 S
C550 N554 1.427 . S
C551 H541 0.929 . S
C551 C549 1.433 . S
C551 N554 1.384 . S
C552 H543 0.929 . S
C552 C544 1.378 . S
C552 C547 1.350 . S
C553 H540 0.929 . S
C553 C545 1.433 . S
C553 N555 1.384 . S
N554 C550 1.427 . S
N554 C551 1.384 . S
N555 C547 1.427 . S
N555 C553 1.384 . S
H556 C562 0.930 . S
H557 C566 0.930 . S
H558 C571 0.929 . S
H559 C569 0.929 . S
H560 C564 0.929 . S
H561 C570 0.929 . S
C562 H556 0.930 . S
C562 C563 1.367 . S
C562 C570 1.378 . S
C563 C562 1.367 . S
C563 C571 1.433 . S
C564 H560 0.929 . S
C564 C566 1.378 . S
C564 C568 1.350 . S
C565 C568 1.463 1_556 S
C565 C570 1.350 . S
C565 N573 1.427 . S
C566 H557 0.930 . S
C566 C564 1.378 . S
C566 C567 1.367 . S
C567 C566 1.367 . S
C567 C569 1.433 . S
C568 C564 1.350 . S
C568 C565 1.463 1_554 S
C568 N572 1.427 . S
C569 H559 0.929 . S
C569 C567 1.433 . S
C569 N572 1.384 . S
C570 H561 0.929 . S
C570 C562 1.378 . S
C570 C565 1.350 . S
C571 H558 0.929 . S
C571 C563 1.433 . S
C571 N573 1.384 . S
N572 C568 1.427 . S
N572 C569 1.384 . S
N573 C565 1.427 . S
N573 C571 1.384 . S
H574 C580 0.930 . S
H575 C584 0.930 . S
H576 C589 0.929 . S
H577 C587 0.929 . S
H578 C582 0.929 . S
H579 C588 0.929 . S
C580 H574 0.930 . S
C580 C581 1.367 . S
C580 C588 1.378 . S
C581 C580 1.367 . S
C581 C589 1.433 . S
C582 H578 0.929 . S
C582 C584 1.378 . S
C582 C586 1.350 . S
C583 C586 1.463 1_565 S
C583 C588 1.350 . S
C583 N591 1.427 . S
C584 H575 0.930 . S
C584 C582 1.378 . S
C584 C585 1.367 . S
C585 C584 1.367 . S
C585 C587 1.433 . S
C586 C582 1.350 . S
C586 C583 1.463 1_545 S
C586 N590 1.427 . S
C587 H577 0.929 . S
C587 C585 1.433 . S
C587 N590 1.384 . S
C588 H579 0.929 . S
C588 C580 1.378 . S
C588 C583 1.350 . S
C589 H576 0.929 . S
C589 C581 1.433 . S
C589 N591 1.384 . S
N590 C586 1.427 . S
N590 C587 1.384 . S
N591 C583 1.427 . S
N591 C589 1.384 . S
H592 C598 0.930 . S
H593 C602 0.930 . S
H594 C607 0.929 . S
H595 C605 0.929 . S
H596 C600 0.932 . S
H597 C606 0.932 . S
C598 H592 0.930 . S
C598 C599 1.367 . S
C598 C606 1.376 1_556 S
C599 C598 1.367 . S
C599 C607 1.433 . S
C600 H596 0.932 . S
C600 C602 1.376 1_556 S
C600 C604 1.349 1_556 S
C601 C604 1.463 1_556 S
C601 C606 1.349 1_556 S
C601 N609 1.427 . S
C602 H593 0.930 . S
C602 C600 1.376 1_554 S
C602 C603 1.367 . S
C603 C602 1.367 . S
C603 C605 1.433 . S
C604 C600 1.349 1_554 S
C604 C601 1.463 1_554 S
C604 N608 1.427 . S
C605 H595 0.929 . S
C605 C603 1.433 . S
C605 N608 1.384 . S
C606 H597 0.932 . S
C606 C598 1.376 1_554 S
C606 C601 1.349 1_554 S
C607 H594 0.929 . S
C607 C599 1.433 . S
C607 N609 1.384 . S
N608 C604 1.427 . S
N608 C605 1.384 . S
N609 C601 1.427 . S
N609 C607 1.384 . S
H610 C616 0.930 . S
H611 C620 0.930 . S
H612 C625 0.929 . S
H613 C623 0.929 . S
H614 C618 0.929 . S
H615 C624 0.929 . S
C616 H610 0.930 . S
C616 C617 1.367 . S
C616 C624 1.378 . S
C617 C616 1.367 . S
C617 C625 1.433 . S
C618 H614 0.929 . S
C618 C620 1.378 . S
C618 C622 1.350 . S
C619 C622 1.463 . S
C619 C624 1.350 . S
C619 N627 1.427 . S
C620 H611 0.930 . S
C620 C618 1.378 . S
C620 C621 1.367 . S
C621 C620 1.367 . S
C621 C623 1.433 . S
C622 C618 1.350 . S
C622 C619 1.463 . S
C622 N626 1.427 . S
C623 H613 0.929 . S
C623 C621 1.433 . S
C623 N626 1.384 . S
C624 H615 0.929 . S
C624 C616 1.378 . S
C624 C619 1.350 . S
C625 H612 0.929 . S
C625 C617 1.433 . S
C625 N627 1.384 . S
N626 C622 1.427 . S
N626 C623 1.384 . S
N627 C619 1.427 . S
N627 C625 1.384 . S
H628 C634 0.930 . S
H629 C638 0.930 . S
H630 C643 0.929 . S
H631 C641 0.929 . S
H632 C636 0.929 . S
H633 C642 0.929 . S
C634 H628 0.930 . S
C634 C635 1.367 . S
C634 C642 1.378 . S
C635 C634 1.367 . S
C635 C643 1.433 . S
C636 H632 0.929 . S
C636 C638 1.378 . S
C636 C640 1.350 . S
C637 C640 1.463 . S
C637 C642 1.350 . S
C637 N645 1.427 . S
C638 H629 0.930 . S
C638 C636 1.378 . S
C638 C639 1.367 . S
C639 C638 1.367 . S
C639 C641 1.433 . S
C640 C636 1.350 . S
C640 C637 1.463 . S
C640 N644 1.427 . S
C641 H631 0.929 . S
C641 C639 1.433 . S
C641 N644 1.384 . S
C642 H633 0.929 . S
C642 C634 1.378 . S
C642 C637 1.350 . S
C643 H630 0.929 . S
C643 C635 1.433 . S
C643 N645 1.384 . S
N644 C640 1.427 . S
N644 C641 1.384 . S
N645 C637 1.427 . S
N645 C643 1.384 . S
H646 C652 0.930 . S
H647 C656 0.930 . S
H648 C661 0.929 . S
H649 C659 0.929 . S
H650 C654 0.929 . S
H651 C660 0.929 . S
C652 H646 0.930 . S
C652 C653 1.367 . S
C652 C660 1.378 . S
C653 C652 1.367 . S
C653 C661 1.433 . S
C654 H650 0.929 . S
C654 C656 1.378 . S
C654 C658 1.350 . S
C655 C658 1.463 . S
C655 C660 1.350 . S
C655 N663 1.427 . S
C656 H647 0.930 . S
C656 C654 1.378 . S
C656 C657 1.367 . S
C657 C656 1.367 . S
C657 C659 1.433 . S
C658 C654 1.350 . S
C658 C655 1.463 . S
C658 N662 1.427 . S
C659 H649 0.929 . S
C659 C657 1.433 . S
C659 N662 1.384 . S
C660 H651 0.929 . S
C660 C652 1.378 . S
C660 C655 1.350 . S
C661 H648 0.929 . S
C661 C653 1.433 . S
C661 N663 1.384 . S
N662 C658 1.427 . S
N662 C659 1.384 . S
N663 C655 1.427 . S
N663 C661 1.384 . S
H664 C670 0.930 . S
H665 C674 0.930 . S
H666 C679 0.929 . S
H667 C677 0.929 . S
H668 C672 0.929 . S
H669 C678 0.929 . S
C670 H664 0.930 . S
C670 C671 1.367 . S
C670 C678 1.378 . S
C671 C670 1.367 . S
C671 C679 1.433 . S
C672 H668 0.929 . S
C672 C674 1.378 . S
C672 C676 1.350 . S
C673 C676 1.463 1_556 S
C673 C678 1.350 . S
C673 N681 1.427 . S
C674 H665 0.930 . S
C674 C672 1.378 . S
C674 C675 1.367 . S
C675 C674 1.367 . S
C675 C677 1.433 . S
C676 C672 1.350 . S
C676 C673 1.463 1_554 S
C676 N680 1.427 . S
C677 H667 0.929 . S
C677 C675 1.433 . S
C677 N680 1.384 . S
C678 H669 0.929 . S
C678 C670 1.378 . S
C678 C673 1.350 . S
C679 H666 0.929 . S
C679 C671 1.433 . S
C679 N681 1.384 . S
N680 C676 1.427 . S
N680 C677 1.384 . S
N681 C673 1.427 . S
N681 C679 1.384 . S
H682 C688 0.930 . S
H683 C692 0.930 . S
H684 C697 0.929 . S
H685 C695 0.929 . S
H686 C690 0.929 . S
H687 C696 0.929 . S
C688 H682 0.930 . S
C688 C689 1.367 . S
C688 C696 1.378 . S
C689 C688 1.367 . S
C689 C697 1.433 . S
C690 H686 0.929 . S
C690 C692 1.378 . S
C690 C694 1.350 . S
C691 C694 1.463 . S
C691 C696 1.350 . S
C691 N699 1.427 . S
C692 H683 0.930 . S
C692 C690 1.378 . S
C692 C693 1.367 . S
C693 C692 1.367 . S
C693 C695 1.433 . S
C694 C690 1.350 . S
C694 C691 1.463 . S
C694 N698 1.427 . S
C695 H685 0.929 . S
C695 C693 1.433 . S
C695 N698 1.384 . S
C696 H687 0.929 . S
C696 C688 1.378 . S
C696 C691 1.350 . S
C697 H684 0.929 . S
C697 C689 1.433 . S
C697 N699 1.384 . S
N698 C694 1.427 . S
N698 C695 1.384 . S
N699 C691 1.427 . S
N699 C697 1.384 . S
H700 C706 0.930 . S
H701 C710 0.930 . S
H702 C715 0.929 . S
H703 C713 0.929 . S
H704 C708 0.929 . S
H705 C714 0.929 . S
C706 H700 0.930 . S
C706 C707 1.367 . S
C706 C714 1.378 . S
C707 C706 1.367 . S
C707 C715 1.433 . S
C708 H704 0.929 . S
C708 C710 1.378 . S
C708 C712 1.350 . S
C709 C712 1.463 . S
C709 C714 1.350 . S
C709 N717 1.427 . S
C710 H701 0.930 . S
C710 C708 1.378 . S
C710 C711 1.367 . S
C711 C710 1.367 . S
C711 C713 1.433 . S
C712 C708 1.350 . S
C712 C709 1.463 . S
C712 N716 1.427 . S
C713 H703 0.929 . S
C713 C711 1.433 . S
C713 N716 1.384 . S
C714 H705 0.929 . S
C714 C706 1.378 . S
C714 C709 1.350 . S
C715 H702 0.929 . S
C715 C707 1.433 . S
C715 N717 1.384 . S
N716 C712 1.427 . S
N716 C713 1.384 . S
N717 C709 1.427 . S
N717 C715 1.384 . S
H718 C724 0.930 . S
H719 C728 0.930 . S
H720 C733 0.929 . S
H721 C731 0.929 . S
H722 C726 0.929 . S
H723 C732 0.929 . S
C724 H718 0.930 . S
C724 C725 1.367 . S
C724 C732 1.378 . S
C725 C724 1.367 . S
C725 C733 1.433 . S
C726 H722 0.929 . S
C726 C728 1.378 . S
C726 C730 1.350 . S
C727 C730 1.463 . S
C727 C732 1.350 . S
C727 N735 1.427 . S
C728 H719 0.930 . S
C728 C726 1.378 . S
C728 C729 1.367 . S
C729 C728 1.367 . S
C729 C731 1.433 . S
C730 C726 1.350 . S
C730 C727 1.463 . S
C730 N734 1.427 . S
C731 H721 0.929 . S
C731 C729 1.433 . S
C731 N734 1.384 . S
C732 H723 0.929 . S
C732 C724 1.378 . S
C732 C727 1.350 . S
C733 H720 0.929 . S
C733 C725 1.433 . S
C733 N735 1.384 . S
N734 C730 1.427 . S
N734 C731 1.384 . S
N735 C727 1.427 . S
N735 C733 1.384 . S
H736 C742 0.930 . S
H737 C746 0.930 . S
H738 C751 0.929 . S
H739 C749 0.929 . S
H740 C744 0.929 . S
H741 C750 0.929 . S
C742 H736 0.930 . S
C742 C743 1.367 . S
C742 C750 1.378 . S
C743 C742 1.367 . S
C743 C751 1.433 . S
C744 H740 0.929 . S
C744 C746 1.378 . S
C744 C748 1.350 . S
C745 C748 1.463 . S
C745 C750 1.350 . S
C745 N753 1.427 . S
C746 H737 0.930 . S
C746 C744 1.378 . S
C746 C747 1.367 . S
C747 C746 1.367 . S
C747 C749 1.433 . S
C748 C744 1.350 . S
C748 C745 1.463 . S
C748 N752 1.427 . S
C749 H739 0.929 . S
C749 C747 1.433 . S
C749 N752 1.384 . S
C750 H741 0.929 . S
C750 C742 1.378 . S
C750 C745 1.350 . S
C751 H738 0.929 . S
C751 C743 1.433 . S
C751 N753 1.384 . S
N752 C748 1.427 . S
N752 C749 1.384 . S
N753 C745 1.427 . S
N753 C751 1.384 . S
H754 C760 0.930 . S
H755 C764 0.930 . S
H756 C769 0.929 . S
H757 C767 0.929 . S
H758 C762 0.929 . S
H759 C768 0.929 . S
C760 H754 0.930 . S
C760 C761 1.367 . S
C760 C768 1.378 . S
C761 C760 1.367 . S
C761 C769 1.433 . S
C762 H758 0.929 . S
C762 C764 1.378 . S
C762 C766 1.350 . S
C763 C766 1.463 . S
C763 C768 1.350 . S
C763 N771 1.427 . S
C764 H755 0.930 . S
C764 C762 1.378 . S
C764 C765 1.367 . S
C765 C764 1.367 . S
C765 C767 1.433 . S
C766 C762 1.350 . S
C766 C763 1.463 . S
C766 N770 1.427 . S
C767 H757 0.929 . S
C767 C765 1.433 . S
C767 N770 1.384 . S
C768 H759 0.929 . S
C768 C760 1.378 . S
C768 C763 1.350 . S
C769 H756 0.929 . S
C769 C761 1.433 . S
C769 N771 1.384 . S
N770 C766 1.427 . S
N770 C767 1.384 . S
N771 C763 1.427 . S
N771 C769 1.384 . S
H772 C778 0.930 . S
H773 C782 0.930 . S
H774 C787 0.929 . S
H775 C785 0.929 . S
H776 C780 0.929 . S
H777 C786 0.929 . S
C778 H772 0.930 . S
C778 C779 1.367 . S
C778 C786 1.378 . S
C779 C778 1.367 . S
C779 C787 1.433 . S
C780 H776 0.929 . S
C780 C782 1.378 . S
C780 C784 1.350 . S
C781 C784 1.463 . S
C781 C786 1.350 . S
C781 N789 1.427 . S
C782 H773 0.930 . S
C782 C780 1.378 . S
C782 C783 1.367 . S
C783 C782 1.367 . S
C783 C785 1.433 . S
C784 C780 1.350 . S
C784 C781 1.463 . S
C784 N788 1.427 . S
C785 H775 0.929 . S
C785 C783 1.433 . S
C785 N788 1.384 . S
C786 H777 0.929 . S
C786 C778 1.378 . S
C786 C781 1.350 . S
C787 H774 0.929 . S
C787 C779 1.433 . S
C787 N789 1.384 . S
N788 C784 1.427 . S
N788 C785 1.384 . S
N789 C781 1.427 . S
N789 C787 1.384 . S
H790 C796 0.930 . S
H791 C800 0.930 . S
H792 C805 0.929 . S
H793 C803 0.929 . S
H794 C798 0.929 . S
H795 C804 0.929 . S
C796 H790 0.930 . S
C796 C797 1.367 . S
C796 C804 1.378 . S
C797 C796 1.367 . S
C797 C805 1.433 . S
C798 H794 0.929 . S
C798 C800 1.378 . S
C798 C802 1.350 . S
C799 C802 1.463 . S
C799 C804 1.350 . S
C799 N807 1.427 . S
C800 H791 0.930 . S
C800 C798 1.378 . S
C800 C801 1.367 . S
C801 C800 1.367 . S
C801 C803 1.433 1_556 S
C802 C798 1.350 . S
C802 C799 1.463 . S
C802 N806 1.427 . S
C803 H793 0.929 . S
C803 C801 1.433 1_554 S
C803 N806 1.384 1_554 S
C804 H795 0.929 . S
C804 C796 1.378 . S
C804 C799 1.350 . S
C805 H792 0.929 . S
C805 C797 1.433 . S
C805 N807 1.384 . S
N806 C802 1.427 . S
N806 C803 1.384 1_556 S
N807 C799 1.427 . S
N807 C805 1.384 . S
H808 C814 0.930 1_554 S
H809 C818 0.930 . S
H810 C823 0.929 . S
H811 C821 0.929 . S
H812 C816 0.929 . S
H813 C822 0.929 . S
C814 H808 0.930 1_556 S
C814 C815 1.367 . S
C814 C822 1.378 . S
C815 C814 1.367 . S
C815 C823 1.433 . S
C816 H812 0.929 . S
C816 C818 1.378 . S
C816 C820 1.350 . S
C817 C820 1.463 . S
C817 C822 1.350 . S
C817 N825 1.427 . S
C818 H809 0.930 . S
C818 C816 1.378 . S
C818 C819 1.367 . S
C819 C818 1.367 . S
C819 C821 1.433 . S
C820 C816 1.350 . S
C820 C817 1.463 . S
C820 N824 1.427 . S
C821 H811 0.929 . S
C821 C819 1.433 . S
C821 N824 1.384 . S
C822 H813 0.929 . S
C822 C814 1.378 . S
C822 C817 1.350 . S
C823 H810 0.929 . S
C823 C815 1.433 . S
C823 N825 1.384 . S
N824 C820 1.427 . S
N824 C821 1.384 . S
N825 C817 1.427 . S
N825 C823 1.384 . S
H826 C832 0.930 . S
H827 C836 0.930 . S
H828 C841 0.929 . S
H829 C839 0.929 . S
H830 C834 0.929 . S
H831 C840 0.929 . S
C832 H826 0.930 . S
C832 C833 1.367 . S
C832 C840 1.378 . S
C833 C832 1.367 . S
C833 C841 1.433 . S
C834 H830 0.929 . S
C834 C836 1.378 . S
C834 C838 1.350 . S
C835 C838 1.463 . S
C835 C840 1.350 . S
C835 N843 1.427 . S
C836 H827 0.930 . S
C836 C834 1.378 . S
C836 C837 1.367 . S
C837 C836 1.367 . S
C837 C839 1.433 . S
C838 C834 1.350 . S
C838 C835 1.463 . S
C838 N842 1.427 . S
C839 H829 0.929 . S
C839 C837 1.433 . S
C839 N842 1.384 . S
C840 H831 0.929 . S
C840 C832 1.378 . S
C840 C835 1.350 . S
C841 H828 0.929 . S
C841 C833 1.433 . S
C841 N843 1.384 . S
N842 C838 1.427 . S
N842 C839 1.384 . S
N843 C835 1.427 . S
N843 C841 1.384 . S
H844 C850 0.930 . S
H845 C854 0.930 . S
H846 C859 0.929 . S
H847 C857 0.929 . S
H848 C852 0.929 . S
H849 C858 0.929 . S
C850 H844 0.930 . S
C850 C851 1.367 . S
C850 C858 1.378 . S
C851 C850 1.367 . S
C851 C859 1.433 . S
C852 H848 0.929 . S
C852 C854 1.378 . S
C852 C856 1.350 . S
C853 C856 1.463 . S
C853 C858 1.350 . S
C853 N861 1.427 . S
C854 H845 0.930 . S
C854 C852 1.378 . S
C854 C855 1.367 . S
C855 C854 1.367 . S
C855 C857 1.433 . S
C856 C852 1.350 . S
C856 C853 1.463 . S
C856 N860 1.427 . S
C857 H847 0.929 . S
C857 C855 1.433 . S
C857 N860 1.384 . S
C858 H849 0.929 . S
C858 C850 1.378 . S
C858 C853 1.350 . S
C859 H846 0.929 . S
C859 C851 1.433 . S
C859 N861 1.384 . S
N860 C856 1.427 . S
N860 C857 1.384 . S
N861 C853 1.427 . S
N861 C859 1.384 . S
H862 C868 0.930 . S
H863 C872 0.930 . S
H864 C877 0.929 . S
H865 C875 0.929 . S
H866 C870 0.929 . S
H867 C876 0.929 . S
C868 H862 0.930 . S
C868 C869 1.367 . S
C868 C876 1.378 . S
C869 C868 1.367 . S
C869 C877 1.433 1_554 S
C870 H866 0.929 . S
C870 C872 1.378 . S
C870 C874 1.350 . S
C871 C874 1.463 . S
C871 C876 1.350 . S
C871 N879 1.427 . S
C872 H863 0.930 . S
C872 C870 1.378 . S
C872 C873 1.367 . S
C873 C872 1.367 . S
C873 C875 1.433 . S
C874 C870 1.350 . S
C874 C871 1.463 . S
C874 N878 1.427 . S
C875 H865 0.929 . S
C875 C873 1.433 . S
C875 N878 1.384 . S
C876 H867 0.929 . S
C876 C868 1.378 . S
C876 C871 1.350 . S
C877 H864 0.929 . S
C877 C869 1.433 1_556 S
C877 N879 1.384 1_556 S
N878 C874 1.427 . S
N878 C875 1.384 . S
N879 C871 1.427 . S
N879 C877 1.384 1_554 S
H880 C886 0.930 . S
H881 C890 0.930 . S
H882 C895 0.929 . S
H883 C893 0.929 . S
H884 C888 0.929 . S
H885 C894 0.929 . S
C886 H880 0.930 . S
C886 C887 1.367 . S
C886 C894 1.378 . S
C887 C886 1.367 . S
C887 C895 1.433 . S
C888 H884 0.929 . S
C888 C890 1.378 . S
C888 C892 1.350 . S
C889 C892 1.463 . S
C889 C894 1.350 . S
C889 N897 1.427 . S
C890 H881 0.930 . S
C890 C888 1.378 . S
C890 C891 1.367 . S
C891 C890 1.367 . S
C891 C893 1.433 . S
C892 C888 1.350 . S
C892 C889 1.463 . S
C892 N896 1.427 . S
C893 H883 0.929 . S
C893 C891 1.433 . S
C893 N896 1.384 . S
C894 H885 0.929 . S
C894 C886 1.378 . S
C894 C889 1.350 . S
C895 H882 0.929 . S
C895 C887 1.433 . S
C895 N897 1.384 . S
N896 C892 1.427 . S
N896 C893 1.384 . S
N897 C889 1.427 . S
N897 C895 1.384 . S
H898 C904 0.930 . S
H899 C908 0.930 . S
H900 C913 0.929 . S
H901 C911 0.929 . S
H902 C906 0.929 . S
H903 C912 0.929 . S
C904 H898 0.930 . S
C904 C905 1.367 . S
C904 C912 1.378 . S
C905 C904 1.367 . S
C905 C913 1.433 1_556 S
C906 H902 0.929 . S
C906 C908 1.378 . S
C906 C910 1.350 . S
C907 C910 1.463 . S
C907 C912 1.350 . S
C907 N915 1.427 . S
C908 H899 0.930 . S
C908 C906 1.378 . S
C908 C909 1.367 . S
C909 C908 1.367 . S
C909 C911 1.433 . S
C910 C906 1.350 . S
C910 C907 1.463 . S
C910 N914 1.427 . S
C911 H901 0.929 . S
C911 C909 1.433 . S
C911 N914 1.384 . S
C912 H903 0.929 . S
C912 C904 1.378 . S
C912 C907 1.350 . S
C913 H900 0.929 . S
C913 C905 1.433 1_554 S
C913 N915 1.384 1_554 S
N914 C910 1.427 . S
N914 C911 1.384 . S
N915 C907 1.427 . S
N915 C913 1.384 1_556 S
H916 C922 0.930 . S
H917 C926 0.930 . S
H918 C931 0.929 . S
H919 C929 0.929 . S
H920 C924 0.929 . S
H921 C930 0.929 . S
C922 H916 0.930 . S
C922 C923 1.367 . S
C922 C930 1.378 . S
C923 C922 1.367 . S
C923 C931 1.433 . S
C924 H920 0.929 . S
C924 C926 1.378 . S
C924 C928 1.350 . S
C925 C928 1.463 . S
C925 C930 1.350 . S
C925 N933 1.427 . S
C926 H917 0.930 . S
C926 C924 1.378 . S
C926 C927 1.367 . S
C927 C926 1.367 . S
C927 C929 1.433 . S
C928 C924 1.350 . S
C928 C925 1.463 . S
C928 N932 1.427 . S
C929 H919 0.929 . S
C929 C927 1.433 . S
C929 N932 1.384 . S
C930 H921 0.929 . S
C930 C922 1.378 . S
C930 C925 1.350 . S
C931 H918 0.929 . S
C931 C923 1.433 . S
C931 N933 1.384 . S
N932 C928 1.427 . S
N932 C929 1.384 . S
N933 C925 1.427 . S
N933 C931 1.384 . S
H934 C940 0.930 . S
H935 C944 0.930 . S
H936 C949 0.929 . S
H937 C947 0.929 . S
H938 C942 0.929 . S
H939 C948 0.929 . S
C940 H934 0.930 . S
C940 C941 1.367 . S
C940 C948 1.378 . S
C941 C940 1.367 . S
C941 C949 1.433 . S
C942 H938 0.929 . S
C942 C944 1.378 . S
C942 C946 1.350 . S
C943 C946 1.463 . S
C943 C948 1.350 . S
C943 N951 1.427 . S
C944 H935 0.930 . S
C944 C942 1.378 . S
C944 C945 1.367 . S
C945 C944 1.367 . S
C945 C947 1.433 . S
C946 C942 1.350 . S
C946 C943 1.463 . S
C946 N950 1.427 . S
C947 H937 0.929 . S
C947 C945 1.433 . S
C947 N950 1.384 . S
C948 H939 0.929 . S
C948 C940 1.378 . S
C948 C943 1.350 . S
C949 H936 0.929 . S
C949 C941 1.433 . S
C949 N951 1.384 . S
N950 C946 1.427 . S
N950 C947 1.384 . S
N951 C943 1.427 . S
N951 C949 1.384 . S
H952 C958 0.930 . S
H953 C962 0.930 . S
H954 C967 0.929 . S
H955 C965 0.929 . S
H956 C960 0.929 . S
H957 C966 0.929 . S
C958 H952 0.930 . S
C958 C959 1.367 . S
C958 C966 1.378 . S
C959 C958 1.367 . S
C959 C967 1.433 . S
C960 H956 0.929 . S
C960 C962 1.378 . S
C960 C964 1.350 . S
C961 C964 1.463 . S
C961 C966 1.350 . S
C961 N969 1.427 . S
C962 H953 0.930 . S
C962 C960 1.378 . S
C962 C963 1.367 . S
C963 C962 1.367 . S
C963 C965 1.433 . S
C964 C960 1.350 . S
C964 C961 1.463 . S
C964 N968 1.427 . S
C965 H955 0.929 . S
C965 C963 1.433 . S
C965 N968 1.384 . S
C966 H957 0.929 . S
C966 C958 1.378 . S
C966 C961 1.350 . S
C967 H954 0.929 . S
C967 C959 1.433 . S
C967 N969 1.384 . S
N968 C964 1.427 . S
N968 C965 1.384 . S
N969 C961 1.427 . S
N969 C967 1.384 . S
H970 C976 0.930 . S
H971 C980 0.930 . S
H972 C985 0.929 . S
H973 C983 0.929 . S
H974 C978 0.929 . S
H975 C984 0.929 . S
C976 H970 0.930 . S
C976 C977 1.367 . S
C976 C984 1.378 . S
C977 C976 1.367 . S
C977 C985 1.433 1_554 S
C978 H974 0.929 . S
C978 C980 1.378 . S
C978 C982 1.350 . S
C979 C982 1.463 . S
C979 C984 1.350 . S
C979 N987 1.427 . S
C980 H971 0.930 . S
C980 C978 1.378 . S
C980 C981 1.367 . S
C981 C980 1.367 . S
C981 C983 1.433 . S
C982 C978 1.350 . S
C982 C979 1.463 . S
C982 N986 1.427 . S
C983 H973 0.929 . S
C983 C981 1.433 . S
C983 N986 1.384 . S
C984 H975 0.929 . S
C984 C976 1.378 . S
C984 C979 1.350 . S
C985 H972 0.929 . S
C985 C977 1.433 1_556 S
C985 N987 1.384 1_556 S
N986 C982 1.427 . S
N986 C983 1.384 . S
N987 C979 1.427 . S
N987 C985 1.384 1_554 S
H988 C994 0.930 . S
H989 C998 0.930 . S
H990 C1003 0.929 . S
H991 C1001 0.929 . S
H992 C996 0.929 . S
H993 C1002 0.929 . S
C994 H988 0.930 . S
C994 C995 1.367 . S
C994 C1002 1.378 . S
C995 C994 1.367 . S
C995 C1003 1.433 . S
C996 H992 0.929 . S
C996 C998 1.378 . S
C996 C1000 1.350 . S
C997 C1000 1.463 . S
C997 C1002 1.350 . S
C997 N1005 1.427 . S
C998 H989 0.930 . S
C998 C996 1.378 . S
C998 C999 1.367 . S
C999 C998 1.367 . S
C999 C1001 1.433 . S
C1000 C996 1.350 . S
C1000 C997 1.463 . S
C1000 N1004 1.427 . S
C1001 H991 0.929 . S
C1001 C999 1.433 . S
C1001 N1004 1.384 . S
C1002 H993 0.929 . S
C1002 C994 1.378 . S
C1002 C997 1.350 . S
C1003 H990 0.929 . S
C1003 C995 1.433 . S
C1003 N1005 1.384 . S
N1004 C1000 1.427 . S
N1004 C1001 1.384 . S
N1005 C997 1.427 . S
N1005 C1003 1.384 . S
H1006 C1012 0.930 . S
H1007 C1016 0.930 . S
H1008 C1021 0.929 . S
H1009 C1019 0.929 . S
H1010 C1014 0.929 . S
H1011 C1020 0.929 . S
C1012 H1006 0.930 . S
C1012 C1013 1.367 . S
C1012 C1020 1.378 . S
C1013 C1012 1.367 . S
C1013 C1021 1.433 . S
C1014 H1010 0.929 . S
C1014 C1016 1.378 . S
C1014 C1018 1.350 . S
C1015 C1018 1.463 . S
C1015 C1020 1.350 . S
C1015 N1023 1.427 . S
C1016 H1007 0.930 . S
C1016 C1014 1.378 . S
C1016 C1017 1.367 . S
C1017 C1016 1.367 . S
C1017 C1019 1.433 . S
C1018 C1014 1.350 . S
C1018 C1015 1.463 . S
C1018 N1022 1.427 . S
C1019 H1009 0.929 . S
C1019 C1017 1.433 . S
C1019 N1022 1.384 . S
C1020 H1011 0.929 . S
C1020 C1012 1.378 . S
C1020 C1015 1.350 . S
C1021 H1008 0.929 . S
C1021 C1013 1.433 . S
C1021 N1023 1.384 . S
N1022 C1018 1.427 . S
N1022 C1019 1.384 . S
N1023 C1015 1.427 . S
N1023 C1021 1.384 . S
H1024 C1030 0.930 . S
H1025 C1034 0.930 . S
H1026 C1039 0.929 . S
H1027 C1037 0.929 . S
H1028 C1032 0.929 . S
H1029 C1038 0.929 . S
C1030 H1024 0.930 . S
C1030 C1031 1.367 . S
C1030 C1038 1.378 . S
C1031 C1030 1.367 . S
C1031 C1039 1.433 . S
C1032 H1028 0.929 . S
C1032 C1034 1.378 . S
C1032 C1036 1.350 . S
C1033 C1036 1.463 . S
C1033 C1038 1.350 . S
C1033 N1041 1.427 . S
C1034 H1025 0.930 . S
C1034 C1032 1.378 . S
C1034 C1035 1.367 1_554 S
C1035 C1034 1.367 1_556 S
C1035 C1037 1.433 . S
C1036 C1032 1.350 . S
C1036 C1033 1.463 . S
C1036 N1040 1.427 1_554 S
C1037 H1027 0.929 . S
C1037 C1035 1.433 . S
C1037 N1040 1.384 . S
C1038 H1029 0.929 . S
C1038 C1030 1.378 . S
C1038 C1033 1.350 . S
C1039 H1026 0.929 . S
C1039 C1031 1.433 . S
C1039 N1041 1.384 . S
N1040 C1036 1.427 1_556 S
N1040 C1037 1.384 . S
N1041 C1033 1.427 . S
N1041 C1039 1.384 . S
H1042 C1048 0.930 . S
H1043 C1052 0.930 . S
H1044 C1057 0.929 . S
H1045 C1055 0.929 . S
H1046 C1050 0.929 . S
H1047 C1056 0.929 . S
C1048 H1042 0.930 . S
C1048 C1049 1.367 . S
C1048 C1056 1.378 . S
C1049 C1048 1.367 . S
C1049 C1057 1.433 . S
C1050 H1046 0.929 . S
C1050 C1052 1.378 . S
C1050 C1054 1.350 . S
C1051 C1054 1.463 1_655 S
C1051 C1056 1.350 . S
C1051 N1059 1.427 . S
C1052 H1043 0.930 . S
C1052 C1050 1.378 . S
C1052 C1053 1.367 . S
C1053 C1052 1.367 . S
C1053 C1055 1.433 . S
C1054 C1050 1.350 . S
C1054 C1051 1.463 1_455 S
C1054 N1058 1.427 . S
C1055 H1045 0.929 . S
C1055 C1053 1.433 . S
C1055 N1058 1.384 . S
C1056 H1047 0.929 . S
C1056 C1048 1.378 . S
C1056 C1051 1.350 . S
C1057 H1044 0.929 . S
C1057 C1049 1.433 . S
C1057 N1059 1.384 . S
N1058 C1054 1.427 . S
N1058 C1055 1.384 . S
N1059 C1051 1.427 . S
N1059 C1057 1.384 . S
H1060 C1066 0.930 . S
H1061 C1070 0.930 . S
H1062 C1075 0.929 . S
H1063 C1073 0.929 . S
H1064 C1068 0.929 . S
H1065 C1074 0.929 . S
C1066 H1060 0.930 . S
C1066 C1067 1.367 . S
C1066 C1074 1.378 . S
C1067 C1066 1.367 . S
C1067 C1075 1.433 . S
C1068 H1064 0.929 . S
C1068 C1070 1.378 . S
C1068 C1072 1.350 . S
C1069 C1072 1.463 . S
C1069 C1074 1.350 . S
C1069 N1077 1.427 . S
C1070 H1061 0.930 . S
C1070 C1068 1.378 . S
C1070 C1071 1.367 . S
C1071 C1070 1.367 . S
C1071 C1073 1.433 . S
C1072 C1068 1.350 . S
C1072 C1069 1.463 . S
C1072 N1076 1.427 . S
C1073 H1063 0.929 . S
C1073 C1071 1.433 . S
C1073 N1076 1.384 . S
C1074 H1065 0.929 . S
C1074 C1066 1.378 . S
C1074 C1069 1.350 . S
C1075 H1062 0.929 . S
C1075 C1067 1.433 . S
C1075 N1077 1.384 . S
N1076 C1072 1.427 . S
N1076 C1073 1.384 . S
N1077 C1069 1.427 . S
N1077 C1075 1.384 . S
H1078 C1084 0.930 . S
H1079 C1088 0.930 . S
H1080 C1093 0.929 . S
H1081 C1091 0.929 . S
H1082 C1086 0.929 . S
H1083 C1092 0.929 . S
C1084 H1078 0.930 . S
C1084 C1085 1.367 . S
C1084 C1092 1.378 . S
C1085 C1084 1.367 . S
C1085 C1093 1.433 . S
C1086 H1082 0.929 . S
C1086 C1088 1.378 . S
C1086 C1090 1.350 . S
C1087 C1090 1.463 . S
C1087 C1092 1.350 . S
C1087 N1095 1.427 . S
C1088 H1079 0.930 . S
C1088 C1086 1.378 . S
C1088 C1089 1.367 . S
C1089 C1088 1.367 . S
C1089 C1091 1.433 . S
C1090 C1086 1.350 . S
C1090 C1087 1.463 . S
C1090 N1094 1.427 . S
C1091 H1081 0.929 . S
C1091 C1089 1.433 . S
C1091 N1094 1.384 . S
C1092 H1083 0.929 . S
C1092 C1084 1.378 . S
C1092 C1087 1.350 . S
C1093 H1080 0.929 . S
C1093 C1085 1.433 . S
C1093 N1095 1.384 . S
N1094 C1090 1.427 . S
N1094 C1091 1.384 . S
N1095 C1087 1.427 . S
N1095 C1093 1.384 . S
H1096 C1102 0.930 . S
H1097 C1106 0.930 . S
H1098 C1111 0.929 . S
H1099 C1109 0.929 . S
H1100 C1104 0.929 . S
H1101 C1110 0.929 . S
C1102 H1096 0.930 . S
C1102 C1103 1.367 . S
C1102 C1110 1.378 . S
C1103 C1102 1.367 . S
C1103 C1111 1.433 . S
C1104 H1100 0.929 . S
C1104 C1106 1.378 . S
C1104 C1108 1.350 . S
C1105 C1108 1.463 . S
C1105 C1110 1.350 . S
C1105 N1113 1.427 . S
C1106 H1097 0.930 . S
C1106 C1104 1.378 . S
C1106 C1107 1.367 . S
C1107 C1106 1.367 . S
C1107 C1109 1.433 . S
C1108 C1104 1.350 . S
C1108 C1105 1.463 . S
C1108 N1112 1.427 . S
C1109 H1099 0.929 . S
C1109 C1107 1.433 . S
C1109 N1112 1.384 . S
C1110 H1101 0.929 . S
C1110 C1102 1.378 . S
C1110 C1105 1.350 . S
C1111 H1098 0.929 . S
C1111 C1103 1.433 . S
C1111 N1113 1.384 . S
N1112 C1108 1.427 . S
N1112 C1109 1.384 . S
N1113 C1105 1.427 . S
N1113 C1111 1.384 . S
H1114 C1120 0.930 . S
H1115 C1124 0.930 . S
H1116 C1129 0.929 . S
H1117 C1127 0.929 . S
H1118 C1122 0.929 . S
H1119 C1128 0.929 . S
C1120 H1114 0.930 . S
C1120 C1121 1.367 . S
C1120 C1128 1.378 . S
C1121 C1120 1.367 . S
C1121 C1129 1.433 . S
C1122 H1118 0.929 . S
C1122 C1124 1.378 . S
C1122 C1126 1.350 . S
C1123 C1126 1.463 . S
C1123 C1128 1.350 . S
C1123 N1131 1.427 . S
C1124 H1115 0.930 . S
C1124 C1122 1.378 . S
C1124 C1125 1.367 . S
C1125 C1124 1.367 . S
C1125 C1127 1.433 . S
C1126 C1122 1.350 . S
C1126 C1123 1.463 . S
C1126 N1130 1.427 . S
C1127 H1117 0.929 . S
C1127 C1125 1.433 . S
C1127 N1130 1.384 . S
C1128 H1119 0.929 . S
C1128 C1120 1.378 . S
C1128 C1123 1.350 . S
C1129 H1116 0.929 . S
C1129 C1121 1.433 . S
C1129 N1131 1.384 . S
N1130 C1126 1.427 . S
N1130 C1127 1.384 . S
N1131 C1123 1.427 . S
N1131 C1129 1.384 . S
H1132 C1138 0.930 . S
H1133 C1142 0.930 . S
H1134 C1147 0.929 . S
H1135 C1145 0.929 . S
H1136 C1140 0.929 . S
H1137 C1146 0.929 . S
C1138 H1132 0.930 . S
C1138 C1139 1.367 . S
C1138 C1146 1.378 . S
C1139 C1138 1.367 . S
C1139 C1147 1.433 . S
C1140 H1136 0.929 . S
C1140 C1142 1.378 . S
C1140 C1144 1.350 1_554 S
C1141 C1144 1.463 . S
C1141 C1146 1.350 . S
C1141 N1149 1.427 . S
C1142 H1133 0.930 . S
C1142 C1140 1.378 . S
C1142 C1143 1.367 . S
C1143 C1142 1.367 . S
C1143 C1145 1.433 1_554 S
C1144 C1140 1.350 1_556 S
C1144 C1141 1.463 . S
C1144 N1148 1.427 . S
C1145 H1135 0.929 . S
C1145 C1143 1.433 1_556 S
C1145 N1148 1.384 . S
C1146 H1137 0.929 . S
C1146 C1138 1.378 . S
C1146 C1141 1.350 . S
C1147 H1134 0.929 . S
C1147 C1139 1.433 . S
C1147 N1149 1.384 . S
N1148 C1144 1.427 . S
N1148 C1145 1.384 . S
N1149 C1141 1.427 . S
N1149 C1147 1.384 . S
H1150 C1156 0.930 . S
H1151 C1160 0.930 . S
H1152 C1165 0.929 . S
H1153 C1163 0.929 . S
H1154 C1158 0.929 . S
H1155 C1164 0.929 . S
C1156 H1150 0.930 . S
C1156 C1157 1.367 . S
C1156 C1164 1.378 . S
C1157 C1156 1.367 . S
C1157 C1165 1.433 . S
C1158 H1154 0.929 . S
C1158 C1160 1.378 . S
C1158 C1162 1.350 . S
C1159 C1162 1.463 1_455 S
C1159 C1164 1.350 . S
C1159 N1167 1.427 . S
C1160 H1151 0.930 . S
C1160 C1158 1.378 . S
C1160 C1161 1.367 . S
C1161 C1160 1.367 . S
C1161 C1163 1.433 . S
C1162 C1158 1.350 . S
C1162 C1159 1.463 1_655 S
C1162 N1166 1.427 . S
C1163 H1153 0.929 . S
C1163 C1161 1.433 . S
C1163 N1166 1.384 . S
C1164 H1155 0.929 . S
C1164 C1156 1.378 . S
C1164 C1159 1.350 . S
C1165 H1152 0.929 . S
C1165 C1157 1.433 . S
C1165 N1167 1.384 . S
N1166 C1162 1.427 . S
N1166 C1163 1.384 . S
N1167 C1159 1.427 . S
N1167 C1165 1.384 . S
H1168 C1174 0.930 . S
H1169 C1178 0.930 . S
H1170 C1183 0.929 . S
H1171 C1181 0.929 . S
H1172 C1176 0.929 . S
H1173 C1182 0.929 . S
C1174 H1168 0.930 . S
C1174 C1175 1.367 . S
C1174 C1182 1.378 . S
C1175 C1174 1.367 . S
C1175 C1183 1.433 . S
C1176 H1172 0.929 . S
C1176 C1178 1.378 . S
C1176 C1180 1.350 . S
C1177 C1180 1.463 . S
C1177 C1182 1.350 . S
C1177 N1185 1.427 . S
C1178 H1169 0.930 . S
C1178 C1176 1.378 . S
C1178 C1179 1.367 1_556 S
C1179 C1178 1.367 1_554 S
C1179 C1181 1.433 . S
C1180 C1176 1.350 . S
C1180 C1177 1.463 . S
C1180 N1184 1.427 1_556 S
C1181 H1171 0.929 . S
C1181 C1179 1.433 . S
C1181 N1184 1.384 . S
C1182 H1173 0.929 . S
C1182 C1174 1.378 . S
C1182 C1177 1.350 . S
C1183 H1170 0.929 . S
C1183 C1175 1.433 . S
C1183 N1185 1.384 . S
N1184 C1180 1.427 1_554 S
N1184 C1181 1.384 . S
N1185 C1177 1.427 . S
N1185 C1183 1.384 . S
H1186 C1192 0.930 . S
H1187 C1196 0.930 . S
H1188 C1201 0.929 . S
H1189 C1199 0.929 . S
H1190 C1194 0.929 . S
H1191 C1200 0.929 . S
C1192 H1186 0.930 . S
C1192 C1193 1.367 . S
C1192 C1200 1.378 . S
C1193 C1192 1.367 . S
C1193 C1201 1.433 . S
C1194 H1190 0.929 . S
C1194 C1196 1.378 . S
C1194 C1198 1.350 . S
C1195 C1198 1.463 1_455 S
C1195 C1200 1.350 . S
C1195 N1203 1.427 . S
C1196 H1187 0.930 . S
C1196 C1194 1.378 . S
C1196 C1197 1.367 . S
C1197 C1196 1.367 . S
C1197 C1199 1.433 . S
C1198 C1194 1.350 . S
C1198 C1195 1.463 1_655 S
C1198 N1202 1.427 . S
C1199 H1189 0.929 . S
C1199 C1197 1.433 . S
C1199 N1202 1.384 . S
C1200 H1191 0.929 . S
C1200 C1192 1.378 . S
C1200 C1195 1.350 . S
C1201 H1188 0.929 . S
C1201 C1193 1.433 . S
C1201 N1203 1.384 . S
N1202 C1198 1.427 . S
N1202 C1199 1.384 . S
N1203 C1195 1.427 . S
N1203 C1201 1.384 . S
H1204 C1210 0.930 . S
H1205 C1214 0.930 . S
H1206 C1219 0.929 . S
H1207 C1217 0.929 . S
H1208 C1212 0.929 . S
H1209 C1218 0.929 . S
C1210 H1204 0.930 . S
C1210 C1211 1.367 . S
C1210 C1218 1.378 . S
C1211 C1210 1.367 . S
C1211 C1219 1.433 . S
C1212 H1208 0.929 . S
C1212 C1214 1.378 . S
C1212 C1216 1.350 . S
C1213 C1216 1.463 . S
C1213 C1218 1.350 . S
C1213 N1221 1.427 . S
C1214 H1205 0.930 . S
C1214 C1212 1.378 . S
C1214 C1215 1.367 . S
C1215 C1214 1.367 . S
C1215 C1217 1.433 . S
C1216 C1212 1.350 . S
C1216 C1213 1.463 . S
C1216 N1220 1.427 . S
C1217 H1207 0.929 . S
C1217 C1215 1.433 . S
C1217 N1220 1.384 . S
C1218 H1209 0.929 . S
C1218 C1210 1.378 . S
C1218 C1213 1.350 . S
C1219 H1206 0.929 . S
C1219 C1211 1.433 . S
C1219 N1221 1.384 . S
N1220 C1216 1.427 . S
N1220 C1217 1.384 . S
N1221 C1213 1.427 . S
N1221 C1219 1.384 . S
H1222 C1228 0.930 . S
H1223 C1232 0.930 . S
H1224 C1237 0.929 . S
H1225 C1235 0.929 . S
H1226 C1230 0.929 . S
H1227 C1236 0.929 . S
C1228 H1222 0.930 . S
C1228 C1229 1.367 . S
C1228 C1236 1.378 . S
C1229 C1228 1.367 . S
C1229 C1237 1.433 . S
C1230 H1226 0.929 . S
C1230 C1232 1.378 . S
C1230 C1234 1.350 . S
C1231 C1234 1.463 . S
C1231 C1236 1.350 . S
C1231 N1239 1.427 . S
C1232 H1223 0.930 . S
C1232 C1230 1.378 . S
C1232 C1233 1.367 . S
C1233 C1232 1.367 . S
C1233 C1235 1.433 . S
C1234 C1230 1.350 . S
C1234 C1231 1.463 . S
C1234 N1238 1.427 . S
C1235 H1225 0.929 . S
C1235 C1233 1.433 . S
C1235 N1238 1.384 . S
C1236 H1227 0.929 . S
C1236 C1228 1.378 . S
C1236 C1231 1.350 . S
C1237 H1224 0.929 . S
C1237 C1229 1.433 . S
C1237 N1239 1.384 . S
N1238 C1234 1.427 . S
N1238 C1235 1.384 . S
N1239 C1231 1.427 . S
N1239 C1237 1.384 . S
H1240 C1246 0.930 . S
H1241 C1250 0.930 . S
H1242 C1255 0.929 . S
H1243 C1253 0.929 . S
H1244 C1248 0.929 . S
H1245 C1254 0.929 . S
C1246 H1240 0.930 . S
C1246 C1247 1.367 . S
C1246 C1254 1.378 . S
C1247 C1246 1.367 . S
C1247 C1255 1.433 . S
C1248 H1244 0.929 . S
C1248 C1250 1.378 . S
C1248 C1252 1.350 . S
C1249 C1252 1.463 . S
C1249 C1254 1.350 . S
C1249 N1257 1.427 . S
C1250 H1241 0.930 . S
C1250 C1248 1.378 . S
C1250 C1251 1.367 . S
C1251 C1250 1.367 . S
C1251 C1253 1.433 . S
C1252 C1248 1.350 . S
C1252 C1249 1.463 . S
C1252 N1256 1.427 . S
C1253 H1243 0.929 . S
C1253 C1251 1.433 . S
C1253 N1256 1.384 . S
C1254 H1245 0.929 . S
C1254 C1246 1.378 . S
C1254 C1249 1.350 . S
C1255 H1242 0.929 . S
C1255 C1247 1.433 . S
C1255 N1257 1.384 . S
N1256 C1252 1.427 . S
N1256 C1253 1.384 . S
N1257 C1249 1.427 . S
N1257 C1255 1.384 . S
H1258 C1264 0.930 . S
H1259 C1268 0.930 . S
H1260 C1273 0.929 . S
H1261 C1271 0.929 . S
H1262 C1266 0.929 . S
H1263 C1272 0.929 . S
C1264 H1258 0.930 . S
C1264 C1265 1.367 . S
C1264 C1272 1.378 . S
C1265 C1264 1.367 . S
C1265 C1273 1.433 . S
C1266 H1262 0.929 . S
C1266 C1268 1.378 . S
C1266 C1270 1.350 . S
C1267 C1270 1.463 . S
C1267 C1272 1.350 . S
C1267 N1275 1.427 . S
C1268 H1259 0.930 . S
C1268 C1266 1.378 . S
C1268 C1269 1.367 . S
C1269 C1268 1.367 . S
C1269 C1271 1.433 . S
C1270 C1266 1.350 . S
C1270 C1267 1.463 . S
C1270 N1274 1.427 . S
C1271 H1261 0.929 . S
C1271 C1269 1.433 . S
C1271 N1274 1.384 . S
C1272 H1263 0.929 . S
C1272 C1264 1.378 . S
C1272 C1267 1.350 . S
C1273 H1260 0.929 . S
C1273 C1265 1.433 . S
C1273 N1275 1.384 . S
N1274 C1270 1.427 . S
N1274 C1271 1.384 . S
N1275 C1267 1.427 . S
N1275 C1273 1.384 . S
H1276 C1282 0.930 . S
H1277 C1286 0.930 . S
H1278 C1291 0.929 . S
H1279 C1289 0.929 . S
H1280 C1284 0.929 . S
H1281 C1290 0.929 . S
C1282 H1276 0.930 . S
C1282 C1283 1.367 . S
C1282 C1290 1.378 . S
C1283 C1282 1.367 . S
C1283 C1291 1.433 . S
C1284 H1280 0.929 . S
C1284 C1286 1.378 . S
C1284 C1288 1.350 1_556 S
C1285 C1288 1.463 . S
C1285 C1290 1.350 . S
C1285 N1293 1.427 . S
C1286 H1277 0.930 . S
C1286 C1284 1.378 . S
C1286 C1287 1.367 . S
C1287 C1286 1.367 . S
C1287 C1289 1.433 1_556 S
C1288 C1284 1.350 1_554 S
C1288 C1285 1.463 . S
C1288 N1292 1.427 . S
C1289 H1279 0.929 . S
C1289 C1287 1.433 1_554 S
C1289 N1292 1.384 . S
C1290 H1281 0.929 . S
C1290 C1282 1.378 . S
C1290 C1285 1.350 . S
C1291 H1278 0.929 . S
C1291 C1283 1.433 . S
C1291 N1293 1.384 . S
N1292 C1288 1.427 . S
N1292 C1289 1.384 . S
N1293 C1285 1.427 . S
N1293 C1291 1.384 . S
H1294 C1300 0.930 . S
H1295 C1304 0.930 . S
H1296 C1309 0.929 . S
H1297 C1307 0.929 . S
H1298 C1302 0.929 . S
H1299 C1308 0.929 . S
C1300 H1294 0.930 . S
C1300 C1301 1.367 . S
C1300 C1308 1.378 . S
C1301 C1300 1.367 . S
C1301 C1309 1.433 . S
C1302 H1298 0.929 . S
C1302 C1304 1.378 . S
C1302 C1306 1.350 . S
C1303 C1306 1.463 1_455 S
C1303 C1308 1.350 . S
C1303 N1311 1.427 . S
C1304 H1295 0.930 . S
C1304 C1302 1.378 . S
C1304 C1305 1.367 . S
C1305 C1304 1.367 . S
C1305 C1307 1.433 . S
C1306 C1302 1.350 . S
C1306 C1303 1.463 1_655 S
C1306 N1310 1.427 . S
C1307 H1297 0.929 . S
C1307 C1305 1.433 . S
C1307 N1310 1.384 . S
C1308 H1299 0.929 . S
C1308 C1300 1.378 . S
C1308 C1303 1.350 . S
C1309 H1296 0.929 . S
C1309 C1301 1.433 . S
C1309 N1311 1.384 . S
N1310 C1306 1.427 . S
N1310 C1307 1.384 . S
N1311 C1303 1.427 . S
N1311 C1309 1.384 . S
H1312 C1318 0.930 . S
H1313 C1322 0.930 . S
H1314 C1327 0.929 . S
H1315 C1325 0.929 . S
H1316 C1320 0.929 . S
H1317 C1326 0.929 . S
C1318 H1312 0.930 . S
C1318 C1319 1.367 . S
C1318 C1326 1.378 . S
C1319 C1318 1.367 . S
C1319 C1327 1.433 . S
C1320 H1316 0.929 . S
C1320 C1322 1.378 . S
C1320 C1324 1.350 . S
C1321 C1324 1.463 . S
C1321 C1326 1.350 . S
C1321 N1329 1.427 . S
C1322 H1313 0.930 . S
C1322 C1320 1.378 . S
C1322 C1323 1.367 . S
C1323 C1322 1.367 . S
C1323 C1325 1.433 . S
C1324 C1320 1.350 . S
C1324 C1321 1.463 . S
C1324 N1328 1.427 . S
C1325 H1315 0.929 . S
C1325 C1323 1.433 . S
C1325 N1328 1.384 . S
C1326 H1317 0.929 . S
C1326 C1318 1.378 . S
C1326 C1321 1.350 . S
C1327 H1314 0.929 . S
C1327 C1319 1.433 . S
C1327 N1329 1.384 . S
N1328 C1324 1.427 . S
N1328 C1325 1.384 . S
N1329 C1321 1.427 . S
N1329 C1327 1.384 . S
H1330 C1336 0.930 . S
H1331 C1340 0.930 . S
H1332 C1345 0.929 . S
H1333 C1343 0.929 . S
H1334 C1338 0.929 . S
H1335 C1344 0.929 . S
C1336 H1330 0.930 . S
C1336 C1337 1.367 . S
C1336 C1344 1.378 . S
C1337 C1336 1.367 . S
C1337 C1345 1.433 . S
C1338 H1334 0.929 . S
C1338 C1340 1.378 . S
C1338 C1342 1.350 . S
C1339 C1342 1.463 . S
C1339 C1344 1.350 . S
C1339 N1347 1.427 . S
C1340 H1331 0.930 . S
C1340 C1338 1.378 . S
C1340 C1341 1.367 . S
C1341 C1340 1.367 . S
C1341 C1343 1.433 . S
C1342 C1338 1.350 . S
C1342 C1339 1.463 . S
C1342 N1346 1.427 . S
C1343 H1333 0.929 . S
C1343 C1341 1.433 . S
C1343 N1346 1.384 . S
C1344 H1335 0.929 . S
C1344 C1336 1.378 . S
C1344 C1339 1.350 . S
C1345 H1332 0.929 . S
C1345 C1337 1.433 . S
C1345 N1347 1.384 . S
N1346 C1342 1.427 . S
N1346 C1343 1.384 . S
N1347 C1339 1.427 . S
N1347 C1345 1.384 . S
H1348 C1354 0.930 . S
H1349 C1358 0.930 . S
H1350 C1363 0.929 . S
H1351 C1361 0.929 . S
H1352 C1356 0.929 . S
H1353 C1362 0.929 . S
C1354 H1348 0.930 . S
C1354 C1355 1.367 . S
C1354 C1362 1.378 . S
C1355 C1354 1.367 . S
C1355 C1363 1.433 . S
C1356 H1352 0.929 . S
C1356 C1358 1.378 . S
C1356 C1360 1.350 1_556 S
C1357 C1360 1.463 . S
C1357 C1362 1.350 . S
C1357 N1365 1.427 . S
C1358 H1349 0.930 . S
C1358 C1356 1.378 . S
C1358 C1359 1.367 . S
C1359 C1358 1.367 . S
C1359 C1361 1.433 1_556 S
C1360 C1356 1.350 1_554 S
C1360 C1357 1.463 . S
C1360 N1364 1.427 . S
C1361 H1351 0.929 . S
C1361 C1359 1.433 1_554 S
C1361 N1364 1.384 . S
C1362 H1353 0.929 . S
C1362 C1354 1.378 . S
C1362 C1357 1.350 . S
C1363 H1350 0.929 . S
C1363 C1355 1.433 . S
C1363 N1365 1.384 . S
N1364 C1360 1.427 . S
N1364 C1361 1.384 . S
N1365 C1357 1.427 . S
N1365 C1363 1.384 . S
H1366 C1372 0.930 . S
H1367 C1376 0.930 . S
H1368 C1381 0.929 . S
H1369 C1379 0.929 . S
H1370 C1374 0.929 . S
H1371 C1380 0.929 . S
C1372 H1366 0.930 . S
C1372 C1373 1.367 . S
C1372 C1380 1.378 . S
C1373 C1372 1.367 . S
C1373 C1381 1.433 . S
C1374 H1370 0.929 . S
C1374 C1376 1.378 . S
C1374 C1378 1.350 . S
C1375 C1378 1.463 1_655 S
C1375 C1380 1.350 . S
C1375 N1383 1.427 . S
C1376 H1367 0.930 . S
C1376 C1374 1.378 . S
C1376 C1377 1.367 . S
C1377 C1376 1.367 . S
C1377 C1379 1.433 . S
C1378 C1374 1.350 . S
C1378 C1375 1.463 1_455 S
C1378 N1382 1.427 . S
C1379 H1369 0.929 . S
C1379 C1377 1.433 . S
C1379 N1382 1.384 . S
C1380 H1371 0.929 . S
C1380 C1372 1.378 . S
C1380 C1375 1.350 . S
C1381 H1368 0.929 . S
C1381 C1373 1.433 . S
C1381 N1383 1.384 . S
N1382 C1378 1.427 . S
N1382 C1379 1.384 . S
N1383 C1375 1.427 . S
N1383 C1381 1.384 . S
H1384 C1390 0.930 . S
H1385 C1394 0.930 . S
H1386 C1399 0.929 . S
H1387 C1397 0.929 . S
H1388 C1392 0.929 . S
H1389 C1398 0.929 . S
C1390 H1384 0.930 . S
C1390 C1391 1.367 . S
C1390 C1398 1.378 . S
C1391 C1390 1.367 . S
C1391 C1399 1.433 . S
C1392 H1388 0.929 . S
C1392 C1394 1.378 1_556 S
C1392 C1396 1.350 . S
C1393 C1396 1.463 . S
C1393 C1398 1.350 . S
C1393 N1401 1.427 . S
C1394 H1385 0.930 . S
C1394 C1392 1.378 1_554 S
C1394 C1395 1.367 . S
C1395 C1394 1.367 . S
C1395 C1397 1.433 . S
C1396 C1392 1.350 . S
C1396 C1393 1.463 . S
C1396 N1400 1.427 . S
C1397 H1387 0.929 . S
C1397 C1395 1.433 . S
C1397 N1400 1.384 1_554 S
C1398 H1389 0.929 . S
C1398 C1390 1.378 . S
C1398 C1393 1.350 . S
C1399 H1386 0.929 . S
C1399 C1391 1.433 . S
C1399 N1401 1.384 . S
N1400 C1396 1.427 . S
N1400 C1397 1.384 1_556 S
N1401 C1393 1.427 . S
N1401 C1399 1.384 . S
H1402 C1408 0.930 . S
H1403 C1412 0.930 . S
H1404 C1417 0.929 . S
H1405 C1415 0.929 . S
H1406 C1410 0.929 . S
H1407 C1416 0.929 . S
C1408 H1402 0.930 . S
C1408 C1409 1.367 . S
C1408 C1416 1.378 . S
C1409 C1408 1.367 . S
C1409 C1417 1.433 . S
C1410 H1406 0.929 . S
C1410 C1412 1.378 . S
C1410 C1414 1.350 . S
C1411 C1414 1.463 1_655 S
C1411 C1416 1.350 . S
C1411 N1419 1.427 . S
C1412 H1403 0.930 . S
C1412 C1410 1.378 . S
C1412 C1413 1.367 . S
C1413 C1412 1.367 . S
C1413 C1415 1.433 . S
C1414 C1410 1.350 . S
C1414 C1411 1.463 1_455 S
C1414 N1418 1.427 . S
C1415 H1405 0.929 . S
C1415 C1413 1.433 . S
C1415 N1418 1.384 . S
C1416 H1407 0.929 . S
C1416 C1408 1.378 . S
C1416 C1411 1.350 . S
C1417 H1404 0.929 . S
C1417 C1409 1.433 . S
C1417 N1419 1.384 . S
N1418 C1414 1.427 . S
N1418 C1415 1.384 . S
N1419 C1411 1.427 . S
N1419 C1417 1.384 . S
H1420 C1426 0.930 . S
H1421 C1430 0.930 . S
H1422 C1435 0.929 . S
H1423 C1433 0.929 . S
H1424 C1428 0.929 . S
H1425 C1434 0.929 . S
C1426 H1420 0.930 . S
C1426 C1427 1.367 . S
C1426 C1434 1.378 . S
C1427 C1426 1.367 . S
C1427 C1435 1.433 . S
C1428 H1424 0.929 . S
C1428 C1430 1.378 . S
C1428 C1432 1.350 . S
C1429 C1432 1.463 . S
C1429 C1434 1.350 . S
C1429 N1437 1.427 . S
C1430 H1421 0.930 . S
C1430 C1428 1.378 . S
C1430 C1431 1.367 . S
C1431 C1430 1.367 . S
C1431 C1433 1.433 . S
C1432 C1428 1.350 . S
C1432 C1429 1.463 . S
C1432 N1436 1.427 . S
C1433 H1423 0.929 . S
C1433 C1431 1.433 . S
C1433 N1436 1.384 . S
C1434 H1425 0.929 . S
C1434 C1426 1.378 . S
C1434 C1429 1.350 . S
C1435 H1422 0.929 . S
C1435 C1427 1.433 . S
C1435 N1437 1.384 . S
N1436 C1432 1.427 . S
N1436 C1433 1.384 . S
N1437 C1429 1.427 . S
N1437 C1435 1.384 . S
H1438 C1444 0.930 . S
H1439 C1448 0.930 . S
H1440 C1453 0.929 . S
H1441 C1451 0.929 . S
H1442 C1446 0.929 . S
H1443 C1452 0.929 . S
C1444 H1438 0.930 . S
C1444 C1445 1.367 . S
C1444 C1452 1.378 . S
C1445 C1444 1.367 . S
C1445 C1453 1.433 . S
C1446 H1442 0.929 . S
C1446 C1448 1.378 . S
C1446 C1450 1.350 . S
C1447 C1450 1.463 . S
C1447 C1452 1.350 . S
C1447 N1455 1.427 . S
C1448 H1439 0.930 . S
C1448 C1446 1.378 . S
C1448 C1449 1.367 . S
C1449 C1448 1.367 . S
C1449 C1451 1.433 . S
C1450 C1446 1.350 . S
C1450 C1447 1.463 . S
C1450 N1454 1.427 . S
C1451 H1441 0.929 . S
C1451 C1449 1.433 . S
C1451 N1454 1.384 . S
C1452 H1443 0.929 . S
C1452 C1444 1.378 . S
C1452 C1447 1.350 . S
C1453 H1440 0.929 . S
C1453 C1445 1.433 . S
C1453 N1455 1.384 . S
N1454 C1450 1.427 . S
N1454 C1451 1.384 . S
N1455 C1447 1.427 . S
N1455 C1453 1.384 . S
H1456 C1462 0.930 . S
H1457 C1466 0.930 . S
H1458 C1471 0.929 . S
H1459 C1469 0.929 . S
H1460 C1464 0.929 . S
H1461 C1470 0.929 . S
C1462 H1456 0.930 . S
C1462 C1463 1.367 . S
C1462 C1470 1.378 . S
C1463 C1462 1.367 . S
C1463 C1471 1.433 . S
C1464 H1460 0.929 . S
C1464 C1466 1.378 . S
C1464 C1468 1.350 . S
C1465 C1468 1.463 . S
C1465 C1470 1.350 . S
C1465 N1473 1.427 . S
C1466 H1457 0.930 . S
C1466 C1464 1.378 . S
C1466 C1467 1.367 . S
C1467 C1466 1.367 . S
C1467 C1469 1.433 . S
C1468 C1464 1.350 . S
C1468 C1465 1.463 . S
C1468 N1472 1.427 . S
C1469 H1459 0.929 . S
C1469 C1467 1.433 . S
C1469 N1472 1.384 . S
C1470 H1461 0.929 . S
C1470 C1462 1.378 . S
C1470 C1465 1.350 . S
C1471 H1458 0.929 . S
C1471 C1463 1.433 . S
C1471 N1473 1.384 . S
N1472 C1468 1.427 . S
N1472 C1469 1.384 . S
N1473 C1465 1.427 . S
N1473 C1471 1.384 . S
H1474 C1480 0.930 . S
H1475 C1484 0.930 . S
H1476 C1489 0.929 . S
H1477 C1487 0.929 . S
H1478 C1482 0.929 . S
H1479 C1488 0.929 . S
C1480 H1474 0.930 . S
C1480 C1481 1.367 . S
C1480 C1488 1.378 . S
C1481 C1480 1.367 . S
C1481 C1489 1.433 . S
C1482 H1478 0.929 . S
C1482 C1484 1.378 . S
C1482 C1486 1.350 . S
C1483 C1486 1.463 . S
C1483 C1488 1.350 . S
C1483 N1491 1.427 . S
C1484 H1475 0.930 . S
C1484 C1482 1.378 . S
C1484 C1485 1.367 . S
C1485 C1484 1.367 . S
C1485 C1487 1.433 . S
C1486 C1482 1.350 . S
C1486 C1483 1.463 . S
C1486 N1490 1.427 . S
C1487 H1477 0.929 . S
C1487 C1485 1.433 . S
C1487 N1490 1.384 . S
C1488 H1479 0.929 . S
C1488 C1480 1.378 . S
C1488 C1483 1.350 . S
C1489 H1476 0.929 . S
C1489 C1481 1.433 . S
C1489 N1491 1.384 . S
N1490 C1486 1.427 . S
N1490 C1487 1.384 . S
N1491 C1483 1.427 . S
N1491 C1489 1.384 . S
H1492 C1498 0.930 . S
H1493 C1502 0.930 . S
H1494 C1507 0.929 . S
H1495 C1505 0.929 . S
H1496 C1500 0.929 . S
H1497 C1506 0.929 . S
C1498 H1492 0.930 . S
C1498 C1499 1.367 . S
C1498 C1506 1.378 1_554 S
C1499 C1498 1.367 . S
C1499 C1507 1.433 . S
C1500 H1496 0.929 . S
C1500 C1502 1.378 . S
C1500 C1504 1.350 . S
C1501 C1504 1.463 . S
C1501 C1506 1.350 . S
C1501 N1509 1.427 . S
C1502 H1493 0.930 . S
C1502 C1500 1.378 . S
C1502 C1503 1.367 . S
C1503 C1502 1.367 . S
C1503 C1505 1.433 . S
C1504 C1500 1.350 . S
C1504 C1501 1.463 . S
C1504 N1508 1.427 . S
C1505 H1495 0.929 . S
C1505 C1503 1.433 . S
C1505 N1508 1.384 . S
C1506 H1497 0.929 . S
C1506 C1498 1.378 1_556 S
C1506 C1501 1.350 . S
C1507 H1494 0.929 . S
C1507 C1499 1.433 . S
C1507 N1509 1.384 1_554 S
N1508 C1504 1.427 . S
N1508 C1505 1.384 . S
N1509 C1501 1.427 . S
N1509 C1507 1.384 1_556 S
H1510 C1516 0.930 . S
H1511 C1520 0.930 . S
H1512 C1525 0.929 . S
H1513 C1523 0.929 . S
H1514 C1518 0.929 . S
H1515 C1524 0.929 . S
C1516 H1510 0.930 . S
C1516 C1517 1.367 . S
C1516 C1524 1.378 . S
C1517 C1516 1.367 . S
C1517 C1525 1.433 . S
C1518 H1514 0.929 . S
C1518 C1520 1.378 . S
C1518 C1522 1.350 . S
C1519 C1522 1.463 1_455 S
C1519 C1524 1.350 . S
C1519 N1527 1.427 . S
C1520 H1511 0.930 . S
C1520 C1518 1.378 . S
C1520 C1521 1.367 . S
C1521 C1520 1.367 . S
C1521 C1523 1.433 . S
C1522 C1518 1.350 . S
C1522 C1519 1.463 1_655 S
C1522 N1526 1.427 . S
C1523 H1513 0.929 . S
C1523 C1521 1.433 . S
C1523 N1526 1.384 . S
C1524 H1515 0.929 . S
C1524 C1516 1.378 . S
C1524 C1519 1.350 . S
C1525 H1512 0.929 . S
C1525 C1517 1.433 . S
C1525 N1527 1.384 . S
N1526 C1522 1.427 . S
N1526 C1523 1.384 . S
N1527 C1519 1.427 . S
N1527 C1525 1.384 . S
H1528 C1534 0.930 . S
H1529 C1538 0.930 . S
H1530 C1543 0.929 . S
H1531 C1541 0.929 . S
H1532 C1536 0.930 . S
H1533 C1542 0.929 . S
C1534 H1528 0.930 . S
C1534 C1535 1.367 . S
C1534 C1542 1.378 . S
C1535 C1534 1.367 . S
C1535 C1543 1.433 . S
C1536 H1532 0.930 . S
C1536 C1538 1.390 . S
C1536 C1540 1.336 1_556 S
C1537 C1540 1.463 . S
C1537 C1542 1.350 . S
C1537 N1545 1.427 . S
C1538 H1529 0.930 . S
C1538 C1536 1.390 . S
C1538 C1539 1.367 . S
C1539 C1538 1.367 . S
C1539 C1541 1.433 1_556 S
C1540 C1536 1.336 1_554 S
C1540 C1537 1.463 . S
C1540 N1544 1.427 . S
C1541 H1531 0.929 . S
C1541 C1539 1.433 1_554 S
C1541 N1544 1.384 . S
C1542 H1533 0.929 . S
C1542 C1534 1.378 . S
C1542 C1537 1.350 . S
C1543 H1530 0.929 . S
C1543 C1535 1.433 . S
C1543 N1545 1.384 . S
N1544 C1540 1.427 . S
N1544 C1541 1.384 . S
N1545 C1537 1.427 . S
N1545 C1543 1.384 . S
H1546 C1552 0.930 . S
H1547 C1556 0.930 . S
H1548 C1561 0.929 . S
H1549 C1559 0.929 . S
H1550 C1554 0.929 . S
H1551 C1560 0.929 . S
C1552 H1546 0.930 . S
C1552 C1553 1.367 . S
C1552 C1560 1.378 . S
C1553 C1552 1.367 . S
C1553 C1561 1.433 . S
C1554 H1550 0.929 . S
C1554 C1556 1.378 . S
C1554 C1558 1.350 . S
C1555 C1558 1.463 1_655 S
C1555 C1560 1.350 . S
C1555 N1563 1.427 . S
C1556 H1547 0.930 . S
C1556 C1554 1.378 . S
C1556 C1557 1.367 . S
C1557 C1556 1.367 . S
C1557 C1559 1.433 . S
C1558 C1554 1.350 . S
C1558 C1555 1.463 1_455 S
C1558 N1562 1.427 . S
C1559 H1549 0.929 . S
C1559 C1557 1.433 . S
C1559 N1562 1.384 . S
C1560 H1551 0.929 . S
C1560 C1552 1.378 . S
C1560 C1555 1.350 . S
C1561 H1548 0.929 . S
C1561 C1553 1.433 . S
C1561 N1563 1.384 . S
N1562 C1558 1.427 . S
N1562 C1559 1.384 . S
N1563 C1555 1.427 . S
N1563 C1561 1.384 . S
H1564 C1570 0.930 . S
H1565 C1574 0.930 . S
H1566 C1579 0.929 . S
H1567 C1577 0.929 . S
H1568 C1572 0.929 . S
H1569 C1578 0.929 . S
C1570 H1564 0.930 . S
C1570 C1571 1.367 . S
C1570 C1578 1.378 . S
C1571 C1570 1.367 . S
C1571 C1579 1.433 . S
C1572 H1568 0.929 . S
C1572 C1574 1.378 . S
C1572 C1576 1.350 . S
C1573 C1576 1.463 . S
C1573 C1578 1.350 . S
C1573 N1581 1.427 . S
C1574 H1565 0.930 . S
C1574 C1572 1.378 . S
C1574 C1575 1.367 . S
C1575 C1574 1.367 . S
C1575 C1577 1.433 . S
C1576 C1572 1.350 . S
C1576 C1573 1.463 . S
C1576 N1580 1.427 . S
C1577 H1567 0.929 . S
C1577 C1575 1.433 . S
C1577 N1580 1.384 . S
C1578 H1569 0.929 . S
C1578 C1570 1.378 . S
C1578 C1573 1.350 . S
C1579 H1566 0.929 . S
C1579 C1571 1.433 . S
C1579 N1581 1.384 . S
N1580 C1576 1.427 . S
N1580 C1577 1.384 . S
N1581 C1573 1.427 . S
N1581 C1579 1.384 . S
H1582 C1588 0.930 . S
H1583 C1592 0.930 . S
H1584 C1597 0.929 . S
H1585 C1595 0.929 . S
H1586 C1590 0.929 . S
H1587 C1596 0.929 . S
C1588 H1582 0.930 . S
C1588 C1589 1.367 . S
C1588 C1596 1.378 . S
C1589 C1588 1.367 . S
C1589 C1597 1.433 . S
C1590 H1586 0.929 . S
C1590 C1592 1.378 . S
C1590 C1594 1.350 . S
C1591 C1594 1.463 . S
C1591 C1596 1.350 . S
C1591 N1599 1.427 . S
C1592 H1583 0.930 . S
C1592 C1590 1.378 . S
C1592 C1593 1.367 . S
C1593 C1592 1.367 . S
C1593 C1595 1.433 . S
C1594 C1590 1.350 . S
C1594 C1591 1.463 . S
C1594 N1598 1.427 . S
C1595 H1585 0.929 . S
C1595 C1593 1.433 . S
C1595 N1598 1.384 . S
C1596 H1587 0.929 . S
C1596 C1588 1.378 . S
C1596 C1591 1.350 . S
C1597 H1584 0.929 . S
C1597 C1589 1.433 . S
C1597 N1599 1.384 . S
N1598 C1594 1.427 . S
N1598 C1595 1.384 . S
N1599 C1591 1.427 . S
N1599 C1597 1.384 . S
C455 C91 1.256 . S
C459 C7 1.265 . S
C473 C21 1.267 . S
C477 C105 1.253 . S
C491 C63 1.266 . S
C495 C35 1.245 . S
C509 C49 1.249 . S
C513 C77 1.255 . S
C527 C203 1.267 . S
C531 C119 1.253 . S
C545 C133 1.267 . S
C549 C217 1.252 . S
C563 C175 1.246 . S
C567 C147 1.267 . S
C581 C161 1.258 . S
C585 C189 1.247 . S
C599 C231 1.268 . S
C603 C315 1.249 . S
C617 C329 1.258 . S
C621 C245 1.247 . S
C635 C259 1.256 . S
C639 C287 1.248 . S
C653 C301 1.268 . S
C657 C273 1.250 . S
C671 C427 1.266 . S
C675 C343 1.245 . S
C689 C441 1.259 . S
C693 C357 1.246 . S
C707 C399 1.259 . S
C711 C371 1.246 . S
C725 C385 1.253 . S
C729 C413 1.250 . S
C743 C104 1.043 1_554 S
C747 C6 1.024 . S
C761 C62 1.042 . S
C765 C20 1.025 . S
C779 C76 1.025 . S
C783 C34 1.042 . S
C797 C90 1.036 . S
C801 C48 1.030 1_556 S
C815 C216 1.040 1_556 S
C819 C118 1.029 . S
C833 C174 1.036 . S
C837 C132 1.032 . S
C851 C188 1.041 . S
C855 C146 1.026 . S
C869 C160 1.030 1_554 S
C873 C202 1.036 . S
C887 C328 1.029 . S
C891 C230 1.039 . S
C905 C244 1.031 1_556 S
C909 C286 1.035 . S
C923 C258 1.043 . S
C927 C300 1.024 1_554 S
C941 C314 1.026 . S
C945 C272 1.040 . S
C959 C440 1.029 . S
C963 C342 1.039 . S
C977 C356 1.033 1_554 S
C981 C398 1.033 . S
C995 C370 1.024 . S
C999 C412 1.043 1_556 S
C1013 C426 1.042 . S
C1017 C384 1.025 . S
C1031 C8 1.538 . S
C1035 C429 1.490 . S
C1049 C219 1.487 . S
C1053 C22 1.538 . S
C1067 C401 1.488 . S
C1071 C36 1.538 . S
C1085 C191 1.487 . S
C1089 C50 1.538 . S
C1103 C373 1.498 . S
C1107 C64 1.540 . S
C1121 C78 1.541 . S
C1125 C163 1.500 . S
C1139 C92 1.541 . S
C1143 C345 1.496 . S
C1157 C106 1.538 . S
C1161 C135 1.487 . S
C1175 C120 1.539 . S
C1179 C317 1.494 . S
C1193 C107 1.487 . S
C1197 C134 1.538 . S
C1211 C289 1.501 . S
C1215 C148 1.542 . S
C1229 C79 1.500 . S
C1233 C162 1.542 . S
C1247 C261 1.489 . S
C1251 C176 1.538 . S
C1265 C51 1.487 . S
C1269 C190 1.538 . S
C1283 C204 1.539 . S
C1287 C233 1.489 . S
C1301 C23 1.487 . S
C1305 C218 1.538 . S
C1319 C205 1.494 . S
C1323 C232 1.540 . S
C1337 C443 1.487 . S
C1341 C246 1.538 . S
C1355 C260 1.540 . S
C1359 C177 1.495 . S
C1373 C274 1.540 . S
C1377 C415 1.498 . S
C1391 C288 1.541 . S
C1395 C149 1.501 . S
C1409 C302 1.541 . S
C1413 C387 1.501 . S
C1427 C316 1.538 . S
C1431 C121 1.489 . S
C1445 C330 1.541 . S
C1449 C359 1.500 . S
C1463 C93 1.498 . S
C1467 C344 1.541 . S
C1481 C331 1.488 . S
C1485 C358 1.538 . S
C1499 C65 1.501 . S
C1503 C372 1.542 . S
C1517 C386 1.541 . S
C1521 C303 1.500 . S
C1535 C400 1.538 . S
C1539 C37 1.488 . S
C1553 C275 1.487 . S
C1557 C414 1.538 . S
C1571 C428 1.539 . S
C1575 C9 1.490 . S
C1589 C442 1.541 . S
C1593 C247 1.499 . S
