# Generated by pormake.
# Topology wgl, (5)-cn, num edge types: 1
# Building blocks:
#     Node 0, Type 0, BuildingBlock: BEQFEK_clean_sbu_0, # of connection points: 5
#     Node 1, Type 0, BuildingBlock: BEQFEK_clean_sbu_0, # of connection points: 5
#     Node 2, Type 0, BuildingBlock: BEQFEK_clean_sbu_0, # of connection points: 5
#     Node 3, Type 0, BuildingBlock: BEQFEK_clean_sbu_0, # of connection points: 5
#     Node 4, Type 0, BuildingBlock: BEQFEK_clean_sbu_0, # of connection points: 5
#     Node 5, Type 0, BuildingBlock: BEQFEK_clean_sbu_0, # of connection points: 5
#     Node 6, Type 0, BuildingBlock: BEQFEK_clean_sbu_0, # of connection points: 5
#     Node 7, Type 0, BuildingBlock: BEQFEK_clean_sbu_0, # of connection points: 5
#     Node 8, Type 0, BuildingBlock: BEQFEK_clean_sbu_0, # of connection points: 5
#     Node 9, Type 0, BuildingBlock: BEQFEK_clean_sbu_0, # of connection points: 5
#     Node 10, Type 0, BuildingBlock: BEQFEK_clean_sbu_0, # of connection points: 5
#     Node 11, Type 0, BuildingBlock: BEQFEK_clean_sbu_0, # of connection points: 5
#     Node 12, Type 0, BuildingBlock: BEQFEK_clean_sbu_0, # of connection points: 5
#     Node 13, Type 0, BuildingBlock: BEQFEK_clean_sbu_0, # of connection points: 5
#     Node 14, Type 0, BuildingBlock: BEQFEK_clean_sbu_0, # of connection points: 5
#     Node 15, Type 0, BuildingBlock: BEQFEK_clean_sbu_0, # of connection points: 5
#     Node 16, Type 0, BuildingBlock: BEQFEK_clean_sbu_0, # of connection points: 5
#     Node 17, Type 0, BuildingBlock: BEQFEK_clean_sbu_0, # of connection points: 5
#     Node 18, Type 0, BuildingBlock: BEQFEK_clean_sbu_0, # of connection points: 5
#     Node 19, Type 0, BuildingBlock: BEQFEK_clean_sbu_0, # of connection points: 5
#     Node 20, Type 0, BuildingBlock: BEQFEK_clean_sbu_0, # of connection points: 5
#     Node 21, Type 0, BuildingBlock: BEQFEK_clean_sbu_0, # of connection points: 5
#     Node 22, Type 0, BuildingBlock: BEQFEK_clean_sbu_0, # of connection points: 5
#     Node 23, Type 0, BuildingBlock: BEQFEK_clean_sbu_0, # of connection points: 5
#     Node 24, Type 0, BuildingBlock: BEQFEK_clean_sbu_0, # of connection points: 5
#     Node 25, Type 0, BuildingBlock: BEQFEK_clean_sbu_0, # of connection points: 5
#     Node 26, Type 0, BuildingBlock: BEQFEK_clean_sbu_0, # of connection points: 5
#     Node 27, Type 0, BuildingBlock: BEQFEK_clean_sbu_0, # of connection points: 5
#     Node 28, Type 0, BuildingBlock: BEQFEK_clean_sbu_0, # of connection points: 5
#     Node 29, Type 0, BuildingBlock: BEQFEK_clean_sbu_0, # of connection points: 5
#     Node 30, Type 0, BuildingBlock: BEQFEK_clean_sbu_0, # of connection points: 5
#     Node 31, Type 0, BuildingBlock: BEQFEK_clean_sbu_0, # of connection points: 5
#     Edge 32, Type (0, 0), BuildingBlock: UVAHIK_clean_linker_0, # of connection points: 2
#     Edge 33, Type (0, 0), BuildingBlock: UVAHIK_clean_linker_0, # of connection points: 2
#     Edge 34, Type (0, 0), BuildingBlock: UVAHIK_clean_linker_0, # of connection points: 2
#     Edge 35, Type (0, 0), BuildingBlock: UVAHIK_clean_linker_0, # of connection points: 2
#     Edge 36, Type (0, 0), BuildingBlock: UVAHIK_clean_linker_0, # of connection points: 2
#     Edge 37, Type (0, 0), BuildingBlock: UVAHIK_clean_linker_0, # of connection points: 2
#     Edge 38, Type (0, 0), BuildingBlock: UVAHIK_clean_linker_0, # of connection points: 2
#     Edge 39, Type (0, 0), BuildingBlock: UVAHIK_clean_linker_0, # of connection points: 2
#     Edge 40, Type (0, 0), BuildingBlock: UVAHIK_clean_linker_0, # of connection points: 2
#     Edge 41, Type (0, 0), BuildingBlock: UVAHIK_clean_linker_0, # of connection points: 2
#     Edge 42, Type (0, 0), BuildingBlock: UVAHIK_clean_linker_0, # of connection points: 2
#     Edge 43, Type (0, 0), BuildingBlock: UVAHIK_clean_linker_0, # of connection points: 2
#     Edge 44, Type (0, 0), BuildingBlock: UVAHIK_clean_linker_0, # of connection points: 2
#     Edge 45, Type (0, 0), BuildingBlock: UVAHIK_clean_linker_0, # of connection points: 2
#     Edge 46, Type (0, 0), BuildingBlock: UVAHIK_clean_linker_0, # of connection points: 2
#     Edge 47, Type (0, 0), BuildingBlock: UVAHIK_clean_linker_0, # of connection points: 2
#     Edge 48, Type (0, 0), BuildingBlock: UVAHIK_clean_linker_0, # of connection points: 2
#     Edge 49, Type (0, 0), BuildingBlock: UVAHIK_clean_linker_0, # of connection points: 2
#     Edge 50, Type (0, 0), BuildingBlock: UVAHIK_clean_linker_0, # of connection points: 2
#     Edge 51, Type (0, 0), BuildingBlock: UVAHIK_clean_linker_0, # of connection points: 2
#     Edge 52, Type (0, 0), BuildingBlock: UVAHIK_clean_linker_0, # of connection points: 2
#     Edge 53, Type (0, 0), BuildingBlock: UVAHIK_clean_linker_0, # of connection points: 2
#     Edge 54, Type (0, 0), BuildingBlock: UVAHIK_clean_linker_0, # of connection points: 2
#     Edge 55, Type (0, 0), BuildingBlock: UVAHIK_clean_linker_0, # of connection points: 2
#     Edge 56, Type (0, 0), BuildingBlock: UVAHIK_clean_linker_0, # of connection points: 2
#     Edge 57, Type (0, 0), BuildingBlock: UVAHIK_clean_linker_0, # of connection points: 2
#     Edge 58, Type (0, 0), BuildingBlock: UVAHIK_clean_linker_0, # of connection points: 2
#     Edge 59, Type (0, 0), BuildingBlock: UVAHIK_clean_linker_0, # of connection points: 2
#     Edge 60, Type (0, 0), BuildingBlock: UVAHIK_clean_linker_0, # of connection points: 2
#     Edge 61, Type (0, 0), BuildingBlock: UVAHIK_clean_linker_0, # of connection points: 2
#     Edge 62, Type (0, 0), BuildingBlock: UVAHIK_clean_linker_0, # of connection points: 2
#     Edge 63, Type (0, 0), BuildingBlock: UVAHIK_clean_linker_0, # of connection points: 2
#     Edge 64, Type (0, 0), BuildingBlock: UVAHIK_clean_linker_0, # of connection points: 2
#     Edge 65, Type (0, 0), BuildingBlock: UVAHIK_clean_linker_0, # of connection points: 2
#     Edge 66, Type (0, 0), BuildingBlock: UVAHIK_clean_linker_0, # of connection points: 2
#     Edge 67, Type (0, 0), BuildingBlock: UVAHIK_clean_linker_0, # of connection points: 2
#     Edge 68, Type (0, 0), BuildingBlock: UVAHIK_clean_linker_0, # of connection points: 2
#     Edge 69, Type (0, 0), BuildingBlock: UVAHIK_clean_linker_0, # of connection points: 2
#     Edge 70, Type (0, 0), BuildingBlock: UVAHIK_clean_linker_0, # of connection points: 2
#     Edge 71, Type (0, 0), BuildingBlock: UVAHIK_clean_linker_0, # of connection points: 2
#     Edge 72, Type (0, 0), BuildingBlock: UVAHIK_clean_linker_0, # of connection points: 2
#     Edge 73, Type (0, 0), BuildingBlock: UVAHIK_clean_linker_0, # of connection points: 2
#     Edge 74, Type (0, 0), BuildingBlock: UVAHIK_clean_linker_0, # of connection points: 2
#     Edge 75, Type (0, 0), BuildingBlock: UVAHIK_clean_linker_0, # of connection points: 2
#     Edge 76, Type (0, 0), BuildingBlock: UVAHIK_clean_linker_0, # of connection points: 2
#     Edge 77, Type (0, 0), BuildingBlock: UVAHIK_clean_linker_0, # of connection points: 2
#     Edge 78, Type (0, 0), BuildingBlock: UVAHIK_clean_linker_0, # of connection points: 2
#     Edge 79, Type (0, 0), BuildingBlock: UVAHIK_clean_linker_0, # of connection points: 2
#     Edge 80, Type (0, 0), BuildingBlock: UVAHIK_clean_linker_0, # of connection points: 2
#     Edge 81, Type (0, 0), BuildingBlock: UVAHIK_clean_linker_0, # of connection points: 2
#     Edge 82, Type (0, 0), BuildingBlock: UVAHIK_clean_linker_0, # of connection points: 2
#     Edge 83, Type (0, 0), BuildingBlock: UVAHIK_clean_linker_0, # of connection points: 2
#     Edge 84, Type (0, 0), BuildingBlock: UVAHIK_clean_linker_0, # of connection points: 2
#     Edge 85, Type (0, 0), BuildingBlock: UVAHIK_clean_linker_0, # of connection points: 2
#     Edge 86, Type (0, 0), BuildingBlock: UVAHIK_clean_linker_0, # of connection points: 2
#     Edge 87, Type (0, 0), BuildingBlock: UVAHIK_clean_linker_0, # of connection points: 2
#     Edge 88, Type (0, 0), BuildingBlock: UVAHIK_clean_linker_0, # of connection points: 2
#     Edge 89, Type (0, 0), BuildingBlock: UVAHIK_clean_linker_0, # of connection points: 2
#     Edge 90, Type (0, 0), BuildingBlock: UVAHIK_clean_linker_0, # of connection points: 2
#     Edge 91, Type (0, 0), BuildingBlock: UVAHIK_clean_linker_0, # of connection points: 2
#     Edge 92, Type (0, 0), BuildingBlock: UVAHIK_clean_linker_0, # of connection points: 2
#     Edge 93, Type (0, 0), BuildingBlock: UVAHIK_clean_linker_0, # of connection points: 2
#     Edge 94, Type (0, 0), BuildingBlock: UVAHIK_clean_linker_0, # of connection points: 2
#     Edge 95, Type (0, 0), BuildingBlock: UVAHIK_clean_linker_0, # of connection points: 2
#     Edge 96, Type (0, 0), BuildingBlock: UVAHIK_clean_linker_0, # of connection points: 2
#     Edge 97, Type (0, 0), BuildingBlock: UVAHIK_clean_linker_0, # of connection points: 2
#     Edge 98, Type (0, 0), BuildingBlock: UVAHIK_clean_linker_0, # of connection points: 2
#     Edge 99, Type (0, 0), BuildingBlock: UVAHIK_clean_linker_0, # of connection points: 2
#     Edge 100, Type (0, 0), BuildingBlock: UVAHIK_clean_linker_0, # of connection points: 2
#     Edge 101, Type (0, 0), BuildingBlock: UVAHIK_clean_linker_0, # of connection points: 2
#     Edge 102, Type (0, 0), BuildingBlock: UVAHIK_clean_linker_0, # of connection points: 2
#     Edge 103, Type (0, 0), BuildingBlock: UVAHIK_clean_linker_0, # of connection points: 2
#     Edge 104, Type (0, 0), BuildingBlock: UVAHIK_clean_linker_0, # of connection points: 2
#     Edge 105, Type (0, 0), BuildingBlock: UVAHIK_clean_linker_0, # of connection points: 2
#     Edge 106, Type (0, 0), BuildingBlock: UVAHIK_clean_linker_0, # of connection points: 2
#     Edge 107, Type (0, 0), BuildingBlock: UVAHIK_clean_linker_0, # of connection points: 2
#     Edge 108, Type (0, 0), BuildingBlock: UVAHIK_clean_linker_0, # of connection points: 2
#     Edge 109, Type (0, 0), BuildingBlock: UVAHIK_clean_linker_0, # of connection points: 2
#     Edge 110, Type (0, 0), BuildingBlock: UVAHIK_clean_linker_0, # of connection points: 2
#     Edge 111, Type (0, 0), BuildingBlock: UVAHIK_clean_linker_0, # of connection points: 2
# Relax obj value: 0.063
# Max RMSD: 0.098
# Mean RMSD: 0.098
data_MOF--net-wgl--node1-BEQFEK_clean_sbu_0--edge1-UVAHIK_clean_linker_0
_symmetry_space_group_name_H-M    P1
_symmetry_Int_Tables_number       1
_symmetry_cell_setting            triclinic
loop_
_symmetry_equiv_pos_as_xyz
'x, y, z'
_cell_length_a     70.559653
_cell_length_b     70.541788
_cell_length_c     77.235451
_cell_angle_alpha  90.00551
_cell_angle_beta   89.988589
_cell_angle_gamma 90.001579
loop_
_atom_site_label
_atom_site_type_symbol
_atom_site_fract_x
_atom_site_fract_y
_atom_site_fract_z
_atom_type_partial_charge
Co0 Co 0.30434 0.27166 0.11715 0.0
Co1 Co 0.27799 0.30684 0.12183 0.0
C2 C 0.27761 0.28448 0.08908 0.0
O3 O 0.28986 0.27288 0.09498 0.0
O4 O 0.2718 0.29845 0.09808 0.0
C5 C 0.31236 0.23187 0.11357 0.0
O6 O 0.29432 0.23049 0.10957 0.0
C7 C 0.24393 0.33078 0.12389 0.0
C8 C 0.25273 0.35163 0.14371 0.0
C9 C 0.23765 0.34627 0.13335 0.0
N10 N 0.26188 0.32708 0.1286 0.0
N11 N 0.26712 0.33972 0.14029 0.0
C12 C 0.23266 0.31859 0.11183 0.0
H13 H 0.23756 0.30367 0.11266 0.0
H14 H 0.21731 0.31934 0.11488 0.0
H15 H 0.23489 0.32361 0.09837 0.0
C16 C 0.28673 0.26154 0.15102 0.0
N17 N 0.28798 0.27238 0.13667 0.0
N18 N 0.27619 0.28675 0.1381 0.0
C19 C 0.26673 0.28524 0.15319 0.0
C20 C 0.27323 0.26938 0.16198 0.0
C21 C 0.29982 0.24543 0.15505 0.0
H22 H 0.31433 0.24876 0.15043 0.0
H23 H 0.2948 0.23255 0.14821 0.0
H24 H 0.30029 0.24243 0.16914 0.0
O25 O 0.32281 0.29281 0.11848 0.0
O26 O 0.30384 0.31752 0.1222 0.0
H27 H 0.25878 0.31204 0.16385 0.0
H28 H 0.24337 0.29278 0.17001 0.0
C29 C 0.25188 0.29885 0.15927 0.0
H30 H 0.24221 0.30235 0.14844 0.0
H31 H 0.28039 0.3399 0.14625 0.0
O32 O 0.31928 0.24801 0.11718 0.0
C33 C 0.32037 0.31053 0.12071 0.0
Co34 Co 0.97432 0.05501 0.36741 0.0
Co35 Co 0.93974 0.02803 0.37309 0.0
C36 C 0.96143 0.02772 0.33984 0.0
O37 O 0.97262 0.04061 0.34526 0.0
O38 O 0.94807 0.02143 0.34934 0.0
C39 C 0.01337 0.06458 0.36114 0.0
O40 O 0.01452 0.04727 0.35495 0.0
C41 C 0.91701 0.99323 0.37612 0.0
C42 C 0.89496 0.00234 0.39468 0.0
C43 C 0.90125 0.98694 0.38518 0.0
N44 N 0.91995 0.01151 0.3802 0.0
N45 N 0.90662 0.01692 0.39116 0.0
C46 C 0.9299 0.98183 0.3648 0.0
H47 H 0.94457 0.98746 0.36553 0.0
H48 H 0.92975 0.96667 0.36865 0.0
H49 H 0.92499 0.98295 0.3512 0.0
C50 C 0.98624 0.03709 0.40063 0.0
N51 N 0.9745 0.03856 0.38691 0.0
N52 N 0.96016 0.02686 0.38905 0.0
C53 C 0.96245 0.01738 0.40406 0.0
C54 C 0.97904 0.02355 0.41191 0.0
C55 C 0.00371 0.04882 0.40305 0.0
H56 H 0.01417 0.04498 0.39294 0.0
H57 H 0.01029 0.04647 0.41591 0.0
H58 H 0.00016 0.06405 0.40148 0.0
O59 O 0.95285 0.07305 0.36918 0.0
O60 O 0.92851 0.05369 0.3732 0.0
H61 H 0.95261 0.99808 0.42411 0.0
H62 H 0.94495 0.99269 0.40238 0.0
C63 C 0.94795 0.0043 0.41165 0.0
H64 H 0.93467 0.01227 0.41396 0.0
H65 H 0.9057 0.03048 0.39648 0.0
O66 O 0.99764 0.0705 0.36706 0.0
C67 C 0.93521 0.07033 0.37156 0.0
Co68 Co 0.19206 0.72464 0.61768 0.0
Co69 Co 0.21865 0.68946 0.62169 0.0
C70 C 0.21862 0.71247 0.58926 0.0
O71 O 0.20633 0.7239 0.59538 0.0
O72 O 0.22456 0.69838 0.59803 0.0
C73 C 0.18326 0.76432 0.61411 0.0
O74 O 0.20103 0.76591 0.60924 0.0
C75 C 0.25289 0.66562 0.62283 0.0
C76 C 0.24469 0.64458 0.6427 0.0
C77 C 0.25947 0.65006 0.63202 0.0
N78 N 0.23506 0.66924 0.62799 0.0
N79 N 0.23018 0.65649 0.6397 0.0
C80 C 0.26378 0.6779 0.61057 0.0
H81 H 0.2591 0.69286 0.6118 0.0
H82 H 0.27924 0.67692 0.61304 0.0
H83 H 0.26092 0.67317 0.59712 0.0
C84 C 0.21014 0.73444 0.65139 0.0
N85 N 0.20867 0.72369 0.637 0.0
N86 N 0.22048 0.70931 0.63821 0.0
C87 C 0.23013 0.71069 0.6532 0.0
C88 C 0.22377 0.7265 0.66215 0.0
C89 C 0.19721 0.75062 0.65559 0.0
H90 H 0.18254 0.74719 0.65148 0.0
H91 H 0.20194 0.76337 0.64838 0.0
H92 H 0.19726 0.7539 0.66964 0.0
O93 O 0.17381 0.7033 0.61889 0.0
O94 O 0.19287 0.67858 0.62218 0.0
H95 H 0.23824 0.68383 0.66362 0.0
H96 H 0.25373 0.70305 0.66968 0.0
C97 C 0.24507 0.69705 0.65901 0.0
H98 H 0.25457 0.6936 0.64805 0.0
H99 H 0.21707 0.65621 0.64596 0.0
O100 O 0.17682 0.74812 0.61824 0.0
C101 C 0.17631 0.68556 0.6209 0.0
Co102 Co 0.52281 0.94308 0.86729 0.0
Co103 Co 0.5579 0.96959 0.87187 0.0
C104 C 0.53559 0.96953 0.83904 0.0
O105 O 0.52393 0.95736 0.84499 0.0
O106 O 0.54951 0.97542 0.84805 0.0
C107 C 0.48311 0.93446 0.86376 0.0
O108 O 0.48148 0.9524 0.85942 0.0
C109 C 0.58146 0.00391 0.87341 0.0
C110 C 0.60248 0.99572 0.89329 0.0
C111 C 0.59692 0.01053 0.88269 0.0
N112 N 0.57797 0.986 0.87842 0.0
N113 N 0.59071 0.98112 0.89015 0.0
C114 C 0.56911 0.01481 0.86121 0.0
H115 H 0.55422 0.00988 0.86228 0.0
H116 H 0.56984 0.03024 0.86391 0.0
H117 H 0.574 0.01223 0.84776 0.0
C118 C 0.51261 0.96085 0.90108 0.0
N119 N 0.52345 0.95958 0.88673 0.0
N120 N 0.53778 0.97142 0.88812 0.0
C121 C 0.53625 0.98093 0.90319 0.0
C122 C 0.52041 0.97441 0.91201 0.0
C123 C 0.49655 0.94772 0.90515 0.0
H124 H 0.50001 0.93317 0.90073 0.0
H125 H 0.4837 0.95256 0.89817 0.0
H126 H 0.49343 0.94741 0.91923 0.0
O127 O 0.5441 0.9248 0.86868 0.0
O128 O 0.56877 0.94383 0.87245 0.0
H129 H 0.56303 0.98896 0.91383 0.0
H130 H 0.54375 0.00437 0.91993 0.0
C131 C 0.54983 0.99583 0.90922 0.0
H132 H 0.55333 0.00546 0.89836 0.0
H133 H 0.59106 0.96797 0.89631 0.0
O134 O 0.49934 0.92786 0.86752 0.0
C135 C 0.5618 0.92728 0.87096 0.0
Co136 Co 0.30327 0.72516 0.38277 0.0
Co137 Co 0.27699 0.68976 0.37895 0.0
C138 C 0.27735 0.7129 0.41145 0.0
O139 O 0.28936 0.7246 0.4053 0.0
O140 O 0.2716 0.69879 0.40262 0.0
C141 C 0.31197 0.76491 0.38587 0.0
O142 O 0.29429 0.76646 0.39104 0.0
C143 C 0.24249 0.66661 0.37925 0.0
C144 C 0.24987 0.64397 0.36064 0.0
C145 C 0.2355 0.65039 0.37136 0.0
N146 N 0.26018 0.66961 0.37343 0.0
N147 N 0.26455 0.65598 0.36239 0.0
C148 C 0.23217 0.67994 0.39101 0.0
H149 H 0.23713 0.69468 0.38883 0.0
H150 H 0.21664 0.67916 0.38886 0.0
H151 H 0.23524 0.67607 0.40465 0.0
C152 C 0.28481 0.73464 0.34911 0.0
N153 N 0.28643 0.72402 0.36356 0.0
N154 N 0.27482 0.70947 0.36243 0.0
C155 C 0.26517 0.71058 0.34742 0.0
C156 C 0.2713 0.72642 0.33838 0.0
C157 C 0.2976 0.75089 0.34476 0.0
H158 H 0.31233 0.74754 0.34871 0.0
H159 H 0.2929 0.76361 0.35202 0.0
H160 H 0.29737 0.75416 0.33072 0.0
O161 O 0.32158 0.70382 0.38149 0.0
O162 O 0.30274 0.67892 0.37808 0.0
H163 H 0.2578 0.68326 0.33753 0.0
H164 H 0.24211 0.70202 0.33064 0.0
C165 C 0.25062 0.6965 0.34162 0.0
H166 H 0.24092 0.6932 0.35248 0.0
H167 H 0.2775 0.65502 0.35591 0.0
O168 O 0.31842 0.74869 0.38182 0.0
C169 C 0.31924 0.68607 0.37935 0.0
Co170 Co 0.52154 0.05362 0.63279 0.0
Co171 Co 0.5569 0.02769 0.62713 0.0
C172 C 0.53526 0.02722 0.66052 0.0
O173 O 0.52329 0.03932 0.65497 0.0
O174 O 0.54903 0.02164 0.65114 0.0
C175 C 0.48232 0.06337 0.63898 0.0
O176 O 0.48104 0.04643 0.64594 0.0
C177 C 0.58008 0.9932 0.62458 0.0
C178 C 0.60199 0.00222 0.60583 0.0
C179 C 0.59586 0.98691 0.61555 0.0
N180 N 0.57695 0.01138 0.62027 0.0
N181 N 0.59021 0.01675 0.60921 0.0
C182 C 0.56729 0.98186 0.63604 0.0
H183 H 0.55254 0.98724 0.63509 0.0
H184 H 0.5677 0.96661 0.63252 0.0
H185 H 0.57204 0.98344 0.64966 0.0
C186 C 0.50991 0.03495 0.59987 0.0
N187 N 0.52171 0.03694 0.61348 0.0
N188 N 0.53636 0.02563 0.61138 0.0
C189 C 0.53422 0.01589 0.59648 0.0
C190 C 0.5174 0.02147 0.5887 0.0
C191 C 0.49211 0.04616 0.59742 0.0
H192 H 0.48196 0.04246 0.60784 0.0
H193 H 0.48533 0.04319 0.58475 0.0
H194 H 0.49532 0.06151 0.59847 0.0
O195 O 0.54268 0.0721 0.63091 0.0
O196 O 0.5675 0.05352 0.62633 0.0
H197 H 0.5621 0.01149 0.58651 0.0
H198 H 0.54448 0.99675 0.57648 0.0
C199 C 0.54904 0.00317 0.58889 0.0
H200 H 0.55239 0.9917 0.5982 0.0
H201 H 0.59097 0.03023 0.6037 0.0
O202 O 0.49807 0.06885 0.63277 0.0
C203 C 0.56033 0.06994 0.62812 0.0
Co204 Co 0.19154 0.27157 0.88328 0.0
Co205 Co 0.218 0.30666 0.87832 0.0
C206 C 0.2185 0.28434 0.91114 0.0
O207 O 0.20616 0.27269 0.90543 0.0
O208 O 0.22423 0.29822 0.902 0.0
C209 C 0.18278 0.23189 0.88717 0.0
O210 O 0.20067 0.23025 0.89163 0.0
C211 C 0.25224 0.33032 0.87639 0.0
C212 C 0.24373 0.35127 0.85656 0.0
C213 C 0.25869 0.34578 0.86701 0.0
N214 N 0.23429 0.32675 0.87156 0.0
N215 N 0.22923 0.33945 0.85986 0.0
C216 C 0.26331 0.31805 0.88852 0.0
H217 H 0.25846 0.30313 0.88751 0.0
H218 H 0.27872 0.31885 0.8857 0.0
H219 H 0.26084 0.32294 0.90199 0.0
C220 C 0.20904 0.26125 0.84935 0.0
N221 N 0.20783 0.27218 0.86366 0.0
N222 N 0.2196 0.28654 0.86211 0.0
C223 C 0.22899 0.28498 0.84699 0.0
C224 C 0.22246 0.26908 0.83829 0.0
C225 C 0.19604 0.24503 0.84549 0.0
H226 H 0.18144 0.2485 0.84978 0.0
H227 H 0.2009 0.23237 0.85275 0.0
H228 H 0.19587 0.24159 0.83147 0.0
O229 O 0.17324 0.29289 0.88204 0.0
O230 O 0.19226 0.31751 0.87802 0.0
H231 H 0.23687 0.31175 0.83623 0.0
H232 H 0.25223 0.29248 0.83001 0.0
C233 C 0.2438 0.29857 0.8408 0.0
H234 H 0.25355 0.30209 0.85155 0.0
H235 H 0.21599 0.33975 0.85383 0.0
O236 O 0.17628 0.2481 0.88319 0.0
C237 C 0.17573 0.31059 0.87969 0.0
Co238 Co 0.97457 0.942 0.13341 0.0
Co239 Co 0.93975 0.96866 0.12798 0.0
C240 C 0.96158 0.96891 0.16119 0.0
O241 O 0.97291 0.95618 0.15567 0.0
O242 O 0.94812 0.97511 0.15176 0.0
C243 C 0.01361 0.93201 0.13965 0.0
O244 O 0.01489 0.94896 0.1466 0.0
C245 C 0.91705 0.00345 0.12508 0.0
C246 C 0.8947 0.99429 0.10684 0.0
C247 C 0.90121 0.00974 0.11616 0.0
N248 N 0.91985 0.98513 0.12109 0.0
N249 N 0.90633 0.97969 0.11033 0.0
C250 C 0.93017 0.01489 0.13614 0.0
H251 H 0.94478 0.00912 0.13534 0.0
H252 H 0.9301 0.03 0.13213 0.0
H253 H 0.9254 0.014 0.1498 0.0
C254 C 0.98627 0.96026 0.10031 0.0
N255 N 0.97458 0.95862 0.11404 0.0
N256 N 0.96008 0.97012 0.11194 0.0
C257 C 0.96219 0.97961 0.09691 0.0
C258 C 0.97886 0.97368 0.08904 0.0
C259 C 0.00391 0.94879 0.09787 0.0
H260 H 0.0141 0.95235 0.1083 0.0
H261 H 0.01075 0.95166 0.08521 0.0
H262 H 0.00047 0.93349 0.09892 0.0
O263 O 0.95324 0.92385 0.13158 0.0
O264 O 0.92867 0.94295 0.12772 0.0
H265 H 0.95184 -0.00159 0.07667 0.0
H266 H 0.9445 0.00417 0.09842 0.0
C267 C 0.94745 0.9924 0.0893 0.0
H268 H 0.93419 0.98427 0.08733 0.0
H269 H 0.90529 0.96609 0.10511 0.0
O270 O 0.99788 0.92655 0.13341 0.0
C271 C 0.93556 0.92637 0.12925 0.0
Co272 Co 0.69148 0.72446 0.88366 0.0
Co273 Co 0.71771 0.68913 0.87937 0.0
C274 C 0.71812 0.71199 0.91187 0.0
O275 O 0.7059 0.72357 0.90587 0.0
O276 O 0.72386 0.69788 0.90302 0.0
C277 C 0.68317 0.76419 0.88728 0.0
O278 O 0.70093 0.76557 0.89222 0.0
C279 C 0.75181 0.66525 0.87766 0.0
C280 C 0.74308 0.64404 0.85814 0.0
C281 C 0.75814 0.64962 0.86843 0.0
N282 N 0.73384 0.66881 0.8729 0.0
N283 N 0.72864 0.65595 0.8614 0.0
C284 C 0.76303 0.67769 0.88953 0.0
H285 H 0.75808 0.69258 0.88849 0.0
H286 H 0.77839 0.67694 0.88648 0.0
H287 H 0.76084 0.67291 0.90307 0.0
C288 C 0.70933 0.73423 0.84983 0.0
N289 N 0.70791 0.72345 0.86421 0.0
N290 N 0.71959 0.70898 0.86288 0.0
C291 C 0.72912 0.71033 0.84782 0.0
C292 C 0.72281 0.72622 0.83895 0.0
C293 C 0.69648 0.7505 0.84576 0.0
H294 H 0.68182 0.74717 0.84995 0.0
H295 H 0.70135 0.7632 0.85296 0.0
H296 H 0.69644 0.75382 0.83172 0.0
O297 O 0.67299 0.70331 0.88257 0.0
O298 O 0.69186 0.67848 0.87907 0.0
H299 H 0.73689 0.68333 0.83747 0.0
H300 H 0.75237 0.70242 0.83101 0.0
C301 C 0.74388 0.69656 0.84185 0.0
H302 H 0.75357 0.69317 0.85268 0.0
H303 H 0.71537 0.65563 0.85544 0.0
O304 O 0.67653 0.74807 0.88318 0.0
C305 C 0.67536 0.68556 0.8805 0.0
Co306 Co 0.02161 0.94287 0.63293 0.0
Co307 Co 0.05687 0.96909 0.62803 0.0
C308 C 0.03465 0.96885 0.66117 0.0
O309 O 0.02278 0.95679 0.65538 0.0
O310 O 0.04849 0.97457 0.65197 0.0
C311 C 0.98254 0.93283 0.63883 0.0
O312 O 0.98134 0.94964 0.64608 0.0
C313 C 0.07896 0.00417 0.6271 0.0
C314 C 0.1026 0.99632 0.60974 0.0
C315 C 0.09532 0.01115 0.61945 0.0
N316 N 0.07669 0.98608 0.6221 0.0
N317 N 0.0909 0.98143 0.6118 0.0
C318 C 0.06496 0.0147 0.63802 0.0
H319 H 0.05049 0.009 0.63588 0.0
H320 H 0.06521 0.03009 0.63502 0.0
H321 H 0.06862 0.01269 0.65187 0.0
C322 C 0.01041 0.96191 0.60004 0.0
N323 N 0.02196 0.95985 0.61382 0.0
N324 N 0.03665 0.97117 0.61198 0.0
C325 C 0.03483 0.98094 0.59707 0.0
C326 C 0.01814 0.9754 0.58901 0.0
C327 C 0.99265 0.95072 0.5973 0.0
H328 H 0.9825 0.95403 0.60784 0.0
H329 H 0.98585 0.95407 0.58473 0.0
H330 H 0.99593 0.93535 0.59794 0.0
O331 O 0.04305 0.92465 0.6311 0.0
O332 O 0.06784 0.94344 0.62703 0.0
H333 H 0.04588 -0.00048 0.57699 0.0
H334 H 0.05273 0.00531 0.59887 0.0
C335 C 0.0499 0.99353 0.58973 0.0
H336 H 0.06313 0.98526 0.58811 0.0
H337 H 0.09253 0.96813 0.60608 0.0
O338 O -0.00176 0.92745 0.63246 0.0
C339 C 0.06074 0.92696 0.62856 0.0
Co340 Co 0.8037 0.27215 0.38363 0.0
Co341 Co 0.77754 0.3076 0.37932 0.0
C342 C 0.77746 0.28501 0.41201 0.0
O343 O 0.78952 0.27328 0.40597 0.0
O344 O 0.7717 0.29907 0.4031 0.0
C345 C 0.81209 0.23231 0.38717 0.0
O346 O 0.79432 0.23083 0.39208 0.0
C347 C 0.74351 0.33167 0.37799 0.0
C348 C 0.75196 0.35265 0.35816 0.0
C349 C 0.73709 0.34726 0.36877 0.0
N350 N 0.76135 0.32794 0.37293 0.0
N351 N 0.76638 0.34066 0.36123 0.0
C352 C 0.73247 0.31944 0.39018 0.0
H353 H 0.7372 0.30448 0.38909 0.0
H354 H 0.71704 0.32037 0.3875 0.0
H355 H 0.73511 0.32427 0.40364 0.0
C356 C 0.78558 0.26231 0.34995 0.0
N357 N 0.78707 0.2731 0.36431 0.0
N358 N 0.77542 0.2876 0.363 0.0
C359 C 0.76582 0.28623 0.34798 0.0
C360 C 0.77207 0.27032 0.33911 0.0
C361 C 0.79847 0.24608 0.3458 0.0
H362 H 0.81312 0.24944 0.34998 0.0
H363 H 0.79364 0.23334 0.35298 0.0
H364 H 0.79849 0.2428 0.33176 0.0
O365 O 0.82221 0.29325 0.3822 0.0
O366 O 0.80343 0.31814 0.37865 0.0
H367 H 0.75816 0.31318 0.33745 0.0
H368 H 0.74247 0.29414 0.33129 0.0
C369 C 0.75111 0.30006 0.34202 0.0
H370 H 0.74155 0.30365 0.3529 0.0
H371 H 0.77952 0.34085 0.35504 0.0
O372 O 0.81865 0.24848 0.38313 0.0
C373 C 0.81991 0.31099 0.38 0.0
Co374 Co 0.47434 0.05476 0.13264 0.0
Co375 Co 0.43969 0.02742 0.1295 0.0
C376 C 0.46307 0.02854 0.16167 0.0
O377 O 0.47386 0.04128 0.15535 0.0
O378 O 0.44929 0.02179 0.15299 0.0
C379 C 0.51386 0.06355 0.1358 0.0
O380 O 0.51528 0.04584 0.1409 0.0
C381 C 0.41677 0.99266 0.12931 0.0
C382 C 0.39397 0.00046 0.11101 0.0
C383 C 0.40053 0.98582 0.12134 0.0
N384 N 0.41966 0.01053 0.12389 0.0
N385 N 0.40593 0.01514 0.11303 0.0
C386 C 0.43022 0.98204 0.14071 0.0
H387 H 0.44483 0.98757 0.13907 0.0
H388 H 0.42994 0.96666 0.13771 0.0
H389 H 0.42595 0.98406 0.15441 0.0
C390 C 0.48397 0.03618 0.09908 0.0
N391 N 0.47344 0.03768 0.1136 0.0
N392 N 0.45918 0.02571 0.11268 0.0
C393 C 0.4604 0.01593 0.09773 0.0
C394 C 0.47601 0.02236 0.08853 0.0
C395 C 0.49987 0.04932 0.09453 0.0
H396 H 0.4963 0.06397 0.09857 0.0
H397 H 0.51281 0.04485 0.10158 0.0
H398 H 0.50289 0.04918 0.08043 0.0
O399 O 0.45283 0.07266 0.13119 0.0
O400 O 0.42835 0.05309 0.12898 0.0
H401 H 0.4332 0.00764 0.0882 0.0
H402 H 0.45233 0.99245 0.08123 0.0
C403 C 0.4467 0.00091 0.0922 0.0
H404 H 0.44384 0.99122 0.10317 0.0
H405 H 0.40487 0.02824 0.10685 0.0
O406 O 0.49771 0.07009 0.13166 0.0
C407 C 0.43509 0.06981 0.12969 0.0
Co408 Co 0.69252 0.27182 0.61823 0.0
Co409 Co 0.71902 0.30689 0.62327 0.0
C410 C 0.71849 0.28479 0.59004 0.0
O411 O 0.70638 0.27297 0.5958 0.0
O412 O 0.72429 0.29858 0.59927 0.0
C413 C 0.68211 0.23289 0.61217 0.0
O414 O 0.69889 0.23162 0.60488 0.0
C415 C 0.75428 0.32876 0.62392 0.0
C416 C 0.74691 0.35224 0.64163 0.0
C417 C 0.76149 0.34501 0.63159 0.0
N418 N 0.73628 0.32652 0.6292 0.0
N419 N 0.73192 0.34064 0.63972 0.0
C420 C 0.7645 0.31487 0.61265 0.0
H421 H 0.75888 0.30037 0.61483 0.0
H422 H 0.77997 0.31511 0.61528 0.0
H423 H 0.76209 0.31863 0.59888 0.0
C424 C 0.71147 0.26033 0.65103 0.0
N425 N 0.70953 0.27195 0.63729 0.0
N426 N 0.72098 0.28653 0.63918 0.0
C427 C 0.73071 0.28457 0.65409 0.0
C428 C 0.72501 0.2679 0.6621 0.0
C429 C 0.70008 0.24269 0.65373 0.0
H430 H 0.68476 0.24616 0.65316 0.0
H431 H 0.70322 0.23255 0.64315 0.0
H432 H 0.70339 0.23578 0.66627 0.0
O433 O 0.67454 0.29343 0.62017 0.0
O434 O 0.69346 0.31808 0.6245 0.0
H435 H 0.73513 0.31274 0.66336 0.0
H436 H 0.74951 0.29533 0.67414 0.0
C437 C 0.74339 0.29954 0.6615 0.0
H438 H 0.75506 0.30251 0.65229 0.0
H439 H 0.71875 0.34227 0.64568 0.0
O440 O 0.67687 0.24859 0.61865 0.0
C441 C 0.67695 0.31107 0.62289 0.0
Co442 Co 0.47483 0.94156 0.36718 0.0
Co443 Co 0.44032 0.96882 0.37194 0.0
C444 C 0.46312 0.96916 0.33939 0.0
O445 O 0.47388 0.95606 0.3451 0.0
O446 O 0.44949 0.97563 0.34847 0.0
C447 C 0.51393 0.93184 0.36162 0.0
O448 O 0.51523 0.9491 0.35534 0.0
C449 C 0.41752 0.00365 0.37481 0.0
C450 C 0.39517 0.99434 0.393 0.0
C451 C 0.40165 0.00985 0.38376 0.0
N452 N 0.42036 0.98531 0.37872 0.0
N453 N 0.40684 0.97979 0.38944 0.0
C454 C 0.43061 0.01519 0.36382 0.0
H455 H 0.44526 0.00954 0.3647 0.0
H456 H 0.43041 0.0303 0.36783 0.0
H457 H 0.42594 0.01425 0.35013 0.0
C458 C 0.48592 0.9594 0.40063 0.0
N459 N 0.47453 0.95797 0.38667 0.0
N460 N 0.46023 0.96979 0.38845 0.0
C461 C 0.46222 0.97932 0.40348 0.0
C462 C 0.47854 0.97304 0.4117 0.0
C463 C 0.50328 0.9476 0.40342 0.0
H464 H 0.4997 0.93239 0.40182 0.0
H465 H 0.51398 0.95135 0.39348 0.0
H466 H 0.50958 0.94997 0.41639 0.0
O467 O 0.45326 0.92364 0.36837 0.0
O468 O 0.42894 0.94319 0.37163 0.0
H469 H 0.43425 0.98482 0.41276 0.0
H470 H 0.45209 -0.00114 0.42322 0.0
C471 C 0.44768 0.99262 0.41069 0.0
H472 H 0.44507 0.0042 0.4013 0.0
H473 H 0.40582 0.96616 0.39461 0.0
O474 O 0.49809 0.926 0.36733 0.0
C475 C 0.43557 0.92649 0.37021 0.0
Co476 Co 0.80412 0.7244 0.11781 0.0
Co477 Co 0.77761 0.68928 0.12214 0.0
C478 C 0.77764 0.71219 0.08955 0.0
O479 O 0.78984 0.72383 0.09548 0.0
O480 O 0.77192 0.69818 0.09851 0.0
C481 C 0.81288 0.76401 0.11443 0.0
O482 O 0.79502 0.76558 0.10981 0.0
C483 C 0.74293 0.6665 0.12241 0.0
C484 C 0.75041 0.64378 0.1409 0.0
C485 C 0.73592 0.65034 0.13039 0.0
N486 N 0.76073 0.66933 0.12799 0.0
N487 N 0.76516 0.65567 0.13896 0.0
C488 C 0.73255 0.67994 0.11081 0.0
H489 H 0.73769 0.69462 0.11292 0.0
H490 H 0.71705 0.67931 0.11317 0.0
H491 H 0.73537 0.67606 0.09712 0.0
C492 C 0.78623 0.73429 0.15166 0.0
N493 N 0.78759 0.72354 0.13726 0.0
N494 N 0.77588 0.7091 0.13861 0.0
C495 C 0.76642 0.7104 0.15371 0.0
C496 C 0.77278 0.72627 0.16258 0.0
C497 C 0.79917 0.75049 0.15576 0.0
H498 H 0.81381 0.7471 0.15154 0.0
H499 H 0.79435 0.76323 0.1486 0.0
H500 H 0.79925 0.75376 0.16981 0.0
O501 O 0.82227 0.7029 0.1189 0.0
O502 O 0.80326 0.6782 0.12265 0.0
H503 H 0.75887 0.68321 0.16378 0.0
H504 H 0.74348 0.70218 0.17077 0.0
C505 C 0.75179 0.69652 0.15972 0.0
H506 H 0.74191 0.69328 0.14899 0.0
H507 H 0.77821 0.65458 0.14525 0.0
O508 O 0.81944 0.7478 0.11834 0.0
C509 C 0.8198 0.68517 0.1211 0.0
Co510 Co 0.02092 0.05362 0.86786 0.0
Co511 Co 0.0562 0.02735 0.8724 0.0
C512 C 0.03392 0.028 0.83932 0.0
O513 O 0.02209 0.03998 0.8453 0.0
O514 O 0.0478 0.02213 0.84839 0.0
C515 C 0.98187 0.0638 0.86197 0.0
O516 O 0.98069 0.04717 0.8544 0.0
C517 C 0.07849 0.99236 0.87311 0.0
C518 C 0.10206 0.00026 0.89053 0.0
C519 C 0.09489 0.98545 0.88074 0.0
N520 N 0.0761 0.0104 0.8782 0.0
N521 N 0.09027 0.01508 0.88853 0.0
C522 C 0.0646 0.98181 0.8621 0.0
H523 H 0.05008 0.98743 0.86422 0.0
H524 H 0.06492 0.96641 0.86504 0.0
H525 H 0.06829 0.98391 0.84827 0.0
C526 C 0.00986 0.03431 0.90062 0.0
N527 N 0.02133 0.03643 0.8868 0.0
N528 N 0.03602 0.0251 0.88851 0.0
C529 C 0.03431 0.01529 0.90341 0.0
C530 C 0.01767 0.02081 0.91159 0.0
C531 C 0.99213 0.04552 0.90349 0.0
H532 H 0.98203 0.04249 0.89286 0.0
H533 H 0.98525 0.04193 0.91598 0.0
H534 H 0.99549 0.06088 0.90315 0.0
O535 O 0.04233 0.07185 0.86983 0.0
O536 O 0.06713 0.053 0.87358 0.0
H537 H 0.0455 0.99663 0.92336 0.0
H538 H 0.05238 0.99106 0.90144 0.0
C539 C 0.04947 0.00275 0.91066 0.0
H540 H 0.06264 0.0111 0.91233 0.0
H541 H 0.0918 0.02836 0.89433 0.0
O542 O 0.99754 0.06901 0.86852 0.0
C543 C 0.06003 0.06951 0.87226 0.0
Co544 Co 0.80416 0.77165 0.61865 0.0
Co545 Co 0.77765 0.80694 0.62207 0.0
C546 C 0.77856 0.78366 0.58968 0.0
O547 O 0.7905 0.77205 0.59605 0.0
O548 O 0.77264 0.79785 0.59831 0.0
C549 C 0.81321 0.73207 0.61522 0.0
O550 O 0.7957 0.73053 0.60962 0.0
C551 C 0.74302 0.82992 0.62149 0.0
C552 C 0.75013 0.85259 0.64014 0.0
C553 C 0.73587 0.84609 0.62934 0.0
N554 N 0.76068 0.82701 0.62742 0.0
N555 N 0.76489 0.84066 0.63849 0.0
C556 C 0.73288 0.81652 0.60967 0.0
H557 H 0.73792 0.80182 0.61187 0.0
H558 H 0.71732 0.8172 0.61172 0.0
H559 H 0.73604 0.82041 0.59605 0.0
C560 C 0.78529 0.7621 0.65206 0.0
N561 N 0.78707 0.77274 0.63764 0.0
N562 N 0.77538 0.78724 0.63864 0.0
C563 C 0.76554 0.78608 0.65354 0.0
C564 C 0.7716 0.77025 0.66264 0.0
C565 C 0.79807 0.74587 0.6565 0.0
H566 H 0.81286 0.74934 0.65282 0.0
H567 H 0.7936 0.7332 0.64904 0.0
H568 H 0.79757 0.74245 0.67051 0.0
O569 O 0.82231 0.7931 0.62002 0.0
O570 O 0.80334 0.81792 0.62321 0.0
H571 H 0.75792 0.81338 0.66333 0.0
H572 H 0.74225 0.79455 0.6701 0.0
C573 C 0.75085 0.80009 0.65919 0.0
H574 H 0.74126 0.80333 0.64824 0.0
H575 H 0.77777 0.84169 0.64506 0.0
O576 O 0.81944 0.74822 0.61973 0.0
C577 C 0.81988 0.81085 0.62209 0.0
Co578 Co 0.47345 0.55396 0.8684 0.0
Co579 Co 0.43817 0.5276 0.8721 0.0
C580 C 0.4612 0.52828 0.83954 0.0
O581 O 0.47291 0.5402 0.84581 0.0
O582 O 0.44708 0.52244 0.8483 0.0
C583 C 0.51302 0.563 0.8649 0.0
O584 O 0.51461 0.54544 0.85942 0.0
C585 C 0.41546 0.49287 0.87196 0.0
C586 C 0.39254 0.50019 0.8903 0.0
C587 C 0.39927 0.48575 0.87981 0.0
N588 N 0.41815 0.51068 0.87759 0.0
N589 N 0.40436 0.51502 0.88847 0.0
C590 C 0.42908 0.48258 0.86046 0.0
H591 H 0.44369 0.48792 0.8626 0.0
H592 H 0.42863 0.46708 0.86291 0.0
H593 H 0.42524 0.48525 0.84675 0.0
C594 C 0.48316 0.53529 0.90189 0.0
N595 N 0.47246 0.537 0.8875 0.0
N596 N 0.45791 0.52539 0.88864 0.0
C597 C 0.45908 0.51568 0.90363 0.0
C598 C 0.47499 0.52174 0.91261 0.0
C599 C 0.49949 0.548 0.90617 0.0
H600 H 0.49606 0.5628 0.90248 0.0
H601 H 0.51206 0.54344 0.89862 0.0
H602 H 0.50303 0.54753 0.92015 0.0
O603 O 0.45204 0.57218 0.86977 0.0
O604 O 0.42718 0.55329 0.8731 0.0
H605 H 0.4317 0.50833 0.91338 0.0
H606 H 0.45044 0.49275 0.92054 0.0
C607 C 0.445 0.50115 0.90945 0.0
H608 H 0.44183 0.49133 0.89865 0.0
H609 H 0.40317 0.52803 0.8948 0.0
O610 O 0.49685 0.56924 0.86934 0.0
C611 C 0.43429 0.56981 0.87188 0.0
Co612 Co 0.69285 0.22428 0.11831 0.0
Co613 Co 0.71935 0.18904 0.12196 0.0
C614 C 0.71852 0.21213 0.08945 0.0
O615 O 0.70659 0.22381 0.09574 0.0
O616 O 0.7244 0.198 0.09817 0.0
C617 C 0.68379 0.26386 0.11499 0.0
O618 O 0.70137 0.26548 0.10959 0.0
C619 C 0.75409 0.16632 0.1215 0.0
C620 C 0.74711 0.14359 0.14014 0.0
C621 C 0.76135 0.15021 0.12937 0.0
N622 N 0.73639 0.16908 0.12739 0.0
N623 N 0.73226 0.1554 0.13845 0.0
C624 C 0.76416 0.1798 0.10971 0.0
H625 H 0.75903 0.19447 0.11194 0.0
H626 H 0.77972 0.17922 0.11176 0.0
H627 H 0.76103 0.17593 0.09608 0.0
C628 C 0.71151 0.23399 0.15178 0.0
N629 N 0.70983 0.22329 0.13738 0.0
N630 N 0.72152 0.20881 0.13847 0.0
C631 C 0.73128 0.21003 0.15342 0.0
C632 C 0.72514 0.22589 0.16244 0.0
C633 C 0.69866 0.25019 0.15614 0.0
H634 H 0.68391 0.24672 0.15234 0.0
H635 H 0.7032 0.26289 0.14874 0.0
H636 H 0.69902 0.25358 0.17016 0.0
O637 O 0.67474 0.2028 0.11964 0.0
O638 O 0.69369 0.17798 0.12297 0.0
H639 H 0.73884 0.18276 0.16329 0.0
H640 H 0.75444 0.20162 0.17014 0.0
C641 C 0.74593 0.19605 0.15918 0.0
H642 H 0.75562 0.19281 0.1483 0.0
H643 H 0.71937 0.15426 0.14499 0.0
O644 O 0.67752 0.24766 0.1193 0.0
C645 C 0.67716 0.18506 0.12173 0.0
Co646 Co 0.02186 0.4421 0.36704 0.0
Co647 Co 0.05703 0.4683 0.37259 0.0
C648 C 0.03458 0.46956 0.33973 0.0
O649 O 0.02299 0.45705 0.34519 0.0
O650 O 0.04847 0.47509 0.34898 0.0
C651 C 0.98264 0.43245 0.36128 0.0
O652 O 0.98127 0.44967 0.35493 0.0
C653 C 0.08003 0.50288 0.37546 0.0
C654 C 0.1023 0.49358 0.39372 0.0
C655 C 0.09594 0.50906 0.38437 0.0
N656 N 0.07708 0.4846 0.37949 0.0
N657 N 0.09054 0.47907 0.39026 0.0
C658 C 0.06702 0.51438 0.36436 0.0
H659 H 0.05228 0.50903 0.36554 0.0
H660 H 0.06754 0.52959 0.36802 0.0
H661 H 0.07145 0.51296 0.35064 0.0
C662 C 0.0107 0.45982 0.40054 0.0
N663 N 0.02228 0.45822 0.38673 0.0
N664 N 0.03686 0.46963 0.38881 0.0
C665 C 0.03489 0.47905 0.40389 0.0
C666 C 0.01825 0.47315 0.41182 0.0
C667 C 0.99297 0.44849 0.403 0.0
H668 H 0.9826 0.45253 0.39287 0.0
H669 H 0.98645 0.45102 0.41586 0.0
H670 H 0.99618 0.43319 0.40146 0.0
O671 O 0.04321 0.42379 0.36811 0.0
O672 O 0.06793 0.44259 0.37241 0.0
H673 H 0.04527 0.49797 0.42401 0.0
H674 H 0.05265 0.50355 0.40224 0.0
C675 C 0.04966 0.49186 0.41143 0.0
H676 H 0.06289 0.4837 0.41346 0.0
H677 H 0.09147 0.46548 0.39551 0.0
O678 O -0.00151 0.4267 0.36704 0.0
C679 C 0.06092 0.42612 0.37047 0.0
Co680 Co 0.80407 0.22555 0.88361 0.0
Co681 Co 0.7776 0.19058 0.87831 0.0
C682 C 0.7778 0.21256 0.91158 0.0
O683 O 0.78999 0.22435 0.90592 0.0
O684 O 0.77205 0.1988 0.90228 0.0
C685 C 0.81419 0.26449 0.88972 0.0
O686 O 0.79727 0.26573 0.89673 0.0
C687 C 0.74238 0.16877 0.87713 0.0
C688 C 0.75008 0.14524 0.85958 0.0
C689 C 0.73531 0.15252 0.86935 0.0
N690 N 0.76048 0.17097 0.87215 0.0
N691 N 0.76504 0.15683 0.86173 0.0
C692 C 0.73195 0.18272 0.88817 0.0
H693 H 0.73771 0.19719 0.88611 0.0
H694 H 0.71656 0.18256 0.88523 0.0
H695 H 0.734 0.17895 0.902 0.0
C696 C 0.78539 0.2372 0.8507 0.0
N697 N 0.78724 0.22552 0.86441 0.0
N698 N 0.77578 0.21097 0.86242 0.0
C699 C 0.76613 0.213 0.84748 0.0
C700 C 0.7719 0.2297 0.83955 0.0
C701 C 0.79679 0.25486 0.84812 0.0
H702 H 0.81211 0.25143 0.84896 0.0
H703 H 0.79341 0.26504 0.85861 0.0
H704 H 0.79372 0.26171 0.83551 0.0
O705 O 0.82211 0.20399 0.88174 0.0
O706 O 0.80315 0.1794 0.87725 0.0
H707 H 0.76165 0.18483 0.83822 0.0
H708 H 0.74752 0.20231 0.82725 0.0
C709 C 0.75346 0.1981 0.83996 0.0
H710 H 0.74165 0.19523 0.84905 0.0
H711 H 0.77833 0.15517 0.856 0.0
O712 O 0.81963 0.24879 0.8834 0.0
C713 C 0.81968 0.18635 0.87896 0.0
Co714 Co 0.02198 0.55406 0.13287 0.0
Co715 Co 0.05722 0.52752 0.12959 0.0
C716 C 0.03413 0.52867 0.16203 0.0
O717 O 0.02254 0.54061 0.1556 0.0
O718 O 0.04823 0.52259 0.15338 0.0
C719 C 0.98235 0.56283 0.13609 0.0
O720 O 0.98088 0.54525 0.14155 0.0
C721 C 0.08024 0.49294 0.12995 0.0
C722 C 0.10296 0.50034 0.11143 0.0
C723 C 0.09644 0.48592 0.12204 0.0
N724 N 0.07734 0.51068 0.12422 0.0
N725 N 0.09103 0.51507 0.11324 0.0
C726 C 0.0668 0.48262 0.1416 0.0
H727 H 0.05213 0.48783 0.13955 0.0
H728 H 0.06736 0.46711 0.13923 0.0
H729 H 0.07076 0.48541 0.15527 0.0
C730 C 0.01246 0.53507 0.09951 0.0
N731 N 0.02305 0.53685 0.11397 0.0
N732 N 0.03753 0.52515 0.11302 0.0
C733 C 0.03643 0.5153 0.09811 0.0
C734 C 0.02063 0.52137 0.08897 0.0
C735 C 0.99632 0.54792 0.09498 0.0
H736 H -0.00022 0.56269 0.09872 0.0
H737 H 0.98356 0.54344 0.10231 0.0
H738 H 0.99304 0.54747 0.08094 0.0
O739 O 0.04336 0.57228 0.13129 0.0
O740 O 0.06815 0.55321 0.12844 0.0
H741 H 0.06379 0.50778 0.08845 0.0
H742 H 0.04504 0.49212 0.08149 0.0
C743 C 0.05049 0.50066 0.09247 0.0
H744 H 0.05366 0.49101 0.1034 0.0
H745 H 0.09206 0.52804 0.10682 0.0
O746 O -0.0015 0.56922 0.13176 0.0
C747 C 0.06111 0.56978 0.12936 0.0
Co748 Co 0.69296 0.77185 0.38358 0.0
Co749 Co 0.71935 0.80716 0.37958 0.0
C750 C 0.7191 0.78403 0.41209 0.0
O751 O 0.70703 0.77235 0.40601 0.0
O752 O 0.7248 0.79814 0.40324 0.0
C753 C 0.6839 0.7322 0.38686 0.0
O754 O 0.70164 0.73045 0.39179 0.0
C755 C 0.75398 0.83011 0.37977 0.0
C756 C 0.74669 0.85279 0.36118 0.0
C757 C 0.76105 0.8463 0.37188 0.0
N758 N 0.73627 0.8272 0.37398 0.0
N759 N 0.73195 0.84084 0.36294 0.0
C760 C 0.76424 0.81673 0.39152 0.0
H761 H 0.75923 0.80201 0.38933 0.0
H762 H 0.77978 0.81745 0.38937 0.0
H763 H 0.76118 0.8206 0.40516 0.0
C764 C 0.71126 0.76217 0.34988 0.0
N765 N 0.70971 0.77286 0.3643 0.0
N766 N 0.72135 0.78738 0.36307 0.0
C767 C 0.73095 0.78618 0.34804 0.0
C768 C 0.72475 0.77031 0.33908 0.0
C769 C 0.69843 0.74592 0.34565 0.0
H770 H 0.68373 0.74929 0.34966 0.0
H771 H 0.70316 0.73322 0.35293 0.0
H772 H 0.69859 0.74258 0.33161 0.0
O773 O 0.67479 0.79329 0.38232 0.0
O774 O 0.69366 0.81814 0.37877 0.0
H775 H 0.73839 0.81344 0.33806 0.0
H776 H 0.75399 0.7946 0.33118 0.0
C777 C 0.74554 0.80018 0.34216 0.0
H778 H 0.75528 0.80348 0.35299 0.0
H779 H 0.719 0.84188 0.35649 0.0
O780 O 0.67759 0.74846 0.3828 0.0
C781 C 0.67715 0.81103 0.38013 0.0
Co782 Co 0.4749 0.44259 0.63354 0.0
Co783 Co 0.43965 0.46879 0.62839 0.0
C784 C 0.46183 0.46889 0.66155 0.0
O785 O 0.47365 0.45672 0.65587 0.0
O786 O 0.44802 0.47456 0.65228 0.0
C787 C 0.51396 0.43264 0.63965 0.0
O788 O 0.51507 0.44946 0.64689 0.0
C789 C 0.41747 0.50384 0.62704 0.0
C790 C 0.39388 0.49567 0.60976 0.0
C791 C 0.40109 0.51066 0.61929 0.0
N792 N 0.41981 0.48569 0.62225 0.0
N793 N 0.40562 0.48085 0.612 0.0
C794 C 0.43141 0.51456 0.63786 0.0
H795 H 0.4459 0.50885 0.63583 0.0
H796 H 0.43114 0.5299 0.63467 0.0
H797 H 0.42771 0.51275 0.65172 0.0
C798 C 0.48618 0.46132 0.60054 0.0
N799 N 0.47459 0.45939 0.6143 0.0
N800 N 0.4599 0.47068 0.61232 0.0
C801 C 0.46174 0.48027 0.59732 0.0
C802 C 0.47847 0.47466 0.58935 0.0
C803 C 0.50401 0.45018 0.59798 0.0
H804 H 0.51404 0.45357 0.60858 0.0
H805 H 0.51093 0.45349 0.58545 0.0
H806 H 0.50077 0.4348 0.59865 0.0
O807 O 0.45347 0.42433 0.63178 0.0
O808 O 0.4287 0.44312 0.62762 0.0
H809 H 0.45068 0.49854 0.57701 0.0
H810 H 0.44385 0.50467 0.59883 0.0
C811 C 0.44667 0.49275 0.58983 0.0
H812 H 0.43344 0.48446 0.58833 0.0
H813 H 0.40404 0.46747 0.60643 0.0
O814 O 0.4983 0.42722 0.63322 0.0
C815 C 0.43578 0.42664 0.62924 0.0
Co816 Co 0.19277 0.22424 0.38242 0.0
Co817 Co 0.21918 0.18887 0.37932 0.0
C818 C 0.21804 0.21223 0.41166 0.0
O819 O 0.2062 0.22386 0.40514 0.0
O820 O 0.224 0.198 0.40311 0.0
C821 C 0.18388 0.26395 0.38516 0.0
O822 O 0.20155 0.26566 0.39029 0.0
C823 C 0.25381 0.16591 0.38005 0.0
C824 C 0.24676 0.14318 0.36143 0.0
C825 C 0.26101 0.14976 0.3722 0.0
N826 N 0.23613 0.16874 0.37413 0.0
N827 N 0.23195 0.15504 0.36311 0.0
C828 C 0.26394 0.17939 0.3918 0.0
H829 H 0.25879 0.19406 0.38962 0.0
H830 H 0.27949 0.17881 0.38967 0.0
H831 H 0.2609 0.17549 0.40545 0.0
C832 C 0.21186 0.23355 0.34905 0.0
N833 N 0.20999 0.22303 0.36354 0.0
N834 N 0.22167 0.20851 0.36269 0.0
C835 C 0.23162 0.20956 0.34783 0.0
C836 C 0.22562 0.22532 0.3386 0.0
C837 C 0.19905 0.24968 0.34438 0.0
H838 H 0.18429 0.24634 0.34826 0.0
H839 H 0.20364 0.26254 0.3515 0.0
H840 H 0.1994 0.25271 0.3303 0.0
O841 O 0.17456 0.20286 0.38092 0.0
O842 O 0.19346 0.17794 0.37801 0.0
H843 H 0.2393 0.18219 0.33826 0.0
H844 H 0.25502 0.20096 0.33146 0.0
C845 C 0.24634 0.1955 0.34235 0.0
H846 H 0.25586 0.19235 0.35338 0.0
H847 H 0.21908 0.15397 0.35654 0.0
O848 O 0.17753 0.24767 0.38119 0.0
C849 C 0.17694 0.1851 0.37894 0.0
Co850 Co 0.5221 0.44208 0.13395 0.0
Co851 Co 0.55724 0.4684 0.12884 0.0
C852 C 0.53481 0.46925 0.16165 0.0
O853 O 0.52315 0.45689 0.15601 0.0
O854 O 0.54872 0.47486 0.15248 0.0
C855 C 0.48245 0.43321 0.13799 0.0
O856 O 0.48078 0.45099 0.14281 0.0
C857 C 0.58091 0.5026 0.12675 0.0
C858 C 0.60197 0.49391 0.10707 0.0
C859 C 0.59645 0.50896 0.11741 0.0
N860 N 0.57735 0.48462 0.12202 0.0
N861 N 0.5901 0.47945 0.1104 0.0
C862 C 0.56859 0.51379 0.13876 0.0
H863 H 0.55367 0.50894 0.13771 0.0
H864 H 0.56943 0.52917 0.13585 0.0
H865 H 0.5734 0.51141 0.15226 0.0
C866 C 0.51179 0.45934 0.09994 0.0
N867 N 0.52276 0.45819 0.11422 0.0
N868 N 0.53718 0.46987 0.11254 0.0
C869 C 0.53562 0.47912 0.09735 0.0
C870 C 0.51964 0.47262 0.08875 0.0
C871 C 0.49547 0.44641 0.09625 0.0
H872 H 0.49893 0.43179 0.10048 0.0
H873 H 0.48293 0.45131 0.10367 0.0
H874 H 0.49184 0.44625 0.08228 0.0
O875 O 0.54339 0.42373 0.1329 0.0
O876 O 0.56807 0.44264 0.12878 0.0
H877 H 0.56244 0.48674 0.08652 0.0
H878 H 0.54324 0.50212 0.08013 0.0
C879 C 0.54928 0.4938 0.091 0.0
H880 H 0.55285 0.50366 0.10166 0.0
H881 H 0.59042 0.46617 0.10446 0.0
O882 O 0.49865 0.42683 0.13382 0.0
C883 C 0.5611 0.42613 0.13058 0.0
Co884 Co 0.3047 0.77307 0.88296 0.0
Co885 Co 0.27838 0.80833 0.87829 0.0
C886 C 0.27778 0.78563 0.91091 0.0
O887 O 0.29011 0.77405 0.90511 0.0
O888 O 0.27208 0.79962 0.90189 0.0
C889 C 0.31318 0.73338 0.8869 0.0
O890 O 0.29541 0.732 0.89181 0.0
C891 C 0.24415 0.83202 0.87664 0.0
C892 C 0.25257 0.85317 0.85695 0.0
C893 C 0.23765 0.84758 0.86742 0.0
N894 N 0.26208 0.82851 0.87173 0.0
N895 N 0.26709 0.84132 0.86011 0.0
C896 C 0.23311 0.81962 0.88869 0.0
H897 H 0.23792 0.8047 0.88749 0.0
H898 H 0.21769 0.8205 0.88597 0.0
H899 H 0.23568 0.82432 0.9022 0.0
C900 C 0.28709 0.76303 0.84907 0.0
N901 N 0.2884 0.77392 0.86339 0.0
N902 N 0.27673 0.78837 0.8619 0.0
C903 C 0.2673 0.7869 0.84679 0.0
C904 C 0.2737 0.77096 0.83805 0.0
C905 C 0.29997 0.74672 0.84518 0.0
H906 H 0.31461 0.75012 0.84938 0.0
H907 H 0.29509 0.73411 0.85249 0.0
H908 H 0.30006 0.74325 0.83117 0.0
O909 O 0.32308 0.79432 0.88183 0.0
O910 O 0.30419 0.8191 0.87814 0.0
H911 H 0.25953 0.81378 0.83618 0.0
H912 H 0.24408 0.7946 0.82987 0.0
C913 C 0.25254 0.80059 0.84068 0.0
H914 H 0.24282 0.80409 0.85146 0.0
H915 H 0.28029 0.84169 0.85404 0.0
O916 O 0.31977 0.74948 0.88266 0.0
C917 C 0.32069 0.81206 0.8797 0.0
Co918 Co 0.9749 0.55349 0.63284 0.0
Co919 Co 0.93965 0.52726 0.62758 0.0
C920 C 0.96168 0.52702 0.66072 0.0
O921 O 0.97346 0.53921 0.65502 0.0
O922 O 0.94783 0.5213 0.65152 0.0
C923 C 0.01409 0.56322 0.63875 0.0
O924 O 0.01538 0.54613 0.64541 0.0
C925 C 0.91668 0.49259 0.62542 0.0
C926 C 0.89457 0.50128 0.60675 0.0
C927 C 0.90087 0.48611 0.61656 0.0
N928 N 0.91966 0.51074 0.62093 0.0
N929 N 0.90629 0.51591 0.60992 0.0
C930 C 0.92961 0.48146 0.63691 0.0
H931 H 0.94435 0.48682 0.63572 0.0
H932 H 0.92916 0.46614 0.63362 0.0
H933 H 0.92503 0.48327 0.65055 0.0
C934 C 0.98631 0.53487 0.59985 0.0
N935 N 0.97463 0.5368 0.61356 0.0
N936 N 0.96004 0.52537 0.61161 0.0
C937 C 0.9621 0.51563 0.59671 0.0
C938 C 0.97879 0.52133 0.58876 0.0
C939 C 0.00402 0.54618 0.59726 0.0
H940 H 0.01431 0.54249 0.60756 0.0
H941 H 0.01068 0.54329 0.58452 0.0
H942 H 0.00075 0.56152 0.59839 0.0
O943 O 0.95358 0.5718 0.63116 0.0
O944 O 0.92884 0.55301 0.62693 0.0
H945 H 0.95178 0.49633 0.57686 0.0
H946 H 0.94407 0.49135 0.59866 0.0
C947 C 0.94729 0.50279 0.58928 0.0
H948 H 0.93417 0.51102 0.58694 0.0
H949 H 0.9054 0.52933 0.60431 0.0
O950 O -0.00169 0.56884 0.63273 0.0
C951 C 0.9359 0.56949 0.62862 0.0
Co952 Co 0.19223 0.77164 0.11691 0.0
Co953 Co 0.21859 0.80682 0.12157 0.0
C954 C 0.21888 0.78442 0.08881 0.0
O955 O 0.20665 0.77279 0.09472 0.0
O956 O 0.22468 0.7984 0.0978 0.0
C957 C 0.1838 0.73192 0.11322 0.0
O958 O 0.20175 0.73036 0.10892 0.0
C959 C 0.25269 0.83071 0.12343 0.0
C960 C 0.24403 0.85161 0.14326 0.0
C961 C 0.25904 0.84623 0.13281 0.0
N962 N 0.23477 0.82703 0.12825 0.0
N963 N 0.22961 0.83969 0.13995 0.0
C964 C 0.26386 0.81852 0.1113 0.0
H965 H 0.25901 0.80358 0.11222 0.0
H966 H 0.27924 0.81933 0.1142 0.0
H967 H 0.26147 0.82347 0.09784 0.0
C968 C 0.20991 0.76149 0.15073 0.0
N969 N 0.20864 0.77235 0.13639 0.0
N970 N 0.22041 0.78673 0.13783 0.0
C971 C 0.22986 0.78524 0.15292 0.0
C972 C 0.22339 0.76936 0.16169 0.0
C973 C 0.19686 0.74535 0.15473 0.0
H974 H 0.1823 0.74876 0.15033 0.0
H975 H 0.20176 0.73256 0.14768 0.0
H976 H 0.19658 0.74214 0.16879 0.0
O977 O 0.17383 0.79283 0.11825 0.0
O978 O 0.19277 0.81755 0.12207 0.0
H979 H 0.23767 0.81207 0.1636 0.0
H980 H 0.25312 0.79287 0.1698 0.0
C981 C 0.24464 0.79891 0.15904 0.0
H982 H 0.25432 0.80245 0.14824 0.0
H983 H 0.21639 0.8399 0.14599 0.0
O984 O 0.17714 0.74811 0.11705 0.0
C985 C 0.17625 0.81054 0.12056 0.0
Co986 Co 0.97462 0.44318 0.86756 0.0
Co987 Co 0.93945 0.46953 0.8721 0.0
C988 C 0.96175 0.46904 0.83912 0.0
O989 O 0.97362 0.45706 0.84506 0.0
O990 O 0.94786 0.47481 0.84821 0.0
C991 C 0.01414 0.43398 0.86349 0.0
O992 O 0.01578 0.45153 0.85799 0.0
C993 C 0.91659 0.50417 0.87237 0.0
C994 C 0.89414 0.49676 0.89117 0.0
C995 C 0.90053 0.5112 0.8805 0.0
N996 N 0.91954 0.4864 0.87802 0.0
N997 N 0.90604 0.48202 0.88917 0.0
C998 C 0.92985 0.51449 0.86055 0.0
H999 H 0.94456 0.50933 0.86247 0.0
H1000 H 0.92928 0.53 0.86287 0.0
H1001 H 0.92574 0.51162 0.84693 0.0
C1002 C 0.98496 0.46148 0.90106 0.0
N1003 N 0.97404 0.46 0.88679 0.0
N1004 N 0.95956 0.47165 0.88824 0.0
C1005 C 0.961 0.48118 0.90329 0.0
C1006 C 0.977 0.47493 0.91202 0.0
C1007 C 0.00121 0.44856 0.90506 0.0
H1008 H 0.99757 0.43383 0.90131 0.0
H1009 H 0.01372 0.45305 0.89739 0.0
H1010 H 0.00496 0.44888 0.919 0.0
O1011 O 0.95325 0.42497 0.86924 0.0
O1012 O 0.92851 0.44386 0.87324 0.0
H1013 H 0.93385 0.48839 0.91365 0.0
H1014 H 0.95272 0.50398 0.92048 0.0
C1015 C 0.94703 0.49564 0.90947 0.0
H1016 H 0.94355 0.50551 0.89878 0.0
H1017 H 0.90506 0.46901 0.89556 0.0
O1018 O 0.99799 0.42784 0.8681 0.0
C1019 C 0.93558 0.42735 0.87177 0.0
Co1020 Co 0.30421 0.22451 0.61725 0.0
Co1021 Co 0.27772 0.18936 0.62192 0.0
C1022 C 0.27712 0.21218 0.58935 0.0
O1023 O 0.28951 0.22372 0.59513 0.0
O1024 O 0.27143 0.19817 0.59836 0.0
C1025 C 0.31309 0.26422 0.61366 0.0
O1026 O 0.29523 0.26593 0.6091 0.0
C1027 C 0.24343 0.16572 0.62353 0.0
C1028 C 0.25179 0.14458 0.64324 0.0
C1029 C 0.2369 0.15017 0.63275 0.0
N1030 N 0.26135 0.16922 0.62847 0.0
N1031 N 0.26633 0.15642 0.6401 0.0
C1032 C 0.23242 0.1781 0.61144 0.0
H1033 H 0.2372 0.19302 0.61265 0.0
H1034 H 0.21699 0.1772 0.61411 0.0
H1035 H 0.23506 0.1734 0.59794 0.0
C1036 C 0.28675 0.23447 0.65128 0.0
N1037 N 0.28796 0.22368 0.63689 0.0
N1038 N 0.27619 0.20929 0.63833 0.0
C1039 C 0.26681 0.21071 0.65347 0.0
C1040 C 0.27334 0.22654 0.66228 0.0
C1041 C 0.29972 0.25069 0.65524 0.0
H1042 H 0.31433 0.24726 0.65096 0.0
H1043 H 0.29487 0.26338 0.64802 0.0
H1044 H 0.29986 0.25405 0.66927 0.0
O1045 O 0.32247 0.20313 0.61826 0.0
O1046 O 0.30345 0.17847 0.62211 0.0
H1047 H 0.25892 0.18385 0.66405 0.0
H1048 H 0.24355 0.20308 0.67037 0.0
C1049 C 0.25199 0.19707 0.65956 0.0
H1050 H 0.24226 0.19363 0.64877 0.0
H1051 H 0.27952 0.15605 0.64618 0.0
O1052 O 0.31954 0.24796 0.61757 0.0
C1053 C 0.31999 0.18542 0.62048 0.0
Co1054 Co 0.52121 0.55453 0.36807 0.0
Co1055 Co 0.55643 0.52819 0.37267 0.0
C1056 C 0.53405 0.52863 0.33965 0.0
O1057 O 0.52229 0.5407 0.34561 0.0
O1058 O 0.54794 0.52277 0.34871 0.0
C1059 C 0.48209 0.5644 0.36244 0.0
O1060 O 0.48086 0.54745 0.35548 0.0
C1061 C 0.57873 0.49319 0.37362 0.0
C1062 C 0.60229 0.50125 0.39098 0.0
C1063 C 0.59513 0.48634 0.38132 0.0
N1064 N 0.57634 0.51128 0.37856 0.0
N1065 N 0.59051 0.51606 0.38886 0.0
C1066 C 0.56484 0.48253 0.3627 0.0
H1067 H 0.55033 0.48818 0.36476 0.0
H1068 H 0.56515 0.46716 0.36577 0.0
H1069 H 0.56855 0.48448 0.34885 0.0
C1070 C 0.51022 0.53553 0.40102 0.0
N1071 N 0.52164 0.53752 0.38714 0.0
N1072 N 0.5363 0.52614 0.38887 0.0
C1073 C 0.5346 0.51643 0.40382 0.0
C1074 C 0.51802 0.52206 0.41203 0.0
C1075 C 0.49252 0.54678 0.40386 0.0
H1076 H 0.48226 0.54345 0.39343 0.0
H1077 H 0.48581 0.54351 0.4165 0.0
H1078 H 0.49583 0.56214 0.40315 0.0
O1079 O 0.54265 0.57274 0.36984 0.0
O1080 O 0.56741 0.55384 0.37361 0.0
H1081 H 0.54577 0.4978 0.42381 0.0
H1082 H 0.55256 0.49211 0.40189 0.0
C1083 C 0.54973 0.50384 0.41108 0.0
H1084 H 0.56294 0.51214 0.41269 0.0
H1085 H 0.59203 0.52938 0.39455 0.0
O1086 O 0.49784 0.56994 0.3686 0.0
C1087 C 0.56036 0.57036 0.37221 0.0
C1088 C 0.26372 0.24579 0.18462 0.0
C1089 C 0.26917 0.26427 0.18016 0.0
C1090 C 0.25923 0.24136 0.2018 0.0
C1091 C 0.24423 0.26396 0.24275 0.0
H1092 H 0.26059 0.21671 0.26356 0.0
C1093 C 0.23601 0.24845 0.31592 0.0
C1094 C 0.23032 0.23007 0.32047 0.0
C1095 C 0.24077 0.25269 0.29877 0.0
C1096 C 0.25574 0.22988 0.25788 0.0
H1097 H 0.27509 0.29238 0.19004 0.0
H1098 H 0.26731 0.28471 0.21998 0.0
H1099 H 0.269 0.22366 0.23359 0.0
H1100 H 0.22441 0.20189 0.31077 0.0
H1101 H 0.23268 0.20921 0.28084 0.0
H1102 H 0.23097 0.27018 0.26702 0.0
C1103 C 0.26605 0.27372 0.21026 0.0
C1104 C 0.26056 0.23385 0.24071 0.0
C1105 C 0.27053 0.27812 0.19314 0.0
C1106 C 0.22914 0.21608 0.3076 0.0
C1107 C 0.2339 0.22027 0.2905 0.0
C1108 C 0.23942 0.25999 0.25992 0.0
C1109 C 0.26016 0.25535 0.21478 0.0
C1110 C 0.25489 0.25095 0.23296 0.0
C1111 C 0.23987 0.23859 0.28588 0.0
C1112 C 0.24512 0.24291 0.26768 0.0
H1113 H 0.26259 0.23491 0.17477 0.0
H1114 H 0.25462 0.2271 0.20485 0.0
H1115 H 0.23938 0.27713 0.23708 0.0
H1116 H 0.23703 0.25944 0.32568 0.0
H1117 H 0.24547 0.2669 0.29565 0.0
C1118 C 0.01101 0.96611 0.55854 0.0
C1119 C 0.01212 0.98026 0.57126 0.0
C1120 C 0.00718 0.97089 0.54134 0.0
C1121 C 0.01035 0.01119 0.51099 0.0
H1122 H 0.97834 0.97974 0.48201 0.0
C1123 C 0.9862 0.03323 0.44228 0.0
C1124 C 0.98546 0.01901 0.42961 0.0
C1125 C 0.99022 0.02862 0.45949 0.0
C1126 C 0.98751 0.98854 0.48988 0.0
H1127 H 0.0097 0.0103 0.57631 0.0
H1128 H 0.0027 0.01877 0.54623 0.0
H1129 H 0.9827 0.97156 0.51241 0.0
H1130 H 0.98885 0.98904 0.42463 0.0
H1131 H 0.99608 0.98088 0.45473 0.0
H1132 H 0.01509 0.02821 0.48845 0.0
C1133 C 0.00506 0.00401 0.54944 0.0
C1134 C 0.98998 0.98387 0.50732 0.0
C1135 C 0.0089 -0.0008 0.56664 0.0
C1136 C 0.98934 0.0002 0.43426 0.0
C1137 C 0.99331 0.99556 0.45147 0.0
C1138 C 0.00786 0.01588 0.49356 0.0
C1139 C 0.00441 0.98994 0.53654 0.0
C1140 C 0.00144 0.99512 0.51808 0.0
C1141 C 0.99351 0.00968 0.46433 0.0
C1142 C 0.99644 0.00459 0.4828 0.0
H1143 H 0.01371 0.95142 0.56183 0.0
H1144 H 0.00702 0.95973 0.53172 0.0
H1145 H 0.01954 0.01998 0.51885 0.0
H1146 H 0.98301 0.04781 0.43897 0.0
H1147 H 0.99008 0.0398 0.4691 0.0
C1148 C 0.26371 0.74734 0.81563 0.0
C1149 C 0.26953 0.76575 0.81993 0.0
C1150 C 0.25901 0.74285 0.79851 0.0
C1151 C 0.26521 0.75929 0.75331 0.0
H1152 H 0.22009 0.72939 0.74467 0.0
C1153 C 0.23392 0.74995 0.68466 0.0
C1154 C 0.22816 0.73154 0.68027 0.0
C1155 C 0.23876 0.75431 0.70178 0.0
C1156 C 0.23282 0.73761 0.74687 0.0
H1157 H 0.2757 0.79372 0.80985 0.0
H1158 H 0.26723 0.78605 0.78007 0.0
H1159 H 0.22968 0.736 0.77439 0.0
H1160 H 0.22226 0.70344 0.69018 0.0
H1161 H 0.23094 0.71091 0.71997 0.0
H1162 H 0.26833 0.76094 0.72579 0.0
C1163 C 0.26635 0.77501 0.78978 0.0
C1164 C 0.23835 0.74135 0.7639 0.0
C1165 C 0.27102 0.77947 0.80685 0.0
C1166 C 0.22689 0.71769 0.69325 0.0
C1167 C 0.23168 0.72202 0.71032 0.0
C1168 C 0.25968 0.75557 0.73628 0.0
C1169 C 0.26016 0.75669 0.78542 0.0
C1170 C 0.25459 0.75225 0.76732 0.0
C1171 C 0.23779 0.74034 0.71477 0.0
C1172 C 0.24342 0.74468 0.73287 0.0
H1173 H 0.26252 0.73655 0.82555 0.0
H1174 H 0.25452 0.72854 0.79552 0.0
H1175 H 0.27794 0.76752 0.75551 0.0
H1176 H 0.23494 0.76084 0.67482 0.0
H1177 H 0.24319 0.76862 0.70485 0.0
C1178 C 0.46687 0.01878 0.05752 0.0
C1179 C 0.48088 0.01784 0.07038 0.0
C1180 C 0.47113 0.01404 0.04042 0.0
C1181 C 0.5109 0.00871 0.00982 0.0
H1182 H 0.47479 0.97868 0.98369 0.0
C1183 C 0.52916 0.97728 0.94316 0.0
C1184 C 0.5153 0.97852 0.93018 0.0
C1185 C 0.52477 0.98183 0.96026 0.0
C1186 C 0.48492 0.98724 0.99074 0.0
H1187 H 0.51033 0.01158 0.07559 0.0
H1188 H 0.5179 0.00314 0.04558 0.0
H1189 H 0.4678 0.98723 0.01361 0.0
H1190 H 0.48592 0.98495 0.92481 0.0
H1191 H 0.4781 0.99301 0.95487 0.0
H1192 H 0.52803 0.00871 0.98696 0.0
C1193 C 0.50363 0.00766 0.04869 0.0
C1194 C 0.48093 0.99215 0.00789 0.0
C1195 C 0.49934 0.01242 0.06583 0.0
C1196 C 0.49681 0.98391 0.93465 0.0
C1197 C 0.49237 0.98846 0.95182 0.0
C1198 C 0.5149 0.0038 0.99268 0.0
C1199 C 0.48952 0.00829 0.03581 0.0
C1200 C 0.49387 0.00294 0.01763 0.0
C1201 C 0.50637 0.98765 0.96478 0.0
C1202 C 0.50197 0.99299 0.98295 0.0
H1203 H 0.45261 0.02328 0.06068 0.0
H1204 H 0.46004 0.01505 0.03077 0.0
H1205 H 0.52103 0.01729 0.01686 0.0
H1206 H 0.54344 0.97277 0.94006 0.0
H1207 H 0.53577 0.98066 0.96999 0.0
C1208 C 0.23308 0.74588 0.18435 0.0
C1209 C 0.22739 0.76429 0.17988 0.0
C1210 C 0.23755 0.74149 0.20154 0.0
C1211 C 0.2307 0.75818 0.24655 0.0
H1212 H 0.2758 0.72852 0.25592 0.0
C1213 C 0.26098 0.7495 0.31563 0.0
C1214 C 0.26696 0.73122 0.3202 0.0
C1215 C 0.2563 0.75367 0.29844 0.0
C1216 C 0.26306 0.73667 0.25352 0.0
H1217 H 0.2212 0.79235 0.18973 0.0
H1218 H 0.22925 0.78485 0.21965 0.0
H1219 H 0.26663 0.73489 0.22604 0.0
H1220 H 0.27339 0.70314 0.31052 0.0
H1221 H 0.26493 0.71024 0.28061 0.0
H1222 H 0.22713 0.75997 0.27402 0.0
C1223 C 0.23022 0.77375 0.21 0.0
C1224 C 0.25778 0.74028 0.2364 0.0
C1225 C 0.2258 0.77811 0.19286 0.0
C1226 C 0.26857 0.71729 0.30731 0.0
C1227 C 0.26392 0.72143 0.29018 0.0
C1228 C 0.23597 0.75457 0.26367 0.0
C1229 C 0.23628 0.75544 0.21454 0.0
C1230 C 0.24156 0.7511 0.23272 0.0
C1231 C 0.25762 0.73963 0.28554 0.0
C1232 C 0.25222 0.74378 0.26735 0.0
H1233 H 0.23433 0.73501 0.1745 0.0
H1234 H 0.24195 0.72719 0.20467 0.0
H1235 H 0.21797 0.76635 0.24414 0.0
H1236 H 0.2597 0.76046 0.32539 0.0
H1237 H 0.25173 0.7679 0.29524 0.0
C1238 C 0.48857 0.99645 0.4341 0.0
C1239 C 0.48462 0.97764 0.42948 0.0
C1240 C 0.49236 0.00114 0.45133 0.0
C1241 C 0.50636 0.98083 0.49355 0.0
H1242 H 0.4816 0.02551 0.51215 0.0
C1243 C 0.50745 0.99777 0.56652 0.0
C1244 C 0.51106 0.01667 0.57104 0.0
C1245 C 0.50345 0.99296 0.54936 0.0
C1246 C 0.48876 0.01309 0.50712 0.0
H1247 H 0.48177 0.94891 0.43892 0.0
H1248 H 0.48849 0.95701 0.4691 0.0
H1249 H 0.47731 0.01724 0.48175 0.0
H1250 H 0.51308 0.04544 0.56152 0.0
H1251 H 0.50611 0.03712 0.53146 0.0
H1252 H 0.51787 0.9767 0.5189 0.0
C1253 C 0.48886 0.96814 0.45945 0.0
C1254 C 0.48634 0.00838 0.4897 0.0
C1255 C 0.48503 0.96348 0.44221 0.0
C1256 C 0.5101 0.03079 0.5583 0.0
C1257 C 0.50611 0.026 0.54113 0.0
C1258 C 0.50881 0.98556 0.51098 0.0
C1259 C 0.49228 0.98707 0.46424 0.0
C1260 C 0.49512 0.9922 0.48271 0.0
C1261 C 0.50302 0.00698 0.53641 0.0
C1262 C 0.50004 0.00175 0.51797 0.0
H1263 H 0.48835 0.00756 0.42442 0.0
H1264 H 0.49523 0.0158 0.45457 0.0
H1265 H 0.5135 0.96841 0.48851 0.0
H1266 H 0.50812 0.9867 0.57622 0.0
H1267 H 0.50084 0.97823 0.5462 0.0
C1268 C 0.26329 0.24988 0.68493 0.0
C1269 C 0.26927 0.23157 0.68047 0.0
C1270 C 0.25842 0.2541 0.70208 0.0
C1271 C 0.26423 0.23713 0.74715 0.0
H1272 H 0.21848 0.26612 0.75559 0.0
C1273 C 0.23245 0.24562 0.81571 0.0
C1274 C 0.22647 0.26395 0.82012 0.0
C1275 C 0.23728 0.24132 0.79858 0.0
C1276 C 0.23138 0.25814 0.75345 0.0
H1277 H 0.27565 0.20353 0.69027 0.0
H1278 H 0.26694 0.21075 0.7201 0.0
H1279 H 0.2286 0.26007 0.72591 0.0
H1280 H 0.22004 0.29193 0.81021 0.0
H1281 H 0.22869 0.28459 0.7804 0.0
H1282 H 0.26703 0.23521 0.77469 0.0
C1283 C 0.26603 0.2219 0.7105 0.0
C1284 C 0.23721 0.25473 0.73645 0.0
C1285 C 0.27084 0.21771 0.69341 0.0
C1286 C 0.22485 0.27774 0.80712 0.0
C1287 C 0.22963 0.27347 0.79004 0.0
C1288 C 0.25841 0.24054 0.76415 0.0
C1289 C 0.25958 0.24009 0.71502 0.0
C1290 C 0.2537 0.24418 0.7331 0.0
C1291 C 0.23608 0.25527 0.78558 0.0
C1292 C 0.24193 0.25111 0.7675 0.0
H1293 H 0.26203 0.26078 0.67512 0.0
H1294 H 0.25374 0.26832 0.7052 0.0
H1295 H 0.27714 0.22915 0.745 0.0
H1296 H 0.23375 0.23477 0.82557 0.0
H1297 H 0.24197 0.22709 0.7955 0.0
C1298 C 0.00876 0.99711 0.93418 0.0
C1299 C 0.01183 0.01604 0.92942 0.0
C1300 C 0.00498 0.99242 0.95142 0.0
C1301 C 0.98955 0.01278 0.99332 0.0
H1302 H 0.0152 0.969 0.01266 0.0
C1303 C 0.98863 0.99708 0.06651 0.0
C1304 C 0.98516 0.97823 0.07129 0.0
C1305 C 0.9926 0.00165 0.04928 0.0
C1306 C 0.00781 0.98117 0.00742 0.0
H1307 H 0.01321 0.04496 0.93864 0.0
H1308 H 0.00659 0.03687 0.96881 0.0
H1309 H 0.01969 0.97698 0.98221 0.0
H1310 H 0.98338 0.9493 0.06214 0.0
H1311 H 0.9904 0.95718 0.03198 0.0
H1312 H 0.9777 0.01697 0.01853 0.0
C1313 C 0.00685 0.02563 0.95927 0.0
C1314 C 0.01033 0.98572 0.98995 0.0
C1315 C 0.01063 0.03028 0.94203 0.0
C1316 C 0.98625 0.96391 0.05873 0.0
C1317 C 0.99026 0.96845 0.0415 0.0
C1318 C 0.98705 0.00824 0.01078 0.0
C1319 C 0.00422 0.00661 0.96421 0.0
C1320 C 0.00123 0.00158 0.9827 0.0
C1321 C 0.99318 0.98742 0.03653 0.0
C1322 C 0.99615 0.99239 0.01803 0.0
H1323 H 0.00961 0.98593 0.92459 0.0
H1324 H 0.00274 0.97768 0.95475 0.0
H1325 H 0.98214 0.02493 0.98809 0.0
H1326 H 0.98787 0.00831 0.07606 0.0
H1327 H 0.99507 0.01635 0.04592 0.0
C1328 C 0.7256 0.71746 0.80781 0.0
C1329 C 0.72707 0.73127 0.82081 0.0
C1330 C 0.73027 0.7218 0.79072 0.0
C1331 C 0.73651 0.76165 0.76039 0.0
H1332 H 0.76571 0.72498 0.7341 0.0
C1333 C 0.76839 0.77928 0.69369 0.0
C1334 C 0.76701 0.76538 0.68076 0.0
C1335 C 0.7636 0.77504 0.71078 0.0
C1336 C 0.75737 0.73527 0.7412 0.0
H1337 H 0.7341 0.76051 0.82627 0.0
H1338 H 0.7424 0.76823 0.79625 0.0
H1339 H 0.75704 0.71805 0.76399 0.0
H1340 H 0.75995 0.73613 0.6754 0.0
H1341 H 0.75143 0.7286 0.7054 0.0
H1342 H 0.73685 0.77887 0.73759 0.0
C1343 C 0.73755 0.75404 0.79926 0.0
C1344 C 0.75241 0.73131 0.75833 0.0
C1345 C 0.73286 0.74966 0.8164 0.0
C1346 C 0.76112 0.74704 0.68522 0.0
C1347 C 0.75632 0.74276 0.70235 0.0
C1348 C 0.74148 0.76561 0.74325 0.0
C1349 C 0.73647 0.74009 0.78626 0.0
C1350 C 0.7419 0.74445 0.76811 0.0
C1351 C 0.75738 0.75678 0.7153 0.0
C1352 C 0.75197 0.75246 0.73346 0.0
H1353 H 0.72081 0.70326 0.81088 0.0
H1354 H 0.7289 0.71085 0.78098 0.0
H1355 H 0.72817 0.77193 0.76749 0.0
H1356 H 0.77326 0.79344 0.69059 0.0
H1357 H 0.76494 0.78604 0.72049 0.0
C1358 C 0.76935 0.27915 0.30798 0.0
C1359 C 0.76784 0.26531 0.32095 0.0
C1360 C 0.76485 0.27481 0.29085 0.0
C1361 C 0.75922 0.23492 0.26046 0.0
H1362 H 0.73018 0.27139 0.23383 0.0
C1363 C 0.72814 0.21697 0.19354 0.0
C1364 C 0.7296 0.23082 0.18058 0.0
C1365 C 0.73276 0.22128 0.21065 0.0
C1366 C 0.73848 0.26116 0.24102 0.0
H1367 H 0.76089 0.23604 0.32632 0.0
H1368 H 0.75289 0.22832 0.29624 0.0
H1369 H 0.73843 0.27841 0.2638 0.0
H1370 H 0.73661 0.26008 0.1752 0.0
H1371 H 0.7448 0.26775 0.20524 0.0
H1372 H 0.75925 0.21766 0.23768 0.0
C1373 C 0.75764 0.24252 0.2993 0.0
C1374 C 0.7432 0.26517 0.2582 0.0
C1375 C 0.76215 0.24691 0.31648 0.0
C1376 C 0.73538 0.2492 0.18503 0.0
C1377 C 0.74 0.25356 0.20219 0.0
C1378 C 0.75449 0.23091 0.24328 0.0
C1379 C 0.7588 0.25649 0.28631 0.0
C1380 C 0.75364 0.2521 0.26811 0.0
C1381 C 0.73887 0.23958 0.21517 0.0
C1382 C 0.74405 0.24398 0.23337 0.0
H1383 H 0.77408 0.29336 0.31108 0.0
H1384 H 0.76627 0.28578 0.28112 0.0
H1385 H 0.76751 0.22468 0.26766 0.0
H1386 H 0.72335 0.20278 0.19044 0.0
H1387 H 0.73135 0.21031 0.22038 0.0
C1388 C 0.71535 0.2609 0.69248 0.0
C1389 C 0.72963 0.26187 0.67989 0.0
C1390 C 0.71993 0.25708 0.70973 0.0
C1391 C 0.75979 0.26044 0.74037 0.0
H1392 H 0.72836 0.2282 0.76915 0.0
C1393 C 0.78157 0.23686 0.80921 0.0
C1394 C 0.76729 0.23585 0.8218 0.0
C1395 C 0.777 0.24075 0.79197 0.0
C1396 C 0.73714 0.23744 0.76135 0.0
H1397 H 0.7597 0.25919 0.67508 0.0
H1398 H 0.76781 0.25227 0.70526 0.0
H1399 H 0.72042 0.23245 0.73868 0.0
H1400 H 0.73723 0.23855 0.82662 0.0
H1401 H 0.72912 0.24559 0.79646 0.0
H1402 H 0.77651 0.26543 0.76304 0.0
C1403 C 0.75311 0.25471 0.70191 0.0
C1404 C 0.73261 0.23984 0.74387 0.0
C1405 C 0.7485 0.25851 0.68466 0.0
C1406 C 0.74843 0.23927 0.81704 0.0
C1407 C 0.74382 0.24314 0.79981 0.0
C1408 C 0.76431 0.25805 0.75785 0.0
C1409 C 0.7389 0.25422 0.71469 0.0
C1410 C 0.74389 0.25136 0.73318 0.0
C1411 C 0.75803 0.24364 0.78703 0.0
C1412 C 0.75304 0.24653 0.76854 0.0
H1413 H 0.70073 0.2637 0.68908 0.0
H1414 H 0.70868 0.25703 0.71927 0.0
H1415 H 0.76857 0.26969 0.73256 0.0
H1416 H 0.7962 0.23402 0.8126 0.0
H1417 H 0.78824 0.24082 0.78243 0.0
C1418 C 0.73496 0.74702 0.31645 0.0
C1419 C 0.72909 0.76537 0.32092 0.0
C1420 C 0.73965 0.74272 0.29929 0.0
C1421 C 0.75434 0.76556 0.25837 0.0
H1422 H 0.73886 0.71798 0.23764 0.0
C1423 C 0.76282 0.74968 0.18519 0.0
C1424 C 0.76861 0.7313 0.18075 0.0
C1425 C 0.75819 0.75404 0.20235 0.0
C1426 C 0.74347 0.73125 0.2433 0.0
H1427 H 0.72272 0.79339 0.31108 0.0
H1428 H 0.73084 0.78594 0.28114 0.0
H1429 H 0.73021 0.72489 0.26754 0.0
H1430 H 0.77496 0.70329 0.19063 0.0
H1431 H 0.76696 0.71084 0.22057 0.0
H1432 H 0.76759 0.77192 0.23411 0.0
C1433 C 0.73226 0.77497 0.29086 0.0
C1434 C 0.73851 0.73519 0.26044 0.0
C1435 C 0.72758 0.77923 0.30797 0.0
C1436 C 0.77015 0.71748 0.19373 0.0
C1437 C 0.76554 0.7218 0.21084 0.0
C1438 C 0.75929 0.76162 0.24122 0.0
C1439 C 0.7385 0.75671 0.28633 0.0
C1440 C 0.74388 0.7524 0.26816 0.0
C1441 C 0.75932 0.74007 0.21534 0.0
C1442 C 0.75393 0.7444 0.2335 0.0
H1443 H 0.73623 0.73614 0.32628 0.0
H1444 H 0.74455 0.72856 0.29624 0.0
H1445 H 0.75894 0.77884 0.26403 0.0
H1446 H 0.76153 0.76053 0.17534 0.0
H1447 H 0.75332 0.76821 0.20539 0.0
C1448 C 0.49822 0.51109 0.93511 0.0
C1449 C 0.47995 0.51724 0.93074 0.0
C1450 C 0.50254 0.50625 0.95224 0.0
C1451 C 0.4861 0.51284 0.99737 0.0
H1452 H 0.51553 0.46745 0.00622 0.0
C1453 C 0.49593 0.48248 0.06635 0.0
C1454 C 0.51433 0.47659 0.07061 0.0
C1455 C 0.49136 0.48704 0.04922 0.0
C1456 C 0.50743 0.48026 0.00397 0.0
H1457 H 0.45203 0.52382 0.94071 0.0
H1458 H 0.45939 0.51512 0.97051 0.0
H1459 H 0.50888 0.47686 0.97646 0.0
H1460 H 0.54218 0.47012 0.06043 0.0
H1461 H 0.53437 0.4783 0.0306 0.0
H1462 H 0.48467 0.51625 0.02488 0.0
C1463 C 0.47046 0.51408 0.96084 0.0
C1464 C 0.50367 0.48567 0.98691 0.0
C1465 C 0.46617 0.51888 0.94376 0.0
C1466 C 0.52794 0.47486 0.05746 0.0
C1467 C 0.5234 0.47936 0.04037 0.0
C1468 C 0.48986 0.50742 0.01443 0.0
C1469 C 0.48865 0.5076 0.96528 0.0
C1470 C 0.49296 0.50203 0.98341 0.0
C1471 C 0.50511 0.48565 0.03605 0.0
C1472 C 0.5006 0.49109 0.01793 0.0
H1473 H 0.50906 0.50979 0.92524 0.0
H1474 H 0.51676 0.50154 0.95528 0.0
H1475 H 0.47803 0.52566 0.99512 0.0
H1476 H 0.48522 0.48386 0.07632 0.0
H1477 H 0.47707 0.49162 0.04626 0.0
C1478 C 0.9886 0.49765 0.5665 0.0
C1479 C 0.98502 0.51654 0.57106 0.0
C1480 C 0.99257 0.49286 0.54933 0.0
C1481 C 0.00754 0.51299 0.50725 0.0
H1482 H 0.98239 0.46869 0.48834 0.0
C1483 C 0.00839 0.49664 0.43421 0.0
C1484 C 0.01199 0.47778 0.42954 0.0
C1485 C 0.00446 0.50131 0.45141 0.0
C1486 C 0.98965 0.481 0.49346 0.0
H1487 H 0.98299 0.54533 0.56158 0.0
H1488 H 0.98997 0.53706 0.53151 0.0
H1489 H 0.97793 0.4769 0.51874 0.0
H1490 H 0.01405 0.44893 0.43886 0.0
H1491 H 0.00712 0.45701 0.469 0.0
H1492 H 0.01926 0.51709 0.48197 0.0
C1493 C 0.98995 0.52593 0.54116 0.0
C1494 C 0.98714 0.48568 0.51089 0.0
C1495 C 0.98596 0.53068 0.55834 0.0
C1496 C 0.01107 0.46355 0.44219 0.0
C1497 C 0.00712 0.4682 0.4594 0.0
C1498 C 0.01005 0.50831 0.48982 0.0
C1499 C 0.99302 0.50692 0.53641 0.0
C1500 C 0.99605 0.50174 0.51798 0.0
C1501 C 0.00406 0.48718 0.46426 0.0
C1502 C 0.00112 0.49228 0.48272 0.0
H1503 H 0.98795 0.48656 0.57619 0.0
H1504 H 0.99516 0.47814 0.54614 0.0
H1505 H 0.0148 0.5253 0.51237 0.0
H1506 H 0.00902 0.50779 0.42458 0.0
H1507 H 0.00186 0.51602 0.45468 0.0
C1508 C 0.99757 0.51098 0.06625 0.0
C1509 C 0.01588 0.51685 0.07081 0.0
C1510 C 0.99336 0.50635 0.04906 0.0
C1511 C 0.01633 0.49221 0.00796 0.0
H1512 H 0.9687 0.50784 0.98745 0.0
C1513 C 0.00037 0.48489 0.93467 0.0
C1514 C 0.98204 0.47897 0.93021 0.0
C1515 C 0.00475 0.48929 0.95188 0.0
C1516 C 0.98198 0.5032 0.99305 0.0
H1517 H 0.04396 0.52323 0.06112 0.0
H1518 H 0.03667 0.51524 0.03112 0.0
H1519 H 0.97558 0.51605 0.01746 0.0
H1520 H 0.95414 0.47218 0.94011 0.0
H1521 H 0.96171 0.47982 0.97011 0.0
H1522 H 0.02274 0.47939 0.98352 0.0
C1523 C 0.02565 0.51376 0.04079 0.0
C1524 C 0.98591 0.50789 0.01025 0.0
C1525 C 0.02982 0.51837 0.05793 0.0
C1526 C 0.96829 0.47709 0.94321 0.0
C1527 C 0.97261 0.4815 0.96036 0.0
C1528 C 0.01241 0.48753 0.99075 0.0
C1529 C 0.0074 0.50758 0.03615 0.0
C1530 C 0.00313 0.50246 0.01791 0.0
C1531 C 0.99084 0.48781 0.96489 0.0
C1532 C 0.99518 0.49295 0.98311 0.0
H1533 H 0.98662 0.5097 0.07602 0.0
H1534 H 0.97921 0.50148 0.04593 0.0
H1535 H 0.02962 0.48757 0.01356 0.0
H1536 H 0.01118 0.48642 0.9248 0.0
H1537 H 0.01889 0.49424 0.95494 0.0
C1538 C 0.51092 0.5316 0.44246 0.0
C1539 C 0.51215 0.51733 0.42986 0.0
C1540 C 0.50703 0.52698 0.45968 0.0
C1541 C 0.5104 0.48719 0.49046 0.0
H1542 H 0.47718 0.51819 0.5187 0.0
C1543 C 0.48608 0.4651 0.55903 0.0
C1544 C 0.4846 0.47938 0.57159 0.0
C1545 C 0.4901 0.46973 0.54183 0.0
C1546 C 0.4867 0.50953 0.51105 0.0
H1547 H 0.50993 0.48721 0.42507 0.0
H1548 H 0.50293 0.47902 0.45522 0.0
H1549 H 0.48193 0.52619 0.4883 0.0
H1550 H 0.48661 0.50952 0.57637 0.0
H1551 H 0.49389 0.51771 0.54628 0.0
H1552 H 0.51518 0.47054 0.51321 0.0
C1553 C 0.5052 0.49376 0.45188 0.0
C1554 C 0.48938 0.51409 0.49362 0.0
C1555 C 0.50906 0.49841 0.43464 0.0
C1556 C 0.48766 0.49831 0.56682 0.0
C1557 C 0.49168 0.50296 0.54962 0.0
C1558 C 0.50773 0.48264 0.5079 0.0
C1559 C 0.50437 0.50797 0.46464 0.0
C1560 C 0.50125 0.50297 0.48311 0.0
C1561 C 0.49269 0.48874 0.53687 0.0
C1562 C 0.49585 0.49376 0.5184 0.0
H1563 H 0.51353 0.54627 0.43906 0.0
H1564 H 0.50672 0.53823 0.46922 0.0
H1565 H 0.51991 0.47853 0.4828 0.0
H1566 H 0.48351 0.45042 0.56243 0.0
H1567 H 0.49056 0.45846 0.53232 0.0
C1568 C 0.3168 0.19659 0.11231 0.0
C1569 C 0.3245 0.21481 0.11453 0.0
C1570 C 0.32836 0.18054 0.11357 0.0
C1571 C 0.37828 0.16538 0.11079 0.0
H1572 H 0.36141 0.12197 0.13746 0.0
C1573 C 0.429 0.10483 0.12944 0.0
C1574 C 0.42205 0.08619 0.1283 0.0
C1575 C 0.41676 0.12027 0.12762 0.0
C1576 C 0.36623 0.13388 0.12979 0.0
H1577 H 0.35037 0.23046 0.11974 0.0
H1578 H 0.37043 0.20253 0.12195 0.0
H1579 H 0.34049 0.14928 0.13407 0.0
H1580 H 0.39674 0.0692 0.12445 0.0
H1581 H 0.37548 0.09614 0.1211 0.0
H1582 H 0.40399 0.15006 0.10648 0.0
C1583 C 0.35552 0.20064 0.11909 0.0
C1584 C 0.35425 0.14951 0.12785 0.0
C1585 C 0.34399 0.21664 0.11792 0.0
C1586 C 0.40257 0.08336 0.12546 0.0
C1587 C 0.39035 0.09881 0.12362 0.0
C1588 C 0.39023 0.14976 0.11269 0.0
C1589 C 0.34785 0.18242 0.11696 0.0
C1590 C 0.36021 0.16548 0.11844 0.0
C1591 C 0.39732 0.11744 0.12459 0.0
C1592 C 0.38441 0.13388 0.12232 0.0
H1593 H 0.30184 0.19471 0.10969 0.0
H1594 H 0.32209 0.16668 0.11172 0.0
H1595 H 0.38314 0.17736 0.10323 0.0
H1596 H 0.4439 0.10753 0.13168 0.0
H1597 H 0.42254 0.13444 0.12871 0.0
C1598 C 0.02863 0.09584 0.36738 0.0
C1599 C 0.03033 0.07684 0.36211 0.0
C1600 C 0.04462 0.10739 0.3687 0.0
C1601 C 0.09608 0.10557 0.37486 0.0
H1602 H 0.09467 0.15714 0.35753 0.0
C1603 C 0.16254 0.15325 0.37314 0.0
C1604 C 0.16022 0.17252 0.37729 0.0
C1605 C 0.1468 0.14145 0.37113 0.0
C1606 C 0.09523 0.14286 0.36264 0.0
H1607 H 0.05018 0.05507 0.35406 0.0
H1608 H 0.07818 0.0753 0.35643 0.0
H1609 H 0.06705 0.13674 0.35401 0.0
H1610 H 0.1395 0.19444 0.38281 0.0
H1611 H 0.11206 0.17377 0.37962 0.0
H1612 H 0.12414 0.11172 0.38371 0.0
C1613 C 0.06443 0.08119 0.35959 0.0
C1614 C 0.07942 0.13116 0.36057 0.0
C1615 C 0.04839 0.06965 0.35814 0.0
C1616 C 0.1418 0.17968 0.37953 0.0
C1617 C 0.12605 0.16786 0.37759 0.0
C1618 C 0.11187 0.1173 0.37702 0.0
C1619 C 0.0627 0.10017 0.3649 0.0
C1620 C 0.07967 0.11241 0.3667 0.0
C1621 C 0.12836 0.14862 0.37329 0.0
C1622 C 0.11161 0.1361 0.37096 0.0
H1623 H 0.01492 0.10182 0.37056 0.0
H1624 H 0.04286 0.12189 0.37302 0.0
H1625 H 0.09659 0.09126 0.37993 0.0
H1626 H 0.17653 0.14727 0.37122 0.0
H1627 H 0.14909 0.12678 0.36757 0.0
C1628 C 0.06624 0.8918 0.62952 0.0
C1629 C 0.07335 0.91023 0.62717 0.0
C1630 C 0.07821 0.87608 0.62804 0.0
C1631 C 0.1288 0.86228 0.62913 0.0
H1632 H 0.11079 0.81707 0.6058 0.0
C1633 C 0.17804 0.79943 0.612 0.0
C1634 C 0.17087 0.78119 0.61526 0.0
C1635 C 0.16625 0.81531 0.61328 0.0
C1636 C 0.11597 0.82953 0.61248 0.0
H1637 H 0.09866 0.92656 0.62133 0.0
H1638 H 0.11938 0.89919 0.61854 0.0
H1639 H 0.08993 0.84446 0.60852 0.0
H1640 H 0.14569 0.76533 0.62241 0.0
H1641 H 0.12522 0.79298 0.62467 0.0
H1642 H 0.15488 0.84734 0.63301 0.0
C1643 C 0.10463 0.89688 0.6218 0.0
C1644 C 0.10401 0.84521 0.61407 0.0
C1645 C 0.0927 0.91258 0.62331 0.0
C1646 C 0.15167 0.77917 0.61977 0.0
C1647 C 0.13989 0.79501 0.62097 0.0
C1648 C 0.14078 0.84662 0.62749 0.0
C1649 C 0.09754 0.87844 0.62414 0.0
C1650 C 0.11026 0.86176 0.62245 0.0
C1651 C 0.14704 0.81325 0.61776 0.0
C1652 C 0.13448 0.83005 0.61919 0.0
H1653 H 0.05144 0.88947 0.63256 0.0
H1654 H 0.07234 0.86208 0.63015 0.0
H1655 H 0.13398 0.8747 0.63588 0.0
H1656 H 0.19276 0.80147 0.6085 0.0
H1657 H 0.17213 0.82918 0.61058 0.0
C1658 C 0.4683 0.90276 0.86887 0.0
C1659 C 0.46623 0.92211 0.86496 0.0
C1660 C 0.45245 0.89104 0.87029 0.0
C1661 C 0.4012 0.89203 0.87868 0.0
H1662 H 0.40226 0.84171 0.85846 0.0
C1663 C 0.33493 0.84424 0.87536 0.0
C1664 C 0.33736 0.82477 0.87859 0.0
C1665 C 0.35059 0.85621 0.87382 0.0
C1666 C 0.40183 0.85563 0.86437 0.0
H1667 H 0.44585 0.94433 0.85945 0.0
H1668 H 0.4181 0.92378 0.8619 0.0
H1669 H 0.4296 0.86254 0.85519 0.0
H1670 H 0.35822 0.80267 0.88293 0.0
H1671 H 0.38556 0.82364 0.88046 0.0
H1672 H 0.37348 0.88509 0.88795 0.0
C1673 C 0.43203 0.91775 0.86398 0.0
C1674 C 0.41747 0.86757 0.86246 0.0
C1675 C 0.44793 0.92949 0.86248 0.0
C1676 C 0.35583 0.81758 0.88039 0.0
C1677 C 0.37151 0.82958 0.87887 0.0
C1678 C 0.38557 0.88007 0.88063 0.0
C1679 C 0.43414 0.8984 0.8679 0.0
C1680 C 0.41734 0.88589 0.86962 0.0
C1681 C 0.36907 0.84901 0.87549 0.0
C1682 C 0.38571 0.86172 0.87351 0.0
H1683 H 0.48219 0.89662 0.87091 0.0
H1684 H 0.45452 0.87625 0.87355 0.0
H1685 H 0.4008 0.90597 0.88456 0.0
H1686 H 0.32091 0.85027 0.87383 0.0
H1687 H 0.34822 0.87106 0.871 0.0
C1688 C 0.42908 0.89156 0.36847 0.0
C1689 C 0.42244 0.91014 0.37108 0.0
C1690 C 0.4167 0.87615 0.36963 0.0
C1691 C 0.37116 0.86164 0.38866 0.0
H1692 H 0.37392 0.82084 0.35511 0.0
C1693 C 0.31697 0.80009 0.38736 0.0
C1694 C 0.32418 0.78185 0.38418 0.0
C1695 C 0.32856 0.81605 0.38549 0.0
C1696 C 0.3731 0.83202 0.36469 0.0
H1697 H 0.3975 0.92704 0.37689 0.0
H1698 H 0.37597 0.90013 0.37886 0.0
H1699 H 0.39499 0.84805 0.35229 0.0
H1700 H 0.34927 0.76606 0.37666 0.0
H1701 H 0.36949 0.79377 0.37369 0.0
H1702 H 0.34942 0.84553 0.40118 0.0
C1703 C 0.39078 0.89751 0.37605 0.0
C1704 C 0.38516 0.84761 0.36306 0.0
C1705 C 0.40312 0.91293 0.37481 0.0
C1706 C 0.34323 0.77991 0.37915 0.0
C1707 C 0.35481 0.79582 0.37733 0.0
C1708 C 0.35913 0.84601 0.39033 0.0
C1709 C 0.39744 0.87895 0.37351 0.0
C1710 C 0.38438 0.86255 0.37506 0.0
C1711 C 0.34761 0.81409 0.38042 0.0
C1712 C 0.36002 0.83097 0.37841 0.0
H1713 H 0.44386 0.88889 0.36559 0.0
H1714 H 0.42229 0.86199 0.36778 0.0
H1715 H 0.37039 0.87283 0.39823 0.0
H1716 H 0.30233 0.80208 0.39118 0.0
H1717 H 0.32252 0.82993 0.38778 0.0
C1718 C 0.355 0.17942 0.61857 0.0
C1719 C 0.33658 0.17264 0.62171 0.0
C1720 C 0.37063 0.16737 0.62019 0.0
C1721 C 0.3861 0.12351 0.64157 0.0
H1722 H 0.42591 0.12378 0.60698 0.0
C1723 C 0.44737 0.06904 0.64195 0.0
C1724 C 0.46548 0.07573 0.63749 0.0
C1725 C 0.43146 0.08067 0.63999 0.0
C1726 C 0.41503 0.12369 0.61687 0.0
H1727 H 0.32017 0.14781 0.62894 0.0
H1728 H 0.34744 0.12688 0.63176 0.0
H1729 H 0.3986 0.14461 0.60353 0.0
H1730 H 0.48113 0.09999 0.62776 0.0
H1731 H 0.45353 0.12032 0.62472 0.0
H1732 H 0.40259 0.10278 0.65505 0.0
C1733 C 0.34978 0.14154 0.62815 0.0
C1734 C 0.39938 0.1356 0.61486 0.0
C1735 C 0.33415 0.15352 0.62642 0.0
C1736 C 0.46737 0.09434 0.63122 0.0
C1737 C 0.45151 0.10598 0.62936 0.0
C1738 C 0.4018 0.11166 0.64364 0.0
C1739 C 0.36818 0.14834 0.62511 0.0
C1740 C 0.38476 0.13565 0.6272 0.0
C1741 C 0.43334 0.09926 0.63361 0.0
C1742 C 0.41648 0.11164 0.63133 0.0
H1743 H 0.35738 0.19405 0.61493 0.0
H1744 H 0.38468 0.17304 0.6179 0.0
H1745 H 0.37514 0.12341 0.6514 0.0
H1746 H 0.44543 0.05474 0.64674 0.0
H1747 H 0.41765 0.07498 0.64321 0.0
C1748 C 0.1776 0.19676 0.88905 0.0
C1749 C 0.17035 0.21504 0.88617 0.0
C1750 C 0.16579 0.18089 0.88779 0.0
C1751 C 0.11552 0.16659 0.88923 0.0
H1752 H 0.1331 0.12193 0.86476 0.0
C1753 C 0.06551 0.10468 0.8718 0.0
C1754 C 0.07266 0.08621 0.87376 0.0
C1755 C 0.0775 0.12037 0.87338 0.0
C1756 C 0.12805 0.1342 0.87181 0.0
H1757 H 0.14499 0.231 0.87974 0.0
H1758 H 0.12449 0.20337 0.87752 0.0
H1759 H 0.15404 0.14923 0.86777 0.0
H1760 H 0.09805 0.06977 0.87901 0.0
H1761 H 0.11881 0.09709 0.88196 0.0
H1762 H 0.08956 0.15158 0.89332 0.0
C1763 C 0.13924 0.2013 0.8809 0.0
C1764 C 0.14006 0.14984 0.87354 0.0
C1765 C 0.15104 0.21712 0.88209 0.0
C1766 C 0.09206 0.08379 0.87733 0.0
C1767 C 0.10401 0.09946 0.87893 0.0
C1768 C 0.10353 0.15094 0.88755 0.0
C1769 C 0.14648 0.18301 0.88371 0.0
C1770 C 0.1339 0.16622 0.88222 0.0
C1771 C 0.09688 0.11793 0.87699 0.0
C1772 C 0.10964 0.13458 0.87878 0.0
H1773 H 0.1924 0.19467 0.89222 0.0
H1774 H 0.17173 0.16698 0.89018 0.0
H1775 H 0.11047 0.17892 0.8962 0.0
H1776 H 0.05066 0.10706 0.86899 0.0
H1777 H 0.07161 0.13441 0.87158 0.0
C1778 C 0.16197 0.8423 0.12682 0.0
C1779 C 0.15961 0.82323 0.12196 0.0
C1780 C 0.1463 0.85421 0.12865 0.0
C1781 C 0.09672 0.86008 0.11535 0.0
H1782 H 0.09329 0.89255 0.15577 0.0
C1783 C 0.02861 0.90108 0.13182 0.0
C1784 C 0.03046 0.91965 0.13817 0.0
C1785 C 0.04448 0.88947 0.12994 0.0
C1786 C 0.09415 0.88376 0.14429 0.0
H1787 H 0.1389 0.80178 0.11504 0.0
H1788 H 0.11152 0.82266 0.1182 0.0
H1789 H 0.12081 0.87203 0.15203 0.0
H1790 H 0.05045 0.94061 0.14757 0.0
H1791 H 0.07827 0.92042 0.14402 0.0
H1792 H 0.07018 0.87189 0.10749 0.0
C1793 C 0.12555 0.82836 0.12052 0.0
C1794 C 0.10989 0.87198 0.14218 0.0
C1795 C 0.14122 0.81639 0.11879 0.0
C1796 C 0.04854 0.92634 0.14271 0.0
C1797 C 0.06447 0.91473 0.14075 0.0
C1798 C 0.08103 0.87193 0.11741 0.0
C1799 C 0.12793 0.84736 0.12556 0.0
C1800 C 0.1113 0.85997 0.12772 0.0
C1801 C 0.06262 0.89618 0.13427 0.0
C1802 C 0.07951 0.88385 0.13195 0.0
H1803 H 0.17594 0.84805 0.12937 0.0
H1804 H 0.14858 0.86884 0.13236 0.0
H1805 H 0.09756 0.85117 0.10395 0.0
H1806 H 0.01486 0.89544 0.12828 0.0
H1807 H 0.04249 0.87515 0.12522 0.0
C1808 C 0.67845 0.79939 0.88902 0.0
C1809 C 0.67107 0.78123 0.88579 0.0
C1810 C 0.66698 0.81544 0.88724 0.0
C1811 C 0.62269 0.83182 0.86642 0.0
H1812 H 0.6256 0.87256 0.90001 0.0
C1813 C 0.5676 0.89221 0.86958 0.0
C1814 C 0.57456 0.91067 0.87217 0.0
C1815 C 0.57966 0.87658 0.87097 0.0
C1816 C 0.62477 0.86138 0.89043 0.0
H1817 H 0.64582 0.76566 0.87834 0.0
H1818 H 0.62582 0.79354 0.87552 0.0
H1819 H 0.64626 0.84502 0.90304 0.0
H1820 H 0.59972 0.92714 0.87819 0.0
H1821 H 0.62071 0.89987 0.88055 0.0
H1822 H 0.60108 0.84811 0.8539 0.0
C1823 C 0.64053 0.79546 0.87912 0.0
C1824 C 0.63662 0.84562 0.89215 0.0
C1825 C 0.65198 0.77945 0.88086 0.0
C1826 C 0.59386 0.91313 0.87613 0.0
C1827 C 0.60589 0.8975 0.87759 0.0
C1828 C 0.61081 0.84754 0.86473 0.0
C1829 C 0.6479 0.81365 0.88222 0.0
C1830 C 0.63565 0.83062 0.8802 0.0
C1831 C 0.59892 0.87906 0.87505 0.0
C1832 C 0.61168 0.86246 0.87675 0.0
H1833 H 0.69312 0.80125 0.89278 0.0
H1834 H 0.67314 0.82928 0.88954 0.0
H1835 H 0.62182 0.82066 0.85681 0.0
H1836 H 0.55281 0.8898 0.86654 0.0
H1837 H 0.57384 0.86251 0.86912 0.0
C1838 C 0.96748 0.90192 0.63097 0.0
C1839 C 0.96569 0.92046 0.63744 0.0
C1840 C 0.95162 0.89023 0.62937 0.0
C1841 C 0.9023 0.8843 0.64477 0.0
H1842 H 0.89814 0.85147 0.60466 0.0
C1843 C 0.8342 0.8426 0.62838 0.0
C1844 C 0.83653 0.82352 0.62353 0.0
C1845 C 0.84989 0.85452 0.63006 0.0
C1846 C 0.8992 0.86044 0.616 0.0
H1847 H 0.94581 0.94128 0.64728 0.0
H1848 H 0.91802 0.92099 0.64419 0.0
H1849 H 0.9255 0.87233 0.60758 0.0
H1850 H 0.8572 0.80206 0.61652 0.0
H1851 H 0.88459 0.82296 0.61939 0.0
H1852 H 0.87583 0.87251 0.65304 0.0
C1853 C 0.93176 0.91537 0.64063 0.0
C1854 C 0.91488 0.87238 0.61771 0.0
C1855 C 0.94767 0.92704 0.64232 0.0
C1856 C 0.85491 0.81668 0.62027 0.0
C1857 C 0.87059 0.82866 0.62183 0.0
C1858 C 0.88655 0.87245 0.643 0.0
C1859 C 0.93355 0.89683 0.63409 0.0
C1860 C 0.91667 0.88439 0.63216 0.0
C1861 C 0.86824 0.84768 0.62681 0.0
C1862 C 0.88488 0.86036 0.62863 0.0
H1863 H 0.98118 0.89636 0.62717 0.0
H1864 H 0.95358 0.87594 0.62459 0.0
H1865 H 0.90336 0.89315 0.65619 0.0
H1866 H 0.82026 0.84834 0.63101 0.0
H1867 H 0.84764 0.86917 0.63374 0.0
C1868 C 0.9029 0.08406 0.37655 0.0
C1869 C 0.9222 0.08677 0.37267 0.0
C1870 C 0.89064 0.09953 0.37787 0.0
C1871 C 0.88519 0.14944 0.36483 0.0
H1872 H 0.84933 0.15161 0.40285 0.0
C1873 C 0.84339 0.21722 0.38079 0.0
C1874 C 0.82428 0.21533 0.38565 0.0
C1875 C 0.85493 0.20128 0.37905 0.0
C1876 C 0.85908 0.1511 0.39203 0.0
H1877 H 0.94368 0.10792 0.36706 0.0
H1878 H 0.92225 0.13491 0.36943 0.0
H1879 H 0.87027 0.12427 0.39998 0.0
H1880 H 0.80231 0.19517 0.39249 0.0
H1881 H 0.82247 0.16725 0.38927 0.0
H1882 H 0.87401 0.17622 0.35684 0.0
C1883 C 0.91661 0.12078 0.3713 0.0
C1884 C 0.8711 0.13545 0.3904 0.0
C1885 C 0.9289 0.10531 0.37004 0.0
C1886 C 0.81699 0.19711 0.38879 0.0
C1887 C 0.82856 0.18113 0.38702 0.0
C1888 C 0.87315 0.16505 0.36643 0.0
C1889 C 0.89736 0.11806 0.37528 0.0
C1890 C 0.88435 0.1345 0.37684 0.0
C1891 C 0.84766 0.18304 0.38208 0.0
C1892 C 0.86004 0.16613 0.38011 0.0
H1893 H 0.89723 0.06997 0.37863 0.0
H1894 H 0.87584 0.09696 0.38076 0.0
H1895 H 0.89503 0.14897 0.35408 0.0
H1896 H 0.84949 0.23105 0.37833 0.0
H1897 H 0.86965 0.20329 0.37552 0.0
C1898 C 0.54901 0.06839 0.13777 0.0
C1899 C 0.53086 0.07571 0.13438 0.0
C1900 C 0.56502 0.07994 0.13624 0.0
C1901 C 0.58157 0.12457 0.11606 0.0
H1902 H 0.62184 0.12118 0.15008 0.0
C1903 C 0.64207 0.17946 0.12032 0.0
C1904 C 0.66048 0.17238 0.1229 0.0
C1905 C 0.62638 0.16745 0.12154 0.0
C1906 C 0.61079 0.12215 0.14039 0.0
H1907 H 0.51529 0.10094 0.12686 0.0
H1908 H 0.54312 0.12109 0.12448 0.0
H1909 H 0.59425 0.10052 0.15259 0.0
H1910 H 0.6768 0.14708 0.12881 0.0
H1911 H 0.64941 0.12619 0.13088 0.0
H1912 H 0.59805 0.14633 0.10397 0.0
C1913 C 0.54505 0.10636 0.12802 0.0
C1914 C 0.595 0.1103 0.1418 0.0
C1915 C 0.52907 0.09482 0.1295 0.0
C1916 C 0.66282 0.15302 0.12674 0.0
C1917 C 0.64713 0.14105 0.12804 0.0
C1918 C 0.59732 0.13647 0.11469 0.0
C1919 C 0.56322 0.09906 0.13133 0.0
C1920 C 0.58018 0.11141 0.12968 0.0
C1921 C 0.62874 0.14813 0.12545 0.0
C1922 C 0.61208 0.13541 0.12686 0.0
H1923 H 0.55087 0.05371 0.14149 0.0
H1924 H 0.57884 0.07382 0.13868 0.0
H1925 H 0.57056 0.12556 0.10634 0.0
H1926 H 0.63975 0.19428 0.11737 0.0
H1927 H 0.61236 0.17335 0.11966 0.0
C1928 C 0.67605 0.19811 0.60841 0.0
C1929 C 0.66962 0.21612 0.61347 0.0
C1930 C 0.66426 0.18227 0.60997 0.0
C1931 C 0.62123 0.16537 0.63278 0.0
H1932 H 0.62114 0.12677 0.59703 0.0
C1933 C 0.56585 0.10503 0.63022 0.0
C1934 C 0.57278 0.08676 0.62665 0.0
C1935 C 0.57766 0.12084 0.62867 0.0
C1936 C 0.62113 0.13736 0.60719 0.0
H1937 H 0.64567 0.23168 0.62393 0.0
H1938 H 0.62504 0.2042 0.62629 0.0
H1939 H 0.64178 0.1543 0.59408 0.0
H1940 H 0.59762 0.07082 0.61861 0.0
H1941 H 0.61814 0.09841 0.61592 0.0
H1942 H 0.60041 0.14847 0.64577 0.0
C1943 C 0.63931 0.20219 0.62146 0.0
C1944 C 0.63299 0.15312 0.60553 0.0
C1945 C 0.65111 0.21799 0.61999 0.0
C1946 C 0.59179 0.08468 0.62148 0.0
C1947 C 0.60354 0.10049 0.61982 0.0
C1948 C 0.6093 0.14967 0.63438 0.0
C1949 C 0.64575 0.18412 0.61654 0.0
C1950 C 0.6332 0.16731 0.61831 0.0
C1951 C 0.59661 0.11873 0.6234 0.0
C1952 C 0.60915 0.13549 0.62162 0.0
H1953 H 0.69026 0.19619 0.60341 0.0
H1954 H 0.66976 0.16852 0.60627 0.0
H1955 H 0.62127 0.17586 0.64301 0.0
H1956 H 0.55128 0.10714 0.63422 0.0
H1957 H 0.57189 0.13476 0.63137 0.0
C1958 C 0.64203 0.81652 0.38116 0.0
C1959 C 0.66044 0.82363 0.37867 0.0
C1960 C 0.62629 0.82836 0.3793 0.0
C1961 C 0.61215 0.87893 0.37844 0.0
H1962 H 0.56727 0.8594 0.3556 0.0
C1963 C 0.54896 0.92661 0.35895 0.0
C1964 C 0.53084 0.91955 0.36288 0.0
C1965 C 0.56494 0.91503 0.36061 0.0
C1966 C 0.57966 0.865 0.36212 0.0
H1967 H 0.67671 0.84882 0.37231 0.0
H1968 H 0.64928 0.86933 0.36882 0.0
H1969 H 0.59482 0.83894 0.35928 0.0
H1970 H 0.51526 0.89475 0.3715 0.0
H1971 H 0.5431 0.87459 0.37434 0.0
H1972 H 0.59697 0.90505 0.38113 0.0
C1973 C 0.647 0.85468 0.37249 0.0
C1974 C 0.59542 0.85327 0.36428 0.0
C1975 C 0.66274 0.84288 0.37441 0.0
C1976 C 0.52901 0.90063 0.36835 0.0
C1977 C 0.54495 0.88903 0.36989 0.0
C1978 C 0.59641 0.89069 0.37619 0.0
C1979 C 0.62858 0.84756 0.37485 0.0
C1980 C 0.61184 0.86007 0.37252 0.0
C1981 C 0.56308 0.89612 0.3661 0.0
C1982 C 0.57998 0.88382 0.36807 0.0
H1983 H 0.63975 0.80179 0.38453 0.0
H1984 H 0.61231 0.82249 0.38148 0.0
H1985 H 0.62446 0.88454 0.38506 0.0
H1986 H 0.55084 0.94113 0.35471 0.0
H1987 H 0.57873 0.92081 0.35745 0.0
C1988 C 0.90337 0.9123 0.12447 0.0
C1989 C 0.92277 0.90979 0.128 0.0
C1990 C 0.89132 0.89668 0.12296 0.0
C1991 C 0.89172 0.84522 0.11435 0.0
H1992 H 0.8412 0.84686 0.13409 0.0
C1993 C 0.84448 0.77893 0.1198 0.0
C1994 C 0.8252 0.78092 0.1156 0.0
C1995 C 0.85619 0.79481 0.12106 0.0
C1996 C 0.85519 0.84628 0.12834 0.0
H1997 H 0.94464 0.88883 0.13288 0.0
H1998 H 0.92356 0.8616 0.13045 0.0
H1999 H 0.86211 0.87422 0.13709 0.0
H2000 H 0.80307 0.80119 0.10947 0.0
H2001 H 0.8236 0.82898 0.11165 0.0
H2002 H 0.88484 0.81723 0.1057 0.0
C2003 C 0.91773 0.87566 0.1286 0.0
C2004 C 0.86717 0.86194 0.13006 0.0
C2005 C 0.9298 0.89128 0.13009 0.0
C2006 C 0.81787 0.79917 0.11272 0.0
C2007 C 0.82959 0.8151 0.11406 0.0
C2008 C 0.87977 0.82955 0.11267 0.0
C2009 C 0.89837 0.87818 0.12495 0.0
C2010 C 0.88559 0.86157 0.12311 0.0
C2011 C 0.84888 0.81307 0.11822 0.0
C2012 C 0.86139 0.82989 0.11969 0.0
H2013 H 0.89747 0.92634 0.12272 0.0
H2014 H 0.87654 0.89911 0.11993 0.0
H2015 H 0.9057 0.8446 0.10857 0.0
H2016 H 0.85058 0.76508 0.12216 0.0
H2017 H 0.87093 0.7928 0.12451 0.0
C2018 C 0.94709 0.06985 0.85819 0.0
C2019 C 0.96505 0.07621 0.86346 0.0
C2020 C 0.93121 0.08157 0.85992 0.0
C2021 C 0.91417 0.12408 0.88347 0.0
H2022 H 0.87591 0.12522 0.84745 0.0
C2023 C 0.85464 0.18028 0.88119 0.0
C2024 C 0.8363 0.17366 0.87743 0.0
C2025 C 0.87028 0.16824 0.8796 0.0
C2026 C 0.8864 0.12492 0.85768 0.0
H2027 H 0.9805 0.09993 0.87447 0.0
H2028 H 0.95297 0.12044 0.87712 0.0
H2029 H 0.90332 0.10442 0.84434 0.0
H2030 H 0.82006 0.14918 0.86901 0.0
H2031 H 0.84736 0.12827 0.86623 0.0
H2032 H 0.89732 0.14478 0.89668 0.0
C2033 C 0.95102 0.10629 0.872 0.0
C2034 C 0.90208 0.11298 0.85593 0.0
C2035 C 0.96684 0.09455 0.87036 0.0
C2036 C 0.83397 0.15476 0.87203 0.0
C2037 C 0.84962 0.14279 0.87032 0.0
C2038 C 0.89855 0.1361 0.88516 0.0
C2039 C 0.93299 0.09993 0.86687 0.0
C2040 C 0.91617 0.11243 0.86879 0.0
C2041 C 0.86793 0.1494 0.8741 0.0
C2042 C 0.88451 0.13665 0.87228 0.0
H2043 H 0.94523 0.05576 0.8529 0.0
H2044 H 0.9175 0.07614 0.85604 0.0
H2045 H 0.92456 0.12377 0.89377 0.0
H2046 H 0.85694 0.19475 0.88537 0.0
H2047 H 0.88426 0.17377 0.88245 0.0
C2048 C 0.93021 0.60457 0.63053 0.0
C2049 C 0.92326 0.5862 0.62743 0.0
C2050 C 0.9182 0.62027 0.62933 0.0
C2051 C 0.87332 0.63611 0.60978 0.0
H2052 H 0.87543 0.67548 0.64476 0.0
C2053 C 0.81863 0.69703 0.61268 0.0
C2054 C 0.82557 0.7152 0.61662 0.0
C2055 C 0.83039 0.68115 0.6141 0.0
C2056 C 0.87481 0.66472 0.63477 0.0
H2057 H 0.89817 0.56998 0.62063 0.0
H2058 H 0.8773 0.59736 0.61859 0.0
H2059 H 0.89647 0.64817 0.64693 0.0
H2060 H 0.85034 0.73095 0.62505 0.0
H2061 H 0.87086 0.70336 0.62725 0.0
H2062 H 0.85178 0.6527 0.59752 0.0
C2063 C 0.89207 0.59961 0.62181 0.0
C2064 C 0.88686 0.64907 0.63603 0.0
C2065 C 0.90403 0.58391 0.62309 0.0
C2066 C 0.84451 0.71715 0.62197 0.0
C2067 C 0.85626 0.7013 0.62335 0.0
C2068 C 0.86131 0.65179 0.60847 0.0
C2069 C 0.89901 0.61796 0.62491 0.0
C2070 C 0.88625 0.63461 0.62355 0.0
C2071 C 0.84935 0.68311 0.61946 0.0
C2072 C 0.86193 0.6663 0.62095 0.0
H2073 H 0.94494 0.60684 0.63388 0.0
H2074 H 0.924 0.63426 0.63162 0.0
H2075 H 0.8727 0.6253 0.59983 0.0
H2076 H 0.80409 0.69504 0.60858 0.0
H2077 H 0.82456 0.66731 0.61122 0.0
C2078 C 0.64027 0.67987 0.88206 0.0
C2079 C 0.65869 0.67286 0.87938 0.0
C2080 C 0.6246 0.66785 0.88068 0.0
C2081 C 0.60923 0.62288 0.86106 0.0
H2082 H 0.56891 0.62527 0.8951 0.0
C2083 C 0.54809 0.56836 0.86284 0.0
C2084 C 0.52987 0.57537 0.86641 0.0
C2085 C 0.56396 0.5801 0.86451 0.0
C2086 C 0.57994 0.62457 0.88537 0.0
H2087 H 0.67505 0.64766 0.8732 0.0
H2088 H 0.64772 0.62677 0.87087 0.0
H2089 H 0.59621 0.64625 0.89784 0.0
H2090 H 0.51398 0.60024 0.87436 0.0
H2091 H 0.54154 0.62073 0.87696 0.0
H2092 H 0.59292 0.60133 0.84849 0.0
C2093 C 0.64541 0.64159 0.87389 0.0
C2094 C 0.59558 0.63658 0.88696 0.0
C2095 C 0.66107 0.65356 0.87535 0.0
C2096 C 0.52783 0.59436 0.87158 0.0
C2097 C 0.54366 0.60609 0.87319 0.0
C2098 C 0.59356 0.61091 0.85943 0.0
C2099 C 0.627 0.6486 0.87651 0.0
C2100 C 0.61038 0.63587 0.87482 0.0
C2101 C 0.56192 0.5991 0.86973 0.0
C2102 C 0.57872 0.61163 0.87156 0.0
H2103 H 0.63793 0.69466 0.88516 0.0
H2104 H 0.61056 0.67369 0.88261 0.0
H2105 H 0.62031 0.62218 0.85138 0.0
H2106 H 0.55014 0.55377 0.85889 0.0
H2107 H 0.57785 0.57421 0.86194 0.0
C2108 C 0.59314 0.41191 0.12552 0.0
C2109 C 0.57385 0.4095 0.12957 0.0
C2110 C 0.60516 0.39627 0.12414 0.0
C2111 C 0.61028 0.34644 0.13732 0.0
H2112 H 0.64553 0.34382 0.09884 0.0
C2113 C 0.65245 0.27868 0.12175 0.0
C2114 C 0.67144 0.28072 0.11657 0.0
C2115 C 0.64074 0.29451 0.12343 0.0
C2116 C 0.63595 0.34445 0.10978 0.0
H2117 H 0.55213 0.3887 0.1355 0.0
H2118 H 0.57318 0.36137 0.13307 0.0
H2119 H 0.62466 0.37119 0.10173 0.0
H2120 H 0.69305 0.30101 0.10914 0.0
H2121 H 0.67265 0.32873 0.1123 0.0
H2122 H 0.6216 0.31976 0.14544 0.0
C2123 C 0.57898 0.37542 0.13107 0.0
C2124 C 0.62397 0.36011 0.11142 0.0
C2125 C 0.56691 0.39107 0.13237 0.0
C2126 C 0.67847 0.29896 0.11309 0.0
C2127 C 0.66675 0.31483 0.11482 0.0
C2128 C 0.6223 0.33081 0.13572 0.0
C2129 C 0.59821 0.37785 0.12685 0.0
C2130 C 0.61098 0.36125 0.12518 0.0
C2131 C 0.64775 0.31278 0.12003 0.0
C2132 C 0.63523 0.32959 0.1219 0.0
H2133 H 0.59899 0.4259 0.12329 0.0
H2134 H 0.61996 0.39861 0.12109 0.0
H2135 H 0.60061 0.34706 0.1482 0.0
H2136 H 0.64656 0.26482 0.12448 0.0
H2137 H 0.62611 0.2924 0.1272 0.0
C2138 C 0.94763 0.42699 0.35867 0.0
C2139 C 0.96581 0.42005 0.36255 0.0
C2140 C 0.93174 0.4153 0.36039 0.0
C2141 C 0.91733 0.36518 0.362 0.0
H2142 H 0.87249 0.38449 0.38506 0.0
C2143 C 0.85505 0.31646 0.38099 0.0
C2144 C 0.83664 0.32357 0.37852 0.0
C2145 C 0.87079 0.32832 0.37916 0.0
C2146 C 0.88481 0.37894 0.37841 0.0
H2147 H 0.98157 0.39535 0.37115 0.0
H2148 H 0.95388 0.37502 0.37408 0.0
H2149 H 0.89987 0.40514 0.38106 0.0
H2150 H 0.82036 0.34876 0.3722 0.0
H2151 H 0.84777 0.36929 0.36876 0.0
H2152 H 0.90229 0.33904 0.3592 0.0
C2153 C 0.95192 0.38944 0.36963 0.0
C2154 C 0.90048 0.39078 0.37612 0.0
C2155 C 0.96777 0.40114 0.36803 0.0
C2156 C 0.83433 0.34282 0.37429 0.0
C2157 C 0.85006 0.35464 0.3724 0.0
C2158 C 0.90163 0.35337 0.3642 0.0
C2159 C 0.93373 0.39641 0.36589 0.0
C2160 C 0.91692 0.384 0.36794 0.0
C2161 C 0.86848 0.34753 0.37476 0.0
C2162 C 0.8852 0.36009 0.37247 0.0
H2163 H 0.94565 0.44149 0.35443 0.0
H2164 H 0.91789 0.42099 0.35727 0.0
H2165 H 0.92973 0.35964 0.35545 0.0
H2166 H 0.85733 0.30172 0.38433 0.0
H2167 H 0.88477 0.32246 0.38133 0.0
C2168 C 0.90391 0.41296 0.8782 0.0
C2169 C 0.92298 0.41066 0.87334 0.0
C2170 C 0.89206 0.39724 0.88003 0.0
C2171 C 0.88641 0.3477 0.8665 0.0
H2172 H 0.85355 0.34402 0.90663 0.0
C2173 C 0.8452 0.27949 0.88218 0.0
C2174 C 0.82656 0.28134 0.88838 0.0
C2175 C 0.85685 0.29536 0.88052 0.0
C2176 C 0.86245 0.34494 0.89523 0.0
H2177 H 0.94451 0.39 0.86649 0.0
H2178 H 0.92375 0.36255 0.86965 0.0
H2179 H 0.87408 0.37158 0.9032 0.0
H2180 H 0.80554 0.3013 0.89772 0.0
H2181 H 0.8258 0.32911 0.89452 0.0
H2182 H 0.8747 0.3212 0.8584 0.0
C2183 C 0.91799 0.37656 0.87196 0.0
C2184 C 0.87424 0.36071 0.8933 0.0
C2185 C 0.92989 0.39228 0.87024 0.0
C2186 C 0.81986 0.2994 0.89298 0.0
C2187 C 0.8315 0.31532 0.89122 0.0
C2188 C 0.87456 0.33199 0.86838 0.0
C2189 C 0.89897 0.37888 0.87694 0.0
C2190 C 0.88638 0.36221 0.87894 0.0
C2191 C 0.85012 0.31349 0.8849 0.0
C2192 C 0.86249 0.33038 0.88281 0.0
H2193 H 0.8981 0.42691 0.88071 0.0
H2194 H 0.87741 0.39947 0.8837 0.0
H2195 H 0.89542 0.34862 0.85517 0.0
H2196 H 0.85085 0.26576 0.87863 0.0
H2197 H 0.87122 0.29338 0.87592 0.0
C2198 C 0.83395 0.6531 0.12624 0.0
C2199 C 0.8364 0.67238 0.12215 0.0
C2200 C 0.84957 0.64104 0.12754 0.0
C2201 C 0.89923 0.63578 0.11394 0.0
H2202 H 0.90228 0.60063 0.15246 0.0
C2203 C 0.96727 0.594 0.12918 0.0
C2204 C 0.9654 0.57503 0.13448 0.0
C2205 C 0.95135 0.60559 0.12753 0.0
C2206 C 0.90152 0.61018 0.1415 0.0
H2207 H 0.85722 0.69404 0.11611 0.0
H2208 H 0.88449 0.67292 0.1184 0.0
H2209 H 0.87485 0.62147 0.14976 0.0
H2210 H 0.9453 0.55332 0.14213 0.0
H2211 H 0.91743 0.57352 0.13902 0.0
H2212 H 0.92583 0.62447 0.10562 0.0
C2213 C 0.87045 0.66716 0.12049 0.0
C2214 C 0.88583 0.62214 0.13998 0.0
C2215 C 0.85483 0.67928 0.11927 0.0
C2216 C 0.94723 0.5679 0.13809 0.0
C2217 C 0.93127 0.5795 0.13639 0.0
C2218 C 0.91489 0.62378 0.11543 0.0
C2219 C 0.86798 0.64793 0.1247 0.0
C2220 C 0.88455 0.63511 0.12622 0.0
C2221 C 0.93315 0.59848 0.13107 0.0
C2222 C 0.91627 0.6109 0.12927 0.0
H2223 H 0.81996 0.6473 0.12853 0.0
H2224 H 0.84721 0.62624 0.13061 0.0
H2225 H 0.8985 0.64543 0.10305 0.0
H2226 H 0.98107 0.59998 0.12635 0.0
H2227 H 0.95335 0.62022 0.12368 0.0
C2228 C 0.67845 0.6971 0.38866 0.0
C2229 C 0.67139 0.71542 0.3856 0.0
C2230 C 0.66655 0.68132 0.38728 0.0
C2231 C 0.6162 0.66742 0.38829 0.0
H2232 H 0.63372 0.62236 0.36442 0.0
C2233 C 0.56599 0.6055 0.37137 0.0
C2234 C 0.57305 0.58702 0.37356 0.0
C2235 C 0.57804 0.62116 0.3728 0.0
C2236 C 0.62868 0.63475 0.3713 0.0
H2237 H 0.64628 0.73154 0.37871 0.0
H2238 H 0.62561 0.70404 0.3763 0.0
H2239 H 0.6548 0.64958 0.36731 0.0
H2240 H 0.59836 0.57056 0.37904 0.0
H2241 H 0.61922 0.59782 0.38175 0.0
H2242 H 0.59012 0.65261 0.39237 0.0
C2243 C 0.64029 0.70188 0.37991 0.0
C2244 C 0.64077 0.65034 0.37295 0.0
C2245 C 0.65218 0.71762 0.38119 0.0
C2246 C 0.59243 0.58458 0.37719 0.0
C2247 C 0.60445 0.60022 0.37865 0.0
C2248 C 0.60413 0.65182 0.38669 0.0
C2249 C 0.64733 0.68355 0.38292 0.0
C2250 C 0.63464 0.66686 0.38143 0.0
C2251 C 0.5974 0.6187 0.37648 0.0
C2252 C 0.61022 0.63531 0.37815 0.0
H2253 H 0.69318 0.69493 0.39207 0.0
H2254 H 0.67234 0.66737 0.38984 0.0
H2255 H 0.61116 0.67986 0.39511 0.0
H2256 H 0.55115 0.6079 0.3685 0.0
H2257 H 0.5722 0.6352 0.37083 0.0
C2258 C 0.64194 0.31696 0.62091 0.0
C2259 C 0.66028 0.32372 0.62445 0.0
C2260 C 0.62625 0.32893 0.62249 0.0
C2261 C 0.61008 0.3725 0.644 0.0
H2262 H 0.57148 0.37269 0.60829 0.0
C2263 C 0.54882 0.42696 0.6433 0.0
C2264 C 0.53086 0.42034 0.63828 0.0
C2265 C 0.56479 0.41536 0.64162 0.0
C2266 C 0.582 0.37265 0.61849 0.0
H2267 H 0.67648 0.34838 0.63247 0.0
H2268 H 0.64909 0.36919 0.63522 0.0
H2269 H 0.59889 0.35191 0.60539 0.0
H2270 H 0.51554 0.39626 0.62779 0.0
H2271 H 0.54324 0.37597 0.62522 0.0
H2272 H 0.59313 0.39305 0.65723 0.0
C2273 C 0.64687 0.35461 0.63132 0.0
C2274 C 0.59771 0.36076 0.6168 0.0
C2275 C 0.66256 0.3427 0.62963 0.0
C2276 C 0.52919 0.40184 0.6317 0.0
C2277 C 0.5451 0.39024 0.6301 0.0
C2278 C 0.59431 0.38432 0.64575 0.0
C2279 C 0.62855 0.34786 0.62776 0.0
C2280 C 0.6119 0.36054 0.62954 0.0
C2281 C 0.56312 0.39687 0.63496 0.0
C2282 C 0.58005 0.38451 0.63303 0.0
H2283 H 0.63967 0.30242 0.6169 0.0
H2284 H 0.61227 0.32329 0.61982 0.0
H2285 H 0.6207 0.37246 0.65413 0.0
H2286 H 0.5506 0.44117 0.64835 0.0
H2287 H 0.57849 0.421 0.64529 0.0
C2288 C 0.09303 0.4118 0.37494 0.0
C2289 C 0.07363 0.40944 0.37131 0.0
C2290 C 0.10501 0.39611 0.37615 0.0
C2291 C 0.10444 0.3445 0.38383 0.0
H2292 H 0.1553 0.34665 0.36486 0.0
C2293 C 0.15235 0.27861 0.37891 0.0
C2294 C 0.17148 0.28077 0.38358 0.0
C2295 C 0.14054 0.29438 0.37738 0.0
C2296 C 0.1412 0.34592 0.37038 0.0
H2297 H 0.0517 0.3887 0.36591 0.0
H2298 H 0.07271 0.36133 0.36781 0.0
H2299 H 0.13431 0.37394 0.36185 0.0
H2300 H 0.19325 0.30122 0.39024 0.0
H2301 H 0.17254 0.32884 0.3876 0.0
H2302 H 0.11131 0.31644 0.39228 0.0
C2303 C 0.07857 0.37533 0.36998 0.0
C2304 C 0.12918 0.36154 0.36866 0.0
C2305 C 0.06655 0.39102 0.36878 0.0
C2306 C 0.17857 0.29908 0.38663 0.0
C2307 C 0.16675 0.3149 0.38502 0.0
C2308 C 0.11644 0.32887 0.38551 0.0
C2309 C 0.09792 0.37769 0.37374 0.0
C2310 C 0.11065 0.36101 0.37537 0.0
C2311 C 0.14759 0.3127 0.38042 0.0
C2312 C 0.13495 0.32941 0.37879 0.0
H2313 H 0.09897 0.42577 0.37703 0.0
H2314 H 0.11979 0.39842 0.37931 0.0
H2315 H 0.09038 0.34375 0.38942 0.0
H2316 H 0.14643 0.2647 0.37641 0.0
H2317 H 0.12591 0.29225 0.3736 0.0
C2318 C 0.44733 0.42792 0.13973 0.0
C2319 C 0.46561 0.42081 0.13659 0.0
C2320 C 0.43147 0.41619 0.13796 0.0
C2321 C 0.41585 0.37158 0.11716 0.0
H2322 H 0.37468 0.3743 0.15032 0.0
C2323 C 0.35546 0.31632 0.11958 0.0
C2324 C 0.33698 0.32328 0.12199 0.0
C2325 C 0.37109 0.32838 0.12115 0.0
C2326 C 0.38599 0.37351 0.14086 0.0
H2327 H 0.48159 0.39574 0.12932 0.0
H2328 H 0.45403 0.3753 0.1265 0.0
H2329 H 0.40202 0.39515 0.15361 0.0
H2330 H 0.32047 0.34847 0.12788 0.0
H2331 H 0.34771 0.36943 0.13054 0.0
H2332 H 0.39986 0.34984 0.1045 0.0
C2333 C 0.45188 0.39 0.13004 0.0
C2334 C 0.40164 0.38547 0.14273 0.0
C2335 C 0.4677 0.40171 0.13177 0.0
C2336 C 0.3345 0.34259 0.12595 0.0
C2337 C 0.35011 0.35461 0.12759 0.0
C2338 C 0.40024 0.35958 0.11533 0.0
C2339 C 0.43357 0.39711 0.13302 0.0
C2340 C 0.41677 0.38462 0.13092 0.0
C2341 C 0.36857 0.34763 0.12525 0.0
C2342 C 0.38515 0.3604 0.12717 0.0
H2343 H 0.44524 0.44259 0.14341 0.0
H2344 H 0.41754 0.42216 0.14017 0.0
H2345 H 0.42712 0.37078 0.10767 0.0
H2346 H 0.35789 0.30152 0.11655 0.0
H2347 H 0.38517 0.32255 0.11944 0.0
C2348 C 0.318 0.69821 0.88902 0.0
C2349 C 0.32534 0.71635 0.88562 0.0
C2350 C 0.32952 0.68216 0.88747 0.0
C2351 C 0.37399 0.66561 0.86702 0.0
H2352 H 0.3707 0.6251 0.90082 0.0
C2353 C 0.42875 0.60493 0.87061 0.0
C2354 C 0.42165 0.58651 0.87316 0.0
C2355 C 0.41679 0.62065 0.87198 0.0
C2356 C 0.37164 0.63622 0.89118 0.0
H2357 H 0.3506 0.73188 0.87811 0.0
H2358 H 0.37068 0.70401 0.87568 0.0
H2359 H 0.35011 0.65273 0.90358 0.0
H2360 H 0.39636 0.57022 0.87914 0.0
H2361 H 0.37556 0.59764 0.88147 0.0
H2362 H 0.39563 0.64916 0.85471 0.0
C2363 C 0.35596 0.7021 0.87924 0.0
C2364 C 0.35983 0.65203 0.89275 0.0
C2365 C 0.34445 0.71811 0.88075 0.0
C2366 C 0.40232 0.58419 0.8771 0.0
C2367 C 0.3904 0.59991 0.87854 0.0
C2368 C 0.38584 0.64984 0.86549 0.0
C2369 C 0.34862 0.68393 0.88251 0.0
C2370 C 0.36091 0.66694 0.88071 0.0
C2371 C 0.3975 0.6183 0.876 0.0
C2372 C 0.38482 0.635 0.87758 0.0
H2373 H 0.30331 0.69637 0.89274 0.0
H2374 H 0.32337 0.66835 0.88989 0.0
H2375 H 0.37495 0.67668 0.85735 0.0
H2376 H 0.44356 0.60723 0.86759 0.0
H2377 H 0.42271 0.63467 0.87013 0.0
C2378 C 0.14125 0.67973 0.6197 0.0
C2379 C 0.15971 0.6728 0.62227 0.0
C2380 C 0.12561 0.66772 0.62147 0.0
C2381 C 0.112 0.61698 0.62235 0.0
H2382 H 0.06671 0.63612 0.64479 0.0
C2383 C 0.04906 0.56876 0.64166 0.0
C2384 C 0.03093 0.57563 0.63751 0.0
C2385 C 0.06496 0.58048 0.64004 0.0
C2386 C 0.07921 0.63062 0.63838 0.0
H2387 H 0.17619 0.64778 0.62871 0.0
H2388 H 0.14894 0.627 0.63206 0.0
H2389 H 0.09407 0.65686 0.64123 0.0
H2390 H 0.01523 0.60021 0.62855 0.0
H2391 H 0.04291 0.62059 0.62581 0.0
H2392 H 0.09711 0.59067 0.61967 0.0
C2393 C 0.14654 0.64161 0.62838 0.0
C2394 C 0.09487 0.64251 0.63629 0.0
C2395 C 0.16217 0.65358 0.62654 0.0
C2396 C 0.029 0.59448 0.63187 0.0
C2397 C 0.04484 0.6062 0.63038 0.0
C2398 C 0.09636 0.60505 0.62454 0.0
C2399 C 0.12806 0.64855 0.62593 0.0
C2400 C 0.11143 0.63586 0.62818 0.0
C2401 C 0.06299 0.59932 0.63439 0.0
C2402 C 0.07978 0.61179 0.63251 0.0
H2403 H 0.13884 0.69444 0.61632 0.0
H2404 H 0.11159 0.67346 0.61921 0.0
H2405 H 0.12442 0.61147 0.61583 0.0
H2406 H 0.05102 0.55431 0.64602 0.0
H2407 H 0.07877 0.57486 0.64336 0.0
C2408 C 0.09332 0.5838 0.1247 0.0
C2409 C 0.07386 0.58638 0.12785 0.0
C2410 C 0.10536 0.59939 0.12294 0.0
C2411 C 0.10508 0.65055 0.11299 0.0
H2412 H 0.15519 0.64956 0.13362 0.0
C2413 C 0.15208 0.71703 0.11801 0.0
C2414 C 0.17148 0.715 0.11426 0.0
C2415 C 0.14038 0.70116 0.11926 0.0
C2416 C 0.14132 0.64995 0.12762 0.0
H2417 H 0.05183 0.60742 0.1318 0.0
H2418 H 0.07291 0.63462 0.12896 0.0
H2419 H 0.13423 0.62229 0.13697 0.0
H2420 H 0.19379 0.69468 0.10888 0.0
H2421 H 0.17325 0.66688 0.11105 0.0
H2422 H 0.11213 0.67828 0.10377 0.0
C2423 C 0.0788 0.62052 0.12758 0.0
C2424 C 0.12931 0.63434 0.12953 0.0
C2425 C 0.06673 0.60492 0.12931 0.0
C2426 C 0.17891 0.69672 0.11177 0.0
C2427 C 0.16718 0.6808 0.11311 0.0
C2428 C 0.11707 0.66617 0.11112 0.0
C2429 C 0.09824 0.61793 0.12433 0.0
C2430 C 0.11103 0.63449 0.12228 0.0
C2431 C 0.14779 0.68287 0.11687 0.0
C2432 C 0.13529 0.66606 0.11846 0.0
H2433 H 0.09929 0.56973 0.12342 0.0
H2434 H 0.12021 0.5969 0.12021 0.0
H2435 H 0.09123 0.65099 0.10697 0.0
H2436 H 0.1459 0.73091 0.12004 0.0
H2437 H 0.12555 0.7032 0.12239 0.0
C2438 C 0.02884 0.40264 0.87039 0.0
C2439 C 0.03093 0.42154 0.86495 0.0
C2440 C 0.04461 0.39086 0.87204 0.0
C2441 C 0.09435 0.38547 0.85804 0.0
H2442 H 0.09711 0.35093 0.89704 0.0
C2443 C 0.16166 0.34259 0.87412 0.0
C2444 C 0.15916 0.3234 0.8785 0.0
C2445 C 0.14608 0.35467 0.87259 0.0
C2446 C 0.09645 0.36037 0.886 0.0
H2447 H 0.05125 0.4429 0.85698 0.0
H2448 H 0.07888 0.42235 0.86009 0.0
H2449 H 0.06995 0.37206 0.89416 0.0
H2450 H 0.13827 0.3019 0.88483 0.0
H2451 H 0.11105 0.32305 0.88217 0.0
H2452 H 0.12093 0.37383 0.84996 0.0
C2453 C 0.06498 0.41659 0.86285 0.0
C2454 C 0.08089 0.37247 0.88433 0.0
C2455 C 0.04916 0.42839 0.86114 0.0
C2456 C 0.14071 0.3166 0.88146 0.0
C2457 C 0.12512 0.32873 0.88001 0.0
C2458 C 0.10994 0.37342 0.85975 0.0
C2459 C 0.06288 0.3977 0.86836 0.0
C2460 C 0.07962 0.38511 0.87029 0.0
C2461 C 0.12765 0.34787 0.87549 0.0
C2462 C 0.11113 0.36071 0.87372 0.0
H2463 H 0.01499 0.39688 0.87336 0.0
H2464 H 0.04245 0.3763 0.87604 0.0
H2465 H 0.09367 0.39483 0.84694 0.0
H2466 H 0.17566 0.34832 0.87175 0.0
H2467 H 0.14849 0.3694 0.8693 0.0
C2468 C 0.40377 0.41228 0.62422 0.0
C2469 C 0.42316 0.40991 0.62787 0.0
C2470 C 0.39184 0.39659 0.62264 0.0
C2471 C 0.39246 0.34508 0.61417 0.0
H2472 H 0.34176 0.3468 0.63352 0.0
C2473 C 0.34482 0.27891 0.61906 0.0
C2474 C 0.32555 0.28104 0.61483 0.0
C2475 C 0.35662 0.29472 0.6204 0.0
C2476 C 0.3558 0.34619 0.62788 0.0
H2477 H 0.44516 0.38911 0.63284 0.0
H2478 H 0.42426 0.36172 0.6303 0.0
H2479 H 0.36267 0.37411 0.63669 0.0
H2480 H 0.30359 0.30147 0.60868 0.0
H2481 H 0.32428 0.32912 0.61098 0.0
H2482 H 0.38561 0.31711 0.60545 0.0
C2483 C 0.41835 0.37574 0.62842 0.0
C2484 C 0.36779 0.36183 0.62969 0.0
C2485 C 0.43031 0.39146 0.62997 0.0
C2486 C 0.31836 0.29935 0.61196 0.0
C2487 C 0.33018 0.31519 0.61337 0.0
C2488 C 0.38049 0.32943 0.61239 0.0
C2489 C 0.39898 0.37813 0.6247 0.0
C2490 C 0.38627 0.36145 0.62286 0.0
C2491 C 0.34945 0.31304 0.61761 0.0
C2492 C 0.36204 0.3298 0.61924 0.0
H2493 H 0.39777 0.42628 0.62243 0.0
H2494 H 0.37706 0.39892 0.61953 0.0
H2495 H 0.40649 0.34445 0.60849 0.0
H2496 H 0.35081 0.26501 0.62141 0.0
H2497 H 0.37134 0.2926 0.6239 0.0
C2498 C 0.33367 0.65427 0.3735 0.0
C2499 C 0.33595 0.67347 0.37795 0.0
C2500 C 0.3494 0.64242 0.37177 0.0
C2501 C 0.40123 0.64359 0.3647 0.0
H2502 H 0.39879 0.59162 0.38096 0.0
C2503 C 0.46709 0.59553 0.36965 0.0
C2504 C 0.46523 0.57677 0.36374 0.0
C2505 C 0.45122 0.60724 0.37109 0.0
C2506 C 0.39961 0.60604 0.3762 0.0
H2507 H 0.3566 0.69518 0.38428 0.0
H2508 H 0.38402 0.6744 0.38158 0.0
H2509 H 0.37138 0.61232 0.3845 0.0
H2510 H 0.44525 0.55558 0.35474 0.0
H2511 H 0.41748 0.57609 0.35732 0.0
H2512 H 0.42957 0.63733 0.35662 0.0
C2513 C 0.37007 0.6686 0.37911 0.0
C2514 C 0.3839 0.61791 0.37821 0.0
C2515 C 0.35433 0.68049 0.38077 0.0
C2516 C 0.44715 0.56997 0.35931 0.0
C2517 C 0.43124 0.58167 0.36088 0.0
C2518 C 0.41696 0.63176 0.36279 0.0
C2519 C 0.3678 0.64944 0.37452 0.0
C2520 C 0.38453 0.63683 0.37248 0.0
C2521 C 0.43313 0.60043 0.36676 0.0
C2522 C 0.41631 0.61287 0.36853 0.0
H2523 H 0.31972 0.64839 0.37114 0.0
H2524 H 0.34714 0.62782 0.36796 0.0
H2525 H 0.40209 0.65797 0.35985 0.0
H2526 H 0.48081 0.60121 0.37319 0.0
H2527 H 0.45309 0.62157 0.37584 0.0
C2528 C 0.26353 0.29816 0.06215 0.0
C2529 C 0.27078 0.28237 0.07107 0.0
C2530 C 0.25835 0.29667 0.04475 0.0
C2531 C 0.24013 0.26679 0.01171 0.0
H2532 H 0.26872 0.29729 0.97911 0.0
C2533 C 0.22393 0.26516 0.93813 0.0
C2534 C 0.22575 0.28232 0.92904 0.0
C2535 C 0.23038 0.26364 0.95523 0.0
C2536 C 0.26036 0.28888 0.988 0.0
H2537 H 0.2776 0.25248 0.06894 0.0
H2538 H 0.26783 0.24979 0.03852 0.0
H2539 H 0.27712 0.29774 0.0097 0.0
H2540 H 0.23562 0.31137 0.9308 0.0
H2541 H 0.246 0.30905 0.9606 0.0
H2542 H 0.22265 0.25867 0.99034 0.0
C2543 C 0.26653 0.26332 0.04504 0.0
C2544 C 0.26532 0.28905 0.0055 0.0
C2545 C 0.27214 0.26489 0.06238 0.0
C2546 C 0.23417 0.29788 0.93737 0.0
C2547 C 0.24028 0.29648 0.9545 0.0
C2548 C 0.23486 0.26692 0.99423 0.0
C2549 C 0.2599 0.27928 0.03606 0.0
C2550 C 0.25516 0.27814 0.01748 0.0
C2551 C 0.23852 0.27934 0.9637 0.0
C2552 C 0.24478 0.27815 0.98215 0.0
H2553 H 0.26236 0.31183 0.06845 0.0
H2554 H 0.2532 0.30913 0.03804 0.0
H2555 H 0.23207 0.25833 0.02081 0.0
H2556 H 0.2176 0.25287 0.93202 0.0
H2557 H 0.22905 0.25012 0.96173 0.0
C2558 C 0.97723 0.96838 0.19042 0.0
C2559 C 0.96352 0.97601 0.17919 0.0
C2560 C 0.97816 0.9742 0.20772 0.0
C2561 C 0.98272 0.99579 0.24176 0.0
H2562 H 0.93493 0.0023 0.26585 0.0
C2563 C 0.97697 0.02829 0.31056 0.0
C2564 C 0.96342 0.02051 0.32188 0.0
C2565 C 0.97793 0.02237 0.29329 0.0
C2566 C 0.94842 0.00038 0.25938 0.0
H2567 H 0.94045 0.99627 0.17726 0.0
H2568 H 0.94223 0.00652 0.2073 0.0
H2569 H 0.93494 0.99331 0.23545 0.0
H2570 H 0.94072 -0.00014 0.32401 0.0
H2571 H 0.94258 0.98942 0.29403 0.0
H2572 H 0.99616 0.00255 0.26586 0.0
C2573 C 0.95204 0.99578 0.20282 0.0
C2574 C 0.94842 0.99548 0.24186 0.0
C2575 C 0.95111 0.98997 0.18555 0.0
C2576 C 0.95124 0.00628 0.31565 0.0
C2577 C 0.95222 0.00036 0.29841 0.0
C2578 C 0.98271 0.00073 0.25932 0.0
C2579 C 0.96539 0.98778 0.21419 0.0
C2580 C 0.96555 0.99315 0.23282 0.0
C2581 C 0.96538 0.00852 0.28695 0.0
C2582 C 0.96555 0.00306 0.26834 0.0
H2583 H 0.98703 0.95761 0.18597 0.0
H2584 H 0.98852 0.96764 0.21616 0.0
H2585 H 0.99616 0.99423 0.23515 0.0
H2586 H 0.98659 0.03927 0.31491 0.0
H2587 H 0.98814 0.02906 0.28478 0.0
C2588 C 0.22326 0.7324 0.56262 0.0
C2589 C 0.22545 0.71498 0.57128 0.0
C2590 C 0.22889 0.73431 0.54532 0.0
C2591 C 0.23032 0.70999 0.50571 0.0
H2592 H 0.27459 0.73823 0.49087 0.0
C2593 C 0.26146 0.6999 0.4378 0.0
C2594 C 0.27036 0.71517 0.42942 0.0
C2595 C 0.25539 0.70155 0.45492 0.0
C2596 C 0.26196 0.73059 0.49469 0.0
H2597 H 0.23542 0.686 0.56862 0.0
H2598 H 0.24465 0.6893 0.53827 0.0
H2599 H 0.26523 0.73857 0.52139 0.0
H2600 H 0.27952 0.74433 0.43236 0.0
H2601 H 0.26827 0.74748 0.46213 0.0
H2602 H 0.22655 0.70226 0.47922 0.0
C2603 C 0.23883 0.70145 0.54501 0.0
C2604 C 0.25672 0.73073 0.51217 0.0
C2605 C 0.23358 0.69962 0.56235 0.0
C2606 C 0.2728 0.73227 0.4385 0.0
C2607 C 0.26645 0.73402 0.45561 0.0
C2608 C 0.23531 0.71012 0.48822 0.0
C2609 C 0.23643 0.71875 0.53636 0.0
C2610 C 0.24108 0.72013 0.5178 0.0
C2611 C 0.25773 0.71863 0.46409 0.0
C2612 C 0.25146 0.72005 0.4825 0.0
H2613 H 0.21711 0.7445 0.56917 0.0
H2614 H 0.22691 0.74777 0.5388 0.0
H2615 H 0.2181 0.70185 0.50983 0.0
H2616 H 0.25952 0.68645 0.43126 0.0
H2617 H 0.24921 0.68921 0.46105 0.0
C2618 C 0.54957 0.98326 0.81208 0.0
C2619 C 0.53368 0.97613 0.82094 0.0
C2620 C 0.54829 0.98823 0.79463 0.0
C2621 C 0.51815 0.00572 0.76115 0.0
H2622 H 0.55041 0.97837 0.72909 0.0
C2623 C 0.5164 0.02122 0.68754 0.0
C2624 C 0.53361 0.02001 0.67846 0.0
C2625 C 0.51513 0.01487 0.70468 0.0
C2626 C 0.54151 0.9864 0.73783 0.0
H2627 H 0.50382 0.96927 0.81859 0.0
H2628 H 0.50149 0.97869 0.78805 0.0
H2629 H 0.55077 0.97017 0.75972 0.0
H2630 H 0.56302 0.01135 0.68026 0.0
H2631 H 0.56112 0.00118 0.71019 0.0
H2632 H 0.50956 0.02269 0.73961 0.0
C2633 C 0.51495 0.98007 0.79468 0.0
C2634 C 0.54163 0.98154 0.75536 0.0
C2635 C 0.51631 0.97466 0.81209 0.0
C2636 C 0.5495 0.01231 0.68684 0.0
C2637 C 0.54834 0.00633 0.70404 0.0
C2638 C 0.51832 0.01089 0.74365 0.0
C2639 C 0.53101 0.98659 0.78578 0.0
C2640 C 0.53005 0.99123 0.76715 0.0
C2641 C 0.53114 0.00749 0.71324 0.0
C2642 C 0.53014 0.0014 0.73175 0.0
H2643 H 0.56316 0.98451 0.8185 0.0
H2644 H 0.56083 0.99333 0.78799 0.0
H2645 H 0.50918 0.01344 0.7701 0.0
H2646 H 0.50386 0.02696 0.68138 0.0
H2647 H 0.50154 0.01569 0.71114 0.0
C2648 C 0.77245 0.73157 0.06262 0.0
C2649 C 0.77048 0.71438 0.07164 0.0
C2650 C 0.76596 0.73325 0.04554 0.0
C2651 C 0.73545 0.70854 0.01288 0.0
H2652 H 0.76411 0.73847 0.97987 0.0
C2653 C 0.73236 0.69863 0.93887 0.0
C2654 C 0.725 0.7143 0.92985 0.0
C2655 C 0.7376 0.70031 0.95623 0.0
C2656 C 0.75595 0.7302 0.98904 0.0
H2657 H 0.76037 0.68541 0.06974 0.0
H2658 H 0.74989 0.68802 0.04 0.0
H2659 H 0.77363 0.73814 0.01033 0.0
H2660 H 0.71803 0.74419 0.93178 0.0
H2661 H 0.72789 0.74719 0.96215 0.0
H2662 H 0.71848 0.69984 0.99127 0.0
C2663 C 0.75576 0.7005 0.04615 0.0
C2664 C 0.76127 0.73006 0.0065 0.0
C2665 C 0.76192 0.69893 0.06324 0.0
C2666 C 0.72359 0.73186 0.93841 0.0
C2667 C 0.72925 0.73361 0.95572 0.0
C2668 C 0.73041 0.70838 0.99541 0.0
C2669 C 0.75762 0.71767 0.03703 0.0
C2670 C 0.75124 0.71901 0.01864 0.0
C2671 C 0.73599 0.71776 0.96479 0.0
C2672 C 0.74072 0.71905 0.98336 0.0
H2673 H 0.77889 0.74377 0.06878 0.0
H2674 H 0.7674 0.74679 0.03908 0.0
H2675 H 0.72701 0.70028 0.02183 0.0
H2676 H 0.73357 0.68491 0.93267 0.0
H2677 H 0.74283 0.68793 0.96302 0.0
C2678 C 0.01474 0.02262 0.81235 0.0
C2679 C 0.03214 0.02145 0.82119 0.0
C2680 C 0.01342 0.01704 0.79499 0.0
C2681 C 0.04 0.01546 0.75562 0.0
H2682 H 0.00862 0.97355 0.74037 0.0
C2683 C 0.04857 0.98387 0.68756 0.0
C2684 C 0.03282 0.97592 0.67914 0.0
C2685 C 0.04725 0.98997 0.70471 0.0
C2686 C 0.01718 0.98555 0.74428 0.0
H2687 H 0.06173 0.01346 0.81878 0.0
H2688 H 0.05947 0.00435 0.78832 0.0
H2689 H 0.00811 0.98324 0.77076 0.0
H2690 H 0.00317 0.96854 0.682 0.0
H2691 H 0.00057 0.97998 0.71172 0.0
H2692 H 0.04873 0.01839 0.72931 0.0
C2693 C 0.04687 0.00935 0.79494 0.0
C2694 C 0.01694 0.99097 0.76171 0.0
C2695 C 0.04812 0.01449 0.81236 0.0
C2696 C 0.01559 0.9745 0.68818 0.0
C2697 C 0.01416 0.98095 0.70528 0.0
C2698 C 0.03996 0.01034 0.73815 0.0
C2699 C 0.02955 0.01064 0.78611 0.0
C2700 C 0.02861 0.00574 0.76754 0.0
C2701 C 0.03002 0.98867 0.71384 0.0
C2702 C 0.02885 0.99504 0.73226 0.0
H2703 H 0.00218 0.02786 0.81884 0.0
H2704 H -7e-05 0.01816 0.78837 0.0
H2705 H 0.04896 0.02705 0.75984 0.0
H2706 H 0.06211 0.985 0.68102 0.0
H2707 H 0.05993 0.99535 0.71087 0.0
C2708 C 0.73374 0.29862 0.56372 0.0
C2709 C 0.72555 0.28295 0.57207 0.0
C2710 C 0.73984 0.29728 0.54657 0.0
C2711 C 0.73486 0.26755 0.50689 0.0
H2712 H 0.77691 0.29867 0.49147 0.0
C2713 C 0.77201 0.26546 0.43874 0.0
C2714 C 0.77077 0.28295 0.43007 0.0
C2715 C 0.76644 0.26392 0.45609 0.0
C2716 C 0.76518 0.28989 0.49566 0.0
H2717 H 0.71775 0.25341 0.5691 0.0
H2718 H 0.72915 0.25078 0.53938 0.0
H2719 H 0.76835 0.29831 0.52202 0.0
H2720 H 0.76264 0.31249 0.43274 0.0
H2721 H 0.75354 0.30985 0.46316 0.0
H2722 H 0.73228 0.2588 0.48034 0.0
C2723 C 0.73032 0.26433 0.54587 0.0
C2724 C 0.76011 0.28978 0.51313 0.0
C2725 C 0.72389 0.26578 0.56297 0.0
C2726 C 0.76371 0.2988 0.43903 0.0
C2727 C 0.75857 0.29735 0.45643 0.0
C2728 C 0.74022 0.26737 0.48944 0.0
C2729 C 0.73828 0.28011 0.53738 0.0
C2730 C 0.74461 0.27894 0.51896 0.0
C2731 C 0.75998 0.27994 0.4651 0.0
C2732 C 0.75519 0.27882 0.48368 0.0
H2733 H 0.73507 0.31212 0.5703 0.0
H2734 H 0.74542 0.30991 0.54046 0.0
H2735 H 0.72271 0.2592 0.51076 0.0
H2736 H 0.77733 0.25299 0.43215 0.0
H2737 H 0.76763 0.25037 0.4626 0.0
C2738 C 0.45504 0.99154 0.3152 0.0
C2739 C 0.46607 0.97647 0.32158 0.0
C2740 C 0.45708 0.99769 0.29809 0.0
C2741 C 0.47212 0.98064 0.2554 0.0
H2742 H 0.47038 0.03386 0.24288 0.0
C2743 C 0.45569 0.0065 0.18622 0.0
C2744 C 0.46609 0.02192 0.17969 0.0
C2745 C 0.45772 0.00083 0.20344 0.0
C2746 C 0.47108 0.01895 0.24618 0.0
H2747 H 0.48828 0.9564 0.31503 0.0
H2748 H 0.49177 0.96714 0.2852 0.0
H2749 H 0.47051 0.02475 0.27341 0.0
H2750 H 0.48708 0.04329 0.18615 0.0
H2751 H 0.49053 0.03339 0.2163 0.0
H2752 H 0.47251 0.97482 0.22819 0.0
C2753 C 0.48144 0.97407 0.29341 0.0
C2754 C 0.47097 0.01373 0.26365 0.0
C2755 C 0.47948 0.96799 0.31055 0.0
C2756 C 0.47883 0.03135 0.19075 0.0
C2757 C 0.48074 0.02577 0.20804 0.0
C2758 C 0.4721 0.98585 0.23794 0.0
C2759 C 0.47012 0.98885 0.28694 0.0
C2760 C 0.47132 0.99451 0.26845 0.0
C2761 C 0.47011 0.01052 0.2146 0.0
C2762 C 0.47139 0.00505 0.23313 0.0
H2763 H 0.4446 -0.00158 0.32333 0.0
H2764 H 0.44803 0.009 0.29345 0.0
H2765 H 0.47224 0.96571 0.25866 0.0
H2766 H 0.44578 -0.00111 0.17809 0.0
H2767 H 0.44918 0.98916 0.20815 0.0
C2768 C 0.7736 0.76367 0.56311 0.0
C2769 C 0.7721 0.78127 0.57158 0.0
C2770 C 0.76812 0.76182 0.54576 0.0
C2771 C 0.76705 0.78688 0.50591 0.0
H2772 H 0.72355 0.75744 0.49116 0.0
C2773 C 0.73487 0.79706 0.43847 0.0
C2774 C 0.72626 0.7817 0.42998 0.0
C2775 C 0.74118 0.79531 0.4555 0.0
C2776 C 0.73598 0.76542 0.49494 0.0
H2777 H 0.7636 0.81066 0.56853 0.0
H2778 H 0.75467 0.80748 0.53813 0.0
H2779 H 0.73327 0.75694 0.52157 0.0
H2780 H 0.71783 0.75229 0.43265 0.0
H2781 H 0.72953 0.74897 0.46225 0.0
H2782 H 0.77027 0.7951 0.4795 0.0
C2783 C 0.75983 0.79513 0.54502 0.0
C2784 C 0.74144 0.76518 0.51237 0.0
C2785 C 0.76489 0.7969 0.56241 0.0
C2786 C 0.72433 0.76443 0.43887 0.0
C2787 C 0.73094 0.76257 0.45589 0.0
C2788 C 0.76187 0.78684 0.48847 0.0
C2789 C 0.76147 0.77763 0.53656 0.0
C2790 C 0.75676 0.77624 0.518 0.0
C2791 C 0.73939 0.77804 0.46447 0.0
C2792 C 0.74596 0.77649 0.48279 0.0
H2793 H 0.77904 0.75136 0.56987 0.0
H2794 H 0.7695 0.7482 0.5394 0.0
H2795 H 0.77904 0.79537 0.51001 0.0
H2796 H 0.73641 0.81064 0.43207 0.0
H2797 H 0.74712 0.80771 0.46172 0.0
C2798 C 0.44755 0.51483 0.81234 0.0
C2799 C 0.46335 0.52182 0.82141 0.0
C2800 C 0.44908 0.50978 0.79492 0.0
C2801 C 0.47931 0.4915 0.76202 0.0
H2802 H 0.44808 0.51917 0.72935 0.0
C2803 C 0.48086 0.47462 0.68856 0.0
C2804 C 0.46368 0.47614 0.67947 0.0
C2805 C 0.48231 0.4812 0.70562 0.0
C2806 C 0.4567 0.51106 0.73827 0.0
H2807 H 0.49331 0.52839 0.81947 0.0
H2808 H 0.49608 0.51884 0.78897 0.0
H2809 H 0.44767 0.52789 0.75987 0.0
H2810 H 0.43448 0.48555 0.68121 0.0
H2811 H 0.43668 0.49614 0.71099 0.0
H2812 H 0.48761 0.47394 0.74076 0.0
C2813 C 0.48249 0.51763 0.79542 0.0
C2814 C 0.45657 0.51622 0.75572 0.0
C2815 C 0.48088 0.52312 0.8128 0.0
C2816 C 0.44799 0.48434 0.68779 0.0
C2817 C 0.44933 0.49057 0.70489 0.0
C2818 C 0.47916 0.48604 0.74458 0.0
C2819 C 0.46652 0.5112 0.78632 0.0
C2820 C 0.46774 0.50639 0.76774 0.0
C2821 C 0.46651 0.48916 0.71408 0.0
C2822 C 0.46767 0.49562 0.73248 0.0
H2823 H 0.43384 0.5137 0.81857 0.0
H2824 H 0.43661 0.50477 0.78813 0.0
H2825 H 0.48796 0.48367 0.77114 0.0
H2826 H 0.49325 0.46848 0.68245 0.0
H2827 H 0.49587 0.48014 0.71209 0.0
C2828 C 0.7236 0.23183 0.06273 0.0
C2829 C 0.72494 0.2143 0.07132 0.0
C2830 C 0.72905 0.23346 0.04535 0.0
C2831 C 0.73033 0.20765 0.00564 0.0
H2832 H 0.7729 0.23831 0.99073 0.0
C2833 C 0.76227 0.19879 0.93779 0.0
C2834 C 0.77056 0.21443 0.92948 0.0
C2835 C 0.75602 0.20017 0.95488 0.0
C2836 C 0.76072 0.22997 0.99454 0.0
H2837 H 0.73308 0.18478 0.06845 0.0
H2838 H 0.74196 0.18759 0.038 0.0
H2839 H 0.76317 0.23872 0.0211 0.0
H2840 H 0.77834 0.24398 0.93245 0.0
H2841 H 0.76666 0.24668 0.96207 0.0
H2842 H 0.72731 0.19921 0.97927 0.0
C2843 C 0.73694 0.20005 0.04481 0.0
C2844 C 0.75526 0.23016 0.01197 0.0
C2845 C 0.73193 0.1985 0.06223 0.0
C2846 C 0.77214 0.23162 0.93855 0.0
C2847 C 0.76554 0.23312 0.9556 0.0
C2848 C 0.73549 0.20775 0.98819 0.0
C2849 C 0.73548 0.2175 0.03623 0.0
C2850 C 0.74026 0.21872 0.01766 0.0
C2851 C 0.7575 0.21736 0.96405 0.0
C2852 C 0.75103 0.21858 0.98243 0.0
H2853 H 0.71833 0.24426 0.06942 0.0
H2854 H 0.72782 0.24705 0.03891 0.0
H2855 H 0.71858 0.19886 0.00978 0.0
H2856 H 0.761 0.18527 0.93122 0.0
H2857 H 0.75037 0.18756 0.96098 0.0
C2858 C 0.01515 0.47548 0.31303 0.0
C2859 C 0.03236 0.47732 0.32204 0.0
C2860 C 0.0134 0.48229 0.29608 0.0
C2861 C 0.0379 0.5131 0.2635 0.0
H2862 H 0.00789 0.48439 0.23058 0.0
C2863 C 0.04759 0.51549 0.1894 0.0
C2864 C 0.03188 0.5225 0.18022 0.0
C2865 C 0.04597 0.51072 0.20687 0.0
C2866 C 0.01616 0.49259 0.23972 0.0
H2867 H 0.06122 0.48771 0.32031 0.0
H2868 H 0.05849 0.49876 0.2907 0.0
H2869 H 0.00841 0.47483 0.26099 0.0
H2870 H 0.00199 0.52944 0.18203 0.0
H2871 H -0.00094 0.52037 0.21263 0.0
H2872 H 0.04645 0.53012 0.24186 0.0
C2873 C 0.04607 0.4927 0.29679 0.0
C2874 C 0.01641 0.48723 0.25717 0.0
C2875 C 0.04771 0.4862 0.31379 0.0
C2876 C 0.01435 0.52414 0.18879 0.0
C2877 C 0.01264 0.51894 0.20622 0.0
C2878 C 0.03794 0.51818 0.24603 0.0
C2879 C 0.0289 0.49083 0.28765 0.0
C2880 C 0.02749 0.49728 0.26928 0.0
C2881 C 0.02853 0.51246 0.21541 0.0
C2882 C 0.02723 0.50786 0.23401 0.0
H2883 H 0.00301 0.46883 0.31909 0.0
H2884 H -0.00016 0.48089 0.28964 0.0
H2885 H 0.04619 0.52154 0.27243 0.0
H2886 H 0.0613 0.51412 0.1832 0.0
H2887 H 0.05836 0.50567 0.21375 0.0
C2888 C 0.27184 0.2317 0.56253 0.0
C2889 C 0.26966 0.21454 0.57155 0.0
C2890 C 0.26514 0.23354 0.54554 0.0
C2891 C 0.23382 0.20953 0.51307 0.0
H2892 H 0.26304 0.23867 0.47988 0.0
C2893 C 0.23137 0.19902 0.43908 0.0
C2894 C 0.2243 0.21465 0.42981 0.0
C2895 C 0.23626 0.20082 0.45651 0.0
C2896 C 0.2547 0.23064 0.4891 0.0
H2897 H 0.25886 0.18581 0.56976 0.0
H2898 H 0.24799 0.1887 0.54014 0.0
H2899 H 0.27264 0.23825 0.51031 0.0
H2900 H 0.21741 0.24457 0.43141 0.0
H2901 H 0.22667 0.24779 0.46194 0.0
H2902 H 0.2166 0.2011 0.49152 0.0
C2903 C 0.25422 0.20103 0.54623 0.0
C2904 C 0.26008 0.23046 0.50655 0.0
C2905 C 0.26062 0.1993 0.56325 0.0
C2906 C 0.22274 0.23227 0.43824 0.0
C2907 C 0.22806 0.23415 0.45563 0.0
C2908 C 0.22871 0.20943 0.49561 0.0
C2909 C 0.25635 0.21817 0.5371 0.0
C2910 C 0.24986 0.21966 0.51875 0.0
C2911 C 0.23459 0.21835 0.46492 0.0
C2912 C 0.23922 0.21981 0.48349 0.0
H2913 H 0.27864 0.24375 0.56861 0.0
H2914 H 0.26679 0.24706 0.53908 0.0
H2915 H 0.22525 0.20147 0.52207 0.0
H2916 H 0.23268 0.18524 0.433 0.0
H2917 H 0.24134 0.18848 0.46347 0.0
C2918 C 0.51473 0.52324 0.31277 0.0
C2919 C 0.53216 0.522 0.32155 0.0
C2920 C 0.51332 0.51769 0.29541 0.0
C2921 C 0.53947 0.51644 0.25593 0.0
H2922 H 0.5088 0.47399 0.24073 0.0
C2923 C 0.54835 0.48503 0.18784 0.0
C2924 C 0.53277 0.47665 0.1795 0.0
C2925 C 0.54693 0.49122 0.20495 0.0
C2926 C 0.51714 0.48614 0.24462 0.0
H2927 H 0.56171 0.51392 0.31904 0.0
H2928 H 0.55929 0.50486 0.28857 0.0
H2929 H 0.50834 0.48353 0.27116 0.0
H2930 H 0.50328 0.46867 0.18245 0.0
H2931 H 0.50049 0.48028 0.2121 0.0
H2932 H 0.54792 0.51966 0.22958 0.0
C2933 C 0.54674 0.50987 0.29524 0.0
C2934 C 0.51694 0.49148 0.26208 0.0
C2935 C 0.54807 0.51499 0.31266 0.0
C2936 C 0.51558 0.47496 0.18857 0.0
C2937 C 0.51404 0.48151 0.20563 0.0
C2938 C 0.53938 0.51141 0.23845 0.0
C2939 C 0.52939 0.51124 0.28647 0.0
C2940 C 0.52837 0.50644 0.26789 0.0
C2941 C 0.52976 0.48959 0.21413 0.0
C2942 C 0.52854 0.49591 0.23257 0.0
H2943 H 0.50221 0.52853 0.3193 0.0
H2944 H 0.49981 0.51886 0.28883 0.0
H2945 H 0.54824 0.52818 0.26015 0.0
H2946 H 0.56186 0.48637 0.1813 0.0
H2947 H 0.55951 0.4969 0.21106 0.0
C2948 C 0.27259 0.7662 0.93778 0.0
C2949 C 0.27047 0.78338 0.92877 0.0
C2950 C 0.26613 0.76446 0.95486 0.0
C2951 C 0.23563 0.78887 0.98773 0.0
H2952 H 0.26477 0.75902 0.02045 0.0
C2953 C 0.23314 0.79807 0.06193 0.0
C2954 C 0.22569 0.78233 0.07079 0.0
C2955 C 0.23829 0.79661 0.04453 0.0
C2956 C 0.25647 0.76727 0.01136 0.0
H2957 H 0.26004 0.81223 0.93065 0.0
H2958 H 0.24961 0.80952 0.96042 0.0
H2959 H 0.2741 0.75961 0.98995 0.0
H2960 H 0.2185 0.75252 0.06852 0.0
H2961 H 0.2282 0.7499 0.03807 0.0
H2962 H 0.21871 0.79728 0.00948 0.0
C2963 C 0.2556 0.7971 0.95427 0.0
C2964 C 0.26169 0.76755 0.99387 0.0
C2965 C 0.26173 0.79873 0.93716 0.0
C2966 C 0.22412 0.76491 0.06201 0.0
C2967 C 0.22969 0.76337 0.04466 0.0
C2968 C 0.2307 0.78888 0.00523 0.0
C2969 C 0.25768 0.77995 0.96339 0.0
C2970 C 0.25146 0.77855 0.98183 0.0
C2971 C 0.23651 0.7793 0.03576 0.0
C2972 C 0.24117 0.77823 0.01717 0.0
H2973 H 0.27916 0.75407 0.93163 0.0
H2974 H 0.26772 0.75093 0.96131 0.0
H2975 H 0.22706 0.79709 0.97886 0.0
H2976 H 0.23448 0.81169 0.0683 0.0
H2977 H 0.24358 0.80905 0.03786 0.0
C2978 C 0.98092 0.52122 0.68754 0.0
C2979 C 0.96351 0.5201 0.67873 0.0
C2980 C 0.98228 0.51552 0.70486 0.0
C2981 C 0.95583 0.51416 0.74418 0.0
H2982 H 0.9873 0.47245 0.75972 0.0
C2983 C 0.94773 0.48361 0.8126 0.0
C2984 C 0.96354 0.47584 0.82106 0.0
C2985 C 0.94894 0.48941 0.79537 0.0
C2986 C 0.97872 0.48439 0.75572 0.0
H2987 H 0.93394 0.51202 0.6811 0.0
H2988 H 0.93627 0.50269 0.71151 0.0
H2989 H 0.9876 0.48172 0.72921 0.0
H2990 H 0.99318 0.46845 0.81818 0.0
H2991 H 0.9956 0.47939 0.78828 0.0
H2992 H 0.94733 0.51749 0.7705 0.0
C2993 C 0.94884 0.50773 0.70489 0.0
C2994 C 0.97883 0.48957 0.73822 0.0
C2995 C 0.94756 0.513 0.68751 0.0
C2996 C 0.98072 0.47428 0.81197 0.0
C2997 C 0.98204 0.48044 0.79477 0.0
C2998 C 0.95601 0.5093 0.76169 0.0
C2999 C 0.96617 0.50904 0.71371 0.0
C3000 C 0.96713 0.50427 0.7323 0.0
C3001 C 0.96612 0.488 0.78619 0.0
C3002 C 0.96715 0.49408 0.76769 0.0
H3003 H 0.99346 0.52656 0.68109 0.0
H3004 H 0.99577 0.51665 0.71148 0.0
H3005 H 0.94687 0.52572 0.73988 0.0
H3006 H 0.93421 0.48482 0.81917 0.0
H3007 H 0.93621 0.49466 0.78919 0.0
C3008 C 0.21064 0.36115 0.14888 0.0
C3009 C 0.2189 0.35542 0.13322 0.0
C3010 C 0.19379 0.37149 0.14891 0.0
C3011 C 0.15429 0.38847 0.1207 0.0
H3012 H 0.15456 0.4309 0.15263 0.0
C3013 C 0.114 0.45841 0.10984 0.0
C3014 C 0.1056 0.46728 0.12418 0.0
C3015 C 0.12439 0.44174 0.11193 0.0
C3016 C 0.15406 0.41893 0.14386 0.0
H3017 H 0.2161 0.35573 0.10531 0.0
H3018 H 0.18696 0.37432 0.10523 0.0
H3019 H 0.17931 0.40713 0.15447 0.0
H3020 H 0.1014 0.46574 0.15195 0.0
H3021 H 0.11959 0.43654 0.15562 0.0
H3022 H 0.12948 0.40107 0.10954 0.0
C3023 C 0.19308 0.37035 0.11756 0.0
C3024 C 0.16824 0.40523 0.14492 0.0
C3025 C 0.20981 0.35974 0.11757 0.0
C3026 C 0.10738 0.45898 0.14062 0.0
C3027 C 0.11793 0.44238 0.14274 0.0
C3028 C 0.14018 0.40231 0.11954 0.0
C3029 C 0.18508 0.37669 0.13323 0.0
C3030 C 0.16875 0.39 0.13317 0.0
C3031 C 0.12681 0.4338 0.12846 0.0
C3032 C 0.14014 0.41784 0.13093 0.0
H3033 H 0.21736 0.35784 0.16113 0.0
H3034 H 0.18783 0.37577 0.16122 0.0
H3035 H 0.15406 0.37675 0.11164 0.0
H3036 H 0.11285 0.46458 0.09704 0.0
H3037 H 0.13128 0.43557 0.10073 0.0
C3038 C 0.88866 0.9587 0.3694 0.0
C3039 C 0.89229 0.96809 0.38505 0.0
C3040 C 0.8779 0.94206 0.36924 0.0
C3041 C 0.8415 0.91817 0.39574 0.0
H3042 H 0.84627 0.87893 0.36085 0.0
C3043 C 0.78755 0.85749 0.39082 0.0
C3044 C 0.7796 0.85556 0.37426 0.0
C3045 C 0.80409 0.86807 0.39317 0.0
C3046 C 0.84485 0.88977 0.3707 0.0
H3047 H 0.88856 0.96715 0.41285 0.0
H3048 H 0.87045 0.93772 0.41274 0.0
H3049 H 0.87089 0.90315 0.36343 0.0
H3050 H 0.78284 0.86264 0.34713 0.0
H3051 H 0.8118 0.88108 0.35121 0.0
H3052 H 0.81541 0.90492 0.40286 0.0
C3053 C 0.87533 0.9434 0.4005 0.0
C3054 C 0.85888 0.90368 0.37214 0.0
C3055 C 0.88579 0.96018 0.4006 0.0
C3056 C 0.78875 0.86389 0.36002 0.0
C3057 C 0.80538 0.87429 0.36234 0.0
C3058 C 0.82765 0.90416 0.39442 0.0
C3059 C 0.87074 0.93444 0.38478 0.0
C3060 C 0.85716 0.91831 0.38445 0.0
C3061 C 0.81298 0.87681 0.37899 0.0
C3062 C 0.82897 0.89006 0.38167 0.0
H3063 H 0.89325 0.96472 0.35721 0.0
H3064 H 0.87443 0.93576 0.35687 0.0
H3065 H 0.83943 0.92937 0.40513 0.0
H3066 H 0.78057 0.85158 0.40207 0.0
H3067 H 0.80967 0.86981 0.40614 0.0
C3068 C 0.28671 0.63646 0.61547 0.0
C3069 C 0.27822 0.64093 0.63136 0.0
C3070 C 0.30342 0.62582 0.61501 0.0
C3071 C 0.3295 0.5914 0.64204 0.0
H3072 H 0.36675 0.59491 0.60526 0.0
C3073 C 0.39092 0.53841 0.63723 0.0
C3074 C 0.39206 0.52941 0.62105 0.0
C3075 C 0.38027 0.55497 0.63917 0.0
C3076 C 0.35648 0.59386 0.61565 0.0
H3077 H 0.28081 0.63881 0.65922 0.0
H3078 H 0.31035 0.62092 0.65852 0.0
H3079 H 0.34207 0.6191 0.60769 0.0
H3080 H 0.3836 0.53089 0.59412 0.0
H3081 H 0.36504 0.55989 0.59749 0.0
H3082 H 0.34376 0.5661 0.64987 0.0
C3083 C 0.30391 0.62503 0.64636 0.0
C3084 C 0.34229 0.60762 0.617 0.0
C3085 C 0.28707 0.63536 0.64679 0.0
C3086 C 0.38297 0.53762 0.60673 0.0
C3087 C 0.37249 0.55427 0.60862 0.0
C3088 C 0.34377 0.57782 0.64081 0.0
C3089 C 0.31202 0.61964 0.63047 0.0
C3090 C 0.32838 0.60634 0.63001 0.0
C3091 C 0.37066 0.56284 0.62495 0.0
C3092 C 0.35717 0.57868 0.6274 0.0
H3093 H 0.27996 0.64036 0.60339 0.0
H3094 H 0.30906 0.62171 0.60252 0.0
H3095 H 0.31886 0.58966 0.65202 0.0
H3096 H 0.39743 0.53218 0.64857 0.0
H3097 H 0.37908 0.56132 0.65189 0.0
C3098 C 0.61015 0.03808 0.86633 0.0
C3099 C 0.60588 0.02937 0.88217 0.0
C3100 C 0.62056 0.05492 0.86596 0.0
C3101 C 0.65495 0.08102 0.89289 0.0
H3102 H 0.65064 0.11862 0.85648 0.0
C3103 C 0.70785 0.14241 0.88766 0.0
C3104 C 0.71653 0.14362 0.87134 0.0
C3105 C 0.69128 0.13184 0.8898 0.0
C3106 C 0.65192 0.10826 0.86676 0.0
H3107 H 0.6082 0.03168 0.91003 0.0
H3108 H 0.62575 0.06144 0.9095 0.0
H3109 H 0.62663 0.09378 0.85903 0.0
H3110 H 0.71448 0.13539 0.84439 0.0
H3111 H 0.68546 0.11694 0.84811 0.0
H3112 H 0.68033 0.09531 0.90047 0.0
C3113 C 0.6216 0.05508 0.89731 0.0
C3114 C 0.63825 0.09398 0.86819 0.0
C3115 C 0.61148 0.03811 0.89765 0.0
C3116 C 0.708 0.1347 0.85709 0.0
C3117 C 0.69133 0.12429 0.85919 0.0
C3118 C 0.66845 0.09537 0.89158 0.0
C3119 C 0.62675 0.06343 0.88145 0.0
C3120 C 0.63985 0.07994 0.88104 0.0
C3121 C 0.68308 0.12238 0.87565 0.0
C3122 C 0.66729 0.10888 0.87829 0.0
H3123 H 0.60624 0.03141 0.85421 0.0
H3124 H 0.6245 0.06074 0.8535 0.0
H3125 H 0.65692 0.07028 0.90274 0.0
H3126 H 0.71434 0.14879 0.89894 0.0
H3127 H 0.68518 0.13059 0.90262 0.0
C3128 C 0.11146 0.53572 0.39987 0.0
C3129 C 0.1049 0.52791 0.3843 0.0
C3130 C 0.12186 0.55254 0.39982 0.0
C3131 C 0.13795 0.59255 0.37164 0.0
H3132 H 0.18155 0.59137 0.40218 0.0
C3133 C 0.20785 0.63274 0.3595 0.0
C3134 C 0.21698 0.64105 0.37374 0.0
C3135 C 0.19126 0.62226 0.36181 0.0
C3136 C 0.16927 0.59211 0.3938 0.0
H3137 H 0.10374 0.53148 0.35649 0.0
H3138 H 0.12247 0.56051 0.35623 0.0
H3139 H 0.15769 0.56674 0.40439 0.0
H3140 H 0.21604 0.64495 0.40156 0.0
H3141 H 0.18703 0.62656 0.40563 0.0
H3142 H 0.15036 0.61746 0.36044 0.0
C3143 C 0.1191 0.5541 0.36859 0.0
C3144 C 0.15551 0.578 0.39507 0.0
C3145 C 0.1084 0.53743 0.36869 0.0
C3146 C 0.20906 0.63904 0.39031 0.0
C3147 C 0.19258 0.62838 0.39266 0.0
C3148 C 0.15188 0.60656 0.37023 0.0
C3149 C 0.12632 0.56164 0.38413 0.0
C3150 C 0.13981 0.57785 0.38384 0.0
C3151 C 0.18371 0.61964 0.37846 0.0
C3152 C 0.1678 0.60628 0.38113 0.0
H3153 H 0.10879 0.52866 0.41209 0.0
H3154 H 0.12679 0.55815 0.41207 0.0
H3155 H 0.12589 0.59307 0.36298 0.0
H3156 H 0.21373 0.63406 0.3466 0.0
H3157 H 0.18485 0.61547 0.35068 0.0
C3158 C 0.61136 0.96008 0.60023 0.0
C3159 C 0.6049 0.9681 0.61576 0.0
C3160 C 0.6218 0.9433 0.60039 0.0
C3161 C 0.63816 0.90366 0.62885 0.0
H3162 H 0.6816 0.90461 0.5981 0.0
C3163 C 0.7081 0.86365 0.6411 0.0
C3164 C 0.71731 0.85532 0.6269 0.0
C3165 C 0.69148 0.87406 0.63873 0.0
C3166 C 0.66937 0.90393 0.60654 0.0
H3167 H 0.60401 0.96489 0.64363 0.0
H3168 H 0.62281 0.9359 0.64406 0.0
H3169 H 0.65768 0.92915 0.59578 0.0
H3170 H 0.71642 0.8513 0.59908 0.0
H3171 H 0.68734 0.86954 0.59492 0.0
H3172 H 0.65066 0.87888 0.6402 0.0
C3173 C 0.61931 0.94215 0.63166 0.0
C3174 C 0.65557 0.91799 0.60521 0.0
C3175 C 0.60857 0.95879 0.63145 0.0
C3176 C 0.7094 0.85723 0.61031 0.0
C3177 C 0.69287 0.86781 0.60791 0.0
C3178 C 0.65212 0.88968 0.63031 0.0
C3179 C 0.62642 0.93442 0.61615 0.0
C3180 C 0.63993 0.91824 0.61651 0.0
C3181 C 0.68394 0.87658 0.62206 0.0
C3182 C 0.66799 0.88987 0.61934 0.0
H3183 H 0.60856 0.96697 0.58796 0.0
H3184 H 0.62665 0.93754 0.58817 0.0
H3185 H 0.62615 0.90321 0.63757 0.0
H3186 H 0.71397 0.86242 0.65401 0.0
H3187 H 0.68504 0.88087 0.64984 0.0
C3188 C 0.38171 0.45817 0.89192 0.0
C3189 C 0.39025 0.46705 0.87765 0.0
C3190 C 0.37144 0.44144 0.88976 0.0
C3191 C 0.34233 0.41843 0.85751 0.0
H3192 H 0.34197 0.37632 0.88978 0.0
C3193 C 0.28597 0.36057 0.8518 0.0
C3194 C 0.27747 0.35487 0.86736 0.0
C3195 C 0.30283 0.37088 0.85198 0.0
C3196 C 0.34184 0.38801 0.8807 0.0
H3197 H 0.39482 0.46543 0.84993 0.0
H3198 H 0.37687 0.43611 0.84614 0.0
H3199 H 0.36642 0.40074 0.89219 0.0
H3200 H 0.27984 0.3552 0.8953 0.0
H3201 H 0.30898 0.37377 0.89574 0.0
H3202 H 0.31731 0.40652 0.84657 0.0
C3203 C 0.37832 0.44201 0.85902 0.0
C3204 C 0.35588 0.40192 0.88204 0.0
C3205 C 0.38873 0.45867 0.86122 0.0
C3206 C 0.28633 0.35918 0.88312 0.0
C3207 C 0.30306 0.36978 0.88334 0.0
C3208 C 0.32822 0.40468 0.85627 0.0
C3209 C 0.36929 0.43343 0.87323 0.0
C3210 C 0.35605 0.41742 0.87062 0.0
C3211 C 0.3113 0.3761 0.86776 0.0
C3212 C 0.32759 0.38946 0.86803 0.0
H3213 H 0.38265 0.4644 0.90472 0.0
H3214 H 0.36443 0.43527 0.90089 0.0
H3215 H 0.34193 0.43038 0.84871 0.0
H3216 H 0.27943 0.35725 0.83947 0.0
H3217 H 0.30898 0.37514 0.83974 0.0
C3218 C 0.88898 0.03824 0.13177 0.0
C3219 C 0.89242 0.02866 0.11618 0.0
C3220 C 0.87835 0.05496 0.13184 0.0
C3221 C 0.84193 0.07876 0.10535 0.0
H3222 H 0.84695 0.11823 0.13999 0.0
C3223 C 0.78787 0.13926 0.11032 0.0
C3224 C 0.77998 0.14115 0.12692 0.0
C3225 C 0.80448 0.12882 0.10791 0.0
C3226 C 0.84547 0.10733 0.1302 0.0
H3227 H 0.88855 0.02937 0.08839 0.0
H3228 H 0.87069 0.05895 0.08835 0.0
H3229 H 0.87153 0.09396 0.1374 0.0
H3230 H 0.78344 0.13418 0.15405 0.0
H3231 H 0.81253 0.11597 0.14986 0.0
H3232 H 0.8158 0.09198 0.0983 0.0
C3233 C 0.8756 0.05335 0.10061 0.0
C3234 C 0.85947 0.09339 0.12876 0.0
C3235 C 0.88591 0.03649 0.10059 0.0
C3236 C 0.78929 0.13296 0.14113 0.0
C3237 C 0.806 0.12269 0.13875 0.0
C3238 C 0.8281 0.09279 0.10666 0.0
C3239 C 0.87115 0.06249 0.11629 0.0
C3240 C 0.85765 0.07868 0.11656 0.0
C3241 C 0.81352 0.12018 0.12207 0.0
C3242 C 0.82952 0.10696 0.11933 0.0
H3243 H 0.8936 0.0323 0.14399 0.0
H3244 H 0.875 0.06141 0.14419 0.0
H3245 H 0.83978 0.06748 0.09604 0.0
H3246 H 0.78077 0.14508 0.0991 0.0
H3247 H 0.81 0.12708 0.09492 0.0
C3248 C 0.88925 0.53793 0.86186 0.0
C3249 C 0.89124 0.52976 0.87834 0.0
C3250 C 0.87855 0.55441 0.8597 0.0
C3251 C 0.85602 0.59444 0.88272 0.0
H3252 H 0.81683 0.58891 0.84793 0.0
C3253 C 0.78607 0.63654 0.88434 0.0
C3254 C 0.77694 0.64059 0.86865 0.0
C3255 C 0.80286 0.62605 0.88445 0.0
C3256 C 0.8279 0.591 0.85744 0.0
H3257 H 0.88416 0.5326 0.9055 0.0
H3258 H 0.86544 0.56142 0.90174 0.0
H3259 H 0.84178 0.56537 0.84992 0.0
H3260 H 0.77848 0.63784 0.84077 0.0
H3261 H 0.80814 0.62012 0.84085 0.0
H3262 H 0.84195 0.61997 0.89041 0.0
C3263 C 0.87231 0.55523 0.89054 0.0
C3264 C 0.84221 0.57744 0.85859 0.0
C3265 C 0.88287 0.53867 0.89267 0.0
C3266 C 0.78523 0.63472 0.85304 0.0
C3267 C 0.80215 0.62451 0.85312 0.0
C3268 C 0.84179 0.60815 0.88147 0.0
C3269 C 0.86969 0.56302 0.87398 0.0
C3270 C 0.85617 0.5788 0.87146 0.0
C3271 C 0.8109 0.61957 0.86885 0.0
C3272 C 0.82732 0.60637 0.86904 0.0
H3273 H 0.89519 0.53113 0.85053 0.0
H3274 H 0.87675 0.56014 0.84679 0.0
H3275 H 0.86674 0.59588 0.89267 0.0
H3276 H 0.77976 0.64067 0.89655 0.0
H3277 H 0.80902 0.62227 0.89682 0.0
C3278 C 0.11328 0.03838 0.60719 0.0
C3279 C 0.10427 0.02991 0.62143 0.0
C3280 C 0.12367 0.05506 0.60928 0.0
C3281 C 0.1524 0.07817 0.64166 0.0
H3282 H 0.15388 0.11993 0.60903 0.0
C3283 C 0.20942 0.13542 0.64771 0.0
C3284 C 0.21811 0.14111 0.63223 0.0
C3285 C 0.19251 0.12519 0.64737 0.0
C3286 C 0.15371 0.10833 0.61821 0.0
H3287 H 0.09894 0.03222 0.64899 0.0
H3288 H 0.11715 0.0614 0.65266 0.0
H3289 H 0.12917 0.09579 0.60648 0.0
H3290 H 0.21605 0.1408 0.60427 0.0
H3291 H 0.18684 0.12234 0.60355 0.0
H3292 H 0.17742 0.08984 0.65284 0.0
C3293 C 0.11596 0.05524 0.63986 0.0
C3294 C 0.13951 0.09459 0.61678 0.0
C3295 C 0.1054 0.03866 0.63772 0.0
C3296 C 0.20941 0.13682 0.61639 0.0
C3297 C 0.19264 0.1263 0.61601 0.0
C3298 C 0.1667 0.09174 0.64296 0.0
C3299 C 0.12549 0.06339 0.62572 0.0
C3300 C 0.13892 0.07924 0.62834 0.0
C3301 C 0.18418 0.12002 0.6315 0.0
C3302 C 0.16774 0.10683 0.63109 0.0
H3303 H 0.11266 0.03185 0.59451 0.0
H3304 H 0.13107 0.0609 0.59821 0.0
H3305 H 0.15248 0.06632 0.65057 0.0
H3306 H 0.21584 0.13872 0.66009 0.0
H3307 H 0.18619 0.12099 0.65955 0.0
C3308 C 0.60545 0.45878 0.36322 0.0
C3309 C 0.60419 0.46762 0.37947 0.0
C3310 C 0.61615 0.44226 0.36121 0.0
C3311 C 0.63982 0.40319 0.38458 0.0
H3312 H 0.67784 0.40787 0.3486 0.0
C3313 C 0.7097 0.36085 0.38514 0.0
C3314 C 0.71837 0.35647 0.3693 0.0
C3315 C 0.69298 0.37147 0.38551 0.0
C3316 C 0.66709 0.406 0.35846 0.0
H3317 H 0.61245 0.4659 0.40643 0.0
H3318 H 0.63108 0.43696 0.40295 0.0
H3319 H 0.65282 0.43134 0.3507 0.0
H3320 H 0.71609 0.3588 0.34144 0.0
H3321 H 0.68654 0.37668 0.34196 0.0
H3322 H 0.65423 0.37793 0.39247 0.0
C3323 C 0.62371 0.44268 0.39181 0.0
C3324 C 0.65275 0.41953 0.35967 0.0
C3325 C 0.61319 0.45929 0.39378 0.0
C3326 C 0.7097 0.36217 0.35382 0.0
C3327 C 0.69285 0.37249 0.35415 0.0
C3328 C 0.65407 0.38949 0.38325 0.0
C3329 C 0.62567 0.43427 0.37543 0.0
C3330 C 0.63921 0.41848 0.37294 0.0
C3331 C 0.68454 0.37774 0.37001 0.0
C3332 C 0.66812 0.39096 0.37039 0.0
H3333 H 0.59901 0.4651 0.3519 0.0
H3334 H 0.61744 0.43603 0.34845 0.0
H3335 H 0.62943 0.402 0.39486 0.0
H3336 H 0.71631 0.35686 0.39726 0.0
H3337 H 0.6872 0.37548 0.39796 0.0
C3338 C 0.38271 0.95858 0.10892 0.0
C3339 C 0.39129 0.96719 0.1233 0.0
C3340 C 0.37222 0.94195 0.11089 0.0
C3341 C 0.34267 0.91893 0.14279 0.0
H3342 H 0.3423 0.87698 0.11033 0.0
C3343 C 0.28619 0.86111 0.14811 0.0
C3344 C 0.27777 0.8554 0.13252 0.0
C3345 C 0.30301 0.87148 0.148 0.0
C3346 C 0.34216 0.88863 0.11945 0.0
H3347 H 0.3957 0.96522 0.15102 0.0
H3348 H 0.37737 0.93609 0.15448 0.0
H3349 H 0.36689 0.90128 0.10816 0.0
H3350 H 0.28027 0.85577 0.10459 0.0
H3351 H 0.30935 0.87444 0.10426 0.0
H3352 H 0.3175 0.9071 0.15354 0.0
C3353 C 0.37895 0.94211 0.14166 0.0
C3354 C 0.35629 0.90247 0.11825 0.0
C3355 C 0.38959 0.95866 0.13965 0.0
C3356 C 0.28668 0.85977 0.11679 0.0
C3357 C 0.30338 0.87042 0.11664 0.0
C3358 C 0.32847 0.90525 0.14388 0.0
C3359 C 0.36989 0.9338 0.12735 0.0
C3360 C 0.35648 0.9179 0.12975 0.0
C3361 C 0.31154 0.87674 0.13225 0.0
C3362 C 0.32784 0.89008 0.13206 0.0
H3363 H 0.38378 0.96494 0.09619 0.0
H3364 H 0.36519 0.93599 0.09968 0.0
H3365 H 0.34228 0.93083 0.15164 0.0
H3366 H 0.27961 0.85775 0.16041 0.0
H3367 H 0.3091 0.87573 0.16027 0.0
C3368 C 0.78912 0.36272 0.64343 0.0
C3369 C 0.78022 0.35394 0.62929 0.0
C3370 C 0.80577 0.37309 0.64108 0.0
C3371 C 0.82809 0.40227 0.60857 0.0
H3372 H 0.87099 0.40271 0.63995 0.0
C3373 C 0.88555 0.45892 0.60163 0.0
C3374 C 0.89193 0.46725 0.61704 0.0
C3375 C 0.87523 0.44206 0.60203 0.0
C3376 C 0.85907 0.40285 0.63113 0.0
H3377 H 0.78171 0.34905 0.60162 0.0
H3378 H 0.81083 0.36724 0.59748 0.0
H3379 H 0.84668 0.37821 0.64286 0.0
H3380 H 0.89281 0.46455 0.64494 0.0
H3381 H 0.8742 0.43545 0.6458 0.0
H3382 H 0.83961 0.42737 0.59743 0.0
C3383 C 0.80504 0.36587 0.61041 0.0
C3384 C 0.84523 0.38876 0.63275 0.0
C3385 C 0.7885 0.35531 0.61281 0.0
C3386 C 0.8883 0.4582 0.63286 0.0
C3387 C 0.87767 0.44149 0.63331 0.0
C3388 C 0.84175 0.41645 0.60708 0.0
C3389 C 0.81363 0.37514 0.62447 0.0
C3390 C 0.82948 0.38852 0.62164 0.0
C3391 C 0.87065 0.43342 0.61791 0.0
C3392 C 0.85728 0.41712 0.6185 0.0
H3393 H 0.78296 0.36191 0.65626 0.0
H3394 H 0.81196 0.38028 0.6521 0.0
H3395 H 0.81594 0.40262 0.60001 0.0
H3396 H 0.88833 0.46561 0.58926 0.0
H3397 H 0.87047 0.43605 0.58988 0.0
C3398 C 0.28891 0.1326 0.36022 0.0
C3399 C 0.27969 0.14072 0.37451 0.0
C3400 C 0.30567 0.1224 0.36244 0.0
C3401 C 0.32826 0.0925 0.39425 0.0
H3402 H 0.37137 0.09406 0.36312 0.0
C3403 C 0.38642 0.03647 0.39957 0.0
C3404 C 0.39283 0.02877 0.38389 0.0
C3405 C 0.37602 0.05328 0.39971 0.0
C3406 C 0.3594 0.09338 0.37187 0.0
H3407 H 0.28069 0.1446 0.40233 0.0
H3408 H 0.31003 0.12667 0.40625 0.0
H3409 H 0.34662 0.1182 0.36085 0.0
H3410 H 0.39381 0.03258 0.3561 0.0
H3411 H 0.37504 0.0616 0.35618 0.0
H3412 H 0.34019 0.06722 0.40466 0.0
C3413 C 0.30439 0.12843 0.39331 0.0
C3414 C 0.3453 0.10725 0.37061 0.0
C3415 C 0.28772 0.13882 0.39105 0.0
C3416 C 0.38924 0.03843 0.36838 0.0
C3417 C 0.37853 0.0551 0.36847 0.0
C3418 C 0.34218 0.07854 0.39538 0.0
C3419 C 0.31335 0.11987 0.37905 0.0
C3420 C 0.32946 0.10674 0.38162 0.0
C3421 C 0.37139 0.06249 0.38411 0.0
C3422 C 0.35779 0.0786 0.38402 0.0
H3423 H 0.28294 0.13384 0.34734 0.0
H3424 H 0.31214 0.11574 0.35126 0.0
H3425 H 0.31605 0.09159 0.40272 0.0
H3426 H 0.38918 0.02929 0.41171 0.0
H3427 H 0.37119 0.05878 0.41203 0.0
C3428 C 0.70844 0.63261 0.14247 0.0
C3429 C 0.71733 0.6411 0.12819 0.0
C3430 C 0.69182 0.62215 0.14028 0.0
C3431 C 0.66929 0.59254 0.10811 0.0
H3432 H 0.62681 0.59235 0.13999 0.0
C3433 C 0.61151 0.53609 0.10219 0.0
C3434 C 0.6056 0.52771 0.11774 0.0
C3435 C 0.62187 0.55292 0.10238 0.0
C3436 C 0.63861 0.59217 0.13103 0.0
H3437 H 0.7159 0.64537 0.10042 0.0
H3438 H 0.68679 0.62711 0.09659 0.0
H3439 H 0.65113 0.6169 0.14244 0.0
H3440 H 0.60562 0.53028 0.14567 0.0
H3441 H 0.62424 0.55939 0.14613 0.0
H3442 H 0.65758 0.56738 0.09725 0.0
C3443 C 0.69258 0.62873 0.1095 0.0
C3444 C 0.65246 0.60627 0.13239 0.0
C3445 C 0.70911 0.63933 0.11172 0.0
C3446 C 0.60976 0.53667 0.13349 0.0
C3447 C 0.62039 0.55338 0.13372 0.0
C3448 C 0.6556 0.57837 0.10686 0.0
C3449 C 0.68397 0.61977 0.12371 0.0
C3450 C 0.66807 0.60639 0.12111 0.0
C3451 C 0.6269 0.5615 0.11817 0.0
C3452 C 0.64025 0.57781 0.11847 0.0
H3453 H 0.71456 0.63373 0.15529 0.0
H3454 H 0.68563 0.61519 0.15143 0.0
H3455 H 0.68133 0.5921 0.09942 0.0
H3456 H 0.60833 0.52947 0.08987 0.0
H3457 H 0.62629 0.55898 0.09015 0.0
C3458 C 0.11299 0.95828 0.89293 0.0
C3459 C 0.10396 0.96675 0.87871 0.0
C3460 C 0.12353 0.94171 0.8908 0.0
C3461 C 0.15262 0.91904 0.85843 0.0
H3462 H 0.15436 0.87716 0.89091 0.0
C3463 C 0.2102 0.86231 0.85241 0.0
C3464 C 0.21885 0.85662 0.8679 0.0
C3465 C 0.19322 0.87244 0.85272 0.0
C3466 C 0.15413 0.8888 0.88178 0.0
H3467 H 0.09875 0.96454 0.85112 0.0
H3468 H 0.11723 0.93553 0.84738 0.0
H3469 H 0.12939 0.90102 0.89346 0.0
H3470 H 0.21665 0.85682 0.89585 0.0
H3471 H 0.18732 0.87509 0.89652 0.0
H3472 H 0.17781 0.90768 0.84731 0.0
C3473 C 0.11594 0.94161 0.86021 0.0
C3474 C 0.13977 0.90238 0.8832 0.0
C3475 C 0.10522 0.95809 0.86238 0.0
C3476 C 0.21005 0.8608 0.88372 0.0
C3477 C 0.19321 0.87122 0.88407 0.0
C3478 C 0.16706 0.90563 0.85713 0.0
C3479 C 0.12549 0.93349 0.87434 0.0
C3480 C 0.13908 0.91778 0.87169 0.0
C3481 C 0.18477 0.87748 0.86857 0.0
C3482 C 0.1682 0.89051 0.86896 0.0
H3483 H 0.11226 0.96474 0.90564 0.0
H3484 H 0.13094 0.93589 0.90187 0.0
H3485 H 0.15262 0.93094 0.84956 0.0
H3486 H 0.21669 0.85909 0.84004 0.0
H3487 H 0.18693 0.87664 0.84052 0.0
loop_
_geom_bond_atom_site_label_1
_geom_bond_atom_site_label_2
_geom_bond_distance
_geom_bond_site_symmetry_2
_ccdc_geom_bond_type
Co0 O3 1.970 . S
Co0 N17 1.989 . S
Co0 O25 1.967 . S
Co0 O32 1.920 . S
Co1 O4 1.966 . S
Co1 N10 2.022 . S
Co1 N18 1.993 . S
Co1 O26 1.941 . S
C2 O3 1.258 . S
C2 O4 1.263 . S
O3 Co0 1.970 . S
O3 C2 1.258 . S
O4 Co1 1.966 . S
O4 C2 1.263 . S
C5 O6 1.235 . S
C5 O32 1.289 . S
O6 C5 1.235 . S
C7 C9 1.400 . S
C7 N10 1.351 . S
C7 C12 1.501 . S
C8 C9 1.387 . S
C8 N11 1.341 . S
C9 C7 1.400 . S
C9 C8 1.387 . S
N10 Co1 2.022 . S
N10 C7 1.351 . S
N10 N11 1.365 . S
N11 C8 1.341 . S
N11 N10 1.365 . S
N11 H31 0.862 . S
C12 C7 1.501 . S
C12 H13 0.961 . S
C12 H14 0.961 . S
C12 H15 0.960 . S
H13 C12 0.961 . S
H14 C12 0.961 . S
H15 C12 0.960 . S
C16 N17 1.342 . S
C16 C20 1.401 . S
C16 C21 1.499 . S
N17 Co0 1.989 . S
N17 C16 1.342 . S
N17 N18 1.388 . S
N18 Co1 1.993 . S
N18 N17 1.388 . S
N18 C19 1.346 . S
C19 N18 1.346 . S
C19 C20 1.396 . S
C19 C29 1.510 . S
C20 C16 1.401 . S
C20 C19 1.396 . S
C21 C16 1.499 . S
C21 H22 0.959 . S
C21 H23 0.960 . S
C21 H24 0.961 . S
H22 C21 0.959 . S
H23 C21 0.960 . S
H24 C21 0.961 . S
O25 Co0 1.967 . S
O25 C33 1.258 . S
O26 Co1 1.941 . S
O26 C33 1.266 . S
H27 C29 0.959 . S
H28 C29 0.961 . S
C29 C19 1.510 . S
C29 H27 0.959 . S
C29 H28 0.961 . S
C29 H30 0.960 . S
H30 C29 0.960 . S
H31 N11 0.862 . S
O32 Co0 1.920 . S
O32 C5 1.289 . S
C33 O25 1.258 . S
C33 O26 1.266 . S
Co34 O37 1.970 . S
Co34 N51 1.989 . S
Co34 O59 1.967 . S
Co34 O66 1.920 . S
Co35 O38 1.966 . S
Co35 N44 2.022 . S
Co35 N52 1.993 . S
Co35 O60 1.941 . S
C36 O37 1.258 . S
C36 O38 1.263 . S
O37 Co34 1.970 . S
O37 C36 1.258 . S
O38 Co35 1.966 . S
O38 C36 1.263 . S
C39 O40 1.235 . S
C39 O66 1.289 1_455 S
O40 C39 1.235 . S
C41 C43 1.400 . S
C41 N44 1.351 1_565 S
C41 C46 1.501 . S
C42 C43 1.387 . S
C42 N45 1.341 1_565 S
C43 C41 1.400 . S
C43 C42 1.387 . S
N44 Co35 2.022 . S
N44 C41 1.351 1_545 S
N44 N45 1.365 . S
N45 C42 1.341 1_545 S
N45 N44 1.365 . S
N45 H65 0.862 . S
C46 C41 1.501 . S
C46 H47 0.961 . S
C46 H48 0.961 . S
C46 H49 0.960 . S
H47 C46 0.961 . S
H48 C46 0.961 . S
H49 C46 0.960 . S
C50 N51 1.342 . S
C50 C54 1.401 . S
C50 C55 1.499 1_655 S
N51 Co34 1.989 . S
N51 C50 1.342 . S
N51 N52 1.388 . S
N52 Co35 1.993 . S
N52 N51 1.388 . S
N52 C53 1.346 . S
C53 N52 1.346 . S
C53 C54 1.396 . S
C53 C63 1.510 1_545 S
C54 C50 1.401 . S
C54 C53 1.396 . S
C55 C50 1.499 1_455 S
C55 H56 0.959 . S
C55 H57 0.960 . S
C55 H58 0.961 . S
H56 C55 0.959 . S
H57 C55 0.960 . S
H58 C55 0.961 . S
O59 Co34 1.967 . S
O59 C67 1.258 . S
O60 Co35 1.941 . S
O60 C67 1.266 . S
H61 C63 0.948 1_545 S
H62 C63 0.961 . S
C63 C53 1.510 1_565 S
C63 H61 0.948 1_565 S
C63 H62 0.961 . S
C63 H64 0.960 . S
H64 C63 0.960 . S
H65 N45 0.862 . S
O66 Co34 1.920 . S
O66 C39 1.289 1_655 S
C67 O59 1.258 . S
C67 O60 1.266 . S
Co68 O71 1.970 . S
Co68 N85 1.989 . S
Co68 O93 1.967 . S
Co68 O100 1.920 . S
Co69 O72 1.966 . S
Co69 N78 2.022 . S
Co69 N86 1.993 . S
Co69 O94 1.941 . S
C70 O71 1.258 . S
C70 O72 1.263 . S
O71 Co68 1.970 . S
O71 C70 1.258 . S
O72 Co69 1.966 . S
O72 C70 1.263 . S
C73 O74 1.235 . S
C73 O100 1.289 . S
O74 C73 1.235 . S
C75 C77 1.400 . S
C75 N78 1.351 . S
C75 C80 1.501 . S
C76 C77 1.387 . S
C76 N79 1.341 . S
C77 C75 1.400 . S
C77 C76 1.387 . S
N78 Co69 2.022 . S
N78 C75 1.351 . S
N78 N79 1.365 . S
N79 C76 1.341 . S
N79 N78 1.365 . S
N79 H99 0.862 . S
C80 C75 1.501 . S
C80 H81 0.961 . S
C80 H82 0.961 . S
C80 H83 0.960 . S
H81 C80 0.961 . S
H82 C80 0.961 . S
H83 C80 0.960 . S
C84 N85 1.342 . S
C84 C88 1.401 . S
C84 C89 1.499 . S
N85 Co68 1.989 . S
N85 C84 1.342 . S
N85 N86 1.388 . S
N86 Co69 1.993 . S
N86 N85 1.388 . S
N86 C87 1.346 . S
C87 N86 1.346 . S
C87 C88 1.396 . S
C87 C97 1.510 . S
C88 C84 1.401 . S
C88 C87 1.396 . S
C89 C84 1.499 . S
C89 H90 0.959 . S
C89 H91 0.960 . S
C89 H92 0.961 . S
H90 C89 0.959 . S
H91 C89 0.960 . S
H92 C89 0.961 . S
O93 Co68 1.967 . S
O93 C101 1.258 . S
O94 Co69 1.941 . S
O94 C101 1.266 . S
H95 C97 0.959 . S
H96 C97 0.961 . S
C97 C87 1.510 . S
C97 H95 0.959 . S
C97 H96 0.961 . S
C97 H98 0.960 . S
H98 C97 0.960 . S
H99 N79 0.862 . S
O100 Co68 1.920 . S
O100 C73 1.289 . S
C101 O93 1.258 . S
C101 O94 1.266 . S
Co102 O105 1.970 . S
Co102 N119 1.989 . S
Co102 O127 1.967 . S
Co102 O134 1.920 . S
Co103 O106 1.966 . S
Co103 N112 2.022 . S
Co103 N120 1.993 . S
Co103 O128 1.941 . S
C104 O105 1.258 . S
C104 O106 1.263 . S
O105 Co102 1.970 . S
O105 C104 1.258 . S
O106 Co103 1.966 . S
O106 C104 1.263 . S
C107 O108 1.235 . S
C107 O134 1.289 . S
O108 C107 1.235 . S
C109 C111 1.400 . S
C109 N112 1.351 1_545 S
C109 C114 1.501 . S
C110 C111 1.387 . S
C110 N113 1.341 1_545 S
C111 C109 1.400 . S
C111 C110 1.387 . S
N112 Co103 2.022 . S
N112 C109 1.351 1_565 S
N112 N113 1.365 . S
N113 C110 1.341 1_565 S
N113 N112 1.365 . S
N113 H133 0.862 . S
C114 C109 1.501 . S
C114 H115 0.961 . S
C114 H116 0.961 . S
C114 H117 0.960 . S
H115 C114 0.961 . S
H116 C114 0.961 . S
H117 C114 0.960 . S
C118 N119 1.342 . S
C118 C122 1.401 . S
C118 C123 1.499 . S
N119 Co102 1.989 . S
N119 C118 1.342 . S
N119 N120 1.388 . S
N120 Co103 1.993 . S
N120 N119 1.388 . S
N120 C121 1.346 . S
C121 N120 1.346 . S
C121 C122 1.396 . S
C121 C131 1.510 1_565 S
C122 C118 1.401 . S
C122 C121 1.396 . S
C123 C118 1.499 . S
C123 H124 0.959 . S
C123 H125 0.960 . S
C123 H126 0.961 . S
H124 C123 0.959 . S
H125 C123 0.960 . S
H126 C123 0.961 . S
O127 Co102 1.967 . S
O127 C135 1.258 . S
O128 Co103 1.941 . S
O128 C135 1.266 . S
H129 C131 0.948 1_565 S
H130 C131 0.961 . S
C131 C121 1.510 1_545 S
C131 H129 0.948 1_545 S
C131 H130 0.961 . S
C131 H132 0.960 . S
H132 C131 0.960 . S
H133 N113 0.862 . S
O134 Co102 1.920 . S
O134 C107 1.289 . S
C135 O127 1.258 . S
C135 O128 1.266 . S
Co136 O139 1.970 . S
Co136 N153 1.989 . S
Co136 O161 1.967 . S
Co136 O168 1.920 . S
Co137 O140 1.966 . S
Co137 N146 2.022 . S
Co137 N154 1.993 . S
Co137 O162 1.941 . S
C138 O139 1.258 . S
C138 O140 1.263 . S
O139 Co136 1.970 . S
O139 C138 1.258 . S
O140 Co137 1.966 . S
O140 C138 1.263 . S
C141 O142 1.235 . S
C141 O168 1.289 . S
O142 C141 1.235 . S
C143 C145 1.400 . S
C143 N146 1.351 . S
C143 C148 1.501 . S
C144 C145 1.387 . S
C144 N147 1.341 . S
C145 C143 1.400 . S
C145 C144 1.387 . S
N146 Co137 2.022 . S
N146 C143 1.351 . S
N146 N147 1.365 . S
N147 C144 1.341 . S
N147 N146 1.365 . S
N147 H167 0.862 . S
C148 C143 1.501 . S
C148 H149 0.961 . S
C148 H150 0.961 . S
C148 H151 0.960 . S
H149 C148 0.961 . S
H150 C148 0.961 . S
H151 C148 0.960 . S
C152 N153 1.342 . S
C152 C156 1.401 . S
C152 C157 1.499 . S
N153 Co136 1.989 . S
N153 C152 1.342 . S
N153 N154 1.388 . S
N154 Co137 1.993 . S
N154 N153 1.388 . S
N154 C155 1.346 . S
C155 N154 1.346 . S
C155 C156 1.396 . S
C155 C165 1.510 . S
C156 C152 1.401 . S
C156 C155 1.396 . S
C157 C152 1.499 . S
C157 H158 0.959 . S
C157 H159 0.960 . S
C157 H160 0.961 . S
H158 C157 0.959 . S
H159 C157 0.960 . S
H160 C157 0.961 . S
O161 Co136 1.967 . S
O161 C169 1.258 . S
O162 Co137 1.941 . S
O162 C169 1.266 . S
H163 C165 0.959 . S
H164 C165 0.961 . S
C165 C155 1.510 . S
C165 H163 0.959 . S
C165 H164 0.961 . S
C165 H166 0.960 . S
H166 C165 0.960 . S
H167 N147 0.862 . S
O168 Co136 1.920 . S
O168 C141 1.289 . S
C169 O161 1.258 . S
C169 O162 1.266 . S
Co170 O173 1.970 . S
Co170 N187 1.989 . S
Co170 O195 1.967 . S
Co170 O202 1.920 . S
Co171 O174 1.966 . S
Co171 N180 2.022 . S
Co171 N188 1.993 . S
Co171 O196 1.941 . S
C172 O173 1.258 . S
C172 O174 1.263 . S
O173 Co170 1.970 . S
O173 C172 1.258 . S
O174 Co171 1.966 . S
O174 C172 1.263 . S
C175 O176 1.235 . S
C175 O202 1.289 . S
O176 C175 1.235 . S
C177 C179 1.400 . S
C177 N180 1.351 1_565 S
C177 C182 1.501 . S
C178 C179 1.387 . S
C178 N181 1.341 1_565 S
C179 C177 1.400 . S
C179 C178 1.387 . S
N180 Co171 2.022 . S
N180 C177 1.351 1_545 S
N180 N181 1.365 . S
N181 C178 1.341 1_545 S
N181 N180 1.365 . S
N181 H201 0.862 . S
C182 C177 1.501 . S
C182 H183 0.961 . S
C182 H184 0.961 . S
C182 H185 0.960 . S
H183 C182 0.961 . S
H184 C182 0.961 . S
H185 C182 0.960 . S
C186 N187 1.342 . S
C186 C190 1.401 . S
C186 C191 1.499 . S
N187 Co170 1.989 . S
N187 C186 1.342 . S
N187 N188 1.388 . S
N188 Co171 1.993 . S
N188 N187 1.388 . S
N188 C189 1.346 . S
C189 N188 1.346 . S
C189 C190 1.396 . S
C189 C199 1.510 1_545 S
C190 C186 1.401 . S
C190 C189 1.396 . S
C191 C186 1.499 . S
C191 H192 0.959 . S
C191 H193 0.960 . S
C191 H194 0.961 . S
H192 C191 0.959 . S
H193 C191 0.960 . S
H194 C191 0.961 . S
O195 Co170 1.967 . S
O195 C203 1.258 . S
O196 Co171 1.941 . S
O196 C203 1.266 . S
H197 C199 0.948 1_545 S
H198 C199 0.961 . S
C199 C189 1.510 1_565 S
C199 H197 0.948 1_565 S
C199 H198 0.961 . S
C199 H200 0.960 . S
H200 C199 0.960 . S
H201 N181 0.862 . S
O202 Co170 1.920 . S
O202 C175 1.289 . S
C203 O195 1.258 . S
C203 O196 1.266 . S
Co204 O207 1.970 . S
Co204 N221 1.989 . S
Co204 O229 1.967 . S
Co204 O236 1.920 . S
Co205 O208 1.966 . S
Co205 N214 2.022 . S
Co205 N222 1.993 . S
Co205 O230 1.941 . S
C206 O207 1.258 . S
C206 O208 1.263 . S
O207 Co204 1.970 . S
O207 C206 1.258 . S
O208 Co205 1.966 . S
O208 C206 1.263 . S
C209 O210 1.235 . S
C209 O236 1.289 . S
O210 C209 1.235 . S
C211 C213 1.400 . S
C211 N214 1.351 . S
C211 C216 1.501 . S
C212 C213 1.387 . S
C212 N215 1.341 . S
C213 C211 1.400 . S
C213 C212 1.387 . S
N214 Co205 2.022 . S
N214 C211 1.351 . S
N214 N215 1.365 . S
N215 C212 1.341 . S
N215 N214 1.365 . S
N215 H235 0.862 . S
C216 C211 1.501 . S
C216 H217 0.961 . S
C216 H218 0.961 . S
C216 H219 0.960 . S
H217 C216 0.961 . S
H218 C216 0.961 . S
H219 C216 0.960 . S
C220 N221 1.342 . S
C220 C224 1.401 . S
C220 C225 1.499 . S
N221 Co204 1.989 . S
N221 C220 1.342 . S
N221 N222 1.388 . S
N222 Co205 1.993 . S
N222 N221 1.388 . S
N222 C223 1.346 . S
C223 N222 1.346 . S
C223 C224 1.396 . S
C223 C233 1.510 . S
C224 C220 1.401 . S
C224 C223 1.396 . S
C225 C220 1.499 . S
C225 H226 0.959 . S
C225 H227 0.960 . S
C225 H228 0.961 . S
H226 C225 0.959 . S
H227 C225 0.960 . S
H228 C225 0.961 . S
O229 Co204 1.967 . S
O229 C237 1.258 . S
O230 Co205 1.941 . S
O230 C237 1.266 . S
H231 C233 0.959 . S
H232 C233 0.961 . S
C233 C223 1.510 . S
C233 H231 0.959 . S
C233 H232 0.961 . S
C233 H234 0.960 . S
H234 C233 0.960 . S
H235 N215 0.862 . S
O236 Co204 1.920 . S
O236 C209 1.289 . S
C237 O229 1.258 . S
C237 O230 1.266 . S
Co238 O241 1.970 . S
Co238 N255 1.989 . S
Co238 O263 1.967 . S
Co238 O270 1.920 . S
Co239 O242 1.966 . S
Co239 N248 2.022 . S
Co239 N256 1.993 . S
Co239 O264 1.941 . S
C240 O241 1.258 . S
C240 O242 1.263 . S
O241 Co238 1.970 . S
O241 C240 1.258 . S
O242 Co239 1.966 . S
O242 C240 1.263 . S
C243 O244 1.235 . S
C243 O270 1.289 1_455 S
O244 C243 1.235 . S
C245 C247 1.400 . S
C245 N248 1.351 1_545 S
C245 C250 1.501 . S
C246 C247 1.387 . S
C246 N249 1.341 1_545 S
C247 C245 1.400 . S
C247 C246 1.387 . S
N248 Co239 2.022 . S
N248 C245 1.351 1_565 S
N248 N249 1.365 . S
N249 C246 1.341 1_565 S
N249 N248 1.365 . S
N249 H269 0.862 . S
C250 C245 1.501 . S
C250 H251 0.961 . S
C250 H252 0.961 . S
C250 H253 0.960 . S
H251 C250 0.961 . S
H252 C250 0.961 . S
H253 C250 0.960 . S
C254 N255 1.342 . S
C254 C258 1.401 . S
C254 C259 1.499 1_655 S
N255 Co238 1.989 . S
N255 C254 1.342 . S
N255 N256 1.388 . S
N256 Co239 1.993 . S
N256 N255 1.388 . S
N256 C257 1.346 . S
C257 N256 1.346 . S
C257 C258 1.396 . S
C257 C267 1.510 1_565 S
C258 C254 1.401 . S
C258 C257 1.396 . S
C259 C254 1.499 1_455 S
C259 H260 0.959 . S
C259 H261 0.960 . S
C259 H262 0.961 . S
H260 C259 0.959 . S
H261 C259 0.960 . S
H262 C259 0.961 . S
O263 Co238 1.967 . S
O263 C271 1.258 . S
O264 Co239 1.941 . S
O264 C271 1.266 . S
H265 C267 0.948 1_565 S
H266 C267 0.961 . S
C267 C257 1.510 1_545 S
C267 H265 0.948 1_545 S
C267 H266 0.961 . S
C267 H268 0.960 . S
H268 C267 0.960 . S
H269 N249 0.862 . S
O270 Co238 1.920 . S
O270 C243 1.289 1_655 S
C271 O263 1.258 . S
C271 O264 1.266 . S
Co272 O275 1.970 . S
Co272 N289 1.989 . S
Co272 O297 1.967 . S
Co272 O304 1.920 . S
Co273 O276 1.966 . S
Co273 N282 2.022 . S
Co273 N290 1.993 . S
Co273 O298 1.941 . S
C274 O275 1.258 . S
C274 O276 1.263 . S
O275 Co272 1.970 . S
O275 C274 1.258 . S
O276 Co273 1.966 . S
O276 C274 1.263 . S
C277 O278 1.235 . S
C277 O304 1.289 . S
O278 C277 1.235 . S
C279 C281 1.400 . S
C279 N282 1.351 . S
C279 C284 1.501 . S
C280 C281 1.387 . S
C280 N283 1.341 . S
C281 C279 1.400 . S
C281 C280 1.387 . S
N282 Co273 2.022 . S
N282 C279 1.351 . S
N282 N283 1.365 . S
N283 C280 1.341 . S
N283 N282 1.365 . S
N283 H303 0.862 . S
C284 C279 1.501 . S
C284 H285 0.961 . S
C284 H286 0.961 . S
C284 H287 0.960 . S
H285 C284 0.961 . S
H286 C284 0.961 . S
H287 C284 0.960 . S
C288 N289 1.342 . S
C288 C292 1.401 . S
C288 C293 1.499 . S
N289 Co272 1.989 . S
N289 C288 1.342 . S
N289 N290 1.388 . S
N290 Co273 1.993 . S
N290 N289 1.388 . S
N290 C291 1.346 . S
C291 N290 1.346 . S
C291 C292 1.396 . S
C291 C301 1.510 . S
C292 C288 1.401 . S
C292 C291 1.396 . S
C293 C288 1.499 . S
C293 H294 0.959 . S
C293 H295 0.960 . S
C293 H296 0.961 . S
H294 C293 0.959 . S
H295 C293 0.960 . S
H296 C293 0.961 . S
O297 Co272 1.967 . S
O297 C305 1.258 . S
O298 Co273 1.941 . S
O298 C305 1.266 . S
H299 C301 0.959 . S
H300 C301 0.961 . S
C301 C291 1.510 . S
C301 H299 0.959 . S
C301 H300 0.961 . S
C301 H302 0.960 . S
H302 C301 0.960 . S
H303 N283 0.862 . S
O304 Co272 1.920 . S
O304 C277 1.289 . S
C305 O297 1.258 . S
C305 O298 1.266 . S
Co306 O309 1.970 . S
Co306 N323 1.989 . S
Co306 O331 1.967 . S
Co306 O338 1.920 . S
Co307 O310 1.966 . S
Co307 N316 2.022 . S
Co307 N324 1.993 . S
Co307 O332 1.941 . S
C308 O309 1.258 . S
C308 O310 1.263 . S
O309 Co306 1.970 . S
O309 C308 1.258 . S
O310 Co307 1.966 . S
O310 C308 1.263 . S
C311 O312 1.235 . S
C311 O338 1.289 1_655 S
O312 C311 1.235 . S
C313 C315 1.400 . S
C313 N316 1.351 1_545 S
C313 C318 1.501 . S
C314 C315 1.387 . S
C314 N317 1.341 1_545 S
C315 C313 1.400 . S
C315 C314 1.387 . S
N316 Co307 2.022 . S
N316 C313 1.351 1_565 S
N316 N317 1.365 . S
N317 C314 1.341 1_565 S
N317 N316 1.365 . S
N317 H337 0.862 . S
C318 C313 1.501 . S
C318 H319 0.961 . S
C318 H320 0.961 . S
C318 H321 0.960 . S
H319 C318 0.961 . S
H320 C318 0.961 . S
H321 C318 0.960 . S
C322 N323 1.342 . S
C322 C326 1.401 . S
C322 C327 1.499 1_455 S
N323 Co306 1.989 . S
N323 C322 1.342 . S
N323 N324 1.388 . S
N324 Co307 1.993 . S
N324 N323 1.388 . S
N324 C325 1.346 . S
C325 N324 1.346 . S
C325 C326 1.396 . S
C325 C335 1.510 1_565 S
C326 C322 1.401 . S
C326 C325 1.396 . S
C327 C322 1.499 1_655 S
C327 H328 0.959 . S
C327 H329 0.960 . S
C327 H330 0.961 . S
H328 C327 0.959 . S
H329 C327 0.960 . S
H330 C327 0.961 . S
O331 Co306 1.967 . S
O331 C339 1.258 . S
O332 Co307 1.941 . S
O332 C339 1.266 . S
H333 C335 0.948 1_565 S
H334 C335 0.961 . S
C335 C325 1.510 1_545 S
C335 H333 0.948 1_545 S
C335 H334 0.961 . S
C335 H336 0.960 . S
H336 C335 0.960 . S
H337 N317 0.862 . S
O338 Co306 1.920 . S
O338 C311 1.289 1_455 S
C339 O331 1.258 . S
C339 O332 1.266 . S
Co340 O343 1.970 . S
Co340 N357 1.989 . S
Co340 O365 1.967 . S
Co340 O372 1.920 . S
Co341 O344 1.966 . S
Co341 N350 2.022 . S
Co341 N358 1.993 . S
Co341 O366 1.941 . S
C342 O343 1.258 . S
C342 O344 1.263 . S
O343 Co340 1.970 . S
O343 C342 1.258 . S
O344 Co341 1.966 . S
O344 C342 1.263 . S
C345 O346 1.235 . S
C345 O372 1.289 . S
O346 C345 1.235 . S
C347 C349 1.400 . S
C347 N350 1.351 . S
C347 C352 1.501 . S
C348 C349 1.387 . S
C348 N351 1.341 . S
C349 C347 1.400 . S
C349 C348 1.387 . S
N350 Co341 2.022 . S
N350 C347 1.351 . S
N350 N351 1.365 . S
N351 C348 1.341 . S
N351 N350 1.365 . S
N351 H371 0.862 . S
C352 C347 1.501 . S
C352 H353 0.961 . S
C352 H354 0.961 . S
C352 H355 0.960 . S
H353 C352 0.961 . S
H354 C352 0.961 . S
H355 C352 0.960 . S
C356 N357 1.342 . S
C356 C360 1.401 . S
C356 C361 1.499 . S
N357 Co340 1.989 . S
N357 C356 1.342 . S
N357 N358 1.388 . S
N358 Co341 1.993 . S
N358 N357 1.388 . S
N358 C359 1.346 . S
C359 N358 1.346 . S
C359 C360 1.396 . S
C359 C369 1.510 . S
C360 C356 1.401 . S
C360 C359 1.396 . S
C361 C356 1.499 . S
C361 H362 0.959 . S
C361 H363 0.960 . S
C361 H364 0.961 . S
H362 C361 0.959 . S
H363 C361 0.960 . S
H364 C361 0.961 . S
O365 Co340 1.967 . S
O365 C373 1.258 . S
O366 Co341 1.941 . S
O366 C373 1.266 . S
H367 C369 0.959 . S
H368 C369 0.961 . S
C369 C359 1.510 . S
C369 H367 0.959 . S
C369 H368 0.961 . S
C369 H370 0.960 . S
H370 C369 0.960 . S
H371 N351 0.862 . S
O372 Co340 1.920 . S
O372 C345 1.289 . S
C373 O365 1.258 . S
C373 O366 1.266 . S
Co374 O377 1.970 . S
Co374 N391 1.989 . S
Co374 O399 1.967 . S
Co374 O406 1.920 . S
Co375 O378 1.966 . S
Co375 N384 2.022 . S
Co375 N392 1.993 . S
Co375 O400 1.941 . S
C376 O377 1.258 . S
C376 O378 1.263 . S
O377 Co374 1.970 . S
O377 C376 1.258 . S
O378 Co375 1.966 . S
O378 C376 1.263 . S
C379 O380 1.235 . S
C379 O406 1.289 . S
O380 C379 1.235 . S
C381 C383 1.400 . S
C381 N384 1.351 1_565 S
C381 C386 1.501 . S
C382 C383 1.387 . S
C382 N385 1.341 1_565 S
C383 C381 1.400 . S
C383 C382 1.387 . S
N384 Co375 2.022 . S
N384 C381 1.351 1_545 S
N384 N385 1.365 . S
N385 C382 1.341 1_545 S
N385 N384 1.365 . S
N385 H405 0.862 . S
C386 C381 1.501 . S
C386 H387 0.961 . S
C386 H388 0.961 . S
C386 H389 0.960 . S
H387 C386 0.961 . S
H388 C386 0.961 . S
H389 C386 0.960 . S
C390 N391 1.342 . S
C390 C394 1.401 . S
C390 C395 1.499 . S
N391 Co374 1.989 . S
N391 C390 1.342 . S
N391 N392 1.388 . S
N392 Co375 1.993 . S
N392 N391 1.388 . S
N392 C393 1.346 . S
C393 N392 1.346 . S
C393 C394 1.396 . S
C393 C403 1.510 1_545 S
C394 C390 1.401 . S
C394 C393 1.396 . S
C395 C390 1.499 . S
C395 H396 0.959 . S
C395 H397 0.960 . S
C395 H398 0.961 . S
H396 C395 0.959 . S
H397 C395 0.960 . S
H398 C395 0.961 . S
O399 Co374 1.967 . S
O399 C407 1.258 . S
O400 Co375 1.941 . S
O400 C407 1.266 . S
H401 C403 0.948 1_545 S
H402 C403 0.961 . S
C403 C393 1.510 1_565 S
C403 H401 0.948 1_565 S
C403 H402 0.961 . S
C403 H404 0.960 . S
H404 C403 0.960 . S
H405 N385 0.862 . S
O406 Co374 1.920 . S
O406 C379 1.289 . S
C407 O399 1.258 . S
C407 O400 1.266 . S
Co408 O411 1.970 . S
Co408 N425 1.989 . S
Co408 O433 1.967 . S
Co408 O440 1.920 . S
Co409 O412 1.966 . S
Co409 N418 2.022 . S
Co409 N426 1.993 . S
Co409 O434 1.941 . S
C410 O411 1.258 . S
C410 O412 1.263 . S
O411 Co408 1.970 . S
O411 C410 1.258 . S
O412 Co409 1.966 . S
O412 C410 1.263 . S
C413 O414 1.235 . S
C413 O440 1.289 . S
O414 C413 1.235 . S
C415 C417 1.400 . S
C415 N418 1.351 . S
C415 C420 1.501 . S
C416 C417 1.387 . S
C416 N419 1.341 . S
C417 C415 1.400 . S
C417 C416 1.387 . S
N418 Co409 2.022 . S
N418 C415 1.351 . S
N418 N419 1.365 . S
N419 C416 1.341 . S
N419 N418 1.365 . S
N419 H439 0.862 . S
C420 C415 1.501 . S
C420 H421 0.961 . S
C420 H422 0.961 . S
C420 H423 0.960 . S
H421 C420 0.961 . S
H422 C420 0.961 . S
H423 C420 0.960 . S
C424 N425 1.342 . S
C424 C428 1.401 . S
C424 C429 1.499 . S
N425 Co408 1.989 . S
N425 C424 1.342 . S
N425 N426 1.388 . S
N426 Co409 1.993 . S
N426 N425 1.388 . S
N426 C427 1.346 . S
C427 N426 1.346 . S
C427 C428 1.396 . S
C427 C437 1.510 . S
C428 C424 1.401 . S
C428 C427 1.396 . S
C429 C424 1.499 . S
C429 H430 0.959 . S
C429 H431 0.960 . S
C429 H432 0.961 . S
H430 C429 0.959 . S
H431 C429 0.960 . S
H432 C429 0.961 . S
O433 Co408 1.967 . S
O433 C441 1.258 . S
O434 Co409 1.941 . S
O434 C441 1.266 . S
H435 C437 0.959 . S
H436 C437 0.961 . S
C437 C427 1.510 . S
C437 H435 0.959 . S
C437 H436 0.961 . S
C437 H438 0.960 . S
H438 C437 0.960 . S
H439 N419 0.862 . S
O440 Co408 1.920 . S
O440 C413 1.289 . S
C441 O433 1.258 . S
C441 O434 1.266 . S
Co442 O445 1.970 . S
Co442 N459 1.989 . S
Co442 O467 1.967 . S
Co442 O474 1.920 . S
Co443 O446 1.966 . S
Co443 N452 2.022 . S
Co443 N460 1.993 . S
Co443 O468 1.941 . S
C444 O445 1.258 . S
C444 O446 1.263 . S
O445 Co442 1.970 . S
O445 C444 1.258 . S
O446 Co443 1.966 . S
O446 C444 1.263 . S
C447 O448 1.235 . S
C447 O474 1.289 . S
O448 C447 1.235 . S
C449 C451 1.400 . S
C449 N452 1.351 1_545 S
C449 C454 1.501 . S
C450 C451 1.387 . S
C450 N453 1.341 1_545 S
C451 C449 1.400 . S
C451 C450 1.387 . S
N452 Co443 2.022 . S
N452 C449 1.351 1_565 S
N452 N453 1.365 . S
N453 C450 1.341 1_565 S
N453 N452 1.365 . S
N453 H473 0.862 . S
C454 C449 1.501 . S
C454 H455 0.961 . S
C454 H456 0.961 . S
C454 H457 0.960 . S
H455 C454 0.961 . S
H456 C454 0.961 . S
H457 C454 0.960 . S
C458 N459 1.342 . S
C458 C462 1.401 . S
C458 C463 1.499 . S
N459 Co442 1.989 . S
N459 C458 1.342 . S
N459 N460 1.388 . S
N460 Co443 1.993 . S
N460 N459 1.388 . S
N460 C461 1.346 . S
C461 N460 1.346 . S
C461 C462 1.396 . S
C461 C471 1.510 1_565 S
C462 C458 1.401 . S
C462 C461 1.396 . S
C463 C458 1.499 . S
C463 H464 0.959 . S
C463 H465 0.960 . S
C463 H466 0.961 . S
H464 C463 0.959 . S
H465 C463 0.960 . S
H466 C463 0.961 . S
O467 Co442 1.967 . S
O467 C475 1.258 . S
O468 Co443 1.941 . S
O468 C475 1.266 . S
H469 C471 0.948 1_565 S
H470 C471 0.961 . S
C471 C461 1.510 1_545 S
C471 H469 0.948 1_545 S
C471 H470 0.961 . S
C471 H472 0.960 . S
H472 C471 0.960 . S
H473 N453 0.862 . S
O474 Co442 1.920 . S
O474 C447 1.289 . S
C475 O467 1.258 . S
C475 O468 1.266 . S
Co476 O479 1.970 . S
Co476 N493 1.989 . S
Co476 O501 1.967 . S
Co476 O508 1.920 . S
Co477 O480 1.966 . S
Co477 N486 2.022 . S
Co477 N494 1.993 . S
Co477 O502 1.941 . S
C478 O479 1.258 . S
C478 O480 1.263 . S
O479 Co476 1.970 . S
O479 C478 1.258 . S
O480 Co477 1.966 . S
O480 C478 1.263 . S
C481 O482 1.235 . S
C481 O508 1.289 . S
O482 C481 1.235 . S
C483 C485 1.400 . S
C483 N486 1.351 . S
C483 C488 1.501 . S
C484 C485 1.387 . S
C484 N487 1.341 . S
C485 C483 1.400 . S
C485 C484 1.387 . S
N486 Co477 2.022 . S
N486 C483 1.351 . S
N486 N487 1.365 . S
N487 C484 1.341 . S
N487 N486 1.365 . S
N487 H507 0.862 . S
C488 C483 1.501 . S
C488 H489 0.961 . S
C488 H490 0.961 . S
C488 H491 0.960 . S
H489 C488 0.961 . S
H490 C488 0.961 . S
H491 C488 0.960 . S
C492 N493 1.342 . S
C492 C496 1.401 . S
C492 C497 1.499 . S
N493 Co476 1.989 . S
N493 C492 1.342 . S
N493 N494 1.388 . S
N494 Co477 1.993 . S
N494 N493 1.388 . S
N494 C495 1.346 . S
C495 N494 1.346 . S
C495 C496 1.396 . S
C495 C505 1.510 . S
C496 C492 1.401 . S
C496 C495 1.396 . S
C497 C492 1.499 . S
C497 H498 0.959 . S
C497 H499 0.960 . S
C497 H500 0.961 . S
H498 C497 0.959 . S
H499 C497 0.960 . S
H500 C497 0.961 . S
O501 Co476 1.967 . S
O501 C509 1.258 . S
O502 Co477 1.941 . S
O502 C509 1.266 . S
H503 C505 0.959 . S
H504 C505 0.961 . S
C505 C495 1.510 . S
C505 H503 0.959 . S
C505 H504 0.961 . S
C505 H506 0.960 . S
H506 C505 0.960 . S
H507 N487 0.862 . S
O508 Co476 1.920 . S
O508 C481 1.289 . S
C509 O501 1.258 . S
C509 O502 1.266 . S
Co510 O513 1.970 . S
Co510 N527 1.989 . S
Co510 O535 1.967 . S
Co510 O542 1.920 . S
Co511 O514 1.966 . S
Co511 N520 2.022 . S
Co511 N528 1.993 . S
Co511 O536 1.941 . S
C512 O513 1.258 . S
C512 O514 1.263 . S
O513 Co510 1.970 . S
O513 C512 1.258 . S
O514 Co511 1.966 . S
O514 C512 1.263 . S
C515 O516 1.235 . S
C515 O542 1.289 1_655 S
O516 C515 1.235 . S
C517 C519 1.400 . S
C517 N520 1.351 1_565 S
C517 C522 1.501 . S
C518 C519 1.387 . S
C518 N521 1.341 1_565 S
C519 C517 1.400 . S
C519 C518 1.387 . S
N520 Co511 2.022 . S
N520 C517 1.351 1_545 S
N520 N521 1.365 . S
N521 C518 1.341 1_545 S
N521 N520 1.365 . S
N521 H541 0.862 . S
C522 C517 1.501 . S
C522 H523 0.961 . S
C522 H524 0.961 . S
C522 H525 0.960 . S
H523 C522 0.961 . S
H524 C522 0.961 . S
H525 C522 0.960 . S
C526 N527 1.342 . S
C526 C530 1.401 . S
C526 C531 1.499 1_455 S
N527 Co510 1.989 . S
N527 C526 1.342 . S
N527 N528 1.388 . S
N528 Co511 1.993 . S
N528 N527 1.388 . S
N528 C529 1.346 . S
C529 N528 1.346 . S
C529 C530 1.396 . S
C529 C539 1.510 1_545 S
C530 C526 1.401 . S
C530 C529 1.396 . S
C531 C526 1.499 1_655 S
C531 H532 0.959 . S
C531 H533 0.960 . S
C531 H534 0.961 . S
H532 C531 0.959 . S
H533 C531 0.960 . S
H534 C531 0.961 . S
O535 Co510 1.967 . S
O535 C543 1.258 . S
O536 Co511 1.941 . S
O536 C543 1.266 . S
H537 C539 0.948 1_545 S
H538 C539 0.961 . S
C539 C529 1.510 1_565 S
C539 H537 0.948 1_565 S
C539 H538 0.961 . S
C539 H540 0.960 . S
H540 C539 0.960 . S
H541 N521 0.862 . S
O542 Co510 1.920 . S
O542 C515 1.289 1_455 S
C543 O535 1.258 . S
C543 O536 1.266 . S
Co544 O547 1.970 . S
Co544 N561 1.989 . S
Co544 O569 1.967 . S
Co544 O576 1.920 . S
Co545 O548 1.966 . S
Co545 N554 2.022 . S
Co545 N562 1.993 . S
Co545 O570 1.941 . S
C546 O547 1.258 . S
C546 O548 1.263 . S
O547 Co544 1.970 . S
O547 C546 1.258 . S
O548 Co545 1.966 . S
O548 C546 1.263 . S
C549 O550 1.235 . S
C549 O576 1.289 . S
O550 C549 1.235 . S
C551 C553 1.400 . S
C551 N554 1.351 . S
C551 C556 1.501 . S
C552 C553 1.387 . S
C552 N555 1.341 . S
C553 C551 1.400 . S
C553 C552 1.387 . S
N554 Co545 2.022 . S
N554 C551 1.351 . S
N554 N555 1.365 . S
N555 C552 1.341 . S
N555 N554 1.365 . S
N555 H575 0.862 . S
C556 C551 1.501 . S
C556 H557 0.961 . S
C556 H558 0.961 . S
C556 H559 0.960 . S
H557 C556 0.961 . S
H558 C556 0.961 . S
H559 C556 0.960 . S
C560 N561 1.342 . S
C560 C564 1.401 . S
C560 C565 1.499 . S
N561 Co544 1.989 . S
N561 C560 1.342 . S
N561 N562 1.388 . S
N562 Co545 1.993 . S
N562 N561 1.388 . S
N562 C563 1.346 . S
C563 N562 1.346 . S
C563 C564 1.396 . S
C563 C573 1.510 . S
C564 C560 1.401 . S
C564 C563 1.396 . S
C565 C560 1.499 . S
C565 H566 0.959 . S
C565 H567 0.960 . S
C565 H568 0.961 . S
H566 C565 0.959 . S
H567 C565 0.960 . S
H568 C565 0.961 . S
O569 Co544 1.967 . S
O569 C577 1.258 . S
O570 Co545 1.941 . S
O570 C577 1.266 . S
H571 C573 0.959 . S
H572 C573 0.961 . S
C573 C563 1.510 . S
C573 H571 0.959 . S
C573 H572 0.961 . S
C573 H574 0.960 . S
H574 C573 0.960 . S
H575 N555 0.862 . S
O576 Co544 1.920 . S
O576 C549 1.289 . S
C577 O569 1.258 . S
C577 O570 1.266 . S
Co578 O581 1.970 . S
Co578 N595 1.989 . S
Co578 O603 1.967 . S
Co578 O610 1.920 . S
Co579 O582 1.966 . S
Co579 N588 2.022 . S
Co579 N596 1.993 . S
Co579 O604 1.941 . S
C580 O581 1.258 . S
C580 O582 1.263 . S
O581 Co578 1.970 . S
O581 C580 1.258 . S
O582 Co579 1.966 . S
O582 C580 1.263 . S
C583 O584 1.235 . S
C583 O610 1.289 . S
O584 C583 1.235 . S
C585 C587 1.400 . S
C585 N588 1.351 . S
C585 C590 1.501 . S
C586 C587 1.387 . S
C586 N589 1.341 . S
C587 C585 1.400 . S
C587 C586 1.387 . S
N588 Co579 2.022 . S
N588 C585 1.351 . S
N588 N589 1.365 . S
N589 C586 1.341 . S
N589 N588 1.365 . S
N589 H609 0.862 . S
C590 C585 1.501 . S
C590 H591 0.961 . S
C590 H592 0.961 . S
C590 H593 0.960 . S
H591 C590 0.961 . S
H592 C590 0.961 . S
H593 C590 0.960 . S
C594 N595 1.342 . S
C594 C598 1.401 . S
C594 C599 1.499 . S
N595 Co578 1.989 . S
N595 C594 1.342 . S
N595 N596 1.388 . S
N596 Co579 1.993 . S
N596 N595 1.388 . S
N596 C597 1.346 . S
C597 N596 1.346 . S
C597 C598 1.396 . S
C597 C607 1.510 . S
C598 C594 1.401 . S
C598 C597 1.396 . S
C599 C594 1.499 . S
C599 H600 0.959 . S
C599 H601 0.960 . S
C599 H602 0.961 . S
H600 C599 0.959 . S
H601 C599 0.960 . S
H602 C599 0.961 . S
O603 Co578 1.967 . S
O603 C611 1.258 . S
O604 Co579 1.941 . S
O604 C611 1.266 . S
H605 C607 0.959 . S
H606 C607 0.961 . S
C607 C597 1.510 . S
C607 H605 0.959 . S
C607 H606 0.961 . S
C607 H608 0.960 . S
H608 C607 0.960 . S
H609 N589 0.862 . S
O610 Co578 1.920 . S
O610 C583 1.289 . S
C611 O603 1.258 . S
C611 O604 1.266 . S
Co612 O615 1.970 . S
Co612 N629 1.989 . S
Co612 O637 1.967 . S
Co612 O644 1.920 . S
Co613 O616 1.966 . S
Co613 N622 2.022 . S
Co613 N630 1.993 . S
Co613 O638 1.941 . S
C614 O615 1.258 . S
C614 O616 1.263 . S
O615 Co612 1.970 . S
O615 C614 1.258 . S
O616 Co613 1.966 . S
O616 C614 1.263 . S
C617 O618 1.235 . S
C617 O644 1.289 . S
O618 C617 1.235 . S
C619 C621 1.400 . S
C619 N622 1.351 . S
C619 C624 1.501 . S
C620 C621 1.387 . S
C620 N623 1.341 . S
C621 C619 1.400 . S
C621 C620 1.387 . S
N622 Co613 2.022 . S
N622 C619 1.351 . S
N622 N623 1.365 . S
N623 C620 1.341 . S
N623 N622 1.365 . S
N623 H643 0.862 . S
C624 C619 1.501 . S
C624 H625 0.961 . S
C624 H626 0.961 . S
C624 H627 0.960 . S
H625 C624 0.961 . S
H626 C624 0.961 . S
H627 C624 0.960 . S
C628 N629 1.342 . S
C628 C632 1.401 . S
C628 C633 1.499 . S
N629 Co612 1.989 . S
N629 C628 1.342 . S
N629 N630 1.388 . S
N630 Co613 1.993 . S
N630 N629 1.388 . S
N630 C631 1.346 . S
C631 N630 1.346 . S
C631 C632 1.396 . S
C631 C641 1.510 . S
C632 C628 1.401 . S
C632 C631 1.396 . S
C633 C628 1.499 . S
C633 H634 0.959 . S
C633 H635 0.960 . S
C633 H636 0.961 . S
H634 C633 0.959 . S
H635 C633 0.960 . S
H636 C633 0.961 . S
O637 Co612 1.967 . S
O637 C645 1.258 . S
O638 Co613 1.941 . S
O638 C645 1.266 . S
H639 C641 0.959 . S
H640 C641 0.961 . S
C641 C631 1.510 . S
C641 H639 0.959 . S
C641 H640 0.961 . S
C641 H642 0.960 . S
H642 C641 0.960 . S
H643 N623 0.862 . S
O644 Co612 1.920 . S
O644 C617 1.289 . S
C645 O637 1.258 . S
C645 O638 1.266 . S
Co646 O649 1.970 . S
Co646 N663 1.989 . S
Co646 O671 1.967 . S
Co646 O678 1.920 . S
Co647 O650 1.966 . S
Co647 N656 2.022 . S
Co647 N664 1.993 . S
Co647 O672 1.941 . S
C648 O649 1.258 . S
C648 O650 1.263 . S
O649 Co646 1.970 . S
O649 C648 1.258 . S
O650 Co647 1.966 . S
O650 C648 1.263 . S
C651 O652 1.235 . S
C651 O678 1.289 1_655 S
O652 C651 1.235 . S
C653 C655 1.400 . S
C653 N656 1.351 . S
C653 C658 1.501 . S
C654 C655 1.387 . S
C654 N657 1.341 . S
C655 C653 1.400 . S
C655 C654 1.387 . S
N656 Co647 2.022 . S
N656 C653 1.351 . S
N656 N657 1.365 . S
N657 C654 1.341 . S
N657 N656 1.365 . S
N657 H677 0.862 . S
C658 C653 1.501 . S
C658 H659 0.961 . S
C658 H660 0.961 . S
C658 H661 0.960 . S
H659 C658 0.961 . S
H660 C658 0.961 . S
H661 C658 0.960 . S
C662 N663 1.342 . S
C662 C666 1.401 . S
C662 C667 1.499 1_455 S
N663 Co646 1.989 . S
N663 C662 1.342 . S
N663 N664 1.388 . S
N664 Co647 1.993 . S
N664 N663 1.388 . S
N664 C665 1.346 . S
C665 N664 1.346 . S
C665 C666 1.396 . S
C665 C675 1.510 . S
C666 C662 1.401 . S
C666 C665 1.396 . S
C667 C662 1.499 1_655 S
C667 H668 0.959 . S
C667 H669 0.960 . S
C667 H670 0.961 . S
H668 C667 0.959 . S
H669 C667 0.960 . S
H670 C667 0.961 . S
O671 Co646 1.967 . S
O671 C679 1.258 . S
O672 Co647 1.941 . S
O672 C679 1.266 . S
H673 C675 0.959 . S
H674 C675 0.961 . S
C675 C665 1.510 . S
C675 H673 0.959 . S
C675 H674 0.961 . S
C675 H676 0.960 . S
H676 C675 0.960 . S
H677 N657 0.862 . S
O678 Co646 1.920 . S
O678 C651 1.289 1_455 S
C679 O671 1.258 . S
C679 O672 1.266 . S
Co680 O683 1.970 . S
Co680 N697 1.989 . S
Co680 O705 1.967 . S
Co680 O712 1.920 . S
Co681 O684 1.966 . S
Co681 N690 2.022 . S
Co681 N698 1.993 . S
Co681 O706 1.941 . S
C682 O683 1.258 . S
C682 O684 1.263 . S
O683 Co680 1.970 . S
O683 C682 1.258 . S
O684 Co681 1.966 . S
O684 C682 1.263 . S
C685 O686 1.235 . S
C685 O712 1.289 . S
O686 C685 1.235 . S
C687 C689 1.400 . S
C687 N690 1.351 . S
C687 C692 1.501 . S
C688 C689 1.387 . S
C688 N691 1.341 . S
C689 C687 1.400 . S
C689 C688 1.387 . S
N690 Co681 2.022 . S
N690 C687 1.351 . S
N690 N691 1.365 . S
N691 C688 1.341 . S
N691 N690 1.365 . S
N691 H711 0.862 . S
C692 C687 1.501 . S
C692 H693 0.961 . S
C692 H694 0.961 . S
C692 H695 0.960 . S
H693 C692 0.961 . S
H694 C692 0.961 . S
H695 C692 0.960 . S
C696 N697 1.342 . S
C696 C700 1.401 . S
C696 C701 1.499 . S
N697 Co680 1.989 . S
N697 C696 1.342 . S
N697 N698 1.388 . S
N698 Co681 1.993 . S
N698 N697 1.388 . S
N698 C699 1.346 . S
C699 N698 1.346 . S
C699 C700 1.396 . S
C699 C709 1.510 . S
C700 C696 1.401 . S
C700 C699 1.396 . S
C701 C696 1.499 . S
C701 H702 0.959 . S
C701 H703 0.960 . S
C701 H704 0.961 . S
H702 C701 0.959 . S
H703 C701 0.960 . S
H704 C701 0.961 . S
O705 Co680 1.967 . S
O705 C713 1.258 . S
O706 Co681 1.941 . S
O706 C713 1.266 . S
H707 C709 0.959 . S
H708 C709 0.961 . S
C709 C699 1.510 . S
C709 H707 0.959 . S
C709 H708 0.961 . S
C709 H710 0.960 . S
H710 C709 0.960 . S
H711 N691 0.862 . S
O712 Co680 1.920 . S
O712 C685 1.289 . S
C713 O705 1.258 . S
C713 O706 1.266 . S
Co714 O717 1.970 . S
Co714 N731 1.989 . S
Co714 O739 1.967 . S
Co714 O746 1.920 . S
Co715 O718 1.966 . S
Co715 N724 2.022 . S
Co715 N732 1.993 . S
Co715 O740 1.941 . S
C716 O717 1.258 . S
C716 O718 1.263 . S
O717 Co714 1.970 . S
O717 C716 1.258 . S
O718 Co715 1.966 . S
O718 C716 1.263 . S
C719 O720 1.235 . S
C719 O746 1.289 1_655 S
O720 C719 1.235 . S
C721 C723 1.400 . S
C721 N724 1.351 . S
C721 C726 1.501 . S
C722 C723 1.387 . S
C722 N725 1.341 . S
C723 C721 1.400 . S
C723 C722 1.387 . S
N724 Co715 2.022 . S
N724 C721 1.351 . S
N724 N725 1.365 . S
N725 C722 1.341 . S
N725 N724 1.365 . S
N725 H745 0.862 . S
C726 C721 1.501 . S
C726 H727 0.961 . S
C726 H728 0.961 . S
C726 H729 0.960 . S
H727 C726 0.961 . S
H728 C726 0.961 . S
H729 C726 0.960 . S
C730 N731 1.342 . S
C730 C734 1.401 . S
C730 C735 1.499 1_455 S
N731 Co714 1.989 . S
N731 C730 1.342 . S
N731 N732 1.388 . S
N732 Co715 1.993 . S
N732 N731 1.388 . S
N732 C733 1.346 . S
C733 N732 1.346 . S
C733 C734 1.396 . S
C733 C743 1.510 . S
C734 C730 1.401 . S
C734 C733 1.396 . S
C735 C730 1.499 1_655 S
C735 H736 0.959 . S
C735 H737 0.960 . S
C735 H738 0.961 . S
H736 C735 0.959 . S
H737 C735 0.960 . S
H738 C735 0.961 . S
O739 Co714 1.967 . S
O739 C747 1.258 . S
O740 Co715 1.941 . S
O740 C747 1.266 . S
H741 C743 0.959 . S
H742 C743 0.961 . S
C743 C733 1.510 . S
C743 H741 0.959 . S
C743 H742 0.961 . S
C743 H744 0.960 . S
H744 C743 0.960 . S
H745 N725 0.862 . S
O746 Co714 1.920 . S
O746 C719 1.289 1_455 S
C747 O739 1.258 . S
C747 O740 1.266 . S
Co748 O751 1.970 . S
Co748 N765 1.989 . S
Co748 O773 1.967 . S
Co748 O780 1.920 . S
Co749 O752 1.966 . S
Co749 N758 2.022 . S
Co749 N766 1.993 . S
Co749 O774 1.941 . S
C750 O751 1.258 . S
C750 O752 1.263 . S
O751 Co748 1.970 . S
O751 C750 1.258 . S
O752 Co749 1.966 . S
O752 C750 1.263 . S
C753 O754 1.235 . S
C753 O780 1.289 . S
O754 C753 1.235 . S
C755 C757 1.400 . S
C755 N758 1.351 . S
C755 C760 1.501 . S
C756 C757 1.387 . S
C756 N759 1.341 . S
C757 C755 1.400 . S
C757 C756 1.387 . S
N758 Co749 2.022 . S
N758 C755 1.351 . S
N758 N759 1.365 . S
N759 C756 1.341 . S
N759 N758 1.365 . S
N759 H779 0.862 . S
C760 C755 1.501 . S
C760 H761 0.961 . S
C760 H762 0.961 . S
C760 H763 0.960 . S
H761 C760 0.961 . S
H762 C760 0.961 . S
H763 C760 0.960 . S
C764 N765 1.342 . S
C764 C768 1.401 . S
C764 C769 1.499 . S
N765 Co748 1.989 . S
N765 C764 1.342 . S
N765 N766 1.388 . S
N766 Co749 1.993 . S
N766 N765 1.388 . S
N766 C767 1.346 . S
C767 N766 1.346 . S
C767 C768 1.396 . S
C767 C777 1.510 . S
C768 C764 1.401 . S
C768 C767 1.396 . S
C769 C764 1.499 . S
C769 H770 0.959 . S
C769 H771 0.960 . S
C769 H772 0.961 . S
H770 C769 0.959 . S
H771 C769 0.960 . S
H772 C769 0.961 . S
O773 Co748 1.967 . S
O773 C781 1.258 . S
O774 Co749 1.941 . S
O774 C781 1.266 . S
H775 C777 0.959 . S
H776 C777 0.961 . S
C777 C767 1.510 . S
C777 H775 0.959 . S
C777 H776 0.961 . S
C777 H778 0.960 . S
H778 C777 0.960 . S
H779 N759 0.862 . S
O780 Co748 1.920 . S
O780 C753 1.289 . S
C781 O773 1.258 . S
C781 O774 1.266 . S
Co782 O785 1.970 . S
Co782 N799 1.989 . S
Co782 O807 1.967 . S
Co782 O814 1.920 . S
Co783 O786 1.966 . S
Co783 N792 2.022 . S
Co783 N800 1.993 . S
Co783 O808 1.941 . S
C784 O785 1.258 . S
C784 O786 1.263 . S
O785 Co782 1.970 . S
O785 C784 1.258 . S
O786 Co783 1.966 . S
O786 C784 1.263 . S
C787 O788 1.235 . S
C787 O814 1.289 . S
O788 C787 1.235 . S
C789 C791 1.400 . S
C789 N792 1.351 . S
C789 C794 1.501 . S
C790 C791 1.387 . S
C790 N793 1.341 . S
C791 C789 1.400 . S
C791 C790 1.387 . S
N792 Co783 2.022 . S
N792 C789 1.351 . S
N792 N793 1.365 . S
N793 C790 1.341 . S
N793 N792 1.365 . S
N793 H813 0.862 . S
C794 C789 1.501 . S
C794 H795 0.961 . S
C794 H796 0.961 . S
C794 H797 0.960 . S
H795 C794 0.961 . S
H796 C794 0.961 . S
H797 C794 0.960 . S
C798 N799 1.342 . S
C798 C802 1.401 . S
C798 C803 1.499 . S
N799 Co782 1.989 . S
N799 C798 1.342 . S
N799 N800 1.388 . S
N800 Co783 1.993 . S
N800 N799 1.388 . S
N800 C801 1.346 . S
C801 N800 1.346 . S
C801 C802 1.396 . S
C801 C811 1.510 . S
C802 C798 1.401 . S
C802 C801 1.396 . S
C803 C798 1.499 . S
C803 H804 0.959 . S
C803 H805 0.960 . S
C803 H806 0.961 . S
H804 C803 0.959 . S
H805 C803 0.960 . S
H806 C803 0.961 . S
O807 Co782 1.967 . S
O807 C815 1.258 . S
O808 Co783 1.941 . S
O808 C815 1.266 . S
H809 C811 0.959 . S
H810 C811 0.961 . S
C811 C801 1.510 . S
C811 H809 0.959 . S
C811 H810 0.961 . S
C811 H812 0.960 . S
H812 C811 0.960 . S
H813 N793 0.862 . S
O814 Co782 1.920 . S
O814 C787 1.289 . S
C815 O807 1.258 . S
C815 O808 1.266 . S
Co816 O819 1.970 . S
Co816 N833 1.989 . S
Co816 O841 1.967 . S
Co816 O848 1.920 . S
Co817 O820 1.966 . S
Co817 N826 2.022 . S
Co817 N834 1.993 . S
Co817 O842 1.941 . S
C818 O819 1.258 . S
C818 O820 1.263 . S
O819 Co816 1.970 . S
O819 C818 1.258 . S
O820 Co817 1.966 . S
O820 C818 1.263 . S
C821 O822 1.235 . S
C821 O848 1.289 . S
O822 C821 1.235 . S
C823 C825 1.400 . S
C823 N826 1.351 . S
C823 C828 1.501 . S
C824 C825 1.387 . S
C824 N827 1.341 . S
C825 C823 1.400 . S
C825 C824 1.387 . S
N826 Co817 2.022 . S
N826 C823 1.351 . S
N826 N827 1.365 . S
N827 C824 1.341 . S
N827 N826 1.365 . S
N827 H847 0.862 . S
C828 C823 1.501 . S
C828 H829 0.961 . S
C828 H830 0.961 . S
C828 H831 0.960 . S
H829 C828 0.961 . S
H830 C828 0.961 . S
H831 C828 0.960 . S
C832 N833 1.342 . S
C832 C836 1.401 . S
C832 C837 1.499 . S
N833 Co816 1.989 . S
N833 C832 1.342 . S
N833 N834 1.388 . S
N834 Co817 1.993 . S
N834 N833 1.388 . S
N834 C835 1.346 . S
C835 N834 1.346 . S
C835 C836 1.396 . S
C835 C845 1.510 . S
C836 C832 1.401 . S
C836 C835 1.396 . S
C837 C832 1.499 . S
C837 H838 0.959 . S
C837 H839 0.960 . S
C837 H840 0.961 . S
H838 C837 0.959 . S
H839 C837 0.960 . S
H840 C837 0.961 . S
O841 Co816 1.967 . S
O841 C849 1.258 . S
O842 Co817 1.941 . S
O842 C849 1.266 . S
H843 C845 0.959 . S
H844 C845 0.961 . S
C845 C835 1.510 . S
C845 H843 0.959 . S
C845 H844 0.961 . S
C845 H846 0.960 . S
H846 C845 0.960 . S
H847 N827 0.862 . S
O848 Co816 1.920 . S
O848 C821 1.289 . S
C849 O841 1.258 . S
C849 O842 1.266 . S
Co850 O853 1.970 . S
Co850 N867 1.989 . S
Co850 O875 1.967 . S
Co850 O882 1.920 . S
Co851 O854 1.966 . S
Co851 N860 2.022 . S
Co851 N868 1.993 . S
Co851 O876 1.941 . S
C852 O853 1.258 . S
C852 O854 1.263 . S
O853 Co850 1.970 . S
O853 C852 1.258 . S
O854 Co851 1.966 . S
O854 C852 1.263 . S
C855 O856 1.235 . S
C855 O882 1.289 . S
O856 C855 1.235 . S
C857 C859 1.400 . S
C857 N860 1.351 . S
C857 C862 1.501 . S
C858 C859 1.387 . S
C858 N861 1.341 . S
C859 C857 1.400 . S
C859 C858 1.387 . S
N860 Co851 2.022 . S
N860 C857 1.351 . S
N860 N861 1.365 . S
N861 C858 1.341 . S
N861 N860 1.365 . S
N861 H881 0.862 . S
C862 C857 1.501 . S
C862 H863 0.961 . S
C862 H864 0.961 . S
C862 H865 0.960 . S
H863 C862 0.961 . S
H864 C862 0.961 . S
H865 C862 0.960 . S
C866 N867 1.342 . S
C866 C870 1.401 . S
C866 C871 1.499 . S
N867 Co850 1.989 . S
N867 C866 1.342 . S
N867 N868 1.388 . S
N868 Co851 1.993 . S
N868 N867 1.388 . S
N868 C869 1.346 . S
C869 N868 1.346 . S
C869 C870 1.396 . S
C869 C879 1.510 . S
C870 C866 1.401 . S
C870 C869 1.396 . S
C871 C866 1.499 . S
C871 H872 0.959 . S
C871 H873 0.960 . S
C871 H874 0.961 . S
H872 C871 0.959 . S
H873 C871 0.960 . S
H874 C871 0.961 . S
O875 Co850 1.967 . S
O875 C883 1.258 . S
O876 Co851 1.941 . S
O876 C883 1.266 . S
H877 C879 0.959 . S
H878 C879 0.961 . S
C879 C869 1.510 . S
C879 H877 0.959 . S
C879 H878 0.961 . S
C879 H880 0.960 . S
H880 C879 0.960 . S
H881 N861 0.862 . S
O882 Co850 1.920 . S
O882 C855 1.289 . S
C883 O875 1.258 . S
C883 O876 1.266 . S
Co884 O887 1.970 . S
Co884 N901 1.989 . S
Co884 O909 1.967 . S
Co884 O916 1.920 . S
Co885 O888 1.966 . S
Co885 N894 2.022 . S
Co885 N902 1.993 . S
Co885 O910 1.941 . S
C886 O887 1.258 . S
C886 O888 1.263 . S
O887 Co884 1.970 . S
O887 C886 1.258 . S
O888 Co885 1.966 . S
O888 C886 1.263 . S
C889 O890 1.235 . S
C889 O916 1.289 . S
O890 C889 1.235 . S
C891 C893 1.400 . S
C891 N894 1.351 . S
C891 C896 1.501 . S
C892 C893 1.387 . S
C892 N895 1.341 . S
C893 C891 1.400 . S
C893 C892 1.387 . S
N894 Co885 2.022 . S
N894 C891 1.351 . S
N894 N895 1.365 . S
N895 C892 1.341 . S
N895 N894 1.365 . S
N895 H915 0.862 . S
C896 C891 1.501 . S
C896 H897 0.961 . S
C896 H898 0.961 . S
C896 H899 0.960 . S
H897 C896 0.961 . S
H898 C896 0.961 . S
H899 C896 0.960 . S
C900 N901 1.342 . S
C900 C904 1.401 . S
C900 C905 1.499 . S
N901 Co884 1.989 . S
N901 C900 1.342 . S
N901 N902 1.388 . S
N902 Co885 1.993 . S
N902 N901 1.388 . S
N902 C903 1.346 . S
C903 N902 1.346 . S
C903 C904 1.396 . S
C903 C913 1.510 . S
C904 C900 1.401 . S
C904 C903 1.396 . S
C905 C900 1.499 . S
C905 H906 0.959 . S
C905 H907 0.960 . S
C905 H908 0.961 . S
H906 C905 0.959 . S
H907 C905 0.960 . S
H908 C905 0.961 . S
O909 Co884 1.967 . S
O909 C917 1.258 . S
O910 Co885 1.941 . S
O910 C917 1.266 . S
H911 C913 0.959 . S
H912 C913 0.961 . S
C913 C903 1.510 . S
C913 H911 0.959 . S
C913 H912 0.961 . S
C913 H914 0.960 . S
H914 C913 0.960 . S
H915 N895 0.862 . S
O916 Co884 1.920 . S
O916 C889 1.289 . S
C917 O909 1.258 . S
C917 O910 1.266 . S
Co918 O921 1.970 . S
Co918 N935 1.989 . S
Co918 O943 1.967 . S
Co918 O950 1.920 . S
Co919 O922 1.966 . S
Co919 N928 2.022 . S
Co919 N936 1.993 . S
Co919 O944 1.941 . S
C920 O921 1.258 . S
C920 O922 1.263 . S
O921 Co918 1.970 . S
O921 C920 1.258 . S
O922 Co919 1.966 . S
O922 C920 1.263 . S
C923 O924 1.235 . S
C923 O950 1.289 1_455 S
O924 C923 1.235 . S
C925 C927 1.400 . S
C925 N928 1.351 . S
C925 C930 1.501 . S
C926 C927 1.387 . S
C926 N929 1.341 . S
C927 C925 1.400 . S
C927 C926 1.387 . S
N928 Co919 2.022 . S
N928 C925 1.351 . S
N928 N929 1.365 . S
N929 C926 1.341 . S
N929 N928 1.365 . S
N929 H949 0.862 . S
C930 C925 1.501 . S
C930 H931 0.961 . S
C930 H932 0.961 . S
C930 H933 0.960 . S
H931 C930 0.961 . S
H932 C930 0.961 . S
H933 C930 0.960 . S
C934 N935 1.342 . S
C934 C938 1.401 . S
C934 C939 1.499 1_655 S
N935 Co918 1.989 . S
N935 C934 1.342 . S
N935 N936 1.388 . S
N936 Co919 1.993 . S
N936 N935 1.388 . S
N936 C937 1.346 . S
C937 N936 1.346 . S
C937 C938 1.396 . S
C937 C947 1.510 . S
C938 C934 1.401 . S
C938 C937 1.396 . S
C939 C934 1.499 1_455 S
C939 H940 0.959 . S
C939 H941 0.960 . S
C939 H942 0.961 . S
H940 C939 0.959 . S
H941 C939 0.960 . S
H942 C939 0.961 . S
O943 Co918 1.967 . S
O943 C951 1.258 . S
O944 Co919 1.941 . S
O944 C951 1.266 . S
H945 C947 0.959 . S
H946 C947 0.961 . S
C947 C937 1.510 . S
C947 H945 0.959 . S
C947 H946 0.961 . S
C947 H948 0.960 . S
H948 C947 0.960 . S
H949 N929 0.862 . S
O950 Co918 1.920 . S
O950 C923 1.289 1_655 S
C951 O943 1.258 . S
C951 O944 1.266 . S
Co952 O955 1.970 . S
Co952 N969 1.989 . S
Co952 O977 1.967 . S
Co952 O984 1.920 . S
Co953 O956 1.966 . S
Co953 N962 2.022 . S
Co953 N970 1.993 . S
Co953 O978 1.941 . S
C954 O955 1.258 . S
C954 O956 1.263 . S
O955 Co952 1.970 . S
O955 C954 1.258 . S
O956 Co953 1.966 . S
O956 C954 1.263 . S
C957 O958 1.235 . S
C957 O984 1.289 . S
O958 C957 1.235 . S
C959 C961 1.400 . S
C959 N962 1.351 . S
C959 C964 1.501 . S
C960 C961 1.387 . S
C960 N963 1.341 . S
C961 C959 1.400 . S
C961 C960 1.387 . S
N962 Co953 2.022 . S
N962 C959 1.351 . S
N962 N963 1.365 . S
N963 C960 1.341 . S
N963 N962 1.365 . S
N963 H983 0.862 . S
C964 C959 1.501 . S
C964 H965 0.961 . S
C964 H966 0.961 . S
C964 H967 0.960 . S
H965 C964 0.961 . S
H966 C964 0.961 . S
H967 C964 0.960 . S
C968 N969 1.342 . S
C968 C972 1.401 . S
C968 C973 1.499 . S
N969 Co952 1.989 . S
N969 C968 1.342 . S
N969 N970 1.388 . S
N970 Co953 1.993 . S
N970 N969 1.388 . S
N970 C971 1.346 . S
C971 N970 1.346 . S
C971 C972 1.396 . S
C971 C981 1.510 . S
C972 C968 1.401 . S
C972 C971 1.396 . S
C973 C968 1.499 . S
C973 H974 0.959 . S
C973 H975 0.960 . S
C973 H976 0.961 . S
H974 C973 0.959 . S
H975 C973 0.960 . S
H976 C973 0.961 . S
O977 Co952 1.967 . S
O977 C985 1.258 . S
O978 Co953 1.941 . S
O978 C985 1.266 . S
H979 C981 0.959 . S
H980 C981 0.961 . S
C981 C971 1.510 . S
C981 H979 0.959 . S
C981 H980 0.961 . S
C981 H982 0.960 . S
H982 C981 0.960 . S
H983 N963 0.862 . S
O984 Co952 1.920 . S
O984 C957 1.289 . S
C985 O977 1.258 . S
C985 O978 1.266 . S
Co986 O989 1.970 . S
Co986 N1003 1.989 . S
Co986 O1011 1.967 . S
Co986 O1018 1.920 . S
Co987 O990 1.966 . S
Co987 N996 2.022 . S
Co987 N1004 1.993 . S
Co987 O1012 1.941 . S
C988 O989 1.258 . S
C988 O990 1.263 . S
O989 Co986 1.970 . S
O989 C988 1.258 . S
O990 Co987 1.966 . S
O990 C988 1.263 . S
C991 O992 1.235 . S
C991 O1018 1.289 1_455 S
O992 C991 1.235 . S
C993 C995 1.400 . S
C993 N996 1.351 . S
C993 C998 1.501 . S
C994 C995 1.387 . S
C994 N997 1.341 . S
C995 C993 1.400 . S
C995 C994 1.387 . S
N996 Co987 2.022 . S
N996 C993 1.351 . S
N996 N997 1.365 . S
N997 C994 1.341 . S
N997 N996 1.365 . S
N997 H1017 0.862 . S
C998 C993 1.501 . S
C998 H999 0.961 . S
C998 H1000 0.961 . S
C998 H1001 0.960 . S
H999 C998 0.961 . S
H1000 C998 0.961 . S
H1001 C998 0.960 . S
C1002 N1003 1.342 . S
C1002 C1006 1.401 . S
C1002 C1007 1.499 1_655 S
N1003 Co986 1.989 . S
N1003 C1002 1.342 . S
N1003 N1004 1.388 . S
N1004 Co987 1.993 . S
N1004 N1003 1.388 . S
N1004 C1005 1.346 . S
C1005 N1004 1.346 . S
C1005 C1006 1.396 . S
C1005 C1015 1.510 . S
C1006 C1002 1.401 . S
C1006 C1005 1.396 . S
C1007 C1002 1.499 1_455 S
C1007 H1008 0.959 . S
C1007 H1009 0.960 . S
C1007 H1010 0.961 . S
H1008 C1007 0.959 . S
H1009 C1007 0.960 . S
H1010 C1007 0.961 . S
O1011 Co986 1.967 . S
O1011 C1019 1.258 . S
O1012 Co987 1.941 . S
O1012 C1019 1.266 . S
H1013 C1015 0.959 . S
H1014 C1015 0.961 . S
C1015 C1005 1.510 . S
C1015 H1013 0.959 . S
C1015 H1014 0.961 . S
C1015 H1016 0.960 . S
H1016 C1015 0.960 . S
H1017 N997 0.862 . S
O1018 Co986 1.920 . S
O1018 C991 1.289 1_655 S
C1019 O1011 1.258 . S
C1019 O1012 1.266 . S
Co1020 O1023 1.970 . S
Co1020 N1037 1.989 . S
Co1020 O1045 1.967 . S
Co1020 O1052 1.920 . S
Co1021 O1024 1.966 . S
Co1021 N1030 2.022 . S
Co1021 N1038 1.993 . S
Co1021 O1046 1.941 . S
C1022 O1023 1.258 . S
C1022 O1024 1.263 . S
O1023 Co1020 1.970 . S
O1023 C1022 1.258 . S
O1024 Co1021 1.966 . S
O1024 C1022 1.263 . S
C1025 O1026 1.235 . S
C1025 O1052 1.289 . S
O1026 C1025 1.235 . S
C1027 C1029 1.400 . S
C1027 N1030 1.351 . S
C1027 C1032 1.501 . S
C1028 C1029 1.387 . S
C1028 N1031 1.341 . S
C1029 C1027 1.400 . S
C1029 C1028 1.387 . S
N1030 Co1021 2.022 . S
N1030 C1027 1.351 . S
N1030 N1031 1.365 . S
N1031 C1028 1.341 . S
N1031 N1030 1.365 . S
N1031 H1051 0.862 . S
C1032 C1027 1.501 . S
C1032 H1033 0.961 . S
C1032 H1034 0.961 . S
C1032 H1035 0.960 . S
H1033 C1032 0.961 . S
H1034 C1032 0.961 . S
H1035 C1032 0.960 . S
C1036 N1037 1.342 . S
C1036 C1040 1.401 . S
C1036 C1041 1.499 . S
N1037 Co1020 1.989 . S
N1037 C1036 1.342 . S
N1037 N1038 1.388 . S
N1038 Co1021 1.993 . S
N1038 N1037 1.388 . S
N1038 C1039 1.346 . S
C1039 N1038 1.346 . S
C1039 C1040 1.396 . S
C1039 C1049 1.510 . S
C1040 C1036 1.401 . S
C1040 C1039 1.396 . S
C1041 C1036 1.499 . S
C1041 H1042 0.959 . S
C1041 H1043 0.960 . S
C1041 H1044 0.961 . S
H1042 C1041 0.959 . S
H1043 C1041 0.960 . S
H1044 C1041 0.961 . S
O1045 Co1020 1.967 . S
O1045 C1053 1.258 . S
O1046 Co1021 1.941 . S
O1046 C1053 1.266 . S
H1047 C1049 0.959 . S
H1048 C1049 0.961 . S
C1049 C1039 1.510 . S
C1049 H1047 0.959 . S
C1049 H1048 0.961 . S
C1049 H1050 0.960 . S
H1050 C1049 0.960 . S
H1051 N1031 0.862 . S
O1052 Co1020 1.920 . S
O1052 C1025 1.289 . S
C1053 O1045 1.258 . S
C1053 O1046 1.266 . S
Co1054 O1057 1.970 . S
Co1054 N1071 1.989 . S
Co1054 O1079 1.967 . S
Co1054 O1086 1.920 . S
Co1055 O1058 1.966 . S
Co1055 N1064 2.022 . S
Co1055 N1072 1.993 . S
Co1055 O1080 1.941 . S
C1056 O1057 1.258 . S
C1056 O1058 1.263 . S
O1057 Co1054 1.970 . S
O1057 C1056 1.258 . S
O1058 Co1055 1.966 . S
O1058 C1056 1.263 . S
C1059 O1060 1.235 . S
C1059 O1086 1.289 . S
O1060 C1059 1.235 . S
C1061 C1063 1.400 . S
C1061 N1064 1.351 . S
C1061 C1066 1.501 . S
C1062 C1063 1.387 . S
C1062 N1065 1.341 . S
C1063 C1061 1.400 . S
C1063 C1062 1.387 . S
N1064 Co1055 2.022 . S
N1064 C1061 1.351 . S
N1064 N1065 1.365 . S
N1065 C1062 1.341 . S
N1065 N1064 1.365 . S
N1065 H1085 0.862 . S
C1066 C1061 1.501 . S
C1066 H1067 0.961 . S
C1066 H1068 0.961 . S
C1066 H1069 0.960 . S
H1067 C1066 0.961 . S
H1068 C1066 0.961 . S
H1069 C1066 0.960 . S
C1070 N1071 1.342 . S
C1070 C1074 1.401 . S
C1070 C1075 1.499 . S
N1071 Co1054 1.989 . S
N1071 C1070 1.342 . S
N1071 N1072 1.388 . S
N1072 Co1055 1.993 . S
N1072 N1071 1.388 . S
N1072 C1073 1.346 . S
C1073 N1072 1.346 . S
C1073 C1074 1.396 . S
C1073 C1083 1.510 . S
C1074 C1070 1.401 . S
C1074 C1073 1.396 . S
C1075 C1070 1.499 . S
C1075 H1076 0.959 . S
C1075 H1077 0.960 . S
C1075 H1078 0.961 . S
H1076 C1075 0.959 . S
H1077 C1075 0.960 . S
H1078 C1075 0.961 . S
O1079 Co1054 1.967 . S
O1079 C1087 1.258 . S
O1080 Co1055 1.941 . S
O1080 C1087 1.266 . S
H1081 C1083 0.959 . S
H1082 C1083 0.961 . S
C1083 C1073 1.510 . S
C1083 H1081 0.959 . S
C1083 H1082 0.961 . S
C1083 H1084 0.960 . S
H1084 C1083 0.960 . S
H1085 N1065 0.862 . S
O1086 Co1054 1.920 . S
O1086 C1059 1.289 . S
C1087 O1079 1.258 . S
C1087 O1080 1.266 . S
C1088 C1089 1.349 . S
C1088 C1090 1.327 . S
C1088 H1113 0.950 . S
C1089 C1088 1.349 . S
C1089 C1105 1.349 . S
C1090 C1088 1.327 . S
C1090 C1109 1.429 . S
C1090 H1114 0.950 . S
C1091 C1108 1.574 . S
C1091 C1110 1.368 . S
C1091 H1115 0.949 . S
H1092 C1096 0.949 . S
C1093 C1094 1.349 . S
C1093 C1095 1.327 . S
C1093 H1116 0.950 . S
C1094 C1093 1.349 . S
C1094 C1106 1.349 . S
C1095 C1093 1.327 . S
C1095 C1111 1.429 . S
C1095 H1117 0.950 . S
C1096 H1092 0.949 . S
C1096 C1104 1.574 . S
C1096 C1112 1.368 . S
H1097 C1105 0.950 . S
H1098 C1103 0.950 . S
H1099 C1104 0.949 . S
H1100 C1106 0.950 . S
H1101 C1107 0.950 . S
H1102 C1108 0.949 . S
C1103 H1098 0.950 . S
C1103 C1105 1.327 . S
C1103 C1109 1.429 . S
C1104 C1096 1.574 . S
C1104 H1099 0.949 . S
C1104 C1110 1.368 . S
C1105 C1089 1.349 . S
C1105 H1097 0.950 . S
C1105 C1103 1.327 . S
C1106 C1094 1.349 . S
C1106 H1100 0.950 . S
C1106 C1107 1.327 . S
C1107 H1101 0.950 . S
C1107 C1106 1.327 . S
C1107 C1111 1.429 . S
C1108 C1091 1.574 . S
C1108 H1102 0.949 . S
C1108 C1112 1.368 . S
C1109 C1090 1.429 . S
C1109 C1103 1.429 . S
C1109 C1110 1.523 . S
C1110 C1091 1.368 . S
C1110 C1104 1.368 . S
C1110 C1109 1.523 . S
C1111 C1095 1.429 . S
C1111 C1107 1.429 . S
C1111 C1112 1.523 . S
C1112 C1096 1.368 . S
C1112 C1108 1.368 . S
C1112 C1111 1.523 . S
H1113 C1088 0.950 . S
H1114 C1090 0.950 . S
H1115 C1091 0.949 . S
H1116 C1093 0.950 . S
H1117 C1095 0.950 . S
C1118 C1119 1.349 . S
C1118 C1120 1.327 . S
C1118 H1143 0.950 . S
C1119 C1118 1.349 . S
C1119 C1135 1.347 . S
C1120 C1118 1.327 . S
C1120 C1139 1.429 . S
C1120 H1144 0.950 1_455 S
C1121 C1138 1.574 . S
C1121 C1140 1.368 1_545 S
C1121 H1145 0.949 . S
H1122 C1126 0.949 . S
C1123 C1124 1.349 . S
C1123 C1125 1.327 . S
C1123 H1146 0.950 . S
C1124 C1123 1.349 . S
C1124 C1136 1.347 . S
C1125 C1123 1.327 . S
C1125 C1141 1.429 . S
C1125 H1147 0.950 1_655 S
C1126 H1122 0.949 . S
C1126 C1134 1.574 . S
C1126 C1142 1.368 1_565 S
H1127 C1135 0.951 1_545 S
H1128 C1133 0.950 . S
H1129 C1134 0.949 . S
H1130 C1136 0.951 1_565 S
H1131 C1137 0.950 . S
H1132 C1138 0.949 . S
C1133 H1128 0.950 . S
C1133 C1135 1.328 1_545 S
C1133 C1139 1.429 1_545 S
C1134 C1126 1.574 . S
C1134 H1129 0.949 . S
C1134 C1140 1.368 1_655 S
C1135 C1119 1.347 . S
C1135 H1127 0.951 1_565 S
C1135 C1133 1.328 1_565 S
C1136 C1124 1.347 . S
C1136 H1130 0.951 1_545 S
C1136 C1137 1.328 1_545 S
C1137 H1131 0.950 . S
C1137 C1136 1.328 1_565 S
C1137 C1141 1.429 1_565 S
C1138 C1121 1.574 . S
C1138 H1132 0.949 . S
C1138 C1142 1.368 1_455 S
C1139 C1120 1.429 . S
C1139 C1133 1.429 1_565 S
C1139 C1140 1.523 . S
C1140 C1121 1.368 1_565 S
C1140 C1134 1.368 1_455 S
C1140 C1139 1.523 . S
C1141 C1125 1.429 . S
C1141 C1137 1.429 1_545 S
C1141 C1142 1.523 . S
C1142 C1126 1.368 1_545 S
C1142 C1138 1.368 1_655 S
C1142 C1141 1.523 . S
H1143 C1118 0.950 . S
H1144 C1120 0.950 1_655 S
H1145 C1121 0.949 . S
H1146 C1123 0.950 . S
H1147 C1125 0.950 1_455 S
C1148 C1149 1.349 . S
C1148 C1150 1.327 . S
C1148 H1173 0.950 . S
C1149 C1148 1.349 . S
C1149 C1165 1.349 . S
C1150 C1148 1.327 . S
C1150 C1169 1.429 . S
C1150 H1174 0.950 . S
C1151 C1168 1.574 . S
C1151 C1170 1.368 . S
C1151 H1175 0.949 . S
H1152 C1156 0.949 . S
C1153 C1154 1.349 . S
C1153 C1155 1.327 . S
C1153 H1176 0.950 . S
C1154 C1153 1.349 . S
C1154 C1166 1.349 . S
C1155 C1153 1.327 . S
C1155 C1171 1.429 . S
C1155 H1177 0.950 . S
C1156 H1152 0.949 . S
C1156 C1164 1.574 . S
C1156 C1172 1.368 . S
H1157 C1165 0.950 . S
H1158 C1163 0.950 . S
H1159 C1164 0.949 . S
H1160 C1166 0.950 . S
H1161 C1167 0.950 . S
H1162 C1168 0.949 . S
C1163 H1158 0.950 . S
C1163 C1165 1.327 . S
C1163 C1169 1.429 . S
C1164 C1156 1.574 . S
C1164 H1159 0.949 . S
C1164 C1170 1.368 . S
C1165 C1149 1.349 . S
C1165 H1157 0.950 . S
C1165 C1163 1.327 . S
C1166 C1154 1.349 . S
C1166 H1160 0.950 . S
C1166 C1167 1.327 . S
C1167 H1161 0.950 . S
C1167 C1166 1.327 . S
C1167 C1171 1.429 . S
C1168 C1151 1.574 . S
C1168 H1162 0.949 . S
C1168 C1172 1.368 . S
C1169 C1150 1.429 . S
C1169 C1163 1.429 . S
C1169 C1170 1.523 . S
C1170 C1151 1.368 . S
C1170 C1164 1.368 . S
C1170 C1169 1.523 . S
C1171 C1155 1.429 . S
C1171 C1167 1.429 . S
C1171 C1172 1.523 . S
C1172 C1156 1.368 . S
C1172 C1168 1.368 . S
C1172 C1171 1.523 . S
H1173 C1148 0.950 . S
H1174 C1150 0.950 . S
H1175 C1151 0.949 . S
H1176 C1153 0.950 . S
H1177 C1155 0.950 . S
C1178 C1179 1.349 . S
C1178 C1180 1.327 1_545 S
C1178 H1203 0.950 1_545 S
C1179 C1178 1.349 . S
C1179 C1195 1.349 . S
C1180 C1178 1.327 1_565 S
C1180 C1199 1.429 1_565 S
C1180 H1204 0.950 . S
C1181 C1198 1.574 1_554 S
C1181 C1200 1.368 . S
C1181 H1205 0.949 . S
H1182 C1186 0.949 . S
C1183 C1184 1.349 . S
C1183 C1185 1.327 1_565 S
C1183 H1206 0.950 1_565 S
C1184 C1183 1.349 . S
C1184 C1196 1.349 . S
C1185 C1183 1.327 1_545 S
C1185 C1201 1.429 1_545 S
C1185 H1207 0.950 . S
C1186 H1182 0.949 . S
C1186 C1194 1.574 1_556 S
C1186 C1202 1.368 . S
H1187 C1195 0.950 . S
H1188 C1193 0.950 . S
H1189 C1194 0.949 . S
H1190 C1196 0.950 . S
H1191 C1197 0.950 . S
H1192 C1198 0.949 . S
C1193 H1188 0.950 . S
C1193 C1195 1.327 . S
C1193 C1199 1.429 . S
C1194 C1186 1.574 1_554 S
C1194 H1189 0.949 . S
C1194 C1200 1.368 1_565 S
C1195 C1179 1.349 . S
C1195 H1187 0.950 . S
C1195 C1193 1.327 . S
C1196 C1184 1.349 . S
C1196 H1190 0.950 . S
C1196 C1197 1.327 . S
C1197 H1191 0.950 . S
C1197 C1196 1.327 . S
C1197 C1201 1.429 . S
C1198 C1181 1.574 1_556 S
C1198 H1192 0.949 . S
C1198 C1202 1.368 1_545 S
C1199 C1180 1.429 1_545 S
C1199 C1193 1.429 . S
C1199 C1200 1.523 . S
C1200 C1181 1.368 . S
C1200 C1194 1.368 1_545 S
C1200 C1199 1.523 . S
C1201 C1185 1.429 1_565 S
C1201 C1197 1.429 . S
C1201 C1202 1.523 . S
C1202 C1186 1.368 . S
C1202 C1198 1.368 1_565 S
C1202 C1201 1.523 . S
H1203 C1178 0.950 1_565 S
H1204 C1180 0.950 . S
H1205 C1181 0.949 . S
H1206 C1183 0.950 1_545 S
H1207 C1185 0.950 . S
C1208 C1209 1.349 . S
C1208 C1210 1.327 . S
C1208 H1233 0.950 . S
C1209 C1208 1.349 . S
C1209 C1225 1.349 . S
C1210 C1208 1.327 . S
C1210 C1229 1.429 . S
C1210 H1234 0.950 . S
C1211 C1228 1.574 . S
C1211 C1230 1.368 . S
C1211 H1235 0.949 . S
H1212 C1216 0.949 . S
C1213 C1214 1.349 . S
C1213 C1215 1.327 . S
C1213 H1236 0.950 . S
C1214 C1213 1.349 . S
C1214 C1226 1.349 . S
C1215 C1213 1.327 . S
C1215 C1231 1.429 . S
C1215 H1237 0.950 . S
C1216 H1212 0.949 . S
C1216 C1224 1.574 . S
C1216 C1232 1.368 . S
H1217 C1225 0.950 . S
H1218 C1223 0.950 . S
H1219 C1224 0.949 . S
H1220 C1226 0.950 . S
H1221 C1227 0.950 . S
H1222 C1228 0.949 . S
C1223 H1218 0.950 . S
C1223 C1225 1.327 . S
C1223 C1229 1.429 . S
C1224 C1216 1.574 . S
C1224 H1219 0.949 . S
C1224 C1230 1.368 . S
C1225 C1209 1.349 . S
C1225 H1217 0.950 . S
C1225 C1223 1.327 . S
C1226 C1214 1.349 . S
C1226 H1220 0.950 . S
C1226 C1227 1.327 . S
C1227 H1221 0.950 . S
C1227 C1226 1.327 . S
C1227 C1231 1.429 . S
C1228 C1211 1.574 . S
C1228 H1222 0.949 . S
C1228 C1232 1.368 . S
C1229 C1210 1.429 . S
C1229 C1223 1.429 . S
C1229 C1230 1.523 . S
C1230 C1211 1.368 . S
C1230 C1224 1.368 . S
C1230 C1229 1.523 . S
C1231 C1215 1.429 . S
C1231 C1227 1.429 . S
C1231 C1232 1.523 . S
C1232 C1216 1.368 . S
C1232 C1228 1.368 . S
C1232 C1231 1.523 . S
H1233 C1208 0.950 . S
H1234 C1210 0.950 . S
H1235 C1211 0.949 . S
H1236 C1213 0.950 . S
H1237 C1215 0.950 . S
C1238 C1239 1.349 1_545 S
C1238 C1240 1.327 . S
C1238 H1263 0.950 . S
C1239 C1238 1.349 1_565 S
C1239 C1255 1.349 . S
C1240 C1238 1.327 . S
C1240 C1259 1.429 1_545 S
C1240 H1264 0.950 . S
C1241 C1258 1.574 . S
C1241 C1260 1.368 . S
C1241 H1265 0.949 . S
H1242 C1246 0.949 . S
C1243 C1244 1.349 1_565 S
C1243 C1245 1.327 . S
C1243 H1266 0.950 . S
C1244 C1243 1.349 1_545 S
C1244 C1256 1.349 . S
C1245 C1243 1.327 . S
C1245 C1261 1.429 1_565 S
C1245 H1267 0.950 . S
C1246 H1242 0.949 . S
C1246 C1254 1.574 . S
C1246 C1262 1.368 . S
H1247 C1255 0.950 . S
H1248 C1253 0.950 . S
H1249 C1254 0.949 . S
H1250 C1256 0.950 . S
H1251 C1257 0.950 . S
H1252 C1258 0.949 . S
C1253 H1248 0.950 . S
C1253 C1255 1.327 . S
C1253 C1259 1.429 . S
C1254 C1246 1.574 . S
C1254 H1249 0.949 . S
C1254 C1260 1.368 1_545 S
C1255 C1239 1.349 . S
C1255 H1247 0.950 . S
C1255 C1253 1.327 . S
C1256 C1244 1.349 . S
C1256 H1250 0.950 . S
C1256 C1257 1.327 . S
C1257 H1251 0.950 . S
C1257 C1256 1.327 . S
C1257 C1261 1.429 . S
C1258 C1241 1.574 . S
C1258 H1252 0.949 . S
C1258 C1262 1.368 1_565 S
C1259 C1240 1.429 1_565 S
C1259 C1253 1.429 . S
C1259 C1260 1.523 . S
C1260 C1241 1.368 . S
C1260 C1254 1.368 1_565 S
C1260 C1259 1.523 . S
C1261 C1245 1.429 1_545 S
C1261 C1257 1.429 . S
C1261 C1262 1.523 . S
C1262 C1246 1.368 . S
C1262 C1258 1.368 1_545 S
C1262 C1261 1.523 . S
H1263 C1238 0.950 . S
H1264 C1240 0.950 . S
H1265 C1241 0.949 . S
H1266 C1243 0.950 . S
H1267 C1245 0.950 . S
C1268 C1269 1.349 . S
C1268 C1270 1.327 . S
C1268 H1293 0.950 . S
C1269 C1268 1.349 . S
C1269 C1285 1.349 . S
C1270 C1268 1.327 . S
C1270 C1289 1.429 . S
C1270 H1294 0.950 . S
C1271 C1288 1.574 . S
C1271 C1290 1.368 . S
C1271 H1295 0.949 . S
H1272 C1276 0.949 . S
C1273 C1274 1.349 . S
C1273 C1275 1.327 . S
C1273 H1296 0.950 . S
C1274 C1273 1.349 . S
C1274 C1286 1.349 . S
C1275 C1273 1.327 . S
C1275 C1291 1.429 . S
C1275 H1297 0.950 . S
C1276 H1272 0.949 . S
C1276 C1284 1.574 . S
C1276 C1292 1.368 . S
H1277 C1285 0.950 . S
H1278 C1283 0.950 . S
H1279 C1284 0.949 . S
H1280 C1286 0.950 . S
H1281 C1287 0.950 . S
H1282 C1288 0.949 . S
C1283 H1278 0.950 . S
C1283 C1285 1.327 . S
C1283 C1289 1.429 . S
C1284 C1276 1.574 . S
C1284 H1279 0.949 . S
C1284 C1290 1.368 . S
C1285 C1269 1.349 . S
C1285 H1277 0.950 . S
C1285 C1283 1.327 . S
C1286 C1274 1.349 . S
C1286 H1280 0.950 . S
C1286 C1287 1.327 . S
C1287 H1281 0.950 . S
C1287 C1286 1.327 . S
C1287 C1291 1.429 . S
C1288 C1271 1.574 . S
C1288 H1282 0.949 . S
C1288 C1292 1.368 . S
C1289 C1270 1.429 . S
C1289 C1283 1.429 . S
C1289 C1290 1.523 . S
C1290 C1271 1.368 . S
C1290 C1284 1.368 . S
C1290 C1289 1.523 . S
C1291 C1275 1.429 . S
C1291 C1287 1.429 . S
C1291 C1292 1.523 . S
C1292 C1276 1.368 . S
C1292 C1288 1.368 . S
C1292 C1291 1.523 . S
H1293 C1268 0.950 . S
H1294 C1270 0.950 . S
H1295 C1271 0.949 . S
H1296 C1273 0.950 . S
H1297 C1275 0.950 . S
C1298 C1299 1.324 1_565 S
C1298 C1300 1.334 . S
C1298 H1323 0.969 . S
C1299 C1298 1.324 1_545 S
C1299 C1315 1.349 . S
C1300 C1298 1.334 . S
C1300 C1319 1.429 1_565 S
C1300 H1324 0.950 . S
C1301 C1318 1.574 1_556 S
C1301 C1320 1.368 1_655 S
C1301 H1325 0.949 . S
H1302 C1306 0.949 . S
C1303 C1304 1.324 1_545 S
C1303 C1305 1.334 . S
C1303 H1326 0.969 . S
C1304 C1303 1.324 1_565 S
C1304 C1316 1.349 . S
C1305 C1303 1.334 . S
C1305 C1321 1.429 1_545 S
C1305 H1327 0.950 . S
C1306 H1302 0.949 . S
C1306 C1314 1.574 1_554 S
C1306 C1322 1.368 1_455 S
H1307 C1315 0.950 . S
H1308 C1313 0.950 1_655 S
H1309 C1314 0.949 . S
H1310 C1316 0.950 . S
H1311 C1317 0.950 1_455 S
H1312 C1318 0.949 . S
C1313 H1308 0.950 1_455 S
C1313 C1315 1.327 . S
C1313 C1319 1.429 . S
C1314 C1306 1.574 1_556 S
C1314 H1309 0.949 . S
C1314 C1320 1.368 1_565 S
C1315 C1299 1.349 . S
C1315 H1307 0.950 . S
C1315 C1313 1.327 . S
C1316 C1304 1.349 . S
C1316 H1310 0.950 . S
C1316 C1317 1.327 . S
C1317 H1311 0.950 1_655 S
C1317 C1316 1.327 . S
C1317 C1321 1.429 . S
C1318 C1301 1.574 1_554 S
C1318 H1312 0.949 . S
C1318 C1322 1.368 1_545 S
C1319 C1300 1.429 1_545 S
C1319 C1313 1.429 . S
C1319 C1320 1.523 . S
C1320 C1301 1.368 1_455 S
C1320 C1314 1.368 1_545 S
C1320 C1319 1.523 . S
C1321 C1305 1.429 1_565 S
C1321 C1317 1.429 . S
C1321 C1322 1.523 . S
C1322 C1306 1.368 1_655 S
C1322 C1318 1.368 1_565 S
C1322 C1321 1.523 . S
H1323 C1298 0.969 . S
H1324 C1300 0.950 . S
H1325 C1301 0.949 . S
H1326 C1303 0.969 . S
H1327 C1305 0.950 . S
C1328 C1329 1.349 . S
C1328 C1330 1.327 . S
C1328 H1353 0.950 . S
C1329 C1328 1.349 . S
C1329 C1345 1.349 . S
C1330 C1328 1.327 . S
C1330 C1349 1.429 . S
C1330 H1354 0.950 . S
C1331 C1348 1.574 . S
C1331 C1350 1.368 . S
C1331 H1355 0.949 . S
H1332 C1336 0.949 . S
C1333 C1334 1.349 . S
C1333 C1335 1.327 . S
C1333 H1356 0.950 . S
C1334 C1333 1.349 . S
C1334 C1346 1.349 . S
C1335 C1333 1.327 . S
C1335 C1351 1.429 . S
C1335 H1357 0.950 . S
C1336 H1332 0.949 . S
C1336 C1344 1.574 . S
C1336 C1352 1.368 . S
H1337 C1345 0.950 . S
H1338 C1343 0.950 . S
H1339 C1344 0.949 . S
H1340 C1346 0.950 . S
H1341 C1347 0.950 . S
H1342 C1348 0.949 . S
C1343 H1338 0.950 . S
C1343 C1345 1.327 . S
C1343 C1349 1.429 . S
C1344 C1336 1.574 . S
C1344 H1339 0.949 . S
C1344 C1350 1.368 . S
C1345 C1329 1.349 . S
C1345 H1337 0.950 . S
C1345 C1343 1.327 . S
C1346 C1334 1.349 . S
C1346 H1340 0.950 . S
C1346 C1347 1.327 . S
C1347 H1341 0.950 . S
C1347 C1346 1.327 . S
C1347 C1351 1.429 . S
C1348 C1331 1.574 . S
C1348 H1342 0.949 . S
C1348 C1352 1.368 . S
C1349 C1330 1.429 . S
C1349 C1343 1.429 . S
C1349 C1350 1.523 . S
C1350 C1331 1.368 . S
C1350 C1344 1.368 . S
C1350 C1349 1.523 . S
C1351 C1335 1.429 . S
C1351 C1347 1.429 . S
C1351 C1352 1.523 . S
C1352 C1336 1.368 . S
C1352 C1348 1.368 . S
C1352 C1351 1.523 . S
H1353 C1328 0.950 . S
H1354 C1330 0.950 . S
H1355 C1331 0.949 . S
H1356 C1333 0.950 . S
H1357 C1335 0.950 . S
C1358 C1359 1.349 . S
C1358 C1360 1.327 . S
C1358 H1383 0.950 . S
C1359 C1358 1.349 . S
C1359 C1375 1.349 . S
C1360 C1358 1.327 . S
C1360 C1379 1.429 . S
C1360 H1384 0.950 . S
C1361 C1378 1.574 . S
C1361 C1380 1.368 . S
C1361 H1385 0.949 . S
H1362 C1366 0.949 . S
C1363 C1364 1.349 . S
C1363 C1365 1.327 . S
C1363 H1386 0.950 . S
C1364 C1363 1.349 . S
C1364 C1376 1.349 . S
C1365 C1363 1.327 . S
C1365 C1381 1.429 . S
C1365 H1387 0.950 . S
C1366 H1362 0.949 . S
C1366 C1374 1.574 . S
C1366 C1382 1.368 . S
H1367 C1375 0.950 . S
H1368 C1373 0.950 . S
H1369 C1374 0.949 . S
H1370 C1376 0.950 . S
H1371 C1377 0.950 . S
H1372 C1378 0.949 . S
C1373 H1368 0.950 . S
C1373 C1375 1.327 . S
C1373 C1379 1.429 . S
C1374 C1366 1.574 . S
C1374 H1369 0.949 . S
C1374 C1380 1.368 . S
C1375 C1359 1.349 . S
C1375 H1367 0.950 . S
C1375 C1373 1.327 . S
C1376 C1364 1.349 . S
C1376 H1370 0.950 . S
C1376 C1377 1.327 . S
C1377 H1371 0.950 . S
C1377 C1376 1.327 . S
C1377 C1381 1.429 . S
C1378 C1361 1.574 . S
C1378 H1372 0.949 . S
C1378 C1382 1.368 . S
C1379 C1360 1.429 . S
C1379 C1373 1.429 . S
C1379 C1380 1.523 . S
C1380 C1361 1.368 . S
C1380 C1374 1.368 . S
C1380 C1379 1.523 . S
C1381 C1365 1.429 . S
C1381 C1377 1.429 . S
C1381 C1382 1.523 . S
C1382 C1366 1.368 . S
C1382 C1378 1.368 . S
C1382 C1381 1.523 . S
H1383 C1358 0.950 . S
H1384 C1360 0.950 . S
H1385 C1361 0.949 . S
H1386 C1363 0.950 . S
H1387 C1365 0.950 . S
C1388 C1389 1.349 . S
C1388 C1390 1.327 . S
C1388 H1413 0.950 . S
C1389 C1388 1.349 . S
C1389 C1405 1.349 . S
C1390 C1388 1.327 . S
C1390 C1409 1.429 . S
C1390 H1414 0.950 . S
C1391 C1408 1.574 . S
C1391 C1410 1.368 . S
C1391 H1415 0.949 . S
H1392 C1396 0.949 . S
C1393 C1394 1.349 . S
C1393 C1395 1.327 . S
C1393 H1416 0.950 . S
C1394 C1393 1.349 . S
C1394 C1406 1.349 . S
C1395 C1393 1.327 . S
C1395 C1411 1.429 . S
C1395 H1417 0.950 . S
C1396 H1392 0.949 . S
C1396 C1404 1.574 . S
C1396 C1412 1.368 . S
H1397 C1405 0.950 . S
H1398 C1403 0.950 . S
H1399 C1404 0.949 . S
H1400 C1406 0.950 . S
H1401 C1407 0.950 . S
H1402 C1408 0.949 . S
C1403 H1398 0.950 . S
C1403 C1405 1.327 . S
C1403 C1409 1.429 . S
C1404 C1396 1.574 . S
C1404 H1399 0.949 . S
C1404 C1410 1.368 . S
C1405 C1389 1.349 . S
C1405 H1397 0.950 . S
C1405 C1403 1.327 . S
C1406 C1394 1.349 . S
C1406 H1400 0.950 . S
C1406 C1407 1.327 . S
C1407 H1401 0.950 . S
C1407 C1406 1.327 . S
C1407 C1411 1.429 . S
C1408 C1391 1.574 . S
C1408 H1402 0.949 . S
C1408 C1412 1.368 . S
C1409 C1390 1.429 . S
C1409 C1403 1.429 . S
C1409 C1410 1.523 . S
C1410 C1391 1.368 . S
C1410 C1404 1.368 . S
C1410 C1409 1.523 . S
C1411 C1395 1.429 . S
C1411 C1407 1.429 . S
C1411 C1412 1.523 . S
C1412 C1396 1.368 . S
C1412 C1408 1.368 . S
C1412 C1411 1.523 . S
H1413 C1388 0.950 . S
H1414 C1390 0.950 . S
H1415 C1391 0.949 . S
H1416 C1393 0.950 . S
H1417 C1395 0.950 . S
C1418 C1419 1.349 . S
C1418 C1420 1.327 . S
C1418 H1443 0.950 . S
C1419 C1418 1.349 . S
C1419 C1435 1.349 . S
C1420 C1418 1.327 . S
C1420 C1439 1.429 . S
C1420 H1444 0.950 . S
C1421 C1438 1.574 . S
C1421 C1440 1.368 . S
C1421 H1445 0.949 . S
H1422 C1426 0.949 . S
C1423 C1424 1.349 . S
C1423 C1425 1.327 . S
C1423 H1446 0.950 . S
C1424 C1423 1.349 . S
C1424 C1436 1.349 . S
C1425 C1423 1.327 . S
C1425 C1441 1.429 . S
C1425 H1447 0.950 . S
C1426 H1422 0.949 . S
C1426 C1434 1.574 . S
C1426 C1442 1.368 . S
H1427 C1435 0.950 . S
H1428 C1433 0.950 . S
H1429 C1434 0.949 . S
H1430 C1436 0.950 . S
H1431 C1437 0.950 . S
H1432 C1438 0.949 . S
C1433 H1428 0.950 . S
C1433 C1435 1.327 . S
C1433 C1439 1.429 . S
C1434 C1426 1.574 . S
C1434 H1429 0.949 . S
C1434 C1440 1.368 . S
C1435 C1419 1.349 . S
C1435 H1427 0.950 . S
C1435 C1433 1.327 . S
C1436 C1424 1.349 . S
C1436 H1430 0.950 . S
C1436 C1437 1.327 . S
C1437 H1431 0.950 . S
C1437 C1436 1.327 . S
C1437 C1441 1.429 . S
C1438 C1421 1.574 . S
C1438 H1432 0.949 . S
C1438 C1442 1.368 . S
C1439 C1420 1.429 . S
C1439 C1433 1.429 . S
C1439 C1440 1.523 . S
C1440 C1421 1.368 . S
C1440 C1434 1.368 . S
C1440 C1439 1.523 . S
C1441 C1425 1.429 . S
C1441 C1437 1.429 . S
C1441 C1442 1.523 . S
C1442 C1426 1.368 . S
C1442 C1438 1.368 . S
C1442 C1441 1.523 . S
H1443 C1418 0.950 . S
H1444 C1420 0.950 . S
H1445 C1421 0.949 . S
H1446 C1423 0.950 . S
H1447 C1425 0.950 . S
C1448 C1449 1.349 . S
C1448 C1450 1.327 . S
C1448 H1473 0.950 . S
C1449 C1448 1.349 . S
C1449 C1465 1.349 . S
C1450 C1448 1.327 . S
C1450 C1469 1.429 . S
C1450 H1474 0.950 . S
C1451 C1468 1.574 1_556 S
C1451 C1470 1.368 . S
C1451 H1475 0.949 . S
H1452 C1456 0.949 . S
C1453 C1454 1.349 . S
C1453 C1455 1.327 . S
C1453 H1476 0.950 . S
C1454 C1453 1.349 . S
C1454 C1466 1.349 . S
C1455 C1453 1.327 . S
C1455 C1471 1.429 . S
C1455 H1477 0.950 . S
C1456 H1452 0.949 . S
C1456 C1464 1.574 1_554 S
C1456 C1472 1.368 . S
H1457 C1465 0.950 . S
H1458 C1463 0.950 . S
H1459 C1464 0.949 . S
H1460 C1466 0.950 . S
H1461 C1467 0.950 . S
H1462 C1468 0.949 . S
C1463 H1458 0.950 . S
C1463 C1465 1.327 . S
C1463 C1469 1.429 . S
C1464 C1456 1.574 1_556 S
C1464 H1459 0.949 . S
C1464 C1470 1.368 . S
C1465 C1449 1.349 . S
C1465 H1457 0.950 . S
C1465 C1463 1.327 . S
C1466 C1454 1.349 . S
C1466 H1460 0.950 . S
C1466 C1467 1.327 . S
C1467 H1461 0.950 . S
C1467 C1466 1.327 . S
C1467 C1471 1.429 . S
C1468 C1451 1.574 1_554 S
C1468 H1462 0.949 . S
C1468 C1472 1.368 . S
C1469 C1450 1.429 . S
C1469 C1463 1.429 . S
C1469 C1470 1.523 . S
C1470 C1451 1.368 . S
C1470 C1464 1.368 . S
C1470 C1469 1.523 . S
C1471 C1455 1.429 . S
C1471 C1467 1.429 . S
C1471 C1472 1.523 . S
C1472 C1456 1.368 . S
C1472 C1468 1.368 . S
C1472 C1471 1.523 . S
H1473 C1448 0.950 . S
H1474 C1450 0.950 . S
H1475 C1451 0.949 . S
H1476 C1453 0.950 . S
H1477 C1455 0.950 . S
C1478 C1479 1.349 . S
C1478 C1480 1.327 . S
C1478 H1503 0.950 . S
C1479 C1478 1.349 . S
C1479 C1495 1.349 . S
C1480 C1478 1.327 . S
C1480 C1499 1.429 . S
C1480 H1504 0.950 . S
C1481 C1498 1.574 . S
C1481 C1500 1.368 1_455 S
C1481 H1505 0.949 . S
H1482 C1486 0.949 . S
C1483 C1484 1.349 . S
C1483 C1485 1.327 . S
C1483 H1506 0.950 . S
C1484 C1483 1.349 . S
C1484 C1496 1.349 . S
C1485 C1483 1.327 . S
C1485 C1501 1.429 . S
C1485 H1507 0.950 . S
C1486 H1482 0.949 . S
C1486 C1494 1.574 . S
C1486 C1502 1.368 1_655 S
H1487 C1495 0.954 . S
H1488 C1493 0.950 1_455 S
H1489 C1494 0.949 . S
H1490 C1496 0.954 . S
H1491 C1497 0.950 1_655 S
H1492 C1498 0.949 . S
C1493 H1488 0.950 1_655 S
C1493 C1495 1.327 . S
C1493 C1499 1.429 . S
C1494 C1486 1.574 . S
C1494 H1489 0.949 . S
C1494 C1500 1.368 . S
C1495 C1479 1.349 . S
C1495 H1487 0.954 . S
C1495 C1493 1.327 . S
C1496 C1484 1.349 . S
C1496 H1490 0.954 . S
C1496 C1497 1.327 . S
C1497 H1491 0.950 1_455 S
C1497 C1496 1.327 . S
C1497 C1501 1.429 . S
C1498 C1481 1.574 . S
C1498 H1492 0.949 . S
C1498 C1502 1.368 . S
C1499 C1480 1.429 . S
C1499 C1493 1.429 . S
C1499 C1500 1.523 . S
C1500 C1481 1.368 1_655 S
C1500 C1494 1.368 . S
C1500 C1499 1.523 . S
C1501 C1485 1.429 . S
C1501 C1497 1.429 . S
C1501 C1502 1.523 . S
C1502 C1486 1.368 1_455 S
C1502 C1498 1.368 . S
C1502 C1501 1.523 . S
H1503 C1478 0.950 . S
H1504 C1480 0.950 . S
H1505 C1481 0.949 . S
H1506 C1483 0.950 . S
H1507 C1485 0.950 . S
C1508 C1509 1.349 . S
C1508 C1510 1.327 1_455 S
C1508 H1533 0.950 1_455 S
C1509 C1508 1.349 . S
C1509 C1525 1.349 . S
C1510 C1508 1.327 1_655 S
C1510 C1529 1.429 1_655 S
C1510 H1534 0.950 . S
C1511 C1528 1.574 1_554 S
C1511 C1530 1.368 . S
C1511 H1535 0.949 . S
H1512 C1516 0.949 . S
C1513 C1514 1.349 . S
C1513 C1515 1.327 1_655 S
C1513 H1536 0.950 1_655 S
C1514 C1513 1.349 . S
C1514 C1526 1.349 . S
C1515 C1513 1.327 1_455 S
C1515 C1531 1.429 1_455 S
C1515 H1537 0.950 . S
C1516 H1512 0.949 . S
C1516 C1524 1.574 1_556 S
C1516 C1532 1.368 . S
H1517 C1525 0.950 . S
H1518 C1523 0.950 . S
H1519 C1524 0.949 . S
H1520 C1526 0.950 . S
H1521 C1527 0.950 . S
H1522 C1528 0.949 . S
C1523 H1518 0.950 . S
C1523 C1525 1.327 . S
C1523 C1529 1.429 . S
C1524 C1516 1.574 1_554 S
C1524 H1519 0.949 . S
C1524 C1530 1.368 1_655 S
C1525 C1509 1.349 . S
C1525 H1517 0.950 . S
C1525 C1523 1.327 . S
C1526 C1514 1.349 . S
C1526 H1520 0.950 . S
C1526 C1527 1.327 . S
C1527 H1521 0.950 . S
C1527 C1526 1.327 . S
C1527 C1531 1.429 . S
C1528 C1511 1.574 1_556 S
C1528 H1522 0.949 . S
C1528 C1532 1.368 1_455 S
C1529 C1510 1.429 1_455 S
C1529 C1523 1.429 . S
C1529 C1530 1.523 . S
C1530 C1511 1.368 . S
C1530 C1524 1.368 1_455 S
C1530 C1529 1.523 . S
C1531 C1515 1.429 1_655 S
C1531 C1527 1.429 . S
C1531 C1532 1.523 . S
C1532 C1516 1.368 . S
C1532 C1528 1.368 1_655 S
C1532 C1531 1.523 . S
H1533 C1508 0.950 1_655 S
H1534 C1510 0.950 . S
H1535 C1511 0.949 . S
H1536 C1513 0.950 1_455 S
H1537 C1515 0.950 . S
C1538 C1539 1.349 . S
C1538 C1540 1.327 . S
C1538 H1563 0.950 . S
C1539 C1538 1.349 . S
C1539 C1555 1.349 . S
C1540 C1538 1.327 . S
C1540 C1559 1.429 . S
C1540 H1564 0.950 . S
C1541 C1558 1.574 . S
C1541 C1560 1.368 . S
C1541 H1565 0.949 . S
H1542 C1546 0.949 . S
C1543 C1544 1.349 . S
C1543 C1545 1.327 . S
C1543 H1566 0.950 . S
C1544 C1543 1.349 . S
C1544 C1556 1.349 . S
C1545 C1543 1.327 . S
C1545 C1561 1.429 . S
C1545 H1567 0.950 . S
C1546 H1542 0.949 . S
C1546 C1554 1.574 . S
C1546 C1562 1.368 . S
H1547 C1555 0.950 . S
H1548 C1553 0.950 . S
H1549 C1554 0.949 . S
H1550 C1556 0.950 . S
H1551 C1557 0.950 . S
H1552 C1558 0.949 . S
C1553 H1548 0.950 . S
C1553 C1555 1.327 . S
C1553 C1559 1.429 . S
C1554 C1546 1.574 . S
C1554 H1549 0.949 . S
C1554 C1560 1.368 . S
C1555 C1539 1.349 . S
C1555 H1547 0.950 . S
C1555 C1553 1.327 . S
C1556 C1544 1.349 . S
C1556 H1550 0.950 . S
C1556 C1557 1.327 . S
C1557 H1551 0.950 . S
C1557 C1556 1.327 . S
C1557 C1561 1.429 . S
C1558 C1541 1.574 . S
C1558 H1552 0.949 . S
C1558 C1562 1.368 . S
C1559 C1540 1.429 . S
C1559 C1553 1.429 . S
C1559 C1560 1.523 . S
C1560 C1541 1.368 . S
C1560 C1554 1.368 . S
C1560 C1559 1.523 . S
C1561 C1545 1.429 . S
C1561 C1557 1.429 . S
C1561 C1562 1.523 . S
C1562 C1546 1.368 . S
C1562 C1558 1.368 . S
C1562 C1561 1.523 . S
H1563 C1538 0.950 . S
H1564 C1540 0.950 . S
H1565 C1541 0.949 . S
H1566 C1543 0.950 . S
H1567 C1545 0.950 . S
C1568 C1569 1.349 . S
C1568 C1570 1.327 . S
C1568 H1593 0.950 . S
C1569 C1568 1.349 . S
C1569 C1585 1.349 . S
C1570 C1568 1.327 . S
C1570 C1589 1.429 . S
C1570 H1594 0.950 . S
C1571 C1588 1.574 . S
C1571 C1590 1.368 . S
C1571 H1595 0.949 . S
H1572 C1576 0.949 . S
C1573 C1574 1.349 . S
C1573 C1575 1.327 . S
C1573 H1596 0.950 . S
C1574 C1573 1.349 . S
C1574 C1586 1.349 . S
C1575 C1573 1.327 . S
C1575 C1591 1.429 . S
C1575 H1597 0.950 . S
C1576 H1572 0.949 . S
C1576 C1584 1.574 . S
C1576 C1592 1.368 . S
H1577 C1585 0.950 . S
H1578 C1583 0.950 . S
H1579 C1584 0.949 . S
H1580 C1586 0.950 . S
H1581 C1587 0.950 . S
H1582 C1588 0.949 . S
C1583 H1578 0.950 . S
C1583 C1585 1.327 . S
C1583 C1589 1.429 . S
C1584 C1576 1.574 . S
C1584 H1579 0.949 . S
C1584 C1590 1.368 . S
C1585 C1569 1.349 . S
C1585 H1577 0.950 . S
C1585 C1583 1.327 . S
C1586 C1574 1.349 . S
C1586 H1580 0.950 . S
C1586 C1587 1.327 . S
C1587 H1581 0.950 . S
C1587 C1586 1.327 . S
C1587 C1591 1.429 . S
C1588 C1571 1.574 . S
C1588 H1582 0.949 . S
C1588 C1592 1.368 . S
C1589 C1570 1.429 . S
C1589 C1583 1.429 . S
C1589 C1590 1.523 . S
C1590 C1571 1.368 . S
C1590 C1584 1.368 . S
C1590 C1589 1.523 . S
C1591 C1575 1.429 . S
C1591 C1587 1.429 . S
C1591 C1592 1.523 . S
C1592 C1576 1.368 . S
C1592 C1588 1.368 . S
C1592 C1591 1.523 . S
H1593 C1568 0.950 . S
H1594 C1570 0.950 . S
H1595 C1571 0.949 . S
H1596 C1573 0.950 . S
H1597 C1575 0.950 . S
C1598 C1599 1.349 . S
C1598 C1600 1.327 . S
C1598 H1623 0.950 . S
C1599 C1598 1.349 . S
C1599 C1615 1.349 . S
C1600 C1598 1.327 . S
C1600 C1619 1.429 . S
C1600 H1624 0.950 . S
C1601 C1618 1.574 . S
C1601 C1620 1.368 . S
C1601 H1625 0.949 . S
H1602 C1606 0.949 . S
C1603 C1604 1.349 . S
C1603 C1605 1.327 . S
C1603 H1626 0.950 . S
C1604 C1603 1.349 . S
C1604 C1616 1.349 . S
C1605 C1603 1.327 . S
C1605 C1621 1.429 . S
C1605 H1627 0.950 . S
C1606 H1602 0.949 . S
C1606 C1614 1.574 . S
C1606 C1622 1.368 . S
H1607 C1615 0.950 . S
H1608 C1613 0.950 . S
H1609 C1614 0.949 . S
H1610 C1616 0.950 . S
H1611 C1617 0.950 . S
H1612 C1618 0.949 . S
C1613 H1608 0.950 . S
C1613 C1615 1.327 . S
C1613 C1619 1.429 . S
C1614 C1606 1.574 . S
C1614 H1609 0.949 . S
C1614 C1620 1.368 . S
C1615 C1599 1.349 . S
C1615 H1607 0.950 . S
C1615 C1613 1.327 . S
C1616 C1604 1.349 . S
C1616 H1610 0.950 . S
C1616 C1617 1.327 . S
C1617 H1611 0.950 . S
C1617 C1616 1.327 . S
C1617 C1621 1.429 . S
C1618 C1601 1.574 . S
C1618 H1612 0.949 . S
C1618 C1622 1.368 . S
C1619 C1600 1.429 . S
C1619 C1613 1.429 . S
C1619 C1620 1.523 . S
C1620 C1601 1.368 . S
C1620 C1614 1.368 . S
C1620 C1619 1.523 . S
C1621 C1605 1.429 . S
C1621 C1617 1.429 . S
C1621 C1622 1.523 . S
C1622 C1606 1.368 . S
C1622 C1618 1.368 . S
C1622 C1621 1.523 . S
H1623 C1598 0.950 . S
H1624 C1600 0.950 . S
H1625 C1601 0.949 . S
H1626 C1603 0.950 . S
H1627 C1605 0.950 . S
C1628 C1629 1.349 . S
C1628 C1630 1.327 . S
C1628 H1653 0.950 . S
C1629 C1628 1.349 . S
C1629 C1645 1.349 . S
C1630 C1628 1.327 . S
C1630 C1649 1.429 . S
C1630 H1654 0.950 . S
C1631 C1648 1.574 . S
C1631 C1650 1.368 . S
C1631 H1655 0.949 . S
H1632 C1636 0.949 . S
C1633 C1634 1.349 . S
C1633 C1635 1.327 . S
C1633 H1656 0.950 . S
C1634 C1633 1.349 . S
C1634 C1646 1.349 . S
C1635 C1633 1.327 . S
C1635 C1651 1.429 . S
C1635 H1657 0.950 . S
C1636 H1632 0.949 . S
C1636 C1644 1.574 . S
C1636 C1652 1.368 . S
H1637 C1645 0.950 . S
H1638 C1643 0.950 . S
H1639 C1644 0.949 . S
H1640 C1646 0.950 . S
H1641 C1647 0.950 . S
H1642 C1648 0.949 . S
C1643 H1638 0.950 . S
C1643 C1645 1.327 . S
C1643 C1649 1.429 . S
C1644 C1636 1.574 . S
C1644 H1639 0.949 . S
C1644 C1650 1.368 . S
C1645 C1629 1.349 . S
C1645 H1637 0.950 . S
C1645 C1643 1.327 . S
C1646 C1634 1.349 . S
C1646 H1640 0.950 . S
C1646 C1647 1.327 . S
C1647 H1641 0.950 . S
C1647 C1646 1.327 . S
C1647 C1651 1.429 . S
C1648 C1631 1.574 . S
C1648 H1642 0.949 . S
C1648 C1652 1.368 . S
C1649 C1630 1.429 . S
C1649 C1643 1.429 . S
C1649 C1650 1.523 . S
C1650 C1631 1.368 . S
C1650 C1644 1.368 . S
C1650 C1649 1.523 . S
C1651 C1635 1.429 . S
C1651 C1647 1.429 . S
C1651 C1652 1.523 . S
C1652 C1636 1.368 . S
C1652 C1648 1.368 . S
C1652 C1651 1.523 . S
H1653 C1628 0.950 . S
H1654 C1630 0.950 . S
H1655 C1631 0.949 . S
H1656 C1633 0.950 . S
H1657 C1635 0.950 . S
C1658 C1659 1.349 . S
C1658 C1660 1.327 . S
C1658 H1683 0.950 . S
C1659 C1658 1.349 . S
C1659 C1675 1.349 . S
C1660 C1658 1.327 . S
C1660 C1679 1.429 . S
C1660 H1684 0.950 . S
C1661 C1678 1.574 . S
C1661 C1680 1.368 . S
C1661 H1685 0.949 . S
H1662 C1666 0.949 . S
C1663 C1664 1.349 . S
C1663 C1665 1.327 . S
C1663 H1686 0.950 . S
C1664 C1663 1.349 . S
C1664 C1676 1.349 . S
C1665 C1663 1.327 . S
C1665 C1681 1.429 . S
C1665 H1687 0.950 . S
C1666 H1662 0.949 . S
C1666 C1674 1.574 . S
C1666 C1682 1.368 . S
H1667 C1675 0.950 . S
H1668 C1673 0.950 . S
H1669 C1674 0.949 . S
H1670 C1676 0.950 . S
H1671 C1677 0.950 . S
H1672 C1678 0.949 . S
C1673 H1668 0.950 . S
C1673 C1675 1.327 . S
C1673 C1679 1.429 . S
C1674 C1666 1.574 . S
C1674 H1669 0.949 . S
C1674 C1680 1.368 . S
C1675 C1659 1.349 . S
C1675 H1667 0.950 . S
C1675 C1673 1.327 . S
C1676 C1664 1.349 . S
C1676 H1670 0.950 . S
C1676 C1677 1.327 . S
C1677 H1671 0.950 . S
C1677 C1676 1.327 . S
C1677 C1681 1.429 . S
C1678 C1661 1.574 . S
C1678 H1672 0.949 . S
C1678 C1682 1.368 . S
C1679 C1660 1.429 . S
C1679 C1673 1.429 . S
C1679 C1680 1.523 . S
C1680 C1661 1.368 . S
C1680 C1674 1.368 . S
C1680 C1679 1.523 . S
C1681 C1665 1.429 . S
C1681 C1677 1.429 . S
C1681 C1682 1.523 . S
C1682 C1666 1.368 . S
C1682 C1678 1.368 . S
C1682 C1681 1.523 . S
H1683 C1658 0.950 . S
H1684 C1660 0.950 . S
H1685 C1661 0.949 . S
H1686 C1663 0.950 . S
H1687 C1665 0.950 . S
C1688 C1689 1.349 . S
C1688 C1690 1.327 . S
C1688 H1713 0.950 . S
C1689 C1688 1.349 . S
C1689 C1705 1.349 . S
C1690 C1688 1.327 . S
C1690 C1709 1.429 . S
C1690 H1714 0.950 . S
C1691 C1708 1.574 . S
C1691 C1710 1.368 . S
C1691 H1715 0.949 . S
H1692 C1696 0.949 . S
C1693 C1694 1.349 . S
C1693 C1695 1.327 . S
C1693 H1716 0.950 . S
C1694 C1693 1.349 . S
C1694 C1706 1.349 . S
C1695 C1693 1.327 . S
C1695 C1711 1.429 . S
C1695 H1717 0.950 . S
C1696 H1692 0.949 . S
C1696 C1704 1.574 . S
C1696 C1712 1.368 . S
H1697 C1705 0.950 . S
H1698 C1703 0.950 . S
H1699 C1704 0.949 . S
H1700 C1706 0.950 . S
H1701 C1707 0.950 . S
H1702 C1708 0.949 . S
C1703 H1698 0.950 . S
C1703 C1705 1.327 . S
C1703 C1709 1.429 . S
C1704 C1696 1.574 . S
C1704 H1699 0.949 . S
C1704 C1710 1.368 . S
C1705 C1689 1.349 . S
C1705 H1697 0.950 . S
C1705 C1703 1.327 . S
C1706 C1694 1.349 . S
C1706 H1700 0.950 . S
C1706 C1707 1.327 . S
C1707 H1701 0.950 . S
C1707 C1706 1.327 . S
C1707 C1711 1.429 . S
C1708 C1691 1.574 . S
C1708 H1702 0.949 . S
C1708 C1712 1.368 . S
C1709 C1690 1.429 . S
C1709 C1703 1.429 . S
C1709 C1710 1.523 . S
C1710 C1691 1.368 . S
C1710 C1704 1.368 . S
C1710 C1709 1.523 . S
C1711 C1695 1.429 . S
C1711 C1707 1.429 . S
C1711 C1712 1.523 . S
C1712 C1696 1.368 . S
C1712 C1708 1.368 . S
C1712 C1711 1.523 . S
H1713 C1688 0.950 . S
H1714 C1690 0.950 . S
H1715 C1691 0.949 . S
H1716 C1693 0.950 . S
H1717 C1695 0.950 . S
C1718 C1719 1.349 . S
C1718 C1720 1.327 . S
C1718 H1743 0.950 . S
C1719 C1718 1.349 . S
C1719 C1735 1.349 . S
C1720 C1718 1.327 . S
C1720 C1739 1.429 . S
C1720 H1744 0.950 . S
C1721 C1738 1.574 . S
C1721 C1740 1.368 . S
C1721 H1745 0.949 . S
H1722 C1726 0.949 . S
C1723 C1724 1.349 . S
C1723 C1725 1.327 . S
C1723 H1746 0.950 . S
C1724 C1723 1.349 . S
C1724 C1736 1.349 . S
C1725 C1723 1.327 . S
C1725 C1741 1.429 . S
C1725 H1747 0.950 . S
C1726 H1722 0.949 . S
C1726 C1734 1.574 . S
C1726 C1742 1.368 . S
H1727 C1735 0.950 . S
H1728 C1733 0.950 . S
H1729 C1734 0.949 . S
H1730 C1736 0.950 . S
H1731 C1737 0.950 . S
H1732 C1738 0.949 . S
C1733 H1728 0.950 . S
C1733 C1735 1.327 . S
C1733 C1739 1.429 . S
C1734 C1726 1.574 . S
C1734 H1729 0.949 . S
C1734 C1740 1.368 . S
C1735 C1719 1.349 . S
C1735 H1727 0.950 . S
C1735 C1733 1.327 . S
C1736 C1724 1.349 . S
C1736 H1730 0.950 . S
C1736 C1737 1.327 . S
C1737 H1731 0.950 . S
C1737 C1736 1.327 . S
C1737 C1741 1.429 . S
C1738 C1721 1.574 . S
C1738 H1732 0.949 . S
C1738 C1742 1.368 . S
C1739 C1720 1.429 . S
C1739 C1733 1.429 . S
C1739 C1740 1.523 . S
C1740 C1721 1.368 . S
C1740 C1734 1.368 . S
C1740 C1739 1.523 . S
C1741 C1725 1.429 . S
C1741 C1737 1.429 . S
C1741 C1742 1.523 . S
C1742 C1726 1.368 . S
C1742 C1738 1.368 . S
C1742 C1741 1.523 . S
H1743 C1718 0.950 . S
H1744 C1720 0.950 . S
H1745 C1721 0.949 . S
H1746 C1723 0.950 . S
H1747 C1725 0.950 . S
C1748 C1749 1.349 . S
C1748 C1750 1.327 . S
C1748 H1773 0.950 . S
C1749 C1748 1.349 . S
C1749 C1765 1.349 . S
C1750 C1748 1.327 . S
C1750 C1769 1.429 . S
C1750 H1774 0.950 . S
C1751 C1768 1.574 . S
C1751 C1770 1.368 . S
C1751 H1775 0.949 . S
H1752 C1756 0.949 . S
C1753 C1754 1.349 . S
C1753 C1755 1.327 . S
C1753 H1776 0.950 . S
C1754 C1753 1.349 . S
C1754 C1766 1.349 . S
C1755 C1753 1.327 . S
C1755 C1771 1.429 . S
C1755 H1777 0.950 . S
C1756 H1752 0.949 . S
C1756 C1764 1.574 . S
C1756 C1772 1.368 . S
H1757 C1765 0.950 . S
H1758 C1763 0.950 . S
H1759 C1764 0.949 . S
H1760 C1766 0.950 . S
H1761 C1767 0.950 . S
H1762 C1768 0.949 . S
C1763 H1758 0.950 . S
C1763 C1765 1.327 . S
C1763 C1769 1.429 . S
C1764 C1756 1.574 . S
C1764 H1759 0.949 . S
C1764 C1770 1.368 . S
C1765 C1749 1.349 . S
C1765 H1757 0.950 . S
C1765 C1763 1.327 . S
C1766 C1754 1.349 . S
C1766 H1760 0.950 . S
C1766 C1767 1.327 . S
C1767 H1761 0.950 . S
C1767 C1766 1.327 . S
C1767 C1771 1.429 . S
C1768 C1751 1.574 . S
C1768 H1762 0.949 . S
C1768 C1772 1.368 . S
C1769 C1750 1.429 . S
C1769 C1763 1.429 . S
C1769 C1770 1.523 . S
C1770 C1751 1.368 . S
C1770 C1764 1.368 . S
C1770 C1769 1.523 . S
C1771 C1755 1.429 . S
C1771 C1767 1.429 . S
C1771 C1772 1.523 . S
C1772 C1756 1.368 . S
C1772 C1768 1.368 . S
C1772 C1771 1.523 . S
H1773 C1748 0.950 . S
H1774 C1750 0.950 . S
H1775 C1751 0.949 . S
H1776 C1753 0.950 . S
H1777 C1755 0.950 . S
C1778 C1779 1.349 . S
C1778 C1780 1.327 . S
C1778 H1803 0.950 . S
C1779 C1778 1.349 . S
C1779 C1795 1.349 . S
C1780 C1778 1.327 . S
C1780 C1799 1.429 . S
C1780 H1804 0.950 . S
C1781 C1798 1.574 . S
C1781 C1800 1.368 . S
C1781 H1805 0.949 . S
H1782 C1786 0.949 . S
C1783 C1784 1.349 . S
C1783 C1785 1.327 . S
C1783 H1806 0.950 . S
C1784 C1783 1.349 . S
C1784 C1796 1.349 . S
C1785 C1783 1.327 . S
C1785 C1801 1.429 . S
C1785 H1807 0.950 . S
C1786 H1782 0.949 . S
C1786 C1794 1.574 . S
C1786 C1802 1.368 . S
H1787 C1795 0.950 . S
H1788 C1793 0.950 . S
H1789 C1794 0.949 . S
H1790 C1796 0.950 . S
H1791 C1797 0.950 . S
H1792 C1798 0.949 . S
C1793 H1788 0.950 . S
C1793 C1795 1.327 . S
C1793 C1799 1.429 . S
C1794 C1786 1.574 . S
C1794 H1789 0.949 . S
C1794 C1800 1.368 . S
C1795 C1779 1.349 . S
C1795 H1787 0.950 . S
C1795 C1793 1.327 . S
C1796 C1784 1.349 . S
C1796 H1790 0.950 . S
C1796 C1797 1.327 . S
C1797 H1791 0.950 . S
C1797 C1796 1.327 . S
C1797 C1801 1.429 . S
C1798 C1781 1.574 . S
C1798 H1792 0.949 . S
C1798 C1802 1.368 . S
C1799 C1780 1.429 . S
C1799 C1793 1.429 . S
C1799 C1800 1.523 . S
C1800 C1781 1.368 . S
C1800 C1794 1.368 . S
C1800 C1799 1.523 . S
C1801 C1785 1.429 . S
C1801 C1797 1.429 . S
C1801 C1802 1.523 . S
C1802 C1786 1.368 . S
C1802 C1798 1.368 . S
C1802 C1801 1.523 . S
H1803 C1778 0.950 . S
H1804 C1780 0.950 . S
H1805 C1781 0.949 . S
H1806 C1783 0.950 . S
H1807 C1785 0.950 . S
C1808 C1809 1.349 . S
C1808 C1810 1.327 . S
C1808 H1833 0.950 . S
C1809 C1808 1.349 . S
C1809 C1825 1.349 . S
C1810 C1808 1.327 . S
C1810 C1829 1.429 . S
C1810 H1834 0.950 . S
C1811 C1828 1.574 . S
C1811 C1830 1.368 . S
C1811 H1835 0.949 . S
H1812 C1816 0.949 . S
C1813 C1814 1.349 . S
C1813 C1815 1.327 . S
C1813 H1836 0.950 . S
C1814 C1813 1.349 . S
C1814 C1826 1.349 . S
C1815 C1813 1.327 . S
C1815 C1831 1.429 . S
C1815 H1837 0.950 . S
C1816 H1812 0.949 . S
C1816 C1824 1.574 . S
C1816 C1832 1.368 . S
H1817 C1825 0.950 . S
H1818 C1823 0.950 . S
H1819 C1824 0.949 . S
H1820 C1826 0.950 . S
H1821 C1827 0.950 . S
H1822 C1828 0.949 . S
C1823 H1818 0.950 . S
C1823 C1825 1.327 . S
C1823 C1829 1.429 . S
C1824 C1816 1.574 . S
C1824 H1819 0.949 . S
C1824 C1830 1.368 . S
C1825 C1809 1.349 . S
C1825 H1817 0.950 . S
C1825 C1823 1.327 . S
C1826 C1814 1.349 . S
C1826 H1820 0.950 . S
C1826 C1827 1.327 . S
C1827 H1821 0.950 . S
C1827 C1826 1.327 . S
C1827 C1831 1.429 . S
C1828 C1811 1.574 . S
C1828 H1822 0.949 . S
C1828 C1832 1.368 . S
C1829 C1810 1.429 . S
C1829 C1823 1.429 . S
C1829 C1830 1.523 . S
C1830 C1811 1.368 . S
C1830 C1824 1.368 . S
C1830 C1829 1.523 . S
C1831 C1815 1.429 . S
C1831 C1827 1.429 . S
C1831 C1832 1.523 . S
C1832 C1816 1.368 . S
C1832 C1828 1.368 . S
C1832 C1831 1.523 . S
H1833 C1808 0.950 . S
H1834 C1810 0.950 . S
H1835 C1811 0.949 . S
H1836 C1813 0.950 . S
H1837 C1815 0.950 . S
C1838 C1839 1.349 . S
C1838 C1840 1.327 . S
C1838 H1863 0.950 . S
C1839 C1838 1.349 . S
C1839 C1855 1.349 . S
C1840 C1838 1.327 . S
C1840 C1859 1.429 . S
C1840 H1864 0.950 . S
C1841 C1858 1.574 . S
C1841 C1860 1.368 . S
C1841 H1865 0.949 . S
H1842 C1846 0.949 . S
C1843 C1844 1.349 . S
C1843 C1845 1.327 . S
C1843 H1866 0.950 . S
C1844 C1843 1.349 . S
C1844 C1856 1.349 . S
C1845 C1843 1.327 . S
C1845 C1861 1.429 . S
C1845 H1867 0.950 . S
C1846 H1842 0.949 . S
C1846 C1854 1.574 . S
C1846 C1862 1.368 . S
H1847 C1855 0.950 . S
H1848 C1853 0.950 . S
H1849 C1854 0.949 . S
H1850 C1856 0.950 . S
H1851 C1857 0.950 . S
H1852 C1858 0.949 . S
C1853 H1848 0.950 . S
C1853 C1855 1.327 . S
C1853 C1859 1.429 . S
C1854 C1846 1.574 . S
C1854 H1849 0.949 . S
C1854 C1860 1.368 . S
C1855 C1839 1.349 . S
C1855 H1847 0.950 . S
C1855 C1853 1.327 . S
C1856 C1844 1.349 . S
C1856 H1850 0.950 . S
C1856 C1857 1.327 . S
C1857 H1851 0.950 . S
C1857 C1856 1.327 . S
C1857 C1861 1.429 . S
C1858 C1841 1.574 . S
C1858 H1852 0.949 . S
C1858 C1862 1.368 . S
C1859 C1840 1.429 . S
C1859 C1853 1.429 . S
C1859 C1860 1.523 . S
C1860 C1841 1.368 . S
C1860 C1854 1.368 . S
C1860 C1859 1.523 . S
C1861 C1845 1.429 . S
C1861 C1857 1.429 . S
C1861 C1862 1.523 . S
C1862 C1846 1.368 . S
C1862 C1858 1.368 . S
C1862 C1861 1.523 . S
H1863 C1838 0.950 . S
H1864 C1840 0.950 . S
H1865 C1841 0.949 . S
H1866 C1843 0.950 . S
H1867 C1845 0.950 . S
C1868 C1869 1.349 . S
C1868 C1870 1.327 . S
C1868 H1893 0.950 . S
C1869 C1868 1.349 . S
C1869 C1885 1.349 . S
C1870 C1868 1.327 . S
C1870 C1889 1.429 . S
C1870 H1894 0.950 . S
C1871 C1888 1.574 . S
C1871 C1890 1.368 . S
C1871 H1895 0.949 . S
H1872 C1876 0.949 . S
C1873 C1874 1.349 . S
C1873 C1875 1.327 . S
C1873 H1896 0.950 . S
C1874 C1873 1.349 . S
C1874 C1886 1.349 . S
C1875 C1873 1.327 . S
C1875 C1891 1.429 . S
C1875 H1897 0.950 . S
C1876 H1872 0.949 . S
C1876 C1884 1.574 . S
C1876 C1892 1.368 . S
H1877 C1885 0.950 . S
H1878 C1883 0.950 . S
H1879 C1884 0.949 . S
H1880 C1886 0.950 . S
H1881 C1887 0.950 . S
H1882 C1888 0.949 . S
C1883 H1878 0.950 . S
C1883 C1885 1.327 . S
C1883 C1889 1.429 . S
C1884 C1876 1.574 . S
C1884 H1879 0.949 . S
C1884 C1890 1.368 . S
C1885 C1869 1.349 . S
C1885 H1877 0.950 . S
C1885 C1883 1.327 . S
C1886 C1874 1.349 . S
C1886 H1880 0.950 . S
C1886 C1887 1.327 . S
C1887 H1881 0.950 . S
C1887 C1886 1.327 . S
C1887 C1891 1.429 . S
C1888 C1871 1.574 . S
C1888 H1882 0.949 . S
C1888 C1892 1.368 . S
C1889 C1870 1.429 . S
C1889 C1883 1.429 . S
C1889 C1890 1.523 . S
C1890 C1871 1.368 . S
C1890 C1884 1.368 . S
C1890 C1889 1.523 . S
C1891 C1875 1.429 . S
C1891 C1887 1.429 . S
C1891 C1892 1.523 . S
C1892 C1876 1.368 . S
C1892 C1888 1.368 . S
C1892 C1891 1.523 . S
H1893 C1868 0.950 . S
H1894 C1870 0.950 . S
H1895 C1871 0.949 . S
H1896 C1873 0.950 . S
H1897 C1875 0.950 . S
C1898 C1899 1.349 . S
C1898 C1900 1.327 . S
C1898 H1923 0.950 . S
C1899 C1898 1.349 . S
C1899 C1915 1.349 . S
C1900 C1898 1.327 . S
C1900 C1919 1.429 . S
C1900 H1924 0.950 . S
C1901 C1918 1.574 . S
C1901 C1920 1.368 . S
C1901 H1925 0.949 . S
H1902 C1906 0.949 . S
C1903 C1904 1.349 . S
C1903 C1905 1.327 . S
C1903 H1926 0.950 . S
C1904 C1903 1.349 . S
C1904 C1916 1.349 . S
C1905 C1903 1.327 . S
C1905 C1921 1.429 . S
C1905 H1927 0.950 . S
C1906 H1902 0.949 . S
C1906 C1914 1.574 . S
C1906 C1922 1.368 . S
H1907 C1915 0.950 . S
H1908 C1913 0.950 . S
H1909 C1914 0.949 . S
H1910 C1916 0.950 . S
H1911 C1917 0.950 . S
H1912 C1918 0.949 . S
C1913 H1908 0.950 . S
C1913 C1915 1.327 . S
C1913 C1919 1.429 . S
C1914 C1906 1.574 . S
C1914 H1909 0.949 . S
C1914 C1920 1.368 . S
C1915 C1899 1.349 . S
C1915 H1907 0.950 . S
C1915 C1913 1.327 . S
C1916 C1904 1.349 . S
C1916 H1910 0.950 . S
C1916 C1917 1.327 . S
C1917 H1911 0.950 . S
C1917 C1916 1.327 . S
C1917 C1921 1.429 . S
C1918 C1901 1.574 . S
C1918 H1912 0.949 . S
C1918 C1922 1.368 . S
C1919 C1900 1.429 . S
C1919 C1913 1.429 . S
C1919 C1920 1.523 . S
C1920 C1901 1.368 . S
C1920 C1914 1.368 . S
C1920 C1919 1.523 . S
C1921 C1905 1.429 . S
C1921 C1917 1.429 . S
C1921 C1922 1.523 . S
C1922 C1906 1.368 . S
C1922 C1918 1.368 . S
C1922 C1921 1.523 . S
H1923 C1898 0.950 . S
H1924 C1900 0.950 . S
H1925 C1901 0.949 . S
H1926 C1903 0.950 . S
H1927 C1905 0.950 . S
C1928 C1929 1.349 . S
C1928 C1930 1.327 . S
C1928 H1953 0.950 . S
C1929 C1928 1.349 . S
C1929 C1945 1.349 . S
C1930 C1928 1.327 . S
C1930 C1949 1.429 . S
C1930 H1954 0.950 . S
C1931 C1948 1.574 . S
C1931 C1950 1.368 . S
C1931 H1955 0.949 . S
H1932 C1936 0.949 . S
C1933 C1934 1.349 . S
C1933 C1935 1.327 . S
C1933 H1956 0.950 . S
C1934 C1933 1.349 . S
C1934 C1946 1.349 . S
C1935 C1933 1.327 . S
C1935 C1951 1.429 . S
C1935 H1957 0.950 . S
C1936 H1932 0.949 . S
C1936 C1944 1.574 . S
C1936 C1952 1.368 . S
H1937 C1945 0.950 . S
H1938 C1943 0.950 . S
H1939 C1944 0.949 . S
H1940 C1946 0.950 . S
H1941 C1947 0.950 . S
H1942 C1948 0.949 . S
C1943 H1938 0.950 . S
C1943 C1945 1.327 . S
C1943 C1949 1.429 . S
C1944 C1936 1.574 . S
C1944 H1939 0.949 . S
C1944 C1950 1.368 . S
C1945 C1929 1.349 . S
C1945 H1937 0.950 . S
C1945 C1943 1.327 . S
C1946 C1934 1.349 . S
C1946 H1940 0.950 . S
C1946 C1947 1.327 . S
C1947 H1941 0.950 . S
C1947 C1946 1.327 . S
C1947 C1951 1.429 . S
C1948 C1931 1.574 . S
C1948 H1942 0.949 . S
C1948 C1952 1.368 . S
C1949 C1930 1.429 . S
C1949 C1943 1.429 . S
C1949 C1950 1.523 . S
C1950 C1931 1.368 . S
C1950 C1944 1.368 . S
C1950 C1949 1.523 . S
C1951 C1935 1.429 . S
C1951 C1947 1.429 . S
C1951 C1952 1.523 . S
C1952 C1936 1.368 . S
C1952 C1948 1.368 . S
C1952 C1951 1.523 . S
H1953 C1928 0.950 . S
H1954 C1930 0.950 . S
H1955 C1931 0.949 . S
H1956 C1933 0.950 . S
H1957 C1935 0.950 . S
C1958 C1959 1.349 . S
C1958 C1960 1.327 . S
C1958 H1983 0.950 . S
C1959 C1958 1.349 . S
C1959 C1975 1.349 . S
C1960 C1958 1.327 . S
C1960 C1979 1.429 . S
C1960 H1984 0.950 . S
C1961 C1978 1.574 . S
C1961 C1980 1.368 . S
C1961 H1985 0.949 . S
H1962 C1966 0.949 . S
C1963 C1964 1.349 . S
C1963 C1965 1.327 . S
C1963 H1986 0.950 . S
C1964 C1963 1.349 . S
C1964 C1976 1.349 . S
C1965 C1963 1.327 . S
C1965 C1981 1.429 . S
C1965 H1987 0.950 . S
C1966 H1962 0.949 . S
C1966 C1974 1.574 . S
C1966 C1982 1.368 . S
H1967 C1975 0.950 . S
H1968 C1973 0.950 . S
H1969 C1974 0.949 . S
H1970 C1976 0.950 . S
H1971 C1977 0.950 . S
H1972 C1978 0.949 . S
C1973 H1968 0.950 . S
C1973 C1975 1.327 . S
C1973 C1979 1.429 . S
C1974 C1966 1.574 . S
C1974 H1969 0.949 . S
C1974 C1980 1.368 . S
C1975 C1959 1.349 . S
C1975 H1967 0.950 . S
C1975 C1973 1.327 . S
C1976 C1964 1.349 . S
C1976 H1970 0.950 . S
C1976 C1977 1.327 . S
C1977 H1971 0.950 . S
C1977 C1976 1.327 . S
C1977 C1981 1.429 . S
C1978 C1961 1.574 . S
C1978 H1972 0.949 . S
C1978 C1982 1.368 . S
C1979 C1960 1.429 . S
C1979 C1973 1.429 . S
C1979 C1980 1.523 . S
C1980 C1961 1.368 . S
C1980 C1974 1.368 . S
C1980 C1979 1.523 . S
C1981 C1965 1.429 . S
C1981 C1977 1.429 . S
C1981 C1982 1.523 . S
C1982 C1966 1.368 . S
C1982 C1978 1.368 . S
C1982 C1981 1.523 . S
H1983 C1958 0.950 . S
H1984 C1960 0.950 . S
H1985 C1961 0.949 . S
H1986 C1963 0.950 . S
H1987 C1965 0.950 . S
C1988 C1989 1.349 . S
C1988 C1990 1.327 . S
C1988 H2013 0.950 . S
C1989 C1988 1.349 . S
C1989 C2005 1.349 . S
C1990 C1988 1.327 . S
C1990 C2009 1.429 . S
C1990 H2014 0.950 . S
C1991 C2008 1.574 . S
C1991 C2010 1.368 . S
C1991 H2015 0.949 . S
H1992 C1996 0.949 . S
C1993 C1994 1.349 . S
C1993 C1995 1.327 . S
C1993 H2016 0.950 . S
C1994 C1993 1.349 . S
C1994 C2006 1.349 . S
C1995 C1993 1.327 . S
C1995 C2011 1.429 . S
C1995 H2017 0.950 . S
C1996 H1992 0.949 . S
C1996 C2004 1.574 . S
C1996 C2012 1.368 . S
H1997 C2005 0.950 . S
H1998 C2003 0.950 . S
H1999 C2004 0.949 . S
H2000 C2006 0.950 . S
H2001 C2007 0.950 . S
H2002 C2008 0.949 . S
C2003 H1998 0.950 . S
C2003 C2005 1.327 . S
C2003 C2009 1.429 . S
C2004 C1996 1.574 . S
C2004 H1999 0.949 . S
C2004 C2010 1.368 . S
C2005 C1989 1.349 . S
C2005 H1997 0.950 . S
C2005 C2003 1.327 . S
C2006 C1994 1.349 . S
C2006 H2000 0.950 . S
C2006 C2007 1.327 . S
C2007 H2001 0.950 . S
C2007 C2006 1.327 . S
C2007 C2011 1.429 . S
C2008 C1991 1.574 . S
C2008 H2002 0.949 . S
C2008 C2012 1.368 . S
C2009 C1990 1.429 . S
C2009 C2003 1.429 . S
C2009 C2010 1.523 . S
C2010 C1991 1.368 . S
C2010 C2004 1.368 . S
C2010 C2009 1.523 . S
C2011 C1995 1.429 . S
C2011 C2007 1.429 . S
C2011 C2012 1.523 . S
C2012 C1996 1.368 . S
C2012 C2008 1.368 . S
C2012 C2011 1.523 . S
H2013 C1988 0.950 . S
H2014 C1990 0.950 . S
H2015 C1991 0.949 . S
H2016 C1993 0.950 . S
H2017 C1995 0.950 . S
C2018 C2019 1.349 . S
C2018 C2020 1.327 . S
C2018 H2043 0.950 . S
C2019 C2018 1.349 . S
C2019 C2035 1.349 . S
C2020 C2018 1.327 . S
C2020 C2039 1.429 . S
C2020 H2044 0.950 . S
C2021 C2038 1.574 . S
C2021 C2040 1.368 . S
C2021 H2045 0.949 . S
H2022 C2026 0.949 . S
C2023 C2024 1.349 . S
C2023 C2025 1.327 . S
C2023 H2046 0.950 . S
C2024 C2023 1.349 . S
C2024 C2036 1.349 . S
C2025 C2023 1.327 . S
C2025 C2041 1.429 . S
C2025 H2047 0.950 . S
C2026 H2022 0.949 . S
C2026 C2034 1.574 . S
C2026 C2042 1.368 . S
H2027 C2035 0.950 . S
H2028 C2033 0.950 . S
H2029 C2034 0.949 . S
H2030 C2036 0.950 . S
H2031 C2037 0.950 . S
H2032 C2038 0.949 . S
C2033 H2028 0.950 . S
C2033 C2035 1.327 . S
C2033 C2039 1.429 . S
C2034 C2026 1.574 . S
C2034 H2029 0.949 . S
C2034 C2040 1.368 . S
C2035 C2019 1.349 . S
C2035 H2027 0.950 . S
C2035 C2033 1.327 . S
C2036 C2024 1.349 . S
C2036 H2030 0.950 . S
C2036 C2037 1.327 . S
C2037 H2031 0.950 . S
C2037 C2036 1.327 . S
C2037 C2041 1.429 . S
C2038 C2021 1.574 . S
C2038 H2032 0.949 . S
C2038 C2042 1.368 . S
C2039 C2020 1.429 . S
C2039 C2033 1.429 . S
C2039 C2040 1.523 . S
C2040 C2021 1.368 . S
C2040 C2034 1.368 . S
C2040 C2039 1.523 . S
C2041 C2025 1.429 . S
C2041 C2037 1.429 . S
C2041 C2042 1.523 . S
C2042 C2026 1.368 . S
C2042 C2038 1.368 . S
C2042 C2041 1.523 . S
H2043 C2018 0.950 . S
H2044 C2020 0.950 . S
H2045 C2021 0.949 . S
H2046 C2023 0.950 . S
H2047 C2025 0.950 . S
C2048 C2049 1.349 . S
C2048 C2050 1.327 . S
C2048 H2073 0.950 . S
C2049 C2048 1.349 . S
C2049 C2065 1.349 . S
C2050 C2048 1.327 . S
C2050 C2069 1.429 . S
C2050 H2074 0.950 . S
C2051 C2068 1.574 . S
C2051 C2070 1.368 . S
C2051 H2075 0.949 . S
H2052 C2056 0.949 . S
C2053 C2054 1.349 . S
C2053 C2055 1.327 . S
C2053 H2076 0.950 . S
C2054 C2053 1.349 . S
C2054 C2066 1.349 . S
C2055 C2053 1.327 . S
C2055 C2071 1.429 . S
C2055 H2077 0.950 . S
C2056 H2052 0.949 . S
C2056 C2064 1.574 . S
C2056 C2072 1.368 . S
H2057 C2065 0.950 . S
H2058 C2063 0.950 . S
H2059 C2064 0.949 . S
H2060 C2066 0.950 . S
H2061 C2067 0.950 . S
H2062 C2068 0.949 . S
C2063 H2058 0.950 . S
C2063 C2065 1.327 . S
C2063 C2069 1.429 . S
C2064 C2056 1.574 . S
C2064 H2059 0.949 . S
C2064 C2070 1.368 . S
C2065 C2049 1.349 . S
C2065 H2057 0.950 . S
C2065 C2063 1.327 . S
C2066 C2054 1.349 . S
C2066 H2060 0.950 . S
C2066 C2067 1.327 . S
C2067 H2061 0.950 . S
C2067 C2066 1.327 . S
C2067 C2071 1.429 . S
C2068 C2051 1.574 . S
C2068 H2062 0.949 . S
C2068 C2072 1.368 . S
C2069 C2050 1.429 . S
C2069 C2063 1.429 . S
C2069 C2070 1.523 . S
C2070 C2051 1.368 . S
C2070 C2064 1.368 . S
C2070 C2069 1.523 . S
C2071 C2055 1.429 . S
C2071 C2067 1.429 . S
C2071 C2072 1.523 . S
C2072 C2056 1.368 . S
C2072 C2068 1.368 . S
C2072 C2071 1.523 . S
H2073 C2048 0.950 . S
H2074 C2050 0.950 . S
H2075 C2051 0.949 . S
H2076 C2053 0.950 . S
H2077 C2055 0.950 . S
C2078 C2079 1.349 . S
C2078 C2080 1.327 . S
C2078 H2103 0.950 . S
C2079 C2078 1.349 . S
C2079 C2095 1.349 . S
C2080 C2078 1.327 . S
C2080 C2099 1.429 . S
C2080 H2104 0.950 . S
C2081 C2098 1.574 . S
C2081 C2100 1.368 . S
C2081 H2105 0.949 . S
H2082 C2086 0.949 . S
C2083 C2084 1.349 . S
C2083 C2085 1.327 . S
C2083 H2106 0.950 . S
C2084 C2083 1.349 . S
C2084 C2096 1.349 . S
C2085 C2083 1.327 . S
C2085 C2101 1.429 . S
C2085 H2107 0.950 . S
C2086 H2082 0.949 . S
C2086 C2094 1.574 . S
C2086 C2102 1.368 . S
H2087 C2095 0.950 . S
H2088 C2093 0.950 . S
H2089 C2094 0.949 . S
H2090 C2096 0.950 . S
H2091 C2097 0.950 . S
H2092 C2098 0.949 . S
C2093 H2088 0.950 . S
C2093 C2095 1.327 . S
C2093 C2099 1.429 . S
C2094 C2086 1.574 . S
C2094 H2089 0.949 . S
C2094 C2100 1.368 . S
C2095 C2079 1.349 . S
C2095 H2087 0.950 . S
C2095 C2093 1.327 . S
C2096 C2084 1.349 . S
C2096 H2090 0.950 . S
C2096 C2097 1.327 . S
C2097 H2091 0.950 . S
C2097 C2096 1.327 . S
C2097 C2101 1.429 . S
C2098 C2081 1.574 . S
C2098 H2092 0.949 . S
C2098 C2102 1.368 . S
C2099 C2080 1.429 . S
C2099 C2093 1.429 . S
C2099 C2100 1.523 . S
C2100 C2081 1.368 . S
C2100 C2094 1.368 . S
C2100 C2099 1.523 . S
C2101 C2085 1.429 . S
C2101 C2097 1.429 . S
C2101 C2102 1.523 . S
C2102 C2086 1.368 . S
C2102 C2098 1.368 . S
C2102 C2101 1.523 . S
H2103 C2078 0.950 . S
H2104 C2080 0.950 . S
H2105 C2081 0.949 . S
H2106 C2083 0.950 . S
H2107 C2085 0.950 . S
C2108 C2109 1.349 . S
C2108 C2110 1.327 . S
C2108 H2133 0.950 . S
C2109 C2108 1.349 . S
C2109 C2125 1.349 . S
C2110 C2108 1.327 . S
C2110 C2129 1.429 . S
C2110 H2134 0.950 . S
C2111 C2128 1.574 . S
C2111 C2130 1.368 . S
C2111 H2135 0.949 . S
H2112 C2116 0.949 . S
C2113 C2114 1.349 . S
C2113 C2115 1.327 . S
C2113 H2136 0.950 . S
C2114 C2113 1.349 . S
C2114 C2126 1.349 . S
C2115 C2113 1.327 . S
C2115 C2131 1.429 . S
C2115 H2137 0.950 . S
C2116 H2112 0.949 . S
C2116 C2124 1.574 . S
C2116 C2132 1.368 . S
H2117 C2125 0.950 . S
H2118 C2123 0.950 . S
H2119 C2124 0.949 . S
H2120 C2126 0.950 . S
H2121 C2127 0.950 . S
H2122 C2128 0.949 . S
C2123 H2118 0.950 . S
C2123 C2125 1.327 . S
C2123 C2129 1.429 . S
C2124 C2116 1.574 . S
C2124 H2119 0.949 . S
C2124 C2130 1.368 . S
C2125 C2109 1.349 . S
C2125 H2117 0.950 . S
C2125 C2123 1.327 . S
C2126 C2114 1.349 . S
C2126 H2120 0.950 . S
C2126 C2127 1.327 . S
C2127 H2121 0.950 . S
C2127 C2126 1.327 . S
C2127 C2131 1.429 . S
C2128 C2111 1.574 . S
C2128 H2122 0.949 . S
C2128 C2132 1.368 . S
C2129 C2110 1.429 . S
C2129 C2123 1.429 . S
C2129 C2130 1.523 . S
C2130 C2111 1.368 . S
C2130 C2124 1.368 . S
C2130 C2129 1.523 . S
C2131 C2115 1.429 . S
C2131 C2127 1.429 . S
C2131 C2132 1.523 . S
C2132 C2116 1.368 . S
C2132 C2128 1.368 . S
C2132 C2131 1.523 . S
H2133 C2108 0.950 . S
H2134 C2110 0.950 . S
H2135 C2111 0.949 . S
H2136 C2113 0.950 . S
H2137 C2115 0.950 . S
C2138 C2139 1.349 . S
C2138 C2140 1.327 . S
C2138 H2163 0.950 . S
C2139 C2138 1.349 . S
C2139 C2155 1.349 . S
C2140 C2138 1.327 . S
C2140 C2159 1.429 . S
C2140 H2164 0.950 . S
C2141 C2158 1.574 . S
C2141 C2160 1.368 . S
C2141 H2165 0.949 . S
H2142 C2146 0.949 . S
C2143 C2144 1.349 . S
C2143 C2145 1.327 . S
C2143 H2166 0.950 . S
C2144 C2143 1.349 . S
C2144 C2156 1.349 . S
C2145 C2143 1.327 . S
C2145 C2161 1.429 . S
C2145 H2167 0.950 . S
C2146 H2142 0.949 . S
C2146 C2154 1.574 . S
C2146 C2162 1.368 . S
H2147 C2155 0.950 . S
H2148 C2153 0.950 . S
H2149 C2154 0.949 . S
H2150 C2156 0.950 . S
H2151 C2157 0.950 . S
H2152 C2158 0.949 . S
C2153 H2148 0.950 . S
C2153 C2155 1.327 . S
C2153 C2159 1.429 . S
C2154 C2146 1.574 . S
C2154 H2149 0.949 . S
C2154 C2160 1.368 . S
C2155 C2139 1.349 . S
C2155 H2147 0.950 . S
C2155 C2153 1.327 . S
C2156 C2144 1.349 . S
C2156 H2150 0.950 . S
C2156 C2157 1.327 . S
C2157 H2151 0.950 . S
C2157 C2156 1.327 . S
C2157 C2161 1.429 . S
C2158 C2141 1.574 . S
C2158 H2152 0.949 . S
C2158 C2162 1.368 . S
C2159 C2140 1.429 . S
C2159 C2153 1.429 . S
C2159 C2160 1.523 . S
C2160 C2141 1.368 . S
C2160 C2154 1.368 . S
C2160 C2159 1.523 . S
C2161 C2145 1.429 . S
C2161 C2157 1.429 . S
C2161 C2162 1.523 . S
C2162 C2146 1.368 . S
C2162 C2158 1.368 . S
C2162 C2161 1.523 . S
H2163 C2138 0.950 . S
H2164 C2140 0.950 . S
H2165 C2141 0.949 . S
H2166 C2143 0.950 . S
H2167 C2145 0.950 . S
C2168 C2169 1.349 . S
C2168 C2170 1.327 . S
C2168 H2193 0.950 . S
C2169 C2168 1.349 . S
C2169 C2185 1.349 . S
C2170 C2168 1.327 . S
C2170 C2189 1.429 . S
C2170 H2194 0.950 . S
C2171 C2188 1.574 . S
C2171 C2190 1.368 . S
C2171 H2195 0.949 . S
H2172 C2176 0.949 . S
C2173 C2174 1.349 . S
C2173 C2175 1.327 . S
C2173 H2196 0.950 . S
C2174 C2173 1.349 . S
C2174 C2186 1.349 . S
C2175 C2173 1.327 . S
C2175 C2191 1.429 . S
C2175 H2197 0.950 . S
C2176 H2172 0.949 . S
C2176 C2184 1.574 . S
C2176 C2192 1.368 . S
H2177 C2185 0.950 . S
H2178 C2183 0.950 . S
H2179 C2184 0.949 . S
H2180 C2186 0.950 . S
H2181 C2187 0.950 . S
H2182 C2188 0.949 . S
C2183 H2178 0.950 . S
C2183 C2185 1.327 . S
C2183 C2189 1.429 . S
C2184 C2176 1.574 . S
C2184 H2179 0.949 . S
C2184 C2190 1.368 . S
C2185 C2169 1.349 . S
C2185 H2177 0.950 . S
C2185 C2183 1.327 . S
C2186 C2174 1.349 . S
C2186 H2180 0.950 . S
C2186 C2187 1.327 . S
C2187 H2181 0.950 . S
C2187 C2186 1.327 . S
C2187 C2191 1.429 . S
C2188 C2171 1.574 . S
C2188 H2182 0.949 . S
C2188 C2192 1.368 . S
C2189 C2170 1.429 . S
C2189 C2183 1.429 . S
C2189 C2190 1.523 . S
C2190 C2171 1.368 . S
C2190 C2184 1.368 . S
C2190 C2189 1.523 . S
C2191 C2175 1.429 . S
C2191 C2187 1.429 . S
C2191 C2192 1.523 . S
C2192 C2176 1.368 . S
C2192 C2188 1.368 . S
C2192 C2191 1.523 . S
H2193 C2168 0.950 . S
H2194 C2170 0.950 . S
H2195 C2171 0.949 . S
H2196 C2173 0.950 . S
H2197 C2175 0.950 . S
C2198 C2199 1.349 . S
C2198 C2200 1.327 . S
C2198 H2223 0.950 . S
C2199 C2198 1.349 . S
C2199 C2215 1.349 . S
C2200 C2198 1.327 . S
C2200 C2219 1.429 . S
C2200 H2224 0.950 . S
C2201 C2218 1.574 . S
C2201 C2220 1.368 . S
C2201 H2225 0.949 . S
H2202 C2206 0.949 . S
C2203 C2204 1.349 . S
C2203 C2205 1.327 . S
C2203 H2226 0.950 . S
C2204 C2203 1.349 . S
C2204 C2216 1.349 . S
C2205 C2203 1.327 . S
C2205 C2221 1.429 . S
C2205 H2227 0.950 . S
C2206 H2202 0.949 . S
C2206 C2214 1.574 . S
C2206 C2222 1.368 . S
H2207 C2215 0.950 . S
H2208 C2213 0.950 . S
H2209 C2214 0.949 . S
H2210 C2216 0.950 . S
H2211 C2217 0.950 . S
H2212 C2218 0.949 . S
C2213 H2208 0.950 . S
C2213 C2215 1.327 . S
C2213 C2219 1.429 . S
C2214 C2206 1.574 . S
C2214 H2209 0.949 . S
C2214 C2220 1.368 . S
C2215 C2199 1.349 . S
C2215 H2207 0.950 . S
C2215 C2213 1.327 . S
C2216 C2204 1.349 . S
C2216 H2210 0.950 . S
C2216 C2217 1.327 . S
C2217 H2211 0.950 . S
C2217 C2216 1.327 . S
C2217 C2221 1.429 . S
C2218 C2201 1.574 . S
C2218 H2212 0.949 . S
C2218 C2222 1.368 . S
C2219 C2200 1.429 . S
C2219 C2213 1.429 . S
C2219 C2220 1.523 . S
C2220 C2201 1.368 . S
C2220 C2214 1.368 . S
C2220 C2219 1.523 . S
C2221 C2205 1.429 . S
C2221 C2217 1.429 . S
C2221 C2222 1.523 . S
C2222 C2206 1.368 . S
C2222 C2218 1.368 . S
C2222 C2221 1.523 . S
H2223 C2198 0.950 . S
H2224 C2200 0.950 . S
H2225 C2201 0.949 . S
H2226 C2203 0.950 . S
H2227 C2205 0.950 . S
C2228 C2229 1.349 . S
C2228 C2230 1.327 . S
C2228 H2253 0.950 . S
C2229 C2228 1.349 . S
C2229 C2245 1.349 . S
C2230 C2228 1.327 . S
C2230 C2249 1.429 . S
C2230 H2254 0.950 . S
C2231 C2248 1.574 . S
C2231 C2250 1.368 . S
C2231 H2255 0.949 . S
H2232 C2236 0.949 . S
C2233 C2234 1.349 . S
C2233 C2235 1.327 . S
C2233 H2256 0.950 . S
C2234 C2233 1.349 . S
C2234 C2246 1.349 . S
C2235 C2233 1.327 . S
C2235 C2251 1.429 . S
C2235 H2257 0.950 . S
C2236 H2232 0.949 . S
C2236 C2244 1.574 . S
C2236 C2252 1.368 . S
H2237 C2245 0.950 . S
H2238 C2243 0.950 . S
H2239 C2244 0.949 . S
H2240 C2246 0.950 . S
H2241 C2247 0.950 . S
H2242 C2248 0.949 . S
C2243 H2238 0.950 . S
C2243 C2245 1.327 . S
C2243 C2249 1.429 . S
C2244 C2236 1.574 . S
C2244 H2239 0.949 . S
C2244 C2250 1.368 . S
C2245 C2229 1.349 . S
C2245 H2237 0.950 . S
C2245 C2243 1.327 . S
C2246 C2234 1.349 . S
C2246 H2240 0.950 . S
C2246 C2247 1.327 . S
C2247 H2241 0.950 . S
C2247 C2246 1.327 . S
C2247 C2251 1.429 . S
C2248 C2231 1.574 . S
C2248 H2242 0.949 . S
C2248 C2252 1.368 . S
C2249 C2230 1.429 . S
C2249 C2243 1.429 . S
C2249 C2250 1.523 . S
C2250 C2231 1.368 . S
C2250 C2244 1.368 . S
C2250 C2249 1.523 . S
C2251 C2235 1.429 . S
C2251 C2247 1.429 . S
C2251 C2252 1.523 . S
C2252 C2236 1.368 . S
C2252 C2248 1.368 . S
C2252 C2251 1.523 . S
H2253 C2228 0.950 . S
H2254 C2230 0.950 . S
H2255 C2231 0.949 . S
H2256 C2233 0.950 . S
H2257 C2235 0.950 . S
C2258 C2259 1.349 . S
C2258 C2260 1.327 . S
C2258 H2283 0.950 . S
C2259 C2258 1.349 . S
C2259 C2275 1.349 . S
C2260 C2258 1.327 . S
C2260 C2279 1.429 . S
C2260 H2284 0.950 . S
C2261 C2278 1.574 . S
C2261 C2280 1.368 . S
C2261 H2285 0.949 . S
H2262 C2266 0.949 . S
C2263 C2264 1.349 . S
C2263 C2265 1.327 . S
C2263 H2286 0.950 . S
C2264 C2263 1.349 . S
C2264 C2276 1.349 . S
C2265 C2263 1.327 . S
C2265 C2281 1.429 . S
C2265 H2287 0.950 . S
C2266 H2262 0.949 . S
C2266 C2274 1.574 . S
C2266 C2282 1.368 . S
H2267 C2275 0.950 . S
H2268 C2273 0.950 . S
H2269 C2274 0.949 . S
H2270 C2276 0.950 . S
H2271 C2277 0.950 . S
H2272 C2278 0.949 . S
C2273 H2268 0.950 . S
C2273 C2275 1.327 . S
C2273 C2279 1.429 . S
C2274 C2266 1.574 . S
C2274 H2269 0.949 . S
C2274 C2280 1.368 . S
C2275 C2259 1.349 . S
C2275 H2267 0.950 . S
C2275 C2273 1.327 . S
C2276 C2264 1.349 . S
C2276 H2270 0.950 . S
C2276 C2277 1.327 . S
C2277 H2271 0.950 . S
C2277 C2276 1.327 . S
C2277 C2281 1.429 . S
C2278 C2261 1.574 . S
C2278 H2272 0.949 . S
C2278 C2282 1.368 . S
C2279 C2260 1.429 . S
C2279 C2273 1.429 . S
C2279 C2280 1.523 . S
C2280 C2261 1.368 . S
C2280 C2274 1.368 . S
C2280 C2279 1.523 . S
C2281 C2265 1.429 . S
C2281 C2277 1.429 . S
C2281 C2282 1.523 . S
C2282 C2266 1.368 . S
C2282 C2278 1.368 . S
C2282 C2281 1.523 . S
H2283 C2258 0.950 . S
H2284 C2260 0.950 . S
H2285 C2261 0.949 . S
H2286 C2263 0.950 . S
H2287 C2265 0.950 . S
C2288 C2289 1.349 . S
C2288 C2290 1.327 . S
C2288 H2313 0.950 . S
C2289 C2288 1.349 . S
C2289 C2305 1.349 . S
C2290 C2288 1.327 . S
C2290 C2309 1.429 . S
C2290 H2314 0.950 . S
C2291 C2308 1.574 . S
C2291 C2310 1.368 . S
C2291 H2315 0.949 . S
H2292 C2296 0.949 . S
C2293 C2294 1.349 . S
C2293 C2295 1.327 . S
C2293 H2316 0.950 . S
C2294 C2293 1.349 . S
C2294 C2306 1.349 . S
C2295 C2293 1.327 . S
C2295 C2311 1.429 . S
C2295 H2317 0.950 . S
C2296 H2292 0.949 . S
C2296 C2304 1.574 . S
C2296 C2312 1.368 . S
H2297 C2305 0.950 . S
H2298 C2303 0.950 . S
H2299 C2304 0.949 . S
H2300 C2306 0.950 . S
H2301 C2307 0.950 . S
H2302 C2308 0.949 . S
C2303 H2298 0.950 . S
C2303 C2305 1.327 . S
C2303 C2309 1.429 . S
C2304 C2296 1.574 . S
C2304 H2299 0.949 . S
C2304 C2310 1.368 . S
C2305 C2289 1.349 . S
C2305 H2297 0.950 . S
C2305 C2303 1.327 . S
C2306 C2294 1.349 . S
C2306 H2300 0.950 . S
C2306 C2307 1.327 . S
C2307 H2301 0.950 . S
C2307 C2306 1.327 . S
C2307 C2311 1.429 . S
C2308 C2291 1.574 . S
C2308 H2302 0.949 . S
C2308 C2312 1.368 . S
C2309 C2290 1.429 . S
C2309 C2303 1.429 . S
C2309 C2310 1.523 . S
C2310 C2291 1.368 . S
C2310 C2304 1.368 . S
C2310 C2309 1.523 . S
C2311 C2295 1.429 . S
C2311 C2307 1.429 . S
C2311 C2312 1.523 . S
C2312 C2296 1.368 . S
C2312 C2308 1.368 . S
C2312 C2311 1.523 . S
H2313 C2288 0.950 . S
H2314 C2290 0.950 . S
H2315 C2291 0.949 . S
H2316 C2293 0.950 . S
H2317 C2295 0.950 . S
C2318 C2319 1.349 . S
C2318 C2320 1.327 . S
C2318 H2343 0.950 . S
C2319 C2318 1.349 . S
C2319 C2335 1.349 . S
C2320 C2318 1.327 . S
C2320 C2339 1.429 . S
C2320 H2344 0.950 . S
C2321 C2338 1.574 . S
C2321 C2340 1.368 . S
C2321 H2345 0.949 . S
H2322 C2326 0.949 . S
C2323 C2324 1.349 . S
C2323 C2325 1.327 . S
C2323 H2346 0.950 . S
C2324 C2323 1.349 . S
C2324 C2336 1.349 . S
C2325 C2323 1.327 . S
C2325 C2341 1.429 . S
C2325 H2347 0.950 . S
C2326 H2322 0.949 . S
C2326 C2334 1.574 . S
C2326 C2342 1.368 . S
H2327 C2335 0.950 . S
H2328 C2333 0.950 . S
H2329 C2334 0.949 . S
H2330 C2336 0.950 . S
H2331 C2337 0.950 . S
H2332 C2338 0.949 . S
C2333 H2328 0.950 . S
C2333 C2335 1.327 . S
C2333 C2339 1.429 . S
C2334 C2326 1.574 . S
C2334 H2329 0.949 . S
C2334 C2340 1.368 . S
C2335 C2319 1.349 . S
C2335 H2327 0.950 . S
C2335 C2333 1.327 . S
C2336 C2324 1.349 . S
C2336 H2330 0.950 . S
C2336 C2337 1.327 . S
C2337 H2331 0.950 . S
C2337 C2336 1.327 . S
C2337 C2341 1.429 . S
C2338 C2321 1.574 . S
C2338 H2332 0.949 . S
C2338 C2342 1.368 . S
C2339 C2320 1.429 . S
C2339 C2333 1.429 . S
C2339 C2340 1.523 . S
C2340 C2321 1.368 . S
C2340 C2334 1.368 . S
C2340 C2339 1.523 . S
C2341 C2325 1.429 . S
C2341 C2337 1.429 . S
C2341 C2342 1.523 . S
C2342 C2326 1.368 . S
C2342 C2338 1.368 . S
C2342 C2341 1.523 . S
H2343 C2318 0.950 . S
H2344 C2320 0.950 . S
H2345 C2321 0.949 . S
H2346 C2323 0.950 . S
H2347 C2325 0.950 . S
C2348 C2349 1.349 . S
C2348 C2350 1.327 . S
C2348 H2373 0.950 . S
C2349 C2348 1.349 . S
C2349 C2365 1.349 . S
C2350 C2348 1.327 . S
C2350 C2369 1.429 . S
C2350 H2374 0.950 . S
C2351 C2368 1.574 . S
C2351 C2370 1.368 . S
C2351 H2375 0.949 . S
H2352 C2356 0.949 . S
C2353 C2354 1.349 . S
C2353 C2355 1.327 . S
C2353 H2376 0.950 . S
C2354 C2353 1.349 . S
C2354 C2366 1.349 . S
C2355 C2353 1.327 . S
C2355 C2371 1.429 . S
C2355 H2377 0.950 . S
C2356 H2352 0.949 . S
C2356 C2364 1.574 . S
C2356 C2372 1.368 . S
H2357 C2365 0.950 . S
H2358 C2363 0.950 . S
H2359 C2364 0.949 . S
H2360 C2366 0.950 . S
H2361 C2367 0.950 . S
H2362 C2368 0.949 . S
C2363 H2358 0.950 . S
C2363 C2365 1.327 . S
C2363 C2369 1.429 . S
C2364 C2356 1.574 . S
C2364 H2359 0.949 . S
C2364 C2370 1.368 . S
C2365 C2349 1.349 . S
C2365 H2357 0.950 . S
C2365 C2363 1.327 . S
C2366 C2354 1.349 . S
C2366 H2360 0.950 . S
C2366 C2367 1.327 . S
C2367 H2361 0.950 . S
C2367 C2366 1.327 . S
C2367 C2371 1.429 . S
C2368 C2351 1.574 . S
C2368 H2362 0.949 . S
C2368 C2372 1.368 . S
C2369 C2350 1.429 . S
C2369 C2363 1.429 . S
C2369 C2370 1.523 . S
C2370 C2351 1.368 . S
C2370 C2364 1.368 . S
C2370 C2369 1.523 . S
C2371 C2355 1.429 . S
C2371 C2367 1.429 . S
C2371 C2372 1.523 . S
C2372 C2356 1.368 . S
C2372 C2368 1.368 . S
C2372 C2371 1.523 . S
H2373 C2348 0.950 . S
H2374 C2350 0.950 . S
H2375 C2351 0.949 . S
H2376 C2353 0.950 . S
H2377 C2355 0.950 . S
C2378 C2379 1.349 . S
C2378 C2380 1.327 . S
C2378 H2403 0.950 . S
C2379 C2378 1.349 . S
C2379 C2395 1.349 . S
C2380 C2378 1.327 . S
C2380 C2399 1.429 . S
C2380 H2404 0.950 . S
C2381 C2398 1.574 . S
C2381 C2400 1.368 . S
C2381 H2405 0.949 . S
H2382 C2386 0.949 . S
C2383 C2384 1.349 . S
C2383 C2385 1.327 . S
C2383 H2406 0.950 . S
C2384 C2383 1.349 . S
C2384 C2396 1.349 . S
C2385 C2383 1.327 . S
C2385 C2401 1.429 . S
C2385 H2407 0.950 . S
C2386 H2382 0.949 . S
C2386 C2394 1.574 . S
C2386 C2402 1.368 . S
H2387 C2395 0.950 . S
H2388 C2393 0.950 . S
H2389 C2394 0.949 . S
H2390 C2396 0.950 . S
H2391 C2397 0.950 . S
H2392 C2398 0.949 . S
C2393 H2388 0.950 . S
C2393 C2395 1.327 . S
C2393 C2399 1.429 . S
C2394 C2386 1.574 . S
C2394 H2389 0.949 . S
C2394 C2400 1.368 . S
C2395 C2379 1.349 . S
C2395 H2387 0.950 . S
C2395 C2393 1.327 . S
C2396 C2384 1.349 . S
C2396 H2390 0.950 . S
C2396 C2397 1.327 . S
C2397 H2391 0.950 . S
C2397 C2396 1.327 . S
C2397 C2401 1.429 . S
C2398 C2381 1.574 . S
C2398 H2392 0.949 . S
C2398 C2402 1.368 . S
C2399 C2380 1.429 . S
C2399 C2393 1.429 . S
C2399 C2400 1.523 . S
C2400 C2381 1.368 . S
C2400 C2394 1.368 . S
C2400 C2399 1.523 . S
C2401 C2385 1.429 . S
C2401 C2397 1.429 . S
C2401 C2402 1.523 . S
C2402 C2386 1.368 . S
C2402 C2398 1.368 . S
C2402 C2401 1.523 . S
H2403 C2378 0.950 . S
H2404 C2380 0.950 . S
H2405 C2381 0.949 . S
H2406 C2383 0.950 . S
H2407 C2385 0.950 . S
C2408 C2409 1.349 . S
C2408 C2410 1.327 . S
C2408 H2433 0.950 . S
C2409 C2408 1.349 . S
C2409 C2425 1.349 . S
C2410 C2408 1.327 . S
C2410 C2429 1.429 . S
C2410 H2434 0.950 . S
C2411 C2428 1.574 . S
C2411 C2430 1.368 . S
C2411 H2435 0.949 . S
H2412 C2416 0.949 . S
C2413 C2414 1.349 . S
C2413 C2415 1.327 . S
C2413 H2436 0.950 . S
C2414 C2413 1.349 . S
C2414 C2426 1.349 . S
C2415 C2413 1.327 . S
C2415 C2431 1.429 . S
C2415 H2437 0.950 . S
C2416 H2412 0.949 . S
C2416 C2424 1.574 . S
C2416 C2432 1.368 . S
H2417 C2425 0.950 . S
H2418 C2423 0.950 . S
H2419 C2424 0.949 . S
H2420 C2426 0.950 . S
H2421 C2427 0.950 . S
H2422 C2428 0.949 . S
C2423 H2418 0.950 . S
C2423 C2425 1.327 . S
C2423 C2429 1.429 . S
C2424 C2416 1.574 . S
C2424 H2419 0.949 . S
C2424 C2430 1.368 . S
C2425 C2409 1.349 . S
C2425 H2417 0.950 . S
C2425 C2423 1.327 . S
C2426 C2414 1.349 . S
C2426 H2420 0.950 . S
C2426 C2427 1.327 . S
C2427 H2421 0.950 . S
C2427 C2426 1.327 . S
C2427 C2431 1.429 . S
C2428 C2411 1.574 . S
C2428 H2422 0.949 . S
C2428 C2432 1.368 . S
C2429 C2410 1.429 . S
C2429 C2423 1.429 . S
C2429 C2430 1.523 . S
C2430 C2411 1.368 . S
C2430 C2424 1.368 . S
C2430 C2429 1.523 . S
C2431 C2415 1.429 . S
C2431 C2427 1.429 . S
C2431 C2432 1.523 . S
C2432 C2416 1.368 . S
C2432 C2428 1.368 . S
C2432 C2431 1.523 . S
H2433 C2408 0.950 . S
H2434 C2410 0.950 . S
H2435 C2411 0.949 . S
H2436 C2413 0.950 . S
H2437 C2415 0.950 . S
C2438 C2439 1.349 . S
C2438 C2440 1.327 . S
C2438 H2463 0.950 . S
C2439 C2438 1.349 . S
C2439 C2455 1.349 . S
C2440 C2438 1.327 . S
C2440 C2459 1.429 . S
C2440 H2464 0.950 . S
C2441 C2458 1.574 . S
C2441 C2460 1.368 . S
C2441 H2465 0.949 . S
H2442 C2446 0.949 . S
C2443 C2444 1.349 . S
C2443 C2445 1.327 . S
C2443 H2466 0.950 . S
C2444 C2443 1.349 . S
C2444 C2456 1.349 . S
C2445 C2443 1.327 . S
C2445 C2461 1.429 . S
C2445 H2467 0.950 . S
C2446 H2442 0.949 . S
C2446 C2454 1.574 . S
C2446 C2462 1.368 . S
H2447 C2455 0.950 . S
H2448 C2453 0.950 . S
H2449 C2454 0.949 . S
H2450 C2456 0.950 . S
H2451 C2457 0.950 . S
H2452 C2458 0.949 . S
C2453 H2448 0.950 . S
C2453 C2455 1.327 . S
C2453 C2459 1.429 . S
C2454 C2446 1.574 . S
C2454 H2449 0.949 . S
C2454 C2460 1.368 . S
C2455 C2439 1.349 . S
C2455 H2447 0.950 . S
C2455 C2453 1.327 . S
C2456 C2444 1.349 . S
C2456 H2450 0.950 . S
C2456 C2457 1.327 . S
C2457 H2451 0.950 . S
C2457 C2456 1.327 . S
C2457 C2461 1.429 . S
C2458 C2441 1.574 . S
C2458 H2452 0.949 . S
C2458 C2462 1.368 . S
C2459 C2440 1.429 . S
C2459 C2453 1.429 . S
C2459 C2460 1.523 . S
C2460 C2441 1.368 . S
C2460 C2454 1.368 . S
C2460 C2459 1.523 . S
C2461 C2445 1.429 . S
C2461 C2457 1.429 . S
C2461 C2462 1.523 . S
C2462 C2446 1.368 . S
C2462 C2458 1.368 . S
C2462 C2461 1.523 . S
H2463 C2438 0.950 . S
H2464 C2440 0.950 . S
H2465 C2441 0.949 . S
H2466 C2443 0.950 . S
H2467 C2445 0.950 . S
C2468 C2469 1.349 . S
C2468 C2470 1.327 . S
C2468 H2493 0.950 . S
C2469 C2468 1.349 . S
C2469 C2485 1.349 . S
C2470 C2468 1.327 . S
C2470 C2489 1.429 . S
C2470 H2494 0.950 . S
C2471 C2488 1.574 . S
C2471 C2490 1.368 . S
C2471 H2495 0.949 . S
H2472 C2476 0.949 . S
C2473 C2474 1.349 . S
C2473 C2475 1.327 . S
C2473 H2496 0.950 . S
C2474 C2473 1.349 . S
C2474 C2486 1.349 . S
C2475 C2473 1.327 . S
C2475 C2491 1.429 . S
C2475 H2497 0.950 . S
C2476 H2472 0.949 . S
C2476 C2484 1.574 . S
C2476 C2492 1.368 . S
H2477 C2485 0.950 . S
H2478 C2483 0.950 . S
H2479 C2484 0.949 . S
H2480 C2486 0.950 . S
H2481 C2487 0.950 . S
H2482 C2488 0.949 . S
C2483 H2478 0.950 . S
C2483 C2485 1.327 . S
C2483 C2489 1.429 . S
C2484 C2476 1.574 . S
C2484 H2479 0.949 . S
C2484 C2490 1.368 . S
C2485 C2469 1.349 . S
C2485 H2477 0.950 . S
C2485 C2483 1.327 . S
C2486 C2474 1.349 . S
C2486 H2480 0.950 . S
C2486 C2487 1.327 . S
C2487 H2481 0.950 . S
C2487 C2486 1.327 . S
C2487 C2491 1.429 . S
C2488 C2471 1.574 . S
C2488 H2482 0.949 . S
C2488 C2492 1.368 . S
C2489 C2470 1.429 . S
C2489 C2483 1.429 . S
C2489 C2490 1.523 . S
C2490 C2471 1.368 . S
C2490 C2484 1.368 . S
C2490 C2489 1.523 . S
C2491 C2475 1.429 . S
C2491 C2487 1.429 . S
C2491 C2492 1.523 . S
C2492 C2476 1.368 . S
C2492 C2488 1.368 . S
C2492 C2491 1.523 . S
H2493 C2468 0.950 . S
H2494 C2470 0.950 . S
H2495 C2471 0.949 . S
H2496 C2473 0.950 . S
H2497 C2475 0.950 . S
C2498 C2499 1.349 . S
C2498 C2500 1.327 . S
C2498 H2523 0.950 . S
C2499 C2498 1.349 . S
C2499 C2515 1.349 . S
C2500 C2498 1.327 . S
C2500 C2519 1.429 . S
C2500 H2524 0.950 . S
C2501 C2518 1.574 . S
C2501 C2520 1.368 . S
C2501 H2525 0.949 . S
H2502 C2506 0.949 . S
C2503 C2504 1.349 . S
C2503 C2505 1.327 . S
C2503 H2526 0.950 . S
C2504 C2503 1.349 . S
C2504 C2516 1.349 . S
C2505 C2503 1.327 . S
C2505 C2521 1.429 . S
C2505 H2527 0.950 . S
C2506 H2502 0.949 . S
C2506 C2514 1.574 . S
C2506 C2522 1.368 . S
H2507 C2515 0.950 . S
H2508 C2513 0.950 . S
H2509 C2514 0.949 . S
H2510 C2516 0.950 . S
H2511 C2517 0.950 . S
H2512 C2518 0.949 . S
C2513 H2508 0.950 . S
C2513 C2515 1.327 . S
C2513 C2519 1.429 . S
C2514 C2506 1.574 . S
C2514 H2509 0.949 . S
C2514 C2520 1.368 . S
C2515 C2499 1.349 . S
C2515 H2507 0.950 . S
C2515 C2513 1.327 . S
C2516 C2504 1.349 . S
C2516 H2510 0.950 . S
C2516 C2517 1.327 . S
C2517 H2511 0.950 . S
C2517 C2516 1.327 . S
C2517 C2521 1.429 . S
C2518 C2501 1.574 . S
C2518 H2512 0.949 . S
C2518 C2522 1.368 . S
C2519 C2500 1.429 . S
C2519 C2513 1.429 . S
C2519 C2520 1.523 . S
C2520 C2501 1.368 . S
C2520 C2514 1.368 . S
C2520 C2519 1.523 . S
C2521 C2505 1.429 . S
C2521 C2517 1.429 . S
C2521 C2522 1.523 . S
C2522 C2506 1.368 . S
C2522 C2518 1.368 . S
C2522 C2521 1.523 . S
H2523 C2498 0.950 . S
H2524 C2500 0.950 . S
H2525 C2501 0.949 . S
H2526 C2503 0.950 . S
H2527 C2505 0.950 . S
C2528 C2529 1.349 . S
C2528 C2530 1.327 . S
C2528 H2553 0.950 . S
C2529 C2528 1.349 . S
C2529 C2545 1.349 . S
C2530 C2528 1.327 . S
C2530 C2549 1.429 . S
C2530 H2554 0.950 . S
C2531 C2548 1.574 1_554 S
C2531 C2550 1.368 . S
C2531 H2555 0.949 . S
H2532 C2536 0.949 . S
C2533 C2534 1.349 . S
C2533 C2535 1.327 . S
C2533 H2556 0.950 . S
C2534 C2533 1.349 . S
C2534 C2546 1.349 . S
C2535 C2533 1.327 . S
C2535 C2551 1.429 . S
C2535 H2557 0.950 . S
C2536 H2532 0.949 . S
C2536 C2544 1.574 1_556 S
C2536 C2552 1.368 . S
H2537 C2545 0.950 . S
H2538 C2543 0.950 . S
H2539 C2544 0.949 . S
H2540 C2546 0.950 . S
H2541 C2547 0.950 . S
H2542 C2548 0.949 . S
C2543 H2538 0.950 . S
C2543 C2545 1.327 . S
C2543 C2549 1.429 . S
C2544 C2536 1.574 1_554 S
C2544 H2539 0.949 . S
C2544 C2550 1.368 . S
C2545 C2529 1.349 . S
C2545 H2537 0.950 . S
C2545 C2543 1.327 . S
C2546 C2534 1.349 . S
C2546 H2540 0.950 . S
C2546 C2547 1.327 . S
C2547 H2541 0.950 . S
C2547 C2546 1.327 . S
C2547 C2551 1.429 . S
C2548 C2531 1.574 1_556 S
C2548 H2542 0.949 . S
C2548 C2552 1.368 . S
C2549 C2530 1.429 . S
C2549 C2543 1.429 . S
C2549 C2550 1.523 . S
C2550 C2531 1.368 . S
C2550 C2544 1.368 . S
C2550 C2549 1.523 . S
C2551 C2535 1.429 . S
C2551 C2547 1.429 . S
C2551 C2552 1.523 . S
C2552 C2536 1.368 . S
C2552 C2548 1.368 . S
C2552 C2551 1.523 . S
H2553 C2528 0.950 . S
H2554 C2530 0.950 . S
H2555 C2531 0.949 . S
H2556 C2533 0.950 . S
H2557 C2535 0.950 . S
C2558 C2559 1.349 . S
C2558 C2560 1.327 . S
C2558 H2583 0.950 . S
C2559 C2558 1.349 . S
C2559 C2575 1.349 . S
C2560 C2558 1.327 . S
C2560 C2579 1.429 . S
C2560 H2584 0.950 . S
C2561 C2578 1.574 . S
C2561 C2580 1.368 1_545 S
C2561 H2585 0.949 . S
H2562 C2566 0.949 . S
C2563 C2564 1.349 . S
C2563 C2565 1.327 . S
C2563 H2586 0.950 . S
C2564 C2563 1.349 . S
C2564 C2576 1.349 . S
C2565 C2563 1.327 . S
C2565 C2581 1.429 . S
C2565 H2587 0.950 . S
C2566 H2562 0.949 . S
C2566 C2574 1.574 . S
C2566 C2582 1.368 1_565 S
H2567 C2575 0.950 1_545 S
H2568 C2573 0.950 . S
H2569 C2574 0.949 . S
H2570 C2576 0.950 1_565 S
H2571 C2577 0.950 . S
H2572 C2578 0.949 . S
C2573 H2568 0.950 . S
C2573 C2575 1.327 1_545 S
C2573 C2579 1.429 1_545 S
C2574 C2566 1.574 . S
C2574 H2569 0.949 . S
C2574 C2580 1.368 . S
C2575 C2559 1.349 . S
C2575 H2567 0.950 1_565 S
C2575 C2573 1.327 1_565 S
C2576 C2564 1.349 . S
C2576 H2570 0.950 1_545 S
C2576 C2577 1.327 1_545 S
C2577 H2571 0.950 . S
C2577 C2576 1.327 1_565 S
C2577 C2581 1.429 1_565 S
C2578 C2561 1.574 . S
C2578 H2572 0.949 . S
C2578 C2582 1.368 . S
C2579 C2560 1.429 . S
C2579 C2573 1.429 1_565 S
C2579 C2580 1.523 . S
C2580 C2561 1.368 1_565 S
C2580 C2574 1.368 . S
C2580 C2579 1.523 . S
C2581 C2565 1.429 . S
C2581 C2577 1.429 1_545 S
C2581 C2582 1.523 . S
C2582 C2566 1.368 1_545 S
C2582 C2578 1.368 . S
C2582 C2581 1.523 . S
H2583 C2558 0.950 . S
H2584 C2560 0.950 . S
H2585 C2561 0.949 . S
H2586 C2563 0.950 . S
H2587 C2565 0.950 . S
C2588 C2589 1.349 . S
C2588 C2590 1.327 . S
C2588 H2613 0.950 . S
C2589 C2588 1.349 . S
C2589 C2605 1.349 . S
C2590 C2588 1.327 . S
C2590 C2609 1.429 . S
C2590 H2614 0.950 . S
C2591 C2608 1.574 . S
C2591 C2610 1.368 . S
C2591 H2615 0.949 . S
H2592 C2596 0.949 . S
C2593 C2594 1.349 . S
C2593 C2595 1.327 . S
C2593 H2616 0.950 . S
C2594 C2593 1.349 . S
C2594 C2606 1.349 . S
C2595 C2593 1.327 . S
C2595 C2611 1.429 . S
C2595 H2617 0.950 . S
C2596 H2592 0.949 . S
C2596 C2604 1.574 . S
C2596 C2612 1.368 . S
H2597 C2605 0.950 . S
H2598 C2603 0.950 . S
H2599 C2604 0.949 . S
H2600 C2606 0.950 . S
H2601 C2607 0.950 . S
H2602 C2608 0.949 . S
C2603 H2598 0.950 . S
C2603 C2605 1.327 . S
C2603 C2609 1.429 . S
C2604 C2596 1.574 . S
C2604 H2599 0.949 . S
C2604 C2610 1.368 . S
C2605 C2589 1.349 . S
C2605 H2597 0.950 . S
C2605 C2603 1.327 . S
C2606 C2594 1.349 . S
C2606 H2600 0.950 . S
C2606 C2607 1.327 . S
C2607 H2601 0.950 . S
C2607 C2606 1.327 . S
C2607 C2611 1.429 . S
C2608 C2591 1.574 . S
C2608 H2602 0.949 . S
C2608 C2612 1.368 . S
C2609 C2590 1.429 . S
C2609 C2603 1.429 . S
C2609 C2610 1.523 . S
C2610 C2591 1.368 . S
C2610 C2604 1.368 . S
C2610 C2609 1.523 . S
C2611 C2595 1.429 . S
C2611 C2607 1.429 . S
C2611 C2612 1.523 . S
C2612 C2596 1.368 . S
C2612 C2608 1.368 . S
C2612 C2611 1.523 . S
H2613 C2588 0.950 . S
H2614 C2590 0.950 . S
H2615 C2591 0.949 . S
H2616 C2593 0.950 . S
H2617 C2595 0.950 . S
C2618 C2619 1.349 . S
C2618 C2620 1.327 . S
C2618 H2643 0.950 . S
C2619 C2618 1.349 . S
C2619 C2635 1.349 . S
C2620 C2618 1.327 . S
C2620 C2639 1.429 . S
C2620 H2644 0.950 . S
C2621 C2638 1.568 1_565 S
C2621 C2640 1.374 . S
C2621 H2645 0.949 . S
H2622 C2626 0.949 . S
C2623 C2624 1.349 . S
C2623 C2625 1.327 . S
C2623 H2646 0.950 . S
C2624 C2623 1.349 . S
C2624 C2636 1.349 . S
C2625 C2623 1.327 . S
C2625 C2641 1.429 . S
C2625 H2647 0.950 . S
C2626 H2622 0.949 . S
C2626 C2634 1.568 1_545 S
C2626 C2642 1.374 . S
H2627 C2635 0.950 . S
H2628 C2633 0.950 . S
H2629 C2634 0.949 . S
H2630 C2636 0.950 . S
H2631 C2637 0.950 . S
H2632 C2638 0.949 . S
C2633 H2628 0.950 . S
C2633 C2635 1.327 . S
C2633 C2639 1.429 . S
C2634 C2626 1.568 1_565 S
C2634 H2629 0.949 . S
C2634 C2640 1.368 . S
C2635 C2619 1.349 . S
C2635 H2627 0.950 . S
C2635 C2633 1.327 . S
C2636 C2624 1.349 . S
C2636 H2630 0.950 . S
C2636 C2637 1.327 . S
C2637 H2631 0.950 . S
C2637 C2636 1.327 . S
C2637 C2641 1.429 . S
C2638 C2621 1.568 1_545 S
C2638 H2632 0.949 . S
C2638 C2642 1.368 . S
C2639 C2620 1.429 . S
C2639 C2633 1.429 . S
C2639 C2640 1.523 . S
C2640 C2621 1.374 . S
C2640 C2634 1.368 . S
C2640 C2639 1.523 . S
C2641 C2625 1.429 . S
C2641 C2637 1.429 . S
C2641 C2642 1.523 . S
C2642 C2626 1.374 . S
C2642 C2638 1.368 . S
C2642 C2641 1.523 . S
H2643 C2618 0.950 . S
H2644 C2620 0.950 . S
H2645 C2621 0.949 . S
H2646 C2623 0.950 . S
H2647 C2625 0.950 . S
C2648 C2649 1.349 . S
C2648 C2650 1.327 . S
C2648 H2673 0.950 . S
C2649 C2648 1.349 . S
C2649 C2665 1.349 . S
C2650 C2648 1.327 . S
C2650 C2669 1.429 . S
C2650 H2674 0.950 . S
C2651 C2668 1.574 1_554 S
C2651 C2670 1.368 . S
C2651 H2675 0.949 . S
H2652 C2656 0.949 . S
C2653 C2654 1.349 . S
C2653 C2655 1.327 . S
C2653 H2676 0.950 . S
C2654 C2653 1.349 . S
C2654 C2666 1.349 . S
C2655 C2653 1.327 . S
C2655 C2671 1.429 . S
C2655 H2677 0.950 . S
C2656 H2652 0.949 . S
C2656 C2664 1.574 1_556 S
C2656 C2672 1.368 . S
H2657 C2665 0.950 . S
H2658 C2663 0.950 . S
H2659 C2664 0.949 . S
H2660 C2666 0.950 . S
H2661 C2667 0.950 . S
H2662 C2668 0.949 . S
C2663 H2658 0.950 . S
C2663 C2665 1.327 . S
C2663 C2669 1.429 . S
C2664 C2656 1.574 1_554 S
C2664 H2659 0.949 . S
C2664 C2670 1.368 . S
C2665 C2649 1.349 . S
C2665 H2657 0.950 . S
C2665 C2663 1.327 . S
C2666 C2654 1.349 . S
C2666 H2660 0.950 . S
C2666 C2667 1.327 . S
C2667 H2661 0.950 . S
C2667 C2666 1.327 . S
C2667 C2671 1.429 . S
C2668 C2651 1.574 1_556 S
C2668 H2662 0.949 . S
C2668 C2672 1.368 . S
C2669 C2650 1.429 . S
C2669 C2663 1.429 . S
C2669 C2670 1.523 . S
C2670 C2651 1.368 . S
C2670 C2664 1.368 . S
C2670 C2669 1.523 . S
C2671 C2655 1.429 . S
C2671 C2667 1.429 . S
C2671 C2672 1.523 . S
C2672 C2656 1.368 . S
C2672 C2668 1.368 . S
C2672 C2671 1.523 . S
H2673 C2648 0.950 . S
H2674 C2650 0.950 . S
H2675 C2651 0.949 . S
H2676 C2653 0.950 . S
H2677 C2655 0.950 . S
C2678 C2679 1.349 . S
C2678 C2680 1.327 . S
C2678 H2703 0.950 . S
C2679 C2678 1.349 . S
C2679 C2695 1.349 . S
C2680 C2678 1.327 . S
C2680 C2699 1.429 . S
C2680 H2704 0.950 1_545 S
C2681 C2698 1.574 . S
C2681 C2700 1.368 . S
C2681 H2705 0.949 . S
H2682 C2686 0.949 . S
C2683 C2684 1.349 . S
C2683 C2685 1.327 . S
C2683 H2706 0.950 . S
C2684 C2683 1.349 . S
C2684 C2696 1.349 . S
C2685 C2683 1.327 . S
C2685 C2701 1.429 . S
C2685 H2707 0.950 1_565 S
C2686 H2682 0.949 . S
C2686 C2694 1.574 . S
C2686 C2702 1.368 . S
H2687 C2695 0.950 . S
H2688 C2693 0.950 . S
H2689 C2694 0.949 . S
H2690 C2696 0.950 . S
H2691 C2697 0.950 . S
H2692 C2698 0.949 . S
C2693 H2688 0.950 . S
C2693 C2695 1.327 . S
C2693 C2699 1.429 . S
C2694 C2686 1.574 . S
C2694 H2689 0.949 . S
C2694 C2700 1.368 1_565 S
C2695 C2679 1.349 . S
C2695 H2687 0.950 . S
C2695 C2693 1.327 . S
C2696 C2684 1.349 . S
C2696 H2690 0.950 . S
C2696 C2697 1.327 . S
C2697 H2691 0.950 . S
C2697 C2696 1.327 . S
C2697 C2701 1.429 . S
C2698 C2681 1.574 . S
C2698 H2692 0.949 . S
C2698 C2702 1.368 1_545 S
C2699 C2680 1.429 . S
C2699 C2693 1.429 . S
C2699 C2700 1.523 . S
C2700 C2681 1.368 . S
C2700 C2694 1.368 1_545 S
C2700 C2699 1.523 . S
C2701 C2685 1.429 . S
C2701 C2697 1.429 . S
C2701 C2702 1.523 . S
C2702 C2686 1.368 . S
C2702 C2698 1.368 1_565 S
C2702 C2701 1.523 . S
H2703 C2678 0.950 . S
H2704 C2680 0.950 1_565 S
H2705 C2681 0.949 . S
H2706 C2683 0.950 . S
H2707 C2685 0.950 1_545 S
C2708 C2709 1.349 . S
C2708 C2710 1.327 . S
C2708 H2733 0.950 . S
C2709 C2708 1.349 . S
C2709 C2725 1.349 . S
C2710 C2708 1.327 . S
C2710 C2729 1.429 . S
C2710 H2734 0.950 . S
C2711 C2728 1.574 . S
C2711 C2730 1.368 . S
C2711 H2735 0.949 . S
H2712 C2716 0.949 . S
C2713 C2714 1.349 . S
C2713 C2715 1.327 . S
C2713 H2736 0.950 . S
C2714 C2713 1.349 . S
C2714 C2726 1.349 . S
C2715 C2713 1.327 . S
C2715 C2731 1.429 . S
C2715 H2737 0.950 . S
C2716 H2712 0.949 . S
C2716 C2724 1.574 . S
C2716 C2732 1.368 . S
H2717 C2725 0.950 . S
H2718 C2723 0.950 . S
H2719 C2724 0.949 . S
H2720 C2726 0.950 . S
H2721 C2727 0.950 . S
H2722 C2728 0.949 . S
C2723 H2718 0.950 . S
C2723 C2725 1.327 . S
C2723 C2729 1.429 . S
C2724 C2716 1.574 . S
C2724 H2719 0.949 . S
C2724 C2730 1.368 . S
C2725 C2709 1.349 . S
C2725 H2717 0.950 . S
C2725 C2723 1.327 . S
C2726 C2714 1.349 . S
C2726 H2720 0.950 . S
C2726 C2727 1.327 . S
C2727 H2721 0.950 . S
C2727 C2726 1.327 . S
C2727 C2731 1.429 . S
C2728 C2711 1.574 . S
C2728 H2722 0.949 . S
C2728 C2732 1.368 . S
C2729 C2710 1.429 . S
C2729 C2723 1.429 . S
C2729 C2730 1.523 . S
C2730 C2711 1.368 . S
C2730 C2724 1.368 . S
C2730 C2729 1.523 . S
C2731 C2715 1.429 . S
C2731 C2727 1.429 . S
C2731 C2732 1.523 . S
C2732 C2716 1.368 . S
C2732 C2728 1.368 . S
C2732 C2731 1.523 . S
H2733 C2708 0.950 . S
H2734 C2710 0.950 . S
H2735 C2711 0.949 . S
H2736 C2713 0.950 . S
H2737 C2715 0.950 . S
C2738 C2739 1.349 . S
C2738 C2740 1.327 1_565 S
C2738 H2763 0.950 1_565 S
C2739 C2738 1.349 . S
C2739 C2755 1.349 . S
C2740 C2738 1.327 1_545 S
C2740 C2759 1.429 1_545 S
C2740 H2764 0.950 . S
C2741 C2758 1.574 . S
C2741 C2760 1.368 . S
C2741 H2765 0.949 . S
H2742 C2746 0.949 . S
C2743 C2744 1.349 . S
C2743 C2745 1.327 1_545 S
C2743 H2766 0.950 1_545 S
C2744 C2743 1.349 . S
C2744 C2756 1.349 . S
C2745 C2743 1.327 1_565 S
C2745 C2761 1.429 1_565 S
C2745 H2767 0.950 . S
C2746 H2742 0.949 . S
C2746 C2754 1.574 . S
C2746 C2762 1.368 . S
H2747 C2755 0.950 . S
H2748 C2753 0.950 . S
H2749 C2754 0.949 . S
H2750 C2756 0.950 . S
H2751 C2757 0.950 . S
H2752 C2758 0.949 . S
C2753 H2748 0.950 . S
C2753 C2755 1.327 . S
C2753 C2759 1.429 . S
C2754 C2746 1.574 . S
C2754 H2749 0.949 . S
C2754 C2760 1.368 1_545 S
C2755 C2739 1.349 . S
C2755 H2747 0.950 . S
C2755 C2753 1.327 . S
C2756 C2744 1.349 . S
C2756 H2750 0.950 . S
C2756 C2757 1.327 . S
C2757 H2751 0.950 . S
C2757 C2756 1.327 . S
C2757 C2761 1.429 . S
C2758 C2741 1.574 . S
C2758 H2752 0.949 . S
C2758 C2762 1.368 1_565 S
C2759 C2740 1.429 1_565 S
C2759 C2753 1.429 . S
C2759 C2760 1.523 . S
C2760 C2741 1.368 . S
C2760 C2754 1.368 1_565 S
C2760 C2759 1.523 . S
C2761 C2745 1.429 1_545 S
C2761 C2757 1.429 . S
C2761 C2762 1.523 . S
C2762 C2746 1.368 . S
C2762 C2758 1.368 1_545 S
C2762 C2761 1.523 . S
H2763 C2738 0.950 1_545 S
H2764 C2740 0.950 . S
H2765 C2741 0.949 . S
H2766 C2743 0.950 1_565 S
H2767 C2745 0.950 . S
C2768 C2769 1.349 . S
C2768 C2770 1.327 . S
C2768 H2793 0.950 . S
C2769 C2768 1.349 . S
C2769 C2785 1.349 . S
C2770 C2768 1.327 . S
C2770 C2789 1.429 . S
C2770 H2794 0.950 . S
C2771 C2788 1.574 . S
C2771 C2790 1.368 . S
C2771 H2795 0.949 . S
H2772 C2776 0.949 . S
C2773 C2774 1.349 . S
C2773 C2775 1.327 . S
C2773 H2796 0.950 . S
C2774 C2773 1.349 . S
C2774 C2786 1.349 . S
C2775 C2773 1.327 . S
C2775 C2791 1.429 . S
C2775 H2797 0.950 . S
C2776 H2772 0.949 . S
C2776 C2784 1.574 . S
C2776 C2792 1.368 . S
H2777 C2785 0.950 . S
H2778 C2783 0.950 . S
H2779 C2784 0.949 . S
H2780 C2786 0.950 . S
H2781 C2787 0.950 . S
H2782 C2788 0.949 . S
C2783 H2778 0.950 . S
C2783 C2785 1.327 . S
C2783 C2789 1.429 . S
C2784 C2776 1.574 . S
C2784 H2779 0.949 . S
C2784 C2790 1.368 . S
C2785 C2769 1.349 . S
C2785 H2777 0.950 . S
C2785 C2783 1.327 . S
C2786 C2774 1.349 . S
C2786 H2780 0.950 . S
C2786 C2787 1.327 . S
C2787 H2781 0.950 . S
C2787 C2786 1.327 . S
C2787 C2791 1.429 . S
C2788 C2771 1.574 . S
C2788 H2782 0.949 . S
C2788 C2792 1.368 . S
C2789 C2770 1.429 . S
C2789 C2783 1.429 . S
C2789 C2790 1.523 . S
C2790 C2771 1.368 . S
C2790 C2784 1.368 . S
C2790 C2789 1.523 . S
C2791 C2775 1.429 . S
C2791 C2787 1.429 . S
C2791 C2792 1.523 . S
C2792 C2776 1.368 . S
C2792 C2788 1.368 . S
C2792 C2791 1.523 . S
H2793 C2768 0.950 . S
H2794 C2770 0.950 . S
H2795 C2771 0.949 . S
H2796 C2773 0.950 . S
H2797 C2775 0.950 . S
C2798 C2799 1.349 . S
C2798 C2800 1.327 . S
C2798 H2823 0.950 . S
C2799 C2798 1.349 . S
C2799 C2815 1.349 . S
C2800 C2798 1.327 . S
C2800 C2819 1.429 . S
C2800 H2824 0.950 . S
C2801 C2818 1.574 . S
C2801 C2820 1.368 . S
C2801 H2825 0.949 . S
H2802 C2806 0.949 . S
C2803 C2804 1.349 . S
C2803 C2805 1.327 . S
C2803 H2826 0.950 . S
C2804 C2803 1.349 . S
C2804 C2816 1.349 . S
C2805 C2803 1.327 . S
C2805 C2821 1.429 . S
C2805 H2827 0.950 . S
C2806 H2802 0.949 . S
C2806 C2814 1.574 . S
C2806 C2822 1.368 . S
H2807 C2815 0.950 . S
H2808 C2813 0.950 . S
H2809 C2814 0.949 . S
H2810 C2816 0.950 . S
H2811 C2817 0.950 . S
H2812 C2818 0.949 . S
C2813 H2808 0.950 . S
C2813 C2815 1.327 . S
C2813 C2819 1.429 . S
C2814 C2806 1.574 . S
C2814 H2809 0.949 . S
C2814 C2820 1.368 . S
C2815 C2799 1.349 . S
C2815 H2807 0.950 . S
C2815 C2813 1.327 . S
C2816 C2804 1.349 . S
C2816 H2810 0.950 . S
C2816 C2817 1.327 . S
C2817 H2811 0.950 . S
C2817 C2816 1.327 . S
C2817 C2821 1.429 . S
C2818 C2801 1.574 . S
C2818 H2812 0.949 . S
C2818 C2822 1.368 . S
C2819 C2800 1.429 . S
C2819 C2813 1.429 . S
C2819 C2820 1.523 . S
C2820 C2801 1.368 . S
C2820 C2814 1.368 . S
C2820 C2819 1.523 . S
C2821 C2805 1.429 . S
C2821 C2817 1.429 . S
C2821 C2822 1.523 . S
C2822 C2806 1.368 . S
C2822 C2818 1.368 . S
C2822 C2821 1.523 . S
H2823 C2798 0.950 . S
H2824 C2800 0.950 . S
H2825 C2801 0.949 . S
H2826 C2803 0.950 . S
H2827 C2805 0.950 . S
C2828 C2829 1.349 . S
C2828 C2830 1.327 . S
C2828 H2853 0.950 . S
C2829 C2828 1.349 . S
C2829 C2845 1.349 . S
C2830 C2828 1.327 . S
C2830 C2849 1.429 . S
C2830 H2854 0.950 . S
C2831 C2848 1.574 1_554 S
C2831 C2850 1.368 . S
C2831 H2855 0.949 . S
H2832 C2836 0.949 . S
C2833 C2834 1.349 . S
C2833 C2835 1.327 . S
C2833 H2856 0.950 . S
C2834 C2833 1.349 . S
C2834 C2846 1.349 . S
C2835 C2833 1.327 . S
C2835 C2851 1.429 . S
C2835 H2857 0.950 . S
C2836 H2832 0.949 . S
C2836 C2844 1.574 1_556 S
C2836 C2852 1.368 . S
H2837 C2845 0.950 . S
H2838 C2843 0.950 . S
H2839 C2844 0.949 . S
H2840 C2846 0.950 . S
H2841 C2847 0.950 . S
H2842 C2848 0.949 . S
C2843 H2838 0.950 . S
C2843 C2845 1.327 . S
C2843 C2849 1.429 . S
C2844 C2836 1.574 1_554 S
C2844 H2839 0.949 . S
C2844 C2850 1.368 . S
C2845 C2829 1.349 . S
C2845 H2837 0.950 . S
C2845 C2843 1.327 . S
C2846 C2834 1.349 . S
C2846 H2840 0.950 . S
C2846 C2847 1.327 . S
C2847 H2841 0.950 . S
C2847 C2846 1.327 . S
C2847 C2851 1.429 . S
C2848 C2831 1.574 1_556 S
C2848 H2842 0.949 . S
C2848 C2852 1.368 . S
C2849 C2830 1.429 . S
C2849 C2843 1.429 . S
C2849 C2850 1.523 . S
C2850 C2831 1.368 . S
C2850 C2844 1.368 . S
C2850 C2849 1.523 . S
C2851 C2835 1.429 . S
C2851 C2847 1.429 . S
C2851 C2852 1.523 . S
C2852 C2836 1.368 . S
C2852 C2848 1.368 . S
C2852 C2851 1.523 . S
H2853 C2828 0.950 . S
H2854 C2830 0.950 . S
H2855 C2831 0.949 . S
H2856 C2833 0.950 . S
H2857 C2835 0.950 . S
C2858 C2859 1.349 . S
C2858 C2860 1.327 . S
C2858 H2883 0.950 . S
C2859 C2858 1.349 . S
C2859 C2875 1.349 . S
C2860 C2858 1.327 . S
C2860 C2879 1.429 . S
C2860 H2884 0.950 . S
C2861 C2878 1.574 . S
C2861 C2880 1.368 . S
C2861 H2885 0.949 . S
H2862 C2866 0.949 . S
C2863 C2864 1.349 . S
C2863 C2865 1.327 . S
C2863 H2886 0.950 . S
C2864 C2863 1.349 . S
C2864 C2876 1.349 . S
C2865 C2863 1.327 . S
C2865 C2881 1.429 . S
C2865 H2887 0.950 . S
C2866 H2862 0.949 . S
C2866 C2874 1.574 . S
C2866 C2882 1.368 . S
H2867 C2875 0.950 . S
H2868 C2873 0.950 . S
H2869 C2874 0.949 . S
H2870 C2876 0.950 . S
H2871 C2877 0.950 . S
H2872 C2878 0.949 . S
C2873 H2868 0.950 . S
C2873 C2875 1.327 . S
C2873 C2879 1.429 . S
C2874 C2866 1.574 . S
C2874 H2869 0.949 . S
C2874 C2880 1.368 . S
C2875 C2859 1.349 . S
C2875 H2867 0.950 . S
C2875 C2873 1.327 . S
C2876 C2864 1.349 . S
C2876 H2870 0.950 . S
C2876 C2877 1.327 . S
C2877 H2871 0.950 . S
C2877 C2876 1.327 . S
C2877 C2881 1.429 . S
C2878 C2861 1.574 . S
C2878 H2872 0.949 . S
C2878 C2882 1.368 . S
C2879 C2860 1.429 . S
C2879 C2873 1.429 . S
C2879 C2880 1.523 . S
C2880 C2861 1.368 . S
C2880 C2874 1.368 . S
C2880 C2879 1.523 . S
C2881 C2865 1.429 . S
C2881 C2877 1.429 . S
C2881 C2882 1.523 . S
C2882 C2866 1.368 . S
C2882 C2878 1.368 . S
C2882 C2881 1.523 . S
H2883 C2858 0.950 . S
H2884 C2860 0.950 . S
H2885 C2861 0.949 . S
H2886 C2863 0.950 . S
H2887 C2865 0.950 . S
C2888 C2889 1.349 . S
C2888 C2890 1.327 . S
C2888 H2913 0.950 . S
C2889 C2888 1.349 . S
C2889 C2905 1.349 . S
C2890 C2888 1.327 . S
C2890 C2909 1.429 . S
C2890 H2914 0.950 . S
C2891 C2908 1.574 . S
C2891 C2910 1.368 . S
C2891 H2915 0.949 . S
H2892 C2896 0.949 . S
C2893 C2894 1.349 . S
C2893 C2895 1.327 . S
C2893 H2916 0.950 . S
C2894 C2893 1.349 . S
C2894 C2906 1.349 . S
C2895 C2893 1.327 . S
C2895 C2911 1.429 . S
C2895 H2917 0.950 . S
C2896 H2892 0.949 . S
C2896 C2904 1.574 . S
C2896 C2912 1.368 . S
H2897 C2905 0.950 . S
H2898 C2903 0.950 . S
H2899 C2904 0.949 . S
H2900 C2906 0.950 . S
H2901 C2907 0.950 . S
H2902 C2908 0.949 . S
C2903 H2898 0.950 . S
C2903 C2905 1.327 . S
C2903 C2909 1.429 . S
C2904 C2896 1.574 . S
C2904 H2899 0.949 . S
C2904 C2910 1.368 . S
C2905 C2889 1.349 . S
C2905 H2897 0.950 . S
C2905 C2903 1.327 . S
C2906 C2894 1.349 . S
C2906 H2900 0.950 . S
C2906 C2907 1.327 . S
C2907 H2901 0.950 . S
C2907 C2906 1.327 . S
C2907 C2911 1.429 . S
C2908 C2891 1.574 . S
C2908 H2902 0.949 . S
C2908 C2912 1.368 . S
C2909 C2890 1.429 . S
C2909 C2903 1.429 . S
C2909 C2910 1.523 . S
C2910 C2891 1.368 . S
C2910 C2904 1.368 . S
C2910 C2909 1.523 . S
C2911 C2895 1.429 . S
C2911 C2907 1.429 . S
C2911 C2912 1.523 . S
C2912 C2896 1.368 . S
C2912 C2908 1.368 . S
C2912 C2911 1.523 . S
H2913 C2888 0.950 . S
H2914 C2890 0.950 . S
H2915 C2891 0.949 . S
H2916 C2893 0.950 . S
H2917 C2895 0.950 . S
C2918 C2919 1.349 . S
C2918 C2920 1.327 . S
C2918 H2943 0.950 . S
C2919 C2918 1.349 . S
C2919 C2935 1.349 . S
C2920 C2918 1.327 . S
C2920 C2939 1.429 . S
C2920 H2944 0.950 . S
C2921 C2938 1.574 . S
C2921 C2940 1.368 . S
C2921 H2945 0.949 . S
H2922 C2926 0.949 . S
C2923 C2924 1.349 . S
C2923 C2925 1.327 . S
C2923 H2946 0.950 . S
C2924 C2923 1.349 . S
C2924 C2936 1.349 . S
C2925 C2923 1.327 . S
C2925 C2941 1.429 . S
C2925 H2947 0.950 . S
C2926 H2922 0.949 . S
C2926 C2934 1.574 . S
C2926 C2942 1.368 . S
H2927 C2935 0.950 . S
H2928 C2933 0.950 . S
H2929 C2934 0.949 . S
H2930 C2936 0.950 . S
H2931 C2937 0.950 . S
H2932 C2938 0.949 . S
C2933 H2928 0.950 . S
C2933 C2935 1.327 . S
C2933 C2939 1.429 . S
C2934 C2926 1.574 . S
C2934 H2929 0.949 . S
C2934 C2940 1.368 . S
C2935 C2919 1.349 . S
C2935 H2927 0.950 . S
C2935 C2933 1.327 . S
C2936 C2924 1.349 . S
C2936 H2930 0.950 . S
C2936 C2937 1.327 . S
C2937 H2931 0.950 . S
C2937 C2936 1.327 . S
C2937 C2941 1.429 . S
C2938 C2921 1.574 . S
C2938 H2932 0.949 . S
C2938 C2942 1.368 . S
C2939 C2920 1.429 . S
C2939 C2933 1.429 . S
C2939 C2940 1.523 . S
C2940 C2921 1.368 . S
C2940 C2934 1.368 . S
C2940 C2939 1.523 . S
C2941 C2925 1.429 . S
C2941 C2937 1.429 . S
C2941 C2942 1.523 . S
C2942 C2926 1.368 . S
C2942 C2938 1.368 . S
C2942 C2941 1.523 . S
H2943 C2918 0.950 . S
H2944 C2920 0.950 . S
H2945 C2921 0.949 . S
H2946 C2923 0.950 . S
H2947 C2925 0.950 . S
C2948 C2949 1.349 . S
C2948 C2950 1.327 . S
C2948 H2973 0.950 . S
C2949 C2948 1.349 . S
C2949 C2965 1.349 . S
C2950 C2948 1.327 . S
C2950 C2969 1.429 . S
C2950 H2974 0.950 . S
C2951 C2968 1.574 1_556 S
C2951 C2970 1.368 . S
C2951 H2975 0.949 . S
H2952 C2956 0.949 . S
C2953 C2954 1.349 . S
C2953 C2955 1.327 . S
C2953 H2976 0.950 . S
C2954 C2953 1.349 . S
C2954 C2966 1.349 . S
C2955 C2953 1.327 . S
C2955 C2971 1.429 . S
C2955 H2977 0.950 . S
C2956 H2952 0.949 . S
C2956 C2964 1.574 1_554 S
C2956 C2972 1.368 . S
H2957 C2965 0.950 . S
H2958 C2963 0.950 . S
H2959 C2964 0.949 . S
H2960 C2966 0.950 . S
H2961 C2967 0.950 . S
H2962 C2968 0.949 . S
C2963 H2958 0.950 . S
C2963 C2965 1.327 . S
C2963 C2969 1.429 . S
C2964 C2956 1.574 1_556 S
C2964 H2959 0.949 . S
C2964 C2970 1.368 . S
C2965 C2949 1.349 . S
C2965 H2957 0.950 . S
C2965 C2963 1.327 . S
C2966 C2954 1.349 . S
C2966 H2960 0.950 . S
C2966 C2967 1.327 . S
C2967 H2961 0.950 . S
C2967 C2966 1.327 . S
C2967 C2971 1.429 . S
C2968 C2951 1.574 1_554 S
C2968 H2962 0.949 . S
C2968 C2972 1.368 . S
C2969 C2950 1.429 . S
C2969 C2963 1.429 . S
C2969 C2970 1.523 . S
C2970 C2951 1.368 . S
C2970 C2964 1.368 . S
C2970 C2969 1.523 . S
C2971 C2955 1.429 . S
C2971 C2967 1.429 . S
C2971 C2972 1.523 . S
C2972 C2956 1.368 . S
C2972 C2968 1.368 . S
C2972 C2971 1.523 . S
H2973 C2948 0.950 . S
H2974 C2950 0.950 . S
H2975 C2951 0.949 . S
H2976 C2953 0.950 . S
H2977 C2955 0.950 . S
C2978 C2979 1.349 . S
C2978 C2980 1.327 . S
C2978 H3003 0.950 . S
C2979 C2978 1.349 . S
C2979 C2995 1.349 . S
C2980 C2978 1.327 . S
C2980 C2999 1.429 . S
C2980 H3004 0.950 . S
C2981 C2998 1.574 . S
C2981 C3000 1.368 . S
C2981 H3005 0.949 . S
H2982 C2986 0.949 . S
C2983 C2984 1.349 . S
C2983 C2985 1.327 . S
C2983 H3006 0.950 . S
C2984 C2983 1.349 . S
C2984 C2996 1.349 . S
C2985 C2983 1.327 . S
C2985 C3001 1.429 . S
C2985 H3007 0.950 . S
C2986 H2982 0.949 . S
C2986 C2994 1.574 . S
C2986 C3002 1.368 . S
H2987 C2995 0.950 . S
H2988 C2993 0.950 . S
H2989 C2994 0.949 . S
H2990 C2996 0.950 . S
H2991 C2997 0.950 . S
H2992 C2998 0.949 . S
C2993 H2988 0.950 . S
C2993 C2995 1.327 . S
C2993 C2999 1.429 . S
C2994 C2986 1.574 . S
C2994 H2989 0.949 . S
C2994 C3000 1.368 . S
C2995 C2979 1.349 . S
C2995 H2987 0.950 . S
C2995 C2993 1.327 . S
C2996 C2984 1.349 . S
C2996 H2990 0.950 . S
C2996 C2997 1.327 . S
C2997 H2991 0.950 . S
C2997 C2996 1.327 . S
C2997 C3001 1.429 . S
C2998 C2981 1.574 . S
C2998 H2992 0.949 . S
C2998 C3002 1.368 . S
C2999 C2980 1.429 . S
C2999 C2993 1.429 . S
C2999 C3000 1.523 . S
C3000 C2981 1.368 . S
C3000 C2994 1.368 . S
C3000 C2999 1.523 . S
C3001 C2985 1.429 . S
C3001 C2997 1.429 . S
C3001 C3002 1.523 . S
C3002 C2986 1.368 . S
C3002 C2998 1.368 . S
C3002 C3001 1.523 . S
H3003 C2978 0.950 . S
H3004 C2980 0.950 . S
H3005 C2981 0.949 . S
H3006 C2983 0.950 . S
H3007 C2985 0.950 . S
C3008 C3009 1.349 . S
C3008 C3010 1.327 . S
C3008 H3033 0.950 . S
C3009 C3008 1.349 . S
C3009 C3025 1.349 . S
C3010 C3008 1.327 . S
C3010 C3029 1.429 . S
C3010 H3034 0.950 . S
C3011 C3028 1.574 . S
C3011 C3030 1.368 . S
C3011 H3035 0.949 . S
H3012 C3016 0.949 . S
C3013 C3014 1.349 . S
C3013 C3015 1.327 . S
C3013 H3036 0.950 . S
C3014 C3013 1.349 . S
C3014 C3026 1.349 . S
C3015 C3013 1.327 . S
C3015 C3031 1.429 . S
C3015 H3037 0.950 . S
C3016 H3012 0.949 . S
C3016 C3024 1.574 . S
C3016 C3032 1.368 . S
H3017 C3025 0.950 . S
H3018 C3023 0.950 . S
H3019 C3024 0.949 . S
H3020 C3026 0.950 . S
H3021 C3027 0.950 . S
H3022 C3028 0.949 . S
C3023 H3018 0.950 . S
C3023 C3025 1.327 . S
C3023 C3029 1.429 . S
C3024 C3016 1.574 . S
C3024 H3019 0.949 . S
C3024 C3030 1.368 . S
C3025 C3009 1.349 . S
C3025 H3017 0.950 . S
C3025 C3023 1.327 . S
C3026 C3014 1.349 . S
C3026 H3020 0.950 . S
C3026 C3027 1.327 . S
C3027 H3021 0.950 . S
C3027 C3026 1.327 . S
C3027 C3031 1.429 . S
C3028 C3011 1.574 . S
C3028 H3022 0.949 . S
C3028 C3032 1.368 . S
C3029 C3010 1.429 . S
C3029 C3023 1.429 . S
C3029 C3030 1.523 . S
C3030 C3011 1.368 . S
C3030 C3024 1.368 . S
C3030 C3029 1.523 . S
C3031 C3015 1.429 . S
C3031 C3027 1.429 . S
C3031 C3032 1.523 . S
C3032 C3016 1.368 . S
C3032 C3028 1.368 . S
C3032 C3031 1.523 . S
H3033 C3008 0.950 . S
H3034 C3010 0.950 . S
H3035 C3011 0.949 . S
H3036 C3013 0.950 . S
H3037 C3015 0.950 . S
C3038 C3039 1.349 . S
C3038 C3040 1.327 . S
C3038 H3063 0.950 . S
C3039 C3038 1.349 . S
C3039 C3055 1.349 . S
C3040 C3038 1.327 . S
C3040 C3059 1.429 . S
C3040 H3064 0.950 . S
C3041 C3058 1.574 . S
C3041 C3060 1.368 . S
C3041 H3065 0.949 . S
H3042 C3046 0.949 . S
C3043 C3044 1.349 . S
C3043 C3045 1.327 . S
C3043 H3066 0.950 . S
C3044 C3043 1.349 . S
C3044 C3056 1.349 . S
C3045 C3043 1.327 . S
C3045 C3061 1.429 . S
C3045 H3067 0.950 . S
C3046 H3042 0.949 . S
C3046 C3054 1.574 . S
C3046 C3062 1.368 . S
H3047 C3055 0.950 . S
H3048 C3053 0.950 . S
H3049 C3054 0.949 . S
H3050 C3056 0.950 . S
H3051 C3057 0.950 . S
H3052 C3058 0.949 . S
C3053 H3048 0.950 . S
C3053 C3055 1.327 . S
C3053 C3059 1.429 . S
C3054 C3046 1.574 . S
C3054 H3049 0.949 . S
C3054 C3060 1.368 . S
C3055 C3039 1.349 . S
C3055 H3047 0.950 . S
C3055 C3053 1.327 . S
C3056 C3044 1.349 . S
C3056 H3050 0.950 . S
C3056 C3057 1.327 . S
C3057 H3051 0.950 . S
C3057 C3056 1.327 . S
C3057 C3061 1.429 . S
C3058 C3041 1.574 . S
C3058 H3052 0.949 . S
C3058 C3062 1.368 . S
C3059 C3040 1.429 . S
C3059 C3053 1.429 . S
C3059 C3060 1.523 . S
C3060 C3041 1.368 . S
C3060 C3054 1.368 . S
C3060 C3059 1.523 . S
C3061 C3045 1.429 . S
C3061 C3057 1.429 . S
C3061 C3062 1.523 . S
C3062 C3046 1.368 . S
C3062 C3058 1.368 . S
C3062 C3061 1.523 . S
H3063 C3038 0.950 . S
H3064 C3040 0.950 . S
H3065 C3041 0.949 . S
H3066 C3043 0.950 . S
H3067 C3045 0.950 . S
C3068 C3069 1.349 . S
C3068 C3070 1.327 . S
C3068 H3093 0.950 . S
C3069 C3068 1.349 . S
C3069 C3085 1.349 . S
C3070 C3068 1.327 . S
C3070 C3089 1.429 . S
C3070 H3094 0.950 . S
C3071 C3088 1.574 . S
C3071 C3090 1.368 . S
C3071 H3095 0.949 . S
H3072 C3076 0.949 . S
C3073 C3074 1.349 . S
C3073 C3075 1.327 . S
C3073 H3096 0.950 . S
C3074 C3073 1.349 . S
C3074 C3086 1.349 . S
C3075 C3073 1.327 . S
C3075 C3091 1.429 . S
C3075 H3097 0.950 . S
C3076 H3072 0.949 . S
C3076 C3084 1.574 . S
C3076 C3092 1.368 . S
H3077 C3085 0.950 . S
H3078 C3083 0.950 . S
H3079 C3084 0.949 . S
H3080 C3086 0.950 . S
H3081 C3087 0.950 . S
H3082 C3088 0.949 . S
C3083 H3078 0.950 . S
C3083 C3085 1.327 . S
C3083 C3089 1.429 . S
C3084 C3076 1.574 . S
C3084 H3079 0.949 . S
C3084 C3090 1.368 . S
C3085 C3069 1.349 . S
C3085 H3077 0.950 . S
C3085 C3083 1.327 . S
C3086 C3074 1.349 . S
C3086 H3080 0.950 . S
C3086 C3087 1.327 . S
C3087 H3081 0.950 . S
C3087 C3086 1.327 . S
C3087 C3091 1.429 . S
C3088 C3071 1.574 . S
C3088 H3082 0.949 . S
C3088 C3092 1.368 . S
C3089 C3070 1.429 . S
C3089 C3083 1.429 . S
C3089 C3090 1.523 . S
C3090 C3071 1.368 . S
C3090 C3084 1.368 . S
C3090 C3089 1.523 . S
C3091 C3075 1.429 . S
C3091 C3087 1.429 . S
C3091 C3092 1.523 . S
C3092 C3076 1.368 . S
C3092 C3088 1.368 . S
C3092 C3091 1.523 . S
H3093 C3068 0.950 . S
H3094 C3070 0.950 . S
H3095 C3071 0.949 . S
H3096 C3073 0.950 . S
H3097 C3075 0.950 . S
C3098 C3099 1.349 . S
C3098 C3100 1.327 . S
C3098 H3123 0.950 . S
C3099 C3098 1.349 . S
C3099 C3115 1.349 . S
C3100 C3098 1.327 . S
C3100 C3119 1.429 . S
C3100 H3124 0.950 . S
C3101 C3118 1.574 . S
C3101 C3120 1.368 . S
C3101 H3125 0.949 . S
H3102 C3106 0.949 . S
C3103 C3104 1.349 . S
C3103 C3105 1.327 . S
C3103 H3126 0.950 . S
C3104 C3103 1.349 . S
C3104 C3116 1.349 . S
C3105 C3103 1.327 . S
C3105 C3121 1.429 . S
C3105 H3127 0.950 . S
C3106 H3102 0.949 . S
C3106 C3114 1.574 . S
C3106 C3122 1.368 . S
H3107 C3115 0.950 . S
H3108 C3113 0.950 . S
H3109 C3114 0.949 . S
H3110 C3116 0.950 . S
H3111 C3117 0.950 . S
H3112 C3118 0.949 . S
C3113 H3108 0.950 . S
C3113 C3115 1.327 . S
C3113 C3119 1.429 . S
C3114 C3106 1.574 . S
C3114 H3109 0.949 . S
C3114 C3120 1.368 . S
C3115 C3099 1.349 . S
C3115 H3107 0.950 . S
C3115 C3113 1.327 . S
C3116 C3104 1.349 . S
C3116 H3110 0.950 . S
C3116 C3117 1.327 . S
C3117 H3111 0.950 . S
C3117 C3116 1.327 . S
C3117 C3121 1.429 . S
C3118 C3101 1.574 . S
C3118 H3112 0.949 . S
C3118 C3122 1.368 . S
C3119 C3100 1.429 . S
C3119 C3113 1.429 . S
C3119 C3120 1.523 . S
C3120 C3101 1.368 . S
C3120 C3114 1.368 . S
C3120 C3119 1.523 . S
C3121 C3105 1.429 . S
C3121 C3117 1.429 . S
C3121 C3122 1.523 . S
C3122 C3106 1.368 . S
C3122 C3118 1.368 . S
C3122 C3121 1.523 . S
H3123 C3098 0.950 . S
H3124 C3100 0.950 . S
H3125 C3101 0.949 . S
H3126 C3103 0.950 . S
H3127 C3105 0.950 . S
C3128 C3129 1.349 . S
C3128 C3130 1.327 . S
C3128 H3153 0.950 . S
C3129 C3128 1.349 . S
C3129 C3145 1.349 . S
C3130 C3128 1.327 . S
C3130 C3149 1.429 . S
C3130 H3154 0.950 . S
C3131 C3148 1.574 . S
C3131 C3150 1.368 . S
C3131 H3155 0.949 . S
H3132 C3136 0.949 . S
C3133 C3134 1.349 . S
C3133 C3135 1.327 . S
C3133 H3156 0.950 . S
C3134 C3133 1.349 . S
C3134 C3146 1.349 . S
C3135 C3133 1.327 . S
C3135 C3151 1.429 . S
C3135 H3157 0.950 . S
C3136 H3132 0.949 . S
C3136 C3144 1.574 . S
C3136 C3152 1.368 . S
H3137 C3145 0.950 . S
H3138 C3143 0.950 . S
H3139 C3144 0.949 . S
H3140 C3146 0.950 . S
H3141 C3147 0.950 . S
H3142 C3148 0.949 . S
C3143 H3138 0.950 . S
C3143 C3145 1.327 . S
C3143 C3149 1.429 . S
C3144 C3136 1.574 . S
C3144 H3139 0.949 . S
C3144 C3150 1.368 . S
C3145 C3129 1.349 . S
C3145 H3137 0.950 . S
C3145 C3143 1.327 . S
C3146 C3134 1.349 . S
C3146 H3140 0.950 . S
C3146 C3147 1.327 . S
C3147 H3141 0.950 . S
C3147 C3146 1.327 . S
C3147 C3151 1.429 . S
C3148 C3131 1.574 . S
C3148 H3142 0.949 . S
C3148 C3152 1.368 . S
C3149 C3130 1.429 . S
C3149 C3143 1.429 . S
C3149 C3150 1.523 . S
C3150 C3131 1.368 . S
C3150 C3144 1.368 . S
C3150 C3149 1.523 . S
C3151 C3135 1.429 . S
C3151 C3147 1.429 . S
C3151 C3152 1.523 . S
C3152 C3136 1.368 . S
C3152 C3148 1.368 . S
C3152 C3151 1.523 . S
H3153 C3128 0.950 . S
H3154 C3130 0.950 . S
H3155 C3131 0.949 . S
H3156 C3133 0.950 . S
H3157 C3135 0.950 . S
C3158 C3159 1.349 . S
C3158 C3160 1.327 . S
C3158 H3183 0.950 . S
C3159 C3158 1.349 . S
C3159 C3175 1.349 . S
C3160 C3158 1.327 . S
C3160 C3179 1.429 . S
C3160 H3184 0.950 . S
C3161 C3178 1.574 . S
C3161 C3180 1.368 . S
C3161 H3185 0.949 . S
H3162 C3166 0.949 . S
C3163 C3164 1.349 . S
C3163 C3165 1.327 . S
C3163 H3186 0.950 . S
C3164 C3163 1.349 . S
C3164 C3176 1.349 . S
C3165 C3163 1.327 . S
C3165 C3181 1.429 . S
C3165 H3187 0.950 . S
C3166 H3162 0.949 . S
C3166 C3174 1.574 . S
C3166 C3182 1.368 . S
H3167 C3175 0.950 . S
H3168 C3173 0.950 . S
H3169 C3174 0.949 . S
H3170 C3176 0.950 . S
H3171 C3177 0.950 . S
H3172 C3178 0.949 . S
C3173 H3168 0.950 . S
C3173 C3175 1.327 . S
C3173 C3179 1.429 . S
C3174 C3166 1.574 . S
C3174 H3169 0.949 . S
C3174 C3180 1.368 . S
C3175 C3159 1.349 . S
C3175 H3167 0.950 . S
C3175 C3173 1.327 . S
C3176 C3164 1.349 . S
C3176 H3170 0.950 . S
C3176 C3177 1.327 . S
C3177 H3171 0.950 . S
C3177 C3176 1.327 . S
C3177 C3181 1.429 . S
C3178 C3161 1.574 . S
C3178 H3172 0.949 . S
C3178 C3182 1.368 . S
C3179 C3160 1.429 . S
C3179 C3173 1.429 . S
C3179 C3180 1.523 . S
C3180 C3161 1.368 . S
C3180 C3174 1.368 . S
C3180 C3179 1.523 . S
C3181 C3165 1.429 . S
C3181 C3177 1.429 . S
C3181 C3182 1.523 . S
C3182 C3166 1.368 . S
C3182 C3178 1.368 . S
C3182 C3181 1.523 . S
H3183 C3158 0.950 . S
H3184 C3160 0.950 . S
H3185 C3161 0.949 . S
H3186 C3163 0.950 . S
H3187 C3165 0.950 . S
C3188 C3189 1.349 . S
C3188 C3190 1.327 . S
C3188 H3213 0.950 . S
C3189 C3188 1.349 . S
C3189 C3205 1.349 . S
C3190 C3188 1.327 . S
C3190 C3209 1.429 . S
C3190 H3214 0.950 . S
C3191 C3208 1.574 . S
C3191 C3210 1.368 . S
C3191 H3215 0.949 . S
H3192 C3196 0.949 . S
C3193 C3194 1.349 . S
C3193 C3195 1.327 . S
C3193 H3216 0.950 . S
C3194 C3193 1.349 . S
C3194 C3206 1.349 . S
C3195 C3193 1.327 . S
C3195 C3211 1.429 . S
C3195 H3217 0.950 . S
C3196 H3192 0.949 . S
C3196 C3204 1.574 . S
C3196 C3212 1.368 . S
H3197 C3205 0.950 . S
H3198 C3203 0.950 . S
H3199 C3204 0.949 . S
H3200 C3206 0.950 . S
H3201 C3207 0.950 . S
H3202 C3208 0.949 . S
C3203 H3198 0.950 . S
C3203 C3205 1.327 . S
C3203 C3209 1.429 . S
C3204 C3196 1.574 . S
C3204 H3199 0.949 . S
C3204 C3210 1.368 . S
C3205 C3189 1.349 . S
C3205 H3197 0.950 . S
C3205 C3203 1.327 . S
C3206 C3194 1.349 . S
C3206 H3200 0.950 . S
C3206 C3207 1.327 . S
C3207 H3201 0.950 . S
C3207 C3206 1.327 . S
C3207 C3211 1.429 . S
C3208 C3191 1.574 . S
C3208 H3202 0.949 . S
C3208 C3212 1.368 . S
C3209 C3190 1.429 . S
C3209 C3203 1.429 . S
C3209 C3210 1.523 . S
C3210 C3191 1.368 . S
C3210 C3204 1.368 . S
C3210 C3209 1.523 . S
C3211 C3195 1.429 . S
C3211 C3207 1.429 . S
C3211 C3212 1.523 . S
C3212 C3196 1.368 . S
C3212 C3208 1.368 . S
C3212 C3211 1.523 . S
H3213 C3188 0.950 . S
H3214 C3190 0.950 . S
H3215 C3191 0.949 . S
H3216 C3193 0.950 . S
H3217 C3195 0.950 . S
C3218 C3219 1.349 . S
C3218 C3220 1.327 . S
C3218 H3243 0.950 . S
C3219 C3218 1.349 . S
C3219 C3235 1.349 . S
C3220 C3218 1.327 . S
C3220 C3239 1.429 . S
C3220 H3244 0.950 . S
C3221 C3238 1.574 . S
C3221 C3240 1.368 . S
C3221 H3245 0.949 . S
H3222 C3226 0.949 . S
C3223 C3224 1.349 . S
C3223 C3225 1.327 . S
C3223 H3246 0.950 . S
C3224 C3223 1.349 . S
C3224 C3236 1.349 . S
C3225 C3223 1.327 . S
C3225 C3241 1.429 . S
C3225 H3247 0.950 . S
C3226 H3222 0.949 . S
C3226 C3234 1.574 . S
C3226 C3242 1.368 . S
H3227 C3235 0.950 . S
H3228 C3233 0.950 . S
H3229 C3234 0.949 . S
H3230 C3236 0.950 . S
H3231 C3237 0.950 . S
H3232 C3238 0.949 . S
C3233 H3228 0.950 . S
C3233 C3235 1.327 . S
C3233 C3239 1.429 . S
C3234 C3226 1.574 . S
C3234 H3229 0.949 . S
C3234 C3240 1.368 . S
C3235 C3219 1.349 . S
C3235 H3227 0.950 . S
C3235 C3233 1.327 . S
C3236 C3224 1.349 . S
C3236 H3230 0.950 . S
C3236 C3237 1.327 . S
C3237 H3231 0.950 . S
C3237 C3236 1.327 . S
C3237 C3241 1.429 . S
C3238 C3221 1.574 . S
C3238 H3232 0.949 . S
C3238 C3242 1.368 . S
C3239 C3220 1.429 . S
C3239 C3233 1.429 . S
C3239 C3240 1.523 . S
C3240 C3221 1.368 . S
C3240 C3234 1.368 . S
C3240 C3239 1.523 . S
C3241 C3225 1.429 . S
C3241 C3237 1.429 . S
C3241 C3242 1.523 . S
C3242 C3226 1.368 . S
C3242 C3238 1.368 . S
C3242 C3241 1.523 . S
H3243 C3218 0.950 . S
H3244 C3220 0.950 . S
H3245 C3221 0.949 . S
H3246 C3223 0.950 . S
H3247 C3225 0.950 . S
C3248 C3249 1.349 . S
C3248 C3250 1.327 . S
C3248 H3273 0.950 . S
C3249 C3248 1.349 . S
C3249 C3265 1.349 . S
C3250 C3248 1.327 . S
C3250 C3269 1.429 . S
C3250 H3274 0.950 . S
C3251 C3268 1.574 . S
C3251 C3270 1.368 . S
C3251 H3275 0.949 . S
H3252 C3256 0.949 . S
C3253 C3254 1.349 . S
C3253 C3255 1.327 . S
C3253 H3276 0.950 . S
C3254 C3253 1.349 . S
C3254 C3266 1.349 . S
C3255 C3253 1.327 . S
C3255 C3271 1.429 . S
C3255 H3277 0.950 . S
C3256 H3252 0.949 . S
C3256 C3264 1.574 . S
C3256 C3272 1.368 . S
H3257 C3265 0.950 . S
H3258 C3263 0.950 . S
H3259 C3264 0.949 . S
H3260 C3266 0.950 . S
H3261 C3267 0.950 . S
H3262 C3268 0.949 . S
C3263 H3258 0.950 . S
C3263 C3265 1.327 . S
C3263 C3269 1.429 . S
C3264 C3256 1.574 . S
C3264 H3259 0.949 . S
C3264 C3270 1.368 . S
C3265 C3249 1.349 . S
C3265 H3257 0.950 . S
C3265 C3263 1.327 . S
C3266 C3254 1.349 . S
C3266 H3260 0.950 . S
C3266 C3267 1.327 . S
C3267 H3261 0.950 . S
C3267 C3266 1.327 . S
C3267 C3271 1.429 . S
C3268 C3251 1.574 . S
C3268 H3262 0.949 . S
C3268 C3272 1.368 . S
C3269 C3250 1.429 . S
C3269 C3263 1.429 . S
C3269 C3270 1.523 . S
C3270 C3251 1.368 . S
C3270 C3264 1.368 . S
C3270 C3269 1.523 . S
C3271 C3255 1.429 . S
C3271 C3267 1.429 . S
C3271 C3272 1.523 . S
C3272 C3256 1.368 . S
C3272 C3268 1.368 . S
C3272 C3271 1.523 . S
H3273 C3248 0.950 . S
H3274 C3250 0.950 . S
H3275 C3251 0.949 . S
H3276 C3253 0.950 . S
H3277 C3255 0.950 . S
C3278 C3279 1.349 . S
C3278 C3280 1.327 . S
C3278 H3303 0.950 . S
C3279 C3278 1.349 . S
C3279 C3295 1.349 . S
C3280 C3278 1.327 . S
C3280 C3299 1.429 . S
C3280 H3304 0.950 . S
C3281 C3298 1.574 . S
C3281 C3300 1.368 . S
C3281 H3305 0.949 . S
H3282 C3286 0.949 . S
C3283 C3284 1.349 . S
C3283 C3285 1.327 . S
C3283 H3306 0.950 . S
C3284 C3283 1.349 . S
C3284 C3296 1.349 . S
C3285 C3283 1.327 . S
C3285 C3301 1.429 . S
C3285 H3307 0.950 . S
C3286 H3282 0.949 . S
C3286 C3294 1.574 . S
C3286 C3302 1.368 . S
H3287 C3295 0.950 . S
H3288 C3293 0.950 . S
H3289 C3294 0.949 . S
H3290 C3296 0.950 . S
H3291 C3297 0.950 . S
H3292 C3298 0.949 . S
C3293 H3288 0.950 . S
C3293 C3295 1.327 . S
C3293 C3299 1.429 . S
C3294 C3286 1.574 . S
C3294 H3289 0.949 . S
C3294 C3300 1.368 . S
C3295 C3279 1.349 . S
C3295 H3287 0.950 . S
C3295 C3293 1.327 . S
C3296 C3284 1.349 . S
C3296 H3290 0.950 . S
C3296 C3297 1.327 . S
C3297 H3291 0.950 . S
C3297 C3296 1.327 . S
C3297 C3301 1.429 . S
C3298 C3281 1.574 . S
C3298 H3292 0.949 . S
C3298 C3302 1.368 . S
C3299 C3280 1.429 . S
C3299 C3293 1.429 . S
C3299 C3300 1.523 . S
C3300 C3281 1.368 . S
C3300 C3294 1.368 . S
C3300 C3299 1.523 . S
C3301 C3285 1.429 . S
C3301 C3297 1.429 . S
C3301 C3302 1.523 . S
C3302 C3286 1.368 . S
C3302 C3298 1.368 . S
C3302 C3301 1.523 . S
H3303 C3278 0.950 . S
H3304 C3280 0.950 . S
H3305 C3281 0.949 . S
H3306 C3283 0.950 . S
H3307 C3285 0.950 . S
C3308 C3309 1.349 . S
C3308 C3310 1.327 . S
C3308 H3333 0.950 . S
C3309 C3308 1.349 . S
C3309 C3325 1.349 . S
C3310 C3308 1.327 . S
C3310 C3329 1.429 . S
C3310 H3334 0.950 . S
C3311 C3328 1.574 . S
C3311 C3330 1.368 . S
C3311 H3335 0.949 . S
H3312 C3316 0.949 . S
C3313 C3314 1.349 . S
C3313 C3315 1.327 . S
C3313 H3336 0.950 . S
C3314 C3313 1.349 . S
C3314 C3326 1.349 . S
C3315 C3313 1.327 . S
C3315 C3331 1.429 . S
C3315 H3337 0.950 . S
C3316 H3312 0.949 . S
C3316 C3324 1.574 . S
C3316 C3332 1.368 . S
H3317 C3325 0.950 . S
H3318 C3323 0.950 . S
H3319 C3324 0.949 . S
H3320 C3326 0.950 . S
H3321 C3327 0.950 . S
H3322 C3328 0.949 . S
C3323 H3318 0.950 . S
C3323 C3325 1.327 . S
C3323 C3329 1.429 . S
C3324 C3316 1.574 . S
C3324 H3319 0.949 . S
C3324 C3330 1.368 . S
C3325 C3309 1.349 . S
C3325 H3317 0.950 . S
C3325 C3323 1.327 . S
C3326 C3314 1.349 . S
C3326 H3320 0.950 . S
C3326 C3327 1.327 . S
C3327 H3321 0.950 . S
C3327 C3326 1.327 . S
C3327 C3331 1.429 . S
C3328 C3311 1.574 . S
C3328 H3322 0.949 . S
C3328 C3332 1.368 . S
C3329 C3310 1.429 . S
C3329 C3323 1.429 . S
C3329 C3330 1.523 . S
C3330 C3311 1.368 . S
C3330 C3324 1.368 . S
C3330 C3329 1.523 . S
C3331 C3315 1.429 . S
C3331 C3327 1.429 . S
C3331 C3332 1.523 . S
C3332 C3316 1.368 . S
C3332 C3328 1.368 . S
C3332 C3331 1.523 . S
H3333 C3308 0.950 . S
H3334 C3310 0.950 . S
H3335 C3311 0.949 . S
H3336 C3313 0.950 . S
H3337 C3315 0.950 . S
C3338 C3339 1.349 . S
C3338 C3340 1.327 . S
C3338 H3363 0.950 . S
C3339 C3338 1.349 . S
C3339 C3355 1.349 . S
C3340 C3338 1.327 . S
C3340 C3359 1.429 . S
C3340 H3364 0.950 . S
C3341 C3358 1.574 . S
C3341 C3360 1.368 . S
C3341 H3365 0.949 . S
H3342 C3346 0.949 . S
C3343 C3344 1.349 . S
C3343 C3345 1.327 . S
C3343 H3366 0.950 . S
C3344 C3343 1.349 . S
C3344 C3356 1.349 . S
C3345 C3343 1.327 . S
C3345 C3361 1.429 . S
C3345 H3367 0.950 . S
C3346 H3342 0.949 . S
C3346 C3354 1.574 . S
C3346 C3362 1.368 . S
H3347 C3355 0.950 . S
H3348 C3353 0.950 . S
H3349 C3354 0.949 . S
H3350 C3356 0.950 . S
H3351 C3357 0.950 . S
H3352 C3358 0.949 . S
C3353 H3348 0.950 . S
C3353 C3355 1.327 . S
C3353 C3359 1.429 . S
C3354 C3346 1.574 . S
C3354 H3349 0.949 . S
C3354 C3360 1.368 . S
C3355 C3339 1.349 . S
C3355 H3347 0.950 . S
C3355 C3353 1.327 . S
C3356 C3344 1.349 . S
C3356 H3350 0.950 . S
C3356 C3357 1.327 . S
C3357 H3351 0.950 . S
C3357 C3356 1.327 . S
C3357 C3361 1.429 . S
C3358 C3341 1.574 . S
C3358 H3352 0.949 . S
C3358 C3362 1.368 . S
C3359 C3340 1.429 . S
C3359 C3353 1.429 . S
C3359 C3360 1.523 . S
C3360 C3341 1.368 . S
C3360 C3354 1.368 . S
C3360 C3359 1.523 . S
C3361 C3345 1.429 . S
C3361 C3357 1.429 . S
C3361 C3362 1.523 . S
C3362 C3346 1.368 . S
C3362 C3358 1.368 . S
C3362 C3361 1.523 . S
H3363 C3338 0.950 . S
H3364 C3340 0.950 . S
H3365 C3341 0.949 . S
H3366 C3343 0.950 . S
H3367 C3345 0.950 . S
C3368 C3369 1.349 . S
C3368 C3370 1.327 . S
C3368 H3393 0.950 . S
C3369 C3368 1.349 . S
C3369 C3385 1.349 . S
C3370 C3368 1.327 . S
C3370 C3389 1.429 . S
C3370 H3394 0.950 . S
C3371 C3388 1.574 . S
C3371 C3390 1.368 . S
C3371 H3395 0.949 . S
H3372 C3376 0.949 . S
C3373 C3374 1.349 . S
C3373 C3375 1.327 . S
C3373 H3396 0.950 . S
C3374 C3373 1.349 . S
C3374 C3386 1.349 . S
C3375 C3373 1.327 . S
C3375 C3391 1.429 . S
C3375 H3397 0.950 . S
C3376 H3372 0.949 . S
C3376 C3384 1.574 . S
C3376 C3392 1.368 . S
H3377 C3385 0.950 . S
H3378 C3383 0.950 . S
H3379 C3384 0.949 . S
H3380 C3386 0.950 . S
H3381 C3387 0.950 . S
H3382 C3388 0.949 . S
C3383 H3378 0.950 . S
C3383 C3385 1.327 . S
C3383 C3389 1.429 . S
C3384 C3376 1.574 . S
C3384 H3379 0.949 . S
C3384 C3390 1.368 . S
C3385 C3369 1.349 . S
C3385 H3377 0.950 . S
C3385 C3383 1.327 . S
C3386 C3374 1.349 . S
C3386 H3380 0.950 . S
C3386 C3387 1.327 . S
C3387 H3381 0.950 . S
C3387 C3386 1.327 . S
C3387 C3391 1.429 . S
C3388 C3371 1.574 . S
C3388 H3382 0.949 . S
C3388 C3392 1.368 . S
C3389 C3370 1.429 . S
C3389 C3383 1.429 . S
C3389 C3390 1.523 . S
C3390 C3371 1.368 . S
C3390 C3384 1.368 . S
C3390 C3389 1.523 . S
C3391 C3375 1.429 . S
C3391 C3387 1.429 . S
C3391 C3392 1.523 . S
C3392 C3376 1.368 . S
C3392 C3388 1.368 . S
C3392 C3391 1.523 . S
H3393 C3368 0.950 . S
H3394 C3370 0.950 . S
H3395 C3371 0.949 . S
H3396 C3373 0.950 . S
H3397 C3375 0.950 . S
C3398 C3399 1.349 . S
C3398 C3400 1.327 . S
C3398 H3423 0.950 . S
C3399 C3398 1.349 . S
C3399 C3415 1.349 . S
C3400 C3398 1.327 . S
C3400 C3419 1.429 . S
C3400 H3424 0.950 . S
C3401 C3418 1.574 . S
C3401 C3420 1.368 . S
C3401 H3425 0.949 . S
H3402 C3406 0.949 . S
C3403 C3404 1.349 . S
C3403 C3405 1.327 . S
C3403 H3426 0.950 . S
C3404 C3403 1.349 . S
C3404 C3416 1.349 . S
C3405 C3403 1.327 . S
C3405 C3421 1.429 . S
C3405 H3427 0.950 . S
C3406 H3402 0.949 . S
C3406 C3414 1.574 . S
C3406 C3422 1.368 . S
H3407 C3415 0.950 . S
H3408 C3413 0.950 . S
H3409 C3414 0.949 . S
H3410 C3416 0.950 . S
H3411 C3417 0.950 . S
H3412 C3418 0.949 . S
C3413 H3408 0.950 . S
C3413 C3415 1.327 . S
C3413 C3419 1.429 . S
C3414 C3406 1.574 . S
C3414 H3409 0.949 . S
C3414 C3420 1.368 . S
C3415 C3399 1.349 . S
C3415 H3407 0.950 . S
C3415 C3413 1.327 . S
C3416 C3404 1.349 . S
C3416 H3410 0.950 . S
C3416 C3417 1.327 . S
C3417 H3411 0.950 . S
C3417 C3416 1.327 . S
C3417 C3421 1.429 . S
C3418 C3401 1.574 . S
C3418 H3412 0.949 . S
C3418 C3422 1.368 . S
C3419 C3400 1.429 . S
C3419 C3413 1.429 . S
C3419 C3420 1.523 . S
C3420 C3401 1.368 . S
C3420 C3414 1.368 . S
C3420 C3419 1.523 . S
C3421 C3405 1.429 . S
C3421 C3417 1.429 . S
C3421 C3422 1.523 . S
C3422 C3406 1.368 . S
C3422 C3418 1.368 . S
C3422 C3421 1.523 . S
H3423 C3398 0.950 . S
H3424 C3400 0.950 . S
H3425 C3401 0.949 . S
H3426 C3403 0.950 . S
H3427 C3405 0.950 . S
C3428 C3429 1.349 . S
C3428 C3430 1.327 . S
C3428 H3453 0.950 . S
C3429 C3428 1.349 . S
C3429 C3445 1.349 . S
C3430 C3428 1.327 . S
C3430 C3449 1.429 . S
C3430 H3454 0.950 . S
C3431 C3448 1.574 . S
C3431 C3450 1.368 . S
C3431 H3455 0.949 . S
H3432 C3436 0.949 . S
C3433 C3434 1.349 . S
C3433 C3435 1.327 . S
C3433 H3456 0.950 . S
C3434 C3433 1.349 . S
C3434 C3446 1.349 . S
C3435 C3433 1.327 . S
C3435 C3451 1.429 . S
C3435 H3457 0.950 . S
C3436 H3432 0.949 . S
C3436 C3444 1.574 . S
C3436 C3452 1.368 . S
H3437 C3445 0.950 . S
H3438 C3443 0.950 . S
H3439 C3444 0.949 . S
H3440 C3446 0.950 . S
H3441 C3447 0.950 . S
H3442 C3448 0.949 . S
C3443 H3438 0.950 . S
C3443 C3445 1.327 . S
C3443 C3449 1.429 . S
C3444 C3436 1.574 . S
C3444 H3439 0.949 . S
C3444 C3450 1.368 . S
C3445 C3429 1.349 . S
C3445 H3437 0.950 . S
C3445 C3443 1.327 . S
C3446 C3434 1.349 . S
C3446 H3440 0.950 . S
C3446 C3447 1.327 . S
C3447 H3441 0.950 . S
C3447 C3446 1.327 . S
C3447 C3451 1.429 . S
C3448 C3431 1.574 . S
C3448 H3442 0.949 . S
C3448 C3452 1.368 . S
C3449 C3430 1.429 . S
C3449 C3443 1.429 . S
C3449 C3450 1.523 . S
C3450 C3431 1.368 . S
C3450 C3444 1.368 . S
C3450 C3449 1.523 . S
C3451 C3435 1.429 . S
C3451 C3447 1.429 . S
C3451 C3452 1.523 . S
C3452 C3436 1.368 . S
C3452 C3448 1.368 . S
C3452 C3451 1.523 . S
H3453 C3428 0.950 . S
H3454 C3430 0.950 . S
H3455 C3431 0.949 . S
H3456 C3433 0.950 . S
H3457 C3435 0.950 . S
C3458 C3459 1.349 . S
C3458 C3460 1.327 . S
C3458 H3483 0.950 . S
C3459 C3458 1.349 . S
C3459 C3475 1.349 . S
C3460 C3458 1.327 . S
C3460 C3479 1.429 . S
C3460 H3484 0.950 . S
C3461 C3478 1.574 . S
C3461 C3480 1.368 . S
C3461 H3485 0.949 . S
H3462 C3466 0.949 . S
C3463 C3464 1.349 . S
C3463 C3465 1.327 . S
C3463 H3486 0.950 . S
C3464 C3463 1.349 . S
C3464 C3476 1.349 . S
C3465 C3463 1.327 . S
C3465 C3481 1.429 . S
C3465 H3487 0.950 . S
C3466 H3462 0.949 . S
C3466 C3474 1.574 . S
C3466 C3482 1.368 . S
H3467 C3475 0.950 . S
H3468 C3473 0.950 . S
H3469 C3474 0.949 . S
H3470 C3476 0.950 . S
H3471 C3477 0.950 . S
H3472 C3478 0.949 . S
C3473 H3468 0.950 . S
C3473 C3475 1.327 . S
C3473 C3479 1.429 . S
C3474 C3466 1.574 . S
C3474 H3469 0.949 . S
C3474 C3480 1.368 . S
C3475 C3459 1.349 . S
C3475 H3467 0.950 . S
C3475 C3473 1.327 . S
C3476 C3464 1.349 . S
C3476 H3470 0.950 . S
C3476 C3477 1.327 . S
C3477 H3471 0.950 . S
C3477 C3476 1.327 . S
C3477 C3481 1.429 . S
C3478 C3461 1.574 . S
C3478 H3472 0.949 . S
C3478 C3482 1.368 . S
C3479 C3460 1.429 . S
C3479 C3473 1.429 . S
C3479 C3480 1.523 . S
C3480 C3461 1.368 . S
C3480 C3474 1.368 . S
C3480 C3479 1.523 . S
C3481 C3465 1.429 . S
C3481 C3477 1.429 . S
C3481 C3482 1.523 . S
C3482 C3466 1.368 . S
C3482 C3478 1.368 . S
C3482 C3481 1.523 . S
H3483 C3458 0.950 . S
H3484 C3460 0.950 . S
H3485 C3461 0.949 . S
H3486 C3463 0.950 . S
H3487 C3465 0.950 . S
C1089 C20 1.129 . S
C1094 C836 1.129 . S
C1119 C326 1.129 . S
C1124 C54 1.129 . S
C1149 C904 1.129 . S
C1154 C88 1.129 . S
C1179 C394 1.129 . S
C1184 C122 1.129 . S
C1209 C972 1.129 . S
C1214 C156 1.129 . S
C1239 C462 1.129 . S
C1244 C190 1.129 . S
C1269 C1040 1.129 . S
C1274 C224 1.129 . S
C1299 C530 1.129 . S
C1304 C258 1.129 . S
C1329 C292 1.129 . S
C1334 C564 1.129 . S
C1359 C360 1.129 . S
C1364 C632 1.129 . S
C1389 C428 1.129 . S
C1394 C700 1.129 . S
C1419 C768 1.129 . S
C1424 C496 1.129 . S
C1449 C598 1.129 . S
C1454 C870 1.129 . S
C1479 C938 1.129 . S
C1484 C666 1.129 . S
C1509 C734 1.129 . S
C1514 C1006 1.129 . S
C1539 C1074 1.129 . S
C1544 C802 1.129 . S
C1569 C5 1.673 . S
C1574 C407 1.677 . S
C1599 C39 1.673 . S
C1604 C849 1.678 . S
C1629 C339 1.677 . S
C1634 C73 1.673 . S
C1659 C107 1.673 . S
C1664 C917 1.678 . S
C1689 C475 1.677 . S
C1694 C141 1.673 . S
C1719 C1053 1.678 . S
C1724 C175 1.673 . S
C1749 C209 1.673 . S
C1754 C543 1.677 . S
C1779 C985 1.678 . S
C1784 C243 1.673 . S
C1809 C277 1.673 . S
C1814 C135 1.677 . S
C1839 C311 1.673 . S
C1844 C577 1.678 . S
C1869 C67 1.677 . S
C1874 C345 1.673 . S
C1899 C379 1.673 . S
C1904 C645 1.678 . S
C1929 C413 1.673 . S
C1934 C203 1.677 . S
C1959 C781 1.678 . S
C1964 C447 1.673 . S
C1989 C271 1.677 . S
C1994 C481 1.673 . S
C2019 C515 1.673 . S
C2024 C713 1.678 . S
C2049 C951 1.677 . S
C2054 C549 1.673 . S
C2079 C305 1.678 . S
C2084 C583 1.673 . S
C2109 C883 1.678 . S
C2114 C617 1.673 . S
C2139 C651 1.673 . S
C2144 C373 1.678 . S
C2169 C1019 1.677 . S
C2174 C685 1.673 . S
C2199 C509 1.678 . S
C2204 C719 1.673 . S
C2229 C753 1.673 . S
C2234 C1087 1.678 . S
C2259 C441 1.678 . S
C2264 C787 1.673 . S
C2289 C679 1.677 . S
C2294 C821 1.673 . S
C2319 C855 1.673 . S
C2324 C33 1.678 . S
C2349 C889 1.673 . S
C2354 C611 1.678 . S
C2379 C101 1.678 . S
C2384 C923 1.673 . S
C2409 C747 1.677 . S
C2414 C957 1.673 . S
C2439 C991 1.673 . S
C2444 C237 1.678 . S
C2469 C815 1.678 . S
C2474 C1025 1.673 . S
C2499 C169 1.678 . S
C2504 C1059 1.673 . S
C2529 C2 1.879 . S
C2534 C206 1.879 . S
C2559 C240 1.879 . S
C2564 C36 1.879 . S
C2589 C70 1.879 . S
C2594 C138 1.879 . S
C2619 C104 1.879 . S
C2624 C172 1.879 . S
C2649 C478 1.879 . S
C2654 C274 1.879 . S
C2679 C512 1.879 . S
C2684 C308 1.879 . S
C2709 C410 1.879 . S
C2714 C342 1.879 . S
C2739 C444 1.879 . S
C2744 C376 1.879 . S
C2769 C546 1.879 . S
C2774 C750 1.879 . S
C2799 C580 1.879 . S
C2804 C784 1.879 . S
C2829 C614 1.879 . S
C2834 C682 1.879 . S
C2859 C648 1.879 . S
C2864 C716 1.879 . S
C2889 C1022 1.879 . S
C2894 C818 1.879 . S
C2919 C1056 1.879 . S
C2924 C852 1.879 . S
C2949 C886 1.879 . S
C2954 C954 1.879 . S
C2979 C920 1.879 . S
C2984 C988 1.879 . S
C3009 C9 1.171 . S
C3014 C723 1.171 . S
C3039 C43 1.171 . S
C3044 C757 1.171 . S
C3069 C77 1.171 . S
C3074 C791 1.171 . S
C3099 C111 1.171 . S
C3104 C689 1.171 . S
C3129 C655 1.171 . S
C3134 C145 1.171 . S
C3159 C179 1.171 . S
C3164 C553 1.171 . S
C3189 C587 1.171 . S
C3194 C213 1.171 . S
C3219 C247 1.171 . S
C3224 C621 1.171 . S
C3249 C995 1.171 . S
C3254 C281 1.171 . S
C3279 C315 1.171 . S
C3284 C1029 1.171 . S
C3309 C1063 1.171 . S
C3314 C349 1.171 . S
C3339 C383 1.171 . S
C3344 C961 1.171 . S
C3369 C417 1.171 . S
C3374 C927 1.171 . S
C3399 C825 1.171 . S
C3404 C451 1.171 . S
C3429 C485 1.171 . S
C3434 C859 1.171 . S
C3459 C519 1.171 . S
C3464 C893 1.171 . S
