# Generated by pormake.
# Topology gis, (4)-cn, num edge types: 1
# Building blocks:
#     Node 0, Type 0, BuildingBlock: QUQFOY_clean_sbu_1, # of connection points: 4
#     Node 1, Type 0, BuildingBlock: QUQFOY_clean_sbu_1, # of connection points: 4
#     Node 2, Type 0, BuildingBlock: QUQFOY_clean_sbu_1, # of connection points: 4
#     Node 3, Type 0, BuildingBlock: QUQFOY_clean_sbu_1, # of connection points: 4
#     Node 4, Type 0, BuildingBlock: QUQFOY_clean_sbu_1, # of connection points: 4
#     Node 5, Type 0, BuildingBlock: QUQFOY_clean_sbu_1, # of connection points: 4
#     Node 6, Type 0, BuildingBlock: QUQFOY_clean_sbu_1, # of connection points: 4
#     Node 7, Type 0, BuildingBlock: QUQFOY_clean_sbu_1, # of connection points: 4
#     Node 8, Type 0, BuildingBlock: QUQFOY_clean_sbu_1, # of connection points: 4
#     Node 9, Type 0, BuildingBlock: QUQFOY_clean_sbu_1, # of connection points: 4
#     Node 10, Type 0, BuildingBlock: QUQFOY_clean_sbu_1, # of connection points: 4
#     Node 11, Type 0, BuildingBlock: QUQFOY_clean_sbu_1, # of connection points: 4
#     Node 12, Type 0, BuildingBlock: QUQFOY_clean_sbu_1, # of connection points: 4
#     Node 13, Type 0, BuildingBlock: QUQFOY_clean_sbu_1, # of connection points: 4
#     Node 14, Type 0, BuildingBlock: QUQFOY_clean_sbu_1, # of connection points: 4
#     Node 15, Type 0, BuildingBlock: QUQFOY_clean_sbu_1, # of connection points: 4
#     Edge 16, Type (0, 0), BuildingBlock: CIFDUS_clean_linker_0, # of connection points: 2
#     Edge 17, Type (0, 0), BuildingBlock: CIFDUS_clean_linker_0, # of connection points: 2
#     Edge 18, Type (0, 0), BuildingBlock: CIFDUS_clean_linker_0, # of connection points: 2
#     Edge 19, Type (0, 0), BuildingBlock: CIFDUS_clean_linker_0, # of connection points: 2
#     Edge 20, Type (0, 0), BuildingBlock: CIFDUS_clean_linker_0, # of connection points: 2
#     Edge 21, Type (0, 0), BuildingBlock: CIFDUS_clean_linker_0, # of connection points: 2
#     Edge 22, Type (0, 0), BuildingBlock: CIFDUS_clean_linker_0, # of connection points: 2
#     Edge 23, Type (0, 0), BuildingBlock: CIFDUS_clean_linker_0, # of connection points: 2
#     Edge 24, Type (0, 0), BuildingBlock: CIFDUS_clean_linker_0, # of connection points: 2
#     Edge 25, Type (0, 0), BuildingBlock: CIFDUS_clean_linker_0, # of connection points: 2
#     Edge 26, Type (0, 0), BuildingBlock: CIFDUS_clean_linker_0, # of connection points: 2
#     Edge 27, Type (0, 0), BuildingBlock: CIFDUS_clean_linker_0, # of connection points: 2
#     Edge 28, Type (0, 0), BuildingBlock: CIFDUS_clean_linker_0, # of connection points: 2
#     Edge 29, Type (0, 0), BuildingBlock: CIFDUS_clean_linker_0, # of connection points: 2
#     Edge 30, Type (0, 0), BuildingBlock: CIFDUS_clean_linker_0, # of connection points: 2
#     Edge 31, Type (0, 0), BuildingBlock: CIFDUS_clean_linker_0, # of connection points: 2
#     Edge 32, Type (0, 0), BuildingBlock: CIFDUS_clean_linker_0, # of connection points: 2
#     Edge 33, Type (0, 0), BuildingBlock: CIFDUS_clean_linker_0, # of connection points: 2
#     Edge 34, Type (0, 0), BuildingBlock: CIFDUS_clean_linker_0, # of connection points: 2
#     Edge 35, Type (0, 0), BuildingBlock: CIFDUS_clean_linker_0, # of connection points: 2
#     Edge 36, Type (0, 0), BuildingBlock: CIFDUS_clean_linker_0, # of connection points: 2
#     Edge 37, Type (0, 0), BuildingBlock: CIFDUS_clean_linker_0, # of connection points: 2
#     Edge 38, Type (0, 0), BuildingBlock: CIFDUS_clean_linker_0, # of connection points: 2
#     Edge 39, Type (0, 0), BuildingBlock: CIFDUS_clean_linker_0, # of connection points: 2
#     Edge 40, Type (0, 0), BuildingBlock: CIFDUS_clean_linker_0, # of connection points: 2
#     Edge 41, Type (0, 0), BuildingBlock: CIFDUS_clean_linker_0, # of connection points: 2
#     Edge 42, Type (0, 0), BuildingBlock: CIFDUS_clean_linker_0, # of connection points: 2
#     Edge 43, Type (0, 0), BuildingBlock: CIFDUS_clean_linker_0, # of connection points: 2
#     Edge 44, Type (0, 0), BuildingBlock: CIFDUS_clean_linker_0, # of connection points: 2
#     Edge 45, Type (0, 0), BuildingBlock: CIFDUS_clean_linker_0, # of connection points: 2
#     Edge 46, Type (0, 0), BuildingBlock: CIFDUS_clean_linker_0, # of connection points: 2
#     Edge 47, Type (0, 0), BuildingBlock: CIFDUS_clean_linker_0, # of connection points: 2
# Relax obj value: 0.009
# Max RMSD: 0.056
# Mean RMSD: 0.056
data_MOF--net-gis--node1-QUQFOY_clean_sbu_1--edge1-CIFDUS_clean_linker_0
_symmetry_space_group_name_H-M    P1
_symmetry_Int_Tables_number       1
_symmetry_cell_setting            triclinic
loop_
_symmetry_equiv_pos_as_xyz
'x, y, z'
_cell_length_a     47.024233
_cell_length_b     47.020827
_cell_length_c     36.399732
_cell_angle_alpha  89.964963
_cell_angle_beta   89.925818
_cell_angle_gamma 89.996849
loop_
_atom_site_label
_atom_site_type_symbol
_atom_site_fract_x
_atom_site_fract_y
_atom_site_fract_z
_atom_type_partial_charge
O0 O 0.15785 0.66208 0.17684 0.0
Cd1 Cd 0.15252 0.61937 0.18618 0.0
Cd2 Cd 0.14633 0.61995 0.11296 0.0
O3 O 0.16387 0.66058 0.11673 0.0
O4 O 0.17296 0.61053 0.23333 0.0
O5 O 0.18783 0.59652 0.17863 0.0
C6 C 0.19235 0.59862 0.21342 0.0
C7 C 0.16392 0.58095 0.08051 0.0
C8 C 0.16417 0.67443 0.14683 0.0
C9 C 0.09437 0.60765 0.15843 0.0
O10 O 0.10429 0.6159 0.12767 0.0
O11 O 0.11083 0.60452 0.18595 0.0
O12 O 0.15173 0.60172 0.06341 0.0
O13 O 0.1678 0.58346 0.11539 0.0
O14 O 0.65879 0.86121 0.37282 0.0
Cd15 Cd 0.6514 0.90262 0.35643 0.0
Cd16 Cd 0.64619 0.91009 0.42898 0.0
O17 O 0.66211 0.86889 0.43242 0.0
O18 O 0.66738 0.9059 0.30564 0.0
O19 O 0.68569 0.9282 0.35358 0.0
C20 C 0.68709 0.92188 0.31909 0.0
C21 C 0.66516 0.94938 0.45968 0.0
C22 C 0.66375 0.85207 0.40509 0.0
C23 C 0.59331 0.91752 0.38332 0.0
O24 O 0.6038 0.91427 0.41524 0.0
O25 O 0.60923 0.91585 0.35509 0.0
O26 O 0.65142 0.92985 0.47721 0.0
O27 O 0.6696 0.94571 0.42496 0.0
O28 O 0.37147 0.35948 0.66895 0.0
Cd29 Cd 0.37734 0.40095 0.68523 0.0
Cd30 Cd 0.38403 0.40846 0.61244 0.0
O31 O 0.36716 0.36763 0.60946 0.0
O32 O 0.35515 0.40731 0.73185 0.0
O33 O 0.34304 0.4252 0.67789 0.0
C34 C 0.33706 0.42122 0.71207 0.0
C35 C 0.36649 0.4485 0.58205 0.0
C36 C 0.36595 0.35064 0.6367 0.0
C37 C 0.43569 0.41633 0.6602 0.0
O38 O 0.4259 0.41205 0.62811 0.0
O39 O 0.41919 0.41546 0.688 0.0
O40 O 0.37976 0.42882 0.56419 0.0
O41 O 0.36179 0.44454 0.61654 0.0
O42 O 0.92121 0.11443 0.91838 0.0
Cd43 Cd 0.87876 0.11979 0.93126 0.0
Cd44 Cd 0.87408 0.11753 0.85856 0.0
O45 O 0.91576 0.10338 0.85997 0.0
O46 O 0.8743 0.10724 0.98345 0.0
O47 O 0.85586 0.0838 0.93647 0.0
C48 C 0.86074 0.0853 0.97136 0.0
C49 C 0.83804 0.09627 0.82418 0.0
C50 C 0.93172 0.10635 0.8879 0.0
C51 C 0.86232 0.17388 0.89498 0.0
O52 O 0.86814 0.16058 0.86552 0.0
O53 O 0.86264 0.16082 0.92564 0.0
O54 O 0.85889 0.10935 0.80854 0.0
O55 O 0.83862 0.09355 0.85951 0.0
O56 O 0.15573 0.36218 0.85677 0.0
Cd57 Cd 0.15055 0.40471 0.84626 0.0
Cd58 Cd 0.14492 0.40568 0.91984 0.0
O59 O 0.16243 0.36495 0.91668 0.0
O60 O 0.1719 0.41326 0.79952 0.0
O61 O 0.18583 0.42732 0.85457 0.0
C62 C 0.19103 0.42504 0.81995 0.0
C63 C 0.16269 0.44471 0.9522 0.0
C64 C 0.16241 0.35048 0.88706 0.0
C65 C 0.09262 0.4173 0.87452 0.0
O66 O 0.1028 0.40977 0.90542 0.0
O67 O 0.10883 0.41969 0.84657 0.0
O68 O 0.15038 0.42403 0.96937 0.0
O69 O 0.1665 0.44216 0.91731 0.0
O70 O 0.87005 0.86325 0.18596 0.0
Cd71 Cd 0.87592 0.90616 0.19407 0.0
Cd72 Cd 0.88046 0.90537 0.12111 0.0
O73 O 0.86451 0.86417 0.12587 0.0
O74 O 0.85986 0.914 0.24386 0.0
O75 O 0.84035 0.92997 0.19253 0.0
C76 C 0.83916 0.92702 0.22781 0.0
C77 C 0.86223 0.93981 0.08106 0.0
C78 C 0.86419 0.85053 0.1561 0.0
C79 C 0.93354 0.91824 0.16473 0.0
O80 O 0.9229 0.91097 0.13401 0.0
O81 O 0.91771 0.92032 0.193 0.0
O82 O 0.87614 0.91809 0.06896 0.0
O83 O 0.85721 0.94118 0.11593 0.0
O84 O 0.42385 0.62195 0.41117 0.0
Cd85 Cd 0.38198 0.62613 0.42649 0.0
Cd86 Cd 0.37493 0.62606 0.35283 0.0
O87 O 0.41677 0.61148 0.35273 0.0
O88 O 0.37676 0.60737 0.47576 0.0
O89 O 0.36022 0.58996 0.42354 0.0
C90 C 0.36425 0.58696 0.45832 0.0
C91 C 0.33556 0.60415 0.32579 0.0
C92 C 0.43345 0.61406 0.38011 0.0
C93 C 0.36321 0.68069 0.39358 0.0
O94 O 0.36888 0.66865 0.36314 0.0
O95 O 0.3644 0.66664 0.42348 0.0
O96 O 0.35439 0.61684 0.30576 0.0
O97 O 0.34026 0.6023 0.36055 0.0
O98 O 0.66051 0.16648 0.68261 0.0
Cd99 Cd 0.65304 0.124 0.69327 0.0
Cd100 Cd 0.64777 0.12367 0.62015 0.0
O101 O 0.66442 0.16464 0.62229 0.0
O102 O 0.66747 0.1177 0.74432 0.0
O103 O 0.68739 0.09846 0.69525 0.0
C104 C 0.6877 0.10269 0.73029 0.0
C105 C 0.66691 0.08495 0.58863 0.0
C106 C 0.66582 0.17867 0.65215 0.0
C107 C 0.59492 0.11249 0.66421 0.0
O108 O 0.60528 0.11931 0.63312 0.0
O109 O 0.61099 0.11065 0.69221 0.0
O110 O 0.65416 0.10523 0.57122 0.0
O111 O 0.67049 0.08777 0.62364 0.0
O112 O 0.86465 0.35346 0.88097 0.0
Cd113 Cd 0.86917 0.39597 0.86788 0.0
Cd114 Cd 0.86989 0.40127 0.94099 0.0
O115 O 0.85672 0.3591 0.94027 0.0
O116 O 0.8511 0.40245 0.81877 0.0
O117 O 0.83345 0.41908 0.87094 0.0
C118 C 0.83093 0.41559 0.83589 0.0
C119 C 0.84913 0.4366 0.97754 0.0
C120 C 0.85829 0.34304 0.91219 0.0
C121 C 0.92434 0.41391 0.89948 0.0
O122 O 0.91229 0.40863 0.93003 0.0
O123 O 0.91021 0.41244 0.86973 0.0
O124 O 0.86383 0.41627 0.99186 0.0
O125 O 0.84468 0.43589 0.94256 0.0
O126 O 0.36544 0.16968 0.67842 0.0
Cd127 Cd 0.37165 0.12696 0.68748 0.0
Cd128 Cd 0.36939 0.1273 0.61397 0.0
O129 O 0.35396 0.16849 0.61964 0.0
O130 O 0.35936 0.11992 0.73958 0.0
O131 O 0.33572 0.10416 0.69126 0.0
C132 C 0.33717 0.10743 0.72637 0.0
C133 C 0.34712 0.08796 0.58797 0.0
C134 C 0.35679 0.18224 0.64956 0.0
C135 C 0.42581 0.11421 0.64835 0.0
O136 O 0.41253 0.12237 0.6198 0.0
O137 O 0.41271 0.11164 0.67886 0.0
O138 O 0.35762 0.10777 0.56737 0.0
O139 O 0.34731 0.09184 0.62305 0.0
O140 O 0.66271 0.66959 0.36572 0.0
Cd141 Cd 0.65679 0.62652 0.35872 0.0
Cd142 Cd 0.65851 0.6282 0.4317 0.0
O143 O 0.67304 0.66974 0.42481 0.0
O144 O 0.66893 0.61854 0.30711 0.0
O145 O 0.69252 0.60311 0.35575 0.0
C146 C 0.69092 0.60582 0.32049 0.0
C147 C 0.67996 0.59237 0.46657 0.0
C148 C 0.67059 0.68289 0.39437 0.0
C149 C 0.60236 0.61395 0.39645 0.0
O150 O 0.61544 0.62217 0.42509 0.0
O151 O 0.61565 0.61148 0.36612 0.0
O152 O 0.66775 0.61385 0.48207 0.0
O153 O 0.68191 0.59239 0.43115 0.0
O154 O 0.11435 0.90773 0.1108 0.0
Cd155 Cd 0.15689 0.90146 0.10074 0.0
Cd156 Cd 0.15695 0.89475 0.1746 0.0
O157 O 0.11601 0.91182 0.17118 0.0
O158 O 0.16625 0.92204 0.05378 0.0
O159 O 0.18125 0.93565 0.10853 0.0
C160 C 0.1793 0.94057 0.07381 0.0
C161 C 0.1955 0.91285 0.20777 0.0
C162 C 0.10208 0.91309 0.14118 0.0
C163 C 0.16867 0.84302 0.1278 0.0
O164 O 0.16159 0.85284 0.1591 0.0
O165 O 0.17077 0.85953 0.10016 0.0
O166 O 0.17495 0.89991 0.22446 0.0
O167 O 0.19307 0.91701 0.17293 0.0
O168 O 0.86582 0.67093 0.16336 0.0
Cd169 Cd 0.87149 0.62832 0.17519 0.0
Cd170 Cd 0.86976 0.62445 0.10241 0.0
O171 O 0.85602 0.66636 0.10444 0.0
O172 O 0.8587 0.62284 0.22706 0.0
O173 O 0.836 0.60465 0.17931 0.0
C174 C 0.83722 0.60889 0.21435 0.0
C175 C 0.84789 0.58842 0.06851 0.0
C176 C 0.85837 0.68191 0.1329 0.0
C177 C 0.92573 0.61198 0.13933 0.0
O178 O 0.91269 0.61789 0.10972 0.0
O179 O 0.91251 0.61245 0.16985 0.0
O180 O 0.86118 0.609 0.05254 0.0
O181 O 0.84532 0.58932 0.10384 0.0
O182 O 0.1604 0.17205 0.88202 0.0
Cd183 Cd 0.15439 0.12989 0.86833 0.0
Cd184 Cd 0.15681 0.12503 0.9414 0.0
O185 O 0.17154 0.16659 0.9405 0.0
O186 O 0.16717 0.12524 0.81596 0.0
O187 O 0.19009 0.1069 0.86335 0.0
C188 C 0.18889 0.11153 0.82849 0.0
C189 C 0.17957 0.08512 0.96507 0.0
C190 C 0.16869 0.1825 0.91243 0.0
C191 C 0.10048 0.11357 0.90596 0.0
O192 O 0.11373 0.11977 0.93531 0.0
O193 O 0.11351 0.11358 0.87524 0.0
O194 O 0.16845 0.10383 0.98674 0.0
O195 O 0.17963 0.09037 0.93029 0.0
O196 O 0.61618 0.4125 0.60853 0.0
Cd197 Cd 0.65855 0.40524 0.59727 0.0
Cd198 Cd 0.65953 0.40047 0.67045 0.0
O199 O 0.61843 0.41675 0.6688 0.0
O200 O 0.66429 0.42022 0.54625 0.0
O201 O 0.68342 0.44021 0.59526 0.0
C202 C 0.67875 0.44081 0.56031 0.0
C203 C 0.69789 0.41934 0.70284 0.0
C204 C 0.60421 0.41792 0.6391 0.0
C205 C 0.67018 0.34717 0.6269 0.0
O206 O 0.66388 0.35797 0.6579 0.0
O207 O 0.67174 0.36292 0.59847 0.0
O208 O 0.6774 0.40649 0.7197 0.0
O209 O 0.69553 0.42322 0.66782 0.0
O210 O 0.36524 0.85892 0.38624 0.0
Cd211 Cd 0.36943 0.90091 0.37152 0.0
Cd212 Cd 0.36977 0.907 0.44486 0.0
O213 O 0.35573 0.86504 0.44514 0.0
O214 O 0.35147 0.90555 0.32173 0.0
O215 O 0.33293 0.92265 0.37303 0.0
C216 C 0.33058 0.91802 0.33826 0.0
C217 C 0.34792 0.94601 0.47284 0.0
C218 C 0.35801 0.84878 0.41729 0.0
C219 C 0.42452 0.9186 0.4042 0.0
O220 O 0.41236 0.91309 0.43462 0.0
O221 O 0.41043 0.91774 0.37431 0.0
O222 O 0.36089 0.92704 0.49228 0.0
O223 O 0.34565 0.94162 0.43801 0.0
H224 H 0.17714 0.80461 0.18196 0.0
H225 H 0.16861 0.81137 0.0643 0.0
H226 H 0.16877 0.75941 0.05909 0.0
H227 H 0.16702 0.71197 0.08894 0.0
H228 H 0.17513 0.70665 0.20697 0.0
H229 H 0.17958 0.75801 0.21086 0.0
C230 C 0.17555 0.79478 0.15508 0.0
C231 C 0.17253 0.81188 0.12364 0.0
C232 C 0.1754 0.76505 0.15235 0.0
C233 C 0.17092 0.79872 0.089 0.0
C234 C 0.17087 0.76899 0.08602 0.0
C235 C 0.17015 0.72204 0.11542 0.0
C236 C 0.17034 0.70538 0.14763 0.0
C237 C 0.17246 0.7519 0.11763 0.0
C238 C 0.17451 0.71885 0.18173 0.0
C239 C 0.17708 0.7483 0.18405 0.0
H240 H 0.46183 0.91706 0.34604 0.0
H241 H 0.45732 0.93231 0.4629 0.0
H242 H 0.50886 0.93536 0.46605 0.0
H243 H 0.55531 0.92982 0.4371 0.0
H244 H 0.56101 0.91393 0.3206 0.0
H245 H 0.5091 0.91531 0.31586 0.0
C246 C 0.47212 0.92148 0.37206 0.0
C247 C 0.45562 0.92415 0.40423 0.0
C248 C 0.50206 0.92287 0.37387 0.0
C249 C 0.46939 0.92985 0.43773 0.0
C250 C 0.49894 0.93159 0.43963 0.0
C251 C 0.54528 0.92687 0.41056 0.0
C252 C 0.5621 0.92147 0.37935 0.0
C253 C 0.5155 0.92746 0.40809 0.0
C254 C 0.54863 0.91805 0.34513 0.0
C255 C 0.5189 0.91874 0.34242 0.0
H256 H 0.35234 0.31199 0.68891 0.0
H257 H 0.36562 0.32034 0.57209 0.0
H258 H 0.3609 0.26876 0.56486 0.0
H259 H 0.35764 0.22078 0.59295 0.0
H260 H 0.34565 0.21366 0.71023 0.0
H261 H 0.34495 0.2652 0.71588 0.0
C262 C 0.35399 0.30263 0.66176 0.0
C263 C 0.35971 0.32 0.63118 0.0
C264 C 0.35158 0.27307 0.65789 0.0
C265 C 0.36134 0.30747 0.59616 0.0
C266 C 0.35873 0.27794 0.59202 0.0
C267 C 0.35436 0.23055 0.6196 0.0
C268 C 0.352 0.21336 0.65116 0.0
C269 C 0.3545 0.26044 0.62284 0.0
C270 C 0.34785 0.22636 0.68553 0.0
C271 C 0.34747 0.25587 0.68884 0.0
H272 H 0.0628 0.10593 0.84923 0.0
H273 H 0.06815 0.10861 0.96767 0.0
H274 H 0.01679 0.10436 0.97232 0.0
H275 H 0.97011 0.10357 0.94325 0.0
H276 H 0.96367 0.10123 0.82505 0.0
H277 H 0.01557 0.10127 0.81996 0.0
C278 C 0.05276 0.10527 0.87605 0.0
C279 C 0.06944 0.10794 0.908 0.0
C280 C 0.02294 0.103 0.87866 0.0
C281 C 0.05597 0.1069 0.94254 0.0
C282 C 0.02651 0.10447 0.9453 0.0
C283 C 0.98 0.10281 0.91633 0.0
C284 C 0.96297 0.10269 0.88461 0.0
C285 C 1.00976 0.1031 0.91359 0.0
C286 C 0.97623 0.10138 0.84997 0.0
C287 C 1.00594 0.10153 0.84702 0.0
H288 H 0.16715 0.31433 0.94623 0.0
H289 H 0.17198 0.31689 0.82772 0.0
H290 H 0.17691 0.26553 0.82565 0.0
H291 H 0.1757 0.21962 0.85646 0.0
H292 H 0.17044 0.21558 0.97466 0.0
H293 H 0.17029 0.26764 0.97783 0.0
C294 C 0.16965 0.30367 0.92003 0.0
C295 C 0.16877 0.31955 0.88719 0.0
C296 C 0.17227 0.27379 0.91888 0.0
C297 C 0.17217 0.30531 0.85346 0.0
C298 C 0.17503 0.27585 0.85217 0.0
C299 C 0.1748 0.23007 0.88301 0.0
C300 C 0.17275 0.21371 0.91522 0.0
C301 C 0.17441 0.25986 0.88458 0.0
C302 C 0.172 0.22766 0.94939 0.0
C303 C 0.17175 0.25744 0.95121 0.0
H304 H 0.97115 0.92532 0.10904 0.0
H305 H 0.96634 0.91933 0.22714 0.0
H306 H 0.01833 0.91933 0.23087 0.0
H307 H 0.06527 0.91689 0.19987 0.0
H308 H 0.0688 0.92277 0.08148 0.0
H309 H 0.0174 0.92709 0.0788 0.0
C310 C 0.98142 0.92427 0.13568 0.0
C311 C 0.96481 0.92202 0.1677 0.0
C312 C 1.01122 0.92407 0.1376 0.0
C313 C 0.97856 0.92105 0.202 0.0
C314 C 1.00833 0.92091 0.20415 0.0
C315 C 0.05482 0.91948 0.17355 0.0
C316 C 0.07103 0.91912 0.14093 0.0
C317 C 0.02492 0.92179 0.17204 0.0
C318 C 0.05701 0.92262 0.10707 0.0
C319 C 0.02751 0.92511 0.10542 0.0
H320 H 0.36052 0.71718 0.45246 0.0
H321 H 0.35162 0.7139 0.3344 0.0
H322 H 0.34673 0.76529 0.33207 0.0
H323 H 0.34907 0.81135 0.36229 0.0
H324 H 0.35854 0.81608 0.47998 0.0
H325 H 0.35866 0.76402 0.48371 0.0
C326 C 0.35713 0.72769 0.42631 0.0
C327 C 0.35683 0.71161 0.39363 0.0
C328 C 0.35458 0.75755 0.42501 0.0
C329 C 0.35232 0.72565 0.35998 0.0
C330 C 0.34949 0.75511 0.35855 0.0
C331 C 0.35092 0.80105 0.38887 0.0
C332 C 0.35415 0.8176 0.42075 0.0
C333 C 0.35128 0.77129 0.39072 0.0
C334 C 0.35607 0.80386 0.45498 0.0
C335 C 0.35629 0.77408 0.4571 0.0
H336 H 0.5561 0.1091 0.60933 0.0
H337 H 0.56351 0.10683 0.72746 0.0
H338 H 0.5117 0.10492 0.73318 0.0
H339 H 0.4641 0.10758 0.70451 0.0
H340 H 0.45772 0.11053 0.58619 0.0
H341 H 0.50921 0.1083 0.58084 0.0
C342 C 0.54647 0.10798 0.63638 0.0
C343 C 0.56374 0.1084 0.66789 0.0
C344 C 0.51674 0.10713 0.63948 0.0
C345 C 0.55078 0.10663 0.70268 0.0
C346 C 0.52111 0.10562 0.706 0.0
C347 C 0.47397 0.10737 0.67757 0.0
C348 C 0.45696 0.10951 0.64585 0.0
C349 C 0.50383 0.10639 0.67458 0.0
C350 C 0.47018 0.10918 0.61114 0.0
C351 C 0.4997 0.10792 0.60798 0.0
H352 H 0.85754 0.21198 0.95185 0.0
H353 H 0.85533 0.206 0.83346 0.0
H354 H 0.85191 0.25744 0.82867 0.0
H355 H 0.85311 0.30431 0.85737 0.0
H356 H 0.85564 0.31134 0.97551 0.0
H357 H 0.85505 0.25947 0.981 0.0
C358 C 0.85596 0.22191 0.92504 0.0
C359 C 0.857 0.20501 0.8931 0.0
C360 C 0.85421 0.25178 0.92234 0.0
C361 C 0.85486 0.21835 0.85857 0.0
C362 C 0.85291 0.24785 0.85573 0.0
C363 C 0.8533 0.29457 0.88439 0.0
C364 C 0.8547 0.31177 0.91594 0.0
C365 C 0.85317 0.2648 0.88735 0.0
C366 C 0.85462 0.29867 0.95071 0.0
C367 C 0.85439 0.26897 0.95388 0.0
H368 H 0.67127 0.72219 0.45021 0.0
H369 H 0.6794 0.71394 0.33252 0.0
H370 H 0.68031 0.76541 0.32599 0.0
H371 H 0.67471 0.81262 0.35262 0.0
H372 H 0.66545 0.82203 0.46994 0.0
H373 H 0.66939 0.77045 0.47764 0.0
C374 C 0.6737 0.73168 0.42323 0.0
C375 C 0.67499 0.71412 0.39189 0.0
C376 C 0.67377 0.76156 0.41951 0.0
C377 C 0.67805 0.72684 0.35711 0.0
C378 C 0.67856 0.75634 0.35329 0.0
C379 C 0.67379 0.8035 0.37998 0.0
C380 C 0.66948 0.82125 0.41059 0.0
C381 C 0.67574 0.77388 0.38415 0.0
C382 C 0.66867 0.80894 0.44582 0.0
C383 C 0.67083 0.77938 0.45024 0.0
H384 H 0.85431 0.71942 0.18922 0.0
H385 H 0.85447 0.71495 0.07083 0.0
H386 H 0.85429 0.76693 0.06723 0.0
H387 H 0.85798 0.81374 0.09802 0.0
H388 H 0.85814 0.8171 0.21663 0.0
H389 H 0.85418 0.76562 0.21964 0.0
C390 C 0.85405 0.72975 0.16257 0.0
C391 C 0.85468 0.71323 0.13037 0.0
C392 C 0.8542 0.75957 0.1607 0.0
C393 C 0.85402 0.72708 0.0961 0.0
C394 C 0.85406 0.75685 0.09402 0.0
C395 C 0.85683 0.80323 0.1245 0.0
C396 C 0.85869 0.81941 0.15701 0.0
C397 C 0.85473 0.77334 0.12617 0.0
C398 C 0.85704 0.80533 0.1911 0.0
C399 C 0.85478 0.7758 0.19292 0.0
H400 H 0.67795 0.30986 0.68274 0.0
H401 H 0.67018 0.31392 0.56477 0.0
H402 H 0.67032 0.26188 0.56158 0.0
H403 H 0.66866 0.21513 0.59311 0.0
H404 H 0.67612 0.21234 0.71135 0.0
H405 H 0.68023 0.26383 0.71342 0.0
C406 C 0.67652 0.29943 0.65623 0.0
C407 C 0.67376 0.31584 0.62409 0.0
C408 C 0.67639 0.26961 0.65463 0.0
C409 C 0.67229 0.30186 0.58998 0.0
C410 C 0.67225 0.27207 0.58815 0.0
C411 C 0.67156 0.22576 0.61926 0.0
C412 C 0.67175 0.20974 0.65204 0.0
C413 C 0.6737 0.25568 0.6204 0.0
C414 C 0.67559 0.22399 0.68567 0.0
C415 C 0.67795 0.25352 0.68695 0.0
H416 H 0.05536 0.42641 0.92985 0.0
H417 H 0.05967 0.41712 0.81211 0.0
H418 H 1.00759 0.41753 0.80875 0.0
H419 H 0.96077 0.41619 0.84031 0.0
H420 H 0.95791 0.42513 0.95839 0.0
H421 H 1.00936 0.42932 0.96039 0.0
C422 C 0.04497 0.42472 0.90335 0.0
C423 C 0.06142 0.4214 0.87134 0.0
C424 C 0.01518 0.42471 0.90169 0.0
C425 C 0.04754 0.41967 0.83721 0.0
C426 C 0.01774 0.41975 0.8353 0.0
C427 C 0.97139 0.41944 0.8664 0.0
C428 C 0.95537 0.41997 0.89918 0.0
C429 C 1.0013 0.42162 0.8675 0.0
C430 C 0.96957 0.42429 0.93273 0.0
C431 C 0.99908 0.4267 0.93397 0.0
H432 H 0.56425 0.60864 0.3398 0.0
H433 H 0.57031 0.60865 0.45821 0.0
H434 H 0.5188 0.6065 0.46321 0.0
H435 H 0.47209 0.60846 0.43461 0.0
H436 H 0.46474 0.60931 0.31647 0.0
H437 H 0.51662 0.60694 0.31079 0.0
C438 C 0.5543 0.60778 0.36667 0.0
C439 C 0.57122 0.60912 0.39857 0.0
C440 C 0.52441 0.60689 0.36946 0.0
C441 C 0.55791 0.60796 0.43317 0.0
C442 C 0.52838 0.60674 0.43612 0.0
C443 C 0.48174 0.60794 0.40754 0.0
C444 C 0.46452 0.6094 0.37603 0.0
C445 C 0.51144 0.60686 0.40451 0.0
C446 C 0.47747 0.60829 0.34122 0.0
C447 C 0.50716 0.60704 0.33795 0.0
H448 H 0.5671 0.4155 0.69745 0.0
H449 H 0.57136 0.43312 0.5811 0.0
H450 H 0.51982 0.4365 0.57833 0.0
H451 H 0.47352 0.43034 0.60721 0.0
H452 H 0.46785 0.4119 0.72309 0.0
H453 H 0.51984 0.41332 0.72782 0.0
C454 C 0.55675 0.42052 0.67165 0.0
C455 C 0.57316 0.42372 0.63945 0.0
C456 C 0.52681 0.42207 0.67005 0.0
C457 C 0.55934 0.43021 0.60623 0.0
C458 C 0.5298 0.43215 0.60457 0.0
C459 C 0.48357 0.42685 0.63364 0.0
C460 C 0.46678 0.42067 0.66464 0.0
C461 C 0.51333 0.42741 0.63605 0.0
C462 C 0.48024 0.41663 0.69873 0.0
C463 C 0.50999 0.41732 0.70142 0.0
H464 H 0.05619 0.60177 0.1035 0.0
H465 H 0.06245 0.60465 0.22167 0.0
H466 H 1.01048 0.60405 0.22659 0.0
H467 H 0.96323 0.60688 0.19676 0.0
H468 H 0.95825 0.6045 0.07827 0.0
H469 H 1.00968 0.60062 0.07421 0.0
C470 C 0.04626 0.60204 0.13041 0.0
C471 C 0.06322 0.60359 0.16214 0.0
C472 C 0.01651 0.60196 0.13299 0.0
C473 C 0.04992 0.6035 0.19677 0.0
C474 C 0.02018 0.6033 0.19959 0.0
C475 C 0.97337 0.60516 0.17008 0.0
C476 C 0.95678 0.60633 0.13788 0.0
C477 C 1.00323 0.60316 0.16782 0.0
C478 C 0.97037 0.60397 0.10355 0.0
C479 C 0.99986 0.60174 0.10113 0.0
H480 H 0.16988 0.5713 1.00704 0.0
H481 H 0.17116 0.52914 0.11233 0.0
H482 H 0.17301 0.48292 0.08207 0.0
H483 H 0.16915 0.45428 0.02562 0.0
H484 H 0.17023 0.49644 0.92032 0.0
H485 H 0.17292 0.54263 0.95055 0.0
C486 C 0.17103 0.552 0.02331 0.0
C487 C 0.17003 0.55367 0.06183 0.0
C488 C 0.17231 0.5254 1.00573 0.0
C489 C 0.17187 0.52849 0.0826 0.0
C490 C 0.17276 0.50198 0.06532 0.0
C491 C 0.17043 0.47357 1.00934 0.0
C492 C 0.16913 0.47192 0.97084 0.0
C493 C 0.17221 0.50015 0.0269 0.0
C494 C 0.17115 0.49708 0.95004 0.0
C495 C 0.17253 0.52356 0.9673 0.0
H496 H 0.73995 0.9363 0.34273 0.0
H497 H 0.69026 0.92457 0.24438 0.0
H498 H 0.733 0.92986 0.20671 0.0
H499 H 0.78515 0.93149 0.20224 0.0
H500 H 0.83519 0.93849 0.30101 0.0
H501 H 0.79182 0.94185 0.33787 0.0
C502 C 0.73839 0.93554 0.31302 0.0
C503 C 0.71198 0.92997 0.29639 0.0
C504 C 0.76324 0.93752 0.29158 0.0
C505 C 0.71036 0.92871 0.25786 0.0
C506 C 0.73482 0.93167 0.2363 0.0
C507 C 0.78654 0.93448 0.23173 0.0
C508 C 0.81334 0.93474 0.24888 0.0
C509 C 0.76149 0.93517 0.25291 0.0
C510 C 0.81481 0.93818 0.28718 0.0
C511 C 0.79001 0.93998 0.30829 0.0
H512 H 0.35881 0.45952 0.50939 0.0
H513 H 0.35967 0.49949 0.61601 0.0
H514 H 0.35671 0.54634 0.58734 0.0
H515 H 0.35914 0.57609 0.53164 0.0
H516 H 0.35587 0.53593 0.42516 0.0
H517 H 0.3541 0.4892 0.45405 0.0
C518 C 0.35789 0.47849 0.5263 0.0
C519 C 0.35983 0.47609 0.56467 0.0
C520 C 0.35593 0.50538 0.50966 0.0
C521 C 0.35824 0.50078 0.58635 0.0
C522 C 0.35671 0.52762 0.56999 0.0
C523 C 0.35756 0.55712 0.51483 0.0
C524 C 0.35803 0.55948 0.47636 0.0
C525 C 0.35633 0.53021 0.53163 0.0
C526 C 0.35561 0.53473 0.45488 0.0
C527 C 0.35476 0.50794 0.47135 0.0
H528 H 0.74073 0.08826 0.70724 0.0
H529 H 0.68957 0.09775 0.80491 0.0
H530 H 0.73172 0.09161 0.84326 0.0
H531 H 0.78381 0.09046 0.8487 0.0
H532 H 0.83526 0.08549 0.75075 0.0
H533 H 0.79245 0.08245 0.71296 0.0
C534 C 0.73871 0.08832 0.73693 0.0
C535 C 0.71208 0.09363 0.75319 0.0
C536 C 0.76322 0.08584 0.75879 0.0
C537 C 0.70986 0.09388 0.7917 0.0
C538 C 0.73398 0.09045 0.81367 0.0
C539 C 0.78564 0.08795 0.81917 0.0
C540 C 0.81265 0.08829 0.80253 0.0
C541 C 0.76091 0.08742 0.79749 0.0
C542 C 0.81469 0.08539 0.76419 0.0
C543 C 0.79021 0.08377 0.74255 0.0
H544 H 0.83672 0.48985 0.95341 0.0
H545 H 0.84416 0.4396 0.05211 0.0
H546 H 0.83965 0.48247 0.0896 0.0
H547 H 0.84039 0.53464 0.09399 0.0
H548 H 0.83749 0.585 0.995 0.0
H549 H 0.83298 0.54185 0.95808 0.0
C550 C 0.83667 0.48821 0.98313 0.0
C551 C 0.8409 0.46159 0.99994 0.0
C552 C 0.83516 0.51309 1.0045 0.0
C553 C 0.84107 0.45986 0.03849 0.0
C554 C 0.83859 0.48439 0.05995 0.0
C555 C 0.83805 0.53619 0.06442 0.0
C556 C 0.83936 0.56298 0.04725 0.0
C557 C 0.83662 0.51121 0.04324 0.0
C558 C 0.83664 0.56462 1.00886 0.0
C559 C 0.83418 0.53994 0.98771 0.0
H560 H 0.24323 0.10051 0.84892 0.0
H561 H 0.18907 0.10693 0.75369 0.0
H562 H 0.23042 0.1018 0.71342 0.0
H563 H 0.28226 0.10123 0.70544 0.0
H564 H 0.33666 0.09966 0.80075 0.0
H565 H 0.29496 0.09675 0.84084 0.0
C566 C 0.2404 0.10023 0.81935 0.0
C567 C 0.21312 0.10415 0.80429 0.0
C568 C 0.26439 0.09835 0.7964 0.0
C569 C 0.20985 0.10404 0.76594 0.0
C570 C 0.2335 0.10118 0.74291 0.0
C571 C 0.28502 0.09961 0.73495 0.0
C572 C 0.31252 0.10065 0.75013 0.0
C573 C 0.26094 0.09914 0.75784 0.0
C574 C 0.31572 0.09893 0.78843 0.0
C575 C 0.29188 0.09738 0.81135 0.0
H576 H 0.68718 0.53816 0.44233 0.0
H577 H 0.68943 0.58947 0.54046 0.0
H578 H 0.69355 0.54665 0.57818 0.0
H579 H 0.69018 0.49457 0.58372 0.0
H580 H 0.68372 0.44344 0.48574 0.0
H581 H 0.68795 0.48604 0.44763 0.0
C582 C 0.68925 0.54001 0.47191 0.0
C583 C 0.68792 0.567 0.48854 0.0
C584 C 0.69055 0.51521 0.49354 0.0
C585 C 0.6903 0.56896 0.52696 0.0
C586 C 0.69256 0.54445 0.54857 0.0
C587 C 0.69036 0.49269 0.55402 0.0
C588 C 0.68656 0.46585 0.53761 0.0
C589 C 0.69176 0.51743 0.53226 0.0
C590 C 0.68651 0.46384 0.49908 0.0
C591 C 0.68884 0.48822 0.47725 0.0
H592 H 0.32144 0.92306 0.26458 0.0
H593 H 0.27831 0.92447 0.36923 0.0
H594 H 0.23232 0.92483 0.33825 0.0
H595 H 0.20428 0.91977 0.28138 0.0
H596 H 0.24743 0.92096 0.17673 0.0
H597 H 0.29325 0.92485 0.20763 0.0
C598 C 0.30197 0.92393 0.28055 0.0
C599 C 0.30332 0.92342 0.31912 0.0
C600 C 0.27551 0.92437 0.26255 0.0
C601 C 0.27791 0.92485 0.33948 0.0
C602 C 0.25154 0.92488 0.32179 0.0
C603 C 0.22369 0.92131 0.26539 0.0
C604 C 0.22244 0.91973 0.22686 0.0
C605 C 0.25006 0.92387 0.28334 0.0
C606 C 0.24776 0.92209 0.20645 0.0
C607 C 0.27404 0.92418 0.2241 0.0
H608 H 0.67348 0.07569 0.51514 0.0
H609 H 0.67515 0.03308 0.62012 0.0
H610 H 0.67729 0.98701 0.58939 0.0
H611 H 0.67295 0.95869 0.53275 0.0
H612 H 0.67327 1.00114 0.42769 0.0
H613 H 0.67647 0.04728 0.45829 0.0
C614 C 0.67484 0.05634 0.53126 0.0
C615 C 0.67379 0.05784 0.56986 0.0
C616 C 0.67619 0.02983 0.51338 0.0
C617 C 0.67589 0.03258 0.59038 0.0
C618 C 0.67693 1.00616 0.57282 0.0
C619 C 0.67423 0.97802 0.51657 0.0
C620 C 0.67252 0.97651 0.47804 0.0
C621 C 0.67622 1.0045 0.53436 0.0
C622 C 0.67454 1.0017 0.45739 0.0
C623 C 0.67619 0.02814 0.47489 0.0
H624 H 0.32149 0.42857 0.78362 0.0
H625 H 0.28886 0.43098 0.67295 0.0
H626 H 0.24043 0.43517 0.69639 0.0
H627 H 0.20694 0.4323 0.7484 0.0
H628 H 0.2397 0.43221 0.85908 0.0
H629 H 0.28825 0.43344 0.83563 0.0
C630 C 0.3038 0.43053 0.76469 0.0
C631 C 0.30874 0.42907 0.72666 0.0
C632 C 0.27593 0.43316 0.77835 0.0
C633 C 0.28566 0.43199 0.7024 0.0
C634 C 0.25789 0.43423 0.71577 0.0
C635 C 0.2247 0.43312 0.76735 0.0
C636 C 0.21967 0.43176 0.80538 0.0
C637 C 0.25269 0.43397 0.75369 0.0
C638 C 0.24292 0.43317 0.82963 0.0
C639 C 0.27077 0.43369 0.81626 0.0
H640 H 0.85295 0.02972 0.95338 0.0
H641 H 0.85436 0.08707 0.04578 0.0
H642 H 0.85094 0.04684 0.08812 0.0
H643 H 0.8532 0.99522 0.09904 0.0
H644 H 0.85617 0.93794 1.00663 0.0
H645 H 0.8519 0.97808 0.96429 0.0
C646 C 0.85188 0.03343 0.98276 0.0
C647 C 0.85391 0.06136 0.9964 0.0
C648 C 0.85098 1.01011 1.00702 0.0
C649 C 0.8529 0.06578 0.03457 0.0
C650 C 0.85103 0.04277 0.05882 0.0
C651 C 0.8523 0.9915 0.06966 0.0
C652 C 0.85502 0.96363 0.05602 0.0
C653 C 0.85089 0.0148 0.0454 0.0
C654 C 0.8542 0.95919 1.01784 0.0
C655 C 0.85183 0.98215 0.9936 0.0
H656 H 0.20659 0.59147 0.2854 0.0
H657 H 0.24175 0.59062 0.17586 0.0
H658 H 0.28978 0.58943 0.20095 0.0
H659 H 0.3218 0.59513 0.25396 0.0
H660 H 0.28665 0.59413 0.36352 0.0
H661 H 0.23884 0.58915 0.33852 0.0
C662 C 0.22476 0.59042 0.26706 0.0
C663 C 0.22058 0.59158 0.22887 0.0
C664 C 0.25241 0.58971 0.28166 0.0
C665 C 0.24433 0.58986 0.20541 0.0
C666 C 0.27187 0.58937 0.21972 0.0
C667 C 0.30371 0.59328 0.27233 0.0
C668 C 0.30775 0.59546 0.31047 0.0
C669 C 0.27618 0.59029 0.25779 0.0
C670 C 0.28416 0.59264 0.334 0.0
C671 C 0.25673 0.58994 0.31974 0.0
H672 H 0.33716 0.07459 0.5162 0.0
H673 H 0.33971 0.03819 0.62501 0.0
H674 H 0.33703 0.99048 0.59908 0.0
H675 H 0.34071 0.95904 0.54522 0.0
H676 H 0.33675 0.99535 0.43646 0.0
H677 H 0.3328 0.04293 0.46262 0.0
C678 C 0.33652 0.05624 0.53425 0.0
C679 C 0.3391 0.05998 0.57243 0.0
C680 C 0.33502 0.02875 0.51915 0.0
C681 C 0.33789 0.03598 0.59549 0.0
C682 C 0.33654 1.00861 0.58068 0.0
C683 C 0.33841 0.97732 0.52728 0.0
C684 C 0.33949 0.97367 0.48898 0.0
C685 C 0.33613 1.00471 0.54251 0.0
C686 C 0.33611 0.99754 0.46607 0.0
C687 C 0.33401 0.02483 0.481 0.0
H688 H 0.7825 0.59754 0.19525 0.0
H689 H 0.8384 0.60311 0.28885 0.0
H690 H 0.79785 0.59807 0.33036 0.0
H691 H 0.74614 0.59843 0.34003 0.0
H692 H 0.69003 0.59713 0.2464 0.0
H693 H 0.73088 0.59369 0.20506 0.0
C694 C 0.78586 0.59701 0.22472 0.0
C695 C 0.81341 0.60083 0.23894 0.0
C696 C 0.76231 0.59512 0.24848 0.0
C697 C 0.81739 0.60037 0.2772 0.0
C698 C 0.79419 0.59756 0.30098 0.0
C699 C 0.74283 0.5967 0.31063 0.0
C700 C 0.71509 0.59812 0.29631 0.0
C701 C 0.76647 0.59585 0.28694 0.0
C702 C 0.71118 0.59619 0.25812 0.0
C703 C 0.73455 0.59433 0.23444 0.0
H704 H 0.18591 0.95525 1.00181 0.0
H705 H 0.19192 0.98868 0.11192 0.0
H706 H 0.19611 0.03682 0.08768 0.0
H707 H 0.19101 0.06986 0.03569 0.0
H708 H 0.18634 0.03649 0.92547 0.0
H709 H 0.1892 0.98807 0.94921 0.0
C710 C 0.18873 0.97302 1.02044 0.0
C711 C 0.18808 0.96841 0.05859 0.0
C712 C 0.19112 1.00076 1.00633 0.0
C713 C 0.19217 0.99161 0.0824 0.0
C714 C 0.19441 0.01923 0.06859 0.0
C715 C 0.19125 0.05201 1.01685 0.0
C716 C 0.18798 0.05677 0.97897 0.0
C717 C 0.19284 0.02414 0.03067 0.0
C718 C 0.1887 0.03344 0.95481 0.0
C719 C 0.19015 1.00568 0.96836 0.0
H720 H 0.70589 0.42582 0.77648 0.0
H721 H 0.75041 0.42708 0.67279 0.0
H722 H 0.79596 0.42855 0.70491 0.0
H723 H 0.82317 0.42368 0.76243 0.0
H724 H 0.77866 0.4243 0.86614 0.0
H725 H 0.73323 0.42826 0.83412 0.0
C726 C 0.72556 0.42695 0.76094 0.0
C727 C 0.72475 0.42598 0.72231 0.0
C728 C 0.75173 0.42789 0.7796 0.0
C729 C 0.7504 0.42778 0.70254 0.0
C730 C 0.7765 0.42843 0.7209 0.0
C731 C 0.80355 0.42519 0.77801 0.0
C732 C 0.80429 0.42332 0.81659 0.0
C733 C 0.77744 0.42761 0.75941 0.0
C734 C 0.77872 0.42565 0.83642 0.0
C735 C 0.75267 0.42774 0.81812 0.0
loop_
_geom_bond_atom_site_label_1
_geom_bond_atom_site_label_2
_geom_bond_distance
_geom_bond_site_symmetry_2
_ccdc_geom_bond_type
O0 Cd1 2.223 . S
O0 C8 1.315 . S
Cd1 O0 2.223 . S
Cd1 O4 2.297 . S
Cd1 O5 2.439 . S
Cd1 O11 2.240 . S
Cd2 O3 2.240 . S
Cd2 O10 2.223 . S
Cd2 O12 2.297 . S
Cd2 O13 2.439 . S
O3 Cd2 2.240 . S
O3 C8 1.279 . S
O4 Cd1 2.297 . S
O4 C6 1.247 . S
O5 Cd1 2.439 . S
O5 C6 1.208 . S
C6 O4 1.247 . S
C6 O5 1.208 . S
C7 O12 1.247 . S
C7 O13 1.208 . S
C8 O0 1.315 . S
C8 O3 1.279 . S
C9 O10 1.315 . S
C9 O11 1.279 . S
O10 Cd2 2.223 . S
O10 C9 1.315 . S
O11 Cd1 2.240 . S
O11 C9 1.279 . S
O12 Cd2 2.297 . S
O12 C7 1.247 . S
O13 Cd2 2.439 . S
O13 C7 1.208 . S
O14 Cd15 2.223 . S
O14 C22 1.315 . S
Cd15 O14 2.223 . S
Cd15 O18 2.297 . S
Cd15 O19 2.439 . S
Cd15 O25 2.240 . S
Cd16 O17 2.240 . S
Cd16 O24 2.223 . S
Cd16 O26 2.297 . S
Cd16 O27 2.439 . S
O17 Cd16 2.240 . S
O17 C22 1.279 . S
O18 Cd15 2.297 . S
O18 C20 1.247 . S
O19 Cd15 2.439 . S
O19 C20 1.208 . S
C20 O18 1.247 . S
C20 O19 1.208 . S
C21 O26 1.247 . S
C21 O27 1.208 . S
C22 O14 1.315 . S
C22 O17 1.279 . S
C23 O24 1.315 . S
C23 O25 1.279 . S
O24 Cd16 2.223 . S
O24 C23 1.315 . S
O25 Cd15 2.240 . S
O25 C23 1.279 . S
O26 Cd16 2.297 . S
O26 C21 1.247 . S
O27 Cd16 2.439 . S
O27 C21 1.208 . S
O28 Cd29 2.223 . S
O28 C36 1.315 . S
Cd29 O28 2.223 . S
Cd29 O32 2.297 . S
Cd29 O33 2.439 . S
Cd29 O39 2.240 . S
Cd30 O31 2.240 . S
Cd30 O38 2.223 . S
Cd30 O40 2.297 . S
Cd30 O41 2.439 . S
O31 Cd30 2.240 . S
O31 C36 1.279 . S
O32 Cd29 2.297 . S
O32 C34 1.247 . S
O33 Cd29 2.439 . S
O33 C34 1.208 . S
C34 O32 1.247 . S
C34 O33 1.208 . S
C35 O40 1.247 . S
C35 O41 1.208 . S
C36 O28 1.315 . S
C36 O31 1.279 . S
C37 O38 1.315 . S
C37 O39 1.279 . S
O38 Cd30 2.223 . S
O38 C37 1.315 . S
O39 Cd29 2.240 . S
O39 C37 1.279 . S
O40 Cd30 2.297 . S
O40 C35 1.247 . S
O41 Cd30 2.439 . S
O41 C35 1.208 . S
O42 Cd43 2.223 . S
O42 C50 1.315 . S
Cd43 O42 2.223 . S
Cd43 O46 2.297 . S
Cd43 O47 2.439 . S
Cd43 O53 2.240 . S
Cd44 O45 2.240 . S
Cd44 O52 2.223 . S
Cd44 O54 2.297 . S
Cd44 O55 2.439 . S
O45 Cd44 2.240 . S
O45 C50 1.279 . S
O46 Cd43 2.297 . S
O46 C48 1.247 . S
O47 Cd43 2.439 . S
O47 C48 1.208 . S
C48 O46 1.247 . S
C48 O47 1.208 . S
C49 O54 1.247 . S
C49 O55 1.208 . S
C50 O42 1.315 . S
C50 O45 1.279 . S
C51 O52 1.315 . S
C51 O53 1.279 . S
O52 Cd44 2.223 . S
O52 C51 1.315 . S
O53 Cd43 2.240 . S
O53 C51 1.279 . S
O54 Cd44 2.297 . S
O54 C49 1.247 . S
O55 Cd44 2.439 . S
O55 C49 1.208 . S
O56 Cd57 2.223 . S
O56 C64 1.315 . S
Cd57 O56 2.223 . S
Cd57 O60 2.297 . S
Cd57 O61 2.439 . S
Cd57 O67 2.240 . S
Cd58 O59 2.240 . S
Cd58 O66 2.223 . S
Cd58 O68 2.297 . S
Cd58 O69 2.439 . S
O59 Cd58 2.240 . S
O59 C64 1.279 . S
O60 Cd57 2.297 . S
O60 C62 1.247 . S
O61 Cd57 2.439 . S
O61 C62 1.208 . S
C62 O60 1.247 . S
C62 O61 1.208 . S
C63 O68 1.247 . S
C63 O69 1.208 . S
C64 O56 1.315 . S
C64 O59 1.279 . S
C65 O66 1.315 . S
C65 O67 1.279 . S
O66 Cd58 2.223 . S
O66 C65 1.315 . S
O67 Cd57 2.240 . S
O67 C65 1.279 . S
O68 Cd58 2.297 . S
O68 C63 1.247 . S
O69 Cd58 2.439 . S
O69 C63 1.208 . S
O70 Cd71 2.223 . S
O70 C78 1.315 . S
Cd71 O70 2.223 . S
Cd71 O74 2.297 . S
Cd71 O75 2.439 . S
Cd71 O81 2.240 . S
Cd72 O73 2.240 . S
Cd72 O80 2.223 . S
Cd72 O82 2.297 . S
Cd72 O83 2.439 . S
O73 Cd72 2.240 . S
O73 C78 1.279 . S
O74 Cd71 2.297 . S
O74 C76 1.247 . S
O75 Cd71 2.439 . S
O75 C76 1.208 . S
C76 O74 1.247 . S
C76 O75 1.208 . S
C77 O82 1.247 . S
C77 O83 1.208 . S
C78 O70 1.315 . S
C78 O73 1.279 . S
C79 O80 1.315 . S
C79 O81 1.279 . S
O80 Cd72 2.223 . S
O80 C79 1.315 . S
O81 Cd71 2.240 . S
O81 C79 1.279 . S
O82 Cd72 2.297 . S
O82 C77 1.247 . S
O83 Cd72 2.439 . S
O83 C77 1.208 . S
O84 Cd85 2.223 . S
O84 C92 1.315 . S
Cd85 O84 2.223 . S
Cd85 O88 2.297 . S
Cd85 O89 2.439 . S
Cd85 O95 2.240 . S
Cd86 O87 2.240 . S
Cd86 O94 2.223 . S
Cd86 O96 2.297 . S
Cd86 O97 2.439 . S
O87 Cd86 2.240 . S
O87 C92 1.279 . S
O88 Cd85 2.297 . S
O88 C90 1.247 . S
O89 Cd85 2.439 . S
O89 C90 1.208 . S
C90 O88 1.247 . S
C90 O89 1.208 . S
C91 O96 1.247 . S
C91 O97 1.208 . S
C92 O84 1.315 . S
C92 O87 1.279 . S
C93 O94 1.315 . S
C93 O95 1.279 . S
O94 Cd86 2.223 . S
O94 C93 1.315 . S
O95 Cd85 2.240 . S
O95 C93 1.279 . S
O96 Cd86 2.297 . S
O96 C91 1.247 . S
O97 Cd86 2.439 . S
O97 C91 1.208 . S
O98 Cd99 2.223 . S
O98 C106 1.315 . S
Cd99 O98 2.223 . S
Cd99 O102 2.297 . S
Cd99 O103 2.439 . S
Cd99 O109 2.240 . S
Cd100 O101 2.240 . S
Cd100 O108 2.223 . S
Cd100 O110 2.297 . S
Cd100 O111 2.439 . S
O101 Cd100 2.240 . S
O101 C106 1.279 . S
O102 Cd99 2.297 . S
O102 C104 1.247 . S
O103 Cd99 2.439 . S
O103 C104 1.208 . S
C104 O102 1.247 . S
C104 O103 1.208 . S
C105 O110 1.247 . S
C105 O111 1.208 . S
C106 O98 1.315 . S
C106 O101 1.279 . S
C107 O108 1.315 . S
C107 O109 1.279 . S
O108 Cd100 2.223 . S
O108 C107 1.315 . S
O109 Cd99 2.240 . S
O109 C107 1.279 . S
O110 Cd100 2.297 . S
O110 C105 1.247 . S
O111 Cd100 2.439 . S
O111 C105 1.208 . S
O112 Cd113 2.223 . S
O112 C120 1.315 . S
Cd113 O112 2.223 . S
Cd113 O116 2.297 . S
Cd113 O117 2.439 . S
Cd113 O123 2.240 . S
Cd114 O115 2.240 . S
Cd114 O122 2.223 . S
Cd114 O124 2.297 . S
Cd114 O125 2.439 . S
O115 Cd114 2.240 . S
O115 C120 1.279 . S
O116 Cd113 2.297 . S
O116 C118 1.247 . S
O117 Cd113 2.439 . S
O117 C118 1.208 . S
C118 O116 1.247 . S
C118 O117 1.208 . S
C119 O124 1.247 . S
C119 O125 1.208 . S
C120 O112 1.315 . S
C120 O115 1.279 . S
C121 O122 1.315 . S
C121 O123 1.279 . S
O122 Cd114 2.223 . S
O122 C121 1.315 . S
O123 Cd113 2.240 . S
O123 C121 1.279 . S
O124 Cd114 2.297 . S
O124 C119 1.247 . S
O125 Cd114 2.439 . S
O125 C119 1.208 . S
O126 Cd127 2.223 . S
O126 C134 1.315 . S
Cd127 O126 2.223 . S
Cd127 O130 2.297 . S
Cd127 O131 2.439 . S
Cd127 O137 2.240 . S
Cd128 O129 2.240 . S
Cd128 O136 2.223 . S
Cd128 O138 2.297 . S
Cd128 O139 2.439 . S
O129 Cd128 2.240 . S
O129 C134 1.279 . S
O130 Cd127 2.297 . S
O130 C132 1.247 . S
O131 Cd127 2.439 . S
O131 C132 1.208 . S
C132 O130 1.247 . S
C132 O131 1.208 . S
C133 O138 1.247 . S
C133 O139 1.208 . S
C134 O126 1.315 . S
C134 O129 1.279 . S
C135 O136 1.315 . S
C135 O137 1.279 . S
O136 Cd128 2.223 . S
O136 C135 1.315 . S
O137 Cd127 2.240 . S
O137 C135 1.279 . S
O138 Cd128 2.297 . S
O138 C133 1.247 . S
O139 Cd128 2.439 . S
O139 C133 1.208 . S
O140 Cd141 2.223 . S
O140 C148 1.315 . S
Cd141 O140 2.223 . S
Cd141 O144 2.297 . S
Cd141 O145 2.439 . S
Cd141 O151 2.240 . S
Cd142 O143 2.240 . S
Cd142 O150 2.223 . S
Cd142 O152 2.297 . S
Cd142 O153 2.439 . S
O143 Cd142 2.240 . S
O143 C148 1.279 . S
O144 Cd141 2.297 . S
O144 C146 1.247 . S
O145 Cd141 2.439 . S
O145 C146 1.208 . S
C146 O144 1.247 . S
C146 O145 1.208 . S
C147 O152 1.247 . S
C147 O153 1.208 . S
C148 O140 1.315 . S
C148 O143 1.279 . S
C149 O150 1.315 . S
C149 O151 1.279 . S
O150 Cd142 2.223 . S
O150 C149 1.315 . S
O151 Cd141 2.240 . S
O151 C149 1.279 . S
O152 Cd142 2.297 . S
O152 C147 1.247 . S
O153 Cd142 2.439 . S
O153 C147 1.208 . S
O154 Cd155 2.223 . S
O154 C162 1.315 . S
Cd155 O154 2.223 . S
Cd155 O158 2.297 . S
Cd155 O159 2.439 . S
Cd155 O165 2.240 . S
Cd156 O157 2.240 . S
Cd156 O164 2.223 . S
Cd156 O166 2.297 . S
Cd156 O167 2.439 . S
O157 Cd156 2.240 . S
O157 C162 1.279 . S
O158 Cd155 2.297 . S
O158 C160 1.247 . S
O159 Cd155 2.439 . S
O159 C160 1.208 . S
C160 O158 1.247 . S
C160 O159 1.208 . S
C161 O166 1.247 . S
C161 O167 1.208 . S
C162 O154 1.315 . S
C162 O157 1.279 . S
C163 O164 1.315 . S
C163 O165 1.279 . S
O164 Cd156 2.223 . S
O164 C163 1.315 . S
O165 Cd155 2.240 . S
O165 C163 1.279 . S
O166 Cd156 2.297 . S
O166 C161 1.247 . S
O167 Cd156 2.439 . S
O167 C161 1.208 . S
O168 Cd169 2.223 . S
O168 C176 1.315 . S
Cd169 O168 2.223 . S
Cd169 O172 2.297 . S
Cd169 O173 2.439 . S
Cd169 O179 2.240 . S
Cd170 O171 2.240 . S
Cd170 O178 2.223 . S
Cd170 O180 2.297 . S
Cd170 O181 2.439 . S
O171 Cd170 2.240 . S
O171 C176 1.279 . S
O172 Cd169 2.297 . S
O172 C174 1.247 . S
O173 Cd169 2.439 . S
O173 C174 1.208 . S
C174 O172 1.247 . S
C174 O173 1.208 . S
C175 O180 1.247 . S
C175 O181 1.208 . S
C176 O168 1.315 . S
C176 O171 1.279 . S
C177 O178 1.315 . S
C177 O179 1.279 . S
O178 Cd170 2.223 . S
O178 C177 1.315 . S
O179 Cd169 2.240 . S
O179 C177 1.279 . S
O180 Cd170 2.297 . S
O180 C175 1.247 . S
O181 Cd170 2.439 . S
O181 C175 1.208 . S
O182 Cd183 2.223 . S
O182 C190 1.315 . S
Cd183 O182 2.223 . S
Cd183 O186 2.297 . S
Cd183 O187 2.439 . S
Cd183 O193 2.240 . S
Cd184 O185 2.240 . S
Cd184 O192 2.223 . S
Cd184 O194 2.297 . S
Cd184 O195 2.439 . S
O185 Cd184 2.240 . S
O185 C190 1.279 . S
O186 Cd183 2.297 . S
O186 C188 1.247 . S
O187 Cd183 2.439 . S
O187 C188 1.208 . S
C188 O186 1.247 . S
C188 O187 1.208 . S
C189 O194 1.247 . S
C189 O195 1.208 . S
C190 O182 1.315 . S
C190 O185 1.279 . S
C191 O192 1.315 . S
C191 O193 1.279 . S
O192 Cd184 2.223 . S
O192 C191 1.315 . S
O193 Cd183 2.240 . S
O193 C191 1.279 . S
O194 Cd184 2.297 . S
O194 C189 1.247 . S
O195 Cd184 2.439 . S
O195 C189 1.208 . S
O196 Cd197 2.223 . S
O196 C204 1.315 . S
Cd197 O196 2.223 . S
Cd197 O200 2.297 . S
Cd197 O201 2.439 . S
Cd197 O207 2.240 . S
Cd198 O199 2.240 . S
Cd198 O206 2.223 . S
Cd198 O208 2.297 . S
Cd198 O209 2.439 . S
O199 Cd198 2.240 . S
O199 C204 1.279 . S
O200 Cd197 2.297 . S
O200 C202 1.247 . S
O201 Cd197 2.439 . S
O201 C202 1.208 . S
C202 O200 1.247 . S
C202 O201 1.208 . S
C203 O208 1.247 . S
C203 O209 1.208 . S
C204 O196 1.315 . S
C204 O199 1.279 . S
C205 O206 1.315 . S
C205 O207 1.279 . S
O206 Cd198 2.223 . S
O206 C205 1.315 . S
O207 Cd197 2.240 . S
O207 C205 1.279 . S
O208 Cd198 2.297 . S
O208 C203 1.247 . S
O209 Cd198 2.439 . S
O209 C203 1.208 . S
O210 Cd211 2.223 . S
O210 C218 1.315 . S
Cd211 O210 2.223 . S
Cd211 O214 2.297 . S
Cd211 O215 2.439 . S
Cd211 O221 2.240 . S
Cd212 O213 2.240 . S
Cd212 O220 2.223 . S
Cd212 O222 2.297 . S
Cd212 O223 2.439 . S
O213 Cd212 2.240 . S
O213 C218 1.279 . S
O214 Cd211 2.297 . S
O214 C216 1.247 . S
O215 Cd211 2.439 . S
O215 C216 1.208 . S
C216 O214 1.247 . S
C216 O215 1.208 . S
C217 O222 1.247 . S
C217 O223 1.208 . S
C218 O210 1.315 . S
C218 O213 1.279 . S
C219 O220 1.315 . S
C219 O221 1.279 . S
O220 Cd212 2.223 . S
O220 C219 1.315 . S
O221 Cd211 2.240 . S
O221 C219 1.279 . S
O222 Cd212 2.297 . S
O222 C217 1.247 . S
O223 Cd212 2.439 . S
O223 C217 1.208 . S
H224 C230 0.930 . S
H225 C233 0.930 . S
H226 C234 0.930 . S
H227 C235 0.930 . S
H228 C238 0.930 . S
H229 C239 0.930 . S
C230 H224 0.930 . S
C230 C231 1.355 . S
C230 C232 1.415 . S
C231 C230 1.355 . S
C231 C233 1.419 . S
C232 C230 1.415 . S
C232 C237 1.425 . S
C232 C239 1.409 . S
C233 H225 0.930 . S
C233 C231 1.419 . S
C233 C234 1.362 . S
C234 H226 0.930 . S
C234 C233 1.362 . S
C234 C237 1.409 . S
C235 H227 0.930 . S
C235 C236 1.355 . S
C235 C237 1.415 . S
C236 C235 1.355 . S
C236 C238 1.419 . S
C237 C232 1.425 . S
C237 C234 1.409 . S
C237 C235 1.415 . S
C238 H228 0.930 . S
C238 C236 1.419 . S
C238 C239 1.362 . S
C239 H229 0.930 . S
C239 C232 1.409 . S
C239 C238 1.362 . S
H240 C246 0.930 . S
H241 C249 0.930 . S
H242 C250 0.930 . S
H243 C251 0.930 . S
H244 C254 0.930 . S
H245 C255 0.930 . S
C246 H240 0.930 . S
C246 C247 1.355 . S
C246 C248 1.415 . S
C247 C246 1.355 . S
C247 C249 1.419 . S
C248 C246 1.415 . S
C248 C253 1.425 . S
C248 C255 1.409 . S
C249 H241 0.930 . S
C249 C247 1.419 . S
C249 C250 1.362 . S
C250 H242 0.930 . S
C250 C249 1.362 . S
C250 C253 1.409 . S
C251 H243 0.930 . S
C251 C252 1.355 . S
C251 C253 1.415 . S
C252 C251 1.355 . S
C252 C254 1.419 . S
C253 C248 1.425 . S
C253 C250 1.409 . S
C253 C251 1.415 . S
C254 H244 0.930 . S
C254 C252 1.419 . S
C254 C255 1.362 . S
C255 H245 0.930 . S
C255 C248 1.409 . S
C255 C254 1.362 . S
H256 C262 0.930 . S
H257 C265 0.930 . S
H258 C266 0.930 . S
H259 C267 0.930 . S
H260 C270 0.930 . S
H261 C271 0.930 . S
C262 H256 0.930 . S
C262 C263 1.355 . S
C262 C264 1.415 . S
C263 C262 1.355 . S
C263 C265 1.419 . S
C264 C262 1.415 . S
C264 C269 1.425 . S
C264 C271 1.409 . S
C265 H257 0.930 . S
C265 C263 1.419 . S
C265 C266 1.362 . S
C266 H258 0.930 . S
C266 C265 1.362 . S
C266 C269 1.409 . S
C267 H259 0.930 . S
C267 C268 1.355 . S
C267 C269 1.415 . S
C268 C267 1.355 . S
C268 C270 1.419 . S
C269 C264 1.425 . S
C269 C266 1.409 . S
C269 C267 1.415 . S
C270 H260 0.930 . S
C270 C268 1.419 . S
C270 C271 1.362 . S
C271 H261 0.930 . S
C271 C264 1.409 . S
C271 C270 1.362 . S
H272 C278 0.930 . S
H273 C281 0.930 . S
H274 C282 0.930 . S
H275 C283 0.930 . S
H276 C286 0.930 . S
H277 C287 0.930 . S
C278 H272 0.930 . S
C278 C279 1.355 . S
C278 C280 1.415 . S
C279 C278 1.355 . S
C279 C281 1.419 . S
C280 C278 1.415 . S
C280 C285 1.425 1_455 S
C280 C287 1.409 1_455 S
C281 H273 0.930 . S
C281 C279 1.419 . S
C281 C282 1.362 . S
C282 H274 0.930 . S
C282 C281 1.362 . S
C282 C285 1.409 1_455 S
C283 H275 0.930 . S
C283 C284 1.355 . S
C283 C285 1.415 . S
C284 C283 1.355 . S
C284 C286 1.419 . S
C285 C280 1.425 1_655 S
C285 C282 1.409 1_655 S
C285 C283 1.415 . S
C286 H276 0.930 . S
C286 C284 1.419 . S
C286 C287 1.362 . S
C287 H277 0.930 . S
C287 C280 1.409 1_655 S
C287 C286 1.362 . S
H288 C294 0.930 . S
H289 C297 0.930 . S
H290 C298 0.930 . S
H291 C299 0.930 . S
H292 C302 0.930 . S
H293 C303 0.930 . S
C294 H288 0.930 . S
C294 C295 1.355 . S
C294 C296 1.415 . S
C295 C294 1.355 . S
C295 C297 1.419 . S
C296 C294 1.415 . S
C296 C301 1.425 . S
C296 C303 1.409 . S
C297 H289 0.930 . S
C297 C295 1.419 . S
C297 C298 1.362 . S
C298 H290 0.930 . S
C298 C297 1.362 . S
C298 C301 1.409 . S
C299 H291 0.930 . S
C299 C300 1.355 . S
C299 C301 1.415 . S
C300 C299 1.355 . S
C300 C302 1.419 . S
C301 C296 1.425 . S
C301 C298 1.409 . S
C301 C299 1.415 . S
C302 H292 0.930 . S
C302 C300 1.419 . S
C302 C303 1.362 . S
C303 H293 0.930 . S
C303 C296 1.409 . S
C303 C302 1.362 . S
H304 C310 0.930 . S
H305 C313 0.930 . S
H306 C314 0.930 . S
H307 C315 0.930 . S
H308 C318 0.930 . S
H309 C319 0.930 . S
C310 H304 0.930 . S
C310 C311 1.355 . S
C310 C312 1.415 . S
C311 C310 1.355 . S
C311 C313 1.419 . S
C312 C310 1.415 . S
C312 C317 1.425 1_655 S
C312 C319 1.409 1_655 S
C313 H305 0.930 . S
C313 C311 1.419 . S
C313 C314 1.362 . S
C314 H306 0.930 . S
C314 C313 1.362 . S
C314 C317 1.409 1_655 S
C315 H307 0.930 . S
C315 C316 1.355 . S
C315 C317 1.415 . S
C316 C315 1.355 . S
C316 C318 1.419 . S
C317 C312 1.425 1_455 S
C317 C314 1.409 1_455 S
C317 C315 1.415 . S
C318 H308 0.930 . S
C318 C316 1.419 . S
C318 C319 1.362 . S
C319 H309 0.930 . S
C319 C312 1.409 1_455 S
C319 C318 1.362 . S
H320 C326 0.930 . S
H321 C329 0.930 . S
H322 C330 0.930 . S
H323 C331 0.930 . S
H324 C334 0.930 . S
H325 C335 0.930 . S
C326 H320 0.930 . S
C326 C327 1.355 . S
C326 C328 1.415 . S
C327 C326 1.355 . S
C327 C329 1.419 . S
C328 C326 1.415 . S
C328 C333 1.425 . S
C328 C335 1.409 . S
C329 H321 0.930 . S
C329 C327 1.419 . S
C329 C330 1.362 . S
C330 H322 0.930 . S
C330 C329 1.362 . S
C330 C333 1.409 . S
C331 H323 0.930 . S
C331 C332 1.355 . S
C331 C333 1.415 . S
C332 C331 1.355 . S
C332 C334 1.419 . S
C333 C328 1.425 . S
C333 C330 1.409 . S
C333 C331 1.415 . S
C334 H324 0.930 . S
C334 C332 1.419 . S
C334 C335 1.362 . S
C335 H325 0.930 . S
C335 C328 1.409 . S
C335 C334 1.362 . S
H336 C342 0.930 . S
H337 C345 0.930 . S
H338 C346 0.930 . S
H339 C347 0.930 . S
H340 C350 0.930 . S
H341 C351 0.930 . S
C342 H336 0.930 . S
C342 C343 1.355 . S
C342 C344 1.415 . S
C343 C342 1.355 . S
C343 C345 1.419 . S
C344 C342 1.415 . S
C344 C349 1.425 . S
C344 C351 1.409 . S
C345 H337 0.930 . S
C345 C343 1.419 . S
C345 C346 1.362 . S
C346 H338 0.930 . S
C346 C345 1.362 . S
C346 C349 1.409 . S
C347 H339 0.930 . S
C347 C348 1.355 . S
C347 C349 1.415 . S
C348 C347 1.355 . S
C348 C350 1.419 . S
C349 C344 1.425 . S
C349 C346 1.409 . S
C349 C347 1.415 . S
C350 H340 0.930 . S
C350 C348 1.419 . S
C350 C351 1.362 . S
C351 H341 0.930 . S
C351 C344 1.409 . S
C351 C350 1.362 . S
H352 C358 0.930 . S
H353 C361 0.930 . S
H354 C362 0.930 . S
H355 C363 0.930 . S
H356 C366 0.930 . S
H357 C367 0.930 . S
C358 H352 0.930 . S
C358 C359 1.355 . S
C358 C360 1.415 . S
C359 C358 1.355 . S
C359 C361 1.419 . S
C360 C358 1.415 . S
C360 C365 1.425 . S
C360 C367 1.409 . S
C361 H353 0.930 . S
C361 C359 1.419 . S
C361 C362 1.362 . S
C362 H354 0.930 . S
C362 C361 1.362 . S
C362 C365 1.409 . S
C363 H355 0.930 . S
C363 C364 1.355 . S
C363 C365 1.415 . S
C364 C363 1.355 . S
C364 C366 1.419 . S
C365 C360 1.425 . S
C365 C362 1.409 . S
C365 C363 1.415 . S
C366 H356 0.930 . S
C366 C364 1.419 . S
C366 C367 1.362 . S
C367 H357 0.930 . S
C367 C360 1.409 . S
C367 C366 1.362 . S
H368 C374 0.930 . S
H369 C377 0.930 . S
H370 C378 0.930 . S
H371 C379 0.930 . S
H372 C382 0.930 . S
H373 C383 0.930 . S
C374 H368 0.930 . S
C374 C375 1.355 . S
C374 C376 1.415 . S
C375 C374 1.355 . S
C375 C377 1.419 . S
C376 C374 1.415 . S
C376 C381 1.425 . S
C376 C383 1.409 . S
C377 H369 0.930 . S
C377 C375 1.419 . S
C377 C378 1.362 . S
C378 H370 0.930 . S
C378 C377 1.362 . S
C378 C381 1.409 . S
C379 H371 0.930 . S
C379 C380 1.355 . S
C379 C381 1.415 . S
C380 C379 1.355 . S
C380 C382 1.419 . S
C381 C376 1.425 . S
C381 C378 1.409 . S
C381 C379 1.415 . S
C382 H372 0.930 . S
C382 C380 1.419 . S
C382 C383 1.362 . S
C383 H373 0.930 . S
C383 C376 1.409 . S
C383 C382 1.362 . S
H384 C390 0.930 . S
H385 C393 0.930 . S
H386 C394 0.930 . S
H387 C395 0.930 . S
H388 C398 0.930 . S
H389 C399 0.930 . S
C390 H384 0.930 . S
C390 C391 1.355 . S
C390 C392 1.415 . S
C391 C390 1.355 . S
C391 C393 1.419 . S
C392 C390 1.415 . S
C392 C397 1.425 . S
C392 C399 1.409 . S
C393 H385 0.930 . S
C393 C391 1.419 . S
C393 C394 1.362 . S
C394 H386 0.930 . S
C394 C393 1.362 . S
C394 C397 1.409 . S
C395 H387 0.930 . S
C395 C396 1.355 . S
C395 C397 1.415 . S
C396 C395 1.355 . S
C396 C398 1.419 . S
C397 C392 1.425 . S
C397 C394 1.409 . S
C397 C395 1.415 . S
C398 H388 0.930 . S
C398 C396 1.419 . S
C398 C399 1.362 . S
C399 H389 0.930 . S
C399 C392 1.409 . S
C399 C398 1.362 . S
H400 C406 0.930 . S
H401 C409 0.930 . S
H402 C410 0.930 . S
H403 C411 0.930 . S
H404 C414 0.930 . S
H405 C415 0.930 . S
C406 H400 0.930 . S
C406 C407 1.355 . S
C406 C408 1.415 . S
C407 C406 1.355 . S
C407 C409 1.419 . S
C408 C406 1.415 . S
C408 C413 1.425 . S
C408 C415 1.409 . S
C409 H401 0.930 . S
C409 C407 1.419 . S
C409 C410 1.362 . S
C410 H402 0.930 . S
C410 C409 1.362 . S
C410 C413 1.409 . S
C411 H403 0.930 . S
C411 C412 1.355 . S
C411 C413 1.415 . S
C412 C411 1.355 . S
C412 C414 1.419 . S
C413 C408 1.425 . S
C413 C410 1.409 . S
C413 C411 1.415 . S
C414 H404 0.930 . S
C414 C412 1.419 . S
C414 C415 1.362 . S
C415 H405 0.930 . S
C415 C408 1.409 . S
C415 C414 1.362 . S
H416 C422 0.930 . S
H417 C425 0.930 . S
H418 C426 0.930 . S
H419 C427 0.930 . S
H420 C430 0.930 . S
H421 C431 0.930 . S
C422 H416 0.930 . S
C422 C423 1.355 . S
C422 C424 1.415 . S
C423 C422 1.355 . S
C423 C425 1.419 . S
C424 C422 1.415 . S
C424 C429 1.425 1_455 S
C424 C431 1.409 1_455 S
C425 H417 0.930 . S
C425 C423 1.419 . S
C425 C426 1.362 . S
C426 H418 0.930 . S
C426 C425 1.362 . S
C426 C429 1.409 1_455 S
C427 H419 0.930 . S
C427 C428 1.355 . S
C427 C429 1.415 . S
C428 C427 1.355 . S
C428 C430 1.419 . S
C429 C424 1.425 1_655 S
C429 C426 1.409 1_655 S
C429 C427 1.415 . S
C430 H420 0.930 . S
C430 C428 1.419 . S
C430 C431 1.362 . S
C431 H421 0.930 . S
C431 C424 1.409 1_655 S
C431 C430 1.362 . S
H432 C438 0.930 . S
H433 C441 0.930 . S
H434 C442 0.930 . S
H435 C443 0.930 . S
H436 C446 0.930 . S
H437 C447 0.930 . S
C438 H432 0.930 . S
C438 C439 1.355 . S
C438 C440 1.415 . S
C439 C438 1.355 . S
C439 C441 1.419 . S
C440 C438 1.415 . S
C440 C445 1.425 . S
C440 C447 1.409 . S
C441 H433 0.930 . S
C441 C439 1.419 . S
C441 C442 1.362 . S
C442 H434 0.930 . S
C442 C441 1.362 . S
C442 C445 1.409 . S
C443 H435 0.930 . S
C443 C444 1.355 . S
C443 C445 1.415 . S
C444 C443 1.355 . S
C444 C446 1.419 . S
C445 C440 1.425 . S
C445 C442 1.409 . S
C445 C443 1.415 . S
C446 H436 0.930 . S
C446 C444 1.419 . S
C446 C447 1.362 . S
C447 H437 0.930 . S
C447 C440 1.409 . S
C447 C446 1.362 . S
H448 C454 0.930 . S
H449 C457 0.930 . S
H450 C458 0.930 . S
H451 C459 0.930 . S
H452 C462 0.930 . S
H453 C463 0.930 . S
C454 H448 0.930 . S
C454 C455 1.355 . S
C454 C456 1.415 . S
C455 C454 1.355 . S
C455 C457 1.419 . S
C456 C454 1.415 . S
C456 C461 1.425 . S
C456 C463 1.409 . S
C457 H449 0.930 . S
C457 C455 1.419 . S
C457 C458 1.362 . S
C458 H450 0.930 . S
C458 C457 1.362 . S
C458 C461 1.409 . S
C459 H451 0.930 . S
C459 C460 1.355 . S
C459 C461 1.415 . S
C460 C459 1.355 . S
C460 C462 1.419 . S
C461 C456 1.425 . S
C461 C458 1.409 . S
C461 C459 1.415 . S
C462 H452 0.930 . S
C462 C460 1.419 . S
C462 C463 1.362 . S
C463 H453 0.930 . S
C463 C456 1.409 . S
C463 C462 1.362 . S
H464 C470 0.930 . S
H465 C473 0.930 . S
H466 C474 0.930 . S
H467 C475 0.930 . S
H468 C478 0.930 . S
H469 C479 0.930 . S
C470 H464 0.930 . S
C470 C471 1.355 . S
C470 C472 1.415 . S
C471 C470 1.355 . S
C471 C473 1.419 . S
C472 C470 1.415 . S
C472 C477 1.425 1_455 S
C472 C479 1.409 1_455 S
C473 H465 0.930 . S
C473 C471 1.419 . S
C473 C474 1.362 . S
C474 H466 0.930 . S
C474 C473 1.362 . S
C474 C477 1.409 1_455 S
C475 H467 0.930 . S
C475 C476 1.355 . S
C475 C477 1.415 . S
C476 C475 1.355 . S
C476 C478 1.419 . S
C477 C472 1.425 1_655 S
C477 C474 1.409 1_655 S
C477 C475 1.415 . S
C478 H468 0.930 . S
C478 C476 1.419 . S
C478 C479 1.362 . S
C479 H469 0.930 . S
C479 C472 1.409 1_655 S
C479 C478 1.362 . S
H480 C486 0.930 1_556 S
H481 C489 0.930 . S
H482 C490 0.930 . S
H483 C491 0.930 1_554 S
H484 C494 0.930 . S
H485 C495 0.930 . S
C486 H480 0.930 1_554 S
C486 C487 1.355 . S
C486 C488 1.415 1_554 S
C487 C486 1.355 . S
C487 C489 1.419 . S
C488 C486 1.415 1_556 S
C488 C493 1.425 1_556 S
C488 C495 1.409 . S
C489 H481 0.930 . S
C489 C487 1.419 . S
C489 C490 1.362 . S
C490 H482 0.930 . S
C490 C489 1.362 . S
C490 C493 1.409 . S
C491 H483 0.930 1_556 S
C491 C492 1.355 . S
C491 C493 1.415 1_556 S
C492 C491 1.355 . S
C492 C494 1.419 . S
C493 C488 1.425 1_554 S
C493 C490 1.409 . S
C493 C491 1.415 1_554 S
C494 H484 0.930 . S
C494 C492 1.419 . S
C494 C495 1.362 . S
C495 H485 0.930 . S
C495 C488 1.409 . S
C495 C494 1.362 . S
H496 C502 0.930 . S
H497 C505 0.930 . S
H498 C506 0.930 . S
H499 C507 0.930 . S
H500 C510 0.930 . S
H501 C511 0.930 . S
C502 H496 0.930 . S
C502 C503 1.355 . S
C502 C504 1.415 . S
C503 C502 1.355 . S
C503 C505 1.419 . S
C504 C502 1.415 . S
C504 C509 1.425 . S
C504 C511 1.409 . S
C505 H497 0.930 . S
C505 C503 1.419 . S
C505 C506 1.362 . S
C506 H498 0.930 . S
C506 C505 1.362 . S
C506 C509 1.409 . S
C507 H499 0.930 . S
C507 C508 1.355 . S
C507 C509 1.415 . S
C508 C507 1.355 . S
C508 C510 1.419 . S
C509 C504 1.425 . S
C509 C506 1.409 . S
C509 C507 1.415 . S
C510 H500 0.930 . S
C510 C508 1.419 . S
C510 C511 1.362 . S
C511 H501 0.930 . S
C511 C504 1.409 . S
C511 C510 1.362 . S
H512 C518 0.930 . S
H513 C521 0.930 . S
H514 C522 0.930 . S
H515 C523 0.930 . S
H516 C526 0.930 . S
H517 C527 0.930 . S
C518 H512 0.930 . S
C518 C519 1.355 . S
C518 C520 1.415 . S
C519 C518 1.355 . S
C519 C521 1.419 . S
C520 C518 1.415 . S
C520 C525 1.425 . S
C520 C527 1.409 . S
C521 H513 0.930 . S
C521 C519 1.419 . S
C521 C522 1.362 . S
C522 H514 0.930 . S
C522 C521 1.362 . S
C522 C525 1.409 . S
C523 H515 0.930 . S
C523 C524 1.355 . S
C523 C525 1.415 . S
C524 C523 1.355 . S
C524 C526 1.419 . S
C525 C520 1.425 . S
C525 C522 1.409 . S
C525 C523 1.415 . S
C526 H516 0.930 . S
C526 C524 1.419 . S
C526 C527 1.362 . S
C527 H517 0.930 . S
C527 C520 1.409 . S
C527 C526 1.362 . S
H528 C534 0.930 . S
H529 C537 0.930 . S
H530 C538 0.930 . S
H531 C539 0.930 . S
H532 C542 0.930 . S
H533 C543 0.930 . S
C534 H528 0.930 . S
C534 C535 1.355 . S
C534 C536 1.415 . S
C535 C534 1.355 . S
C535 C537 1.419 . S
C536 C534 1.415 . S
C536 C541 1.425 . S
C536 C543 1.409 . S
C537 H529 0.930 . S
C537 C535 1.419 . S
C537 C538 1.362 . S
C538 H530 0.930 . S
C538 C537 1.362 . S
C538 C541 1.409 . S
C539 H531 0.930 . S
C539 C540 1.355 . S
C539 C541 1.415 . S
C540 C539 1.355 . S
C540 C542 1.419 . S
C541 C536 1.425 . S
C541 C538 1.409 . S
C541 C539 1.415 . S
C542 H532 0.930 . S
C542 C540 1.419 . S
C542 C543 1.362 . S
C543 H533 0.930 . S
C543 C536 1.409 . S
C543 C542 1.362 . S
H544 C550 0.930 . S
H545 C553 0.933 . S
H546 C554 0.930 . S
H547 C555 0.930 . S
H548 C558 0.933 . S
H549 C559 0.930 . S
C550 H544 0.930 . S
C550 C551 1.355 . S
C550 C552 1.415 . S
C551 C550 1.355 . S
C551 C553 1.419 . S
C552 C550 1.415 . S
C552 C557 1.425 1_556 S
C552 C559 1.409 . S
C553 H545 0.933 . S
C553 C551 1.419 . S
C553 C554 1.362 1_556 S
C554 H546 0.930 . S
C554 C553 1.362 1_554 S
C554 C557 1.409 . S
C555 H547 0.930 . S
C555 C556 1.355 . S
C555 C557 1.415 . S
C556 C555 1.355 . S
C556 C558 1.419 . S
C557 C552 1.425 1_554 S
C557 C554 1.409 . S
C557 C555 1.415 . S
C558 H548 0.933 . S
C558 C556 1.419 . S
C558 C559 1.362 1_554 S
C559 H549 0.930 . S
C559 C552 1.409 . S
C559 C558 1.362 1_556 S
H560 C566 0.930 . S
H561 C569 0.930 . S
H562 C570 0.930 . S
H563 C571 0.930 . S
H564 C574 0.930 . S
H565 C575 0.930 . S
C566 H560 0.930 . S
C566 C567 1.355 . S
C566 C568 1.415 . S
C567 C566 1.355 . S
C567 C569 1.419 . S
C568 C566 1.415 . S
C568 C573 1.425 . S
C568 C575 1.409 . S
C569 H561 0.930 . S
C569 C567 1.419 . S
C569 C570 1.362 . S
C570 H562 0.930 . S
C570 C569 1.362 . S
C570 C573 1.409 . S
C571 H563 0.930 . S
C571 C572 1.355 . S
C571 C573 1.415 . S
C572 C571 1.355 . S
C572 C574 1.419 . S
C573 C568 1.425 . S
C573 C570 1.409 . S
C573 C571 1.415 . S
C574 H564 0.930 . S
C574 C572 1.419 . S
C574 C575 1.362 . S
C575 H565 0.930 . S
C575 C568 1.409 . S
C575 C574 1.362 . S
H576 C582 0.930 . S
H577 C585 0.930 . S
H578 C586 0.930 . S
H579 C587 0.930 . S
H580 C590 0.930 . S
H581 C591 0.930 . S
C582 H576 0.930 . S
C582 C583 1.355 . S
C582 C584 1.415 . S
C583 C582 1.355 . S
C583 C585 1.419 . S
C584 C582 1.415 . S
C584 C589 1.425 . S
C584 C591 1.409 . S
C585 H577 0.930 . S
C585 C583 1.419 . S
C585 C586 1.362 . S
C586 H578 0.930 . S
C586 C585 1.362 . S
C586 C589 1.409 . S
C587 H579 0.930 . S
C587 C588 1.355 . S
C587 C589 1.415 . S
C588 C587 1.355 . S
C588 C590 1.419 . S
C589 C584 1.425 . S
C589 C586 1.409 . S
C589 C587 1.415 . S
C590 H580 0.930 . S
C590 C588 1.419 . S
C590 C591 1.362 . S
C591 H581 0.930 . S
C591 C584 1.409 . S
C591 C590 1.362 . S
H592 C598 0.930 . S
H593 C601 0.930 . S
H594 C602 0.930 . S
H595 C603 0.930 . S
H596 C606 0.930 . S
H597 C607 0.930 . S
C598 H592 0.930 . S
C598 C599 1.355 . S
C598 C600 1.415 . S
C599 C598 1.355 . S
C599 C601 1.419 . S
C600 C598 1.415 . S
C600 C605 1.425 . S
C600 C607 1.409 . S
C601 H593 0.930 . S
C601 C599 1.419 . S
C601 C602 1.362 . S
C602 H594 0.930 . S
C602 C601 1.362 . S
C602 C605 1.409 . S
C603 H595 0.930 . S
C603 C604 1.355 . S
C603 C605 1.415 . S
C604 C603 1.355 . S
C604 C606 1.419 . S
C605 C600 1.425 . S
C605 C602 1.409 . S
C605 C603 1.415 . S
C606 H596 0.930 . S
C606 C604 1.419 . S
C606 C607 1.362 . S
C607 H597 0.930 . S
C607 C600 1.409 . S
C607 C606 1.362 . S
H608 C614 0.930 . S
H609 C617 0.930 . S
H610 C618 0.930 . S
H611 C619 0.930 . S
H612 C622 0.930 . S
H613 C623 0.930 . S
C614 H608 0.930 . S
C614 C615 1.355 . S
C614 C616 1.415 . S
C615 C614 1.355 . S
C615 C617 1.419 . S
C616 C614 1.415 . S
C616 C621 1.425 1_545 S
C616 C623 1.409 . S
C617 H609 0.930 . S
C617 C615 1.419 . S
C617 C618 1.362 1_545 S
C618 H610 0.930 . S
C618 C617 1.362 1_565 S
C618 C621 1.409 . S
C619 H611 0.930 . S
C619 C620 1.355 . S
C619 C621 1.415 . S
C620 C619 1.355 . S
C620 C622 1.419 . S
C621 C616 1.425 1_565 S
C621 C618 1.409 . S
C621 C619 1.415 . S
C622 H612 0.930 . S
C622 C620 1.419 . S
C622 C623 1.362 1_565 S
C623 H613 0.930 . S
C623 C616 1.409 . S
C623 C622 1.362 1_545 S
H624 C630 0.930 . S
H625 C633 0.930 . S
H626 C634 0.930 . S
H627 C635 0.930 . S
H628 C638 0.930 . S
H629 C639 0.930 . S
C630 H624 0.930 . S
C630 C631 1.355 . S
C630 C632 1.415 . S
C631 C630 1.355 . S
C631 C633 1.419 . S
C632 C630 1.415 . S
C632 C637 1.425 . S
C632 C639 1.409 . S
C633 H625 0.930 . S
C633 C631 1.419 . S
C633 C634 1.362 . S
C634 H626 0.930 . S
C634 C633 1.362 . S
C634 C637 1.409 . S
C635 H627 0.930 . S
C635 C636 1.355 . S
C635 C637 1.415 . S
C636 C635 1.355 . S
C636 C638 1.419 . S
C637 C632 1.425 . S
C637 C634 1.409 . S
C637 C635 1.415 . S
C638 H628 0.930 . S
C638 C636 1.419 . S
C638 C639 1.362 . S
C639 H629 0.930 . S
C639 C632 1.409 . S
C639 C638 1.362 . S
H640 C646 0.930 . S
H641 C649 0.930 1_554 S
H642 C650 0.930 . S
H643 C651 0.930 . S
H644 C654 0.930 1_556 S
H645 C655 0.930 . S
C646 H640 0.930 . S
C646 C647 1.355 . S
C646 C648 1.415 1_545 S
C647 C646 1.355 . S
C647 C649 1.419 . S
C648 C646 1.415 1_565 S
C648 C653 1.425 1_566 S
C648 C655 1.409 . S
C649 H641 0.930 1_556 S
C649 C647 1.419 . S
C649 C650 1.362 1_556 S
C650 H642 0.930 . S
C650 C649 1.362 1_554 S
C650 C653 1.409 . S
C651 H643 0.930 . S
C651 C652 1.355 . S
C651 C653 1.415 1_565 S
C652 C651 1.355 . S
C652 C654 1.419 . S
C653 C648 1.425 1_544 S
C653 C650 1.409 . S
C653 C651 1.415 1_545 S
C654 H644 0.930 1_554 S
C654 C652 1.419 . S
C654 C655 1.362 1_554 S
C655 H645 0.930 . S
C655 C648 1.409 . S
C655 C654 1.362 1_556 S
H656 C662 0.930 . S
H657 C665 0.930 . S
H658 C666 0.930 . S
H659 C667 0.930 . S
H660 C670 0.930 . S
H661 C671 0.930 . S
C662 H656 0.930 . S
C662 C663 1.355 . S
C662 C664 1.415 . S
C663 C662 1.355 . S
C663 C665 1.419 . S
C664 C662 1.415 . S
C664 C669 1.425 . S
C664 C671 1.409 . S
C665 H657 0.930 . S
C665 C663 1.419 . S
C665 C666 1.362 . S
C666 H658 0.930 . S
C666 C665 1.362 . S
C666 C669 1.409 . S
C667 H659 0.930 . S
C667 C668 1.355 . S
C667 C669 1.415 . S
C668 C667 1.355 . S
C668 C670 1.419 . S
C669 C664 1.425 . S
C669 C666 1.409 . S
C669 C667 1.415 . S
C670 H660 0.930 . S
C670 C668 1.419 . S
C670 C671 1.362 . S
C671 H661 0.930 . S
C671 C664 1.409 . S
C671 C670 1.362 . S
H672 C678 0.930 . S
H673 C681 0.930 . S
H674 C682 0.930 . S
H675 C683 0.930 . S
H676 C686 0.930 . S
H677 C687 0.930 . S
C678 H672 0.930 . S
C678 C679 1.355 . S
C678 C680 1.415 . S
C679 C678 1.355 . S
C679 C681 1.419 . S
C680 C678 1.415 . S
C680 C685 1.425 1_545 S
C680 C687 1.409 . S
C681 H673 0.930 . S
C681 C679 1.419 . S
C681 C682 1.362 1_545 S
C682 H674 0.930 . S
C682 C681 1.362 1_565 S
C682 C685 1.409 . S
C683 H675 0.930 . S
C683 C684 1.355 . S
C683 C685 1.415 . S
C684 C683 1.355 . S
C684 C686 1.419 . S
C685 C680 1.425 1_565 S
C685 C682 1.409 . S
C685 C683 1.415 . S
C686 H676 0.930 . S
C686 C684 1.419 . S
C686 C687 1.362 1_565 S
C687 H677 0.930 . S
C687 C680 1.409 . S
C687 C686 1.362 1_545 S
H688 C694 0.930 . S
H689 C697 0.930 . S
H690 C698 0.930 . S
H691 C699 0.930 . S
H692 C702 0.930 . S
H693 C703 0.930 . S
C694 H688 0.930 . S
C694 C695 1.355 . S
C694 C696 1.415 . S
C695 C694 1.355 . S
C695 C697 1.419 . S
C696 C694 1.415 . S
C696 C701 1.425 . S
C696 C703 1.409 . S
C697 H689 0.930 . S
C697 C695 1.419 . S
C697 C698 1.362 . S
C698 H690 0.930 . S
C698 C697 1.362 . S
C698 C701 1.409 . S
C699 H691 0.930 . S
C699 C700 1.355 . S
C699 C701 1.415 . S
C700 C699 1.355 . S
C700 C702 1.419 . S
C701 C696 1.425 . S
C701 C698 1.409 . S
C701 C699 1.415 . S
C702 H692 0.930 . S
C702 C700 1.419 . S
C702 C703 1.362 . S
C703 H693 0.930 . S
C703 C696 1.409 . S
C703 C702 1.362 . S
H704 C710 0.930 . S
H705 C713 0.930 . S
H706 C714 0.930 . S
H707 C715 0.930 . S
H708 C718 0.930 . S
H709 C719 0.930 . S
C710 H704 0.930 . S
C710 C711 1.355 . S
C710 C712 1.415 1_554 S
C711 C710 1.355 . S
C711 C713 1.419 . S
C712 C710 1.415 1_556 S
C712 C717 1.425 1_566 S
C712 C719 1.409 . S
C713 H705 0.930 . S
C713 C711 1.419 . S
C713 C714 1.362 1_565 S
C714 H706 0.930 . S
C714 C713 1.362 1_545 S
C714 C717 1.409 . S
C715 H707 0.930 . S
C715 C716 1.355 . S
C715 C717 1.415 1_556 S
C716 C715 1.355 . S
C716 C718 1.419 . S
C717 C712 1.425 1_544 S
C717 C714 1.409 . S
C717 C715 1.415 1_554 S
C718 H708 0.930 . S
C718 C716 1.419 . S
C718 C719 1.362 1_545 S
C719 H709 0.930 . S
C719 C712 1.409 . S
C719 C718 1.362 1_565 S
H720 C726 0.930 . S
H721 C729 0.930 . S
H722 C730 0.930 . S
H723 C731 0.930 . S
H724 C734 0.930 . S
H725 C735 0.930 . S
C726 H720 0.930 . S
C726 C727 1.355 . S
C726 C728 1.415 . S
C727 C726 1.355 . S
C727 C729 1.419 . S
C728 C726 1.415 . S
C728 C733 1.425 . S
C728 C735 1.409 . S
C729 H721 0.930 . S
C729 C727 1.419 . S
C729 C730 1.362 . S
C730 H722 0.930 . S
C730 C729 1.362 . S
C730 C733 1.409 . S
C731 H723 0.930 . S
C731 C732 1.355 . S
C731 C733 1.415 . S
C732 C731 1.355 . S
C732 C734 1.419 . S
C733 C728 1.425 . S
C733 C730 1.409 . S
C733 C731 1.415 . S
C734 H724 0.930 . S
C734 C732 1.419 . S
C734 C735 1.362 . S
C735 H725 0.930 . S
C735 C728 1.409 . S
C735 C734 1.362 . S
C231 C163 1.436 . S
C236 C8 1.415 . S
C247 C219 1.415 . S
C252 C23 1.435 . S
C263 C36 1.451 . S
C268 C134 1.399 . S
C279 C191 1.412 . S
C284 C50 1.438 . S
C295 C64 1.406 . S
C300 C190 1.445 . S
C311 C79 1.450 . S
C316 C162 1.400 . S
C327 C93 1.397 . S
C332 C218 1.453 . S
C343 C107 1.448 . S
C348 C135 1.402 . S
C359 C51 1.420 . S
C364 C120 1.431 . S
C375 C148 1.399 . S
C380 C22 1.452 . S
C391 C176 1.453 . S
C396 C78 1.397 . S
C407 C205 1.434 . S
C412 C106 1.416 . S
C423 C65 1.452 . S
C428 C121 1.398 . S
C439 C149 1.400 . S
C444 C92 1.450 . S
C455 C204 1.406 . S
C460 C37 1.445 . S
C471 C9 1.447 . S
C476 C177 1.404 . S
C487 C7 1.437 . S
C492 C63 1.451 . S
C503 C20 1.435 . S
C508 C76 1.414 . S
C519 C35 1.440 . S
C524 C90 1.452 . S
C535 C104 1.426 . S
C540 C49 1.407 . S
C551 C119 1.403 . S
C556 C175 1.415 . S
C567 C188 1.403 . S
C572 C132 1.407 . S
C583 C147 1.411 . S
C588 C202 1.432 . S
C599 C216 1.444 . S
C604 C161 1.423 . S
C615 C105 1.452 . S
C620 C21 1.439 . S
C631 C34 1.451 . S
C636 C62 1.437 . S
C647 C48 1.409 . S
C652 C77 1.403 . S
C663 C6 1.412 . S
C668 C91 1.433 . S
C679 C133 1.452 . S
C684 C217 1.447 . S
C695 C174 1.403 . S
C700 C146 1.413 . S
C711 C160 1.446 . S
C716 C189 1.452 . S
C727 C203 1.438 . S
C732 C118 1.452 . S
