# Generated by pormake.
# Topology skb, (5)-cn, num edge types: 1
# Building blocks:
#     Node 0, Type 0, BuildingBlock: BEQFEK_clean_sbu_0, # of connection points: 5
#     Node 1, Type 0, BuildingBlock: BEQFEK_clean_sbu_0, # of connection points: 5
#     Node 2, Type 0, BuildingBlock: BEQFEK_clean_sbu_0, # of connection points: 5
#     Node 3, Type 0, BuildingBlock: BEQFEK_clean_sbu_0, # of connection points: 5
#     Node 4, Type 0, BuildingBlock: BEQFEK_clean_sbu_0, # of connection points: 5
#     Node 5, Type 0, BuildingBlock: BEQFEK_clean_sbu_0, # of connection points: 5
#     Node 6, Type 0, BuildingBlock: BEQFEK_clean_sbu_0, # of connection points: 5
#     Node 7, Type 0, BuildingBlock: BEQFEK_clean_sbu_0, # of connection points: 5
#     Node 8, Type 0, BuildingBlock: BEQFEK_clean_sbu_0, # of connection points: 5
#     Node 9, Type 0, BuildingBlock: BEQFEK_clean_sbu_0, # of connection points: 5
#     Node 10, Type 0, BuildingBlock: BEQFEK_clean_sbu_0, # of connection points: 5
#     Node 11, Type 0, BuildingBlock: BEQFEK_clean_sbu_0, # of connection points: 5
#     Node 12, Type 0, BuildingBlock: BEQFEK_clean_sbu_0, # of connection points: 5
#     Node 13, Type 0, BuildingBlock: BEQFEK_clean_sbu_0, # of connection points: 5
#     Node 14, Type 0, BuildingBlock: BEQFEK_clean_sbu_0, # of connection points: 5
#     Node 15, Type 0, BuildingBlock: BEQFEK_clean_sbu_0, # of connection points: 5
#     Edge 16, Type (0, 0), BuildingBlock: MIFKUJ_clean_linker_0, # of connection points: 2
#     Edge 17, Type (0, 0), BuildingBlock: MIFKUJ_clean_linker_0, # of connection points: 2
#     Edge 18, Type (0, 0), BuildingBlock: MIFKUJ_clean_linker_0, # of connection points: 2
#     Edge 19, Type (0, 0), BuildingBlock: MIFKUJ_clean_linker_0, # of connection points: 2
#     Edge 20, Type (0, 0), BuildingBlock: MIFKUJ_clean_linker_0, # of connection points: 2
#     Edge 21, Type (0, 0), BuildingBlock: MIFKUJ_clean_linker_0, # of connection points: 2
#     Edge 22, Type (0, 0), BuildingBlock: MIFKUJ_clean_linker_0, # of connection points: 2
#     Edge 23, Type (0, 0), BuildingBlock: MIFKUJ_clean_linker_0, # of connection points: 2
#     Edge 24, Type (0, 0), BuildingBlock: MIFKUJ_clean_linker_0, # of connection points: 2
#     Edge 25, Type (0, 0), BuildingBlock: MIFKUJ_clean_linker_0, # of connection points: 2
#     Edge 26, Type (0, 0), BuildingBlock: MIFKUJ_clean_linker_0, # of connection points: 2
#     Edge 27, Type (0, 0), BuildingBlock: MIFKUJ_clean_linker_0, # of connection points: 2
#     Edge 28, Type (0, 0), BuildingBlock: MIFKUJ_clean_linker_0, # of connection points: 2
#     Edge 29, Type (0, 0), BuildingBlock: MIFKUJ_clean_linker_0, # of connection points: 2
#     Edge 30, Type (0, 0), BuildingBlock: MIFKUJ_clean_linker_0, # of connection points: 2
#     Edge 31, Type (0, 0), BuildingBlock: MIFKUJ_clean_linker_0, # of connection points: 2
#     Edge 32, Type (0, 0), BuildingBlock: MIFKUJ_clean_linker_0, # of connection points: 2
#     Edge 33, Type (0, 0), BuildingBlock: MIFKUJ_clean_linker_0, # of connection points: 2
#     Edge 34, Type (0, 0), BuildingBlock: MIFKUJ_clean_linker_0, # of connection points: 2
#     Edge 35, Type (0, 0), BuildingBlock: MIFKUJ_clean_linker_0, # of connection points: 2
#     Edge 36, Type (0, 0), BuildingBlock: MIFKUJ_clean_linker_0, # of connection points: 2
#     Edge 37, Type (0, 0), BuildingBlock: MIFKUJ_clean_linker_0, # of connection points: 2
#     Edge 38, Type (0, 0), BuildingBlock: MIFKUJ_clean_linker_0, # of connection points: 2
#     Edge 39, Type (0, 0), BuildingBlock: MIFKUJ_clean_linker_0, # of connection points: 2
#     Edge 40, Type (0, 0), BuildingBlock: MIFKUJ_clean_linker_0, # of connection points: 2
#     Edge 41, Type (0, 0), BuildingBlock: MIFKUJ_clean_linker_0, # of connection points: 2
#     Edge 42, Type (0, 0), BuildingBlock: MIFKUJ_clean_linker_0, # of connection points: 2
#     Edge 43, Type (0, 0), BuildingBlock: MIFKUJ_clean_linker_0, # of connection points: 2
#     Edge 44, Type (0, 0), BuildingBlock: MIFKUJ_clean_linker_0, # of connection points: 2
#     Edge 45, Type (0, 0), BuildingBlock: MIFKUJ_clean_linker_0, # of connection points: 2
#     Edge 46, Type (0, 0), BuildingBlock: MIFKUJ_clean_linker_0, # of connection points: 2
#     Edge 47, Type (0, 0), BuildingBlock: MIFKUJ_clean_linker_0, # of connection points: 2
#     Edge 48, Type (0, 0), BuildingBlock: MIFKUJ_clean_linker_0, # of connection points: 2
#     Edge 49, Type (0, 0), BuildingBlock: MIFKUJ_clean_linker_0, # of connection points: 2
#     Edge 50, Type (0, 0), BuildingBlock: MIFKUJ_clean_linker_0, # of connection points: 2
#     Edge 51, Type (0, 0), BuildingBlock: MIFKUJ_clean_linker_0, # of connection points: 2
#     Edge 52, Type (0, 0), BuildingBlock: MIFKUJ_clean_linker_0, # of connection points: 2
#     Edge 53, Type (0, 0), BuildingBlock: MIFKUJ_clean_linker_0, # of connection points: 2
#     Edge 54, Type (0, 0), BuildingBlock: MIFKUJ_clean_linker_0, # of connection points: 2
#     Edge 55, Type (0, 0), BuildingBlock: MIFKUJ_clean_linker_0, # of connection points: 2
# Relax obj value: 0.049
# Max RMSD: 0.094
# Mean RMSD: 0.094
data_MOF--net-skb--node1-BEQFEK_clean_sbu_0--edge1-MIFKUJ_clean_linker_0
_symmetry_space_group_name_H-M    P1
_symmetry_Int_Tables_number       1
_symmetry_cell_setting            triclinic
loop_
_symmetry_equiv_pos_as_xyz
'x, y, z'
_cell_length_a     51.671289
_cell_length_b     39.220314
_cell_length_c     94.620678
_cell_angle_alpha  89.963963
_cell_angle_beta   90.03482
_cell_angle_gamma 89.999232
loop_
_atom_site_label
_atom_site_type_symbol
_atom_site_fract_x
_atom_site_fract_y
_atom_site_fract_z
_atom_type_partial_charge
Co0 Co 0.1882 0.06295 0.10643 0.0
Co1 Co 0.18754 0.05828 0.13968 0.0
C2 C 0.20872 0.1196 0.12472 0.0
O3 O 0.20402 0.10653 0.11266 0.0
O4 O 0.20339 0.1037 0.13611 0.0
C5 C 0.21135 0.06742 0.07861 0.0
O6 O 0.23205 0.07749 0.08551 0.0
C7 C 0.20484 0.05866 0.16958 0.0
C8 C 0.17534 0.02549 0.17941 0.0
C9 C 0.19729 0.04443 0.18239 0.0
N10 N 0.18808 0.04852 0.15952 0.0
N11 N 0.17039 0.02895 0.16552 0.0
C12 C 0.2284 0.0797 0.16671 0.0
H13 H 0.23527 0.0753 0.15575 0.0
H14 H 0.24406 0.07358 0.17433 0.0
H15 H 0.22335 0.10707 0.16781 0.0
C16 C 0.21328 0.99544 0.10998 0.0
N17 N 0.20412 0.0249 0.11533 0.0
N18 N 0.20438 0.02313 0.12923 0.0
C19 C 0.214 0.99256 0.13315 0.0
C20 C 0.21982 0.97392 0.12108 0.0
C21 C 0.21463 0.98762 0.09452 0.0
H22 H 0.19534 0.99161 0.08964 0.0
H23 H 0.22845 0.00541 0.08944 0.0
H24 H 0.22129 0.96121 0.09247 0.0
O25 O 0.15077 0.06305 0.11087 0.0
O26 O 0.15048 0.05947 0.13428 0.0
H27 H 0.19416 0.97695 0.15184 0.0
H28 H 0.22424 0.95492 0.14906 0.0
C29 C 0.21435 0.97987 0.14807 0.0
H30 H 0.22424 0.99875 0.15492 0.0
H31 H 0.15508 0.0176 0.16008 0.0
O32 O 0.19102 0.05979 0.08549 0.0
C33 C 0.13854 0.06132 0.12253 0.0
Co34 Co 0.8109 0.02685 0.10677 0.0
Co35 Co 0.8127 0.02805 0.1401 0.0
C36 C 0.79313 0.96708 0.12406 0.0
O37 O 0.7969 0.98161 0.11219 0.0
O38 O 0.79833 0.98218 0.13564 0.0
C39 C 0.78818 0.0215 0.07888 0.0
O40 O 0.76908 0.00625 0.08551 0.0
C41 C 0.79419 0.02819 0.16993 0.0
C42 C 0.82808 0.05077 0.18065 0.0
C43 C 0.80355 0.03784 0.18319 0.0
N44 N 0.81237 0.03538 0.16016 0.0
N45 N 0.83253 0.04885 0.16669 0.0
C46 C 0.76901 0.01121 0.16655 0.0
H47 H 0.76985 0.99849 0.15612 0.0
H48 H 0.75352 0.03077 0.16608 0.0
H49 H 0.76399 0.99228 0.17483 0.0
C50 C 0.78347 0.09196 0.11172 0.0
N51 N 0.79386 0.06268 0.11652 0.0
N52 N 0.7947 0.06353 0.13043 0.0
C53 C 0.785 0.0936 0.1349 0.0
C54 C 0.77758 0.11264 0.12318 0.0
C55 C 0.78043 0.10048 0.09638 0.0
H56 H 0.79974 0.1008 0.09125 0.0
H57 H 0.76862 0.08048 0.09122 0.0
H58 H 0.77075 0.12542 0.09479 0.0
O59 O 0.84847 0.02888 0.11095 0.0
O60 O 0.84954 0.02912 0.1344 0.0
H61 H 0.80649 0.10314 0.15382 0.0
H62 H 0.78022 0.13259 0.15102 0.0
C63 C 0.78636 0.10565 0.1499 0.0
H64 H 0.77376 0.08935 0.15656 0.0
H65 H 0.84943 0.05665 0.16159 0.0
O66 O 0.8074 0.0324 0.08595 0.0
C67 C 0.86108 0.02961 0.12251 0.0
Co68 Co 0.18641 0.02879 0.89953 0.0
Co69 Co 0.18512 0.03096 0.86625 0.0
C70 C 0.20536 0.97006 0.88188 0.0
O71 O 0.20108 0.98409 0.8938 0.0
O72 O 0.20024 0.98541 0.87034 0.0
C73 C 0.20973 0.02486 0.92733 0.0
O74 O 0.22998 0.01309 0.9205 0.0
C75 C 0.2032 0.02931 0.83658 0.0
C76 C 0.17294 0.05993 0.82601 0.0
C77 C 0.19569 0.04224 0.82353 0.0
N78 N 0.18568 0.03902 0.8463 0.0
N79 N 0.16753 0.057 0.83986 0.0
C80 C 0.22744 0.01021 0.84001 0.0
H81 H 0.23326 0.01507 0.85113 0.0
H82 H 0.24335 0.01763 0.83276 0.0
H83 H 0.22379 0.98249 0.83878 0.0
C84 C 0.21299 0.09492 0.89498 0.0
N85 N 0.20306 0.06546 0.89006 0.0
N86 N 0.20274 0.06638 0.87614 0.0
C87 C 0.21257 0.09647 0.87178 0.0
C88 C 0.21929 0.11563 0.88358 0.0
C89 C 0.21527 0.10355 0.91034 0.0
H90 H 0.22829 0.08487 0.9155 0.0
H91 H 0.22333 0.12942 0.91204 0.0
H92 H 0.19597 0.10159 0.91542 0.0
O93 O 0.14888 0.03006 0.89523 0.0
O94 O 0.14817 0.03127 0.87178 0.0
H95 H 0.19177 0.10931 0.85302 0.0
H96 H 0.22075 0.134 0.85546 0.0
C97 C 0.2121 0.10835 0.85674 0.0
H98 H 0.2228 0.08993 0.85006 0.0
H99 H 0.15164 0.06779 0.84499 0.0
O100 O 0.18963 0.03331 0.92041 0.0
C101 C 0.13644 0.03108 0.88361 0.0
Co102 Co 0.80945 0.06594 0.90012 0.0
Co103 Co 0.81018 0.06243 0.86689 0.0
C104 C 0.78975 0.12368 0.88206 0.0
O105 O 0.79438 0.11014 0.89405 0.0
O106 O 0.79475 0.10797 0.8706 0.0
C107 C 0.78564 0.06824 0.92782 0.0
O108 O 0.76445 0.07601 0.92083 0.0
C109 C 0.79227 0.0629 0.83716 0.0
C110 C 0.82238 0.03143 0.82694 0.0
C111 C 0.79981 0.04935 0.82424 0.0
N112 N 0.80961 0.05335 0.84702 0.0
N113 N 0.82767 0.03483 0.84079 0.0
C114 C 0.76814 0.08246 0.84037 0.0
H115 H 0.76214 0.07805 0.85148 0.0
H116 H 0.75226 0.07502 0.83309 0.0
H117 H 0.77204 0.11008 0.83898 0.0
C118 C 0.78364 0.99892 0.89617 0.0
N119 N 0.79309 0.02846 0.89103 0.0
N120 N 0.79287 0.02726 0.87712 0.0
C121 C 0.78294 0.99705 0.87298 0.0
C122 C 0.77683 0.97806 0.88492 0.0
C123 C 0.78242 0.99027 0.91157 0.0
H124 H 0.76771 0.00665 0.9167 0.0
H125 H 0.7769 0.96332 0.91339 0.0
H126 H 0.80142 0.99548 0.91659 0.0
O127 O 0.84689 0.06509 0.89578 0.0
O128 O 0.84724 0.06285 0.87235 0.0
H129 H 0.77325 0.95962 0.8569 0.0
H130 H 0.77222 0.00364 0.85132 0.0
C131 C 0.78264 0.98489 0.85799 0.0
H132 H 0.80281 0.9829 0.8541 0.0
H133 H 0.84342 0.02404 0.84606 0.0
O134 O 0.80644 0.0627 0.92103 0.0
C135 C 0.85915 0.06374 0.88413 0.0
Co136 Co 0.18967 0.56171 0.60635 0.0
Co137 Co 0.18837 0.55867 0.63967 0.0
C138 C 0.20892 0.61978 0.62442 0.0
O139 O 0.20461 0.60609 0.61243 0.0
O140 O 0.20366 0.60421 0.6359 0.0
C141 C 0.21348 0.56481 0.57856 0.0
O142 O 0.23416 0.57502 0.58545 0.0
C143 C 0.20441 0.56054 0.66982 0.0
C144 C 0.17623 0.52475 0.67923 0.0
C145 C 0.19716 0.54535 0.6825 0.0
N146 N 0.18848 0.54932 0.65956 0.0
N147 N 0.17155 0.52822 0.66532 0.0
C148 C 0.22719 0.58323 0.66726 0.0
H149 H 0.23472 0.57937 0.6564 0.0
H150 H 0.24276 0.57824 0.67508 0.0
H151 H 0.22097 0.61019 0.6683 0.0
C152 C 0.2154 0.4949 0.61063 0.0
N153 N 0.20593 0.52455 0.61565 0.0
N154 N 0.20601 0.52363 0.62957 0.0
C155 C 0.21591 0.4935 0.63382 0.0
C156 C 0.22199 0.47422 0.62198 0.0
C157 C 0.21472 0.48495 0.59536 0.0
H158 H 0.19594 0.49257 0.59064 0.0
H159 H 0.23035 0.49861 0.58967 0.0
H160 H 0.21746 0.45712 0.59393 0.0
O161 O 0.15219 0.56076 0.61051 0.0
O162 O 0.1514 0.55878 0.63395 0.0
H163 H 0.19895 0.47591 0.65307 0.0
H164 H 0.23121 0.46 0.64996 0.0
C165 C 0.21837 0.48255 0.64891 0.0
H166 H 0.2264 0.50371 0.65531 0.0
H167 H 0.15704 0.51568 0.65967 0.0
O168 O 0.19303 0.55777 0.58544 0.0
C169 C 0.13971 0.55947 0.6221 0.0
Co170 Co 0.81191 0.52609 0.60695 0.0
Co171 Co 0.81451 0.52698 0.64023 0.0
C172 C 0.79253 0.46733 0.62419 0.0
O173 O 0.79663 0.48149 0.61228 0.0
O174 O 0.79835 0.48227 0.63572 0.0
C175 C 0.79021 0.52019 0.57871 0.0
O176 O 0.77176 0.50277 0.58497 0.0
C177 C 0.79475 0.53015 0.66962 0.0
C178 C 0.83112 0.53775 0.68151 0.0
C179 C 0.80471 0.53343 0.6832 0.0
N180 N 0.81443 0.53254 0.66035 0.0
N181 N 0.83606 0.53726 0.66755 0.0
C182 C 0.76743 0.52222 0.66555 0.0
H183 H 0.76634 0.51402 0.65434 0.0
H184 H 0.75534 0.54534 0.66689 0.0
H185 H 0.75951 0.50205 0.67256 0.0
C186 C 0.78633 0.59237 0.61217 0.0
N187 N 0.79611 0.56267 0.61691 0.0
N188 N 0.79777 0.56378 0.6308 0.0
C189 C 0.78958 0.59459 0.6353 0.0
C190 C 0.78199 0.61373 0.62363 0.0
C191 C 0.78214 0.60039 0.59687 0.0
H192 H 0.77114 0.57935 0.59187 0.0
H193 H 0.7712 0.62447 0.59541 0.0
H194 H 0.80115 0.60237 0.59149 0.0
O195 O 0.84968 0.52601 0.61099 0.0
O196 O 0.8512 0.52627 0.63443 0.0
H197 H 0.79204 0.63539 0.6507 0.0
H198 H 0.77684 0.59669 0.65674 0.0
C199 C 0.79269 0.60715 0.65014 0.0
H200 H 0.81138 0.59823 0.65454 0.0
H201 H 0.85433 0.5395 0.66295 0.0
O202 O 0.80852 0.53246 0.58612 0.0
C203 C 0.86252 0.52618 0.62249 0.0
Co204 Co 0.18682 0.52881 0.3994 0.0
Co205 Co 0.18637 0.53117 0.36609 0.0
C206 C 0.20747 0.47096 0.3816 0.0
O207 O 0.2026 0.48476 0.39351 0.0
O208 O 0.20231 0.48619 0.37004 0.0
C209 C 0.21166 0.5303 0.42684 0.0
O210 O 0.23301 0.52565 0.41956 0.0
C211 C 0.20343 0.52951 0.33618 0.0
C212 C 0.17411 0.56275 0.3262 0.0
C213 C 0.19597 0.54354 0.32331 0.0
N214 N 0.18671 0.54001 0.34618 0.0
N215 N 0.16912 0.55961 0.34009 0.0
C216 C 0.22712 0.50885 0.33921 0.0
H217 H 0.23365 0.51314 0.35024 0.0
H218 H 0.24294 0.51543 0.33176 0.0
H219 H 0.22241 0.48141 0.33795 0.0
C220 C 0.21107 0.5968 0.39499 0.0
N221 N 0.20248 0.56655 0.39009 0.0
N222 N 0.20321 0.56687 0.37617 0.0
C223 C 0.21283 0.59704 0.37181 0.0
C224 C 0.21794 0.61711 0.38356 0.0
C225 C 0.20922 0.60775 0.41011 0.0
H226 H 0.19151 0.59702 0.415 0.0
H227 H 0.2263 0.59801 0.41596 0.0
H228 H 0.20878 0.63593 0.41109 0.0
O229 O 0.14938 0.52839 0.39504 0.0
O230 O 0.14931 0.53017 0.37158 0.0
H231 H 0.19698 0.61283 0.352 0.0
H232 H 0.22877 0.62984 0.3556 0.0
C233 C 0.21618 0.60705 0.35666 0.0
H234 H 0.22498 0.58569 0.3507 0.0
H235 H 0.15393 0.57132 0.34549 0.0
O236 O 0.19019 0.53255 0.42033 0.0
C237 C 0.13726 0.52921 0.38332 0.0
Co238 Co 0.80983 0.55872 0.39911 0.0
Co239 Co 0.81056 0.55773 0.36578 0.0
C240 C 0.79087 0.61826 0.38167 0.0
O241 O 0.79547 0.60391 0.39351 0.0
O242 O 0.79554 0.60316 0.37002 0.0
C243 C 0.78973 0.5681 0.42754 0.0
O244 O 0.77339 0.58932 0.42155 0.0
C245 C 0.79369 0.56097 0.33586 0.0
C246 C 0.82207 0.52648 0.32583 0.0
C247 C 0.80076 0.54675 0.32297 0.0
N248 N 0.81011 0.54955 0.34584 0.0
N249 N 0.82716 0.52923 0.33972 0.0
C250 C 0.77055 0.58267 0.33889 0.0
H251 H 0.76381 0.5784 0.34989 0.0
H252 H 0.75463 0.57707 0.33137 0.0
H253 H 0.77603 0.60989 0.33777 0.0
C254 C 0.78328 0.49294 0.39434 0.0
N255 N 0.79303 0.52259 0.38949 0.0
N256 N 0.79278 0.52234 0.37558 0.0
C257 C 0.78249 0.49262 0.37114 0.0
C258 C 0.77633 0.47286 0.38286 0.0
C259 C 0.78408 0.48254 0.40956 0.0
H260 H 0.80376 0.48717 0.41386 0.0
H261 H 0.77032 0.49855 0.41564 0.0
H262 H 0.77906 0.4553 0.41105 0.0
O263 O 0.84726 0.55715 0.39482 0.0
O264 O 0.8476 0.55724 0.37136 0.0
H265 H 0.79879 0.47629 0.35154 0.0
H266 H 0.76657 0.46028 0.35477 0.0
C267 C 0.77953 0.48267 0.35596 0.0
H268 H 0.77136 0.50429 0.34988 0.0
H269 H 0.842 0.51669 0.34511 0.0
O270 O 0.80634 0.55276 0.41994 0.0
C271 C 0.85951 0.55672 0.38315 0.0
Co272 Co 0.68773 0.05869 0.6071 0.0
Co273 Co 0.68844 0.05713 0.64039 0.0
C274 C 0.70814 0.11748 0.62466 0.0
O275 O 0.70295 0.10325 0.61288 0.0
O276 O 0.70375 0.10241 0.63635 0.0
C277 C 0.71209 0.05556 0.57953 0.0
O278 O 0.73383 0.05768 0.58669 0.0
C279 C 0.70445 0.05996 0.67056 0.0
C280 C 0.67737 0.02258 0.67989 0.0
C281 C 0.69761 0.04429 0.6832 0.0
N282 N 0.68894 0.04791 0.66027 0.0
N283 N 0.67266 0.02586 0.66598 0.0
C284 C 0.72646 0.08396 0.66806 0.0
H285 H 0.73445 0.08021 0.65729 0.0
H286 H 0.74196 0.0802 0.67604 0.0
H287 H 0.71925 0.11053 0.66887 0.0
C288 C 0.71276 0.99108 0.61157 0.0
N289 N 0.70408 0.02138 0.61637 0.0
N290 N 0.70565 0.02174 0.63027 0.0
C291 C 0.71617 0.99214 0.63469 0.0
C292 C 0.72077 0.97155 0.62303 0.0
C293 C 0.70984 0.97917 0.59662 0.0
H294 H 0.69252 0.99091 0.59172 0.0
H295 H 0.7272 0.98685 0.59051 0.0
H296 H 0.70803 0.95101 0.59608 0.0
O297 O 0.65048 0.0581 0.61164 0.0
O298 O 0.65119 0.05737 0.63509 0.0
H299 H 0.70298 0.9752 0.6549 0.0
H300 H 0.73556 0.96228 0.65071 0.0
C301 C 0.7213 0.98333 0.64982 0.0
H302 H 0.72889 0.00594 0.65548 0.0
H303 H 0.6586 0.01256 0.6603 0.0
O304 O 0.6907 0.05526 0.58617 0.0
C305 C 0.63875 0.05752 0.62346 0.0
Co306 Co 0.31212 0.02803 0.60727 0.0
Co307 Co 0.3115 0.03156 0.64056 0.0
C308 C 0.29179 0.97023 0.6251 0.0
O309 O 0.2969 0.98375 0.61316 0.0
O310 O 0.29627 0.98596 0.63663 0.0
C311 C 0.29066 0.02289 0.57898 0.0
O312 O 0.27015 0.0105 0.58537 0.0
C313 C 0.29397 0.0301 0.67044 0.0
C314 C 0.32218 0.06527 0.68023 0.0
C315 C 0.30089 0.04509 0.6832 0.0
N316 N 0.31043 0.04108 0.6604 0.0
N317 N 0.32737 0.06179 0.66638 0.0
C318 C 0.27124 0.00752 0.66762 0.0
H319 H 0.26409 0.01149 0.65668 0.0
H320 H 0.25544 0.01251 0.67529 0.0
H321 H 0.27737 0.98053 0.6687 0.0
C322 C 0.28576 0.09456 0.61085 0.0
N323 N 0.29526 0.06525 0.61617 0.0
N324 N 0.29448 0.06659 0.63008 0.0
C325 C 0.28413 0.09671 0.63402 0.0
C326 C 0.27842 0.11552 0.62196 0.0
C327 C 0.28493 0.10285 0.59541 0.0
H328 H 0.30462 0.10036 0.59085 0.0
H329 H 0.27214 0.08431 0.59 0.0
H330 H 0.27737 0.12887 0.5934 0.0
O331 O 0.34934 0.02894 0.61211 0.0
O332 O 0.34875 0.03108 0.63554 0.0
H333 H 0.30287 0.11326 0.6529 0.0
H334 H 0.27197 0.13308 0.64999 0.0
C335 C 0.28292 0.10893 0.64898 0.0
H336 H 0.27367 0.0892 0.65568 0.0
H337 H 0.3423 0.07399 0.66094 0.0
O338 O 0.31009 0.03197 0.58632 0.0
C339 C 0.36113 0.03021 0.62392 0.0
Co340 Co 0.68721 0.0271 0.39988 0.0
Co341 Co 0.68539 0.02883 0.36652 0.0
C342 C 0.70598 0.96819 0.38241 0.0
O343 O 0.70204 0.98238 0.39433 0.0
O344 O 0.70047 0.98334 0.37088 0.0
C345 C 0.70966 0.02093 0.42782 0.0
O346 O 0.72847 0.00511 0.42118 0.0
C347 C 0.70377 0.0297 0.33665 0.0
C348 C 0.6695 0.05148 0.326 0.0
C349 C 0.69419 0.03918 0.32342 0.0
N350 N 0.68557 0.0364 0.34646 0.0
N351 N 0.66518 0.04941 0.33998 0.0
C352 C 0.72921 0.01325 0.33993 0.0
H353 H 0.72863 1.00034 0.35033 0.0
H354 H 0.74444 0.03316 0.34039 0.0
H355 H 0.73443 0.99459 0.33159 0.0
C356 C 0.71322 0.09335 0.395 0.0
N357 N 0.70352 0.06369 0.39017 0.0
N358 N 0.70279 0.06459 0.37626 0.0
C359 C 0.71191 0.09498 0.37181 0.0
C360 C 0.71879 0.11426 0.38355 0.0
C361 C 0.71584 0.10198 0.41034 0.0
H362 H 0.72755 0.08206 0.41565 0.0
H363 H 0.72537 0.12702 0.41195 0.0
H364 H 0.69639 0.10221 0.41531 0.0
O365 O 0.64959 0.0277 0.3957 0.0
O366 O 0.64857 0.029 0.37226 0.0
H367 H 0.71627 0.13403 0.35566 0.0
H368 H 0.72318 0.09091 0.35016 0.0
C369 C 0.71042 0.10699 0.35681 0.0
H370 H 0.69031 0.10412 0.3529 0.0
H371 H 0.64821 0.05676 0.34511 0.0
O372 O 0.69067 0.03254 0.42073 0.0
C373 C 0.637 0.0286 0.38413 0.0
Co374 Co 0.30915 0.06164 0.39914 0.0
Co375 Co 0.3113 0.05957 0.36581 0.0
C376 C 0.29093 0.12061 0.38133 0.0
O377 O 0.29494 0.10657 0.39329 0.0
O378 O 0.29618 0.10521 0.36981 0.0
C379 C 0.29348 0.07585 0.42814 0.0
O380 O 0.28239 0.10311 0.42281 0.0
C381 C 0.29412 0.06128 0.33595 0.0
C382 C 0.32434 0.02994 0.32575 0.0
C383 C 0.30189 0.04806 0.323 0.0
N384 N 0.31123 0.05135 0.34587 0.0
N385 N 0.32936 0.03293 0.33965 0.0
C386 C 0.26998 0.08088 0.33909 0.0
H387 H 0.26373 0.07619 0.35014 0.0
H388 H 0.25425 0.07375 0.33166 0.0
H389 H 0.27401 0.10852 0.33786 0.0
C390 C 0.28196 0.99645 0.39441 0.0
N391 N 0.29246 0.02552 0.38948 0.0
N392 N 0.29328 0.02431 0.37558 0.0
C393 C 0.28334 0.99427 0.37124 0.0
C394 C 0.27595 0.97553 0.38305 0.0
C395 C 0.27902 0.98831 0.40979 0.0
H396 H 0.29846 0.98506 0.41459 0.0
H397 H 0.26931 0.00988 0.4152 0.0
H398 H 0.26748 0.96479 0.41146 0.0
O399 O 0.34676 0.06003 0.39513 0.0
O400 O 0.34809 0.05918 0.37169 0.0
H401 H 0.30476 0.98075 0.35279 0.0
H402 H 0.27553 0.95644 0.355 0.0
C403 C 0.2843 0.98202 0.35627 0.0
H404 H 0.27399 1.0004 0.34937 0.0
H405 H 0.34496 0.02188 0.34496 0.0
O406 O 0.3054 0.05547 0.41997 0.0
C407 C 0.3595 0.05917 0.38362 0.0
Co408 Co 0.68729 0.55858 0.10643 0.0
Co409 Co 0.68678 0.55791 0.13975 0.0
C410 C 0.70821 0.61715 0.12391 0.0
O411 O 0.70312 0.6029 0.11212 0.0
O412 O 0.70317 0.60243 0.1356 0.0
C413 C 0.7121 0.55481 0.07891 0.0
O414 O 0.73378 0.5574 0.08609 0.0
C415 C 0.70284 0.56048 0.16988 0.0
C416 C 0.67346 0.52686 0.17956 0.0
C417 C 0.69503 0.54641 0.18267 0.0
N418 N 0.68659 0.54962 0.1597 0.0
N419 N 0.66895 0.52982 0.16561 0.0
C420 C 0.72642 0.58156 0.16712 0.0
H421 H 0.73352 0.57716 0.1562 0.0
H422 H 0.74196 0.57549 0.17482 0.0
H423 H 0.72133 0.60892 0.16819 0.0
C424 C 0.7113 0.49049 0.11151 0.0
N425 N 0.70275 0.52107 0.11607 0.0
N426 N 0.70351 0.52159 0.12999 0.0
C427 C 0.71318 0.49172 0.13467 0.0
C428 C 0.71824 0.47091 0.12315 0.0
C429 C 0.70936 0.47852 0.09652 0.0
H430 H 0.69217 0.48992 0.09134 0.0
H431 H 0.72693 0.48667 0.09069 0.0
H432 H 0.70797 0.45032 0.09593 0.0
O433 O 0.64984 0.55924 0.11066 0.0
O434 O 0.64978 0.55935 0.13411 0.0
H435 H 0.69782 0.47679 0.1547 0.0
H436 H 0.72981 0.46045 0.15118 0.0
C437 C 0.71687 0.48282 0.14992 0.0
H438 H 0.72541 0.50478 0.15561 0.0
H439 H 0.65407 0.5178 0.16006 0.0
O440 O 0.69067 0.55441 0.08551 0.0
C441 C 0.63772 0.55951 0.12237 0.0
Co442 Co 0.31057 0.52817 0.10681 0.0
Co443 Co 0.31086 0.53173 0.14012 0.0
C444 C 0.29145 0.46999 0.12494 0.0
O445 O 0.29609 0.48355 0.11295 0.0
O446 O 0.29604 0.4859 0.13642 0.0
C447 C 0.28747 0.52238 0.07897 0.0
O448 O 0.26762 0.50962 0.08584 0.0
C449 C 0.29432 0.53022 0.17017 0.0
C450 C 0.32199 0.56669 0.17958 0.0
C451 C 0.30123 0.54578 0.18282 0.0
N452 N 0.31029 0.54152 0.15995 0.0
N453 N 0.32692 0.56305 0.16571 0.0
C454 C 0.27181 0.50708 0.16758 0.0
H455 H 0.26447 0.5105 0.15664 0.0
H456 H 0.25604 0.51205 0.17527 0.0
H457 H 0.27826 0.48025 0.16881 0.0
C458 C 0.28414 0.5946 0.11064 0.0
N459 N 0.29369 0.56518 0.11585 0.0
N460 N 0.29317 0.56632 0.12976 0.0
C461 C 0.28286 0.59634 0.13381 0.0
C462 C 0.27701 0.61539 0.12186 0.0
C463 C 0.28523 0.60423 0.09533 0.0
H464 H 0.30439 0.59727 0.09091 0.0
H465 H 0.27022 0.58972 0.08949 0.0
H466 H 0.28189 0.63189 0.09371 0.0
O467 O 0.34795 0.52986 0.11123 0.0
O468 O 0.34796 0.53202 0.13467 0.0
H469 H 0.29886 0.61459 0.1532 0.0
H470 H 0.26647 0.62956 0.14969 0.0
C471 C 0.27971 0.60737 0.14884 0.0
H472 H 0.27179 0.58606 0.1552 0.0
H473 H 0.34138 0.57573 0.16008 0.0
O474 O 0.30733 0.53186 0.08588 0.0
C475 C 0.36005 0.5314 0.12295 0.0
Co476 Co 0.68705 0.53262 0.89904 0.0
Co477 Co 0.68541 0.53411 0.86573 0.0
C478 C 0.7068 0.47413 0.88143 0.0
O479 O 0.70233 0.48815 0.89333 0.0
O480 O 0.7014 0.48921 0.86986 0.0
C481 C 0.71092 0.52886 0.92676 0.0
O482 O 0.7308 0.5163 0.91985 0.0
C483 C 0.70319 0.534 0.83597 0.0
C484 C 0.66964 0.55757 0.82529 0.0
C485 C 0.69396 0.54391 0.82271 0.0
N486 N 0.68512 0.54152 0.84572 0.0
N487 N 0.6651 0.55546 0.83924 0.0
C488 C 0.72923 0.51989 0.83966 0.0
H489 H 0.73357 0.52441 0.851 0.0
H490 H 0.74447 0.53179 0.83304 0.0
H491 H 0.72926 0.49196 0.83779 0.0
C492 C 0.71238 0.59948 0.89411 0.0
N493 N 0.7029 0.56961 0.88934 0.0
N494 N 0.70249 0.57014 0.87542 0.0
C495 C 0.71179 0.60036 0.87091 0.0
C496 C 0.71834 0.61998 0.88259 0.0
C497 C 0.71235 0.60969 0.90936 0.0
H498 H 0.69353 0.60282 0.91422 0.0
H499 H 0.72778 0.59545 0.91498 0.0
H500 H 0.7157 0.63743 0.91072 0.0
O501 O 0.64941 0.53258 0.89498 0.0
O502 O 0.64862 0.5335 0.87153 0.0
H503 H 0.69326 0.6126 0.85134 0.0
H504 H 0.7231 0.63569 0.85438 0.0
C505 C 0.71314 0.61085 0.85572 0.0
H506 H 0.72385 0.59128 0.84965 0.0
H507 H 0.64836 0.56371 0.84437 0.0
O508 O 0.6908 0.53764 0.91992 0.0
C509 C 0.63693 0.53311 0.88337 0.0
Co510 Co 0.30958 0.56153 0.89963 0.0
Co511 Co 0.31021 0.55982 0.86629 0.0
C512 C 0.2894 0.61994 0.88186 0.0
O513 O 0.29422 0.6059 0.89373 0.0
O514 O 0.29441 0.60483 0.87026 0.0
C515 C 0.28489 0.55847 0.92721 0.0
O516 O 0.26315 0.56111 0.92008 0.0
C517 C 0.2934 0.56181 0.8363 0.0
C518 C 0.32264 0.52836 0.82642 0.0
C519 C 0.30089 0.54773 0.82345 0.0
N520 N 0.30999 0.55118 0.84635 0.0
N521 N 0.32754 0.53146 0.84032 0.0
C522 C 0.26977 0.58264 0.83924 0.0
H523 H 0.26315 0.57843 0.85026 0.0
H524 H 0.25396 0.57613 0.83176 0.0
H525 H 0.27458 0.61004 0.83796 0.0
C526 C 0.28503 0.49378 0.89499 0.0
N527 N 0.29375 0.52409 0.8902 0.0
N528 N 0.29308 0.52409 0.87628 0.0
C529 C 0.28329 0.49411 0.87181 0.0
C530 C 0.27805 0.47382 0.88348 0.0
C531 C 0.28702 0.48229 0.91004 0.0
H532 H 0.30438 0.49356 0.91509 0.0
H533 H 0.26959 0.49089 0.91588 0.0
H534 H 0.28818 0.4541 0.91081 0.0
O535 O 0.34697 0.56118 0.89537 0.0
O536 O 0.3473 0.56062 0.8719 0.0
H537 H 0.299 0.47857 0.85195 0.0
H538 H 0.26709 0.46191 0.85548 0.0
C539 C 0.27985 0.4845 0.85662 0.0
H540 H 0.2712 0.50611 0.85074 0.0
H541 H 0.34263 0.5196 0.84577 0.0
O542 O 0.30626 0.55789 0.92056 0.0
C543 C 0.35922 0.5608 0.8837 0.0
H544 H 0.21584 0.10192 0.19537 0.0
H545 H 0.23275 0.10671 0.21948 0.0
H546 H 0.22295 0.99824 0.2252 0.0
H547 H 0.20508 0.99378 0.20137 0.0
H548 H 0.20656 0.02746 0.24728 0.0
H549 H 0.28417 0.03961 0.21982 0.0
H550 H 0.3126 0.0645 0.20161 0.0
H551 H 0.30927 0.16157 0.22249 0.0
H552 H 0.28051 0.13735 0.24073 0.0
H553 H 0.2946 0.99732 0.30401 0.0
H554 H 0.27536 0.00137 0.2804 0.0
H555 H 0.26257 0.10898 0.28653 0.0
H556 H 0.28142 0.10492 0.31036 0.0
H557 H 0.28888 0.08569 0.25934 0.0
H558 H 0.21286 0.06876 0.288 0.0
H559 H 0.18691 0.03983 0.30628 0.0
H560 H 0.19046 0.94638 0.28274 0.0
H561 H 0.21681 0.97464 0.26442 0.0
C562 C 0.2177 0.07909 0.20173 0.0
C563 C 0.20947 0.0474 0.19648 0.0
C564 C 0.22736 0.08181 0.21552 0.0
C565 C 0.22948 0.05276 0.22419 0.0
C566 C 0.22147 0.02108 0.21881 0.0
C567 C 0.21137 0.01849 0.20516 0.0
C568 C 0.23926 0.05521 0.23898 0.0
C569 C 0.2247 0.03995 0.24983 0.0
C570 C 0.26265 0.07216 0.24249 0.0
C571 C 0.27995 0.08676 0.23155 0.0
C572 C 0.28933 0.06633 0.22047 0.0
C573 C 0.30553 0.0803 0.21015 0.0
C574 C 0.31267 0.11462 0.21087 0.0
C575 C 0.30368 0.13501 0.22193 0.0
C576 C 0.28744 0.12117 0.23227 0.0
C577 C 0.28751 0.02179 0.30036 0.0
C578 C 0.28918 0.05073 0.30905 0.0
C579 C 0.27655 0.02406 0.2869 0.0
C580 C 0.26753 0.05544 0.28178 0.0
C581 C 0.26939 0.08453 0.29035 0.0
C582 C 0.27991 0.08212 0.30397 0.0
C583 C 0.25635 0.05751 0.26739 0.0
C584 C 0.27065 0.07355 0.25669 0.0
C585 C 0.233 0.04075 0.26394 0.0
C586 C 0.21701 0.02375 0.2749 0.0
C587 C 0.20831 0.04197 0.28678 0.0
C588 C 0.19349 0.02571 0.29714 0.0
C589 C 0.18709 0.99127 0.29569 0.0
C590 C 0.19545 0.97305 0.28386 0.0
C591 C 0.21031 0.98918 0.27348 0.0
H592 H 0.17561 0.97873 0.30372 0.0
H593 H 0.32522 0.1254 0.20287 0.0
H594 H 0.75156 0.03982 0.19058 0.0
H595 H 0.73314 0.03651 0.21419 0.0
H596 H 0.80986 0.03061 0.23203 0.0
H597 H 0.8284 0.03145 0.20835 0.0
H598 H 0.78009 0.98949 0.24588 0.0
H599 H 0.77346 0.1061 0.23136 0.0
H600 H 0.76123 0.15384 0.21575 0.0
H601 H 0.68099 0.12753 0.22027 0.0
H602 H 0.69278 0.07931 0.23576 0.0
H603 H 0.74594 0.04361 0.31585 0.0
H604 H 0.76421 0.04026 0.29212 0.0
H605 H 0.68764 0.02872 0.27467 0.0
H606 H 0.66921 0.0308 0.29841 0.0
H607 H 0.71721 0.07794 0.26087 0.0
H608 H 0.72574 0.96128 0.27638 0.0
H609 H 0.73973 0.91579 0.29269 0.0
H610 H 0.81902 0.94566 0.28711 0.0
H611 H 0.80546 0.99168 0.27092 0.0
C612 C 0.76458 0.03666 0.19941 0.0
C613 C 0.79153 0.03511 0.19744 0.0
C614 C 0.75398 0.03549 0.21301 0.0
C615 C 0.77009 0.03374 0.22496 0.0
C616 C 0.79697 0.03191 0.22302 0.0
C617 C 0.80755 0.03262 0.20943 0.0
C618 C 0.75909 0.03446 0.2395 0.0
C619 C 0.76657 0.00909 0.24918 0.0
C620 C 0.7412 0.05978 0.24384 0.0
C621 C 0.73403 0.08888 0.2346 0.0
C622 C 0.75322 0.11035 0.22894 0.0
C623 C 0.74637 0.13751 0.22013 0.0
C624 C 0.72036 0.14365 0.21699 0.0
C625 C 0.70114 0.1227 0.2227 0.0
C626 C 0.70789 0.09547 0.2315 0.0
C627 C 0.73298 0.03927 0.30709 0.0
C628 C 0.7061 0.03651 0.30916 0.0
C629 C 0.74348 0.03779 0.29346 0.0
C630 C 0.7273 0.03392 0.28165 0.0
C631 C 0.70048 0.03164 0.28365 0.0
C632 C 0.69001 0.03282 0.29724 0.0
C633 C 0.7382 0.033 0.26714 0.0
C634 C 0.7307 0.05836 0.25751 0.0
C635 C 0.75636 0.00802 0.26293 0.0
C636 C 0.76455 0.98014 0.27255 0.0
C637 C 0.74614 0.95832 0.27872 0.0
C638 C 0.754 0.93241 0.28792 0.0
C639 C 0.78024 0.9279 0.29096 0.0
C640 C 0.79869 0.94922 0.28476 0.0
C641 C 0.79093 0.9752 0.27556 0.0
H642 H 0.78628 0.90784 0.2981 0.0
H643 H 0.71509 0.16469 0.21016 0.0
H644 H 0.28928 0.09616 0.70131 0.0
H645 H 0.2721 0.09154 0.72526 0.0
H646 H 0.26946 0.98196 0.72114 0.0
H647 H 0.28553 0.98681 0.69681 0.0
H648 H 0.22947 0.00088 0.73518 0.0
H649 H 0.31911 0.02504 0.73987 0.0
H650 H 0.36029 0.05514 0.73568 0.0
H651 H 0.32828 0.14673 0.75332 0.0
H652 H 0.28677 0.11732 0.75744 0.0
H653 H 0.21776 0.98591 0.81129 0.0
H654 H 0.23705 0.98204 0.78759 0.0
H655 H 0.22204 0.089 0.78092 0.0
H656 H 0.20247 0.09287 0.80443 0.0
H657 H 0.27395 0.06513 0.77328 0.0
H658 H 0.1827 0.03794 0.76675 0.0
H659 H 0.14326 0.00447 0.77154 0.0
H660 H 0.18203 0.91309 0.75827 0.0
H661 H 0.22184 0.946 0.7536 0.0
C662 C 0.2848 0.07112 0.70549 0.0
C663 C 0.28865 0.04185 0.69724 0.0
C664 C 0.27519 0.06844 0.71923 0.0
C665 C 0.27013 0.03631 0.72521 0.0
C666 C 0.27332 0.00702 0.71682 0.0
C667 C 0.28242 0.00979 0.70291 0.0
C668 C 0.26174 0.03357 0.74024 0.0
C669 C 0.23953 0.01447 0.74352 0.0
C670 C 0.27475 0.05124 0.75123 0.0
C671 C 0.29975 0.06902 0.74887 0.0
C672 C 0.3208 0.05166 0.74278 0.0
C673 C 0.34421 0.06859 0.74042 0.0
C674 C 0.34689 0.10284 0.74421 0.0
C675 C 0.32617 0.1202 0.75039 0.0
C676 C 0.30271 0.1034 0.75275 0.0
C677 C 0.21894 0.00864 0.80482 0.0
C678 C 0.20887 0.03977 0.8097 0.0
C679 C 0.22977 0.00635 0.79128 0.0
C680 C 0.23093 0.03525 0.78254 0.0
C681 C 0.22137 0.06646 0.78753 0.0
C682 C 0.21015 0.0686 0.80092 0.0
C683 C 0.24156 0.03316 0.76803 0.0
C684 C 0.2642 0.05129 0.7649 0.0
C685 C 0.22929 0.01404 0.75728 0.0
C686 C 0.20532 0.99435 0.76 0.0
C687 C 0.18288 0.01067 0.76498 0.0
C688 C 0.16045 0.99181 0.76765 0.0
C689 C 0.16017 0.95665 0.76525 0.0
C690 C 0.1823 0.94031 0.76015 0.0
C691 C 0.20479 0.95905 0.75748 0.0
H692 H 0.14278 0.9421 0.76732 0.0
H693 H 0.36503 0.11591 0.74238 0.0
H694 H 0.70995 0.99357 0.70137 0.0
H695 H 0.7264 0.99866 0.72546 0.0
H696 H 0.7264 0.10834 0.72151 0.0
H697 H 0.71095 0.1031 0.69706 0.0
H698 H 0.76687 0.09051 0.73569 0.0
H699 H 0.67759 0.06343 0.73985 0.0
H700 H 0.6371 0.03196 0.73538 0.0
H701 H 0.6706 0.94134 0.75313 0.0
H702 H 0.71144 0.97213 0.75753 0.0
H703 H 0.77798 0.10551 0.81167 0.0
H704 H 0.75903 0.10899 0.78788 0.0
H705 H 0.77423 0.00195 0.78161 0.0
H706 H 0.79337 0.99844 0.80524 0.0
H707 H 0.72293 0.02462 0.77349 0.0
H708 H 0.81372 0.05434 0.76752 0.0
H709 H 0.85263 0.08872 0.77249 0.0
H710 H 0.81287 0.17918 0.75894 0.0
H711 H 0.77357 0.14535 0.75409 0.0
C712 C 0.71366 0.01875 0.70562 0.0
C713 C 0.70926 0.04793 0.69738 0.0
C714 C 0.72287 0.02168 0.71943 0.0
C715 C 0.72702 0.05394 0.72549 0.0
C716 C 0.72325 0.08317 0.71712 0.0
C717 C 0.71451 0.08019 0.70315 0.0
C718 C 0.7351 0.05684 0.74056 0.0
C719 C 0.75693 0.07657 0.74397 0.0
C720 C 0.72225 0.03865 0.75146 0.0
C721 C 0.69765 0.02005 0.74893 0.0
C722 C 0.67638 0.03673 0.74272 0.0
C723 C 0.65336 0.01902 0.74021 0.0
C724 C 0.65129 0.98466 0.74395 0.0
C725 C 0.67223 0.96796 0.75024 0.0
C726 C 0.69531 0.98554 0.75276 0.0
C727 C 0.77689 0.08266 0.80529 0.0
C728 C 0.78688 0.05161 0.81032 0.0
C729 C 0.76627 0.08474 0.79169 0.0
C730 C 0.76528 0.05572 0.78302 0.0
C731 C 0.77477 0.0246 0.78816 0.0
C732 C 0.78575 0.02265 0.80162 0.0
C733 C 0.75486 0.05759 0.76844 0.0
C734 C 0.73258 0.03882 0.76518 0.0
C735 C 0.76697 0.07714 0.75777 0.0
C736 C 0.79063 0.09739 0.76061 0.0
C737 C 0.8132 0.08161 0.76573 0.0
C738 C 0.83534 0.10098 0.76849 0.0
C739 C 0.8352 0.13613 0.76607 0.0
C740 C 0.81294 0.15196 0.76084 0.0
C741 C 0.79073 0.1327 0.75807 0.0
H742 H 0.85236 0.15109 0.76822 0.0
H743 H 0.63345 0.97098 0.74199 0.0
H744 H 0.21269 0.60341 0.6962 0.0
H745 H 0.22927 0.60799 0.7204 0.0
H746 H 0.22505 0.49852 0.72478 0.0
H747 H 0.20741 0.4942 0.70089 0.0
H748 H 0.20735 0.52446 0.74719 0.0
H749 H 0.28407 0.5461 0.71988 0.0
H750 H 0.31091 0.57522 0.70203 0.0
H751 H 0.30223 0.6699 0.72429 0.0
H752 H 0.27505 0.64142 0.74219 0.0
H753 H 0.29386 0.4971 0.80436 0.0
H754 H 0.27488 0.50118 0.78071 0.0
H755 H 0.26189 0.60876 0.78686 0.0
H756 H 0.28076 0.60475 0.81066 0.0
H757 H 0.28645 0.58911 0.76003 0.0
H758 H 0.21197 0.56297 0.78853 0.0
H759 H 0.18766 0.53041 0.80644 0.0
H760 H 0.1953 0.43953 0.7815 0.0
H761 H 0.22 0.47146 0.76354 0.0
C762 C 0.21567 0.58037 0.70229 0.0
C763 C 0.20906 0.54842 0.69665 0.0
C764 C 0.22516 0.58296 0.71613 0.0
C765 C 0.22878 0.55356 0.72444 0.0
C766 C 0.22239 0.52163 0.71867 0.0
C767 C 0.21242 0.51914 0.70499 0.0
C768 C 0.23847 0.55578 0.73927 0.0
C769 C 0.22481 0.53835 0.7499 0.0
C770 C 0.2609 0.57456 0.74301 0.0
C771 C 0.27729 0.59171 0.73228 0.0
C772 C 0.28773 0.57318 0.72091 0.0
C773 C 0.30303 0.58956 0.71079 0.0
C774 C 0.30821 0.62441 0.712 0.0
C775 C 0.29816 0.64293 0.72335 0.0
C776 C 0.28282 0.62668 0.73349 0.0
C777 C 0.28683 0.52159 0.8007 0.0
C778 C 0.28843 0.55051 0.80941 0.0
C779 C 0.27598 0.52387 0.78721 0.0
C780 C 0.26687 0.55522 0.78209 0.0
C781 C 0.26873 0.58431 0.79067 0.0
C782 C 0.27924 0.58192 0.80429 0.0
C783 C 0.25558 0.55729 0.7677 0.0
C784 C 0.2689 0.57551 0.75722 0.0
C785 C 0.23312 0.53875 0.76402 0.0
C786 C 0.21802 0.51957 0.77474 0.0
C787 C 0.20864 0.53599 0.78691 0.0
C788 C 0.19476 0.51765 0.79707 0.0
C789 C 0.18999 0.4829 0.79512 0.0
C790 C 0.19902 0.46644 0.783 0.0
C791 C 0.21294 0.48466 0.77282 0.0
H792 H 0.17924 0.46875 0.803 0.0
H793 H 0.32006 0.63704 0.70416 0.0
H794 H 0.82023 0.49922 0.70661 0.0
H795 H 0.8 0.49914 0.73003 0.0
H796 H 0.73944 0.56488 0.71448 0.0
H797 H 0.75951 0.56477 0.69097 0.0
H798 H 0.76506 0.58682 0.74034 0.0
H799 H 0.72341 0.48809 0.72039 0.0
H800 H 0.72228 0.43231 0.70841 0.0
H801 H 0.76717 0.38814 0.74196 0.0
H802 H 0.76891 0.44383 0.75404 0.0
H803 H 0.68404 0.58453 0.8001 0.0
H804 H 0.70202 0.58116 0.77639 0.0
H805 H 0.74977 0.49633 0.78915 0.0
H806 H 0.7305 0.49798 0.81265 0.0
H807 H 0.731 0.48378 0.76443 0.0
H808 H 0.77441 0.57968 0.78436 0.0
H809 H 0.77864 0.63486 0.79661 0.0
H810 H 0.73488 0.68381 0.76377 0.0
H811 H 0.73007 0.62881 0.75141 0.0
C812 C 0.80243 0.51332 0.70816 0.0
C813 C 0.7912 0.5316 0.69695 0.0
C814 C 0.79089 0.5132 0.72151 0.0
C815 C 0.76817 0.53185 0.72395 0.0
C816 C 0.7569 0.55016 0.71277 0.0
C817 C 0.76821 0.5498 0.69932 0.0
C818 C 0.75689 0.53327 0.73833 0.0
C819 C 0.75721 0.56446 0.74556 0.0
C820 C 0.74762 0.50377 0.74527 0.0
C821 C 0.74651 0.47023 0.73805 0.0
C822 C 0.73325 0.46657 0.72515 0.0
C823 C 0.73245 0.43494 0.71836 0.0
C824 C 0.7447 0.40672 0.7244 0.0
C825 C 0.75772 0.41004 0.73728 0.0
C826 C 0.7586 0.44162 0.74411 0.0
C827 C 0.69842 0.56513 0.79792 0.0
C828 C 0.7063 0.54215 0.80852 0.0
C829 C 0.70887 0.56344 0.78434 0.0
C830 C 0.72778 0.53905 0.78102 0.0
C831 C 0.73546 0.51571 0.79149 0.0
C832 C 0.72473 0.5171 0.80507 0.0
C833 C 0.739 0.5375 0.76653 0.0
C834 C 0.73878 0.50626 0.75927 0.0
C835 C 0.7488 0.56689 0.75963 0.0
C836 C 0.75167 0.60004 0.76703 0.0
C837 C 0.76552 0.60216 0.7798 0.0
C838 C 0.76805 0.63342 0.78676 0.0
C839 C 0.75698 0.66281 0.78099 0.0
C840 C 0.74341 0.66101 0.76824 0.0
C841 C 0.7408 0.62981 0.76124 0.0
H842 H 0.75897 0.68699 0.78639 0.0
H843 H 0.74406 0.38225 0.71913 0.0
H844 H 0.286 0.48767 0.19659 0.0
H845 H 0.26912 0.48314 0.22072 0.0
H846 H 0.27244 0.59271 0.22484 0.0
H847 H 0.29034 0.597 0.20102 0.0
H848 H 0.29015 0.56712 0.24739 0.0
H849 H 0.21388 0.54447 0.21979 0.0
H850 H 0.18745 0.51491 0.20188 0.0
H851 H 0.19639 0.42054 0.22439 0.0
H852 H 0.22318 0.44947 0.24235 0.0
H853 H 0.20296 0.59413 0.30418 0.0
H854 H 0.2222 0.59006 0.28061 0.0
H855 H 0.23549 0.48259 0.28694 0.0
H856 H 0.21636 0.48658 0.31066 0.0
H857 H 0.21125 0.50183 0.26002 0.0
H858 H 0.28523 0.52886 0.28878 0.0
H859 H 0.30918 0.56176 0.30673 0.0
H860 H 0.3014 0.65238 0.2816 0.0
H861 H 0.27706 0.62013 0.26359 0.0
C862 C 0.28275 0.51074 0.20262 0.0
C863 C 0.28918 0.54271 0.19693 0.0
C864 C 0.27309 0.50818 0.21641 0.0
C865 C 0.26914 0.53763 0.22462 0.0
C866 C 0.27535 0.56957 0.2188 0.0
C867 C 0.28548 0.57204 0.20516 0.0
C868 C 0.25929 0.53545 0.23941 0.0
C869 C 0.27273 0.55309 0.25006 0.0
C870 C 0.23692 0.51647 0.24309 0.0
C871 C 0.22077 0.49906 0.23232 0.0
C872 C 0.21037 0.51736 0.22086 0.0
C873 C 0.1953 0.50073 0.21071 0.0
C874 C 0.19031 0.46585 0.21197 0.0
C875 C 0.20032 0.44754 0.22341 0.0
C876 C 0.21543 0.46405 0.23358 0.0
C877 C 0.21011 0.56967 0.30057 0.0
C878 C 0.20853 0.54078 0.30931 0.0
C879 C 0.22111 0.5674 0.28713 0.0
C880 C 0.23038 0.53608 0.28209 0.0
C881 C 0.22853 0.50701 0.29069 0.0
C882 C 0.21786 0.50939 0.30427 0.0
C883 C 0.24185 0.53402 0.26775 0.0
C884 C 0.22876 0.51558 0.25726 0.0
C885 C 0.26426 0.55273 0.26414 0.0
C886 C 0.27914 0.57211 0.27489 0.0
C887 C 0.28845 0.55586 0.28713 0.0
C888 C 0.30213 0.57438 0.29731 0.0
C889 C 0.30676 0.60915 0.29532 0.0
C890 C 0.29779 0.62545 0.28313 0.0
C891 C 0.28407 0.60705 0.27293 0.0
H892 H 0.31735 0.62346 0.30321 0.0
H893 H 0.17864 0.45302 0.2041 0.0
H894 H 0.71388 0.60384 0.19563 0.0
H895 H 0.73098 0.60851 0.21972 0.0
H896 H 0.72014 0.50027 0.22559 0.0
H897 H 0.70221 0.49589 0.20178 0.0
H898 H 0.70409 0.53037 0.24769 0.0
H899 H 0.78152 0.53995 0.21984 0.0
H900 H 0.81004 0.56398 0.20147 0.0
H901 H 0.80867 0.66118 0.22232 0.0
H902 H 0.77984 0.63783 0.24072 0.0
H903 H 0.79114 0.49635 0.30414 0.0
H904 H 0.77179 0.50141 0.2806 0.0
H905 H 0.76379 0.60993 0.28642 0.0
H906 H 0.78287 0.60491 0.31016 0.0
H907 H 0.78776 0.58575 0.2593 0.0
H908 H 0.71223 0.57143 0.28844 0.0
H909 H 0.68606 0.54349 0.3069 0.0
H910 H 0.68674 0.45009 0.28324 0.0
H911 H 0.71327 0.47734 0.26474 0.0
C912 C 0.71553 0.58103 0.20202 0.0
C913 C 0.70703 0.54942 0.19681 0.0
C914 C 0.72529 0.58369 0.21579 0.0
C915 C 0.72718 0.55466 0.22448 0.0
C916 C 0.71883 0.52308 0.21917 0.0
C917 C 0.70868 0.52055 0.20553 0.0
C918 C 0.73718 0.55699 0.23923 0.0
C919 C 0.72251 0.54225 0.25015 0.0
C920 C 0.76094 0.57317 0.2426 0.0
C921 C 0.77828 0.58725 0.23156 0.0
C922 C 0.78713 0.56652 0.22044 0.0
C923 C 0.80338 0.58001 0.21004 0.0
C924 C 0.81109 0.61411 0.2107 0.0
C925 C 0.80263 0.63478 0.2218 0.0
C926 C 0.78635 0.62143 0.23223 0.0
C927 C 0.78512 0.52125 0.30043 0.0
C928 C 0.78817 0.55018 0.30901 0.0
C929 C 0.77408 0.5241 0.28701 0.0
C930 C 0.76631 0.55601 0.28183 0.0
C931 C 0.76961 0.58508 0.29029 0.0
C932 C 0.78026 0.58214 0.30386 0.0
C933 C 0.75486 0.55862 0.26752 0.0
C934 C 0.76924 0.57424 0.25675 0.0
C935 C 0.73109 0.54273 0.26421 0.0
C936 C 0.71493 0.52636 0.27526 0.0
C937 C 0.70698 0.54485 0.28723 0.0
C938 C 0.69205 0.52916 0.29769 0.0
C939 C 0.68479 0.49501 0.29626 0.0
C940 C 0.69239 0.47653 0.28434 0.0
C941 C 0.70736 0.4921 0.27386 0.0
H942 H 0.67322 0.4829 0.30437 0.0
H943 H 0.82368 0.62451 0.20264 0.0
H944 H 0.21771 0.15844 0.14833 0.0
H945 H 0.23267 0.21756 0.14927 0.0
H946 H 0.23853 0.21947 0.10381 0.0
H947 H 0.22386 0.16037 0.10275 0.0
H948 H 0.27978 0.24995 0.11606 0.0
H949 H 0.18702 0.25477 0.12027 0.0
H950 H 0.14464 0.24054 0.13069 0.0
H951 H 0.16891 0.28242 0.17047 0.0
H952 H 0.21159 0.29647 0.16033 0.0
H953 H 0.28228 0.42679 0.10279 0.0
H954 H 0.26894 0.36716 0.10381 0.0
H955 H 0.2655 0.37255 0.14929 0.0
H956 H 0.27868 0.43243 0.1484 0.0
H957 H 0.22421 0.33809 0.13829 0.0
H958 H 0.31643 0.33549 0.13375 0.0
H959 H 0.35867 0.34996 0.12322 0.0
H960 H 0.33545 0.30396 0.08405 0.0
H961 H 0.29291 0.28965 0.09428 0.0
C962 C 0.22235 0.17132 0.13853 0.0
C963 C 0.21941 0.15466 0.12546 0.0
C964 C 0.23079 0.20518 0.13909 0.0
C965 C 0.23638 0.22306 0.12659 0.0
C966 C 0.23425 0.20619 0.11357 0.0
C967 C 0.22579 0.17239 0.113 0.0
C968 C 0.24398 0.25955 0.127 0.0
C969 C 0.26751 0.26927 0.1208 0.0
C970 C 0.22826 0.28465 0.13348 0.0
C971 C 0.20259 0.27632 0.13958 0.0
C972 C 0.18339 0.26069 0.13127 0.0
C973 C 0.1593 0.2527 0.13712 0.0
C974 C 0.15411 0.26048 0.15125 0.0
C975 C 0.17298 0.27635 0.15954 0.0
C976 C 0.19711 0.28435 0.15374 0.0
C977 C 0.27857 0.41544 0.11303 0.0
C978 C 0.28174 0.43442 0.12553 0.0
C979 C 0.27105 0.38126 0.11359 0.0
C980 C 0.26662 0.36527 0.12664 0.0
C981 C 0.26895 0.38436 0.13911 0.0
C982 C 0.27653 0.41858 0.13858 0.0
C983 C 0.25988 0.32851 0.12723 0.0
C984 C 0.23654 0.31874 0.13362 0.0
C985 C 0.27578 0.30335 0.12092 0.0
C986 C 0.30139 0.31178 0.11475 0.0
C987 C 0.32025 0.3287 0.12286 0.0
C988 C 0.34426 0.33683 0.11695 0.0
C989 C 0.34972 0.32796 0.10296 0.0
C990 C 0.33119 0.31086 0.09487 0.0
C991 C 0.30713 0.3027 0.10072 0.0
H992 H 0.36832 0.33427 0.09841 0.0
H993 H 0.13545 0.25428 0.15576 0.0
H994 H 0.71579 0.65982 0.10137 0.0
H995 H 0.73097 0.71871 0.10178 0.0
H996 H 0.74054 0.71289 0.14702 0.0
H997 H 0.7248 0.65413 0.14676 0.0
H998 H 0.71675 0.77025 0.13997 0.0
H999 H 0.79302 0.71179 0.12417 0.0
H1000 H 0.81831 0.673 0.10902 0.0
H1001 H 0.80017 0.73416 0.07269 0.0
H1002 H 0.77448 0.77309 0.08759 0.0
H1003 H 0.78727 0.92521 0.14705 0.0
H1004 H 0.77346 0.86565 0.14725 0.0
H1005 H 0.76302 0.86874 0.10203 0.0
H1006 H 0.77733 0.92806 0.10167 0.0
H1007 H 0.78795 0.81247 0.10948 0.0
H1008 H 0.71112 0.87025 0.1251 0.0
H1009 H 0.68563 0.90905 0.14014 0.0
H1010 H 0.70467 0.84914 0.1767 0.0
H1011 H 0.73058 0.81022 0.16189 0.0
C1012 C 0.72131 0.67091 0.11141 0.0
C1013 C 0.71907 0.65217 0.12404 0.0
C1014 C 0.73008 0.70462 0.11162 0.0
C1015 C 0.73716 0.72018 0.12442 0.0
C1016 C 0.73519 0.70144 0.13702 0.0
C1017 C 0.72626 0.66778 0.13684 0.0
C1018 C 0.74581 0.75632 0.1247 0.0
C1019 C 0.73259 0.77937 0.13346 0.0
C1020 C 0.76605 0.76844 0.11596 0.0
C1021 C 0.78164 0.74519 0.10699 0.0
C1022 C 0.79428 0.71684 0.11294 0.0
C1023 C 0.80871 0.69485 0.1044 0.0
C1024 C 0.8108 0.70107 0.0899 0.0
C1025 C 0.79852 0.72936 0.08392 0.0
C1026 C 0.78404 0.75141 0.09241 0.0
C1027 C 0.7819 0.91332 0.13714 0.0
C1028 C 0.78342 0.93148 0.12434 0.0
C1029 C 0.77392 0.87925 0.13729 0.0
C1030 C 0.76698 0.86276 0.12466 0.0
C1031 C 0.76831 0.88089 0.11189 0.0
C1032 C 0.77642 0.91488 0.11172 0.0
C1033 C 0.75885 0.82641 0.12471 0.0
C1034 C 0.77216 0.80332 0.11601 0.0
C1035 C 0.73868 0.81426 0.1335 0.0
C1036 C 0.72299 0.83752 0.1424 0.0
C1037 C 0.71003 0.86549 0.13636 0.0
C1038 C 0.69548 0.88748 0.14484 0.0
C1039 C 0.69359 0.88161 0.15937 0.0
C1040 C 0.70618 0.85368 0.16544 0.0
C1041 C 0.72078 0.83163 0.15701 0.0
H1042 H 0.68232 0.89867 0.16592 0.0
H1043 H 0.82197 0.68401 0.0833 0.0
H1044 H 0.21949 0.92987 0.90426 0.0
H1045 H 0.23388 0.87061 0.90371 0.0
H1046 H 0.22764 0.87024 0.85824 0.0
H1047 H 0.21365 0.92974 0.85865 0.0
H1048 H 0.20901 0.81506 0.89482 0.0
H1049 H 0.27225 0.81534 0.84448 0.0
H1050 H 0.29994 0.85486 0.83095 0.0
H1051 H 0.31507 0.91246 0.86864 0.0
H1052 H 0.28777 0.87304 0.88242 0.0
H1053 H 0.27541 0.65777 0.8587 0.0
H1054 H 0.26005 0.71672 0.85823 0.0
H1055 H 0.26504 0.72114 0.90371 0.0
H1056 H 0.27992 0.66213 0.90431 0.0
H1057 H 0.28346 0.77396 0.86648 0.0
H1058 H 0.21938 0.77437 0.9167 0.0
H1059 H 0.19166 0.73486 0.93021 0.0
H1060 H 0.17812 0.67582 0.89273 0.0
H1061 H 0.20546 0.71521 0.87896 0.0
C1062 C 0.22136 0.91733 0.89412 0.0
C1063 C 0.21541 0.93464 0.88149 0.0
C1064 C 0.22951 0.88337 0.89383 0.0
C1065 C 0.23198 0.86601 0.88094 0.0
C1066 C 0.22624 0.88325 0.86831 0.0
C1067 C 0.21816 0.91727 0.86857 0.0
C1068 C 0.23992 0.8296 0.88079 0.0
C1069 C 0.2255 0.80615 0.88877 0.0
C1070 C 0.26098 0.8178 0.87258 0.0
C1071 C 0.27773 0.84143 0.86444 0.0
C1072 C 0.28156 0.83637 0.84989 0.0
C1073 C 0.29718 0.85877 0.84217 0.0
C1074 C 0.30918 0.88622 0.84892 0.0
C1075 C 0.30568 0.89126 0.86341 0.0
C1076 C 0.2901 0.86893 0.87118 0.0
C1077 C 0.27304 0.67116 0.86862 0.0
C1078 C 0.27886 0.65512 0.88155 0.0
C1079 C 0.26434 0.70492 0.86832 0.0
C1080 C 0.26119 0.72329 0.88093 0.0
C1081 C 0.26689 0.70732 0.89385 0.0
C1082 C 0.27549 0.67355 0.89417 0.0
C1083 C 0.25264 0.75945 0.88058 0.0
C1084 C 0.26693 0.78286 0.8725 0.0
C1085 C 0.23144 0.77122 0.88869 0.0
C1086 C 0.21469 0.74758 0.89684 0.0
C1087 C 0.2104 0.75303 0.91133 0.0
C1088 C 0.19477 0.73064 0.91904 0.0
C1089 C 0.18321 0.70278 0.91234 0.0
C1090 C 0.18718 0.69733 0.89792 0.0
C1091 C 0.20277 0.71965 0.89016 0.0
H1092 H 0.17113 0.68547 0.91833 0.0
H1093 H 0.32125 0.90354 0.84293 0.0
H1094 H 0.71739 0.43493 0.85815 0.0
H1095 H 0.732 0.37568 0.85767 0.0
H1096 H 0.73419 0.37408 0.90324 0.0
H1097 H 0.71988 0.43341 0.90385 0.0
H1098 H 0.77606 0.343 0.89215 0.0
H1099 H 0.68387 0.33877 0.88541 0.0
H1100 H 0.64248 0.35338 0.87392 0.0
H1101 H 0.66996 0.31182 0.83473 0.0
H1102 H 0.71168 0.29739 0.84594 0.0
H1103 H 0.77839 0.16572 0.90428 0.0
H1104 H 0.76459 0.22517 0.90338 0.0
H1105 H 0.76466 0.22171 0.85783 0.0
H1106 H 0.77825 0.16196 0.85859 0.0
H1107 H 0.72251 0.25552 0.86804 0.0
H1108 H 0.81434 0.25827 0.87502 0.0
H1109 H 0.85558 0.24345 0.88662 0.0
H1110 H 0.82869 0.28772 0.92542 0.0
H1111 H 0.78712 0.30238 0.91411 0.0
C1112 C 0.72111 0.42208 0.86809 0.0
C1113 C 0.71728 0.43892 0.88105 0.0
C1114 C 0.72936 0.38814 0.86778 0.0
C1115 C 0.73382 0.3703 0.88042 0.0
C1116 C 0.73078 0.38732 0.89336 0.0
C1117 C 0.72254 0.42125 0.89368 0.0
C1118 C 0.74127 0.33374 0.88021 0.0
C1119 C 0.7642 0.32382 0.88701 0.0
C1120 C 0.7261 0.30882 0.87322 0.0
C1121 C 0.701 0.31733 0.86648 0.0
C1122 C 0.68116 0.333 0.87431 0.0
C1123 C 0.65763 0.3412 0.86785 0.0
C1124 C 0.65362 0.33362 0.85359 0.0
C1125 C 0.67311 0.31773 0.84577 0.0
C1126 C 0.6967 0.30951 0.85217 0.0
C1127 C 0.77534 0.17745 0.89405 0.0
C1128 C 0.77964 0.15906 0.8815 0.0
C1129 C 0.76755 0.21153 0.89356 0.0
C1130 C 0.76401 0.22803 0.88054 0.0
C1131 C 0.76741 0.2095 0.86799 0.0
C1132 C 0.77522 0.17536 0.86845 0.0
C1133 C 0.7572 0.26478 0.88006 0.0
C1134 C 0.73441 0.27472 0.87313 0.0
C1135 C 0.77248 0.28974 0.88693 0.0
C1136 C 0.79752 0.28114 0.89375 0.0
C1137 C 0.81714 0.26462 0.88606 0.0
C1138 C 0.84059 0.25628 0.89258 0.0
C1139 C 0.84473 0.26456 0.90676 0.0
C1140 C 0.82545 0.28128 0.91444 0.0
C1141 C 0.80195 0.28964 0.90798 0.0
H1142 H 0.8629 0.25809 0.91179 0.0
H1143 H 0.63538 0.33999 0.84861 0.0
H1144 H 0.80488 0.92682 0.89666 0.0
H1145 H 0.79475 0.86581 0.89678 0.0
H1146 H 0.72412 0.88594 0.87386 0.0
H1147 H 0.734 0.94724 0.87409 0.0
H1148 H 0.71623 0.84004 0.89462 0.0
H1149 H 0.77731 0.85543 0.85707 0.0
H1150 H 0.81817 0.87463 0.84623 0.0
H1151 H 0.8612 0.80999 0.87436 0.0
H1152 H 0.82058 0.7908 0.88553 0.0
H1153 H 0.69165 0.67213 0.87058 0.0
H1154 H 0.70197 0.73305 0.87139 0.0
H1155 H 0.77001 0.71116 0.89627 0.0
H1156 H 0.75978 0.64996 0.89531 0.0
H1157 H 0.77946 0.75764 0.87484 0.0
H1158 H 0.71777 0.74171 0.91211 0.0
H1159 H 0.67662 0.72238 0.92257 0.0
H1160 H 0.6344 0.78798 0.89445 0.0
H1161 H 0.67532 0.80732 0.88366 0.0
C1162 C 0.78706 0.91815 0.89181 0.0
C1163 C 0.77011 0.94149 0.88542 0.0
C1164 C 0.78139 0.88335 0.89178 0.0
C1165 C 0.75883 0.87127 0.88518 0.0
C1166 C 0.74164 0.89471 0.879 0.0
C1167 C 0.74729 0.92958 0.87908 0.0
C1168 C 0.75336 0.83415 0.88458 0.0
C1169 C 0.72991 0.82208 0.89013 0.0
C1170 C 0.77147 0.81063 0.87899 0.0
C1171 C 0.79591 0.82193 0.87223 0.0
C1172 C 0.79549 0.8455 0.86102 0.0
C1173 C 0.81861 0.85636 0.8548 0.0
C1174 C 0.84227 0.8436 0.85962 0.0
C1175 C 0.84285 0.81989 0.87065 0.0
C1176 C 0.81979 0.80899 0.87692 0.0
C1177 C 0.70893 0.68038 0.8761 0.0
C1178 C 0.72506 0.65657 0.88281 0.0
C1179 C 0.7147 0.71512 0.87664 0.0
C1180 C 0.73664 0.72663 0.88399 0.0
C1181 C 0.75299 0.70278 0.89055 0.0
C1182 C 0.74713 0.66797 0.89004 0.0
C1183 C 0.74234 0.7636 0.88486 0.0
C1184 C 0.76583 0.77563 0.87935 0.0
C1185 C 0.72423 0.78709 0.89044 0.0
C1186 C 0.69961 0.77572 0.89699 0.0
C1187 C 0.69971 0.75182 0.90808 0.0
C1188 C 0.67642 0.74089 0.91408 0.0
C1189 C 0.65291 0.75389 0.90916 0.0
C1190 C 0.65263 0.77791 0.89824 0.0
C1191 C 0.67587 0.78888 0.89219 0.0
H1192 H 0.6349 0.7454 0.91382 0.0
H1193 H 0.86015 0.85203 0.8548 0.0
H1194 H 0.3026 0.42304 0.86932 0.0
H1195 H 0.29247 0.36214 0.86955 0.0
H1196 H 0.22916 0.38095 0.89825 0.0
H1197 H 0.23961 0.44208 0.89817 0.0
H1198 H 0.25582 0.32631 0.90631 0.0
H1199 H 0.21864 0.36546 0.86294 0.0
H1200 H 0.21807 0.39485 0.8399 0.0
H1201 H 0.27666 0.32692 0.82435 0.0
H1202 H 0.27788 0.29744 0.84739 0.0
H1203 H 0.19292 0.16662 0.89655 0.0
H1204 H 0.20343 0.22752 0.89681 0.0
H1205 H 0.27092 0.20802 0.87123 0.0
H1206 H 0.26052 0.14683 0.87111 0.0
H1207 H 0.24179 0.2628 0.8616 0.0
H1208 H 0.27829 0.22366 0.90542 0.0
H1209 H 0.27765 0.19436 0.92847 0.0
H1210 H 0.21849 0.26259 0.94312 0.0
H1211 H 0.21847 0.29197 0.92006 0.0
C1212 C 0.28635 0.41416 0.87555 0.0
C1213 C 0.27157 0.43713 0.88355 0.0
C1214 C 0.28059 0.3794 0.87569 0.0
C1215 C 0.25976 0.36703 0.88373 0.0
C1216 C 0.24524 0.38995 0.89193 0.0
C1217 C 0.25113 0.42477 0.89185 0.0
C1218 C 0.25336 0.33012 0.88363 0.0
C1219 C 0.25238 0.31254 0.89654 0.0
C1220 C 0.24938 0.31199 0.87086 0.0
C1221 C 0.24851 0.32944 0.85694 0.0
C1222 C 0.23154 0.35694 0.85465 0.0
C1223 C 0.23108 0.3736 0.84158 0.0
C1224 C 0.24736 0.36281 0.83068 0.0
C1225 C 0.26408 0.33527 0.83281 0.0
C1226 C 0.26465 0.31856 0.84587 0.0
C1227 C 0.21016 0.17536 0.89114 0.0
C1228 C 0.22611 0.15221 0.88393 0.0
C1229 C 0.21611 0.21008 0.89126 0.0
C1230 C 0.23808 0.22222 0.88414 0.0
C1231 C 0.2539 0.19912 0.8768 0.0
C1232 C 0.24801 0.16431 0.87675 0.0
C1233 C 0.24433 0.2591 0.88426 0.0
C1234 C 0.24524 0.27664 0.87135 0.0
C1235 C 0.24804 0.27723 0.89703 0.0
C1236 C 0.24821 0.25982 0.91096 0.0
C1237 C 0.26499 0.23226 0.91351 0.0
C1238 C 0.26477 0.21565 0.92659 0.0
C1239 C 0.248 0.22655 0.93724 0.0
C1240 C 0.23145 0.25415 0.93485 0.0
C1241 C 0.23156 0.2708 0.92178 0.0
H1242 H 0.24785 0.21367 0.94736 0.0
H1243 H 0.24698 0.37574 0.82057 0.0
H1244 H 0.75651 0.43849 0.10861 0.0
H1245 H 0.76652 0.3773 0.10869 0.0
H1246 H 0.70381 0.35971 0.13792 0.0
H1247 H 0.69411 0.42079 0.13799 0.0
H1248 H 0.7447 0.32368 0.14555 0.0
H1249 H 0.698 0.34218 0.10247 0.0
H1250 H 0.68869 0.36973 0.0796 0.0
H1251 H 0.76235 0.33691 0.06362 0.0
H1252 H 0.77229 0.30962 0.08649 0.0
H1253 H 0.73704 0.14354 0.13641 0.0
H1254 H 0.72622 0.20456 0.13634 0.0
H1255 H 0.79169 0.22452 0.10927 0.0
H1256 H 0.80247 0.1637 0.10937 0.0
H1257 H 0.74876 0.25895 0.10057 0.0
H1258 H 0.79499 0.24047 0.14416 0.0
H1259 H 0.80311 0.21211 0.167 0.0
H1260 H 0.72858 0.24421 0.18199 0.0
H1261 H 0.71983 0.27231 0.15914 0.0
C1262 C 0.74498 0.42144 0.11505 0.0
C1263 C 0.72469 0.43419 0.12336 0.0
C1264 C 0.75061 0.38656 0.11507 0.0
C1265 C 0.73573 0.36383 0.12321 0.0
C1266 C 0.7156 0.37672 0.13161 0.0
C1267 C 0.71011 0.41158 0.13166 0.0
C1268 C 0.74093 0.32658 0.1229 0.0
C1269 C 0.74526 0.30947 0.13572 0.0
C1270 C 0.74204 0.30807 0.11006 0.0
C1271 C 0.73599 0.32413 0.09624 0.0
C1272 C 0.71229 0.34104 0.09411 0.0
C1273 C 0.7069 0.35659 0.08114 0.0
C1274 C 0.72494 0.35514 0.07017 0.0
C1275 C 0.7484 0.33805 0.07213 0.0
C1276 C 0.75393 0.32252 0.0851 0.0
C1277 C 0.749 0.16108 0.13044 0.0
C1278 C 0.77047 0.14913 0.12285 0.0
C1279 C 0.74288 0.19582 0.13041 0.0
C1280 C 0.75827 0.2191 0.12286 0.0
C1281 C 0.77951 0.207 0.11511 0.0
C1282 C 0.78563 0.17233 0.11516 0.0
C1283 C 0.75258 0.25616 0.1232 0.0
C1284 C 0.74816 0.27321 0.11038 0.0
C1285 C 0.75122 0.27455 0.13604 0.0
C1286 C 0.75666 0.25822 0.14988 0.0
C1287 C 0.78026 0.2413 0.15229 0.0
C1288 C 0.78498 0.22528 0.16524 0.0
C1289 C 0.76635 0.22629 0.17593 0.0
C1290 C 0.74298 0.24342 0.1737 0.0
C1291 C 0.73814 0.25941 0.16075 0.0
H1292 H 0.77003 0.21385 0.18594 0.0
H1293 H 0.72073 0.3672 0.06014 0.0
H1294 H 0.26189 0.94143 0.13202 0.0
H1295 H 0.27134 0.88011 0.13136 0.0
H1296 H 0.20128 0.86295 0.10753 0.0
H1297 H 0.1915 0.92404 0.10859 0.0
H1298 H 0.20571 0.81697 0.12782 0.0
H1299 H 0.26113 0.86087 0.09167 0.0
H1300 H 0.29445 0.8984 0.08139 0.0
H1301 H 0.35043 0.86031 0.111 0.0
H1302 H 0.31734 0.82288 0.12161 0.0
H1303 H 0.23705 0.64574 0.10781 0.0
H1304 H 0.22688 0.70697 0.10682 0.0
H1305 H 0.29261 0.72829 0.13355 0.0
H1306 H 0.30285 0.66736 0.13443 0.0
H1307 H 0.28976 0.77173 0.1108 0.0
H1308 H 0.23332 0.72896 0.14724 0.0
H1309 H 0.19976 0.69119 0.15713 0.0
H1310 H 0.14533 0.72706 0.1262 0.0
H1311 H 0.17872 0.7647 0.11598 0.0
C1312 C 0.24861 0.92443 0.12664 0.0
C1313 C 0.22612 0.93724 0.12027 0.0
C1314 C 0.25406 0.88953 0.12619 0.0
C1315 C 0.23718 0.86696 0.11923 0.0
C1316 C 0.21462 0.87985 0.11291 0.0
C1317 C 0.20914 0.9147 0.11342 0.0
C1318 C 0.24274 0.82982 0.11879 0.0
C1319 C 0.22394 0.80707 0.12389 0.0
C1320 C 0.2667 0.81689 0.1139 0.0
C1321 C 0.28668 0.8393 0.10752 0.0
C1322 C 0.28049 0.86068 0.09607 0.0
C1323 C 0.29935 0.88191 0.09016 0.0
C1324 C 0.32452 0.8818 0.09556 0.0
C1325 C 0.33091 0.8604 0.10684 0.0
C1326 C 0.31212 0.83915 0.1128 0.0
C1327 C 0.24921 0.66364 0.11346 0.0
C1328 C 0.27052 0.65205 0.12131 0.0
C1329 C 0.24341 0.69847 0.11293 0.0
C1330 C 0.2589 0.72212 0.12021 0.0
C1331 C 0.28039 0.71048 0.12788 0.0
C1332 C 0.28609 0.67573 0.12847 0.0
C1333 C 0.2528 0.75904 0.11989 0.0
C1334 C 0.2715 0.78171 0.11465 0.0
C1335 C 0.22871 0.77188 0.12458 0.0
C1336 C 0.2086 0.74937 0.13075 0.0
C1337 C 0.21426 0.72858 0.14247 0.0
C1338 C 0.19526 0.70724 0.14815 0.0
C1339 C 0.17045 0.70666 0.14227 0.0
C1340 C 0.16457 0.7275 0.13073 0.0
C1341 C 0.18352 0.74885 0.12499 0.0
H1342 H 0.15576 0.69012 0.14669 0.0
H1343 H 0.3391 0.89825 0.09097 0.0
H1344 H 0.21816 0.65896 0.64789 0.0
H1345 H 0.23269 0.71823 0.64864 0.0
H1346 H 0.23707 0.72007 0.60313 0.0
H1347 H 0.22285 0.66074 0.60225 0.0
H1348 H 0.27851 0.75089 0.61493 0.0
H1349 H 0.18602 0.75537 0.62013 0.0
H1350 H 0.14401 0.74085 0.63092 0.0
H1351 H 0.16944 0.78229 0.67056 0.0
H1352 H 0.21176 0.79663 0.66005 0.0
H1353 H 0.28152 0.92811 0.60274 0.0
H1354 H 0.26767 0.86867 0.60346 0.0
H1355 H 0.26554 0.87228 0.649 0.0
H1356 H 0.27919 0.93201 0.64841 0.0
H1357 H 0.22382 0.83852 0.63813 0.0
H1358 H 0.31596 0.83561 0.63265 0.0
H1359 H 0.35781 0.85036 0.62173 0.0
H1360 H 0.33296 0.80601 0.58252 0.0
H1361 H 0.2908 0.79142 0.59316 0.0
C1362 C 0.22235 0.67186 0.63803 0.0
C1363 C 0.21917 0.65508 0.625 0.0
C1364 C 0.23055 0.70582 0.63849 0.0
C1365 C 0.23562 0.72372 0.62593 0.0
C1366 C 0.23319 0.70678 0.61294 0.0
C1367 C 0.22498 0.67285 0.61247 0.0
C1368 C 0.24312 0.76025 0.62629 0.0
C1369 C 0.26642 0.7701 0.61987 0.0
C1370 C 0.22762 0.7852 0.63302 0.0
C1371 C 0.20215 0.77674 0.63934 0.0
C1372 C 0.18273 0.76114 0.63118 0.0
C1373 C 0.15884 0.75298 0.63724 0.0
C1374 C 0.15408 0.76055 0.65143 0.0
C1375 C 0.17317 0.77639 0.65958 0.0
C1376 C 0.1971 0.78456 0.65357 0.0
C1377 C 0.27798 0.91642 0.61293 0.0
C1378 C 0.28167 0.93484 0.62553 0.0
C1379 C 0.27016 0.88235 0.61332 0.0
C1380 C 0.26598 0.8659 0.62629 0.0
C1381 C 0.26878 0.88446 0.63888 0.0
C1382 C 0.27664 0.91859 0.63851 0.0
C1383 C 0.25911 0.82916 0.62668 0.0
C1384 C 0.23596 0.81928 0.63325 0.0
C1385 C 0.27473 0.80416 0.62008 0.0
C1386 C 0.30013 0.8127 0.61367 0.0
C1387 C 0.31935 0.82923 0.62167 0.0
C1388 C 0.34314 0.83753 0.61554 0.0
C1389 C 0.34802 0.8292 0.60143 0.0
C1390 C 0.32914 0.81248 0.59344 0.0
C1391 C 0.3053 0.80416 0.59952 0.0
H1392 H 0.36645 0.83565 0.5967 0.0
H1393 H 0.13558 0.75422 0.6561 0.0
H1394 H 0.77656 0.42797 0.60192 0.0
H1395 H 0.76162 0.36893 0.60255 0.0
H1396 H 0.76966 0.36776 0.64792 0.0
H1397 H 0.78483 0.42679 0.64742 0.0
H1398 H 0.79107 0.31161 0.63595 0.0
H1399 H 0.71043 0.3713 0.63309 0.0
H1400 H 0.67897 0.41237 0.62337 0.0
H1401 H 0.67913 0.35902 0.58376 0.0
H1402 H 0.71089 0.31788 0.59318 0.0
H1403 H 0.72318 0.15565 0.64751 0.0
H1404 H 0.7375 0.21504 0.64764 0.0
H1405 H 0.7303 0.219 0.60226 0.0
H1406 H 0.7158 0.15974 0.602 0.0
H1407 H 0.70805 0.27393 0.61472 0.0
H1408 H 0.78918 0.21484 0.61745 0.0
H1409 H 0.82069 0.17379 0.62713 0.0
H1410 H 0.81957 0.22605 0.66699 0.0
H1411 H 0.78775 0.26716 0.6576 0.0
C1412 C 0.775 0.4153 0.61206 0.0
C1413 C 0.78193 0.43219 0.62462 0.0
C1414 C 0.76637 0.38153 0.6124 0.0
C1415 C 0.76439 0.36399 0.62529 0.0
C1416 C 0.77107 0.38082 0.63785 0.0
C1417 C 0.77964 0.41463 0.63754 0.0
C1418 C 0.75601 0.32779 0.6256 0.0
C1419 C 0.77273 0.30342 0.63151 0.0
C1420 C 0.73237 0.31703 0.61949 0.0
C1421 C 0.71324 0.3417 0.6138 0.0
C1422 C 0.70393 0.36848 0.62226 0.0
C1423 C 0.68601 0.39175 0.61682 0.0
C1424 C 0.67711 0.38836 0.60294 0.0
C1425 C 0.68607 0.36164 0.5945 0.0
C1426 C 0.70401 0.33832 0.59989 0.0
C1427 C 0.72479 0.16904 0.63753 0.0
C1428 C 0.71831 0.15285 0.62474 0.0
C1429 C 0.73305 0.20299 0.63763 0.0
C1430 C 0.73508 0.22141 0.62495 0.0
C1431 C 0.72883 0.20528 0.61217 0.0
C1432 C 0.72065 0.17132 0.61205 0.0
C1433 C 0.74314 0.25774 0.62503 0.0
C1434 C 0.72636 0.28213 0.61919 0.0
C1435 C 0.76672 0.26852 0.6312 0.0
C1436 C 0.78587 0.24386 0.63687 0.0
C1437 C 0.79548 0.21741 0.62832 0.0
C1438 C 0.81343 0.19416 0.63375 0.0
C1439 C 0.82207 0.19725 0.64768 0.0
C1440 C 0.81283 0.22365 0.65621 0.0
C1441 C 0.79485 0.24695 0.65084 0.0
H1442 H 0.83598 0.17924 0.65186 0.0
H1443 H 0.66323 0.40639 0.59875 0.0
H1444 H 0.22075 0.43318 0.35833 0.0
H1445 H 0.23571 0.3741 0.35775 0.0
H1446 H 0.23277 0.36981 0.40327 0.0
H1447 H 0.21823 0.42901 0.404 0.0
H1448 H 0.27555 0.33941 0.39359 0.0
H1449 H 0.18457 0.33526 0.38299 0.0
H1450 H 0.14484 0.35047 0.36997 0.0
H1451 H 0.17791 0.31168 0.33159 0.0
H1452 H 0.21799 0.29666 0.34435 0.0
H1453 H 0.27744 0.16133 0.40363 0.0
H1454 H 0.26369 0.22079 0.40296 0.0
H1455 H 0.26871 0.22034 0.35747 0.0
H1456 H 0.28211 0.16053 0.35798 0.0
H1457 H 0.22584 0.25338 0.36635 0.0
H1458 H 0.31649 0.25602 0.37726 0.0
H1459 H 0.35595 0.24053 0.39046 0.0
H1460 H 0.32326 0.28201 0.42846 0.0
H1461 H 0.28345 0.29734 0.41552 0.0
C1462 C 0.22342 0.41978 0.36824 0.0
C1463 C 0.21811 0.43584 0.38121 0.0
C1464 C 0.23187 0.38592 0.36787 0.0
C1465 C 0.23497 0.36735 0.38045 0.0
C1466 C 0.23044 0.38361 0.39343 0.0
C1467 C 0.22207 0.41747 0.39381 0.0
C1468 C 0.24257 0.33083 0.38013 0.0
C1469 C 0.26451 0.32054 0.38776 0.0
C1470 C 0.22851 0.30632 0.37227 0.0
C1471 C 0.20437 0.31516 0.36459 0.0
C1472 C 0.18344 0.33021 0.37175 0.0
C1473 C 0.16085 0.33876 0.36442 0.0
C1474 C 0.15888 0.33213 0.34995 0.0
C1475 C 0.17948 0.31685 0.34279 0.0
C1476 C 0.20213 0.30829 0.35007 0.0
C1477 C 0.27551 0.17372 0.39345 0.0
C1478 C 0.28108 0.15613 0.38086 0.0
C1479 C 0.26776 0.20783 0.3931 0.0
C1480 C 0.26561 0.22519 0.38018 0.0
C1481 C 0.27036 0.20747 0.36756 0.0
C1482 C 0.27807 0.17329 0.36789 0.0
C1483 C 0.25872 0.26194 0.37988 0.0
C1484 C 0.23693 0.27228 0.37213 0.0
C1485 C 0.2729 0.2865 0.38766 0.0
C1486 C 0.2969 0.27756 0.39544 0.0
C1487 C 0.31765 0.26163 0.38845 0.0
C1488 C 0.34009 0.25291 0.39588 0.0
C1489 C 0.34209 0.26021 0.4103 0.0
C1490 C 0.32167 0.27634 0.4173 0.0
C1491 C 0.29918 0.28508 0.40992 0.0
H1492 H 0.35947 0.25343 0.41603 0.0
H1493 H 0.14138 0.33877 0.3443 0.0
H1494 H 0.78208 0.66038 0.40423 0.0
H1495 H 0.7674 0.71949 0.40381 0.0
H1496 H 0.76194 0.71569 0.35834 0.0
H1497 H 0.77711 0.65665 0.35863 0.0
H1498 H 0.78508 0.77302 0.36656 0.0
H1499 H 0.70758 0.71352 0.37922 0.0
H1500 H 0.68058 0.67369 0.39298 0.0
H1501 H 0.6943 0.73221 0.43058 0.0
H1502 H 0.72169 0.77215 0.41708 0.0
H1503 H 0.71406 0.92788 0.35916 0.0
H1504 H 0.72842 0.86856 0.35869 0.0
H1505 H 0.73545 0.86901 0.40412 0.0
H1506 H 0.72066 0.92813 0.40474 0.0
H1507 H 0.71083 0.8131 0.39532 0.0
H1508 H 0.78906 0.8721 0.38249 0.0
H1509 H 0.81562 0.91199 0.36851 0.0
H1510 H 0.79986 0.85441 0.3309 0.0
H1511 H 0.77293 0.81437 0.34463 0.0
C1512 C 0.77763 0.67198 0.39413 0.0
C1513 C 0.78076 0.65367 0.38146 0.0
C1514 C 0.76914 0.70581 0.39391 0.0
C1515 C 0.76331 0.72196 0.38105 0.0
C1516 C 0.76632 0.70375 0.36839 0.0
C1517 C 0.77492 0.66994 0.36858 0.0
C1518 C 0.7546 0.75807 0.38081 0.0
C1519 C 0.7686 0.78169 0.37269 0.0
C1520 C 0.73344 0.76956 0.38903 0.0
C1521 C 0.71689 0.74565 0.39716 0.0
C1522 C 0.70501 0.71775 0.39045 0.0
C1523 C 0.6896 0.69518 0.39819 0.0
C1524 C 0.68578 0.70037 0.41265 0.0
C1525 C 0.6973 0.7282 0.41938 0.0
C1526 C 0.71275 0.75084 0.41169 0.0
C1527 C 0.7188 0.91547 0.36906 0.0
C1528 C 0.71617 0.93283 0.382 0.0
C1529 C 0.72711 0.88155 0.36876 0.0
C1530 C 0.7332 0.86438 0.38136 0.0
C1531 C 0.73081 0.88172 0.39427 0.0
C1532 C 0.72244 0.91559 0.39459 0.0
C1533 C 0.74142 0.82808 0.38115 0.0
C1534 C 0.72729 0.80442 0.38918 0.0
C1535 C 0.76241 0.81656 0.37282 0.0
C1536 C 0.77878 0.84043 0.36457 0.0
C1537 C 0.79111 0.86807 0.37122 0.0
C1538 C 0.80626 0.89068 0.36335 0.0
C1539 C 0.80937 0.88579 0.34882 0.0
C1540 C 0.79741 0.85819 0.34215 0.0
C1541 C 0.78223 0.83551 0.34998 0.0
H1542 H 0.82109 0.90333 0.34274 0.0
H1543 H 0.67385 0.68286 0.41863 0.0
H1544 H 0.80143 0.42139 0.3695 0.0
H1545 H 0.79082 0.36062 0.36977 0.0
H1546 H 0.72565 0.38095 0.397 0.0
H1547 H 0.73639 0.44204 0.39675 0.0
H1548 H 0.75295 0.32607 0.40593 0.0
H1549 H 0.71652 0.36447 0.36223 0.0
H1550 H 0.71657 0.3935 0.33911 0.0
H1551 H 0.77547 0.32525 0.32418 0.0
H1552 H 0.77609 0.29613 0.3473 0.0
H1553 H 0.69265 0.16452 0.39717 0.0
H1554 H 0.7023 0.22566 0.39728 0.0
H1555 H 0.76842 0.20789 0.37043 0.0
H1556 H 0.7587 0.14654 0.37032 0.0
H1557 H 0.73974 0.26172 0.36136 0.0
H1558 H 0.7764 0.22383 0.40526 0.0
H1559 H 0.77622 0.19494 0.42841 0.0
H1560 H 0.71644 0.26235 0.44296 0.0
H1561 H 0.71598 0.29133 0.41981 0.0
C1562 C 0.78468 0.41288 0.37541 0.0
C1563 C 0.76951 0.43626 0.38298 0.0
C1564 C 0.77866 0.37821 0.37558 0.0
C1565 C 0.75723 0.3663 0.38325 0.0
C1566 C 0.74222 0.38962 0.39098 0.0
C1567 C 0.7483 0.42439 0.39082 0.0
C1568 C 0.75073 0.32944 0.38325 0.0
C1569 C 0.74966 0.31209 0.39621 0.0
C1570 C 0.74703 0.31108 0.37052 0.0
C1571 C 0.74651 0.3283 0.35655 0.0
C1572 C 0.72962 0.3558 0.35405 0.0
C1573 C 0.72951 0.37226 0.34094 0.0
C1574 C 0.74605 0.36128 0.3302 0.0
C1575 C 0.76269 0.33375 0.33252 0.0
C1576 C 0.76291 0.31724 0.34562 0.0
C1577 C 0.70941 0.17371 0.39144 0.0
C1578 C 0.72515 0.15099 0.38386 0.0
C1579 C 0.71488 0.20856 0.39148 0.0
C1580 C 0.73625 0.22129 0.38399 0.0
C1581 C 0.75186 0.19859 0.3763 0.0
C1582 C 0.74638 0.16367 0.37627 0.0
C1583 C 0.74206 0.25833 0.38405 0.0
C1584 C 0.74298 0.27572 0.37109 0.0
C1585 C 0.74558 0.27673 0.39677 0.0
C1586 C 0.74598 0.25954 0.41075 0.0
C1587 C 0.76307 0.23233 0.41336 0.0
C1588 C 0.76311 0.21596 0.42649 0.0
C1589 C 0.74628 0.22675 0.43714 0.0
C1590 C 0.72944 0.254 0.4347 0.0
C1591 C 0.72929 0.27042 0.42158 0.0
H1592 H 0.74633 0.21404 0.4473 0.0
H1593 H 0.74594 0.37406 0.32005 0.0
H1594 H 0.19279 0.66782 0.36966 0.0
H1595 H 0.20257 0.72882 0.36993 0.0
H1596 H 0.26642 0.71035 0.39836 0.0
H1597 H 0.25633 0.64909 0.39822 0.0
H1598 H 0.23934 0.76498 0.40648 0.0
H1599 H 0.27645 0.72567 0.3631 0.0
H1600 H 0.27675 0.69608 0.34012 0.0
H1601 H 0.21785 0.76372 0.32463 0.0
H1602 H 0.21689 0.79338 0.34761 0.0
H1603 H 0.30134 0.92508 0.39696 0.0
H1604 H 0.29084 0.86422 0.39742 0.0
H1605 H 0.22482 0.88279 0.37053 0.0
H1606 H 0.23536 0.94391 0.3701 0.0
H1607 H 0.25321 0.82819 0.36167 0.0
H1608 H 0.21663 0.86762 0.40534 0.0
H1609 H 0.21705 0.89706 0.42835 0.0
H1610 H 0.27617 0.82903 0.44328 0.0
H1611 H 0.2764 0.7995 0.42027 0.0
C1612 C 0.20906 0.6768 0.37585 0.0
C1613 C 0.22411 0.65389 0.38375 0.0
C1614 C 0.21462 0.71161 0.37601 0.0
C1615 C 0.23551 0.7241 0.38397 0.0
C1616 C 0.25028 0.70125 0.39209 0.0
C1617 C 0.2446 0.66637 0.39199 0.0
C1618 C 0.2418 0.76103 0.38382 0.0
C1619 C 0.24274 0.7787 0.3967 0.0
C1620 C 0.24568 0.77909 0.37102 0.0
C1621 C 0.24644 0.76156 0.35713 0.0
C1622 C 0.26343 0.73409 0.35483 0.0
C1623 C 0.26373 0.71732 0.3418 0.0
C1624 C 0.24729 0.72796 0.33093 0.0
C1625 C 0.23056 0.75547 0.33306 0.0
C1626 C 0.23014 0.7723 0.34608 0.0
C1627 C 0.28443 0.91615 0.39129 0.0
C1628 C 0.26901 0.939 0.38357 0.0
C1629 C 0.27847 0.88144 0.39154 0.0
C1630 C 0.2569 0.86903 0.38412 0.0
C1631 C 0.24153 0.89186 0.37634 0.0
C1632 C 0.2475 0.92665 0.3761 0.0
C1633 C 0.25069 0.83211 0.38433 0.0
C1634 C 0.2498 0.81444 0.37145 0.0
C1635 C 0.24698 0.81404 0.39712 0.0
C1636 C 0.24669 0.83154 0.41103 0.0
C1637 C 0.22986 0.85909 0.41349 0.0
C1638 C 0.22996 0.87577 0.42654 0.0
C1639 C 0.24667 0.86497 0.43726 0.0
C1640 C 0.26326 0.83739 0.43496 0.0
C1641 C 0.26326 0.82065 0.42192 0.0
H1642 H 0.24672 0.87793 0.44736 0.0
H1643 H 0.24755 0.71494 0.32085 0.0
H1644 H 0.74493 0.64663 0.63889 0.0
H1645 H 0.7347 0.70775 0.63861 0.0
H1646 H 0.79414 0.72422 0.60731 0.0
H1647 H 0.80486 0.66343 0.60792 0.0
H1648 H 0.79637 0.77191 0.62726 0.0
H1649 H 0.73 0.72306 0.59821 0.0
H1650 H 0.6943 0.68377 0.59238 0.0
H1651 H 0.64938 0.72407 0.62668 0.0
H1652 H 0.68497 0.76329 0.63284 0.0
H1653 H 0.75726 0.93961 0.60695 0.0
H1654 H 0.76792 0.87858 0.60672 0.0
H1655 H 0.71028 0.86039 0.63884 0.0
H1656 H 0.69923 0.92103 0.63882 0.0
H1657 H 0.70731 0.81369 0.61805 0.0
H1658 H 0.77413 0.86219 0.64717 0.0
H1659 H 0.80987 0.90157 0.65281 0.0
H1660 H 0.85398 0.86197 0.61805 0.0
H1661 H 0.81833 0.82267 0.61208 0.0
C1662 C 0.75574 0.66342 0.63197 0.0
C1663 C 0.7754 0.65042 0.62329 0.0
C1664 C 0.74983 0.69821 0.63175 0.0
C1665 C 0.76342 0.7205 0.62278 0.0
C1666 C 0.78331 0.7075 0.61425 0.0
C1667 C 0.78925 0.67277 0.61451 0.0
C1668 C 0.75714 0.75743 0.62239 0.0
C1669 C 0.77696 0.78106 0.62506 0.0
C1670 C 0.73172 0.76936 0.61978 0.0
C1671 C 0.71025 0.74588 0.61607 0.0
C1672 C 0.71259 0.72336 0.60458 0.0
C1673 C 0.69236 0.70113 0.6012 0.0
C1674 C 0.66961 0.70136 0.60918 0.0
C1675 C 0.66702 0.72389 0.62053 0.0
C1676 C 0.68721 0.74614 0.62396 0.0
C1677 C 0.74695 0.92247 0.61394 0.0
C1678 C 0.72771 0.93495 0.62303 0.0
C1679 C 0.75309 0.88773 0.61386 0.0
C1680 C 0.74008 0.86499 0.62289 0.0
C1681 C 0.72064 0.87747 0.63184 0.0
C1682 C 0.71453 0.91214 0.63192 0.0
C1683 C 0.74651 0.82812 0.62297 0.0
C1684 C 0.72672 0.80452 0.62023 0.0
C1685 C 0.77196 0.81622 0.62548 0.0
C1686 C 0.79345 0.83973 0.62909 0.0
C1687 C 0.79137 0.86207 0.64066 0.0
C1688 C 0.81162 0.88435 0.64393 0.0
C1689 C 0.83415 0.88434 0.63577 0.0
C1690 C 0.8365 0.86199 0.62435 0.0
C1691 C 0.81628 0.83969 0.62102 0.0
H1692 H 0.84982 0.9016 0.63832 0.0
H1693 H 0.65397 0.68414 0.60655 0.0
H1694 H 0.19477 0.4228 0.63401 0.0
H1695 H 0.20446 0.36179 0.63345 0.0
H1696 H 0.2727 0.38192 0.6085 0.0
H1697 H 0.26257 0.44319 0.60881 0.0
H1698 H 0.24779 0.32788 0.59854 0.0
H1699 H 0.27648 0.36418 0.64419 0.0
H1700 H 0.27255 0.39229 0.66739 0.0
H1701 H 0.21102 0.32401 0.67876 0.0
H1702 H 0.2143 0.29582 0.65552 0.0
H1703 H 0.30689 0.16619 0.61018 0.0
H1704 H 0.29697 0.22727 0.60962 0.0
H1705 H 0.22558 0.20827 0.63193 0.0
H1706 H 0.23553 0.14698 0.63243 0.0
H1707 H 0.2528 0.2617 0.64317 0.0
H1708 H 0.22471 0.22552 0.59713 0.0
H1709 H 0.22963 0.19757 0.57395 0.0
H1710 H 0.2917 0.26582 0.56347 0.0
H1711 H 0.28742 0.29386 0.58669 0.0
C1712 C 0.21193 0.41414 0.6285 0.0
C1713 C 0.22818 0.43749 0.62162 0.0
C1714 C 0.21746 0.37934 0.62819 0.0
C1715 C 0.23958 0.36731 0.62116 0.0
C1716 C 0.2556 0.39065 0.61405 0.0
C1717 C 0.2499 0.42553 0.61425 0.0
C1718 C 0.24586 0.33036 0.62126 0.0
C1719 C 0.24926 0.31352 0.60831 0.0
C1720 C 0.24729 0.31146 0.634 0.0
C1721 C 0.2455 0.32807 0.64806 0.0
C1722 C 0.262 0.35529 0.6516 0.0
C1723 C 0.2599 0.37123 0.66476 0.0
C1724 C 0.24151 0.35999 0.67453 0.0
C1725 C 0.22524 0.33271 0.67117 0.0
C1726 C 0.22723 0.31672 0.65801 0.0
C1727 C 0.28896 0.17511 0.6148 0.0
C1728 C 0.27183 0.15211 0.62125 0.0
C1729 C 0.28332 0.20992 0.6145 0.0
C1730 C 0.26042 0.22226 0.62062 0.0
C1731 C 0.24333 0.19925 0.62713 0.0
C1732 C 0.24896 0.16438 0.6274 0.0
C1733 C 0.25459 0.25927 0.62047 0.0
C1734 C 0.25133 0.27611 0.63341 0.0
C1735 C 0.25348 0.27818 0.60773 0.0
C1736 C 0.2559 0.26159 0.5937 0.0
C1737 C 0.23954 0.23441 0.58993 0.0
C1738 C 0.2422 0.21857 0.57677 0.0
C1739 C 0.26101 0.22986 0.56726 0.0
C1740 C 0.27716 0.25708 0.57086 0.0
C1741 C 0.27461 0.27297 0.58401 0.0
H1742 H 0.26304 0.21756 0.55708 0.0
H1743 H 0.23991 0.37237 0.68471 0.0
H1744 H 0.89471 0.0232 0.14468 0.0
H1745 H 0.94171 0.02917 0.14429 0.0
H1746 H 0.93922 0.04848 0.09941 0.0
H1747 H 0.89221 0.04164 0.09963 0.0
H1748 H 0.97798 0.007 0.10558 0.0
H1749 H 0.94696 0.11378 0.12372 0.0
H1750 H 0.92203 0.15099 0.1397 0.0
H1751 H 0.9646 0.11245 0.17528 0.0
H1752 H 0.98955 0.07466 0.15952 0.0
H1753 H 0.10605 0.07034 0.09994 0.0
H1754 H 0.05888 0.06623 0.09969 0.0
H1755 H 0.059 0.04502 0.14443 0.0
H1756 H 0.10609 0.0498 0.14486 0.0
H1757 H 0.02136 0.08862 0.13789 0.0
H1758 H 0.0517 0.98106 0.11979 0.0
H1759 H 0.07656 0.94375 0.10382 0.0
H1760 H 0.03522 0.98397 0.06813 0.0
H1761 H 0.01034 0.02186 0.08388 0.0
C1762 C 0.90413 0.02863 0.13471 0.0
C1763 C 0.88966 0.0321 0.12219 0.0
C1764 C 0.93101 0.03221 0.13452 0.0
C1765 C 0.94395 0.03989 0.12187 0.0
C1766 C 0.92963 0.04268 0.10931 0.0
C1767 C 0.90275 0.0388 0.10946 0.0
C1768 C 0.9724 0.04497 0.12174 0.0
C1769 C 0.98743 0.0252 0.1125 0.0
C1770 C 0.98479 0.06824 0.13097 0.0
C1771 C 0.96997 0.09118 0.14045 0.0
C1772 C 0.95089 0.11308 0.13496 0.0
C1773 C 0.93677 0.1343 0.14398 0.0
C1774 C 0.94169 0.13403 0.1585 0.0
C1775 C 0.96079 0.11261 0.16403 0.0
C1776 C 0.97495 0.09131 0.15506 0.0
C1777 C 0.09606 0.06492 0.10975 0.0
C1778 C 0.10989 0.06024 0.12241 0.0
C1779 C 0.06908 0.06244 0.10957 0.0
C1780 C 0.05544 0.05479 0.122 0.0
C1781 C 0.06913 0.05087 0.13471 0.0
C1782 C 0.09608 0.05356 0.13492 0.0
C1783 C 0.02692 0.05056 0.12178 0.0
C1784 C 0.01189 0.07049 0.13094 0.0
C1785 C 0.01453 0.02747 0.11248 0.0
C1786 C 0.02934 0.00452 0.103 0.0
C1787 C 0.04804 0.98211 0.10853 0.0
C1788 C 0.06211 0.96084 0.09952 0.0
C1789 C 0.05752 0.96155 0.08496 0.0
C1790 C 0.03878 0.98348 0.0794 0.0
C1791 C 0.02467 0.00483 0.08837 0.0
H1792 H 0.06845 0.94507 0.078 0.0
H1793 H 0.93073 0.15046 0.16547 0.0
H1794 H 0.10457 0.03432 0.90671 0.0
H1795 H 0.05751 0.04 0.90694 0.0
H1796 H 0.05636 0.03813 0.86136 0.0
H1797 H 0.10344 0.033 0.86099 0.0
H1798 H 0.02629 0.08816 0.87134 0.0
H1799 H 0.03766 0.96876 0.88063 0.0
H1800 H 0.05506 0.91847 0.89307 0.0
H1801 H 0.01979 0.95212 0.9317 0.0
H1802 H 0.00246 0.00289 0.91953 0.0
H1803 H 0.89186 0.05986 0.86144 0.0
H1804 H 0.93895 0.05503 0.86174 0.0
H1805 H 0.93854 0.05905 0.90729 0.0
H1806 H 0.89136 0.06351 0.90714 0.0
H1807 H 0.96937 0.00848 0.89766 0.0
H1808 H 0.95748 0.12759 0.88817 0.0
H1809 H 0.93994 0.17761 0.8756 0.0
H1810 H 0.97611 0.1442 0.83719 0.0
H1811 H 0.99357 0.0937 0.84948 0.0
C1812 C 0.09433 0.03494 0.89672 0.0
C1813 C 0.10782 0.03313 0.88383 0.0
C1814 C 0.0674 0.03808 0.89688 0.0
C1815 C 0.05341 0.03919 0.88416 0.0
C1816 C 0.06678 0.03734 0.87129 0.0
C1817 C 0.09371 0.03427 0.87111 0.0
C1818 C 0.02486 0.04295 0.88426 0.0
C1819 C 0.01381 0.07048 0.87694 0.0
C1820 C 0.00865 0.02036 0.89186 0.0
C1821 C 0.01898 0.9898 0.89919 0.0
C1822 C 0.03378 0.96558 0.8918 0.0
C1823 C 0.0436 0.93696 0.8988 0.0
C1824 C 0.03859 0.93215 0.91317 0.0
C1825 C 0.02369 0.95591 0.92057 0.0
C1826 C 0.01384 0.98459 0.91362 0.0
C1827 C 0.90174 0.05991 0.87153 0.0
C1828 C 0.8878 0.06215 0.88427 0.0
C1829 C 0.92869 0.05724 0.87168 0.0
C1830 C 0.94225 0.05698 0.88453 0.0
C1831 C 0.92843 0.05923 0.89726 0.0
C1832 C 0.90147 0.06189 0.89713 0.0
C1833 C 0.97082 0.05362 0.8847 0.0
C1834 C 0.98186 0.02619 0.89208 0.0
C1835 C 0.98702 0.07626 0.87714 0.0
C1836 C 0.97663 0.10669 0.86972 0.0
C1837 C 0.96152 0.13076 0.87702 0.0
C1838 C 0.95163 0.15923 0.86995 0.0
C1839 C 0.95685 0.16404 0.8556 0.0
C1840 C 0.97205 0.14043 0.8483 0.0
C1841 C 0.98197 0.11189 0.85532 0.0
H1842 H 0.94917 0.18609 0.85014 0.0
H1843 H 0.04621 0.90997 0.91857 0.0
H1844 H 0.89393 0.52913 0.59915 0.0
H1845 H 0.94104 0.53469 0.59865 0.0
H1846 H 0.94307 0.53231 0.64422 0.0
H1847 H 0.89604 0.52718 0.64486 0.0
H1848 H 0.97242 0.58315 0.63401 0.0
H1849 H 0.96166 0.46348 0.6249 0.0
H1850 H 0.94449 0.41304 0.61249 0.0
H1851 H 0.97952 0.44703 0.57383 0.0
H1852 H 0.99661 0.49794 0.58597 0.0
H1853 H 0.10654 0.55554 0.64459 0.0
H1854 H 0.05948 0.55043 0.644 0.0
H1855 H 0.06084 0.55405 0.59844 0.0
H1856 H 0.10799 0.55878 0.59889 0.0
H1857 H 0.02975 0.5036 0.60794 0.0
H1858 H 0.04135 0.62269 0.61723 0.0
H1859 H 0.05867 0.67293 0.62972 0.0
H1860 H 0.02206 0.63999 0.6681 0.0
H1861 H 0.00482 0.58927 0.65589 0.0
C1862 C 0.90439 0.52957 0.60907 0.0
C1863 C 0.89116 0.5277 0.62205 0.0
C1864 C 0.93133 0.53266 0.60876 0.0
C1865 C 0.94556 0.53371 0.6214 0.0
C1866 C 0.93245 0.53161 0.63435 0.0
C1867 C 0.90555 0.52855 0.63467 0.0
C1868 C 0.97408 0.53784 0.62119 0.0
C1869 C 0.98499 0.56551 0.62846 0.0
C1870 C 0.99039 0.51533 0.61363 0.0
C1871 C 0.98018 0.4847 0.60632 0.0
C1872 C 0.96552 0.46035 0.61373 0.0
C1873 C 0.95584 0.43164 0.60675 0.0
C1874 C 0.96085 0.42688 0.59237 0.0
C1875 C 0.97562 0.45078 0.58496 0.0
C1876 C 0.98533 0.47955 0.59189 0.0
C1877 C 0.09687 0.55544 0.63443 0.0
C1878 C 0.11108 0.55766 0.62178 0.0
C1879 C 0.06994 0.55261 0.63412 0.0
C1880 C 0.05665 0.55217 0.62118 0.0
C1881 C 0.07073 0.55437 0.60854 0.0
C1882 C 0.09768 0.5572 0.60883 0.0
C1883 C 0.02808 0.54879 0.62085 0.0
C1884 C 0.01717 0.52129 0.61346 0.0
C1885 C 0.01175 0.57145 0.62831 0.0
C1886 C 0.022 0.60201 0.63567 0.0
C1887 C 0.03716 0.62602 0.62836 0.0
C1888 C 0.04693 0.65461 0.63538 0.0
C1889 C 0.04152 0.65961 0.6497 0.0
C1890 C 0.02626 0.63607 0.65701 0.0
C1891 C 0.01647 0.60741 0.65004 0.0
H1892 H 0.0491 0.68176 0.65512 0.0
H1893 H 0.95334 0.40464 0.58699 0.0
H1894 H 0.89136 0.54704 0.40593 0.0
H1895 H 0.93843 0.54185 0.40597 0.0
H1896 H 0.93966 0.55692 0.3608 0.0
H1897 H 0.89251 0.56133 0.3606 0.0
H1898 H 0.97057 0.50589 0.36801 0.0
H1899 H 0.95746 0.6208 0.38406 0.0
H1900 H 0.9392 0.66586 0.39923 0.0
H1901 H 0.97456 0.62006 0.43567 0.0
H1902 H 0.99275 0.57444 0.42073 0.0
H1903 H 0.10496 0.53832 0.3607 0.0
H1904 H 0.05784 0.54223 0.36086 0.0
H1905 H 0.05739 0.52602 0.40596 0.0
H1906 H 0.10461 0.52276 0.40596 0.0
H1907 H 0.02609 0.5772 0.39893 0.0
H1908 H 0.03961 0.46256 0.38273 0.0
H1909 H 0.05797 0.41776 0.36745 0.0
H1910 H 0.02194 0.46337 0.33117 0.0
H1911 H 0.00364 0.50873 0.34621 0.0
C1912 C 0.90162 0.54942 0.396 0.0
C1913 C 0.88814 0.55472 0.38327 0.0
C1914 C 0.92856 0.54655 0.39605 0.0
C1915 C 0.94261 0.5494 0.38341 0.0
C1916 C 0.92922 0.55466 0.37068 0.0
C1917 C 0.90226 0.55729 0.3706 0.0
C1918 C 0.97123 0.54633 0.38341 0.0
C1919 C 0.98274 0.5218 0.37463 0.0
C1920 C 0.98706 0.56651 0.3923 0.0
C1921 C 0.97626 0.59403 0.40129 0.0
C1922 C 0.96119 0.6202 0.39532 0.0
C1923 C 0.95087 0.64586 0.40388 0.0
C1924 C 0.95566 0.64578 0.41841 0.0
C1925 C 0.97084 0.62007 0.42442 0.0
C1926 C 0.98118 0.59433 0.41591 0.0
C1927 C 0.09487 0.53537 0.37066 0.0
C1928 C 0.1086 0.53014 0.38332 0.0
C1929 C 0.0679 0.5375 0.37071 0.0
C1930 C 0.05406 0.53404 0.3834 0.0
C1931 C 0.06768 0.52874 0.39605 0.0
C1932 C 0.09468 0.52679 0.39602 0.0
C1933 C 0.02543 0.53679 0.38352 0.0
C1934 C 0.01392 0.56126 0.39232 0.0
C1935 C 0.0096 0.51659 0.37463 0.0
C1936 C 0.02045 0.48921 0.36558 0.0
C1937 C 0.03575 0.46317 0.37148 0.0
C1938 C 0.04612 0.43766 0.36287 0.0
C1939 C 0.04117 0.43776 0.34835 0.0
C1940 C 0.02578 0.46334 0.34242 0.0
C1941 C 0.01538 0.48894 0.35098 0.0
H1942 H 0.04922 0.41799 0.34169 0.0
H1943 H 0.94766 0.66566 0.42502 0.0
H1944 H 0.39418 0.03105 0.60131 0.0
H1945 H 0.4413 0.03509 0.60172 0.0
H1946 H 0.44023 0.03632 0.64731 0.0
H1947 H 0.39302 0.03284 0.64703 0.0
H1948 H 0.47201 0.08437 0.63716 0.0
H1949 H 0.45859 0.96511 0.62939 0.0
H1950 H 0.44048 0.91434 0.61763 0.0
H1951 H 0.47734 0.94326 0.57877 0.0
H1952 H 0.49538 0.99449 0.59025 0.0
H1953 H 0.60694 0.0552 0.6466 0.0
H1954 H 0.55982 0.05048 0.6469 0.0
H1955 H 0.55849 0.05144 0.60132 0.0
H1956 H 0.60563 0.05579 0.60088 0.0
H1957 H 0.528 0.00154 0.61197 0.0
H1958 H 0.54088 0.12145 0.61993 0.0
H1959 H 0.55897 0.17192 0.63192 0.0
H1960 H 0.52317 0.14104 0.67082 0.0
H1961 H 0.50516 0.09011 0.6591 0.0
C1962 C 0.40392 0.03203 0.61144 0.0
C1963 C 0.38978 0.03153 0.62414 0.0
C1964 C 0.4309 0.03422 0.61165 0.0
C1965 C 0.44429 0.03565 0.62455 0.0
C1966 C 0.43026 0.03521 0.63724 0.0
C1967 C 0.40328 0.03309 0.63705 0.0
C1968 C 0.47291 0.0383 0.62478 0.0
C1969 C 0.48428 0.06598 0.63183 0.0
C1970 C 0.48886 0.01468 0.61758 0.0
C1971 C 0.47813 0.98381 0.61065 0.0
C1972 C 0.46267 0.96079 0.61831 0.0
C1973 C 0.45245 0.9319 0.6117 0.0
C1974 C 0.4577 0.92562 0.59745 0.0
C1975 C 0.47326 0.94818 0.5898 0.0
C1976 C 0.4835 0.97712 0.59635 0.0
C1977 C 0.59666 0.05459 0.63662 0.0
C1978 C 0.6101 0.05595 0.62371 0.0
C1979 C 0.5697 0.05198 0.63683 0.0
C1980 C 0.55565 0.05088 0.62414 0.0
C1981 C 0.56898 0.05225 0.61124 0.0
C1982 C 0.59593 0.05487 0.61101 0.0
C1983 C 0.52707 0.04769 0.62429 0.0
C1984 C 0.51571 0.01988 0.61732 0.0
C1985 C 0.51115 0.07112 0.63161 0.0
C1986 C 0.52189 0.10179 0.63866 0.0
C1987 C 0.53704 0.12528 0.63106 0.0
C1988 C 0.54725 0.15399 0.63781 0.0
C1989 C 0.54228 0.15963 0.65213 0.0
C1990 C 0.52703 0.13661 0.65973 0.0
C1991 C 0.5168 0.10783 0.65304 0.0
H1992 H 0.5502 0.18188 0.65734 0.0
H1993 H 0.44977 0.90324 0.59235 0.0
H1994 H 0.39324 0.06117 0.36136 0.0
H1995 H 0.44026 0.05564 0.36206 0.0
H1996 H 0.43767 0.04621 0.40747 0.0
H1997 H 0.39061 0.05243 0.40692 0.0
H1998 H 0.47646 0.08705 0.39948 0.0
H1999 H 0.44562 0.97606 0.38639 0.0
H2000 H 0.42065 0.93468 0.37228 0.0
H2001 H 0.46271 0.96366 0.33504 0.0
H2002 H 0.48771 0.00557 0.34889 0.0
H2003 H 0.60507 0.02562 0.40724 0.0
H2004 H 0.5579 0.03 0.40763 0.0
H2005 H 0.55694 0.04015 0.36223 0.0
H2006 H 0.60399 0.03519 0.36169 0.0
H2007 H 0.5198 0.9977 0.37091 0.0
H2008 H 0.54983 0.10961 0.38385 0.0
H2009 H 0.57471 0.15122 0.39789 0.0
H2010 H 0.53415 0.12049 0.43539 0.0
H2011 H 0.50926 0.07835 0.4216 0.0
C2012 C 0.40263 0.05803 0.37152 0.0
C2013 C 0.38811 0.05707 0.38408 0.0
C2014 C 0.42952 0.05471 0.37189 0.0
C2015 C 0.44243 0.04994 0.3848 0.0
C2016 C 0.42808 0.04974 0.39739 0.0
C2017 C 0.40117 0.05324 0.39704 0.0
C2018 C 0.47088 0.04503 0.38515 0.0
C2019 C 0.48592 0.0672 0.3934 0.0
C2020 C 0.48324 0.01954 0.37699 0.0
C2021 C 0.46838 0.99416 0.36866 0.0
C2022 C 0.44942 0.97378 0.37517 0.0
C2023 C 0.43528 0.9502 0.36722 0.0
C2024 C 0.44005 0.9466 0.35276 0.0
C2025 C 0.45902 0.9665 0.34623 0.0
C2026 C 0.4732 0.99014 0.35413 0.0
C2027 C 0.59484 0.02868 0.39732 0.0
C2028 C 0.60836 0.03018 0.38443 0.0
C2029 C 0.56787 0.03133 0.39758 0.0
C2030 C 0.55393 0.03585 0.38497 0.0
C2031 C 0.56731 0.03672 0.37208 0.0
C2032 C 0.59424 0.03394 0.37181 0.0
C2033 C 0.5254 0.03985 0.38517 0.0
C2034 C 0.51034 0.01748 0.37703 0.0
C2035 C 0.51303 0.06514 0.39342 0.0
C2036 C 0.52787 0.09059 0.40172 0.0
C2037 C 0.54635 0.11155 0.39511 0.0
C2038 C 0.56043 0.13525 0.40302 0.0
C2039 C 0.55607 0.13843 0.41753 0.0
C2040 C 0.53755 0.11797 0.42415 0.0
C2041 C 0.52343 0.09419 0.41629 0.0
H2042 H 0.56699 0.15679 0.42364 0.0
H2043 H 0.42907 0.92835 0.34663 0.0
H2044 H 0.60527 0.56112 0.14522 0.0
H2045 H 0.55813 0.55715 0.14526 0.0
H2046 H 0.558 0.55146 0.09973 0.0
H2047 H 0.60516 0.556 0.09955 0.0
H2048 H 0.52032 0.59296 0.10912 0.0
H2049 H 0.55053 0.47995 0.11976 0.0
H2050 H 0.57565 0.43672 0.13282 0.0
H2051 H 0.53555 0.4626 0.17107 0.0
H2052 H 0.51042 0.50634 0.15827 0.0
H2053 H 0.39261 0.5308 0.10011 0.0
H2054 H 0.4397 0.53608 0.10014 0.0
H2055 H 0.43948 0.54248 0.14565 0.0
H2056 H 0.3924 0.53677 0.14577 0.0
H2057 H 0.4773 0.50082 0.13634 0.0
H2058 H 0.44694 0.61361 0.1257 0.0
H2059 H 0.42184 0.65691 0.11268 0.0
H2060 H 0.46219 0.6315 0.07445 0.0
H2061 H 0.4873 0.58768 0.08721 0.0
C2062 C 0.59526 0.55918 0.1352 0.0
C2063 C 0.60905 0.5587 0.12238 0.0
C2064 C 0.5683 0.55676 0.13525 0.0
C2065 C 0.55459 0.55349 0.12251 0.0
C2066 C 0.56821 0.55386 0.10969 0.0
C2067 C 0.59519 0.55639 0.10961 0.0
C2068 C 0.52608 0.54928 0.12256 0.0
C2069 C 0.51092 0.57255 0.11492 0.0
C2070 C 0.51381 0.52309 0.13039 0.0
C2071 C 0.52877 0.49664 0.13809 0.0
C2072 C 0.5472 0.4766 0.13098 0.0
C2073 C 0.56142 0.45198 0.13833 0.0
C2074 C 0.55724 0.44698 0.15277 0.0
C2075 C 0.53878 0.46653 0.15988 0.0
C2076 C 0.52453 0.49122 0.15259 0.0
C2077 C 0.40254 0.53323 0.11014 0.0
C2078 C 0.38868 0.53348 0.12294 0.0
C2079 C 0.42946 0.5364 0.11013 0.0
C2080 C 0.44305 0.54012 0.12289 0.0
C2081 C 0.42936 0.53971 0.13568 0.0
C2082 C 0.40243 0.53651 0.13572 0.0
C2083 C 0.47155 0.54449 0.12289 0.0
C2084 C 0.4867 0.52124 0.13055 0.0
C2085 C 0.4838 0.5707 0.11507 0.0
C2086 C 0.46882 0.59713 0.10739 0.0
C2087 C 0.45032 0.61707 0.1145 0.0
C2088 C 0.43612 0.64174 0.10717 0.0
C2089 C 0.44037 0.64689 0.09274 0.0
C2090 C 0.45889 0.62745 0.08562 0.0
C2091 C 0.47313 0.60271 0.0929 0.0
H2092 H 0.42936 0.66601 0.08709 0.0
H2093 H 0.56828 0.42791 0.15844 0.0
H2094 H 0.39103 0.55116 0.90648 0.0
H2095 H 0.4381 0.54627 0.90655 0.0
H2096 H 0.43946 0.56254 0.86146 0.0
H2097 H 0.39228 0.56659 0.86122 0.0
H2098 H 0.47021 0.51138 0.86839 0.0
H2099 H 0.4574 0.62573 0.88524 0.0
H2100 H 0.43927 0.67024 0.90074 0.0
H2101 H 0.47447 0.62271 0.93685 0.0
H2102 H 0.49255 0.57765 0.92158 0.0
H2103 H 0.60432 0.54319 0.861 0.0
H2104 H 0.55726 0.54747 0.8614 0.0
H2105 H 0.55741 0.53005 0.90642 0.0
H2106 H 0.60466 0.5265 0.9062 0.0
H2107 H 0.52591 0.58118 0.8998 0.0
H2108 H 0.53919 0.46717 0.88282 0.0
H2109 H 0.55746 0.42294 0.86723 0.0
H2110 H 0.52142 0.47006 0.83128 0.0
H2111 H 0.50322 0.51486 0.84663 0.0
C2112 C 0.40132 0.55392 0.89658 0.0
C2113 C 0.38786 0.55937 0.88384 0.0
C2114 C 0.42827 0.55123 0.89665 0.0
C2115 C 0.44235 0.55445 0.88403 0.0
C2116 C 0.42899 0.55999 0.87132 0.0
C2117 C 0.40202 0.56241 0.87121 0.0
C2118 C 0.47097 0.55124 0.88404 0.0
C2119 C 0.48242 0.52698 0.87512 0.0
C2120 C 0.48685 0.57096 0.89309 0.0
C2121 C 0.47613 0.59815 0.90228 0.0
C2122 C 0.46112 0.62464 0.8965 0.0
C2123 C 0.45088 0.64999 0.90524 0.0
C2124 C 0.45566 0.64926 0.91977 0.0
C2125 C 0.47076 0.62323 0.92559 0.0
C2126 C 0.48103 0.5978 0.91689 0.0
C2127 C 0.59439 0.54005 0.871 0.0
C2128 C 0.60829 0.53438 0.88357 0.0
C2129 C 0.56744 0.5424 0.87119 0.0
C2130 C 0.55378 0.53864 0.88391 0.0
C2131 C 0.56756 0.53298 0.89648 0.0
C2132 C 0.59457 0.53086 0.89632 0.0
C2133 C 0.52514 0.5414 0.88412 0.0
C2134 C 0.51369 0.56556 0.89309 0.0
C2135 C 0.50926 0.52162 0.8751 0.0
C2136 C 0.52002 0.49454 0.86586 0.0
C2137 C 0.5353 0.46824 0.87158 0.0
C2138 C 0.54563 0.44304 0.86278 0.0
C2139 C 0.54065 0.44373 0.84827 0.0
C2140 C 0.52528 0.46957 0.84252 0.0
C2141 C 0.51493 0.49485 0.85127 0.0
H2142 H 0.54867 0.42421 0.84148 0.0
H2143 H 0.44771 0.6689 0.92653 0.0
H2144 H 0.25207 0.02322 0.9447 0.0
H2145 H 0.2532 0.03118 0.97031 0.0
H2146 H 0.1702 0.04343 0.97077 0.0
H2147 H 0.16909 0.03677 0.94511 0.0
H2148 H 0.19024 0.08827 0.98731 0.0
H2149 H 0.20169 0.96794 0.98177 0.0
H2150 H 0.22165 0.91522 0.97268 0.0
H2151 H 0.29409 0.94302 0.99171 0.0
H2152 H 0.27464 0.99616 1.00076 0.0
H2153 H 0.17027 0.05825 0.0608 0.0
H2154 H 0.17112 0.05191 0.03509 0.0
H2155 H 0.25426 0.0612 0.03542 0.0
H2156 H 0.2536 0.0679 0.06116 0.0
H2157 H 0.23515 0.0061 0.01877 0.0
H2158 H 0.22118 0.12664 0.0249 0.0
H2159 H 0.199 0.17733 0.03441 0.0
H2160 H 0.12813 0.14588 0.01461 0.0
H2161 H 0.14981 0.09471 0.00514 0.0
C2162 C 0.23406 0.02754 0.95026 0.0
C2163 C 0.21048 0.02923 0.94288 0.0
C2164 C 0.2347 0.03193 0.96493 0.0
C2165 C 0.21173 0.03738 0.97256 0.0
C2166 C 0.18819 0.03926 0.96516 0.0
C2167 C 0.18758 0.03535 0.95048 0.0
C2168 C 0.21218 0.04155 0.9882 0.0
C2169 C 0.19979 0.07001 0.99417 0.0
C2170 C 0.22503 0.01814 0.99722 0.0
C2171 C 0.23678 0.9862 0.99181 0.0
C2172 C 0.22193 0.96294 0.98392 0.0
C2173 C 0.23314 0.93296 0.97879 0.0
C2174 C 0.25914 0.92582 0.98158 0.0
C2175 C 0.27396 0.94861 0.98954 0.0
C2176 C 0.26285 0.97865 0.99468 0.0
C2177 C 0.18875 0.05899 0.05542 0.0
C2178 C 0.21187 0.0637 0.06303 0.0
C2179 C 0.18918 0.05545 0.04072 0.0
C2180 C 0.21274 0.05628 0.03336 0.0
C2181 C 0.23588 0.06053 0.04092 0.0
C2182 C 0.23545 0.06449 0.05561 0.0
C2183 C 0.21314 0.0526 0.01776 0.0
C2184 C 0.22567 0.02429 0.01185 0.0
C2185 C 0.2001 0.07583 0.0088 0.0
C2186 C 0.18707 0.10668 0.01442 0.0
C2187 C 0.20081 0.13038 0.02267 0.0
C2188 C 0.18834 0.15923 0.02804 0.0
C2189 C 0.16215 0.16478 0.02515 0.0
C2190 C 0.1484 0.14153 0.01685 0.0
C2191 C 0.16078 0.11262 0.01147 0.0
H2192 H 0.15253 0.18713 0.02931 0.0
H2193 H 0.26778 0.9026 0.97761 0.0
H2194 H 0.74363 0.0575 0.9448 0.0
H2195 H 0.74323 0.04941 0.97042 0.0
H2196 H 0.82608 0.06344 0.97162 0.0
H2197 H 0.82667 0.06992 0.94594 0.0
H2198 H 0.81484 0.01398 0.98787 0.0
H2199 H 0.78036 0.12667 0.98257 0.0
H2200 H 0.75091 0.17103 0.97346 0.0
H2201 H 0.68599 0.11887 0.99175 0.0
H2202 H 0.71502 0.07394 1.00082 0.0
H2203 H 0.82671 0.04495 0.06163 0.0
H2204 H 0.82525 0.05282 0.03601 0.0
H2205 H 0.74613 0.01791 0.03535 0.0
H2206 H 0.74741 0.00981 0.06102 0.0
H2207 H 0.75465 0.07725 0.01915 0.0
H2208 H 0.7916 0.96516 0.02495 0.0
H2209 H 0.82277 0.92349 0.03452 0.0
H2210 H 0.88553 0.97887 0.01561 0.0
H2211 H 0.85475 0.02116 0.00609 0.0
C2212 C 0.76173 0.059 0.95055 0.0
C2213 C 0.78517 0.06445 0.94337 0.0
C2214 C 0.76148 0.05453 0.96522 0.0
C2215 C 0.78458 0.05635 0.97306 0.0
C2216 C 0.80799 0.06188 0.96586 0.0
C2217 C 0.8083 0.06568 0.95117 0.0
C2218 C 0.78454 0.05175 0.98869 0.0
C2219 C 0.80189 0.02823 0.99468 0.0
C2220 C 0.76733 0.06975 0.99766 0.0
C2221 C 0.74984 0.09677 0.99225 0.0
C2222 C 0.75978 0.12453 0.98456 0.0
C2223 C 0.74317 0.1498 0.97942 0.0
C2224 C 0.71659 0.14772 0.98199 0.0
C2225 C 0.70657 0.12042 0.98975 0.0
C2226 C 0.7231 0.09506 0.9949 0.0
C2227 C 0.80897 0.03894 0.05606 0.0
C2228 C 0.78719 0.0266 0.06337 0.0
C2229 C 0.80821 0.04338 0.04141 0.0
C2230 C 0.78565 0.0357 0.03378 0.0
C2231 C 0.76373 0.02394 0.04105 0.0
C2232 C 0.76454 0.01921 0.05571 0.0
C2233 C 0.78503 0.0398 0.0182 0.0
C2234 C 0.76755 0.06312 0.01226 0.0
C2235 C 0.80238 0.02205 0.00929 0.0
C2236 C 0.82088 0.99649 0.01492 0.0
C2237 C 0.81207 0.9686 0.02293 0.0
C2238 C 0.82966 0.94484 0.02832 0.0
C2239 C 0.85612 0.94857 0.0257 0.0
C2240 C 0.86503 0.97603 0.01764 0.0
C2241 C 0.84752 0.99988 0.01223 0.0
H2242 H 0.86971 0.93016 0.02989 0.0
H2243 H 0.70376 0.16731 0.978 0.0
H2244 H 0.25486 0.57218 0.56072 0.0
H2245 H 0.25538 0.566 0.53501 0.0
H2246 H 0.17363 0.54358 0.53535 0.0
H2247 H 0.1731 0.5489 0.56106 0.0
H2248 H 0.19728 0.50158 0.51816 0.0
H2249 H 0.19759 0.62249 0.52499 0.0
H2250 H 0.21297 0.67743 0.53446 0.0
H2251 H 0.28642 0.66282 0.51415 0.0
H2252 H 0.27159 0.60754 0.5047 0.0
H2253 H 0.17096 0.5303 0.44531 0.0
H2254 H 0.17245 0.53563 0.47104 0.0
H2255 H 0.25562 0.54361 0.46948 0.0
H2256 H 0.25435 0.53812 0.4437 0.0
H2257 H 0.2323 0.59245 0.48708 0.0
H2258 H 0.23013 0.47118 0.47976 0.0
H2259 H 0.21295 0.41745 0.47002 0.0
H2260 H 0.14055 0.43464 0.49109 0.0
H2261 H 0.15718 0.48875 0.50081 0.0
C2262 C 0.23699 0.56596 0.55533 0.0
C2263 C 0.21392 0.56116 0.56296 0.0
C2264 C 0.23728 0.56258 0.5406 0.0
C2265 C 0.21447 0.55476 0.53318 0.0
C2266 C 0.19148 0.54965 0.54081 0.0
C2267 C 0.1912 0.5528 0.55553 0.0
C2268 C 0.21452 0.55159 0.5175 0.0
C2269 C 0.20466 0.52167 0.51138 0.0
C2270 C 0.22458 0.57748 0.50861 0.0
C2271 C 0.23357 0.6107 0.51427 0.0
C2272 C 0.2171 0.63086 0.52264 0.0
C2273 C 0.2257 0.66209 0.52799 0.0
C2274 C 0.25069 0.67356 0.52494 0.0
C2275 C 0.26709 0.65387 0.51651 0.0
C2276 C 0.25859 0.6226 0.51115 0.0
C2277 C 0.18959 0.53317 0.45042 0.0
C2278 C 0.21256 0.53365 0.44244 0.0
C2279 C 0.1904 0.53612 0.46514 0.0
C2280 C 0.21416 0.53977 0.47218 0.0
C2281 C 0.23709 0.54076 0.46425 0.0
C2282 C 0.23633 0.53748 0.44953 0.0
C2283 C 0.215 0.54257 0.48782 0.0
C2284 C 0.22501 0.5724 0.49391 0.0
C2285 C 0.20482 0.51678 0.49668 0.0
C2286 C 0.19482 0.48418 0.4909 0.0
C2287 C 0.21047 0.46365 0.48223 0.0
C2288 C 0.20085 0.43309 0.47672 0.0
C2289 C 0.17566 0.42268 0.4799 0.0
C2290 C 0.16005 0.44276 0.48862 0.0
C2291 C 0.16957 0.47336 0.49414 0.0
H2292 H 0.16824 0.39902 0.47564 0.0
H2293 H 0.25731 0.69775 0.52909 0.0
H2294 H 0.75938 0.60013 0.4472 0.0
H2295 H 0.75936 0.59164 0.47282 0.0
H2296 H 0.81887 0.51521 0.46862 0.0
H2297 H 0.81883 0.52324 0.443 0.0
H2298 H 0.78261 0.49475 0.48691 0.0
H2299 H 0.83401 0.59464 0.47971 0.0
H2300 H 0.84396 0.65218 0.47072 0.0
H2301 H 0.78045 0.69343 0.49445 0.0
H2302 H 0.7699 0.63601 0.50343 0.0
H2303 H 0.8272 0.55058 0.56231 0.0
H2304 H 0.82703 0.55801 0.53668 0.0
H2305 H 0.75185 0.51046 0.53436 0.0
H2306 H 0.75216 0.50216 0.55998 0.0
H2307 H 0.79768 0.59237 0.51921 0.0
H2308 H 0.74608 0.46692 0.50353 0.0
H2309 H 0.74092 0.40817 0.51244 0.0
H2310 H 0.81345 0.41585 0.53439 0.0
H2311 H 0.81919 0.47446 0.52546 0.0
C2312 C 0.77242 0.58144 0.45171 0.0
C2313 C 0.78921 0.56249 0.44304 0.0
C2314 C 0.77245 0.57671 0.46637 0.0
C2315 C 0.78931 0.55303 0.47266 0.0
C2316 C 0.80572 0.53363 0.46401 0.0
C2317 C 0.80574 0.53837 0.44936 0.0
C2318 C 0.79002 0.54868 0.48827 0.0
C2319 C 0.78583 0.51611 0.49398 0.0
C2320 C 0.79471 0.57641 0.49749 0.0
C2321 C 0.801 0.61097 0.49212 0.0
C2322 C 0.82203 0.61594 0.48292 0.0
C2323 C 0.82781 0.64854 0.47784 0.0
C2324 C 0.8128 0.67643 0.48198 0.0
C2325 C 0.79203 0.67179 0.49123 0.0
C2326 C 0.78615 0.63923 0.49633 0.0
C2327 C 0.81062 0.54165 0.55636 0.0
C2328 C 0.78976 0.52556 0.5632 0.0
C2329 C 0.81052 0.54603 0.54169 0.0
C2330 C 0.78957 0.53446 0.53354 0.0
C2331 C 0.76846 0.51904 0.54038 0.0
C2332 C 0.76862 0.51443 0.55504 0.0
C2333 C 0.78993 0.53848 0.5179 0.0
C2334 C 0.79431 0.57102 0.51217 0.0
C2335 C 0.78601 0.51056 0.50864 0.0
C2336 C 0.78291 0.47519 0.51394 0.0
C2337 C 0.76096 0.45601 0.51022 0.0
C2338 C 0.75793 0.42275 0.51528 0.0
C2339 C 0.7768 0.40833 0.52402 0.0
C2340 C 0.7988 0.4271 0.52767 0.0
C2341 C 0.80193 0.46035 0.52262 0.0
H2342 H 0.77441 0.38259 0.52793 0.0
H2343 H 0.81731 0.70166 0.47804 0.0
H2344 H 0.75288 0.0386 0.56251 0.0
H2345 H 0.75298 0.03286 0.53678 0.0
H2346 H 0.6723 0.06127 0.53553 0.0
H2347 H 0.67186 0.06566 0.56128 0.0
H2348 H 0.67919 0.01144 0.51846 0.0
H2349 H 0.72352 0.1172 0.52587 0.0
H2350 H 0.75656 0.15559 0.53589 0.0
H2351 H 0.81672 0.0954 0.51701 0.0
H2352 H 0.78403 0.05638 0.50702 0.0
H2353 H 0.6723 0.04803 0.44496 0.0
H2354 H 0.67341 0.05421 0.47066 0.0
H2355 H 0.74987 0.01022 0.47165 0.0
H2356 H 0.74898 0.00396 0.44592 0.0
H2357 H 0.7455 0.06773 0.48858 0.0
H2358 H 0.69918 0.9626 0.48088 0.0
H2359 H 0.66492 0.92667 0.47052 0.0
H2360 H 0.60677 0.9896 0.48974 0.0
H2361 H 0.6407 0.0262 0.50006 0.0
C2362 C 0.73519 0.04372 0.55674 0.0
C2363 C 0.71239 0.0527 0.56393 0.0
C2364 C 0.73529 0.0406 0.54201 0.0
C2365 C 0.71275 0.04717 0.53413 0.0
C2366 C 0.68995 0.05606 0.54133 0.0
C2367 C 0.68974 0.05864 0.55606 0.0
C2368 C 0.71271 0.04419 0.51843 0.0
C2369 C 0.6935 0.02419 0.51195 0.0
C2370 C 0.73164 0.06022 0.50985 0.0
C2371 C 0.75133 0.08368 0.51582 0.0
C2372 C 0.7438 0.11201 0.52394 0.0
C2373 C 0.76246 0.13391 0.5296 0.0
C2374 C 0.78872 0.12789 0.52712 0.0
C2375 C 0.79637 0.10001 0.51894 0.0
C2376 C 0.77778 0.07801 0.51327 0.0
C2377 C 0.68939 0.03969 0.45062 0.0
C2378 C 0.71051 0.02534 0.44337 0.0
C2379 C 0.68995 0.04316 0.46532 0.0
C2380 C 0.71162 0.03237 0.47308 0.0
C2381 C 0.73294 0.01865 0.46587 0.0
C2382 C 0.73235 0.01499 0.45116 0.0
C2383 C 0.71197 0.03519 0.48873 0.0
C2384 C 0.73122 0.05508 0.49516 0.0
C2385 C 0.6929 0.01946 0.49725 0.0
C2386 C 0.67248 0.99732 0.49113 0.0
C2387 C 0.67909 0.96893 0.48281 0.0
C2388 C 0.65973 0.94841 0.47696 0.0
C2389 C 0.63368 0.95589 0.47944 0.0
C2390 C 0.62695 0.98385 0.48781 0.0
C2391 C 0.64624 0.00447 0.49368 0.0
H2392 H 0.61872 0.93998 0.4749 0.0
H2393 H 0.80314 0.14487 0.53152 0.0
H2394 H 0.27211 0.11583 0.44877 0.0
H2395 H 0.2718 0.10553 0.47425 0.0
H2396 H 0.3128 0.01095 0.46798 0.0
H2397 H 0.31289 0.0208 0.44246 0.0
H2398 H 0.27526 0.00269 0.48693 0.0
H2399 H 0.3445 0.08124 0.47958 0.0
H2400 H 0.36553 0.13365 0.47091 0.0
H2401 H 0.31421 0.19441 0.49616 0.0
H2402 H 0.29262 0.14233 0.50484 0.0
H2403 H 0.3319 0.0395 0.56226 0.0
H2404 H 0.33258 0.04657 0.53663 0.0
H2405 H 0.25079 0.02476 0.53486 0.0
H2406 H 0.25015 0.0166 0.56048 0.0
H2407 H 0.31082 0.08957 0.51972 0.0
H2408 H 0.2354 0.9871 0.50377 0.0
H2409 H 0.21917 0.9316 0.51228 0.0
H2410 H 0.29142 0.91306 0.53337 0.0
H2411 H 0.30819 0.96823 0.52484 0.0
C2412 C 0.281 0.09278 0.45279 0.0
C2413 C 0.29266 0.06924 0.44357 0.0
C2414 C 0.28089 0.08699 0.46738 0.0
C2415 C 0.29254 0.05766 0.47305 0.0
C2416 C 0.30373 0.03378 0.46385 0.0
C2417 C 0.30385 0.03954 0.44926 0.0
C2418 C 0.29329 0.05204 0.48859 0.0
C2419 C 0.28299 0.0217 0.49411 0.0
C2420 C 0.30387 0.0765 0.49795 0.0
C2421 C 0.31677 0.10789 0.49275 0.0
C2422 C 0.33755 0.10579 0.48319 0.0
C2423 C 0.3496 0.13543 0.47829 0.0
C2424 C 0.34116 0.16735 0.48295 0.0
C2425 C 0.32069 0.16967 0.49255 0.0
C2426 C 0.30856 0.1401 0.49747 0.0
C2427 C 0.31406 0.03607 0.55642 0.0
C2428 C 0.29099 0.02729 0.56342 0.0
C2429 C 0.31447 0.04023 0.54175 0.0
C2430 C 0.29181 0.03586 0.53375 0.0
C2431 C 0.26865 0.02759 0.54074 0.0
C2432 C 0.26828 0.02307 0.55541 0.0
C2433 C 0.29246 0.04038 0.51812 0.0
C2434 C 0.303 0.07056 0.51257 0.0
C2435 C 0.28272 0.01536 0.50872 0.0
C2436 C 0.27293 0.98196 0.51379 0.0
C2437 C 0.24785 0.97112 0.51019 0.0
C2438 C 0.23855 0.93973 0.51502 0.0
C2439 C 0.25423 0.91887 0.5234 0.0
C2440 C 0.27927 0.9293 0.52693 0.0
C2441 C 0.28866 0.96065 0.52211 0.0
H2442 H 0.24698 0.8946 0.52714 0.0
H2443 H 0.35052 0.19027 0.47915 0.0
H2444 H 0.75336 0.53994 0.06186 0.0
H2445 H 0.75379 0.53518 0.03609 0.0
H2446 H 0.6724 0.55978 0.03484 0.0
H2447 H 0.67167 0.56323 0.06061 0.0
H2448 H 0.68099 0.51107 0.0173 0.0
H2449 H 0.72205 0.61872 0.026 0.0
H2450 H 0.75396 0.65788 0.0366 0.0
H2451 H 0.81586 0.60191 0.01718 0.0
H2452 H 0.78432 0.56213 0.00661 0.0
H2453 H 0.67247 0.55148 0.94431 0.0
H2454 H 0.67348 0.55588 0.97006 0.0
H2455 H 0.75198 0.51858 0.97041 0.0
H2456 H 0.75123 0.51428 0.9446 0.0
H2457 H 0.74547 0.57313 0.9882 0.0
H2458 H 0.70277 0.46617 0.97912 0.0
H2459 H 0.66982 0.42888 0.96832 0.0
H2460 H 0.6095 0.48662 0.98833 0.0
H2461 H 0.6421 0.52455 0.9991 0.0
C2462 C 0.73557 0.54438 0.05609 0.0
C2463 C 0.71251 0.5521 0.06328 0.0
C2464 C 0.73586 0.54183 0.04133 0.0
C2465 C 0.71322 0.54769 0.03344 0.0
C2466 C 0.69014 0.55516 0.04064 0.0
C2467 C 0.68976 0.55721 0.0554 0.0
C2468 C 0.71341 0.54564 0.0177 0.0
C2469 C 0.6949 0.52505 0.01096 0.0
C2470 C 0.73185 0.56327 0.00935 0.0
C2471 C 0.75084 0.58725 0.01563 0.0
C2472 C 0.74248 0.61462 0.02407 0.0
C2473 C 0.7605 0.63695 0.03006 0.0
C2474 C 0.78692 0.63233 0.0276 0.0
C2475 C 0.79538 0.60543 0.0191 0.0
C2476 C 0.77745 0.583 0.01309 0.0
C2477 C 0.68999 0.54424 0.94984 0.0
C2478 C 0.71174 0.53234 0.94238 0.0
C2479 C 0.69049 0.54667 0.96458 0.0
C2480 C 0.7127 0.53718 0.97219 0.0
C2481 C 0.73462 0.52596 0.96476 0.0
C2482 C 0.73412 0.52343 0.95001 0.0
C2483 C 0.71299 0.53878 0.98788 0.0
C2484 C 0.7316 0.55922 0.99459 0.0
C2485 C 0.69447 0.52132 0.9962 0.0
C2486 C 0.67487 0.49838 0.98981 0.0
C2487 C 0.68247 0.47107 0.98113 0.0
C2488 C 0.66386 0.44979 0.97503 0.0
C2489 C 0.63758 0.45543 0.97761 0.0
C2490 C 0.62986 0.4823 0.98633 0.0
C2491 C 0.6484 0.50368 0.99245 0.0
H2492 H 0.6232 0.43893 0.97287 0.0
H2493 H 0.80084 0.64964 0.03224 0.0
H2494 H 0.32505 0.56821 0.94553 0.0
H2495 H 0.32477 0.56226 0.97121 0.0
H2496 H 0.24412 0.53377 0.96985 0.0
H2497 H 0.24406 0.54113 0.94416 0.0
H2498 H 0.25125 0.57431 0.99099 0.0
H2499 H 0.29513 0.47411 0.9747 0.0
H2500 H 0.32792 0.4415 0.96145 0.0
H2501 H 0.38854 0.49123 0.98467 0.0
H2502 H 0.35611 0.52448 0.99793 0.0
H2503 H 0.24765 0.50657 0.06099 0.0
H2504 H 0.24668 0.5125 0.03526 0.0
H2505 H 0.32444 0.55245 0.03588 0.0
H2506 H 0.32567 0.54639 0.06159 0.0
H2507 H 0.31811 0.50484 0.01525 0.0
H2508 H 0.27315 0.60512 0.03142 0.0
H2509 H 0.2397 0.63631 0.04476 0.0
H2510 H 0.18012 0.58388 0.02177 0.0
H2511 H 0.21323 0.55202 0.00842 0.0
C2512 C 0.30725 0.56067 0.9507 0.0
C2513 C 0.2846 0.555 0.94281 0.0
C2514 C 0.30714 0.55707 0.9654 0.0
C2515 C 0.28455 0.54686 0.97251 0.0
C2516 C 0.26182 0.54157 0.96464 0.0
C2517 C 0.26181 0.54573 0.94995 0.0
C2518 C 0.2846 0.54203 0.98814 0.0
C2519 C 0.26565 0.55868 0.99625 0.0
C2520 C 0.30365 0.52215 0.99511 0.0
C2521 C 0.32319 0.502 0.98722 0.0
C2522 C 0.31546 0.47825 0.97692 0.0
C2523 C 0.33398 0.45963 0.96942 0.0
C2524 C 0.3603 0.46434 0.9722 0.0
C2525 C 0.36815 0.48763 0.98252 0.0
C2526 C 0.3497 0.50634 0.99004 0.0
C2527 C 0.26455 0.51665 0.05567 0.0
C2528 C 0.28673 0.52605 0.06337 0.0
C2529 C 0.26392 0.52014 0.04095 0.0
C2530 C 0.28541 0.5332 0.03364 0.0
C2531 C 0.30764 0.54232 0.04129 0.0
C2532 C 0.30826 0.53892 0.056 0.0
C2533 C 0.28484 0.53717 0.01802 0.0
C2534 C 0.30368 0.52035 0.00994 0.0
C2535 C 0.26558 0.55663 0.01107 0.0
C2536 C 0.24567 0.57595 0.01902 0.0
C2537 C 0.25291 0.60006 0.02928 0.0
C2538 C 0.23402 0.61789 0.03684 0.0
C2539 C 0.2078 0.61202 0.03414 0.0
C2540 C 0.20043 0.58837 0.02386 0.0
C2541 C 0.21925 0.57044 0.01629 0.0
H2542 H 0.1932 0.62584 0.04 0.0
H2543 H 0.3746 0.44991 0.96637 0.0
loop_
_geom_bond_atom_site_label_1
_geom_bond_atom_site_label_2
_geom_bond_distance
_geom_bond_site_symmetry_2
_ccdc_geom_bond_type
Co0 O3 1.970 . S
Co0 N17 1.989 . S
Co0 O25 1.967 . S
Co0 O32 1.920 . S
Co1 O4 1.966 . S
Co1 N10 2.022 . S
Co1 N18 1.993 . S
Co1 O26 1.941 . S
C2 O3 1.258 . S
C2 O4 1.263 . S
O3 Co0 1.970 . S
O3 C2 1.258 . S
O4 Co1 1.966 . S
O4 C2 1.263 . S
C5 O6 1.235 . S
C5 O32 1.289 . S
O6 C5 1.235 . S
C7 C9 1.400 . S
C7 N10 1.351 . S
C7 C12 1.501 . S
C8 C9 1.387 . S
C8 N11 1.341 . S
C9 C7 1.400 . S
C9 C8 1.387 . S
N10 Co1 2.022 . S
N10 C7 1.351 . S
N10 N11 1.365 . S
N11 C8 1.341 . S
N11 N10 1.365 . S
N11 H31 0.862 . S
C12 C7 1.501 . S
C12 H13 0.961 . S
C12 H14 0.961 . S
C12 H15 0.960 . S
H13 C12 0.961 . S
H14 C12 0.961 . S
H15 C12 0.960 . S
C16 N17 1.342 1_565 S
C16 C20 1.401 . S
C16 C21 1.499 . S
N17 Co0 1.989 . S
N17 C16 1.342 1_545 S
N17 N18 1.388 . S
N18 Co1 1.993 . S
N18 N17 1.388 . S
N18 C19 1.346 1_545 S
C19 N18 1.346 1_565 S
C19 C20 1.396 . S
C19 C29 1.510 . S
C20 C16 1.401 . S
C20 C19 1.396 . S
C21 C16 1.499 . S
C21 H22 0.959 . S
C21 H23 0.960 . S
C21 H24 0.961 . S
H22 C21 0.959 . S
H23 C21 0.960 . S
H24 C21 0.961 . S
O25 Co0 1.967 . S
O25 C33 1.258 . S
O26 Co1 1.941 . S
O26 C33 1.266 . S
H27 C29 0.959 . S
H28 C29 0.961 . S
C29 C19 1.510 . S
C29 H27 0.959 . S
C29 H28 0.961 . S
C29 H30 0.960 . S
H30 C29 0.960 . S
H31 N11 0.862 . S
O32 Co0 1.920 . S
O32 C5 1.289 . S
C33 O25 1.258 . S
C33 O26 1.266 . S
Co34 O37 1.970 1_545 S
Co34 N51 1.989 . S
Co34 O59 1.967 . S
Co34 O66 1.920 . S
Co35 O38 1.966 1_545 S
Co35 N44 2.022 . S
Co35 N52 1.993 . S
Co35 O60 1.941 . S
C36 O37 1.258 . S
C36 O38 1.263 . S
O37 Co34 1.970 1_565 S
O37 C36 1.258 . S
O38 Co35 1.966 1_565 S
O38 C36 1.263 . S
C39 O40 1.235 . S
C39 O66 1.289 . S
O40 C39 1.235 . S
C41 C43 1.400 . S
C41 N44 1.351 . S
C41 C46 1.501 . S
C42 C43 1.387 . S
C42 N45 1.341 . S
C43 C41 1.400 . S
C43 C42 1.387 . S
N44 Co35 2.022 . S
N44 C41 1.351 . S
N44 N45 1.365 . S
N45 C42 1.341 . S
N45 N44 1.365 . S
N45 H65 0.862 . S
C46 C41 1.501 . S
C46 H47 0.961 1_545 S
C46 H48 0.961 . S
C46 H49 0.960 1_545 S
H47 C46 0.961 1_565 S
H48 C46 0.961 . S
H49 C46 0.960 1_565 S
C50 N51 1.342 . S
C50 C54 1.401 . S
C50 C55 1.499 . S
N51 Co34 1.989 . S
N51 C50 1.342 . S
N51 N52 1.388 . S
N52 Co35 1.993 . S
N52 N51 1.388 . S
N52 C53 1.346 . S
C53 N52 1.346 . S
C53 C54 1.396 . S
C53 C63 1.510 . S
C54 C50 1.401 . S
C54 C53 1.396 . S
C55 C50 1.499 . S
C55 H56 0.959 . S
C55 H57 0.960 . S
C55 H58 0.961 . S
H56 C55 0.959 . S
H57 C55 0.960 . S
H58 C55 0.961 . S
O59 Co34 1.967 . S
O59 C67 1.258 . S
O60 Co35 1.941 . S
O60 C67 1.266 . S
H61 C63 0.959 . S
H62 C63 0.961 . S
C63 C53 1.510 . S
C63 H61 0.959 . S
C63 H62 0.961 . S
C63 H64 0.960 . S
H64 C63 0.960 . S
H65 N45 0.862 . S
O66 Co34 1.920 . S
O66 C39 1.289 . S
C67 O59 1.258 . S
C67 O60 1.266 . S
Co68 O71 1.970 1_545 S
Co68 N85 1.989 . S
Co68 O93 1.967 . S
Co68 O100 1.920 . S
Co69 O72 1.966 1_545 S
Co69 N78 2.022 . S
Co69 N86 1.993 . S
Co69 O94 1.941 . S
C70 O71 1.258 . S
C70 O72 1.263 . S
O71 Co68 1.970 1_565 S
O71 C70 1.258 . S
O72 Co69 1.966 1_565 S
O72 C70 1.263 . S
C73 O74 1.235 . S
C73 O100 1.289 . S
O74 C73 1.235 . S
C75 C77 1.400 . S
C75 N78 1.351 . S
C75 C80 1.501 . S
C76 C77 1.387 . S
C76 N79 1.341 . S
C77 C75 1.400 . S
C77 C76 1.387 . S
N78 Co69 2.022 . S
N78 C75 1.351 . S
N78 N79 1.365 . S
N79 C76 1.341 . S
N79 N78 1.365 . S
N79 H99 0.862 . S
C80 C75 1.501 . S
C80 H81 0.961 1_545 S
C80 H82 0.961 . S
C80 H83 0.960 1_545 S
H81 C80 0.961 1_565 S
H82 C80 0.961 . S
H83 C80 0.960 1_565 S
C84 N85 1.342 . S
C84 C88 1.401 . S
C84 C89 1.499 . S
N85 Co68 1.989 . S
N85 C84 1.342 . S
N85 N86 1.388 . S
N86 Co69 1.993 . S
N86 N85 1.388 . S
N86 C87 1.346 . S
C87 N86 1.346 . S
C87 C88 1.396 . S
C87 C97 1.510 . S
C88 C84 1.401 . S
C88 C87 1.396 . S
C89 C84 1.499 . S
C89 H90 0.959 . S
C89 H91 0.960 . S
C89 H92 0.961 . S
H90 C89 0.959 . S
H91 C89 0.960 . S
H92 C89 0.961 . S
O93 Co68 1.967 . S
O93 C101 1.258 . S
O94 Co69 1.941 . S
O94 C101 1.266 . S
H95 C97 0.959 . S
H96 C97 0.961 . S
C97 C87 1.510 . S
C97 H95 0.959 . S
C97 H96 0.961 . S
C97 H98 0.960 . S
H98 C97 0.960 . S
H99 N79 0.862 . S
O100 Co68 1.920 . S
O100 C73 1.289 . S
C101 O93 1.258 . S
C101 O94 1.266 . S
Co102 O105 1.970 . S
Co102 N119 1.989 . S
Co102 O127 1.967 . S
Co102 O134 1.920 . S
Co103 O106 1.966 . S
Co103 N112 2.022 . S
Co103 N120 1.993 . S
Co103 O128 1.941 . S
C104 O105 1.258 . S
C104 O106 1.263 . S
O105 Co102 1.970 . S
O105 C104 1.258 . S
O106 Co103 1.966 . S
O106 C104 1.263 . S
C107 O108 1.235 . S
C107 O134 1.289 . S
O108 C107 1.235 . S
C109 C111 1.400 . S
C109 N112 1.351 . S
C109 C114 1.501 . S
C110 C111 1.387 . S
C110 N113 1.341 . S
C111 C109 1.400 . S
C111 C110 1.387 . S
N112 Co103 2.022 . S
N112 C109 1.351 . S
N112 N113 1.365 . S
N113 C110 1.341 . S
N113 N112 1.365 . S
N113 H133 0.862 . S
C114 C109 1.501 . S
C114 H115 0.961 . S
C114 H116 0.961 . S
C114 H117 0.960 . S
H115 C114 0.961 . S
H116 C114 0.961 . S
H117 C114 0.960 . S
C118 N119 1.342 1_565 S
C118 C122 1.401 . S
C118 C123 1.499 . S
N119 Co102 1.989 . S
N119 C118 1.342 1_545 S
N119 N120 1.388 . S
N120 Co103 1.993 . S
N120 N119 1.388 . S
N120 C121 1.346 1_545 S
C121 N120 1.346 1_565 S
C121 C122 1.396 . S
C121 C131 1.510 . S
C122 C118 1.401 . S
C122 C121 1.396 . S
C123 C118 1.499 . S
C123 H124 0.959 . S
C123 H125 0.960 . S
C123 H126 0.961 . S
H124 C123 0.959 . S
H125 C123 0.960 . S
H126 C123 0.961 . S
O127 Co102 1.967 . S
O127 C135 1.258 . S
O128 Co103 1.941 . S
O128 C135 1.266 . S
H129 C131 0.959 . S
H130 C131 0.961 . S
C131 C121 1.510 . S
C131 H129 0.959 . S
C131 H130 0.961 . S
C131 H132 0.960 . S
H132 C131 0.960 . S
H133 N113 0.862 . S
O134 Co102 1.920 . S
O134 C107 1.289 . S
C135 O127 1.258 . S
C135 O128 1.266 . S
Co136 O139 1.970 . S
Co136 N153 1.989 . S
Co136 O161 1.967 . S
Co136 O168 1.920 . S
Co137 O140 1.966 . S
Co137 N146 2.022 . S
Co137 N154 1.993 . S
Co137 O162 1.941 . S
C138 O139 1.258 . S
C138 O140 1.263 . S
O139 Co136 1.970 . S
O139 C138 1.258 . S
O140 Co137 1.966 . S
O140 C138 1.263 . S
C141 O142 1.235 . S
C141 O168 1.289 . S
O142 C141 1.235 . S
C143 C145 1.400 . S
C143 N146 1.351 . S
C143 C148 1.501 . S
C144 C145 1.387 . S
C144 N147 1.341 . S
C145 C143 1.400 . S
C145 C144 1.387 . S
N146 Co137 2.022 . S
N146 C143 1.351 . S
N146 N147 1.365 . S
N147 C144 1.341 . S
N147 N146 1.365 . S
N147 H167 0.862 . S
C148 C143 1.501 . S
C148 H149 0.961 . S
C148 H150 0.961 . S
C148 H151 0.960 . S
H149 C148 0.961 . S
H150 C148 0.961 . S
H151 C148 0.960 . S
C152 N153 1.342 . S
C152 C156 1.401 . S
C152 C157 1.499 . S
N153 Co136 1.989 . S
N153 C152 1.342 . S
N153 N154 1.388 . S
N154 Co137 1.993 . S
N154 N153 1.388 . S
N154 C155 1.346 . S
C155 N154 1.346 . S
C155 C156 1.396 . S
C155 C165 1.510 . S
C156 C152 1.401 . S
C156 C155 1.396 . S
C157 C152 1.499 . S
C157 H158 0.959 . S
C157 H159 0.960 . S
C157 H160 0.961 . S
H158 C157 0.959 . S
H159 C157 0.960 . S
H160 C157 0.961 . S
O161 Co136 1.967 . S
O161 C169 1.258 . S
O162 Co137 1.941 . S
O162 C169 1.266 . S
H163 C165 0.959 . S
H164 C165 0.961 . S
C165 C155 1.510 . S
C165 H163 0.959 . S
C165 H164 0.961 . S
C165 H166 0.960 . S
H166 C165 0.960 . S
H167 N147 0.862 . S
O168 Co136 1.920 . S
O168 C141 1.289 . S
C169 O161 1.258 . S
C169 O162 1.266 . S
Co170 O173 1.970 . S
Co170 N187 1.989 . S
Co170 O195 1.967 . S
Co170 O202 1.920 . S
Co171 O174 1.966 . S
Co171 N180 2.022 . S
Co171 N188 1.993 . S
Co171 O196 1.941 . S
C172 O173 1.258 . S
C172 O174 1.263 . S
O173 Co170 1.970 . S
O173 C172 1.258 . S
O174 Co171 1.966 . S
O174 C172 1.263 . S
C175 O176 1.235 . S
C175 O202 1.289 . S
O176 C175 1.235 . S
C177 C179 1.400 . S
C177 N180 1.351 . S
C177 C182 1.501 . S
C178 C179 1.387 . S
C178 N181 1.341 . S
C179 C177 1.400 . S
C179 C178 1.387 . S
N180 Co171 2.022 . S
N180 C177 1.351 . S
N180 N181 1.365 . S
N181 C178 1.341 . S
N181 N180 1.365 . S
N181 H201 0.862 . S
C182 C177 1.501 . S
C182 H183 0.961 . S
C182 H184 0.961 . S
C182 H185 0.960 . S
H183 C182 0.961 . S
H184 C182 0.961 . S
H185 C182 0.960 . S
C186 N187 1.342 . S
C186 C190 1.401 . S
C186 C191 1.499 . S
N187 Co170 1.989 . S
N187 C186 1.342 . S
N187 N188 1.388 . S
N188 Co171 1.993 . S
N188 N187 1.388 . S
N188 C189 1.346 . S
C189 N188 1.346 . S
C189 C190 1.396 . S
C189 C199 1.510 . S
C190 C186 1.401 . S
C190 C189 1.396 . S
C191 C186 1.499 . S
C191 H192 0.959 . S
C191 H193 0.960 . S
C191 H194 0.961 . S
H192 C191 0.959 . S
H193 C191 0.960 . S
H194 C191 0.961 . S
O195 Co170 1.967 . S
O195 C203 1.258 . S
O196 Co171 1.941 . S
O196 C203 1.266 . S
H197 C199 0.959 . S
H198 C199 0.961 . S
C199 C189 1.510 . S
C199 H197 0.959 . S
C199 H198 0.961 . S
C199 H200 0.960 . S
H200 C199 0.960 . S
H201 N181 0.862 . S
O202 Co170 1.920 . S
O202 C175 1.289 . S
C203 O195 1.258 . S
C203 O196 1.266 . S
Co204 O207 1.970 . S
Co204 N221 1.989 . S
Co204 O229 1.967 . S
Co204 O236 1.920 . S
Co205 O208 1.966 . S
Co205 N214 2.022 . S
Co205 N222 1.993 . S
Co205 O230 1.941 . S
C206 O207 1.258 . S
C206 O208 1.263 . S
O207 Co204 1.970 . S
O207 C206 1.258 . S
O208 Co205 1.966 . S
O208 C206 1.263 . S
C209 O210 1.235 . S
C209 O236 1.289 . S
O210 C209 1.235 . S
C211 C213 1.400 . S
C211 N214 1.351 . S
C211 C216 1.501 . S
C212 C213 1.387 . S
C212 N215 1.341 . S
C213 C211 1.400 . S
C213 C212 1.387 . S
N214 Co205 2.022 . S
N214 C211 1.351 . S
N214 N215 1.365 . S
N215 C212 1.341 . S
N215 N214 1.365 . S
N215 H235 0.862 . S
C216 C211 1.501 . S
C216 H217 0.961 . S
C216 H218 0.961 . S
C216 H219 0.960 . S
H217 C216 0.961 . S
H218 C216 0.961 . S
H219 C216 0.960 . S
C220 N221 1.342 . S
C220 C224 1.401 . S
C220 C225 1.499 . S
N221 Co204 1.989 . S
N221 C220 1.342 . S
N221 N222 1.388 . S
N222 Co205 1.993 . S
N222 N221 1.388 . S
N222 C223 1.346 . S
C223 N222 1.346 . S
C223 C224 1.396 . S
C223 C233 1.510 . S
C224 C220 1.401 . S
C224 C223 1.396 . S
C225 C220 1.499 . S
C225 H226 0.959 . S
C225 H227 0.960 . S
C225 H228 0.961 . S
H226 C225 0.959 . S
H227 C225 0.960 . S
H228 C225 0.961 . S
O229 Co204 1.967 . S
O229 C237 1.258 . S
O230 Co205 1.941 . S
O230 C237 1.266 . S
H231 C233 0.959 . S
H232 C233 0.961 . S
C233 C223 1.510 . S
C233 H231 0.959 . S
C233 H232 0.961 . S
C233 H234 0.960 . S
H234 C233 0.960 . S
H235 N215 0.862 . S
O236 Co204 1.920 . S
O236 C209 1.289 . S
C237 O229 1.258 . S
C237 O230 1.266 . S
Co238 O241 1.970 . S
Co238 N255 1.989 . S
Co238 O263 1.967 . S
Co238 O270 1.920 . S
Co239 O242 1.966 . S
Co239 N248 2.022 . S
Co239 N256 1.993 . S
Co239 O264 1.941 . S
C240 O241 1.258 . S
C240 O242 1.263 . S
O241 Co238 1.970 . S
O241 C240 1.258 . S
O242 Co239 1.966 . S
O242 C240 1.263 . S
C243 O244 1.235 . S
C243 O270 1.289 . S
O244 C243 1.235 . S
C245 C247 1.400 . S
C245 N248 1.351 . S
C245 C250 1.501 . S
C246 C247 1.387 . S
C246 N249 1.341 . S
C247 C245 1.400 . S
C247 C246 1.387 . S
N248 Co239 2.022 . S
N248 C245 1.351 . S
N248 N249 1.365 . S
N249 C246 1.341 . S
N249 N248 1.365 . S
N249 H269 0.862 . S
C250 C245 1.501 . S
C250 H251 0.961 . S
C250 H252 0.961 . S
C250 H253 0.960 . S
H251 C250 0.961 . S
H252 C250 0.961 . S
H253 C250 0.960 . S
C254 N255 1.342 . S
C254 C258 1.401 . S
C254 C259 1.499 . S
N255 Co238 1.989 . S
N255 C254 1.342 . S
N255 N256 1.388 . S
N256 Co239 1.993 . S
N256 N255 1.388 . S
N256 C257 1.346 . S
C257 N256 1.346 . S
C257 C258 1.396 . S
C257 C267 1.510 . S
C258 C254 1.401 . S
C258 C257 1.396 . S
C259 C254 1.499 . S
C259 H260 0.959 . S
C259 H261 0.960 . S
C259 H262 0.961 . S
H260 C259 0.959 . S
H261 C259 0.960 . S
H262 C259 0.961 . S
O263 Co238 1.967 . S
O263 C271 1.258 . S
O264 Co239 1.941 . S
O264 C271 1.266 . S
H265 C267 0.959 . S
H266 C267 0.961 . S
C267 C257 1.510 . S
C267 H265 0.959 . S
C267 H266 0.961 . S
C267 H268 0.960 . S
H268 C267 0.960 . S
H269 N249 0.862 . S
O270 Co238 1.920 . S
O270 C243 1.289 . S
C271 O263 1.258 . S
C271 O264 1.266 . S
Co272 O275 1.970 . S
Co272 N289 1.989 . S
Co272 O297 1.967 . S
Co272 O304 1.920 . S
Co273 O276 1.966 . S
Co273 N282 2.022 . S
Co273 N290 1.993 . S
Co273 O298 1.941 . S
C274 O275 1.258 . S
C274 O276 1.263 . S
O275 Co272 1.970 . S
O275 C274 1.258 . S
O276 Co273 1.966 . S
O276 C274 1.263 . S
C277 O278 1.235 . S
C277 O304 1.289 . S
O278 C277 1.235 . S
C279 C281 1.400 . S
C279 N282 1.351 . S
C279 C284 1.501 . S
C280 C281 1.387 . S
C280 N283 1.341 . S
C281 C279 1.400 . S
C281 C280 1.387 . S
N282 Co273 2.022 . S
N282 C279 1.351 . S
N282 N283 1.365 . S
N283 C280 1.341 . S
N283 N282 1.365 . S
N283 H303 0.862 . S
C284 C279 1.501 . S
C284 H285 0.961 . S
C284 H286 0.961 . S
C284 H287 0.960 . S
H285 C284 0.961 . S
H286 C284 0.961 . S
H287 C284 0.960 . S
C288 N289 1.342 1_565 S
C288 C292 1.401 . S
C288 C293 1.499 . S
N289 Co272 1.989 . S
N289 C288 1.342 1_545 S
N289 N290 1.388 . S
N290 Co273 1.993 . S
N290 N289 1.388 . S
N290 C291 1.346 1_545 S
C291 N290 1.346 1_565 S
C291 C292 1.396 . S
C291 C301 1.510 . S
C292 C288 1.401 . S
C292 C291 1.396 . S
C293 C288 1.499 . S
C293 H294 0.959 . S
C293 H295 0.960 . S
C293 H296 0.961 . S
H294 C293 0.959 . S
H295 C293 0.960 . S
H296 C293 0.961 . S
O297 Co272 1.967 . S
O297 C305 1.258 . S
O298 Co273 1.941 . S
O298 C305 1.266 . S
H299 C301 0.959 . S
H300 C301 0.961 . S
C301 C291 1.510 . S
C301 H299 0.959 . S
C301 H300 0.961 . S
C301 H302 0.960 . S
H302 C301 0.960 . S
H303 N283 0.862 . S
O304 Co272 1.920 . S
O304 C277 1.289 . S
C305 O297 1.258 . S
C305 O298 1.266 . S
Co306 O309 1.970 1_545 S
Co306 N323 1.989 . S
Co306 O331 1.967 . S
Co306 O338 1.920 . S
Co307 O310 1.966 1_545 S
Co307 N316 2.022 . S
Co307 N324 1.993 . S
Co307 O332 1.941 . S
C308 O309 1.258 . S
C308 O310 1.263 . S
O309 Co306 1.970 1_565 S
O309 C308 1.258 . S
O310 Co307 1.966 1_565 S
O310 C308 1.263 . S
C311 O312 1.235 . S
C311 O338 1.289 . S
O312 C311 1.235 . S
C313 C315 1.400 . S
C313 N316 1.351 . S
C313 C318 1.501 . S
C314 C315 1.387 . S
C314 N317 1.341 . S
C315 C313 1.400 . S
C315 C314 1.387 . S
N316 Co307 2.022 . S
N316 C313 1.351 . S
N316 N317 1.365 . S
N317 C314 1.341 . S
N317 N316 1.365 . S
N317 H337 0.862 . S
C318 C313 1.501 . S
C318 H319 0.961 1_545 S
C318 H320 0.961 . S
C318 H321 0.960 1_545 S
H319 C318 0.961 1_565 S
H320 C318 0.961 . S
H321 C318 0.960 1_565 S
C322 N323 1.342 . S
C322 C326 1.401 . S
C322 C327 1.499 . S
N323 Co306 1.989 . S
N323 C322 1.342 . S
N323 N324 1.388 . S
N324 Co307 1.993 . S
N324 N323 1.388 . S
N324 C325 1.346 . S
C325 N324 1.346 . S
C325 C326 1.396 . S
C325 C335 1.510 . S
C326 C322 1.401 . S
C326 C325 1.396 . S
C327 C322 1.499 . S
C327 H328 0.959 . S
C327 H329 0.960 . S
C327 H330 0.961 . S
H328 C327 0.959 . S
H329 C327 0.960 . S
H330 C327 0.961 . S
O331 Co306 1.967 . S
O331 C339 1.258 . S
O332 Co307 1.941 . S
O332 C339 1.266 . S
H333 C335 0.959 . S
H334 C335 0.961 . S
C335 C325 1.510 . S
C335 H333 0.959 . S
C335 H334 0.961 . S
C335 H336 0.960 . S
H336 C335 0.960 . S
H337 N317 0.862 . S
O338 Co306 1.920 . S
O338 C311 1.289 . S
C339 O331 1.258 . S
C339 O332 1.266 . S
Co340 O343 1.970 1_545 S
Co340 N357 1.989 . S
Co340 O365 1.967 . S
Co340 O372 1.920 . S
Co341 O344 1.966 1_545 S
Co341 N350 2.022 . S
Co341 N358 1.993 . S
Co341 O366 1.941 . S
C342 O343 1.258 . S
C342 O344 1.263 . S
O343 Co340 1.970 1_565 S
O343 C342 1.258 . S
O344 Co341 1.966 1_565 S
O344 C342 1.263 . S
C345 O346 1.235 . S
C345 O372 1.289 . S
O346 C345 1.235 . S
C347 C349 1.400 . S
C347 N350 1.351 . S
C347 C352 1.501 . S
C348 C349 1.387 . S
C348 N351 1.341 . S
C349 C347 1.400 . S
C349 C348 1.387 . S
N350 Co341 2.022 . S
N350 C347 1.351 . S
N350 N351 1.365 . S
N351 C348 1.341 . S
N351 N350 1.365 . S
N351 H371 0.862 . S
C352 C347 1.501 . S
C352 H353 0.961 1_545 S
C352 H354 0.961 . S
C352 H355 0.960 1_545 S
H353 C352 0.961 1_565 S
H354 C352 0.961 . S
H355 C352 0.960 1_565 S
C356 N357 1.342 . S
C356 C360 1.401 . S
C356 C361 1.499 . S
N357 Co340 1.989 . S
N357 C356 1.342 . S
N357 N358 1.388 . S
N358 Co341 1.993 . S
N358 N357 1.388 . S
N358 C359 1.346 . S
C359 N358 1.346 . S
C359 C360 1.396 . S
C359 C369 1.510 . S
C360 C356 1.401 . S
C360 C359 1.396 . S
C361 C356 1.499 . S
C361 H362 0.959 . S
C361 H363 0.960 . S
C361 H364 0.961 . S
H362 C361 0.959 . S
H363 C361 0.960 . S
H364 C361 0.961 . S
O365 Co340 1.967 . S
O365 C373 1.258 . S
O366 Co341 1.941 . S
O366 C373 1.266 . S
H367 C369 0.959 . S
H368 C369 0.961 . S
C369 C359 1.510 . S
C369 H367 0.959 . S
C369 H368 0.961 . S
C369 H370 0.960 . S
H370 C369 0.960 . S
H371 N351 0.862 . S
O372 Co340 1.920 . S
O372 C345 1.289 . S
C373 O365 1.258 . S
C373 O366 1.266 . S
Co374 O377 1.970 . S
Co374 N391 1.989 . S
Co374 O399 1.967 . S
Co374 O406 1.920 . S
Co375 O378 1.966 . S
Co375 N384 2.022 . S
Co375 N392 1.993 . S
Co375 O400 1.941 . S
C376 O377 1.258 . S
C376 O378 1.263 . S
O377 Co374 1.970 . S
O377 C376 1.258 . S
O378 Co375 1.966 . S
O378 C376 1.263 . S
C379 O380 1.235 . S
C379 O406 1.289 . S
O380 C379 1.235 . S
C381 C383 1.400 . S
C381 N384 1.351 . S
C381 C386 1.501 . S
C382 C383 1.387 . S
C382 N385 1.341 . S
C383 C381 1.400 . S
C383 C382 1.387 . S
N384 Co375 2.022 . S
N384 C381 1.351 . S
N384 N385 1.365 . S
N385 C382 1.341 . S
N385 N384 1.365 . S
N385 H405 0.862 . S
C386 C381 1.501 . S
C386 H387 0.961 . S
C386 H388 0.961 . S
C386 H389 0.960 . S
H387 C386 0.961 . S
H388 C386 0.961 . S
H389 C386 0.960 . S
C390 N391 1.342 1_565 S
C390 C394 1.401 . S
C390 C395 1.499 . S
N391 Co374 1.989 . S
N391 C390 1.342 1_545 S
N391 N392 1.388 . S
N392 Co375 1.993 . S
N392 N391 1.388 . S
N392 C393 1.346 1_545 S
C393 N392 1.346 1_565 S
C393 C394 1.396 . S
C393 C403 1.510 . S
C394 C390 1.401 . S
C394 C393 1.396 . S
C395 C390 1.499 . S
C395 H396 0.959 . S
C395 H397 0.960 . S
C395 H398 0.961 . S
H396 C395 0.959 . S
H397 C395 0.960 . S
H398 C395 0.961 . S
O399 Co374 1.967 . S
O399 C407 1.258 . S
O400 Co375 1.941 . S
O400 C407 1.266 . S
H401 C403 0.959 . S
H402 C403 0.961 . S
C403 C393 1.510 . S
C403 H401 0.959 . S
C403 H402 0.961 . S
C403 H404 0.960 . S
H404 C403 0.960 . S
H405 N385 0.862 . S
O406 Co374 1.920 . S
O406 C379 1.289 . S
C407 O399 1.258 . S
C407 O400 1.266 . S
Co408 O411 1.970 . S
Co408 N425 1.989 . S
Co408 O433 1.967 . S
Co408 O440 1.920 . S
Co409 O412 1.966 . S
Co409 N418 2.022 . S
Co409 N426 1.993 . S
Co409 O434 1.941 . S
C410 O411 1.258 . S
C410 O412 1.263 . S
O411 Co408 1.970 . S
O411 C410 1.258 . S
O412 Co409 1.966 . S
O412 C410 1.263 . S
C413 O414 1.235 . S
C413 O440 1.289 . S
O414 C413 1.235 . S
C415 C417 1.400 . S
C415 N418 1.351 . S
C415 C420 1.501 . S
C416 C417 1.387 . S
C416 N419 1.341 . S
C417 C415 1.400 . S
C417 C416 1.387 . S
N418 Co409 2.022 . S
N418 C415 1.351 . S
N418 N419 1.365 . S
N419 C416 1.341 . S
N419 N418 1.365 . S
N419 H439 0.862 . S
C420 C415 1.501 . S
C420 H421 0.961 . S
C420 H422 0.961 . S
C420 H423 0.960 . S
H421 C420 0.961 . S
H422 C420 0.961 . S
H423 C420 0.960 . S
C424 N425 1.342 . S
C424 C428 1.401 . S
C424 C429 1.499 . S
N425 Co408 1.989 . S
N425 C424 1.342 . S
N425 N426 1.388 . S
N426 Co409 1.993 . S
N426 N425 1.388 . S
N426 C427 1.346 . S
C427 N426 1.346 . S
C427 C428 1.396 . S
C427 C437 1.510 . S
C428 C424 1.401 . S
C428 C427 1.396 . S
C429 C424 1.499 . S
C429 H430 0.959 . S
C429 H431 0.960 . S
C429 H432 0.961 . S
H430 C429 0.959 . S
H431 C429 0.960 . S
H432 C429 0.961 . S
O433 Co408 1.967 . S
O433 C441 1.258 . S
O434 Co409 1.941 . S
O434 C441 1.266 . S
H435 C437 0.959 . S
H436 C437 0.961 . S
C437 C427 1.510 . S
C437 H435 0.959 . S
C437 H436 0.961 . S
C437 H438 0.960 . S
H438 C437 0.960 . S
H439 N419 0.862 . S
O440 Co408 1.920 . S
O440 C413 1.289 . S
C441 O433 1.258 . S
C441 O434 1.266 . S
Co442 O445 1.970 . S
Co442 N459 1.989 . S
Co442 O467 1.967 . S
Co442 O474 1.920 . S
Co443 O446 1.966 . S
Co443 N452 2.022 . S
Co443 N460 1.993 . S
Co443 O468 1.941 . S
C444 O445 1.258 . S
C444 O446 1.263 . S
O445 Co442 1.970 . S
O445 C444 1.258 . S
O446 Co443 1.966 . S
O446 C444 1.263 . S
C447 O448 1.235 . S
C447 O474 1.289 . S
O448 C447 1.235 . S
C449 C451 1.400 . S
C449 N452 1.351 . S
C449 C454 1.501 . S
C450 C451 1.387 . S
C450 N453 1.341 . S
C451 C449 1.400 . S
C451 C450 1.387 . S
N452 Co443 2.022 . S
N452 C449 1.351 . S
N452 N453 1.365 . S
N453 C450 1.341 . S
N453 N452 1.365 . S
N453 H473 0.862 . S
C454 C449 1.501 . S
C454 H455 0.961 . S
C454 H456 0.961 . S
C454 H457 0.960 . S
H455 C454 0.961 . S
H456 C454 0.961 . S
H457 C454 0.960 . S
C458 N459 1.342 . S
C458 C462 1.401 . S
C458 C463 1.499 . S
N459 Co442 1.989 . S
N459 C458 1.342 . S
N459 N460 1.388 . S
N460 Co443 1.993 . S
N460 N459 1.388 . S
N460 C461 1.346 . S
C461 N460 1.346 . S
C461 C462 1.396 . S
C461 C471 1.510 . S
C462 C458 1.401 . S
C462 C461 1.396 . S
C463 C458 1.499 . S
C463 H464 0.959 . S
C463 H465 0.960 . S
C463 H466 0.961 . S
H464 C463 0.959 . S
H465 C463 0.960 . S
H466 C463 0.961 . S
O467 Co442 1.967 . S
O467 C475 1.258 . S
O468 Co443 1.941 . S
O468 C475 1.266 . S
H469 C471 0.959 . S
H470 C471 0.961 . S
C471 C461 1.510 . S
C471 H469 0.959 . S
C471 H470 0.961 . S
C471 H472 0.960 . S
H472 C471 0.960 . S
H473 N453 0.862 . S
O474 Co442 1.920 . S
O474 C447 1.289 . S
C475 O467 1.258 . S
C475 O468 1.266 . S
Co476 O479 1.970 . S
Co476 N493 1.989 . S
Co476 O501 1.967 . S
Co476 O508 1.920 . S
Co477 O480 1.966 . S
Co477 N486 2.022 . S
Co477 N494 1.993 . S
Co477 O502 1.941 . S
C478 O479 1.258 . S
C478 O480 1.263 . S
O479 Co476 1.970 . S
O479 C478 1.258 . S
O480 Co477 1.966 . S
O480 C478 1.263 . S
C481 O482 1.235 . S
C481 O508 1.289 . S
O482 C481 1.235 . S
C483 C485 1.400 . S
C483 N486 1.351 . S
C483 C488 1.501 . S
C484 C485 1.387 . S
C484 N487 1.341 . S
C485 C483 1.400 . S
C485 C484 1.387 . S
N486 Co477 2.022 . S
N486 C483 1.351 . S
N486 N487 1.365 . S
N487 C484 1.341 . S
N487 N486 1.365 . S
N487 H507 0.862 . S
C488 C483 1.501 . S
C488 H489 0.961 . S
C488 H490 0.961 . S
C488 H491 0.960 . S
H489 C488 0.961 . S
H490 C488 0.961 . S
H491 C488 0.960 . S
C492 N493 1.342 . S
C492 C496 1.401 . S
C492 C497 1.499 . S
N493 Co476 1.989 . S
N493 C492 1.342 . S
N493 N494 1.388 . S
N494 Co477 1.993 . S
N494 N493 1.388 . S
N494 C495 1.346 . S
C495 N494 1.346 . S
C495 C496 1.396 . S
C495 C505 1.510 . S
C496 C492 1.401 . S
C496 C495 1.396 . S
C497 C492 1.499 . S
C497 H498 0.959 . S
C497 H499 0.960 . S
C497 H500 0.961 . S
H498 C497 0.959 . S
H499 C497 0.960 . S
H500 C497 0.961 . S
O501 Co476 1.967 . S
O501 C509 1.258 . S
O502 Co477 1.941 . S
O502 C509 1.266 . S
H503 C505 0.959 . S
H504 C505 0.961 . S
C505 C495 1.510 . S
C505 H503 0.959 . S
C505 H504 0.961 . S
C505 H506 0.960 . S
H506 C505 0.960 . S
H507 N487 0.862 . S
O508 Co476 1.920 . S
O508 C481 1.289 . S
C509 O501 1.258 . S
C509 O502 1.266 . S
Co510 O513 1.970 . S
Co510 N527 1.989 . S
Co510 O535 1.967 . S
Co510 O542 1.920 . S
Co511 O514 1.966 . S
Co511 N520 2.022 . S
Co511 N528 1.993 . S
Co511 O536 1.941 . S
C512 O513 1.258 . S
C512 O514 1.263 . S
O513 Co510 1.970 . S
O513 C512 1.258 . S
O514 Co511 1.966 . S
O514 C512 1.263 . S
C515 O516 1.235 . S
C515 O542 1.289 . S
O516 C515 1.235 . S
C517 C519 1.400 . S
C517 N520 1.351 . S
C517 C522 1.501 . S
C518 C519 1.387 . S
C518 N521 1.341 . S
C519 C517 1.400 . S
C519 C518 1.387 . S
N520 Co511 2.022 . S
N520 C517 1.351 . S
N520 N521 1.365 . S
N521 C518 1.341 . S
N521 N520 1.365 . S
N521 H541 0.862 . S
C522 C517 1.501 . S
C522 H523 0.961 . S
C522 H524 0.961 . S
C522 H525 0.960 . S
H523 C522 0.961 . S
H524 C522 0.961 . S
H525 C522 0.960 . S
C526 N527 1.342 . S
C526 C530 1.401 . S
C526 C531 1.499 . S
N527 Co510 1.989 . S
N527 C526 1.342 . S
N527 N528 1.388 . S
N528 Co511 1.993 . S
N528 N527 1.388 . S
N528 C529 1.346 . S
C529 N528 1.346 . S
C529 C530 1.396 . S
C529 C539 1.510 . S
C530 C526 1.401 . S
C530 C529 1.396 . S
C531 C526 1.499 . S
C531 H532 0.959 . S
C531 H533 0.960 . S
C531 H534 0.961 . S
H532 C531 0.959 . S
H533 C531 0.960 . S
H534 C531 0.961 . S
O535 Co510 1.967 . S
O535 C543 1.258 . S
O536 Co511 1.941 . S
O536 C543 1.266 . S
H537 C539 0.959 . S
H538 C539 0.961 . S
C539 C529 1.510 . S
C539 H537 0.959 . S
C539 H538 0.961 . S
C539 H540 0.960 . S
H540 C539 0.960 . S
H541 N521 0.862 . S
O542 Co510 1.920 . S
O542 C515 1.289 . S
C543 O535 1.258 . S
C543 O536 1.266 . S
H544 C562 0.951 . S
H545 C564 0.951 . S
H546 C566 0.950 1_565 S
H547 C567 0.950 1_565 S
H548 C569 0.950 . S
H549 C572 0.950 . S
H550 C573 0.950 . S
H551 C575 0.950 . S
H552 C576 0.950 . S
H553 C577 0.951 1_565 S
H554 C579 0.951 1_565 S
H555 C581 0.950 . S
H556 C582 0.950 . S
H557 C584 0.950 . S
H558 C587 0.950 . S
H559 C588 0.950 . S
H560 C590 0.950 . S
H561 C591 0.950 . S
C562 H544 0.951 . S
C562 C563 1.366 . S
C562 C564 1.388 . S
C563 C562 1.366 . S
C563 C567 1.385 . S
C564 H545 0.951 . S
C564 C562 1.388 . S
C564 C565 1.366 . S
C565 C564 1.366 . S
C565 C566 1.414 . S
C565 C568 1.499 . S
C566 H546 0.950 1_545 S
C566 C565 1.414 . S
C566 C567 1.374 . S
C567 H547 0.950 1_545 S
C567 C563 1.385 . S
C567 C566 1.374 . S
C568 C565 1.499 . S
C568 C569 1.373 . S
C568 C570 1.389 . S
C569 H548 0.950 . S
C569 C568 1.373 . S
C569 C585 1.377 . S
C570 C568 1.389 . S
C570 C571 1.524 . S
C570 C584 1.377 . S
C571 C570 1.524 . S
C571 C572 1.397 . S
C571 C576 1.363 . S
C572 H549 0.950 . S
C572 C571 1.397 . S
C572 C573 1.334 . S
C573 H550 0.950 . S
C573 C572 1.334 . S
C573 C574 1.287 . S
C574 C573 1.287 . S
C574 C575 1.524 . S
C574 H593 0.913 . S
C575 H551 0.950 . S
C575 C574 1.524 . S
C575 C576 1.415 . S
C576 H552 0.950 . S
C576 C571 1.363 . S
C576 C575 1.415 . S
C577 H553 0.951 1_545 S
C577 C578 1.366 . S
C577 C579 1.388 . S
C578 C577 1.366 . S
C578 C582 1.385 . S
C579 H554 0.951 1_545 S
C579 C577 1.388 . S
C579 C580 1.366 . S
C580 C579 1.366 . S
C580 C581 1.414 . S
C580 C583 1.499 . S
C581 H555 0.950 . S
C581 C580 1.414 . S
C581 C582 1.374 . S
C582 H556 0.950 . S
C582 C578 1.385 . S
C582 C581 1.374 . S
C583 C580 1.499 . S
C583 C584 1.373 . S
C583 C585 1.389 . S
C584 H557 0.950 . S
C584 C570 1.377 . S
C584 C583 1.373 . S
C585 C569 1.377 . S
C585 C583 1.389 . S
C585 C586 1.524 . S
C586 C585 1.524 . S
C586 C587 1.397 . S
C586 C591 1.363 1_545 S
C587 H558 0.950 . S
C587 C586 1.397 . S
C587 C588 1.334 . S
C588 H559 0.950 . S
C588 C587 1.334 . S
C588 C589 1.287 1_545 S
C589 C588 1.287 1_565 S
C589 C590 1.524 . S
C589 H592 0.999 . S
C590 H560 0.950 . S
C590 C589 1.524 . S
C590 C591 1.415 . S
C591 H561 0.950 . S
C591 C586 1.363 1_565 S
C591 C590 1.415 . S
H592 C589 0.999 . S
H593 C574 0.913 . S
H594 C612 0.951 . S
H595 C614 0.951 . S
H596 C616 0.950 . S
H597 C617 0.950 . S
H598 C619 0.950 . S
H599 C622 0.950 . S
H600 C623 0.950 . S
H601 C625 0.950 . S
H602 C626 0.950 . S
H603 C627 0.951 . S
H604 C629 0.951 . S
H605 C631 0.950 . S
H606 C632 0.950 . S
H607 C634 0.950 . S
H608 C637 0.950 . S
H609 C638 0.950 . S
H610 C640 0.950 . S
H611 C641 0.950 . S
C612 H594 0.951 . S
C612 C613 1.366 . S
C612 C614 1.388 . S
C613 C612 1.366 . S
C613 C617 1.385 . S
C614 H595 0.951 . S
C614 C612 1.388 . S
C614 C615 1.366 . S
C615 C614 1.366 . S
C615 C616 1.414 . S
C615 C618 1.499 . S
C616 H596 0.950 . S
C616 C615 1.414 . S
C616 C617 1.374 . S
C617 H597 0.950 . S
C617 C613 1.385 . S
C617 C616 1.374 . S
C618 C615 1.499 . S
C618 C619 1.373 . S
C618 C620 1.389 . S
C619 H598 0.950 . S
C619 C618 1.373 . S
C619 C635 1.377 . S
C620 C618 1.389 . S
C620 C621 1.524 . S
C620 C634 1.377 . S
C621 C620 1.524 . S
C621 C622 1.397 . S
C621 C626 1.363 . S
C622 H599 0.950 . S
C622 C621 1.397 . S
C622 C623 1.334 . S
C623 H600 0.950 . S
C623 C622 1.334 . S
C623 C624 1.287 . S
C624 C623 1.287 . S
C624 C625 1.524 . S
C624 H643 0.913 . S
C625 H601 0.950 . S
C625 C624 1.524 . S
C625 C626 1.415 . S
C626 H602 0.950 . S
C626 C621 1.363 . S
C626 C625 1.415 . S
C627 H603 0.951 . S
C627 C628 1.366 . S
C627 C629 1.388 . S
C628 C627 1.366 . S
C628 C632 1.385 . S
C629 H604 0.951 . S
C629 C627 1.388 . S
C629 C630 1.366 . S
C630 C629 1.366 . S
C630 C631 1.414 . S
C630 C633 1.499 . S
C631 H605 0.950 . S
C631 C630 1.414 . S
C631 C632 1.374 . S
C632 H606 0.950 . S
C632 C628 1.385 . S
C632 C631 1.374 . S
C633 C630 1.499 . S
C633 C634 1.373 . S
C633 C635 1.389 . S
C634 H607 0.950 . S
C634 C620 1.377 . S
C634 C633 1.373 . S
C635 C619 1.377 . S
C635 C633 1.389 . S
C635 C636 1.524 . S
C636 C635 1.524 . S
C636 C637 1.397 1_545 S
C636 C641 1.363 . S
C637 H608 0.950 . S
C637 C636 1.397 1_565 S
C637 C638 1.334 . S
C638 H609 0.950 . S
C638 C637 1.334 . S
C638 C639 1.287 . S
C639 C638 1.287 . S
C639 C640 1.524 . S
C639 H642 0.999 . S
C640 H610 0.950 . S
C640 C639 1.524 . S
C640 C641 1.415 1_565 S
C641 H611 0.950 . S
C641 C636 1.363 . S
C641 C640 1.415 1_545 S
H642 C639 0.999 . S
H643 C624 0.913 . S
H644 C662 0.951 . S
H645 C664 0.951 . S
H646 C666 0.950 1_565 S
H647 C667 0.929 1_565 S
H648 C669 0.950 . S
H649 C672 0.950 . S
H650 C673 0.950 . S
H651 C675 0.950 . S
H652 C676 0.950 . S
H653 C677 0.945 1_565 S
H654 C679 0.934 1_565 S
H655 C681 0.950 . S
H656 C682 0.950 . S
H657 C684 0.950 . S
H658 C687 0.950 . S
H659 C688 0.950 . S
H660 C690 0.950 . S
H661 C691 0.950 . S
C662 H644 0.951 . S
C662 C663 1.366 . S
C662 C664 1.388 . S
C663 C662 1.366 . S
C663 C667 1.385 . S
C664 H645 0.951 . S
C664 C662 1.388 . S
C664 C665 1.366 . S
C665 C664 1.366 . S
C665 C666 1.414 . S
C665 C668 1.499 . S
C666 H646 0.950 1_545 S
C666 C665 1.414 . S
C666 C667 1.374 . S
C667 H647 0.929 1_545 S
C667 C663 1.385 . S
C667 C666 1.374 . S
C668 C665 1.499 . S
C668 C669 1.373 . S
C668 C670 1.389 . S
C669 H648 0.950 . S
C669 C668 1.373 . S
C669 C685 1.377 . S
C670 C668 1.389 . S
C670 C671 1.524 . S
C670 C684 1.377 . S
C671 C670 1.524 . S
C671 C672 1.397 . S
C671 C676 1.363 . S
C672 H649 0.950 . S
C672 C671 1.397 . S
C672 C673 1.334 . S
C673 H650 0.950 . S
C673 C672 1.334 . S
C673 C674 1.287 . S
C674 C673 1.287 . S
C674 C675 1.524 . S
C674 H693 0.913 . S
C675 H651 0.950 . S
C675 C674 1.524 . S
C675 C676 1.415 . S
C676 H652 0.950 . S
C676 C671 1.363 . S
C676 C675 1.415 . S
C677 H653 0.945 1_545 S
C677 C678 1.366 . S
C677 C679 1.388 . S
C678 C677 1.366 . S
C678 C682 1.385 . S
C679 H654 0.934 1_545 S
C679 C677 1.388 . S
C679 C680 1.366 . S
C680 C679 1.366 . S
C680 C681 1.414 . S
C680 C683 1.499 . S
C681 H655 0.950 . S
C681 C680 1.414 . S
C681 C682 1.374 . S
C682 H656 0.950 . S
C682 C678 1.385 . S
C682 C681 1.374 . S
C683 C680 1.499 . S
C683 C684 1.373 . S
C683 C685 1.389 . S
C684 H657 0.950 . S
C684 C670 1.377 . S
C684 C683 1.373 . S
C685 C669 1.377 . S
C685 C683 1.389 . S
C685 C686 1.524 1_545 S
C686 C685 1.524 1_565 S
C686 C687 1.397 1_565 S
C686 C691 1.363 . S
C687 H658 0.950 . S
C687 C686 1.397 1_545 S
C687 C688 1.334 1_545 S
C688 H659 0.950 . S
C688 C687 1.334 1_565 S
C688 C689 1.287 . S
C689 C688 1.287 . S
C689 C690 1.524 . S
C689 H692 0.999 . S
C690 H660 0.950 . S
C690 C689 1.524 . S
C690 C691 1.415 . S
C691 H661 0.950 . S
C691 C686 1.363 . S
C691 C690 1.415 . S
H692 C689 0.999 . S
H693 C674 0.913 . S
H694 C712 0.951 1_565 S
H695 C714 0.951 1_565 S
H696 C716 0.950 . S
H697 C717 0.950 . S
H698 C719 0.950 . S
H699 C722 0.950 1_545 S
H700 C723 0.950 . S
H701 C725 0.950 . S
H702 C726 0.950 . S
H703 C727 0.951 . S
H704 C729 0.951 . S
H705 C731 0.950 1_565 S
H706 C732 0.950 1_565 S
H707 C734 0.950 1_565 S
H708 C737 0.950 . S
H709 C738 0.950 . S
H710 C740 0.950 . S
H711 C741 0.950 . S
C712 H694 0.951 1_545 S
C712 C713 1.366 . S
C712 C714 1.388 . S
C713 C712 1.366 . S
C713 C717 1.385 . S
C714 H695 0.951 1_545 S
C714 C712 1.388 . S
C714 C715 1.366 . S
C715 C714 1.366 . S
C715 C716 1.414 . S
C715 C718 1.499 . S
C716 H696 0.950 . S
C716 C715 1.414 . S
C716 C717 1.374 . S
C717 H697 0.950 . S
C717 C713 1.385 . S
C717 C716 1.374 . S
C718 C715 1.499 . S
C718 C719 1.373 . S
C718 C720 1.389 . S
C719 H698 0.950 . S
C719 C718 1.373 . S
C719 C735 1.377 . S
C720 C718 1.389 . S
C720 C721 1.524 1_545 S
C720 C734 1.377 . S
C721 C720 1.524 1_565 S
C721 C722 1.397 . S
C721 C726 1.363 . S
C722 H699 0.950 1_565 S
C722 C721 1.397 . S
C722 C723 1.334 . S
C723 H700 0.950 . S
C723 C722 1.334 . S
C723 C724 1.287 . S
C724 C723 1.287 . S
C724 C725 1.524 . S
C724 H743 0.913 . S
C725 H701 0.950 . S
C725 C724 1.524 . S
C725 C726 1.415 . S
C726 H702 0.950 . S
C726 C721 1.363 . S
C726 C725 1.415 . S
C727 H703 0.951 . S
C727 C728 1.366 . S
C727 C729 1.388 . S
C728 C727 1.366 . S
C728 C732 1.385 . S
C729 H704 0.951 . S
C729 C727 1.388 . S
C729 C730 1.366 . S
C730 C729 1.366 . S
C730 C731 1.414 . S
C730 C733 1.499 . S
C731 H705 0.950 1_545 S
C731 C730 1.414 . S
C731 C732 1.374 . S
C732 H706 0.950 1_545 S
C732 C728 1.385 . S
C732 C731 1.374 . S
C733 C730 1.499 . S
C733 C734 1.373 . S
C733 C735 1.389 . S
C734 H707 0.950 1_545 S
C734 C720 1.377 . S
C734 C733 1.373 . S
C735 C719 1.377 . S
C735 C733 1.389 . S
C735 C736 1.524 . S
C736 C735 1.524 . S
C736 C737 1.397 . S
C736 C741 1.363 . S
C737 H708 0.950 . S
C737 C736 1.397 . S
C737 C738 1.334 . S
C738 H709 0.950 . S
C738 C737 1.334 . S
C738 C739 1.287 . S
C739 C738 1.287 . S
C739 C740 1.524 . S
C739 H742 0.999 . S
C740 H710 0.950 . S
C740 C739 1.524 . S
C740 C741 1.415 . S
C741 H711 0.950 . S
C741 C736 1.363 . S
C741 C740 1.415 . S
H742 C739 0.999 . S
H743 C724 0.913 . S
H744 C762 0.951 . S
H745 C764 0.951 . S
H746 C766 0.950 . S
H747 C767 0.950 . S
H748 C769 0.950 . S
H749 C772 0.950 . S
H750 C773 0.950 . S
H751 C775 0.950 . S
H752 C776 0.950 . S
H753 C777 0.951 . S
H754 C779 0.951 . S
H755 C781 0.950 . S
H756 C782 0.950 . S
H757 C784 0.950 . S
H758 C787 0.950 . S
H759 C788 0.950 . S
H760 C790 0.950 . S
H761 C791 0.950 . S
C762 H744 0.951 . S
C762 C763 1.366 . S
C762 C764 1.388 . S
C763 C762 1.366 . S
C763 C767 1.385 . S
C764 H745 0.951 . S
C764 C762 1.388 . S
C764 C765 1.366 . S
C765 C764 1.366 . S
C765 C766 1.414 . S
C765 C768 1.499 . S
C766 H746 0.950 . S
C766 C765 1.414 . S
C766 C767 1.374 . S
C767 H747 0.950 . S
C767 C763 1.385 . S
C767 C766 1.374 . S
C768 C765 1.499 . S
C768 C769 1.373 . S
C768 C770 1.389 . S
C769 H748 0.950 . S
C769 C768 1.373 . S
C769 C785 1.377 . S
C770 C768 1.389 . S
C770 C771 1.524 . S
C770 C784 1.377 . S
C771 C770 1.524 . S
C771 C772 1.397 . S
C771 C776 1.363 . S
C772 H749 0.950 . S
C772 C771 1.397 . S
C772 C773 1.334 . S
C773 H750 0.950 . S
C773 C772 1.334 . S
C773 C774 1.287 . S
C774 C773 1.287 . S
C774 C775 1.524 . S
C774 H793 0.913 . S
C775 H751 0.950 . S
C775 C774 1.524 . S
C775 C776 1.415 . S
C776 H752 0.950 . S
C776 C771 1.363 . S
C776 C775 1.415 . S
C777 H753 0.951 . S
C777 C778 1.366 . S
C777 C779 1.388 . S
C778 C777 1.366 . S
C778 C782 1.385 . S
C779 H754 0.951 . S
C779 C777 1.388 . S
C779 C780 1.366 . S
C780 C779 1.366 . S
C780 C781 1.414 . S
C780 C783 1.499 . S
C781 H755 0.950 . S
C781 C780 1.414 . S
C781 C782 1.374 . S
C782 H756 0.950 . S
C782 C778 1.385 . S
C782 C781 1.374 . S
C783 C780 1.499 . S
C783 C784 1.373 . S
C783 C785 1.389 . S
C784 H757 0.950 . S
C784 C770 1.377 . S
C784 C783 1.373 . S
C785 C769 1.377 . S
C785 C783 1.389 . S
C785 C786 1.524 . S
C786 C785 1.524 . S
C786 C787 1.397 . S
C786 C791 1.363 . S
C787 H758 0.950 . S
C787 C786 1.397 . S
C787 C788 1.334 . S
C788 H759 0.950 . S
C788 C787 1.334 . S
C788 C789 1.287 . S
C789 C788 1.287 . S
C789 C790 1.524 . S
C789 H792 0.999 . S
C790 H760 0.950 . S
C790 C789 1.524 . S
C790 C791 1.415 . S
C791 H761 0.950 . S
C791 C786 1.363 . S
C791 C790 1.415 . S
H792 C789 0.999 . S
H793 C774 0.913 . S
H794 C812 0.951 . S
H795 C814 0.951 . S
H796 C816 0.950 . S
H797 C817 0.950 . S
H798 C819 0.950 . S
H799 C822 0.950 . S
H800 C823 0.950 . S
H801 C825 0.950 . S
H802 C826 0.950 . S
H803 C827 0.951 . S
H804 C829 0.951 . S
H805 C831 0.950 . S
H806 C832 0.950 . S
H807 C834 0.950 . S
H808 C837 0.950 . S
H809 C838 0.950 . S
H810 C840 0.950 . S
H811 C841 0.950 . S
C812 H794 0.951 . S
C812 C813 1.366 . S
C812 C814 1.388 . S
C813 C812 1.366 . S
C813 C817 1.385 . S
C814 H795 0.951 . S
C814 C812 1.388 . S
C814 C815 1.366 . S
C815 C814 1.366 . S
C815 C816 1.414 . S
C815 C818 1.499 . S
C816 H796 0.950 . S
C816 C815 1.414 . S
C816 C817 1.374 . S
C817 H797 0.950 . S
C817 C813 1.385 . S
C817 C816 1.374 . S
C818 C815 1.499 . S
C818 C819 1.373 . S
C818 C820 1.389 . S
C819 H798 0.950 . S
C819 C818 1.373 . S
C819 C835 1.377 . S
C820 C818 1.389 . S
C820 C821 1.524 . S
C820 C834 1.377 . S
C821 C820 1.524 . S
C821 C822 1.397 . S
C821 C826 1.363 . S
C822 H799 0.950 . S
C822 C821 1.397 . S
C822 C823 1.334 . S
C823 H800 0.950 . S
C823 C822 1.334 . S
C823 C824 1.287 . S
C824 C823 1.287 . S
C824 C825 1.524 . S
C824 H843 0.913 . S
C825 H801 0.950 . S
C825 C824 1.524 . S
C825 C826 1.415 . S
C826 H802 0.950 . S
C826 C821 1.363 . S
C826 C825 1.415 . S
C827 H803 0.951 . S
C827 C828 1.366 . S
C827 C829 1.388 . S
C828 C827 1.366 . S
C828 C832 1.385 . S
C829 H804 0.951 . S
C829 C827 1.388 . S
C829 C830 1.366 . S
C830 C829 1.366 . S
C830 C831 1.414 . S
C830 C833 1.499 . S
C831 H805 0.950 . S
C831 C830 1.414 . S
C831 C832 1.374 . S
C832 H806 0.950 . S
C832 C828 1.385 . S
C832 C831 1.374 . S
C833 C830 1.499 . S
C833 C834 1.373 . S
C833 C835 1.389 . S
C834 H807 0.950 . S
C834 C820 1.377 . S
C834 C833 1.373 . S
C835 C819 1.377 . S
C835 C833 1.389 . S
C835 C836 1.524 . S
C836 C835 1.524 . S
C836 C837 1.397 . S
C836 C841 1.363 . S
C837 H808 0.950 . S
C837 C836 1.397 . S
C837 C838 1.334 . S
C838 H809 0.950 . S
C838 C837 1.334 . S
C838 C839 1.287 . S
C839 C838 1.287 . S
C839 C840 1.524 . S
C839 H842 0.999 . S
C840 H810 0.950 . S
C840 C839 1.524 . S
C840 C841 1.415 . S
C841 H811 0.950 . S
C841 C836 1.363 . S
C841 C840 1.415 . S
H842 C839 0.999 . S
H843 C824 0.913 . S
H844 C862 0.951 . S
H845 C864 0.951 . S
H846 C866 0.950 . S
H847 C867 0.950 . S
H848 C869 0.950 . S
H849 C872 0.950 . S
H850 C873 0.950 . S
H851 C875 0.950 . S
H852 C876 0.950 . S
H853 C877 0.951 . S
H854 C879 0.951 . S
H855 C881 0.950 . S
H856 C882 0.950 . S
H857 C884 0.950 . S
H858 C887 0.950 . S
H859 C888 0.950 . S
H860 C890 0.950 . S
H861 C891 0.950 . S
C862 H844 0.951 . S
C862 C863 1.366 . S
C862 C864 1.388 . S
C863 C862 1.366 . S
C863 C867 1.385 . S
C864 H845 0.951 . S
C864 C862 1.388 . S
C864 C865 1.366 . S
C865 C864 1.366 . S
C865 C866 1.414 . S
C865 C868 1.499 . S
C866 H846 0.950 . S
C866 C865 1.414 . S
C866 C867 1.374 . S
C867 H847 0.950 . S
C867 C863 1.385 . S
C867 C866 1.374 . S
C868 C865 1.499 . S
C868 C869 1.373 . S
C868 C870 1.389 . S
C869 H848 0.950 . S
C869 C868 1.373 . S
C869 C885 1.377 . S
C870 C868 1.389 . S
C870 C871 1.524 . S
C870 C884 1.377 . S
C871 C870 1.524 . S
C871 C872 1.397 . S
C871 C876 1.363 . S
C872 H849 0.950 . S
C872 C871 1.397 . S
C872 C873 1.334 . S
C873 H850 0.950 . S
C873 C872 1.334 . S
C873 C874 1.287 . S
C874 C873 1.287 . S
C874 C875 1.524 . S
C874 H893 0.913 . S
C875 H851 0.950 . S
C875 C874 1.524 . S
C875 C876 1.415 . S
C876 H852 0.950 . S
C876 C871 1.363 . S
C876 C875 1.415 . S
C877 H853 0.951 . S
C877 C878 1.366 . S
C877 C879 1.388 . S
C878 C877 1.366 . S
C878 C882 1.385 . S
C879 H854 0.951 . S
C879 C877 1.388 . S
C879 C880 1.366 . S
C880 C879 1.366 . S
C880 C881 1.414 . S
C880 C883 1.499 . S
C881 H855 0.950 . S
C881 C880 1.414 . S
C881 C882 1.374 . S
C882 H856 0.950 . S
C882 C878 1.385 . S
C882 C881 1.374 . S
C883 C880 1.499 . S
C883 C884 1.373 . S
C883 C885 1.389 . S
C884 H857 0.950 . S
C884 C870 1.377 . S
C884 C883 1.373 . S
C885 C869 1.377 . S
C885 C883 1.389 . S
C885 C886 1.524 . S
C886 C885 1.524 . S
C886 C887 1.397 . S
C886 C891 1.363 . S
C887 H858 0.950 . S
C887 C886 1.397 . S
C887 C888 1.334 . S
C888 H859 0.950 . S
C888 C887 1.334 . S
C888 C889 1.287 . S
C889 C888 1.287 . S
C889 C890 1.524 . S
C889 H892 0.999 . S
C890 H860 0.950 . S
C890 C889 1.524 . S
C890 C891 1.415 . S
C891 H861 0.950 . S
C891 C886 1.363 . S
C891 C890 1.415 . S
H892 C889 0.999 . S
H893 C874 0.913 . S
H894 C912 0.951 . S
H895 C914 0.951 . S
H896 C916 0.950 . S
H897 C917 0.950 . S
H898 C919 0.950 . S
H899 C922 0.950 . S
H900 C923 0.950 . S
H901 C925 0.950 . S
H902 C926 0.950 . S
H903 C927 0.951 . S
H904 C929 0.951 . S
H905 C931 0.950 . S
H906 C932 0.950 . S
H907 C934 0.950 . S
H908 C937 0.950 . S
H909 C938 0.950 . S
H910 C940 0.950 . S
H911 C941 0.950 . S
C912 H894 0.951 . S
C912 C913 1.366 . S
C912 C914 1.388 . S
C913 C912 1.366 . S
C913 C917 1.385 . S
C914 H895 0.951 . S
C914 C912 1.388 . S
C914 C915 1.366 . S
C915 C914 1.366 . S
C915 C916 1.414 . S
C915 C918 1.499 . S
C916 H896 0.950 . S
C916 C915 1.414 . S
C916 C917 1.374 . S
C917 H897 0.950 . S
C917 C913 1.385 . S
C917 C916 1.374 . S
C918 C915 1.499 . S
C918 C919 1.373 . S
C918 C920 1.389 . S
C919 H898 0.950 . S
C919 C918 1.373 . S
C919 C935 1.377 . S
C920 C918 1.389 . S
C920 C921 1.524 . S
C920 C934 1.377 . S
C921 C920 1.524 . S
C921 C922 1.397 . S
C921 C926 1.363 . S
C922 H899 0.950 . S
C922 C921 1.397 . S
C922 C923 1.334 . S
C923 H900 0.950 . S
C923 C922 1.334 . S
C923 C924 1.287 . S
C924 C923 1.287 . S
C924 C925 1.524 . S
C924 H943 0.913 . S
C925 H901 0.950 . S
C925 C924 1.524 . S
C925 C926 1.415 . S
C926 H902 0.950 . S
C926 C921 1.363 . S
C926 C925 1.415 . S
C927 H903 0.951 . S
C927 C928 1.366 . S
C927 C929 1.388 . S
C928 C927 1.366 . S
C928 C932 1.385 . S
C929 H904 0.951 . S
C929 C927 1.388 . S
C929 C930 1.366 . S
C930 C929 1.366 . S
C930 C931 1.414 . S
C930 C933 1.499 . S
C931 H905 0.950 . S
C931 C930 1.414 . S
C931 C932 1.374 . S
C932 H906 0.950 . S
C932 C928 1.385 . S
C932 C931 1.374 . S
C933 C930 1.499 . S
C933 C934 1.373 . S
C933 C935 1.389 . S
C934 H907 0.950 . S
C934 C920 1.377 . S
C934 C933 1.373 . S
C935 C919 1.377 . S
C935 C933 1.389 . S
C935 C936 1.524 . S
C936 C935 1.524 . S
C936 C937 1.397 . S
C936 C941 1.363 . S
C937 H908 0.950 . S
C937 C936 1.397 . S
C937 C938 1.334 . S
C938 H909 0.950 . S
C938 C937 1.334 . S
C938 C939 1.287 . S
C939 C938 1.287 . S
C939 C940 1.524 . S
C939 H942 0.999 . S
C940 H910 0.950 . S
C940 C939 1.524 . S
C940 C941 1.415 . S
C941 H911 0.950 . S
C941 C936 1.363 . S
C941 C940 1.415 . S
H942 C939 0.999 . S
H943 C924 0.913 . S
H944 C962 0.951 . S
H945 C964 0.951 . S
H946 C966 0.950 . S
H947 C967 0.950 . S
H948 C969 0.950 . S
H949 C972 0.950 . S
H950 C973 0.950 . S
H951 C975 0.950 . S
H952 C976 0.950 . S
H953 C977 0.951 . S
H954 C979 0.951 . S
H955 C981 0.950 . S
H956 C982 0.950 . S
H957 C984 0.950 . S
H958 C987 0.950 . S
H959 C988 0.950 . S
H960 C990 0.950 . S
H961 C991 0.950 . S
C962 H944 0.951 . S
C962 C963 1.366 . S
C962 C964 1.388 . S
C963 C962 1.366 . S
C963 C967 1.385 . S
C964 H945 0.951 . S
C964 C962 1.388 . S
C964 C965 1.366 . S
C965 C964 1.366 . S
C965 C966 1.414 . S
C965 C968 1.499 . S
C966 H946 0.950 . S
C966 C965 1.414 . S
C966 C967 1.374 . S
C967 H947 0.950 . S
C967 C963 1.385 . S
C967 C966 1.374 . S
C968 C965 1.499 . S
C968 C969 1.373 . S
C968 C970 1.389 . S
C969 H948 0.950 . S
C969 C968 1.373 . S
C969 C985 1.377 . S
C970 C968 1.389 . S
C970 C971 1.524 . S
C970 C984 1.377 . S
C971 C970 1.524 . S
C971 C972 1.397 . S
C971 C976 1.363 . S
C972 H949 0.950 . S
C972 C971 1.397 . S
C972 C973 1.334 . S
C973 H950 0.950 . S
C973 C972 1.334 . S
C973 C974 1.287 . S
C974 C973 1.287 . S
C974 C975 1.524 . S
C974 H993 0.913 . S
C975 H951 0.950 . S
C975 C974 1.524 . S
C975 C976 1.415 . S
C976 H952 0.950 . S
C976 C971 1.363 . S
C976 C975 1.415 . S
C977 H953 0.951 . S
C977 C978 1.366 . S
C977 C979 1.388 . S
C978 C977 1.366 . S
C978 C982 1.385 . S
C979 H954 0.951 . S
C979 C977 1.388 . S
C979 C980 1.366 . S
C980 C979 1.366 . S
C980 C981 1.414 . S
C980 C983 1.499 . S
C981 H955 0.950 . S
C981 C980 1.414 . S
C981 C982 1.374 . S
C982 H956 0.950 . S
C982 C978 1.385 . S
C982 C981 1.374 . S
C983 C980 1.499 . S
C983 C984 1.373 . S
C983 C985 1.389 . S
C984 H957 0.950 . S
C984 C970 1.377 . S
C984 C983 1.373 . S
C985 C969 1.377 . S
C985 C983 1.389 . S
C985 C986 1.524 . S
C986 C985 1.524 . S
C986 C987 1.397 . S
C986 C991 1.363 . S
C987 H958 0.950 . S
C987 C986 1.397 . S
C987 C988 1.334 . S
C988 H959 0.950 . S
C988 C987 1.334 . S
C988 C989 1.287 . S
C989 C988 1.287 . S
C989 C990 1.524 . S
C989 H992 0.999 . S
C990 H960 0.950 . S
C990 C989 1.524 . S
C990 C991 1.415 . S
C991 H961 0.950 . S
C991 C986 1.363 . S
C991 C990 1.415 . S
H992 C989 0.999 . S
H993 C974 0.913 . S
H994 C1012 0.951 . S
H995 C1014 0.951 . S
H996 C1016 0.950 . S
H997 C1017 0.950 . S
H998 C1019 0.950 . S
H999 C1022 0.950 . S
H1000 C1023 0.950 . S
H1001 C1025 0.950 . S
H1002 C1026 0.950 . S
H1003 C1027 0.951 . S
H1004 C1029 0.951 . S
H1005 C1031 0.950 . S
H1006 C1032 0.950 . S
H1007 C1034 0.950 . S
H1008 C1037 0.950 . S
H1009 C1038 0.950 . S
H1010 C1040 0.950 . S
H1011 C1041 0.950 . S
C1012 H994 0.951 . S
C1012 C1013 1.366 . S
C1012 C1014 1.388 . S
C1013 C1012 1.366 . S
C1013 C1017 1.385 . S
C1014 H995 0.951 . S
C1014 C1012 1.388 . S
C1014 C1015 1.366 . S
C1015 C1014 1.366 . S
C1015 C1016 1.414 . S
C1015 C1018 1.499 . S
C1016 H996 0.950 . S
C1016 C1015 1.414 . S
C1016 C1017 1.374 . S
C1017 H997 0.950 . S
C1017 C1013 1.385 . S
C1017 C1016 1.374 . S
C1018 C1015 1.499 . S
C1018 C1019 1.373 . S
C1018 C1020 1.389 . S
C1019 H998 0.950 . S
C1019 C1018 1.373 . S
C1019 C1035 1.377 . S
C1020 C1018 1.389 . S
C1020 C1021 1.524 . S
C1020 C1034 1.377 . S
C1021 C1020 1.524 . S
C1021 C1022 1.397 . S
C1021 C1026 1.363 . S
C1022 H999 0.950 . S
C1022 C1021 1.397 . S
C1022 C1023 1.334 . S
C1023 H1000 0.950 . S
C1023 C1022 1.334 . S
C1023 C1024 1.287 . S
C1024 C1023 1.287 . S
C1024 C1025 1.524 . S
C1024 H1043 0.913 . S
C1025 H1001 0.950 . S
C1025 C1024 1.524 . S
C1025 C1026 1.415 . S
C1026 H1002 0.950 . S
C1026 C1021 1.363 . S
C1026 C1025 1.415 . S
C1027 H1003 0.951 . S
C1027 C1028 1.366 . S
C1027 C1029 1.388 . S
C1028 C1027 1.366 . S
C1028 C1032 1.385 . S
C1029 H1004 0.951 . S
C1029 C1027 1.388 . S
C1029 C1030 1.366 . S
C1030 C1029 1.366 . S
C1030 C1031 1.414 . S
C1030 C1033 1.499 . S
C1031 H1005 0.950 . S
C1031 C1030 1.414 . S
C1031 C1032 1.374 . S
C1032 H1006 0.950 . S
C1032 C1028 1.385 . S
C1032 C1031 1.374 . S
C1033 C1030 1.499 . S
C1033 C1034 1.373 . S
C1033 C1035 1.389 . S
C1034 H1007 0.950 . S
C1034 C1020 1.377 . S
C1034 C1033 1.373 . S
C1035 C1019 1.377 . S
C1035 C1033 1.389 . S
C1035 C1036 1.524 . S
C1036 C1035 1.524 . S
C1036 C1037 1.397 . S
C1036 C1041 1.363 . S
C1037 H1008 0.950 . S
C1037 C1036 1.397 . S
C1037 C1038 1.334 . S
C1038 H1009 0.950 . S
C1038 C1037 1.334 . S
C1038 C1039 1.287 . S
C1039 C1038 1.287 . S
C1039 C1040 1.524 . S
C1039 H1042 0.999 . S
C1040 H1010 0.950 . S
C1040 C1039 1.524 . S
C1040 C1041 1.415 . S
C1041 H1011 0.950 . S
C1041 C1036 1.363 . S
C1041 C1040 1.415 . S
H1042 C1039 0.999 . S
H1043 C1024 0.913 . S
H1044 C1062 0.951 . S
H1045 C1064 0.951 . S
H1046 C1066 0.950 . S
H1047 C1067 0.950 . S
H1048 C1069 0.950 . S
H1049 C1072 0.950 . S
H1050 C1073 0.950 . S
H1051 C1075 0.950 . S
H1052 C1076 0.950 . S
H1053 C1077 0.951 . S
H1054 C1079 0.951 . S
H1055 C1081 0.950 . S
H1056 C1082 0.950 . S
H1057 C1084 0.950 . S
H1058 C1087 0.950 . S
H1059 C1088 0.950 . S
H1060 C1090 0.950 . S
H1061 C1091 0.950 . S
C1062 H1044 0.951 . S
C1062 C1063 1.366 . S
C1062 C1064 1.388 . S
C1063 C1062 1.366 . S
C1063 C1067 1.385 . S
C1064 H1045 0.951 . S
C1064 C1062 1.388 . S
C1064 C1065 1.366 . S
C1065 C1064 1.366 . S
C1065 C1066 1.414 . S
C1065 C1068 1.499 . S
C1066 H1046 0.950 . S
C1066 C1065 1.414 . S
C1066 C1067 1.374 . S
C1067 H1047 0.950 . S
C1067 C1063 1.385 . S
C1067 C1066 1.374 . S
C1068 C1065 1.499 . S
C1068 C1069 1.373 . S
C1068 C1070 1.389 . S
C1069 H1048 0.950 . S
C1069 C1068 1.373 . S
C1069 C1085 1.377 . S
C1070 C1068 1.389 . S
C1070 C1071 1.524 . S
C1070 C1084 1.377 . S
C1071 C1070 1.524 . S
C1071 C1072 1.397 . S
C1071 C1076 1.363 . S
C1072 H1049 0.950 . S
C1072 C1071 1.397 . S
C1072 C1073 1.334 . S
C1073 H1050 0.950 . S
C1073 C1072 1.334 . S
C1073 C1074 1.287 . S
C1074 C1073 1.287 . S
C1074 C1075 1.524 . S
C1074 H1093 0.913 . S
C1075 H1051 0.950 . S
C1075 C1074 1.524 . S
C1075 C1076 1.415 . S
C1076 H1052 0.950 . S
C1076 C1071 1.363 . S
C1076 C1075 1.415 . S
C1077 H1053 0.951 . S
C1077 C1078 1.366 . S
C1077 C1079 1.388 . S
C1078 C1077 1.366 . S
C1078 C1082 1.385 . S
C1079 H1054 0.951 . S
C1079 C1077 1.388 . S
C1079 C1080 1.366 . S
C1080 C1079 1.366 . S
C1080 C1081 1.414 . S
C1080 C1083 1.499 . S
C1081 H1055 0.950 . S
C1081 C1080 1.414 . S
C1081 C1082 1.374 . S
C1082 H1056 0.950 . S
C1082 C1078 1.385 . S
C1082 C1081 1.374 . S
C1083 C1080 1.499 . S
C1083 C1084 1.373 . S
C1083 C1085 1.389 . S
C1084 H1057 0.950 . S
C1084 C1070 1.377 . S
C1084 C1083 1.373 . S
C1085 C1069 1.377 . S
C1085 C1083 1.389 . S
C1085 C1086 1.524 . S
C1086 C1085 1.524 . S
C1086 C1087 1.397 . S
C1086 C1091 1.363 . S
C1087 H1058 0.950 . S
C1087 C1086 1.397 . S
C1087 C1088 1.334 . S
C1088 H1059 0.950 . S
C1088 C1087 1.334 . S
C1088 C1089 1.287 . S
C1089 C1088 1.287 . S
C1089 C1090 1.524 . S
C1089 H1092 0.999 . S
C1090 H1060 0.950 . S
C1090 C1089 1.524 . S
C1090 C1091 1.415 . S
C1091 H1061 0.950 . S
C1091 C1086 1.363 . S
C1091 C1090 1.415 . S
H1092 C1089 0.999 . S
H1093 C1074 0.913 . S
H1094 C1112 0.951 . S
H1095 C1114 0.951 . S
H1096 C1116 0.950 . S
H1097 C1117 0.950 . S
H1098 C1119 0.950 . S
H1099 C1122 0.950 . S
H1100 C1123 0.950 . S
H1101 C1125 0.950 . S
H1102 C1126 0.950 . S
H1103 C1127 0.951 . S
H1104 C1129 0.951 . S
H1105 C1131 0.950 . S
H1106 C1132 0.950 . S
H1107 C1134 0.950 . S
H1108 C1137 0.950 . S
H1109 C1138 0.950 . S
H1110 C1140 0.950 . S
H1111 C1141 0.950 . S
C1112 H1094 0.951 . S
C1112 C1113 1.366 . S
C1112 C1114 1.388 . S
C1113 C1112 1.366 . S
C1113 C1117 1.385 . S
C1114 H1095 0.951 . S
C1114 C1112 1.388 . S
C1114 C1115 1.366 . S
C1115 C1114 1.366 . S
C1115 C1116 1.414 . S
C1115 C1118 1.499 . S
C1116 H1096 0.950 . S
C1116 C1115 1.414 . S
C1116 C1117 1.374 . S
C1117 H1097 0.950 . S
C1117 C1113 1.385 . S
C1117 C1116 1.374 . S
C1118 C1115 1.499 . S
C1118 C1119 1.373 . S
C1118 C1120 1.389 . S
C1119 H1098 0.950 . S
C1119 C1118 1.373 . S
C1119 C1135 1.377 . S
C1120 C1118 1.389 . S
C1120 C1121 1.524 . S
C1120 C1134 1.377 . S
C1121 C1120 1.524 . S
C1121 C1122 1.397 . S
C1121 C1126 1.363 . S
C1122 H1099 0.950 . S
C1122 C1121 1.397 . S
C1122 C1123 1.334 . S
C1123 H1100 0.950 . S
C1123 C1122 1.334 . S
C1123 C1124 1.287 . S
C1124 C1123 1.287 . S
C1124 C1125 1.524 . S
C1124 H1143 0.913 . S
C1125 H1101 0.950 . S
C1125 C1124 1.524 . S
C1125 C1126 1.415 . S
C1126 H1102 0.950 . S
C1126 C1121 1.363 . S
C1126 C1125 1.415 . S
C1127 H1103 0.951 . S
C1127 C1128 1.366 . S
C1127 C1129 1.388 . S
C1128 C1127 1.366 . S
C1128 C1132 1.385 . S
C1129 H1104 0.951 . S
C1129 C1127 1.388 . S
C1129 C1130 1.366 . S
C1130 C1129 1.366 . S
C1130 C1131 1.414 . S
C1130 C1133 1.499 . S
C1131 H1105 0.950 . S
C1131 C1130 1.414 . S
C1131 C1132 1.374 . S
C1132 H1106 0.950 . S
C1132 C1128 1.385 . S
C1132 C1131 1.374 . S
C1133 C1130 1.499 . S
C1133 C1134 1.373 . S
C1133 C1135 1.389 . S
C1134 H1107 0.950 . S
C1134 C1120 1.377 . S
C1134 C1133 1.373 . S
C1135 C1119 1.377 . S
C1135 C1133 1.389 . S
C1135 C1136 1.524 . S
C1136 C1135 1.524 . S
C1136 C1137 1.397 . S
C1136 C1141 1.363 . S
C1137 H1108 0.950 . S
C1137 C1136 1.397 . S
C1137 C1138 1.334 . S
C1138 H1109 0.950 . S
C1138 C1137 1.334 . S
C1138 C1139 1.287 . S
C1139 C1138 1.287 . S
C1139 C1140 1.524 . S
C1139 H1142 0.999 . S
C1140 H1110 0.950 . S
C1140 C1139 1.524 . S
C1140 C1141 1.415 . S
C1141 H1111 0.950 . S
C1141 C1136 1.363 . S
C1141 C1140 1.415 . S
H1142 C1139 0.999 . S
H1143 C1124 0.913 . S
H1144 C1162 0.951 . S
H1145 C1164 0.951 . S
H1146 C1166 0.950 . S
H1147 C1167 0.950 . S
H1148 C1169 0.950 . S
H1149 C1172 0.950 . S
H1150 C1173 0.950 . S
H1151 C1175 0.950 . S
H1152 C1176 0.950 . S
H1153 C1177 0.951 . S
H1154 C1179 0.951 . S
H1155 C1181 0.950 . S
H1156 C1182 0.950 . S
H1157 C1184 0.950 . S
H1158 C1187 0.950 . S
H1159 C1188 0.950 . S
H1160 C1190 0.950 . S
H1161 C1191 0.950 . S
C1162 H1144 0.951 . S
C1162 C1163 1.366 . S
C1162 C1164 1.388 . S
C1163 C1162 1.366 . S
C1163 C1167 1.385 . S
C1164 H1145 0.951 . S
C1164 C1162 1.388 . S
C1164 C1165 1.366 . S
C1165 C1164 1.366 . S
C1165 C1166 1.414 . S
C1165 C1168 1.499 . S
C1166 H1146 0.950 . S
C1166 C1165 1.414 . S
C1166 C1167 1.374 . S
C1167 H1147 0.950 . S
C1167 C1163 1.385 . S
C1167 C1166 1.374 . S
C1168 C1165 1.499 . S
C1168 C1169 1.373 . S
C1168 C1170 1.389 . S
C1169 H1148 0.950 . S
C1169 C1168 1.373 . S
C1169 C1185 1.377 . S
C1170 C1168 1.389 . S
C1170 C1171 1.524 . S
C1170 C1184 1.377 . S
C1171 C1170 1.524 . S
C1171 C1172 1.397 . S
C1171 C1176 1.363 . S
C1172 H1149 0.950 . S
C1172 C1171 1.397 . S
C1172 C1173 1.334 . S
C1173 H1150 0.950 . S
C1173 C1172 1.334 . S
C1173 C1174 1.287 . S
C1174 C1173 1.287 . S
C1174 C1175 1.524 . S
C1174 H1193 0.913 . S
C1175 H1151 0.950 . S
C1175 C1174 1.524 . S
C1175 C1176 1.415 . S
C1176 H1152 0.950 . S
C1176 C1171 1.363 . S
C1176 C1175 1.415 . S
C1177 H1153 0.951 . S
C1177 C1178 1.366 . S
C1177 C1179 1.388 . S
C1178 C1177 1.366 . S
C1178 C1182 1.385 . S
C1179 H1154 0.951 . S
C1179 C1177 1.388 . S
C1179 C1180 1.366 . S
C1180 C1179 1.366 . S
C1180 C1181 1.414 . S
C1180 C1183 1.499 . S
C1181 H1155 0.950 . S
C1181 C1180 1.414 . S
C1181 C1182 1.374 . S
C1182 H1156 0.950 . S
C1182 C1178 1.385 . S
C1182 C1181 1.374 . S
C1183 C1180 1.499 . S
C1183 C1184 1.373 . S
C1183 C1185 1.389 . S
C1184 H1157 0.950 . S
C1184 C1170 1.377 . S
C1184 C1183 1.373 . S
C1185 C1169 1.377 . S
C1185 C1183 1.389 . S
C1185 C1186 1.524 . S
C1186 C1185 1.524 . S
C1186 C1187 1.397 . S
C1186 C1191 1.363 . S
C1187 H1158 0.950 . S
C1187 C1186 1.397 . S
C1187 C1188 1.334 . S
C1188 H1159 0.950 . S
C1188 C1187 1.334 . S
C1188 C1189 1.287 . S
C1189 C1188 1.287 . S
C1189 C1190 1.524 . S
C1189 H1192 0.999 . S
C1190 H1160 0.950 . S
C1190 C1189 1.524 . S
C1190 C1191 1.415 . S
C1191 H1161 0.950 . S
C1191 C1186 1.363 . S
C1191 C1190 1.415 . S
H1192 C1189 0.999 . S
H1193 C1174 0.913 . S
H1194 C1212 0.951 . S
H1195 C1214 0.951 . S
H1196 C1216 0.950 . S
H1197 C1217 0.950 . S
H1198 C1219 0.950 . S
H1199 C1222 0.950 . S
H1200 C1223 0.950 . S
H1201 C1225 0.950 . S
H1202 C1226 0.950 . S
H1203 C1227 0.951 . S
H1204 C1229 0.951 . S
H1205 C1231 0.950 . S
H1206 C1232 0.950 . S
H1207 C1234 0.950 . S
H1208 C1237 0.950 . S
H1209 C1238 0.950 . S
H1210 C1240 0.950 . S
H1211 C1241 0.950 . S
C1212 H1194 0.951 . S
C1212 C1213 1.366 . S
C1212 C1214 1.388 . S
C1213 C1212 1.366 . S
C1213 C1217 1.385 . S
C1214 H1195 0.951 . S
C1214 C1212 1.388 . S
C1214 C1215 1.366 . S
C1215 C1214 1.366 . S
C1215 C1216 1.414 . S
C1215 C1218 1.499 . S
C1216 H1196 0.950 . S
C1216 C1215 1.414 . S
C1216 C1217 1.374 . S
C1217 H1197 0.950 . S
C1217 C1213 1.385 . S
C1217 C1216 1.374 . S
C1218 C1215 1.499 . S
C1218 C1219 1.373 . S
C1218 C1220 1.389 . S
C1219 H1198 0.950 . S
C1219 C1218 1.373 . S
C1219 C1235 1.377 . S
C1220 C1218 1.389 . S
C1220 C1221 1.524 . S
C1220 C1234 1.377 . S
C1221 C1220 1.524 . S
C1221 C1222 1.397 . S
C1221 C1226 1.363 . S
C1222 H1199 0.950 . S
C1222 C1221 1.397 . S
C1222 C1223 1.334 . S
C1223 H1200 0.950 . S
C1223 C1222 1.334 . S
C1223 C1224 1.287 . S
C1224 C1223 1.287 . S
C1224 C1225 1.524 . S
C1224 H1243 0.913 . S
C1225 H1201 0.950 . S
C1225 C1224 1.524 . S
C1225 C1226 1.415 . S
C1226 H1202 0.950 . S
C1226 C1221 1.363 . S
C1226 C1225 1.415 . S
C1227 H1203 0.951 . S
C1227 C1228 1.366 . S
C1227 C1229 1.388 . S
C1228 C1227 1.366 . S
C1228 C1232 1.385 . S
C1229 H1204 0.951 . S
C1229 C1227 1.388 . S
C1229 C1230 1.366 . S
C1230 C1229 1.366 . S
C1230 C1231 1.414 . S
C1230 C1233 1.499 . S
C1231 H1205 0.950 . S
C1231 C1230 1.414 . S
C1231 C1232 1.374 . S
C1232 H1206 0.950 . S
C1232 C1228 1.385 . S
C1232 C1231 1.374 . S
C1233 C1230 1.499 . S
C1233 C1234 1.373 . S
C1233 C1235 1.389 . S
C1234 H1207 0.950 . S
C1234 C1220 1.377 . S
C1234 C1233 1.373 . S
C1235 C1219 1.377 . S
C1235 C1233 1.389 . S
C1235 C1236 1.524 . S
C1236 C1235 1.524 . S
C1236 C1237 1.397 . S
C1236 C1241 1.363 . S
C1237 H1208 0.950 . S
C1237 C1236 1.397 . S
C1237 C1238 1.334 . S
C1238 H1209 0.950 . S
C1238 C1237 1.334 . S
C1238 C1239 1.287 . S
C1239 C1238 1.287 . S
C1239 C1240 1.524 . S
C1239 H1242 0.999 . S
C1240 H1210 0.950 . S
C1240 C1239 1.524 . S
C1240 C1241 1.415 . S
C1241 H1211 0.950 . S
C1241 C1236 1.363 . S
C1241 C1240 1.415 . S
H1242 C1239 0.999 . S
H1243 C1224 0.913 . S
H1244 C1262 0.951 . S
H1245 C1264 0.951 . S
H1246 C1266 0.950 . S
H1247 C1267 0.950 . S
H1248 C1269 0.950 . S
H1249 C1272 0.950 . S
H1250 C1273 0.950 . S
H1251 C1275 0.950 . S
H1252 C1276 0.950 . S
H1253 C1277 0.951 . S
H1254 C1279 0.951 . S
H1255 C1281 0.950 . S
H1256 C1282 0.950 . S
H1257 C1284 0.950 . S
H1258 C1287 0.950 . S
H1259 C1288 0.950 . S
H1260 C1290 0.950 . S
H1261 C1291 0.950 . S
C1262 H1244 0.951 . S
C1262 C1263 1.366 . S
C1262 C1264 1.388 . S
C1263 C1262 1.366 . S
C1263 C1267 1.385 . S
C1264 H1245 0.951 . S
C1264 C1262 1.388 . S
C1264 C1265 1.366 . S
C1265 C1264 1.366 . S
C1265 C1266 1.414 . S
C1265 C1268 1.499 . S
C1266 H1246 0.950 . S
C1266 C1265 1.414 . S
C1266 C1267 1.374 . S
C1267 H1247 0.950 . S
C1267 C1263 1.385 . S
C1267 C1266 1.374 . S
C1268 C1265 1.499 . S
C1268 C1269 1.373 . S
C1268 C1270 1.389 . S
C1269 H1248 0.950 . S
C1269 C1268 1.373 . S
C1269 C1285 1.377 . S
C1270 C1268 1.389 . S
C1270 C1271 1.524 . S
C1270 C1284 1.377 . S
C1271 C1270 1.524 . S
C1271 C1272 1.397 . S
C1271 C1276 1.363 . S
C1272 H1249 0.950 . S
C1272 C1271 1.397 . S
C1272 C1273 1.334 . S
C1273 H1250 0.950 . S
C1273 C1272 1.334 . S
C1273 C1274 1.287 . S
C1274 C1273 1.287 . S
C1274 C1275 1.524 . S
C1274 H1293 0.913 . S
C1275 H1251 0.950 . S
C1275 C1274 1.524 . S
C1275 C1276 1.415 . S
C1276 H1252 0.950 . S
C1276 C1271 1.363 . S
C1276 C1275 1.415 . S
C1277 H1253 0.951 . S
C1277 C1278 1.366 . S
C1277 C1279 1.388 . S
C1278 C1277 1.366 . S
C1278 C1282 1.385 . S
C1279 H1254 0.951 . S
C1279 C1277 1.388 . S
C1279 C1280 1.366 . S
C1280 C1279 1.366 . S
C1280 C1281 1.414 . S
C1280 C1283 1.499 . S
C1281 H1255 0.950 . S
C1281 C1280 1.414 . S
C1281 C1282 1.374 . S
C1282 H1256 0.950 . S
C1282 C1278 1.385 . S
C1282 C1281 1.374 . S
C1283 C1280 1.499 . S
C1283 C1284 1.373 . S
C1283 C1285 1.389 . S
C1284 H1257 0.950 . S
C1284 C1270 1.377 . S
C1284 C1283 1.373 . S
C1285 C1269 1.377 . S
C1285 C1283 1.389 . S
C1285 C1286 1.524 . S
C1286 C1285 1.524 . S
C1286 C1287 1.397 . S
C1286 C1291 1.363 . S
C1287 H1258 0.950 . S
C1287 C1286 1.397 . S
C1287 C1288 1.334 . S
C1288 H1259 0.950 . S
C1288 C1287 1.334 . S
C1288 C1289 1.287 . S
C1289 C1288 1.287 . S
C1289 C1290 1.524 . S
C1289 H1292 0.999 . S
C1290 H1260 0.950 . S
C1290 C1289 1.524 . S
C1290 C1291 1.415 . S
C1291 H1261 0.950 . S
C1291 C1286 1.363 . S
C1291 C1290 1.415 . S
H1292 C1289 0.999 . S
H1293 C1274 0.913 . S
H1294 C1312 0.951 . S
H1295 C1314 0.951 . S
H1296 C1316 0.950 . S
H1297 C1317 0.950 . S
H1298 C1319 0.950 . S
H1299 C1322 0.950 . S
H1300 C1323 0.950 . S
H1301 C1325 0.950 . S
H1302 C1326 0.950 . S
H1303 C1327 0.951 . S
H1304 C1329 0.951 . S
H1305 C1331 0.950 . S
H1306 C1332 0.950 . S
H1307 C1334 0.950 . S
H1308 C1337 0.950 . S
H1309 C1338 0.950 . S
H1310 C1340 0.950 . S
H1311 C1341 0.950 . S
C1312 H1294 0.951 . S
C1312 C1313 1.366 . S
C1312 C1314 1.388 . S
C1313 C1312 1.366 . S
C1313 C1317 1.385 . S
C1314 H1295 0.951 . S
C1314 C1312 1.388 . S
C1314 C1315 1.366 . S
C1315 C1314 1.366 . S
C1315 C1316 1.414 . S
C1315 C1318 1.499 . S
C1316 H1296 0.950 . S
C1316 C1315 1.414 . S
C1316 C1317 1.374 . S
C1317 H1297 0.950 . S
C1317 C1313 1.385 . S
C1317 C1316 1.374 . S
C1318 C1315 1.499 . S
C1318 C1319 1.373 . S
C1318 C1320 1.389 . S
C1319 H1298 0.950 . S
C1319 C1318 1.373 . S
C1319 C1335 1.377 . S
C1320 C1318 1.389 . S
C1320 C1321 1.524 . S
C1320 C1334 1.377 . S
C1321 C1320 1.524 . S
C1321 C1322 1.397 . S
C1321 C1326 1.363 . S
C1322 H1299 0.950 . S
C1322 C1321 1.397 . S
C1322 C1323 1.334 . S
C1323 H1300 0.950 . S
C1323 C1322 1.334 . S
C1323 C1324 1.287 . S
C1324 C1323 1.287 . S
C1324 C1325 1.524 . S
C1324 H1343 0.913 . S
C1325 H1301 0.950 . S
C1325 C1324 1.524 . S
C1325 C1326 1.415 . S
C1326 H1302 0.950 . S
C1326 C1321 1.363 . S
C1326 C1325 1.415 . S
C1327 H1303 0.951 . S
C1327 C1328 1.366 . S
C1327 C1329 1.388 . S
C1328 C1327 1.366 . S
C1328 C1332 1.385 . S
C1329 H1304 0.951 . S
C1329 C1327 1.388 . S
C1329 C1330 1.366 . S
C1330 C1329 1.366 . S
C1330 C1331 1.414 . S
C1330 C1333 1.499 . S
C1331 H1305 0.950 . S
C1331 C1330 1.414 . S
C1331 C1332 1.374 . S
C1332 H1306 0.950 . S
C1332 C1328 1.385 . S
C1332 C1331 1.374 . S
C1333 C1330 1.499 . S
C1333 C1334 1.373 . S
C1333 C1335 1.389 . S
C1334 H1307 0.950 . S
C1334 C1320 1.377 . S
C1334 C1333 1.373 . S
C1335 C1319 1.377 . S
C1335 C1333 1.389 . S
C1335 C1336 1.524 . S
C1336 C1335 1.524 . S
C1336 C1337 1.397 . S
C1336 C1341 1.363 . S
C1337 H1308 0.950 . S
C1337 C1336 1.397 . S
C1337 C1338 1.334 . S
C1338 H1309 0.950 . S
C1338 C1337 1.334 . S
C1338 C1339 1.287 . S
C1339 C1338 1.287 . S
C1339 C1340 1.524 . S
C1339 H1342 0.999 . S
C1340 H1310 0.950 . S
C1340 C1339 1.524 . S
C1340 C1341 1.415 . S
C1341 H1311 0.950 . S
C1341 C1336 1.363 . S
C1341 C1340 1.415 . S
H1342 C1339 0.999 . S
H1343 C1324 0.913 . S
H1344 C1362 0.951 . S
H1345 C1364 0.951 . S
H1346 C1366 0.950 . S
H1347 C1367 0.950 . S
H1348 C1369 0.950 . S
H1349 C1372 0.950 . S
H1350 C1373 0.950 . S
H1351 C1375 0.950 . S
H1352 C1376 0.950 . S
H1353 C1377 0.951 . S
H1354 C1379 0.951 . S
H1355 C1381 0.950 . S
H1356 C1382 0.950 . S
H1357 C1384 0.950 . S
H1358 C1387 0.950 . S
H1359 C1388 0.950 . S
H1360 C1390 0.950 . S
H1361 C1391 0.950 . S
C1362 H1344 0.951 . S
C1362 C1363 1.366 . S
C1362 C1364 1.388 . S
C1363 C1362 1.366 . S
C1363 C1367 1.385 . S
C1364 H1345 0.951 . S
C1364 C1362 1.388 . S
C1364 C1365 1.366 . S
C1365 C1364 1.366 . S
C1365 C1366 1.414 . S
C1365 C1368 1.499 . S
C1366 H1346 0.950 . S
C1366 C1365 1.414 . S
C1366 C1367 1.374 . S
C1367 H1347 0.950 . S
C1367 C1363 1.385 . S
C1367 C1366 1.374 . S
C1368 C1365 1.499 . S
C1368 C1369 1.373 . S
C1368 C1370 1.389 . S
C1369 H1348 0.950 . S
C1369 C1368 1.373 . S
C1369 C1385 1.377 . S
C1370 C1368 1.389 . S
C1370 C1371 1.524 . S
C1370 C1384 1.377 . S
C1371 C1370 1.524 . S
C1371 C1372 1.397 . S
C1371 C1376 1.363 . S
C1372 H1349 0.950 . S
C1372 C1371 1.397 . S
C1372 C1373 1.334 . S
C1373 H1350 0.950 . S
C1373 C1372 1.334 . S
C1373 C1374 1.287 . S
C1374 C1373 1.287 . S
C1374 C1375 1.524 . S
C1374 H1393 0.913 . S
C1375 H1351 0.950 . S
C1375 C1374 1.524 . S
C1375 C1376 1.415 . S
C1376 H1352 0.950 . S
C1376 C1371 1.363 . S
C1376 C1375 1.415 . S
C1377 H1353 0.951 . S
C1377 C1378 1.366 . S
C1377 C1379 1.388 . S
C1378 C1377 1.366 . S
C1378 C1382 1.385 . S
C1379 H1354 0.951 . S
C1379 C1377 1.388 . S
C1379 C1380 1.366 . S
C1380 C1379 1.366 . S
C1380 C1381 1.414 . S
C1380 C1383 1.499 . S
C1381 H1355 0.950 . S
C1381 C1380 1.414 . S
C1381 C1382 1.374 . S
C1382 H1356 0.950 . S
C1382 C1378 1.385 . S
C1382 C1381 1.374 . S
C1383 C1380 1.499 . S
C1383 C1384 1.373 . S
C1383 C1385 1.389 . S
C1384 H1357 0.950 . S
C1384 C1370 1.377 . S
C1384 C1383 1.373 . S
C1385 C1369 1.377 . S
C1385 C1383 1.389 . S
C1385 C1386 1.524 . S
C1386 C1385 1.524 . S
C1386 C1387 1.397 . S
C1386 C1391 1.363 . S
C1387 H1358 0.950 . S
C1387 C1386 1.397 . S
C1387 C1388 1.334 . S
C1388 H1359 0.950 . S
C1388 C1387 1.334 . S
C1388 C1389 1.287 . S
C1389 C1388 1.287 . S
C1389 C1390 1.524 . S
C1389 H1392 0.999 . S
C1390 H1360 0.950 . S
C1390 C1389 1.524 . S
C1390 C1391 1.415 . S
C1391 H1361 0.950 . S
C1391 C1386 1.363 . S
C1391 C1390 1.415 . S
H1392 C1389 0.999 . S
H1393 C1374 0.913 . S
H1394 C1412 0.951 . S
H1395 C1414 0.951 . S
H1396 C1416 0.950 . S
H1397 C1417 0.950 . S
H1398 C1419 0.950 . S
H1399 C1422 0.950 . S
H1400 C1423 0.950 . S
H1401 C1425 0.950 . S
H1402 C1426 0.950 . S
H1403 C1427 0.951 . S
H1404 C1429 0.951 . S
H1405 C1431 0.950 . S
H1406 C1432 0.950 . S
H1407 C1434 0.950 . S
H1408 C1437 0.950 . S
H1409 C1438 0.950 . S
H1410 C1440 0.950 . S
H1411 C1441 0.950 . S
C1412 H1394 0.951 . S
C1412 C1413 1.366 . S
C1412 C1414 1.388 . S
C1413 C1412 1.366 . S
C1413 C1417 1.385 . S
C1414 H1395 0.951 . S
C1414 C1412 1.388 . S
C1414 C1415 1.366 . S
C1415 C1414 1.366 . S
C1415 C1416 1.414 . S
C1415 C1418 1.499 . S
C1416 H1396 0.950 . S
C1416 C1415 1.414 . S
C1416 C1417 1.374 . S
C1417 H1397 0.950 . S
C1417 C1413 1.385 . S
C1417 C1416 1.374 . S
C1418 C1415 1.499 . S
C1418 C1419 1.373 . S
C1418 C1420 1.389 . S
C1419 H1398 0.950 . S
C1419 C1418 1.373 . S
C1419 C1435 1.377 . S
C1420 C1418 1.389 . S
C1420 C1421 1.524 . S
C1420 C1434 1.377 . S
C1421 C1420 1.524 . S
C1421 C1422 1.397 . S
C1421 C1426 1.363 . S
C1422 H1399 0.950 . S
C1422 C1421 1.397 . S
C1422 C1423 1.334 . S
C1423 H1400 0.950 . S
C1423 C1422 1.334 . S
C1423 C1424 1.287 . S
C1424 C1423 1.287 . S
C1424 C1425 1.524 . S
C1424 H1443 0.913 . S
C1425 H1401 0.950 . S
C1425 C1424 1.524 . S
C1425 C1426 1.415 . S
C1426 H1402 0.950 . S
C1426 C1421 1.363 . S
C1426 C1425 1.415 . S
C1427 H1403 0.951 . S
C1427 C1428 1.366 . S
C1427 C1429 1.388 . S
C1428 C1427 1.366 . S
C1428 C1432 1.385 . S
C1429 H1404 0.951 . S
C1429 C1427 1.388 . S
C1429 C1430 1.366 . S
C1430 C1429 1.366 . S
C1430 C1431 1.414 . S
C1430 C1433 1.499 . S
C1431 H1405 0.950 . S
C1431 C1430 1.414 . S
C1431 C1432 1.374 . S
C1432 H1406 0.950 . S
C1432 C1428 1.385 . S
C1432 C1431 1.374 . S
C1433 C1430 1.499 . S
C1433 C1434 1.373 . S
C1433 C1435 1.389 . S
C1434 H1407 0.950 . S
C1434 C1420 1.377 . S
C1434 C1433 1.373 . S
C1435 C1419 1.377 . S
C1435 C1433 1.389 . S
C1435 C1436 1.524 . S
C1436 C1435 1.524 . S
C1436 C1437 1.397 . S
C1436 C1441 1.363 . S
C1437 H1408 0.950 . S
C1437 C1436 1.397 . S
C1437 C1438 1.334 . S
C1438 H1409 0.950 . S
C1438 C1437 1.334 . S
C1438 C1439 1.287 . S
C1439 C1438 1.287 . S
C1439 C1440 1.524 . S
C1439 H1442 0.999 . S
C1440 H1410 0.950 . S
C1440 C1439 1.524 . S
C1440 C1441 1.415 . S
C1441 H1411 0.950 . S
C1441 C1436 1.363 . S
C1441 C1440 1.415 . S
H1442 C1439 0.999 . S
H1443 C1424 0.913 . S
H1444 C1462 0.951 . S
H1445 C1464 0.951 . S
H1446 C1466 0.950 . S
H1447 C1467 0.950 . S
H1448 C1469 0.950 . S
H1449 C1472 0.950 . S
H1450 C1473 0.950 . S
H1451 C1475 0.950 . S
H1452 C1476 0.950 . S
H1453 C1477 0.951 . S
H1454 C1479 0.951 . S
H1455 C1481 0.950 . S
H1456 C1482 0.950 . S
H1457 C1484 0.950 . S
H1458 C1487 0.950 . S
H1459 C1488 0.950 . S
H1460 C1490 0.950 . S
H1461 C1491 0.950 . S
C1462 H1444 0.951 . S
C1462 C1463 1.366 . S
C1462 C1464 1.388 . S
C1463 C1462 1.366 . S
C1463 C1467 1.385 . S
C1464 H1445 0.951 . S
C1464 C1462 1.388 . S
C1464 C1465 1.366 . S
C1465 C1464 1.366 . S
C1465 C1466 1.414 . S
C1465 C1468 1.499 . S
C1466 H1446 0.950 . S
C1466 C1465 1.414 . S
C1466 C1467 1.374 . S
C1467 H1447 0.950 . S
C1467 C1463 1.385 . S
C1467 C1466 1.374 . S
C1468 C1465 1.499 . S
C1468 C1469 1.373 . S
C1468 C1470 1.389 . S
C1469 H1448 0.950 . S
C1469 C1468 1.373 . S
C1469 C1485 1.377 . S
C1470 C1468 1.389 . S
C1470 C1471 1.524 . S
C1470 C1484 1.377 . S
C1471 C1470 1.524 . S
C1471 C1472 1.397 . S
C1471 C1476 1.363 . S
C1472 H1449 0.950 . S
C1472 C1471 1.397 . S
C1472 C1473 1.334 . S
C1473 H1450 0.950 . S
C1473 C1472 1.334 . S
C1473 C1474 1.287 . S
C1474 C1473 1.287 . S
C1474 C1475 1.524 . S
C1474 H1493 0.913 . S
C1475 H1451 0.950 . S
C1475 C1474 1.524 . S
C1475 C1476 1.415 . S
C1476 H1452 0.950 . S
C1476 C1471 1.363 . S
C1476 C1475 1.415 . S
C1477 H1453 0.951 . S
C1477 C1478 1.366 . S
C1477 C1479 1.388 . S
C1478 C1477 1.366 . S
C1478 C1482 1.385 . S
C1479 H1454 0.951 . S
C1479 C1477 1.388 . S
C1479 C1480 1.366 . S
C1480 C1479 1.366 . S
C1480 C1481 1.414 . S
C1480 C1483 1.499 . S
C1481 H1455 0.950 . S
C1481 C1480 1.414 . S
C1481 C1482 1.374 . S
C1482 H1456 0.950 . S
C1482 C1478 1.385 . S
C1482 C1481 1.374 . S
C1483 C1480 1.499 . S
C1483 C1484 1.373 . S
C1483 C1485 1.389 . S
C1484 H1457 0.950 . S
C1484 C1470 1.377 . S
C1484 C1483 1.373 . S
C1485 C1469 1.377 . S
C1485 C1483 1.389 . S
C1485 C1486 1.524 . S
C1486 C1485 1.524 . S
C1486 C1487 1.397 . S
C1486 C1491 1.363 . S
C1487 H1458 0.950 . S
C1487 C1486 1.397 . S
C1487 C1488 1.334 . S
C1488 H1459 0.950 . S
C1488 C1487 1.334 . S
C1488 C1489 1.287 . S
C1489 C1488 1.287 . S
C1489 C1490 1.524 . S
C1489 H1492 0.999 . S
C1490 H1460 0.950 . S
C1490 C1489 1.524 . S
C1490 C1491 1.415 . S
C1491 H1461 0.950 . S
C1491 C1486 1.363 . S
C1491 C1490 1.415 . S
H1492 C1489 0.999 . S
H1493 C1474 0.913 . S
H1494 C1512 0.951 . S
H1495 C1514 0.951 . S
H1496 C1516 0.950 . S
H1497 C1517 0.950 . S
H1498 C1519 0.950 . S
H1499 C1522 0.950 . S
H1500 C1523 0.950 . S
H1501 C1525 0.950 . S
H1502 C1526 0.950 . S
H1503 C1527 0.951 . S
H1504 C1529 0.951 . S
H1505 C1531 0.950 . S
H1506 C1532 0.950 . S
H1507 C1534 0.950 . S
H1508 C1537 0.950 . S
H1509 C1538 0.950 . S
H1510 C1540 0.950 . S
H1511 C1541 0.950 . S
C1512 H1494 0.951 . S
C1512 C1513 1.366 . S
C1512 C1514 1.388 . S
C1513 C1512 1.366 . S
C1513 C1517 1.385 . S
C1514 H1495 0.951 . S
C1514 C1512 1.388 . S
C1514 C1515 1.366 . S
C1515 C1514 1.366 . S
C1515 C1516 1.414 . S
C1515 C1518 1.499 . S
C1516 H1496 0.950 . S
C1516 C1515 1.414 . S
C1516 C1517 1.374 . S
C1517 H1497 0.950 . S
C1517 C1513 1.385 . S
C1517 C1516 1.374 . S
C1518 C1515 1.499 . S
C1518 C1519 1.373 . S
C1518 C1520 1.389 . S
C1519 H1498 0.950 . S
C1519 C1518 1.373 . S
C1519 C1535 1.377 . S
C1520 C1518 1.389 . S
C1520 C1521 1.524 . S
C1520 C1534 1.377 . S
C1521 C1520 1.524 . S
C1521 C1522 1.397 . S
C1521 C1526 1.363 . S
C1522 H1499 0.950 . S
C1522 C1521 1.397 . S
C1522 C1523 1.334 . S
C1523 H1500 0.950 . S
C1523 C1522 1.334 . S
C1523 C1524 1.287 . S
C1524 C1523 1.287 . S
C1524 C1525 1.524 . S
C1524 H1543 0.913 . S
C1525 H1501 0.950 . S
C1525 C1524 1.524 . S
C1525 C1526 1.415 . S
C1526 H1502 0.950 . S
C1526 C1521 1.363 . S
C1526 C1525 1.415 . S
C1527 H1503 0.951 . S
C1527 C1528 1.366 . S
C1527 C1529 1.388 . S
C1528 C1527 1.366 . S
C1528 C1532 1.385 . S
C1529 H1504 0.951 . S
C1529 C1527 1.388 . S
C1529 C1530 1.366 . S
C1530 C1529 1.366 . S
C1530 C1531 1.414 . S
C1530 C1533 1.499 . S
C1531 H1505 0.950 . S
C1531 C1530 1.414 . S
C1531 C1532 1.374 . S
C1532 H1506 0.950 . S
C1532 C1528 1.385 . S
C1532 C1531 1.374 . S
C1533 C1530 1.499 . S
C1533 C1534 1.373 . S
C1533 C1535 1.389 . S
C1534 H1507 0.950 . S
C1534 C1520 1.377 . S
C1534 C1533 1.373 . S
C1535 C1519 1.377 . S
C1535 C1533 1.389 . S
C1535 C1536 1.524 . S
C1536 C1535 1.524 . S
C1536 C1537 1.397 . S
C1536 C1541 1.363 . S
C1537 H1508 0.950 . S
C1537 C1536 1.397 . S
C1537 C1538 1.334 . S
C1538 H1509 0.950 . S
C1538 C1537 1.334 . S
C1538 C1539 1.287 . S
C1539 C1538 1.287 . S
C1539 C1540 1.524 . S
C1539 H1542 0.999 . S
C1540 H1510 0.950 . S
C1540 C1539 1.524 . S
C1540 C1541 1.415 . S
C1541 H1511 0.950 . S
C1541 C1536 1.363 . S
C1541 C1540 1.415 . S
H1542 C1539 0.999 . S
H1543 C1524 0.913 . S
H1544 C1562 0.951 . S
H1545 C1564 0.951 . S
H1546 C1566 0.950 . S
H1547 C1567 0.950 . S
H1548 C1569 0.950 . S
H1549 C1572 0.950 . S
H1550 C1573 0.950 . S
H1551 C1575 0.950 . S
H1552 C1576 0.950 . S
H1553 C1577 0.951 . S
H1554 C1579 0.951 . S
H1555 C1581 0.950 . S
H1556 C1582 0.950 . S
H1557 C1584 0.950 . S
H1558 C1587 0.950 . S
H1559 C1588 0.950 . S
H1560 C1590 0.950 . S
H1561 C1591 0.950 . S
C1562 H1544 0.951 . S
C1562 C1563 1.366 . S
C1562 C1564 1.388 . S
C1563 C1562 1.366 . S
C1563 C1567 1.385 . S
C1564 H1545 0.951 . S
C1564 C1562 1.388 . S
C1564 C1565 1.366 . S
C1565 C1564 1.366 . S
C1565 C1566 1.414 . S
C1565 C1568 1.499 . S
C1566 H1546 0.950 . S
C1566 C1565 1.414 . S
C1566 C1567 1.374 . S
C1567 H1547 0.950 . S
C1567 C1563 1.385 . S
C1567 C1566 1.374 . S
C1568 C1565 1.499 . S
C1568 C1569 1.373 . S
C1568 C1570 1.389 . S
C1569 H1548 0.950 . S
C1569 C1568 1.373 . S
C1569 C1585 1.377 . S
C1570 C1568 1.389 . S
C1570 C1571 1.524 . S
C1570 C1584 1.377 . S
C1571 C1570 1.524 . S
C1571 C1572 1.397 . S
C1571 C1576 1.363 . S
C1572 H1549 0.950 . S
C1572 C1571 1.397 . S
C1572 C1573 1.334 . S
C1573 H1550 0.950 . S
C1573 C1572 1.334 . S
C1573 C1574 1.287 . S
C1574 C1573 1.287 . S
C1574 C1575 1.524 . S
C1574 H1593 0.913 . S
C1575 H1551 0.950 . S
C1575 C1574 1.524 . S
C1575 C1576 1.415 . S
C1576 H1552 0.950 . S
C1576 C1571 1.363 . S
C1576 C1575 1.415 . S
C1577 H1553 0.951 . S
C1577 C1578 1.366 . S
C1577 C1579 1.388 . S
C1578 C1577 1.366 . S
C1578 C1582 1.385 . S
C1579 H1554 0.951 . S
C1579 C1577 1.388 . S
C1579 C1580 1.366 . S
C1580 C1579 1.366 . S
C1580 C1581 1.414 . S
C1580 C1583 1.499 . S
C1581 H1555 0.950 . S
C1581 C1580 1.414 . S
C1581 C1582 1.374 . S
C1582 H1556 0.950 . S
C1582 C1578 1.385 . S
C1582 C1581 1.374 . S
C1583 C1580 1.499 . S
C1583 C1584 1.373 . S
C1583 C1585 1.389 . S
C1584 H1557 0.950 . S
C1584 C1570 1.377 . S
C1584 C1583 1.373 . S
C1585 C1569 1.377 . S
C1585 C1583 1.389 . S
C1585 C1586 1.524 . S
C1586 C1585 1.524 . S
C1586 C1587 1.397 . S
C1586 C1591 1.363 . S
C1587 H1558 0.950 . S
C1587 C1586 1.397 . S
C1587 C1588 1.334 . S
C1588 H1559 0.950 . S
C1588 C1587 1.334 . S
C1588 C1589 1.287 . S
C1589 C1588 1.287 . S
C1589 C1590 1.524 . S
C1589 H1592 0.999 . S
C1590 H1560 0.950 . S
C1590 C1589 1.524 . S
C1590 C1591 1.415 . S
C1591 H1561 0.950 . S
C1591 C1586 1.363 . S
C1591 C1590 1.415 . S
H1592 C1589 0.999 . S
H1593 C1574 0.913 . S
H1594 C1612 0.951 . S
H1595 C1614 0.951 . S
H1596 C1616 0.950 . S
H1597 C1617 0.950 . S
H1598 C1619 0.950 . S
H1599 C1622 0.950 . S
H1600 C1623 0.950 . S
H1601 C1625 0.950 . S
H1602 C1626 0.950 . S
H1603 C1627 0.951 . S
H1604 C1629 0.951 . S
H1605 C1631 0.950 . S
H1606 C1632 0.950 . S
H1607 C1634 0.950 . S
H1608 C1637 0.950 . S
H1609 C1638 0.950 . S
H1610 C1640 0.950 . S
H1611 C1641 0.950 . S
C1612 H1594 0.951 . S
C1612 C1613 1.366 . S
C1612 C1614 1.388 . S
C1613 C1612 1.366 . S
C1613 C1617 1.385 . S
C1614 H1595 0.951 . S
C1614 C1612 1.388 . S
C1614 C1615 1.366 . S
C1615 C1614 1.366 . S
C1615 C1616 1.414 . S
C1615 C1618 1.499 . S
C1616 H1596 0.950 . S
C1616 C1615 1.414 . S
C1616 C1617 1.374 . S
C1617 H1597 0.950 . S
C1617 C1613 1.385 . S
C1617 C1616 1.374 . S
C1618 C1615 1.499 . S
C1618 C1619 1.373 . S
C1618 C1620 1.389 . S
C1619 H1598 0.950 . S
C1619 C1618 1.373 . S
C1619 C1635 1.377 . S
C1620 C1618 1.389 . S
C1620 C1621 1.524 . S
C1620 C1634 1.377 . S
C1621 C1620 1.524 . S
C1621 C1622 1.397 . S
C1621 C1626 1.363 . S
C1622 H1599 0.950 . S
C1622 C1621 1.397 . S
C1622 C1623 1.334 . S
C1623 H1600 0.950 . S
C1623 C1622 1.334 . S
C1623 C1624 1.287 . S
C1624 C1623 1.287 . S
C1624 C1625 1.524 . S
C1624 H1643 0.913 . S
C1625 H1601 0.950 . S
C1625 C1624 1.524 . S
C1625 C1626 1.415 . S
C1626 H1602 0.950 . S
C1626 C1621 1.363 . S
C1626 C1625 1.415 . S
C1627 H1603 0.951 . S
C1627 C1628 1.366 . S
C1627 C1629 1.388 . S
C1628 C1627 1.366 . S
C1628 C1632 1.385 . S
C1629 H1604 0.951 . S
C1629 C1627 1.388 . S
C1629 C1630 1.366 . S
C1630 C1629 1.366 . S
C1630 C1631 1.414 . S
C1630 C1633 1.499 . S
C1631 H1605 0.950 . S
C1631 C1630 1.414 . S
C1631 C1632 1.374 . S
C1632 H1606 0.950 . S
C1632 C1628 1.385 . S
C1632 C1631 1.374 . S
C1633 C1630 1.499 . S
C1633 C1634 1.373 . S
C1633 C1635 1.389 . S
C1634 H1607 0.950 . S
C1634 C1620 1.377 . S
C1634 C1633 1.373 . S
C1635 C1619 1.377 . S
C1635 C1633 1.389 . S
C1635 C1636 1.524 . S
C1636 C1635 1.524 . S
C1636 C1637 1.397 . S
C1636 C1641 1.363 . S
C1637 H1608 0.950 . S
C1637 C1636 1.397 . S
C1637 C1638 1.334 . S
C1638 H1609 0.950 . S
C1638 C1637 1.334 . S
C1638 C1639 1.287 . S
C1639 C1638 1.287 . S
C1639 C1640 1.524 . S
C1639 H1642 0.999 . S
C1640 H1610 0.950 . S
C1640 C1639 1.524 . S
C1640 C1641 1.415 . S
C1641 H1611 0.950 . S
C1641 C1636 1.363 . S
C1641 C1640 1.415 . S
H1642 C1639 0.999 . S
H1643 C1624 0.913 . S
H1644 C1662 0.951 . S
H1645 C1664 0.951 . S
H1646 C1666 0.950 . S
H1647 C1667 0.950 . S
H1648 C1669 0.950 . S
H1649 C1672 0.950 . S
H1650 C1673 0.950 . S
H1651 C1675 0.950 . S
H1652 C1676 0.950 . S
H1653 C1677 0.951 . S
H1654 C1679 0.951 . S
H1655 C1681 0.950 . S
H1656 C1682 0.950 . S
H1657 C1684 0.950 . S
H1658 C1687 0.950 . S
H1659 C1688 0.950 . S
H1660 C1690 0.950 . S
H1661 C1691 0.950 . S
C1662 H1644 0.951 . S
C1662 C1663 1.366 . S
C1662 C1664 1.388 . S
C1663 C1662 1.366 . S
C1663 C1667 1.385 . S
C1664 H1645 0.951 . S
C1664 C1662 1.388 . S
C1664 C1665 1.366 . S
C1665 C1664 1.366 . S
C1665 C1666 1.414 . S
C1665 C1668 1.499 . S
C1666 H1646 0.950 . S
C1666 C1665 1.414 . S
C1666 C1667 1.374 . S
C1667 H1647 0.950 . S
C1667 C1663 1.385 . S
C1667 C1666 1.374 . S
C1668 C1665 1.499 . S
C1668 C1669 1.373 . S
C1668 C1670 1.389 . S
C1669 H1648 0.950 . S
C1669 C1668 1.373 . S
C1669 C1685 1.377 . S
C1670 C1668 1.389 . S
C1670 C1671 1.524 . S
C1670 C1684 1.377 . S
C1671 C1670 1.524 . S
C1671 C1672 1.397 . S
C1671 C1676 1.363 . S
C1672 H1649 0.950 . S
C1672 C1671 1.397 . S
C1672 C1673 1.334 . S
C1673 H1650 0.950 . S
C1673 C1672 1.334 . S
C1673 C1674 1.287 . S
C1674 C1673 1.287 . S
C1674 C1675 1.524 . S
C1674 H1693 0.913 . S
C1675 H1651 0.950 . S
C1675 C1674 1.524 . S
C1675 C1676 1.415 . S
C1676 H1652 0.950 . S
C1676 C1671 1.363 . S
C1676 C1675 1.415 . S
C1677 H1653 0.951 . S
C1677 C1678 1.366 . S
C1677 C1679 1.388 . S
C1678 C1677 1.366 . S
C1678 C1682 1.385 . S
C1679 H1654 0.951 . S
C1679 C1677 1.388 . S
C1679 C1680 1.366 . S
C1680 C1679 1.366 . S
C1680 C1681 1.414 . S
C1680 C1683 1.499 . S
C1681 H1655 0.950 . S
C1681 C1680 1.414 . S
C1681 C1682 1.374 . S
C1682 H1656 0.950 . S
C1682 C1678 1.385 . S
C1682 C1681 1.374 . S
C1683 C1680 1.499 . S
C1683 C1684 1.373 . S
C1683 C1685 1.389 . S
C1684 H1657 0.950 . S
C1684 C1670 1.377 . S
C1684 C1683 1.373 . S
C1685 C1669 1.377 . S
C1685 C1683 1.389 . S
C1685 C1686 1.524 . S
C1686 C1685 1.524 . S
C1686 C1687 1.397 . S
C1686 C1691 1.363 . S
C1687 H1658 0.950 . S
C1687 C1686 1.397 . S
C1687 C1688 1.334 . S
C1688 H1659 0.950 . S
C1688 C1687 1.334 . S
C1688 C1689 1.287 . S
C1689 C1688 1.287 . S
C1689 C1690 1.524 . S
C1689 H1692 0.999 . S
C1690 H1660 0.950 . S
C1690 C1689 1.524 . S
C1690 C1691 1.415 . S
C1691 H1661 0.950 . S
C1691 C1686 1.363 . S
C1691 C1690 1.415 . S
H1692 C1689 0.999 . S
H1693 C1674 0.913 . S
H1694 C1712 0.951 . S
H1695 C1714 0.951 . S
H1696 C1716 0.950 . S
H1697 C1717 0.950 . S
H1698 C1719 0.950 . S
H1699 C1722 0.950 . S
H1700 C1723 0.950 . S
H1701 C1725 0.950 . S
H1702 C1726 0.950 . S
H1703 C1727 0.951 . S
H1704 C1729 0.951 . S
H1705 C1731 0.950 . S
H1706 C1732 0.950 . S
H1707 C1734 0.950 . S
H1708 C1737 0.950 . S
H1709 C1738 0.950 . S
H1710 C1740 0.950 . S
H1711 C1741 0.950 . S
C1712 H1694 0.951 . S
C1712 C1713 1.366 . S
C1712 C1714 1.388 . S
C1713 C1712 1.366 . S
C1713 C1717 1.385 . S
C1714 H1695 0.951 . S
C1714 C1712 1.388 . S
C1714 C1715 1.366 . S
C1715 C1714 1.366 . S
C1715 C1716 1.414 . S
C1715 C1718 1.499 . S
C1716 H1696 0.950 . S
C1716 C1715 1.414 . S
C1716 C1717 1.374 . S
C1717 H1697 0.950 . S
C1717 C1713 1.385 . S
C1717 C1716 1.374 . S
C1718 C1715 1.499 . S
C1718 C1719 1.373 . S
C1718 C1720 1.389 . S
C1719 H1698 0.950 . S
C1719 C1718 1.373 . S
C1719 C1735 1.377 . S
C1720 C1718 1.389 . S
C1720 C1721 1.524 . S
C1720 C1734 1.377 . S
C1721 C1720 1.524 . S
C1721 C1722 1.397 . S
C1721 C1726 1.363 . S
C1722 H1699 0.950 . S
C1722 C1721 1.397 . S
C1722 C1723 1.334 . S
C1723 H1700 0.950 . S
C1723 C1722 1.334 . S
C1723 C1724 1.287 . S
C1724 C1723 1.287 . S
C1724 C1725 1.524 . S
C1724 H1743 0.913 . S
C1725 H1701 0.950 . S
C1725 C1724 1.524 . S
C1725 C1726 1.415 . S
C1726 H1702 0.950 . S
C1726 C1721 1.363 . S
C1726 C1725 1.415 . S
C1727 H1703 0.951 . S
C1727 C1728 1.366 . S
C1727 C1729 1.388 . S
C1728 C1727 1.366 . S
C1728 C1732 1.385 . S
C1729 H1704 0.951 . S
C1729 C1727 1.388 . S
C1729 C1730 1.366 . S
C1730 C1729 1.366 . S
C1730 C1731 1.414 . S
C1730 C1733 1.499 . S
C1731 H1705 0.950 . S
C1731 C1730 1.414 . S
C1731 C1732 1.374 . S
C1732 H1706 0.950 . S
C1732 C1728 1.385 . S
C1732 C1731 1.374 . S
C1733 C1730 1.499 . S
C1733 C1734 1.373 . S
C1733 C1735 1.389 . S
C1734 H1707 0.950 . S
C1734 C1720 1.377 . S
C1734 C1733 1.373 . S
C1735 C1719 1.377 . S
C1735 C1733 1.389 . S
C1735 C1736 1.524 . S
C1736 C1735 1.524 . S
C1736 C1737 1.397 . S
C1736 C1741 1.363 . S
C1737 H1708 0.950 . S
C1737 C1736 1.397 . S
C1737 C1738 1.334 . S
C1738 H1709 0.950 . S
C1738 C1737 1.334 . S
C1738 C1739 1.287 . S
C1739 C1738 1.287 . S
C1739 C1740 1.524 . S
C1739 H1742 0.999 . S
C1740 H1710 0.950 . S
C1740 C1739 1.524 . S
C1740 C1741 1.415 . S
C1741 H1711 0.950 . S
C1741 C1736 1.363 . S
C1741 C1740 1.415 . S
H1742 C1739 0.999 . S
H1743 C1724 0.913 . S
H1744 C1762 0.951 1_565 S
H1745 C1764 0.951 1_565 S
H1746 C1766 0.950 . S
H1747 C1767 0.950 . S
H1748 C1769 0.950 . S
H1749 C1772 0.950 . S
H1750 C1773 0.950 . S
H1751 C1775 0.950 . S
H1752 C1776 0.950 . S
H1753 C1777 0.951 . S
H1754 C1779 0.951 . S
H1755 C1781 0.950 1_565 S
H1756 C1782 0.950 . S
H1757 C1784 0.950 . S
H1758 C1787 0.950 . S
H1759 C1788 0.950 . S
H1760 C1790 0.950 . S
H1761 C1791 0.950 . S
C1762 H1744 0.951 1_545 S
C1762 C1763 1.366 . S
C1762 C1764 1.388 . S
C1763 C1762 1.366 . S
C1763 C1767 1.385 . S
C1764 H1745 0.951 1_545 S
C1764 C1762 1.388 . S
C1764 C1765 1.366 . S
C1765 C1764 1.366 . S
C1765 C1766 1.414 . S
C1765 C1768 1.499 . S
C1766 H1746 0.950 . S
C1766 C1765 1.414 . S
C1766 C1767 1.374 . S
C1767 H1747 0.950 . S
C1767 C1763 1.385 . S
C1767 C1766 1.374 . S
C1768 C1765 1.499 . S
C1768 C1769 1.373 . S
C1768 C1770 1.389 . S
C1769 H1748 0.950 . S
C1769 C1768 1.373 . S
C1769 C1785 1.377 1_655 S
C1770 C1768 1.389 . S
C1770 C1771 1.524 . S
C1770 C1784 1.377 1_655 S
C1771 C1770 1.524 . S
C1771 C1772 1.397 . S
C1771 C1776 1.363 1_545 S
C1772 H1749 0.950 . S
C1772 C1771 1.397 . S
C1772 C1773 1.334 . S
C1773 H1750 0.950 . S
C1773 C1772 1.334 . S
C1773 C1774 1.287 1_545 S
C1774 C1773 1.287 1_565 S
C1774 C1775 1.524 . S
C1774 H1793 0.913 . S
C1775 H1751 0.950 . S
C1775 C1774 1.524 . S
C1775 C1776 1.415 . S
C1776 H1752 0.950 . S
C1776 C1771 1.363 1_565 S
C1776 C1775 1.415 . S
C1777 H1753 0.951 . S
C1777 C1778 1.366 . S
C1777 C1779 1.388 . S
C1778 C1777 1.366 . S
C1778 C1782 1.385 . S
C1779 H1754 0.951 . S
C1779 C1777 1.388 . S
C1779 C1780 1.366 . S
C1780 C1779 1.366 . S
C1780 C1781 1.414 . S
C1780 C1783 1.499 . S
C1781 H1755 0.950 1_545 S
C1781 C1780 1.414 . S
C1781 C1782 1.374 . S
C1782 H1756 0.950 . S
C1782 C1778 1.385 . S
C1782 C1781 1.374 . S
C1783 C1780 1.499 . S
C1783 C1784 1.373 . S
C1783 C1785 1.389 . S
C1784 H1757 0.950 . S
C1784 C1770 1.377 1_455 S
C1784 C1783 1.373 . S
C1785 C1769 1.377 1_455 S
C1785 C1783 1.389 . S
C1785 C1786 1.524 . S
C1786 C1785 1.524 . S
C1786 C1787 1.397 . S
C1786 C1791 1.363 . S
C1787 H1758 0.950 . S
C1787 C1786 1.397 . S
C1787 C1788 1.334 . S
C1788 H1759 0.950 . S
C1788 C1787 1.334 . S
C1788 C1789 1.287 . S
C1789 C1788 1.287 . S
C1789 C1790 1.524 . S
C1789 H1792 0.999 . S
C1790 H1760 0.950 . S
C1790 C1789 1.524 . S
C1790 C1791 1.415 . S
C1791 H1761 0.950 . S
C1791 C1786 1.363 . S
C1791 C1790 1.415 . S
H1792 C1789 0.999 . S
H1793 C1774 0.913 . S
H1794 C1812 0.951 . S
H1795 C1814 0.951 . S
H1796 C1816 0.950 . S
H1797 C1817 0.950 . S
H1798 C1819 0.950 . S
H1799 C1822 0.950 . S
H1800 C1823 0.950 . S
H1801 C1825 0.950 . S
H1802 C1826 0.950 1_545 S
H1803 C1827 0.951 . S
H1804 C1829 0.951 . S
H1805 C1831 0.950 . S
H1806 C1832 0.950 . S
H1807 C1834 0.950 . S
H1808 C1837 0.950 . S
H1809 C1838 0.950 . S
H1810 C1840 0.950 . S
H1811 C1841 0.950 . S
C1812 H1794 0.951 . S
C1812 C1813 1.366 . S
C1812 C1814 1.388 . S
C1813 C1812 1.366 . S
C1813 C1817 1.385 . S
C1814 H1795 0.951 . S
C1814 C1812 1.388 . S
C1814 C1815 1.366 . S
C1815 C1814 1.366 . S
C1815 C1816 1.414 . S
C1815 C1818 1.499 . S
C1816 H1796 0.950 . S
C1816 C1815 1.414 . S
C1816 C1817 1.374 . S
C1817 H1797 0.950 . S
C1817 C1813 1.385 . S
C1817 C1816 1.374 . S
C1818 C1815 1.499 . S
C1818 C1819 1.373 . S
C1818 C1820 1.389 . S
C1819 H1798 0.950 . S
C1819 C1818 1.373 . S
C1819 C1835 1.377 1_455 S
C1820 C1818 1.389 . S
C1820 C1821 1.524 1_545 S
C1820 C1834 1.377 1_455 S
C1821 C1820 1.524 1_565 S
C1821 C1822 1.397 . S
C1821 C1826 1.363 . S
C1822 H1799 0.950 . S
C1822 C1821 1.397 . S
C1822 C1823 1.334 . S
C1823 H1800 0.950 . S
C1823 C1822 1.334 . S
C1823 C1824 1.287 . S
C1824 C1823 1.287 . S
C1824 C1825 1.524 . S
C1824 H1843 0.913 . S
C1825 H1801 0.950 . S
C1825 C1824 1.524 . S
C1825 C1826 1.415 . S
C1826 H1802 0.950 1_565 S
C1826 C1821 1.363 . S
C1826 C1825 1.415 . S
C1827 H1803 0.951 . S
C1827 C1828 1.366 . S
C1827 C1829 1.388 . S
C1828 C1827 1.366 . S
C1828 C1832 1.385 . S
C1829 H1804 0.951 . S
C1829 C1827 1.388 . S
C1829 C1830 1.366 . S
C1830 C1829 1.366 . S
C1830 C1831 1.414 . S
C1830 C1833 1.499 . S
C1831 H1805 0.950 . S
C1831 C1830 1.414 . S
C1831 C1832 1.374 . S
C1832 H1806 0.950 . S
C1832 C1828 1.385 . S
C1832 C1831 1.374 . S
C1833 C1830 1.499 . S
C1833 C1834 1.373 . S
C1833 C1835 1.389 . S
C1834 H1807 0.950 . S
C1834 C1820 1.377 1_655 S
C1834 C1833 1.373 . S
C1835 C1819 1.377 1_655 S
C1835 C1833 1.389 . S
C1835 C1836 1.524 . S
C1836 C1835 1.524 . S
C1836 C1837 1.397 . S
C1836 C1841 1.363 . S
C1837 H1808 0.950 . S
C1837 C1836 1.397 . S
C1837 C1838 1.334 . S
C1838 H1809 0.950 . S
C1838 C1837 1.334 . S
C1838 C1839 1.287 . S
C1839 C1838 1.287 . S
C1839 C1840 1.524 . S
C1839 H1842 0.999 . S
C1840 H1810 0.950 . S
C1840 C1839 1.524 . S
C1840 C1841 1.415 . S
C1841 H1811 0.950 . S
C1841 C1836 1.363 . S
C1841 C1840 1.415 . S
H1842 C1839 0.999 . S
H1843 C1824 0.913 . S
H1844 C1862 0.951 . S
H1845 C1864 0.951 . S
H1846 C1866 0.950 . S
H1847 C1867 0.950 . S
H1848 C1869 0.950 . S
H1849 C1872 0.950 . S
H1850 C1873 0.950 . S
H1851 C1875 0.950 . S
H1852 C1876 0.950 . S
H1853 C1877 0.951 . S
H1854 C1879 0.951 . S
H1855 C1881 0.950 . S
H1856 C1882 0.950 . S
H1857 C1884 0.950 . S
H1858 C1887 0.950 . S
H1859 C1888 0.950 . S
H1860 C1890 0.950 . S
H1861 C1891 0.950 . S
C1862 H1844 0.951 . S
C1862 C1863 1.366 . S
C1862 C1864 1.388 . S
C1863 C1862 1.366 . S
C1863 C1867 1.385 . S
C1864 H1845 0.951 . S
C1864 C1862 1.388 . S
C1864 C1865 1.366 . S
C1865 C1864 1.366 . S
C1865 C1866 1.414 . S
C1865 C1868 1.499 . S
C1866 H1846 0.950 . S
C1866 C1865 1.414 . S
C1866 C1867 1.374 . S
C1867 H1847 0.950 . S
C1867 C1863 1.385 . S
C1867 C1866 1.374 . S
C1868 C1865 1.499 . S
C1868 C1869 1.373 . S
C1868 C1870 1.389 . S
C1869 H1848 0.950 . S
C1869 C1868 1.373 . S
C1869 C1885 1.377 1_655 S
C1870 C1868 1.389 . S
C1870 C1871 1.524 . S
C1870 C1884 1.377 1_655 S
C1871 C1870 1.524 . S
C1871 C1872 1.397 . S
C1871 C1876 1.363 . S
C1872 H1849 0.950 . S
C1872 C1871 1.397 . S
C1872 C1873 1.334 . S
C1873 H1850 0.950 . S
C1873 C1872 1.334 . S
C1873 C1874 1.287 . S
C1874 C1873 1.287 . S
C1874 C1875 1.524 . S
C1874 H1893 0.913 . S
C1875 H1851 0.950 . S
C1875 C1874 1.524 . S
C1875 C1876 1.415 . S
C1876 H1852 0.950 . S
C1876 C1871 1.363 . S
C1876 C1875 1.415 . S
C1877 H1853 0.951 . S
C1877 C1878 1.366 . S
C1877 C1879 1.388 . S
C1878 C1877 1.366 . S
C1878 C1882 1.385 . S
C1879 H1854 0.951 . S
C1879 C1877 1.388 . S
C1879 C1880 1.366 . S
C1880 C1879 1.366 . S
C1880 C1881 1.414 . S
C1880 C1883 1.499 . S
C1881 H1855 0.950 . S
C1881 C1880 1.414 . S
C1881 C1882 1.374 . S
C1882 H1856 0.950 . S
C1882 C1878 1.385 . S
C1882 C1881 1.374 . S
C1883 C1880 1.499 . S
C1883 C1884 1.373 . S
C1883 C1885 1.389 . S
C1884 H1857 0.950 . S
C1884 C1870 1.377 1_455 S
C1884 C1883 1.373 . S
C1885 C1869 1.377 1_455 S
C1885 C1883 1.389 . S
C1885 C1886 1.524 . S
C1886 C1885 1.524 . S
C1886 C1887 1.397 . S
C1886 C1891 1.363 . S
C1887 H1858 0.950 . S
C1887 C1886 1.397 . S
C1887 C1888 1.334 . S
C1888 H1859 0.950 . S
C1888 C1887 1.334 . S
C1888 C1889 1.287 . S
C1889 C1888 1.287 . S
C1889 C1890 1.524 . S
C1889 H1892 0.999 . S
C1890 H1860 0.950 . S
C1890 C1889 1.524 . S
C1890 C1891 1.415 . S
C1891 H1861 0.950 . S
C1891 C1886 1.363 . S
C1891 C1890 1.415 . S
H1892 C1889 0.999 . S
H1893 C1874 0.913 . S
H1894 C1912 0.951 . S
H1895 C1914 0.951 . S
H1896 C1916 0.950 . S
H1897 C1917 0.950 . S
H1898 C1919 0.950 . S
H1899 C1922 0.950 . S
H1900 C1923 0.950 . S
H1901 C1925 0.950 . S
H1902 C1926 0.950 . S
H1903 C1927 0.951 . S
H1904 C1929 0.951 . S
H1905 C1931 0.950 . S
H1906 C1932 0.950 . S
H1907 C1934 0.950 . S
H1908 C1937 0.950 . S
H1909 C1938 0.950 . S
H1910 C1940 0.950 . S
H1911 C1941 0.950 . S
C1912 H1894 0.951 . S
C1912 C1913 1.366 . S
C1912 C1914 1.388 . S
C1913 C1912 1.366 . S
C1913 C1917 1.385 . S
C1914 H1895 0.951 . S
C1914 C1912 1.388 . S
C1914 C1915 1.366 . S
C1915 C1914 1.366 . S
C1915 C1916 1.414 . S
C1915 C1918 1.499 . S
C1916 H1896 0.950 . S
C1916 C1915 1.414 . S
C1916 C1917 1.374 . S
C1917 H1897 0.950 . S
C1917 C1913 1.385 . S
C1917 C1916 1.374 . S
C1918 C1915 1.499 . S
C1918 C1919 1.373 . S
C1918 C1920 1.389 . S
C1919 H1898 0.950 . S
C1919 C1918 1.373 . S
C1919 C1935 1.377 1_655 S
C1920 C1918 1.389 . S
C1920 C1921 1.524 . S
C1920 C1934 1.377 1_655 S
C1921 C1920 1.524 . S
C1921 C1922 1.397 . S
C1921 C1926 1.363 . S
C1922 H1899 0.950 . S
C1922 C1921 1.397 . S
C1922 C1923 1.334 . S
C1923 H1900 0.950 . S
C1923 C1922 1.334 . S
C1923 C1924 1.287 . S
C1924 C1923 1.287 . S
C1924 C1925 1.524 . S
C1924 H1943 0.913 . S
C1925 H1901 0.950 . S
C1925 C1924 1.524 . S
C1925 C1926 1.415 . S
C1926 H1902 0.950 . S
C1926 C1921 1.363 . S
C1926 C1925 1.415 . S
C1927 H1903 0.951 . S
C1927 C1928 1.366 . S
C1927 C1929 1.388 . S
C1928 C1927 1.366 . S
C1928 C1932 1.385 . S
C1929 H1904 0.951 . S
C1929 C1927 1.388 . S
C1929 C1930 1.366 . S
C1930 C1929 1.366 . S
C1930 C1931 1.414 . S
C1930 C1933 1.499 . S
C1931 H1905 0.950 . S
C1931 C1930 1.414 . S
C1931 C1932 1.374 . S
C1932 H1906 0.950 . S
C1932 C1928 1.385 . S
C1932 C1931 1.374 . S
C1933 C1930 1.499 . S
C1933 C1934 1.373 . S
C1933 C1935 1.389 . S
C1934 H1907 0.950 . S
C1934 C1920 1.377 1_455 S
C1934 C1933 1.373 . S
C1935 C1919 1.377 1_455 S
C1935 C1933 1.389 . S
C1935 C1936 1.524 . S
C1936 C1935 1.524 . S
C1936 C1937 1.397 . S
C1936 C1941 1.363 . S
C1937 H1908 0.950 . S
C1937 C1936 1.397 . S
C1937 C1938 1.334 . S
C1938 H1909 0.950 . S
C1938 C1937 1.334 . S
C1938 C1939 1.287 . S
C1939 C1938 1.287 . S
C1939 C1940 1.524 . S
C1939 H1942 0.999 . S
C1940 H1910 0.950 . S
C1940 C1939 1.524 . S
C1940 C1941 1.415 . S
C1941 H1911 0.950 . S
C1941 C1936 1.363 . S
C1941 C1940 1.415 . S
H1942 C1939 0.999 . S
H1943 C1924 0.913 . S
H1944 C1962 0.951 . S
H1945 C1964 0.951 . S
H1946 C1966 0.950 . S
H1947 C1967 0.950 . S
H1948 C1969 0.950 . S
H1949 C1972 0.950 . S
H1950 C1973 0.950 . S
H1951 C1975 0.950 . S
H1952 C1976 0.950 1_545 S
H1953 C1977 0.951 . S
H1954 C1979 0.951 . S
H1955 C1981 0.950 . S
H1956 C1982 0.950 . S
H1957 C1984 0.950 . S
H1958 C1987 0.950 . S
H1959 C1988 0.950 . S
H1960 C1990 0.950 . S
H1961 C1991 0.950 . S
C1962 H1944 0.951 . S
C1962 C1963 1.366 . S
C1962 C1964 1.388 . S
C1963 C1962 1.366 . S
C1963 C1967 1.385 . S
C1964 H1945 0.951 . S
C1964 C1962 1.388 . S
C1964 C1965 1.366 . S
C1965 C1964 1.366 . S
C1965 C1966 1.414 . S
C1965 C1968 1.499 . S
C1966 H1946 0.950 . S
C1966 C1965 1.414 . S
C1966 C1967 1.374 . S
C1967 H1947 0.950 . S
C1967 C1963 1.385 . S
C1967 C1966 1.374 . S
C1968 C1965 1.499 . S
C1968 C1969 1.373 . S
C1968 C1970 1.389 . S
C1969 H1948 0.950 . S
C1969 C1968 1.373 . S
C1969 C1985 1.377 . S
C1970 C1968 1.389 . S
C1970 C1971 1.524 1_545 S
C1970 C1984 1.377 . S
C1971 C1970 1.524 1_565 S
C1971 C1972 1.397 . S
C1971 C1976 1.363 . S
C1972 H1949 0.950 . S
C1972 C1971 1.397 . S
C1972 C1973 1.334 . S
C1973 H1950 0.950 . S
C1973 C1972 1.334 . S
C1973 C1974 1.287 . S
C1974 C1973 1.287 . S
C1974 C1975 1.524 . S
C1974 H1993 0.913 . S
C1975 H1951 0.950 . S
C1975 C1974 1.524 . S
C1975 C1976 1.415 . S
C1976 H1952 0.950 1_565 S
C1976 C1971 1.363 . S
C1976 C1975 1.415 . S
C1977 H1953 0.951 . S
C1977 C1978 1.366 . S
C1977 C1979 1.388 . S
C1978 C1977 1.366 . S
C1978 C1982 1.385 . S
C1979 H1954 0.951 . S
C1979 C1977 1.388 . S
C1979 C1980 1.366 . S
C1980 C1979 1.366 . S
C1980 C1981 1.414 . S
C1980 C1983 1.499 . S
C1981 H1955 0.950 . S
C1981 C1980 1.414 . S
C1981 C1982 1.374 . S
C1982 H1956 0.950 . S
C1982 C1978 1.385 . S
C1982 C1981 1.374 . S
C1983 C1980 1.499 . S
C1983 C1984 1.373 . S
C1983 C1985 1.389 . S
C1984 H1957 0.950 . S
C1984 C1970 1.377 . S
C1984 C1983 1.373 . S
C1985 C1969 1.377 . S
C1985 C1983 1.389 . S
C1985 C1986 1.524 . S
C1986 C1985 1.524 . S
C1986 C1987 1.397 . S
C1986 C1991 1.363 . S
C1987 H1958 0.950 . S
C1987 C1986 1.397 . S
C1987 C1988 1.334 . S
C1988 H1959 0.950 . S
C1988 C1987 1.334 . S
C1988 C1989 1.287 . S
C1989 C1988 1.287 . S
C1989 C1990 1.524 . S
C1989 H1992 0.999 . S
C1990 H1960 0.950 . S
C1990 C1989 1.524 . S
C1990 C1991 1.415 . S
C1991 H1961 0.950 . S
C1991 C1986 1.363 . S
C1991 C1990 1.415 . S
H1992 C1989 0.999 . S
H1993 C1974 0.913 . S
H1994 C2012 0.951 . S
H1995 C2014 0.951 . S
H1996 C2016 0.950 . S
H1997 C2017 0.950 . S
H1998 C2019 0.950 . S
H1999 C2022 0.950 . S
H2000 C2023 0.950 . S
H2001 C2025 0.950 . S
H2002 C2026 0.950 . S
H2003 C2027 0.951 1_565 S
H2004 C2029 0.951 1_565 S
H2005 C2031 0.950 . S
H2006 C2032 0.950 . S
H2007 C2034 0.950 . S
H2008 C2037 0.950 . S
H2009 C2038 0.950 . S
H2010 C2040 0.950 1_565 S
H2011 C2041 0.950 1_565 S
C2012 H1994 0.951 . S
C2012 C2013 1.366 . S
C2012 C2014 1.388 . S
C2013 C2012 1.366 . S
C2013 C2017 1.385 . S
C2014 H1995 0.951 . S
C2014 C2012 1.388 . S
C2014 C2015 1.366 . S
C2015 C2014 1.366 . S
C2015 C2016 1.414 . S
C2015 C2018 1.499 . S
C2016 H1996 0.950 . S
C2016 C2015 1.414 . S
C2016 C2017 1.374 . S
C2017 H1997 0.950 . S
C2017 C2013 1.385 . S
C2017 C2016 1.374 . S
C2018 C2015 1.499 . S
C2018 C2019 1.373 . S
C2018 C2020 1.389 . S
C2019 H1998 0.950 . S
C2019 C2018 1.373 . S
C2019 C2035 1.377 . S
C2020 C2018 1.389 . S
C2020 C2021 1.524 . S
C2020 C2034 1.377 . S
C2021 C2020 1.524 . S
C2021 C2022 1.397 . S
C2021 C2026 1.363 . S
C2022 H1999 0.950 . S
C2022 C2021 1.397 . S
C2022 C2023 1.334 . S
C2023 H2000 0.950 . S
C2023 C2022 1.334 . S
C2023 C2024 1.287 . S
C2024 C2023 1.287 . S
C2024 C2025 1.524 . S
C2024 H2043 0.913 . S
C2025 H2001 0.950 . S
C2025 C2024 1.524 . S
C2025 C2026 1.415 . S
C2026 H2002 0.950 . S
C2026 C2021 1.363 . S
C2026 C2025 1.415 . S
C2027 H2003 0.951 1_545 S
C2027 C2028 1.366 . S
C2027 C2029 1.388 . S
C2028 C2027 1.366 . S
C2028 C2032 1.385 . S
C2029 H2004 0.951 1_545 S
C2029 C2027 1.388 . S
C2029 C2030 1.366 . S
C2030 C2029 1.366 . S
C2030 C2031 1.414 . S
C2030 C2033 1.499 . S
C2031 H2005 0.950 . S
C2031 C2030 1.414 . S
C2031 C2032 1.374 . S
C2032 H2006 0.950 . S
C2032 C2028 1.385 . S
C2032 C2031 1.374 . S
C2033 C2030 1.499 . S
C2033 C2034 1.373 . S
C2033 C2035 1.389 . S
C2034 H2007 0.950 . S
C2034 C2020 1.377 . S
C2034 C2033 1.373 . S
C2035 C2019 1.377 . S
C2035 C2033 1.389 . S
C2035 C2036 1.524 . S
C2036 C2035 1.524 . S
C2036 C2037 1.397 . S
C2036 C2041 1.363 . S
C2037 H2008 0.950 . S
C2037 C2036 1.397 . S
C2037 C2038 1.334 . S
C2038 H2009 0.950 . S
C2038 C2037 1.334 . S
C2038 C2039 1.287 . S
C2039 C2038 1.287 . S
C2039 C2040 1.524 . S
C2039 H2042 0.999 . S
C2040 H2010 0.950 1_545 S
C2040 C2039 1.524 . S
C2040 C2041 1.415 . S
C2041 H2011 0.950 1_545 S
C2041 C2036 1.363 . S
C2041 C2040 1.415 . S
H2042 C2039 0.999 . S
H2043 C2024 0.913 . S
H2044 C2062 0.951 . S
H2045 C2064 0.951 . S
H2046 C2066 0.950 . S
H2047 C2067 0.950 . S
H2048 C2069 0.950 . S
H2049 C2072 0.950 . S
H2050 C2073 0.950 . S
H2051 C2075 0.950 . S
H2052 C2076 0.950 . S
H2053 C2077 0.951 . S
H2054 C2079 0.951 . S
H2055 C2081 0.950 . S
H2056 C2082 0.950 . S
H2057 C2084 0.950 . S
H2058 C2087 0.950 . S
H2059 C2088 0.950 . S
H2060 C2090 0.950 . S
H2061 C2091 0.950 . S
C2062 H2044 0.951 . S
C2062 C2063 1.366 . S
C2062 C2064 1.388 . S
C2063 C2062 1.366 . S
C2063 C2067 1.385 . S
C2064 H2045 0.951 . S
C2064 C2062 1.388 . S
C2064 C2065 1.366 . S
C2065 C2064 1.366 . S
C2065 C2066 1.414 . S
C2065 C2068 1.499 . S
C2066 H2046 0.950 . S
C2066 C2065 1.414 . S
C2066 C2067 1.374 . S
C2067 H2047 0.950 . S
C2067 C2063 1.385 . S
C2067 C2066 1.374 . S
C2068 C2065 1.499 . S
C2068 C2069 1.373 . S
C2068 C2070 1.389 . S
C2069 H2048 0.950 . S
C2069 C2068 1.373 . S
C2069 C2085 1.377 . S
C2070 C2068 1.389 . S
C2070 C2071 1.524 . S
C2070 C2084 1.377 . S
C2071 C2070 1.524 . S
C2071 C2072 1.397 . S
C2071 C2076 1.363 . S
C2072 H2049 0.950 . S
C2072 C2071 1.397 . S
C2072 C2073 1.334 . S
C2073 H2050 0.950 . S
C2073 C2072 1.334 . S
C2073 C2074 1.287 . S
C2074 C2073 1.287 . S
C2074 C2075 1.524 . S
C2074 H2093 0.913 . S
C2075 H2051 0.950 . S
C2075 C2074 1.524 . S
C2075 C2076 1.415 . S
C2076 H2052 0.950 . S
C2076 C2071 1.363 . S
C2076 C2075 1.415 . S
C2077 H2053 0.951 . S
C2077 C2078 1.366 . S
C2077 C2079 1.388 . S
C2078 C2077 1.366 . S
C2078 C2082 1.385 . S
C2079 H2054 0.951 . S
C2079 C2077 1.388 . S
C2079 C2080 1.366 . S
C2080 C2079 1.366 . S
C2080 C2081 1.414 . S
C2080 C2083 1.499 . S
C2081 H2055 0.950 . S
C2081 C2080 1.414 . S
C2081 C2082 1.374 . S
C2082 H2056 0.950 . S
C2082 C2078 1.385 . S
C2082 C2081 1.374 . S
C2083 C2080 1.499 . S
C2083 C2084 1.373 . S
C2083 C2085 1.389 . S
C2084 H2057 0.950 . S
C2084 C2070 1.377 . S
C2084 C2083 1.373 . S
C2085 C2069 1.377 . S
C2085 C2083 1.389 . S
C2085 C2086 1.524 . S
C2086 C2085 1.524 . S
C2086 C2087 1.397 . S
C2086 C2091 1.363 . S
C2087 H2058 0.950 . S
C2087 C2086 1.397 . S
C2087 C2088 1.334 . S
C2088 H2059 0.950 . S
C2088 C2087 1.334 . S
C2088 C2089 1.287 . S
C2089 C2088 1.287 . S
C2089 C2090 1.524 . S
C2089 H2092 0.999 . S
C2090 H2060 0.950 . S
C2090 C2089 1.524 . S
C2090 C2091 1.415 . S
C2091 H2061 0.950 . S
C2091 C2086 1.363 . S
C2091 C2090 1.415 . S
H2092 C2089 0.999 . S
H2093 C2074 0.913 . S
H2094 C2112 0.951 . S
H2095 C2114 0.951 . S
H2096 C2116 0.950 . S
H2097 C2117 0.950 . S
H2098 C2119 0.950 . S
H2099 C2122 0.950 . S
H2100 C2123 0.950 . S
H2101 C2125 0.950 . S
H2102 C2126 0.950 . S
H2103 C2127 0.951 . S
H2104 C2129 0.951 . S
H2105 C2131 0.950 . S
H2106 C2132 0.950 . S
H2107 C2134 0.950 . S
H2108 C2137 0.950 . S
H2109 C2138 0.950 . S
H2110 C2140 0.950 . S
H2111 C2141 0.950 . S
C2112 H2094 0.951 . S
C2112 C2113 1.366 . S
C2112 C2114 1.388 . S
C2113 C2112 1.366 . S
C2113 C2117 1.385 . S
C2114 H2095 0.951 . S
C2114 C2112 1.388 . S
C2114 C2115 1.366 . S
C2115 C2114 1.366 . S
C2115 C2116 1.414 . S
C2115 C2118 1.499 . S
C2116 H2096 0.950 . S
C2116 C2115 1.414 . S
C2116 C2117 1.374 . S
C2117 H2097 0.950 . S
C2117 C2113 1.385 . S
C2117 C2116 1.374 . S
C2118 C2115 1.499 . S
C2118 C2119 1.373 . S
C2118 C2120 1.389 . S
C2119 H2098 0.950 . S
C2119 C2118 1.373 . S
C2119 C2135 1.377 . S
C2120 C2118 1.389 . S
C2120 C2121 1.524 . S
C2120 C2134 1.377 . S
C2121 C2120 1.524 . S
C2121 C2122 1.397 . S
C2121 C2126 1.363 . S
C2122 H2099 0.950 . S
C2122 C2121 1.397 . S
C2122 C2123 1.334 . S
C2123 H2100 0.950 . S
C2123 C2122 1.334 . S
C2123 C2124 1.287 . S
C2124 C2123 1.287 . S
C2124 C2125 1.524 . S
C2124 H2143 0.913 . S
C2125 H2101 0.950 . S
C2125 C2124 1.524 . S
C2125 C2126 1.415 . S
C2126 H2102 0.950 . S
C2126 C2121 1.363 . S
C2126 C2125 1.415 . S
C2127 H2103 0.951 . S
C2127 C2128 1.366 . S
C2127 C2129 1.388 . S
C2128 C2127 1.366 . S
C2128 C2132 1.385 . S
C2129 H2104 0.951 . S
C2129 C2127 1.388 . S
C2129 C2130 1.366 . S
C2130 C2129 1.366 . S
C2130 C2131 1.414 . S
C2130 C2133 1.499 . S
C2131 H2105 0.950 . S
C2131 C2130 1.414 . S
C2131 C2132 1.374 . S
C2132 H2106 0.950 . S
C2132 C2128 1.385 . S
C2132 C2131 1.374 . S
C2133 C2130 1.499 . S
C2133 C2134 1.373 . S
C2133 C2135 1.389 . S
C2134 H2107 0.950 . S
C2134 C2120 1.377 . S
C2134 C2133 1.373 . S
C2135 C2119 1.377 . S
C2135 C2133 1.389 . S
C2135 C2136 1.524 . S
C2136 C2135 1.524 . S
C2136 C2137 1.397 . S
C2136 C2141 1.363 . S
C2137 H2108 0.950 . S
C2137 C2136 1.397 . S
C2137 C2138 1.334 . S
C2138 H2109 0.950 . S
C2138 C2137 1.334 . S
C2138 C2139 1.287 . S
C2139 C2138 1.287 . S
C2139 C2140 1.524 . S
C2139 H2142 0.999 . S
C2140 H2110 0.950 . S
C2140 C2139 1.524 . S
C2140 C2141 1.415 . S
C2141 H2111 0.950 . S
C2141 C2136 1.363 . S
C2141 C2140 1.415 . S
H2142 C2139 0.999 . S
H2143 C2124 0.913 . S
H2144 C2162 0.951 . S
H2145 C2164 0.951 . S
H2146 C2166 0.950 . S
H2147 C2167 0.950 . S
H2148 C2169 0.950 . S
H2149 C2172 0.950 . S
H2150 C2173 0.950 . S
H2151 C2175 0.950 . S
H2152 C2176 0.950 . S
H2153 C2177 0.951 . S
H2154 C2179 0.951 . S
H2155 C2181 0.950 . S
H2156 C2182 0.950 . S
H2157 C2184 0.950 . S
H2158 C2187 0.950 . S
H2159 C2188 0.950 . S
H2160 C2190 0.950 . S
H2161 C2191 0.950 . S
C2162 H2144 0.951 . S
C2162 C2163 1.366 . S
C2162 C2164 1.388 . S
C2163 C2162 1.366 . S
C2163 C2167 1.385 . S
C2164 H2145 0.951 . S
C2164 C2162 1.388 . S
C2164 C2165 1.366 . S
C2165 C2164 1.366 . S
C2165 C2166 1.414 . S
C2165 C2168 1.499 . S
C2166 H2146 0.950 . S
C2166 C2165 1.414 . S
C2166 C2167 1.374 . S
C2167 H2147 0.950 . S
C2167 C2163 1.385 . S
C2167 C2166 1.374 . S
C2168 C2165 1.499 . S
C2168 C2169 1.373 . S
C2168 C2170 1.389 . S
C2169 H2148 0.950 . S
C2169 C2168 1.373 . S
C2169 C2185 1.377 1_556 S
C2170 C2168 1.389 . S
C2170 C2171 1.524 1_545 S
C2170 C2184 1.377 1_556 S
C2171 C2170 1.524 1_565 S
C2171 C2172 1.397 . S
C2171 C2176 1.363 . S
C2172 H2149 0.950 . S
C2172 C2171 1.397 . S
C2172 C2173 1.334 . S
C2173 H2150 0.950 . S
C2173 C2172 1.334 . S
C2173 C2174 1.287 . S
C2174 C2173 1.287 . S
C2174 C2175 1.524 . S
C2174 H2193 0.913 . S
C2175 H2151 0.950 . S
C2175 C2174 1.524 . S
C2175 C2176 1.415 . S
C2176 H2152 0.950 . S
C2176 C2171 1.363 . S
C2176 C2175 1.415 . S
C2177 H2153 0.951 . S
C2177 C2178 1.366 . S
C2177 C2179 1.388 . S
C2178 C2177 1.366 . S
C2178 C2182 1.385 . S
C2179 H2154 0.951 . S
C2179 C2177 1.388 . S
C2179 C2180 1.366 . S
C2180 C2179 1.366 . S
C2180 C2181 1.414 . S
C2180 C2183 1.499 . S
C2181 H2155 0.950 . S
C2181 C2180 1.414 . S
C2181 C2182 1.374 . S
C2182 H2156 0.950 . S
C2182 C2178 1.385 . S
C2182 C2181 1.374 . S
C2183 C2180 1.499 . S
C2183 C2184 1.373 . S
C2183 C2185 1.389 . S
C2184 H2157 0.950 . S
C2184 C2170 1.377 1_554 S
C2184 C2183 1.373 . S
C2185 C2169 1.377 1_554 S
C2185 C2183 1.389 . S
C2185 C2186 1.524 . S
C2186 C2185 1.524 . S
C2186 C2187 1.397 . S
C2186 C2191 1.363 . S
C2187 H2158 0.950 . S
C2187 C2186 1.397 . S
C2187 C2188 1.334 . S
C2188 H2159 0.950 . S
C2188 C2187 1.334 . S
C2188 C2189 1.287 . S
C2189 C2188 1.287 . S
C2189 C2190 1.524 . S
C2189 H2192 0.999 . S
C2190 H2160 0.950 . S
C2190 C2189 1.524 . S
C2190 C2191 1.415 . S
C2191 H2161 0.950 . S
C2191 C2186 1.363 . S
C2191 C2190 1.415 . S
H2192 C2189 0.999 . S
H2193 C2174 0.913 . S
H2194 C2212 0.951 . S
H2195 C2214 0.951 . S
H2196 C2216 0.950 . S
H2197 C2217 0.950 . S
H2198 C2219 0.950 . S
H2199 C2222 0.950 . S
H2200 C2223 0.950 . S
H2201 C2225 0.950 . S
H2202 C2226 0.950 . S
H2203 C2227 0.951 . S
H2204 C2229 0.951 . S
H2205 C2231 0.950 . S
H2206 C2232 0.950 . S
H2207 C2234 0.950 . S
H2208 C2237 0.950 1_565 S
H2209 C2238 0.950 1_565 S
H2210 C2240 0.950 . S
H2211 C2241 0.950 . S
C2212 H2194 0.951 . S
C2212 C2213 1.366 . S
C2212 C2214 1.388 . S
C2213 C2212 1.366 . S
C2213 C2217 1.385 . S
C2214 H2195 0.951 . S
C2214 C2212 1.388 . S
C2214 C2215 1.366 . S
C2215 C2214 1.366 . S
C2215 C2216 1.414 . S
C2215 C2218 1.499 . S
C2216 H2196 0.950 . S
C2216 C2215 1.414 . S
C2216 C2217 1.374 . S
C2217 H2197 0.950 . S
C2217 C2213 1.385 . S
C2217 C2216 1.374 . S
C2218 C2215 1.499 . S
C2218 C2219 1.373 . S
C2218 C2220 1.389 . S
C2219 H2198 0.950 . S
C2219 C2218 1.373 . S
C2219 C2235 1.377 1_556 S
C2220 C2218 1.389 . S
C2220 C2221 1.524 . S
C2220 C2234 1.377 1_556 S
C2221 C2220 1.524 . S
C2221 C2222 1.397 . S
C2221 C2226 1.363 . S
C2222 H2199 0.950 . S
C2222 C2221 1.397 . S
C2222 C2223 1.334 . S
C2223 H2200 0.950 . S
C2223 C2222 1.334 . S
C2223 C2224 1.287 . S
C2224 C2223 1.287 . S
C2224 C2225 1.524 . S
C2224 H2243 0.913 . S
C2225 H2201 0.950 . S
C2225 C2224 1.524 . S
C2225 C2226 1.415 . S
C2226 H2202 0.950 . S
C2226 C2221 1.363 . S
C2226 C2225 1.415 . S
C2227 H2203 0.951 . S
C2227 C2228 1.366 . S
C2227 C2229 1.388 . S
C2228 C2227 1.366 . S
C2228 C2232 1.385 . S
C2229 H2204 0.951 . S
C2229 C2227 1.388 . S
C2229 C2230 1.366 . S
C2230 C2229 1.366 . S
C2230 C2231 1.414 . S
C2230 C2233 1.499 . S
C2231 H2205 0.950 . S
C2231 C2230 1.414 . S
C2231 C2232 1.374 . S
C2232 H2206 0.950 . S
C2232 C2228 1.385 . S
C2232 C2231 1.374 . S
C2233 C2230 1.499 . S
C2233 C2234 1.373 . S
C2233 C2235 1.389 . S
C2234 H2207 0.950 . S
C2234 C2220 1.377 1_554 S
C2234 C2233 1.373 . S
C2235 C2219 1.377 1_554 S
C2235 C2233 1.389 . S
C2235 C2236 1.524 . S
C2236 C2235 1.524 . S
C2236 C2237 1.397 . S
C2236 C2241 1.363 . S
C2237 H2208 0.950 1_545 S
C2237 C2236 1.397 . S
C2237 C2238 1.334 . S
C2238 H2209 0.950 1_545 S
C2238 C2237 1.334 . S
C2238 C2239 1.287 . S
C2239 C2238 1.287 . S
C2239 C2240 1.524 . S
C2239 H2242 0.999 . S
C2240 H2210 0.950 . S
C2240 C2239 1.524 . S
C2240 C2241 1.415 . S
C2241 H2211 0.950 . S
C2241 C2236 1.363 . S
C2241 C2240 1.415 . S
H2242 C2239 0.999 . S
H2243 C2224 0.913 . S
H2244 C2262 0.951 . S
H2245 C2264 0.951 . S
H2246 C2266 0.950 . S
H2247 C2267 0.950 . S
H2248 C2269 0.950 . S
H2249 C2272 0.950 . S
H2250 C2273 0.950 . S
H2251 C2275 0.950 . S
H2252 C2276 0.950 . S
H2253 C2277 0.951 . S
H2254 C2279 0.951 . S
H2255 C2281 0.950 . S
H2256 C2282 0.950 . S
H2257 C2284 0.950 . S
H2258 C2287 0.950 . S
H2259 C2288 0.950 . S
H2260 C2290 0.950 . S
H2261 C2291 0.950 . S
C2262 H2244 0.951 . S
C2262 C2263 1.366 . S
C2262 C2264 1.388 . S
C2263 C2262 1.366 . S
C2263 C2267 1.385 . S
C2264 H2245 0.951 . S
C2264 C2262 1.388 . S
C2264 C2265 1.366 . S
C2265 C2264 1.366 . S
C2265 C2266 1.414 . S
C2265 C2268 1.499 . S
C2266 H2246 0.950 . S
C2266 C2265 1.414 . S
C2266 C2267 1.374 . S
C2267 H2247 0.950 . S
C2267 C2263 1.385 . S
C2267 C2266 1.374 . S
C2268 C2265 1.499 . S
C2268 C2269 1.373 . S
C2268 C2270 1.389 . S
C2269 H2248 0.950 . S
C2269 C2268 1.373 . S
C2269 C2285 1.377 . S
C2270 C2268 1.389 . S
C2270 C2271 1.524 . S
C2270 C2284 1.377 . S
C2271 C2270 1.524 . S
C2271 C2272 1.397 . S
C2271 C2276 1.363 . S
C2272 H2249 0.950 . S
C2272 C2271 1.397 . S
C2272 C2273 1.334 . S
C2273 H2250 0.950 . S
C2273 C2272 1.334 . S
C2273 C2274 1.287 . S
C2274 C2273 1.287 . S
C2274 C2275 1.524 . S
C2274 H2293 0.913 . S
C2275 H2251 0.950 . S
C2275 C2274 1.524 . S
C2275 C2276 1.415 . S
C2276 H2252 0.950 . S
C2276 C2271 1.363 . S
C2276 C2275 1.415 . S
C2277 H2253 0.951 . S
C2277 C2278 1.366 . S
C2277 C2279 1.388 . S
C2278 C2277 1.366 . S
C2278 C2282 1.385 . S
C2279 H2254 0.951 . S
C2279 C2277 1.388 . S
C2279 C2280 1.366 . S
C2280 C2279 1.366 . S
C2280 C2281 1.414 . S
C2280 C2283 1.499 . S
C2281 H2255 0.950 . S
C2281 C2280 1.414 . S
C2281 C2282 1.374 . S
C2282 H2256 0.950 . S
C2282 C2278 1.385 . S
C2282 C2281 1.374 . S
C2283 C2280 1.499 . S
C2283 C2284 1.373 . S
C2283 C2285 1.389 . S
C2284 H2257 0.950 . S
C2284 C2270 1.377 . S
C2284 C2283 1.373 . S
C2285 C2269 1.377 . S
C2285 C2283 1.389 . S
C2285 C2286 1.524 . S
C2286 C2285 1.524 . S
C2286 C2287 1.397 . S
C2286 C2291 1.363 . S
C2287 H2258 0.950 . S
C2287 C2286 1.397 . S
C2287 C2288 1.334 . S
C2288 H2259 0.950 . S
C2288 C2287 1.334 . S
C2288 C2289 1.287 . S
C2289 C2288 1.287 . S
C2289 C2290 1.524 . S
C2289 H2292 0.999 . S
C2290 H2260 0.950 . S
C2290 C2289 1.524 . S
C2290 C2291 1.415 . S
C2291 H2261 0.950 . S
C2291 C2286 1.363 . S
C2291 C2290 1.415 . S
H2292 C2289 0.999 . S
H2293 C2274 0.913 . S
H2294 C2312 0.951 . S
H2295 C2314 0.951 . S
H2296 C2316 0.950 . S
H2297 C2317 0.950 . S
H2298 C2319 0.950 . S
H2299 C2322 0.950 . S
H2300 C2323 0.950 . S
H2301 C2325 0.950 . S
H2302 C2326 0.950 . S
H2303 C2327 0.951 . S
H2304 C2329 0.951 . S
H2305 C2331 0.950 . S
H2306 C2332 0.950 . S
H2307 C2334 0.950 . S
H2308 C2337 0.950 . S
H2309 C2338 0.950 . S
H2310 C2340 0.950 . S
H2311 C2341 0.950 . S
C2312 H2294 0.951 . S
C2312 C2313 1.366 . S
C2312 C2314 1.388 . S
C2313 C2312 1.366 . S
C2313 C2317 1.385 . S
C2314 H2295 0.951 . S
C2314 C2312 1.388 . S
C2314 C2315 1.366 . S
C2315 C2314 1.366 . S
C2315 C2316 1.414 . S
C2315 C2318 1.499 . S
C2316 H2296 0.950 . S
C2316 C2315 1.414 . S
C2316 C2317 1.374 . S
C2317 H2297 0.950 . S
C2317 C2313 1.385 . S
C2317 C2316 1.374 . S
C2318 C2315 1.499 . S
C2318 C2319 1.373 . S
C2318 C2320 1.389 . S
C2319 H2298 0.950 . S
C2319 C2318 1.373 . S
C2319 C2335 1.377 . S
C2320 C2318 1.389 . S
C2320 C2321 1.524 . S
C2320 C2334 1.377 . S
C2321 C2320 1.524 . S
C2321 C2322 1.397 . S
C2321 C2326 1.363 . S
C2322 H2299 0.950 . S
C2322 C2321 1.397 . S
C2322 C2323 1.334 . S
C2323 H2300 0.950 . S
C2323 C2322 1.334 . S
C2323 C2324 1.287 . S
C2324 C2323 1.287 . S
C2324 C2325 1.524 . S
C2324 H2343 0.913 . S
C2325 H2301 0.950 . S
C2325 C2324 1.524 . S
C2325 C2326 1.415 . S
C2326 H2302 0.950 . S
C2326 C2321 1.363 . S
C2326 C2325 1.415 . S
C2327 H2303 0.951 . S
C2327 C2328 1.366 . S
C2327 C2329 1.388 . S
C2328 C2327 1.366 . S
C2328 C2332 1.385 . S
C2329 H2304 0.951 . S
C2329 C2327 1.388 . S
C2329 C2330 1.366 . S
C2330 C2329 1.366 . S
C2330 C2331 1.414 . S
C2330 C2333 1.499 . S
C2331 H2305 0.950 . S
C2331 C2330 1.414 . S
C2331 C2332 1.374 . S
C2332 H2306 0.950 . S
C2332 C2328 1.385 . S
C2332 C2331 1.374 . S
C2333 C2330 1.499 . S
C2333 C2334 1.373 . S
C2333 C2335 1.389 . S
C2334 H2307 0.950 . S
C2334 C2320 1.377 . S
C2334 C2333 1.373 . S
C2335 C2319 1.377 . S
C2335 C2333 1.389 . S
C2335 C2336 1.524 . S
C2336 C2335 1.524 . S
C2336 C2337 1.397 . S
C2336 C2341 1.363 . S
C2337 H2308 0.950 . S
C2337 C2336 1.397 . S
C2337 C2338 1.334 . S
C2338 H2309 0.950 . S
C2338 C2337 1.334 . S
C2338 C2339 1.287 . S
C2339 C2338 1.287 . S
C2339 C2340 1.524 . S
C2339 H2342 0.999 . S
C2340 H2310 0.950 . S
C2340 C2339 1.524 . S
C2340 C2341 1.415 . S
C2341 H2311 0.950 . S
C2341 C2336 1.363 . S
C2341 C2340 1.415 . S
H2342 C2339 0.999 . S
H2343 C2324 0.913 . S
H2344 C2362 0.951 . S
H2345 C2364 0.951 . S
H2346 C2366 0.950 . S
H2347 C2367 0.950 . S
H2348 C2369 0.950 . S
H2349 C2372 0.950 . S
H2350 C2373 0.950 . S
H2351 C2375 0.950 . S
H2352 C2376 0.950 . S
H2353 C2377 0.951 . S
H2354 C2379 0.951 . S
H2355 C2381 0.950 . S
H2356 C2382 0.950 . S
H2357 C2384 0.950 . S
H2358 C2387 0.950 1_565 S
H2359 C2388 0.935 1_565 S
H2360 C2390 0.950 . S
H2361 C2391 0.950 . S
C2362 H2344 0.951 . S
C2362 C2363 1.366 . S
C2362 C2364 1.388 . S
C2363 C2362 1.366 . S
C2363 C2367 1.385 . S
C2364 H2345 0.951 . S
C2364 C2362 1.388 . S
C2364 C2365 1.366 . S
C2365 C2364 1.366 . S
C2365 C2366 1.414 . S
C2365 C2368 1.499 . S
C2366 H2346 0.950 . S
C2366 C2365 1.414 . S
C2366 C2367 1.374 . S
C2367 H2347 0.950 . S
C2367 C2363 1.385 . S
C2367 C2366 1.374 . S
C2368 C2365 1.499 . S
C2368 C2369 1.373 . S
C2368 C2370 1.389 . S
C2369 H2348 0.950 . S
C2369 C2368 1.373 . S
C2369 C2385 1.377 . S
C2370 C2368 1.389 . S
C2370 C2371 1.524 . S
C2370 C2384 1.377 . S
C2371 C2370 1.524 . S
C2371 C2372 1.397 . S
C2371 C2376 1.363 . S
C2372 H2349 0.950 . S
C2372 C2371 1.397 . S
C2372 C2373 1.334 . S
C2373 H2350 0.950 . S
C2373 C2372 1.334 . S
C2373 C2374 1.287 . S
C2374 C2373 1.287 . S
C2374 C2375 1.524 . S
C2374 H2393 0.913 . S
C2375 H2351 0.950 . S
C2375 C2374 1.524 . S
C2375 C2376 1.415 . S
C2376 H2352 0.950 . S
C2376 C2371 1.363 . S
C2376 C2375 1.415 . S
C2377 H2353 0.951 . S
C2377 C2378 1.366 . S
C2377 C2379 1.388 . S
C2378 C2377 1.366 . S
C2378 C2382 1.385 . S
C2379 H2354 0.951 . S
C2379 C2377 1.388 . S
C2379 C2380 1.366 . S
C2380 C2379 1.366 . S
C2380 C2381 1.414 . S
C2380 C2383 1.499 . S
C2381 H2355 0.950 . S
C2381 C2380 1.414 . S
C2381 C2382 1.374 . S
C2382 H2356 0.950 . S
C2382 C2378 1.385 . S
C2382 C2381 1.374 . S
C2383 C2380 1.499 . S
C2383 C2384 1.373 . S
C2383 C2385 1.389 . S
C2384 H2357 0.950 . S
C2384 C2370 1.377 . S
C2384 C2383 1.373 . S
C2385 C2369 1.377 . S
C2385 C2383 1.389 . S
C2385 C2386 1.524 . S
C2386 C2385 1.524 . S
C2386 C2387 1.397 . S
C2386 C2391 1.363 . S
C2387 H2358 0.950 1_545 S
C2387 C2386 1.397 . S
C2387 C2388 1.339 . S
C2388 H2359 0.935 1_545 S
C2388 C2387 1.339 . S
C2388 C2389 1.299 . S
C2389 C2388 1.299 . S
C2389 C2390 1.524 . S
C2389 H2392 0.999 . S
C2390 H2360 0.950 . S
C2390 C2389 1.524 . S
C2390 C2391 1.415 . S
C2391 H2361 0.950 . S
C2391 C2386 1.363 . S
C2391 C2390 1.415 . S
H2392 C2389 0.999 . S
H2393 C2374 0.913 . S
H2394 C2412 0.951 . S
H2395 C2414 0.951 . S
H2396 C2416 0.950 1_565 S
H2397 C2417 0.950 1_565 S
H2398 C2419 0.950 . S
H2399 C2422 0.950 . S
H2400 C2423 0.950 . S
H2401 C2425 0.950 . S
H2402 C2426 0.950 . S
H2403 C2427 0.951 1_565 S
H2404 C2429 0.951 1_565 S
H2405 C2431 0.950 . S
H2406 C2432 0.950 . S
H2407 C2434 0.950 . S
H2408 C2437 0.950 . S
H2409 C2438 0.950 . S
H2410 C2440 0.950 . S
H2411 C2441 0.950 . S
C2412 H2394 0.951 . S
C2412 C2413 1.366 . S
C2412 C2414 1.388 . S
C2413 C2412 1.366 . S
C2413 C2417 1.385 . S
C2414 H2395 0.951 . S
C2414 C2412 1.388 . S
C2414 C2415 1.366 . S
C2415 C2414 1.366 . S
C2415 C2416 1.414 . S
C2415 C2418 1.499 . S
C2416 H2396 0.950 1_545 S
C2416 C2415 1.414 . S
C2416 C2417 1.374 . S
C2417 H2397 0.950 1_545 S
C2417 C2413 1.385 . S
C2417 C2416 1.374 . S
C2418 C2415 1.499 . S
C2418 C2419 1.373 . S
C2418 C2420 1.389 . S
C2419 H2398 0.950 . S
C2419 C2418 1.373 . S
C2419 C2435 1.377 . S
C2420 C2418 1.389 . S
C2420 C2421 1.524 . S
C2420 C2434 1.377 . S
C2421 C2420 1.524 . S
C2421 C2422 1.397 . S
C2421 C2426 1.363 . S
C2422 H2399 0.950 . S
C2422 C2421 1.397 . S
C2422 C2423 1.334 . S
C2423 H2400 0.950 . S
C2423 C2422 1.334 . S
C2423 C2424 1.287 . S
C2424 C2423 1.287 . S
C2424 C2425 1.524 . S
C2424 H2443 0.913 . S
C2425 H2401 0.950 . S
C2425 C2424 1.524 . S
C2425 C2426 1.415 . S
C2426 H2402 0.950 . S
C2426 C2421 1.363 . S
C2426 C2425 1.415 . S
C2427 H2403 0.951 1_545 S
C2427 C2428 1.366 . S
C2427 C2429 1.388 . S
C2428 C2427 1.366 . S
C2428 C2432 1.385 . S
C2429 H2404 0.951 1_545 S
C2429 C2427 1.388 . S
C2429 C2430 1.366 . S
C2430 C2429 1.366 . S
C2430 C2431 1.414 . S
C2430 C2433 1.499 . S
C2431 H2405 0.950 . S
C2431 C2430 1.414 . S
C2431 C2432 1.374 . S
C2432 H2406 0.950 . S
C2432 C2428 1.385 . S
C2432 C2431 1.374 . S
C2433 C2430 1.499 . S
C2433 C2434 1.373 . S
C2433 C2435 1.389 . S
C2434 H2407 0.950 . S
C2434 C2420 1.377 . S
C2434 C2433 1.373 . S
C2435 C2419 1.377 . S
C2435 C2433 1.389 . S
C2435 C2436 1.524 1_545 S
C2436 C2435 1.524 1_565 S
C2436 C2437 1.397 1_565 S
C2436 C2441 1.363 . S
C2437 H2408 0.950 . S
C2437 C2436 1.397 1_545 S
C2437 C2438 1.334 1_545 S
C2438 H2409 0.950 . S
C2438 C2437 1.334 1_565 S
C2438 C2439 1.287 . S
C2439 C2438 1.287 . S
C2439 C2440 1.524 . S
C2439 H2442 0.999 . S
C2440 H2410 0.950 . S
C2440 C2439 1.524 . S
C2440 C2441 1.415 . S
C2441 H2411 0.950 . S
C2441 C2436 1.363 . S
C2441 C2440 1.415 . S
H2442 C2439 0.999 . S
H2443 C2424 0.913 . S
H2444 C2462 0.951 . S
H2445 C2464 0.951 . S
H2446 C2466 0.950 . S
H2447 C2467 0.950 . S
H2448 C2469 0.950 . S
H2449 C2472 0.950 . S
H2450 C2473 0.950 . S
H2451 C2475 0.950 . S
H2452 C2476 0.950 . S
H2453 C2477 0.951 . S
H2454 C2479 0.951 . S
H2455 C2481 0.950 . S
H2456 C2482 0.950 . S
H2457 C2484 0.950 . S
H2458 C2487 0.950 . S
H2459 C2488 0.950 . S
H2460 C2490 0.950 . S
H2461 C2491 0.950 . S
C2462 H2444 0.951 . S
C2462 C2463 1.366 . S
C2462 C2464 1.388 . S
C2463 C2462 1.366 . S
C2463 C2467 1.385 . S
C2464 H2445 0.951 . S
C2464 C2462 1.388 . S
C2464 C2465 1.366 . S
C2465 C2464 1.366 . S
C2465 C2466 1.414 . S
C2465 C2468 1.499 . S
C2466 H2446 0.950 . S
C2466 C2465 1.414 . S
C2466 C2467 1.374 . S
C2467 H2447 0.950 . S
C2467 C2463 1.385 . S
C2467 C2466 1.374 . S
C2468 C2465 1.499 . S
C2468 C2469 1.373 . S
C2468 C2470 1.389 . S
C2469 H2448 0.950 . S
C2469 C2468 1.373 . S
C2469 C2485 1.377 1_554 S
C2470 C2468 1.389 . S
C2470 C2471 1.524 . S
C2470 C2484 1.377 1_554 S
C2471 C2470 1.524 . S
C2471 C2472 1.397 . S
C2471 C2476 1.363 . S
C2472 H2449 0.950 . S
C2472 C2471 1.397 . S
C2472 C2473 1.334 . S
C2473 H2450 0.950 . S
C2473 C2472 1.334 . S
C2473 C2474 1.287 . S
C2474 C2473 1.287 . S
C2474 C2475 1.524 . S
C2474 H2493 0.913 . S
C2475 H2451 0.950 . S
C2475 C2474 1.524 . S
C2475 C2476 1.415 . S
C2476 H2452 0.950 . S
C2476 C2471 1.363 . S
C2476 C2475 1.415 . S
C2477 H2453 0.951 . S
C2477 C2478 1.366 . S
C2477 C2479 1.388 . S
C2478 C2477 1.366 . S
C2478 C2482 1.385 . S
C2479 H2454 0.951 . S
C2479 C2477 1.388 . S
C2479 C2480 1.366 . S
C2480 C2479 1.366 . S
C2480 C2481 1.414 . S
C2480 C2483 1.499 . S
C2481 H2455 0.950 . S
C2481 C2480 1.414 . S
C2481 C2482 1.374 . S
C2482 H2456 0.950 . S
C2482 C2478 1.385 . S
C2482 C2481 1.374 . S
C2483 C2480 1.499 . S
C2483 C2484 1.373 . S
C2483 C2485 1.389 . S
C2484 H2457 0.950 . S
C2484 C2470 1.377 1_556 S
C2484 C2483 1.373 . S
C2485 C2469 1.377 1_556 S
C2485 C2483 1.389 . S
C2485 C2486 1.524 . S
C2486 C2485 1.524 . S
C2486 C2487 1.397 . S
C2486 C2491 1.363 . S
C2487 H2458 0.950 . S
C2487 C2486 1.397 . S
C2487 C2488 1.334 . S
C2488 H2459 0.950 . S
C2488 C2487 1.334 . S
C2488 C2489 1.287 . S
C2489 C2488 1.287 . S
C2489 C2490 1.524 . S
C2489 H2492 0.999 . S
C2490 H2460 0.950 . S
C2490 C2489 1.524 . S
C2490 C2491 1.415 . S
C2491 H2461 0.950 . S
C2491 C2486 1.363 . S
C2491 C2490 1.415 . S
H2492 C2489 0.999 . S
H2493 C2474 0.913 . S
H2494 C2512 0.951 . S
H2495 C2514 0.951 . S
H2496 C2516 0.950 . S
H2497 C2517 0.950 . S
H2498 C2519 0.950 . S
H2499 C2522 0.950 . S
H2500 C2523 0.950 . S
H2501 C2525 0.950 . S
H2502 C2526 0.950 . S
H2503 C2527 0.951 . S
H2504 C2529 0.951 . S
H2505 C2531 0.950 . S
H2506 C2532 0.950 . S
H2507 C2534 0.950 . S
H2508 C2537 0.950 . S
H2509 C2538 0.950 . S
H2510 C2540 0.950 . S
H2511 C2541 0.950 . S
C2512 H2494 0.951 . S
C2512 C2513 1.366 . S
C2512 C2514 1.388 . S
C2513 C2512 1.366 . S
C2513 C2517 1.385 . S
C2514 H2495 0.951 . S
C2514 C2512 1.388 . S
C2514 C2515 1.366 . S
C2515 C2514 1.366 . S
C2515 C2516 1.414 . S
C2515 C2518 1.499 . S
C2516 H2496 0.950 . S
C2516 C2515 1.414 . S
C2516 C2517 1.374 . S
C2517 H2497 0.950 . S
C2517 C2513 1.385 . S
C2517 C2516 1.374 . S
C2518 C2515 1.499 . S
C2518 C2519 1.373 . S
C2518 C2520 1.389 . S
C2519 H2498 0.950 . S
C2519 C2518 1.373 . S
C2519 C2535 1.377 1_556 S
C2520 C2518 1.389 . S
C2520 C2521 1.524 . S
C2520 C2534 1.377 1_556 S
C2521 C2520 1.524 . S
C2521 C2522 1.397 . S
C2521 C2526 1.363 . S
C2522 H2499 0.950 . S
C2522 C2521 1.397 . S
C2522 C2523 1.334 . S
C2523 H2500 0.950 . S
C2523 C2522 1.334 . S
C2523 C2524 1.287 . S
C2524 C2523 1.287 . S
C2524 C2525 1.524 . S
C2524 H2543 0.913 . S
C2525 H2501 0.950 . S
C2525 C2524 1.524 . S
C2525 C2526 1.415 . S
C2526 H2502 0.950 . S
C2526 C2521 1.363 . S
C2526 C2525 1.415 . S
C2527 H2503 0.951 . S
C2527 C2528 1.366 . S
C2527 C2529 1.388 . S
C2528 C2527 1.366 . S
C2528 C2532 1.385 . S
C2529 H2504 0.951 . S
C2529 C2527 1.388 . S
C2529 C2530 1.366 . S
C2530 C2529 1.366 . S
C2530 C2531 1.414 . S
C2530 C2533 1.499 . S
C2531 H2505 0.950 . S
C2531 C2530 1.414 . S
C2531 C2532 1.374 . S
C2532 H2506 0.950 . S
C2532 C2528 1.385 . S
C2532 C2531 1.374 . S
C2533 C2530 1.499 . S
C2533 C2534 1.373 . S
C2533 C2535 1.389 . S
C2534 H2507 0.950 . S
C2534 C2520 1.377 1_554 S
C2534 C2533 1.373 . S
C2535 C2519 1.377 1_554 S
C2535 C2533 1.389 . S
C2535 C2536 1.524 . S
C2536 C2535 1.524 . S
C2536 C2537 1.397 . S
C2536 C2541 1.363 . S
C2537 H2508 0.950 . S
C2537 C2536 1.397 . S
C2537 C2538 1.334 . S
C2538 H2509 0.950 . S
C2538 C2537 1.334 . S
C2538 C2539 1.287 . S
C2539 C2538 1.287 . S
C2539 C2540 1.524 . S
C2539 H2542 0.999 . S
C2540 H2510 0.950 . S
C2540 C2539 1.524 . S
C2540 C2541 1.415 . S
C2541 H2511 0.950 . S
C2541 C2536 1.363 . S
C2541 C2540 1.415 . S
H2542 C2539 0.999 . S
H2543 C2524 0.913 . S
C563 C9 1.424 . S
C578 C383 1.424 . S
C613 C43 1.424 . S
C628 C349 1.424 . S
C663 C315 1.425 . S
C678 C77 1.425 . S
C713 C281 1.425 . S
C728 C111 1.425 . S
C763 C145 1.424 . S
C778 C519 1.424 . S
C813 C179 1.424 . S
C828 C485 1.424 . S
C863 C451 1.424 . S
C878 C213 1.424 . S
C913 C417 1.424 . S
C928 C247 1.424 . S
C963 C2 2.096 . S
C978 C444 2.096 . S
C1013 C410 2.096 . S
C1028 C36 2.096 . S
C1063 C70 2.096 . S
C1078 C512 2.096 . S
C1113 C478 2.096 . S
C1128 C104 2.096 . S
C1163 C122 0.914 . S
C1178 C496 0.914 . S
C1213 C530 0.913 . S
C1228 C88 0.913 . S
C1263 C428 0.913 . S
C1278 C54 0.913 . S
C1313 C20 0.913 . S
C1328 C462 0.913 . S
C1363 C138 2.096 . S
C1378 C308 2.096 . S
C1413 C172 2.096 . S
C1428 C274 2.096 . S
C1463 C206 2.096 . S
C1478 C376 2.096 . S
C1513 C240 2.096 . S
C1528 C342 2.096 . S
C1563 C258 0.913 . S
C1578 C360 0.913 . S
C1613 C224 0.913 . S
C1628 C394 0.914 . S
C1663 C190 0.913 . S
C1678 C292 0.913 . S
C1713 C156 0.913 . S
C1728 C326 0.913 . S
C1763 C67 1.597 . S
C1778 C33 1.597 . S
C1813 C101 1.597 . S
C1828 C135 1.597 . S
C1863 C203 1.597 . S
C1878 C169 1.597 . S
C1913 C271 1.597 . S
C1928 C237 1.597 . S
C1963 C339 1.597 . S
C1978 C305 1.597 . S
C2013 C407 1.597 . S
C2028 C373 1.597 . S
C2063 C441 1.597 . S
C2078 C475 1.597 . S
C2113 C543 1.597 . S
C2128 C509 1.597 . S
C2163 C73 1.472 . S
C2178 C5 1.472 . S
C2213 C107 1.472 . S
C2228 C39 1.472 . S
C2263 C141 1.472 . S
C2278 C209 1.472 . S
C2313 C243 1.472 . S
C2328 C175 1.472 . S
C2363 C277 1.472 . S
C2378 C345 1.472 . S
C2413 C379 1.472 . S
C2428 C311 1.473 . S
C2463 C413 1.472 . S
C2478 C481 1.472 . S
C2513 C515 1.472 . S
C2528 C447 1.472 . S
