# Generated by pormake.
# Topology umk, (4)-cn, num edge types: 1
# Building blocks:
#     Node 0, Type 0, BuildingBlock: TATPOV_clean_sbu_0, # of connection points: 4
#     Node 1, Type 0, BuildingBlock: TATPOV_clean_sbu_0, # of connection points: 4
#     Node 2, Type 0, BuildingBlock: TATPOV_clean_sbu_0, # of connection points: 4
#     Node 3, Type 0, BuildingBlock: TATPOV_clean_sbu_0, # of connection points: 4
#     Node 4, Type 0, BuildingBlock: TATPOV_clean_sbu_0, # of connection points: 4
#     Node 5, Type 0, BuildingBlock: TATPOV_clean_sbu_0, # of connection points: 4
#     Node 6, Type 0, BuildingBlock: TATPOV_clean_sbu_0, # of connection points: 4
#     Node 7, Type 0, BuildingBlock: TATPOV_clean_sbu_0, # of connection points: 4
#     Node 8, Type 0, BuildingBlock: TATPOV_clean_sbu_0, # of connection points: 4
#     Node 9, Type 0, BuildingBlock: TATPOV_clean_sbu_0, # of connection points: 4
#     Node 10, Type 0, BuildingBlock: TATPOV_clean_sbu_0, # of connection points: 4
#     Node 11, Type 0, BuildingBlock: TATPOV_clean_sbu_0, # of connection points: 4
#     Node 12, Type 0, BuildingBlock: TATPOV_clean_sbu_0, # of connection points: 4
#     Node 13, Type 0, BuildingBlock: TATPOV_clean_sbu_0, # of connection points: 4
#     Node 14, Type 0, BuildingBlock: TATPOV_clean_sbu_0, # of connection points: 4
#     Node 15, Type 0, BuildingBlock: TATPOV_clean_sbu_0, # of connection points: 4
#     Node 16, Type 0, BuildingBlock: TATPOV_clean_sbu_0, # of connection points: 4
#     Node 17, Type 0, BuildingBlock: TATPOV_clean_sbu_0, # of connection points: 4
#     Node 18, Type 0, BuildingBlock: TATPOV_clean_sbu_0, # of connection points: 4
#     Node 19, Type 0, BuildingBlock: TATPOV_clean_sbu_0, # of connection points: 4
#     Node 20, Type 0, BuildingBlock: TATPOV_clean_sbu_0, # of connection points: 4
#     Node 21, Type 0, BuildingBlock: TATPOV_clean_sbu_0, # of connection points: 4
#     Node 22, Type 0, BuildingBlock: TATPOV_clean_sbu_0, # of connection points: 4
#     Node 23, Type 0, BuildingBlock: TATPOV_clean_sbu_0, # of connection points: 4
#     Edge 24, Type (0, 0), BuildingBlock: KIFKEQ_clean_linker_1, # of connection points: 2
#     Edge 25, Type (0, 0), BuildingBlock: KIFKEQ_clean_linker_1, # of connection points: 2
#     Edge 26, Type (0, 0), BuildingBlock: KIFKEQ_clean_linker_1, # of connection points: 2
#     Edge 27, Type (0, 0), BuildingBlock: KIFKEQ_clean_linker_1, # of connection points: 2
#     Edge 28, Type (0, 0), BuildingBlock: KIFKEQ_clean_linker_1, # of connection points: 2
#     Edge 29, Type (0, 0), BuildingBlock: KIFKEQ_clean_linker_1, # of connection points: 2
#     Edge 30, Type (0, 0), BuildingBlock: KIFKEQ_clean_linker_1, # of connection points: 2
#     Edge 31, Type (0, 0), BuildingBlock: KIFKEQ_clean_linker_1, # of connection points: 2
#     Edge 32, Type (0, 0), BuildingBlock: KIFKEQ_clean_linker_1, # of connection points: 2
#     Edge 33, Type (0, 0), BuildingBlock: KIFKEQ_clean_linker_1, # of connection points: 2
#     Edge 34, Type (0, 0), BuildingBlock: KIFKEQ_clean_linker_1, # of connection points: 2
#     Edge 35, Type (0, 0), BuildingBlock: KIFKEQ_clean_linker_1, # of connection points: 2
#     Edge 36, Type (0, 0), BuildingBlock: KIFKEQ_clean_linker_1, # of connection points: 2
#     Edge 37, Type (0, 0), BuildingBlock: KIFKEQ_clean_linker_1, # of connection points: 2
#     Edge 38, Type (0, 0), BuildingBlock: KIFKEQ_clean_linker_1, # of connection points: 2
#     Edge 39, Type (0, 0), BuildingBlock: KIFKEQ_clean_linker_1, # of connection points: 2
#     Edge 40, Type (0, 0), BuildingBlock: KIFKEQ_clean_linker_1, # of connection points: 2
#     Edge 41, Type (0, 0), BuildingBlock: KIFKEQ_clean_linker_1, # of connection points: 2
#     Edge 42, Type (0, 0), BuildingBlock: KIFKEQ_clean_linker_1, # of connection points: 2
#     Edge 43, Type (0, 0), BuildingBlock: KIFKEQ_clean_linker_1, # of connection points: 2
#     Edge 44, Type (0, 0), BuildingBlock: KIFKEQ_clean_linker_1, # of connection points: 2
#     Edge 45, Type (0, 0), BuildingBlock: KIFKEQ_clean_linker_1, # of connection points: 2
#     Edge 46, Type (0, 0), BuildingBlock: KIFKEQ_clean_linker_1, # of connection points: 2
#     Edge 47, Type (0, 0), BuildingBlock: KIFKEQ_clean_linker_1, # of connection points: 2
#     Edge 48, Type (0, 0), BuildingBlock: KIFKEQ_clean_linker_1, # of connection points: 2
#     Edge 49, Type (0, 0), BuildingBlock: KIFKEQ_clean_linker_1, # of connection points: 2
#     Edge 50, Type (0, 0), BuildingBlock: KIFKEQ_clean_linker_1, # of connection points: 2
#     Edge 51, Type (0, 0), BuildingBlock: KIFKEQ_clean_linker_1, # of connection points: 2
#     Edge 52, Type (0, 0), BuildingBlock: KIFKEQ_clean_linker_1, # of connection points: 2
#     Edge 53, Type (0, 0), BuildingBlock: KIFKEQ_clean_linker_1, # of connection points: 2
#     Edge 54, Type (0, 0), BuildingBlock: KIFKEQ_clean_linker_1, # of connection points: 2
#     Edge 55, Type (0, 0), BuildingBlock: KIFKEQ_clean_linker_1, # of connection points: 2
#     Edge 56, Type (0, 0), BuildingBlock: KIFKEQ_clean_linker_1, # of connection points: 2
#     Edge 57, Type (0, 0), BuildingBlock: KIFKEQ_clean_linker_1, # of connection points: 2
#     Edge 58, Type (0, 0), BuildingBlock: KIFKEQ_clean_linker_1, # of connection points: 2
#     Edge 59, Type (0, 0), BuildingBlock: KIFKEQ_clean_linker_1, # of connection points: 2
#     Edge 60, Type (0, 0), BuildingBlock: KIFKEQ_clean_linker_1, # of connection points: 2
#     Edge 61, Type (0, 0), BuildingBlock: KIFKEQ_clean_linker_1, # of connection points: 2
#     Edge 62, Type (0, 0), BuildingBlock: KIFKEQ_clean_linker_1, # of connection points: 2
#     Edge 63, Type (0, 0), BuildingBlock: KIFKEQ_clean_linker_1, # of connection points: 2
#     Edge 64, Type (0, 0), BuildingBlock: KIFKEQ_clean_linker_1, # of connection points: 2
#     Edge 65, Type (0, 0), BuildingBlock: KIFKEQ_clean_linker_1, # of connection points: 2
#     Edge 66, Type (0, 0), BuildingBlock: KIFKEQ_clean_linker_1, # of connection points: 2
#     Edge 67, Type (0, 0), BuildingBlock: KIFKEQ_clean_linker_1, # of connection points: 2
#     Edge 68, Type (0, 0), BuildingBlock: KIFKEQ_clean_linker_1, # of connection points: 2
#     Edge 69, Type (0, 0), BuildingBlock: KIFKEQ_clean_linker_1, # of connection points: 2
#     Edge 70, Type (0, 0), BuildingBlock: KIFKEQ_clean_linker_1, # of connection points: 2
#     Edge 71, Type (0, 0), BuildingBlock: KIFKEQ_clean_linker_1, # of connection points: 2
# Relax obj value: 0.095
# Max RMSD: 0.113
# Mean RMSD: 0.113
data_MOF--net-umk--node1-TATPOV_clean_sbu_0--edge1-KIFKEQ_clean_linker_1
_symmetry_space_group_name_H-M    P1
_symmetry_Int_Tables_number       1
_symmetry_cell_setting            triclinic
loop_
_symmetry_equiv_pos_as_xyz
'x, y, z'
_cell_length_a     66.358226
_cell_length_b     66.435586
_cell_length_c     44.051578
_cell_angle_alpha  90.077381
_cell_angle_beta   89.925335
_cell_angle_gamma 120.10405
loop_
_atom_site_label
_atom_site_type_symbol
_atom_site_fract_x
_atom_site_fract_y
_atom_site_fract_z
_atom_type_partial_charge
Zn0 Zn 0.3633 0.44823 0.04849 0.0
Zn1 Zn 0.3253 0.444 0.02969 0.0
O2 O 0.32217 0.44585 0.07621 0.0
O3 O 0.35143 0.44173 0.09135 0.0
O4 O 0.29545 0.44086 0.01384 0.0
O5 O 0.38198 0.48116 0.03479 0.0
O6 O 0.35057 0.47522 0.01041 0.0
C7 C 0.33367 0.44334 0.09756 0.0
C8 C 0.34025 0.40866 0.01189 0.0
O9 O 0.32409 0.41357 0.01501 0.0
O10 O 0.36042 0.42248 0.02195 0.0
C11 C 0.27611 0.42191 0.01565 0.0
O12 O 0.27547 0.40368 0.02824 0.0
C13 C 0.37213 0.48824 0.01666 0.0
Zn14 Zn 0.89851 0.36899 0.637 0.0
Zn15 Zn 0.8834 0.33798 0.59178 0.0
O16 O 0.86493 0.31864 0.62939 0.0
O17 O 0.87717 0.34467 0.66618 0.0
O18 O 0.86938 0.31466 0.55781 0.0
O19 O 0.88833 0.38894 0.61485 0.0
O20 O 0.87602 0.36316 0.57793 0.0
C21 C 0.86447 0.32401 0.65704 0.0
C22 C 0.93496 0.36372 0.60865 0.0
O23 O 0.91878 0.34954 0.59103 0.0
O24 O 0.93046 0.37358 0.63009 0.0
C25 C 0.86335 0.29334 0.56085 0.0
O26 O 0.86792 0.28632 0.58646 0.0
C27 C 0.87894 0.38217 0.58904 0.0
Zn28 Zn 0.48843 0.85358 0.14442 0.0
Zn29 Zn 0.51554 0.84656 0.10579 0.0
O30 O 0.51886 0.83293 0.14617 0.0
O31 O 0.49483 0.83642 0.17724 0.0
O32 O 0.53149 0.83635 0.07589 0.0
O33 O 0.45988 0.83653 0.11824 0.0
O34 O 0.48317 0.83286 0.08602 0.0
C35 C 0.50941 0.82982 0.17222 0.0
C36 C 0.52913 0.89606 0.11995 0.0
O37 O 0.53368 0.88209 0.10573 0.0
O38 O 0.51134 0.88817 0.13705 0.0
C39 C 0.54879 0.83379 0.08194 0.0
O40 O 0.55853 0.83976 0.10887 0.0
C41 C 0.46312 0.82973 0.09283 0.0
Zn42 Zn 0.63013 0.52832 0.63033 0.0
Zn43 Zn 0.66879 0.54253 0.59758 0.0
O44 O 0.67822 0.5381 0.64101 0.0
O45 O 0.64551 0.5245 0.66698 0.0
O46 O 0.69765 0.55057 0.57343 0.0
O47 O 0.61223 0.50111 0.60202 0.0
O48 O 0.64453 0.5126 0.57607 0.0
C49 C 0.66679 0.5304 0.66564 0.0
C50 C 0.64728 0.57369 0.60361 0.0
O51 O 0.66234 0.56973 0.59122 0.0
O52 O 0.63241 0.5592 0.62199 0.0
C53 C 0.71735 0.56897 0.57619 0.0
O54 O 0.71966 0.58521 0.59526 0.0
C55 C 0.62293 0.49825 0.58012 0.0
Zn56 Zn 0.1032 0.61568 0.09569 0.0
Zn57 Zn 0.11927 0.65063 0.05709 0.0
O58 O 0.1354 0.66515 0.09824 0.0
O59 O 0.12647 0.63499 0.12747 0.0
O60 O 0.135 0.6776 0.02823 0.0
O61 O 0.11021 0.5963 0.06734 0.0
O62 O 0.12549 0.62628 0.03638 0.0
C63 C 0.1374 0.65675 0.12331 0.0
C64 C 0.06851 0.62697 0.07397 0.0
O65 O 0.08474 0.64111 0.05648 0.0
O66 O 0.07232 0.61515 0.09332 0.0
C67 C 0.14088 0.69833 0.03562 0.0
O68 O 0.13543 0.70242 0.06273 0.0
C69 C 0.12052 0.60557 0.04272 0.0
Zn70 Zn 0.49762 0.14174 0.6238 0.0
Zn71 Zn 0.47662 0.15448 0.58315 0.0
O72 O 0.47222 0.16741 0.62375 0.0
O73 O 0.49358 0.1608 0.65588 0.0
O74 O 0.46468 0.16859 0.55312 0.0
O75 O 0.52765 0.15599 0.60059 0.0
O76 O 0.50996 0.1663 0.56706 0.0
C77 C 0.48075 0.16938 0.65019 0.0
C78 C 0.45594 0.10333 0.59506 0.0
O79 O 0.45557 0.11924 0.5794 0.0
O80 O 0.47148 0.10857 0.61518 0.0
C81 C 0.44554 0.16845 0.55571 0.0
O82 O 0.43143 0.15699 0.57825 0.0
C83 C 0.52802 0.16583 0.57589 0.0
Zn84 Zn 0.5412 0.6418 0.88247 0.0
Zn85 Zn 0.54432 0.67417 0.9203 0.0
O86 O 0.54759 0.68882 0.87786 0.0
O87 O 0.5493 0.66345 0.8473 0.0
O88 O 0.54585 0.69907 0.94763 0.0
O89 O 0.5077 0.62053 0.89477 0.0
O90 O 0.51176 0.64623 0.92935 0.0
C91 C 0.55024 0.68273 0.85141 0.0
C92 C 0.57754 0.65508 0.9262 0.0
O93 O 0.57147 0.66958 0.93485 0.0
O94 O 0.56691 0.64096 0.90485 0.0
C95 C 0.56481 0.71748 0.95407 0.0
O96 O 0.58452 0.72028 0.94331 0.0
C97 C 0.49944 0.62646 0.91671 0.0
Zn98 Zn 0.89623 0.53383 0.40497 0.0
Zn99 Zn 0.87496 0.54716 0.44274 0.0
O100 O 0.85856 0.54402 0.40134 0.0
O101 O 0.87247 0.52653 0.37284 0.0
O102 O 0.85554 0.55438 0.471 0.0
O103 O 0.89239 0.50802 0.43199 0.0
O104 O 0.87121 0.51683 0.46156 0.0
C105 C 0.8586 0.53414 0.37654 0.0
C106 C 0.92595 0.5801 0.4284 0.0
O107 O 0.90858 0.57511 0.4456 0.0
O108 O 0.92451 0.56596 0.40805 0.0
C109 C 0.85258 0.57174 0.46769 0.0
O110 O 0.86381 0.58679 0.44594 0.0
C111 C 0.8796 0.50376 0.45515 0.0
Zn112 Zn 0.36793 0.86086 0.8848 0.0
Zn113 Zn 0.32484 0.8415 0.90765 0.0
O114 O 0.31891 0.83216 0.86231 0.0
O115 O 0.35448 0.84834 0.84364 0.0
O116 O 0.29316 0.82499 0.92723 0.0
O117 O 0.37653 0.84198 0.91136 0.0
O118 O 0.34254 0.82931 0.93363 0.0
C119 C 0.33265 0.83636 0.83992 0.0
C120 C 0.35589 0.89388 0.91074 0.0
O121 O 0.33589 0.87594 0.91431 0.0
O122 O 0.37253 0.89197 0.89973 0.0
C123 C 0.27377 0.81726 0.91365 0.0
O124 O 0.27347 0.82032 0.88424 0.0
C125 C 0.36216 0.83019 0.93195 0.0
Zn126 Zn 0.48716 0.37584 0.37426 0.0
Zn127 Zn 0.46831 0.34171 0.41459 0.0
O128 O 0.46685 0.32574 0.37375 0.0
O129 O 0.48758 0.35447 0.34223 0.0
O130 O 0.45803 0.31533 0.44387 0.0
O131 O 0.51539 0.39482 0.40053 0.0
O132 O 0.50017 0.36547 0.43245 0.0
C133 C 0.47591 0.33288 0.34765 0.0
C134 C 0.44286 0.36723 0.40073 0.0
O135 O 0.44468 0.35278 0.4178 0.0
O136 O 0.45783 0.37808 0.38015 0.0
C137 C 0.43991 0.29544 0.44085 0.0
O138 O 0.42554 0.29181 0.4183 0.0
C139 C 0.51658 0.38565 0.42513 0.0
Zn140 Zn 0.09033 0.45199 0.85209 0.0
Zn141 Zn 0.11449 0.44122 0.89135 0.0
O142 O 0.12895 0.44152 0.84956 0.0
O143 O 0.1083 0.44913 0.81731 0.0
O144 O 0.13422 0.43476 0.91977 0.0
O145 O 0.10161 0.48277 0.87438 0.0
O146 O 0.12081 0.47301 0.90614 0.0
C147 C 0.12435 0.44459 0.82248 0.0
C148 C 0.06139 0.41054 0.88686 0.0
O149 O 0.08051 0.41523 0.89961 0.0
O150 O 0.06112 0.42326 0.86569 0.0
C151 C 0.13787 0.41792 0.91573 0.0
O152 O 0.12735 0.40336 0.89324 0.0
C153 C 0.11463 0.48738 0.89743 0.0
Zn154 Zn 0.64003 0.13634 0.39158 0.0
Zn155 Zn 0.68328 0.16138 0.41162 0.0
O156 O 0.68697 0.16931 0.36573 0.0
O157 O 0.65105 0.14711 0.34933 0.0
O158 O 0.71532 0.18268 0.42843 0.0
O159 O 0.6288 0.15412 0.41567 0.0
O160 O 0.66349 0.17164 0.43705 0.0
C161 C 0.67218 0.16187 0.34417 0.0
C162 C 0.65749 0.10887 0.4199 0.0
O163 O 0.67656 0.1282 0.42101 0.0
O164 O 0.63925 0.10792 0.40949 0.0
C165 C 0.73118 0.17762 0.43296 0.0
O166 O 0.72734 0.15677 0.42592 0.0
C167 C 0.64279 0.16812 0.4351 0.0
Zn168 Zn 0.60948 0.50753 0.90425 0.0
Zn169 Zn 0.6431 0.51445 0.94048 0.0
O170 O 0.65386 0.51037 0.8977 0.0
O171 O 0.62222 0.49743 0.86998 0.0
O172 O 0.66965 0.51906 0.96714 0.0
O173 O 0.58559 0.48399 0.93242 0.0
O174 O 0.61428 0.48593 0.95965 0.0
C175 C 0.64322 0.50249 0.8726 0.0
C176 C 0.63317 0.55362 0.92925 0.0
O177 O 0.64297 0.54521 0.94561 0.0
O178 O 0.6192 0.54145 0.90842 0.0
C179 C 0.69051 0.53251 0.95852 0.0
O180 O 0.69428 0.54335 0.93239 0.0
C181 C 0.59251 0.47686 0.95448 0.0
Zn182 Zn 0.11398 0.64324 0.377 0.0
Zn183 Zn 0.14172 0.6828 0.40271 0.0
O184 O 0.14868 0.69034 0.357 0.0
O185 O 0.11975 0.65893 0.33634 0.0
O186 O 0.1657 0.7124 0.42306 0.0
O187 O 0.13285 0.62874 0.39041 0.0
O188 O 0.1506 0.65939 0.42009 0.0
C189 C 0.13709 0.67923 0.33367 0.0
C190 C 0.09002 0.65814 0.41711 0.0
O191 O 0.10945 0.67718 0.41703 0.0
O192 O 0.088 0.64037 0.40365 0.0
C193 C 0.16383 0.72997 0.43003 0.0
O194 O 0.14438 0.72983 0.424 0.0
C195 C 0.14687 0.63941 0.41184 0.0
Zn196 Zn 0.45322 0.09194 0.8612 0.0
Zn197 Zn 0.44148 0.11208 0.90575 0.0
O198 O 0.43788 0.1272 0.86684 0.0
O199 O 0.4468 0.11023 0.8304 0.0
O200 O 0.43425 0.12885 0.93804 0.0
O201 O 0.48519 0.10439 0.88059 0.0
O202 O 0.4749 0.12091 0.91597 0.0
C203 C 0.44032 0.12432 0.8388 0.0
C204 C 0.41424 0.05921 0.89726 0.0
O205 O 0.41801 0.07712 0.91247 0.0
O206 O 0.42651 0.06112 0.87425 0.0
C207 C 0.41578 0.1301 0.9371 0.0
O208 O 0.40043 0.1189 0.91563 0.0
C209 C 0.48997 0.11662 0.90445 0.0
Zn210 Zn 0.38784 0.50458 0.36063 0.0
Zn211 Zn 0.34511 0.48668 0.38118 0.0
O212 O 0.34 0.48453 0.33468 0.0
O213 O 0.37581 0.49825 0.31801 0.0
O214 O 0.31327 0.47648 0.39854 0.0
O215 O 0.39895 0.53576 0.37889 0.0
O216 O 0.36455 0.51957 0.40074 0.0
C217 C 0.35428 0.48958 0.31272 0.0
C218 C 0.37329 0.46346 0.39671 0.0
O219 O 0.35366 0.46256 0.39638 0.0
O220 O 0.39092 0.48028 0.38434 0.0
C221 C 0.2988 0.45634 0.40852 0.0
O222 O 0.30396 0.43968 0.40711 0.0
C223 C 0.38499 0.53704 0.39724 0.0
Zn224 Zn 0.86374 0.35458 0.89839 0.0
Zn225 Zn 0.84449 0.31402 0.92696 0.0
O226 O 0.83226 0.30489 0.88299 0.0
O227 O 0.848 0.3387 0.85961 0.0
O228 O 0.82761 0.28355 0.94963 0.0
O229 O 0.84838 0.36706 0.92494 0.0
O230 O 0.83447 0.33464 0.95122 0.0
C231 C 0.83521 0.31679 0.85904 0.0
C232 C 0.89731 0.34328 0.92314 0.0
O233 O 0.8793 0.32415 0.93048 0.0
O234 O 0.89525 0.35916 0.91016 0.0
C235 C 0.821 0.26386 0.93738 0.0
O236 O 0.8261 0.26292 0.90877 0.0
C237 C 0.83684 0.35477 0.9473 0.0
Zn238 Zn 0.55937 0.91367 0.38121 0.0
Zn239 Zn 0.57145 0.89367 0.42481 0.0
O240 O 0.57063 0.8761 0.38544 0.0
O241 O 0.56372 0.8948 0.34939 0.0
O242 O 0.5782 0.87596 0.45623 0.0
O243 O 0.52782 0.90188 0.40152 0.0
O244 O 0.5397 0.88835 0.43883 0.0
C245 C 0.56806 0.87912 0.35748 0.0
C246 C 0.60093 0.94596 0.41402 0.0
O247 O 0.59746 0.92808 0.42899 0.0
O248 O 0.58718 0.94421 0.39295 0.0
C249 C 0.59369 0.87027 0.45255 0.0
O250 O 0.60731 0.87794 0.4286 0.0
C251 C 0.52426 0.89195 0.4271 0.0
Zn252 Zn 0.41998 0.33174 0.11327 0.0
Zn253 Zn 0.42342 0.30035 0.08025 0.0
O254 O 0.42386 0.2904 0.12475 0.0
O255 O 0.41933 0.31573 0.15185 0.0
O256 O 0.42445 0.27499 0.05675 0.0
O257 O 0.45062 0.35642 0.09461 0.0
O258 O 0.4535 0.32992 0.06797 0.0
C259 C 0.42172 0.29804 0.1504 0.0
C260 C 0.38255 0.30963 0.0716 0.0
O261 O 0.39385 0.2997 0.06327 0.0
O262 O 0.38975 0.32374 0.09364 0.0
C263 C 0.40701 0.25448 0.0574 0.0
O264 O 0.38851 0.25044 0.07314 0.0
C265 C 0.46164 0.35108 0.07576 0.0
Zn266 Zn 0.14808 0.5077 0.6003 0.0
Zn267 Zn 0.15506 0.48141 0.56227 0.0
O268 O 0.17022 0.48022 0.60306 0.0
O269 O 0.16784 0.50554 0.63277 0.0
O270 O 0.16668 0.46669 0.53206 0.0
O271 O 0.16126 0.5357 0.57365 0.0
O272 O 0.16446 0.51269 0.54049 0.0
C273 C 0.17433 0.49083 0.62844 0.0
C274 C 0.10593 0.46409 0.58115 0.0
O275 O 0.11974 0.4605 0.56494 0.0
O276 O 0.11383 0.48239 0.59722 0.0
C277 C 0.17352 0.45248 0.53877 0.0
O278 O 0.17145 0.44507 0.56686 0.0
C279 C 0.16649 0.53229 0.54732 0.0
Zn280 Zn 0.61369 0.11091 0.1102 0.0
Zn281 Zn 0.64722 0.11773 0.07296 0.0
O282 O 0.66352 0.1385 0.11071 0.0
O283 O 0.63479 0.13693 0.13753 0.0
O284 O 0.67444 0.12787 0.04444 0.0
O285 O 0.59613 0.11693 0.07833 0.0
O286 O 0.62523 0.12491 0.04742 0.0
C287 C 0.65635 0.1452 0.13326 0.0
C288 C 0.61821 0.07001 0.10071 0.0
O289 O 0.63345 0.0826 0.08099 0.0
O290 O 0.60837 0.07848 0.11673 0.0
C291 C 0.6946 0.13331 0.05411 0.0
O292 O 0.69715 0.12965 0.08279 0.0
C293 C 0.60557 0.12338 0.05253 0.0
Zn294 Zn 0.51051 0.63647 0.60568 0.0
Zn295 Zn 0.53261 0.67703 0.57632 0.0
O296 O 0.53136 0.68687 0.62014 0.0
O297 O 0.51203 0.65348 0.64431 0.0
O298 O 0.54565 0.70744 0.55427 0.0
O299 O 0.48227 0.6245 0.5795 0.0
O300 O 0.50115 0.65717 0.55385 0.0
C301 C 0.52234 0.67549 0.64441 0.0
C302 C 0.55499 0.64693 0.57866 0.0
O303 O 0.55651 0.66614 0.57102 0.0
O304 O 0.53717 0.63159 0.59266 0.0
C305 C 0.56633 0.72446 0.55658 0.0
O306 O 0.58147 0.72235 0.57345 0.0
C307 C 0.48305 0.63725 0.55773 0.0
Zn308 Zn 0.87603 0.50535 0.12905 0.0
Zn309 Zn 0.84956 0.5175 0.09803 0.0
O310 O 0.84198 0.52131 0.14229 0.0
O311 O 0.86798 0.51648 0.16732 0.0
O312 O 0.82846 0.52467 0.0731 0.0
O313 O 0.85752 0.47211 0.11493 0.0
O314 O 0.83915 0.48384 0.08464 0.0
C315 C 0.85195 0.52154 0.16702 0.0
C316 C 0.90216 0.54288 0.0878 0.0
O317 O 0.88278 0.54224 0.08438 0.0
O318 O 0.90356 0.52804 0.10426 0.0
C319 C 0.81946 0.53641 0.08287 0.0
O320 O 0.82446 0.54521 0.11037 0.0
C321 C 0.84307 0.4679 0.09374 0.0
Zn322 Zn 0.38295 0.90072 0.60168 0.0
Zn323 Zn 0.34745 0.88173 0.5627 0.0
O324 O 0.33364 0.86447 0.60353 0.0
O325 O 0.36265 0.88196 0.63602 0.0
O326 O 0.32031 0.86444 0.53416 0.0
O327 O 0.40062 0.88899 0.57727 0.0
O328 O 0.37314 0.87727 0.54252 0.0
C329 C 0.34172 0.86699 0.63037 0.0
C330 C 0.37152 0.93366 0.57519 0.0
O331 O 0.35511 0.91595 0.56195 0.0
O332 O 0.38566 0.93166 0.59244 0.0
C333 C 0.29975 0.85935 0.54149 0.0
O334 O 0.29631 0.8668 0.56756 0.0
C335 C 0.39273 0.88025 0.55146 0.0
H336 H 0.30861 0.4623 0.12157 0.0
H337 H 0.34728 0.42834 0.14639 0.0
H338 H 0.30824 0.4727 0.1751 0.0
H339 H 0.34683 0.43875 0.1993 0.0
H340 H 0.38074 0.50445 0.26179 0.0
H341 H 0.36924 0.49012 0.21031 0.0
H342 H 0.29803 0.44708 0.23941 0.0
H343 H 0.30949 0.46132 0.29177 0.0
C344 C 0.31632 0.45641 0.13849 0.0
C345 C 0.32833 0.44486 0.12977 0.0
C346 C 0.31606 0.46233 0.16901 0.0
C347 C 0.32762 0.45657 0.19097 0.0
C348 C 0.33783 0.44335 0.1826 0.0
C349 C 0.33815 0.4375 0.15233 0.0
C350 C 0.36253 0.49221 0.25735 0.0
C351 C 0.34608 0.48377 0.28099 0.0
C352 C 0.356 0.48408 0.22785 0.0
C353 C 0.33287 0.46746 0.22122 0.0
C354 C 0.31598 0.45998 0.2442 0.0
C355 C 0.32255 0.46813 0.27402 0.0
H356 H 0.81892 0.30895 0.66766 0.0
H357 H 0.877 0.30232 0.69803 0.0
H358 H 0.79973 0.29454 0.71676 0.0
H359 H 0.85822 0.2882 0.74701 0.0
H360 H 0.8309 0.27605 0.83809 0.0
H361 H 0.82738 0.26442 0.78462 0.0
H362 H 0.81607 0.32102 0.7604 0.0
H363 H 0.81974 0.33251 0.81325 0.0
C364 C 0.82692 0.30314 0.68428 0.0
C365 C 0.84933 0.30666 0.67935 0.0
C366 C 0.81606 0.29506 0.71243 0.0
C367 C 0.82766 0.29069 0.736 0.0
C368 C 0.8487 0.29127 0.7294 0.0
C369 C 0.85954 0.2994 0.70133 0.0
C370 C 0.82671 0.28533 0.82137 0.0
C371 C 0.82602 0.30542 0.82954 0.0
C372 C 0.82475 0.27873 0.79081 0.0
C373 C 0.82174 0.29195 0.7682 0.0
C374 C 0.81822 0.3103 0.77711 0.0
C375 C 0.82054 0.31707 0.80743 0.0
H376 H 0.59109 0.89099 0.30421 0.0
H377 H 0.54301 0.83175 0.35748 0.0
H378 H 0.57956 0.86713 0.25881 0.0
H379 H 0.531 0.80753 0.31163 0.0
H380 H 0.48779 0.81205 0.2262 0.0
H381 H 0.50715 0.81406 0.27366 0.0
H382 H 0.57102 0.83387 0.2251 0.0
H383 H 0.55152 0.83191 0.17732 0.0
C384 C 0.57883 0.87252 0.30633 0.0
C385 C 0.56767 0.8632 0.33404 0.0
C386 C 0.57226 0.85873 0.28033 0.0
C387 C 0.55401 0.83548 0.28151 0.0
C388 C 0.54496 0.82544 0.31003 0.0
C389 C 0.55188 0.83924 0.33626 0.0
C390 C 0.5057 0.81589 0.22549 0.0
C391 C 0.51836 0.8226 0.19822 0.0
C392 C 0.5168 0.81682 0.25275 0.0
C393 C 0.54082 0.82472 0.25321 0.0
C394 C 0.55258 0.82808 0.22544 0.0
C395 C 0.54139 0.82695 0.19807 0.0
H396 H 0.62569 0.47269 0.82515 0.0
H397 H 0.68863 0.53257 0.85742 0.0
H398 H 0.64194 0.47897 0.77438 0.0
H399 H 0.70509 0.53908 0.80612 0.0
H400 H 0.68806 0.56225 0.70998 0.0
H401 H 0.69135 0.55317 0.76272 0.0
H402 H 0.671 0.48274 0.73679 0.0
H403 H 0.66741 0.49197 0.68403 0.0
C404 C 0.64338 0.48673 0.82154 0.0
C405 C 0.65578 0.50232 0.84504 0.0
C406 C 0.65282 0.49027 0.79243 0.0
C407 C 0.67476 0.5097 0.7861 0.0
C408 C 0.68808 0.52406 0.81029 0.0
C409 C 0.67872 0.52026 0.83966 0.0
C410 C 0.68552 0.54523 0.71542 0.0
C411 C 0.6776 0.52781 0.6932 0.0
C412 C 0.6874 0.53997 0.74563 0.0
C413 C 0.68107 0.5171 0.75402 0.0
C414 C 0.67574 0.50043 0.73105 0.0
C415 C 0.67387 0.50573 0.70086 0.0
H416 H 0.10979 0.68014 0.28898 0.0
H417 H 0.18056 0.69836 0.30904 0.0
H418 H 0.11906 0.68595 0.23501 0.0
H419 H 0.18978 0.70349 0.25456 0.0
H420 H 0.16228 0.65026 0.16707 0.0
H421 H 0.17026 0.66724 0.21777 0.0
H422 H 0.14507 0.71311 0.19069 0.0
H423 H 0.13764 0.69646 0.13947 0.0
C424 C 0.12755 0.68619 0.28181 0.0
C425 C 0.14446 0.68875 0.30295 0.0
C426 C 0.13292 0.68966 0.25096 0.0
C427 C 0.15514 0.69514 0.24063 0.0
C428 C 0.17257 0.69939 0.26201 0.0
C429 C 0.16732 0.69651 0.29308 0.0
C430 C 0.15947 0.66471 0.17156 0.0
C431 C 0.14913 0.67191 0.14957 0.0
C432 C 0.16414 0.67452 0.20055 0.0
C433 C 0.15807 0.69133 0.20818 0.0
C434 C 0.1499 0.70017 0.1853 0.0
C435 C 0.14572 0.6907 0.15602 0.0
H436 H 0.41501 0.10831 0.78765 0.0
H437 H 0.45931 0.17143 0.83704 0.0
H438 H 0.41984 0.13069 0.74205 0.0
H439 H 0.46469 0.19421 0.79086 0.0
H440 H 0.50554 0.19272 0.69985 0.0
H441 H 0.48886 0.191 0.74942 0.0
H442 H 0.42055 0.16168 0.70905 0.0
H443 H 0.43748 0.1636 0.65908 0.0
C444 C 0.42499 0.12713 0.78894 0.0
C445 C 0.4371 0.1382 0.81548 0.0
C446 C 0.42763 0.14006 0.76288 0.0
C447 C 0.44296 0.16426 0.76271 0.0
C448 C 0.45287 0.17558 0.79033 0.0
C449 C 0.44981 0.16259 0.8167 0.0
C450 C 0.48715 0.18705 0.70136 0.0
C451 C 0.47267 0.17764 0.67593 0.0
C452 C 0.47754 0.18621 0.72981 0.0
C453 C 0.45326 0.17554 0.73324 0.0
C454 C 0.43929 0.16967 0.70706 0.0
C455 C 0.44899 0.1708 0.67844 0.0
H456 H 0.55993 0.71652 0.66224 0.0
H457 H 0.49285 0.66143 0.69247 0.0
H458 H 0.56978 0.73064 0.71459 0.0
H459 H 0.50241 0.67576 0.74434 0.0
H460 H 0.52176 0.69953 0.83622 0.0
H461 H 0.51564 0.70883 0.7844 0.0
H462 H 0.57551 0.70491 0.75417 0.0
H463 H 0.58113 0.69506 0.80548 0.0
C464 C 0.54696 0.70804 0.67986 0.0
C465 C 0.5258 0.68767 0.67356 0.0
C466 C 0.55259 0.71614 0.70973 0.0
C467 C 0.5369 0.70425 0.73347 0.0
C468 C 0.51475 0.68543 0.72649 0.0
C469 C 0.50935 0.67707 0.69684 0.0
C470 C 0.53421 0.7018 0.81871 0.0
C471 C 0.55177 0.69642 0.82451 0.0
C472 C 0.53068 0.70704 0.78912 0.0
C473 C 0.54499 0.70739 0.7653 0.0
C474 C 0.56434 0.70496 0.77209 0.0
C475 C 0.56751 0.69921 0.80142 0.0
H476 H 0.829 0.49632 0.34405 0.0
H477 H 0.85867 0.57071 0.34904 0.0
H478 H 0.81877 0.49675 0.29107 0.0
H479 H 0.84895 0.57132 0.29551 0.0
H480 H 0.80886 0.50261 0.19299 0.0
H481 H 0.80059 0.50814 0.24587 0.0
H482 H 0.87274 0.561 0.2576 0.0
H483 H 0.88096 0.55488 0.20559 0.0
C484 C 0.83222 0.51259 0.33414 0.0
C485 C 0.84468 0.53348 0.35033 0.0
C486 C 0.82632 0.51286 0.30383 0.0
C487 C 0.83335 0.53412 0.28913 0.0
C488 C 0.84336 0.55473 0.30639 0.0
C489 C 0.84884 0.55437 0.33698 0.0
C490 C 0.82266 0.51587 0.20675 0.0
C491 C 0.84556 0.52819 0.19565 0.0
C492 C 0.81795 0.51907 0.23684 0.0
C493 C 0.83599 0.53508 0.25573 0.0
C494 C 0.85841 0.54883 0.24348 0.0
C495 C 0.8632 0.54519 0.21384 0.0
H496 H 0.32289 0.88115 0.67354 0.0
H497 H 0.32972 0.82275 0.64523 0.0
H498 H 0.31071 0.86413 0.72391 0.0
H499 H 0.31748 0.80546 0.69583 0.0
H500 H 0.35201 0.82433 0.79447 0.0
H501 H 0.34357 0.82285 0.74062 0.0
H502 H 0.28516 0.83242 0.76064 0.0
H503 H 0.29361 0.83367 0.81504 0.0
C504 C 0.32064 0.86408 0.67779 0.0
C505 C 0.32705 0.85312 0.65573 0.0
C506 C 0.31362 0.85427 0.7066 0.0
C507 C 0.31334 0.83354 0.71393 0.0
C508 C 0.31765 0.8215 0.69083 0.0
C509 C 0.32449 0.83127 0.66188 0.0
C510 C 0.33689 0.82533 0.78744 0.0
C511 C 0.32365 0.82942 0.8088 0.0
C512 C 0.33191 0.82429 0.75656 0.0
C513 C 0.31379 0.8277 0.74635 0.0
C514 C 0.29929 0.82983 0.7679 0.0
C515 C 0.30406 0.83046 0.79898 0.0
H516 H 0.43737 0.28975 0.34174 0.0
H517 H 0.50037 0.33926 0.29548 0.0
H518 H 0.42178 0.2689 0.29395 0.0
H519 H 0.48495 0.31843 0.24804 0.0
H520 H 0.45397 0.28527 0.16296 0.0
H521 H 0.46737 0.28278 0.21393 0.0
H522 H 0.41036 0.28793 0.25294 0.0
H523 H 0.3974 0.2908 0.20238 0.0
C524 C 0.44828 0.29561 0.32168 0.0
C525 C 0.46984 0.31643 0.3221 0.0
C526 C 0.43934 0.28368 0.29434 0.0
C527 C 0.452 0.29222 0.26721 0.0
C528 C 0.47479 0.31132 0.26854 0.0
C529 C 0.48356 0.32341 0.2957 0.0
C530 C 0.44377 0.28479 0.18246 0.0
C531 C 0.42487 0.28852 0.17896 0.0
C532 C 0.45147 0.28346 0.21158 0.0
C533 C 0.44007 0.28541 0.2374 0.0
C534 C 0.41945 0.28619 0.23356 0.0
C535 C 0.41207 0.28798 0.2046 0.0
H536 H 0.16615 0.4469 0.639 0.0
H537 H 0.19672 0.51533 0.67906 0.0
H538 H 0.16135 0.42993 0.68946 0.0
H539 H 0.19206 0.49845 0.72928 0.0
H540 H 0.10809 0.4239 0.76828 0.0
H541 H 0.13024 0.43114 0.72162 0.0
H542 H 0.19419 0.47303 0.7711 0.0
H543 H 0.17171 0.46516 0.81835 0.0
C544 C 0.17303 0.45845 0.65838 0.0
C545 C 0.18121 0.48237 0.65525 0.0
C546 C 0.17017 0.44869 0.68731 0.0
C547 C 0.17575 0.4628 0.71333 0.0
C548 C 0.1875 0.48709 0.70973 0.0
C549 C 0.19009 0.49679 0.68089 0.0
C550 C 0.12694 0.43391 0.76935 0.0
C551 C 0.13823 0.44417 0.79668 0.0
C552 C 0.13969 0.43791 0.74267 0.0
C553 C 0.16399 0.45274 0.74266 0.0
C554 C 0.17549 0.4615 0.77051 0.0
C555 C 0.16268 0.457 0.79746 0.0
H556 H 0.64651 0.1694 0.30361 0.0
H557 H 0.71271 0.17261 0.31399 0.0
H558 H 0.65302 0.17569 0.24967 0.0
H559 H 0.71953 0.17908 0.25901 0.0
H560 H 0.65998 0.18451 0.1567 0.0
H561 H 0.67426 0.19965 0.20743 0.0
H562 H 0.70037 0.152 0.21621 0.0
H563 H 0.68725 0.13798 0.16472 0.0
C564 C 0.66278 0.17203 0.2943 0.0
C565 C 0.67896 0.17022 0.3128 0.0
C566 C 0.66671 0.17594 0.26333 0.0
C567 C 0.68686 0.17793 0.24987 0.0
C568 C 0.70382 0.17757 0.2687 0.0
C569 C 0.69998 0.17395 0.30008 0.0
C570 C 0.66988 0.17823 0.16894 0.0
C571 C 0.67232 0.15995 0.15719 0.0
C572 C 0.67792 0.18673 0.19805 0.0
C573 C 0.68767 0.17643 0.21626 0.0
C574 C 0.69287 0.1603 0.20288 0.0
C575 C 0.68533 0.1522 0.17337 0.0
H576 H 0.1515 0.38532 0.9118 0.0
H577 H 0.16491 0.44722 0.96091 0.0
H578 H 0.18386 0.3854 0.93821 0.0
H579 H 0.19703 0.44709 0.98743 0.0
H580 H 0.27089 0.45727 0.99311 0.0
H581 H 0.23597 0.45487 0.97163 0.0
H582 H 0.19775 0.38091 0.98888 0.0
H583 H 0.23284 0.38323 0.01022 0.0
C584 C 0.16113 0.39876 0.9285 0.0
C585 C 0.15575 0.41638 0.93403 0.0
C586 C 0.1796 0.39873 0.94372 0.0
C587 C 0.19311 0.41638 0.96468 0.0
C588 C 0.18717 0.43348 0.97103 0.0
C589 C 0.16867 0.43346 0.95594 0.0
C590 C 0.25504 0.44049 0.99243 0.0
C591 C 0.25467 0.42043 0.00333 0.0
C592 C 0.23498 0.43915 0.98031 0.0
C593 C 0.21409 0.41771 0.97866 0.0
C594 C 0.21365 0.39764 0.98966 0.0
C595 C 0.23372 0.39901 0.00199 0.0
H596 H 0.74502 0.22263 0.44733 0.0
H597 H 0.76723 0.17167 0.45201 0.0
H598 H 0.77976 0.25031 0.47461 0.0
H599 H 0.80242 0.19973 0.47907 0.0
H600 H 0.84131 0.24582 0.564 0.0
H601 H 0.81174 0.21791 0.52954 0.0
H602 H 0.82179 0.27418 0.47069 0.0
H603 H 0.85099 0.30212 0.50541 0.0
C604 C 0.75745 0.2174 0.45388 0.0
C605 C 0.75326 0.19487 0.44762 0.0
C606 C 0.77751 0.23338 0.46933 0.0
C607 C 0.79392 0.22726 0.47897 0.0
C608 C 0.79001 0.20489 0.47216 0.0
C609 C 0.76991 0.18887 0.45655 0.0
C610 C 0.83749 0.25222 0.54347 0.0
C611 C 0.84827 0.27623 0.53769 0.0
C612 C 0.8206 0.23619 0.52363 0.0
C613 C 0.81419 0.24385 0.49758 0.0
C614 C 0.82601 0.26776 0.49089 0.0
C615 C 0.84283 0.28377 0.51073 0.0
H616 H 0.58098 0.81986 0.08989 0.0
H617 H 0.5309 0.81795 0.02554 0.0
H618 H 0.58683 0.79321 0.05766 0.0
H619 H 0.53689 0.79156 0.9935 0.0
H620 H 0.52667 0.71943 0.9727 0.0
H621 H 0.52561 0.75004 0.0017 0.0
H622 H 0.60075 0.78815 0.00589 0.0
H623 H 0.60191 0.75733 0.97673 0.0
C624 C 0.57154 0.81412 0.06867 0.0
C625 C 0.55523 0.82077 0.0605 0.0
C626 C 0.57495 0.79891 0.0502 0.0
C627 C 0.56203 0.79005 0.02335 0.0
C628 C 0.54674 0.79777 0.01438 0.0
C629 C 0.54341 0.81299 0.0327 0.0
C630 C 0.543 0.73429 0.97978 0.0
C631 C 0.56438 0.73596 0.97236 0.0
C632 C 0.54239 0.75192 -0.0038 0.0
C633 C 0.56311 0.77158 0.00578 0.0
C634 C 0.58452 0.77316 -0.0012 0.0
C635 C 0.58516 0.75556 0.98207 0.0
H636 H 0.76173 0.60658 0.57353 0.0
H637 H 0.71926 0.53586 0.5417 0.0
H638 H 0.79574 0.6087 0.54847 0.0
H639 H 0.75307 0.53806 0.51689 0.0
H640 H 0.82212 0.54008 0.50833 0.0
H641 H 0.79029 0.54082 0.53482 0.0
H642 H 0.8103 0.6076 0.49496 0.0
H643 H 0.84234 0.60695 0.46826 0.0
C644 C 0.75961 0.59156 0.5611 0.0
C645 C 0.73779 0.57103 0.55973 0.0
C646 C 0.77906 0.59281 0.54671 0.0
C647 C 0.77708 0.57347 0.53101 0.0
C648 C 0.7552 0.55312 0.52924 0.0
C649 C 0.73579 0.55194 0.54331 0.0
C650 C 0.81993 0.55505 0.50536 0.0
C651 C 0.8347 0.57339 0.48598 0.0
C652 C 0.80159 0.55539 0.52042 0.0
C653 C 0.79767 0.57415 0.51668 0.0
C654 C 0.81296 0.59295 0.4983 0.0
C655 C 0.83124 0.59252 0.48296 0.0
H656 H 0.22973 0.79049 0.89078 0.0
H657 H 0.26824 0.8119 0.975 0.0
H658 H 0.19445 0.76389 0.91884 0.0
H659 H 0.23316 0.78529 0.00283 0.0
H660 H 0.16382 0.74493 0.04845 0.0
H661 H 0.19349 0.77637 0.01759 0.0
H662 H 0.18292 0.72714 0.94658 0.0
H663 H 0.15318 0.69579 0.97717 0.0
C664 C 0.23061 0.78976 0.91528 0.0
C665 C 0.25183 0.80312 0.93064 0.0
C666 C 0.21044 0.77447 0.9313 0.0
C667 C 0.21106 0.77244 0.96301 0.0
C668 C 0.23204 0.78663 0.97845 0.0
C669 C 0.2522 0.80175 0.96245 0.0
C670 C 0.16752 0.74088 0.02604 0.0
C671 C 0.15634 0.71782 0.01541 0.0
C672 C 0.18459 0.75888 0.00844 0.0
C673 C 0.19066 0.75419 0.97978 0.0
C674 C 0.17851 0.73135 0.96846 0.0
C675 C 0.16157 0.71334 0.9861 0.0
H676 H 0.40729 0.17421 0.55537 0.0
H677 H 0.47406 0.19809 0.51212 0.0
H678 H 0.40306 0.20392 0.52768 0.0
H679 H 0.46982 0.22762 0.48509 0.0
H680 H 0.47032 0.2964 0.483 0.0
H681 H 0.46881 0.26362 0.50952 0.0
H682 H 0.40212 0.21728 0.46883 0.0
H683 H 0.40362 0.25024 0.44161 0.0
C684 C 0.42087 0.18552 0.53972 0.0
C685 C 0.44113 0.18396 0.53623 0.0
C686 C 0.41841 0.20245 0.5239 0.0
C687 C 0.43628 0.21816 0.5047 0.0
C688 C 0.45595 0.21587 0.50014 0.0
C689 C 0.45831 0.19888 0.51557 0.0
C690 C 0.45516 0.27932 0.47984 0.0
C691 C 0.4372 0.2759 0.45989 0.0
C692 C 0.45438 0.26056 0.49497 0.0
C693 C 0.43551 0.23798 0.49082 0.0
C694 C 0.41687 0.23458 0.47227 0.0
C695 C 0.41778 0.25341 0.45672 0.0
H696 H 0.78992 0.55161 0.10082 0.0
H697 H 0.80981 0.52606 0.02271 0.0
H698 H 0.75951 0.55263 0.07079 0.0
H699 H 0.77945 0.52715 0.9928 0.0
H700 H 0.7363 0.55293 0.94208 0.0
H701 H 0.76868 0.5561 0.97213 0.0
H702 H 0.72181 0.52157 0.04697 0.0
H703 H 0.68939 0.51832 0.01701 0.0
C704 C 0.78796 0.54642 0.0772 0.0
C705 C 0.8022 0.53865 0.06417 0.0
C706 C 0.77048 0.54689 0.06009 0.0
C707 C 0.7671 0.53989 0.02953 0.0
C708 C 0.78179 0.53281 0.01625 0.0
C709 C 0.79908 0.53207 0.03343 0.0
C710 C 0.73292 0.54613 0.965 0.0
C711 C 0.71027 0.53529 0.97714 0.0
C712 C 0.75144 0.54787 0.98212 0.0
C713 C 0.74773 0.53907 0.01184 0.0
C714 C 0.7252 0.52869 0.02421 0.0
C715 C 0.70662 0.52671 0.00698 0.0
H716 H 0.16573 0.76983 0.45107 0.0
H717 H 0.2068 0.73615 0.44264 0.0
H718 H 0.19856 0.80305 0.47584 0.0
H719 H 0.23926 0.76902 0.46761 0.0
H720 H 0.30074 0.83949 0.48752 0.0
H721 H 0.2678 0.80986 0.45886 0.0
H722 H 0.22036 0.81224 0.52405 0.0
H723 H 0.25332 0.84221 0.55253 0.0
C724 C 0.18172 0.7695 0.45446 0.0
C725 C 0.18362 0.75032 0.44485 0.0
C726 C 0.20049 0.78849 0.46876 0.0
C727 C 0.22157 0.78873 0.47356 0.0
C728 C 0.22343 0.76958 0.46381 0.0
C729 C 0.20471 0.75063 0.44967 0.0
C730 C 0.28329 0.83391 0.4956 0.0
C731 C 0.27969 0.8431 0.52247 0.0
C732 C 0.26441 0.81681 0.47925 0.0
C733 C 0.24146 0.80849 0.48935 0.0
C734 C 0.23781 0.81836 0.51555 0.0
C735 C 0.25672 0.83547 0.53194 0.0
H736 H 0.3791 0.13795 0.94048 0.0
H737 H 0.44629 0.15872 0.98024 0.0
H738 H 0.37643 0.16725 0.97094 0.0
H739 H 0.44345 0.18778 0.01082 0.0
H740 H 0.44369 0.25631 0.02674 0.0
H741 H 0.44481 0.22489 -0.00031 0.0
H742 H 0.37306 0.17789 0.02406 0.0
H743 H 0.3718 0.20941 0.05096 0.0
C744 C 0.39316 0.14855 0.95597 0.0
C745 C 0.41298 0.14611 0.95776 0.0
C746 C 0.39158 0.16527 0.97349 0.0
C747 C 0.40983 0.17994 0.99306 0.0
C748 C 0.42929 0.17697 0.99557 0.0
C749 C 0.43082 0.16021 0.97818 0.0
C750 C 0.42814 0.23929 0.02636 0.0
C751 C 0.40765 0.23537 0.04099 0.0
C752 C 0.42884 0.22124 0.01104 0.0
C753 C 0.40905 0.1989 0.00987 0.0
C754 C 0.38853 0.19497 0.0244 0.0
C755 C 0.38786 0.21301 0.0399 0.0
H756 H 0.19797 0.42988 0.54803 0.0
H757 H 0.18 0.46408 0.47862 0.0
H758 H 0.22543 0.42769 0.51331 0.0
H759 H 0.20707 0.46142 0.44374 0.0
H760 H 0.28265 0.48672 0.41334 0.0
H761 H 0.24917 0.48187 0.44184 0.0
H762 H 0.23208 0.41212 0.4664 0.0
H763 H 0.26605 0.41714 0.43816 0.0
C764 C 0.19948 0.43647 0.52516 0.0
C765 C 0.18705 0.44748 0.51627 0.0
C766 C 0.21517 0.43512 0.50519 0.0
C767 C 0.2187 0.44469 0.47588 0.0
C768 C 0.20512 0.45432 0.46638 0.0
C769 C 0.18951 0.45574 0.48634 0.0
C770 C 0.27167 0.47024 0.42455 0.0
C771 C 0.27715 0.45238 0.42363 0.0
C772 C 0.25232 0.46739 0.44073 0.0
C773 C 0.2379 0.44658 0.45641 0.0
C774 C 0.24297 0.42843 0.4548 0.0
C775 C 0.26236 0.43128 0.4385 0.0
H776 H 0.79617 0.21945 0.91516 0.0
H777 H 0.81107 0.25936 -0.002 0.0
H778 H 0.76777 0.18457 0.94233 0.0
H779 H 0.78271 0.2246 0.02498 0.0
H780 H 0.74037 0.15605 0.07128 0.0
H781 H 0.77358 0.18524 0.04236 0.0
H782 H 0.72889 0.17287 0.96505 0.0
H783 H 0.69569 0.14361 0.9938 0.0
C784 C 0.79364 0.22073 0.93923 0.0
C785 C 0.80574 0.24223 0.95438 0.0
C786 C 0.77731 0.20077 0.95473 0.0
C787 C 0.77297 0.20185 0.98575 0.0
C788 C 0.78584 0.22313 0.00115 0.0
C789 C 0.80198 0.2431 0.98563 0.0
C790 C 0.73769 0.15918 0.04791 0.0
C791 C 0.71531 0.1477 0.03497 0.0
C792 C 0.75671 0.17601 0.03143 0.0
C793 C 0.75379 0.18154 0.00158 0.0
C794 C 0.73173 0.16892 0.98795 0.0
C795 C 0.71267 0.15222 0.0045 0.0
H796 H 0.56489 0.84797 0.5004 0.0
H797 H 0.62199 0.85126 0.44892 0.0
H798 H 0.56042 0.81402 0.52739 0.0
H799 H 0.61738 0.81711 0.47612 0.0
H800 H 0.60954 0.76358 0.55132 0.0
H801 H 0.61883 0.80109 0.529 0.0
H802 H 0.54619 0.77343 0.50741 0.0
H803 H 0.53689 0.73624 0.52938 0.0
C804 C 0.57673 0.84169 0.49513 0.0
C805 C 0.5936 0.85215 0.47218 0.0
C806 C 0.57408 0.82217 0.51052 0.0
C807 C 0.58832 0.81276 0.50349 0.0
C808 C 0.60618 0.82404 0.48198 0.0
C809 C 0.60876 0.84354 0.46637 0.0
C810 C 0.5956 0.76554 0.54173 0.0
C811 C 0.57248 0.74694 0.54217 0.0
C812 C 0.60093 0.78696 0.52894 0.0
C813 C 0.58319 0.79021 0.51683 0.0
C814 C 0.56017 0.77155 0.51707 0.0
C815 C 0.55489 0.75016 0.52945 0.0
H816 H 0.36904 0.39811 0.98103 0.0
H817 H 0.30077 0.3668 0.02175 0.0
H818 H 0.36828 0.36139 0.98397 0.0
H819 H 0.29977 0.32954 0.02456 0.0
H820 H 0.34473 0.31103 0.09171 0.0
H821 H 0.32343 0.32521 0.0628 0.0
H822 H 0.35629 0.32056 0.98037 0.0
H823 H 0.37791 0.30644 0.00983 0.0
C824 C 0.35335 0.38299 0.98925 0.0
C825 C 0.33527 0.3854 0.00196 0.0
C826 C 0.35279 0.36177 0.99079 0.0
C827 C 0.33424 0.34261 0.00543 0.0
C828 C 0.31453 0.34413 0.01375 0.0
C829 C 0.31504 0.36543 0.01199 0.0
C830 C 0.34658 0.31199 0.06722 0.0
C831 C 0.3634 0.30829 0.0531 0.0
C832 C 0.3342 0.32 0.05047 0.0
C833 C 0.33868 0.32475 0.01929 0.0
C834 C 0.35284 0.31756 0.00447 0.0
C835 C 0.36513 0.30933 0.02131 0.0
H836 H 0.08141 0.42276 0.54962 0.0
H837 H 0.07329 0.46596 0.61637 0.0
H838 H 0.0399 0.39358 0.55502 0.0
H839 H 0.03244 0.4372 0.62152 0.0
H840 H 0.96854 0.37601 0.65098 0.0
H841 H 0.01042 0.39699 0.64266 0.0
H842 H -0.00066 0.38977 0.54576 0.0
H843 H 0.95702 0.36814 0.5542 0.0
C844 C 0.07083 0.42608 0.56531 0.0
C845 C 0.08073 0.44666 0.58269 0.0
C846 C 0.04712 0.4094 0.56835 0.0
C847 C 0.03308 0.41295 0.58908 0.0
C848 C 0.04294 0.43371 0.60588 0.0
C849 C 0.06639 0.45032 0.60272 0.0
C850 C 0.97502 0.37834 0.62791 0.0
C851 C 0.95959 0.37079 0.60322 0.0
C852 C -0.00101 0.39045 0.62314 0.0
C853 C 0.0081 0.39553 0.59356 0.0
C854 C 0.99276 0.38614 0.5688 0.0
C855 C 0.96858 0.37375 0.57362 0.0
H856 H 0.52199 0.92993 0.14324 0.0
H857 H 0.57084 0.92007 0.08932 0.0
H858 H 0.5465 0.97168 0.13862 0.0
H859 H 0.59594 0.96236 0.08532 0.0
H860 H 0.61731 0.03945 0.0579 0.0
H861 H 0.59775 0.99697 0.06251 0.0
H862 H 0.5829 0.00231 0.15678 0.0
H863 H 0.60153 0.0443 0.1518 0.0
C864 C 0.53807 0.93666 0.13058 0.0
C865 C 0.54445 0.92158 0.11678 0.0
C866 C 0.55229 0.9607 0.1281 0.0
C867 C 0.57341 0.97044 0.11196 0.0
C868 C 0.57976 0.95542 0.09784 0.0
C869 C 0.56541 0.93122 0.10025 0.0
C870 C 0.6102 0.03148 0.07968 0.0
C871 C 0.61058 0.04509 0.10435 0.0
C872 C 0.59902 0.00718 0.08236 0.0
C873 C 0.58827 0.9962 0.10984 0.0
C874 C 0.59033 0.01011 0.13502 0.0
C875 C 0.60116 0.03421 0.13225 0.0
H876 H 0.64396 0.60457 0.64035 0.0
H877 H 0.6427 0.58592 0.54629 0.0
H878 H 0.6276 0.6291 0.62669 0.0
H879 H 0.62542 0.60983 0.53267 0.0
H880 H 0.60135 0.67582 0.58943 0.0
H881 H 0.63163 0.66475 0.58992 0.0
H882 H 0.5819 0.59685 0.55534 0.0
H883 H 0.55163 0.60753 0.55605 0.0
C884 C 0.64104 0.60651 0.61661 0.0
C885 C 0.64466 0.59353 0.59433 0.0
C886 C 0.63171 0.62054 0.60878 0.0
C887 C 0.62523 0.62127 0.57866 0.0
C888 C 0.63044 0.60964 0.55602 0.0
C889 C 0.64041 0.59609 0.56377 0.0
C890 C 0.59718 0.65879 0.58115 0.0
C891 C 0.57425 0.64245 0.57278 0.0
C892 C 0.61442 0.65249 0.58146 0.0
C893 C 0.60908 0.63003 0.57246 0.0
C894 C 0.58655 0.61437 0.56195 0.0
C895 C 0.56922 0.62042 0.56252 0.0
H896 H 0.92397 0.58867 0.10236 0.0
H897 H 0.92954 0.53856 0.04607 0.0
H898 H 0.96535 0.61671 0.09357 0.0
H899 H 0.97056 0.56667 0.03647 0.0
H900 H 0.04479 0.62409 0.022 0.0
H901 H 0.00278 0.60968 0.01771 0.0
H902 H 0.99701 0.60681 0.11541 0.0
H903 H 0.03854 0.62036 0.11963 0.0
C904 C 0.93378 0.58415 0.08688 0.0
C905 C 0.92376 0.56164 0.07471 0.0
C906 C 0.9574 0.60009 0.08197 0.0
C907 C 0.97106 0.59379 0.06437 0.0
C908 C 0.96034 0.57206 0.04979 0.0
C909 C 0.93693 0.55598 0.05528 0.0
C910 C 0.03458 0.62096 0.04248 0.0
C911 C 0.04472 0.6231 0.07114 0.0
C912 C 0.01064 0.61275 0.04002 0.0
C913 C 0.99677 0.60728 0.06623 0.0
C914 C 0.00737 0.61121 0.09487 0.0
C915 C 0.03106 0.61877 0.09729 0.0
H916 H 0.42919 0.083 0.54434 0.0
H917 H 0.44316 0.06767 0.63458 0.0
H918 H 0.40228 0.04133 0.53572 0.0
H919 H 0.41648 0.02653 0.62609 0.0
H920 H 0.35908 0.95596 0.61542 0.0
H921 H 0.37448 0.99794 0.61784 0.0
H922 H 0.40807 0.00605 0.53104 0.0
H923 H 0.39219 0.96386 0.52856 0.0
C924 C 0.42629 0.0708 0.56242 0.0
C925 C 0.43839 0.07856 0.59007 0.0
C926 C 0.41096 0.04701 0.55745 0.0
C927 C 0.40714 0.03071 0.5803 0.0
C928 C 0.41872 0.03866 0.60821 0.0
C929 C 0.43422 0.06225 0.61297 0.0
C930 C 0.36891 0.96667 0.59632 0.0
C931 C 0.37436 0.95688 0.57171 0.0
C932 C 0.37789 0.99066 0.59779 0.0
C933 C 0.39277 0.00529 0.57485 0.0
C934 C 0.39653 0.9952 0.54894 0.0
C935 C 0.38744 0.97111 0.54745 0.0
H936 H 0.62221 0.67504 0.90748 0.0
H937 H 0.57434 0.62961 0.97547 0.0
H938 H 0.64711 0.65823 0.916 0.0
H939 H 0.59876 0.61235 0.98367 0.0
H940 H 0.63535 0.58426 0.88746 0.0
H941 H 0.63217 0.61857 0.89624 0.0
H942 H 0.63475 0.60988 0.99312 0.0
H943 H 0.63823 0.57525 0.98403 0.0
C944 C 0.61777 0.6624 0.92549 0.0
C945 C 0.5965 0.65355 0.94088 0.0
C946 C 0.63187 0.65262 0.9302 0.0
C947 C 0.62458 0.63356 0.94993 0.0
C948 C 0.60493 0.62703 0.96837 0.0
C949 C 0.59091 0.63692 0.96374 0.0
C950 C 0.63597 0.59009 0.91061 0.0
C951 C 0.63671 0.57701 0.93506 0.0
C952 C 0.6344 0.60993 0.91571 0.0
C953 C 0.63314 0.61696 0.94544 0.0
C954 C 0.63566 0.60486 0.96999 0.0
C955 C 0.63769 0.58511 0.9648 0.0
H956 H 0.95521 0.60889 0.38535 0.0
H957 H 0.94836 0.59784 0.48217 0.0
H958 H 0.9966 0.63665 0.39133 0.0
H959 H 0.99021 0.62536 0.48821 0.0
H960 H 0.06108 0.62598 0.45726 0.0
H961 H 0.02085 0.61535 0.46757 0.0
H962 H 0.03019 0.67432 0.41519 0.0
H963 H 0.07091 0.68531 0.40556 0.0
C964 C 0.96247 0.61308 0.40804 0.0
C965 C 0.94873 0.6012 0.43328 0.0
C966 C 0.98615 0.62907 0.41151 0.0
C967 C 0.99665 0.63308 0.44023 0.0
C968 C 0.98251 0.6226 0.46583 0.0
C969 C 0.95861 0.60694 0.4624 0.0
C970 C 0.05482 0.63726 0.44917 0.0
C971 C 0.06895 0.65642 0.43067 0.0
C972 C 0.03181 0.63124 0.45514 0.0
C973 C 0.02235 0.64395 0.44205 0.0
C974 C 0.03709 0.66428 0.4256 0.0
C975 C 0.06036 0.67062 0.4202 0.0
H976 H 0.41089 0.04057 0.95319 0.0
H977 H 0.38089 0.02465 0.86346 0.0
H978 H 0.39168 -0.00118 0.96466 0.0
H979 H 0.36115 0.98313 0.87516 0.0
H980 H 0.39625 0.93178 0.92877 0.0
H981 H 0.40409 0.97166 0.93399 0.0
H982 H 0.33229 0.94887 0.91293 0.0
H983 H 0.3242 0.90865 0.90851 0.0
C984 C 0.39928 0.02817 0.93653 0.0
C985 C 0.39727 0.03564 0.90749 0.0
C986 C 0.38844 0.00436 0.943 0.0
C987 C 0.37503 0.98786 0.92073 0.0
C988 C 0.37119 0.99551 0.8928 0.0
C989 C 0.38248 0.01921 0.88609 0.0
C990 C 0.38202 0.9352 0.92594 0.0
C991 C 0.35968 0.91722 0.91797 0.0
C992 C 0.38645 0.95796 0.92922 0.0
C993 C 0.36875 0.96324 0.92397 0.0
C994 C 0.34615 0.94514 0.91727 0.0
C995 C 0.34157 0.92222 0.91472 0.0
H996 H 0.34439 0.41718 0.38666 0.0
H997 H 0.40804 0.46629 0.43178 0.0
H998 H 0.3544 0.38657 0.39379 0.0
H999 H 0.41758 0.43565 0.43988 0.0
H1000 H 0.42701 0.37388 0.45483 0.0
H1001 H 0.40291 0.392 0.46218 0.0
H1002 H 0.3932 0.39147 0.36527 0.0
H1003 H 0.41786 0.37427 0.3579 0.0
C1004 C 0.35995 0.42112 0.3993 0.0
C1005 C 0.37557 0.44401 0.40854 0.0
C1006 C 0.36567 0.40368 0.40331 0.0
C1007 C 0.38672 0.40883 0.41738 0.0
C1008 C 0.40112 0.43119 0.42929 0.0
C1009 C 0.39574 0.44872 0.42454 0.0
C1010 C 0.41911 0.37702 0.43526 0.0
C1011 C 0.42435 0.37291 0.4058 0.0
C1012 C 0.40537 0.38734 0.43946 0.0
C1013 C 0.39617 0.39298 0.41428 0.0
C1014 C 0.39984 0.387 0.38505 0.0
C1015 C 0.41406 0.37733 0.38082 0.0
H1016 H 0.04684 0.40175 0.94564 0.0
H1017 H 0.02492 0.37877 0.85374 0.0
H1018 H 0.00615 0.37938 0.96261 0.0
H1019 H 0.98454 0.35586 0.87076 0.0
H1020 H 0.91294 0.313 0.91192 0.0
H1021 H 0.9539 0.32276 0.90933 0.0
H1022 H 0.97544 0.3918 0.9425 0.0
H1023 H 0.93485 0.38237 0.94401 0.0
C1024 C 0.03346 0.39103 0.92938 0.0
C1025 C 0.03887 0.39195 0.89841 0.0
C1026 C 0.01024 0.37834 0.93905 0.0
C1027 C 0.99229 0.36594 0.91796 0.0
C1028 C -0.00193 0.36505 0.88752 0.0
C1029 C 0.02113 0.37819 0.87776 0.0
C1030 C 0.92645 0.32999 0.91949 0.0
C1031 C 0.92089 0.34701 0.92801 0.0
C1032 C 0.94979 0.33556 0.91798 0.0
C1033 C 0.96774 0.35797 0.92587 0.0
C1034 C 0.96193 0.3743 0.9367 0.0
C1035 C 0.93875 0.36897 0.93738 0.0
H1036 H 0.61047 0.9658 0.47011 0.0
H1037 H 0.63169 0.9792 0.37628 0.0
H1038 H 0.63156 0.0078 0.48025 0.0
H1039 H 0.65319 0.02092 0.38645 0.0
H1040 H 0.69044 0.09611 0.41184 0.0
H1041 H 0.68468 0.05679 0.41797 0.0
H1042 H 0.61626 0.03352 0.45519 0.0
H1043 H 0.62173 0.07233 0.4483 0.0
C1044 C 0.62063 0.97767 0.45209 0.0
C1045 C 0.61947 0.96945 0.42242 0.0
C1046 C 0.63257 0.00164 0.45783 0.0
C1047 C 0.64388 0.01755 0.43408 0.0
C1048 C 0.64483 0.00907 0.40522 0.0
C1049 C 0.63248 0.98522 0.39936 0.0
C1050 C 0.67448 0.08269 0.42211 0.0
C1051 C 0.65639 0.08706 0.42928 0.0
C1052 C 0.67121 0.06028 0.42562 0.0
C1053 C 0.65007 0.04219 0.43715 0.0
C1054 C 0.63284 0.04718 0.44665 0.0
C1055 C 0.63587 0.06933 0.44244 0.0
H1056 H 0.47942 0.62921 0.96983 0.0
H1057 H 0.46699 0.58519 0.89155 0.0
H1058 H 0.44416 0.59836 0.99366 0.0
H1059 H 0.43198 0.55442 0.91548 0.0
H1060 H 0.36493 0.50396 0.96232 0.0
H1061 H 0.39193 0.54059 0.93672 0.0
H1062 H 0.43807 0.5609 0.01403 0.0
H1063 H 0.41141 0.52469 0.03929 0.0
C1064 C 0.46896 0.61316 0.95745 0.0
C1065 C 0.47624 0.60951 0.92903 0.0
C1066 C 0.44879 0.59549 0.97112 0.0
C1067 C 0.43544 0.5739 0.95655 0.0
C1068 C 0.44179 0.5709 0.9272 0.0
C1069 C 0.462 0.58849 0.91361 0.0
C1070 C 0.38063 0.51651 0.97397 0.0
C1071 C 0.38624 0.51138 0.00259 0.0
C1072 C 0.39609 0.53739 0.95933 0.0
C1073 C 0.41713 0.55359 0.97336 0.0
C1074 C 0.42192 0.54895 0.00273 0.0
C1075 C 0.40672 0.52807 0.01709 0.0
H1076 H 0.86108 0.37463 0.53147 0.0
H1077 H 0.88383 0.42411 0.60539 0.0
H1078 H 0.85646 0.40193 0.49938 0.0
H1079 H 0.8796 0.45148 0.57313 0.0
H1080 H 0.89024 0.46996 0.44332 0.0
H1081 H 0.88532 0.43859 0.47623 0.0
H1082 H 0.85319 0.46036 0.54418 0.0
H1083 H 0.85842 0.49226 0.51114 0.0
C1084 C 0.86483 0.39119 0.54101 0.0
C1085 C 0.87313 0.39731 0.57087 0.0
C1086 C 0.86226 0.40686 0.52258 0.0
C1087 C 0.86793 0.42896 0.53362 0.0
C1088 C 0.87494 0.43454 0.564 0.0
C1089 C 0.87752 0.41889 0.58243 0.0
C1090 C 0.88197 0.46804 0.46517 0.0
C1091 C 0.87491 0.48376 0.47471 0.0
C1092 C 0.87893 0.44986 0.48394 0.0
C1093 C 0.86881 0.44694 0.51279 0.0
C1094 C 0.86119 0.46229 0.52213 0.0
C1095 C 0.86412 0.48049 0.50319 0.0
H1096 H 0.35506 0.83019 0.99266 0.0
H1097 H 0.38694 0.80811 0.92502 0.0
H1098 H 0.37614 0.82311 0.03235 0.0
H1099 H 0.40673 0.79914 0.96473 0.0
H1100 H 0.46797 0.82899 0.03163 0.0
H1101 H 0.43904 0.82182 0.99338 0.0
H1102 H 0.38659 0.80198 0.06338 0.0
H1103 H 0.41624 0.81075 0.10189 0.0
C1104 C 0.36586 0.82287 0.98648 0.0
C1105 C 0.3697 0.82 0.95589 0.0
C1106 C 0.37795 0.81868 0.00926 0.0
C1107 C 0.3937 0.81102 0.00187 0.0
C1108 C 0.39549 0.80584 0.97131 0.0
C1109 C 0.38395 0.8107 0.94853 0.0
C1110 C 0.45017 0.82269 0.03884 0.0
C1111 C 0.44446 0.82079 0.06977 0.0
C1112 C 0.43339 0.81835 0.0168 0.0
C1113 C 0.41031 0.81151 0.02509 0.0
C1114 C 0.40425 0.80783 0.05606 0.0
C1115 C 0.4212 0.81267 0.07818 0.0
H1116 H 0.55447 0.42893 0.41664 0.0
H1117 H 0.52207 0.37353 0.48262 0.0
H1118 H 0.58258 0.45382 0.45465 0.0
H1119 H 0.55048 0.39842 0.52053 0.0
H1120 H 0.57818 0.46243 0.58521 0.0
H1121 H 0.55536 0.43298 0.5475 0.0
H1122 H 0.61521 0.46062 0.48812 0.0
H1123 H 0.63813 0.49042 0.52585 0.0
C1124 C 0.55361 0.42189 0.43908 0.0
C1125 C 0.53581 0.39933 0.44669 0.0
C1126 C 0.56984 0.43613 0.46083 0.0
C1127 C 0.56861 0.42816 0.49068 0.0
C1128 C 0.55164 0.40516 0.49782 0.0
C1129 C 0.53544 0.39087 0.47604 0.0
C1130 C 0.5866 0.46212 0.56427 0.0
C1131 C 0.60993 0.47893 0.55843 0.0
C1132 C 0.57354 0.44508 0.54274 0.0
C1133 C 0.58346 0.44449 0.51479 0.0
C1134 C 0.60703 0.46078 0.50934 0.0
C1135 C 0.62017 0.47778 0.531 0.0
H1136 H 0.14162 0.50207 0.94852 0.0
H1137 H 0.10224 0.5205 0.88794 0.0
H1138 H 0.14808 0.53386 0.98223 0.0
H1139 H 0.10843 0.55207 0.92197 0.0
H1140 H 0.13324 0.61523 0.98283 0.0
H1141 H 0.13666 0.58969 0.94563 0.0
H1142 H 0.12143 0.53867 0.01584 0.0
H1143 H 0.11828 0.56407 0.05283 0.0
C1144 C 0.13456 0.51305 0.94218 0.0
C1145 C 0.12113 0.50852 0.91571 0.0
C1146 C 0.13821 0.53122 0.96158 0.0
C1147 C 0.12854 0.54531 0.95495 0.0
C1148 C 0.11625 0.54164 0.92762 0.0
C1149 C 0.11257 0.52343 0.90821 0.0
C1150 C 0.13101 0.59871 0.99037 0.0
C1151 C 0.12532 0.5916 0.02074 0.0
C1152 C 0.13283 0.58405 0.96904 0.0
C1153 C 0.12925 0.56214 0.97777 0.0
C1154 C 0.12457 0.55554 0.0084 0.0
C1155 C 0.12259 0.57006 0.0296 0.0
H1156 H 0.52949 0.16905 0.51435 0.0
H1157 H 0.57312 0.18246 0.59303 0.0
H1158 H 0.5619 0.17683 0.48152 0.0
H1159 H 0.60632 0.192 0.56021 0.0
H1160 H 0.64401 0.1659 0.49638 0.0
H1161 H 0.61938 0.17195 0.53174 0.0
H1162 H 0.59701 0.19978 0.45868 0.0
H1163 H 0.62027 0.19172 0.42316 0.0
C1164 C 0.54629 0.17443 0.52456 0.0
C1165 C 0.54873 0.17482 0.55619 0.0
C1166 C 0.56507 0.17912 0.50571 0.0
C1167 C 0.58692 0.18487 0.51805 0.0
C1168 C 0.58969 0.187 0.54979 0.0
C1169 C 0.57072 0.18171 0.56865 0.0
C1170 C 0.63429 0.17392 0.48822 0.0
C1171 C 0.63379 0.17821 0.4572 0.0
C1172 C 0.62014 0.17748 0.50847 0.0
C1173 C 0.60563 0.1859 0.4981 0.0
C1174 C 0.6072 0.19247 0.46741 0.0
C1175 C 0.62078 0.18821 0.44708 0.0
H1176 H 0.49343 0.3465 0.04083 0.0
H1177 H 0.47873 0.3979 0.07854 0.0
H1178 H 0.52719 0.37739 0.01403 0.0
H1179 H 0.51216 0.42846 0.05158 0.0
H1180 H 0.54724 0.46496 0.96095 0.0
H1181 H 0.5177 0.43486 0.99306 0.0
H1182 H 0.56792 0.41667 0.02513 0.0
H1183 H 0.598 0.44736 0.99305 0.0
C1184 C 0.49751 0.36435 0.04365 0.0
C1185 C 0.48326 0.36971 0.06161 0.0
C1186 C 0.51689 0.382 0.02847 0.0
C1187 C 0.52213 0.40522 0.03067 0.0
C1188 C 0.50837 0.41064 0.04938 0.0
C1189 C 0.48925 0.39312 0.06484 0.0
C1190 C 0.5521 0.45462 0.97483 0.0
C1191 C 0.57497 0.45853 0.97445 0.0
C1192 C 0.53518 0.43747 0.99335 0.0
C1193 C 0.54059 0.42356 0.01162 0.0
C1194 C 0.56337 0.42721 0.01117 0.0
C1195 C 0.58053 0.44477 0.99296 0.0
H1196 H 0.15872 0.64464 0.47155 0.0
H1197 H 0.15758 0.60727 0.3908 0.0
H1198 H 0.16906 0.62069 0.5017 0.0
H1199 H 0.16973 0.58426 0.42044 0.0
H1200 H 0.15309 0.52513 0.48823 0.0
H1201 H 0.1536 0.55356 0.45325 0.0
H1202 H 0.19356 0.60833 0.51814 0.0
H1203 H 0.19122 0.57932 0.55393 0.0
C1204 C 0.16142 0.63173 0.46013 0.0
C1205 C 0.15708 0.62761 0.42895 0.0
C1206 C 0.16756 0.61801 0.47739 0.0
C1207 C 0.17009 0.60018 0.46374 0.0
C1208 C 0.16731 0.59727 0.43204 0.0
C1209 C 0.16055 0.61059 0.41494 0.0
C1210 C 0.16239 0.54333 0.49466 0.0
C1211 C 0.17187 0.55004 0.52383 0.0
C1212 C 0.16281 0.55977 0.47453 0.0
C1213 C 0.17326 0.58342 0.48289 0.0
C1214 C 0.18462 0.59027 0.51117 0.0
C1215 C 0.18357 0.57371 0.53161 0.0
H1216 H 0.56745 0.12803 0.05932 0.0
H1217 H 0.61504 0.12928 0.99125 0.0
H1218 H 0.54387 0.13146 0.02016 0.0
H1219 H 0.59137 0.13324 0.95157 0.0
H1220 H 0.52069 0.10094 0.89639 0.0
H1221 H 0.5528 0.10768 0.92971 0.0
H1222 H 0.54169 0.15621 0.98233 0.0
H1223 H 0.50914 0.1489 0.94965 0.0
C1224 C 0.5731 0.12939 0.03595 0.0
C1225 C 0.59302 0.12814 0.0284 0.0
C1226 C 0.55965 0.13161 0.01343 0.0
C1227 C 0.56574 0.13269 0.98268 0.0
C1228 C 0.58614 0.13228 0.97507 0.0
C1229 C 0.59974 0.13013 -0.00223 0.0
C1230 C 0.5254 0.11339 0.91471 0.0
C1231 C 0.51207 0.12402 0.92078 0.0
C1232 C 0.54391 0.11736 0.93373 0.0
C1233 C 0.54954 0.13217 0.95901 0.0
C1234 C 0.53742 0.14426 0.96348 0.0
C1235 C 0.51881 0.14013 0.94469 0.0
H1236 H 0.442 0.59627 0.56104 0.0
H1237 H 0.48021 0.65682 0.50412 0.0
H1238 H 0.41381 0.57713 0.52102 0.0
H1239 H 0.45129 0.63781 0.46403 0.0
H1240 H 0.42587 0.57795 0.39191 0.0
H1241 H 0.44527 0.60696 0.43099 0.0
H1242 H 0.38374 0.57243 0.48735 0.0
H1243 H 0.36447 0.54266 0.44829 0.0
C1244 C 0.44409 0.60576 0.5402 0.0
C1245 C 0.46371 0.62786 0.53551 0.0
C1246 C 0.42767 0.59484 0.51727 0.0
C1247 C 0.43037 0.60577 0.48905 0.0
C1248 C 0.44892 0.62871 0.48529 0.0
C1249 C 0.46547 0.63965 0.50829 0.0
C1250 C 0.41622 0.57678 0.41233 0.0
C1251 C 0.39386 0.55762 0.41735 0.0
C1252 C 0.42732 0.59364 0.43474 0.0
C1253 C 0.41627 0.59182 0.46267 0.0
C1254 C 0.39294 0.57403 0.46636 0.0
C1255 C 0.38183 0.55704 0.4439 0.0
H1256 H 0.82343 0.34138 0.00642 0.0
H1257 H 0.83077 0.39184 0.93906 0.0
H1258 H 0.81645 0.36355 0.04535 0.0
H1259 H 0.82452 0.41408 0.97758 0.0
H1260 H 0.81136 0.45237 0.04722 0.0
H1261 H 0.801 0.41911 0.01416 0.0
H1262 H 0.84265 0.40004 0.0693 0.0
H1263 H 0.85226 0.43263 0.10279 0.0
C1264 C 0.82305 0.35689 -0.00019 0.0
C1265 C 0.82806 0.36509 0.9698 0.0
C1266 C 0.81921 0.36967 0.02211 0.0
C1267 C 0.8202 0.39078 0.01472 0.0
C1268 C 0.82338 0.39785 0.9842 0.0
C1269 C 0.82724 0.38518 0.96206 0.0
C1270 C 0.81783 0.44074 0.05269 0.0
C1271 C 0.83304 0.44546 0.07727 0.0
C1272 C 0.81196 0.42171 0.03368 0.0
C1273 C 0.82135 0.40713 0.03869 0.0
C1274 C 0.83495 0.41076 0.06477 0.0
C1275 C 0.84066 0.42965 0.08389 0.0
H1276 H 0.48153 0.8804 0.40423 0.0
H1277 H 0.51847 0.88953 0.48828 0.0
H1278 H 0.44655 0.87192 0.43254 0.0
H1279 H 0.4844 0.88291 0.51667 0.0
H1280 H 0.41915 0.86109 0.56616 0.0
H1281 H 0.44798 0.8587 0.53454 0.0
H1282 H 0.4301 0.88922 0.45993 0.0
H1283 H 0.39999 0.88959 0.49109 0.0
C1284 C 0.48214 0.88067 0.42881 0.0
C1285 C 0.50269 0.88565 0.44408 0.0
C1286 C 0.46214 0.87598 0.44512 0.0
C1287 C 0.46242 0.87681 0.4771 0.0
C1288 C 0.48305 0.8815 0.4922 0.0
C1289 C 0.5028 0.88554 0.47591 0.0
C1290 C 0.42111 0.86673 0.54273 0.0
C1291 C 0.40748 0.87558 0.53101 0.0
C1292 C 0.43785 0.86569 0.52463 0.0
C1293 C 0.44199 0.8743 0.49469 0.0
C1294 C 0.42745 0.88215 0.48265 0.0
C1295 C 0.41018 0.88249 0.50052 0.0
loop_
_geom_bond_atom_site_label_1
_geom_bond_atom_site_label_2
_geom_bond_distance
_geom_bond_site_symmetry_2
_ccdc_geom_bond_type
Zn0 O3 2.031 . S
Zn0 O5 2.049 . S
Zn0 O10 2.067 . S
Zn1 O2 1.962 . S
Zn1 O4 1.986 . S
Zn1 O6 1.996 . S
Zn1 O9 1.943 . S
O2 Zn1 1.962 . S
O2 C7 1.254 . S
O3 Zn0 2.031 . S
O3 C7 1.269 . S
O4 Zn1 1.986 . S
O4 C11 1.262 . S
O5 Zn0 2.049 . S
O5 C13 1.260 . S
O6 Zn1 1.996 . S
O6 C13 1.257 . S
C7 O2 1.254 . S
C7 O3 1.269 . S
C8 O9 1.249 . S
C8 O10 1.270 . S
O9 Zn1 1.943 . S
O9 C8 1.249 . S
O10 Zn0 2.067 . S
O10 C8 1.270 . S
C11 O4 1.262 . S
C11 O12 1.232 . S
O12 C11 1.232 . S
C13 O5 1.260 . S
C13 O6 1.257 . S
Zn14 O17 2.031 . S
Zn14 O19 2.049 . S
Zn14 O24 2.067 . S
Zn15 O16 1.962 . S
Zn15 O18 1.986 . S
Zn15 O20 1.996 . S
Zn15 O23 1.943 . S
O16 Zn15 1.962 . S
O16 C21 1.254 . S
O17 Zn14 2.031 . S
O17 C21 1.269 . S
O18 Zn15 1.986 . S
O18 C25 1.262 . S
O19 Zn14 2.049 . S
O19 C27 1.260 . S
O20 Zn15 1.996 . S
O20 C27 1.257 . S
C21 O16 1.254 . S
C21 O17 1.269 . S
C22 O23 1.249 . S
C22 O24 1.270 . S
O23 Zn15 1.943 . S
O23 C22 1.249 . S
O24 Zn14 2.067 . S
O24 C22 1.270 . S
C25 O18 1.262 . S
C25 O26 1.232 . S
O26 C25 1.232 . S
C27 O19 1.260 . S
C27 O20 1.257 . S
Zn28 O31 2.031 . S
Zn28 O33 2.049 . S
Zn28 O38 2.067 . S
Zn29 O30 1.962 . S
Zn29 O32 1.986 . S
Zn29 O34 1.996 . S
Zn29 O37 1.943 . S
O30 Zn29 1.962 . S
O30 C35 1.254 . S
O31 Zn28 2.031 . S
O31 C35 1.269 . S
O32 Zn29 1.986 . S
O32 C39 1.262 . S
O33 Zn28 2.049 . S
O33 C41 1.260 . S
O34 Zn29 1.996 . S
O34 C41 1.257 . S
C35 O30 1.254 . S
C35 O31 1.269 . S
C36 O37 1.249 . S
C36 O38 1.270 . S
O37 Zn29 1.943 . S
O37 C36 1.249 . S
O38 Zn28 2.067 . S
O38 C36 1.270 . S
C39 O32 1.262 . S
C39 O40 1.232 . S
O40 C39 1.232 . S
C41 O33 1.260 . S
C41 O34 1.257 . S
Zn42 O45 2.031 . S
Zn42 O47 2.049 . S
Zn42 O52 2.067 . S
Zn43 O44 1.962 . S
Zn43 O46 1.986 . S
Zn43 O48 1.996 . S
Zn43 O51 1.943 . S
O44 Zn43 1.962 . S
O44 C49 1.254 . S
O45 Zn42 2.031 . S
O45 C49 1.269 . S
O46 Zn43 1.986 . S
O46 C53 1.262 . S
O47 Zn42 2.049 . S
O47 C55 1.260 . S
O48 Zn43 1.996 . S
O48 C55 1.257 . S
C49 O44 1.254 . S
C49 O45 1.269 . S
C50 O51 1.249 . S
C50 O52 1.270 . S
O51 Zn43 1.943 . S
O51 C50 1.249 . S
O52 Zn42 2.067 . S
O52 C50 1.270 . S
C53 O46 1.262 . S
C53 O54 1.232 . S
O54 C53 1.232 . S
C55 O47 1.260 . S
C55 O48 1.257 . S
Zn56 O59 2.031 . S
Zn56 O61 2.049 . S
Zn56 O66 2.067 . S
Zn57 O58 1.962 . S
Zn57 O60 1.986 . S
Zn57 O62 1.996 . S
Zn57 O65 1.943 . S
O58 Zn57 1.962 . S
O58 C63 1.254 . S
O59 Zn56 2.031 . S
O59 C63 1.269 . S
O60 Zn57 1.986 . S
O60 C67 1.262 . S
O61 Zn56 2.049 . S
O61 C69 1.260 . S
O62 Zn57 1.996 . S
O62 C69 1.257 . S
C63 O58 1.254 . S
C63 O59 1.269 . S
C64 O65 1.249 . S
C64 O66 1.270 . S
O65 Zn57 1.943 . S
O65 C64 1.249 . S
O66 Zn56 2.067 . S
O66 C64 1.270 . S
C67 O60 1.262 . S
C67 O68 1.232 . S
O68 C67 1.232 . S
C69 O61 1.260 . S
C69 O62 1.257 . S
Zn70 O73 2.031 . S
Zn70 O75 2.049 . S
Zn70 O80 2.067 . S
Zn71 O72 1.962 . S
Zn71 O74 1.986 . S
Zn71 O76 1.996 . S
Zn71 O79 1.943 . S
O72 Zn71 1.962 . S
O72 C77 1.254 . S
O73 Zn70 2.031 . S
O73 C77 1.269 . S
O74 Zn71 1.986 . S
O74 C81 1.262 . S
O75 Zn70 2.049 . S
O75 C83 1.260 . S
O76 Zn71 1.996 . S
O76 C83 1.257 . S
C77 O72 1.254 . S
C77 O73 1.269 . S
C78 O79 1.249 . S
C78 O80 1.270 . S
O79 Zn71 1.943 . S
O79 C78 1.249 . S
O80 Zn70 2.067 . S
O80 C78 1.270 . S
C81 O74 1.262 . S
C81 O82 1.232 . S
O82 C81 1.232 . S
C83 O75 1.260 . S
C83 O76 1.257 . S
Zn84 O87 2.031 . S
Zn84 O89 2.049 . S
Zn84 O94 2.067 . S
Zn85 O86 1.962 . S
Zn85 O88 1.986 . S
Zn85 O90 1.996 . S
Zn85 O93 1.943 . S
O86 Zn85 1.962 . S
O86 C91 1.254 . S
O87 Zn84 2.031 . S
O87 C91 1.269 . S
O88 Zn85 1.986 . S
O88 C95 1.262 . S
O89 Zn84 2.049 . S
O89 C97 1.260 . S
O90 Zn85 1.996 . S
O90 C97 1.257 . S
C91 O86 1.254 . S
C91 O87 1.269 . S
C92 O93 1.249 . S
C92 O94 1.270 . S
O93 Zn85 1.943 . S
O93 C92 1.249 . S
O94 Zn84 2.067 . S
O94 C92 1.270 . S
C95 O88 1.262 . S
C95 O96 1.232 . S
O96 C95 1.232 . S
C97 O89 1.260 . S
C97 O90 1.257 . S
Zn98 O101 2.031 . S
Zn98 O103 2.049 . S
Zn98 O108 2.067 . S
Zn99 O100 1.962 . S
Zn99 O102 1.986 . S
Zn99 O104 1.996 . S
Zn99 O107 1.943 . S
O100 Zn99 1.962 . S
O100 C105 1.254 . S
O101 Zn98 2.031 . S
O101 C105 1.269 . S
O102 Zn99 1.986 . S
O102 C109 1.262 . S
O103 Zn98 2.049 . S
O103 C111 1.260 . S
O104 Zn99 1.996 . S
O104 C111 1.257 . S
C105 O100 1.254 . S
C105 O101 1.269 . S
C106 O107 1.249 . S
C106 O108 1.270 . S
O107 Zn99 1.943 . S
O107 C106 1.249 . S
O108 Zn98 2.067 . S
O108 C106 1.270 . S
C109 O102 1.262 . S
C109 O110 1.232 . S
O110 C109 1.232 . S
C111 O103 1.260 . S
C111 O104 1.257 . S
Zn112 O115 2.031 . S
Zn112 O117 2.049 . S
Zn112 O122 2.067 . S
Zn113 O114 1.962 . S
Zn113 O116 1.986 . S
Zn113 O118 1.996 . S
Zn113 O121 1.943 . S
O114 Zn113 1.962 . S
O114 C119 1.254 . S
O115 Zn112 2.031 . S
O115 C119 1.269 . S
O116 Zn113 1.986 . S
O116 C123 1.262 . S
O117 Zn112 2.049 . S
O117 C125 1.260 . S
O118 Zn113 1.996 . S
O118 C125 1.257 . S
C119 O114 1.254 . S
C119 O115 1.269 . S
C120 O121 1.249 . S
C120 O122 1.270 . S
O121 Zn113 1.943 . S
O121 C120 1.249 . S
O122 Zn112 2.067 . S
O122 C120 1.270 . S
C123 O116 1.262 . S
C123 O124 1.232 . S
O124 C123 1.232 . S
C125 O117 1.260 . S
C125 O118 1.257 . S
Zn126 O129 2.031 . S
Zn126 O131 2.049 . S
Zn126 O136 2.067 . S
Zn127 O128 1.962 . S
Zn127 O130 1.986 . S
Zn127 O132 1.996 . S
Zn127 O135 1.943 . S
O128 Zn127 1.962 . S
O128 C133 1.254 . S
O129 Zn126 2.031 . S
O129 C133 1.269 . S
O130 Zn127 1.986 . S
O130 C137 1.262 . S
O131 Zn126 2.049 . S
O131 C139 1.260 . S
O132 Zn127 1.996 . S
O132 C139 1.257 . S
C133 O128 1.254 . S
C133 O129 1.269 . S
C134 O135 1.249 . S
C134 O136 1.270 . S
O135 Zn127 1.943 . S
O135 C134 1.249 . S
O136 Zn126 2.067 . S
O136 C134 1.270 . S
C137 O130 1.262 . S
C137 O138 1.232 . S
O138 C137 1.232 . S
C139 O131 1.260 . S
C139 O132 1.257 . S
Zn140 O143 2.031 . S
Zn140 O145 2.049 . S
Zn140 O150 2.067 . S
Zn141 O142 1.962 . S
Zn141 O144 1.986 . S
Zn141 O146 1.996 . S
Zn141 O149 1.943 . S
O142 Zn141 1.962 . S
O142 C147 1.254 . S
O143 Zn140 2.031 . S
O143 C147 1.269 . S
O144 Zn141 1.986 . S
O144 C151 1.262 . S
O145 Zn140 2.049 . S
O145 C153 1.260 . S
O146 Zn141 1.996 . S
O146 C153 1.257 . S
C147 O142 1.254 . S
C147 O143 1.269 . S
C148 O149 1.249 . S
C148 O150 1.270 . S
O149 Zn141 1.943 . S
O149 C148 1.249 . S
O150 Zn140 2.067 . S
O150 C148 1.270 . S
C151 O144 1.262 . S
C151 O152 1.232 . S
O152 C151 1.232 . S
C153 O145 1.260 . S
C153 O146 1.257 . S
Zn154 O157 2.031 . S
Zn154 O159 2.049 . S
Zn154 O164 2.067 . S
Zn155 O156 1.962 . S
Zn155 O158 1.986 . S
Zn155 O160 1.996 . S
Zn155 O163 1.943 . S
O156 Zn155 1.962 . S
O156 C161 1.254 . S
O157 Zn154 2.031 . S
O157 C161 1.269 . S
O158 Zn155 1.986 . S
O158 C165 1.262 . S
O159 Zn154 2.049 . S
O159 C167 1.260 . S
O160 Zn155 1.996 . S
O160 C167 1.257 . S
C161 O156 1.254 . S
C161 O157 1.269 . S
C162 O163 1.249 . S
C162 O164 1.270 . S
O163 Zn155 1.943 . S
O163 C162 1.249 . S
O164 Zn154 2.067 . S
O164 C162 1.270 . S
C165 O158 1.262 . S
C165 O166 1.232 . S
O166 C165 1.232 . S
C167 O159 1.260 . S
C167 O160 1.257 . S
Zn168 O171 2.031 . S
Zn168 O173 2.049 . S
Zn168 O178 2.067 . S
Zn169 O170 1.962 . S
Zn169 O172 1.986 . S
Zn169 O174 1.996 . S
Zn169 O177 1.943 . S
O170 Zn169 1.962 . S
O170 C175 1.254 . S
O171 Zn168 2.031 . S
O171 C175 1.269 . S
O172 Zn169 1.986 . S
O172 C179 1.262 . S
O173 Zn168 2.049 . S
O173 C181 1.260 . S
O174 Zn169 1.996 . S
O174 C181 1.257 . S
C175 O170 1.254 . S
C175 O171 1.269 . S
C176 O177 1.249 . S
C176 O178 1.270 . S
O177 Zn169 1.943 . S
O177 C176 1.249 . S
O178 Zn168 2.067 . S
O178 C176 1.270 . S
C179 O172 1.262 . S
C179 O180 1.232 . S
O180 C179 1.232 . S
C181 O173 1.260 . S
C181 O174 1.257 . S
Zn182 O185 2.031 . S
Zn182 O187 2.049 . S
Zn182 O192 2.067 . S
Zn183 O184 1.962 . S
Zn183 O186 1.986 . S
Zn183 O188 1.996 . S
Zn183 O191 1.943 . S
O184 Zn183 1.962 . S
O184 C189 1.254 . S
O185 Zn182 2.031 . S
O185 C189 1.269 . S
O186 Zn183 1.986 . S
O186 C193 1.262 . S
O187 Zn182 2.049 . S
O187 C195 1.260 . S
O188 Zn183 1.996 . S
O188 C195 1.257 . S
C189 O184 1.254 . S
C189 O185 1.269 . S
C190 O191 1.249 . S
C190 O192 1.270 . S
O191 Zn183 1.943 . S
O191 C190 1.249 . S
O192 Zn182 2.067 . S
O192 C190 1.270 . S
C193 O186 1.262 . S
C193 O194 1.232 . S
O194 C193 1.232 . S
C195 O187 1.260 . S
C195 O188 1.257 . S
Zn196 O199 2.031 . S
Zn196 O201 2.049 . S
Zn196 O206 2.067 . S
Zn197 O198 1.962 . S
Zn197 O200 1.986 . S
Zn197 O202 1.996 . S
Zn197 O205 1.943 . S
O198 Zn197 1.962 . S
O198 C203 1.254 . S
O199 Zn196 2.031 . S
O199 C203 1.269 . S
O200 Zn197 1.986 . S
O200 C207 1.262 . S
O201 Zn196 2.049 . S
O201 C209 1.260 . S
O202 Zn197 1.996 . S
O202 C209 1.257 . S
C203 O198 1.254 . S
C203 O199 1.269 . S
C204 O205 1.249 . S
C204 O206 1.270 . S
O205 Zn197 1.943 . S
O205 C204 1.249 . S
O206 Zn196 2.067 . S
O206 C204 1.270 . S
C207 O200 1.262 . S
C207 O208 1.232 . S
O208 C207 1.232 . S
C209 O201 1.260 . S
C209 O202 1.257 . S
Zn210 O213 2.031 . S
Zn210 O215 2.049 . S
Zn210 O220 2.067 . S
Zn211 O212 1.962 . S
Zn211 O214 1.986 . S
Zn211 O216 1.996 . S
Zn211 O219 1.943 . S
O212 Zn211 1.962 . S
O212 C217 1.254 . S
O213 Zn210 2.031 . S
O213 C217 1.269 . S
O214 Zn211 1.986 . S
O214 C221 1.262 . S
O215 Zn210 2.049 . S
O215 C223 1.260 . S
O216 Zn211 1.996 . S
O216 C223 1.257 . S
C217 O212 1.254 . S
C217 O213 1.269 . S
C218 O219 1.249 . S
C218 O220 1.270 . S
O219 Zn211 1.943 . S
O219 C218 1.249 . S
O220 Zn210 2.067 . S
O220 C218 1.270 . S
C221 O214 1.262 . S
C221 O222 1.232 . S
O222 C221 1.232 . S
C223 O215 1.260 . S
C223 O216 1.257 . S
Zn224 O227 2.031 . S
Zn224 O229 2.049 . S
Zn224 O234 2.067 . S
Zn225 O226 1.962 . S
Zn225 O228 1.986 . S
Zn225 O230 1.996 . S
Zn225 O233 1.943 . S
O226 Zn225 1.962 . S
O226 C231 1.254 . S
O227 Zn224 2.031 . S
O227 C231 1.269 . S
O228 Zn225 1.986 . S
O228 C235 1.262 . S
O229 Zn224 2.049 . S
O229 C237 1.260 . S
O230 Zn225 1.996 . S
O230 C237 1.257 . S
C231 O226 1.254 . S
C231 O227 1.269 . S
C232 O233 1.249 . S
C232 O234 1.270 . S
O233 Zn225 1.943 . S
O233 C232 1.249 . S
O234 Zn224 2.067 . S
O234 C232 1.270 . S
C235 O228 1.262 . S
C235 O236 1.232 . S
O236 C235 1.232 . S
C237 O229 1.260 . S
C237 O230 1.257 . S
Zn238 O241 2.031 . S
Zn238 O243 2.049 . S
Zn238 O248 2.067 . S
Zn239 O240 1.962 . S
Zn239 O242 1.986 . S
Zn239 O244 1.996 . S
Zn239 O247 1.943 . S
O240 Zn239 1.962 . S
O240 C245 1.254 . S
O241 Zn238 2.031 . S
O241 C245 1.269 . S
O242 Zn239 1.986 . S
O242 C249 1.262 . S
O243 Zn238 2.049 . S
O243 C251 1.260 . S
O244 Zn239 1.996 . S
O244 C251 1.257 . S
C245 O240 1.254 . S
C245 O241 1.269 . S
C246 O247 1.249 . S
C246 O248 1.270 . S
O247 Zn239 1.943 . S
O247 C246 1.249 . S
O248 Zn238 2.067 . S
O248 C246 1.270 . S
C249 O242 1.262 . S
C249 O250 1.232 . S
O250 C249 1.232 . S
C251 O243 1.260 . S
C251 O244 1.257 . S
Zn252 O255 2.031 . S
Zn252 O257 2.049 . S
Zn252 O262 2.067 . S
Zn253 O254 1.962 . S
Zn253 O256 1.986 . S
Zn253 O258 1.996 . S
Zn253 O261 1.943 . S
O254 Zn253 1.962 . S
O254 C259 1.254 . S
O255 Zn252 2.031 . S
O255 C259 1.269 . S
O256 Zn253 1.986 . S
O256 C263 1.262 . S
O257 Zn252 2.049 . S
O257 C265 1.260 . S
O258 Zn253 1.996 . S
O258 C265 1.257 . S
C259 O254 1.254 . S
C259 O255 1.269 . S
C260 O261 1.249 . S
C260 O262 1.270 . S
O261 Zn253 1.943 . S
O261 C260 1.249 . S
O262 Zn252 2.067 . S
O262 C260 1.270 . S
C263 O256 1.262 . S
C263 O264 1.232 . S
O264 C263 1.232 . S
C265 O257 1.260 . S
C265 O258 1.257 . S
Zn266 O269 2.031 . S
Zn266 O271 2.049 . S
Zn266 O276 2.067 . S
Zn267 O268 1.962 . S
Zn267 O270 1.986 . S
Zn267 O272 1.996 . S
Zn267 O275 1.943 . S
O268 Zn267 1.962 . S
O268 C273 1.254 . S
O269 Zn266 2.031 . S
O269 C273 1.269 . S
O270 Zn267 1.986 . S
O270 C277 1.262 . S
O271 Zn266 2.049 . S
O271 C279 1.260 . S
O272 Zn267 1.996 . S
O272 C279 1.257 . S
C273 O268 1.254 . S
C273 O269 1.269 . S
C274 O275 1.249 . S
C274 O276 1.270 . S
O275 Zn267 1.943 . S
O275 C274 1.249 . S
O276 Zn266 2.067 . S
O276 C274 1.270 . S
C277 O270 1.262 . S
C277 O278 1.232 . S
O278 C277 1.232 . S
C279 O271 1.260 . S
C279 O272 1.257 . S
Zn280 O283 2.031 . S
Zn280 O285 2.049 . S
Zn280 O290 2.067 . S
Zn281 O282 1.962 . S
Zn281 O284 1.986 . S
Zn281 O286 1.996 . S
Zn281 O289 1.943 . S
O282 Zn281 1.962 . S
O282 C287 1.254 . S
O283 Zn280 2.031 . S
O283 C287 1.269 . S
O284 Zn281 1.986 . S
O284 C291 1.262 . S
O285 Zn280 2.049 . S
O285 C293 1.260 . S
O286 Zn281 1.996 . S
O286 C293 1.257 . S
C287 O282 1.254 . S
C287 O283 1.269 . S
C288 O289 1.249 . S
C288 O290 1.270 . S
O289 Zn281 1.943 . S
O289 C288 1.249 . S
O290 Zn280 2.067 . S
O290 C288 1.270 . S
C291 O284 1.262 . S
C291 O292 1.232 . S
O292 C291 1.232 . S
C293 O285 1.260 . S
C293 O286 1.257 . S
Zn294 O297 2.031 . S
Zn294 O299 2.049 . S
Zn294 O304 2.067 . S
Zn295 O296 1.962 . S
Zn295 O298 1.986 . S
Zn295 O300 1.996 . S
Zn295 O303 1.943 . S
O296 Zn295 1.962 . S
O296 C301 1.254 . S
O297 Zn294 2.031 . S
O297 C301 1.269 . S
O298 Zn295 1.986 . S
O298 C305 1.262 . S
O299 Zn294 2.049 . S
O299 C307 1.260 . S
O300 Zn295 1.996 . S
O300 C307 1.257 . S
C301 O296 1.254 . S
C301 O297 1.269 . S
C302 O303 1.249 . S
C302 O304 1.270 . S
O303 Zn295 1.943 . S
O303 C302 1.249 . S
O304 Zn294 2.067 . S
O304 C302 1.270 . S
C305 O298 1.262 . S
C305 O306 1.232 . S
O306 C305 1.232 . S
C307 O299 1.260 . S
C307 O300 1.257 . S
Zn308 O311 2.031 . S
Zn308 O313 2.049 . S
Zn308 O318 2.067 . S
Zn309 O310 1.962 . S
Zn309 O312 1.986 . S
Zn309 O314 1.996 . S
Zn309 O317 1.943 . S
O310 Zn309 1.962 . S
O310 C315 1.254 . S
O311 Zn308 2.031 . S
O311 C315 1.269 . S
O312 Zn309 1.986 . S
O312 C319 1.262 . S
O313 Zn308 2.049 . S
O313 C321 1.260 . S
O314 Zn309 1.996 . S
O314 C321 1.257 . S
C315 O310 1.254 . S
C315 O311 1.269 . S
C316 O317 1.249 . S
C316 O318 1.270 . S
O317 Zn309 1.943 . S
O317 C316 1.249 . S
O318 Zn308 2.067 . S
O318 C316 1.270 . S
C319 O312 1.262 . S
C319 O320 1.232 . S
O320 C319 1.232 . S
C321 O313 1.260 . S
C321 O314 1.257 . S
Zn322 O325 2.031 . S
Zn322 O327 2.049 . S
Zn322 O332 2.067 . S
Zn323 O324 1.962 . S
Zn323 O326 1.986 . S
Zn323 O328 1.996 . S
Zn323 O331 1.943 . S
O324 Zn323 1.962 . S
O324 C329 1.254 . S
O325 Zn322 2.031 . S
O325 C329 1.269 . S
O326 Zn323 1.986 . S
O326 C333 1.262 . S
O327 Zn322 2.049 . S
O327 C335 1.260 . S
O328 Zn323 1.996 . S
O328 C335 1.257 . S
C329 O324 1.254 . S
C329 O325 1.269 . S
C330 O331 1.249 . S
C330 O332 1.270 . S
O331 Zn323 1.943 . S
O331 C330 1.249 . S
O332 Zn322 2.067 . S
O332 C330 1.270 . S
C333 O326 1.262 . S
C333 O334 1.232 . S
O334 C333 1.232 . S
C335 O327 1.260 . S
C335 O328 1.257 . S
H336 C344 0.950 . S
H337 C349 0.950 . S
H338 C346 0.950 . S
H339 C348 0.950 . S
H340 C350 0.950 . S
H341 C352 0.950 . S
H342 C354 0.950 . S
H343 C355 0.950 . S
C344 H336 0.950 . S
C344 C345 1.386 . S
C344 C346 1.391 . S
C345 C344 1.386 . S
C345 C349 1.393 . S
C346 H338 0.950 . S
C346 C344 1.391 . S
C346 C347 1.400 . S
C347 C346 1.400 . S
C347 C348 1.398 . S
C347 C353 1.491 . S
C348 H339 0.950 . S
C348 C347 1.398 . S
C348 C349 1.391 . S
C349 H337 0.950 . S
C349 C345 1.393 . S
C349 C348 1.391 . S
C350 H340 0.950 . S
C350 C351 1.386 . S
C350 C352 1.391 . S
C351 C350 1.386 . S
C351 C355 1.393 . S
C352 H341 0.950 . S
C352 C350 1.391 . S
C352 C353 1.400 . S
C353 C347 1.491 . S
C353 C352 1.400 . S
C353 C354 1.398 . S
C354 H342 0.950 . S
C354 C353 1.398 . S
C354 C355 1.391 . S
C355 H343 0.950 . S
C355 C351 1.393 . S
C355 C354 1.391 . S
H356 C364 0.950 . S
H357 C369 0.950 . S
H358 C366 0.950 . S
H359 C368 0.950 . S
H360 C370 0.950 . S
H361 C372 0.950 . S
H362 C374 0.950 . S
H363 C375 0.950 . S
C364 H356 0.950 . S
C364 C365 1.386 . S
C364 C366 1.391 . S
C365 C364 1.386 . S
C365 C369 1.393 . S
C366 H358 0.950 . S
C366 C364 1.391 . S
C366 C367 1.400 . S
C367 C366 1.400 . S
C367 C368 1.398 . S
C367 C373 1.491 . S
C368 H359 0.950 . S
C368 C367 1.398 . S
C368 C369 1.391 . S
C369 H357 0.950 . S
C369 C365 1.393 . S
C369 C368 1.391 . S
C370 H360 0.950 . S
C370 C371 1.386 . S
C370 C372 1.391 . S
C371 C370 1.386 . S
C371 C375 1.393 . S
C372 H361 0.950 . S
C372 C370 1.391 . S
C372 C373 1.400 . S
C373 C367 1.491 . S
C373 C372 1.400 . S
C373 C374 1.398 . S
C374 H362 0.950 . S
C374 C373 1.398 . S
C374 C375 1.391 . S
C375 H363 0.950 . S
C375 C371 1.393 . S
C375 C374 1.391 . S
H376 C384 0.950 . S
H377 C389 0.950 . S
H378 C386 0.950 . S
H379 C388 0.950 . S
H380 C390 0.950 . S
H381 C392 0.950 . S
H382 C394 0.950 . S
H383 C395 0.950 . S
C384 H376 0.950 . S
C384 C385 1.386 . S
C384 C386 1.391 . S
C385 C384 1.386 . S
C385 C389 1.393 . S
C386 H378 0.950 . S
C386 C384 1.391 . S
C386 C387 1.400 . S
C387 C386 1.400 . S
C387 C388 1.398 . S
C387 C393 1.491 . S
C388 H379 0.950 . S
C388 C387 1.398 . S
C388 C389 1.391 . S
C389 H377 0.950 . S
C389 C385 1.393 . S
C389 C388 1.391 . S
C390 H380 0.950 . S
C390 C391 1.386 . S
C390 C392 1.391 . S
C391 C390 1.386 . S
C391 C395 1.393 . S
C392 H381 0.950 . S
C392 C390 1.391 . S
C392 C393 1.400 . S
C393 C387 1.491 . S
C393 C392 1.400 . S
C393 C394 1.398 . S
C394 H382 0.950 . S
C394 C393 1.398 . S
C394 C395 1.391 . S
C395 H383 0.950 . S
C395 C391 1.393 . S
C395 C394 1.391 . S
H396 C404 0.950 . S
H397 C409 0.950 . S
H398 C406 0.950 . S
H399 C408 0.950 . S
H400 C410 0.950 . S
H401 C412 0.950 . S
H402 C414 0.950 . S
H403 C415 0.950 . S
C404 H396 0.950 . S
C404 C405 1.386 . S
C404 C406 1.391 . S
C405 C404 1.386 . S
C405 C409 1.393 . S
C406 H398 0.950 . S
C406 C404 1.391 . S
C406 C407 1.400 . S
C407 C406 1.400 . S
C407 C408 1.398 . S
C407 C413 1.491 . S
C408 H399 0.950 . S
C408 C407 1.398 . S
C408 C409 1.391 . S
C409 H397 0.950 . S
C409 C405 1.393 . S
C409 C408 1.391 . S
C410 H400 0.950 . S
C410 C411 1.386 . S
C410 C412 1.391 . S
C411 C410 1.386 . S
C411 C415 1.393 . S
C412 H401 0.950 . S
C412 C410 1.391 . S
C412 C413 1.400 . S
C413 C407 1.491 . S
C413 C412 1.400 . S
C413 C414 1.398 . S
C414 H402 0.950 . S
C414 C413 1.398 . S
C414 C415 1.391 . S
C415 H403 0.950 . S
C415 C411 1.393 . S
C415 C414 1.391 . S
H416 C424 0.950 . S
H417 C429 0.950 . S
H418 C426 0.950 . S
H419 C428 0.950 . S
H420 C430 0.950 . S
H421 C432 0.950 . S
H422 C434 0.950 . S
H423 C435 0.950 . S
C424 H416 0.950 . S
C424 C425 1.386 . S
C424 C426 1.391 . S
C425 C424 1.386 . S
C425 C429 1.393 . S
C426 H418 0.950 . S
C426 C424 1.391 . S
C426 C427 1.400 . S
C427 C426 1.400 . S
C427 C428 1.398 . S
C427 C433 1.491 . S
C428 H419 0.950 . S
C428 C427 1.398 . S
C428 C429 1.391 . S
C429 H417 0.950 . S
C429 C425 1.393 . S
C429 C428 1.391 . S
C430 H420 0.950 . S
C430 C431 1.386 . S
C430 C432 1.391 . S
C431 C430 1.386 . S
C431 C435 1.393 . S
C432 H421 0.950 . S
C432 C430 1.391 . S
C432 C433 1.400 . S
C433 C427 1.491 . S
C433 C432 1.400 . S
C433 C434 1.398 . S
C434 H422 0.950 . S
C434 C433 1.398 . S
C434 C435 1.391 . S
C435 H423 0.950 . S
C435 C431 1.393 . S
C435 C434 1.391 . S
H436 C444 0.950 . S
H437 C449 0.950 . S
H438 C446 0.950 . S
H439 C448 0.950 . S
H440 C450 0.950 . S
H441 C452 0.950 . S
H442 C454 0.950 . S
H443 C455 0.950 . S
C444 H436 0.950 . S
C444 C445 1.386 . S
C444 C446 1.391 . S
C445 C444 1.386 . S
C445 C449 1.393 . S
C446 H438 0.950 . S
C446 C444 1.391 . S
C446 C447 1.400 . S
C447 C446 1.400 . S
C447 C448 1.398 . S
C447 C453 1.491 . S
C448 H439 0.950 . S
C448 C447 1.398 . S
C448 C449 1.391 . S
C449 H437 0.950 . S
C449 C445 1.393 . S
C449 C448 1.391 . S
C450 H440 0.950 . S
C450 C451 1.386 . S
C450 C452 1.391 . S
C451 C450 1.386 . S
C451 C455 1.393 . S
C452 H441 0.950 . S
C452 C450 1.391 . S
C452 C453 1.400 . S
C453 C447 1.491 . S
C453 C452 1.400 . S
C453 C454 1.398 . S
C454 H442 0.950 . S
C454 C453 1.398 . S
C454 C455 1.391 . S
C455 H443 0.950 . S
C455 C451 1.393 . S
C455 C454 1.391 . S
H456 C464 0.950 . S
H457 C469 0.950 . S
H458 C466 0.950 . S
H459 C468 0.950 . S
H460 C470 0.950 . S
H461 C472 0.950 . S
H462 C474 0.950 . S
H463 C475 0.950 . S
C464 H456 0.950 . S
C464 C465 1.386 . S
C464 C466 1.391 . S
C465 C464 1.386 . S
C465 C469 1.393 . S
C466 H458 0.950 . S
C466 C464 1.391 . S
C466 C467 1.400 . S
C467 C466 1.400 . S
C467 C468 1.398 . S
C467 C473 1.491 . S
C468 H459 0.950 . S
C468 C467 1.398 . S
C468 C469 1.391 . S
C469 H457 0.950 . S
C469 C465 1.393 . S
C469 C468 1.391 . S
C470 H460 0.950 . S
C470 C471 1.386 . S
C470 C472 1.391 . S
C471 C470 1.386 . S
C471 C475 1.393 . S
C472 H461 0.950 . S
C472 C470 1.391 . S
C472 C473 1.400 . S
C473 C467 1.491 . S
C473 C472 1.400 . S
C473 C474 1.398 . S
C474 H462 0.950 . S
C474 C473 1.398 . S
C474 C475 1.391 . S
C475 H463 0.950 . S
C475 C471 1.393 . S
C475 C474 1.391 . S
H476 C484 0.950 . S
H477 C489 0.950 . S
H478 C486 0.950 . S
H479 C488 0.950 . S
H480 C490 0.950 . S
H481 C492 0.950 . S
H482 C494 0.950 . S
H483 C495 0.950 . S
C484 H476 0.950 . S
C484 C485 1.386 . S
C484 C486 1.391 . S
C485 C484 1.386 . S
C485 C489 1.393 . S
C486 H478 0.950 . S
C486 C484 1.391 . S
C486 C487 1.400 . S
C487 C486 1.400 . S
C487 C488 1.398 . S
C487 C493 1.491 . S
C488 H479 0.950 . S
C488 C487 1.398 . S
C488 C489 1.391 . S
C489 H477 0.950 . S
C489 C485 1.393 . S
C489 C488 1.391 . S
C490 H480 0.950 . S
C490 C491 1.386 . S
C490 C492 1.391 . S
C491 C490 1.386 . S
C491 C495 1.393 . S
C492 H481 0.950 . S
C492 C490 1.391 . S
C492 C493 1.400 . S
C493 C487 1.491 . S
C493 C492 1.400 . S
C493 C494 1.398 . S
C494 H482 0.950 . S
C494 C493 1.398 . S
C494 C495 1.391 . S
C495 H483 0.950 . S
C495 C491 1.393 . S
C495 C494 1.391 . S
H496 C504 0.950 . S
H497 C509 0.950 . S
H498 C506 0.950 . S
H499 C508 0.950 . S
H500 C510 0.950 . S
H501 C512 0.950 . S
H502 C514 0.950 . S
H503 C515 0.950 . S
C504 H496 0.950 . S
C504 C505 1.386 . S
C504 C506 1.391 . S
C505 C504 1.386 . S
C505 C509 1.393 . S
C506 H498 0.950 . S
C506 C504 1.391 . S
C506 C507 1.400 . S
C507 C506 1.400 . S
C507 C508 1.398 . S
C507 C513 1.491 . S
C508 H499 0.950 . S
C508 C507 1.398 . S
C508 C509 1.391 . S
C509 H497 0.950 . S
C509 C505 1.393 . S
C509 C508 1.391 . S
C510 H500 0.950 . S
C510 C511 1.386 . S
C510 C512 1.391 . S
C511 C510 1.386 . S
C511 C515 1.393 . S
C512 H501 0.950 . S
C512 C510 1.391 . S
C512 C513 1.400 . S
C513 C507 1.491 . S
C513 C512 1.400 . S
C513 C514 1.398 . S
C514 H502 0.950 . S
C514 C513 1.398 . S
C514 C515 1.391 . S
C515 H503 0.950 . S
C515 C511 1.393 . S
C515 C514 1.391 . S
H516 C524 0.950 . S
H517 C529 0.950 . S
H518 C526 0.950 . S
H519 C528 0.950 . S
H520 C530 0.950 . S
H521 C532 0.950 . S
H522 C534 0.950 . S
H523 C535 0.950 . S
C524 H516 0.950 . S
C524 C525 1.386 . S
C524 C526 1.391 . S
C525 C524 1.386 . S
C525 C529 1.393 . S
C526 H518 0.950 . S
C526 C524 1.391 . S
C526 C527 1.400 . S
C527 C526 1.400 . S
C527 C528 1.398 . S
C527 C533 1.491 . S
C528 H519 0.950 . S
C528 C527 1.398 . S
C528 C529 1.391 . S
C529 H517 0.950 . S
C529 C525 1.393 . S
C529 C528 1.391 . S
C530 H520 0.950 . S
C530 C531 1.386 . S
C530 C532 1.391 . S
C531 C530 1.386 . S
C531 C535 1.393 . S
C532 H521 0.950 . S
C532 C530 1.391 . S
C532 C533 1.400 . S
C533 C527 1.491 . S
C533 C532 1.400 . S
C533 C534 1.398 . S
C534 H522 0.950 . S
C534 C533 1.398 . S
C534 C535 1.391 . S
C535 H523 0.950 . S
C535 C531 1.393 . S
C535 C534 1.391 . S
H536 C544 0.950 . S
H537 C549 0.950 . S
H538 C546 0.950 . S
H539 C548 0.950 . S
H540 C550 0.950 . S
H541 C552 0.950 . S
H542 C554 0.950 . S
H543 C555 0.950 . S
C544 H536 0.950 . S
C544 C545 1.386 . S
C544 C546 1.391 . S
C545 C544 1.386 . S
C545 C549 1.393 . S
C546 H538 0.950 . S
C546 C544 1.391 . S
C546 C547 1.400 . S
C547 C546 1.400 . S
C547 C548 1.398 . S
C547 C553 1.491 . S
C548 H539 0.950 . S
C548 C547 1.398 . S
C548 C549 1.391 . S
C549 H537 0.950 . S
C549 C545 1.393 . S
C549 C548 1.391 . S
C550 H540 0.950 . S
C550 C551 1.386 . S
C550 C552 1.391 . S
C551 C550 1.386 . S
C551 C555 1.393 . S
C552 H541 0.950 . S
C552 C550 1.391 . S
C552 C553 1.400 . S
C553 C547 1.491 . S
C553 C552 1.400 . S
C553 C554 1.398 . S
C554 H542 0.950 . S
C554 C553 1.398 . S
C554 C555 1.391 . S
C555 H543 0.950 . S
C555 C551 1.393 . S
C555 C554 1.391 . S
H556 C564 0.950 . S
H557 C569 0.950 . S
H558 C566 0.950 . S
H559 C568 0.950 . S
H560 C570 0.950 . S
H561 C572 0.950 . S
H562 C574 0.950 . S
H563 C575 0.950 . S
C564 H556 0.950 . S
C564 C565 1.386 . S
C564 C566 1.391 . S
C565 C564 1.386 . S
C565 C569 1.393 . S
C566 H558 0.950 . S
C566 C564 1.391 . S
C566 C567 1.400 . S
C567 C566 1.400 . S
C567 C568 1.398 . S
C567 C573 1.491 . S
C568 H559 0.950 . S
C568 C567 1.398 . S
C568 C569 1.391 . S
C569 H557 0.950 . S
C569 C565 1.393 . S
C569 C568 1.391 . S
C570 H560 0.950 . S
C570 C571 1.386 . S
C570 C572 1.391 . S
C571 C570 1.386 . S
C571 C575 1.393 . S
C572 H561 0.950 . S
C572 C570 1.391 . S
C572 C573 1.400 . S
C573 C567 1.491 . S
C573 C572 1.400 . S
C573 C574 1.398 . S
C574 H562 0.950 . S
C574 C573 1.398 . S
C574 C575 1.391 . S
C575 H563 0.950 . S
C575 C571 1.393 . S
C575 C574 1.391 . S
H576 C584 0.950 . S
H577 C589 0.950 . S
H578 C586 0.950 1_554 S
H579 C588 0.950 . S
H580 C590 0.950 . S
H581 C592 0.950 1_556 S
H582 C594 0.950 . S
H583 C595 0.950 . S
C584 H576 0.950 . S
C584 C585 1.386 . S
C584 C586 1.391 . S
C585 C584 1.386 . S
C585 C589 1.393 . S
C586 H578 0.950 1_556 S
C586 C584 1.391 . S
C586 C587 1.400 . S
C587 C586 1.400 . S
C587 C588 1.398 . S
C587 C593 1.491 1_556 S
C588 H579 0.950 . S
C588 C587 1.398 . S
C588 C589 1.391 . S
C589 H577 0.950 . S
C589 C585 1.393 . S
C589 C588 1.391 . S
C590 H580 0.950 . S
C590 C591 1.386 . S
C590 C592 1.391 . S
C591 C590 1.386 . S
C591 C595 1.393 . S
C592 H581 0.950 1_554 S
C592 C590 1.391 . S
C592 C593 1.400 . S
C593 C587 1.491 1_554 S
C593 C592 1.400 . S
C593 C594 1.398 . S
C594 H582 0.950 . S
C594 C593 1.398 . S
C594 C595 1.391 . S
C595 H583 0.950 . S
C595 C591 1.393 . S
C595 C594 1.391 . S
H596 C604 0.950 . S
H597 C609 0.950 . S
H598 C606 0.950 . S
H599 C608 0.950 . S
H600 C610 0.950 . S
H601 C612 0.950 . S
H602 C614 0.950 . S
H603 C615 0.950 . S
C604 H596 0.950 . S
C604 C605 1.386 . S
C604 C606 1.391 . S
C605 C604 1.386 . S
C605 C609 1.393 . S
C606 H598 0.950 . S
C606 C604 1.391 . S
C606 C607 1.400 . S
C607 C606 1.400 . S
C607 C608 1.398 . S
C607 C613 1.491 . S
C608 H599 0.950 . S
C608 C607 1.398 . S
C608 C609 1.391 . S
C609 H597 0.950 . S
C609 C605 1.393 . S
C609 C608 1.391 . S
C610 H600 0.950 . S
C610 C611 1.386 . S
C610 C612 1.391 . S
C611 C610 1.386 . S
C611 C615 1.393 . S
C612 H601 0.950 . S
C612 C610 1.391 . S
C612 C613 1.400 . S
C613 C607 1.491 . S
C613 C612 1.400 . S
C613 C614 1.398 . S
C614 H602 0.950 . S
C614 C613 1.398 . S
C614 C615 1.391 . S
C615 H603 0.950 . S
C615 C611 1.393 . S
C615 C614 1.391 . S
H616 C624 0.956 . S
H617 C629 0.950 . S
H618 C626 0.950 . S
H619 C628 0.950 . S
H620 C630 0.956 . S
H621 C632 0.950 . S
H622 C634 0.950 . S
H623 C635 0.950 . S
C624 H616 0.956 . S
C624 C625 1.386 . S
C624 C626 1.391 1_554 S
C625 C624 1.386 . S
C625 C629 1.393 . S
C626 H618 0.950 . S
C626 C624 1.391 1_556 S
C626 C627 1.400 1_556 S
C627 C626 1.400 1_554 S
C627 C628 1.398 . S
C627 C633 1.491 1_554 S
C628 H619 0.950 . S
C628 C627 1.398 . S
C628 C629 1.391 . S
C629 H617 0.950 . S
C629 C625 1.393 . S
C629 C628 1.391 . S
C630 H620 0.956 . S
C630 C631 1.386 . S
C630 C632 1.391 1_556 S
C631 C630 1.386 . S
C631 C635 1.393 . S
C632 H621 0.950 . S
C632 C630 1.391 1_554 S
C632 C633 1.400 1_554 S
C633 C627 1.491 1_556 S
C633 C632 1.400 1_556 S
C633 C634 1.398 . S
C634 H622 0.950 . S
C634 C633 1.398 . S
C634 C635 1.391 . S
C635 H623 0.950 . S
C635 C631 1.393 . S
C635 C634 1.391 . S
H636 C644 0.950 . S
H637 C649 0.950 . S
H638 C646 0.950 . S
H639 C648 0.950 . S
H640 C650 0.950 . S
H641 C652 0.950 . S
H642 C654 0.950 . S
H643 C655 0.950 . S
C644 H636 0.950 . S
C644 C645 1.386 . S
C644 C646 1.391 . S
C645 C644 1.386 . S
C645 C649 1.393 . S
C646 H638 0.950 . S
C646 C644 1.391 . S
C646 C647 1.400 . S
C647 C646 1.400 . S
C647 C648 1.398 . S
C647 C653 1.491 . S
C648 H639 0.950 . S
C648 C647 1.398 . S
C648 C649 1.391 . S
C649 H637 0.950 . S
C649 C645 1.393 . S
C649 C648 1.391 . S
C650 H640 0.950 . S
C650 C651 1.386 . S
C650 C652 1.391 . S
C651 C650 1.386 . S
C651 C655 1.393 . S
C652 H641 0.950 . S
C652 C650 1.391 . S
C652 C653 1.400 . S
C653 C647 1.491 . S
C653 C652 1.400 . S
C653 C654 1.398 . S
C654 H642 0.950 . S
C654 C653 1.398 . S
C654 C655 1.391 . S
C655 H643 0.950 . S
C655 C651 1.393 . S
C655 C654 1.391 . S
H656 C664 0.950 . S
H657 C669 0.948 1_554 S
H658 C666 0.950 . S
H659 C668 0.950 . S
H660 C670 0.950 . S
H661 C672 0.950 . S
H662 C674 0.950 . S
H663 C675 0.948 1_556 S
C664 H656 0.950 . S
C664 C665 1.386 . S
C664 C666 1.391 . S
C665 C664 1.386 . S
C665 C669 1.396 . S
C666 H658 0.950 . S
C666 C664 1.391 . S
C666 C667 1.400 . S
C667 C666 1.400 . S
C667 C668 1.398 1_556 S
C667 C673 1.491 1_556 S
C668 H659 0.950 . S
C668 C667 1.398 1_554 S
C668 C669 1.389 1_554 S
C669 H657 0.948 1_556 S
C669 C665 1.396 . S
C669 C668 1.389 1_556 S
C670 H660 0.950 . S
C670 C671 1.386 . S
C670 C672 1.391 . S
C671 C670 1.386 . S
C671 C675 1.396 . S
C672 H661 0.950 . S
C672 C670 1.391 . S
C672 C673 1.400 . S
C673 C667 1.491 1_554 S
C673 C672 1.400 . S
C673 C674 1.398 1_554 S
C674 H662 0.950 . S
C674 C673 1.398 1_556 S
C674 C675 1.389 1_556 S
C675 H663 0.948 1_554 S
C675 C671 1.396 . S
C675 C674 1.389 1_554 S
H676 C684 0.950 . S
H677 C689 0.950 . S
H678 C686 0.950 . S
H679 C688 0.950 . S
H680 C690 0.950 . S
H681 C692 0.950 . S
H682 C694 0.950 . S
H683 C695 0.950 . S
C684 H676 0.950 . S
C684 C685 1.386 . S
C684 C686 1.391 . S
C685 C684 1.386 . S
C685 C689 1.393 . S
C686 H678 0.950 . S
C686 C684 1.391 . S
C686 C687 1.400 . S
C687 C686 1.400 . S
C687 C688 1.398 . S
C687 C693 1.491 . S
C688 H679 0.950 . S
C688 C687 1.398 . S
C688 C689 1.391 . S
C689 H677 0.950 . S
C689 C685 1.393 . S
C689 C688 1.391 . S
C690 H680 0.950 . S
C690 C691 1.386 . S
C690 C692 1.391 . S
C691 C690 1.386 . S
C691 C695 1.393 . S
C692 H681 0.950 . S
C692 C690 1.391 . S
C692 C693 1.400 . S
C693 C687 1.491 . S
C693 C692 1.400 . S
C693 C694 1.398 . S
C694 H682 0.950 . S
C694 C693 1.398 . S
C694 C695 1.391 . S
C695 H683 0.950 . S
C695 C691 1.393 . S
C695 C694 1.391 . S
H696 C704 0.950 . S
H697 C709 0.950 1_556 S
H698 C706 0.950 . S
H699 C708 0.950 . S
H700 C710 0.950 . S
H701 C712 0.950 . S
H702 C714 0.950 . S
H703 C715 0.950 1_554 S
C704 H696 0.950 . S
C704 C705 1.386 . S
C704 C706 1.391 . S
C705 C704 1.386 . S
C705 C709 1.393 . S
C706 H698 0.950 . S
C706 C704 1.391 . S
C706 C707 1.400 . S
C707 C706 1.400 . S
C707 C708 1.398 1_554 S
C707 C713 1.491 1_554 S
C708 H699 0.950 . S
C708 C707 1.398 1_556 S
C708 C709 1.391 1_556 S
C709 H697 0.950 1_554 S
C709 C705 1.393 . S
C709 C708 1.391 1_554 S
C710 H700 0.950 . S
C710 C711 1.386 . S
C710 C712 1.391 . S
C711 C710 1.386 . S
C711 C715 1.393 . S
C712 H701 0.950 . S
C712 C710 1.391 . S
C712 C713 1.400 . S
C713 C707 1.491 1_556 S
C713 C712 1.400 . S
C713 C714 1.398 1_556 S
C714 H702 0.950 . S
C714 C713 1.398 1_554 S
C714 C715 1.391 1_554 S
C715 H703 0.950 1_556 S
C715 C711 1.393 . S
C715 C714 1.391 1_556 S
H716 C724 0.950 . S
H717 C729 0.950 . S
H718 C726 0.950 . S
H719 C728 0.950 . S
H720 C730 0.950 . S
H721 C732 0.950 . S
H722 C734 0.950 . S
H723 C735 0.950 . S
C724 H716 0.950 . S
C724 C725 1.386 . S
C724 C726 1.391 . S
C725 C724 1.386 . S
C725 C729 1.393 . S
C726 H718 0.950 . S
C726 C724 1.391 . S
C726 C727 1.400 . S
C727 C726 1.400 . S
C727 C728 1.398 . S
C727 C733 1.491 . S
C728 H719 0.950 . S
C728 C727 1.398 . S
C728 C729 1.391 . S
C729 H717 0.950 . S
C729 C725 1.393 . S
C729 C728 1.391 . S
C730 H720 0.950 . S
C730 C731 1.386 . S
C730 C732 1.391 . S
C731 C730 1.386 . S
C731 C735 1.393 . S
C732 H721 0.950 . S
C732 C730 1.391 . S
C732 C733 1.400 . S
C733 C727 1.491 . S
C733 C732 1.400 . S
C733 C734 1.398 . S
C734 H722 0.950 . S
C734 C733 1.398 . S
C734 C735 1.391 . S
C735 H723 0.950 . S
C735 C731 1.393 . S
C735 C734 1.391 . S
H736 C744 0.950 . S
H737 C749 0.950 . S
H738 C746 0.950 1_554 S
H739 C748 0.950 . S
H740 C750 0.950 . S
H741 C752 0.950 1_556 S
H742 C754 0.950 . S
H743 C755 0.950 . S
C744 H736 0.950 . S
C744 C745 1.386 . S
C744 C746 1.391 . S
C745 C744 1.386 . S
C745 C749 1.393 . S
C746 H738 0.950 1_556 S
C746 C744 1.391 . S
C746 C747 1.400 . S
C747 C746 1.400 . S
C747 C748 1.398 . S
C747 C753 1.491 1_556 S
C748 H739 0.950 . S
C748 C747 1.398 . S
C748 C749 1.391 . S
C749 H737 0.950 . S
C749 C745 1.393 . S
C749 C748 1.391 . S
C750 H740 0.950 . S
C750 C751 1.386 . S
C750 C752 1.391 . S
C751 C750 1.386 . S
C751 C755 1.393 . S
C752 H741 0.950 1_554 S
C752 C750 1.391 . S
C752 C753 1.400 . S
C753 C747 1.491 1_554 S
C753 C752 1.400 . S
C753 C754 1.398 . S
C754 H742 0.950 . S
C754 C753 1.398 . S
C754 C755 1.391 . S
C755 H743 0.950 . S
C755 C751 1.393 . S
C755 C754 1.391 . S
H756 C764 0.950 . S
H757 C769 0.950 . S
H758 C766 0.950 . S
H759 C768 0.950 . S
H760 C770 0.950 . S
H761 C772 0.950 . S
H762 C774 0.950 . S
H763 C775 0.950 . S
C764 H756 0.950 . S
C764 C765 1.386 . S
C764 C766 1.391 . S
C765 C764 1.386 . S
C765 C769 1.393 . S
C766 H758 0.950 . S
C766 C764 1.391 . S
C766 C767 1.400 . S
C767 C766 1.400 . S
C767 C768 1.398 . S
C767 C773 1.491 . S
C768 H759 0.950 . S
C768 C767 1.398 . S
C768 C769 1.391 . S
C769 H757 0.950 . S
C769 C765 1.393 . S
C769 C768 1.391 . S
C770 H760 0.950 . S
C770 C771 1.386 . S
C770 C772 1.391 . S
C771 C770 1.386 . S
C771 C775 1.393 . S
C772 H761 0.950 . S
C772 C770 1.391 . S
C772 C773 1.400 . S
C773 C767 1.491 . S
C773 C772 1.400 . S
C773 C774 1.398 . S
C774 H762 0.950 . S
C774 C773 1.398 . S
C774 C775 1.391 . S
C775 H763 0.950 . S
C775 C771 1.393 . S
C775 C774 1.391 . S
H776 C784 0.950 . S
H777 C789 0.947 . S
H778 C786 0.950 . S
H779 C788 0.950 . S
H780 C790 0.950 . S
H781 C792 0.950 . S
H782 C794 0.950 . S
H783 C795 0.947 . S
C784 H776 0.950 . S
C784 C785 1.386 . S
C784 C786 1.391 . S
C785 C784 1.386 . S
C785 C789 1.397 1_556 S
C786 H778 0.950 . S
C786 C784 1.391 . S
C786 C787 1.400 . S
C787 C786 1.400 . S
C787 C788 1.398 1_556 S
C787 C793 1.491 1_556 S
C788 H779 0.950 . S
C788 C787 1.398 1_554 S
C788 C789 1.389 . S
C789 H777 0.947 . S
C789 C785 1.397 1_554 S
C789 C788 1.389 . S
C790 H780 0.950 . S
C790 C791 1.386 . S
C790 C792 1.391 . S
C791 C790 1.386 . S
C791 C795 1.397 1_554 S
C792 H781 0.950 . S
C792 C790 1.391 . S
C792 C793 1.400 . S
C793 C787 1.491 1_554 S
C793 C792 1.400 . S
C793 C794 1.398 1_554 S
C794 H782 0.950 . S
C794 C793 1.398 1_556 S
C794 C795 1.389 . S
C795 H783 0.947 . S
C795 C791 1.397 1_556 S
C795 C794 1.389 . S
H796 C804 0.950 . S
H797 C809 0.950 . S
H798 C806 0.950 . S
H799 C808 0.950 . S
H800 C810 0.950 . S
H801 C812 0.950 . S
H802 C814 0.950 . S
H803 C815 0.950 . S
C804 H796 0.950 . S
C804 C805 1.386 . S
C804 C806 1.391 . S
C805 C804 1.386 . S
C805 C809 1.393 . S
C806 H798 0.950 . S
C806 C804 1.391 . S
C806 C807 1.400 . S
C807 C806 1.400 . S
C807 C808 1.398 . S
C807 C813 1.491 . S
C808 H799 0.950 . S
C808 C807 1.398 . S
C808 C809 1.391 . S
C809 H797 0.950 . S
C809 C805 1.393 . S
C809 C808 1.391 . S
C810 H800 0.950 . S
C810 C811 1.386 . S
C810 C812 1.391 . S
C811 C810 1.386 . S
C811 C815 1.393 . S
C812 H801 0.950 . S
C812 C810 1.391 . S
C812 C813 1.400 . S
C813 C807 1.491 . S
C813 C812 1.400 . S
C813 C814 1.398 . S
C814 H802 0.950 . S
C814 C813 1.398 . S
C814 C815 1.391 . S
C815 H803 0.950 . S
C815 C811 1.393 . S
C815 C814 1.391 . S
H816 C824 0.950 . S
H817 C829 0.950 . S
H818 C826 0.950 . S
H819 C828 0.950 . S
H820 C830 0.950 . S
H821 C832 0.950 . S
H822 C834 0.950 . S
H823 C835 0.950 . S
C824 H816 0.950 . S
C824 C825 1.386 . S
C824 C826 1.391 . S
C825 C824 1.386 . S
C825 C829 1.393 . S
C826 H818 0.950 . S
C826 C824 1.391 . S
C826 C827 1.400 . S
C827 C826 1.400 . S
C827 C828 1.398 . S
C827 C833 1.491 . S
C828 H819 0.950 . S
C828 C827 1.398 . S
C828 C829 1.391 . S
C829 H817 0.950 . S
C829 C825 1.393 . S
C829 C828 1.391 . S
C830 H820 0.950 . S
C830 C831 1.386 . S
C830 C832 1.391 . S
C831 C830 1.386 . S
C831 C835 1.393 . S
C832 H821 0.950 . S
C832 C830 1.391 . S
C832 C833 1.400 . S
C833 C827 1.491 . S
C833 C832 1.400 . S
C833 C834 1.398 . S
C834 H822 0.950 . S
C834 C833 1.398 . S
C834 C835 1.391 . S
C835 H823 0.950 . S
C835 C831 1.393 . S
C835 C834 1.391 . S
H836 C844 0.950 . S
H837 C849 0.950 . S
H838 C846 0.950 . S
H839 C848 0.950 . S
H840 C850 0.950 . S
H841 C852 0.950 . S
H842 C854 0.950 . S
H843 C855 0.950 . S
C844 H836 0.950 . S
C844 C845 1.386 . S
C844 C846 1.391 . S
C845 C844 1.386 . S
C845 C849 1.393 . S
C846 H838 0.950 . S
C846 C844 1.391 . S
C846 C847 1.400 . S
C847 C846 1.400 . S
C847 C848 1.398 . S
C847 C853 1.491 1_455 S
C848 H839 0.950 . S
C848 C847 1.398 . S
C848 C849 1.391 . S
C849 H837 0.950 . S
C849 C845 1.393 . S
C849 C848 1.391 . S
C850 H840 0.950 . S
C850 C851 1.386 . S
C850 C852 1.391 . S
C851 C850 1.386 . S
C851 C855 1.393 . S
C852 H841 0.950 . S
C852 C850 1.391 . S
C852 C853 1.400 . S
C853 C847 1.491 1_655 S
C853 C852 1.400 . S
C853 C854 1.398 . S
C854 H842 0.950 . S
C854 C853 1.398 . S
C854 C855 1.391 . S
C855 H843 0.950 . S
C855 C851 1.393 . S
C855 C854 1.391 . S
H856 C864 0.950 . S
H857 C869 0.950 . S
H858 C866 0.950 . S
H859 C868 0.950 . S
H860 C870 0.950 . S
H861 C872 0.950 . S
H862 C874 0.950 . S
H863 C875 0.950 . S
C864 H856 0.950 . S
C864 C865 1.386 . S
C864 C866 1.391 . S
C865 C864 1.386 . S
C865 C869 1.393 . S
C866 H858 0.950 . S
C866 C864 1.391 . S
C866 C867 1.400 . S
C867 C866 1.400 . S
C867 C868 1.398 . S
C867 C873 1.491 1_565 S
C868 H859 0.950 . S
C868 C867 1.398 . S
C868 C869 1.391 . S
C869 H857 0.950 . S
C869 C865 1.393 . S
C869 C868 1.391 . S
C870 H860 0.950 . S
C870 C871 1.386 . S
C870 C872 1.391 . S
C871 C870 1.386 . S
C871 C875 1.393 . S
C872 H861 0.950 . S
C872 C870 1.391 . S
C872 C873 1.400 . S
C873 C867 1.491 1_545 S
C873 C872 1.400 . S
C873 C874 1.398 . S
C874 H862 0.950 . S
C874 C873 1.398 . S
C874 C875 1.391 . S
C875 H863 0.950 . S
C875 C871 1.393 . S
C875 C874 1.391 . S
H876 C884 0.950 . S
H877 C889 0.950 . S
H878 C886 0.950 . S
H879 C888 0.950 . S
H880 C890 0.950 . S
H881 C892 0.950 . S
H882 C894 0.950 . S
H883 C895 0.950 . S
C884 H876 0.950 . S
C884 C885 1.386 . S
C884 C886 1.391 . S
C885 C884 1.386 . S
C885 C889 1.393 . S
C886 H878 0.950 . S
C886 C884 1.391 . S
C886 C887 1.400 . S
C887 C886 1.400 . S
C887 C888 1.398 . S
C887 C893 1.491 . S
C888 H879 0.950 . S
C888 C887 1.398 . S
C888 C889 1.391 . S
C889 H877 0.950 . S
C889 C885 1.393 . S
C889 C888 1.391 . S
C890 H880 0.950 . S
C890 C891 1.386 . S
C890 C892 1.391 . S
C891 C890 1.386 . S
C891 C895 1.393 . S
C892 H881 0.950 . S
C892 C890 1.391 . S
C892 C893 1.400 . S
C893 C887 1.491 . S
C893 C892 1.400 . S
C893 C894 1.398 . S
C894 H882 0.950 . S
C894 C893 1.398 . S
C894 C895 1.391 . S
C895 H883 0.950 . S
C895 C891 1.393 . S
C895 C894 1.391 . S
H896 C904 0.950 . S
H897 C909 0.950 . S
H898 C906 0.950 . S
H899 C908 0.950 . S
H900 C910 0.950 . S
H901 C912 0.950 . S
H902 C914 0.950 . S
H903 C915 0.950 . S
C904 H896 0.950 . S
C904 C905 1.386 . S
C904 C906 1.391 . S
C905 C904 1.386 . S
C905 C909 1.393 . S
C906 H898 0.950 . S
C906 C904 1.391 . S
C906 C907 1.400 . S
C907 C906 1.400 . S
C907 C908 1.398 . S
C907 C913 1.491 1_655 S
C908 H899 0.950 . S
C908 C907 1.398 . S
C908 C909 1.391 . S
C909 H897 0.950 . S
C909 C905 1.393 . S
C909 C908 1.391 . S
C910 H900 0.950 . S
C910 C911 1.386 . S
C910 C912 1.391 . S
C911 C910 1.386 . S
C911 C915 1.393 . S
C912 H901 0.950 . S
C912 C910 1.391 . S
C912 C913 1.400 . S
C913 C907 1.491 1_455 S
C913 C912 1.400 . S
C913 C914 1.398 . S
C914 H902 0.950 . S
C914 C913 1.398 . S
C914 C915 1.391 . S
C915 H903 0.950 . S
C915 C911 1.393 . S
C915 C914 1.391 . S
H916 C924 0.950 . S
H917 C929 0.950 . S
H918 C926 0.950 . S
H919 C928 0.950 . S
H920 C930 0.950 . S
H921 C932 0.950 . S
H922 C934 0.950 . S
H923 C935 0.950 . S
C924 H916 0.950 . S
C924 C925 1.386 . S
C924 C926 1.391 . S
C925 C924 1.386 . S
C925 C929 1.393 . S
C926 H918 0.950 . S
C926 C924 1.391 . S
C926 C927 1.400 . S
C927 C926 1.400 . S
C927 C928 1.398 . S
C927 C933 1.491 1_545 S
C928 H919 0.950 . S
C928 C927 1.398 . S
C928 C929 1.391 . S
C929 H917 0.950 . S
C929 C925 1.393 . S
C929 C928 1.391 . S
C930 H920 0.950 . S
C930 C931 1.386 . S
C930 C932 1.391 . S
C931 C930 1.386 . S
C931 C935 1.393 . S
C932 H921 0.950 . S
C932 C930 1.391 . S
C932 C933 1.400 . S
C933 C927 1.491 1_565 S
C933 C932 1.400 . S
C933 C934 1.398 . S
C934 H922 0.950 . S
C934 C933 1.398 . S
C934 C935 1.391 . S
C935 H923 0.950 . S
C935 C931 1.393 . S
C935 C934 1.391 . S
H936 C944 0.950 . S
H937 C949 0.950 . S
H938 C946 0.950 . S
H939 C948 0.950 . S
H940 C950 0.950 . S
H941 C952 0.950 . S
H942 C954 0.950 . S
H943 C955 0.950 . S
C944 H936 0.950 . S
C944 C945 1.386 . S
C944 C946 1.391 . S
C945 C944 1.386 . S
C945 C949 1.393 . S
C946 H938 0.950 . S
C946 C944 1.391 . S
C946 C947 1.400 . S
C947 C946 1.400 . S
C947 C948 1.398 . S
C947 C953 1.491 . S
C948 H939 0.950 . S
C948 C947 1.398 . S
C948 C949 1.391 . S
C949 H937 0.950 . S
C949 C945 1.393 . S
C949 C948 1.391 . S
C950 H940 0.950 . S
C950 C951 1.386 . S
C950 C952 1.391 . S
C951 C950 1.386 . S
C951 C955 1.393 . S
C952 H941 0.950 . S
C952 C950 1.391 . S
C952 C953 1.400 . S
C953 C947 1.491 . S
C953 C952 1.400 . S
C953 C954 1.398 . S
C954 H942 0.950 . S
C954 C953 1.398 . S
C954 C955 1.391 . S
C955 H943 0.950 . S
C955 C951 1.393 . S
C955 C954 1.391 . S
H956 C964 0.950 . S
H957 C969 0.950 . S
H958 C966 0.950 . S
H959 C968 0.950 . S
H960 C970 0.950 . S
H961 C972 0.950 . S
H962 C974 0.950 . S
H963 C975 0.950 . S
C964 H956 0.950 . S
C964 C965 1.386 . S
C964 C966 1.391 . S
C965 C964 1.386 . S
C965 C969 1.393 . S
C966 H958 0.950 . S
C966 C964 1.391 . S
C966 C967 1.400 . S
C967 C966 1.400 . S
C967 C968 1.398 . S
C967 C973 1.491 1_655 S
C968 H959 0.950 . S
C968 C967 1.398 . S
C968 C969 1.391 . S
C969 H957 0.950 . S
C969 C965 1.393 . S
C969 C968 1.391 . S
C970 H960 0.950 . S
C970 C971 1.386 . S
C970 C972 1.391 . S
C971 C970 1.386 . S
C971 C975 1.393 . S
C972 H961 0.950 . S
C972 C970 1.391 . S
C972 C973 1.400 . S
C973 C967 1.491 1_455 S
C973 C972 1.400 . S
C973 C974 1.398 . S
C974 H962 0.950 . S
C974 C973 1.398 . S
C974 C975 1.391 . S
C975 H963 0.950 . S
C975 C971 1.393 . S
C975 C974 1.391 . S
H976 C984 0.950 . S
H977 C989 0.950 . S
H978 C986 0.950 . S
H979 C988 0.950 . S
H980 C990 0.950 . S
H981 C992 0.950 . S
H982 C994 0.950 . S
H983 C995 0.950 . S
C984 H976 0.950 . S
C984 C985 1.386 . S
C984 C986 1.391 . S
C985 C984 1.386 . S
C985 C989 1.393 . S
C986 H978 0.950 . S
C986 C984 1.391 . S
C986 C987 1.400 . S
C987 C986 1.400 . S
C987 C988 1.398 . S
C987 C993 1.491 1_545 S
C988 H979 0.950 . S
C988 C987 1.398 . S
C988 C989 1.391 . S
C989 H977 0.950 . S
C989 C985 1.393 . S
C989 C988 1.391 . S
C990 H980 0.950 . S
C990 C991 1.386 . S
C990 C992 1.391 . S
C991 C990 1.386 . S
C991 C995 1.393 . S
C992 H981 0.950 . S
C992 C990 1.391 . S
C992 C993 1.400 . S
C993 C987 1.491 1_565 S
C993 C992 1.400 . S
C993 C994 1.398 . S
C994 H982 0.950 . S
C994 C993 1.398 . S
C994 C995 1.391 . S
C995 H983 0.950 . S
C995 C991 1.393 . S
C995 C994 1.391 . S
H996 C1004 0.950 . S
H997 C1009 0.950 . S
H998 C1006 0.950 . S
H999 C1008 0.950 . S
H1000 C1010 0.950 . S
H1001 C1012 0.950 . S
H1002 C1014 0.950 . S
H1003 C1015 0.950 . S
C1004 H996 0.950 . S
C1004 C1005 1.386 . S
C1004 C1006 1.391 . S
C1005 C1004 1.386 . S
C1005 C1009 1.393 . S
C1006 H998 0.950 . S
C1006 C1004 1.391 . S
C1006 C1007 1.400 . S
C1007 C1006 1.400 . S
C1007 C1008 1.398 . S
C1007 C1013 1.491 . S
C1008 H999 0.950 . S
C1008 C1007 1.398 . S
C1008 C1009 1.391 . S
C1009 H997 0.950 . S
C1009 C1005 1.393 . S
C1009 C1008 1.391 . S
C1010 H1000 0.950 . S
C1010 C1011 1.386 . S
C1010 C1012 1.391 . S
C1011 C1010 1.386 . S
C1011 C1015 1.393 . S
C1012 H1001 0.950 . S
C1012 C1010 1.391 . S
C1012 C1013 1.400 . S
C1013 C1007 1.491 . S
C1013 C1012 1.400 . S
C1013 C1014 1.398 . S
C1014 H1002 0.950 . S
C1014 C1013 1.398 . S
C1014 C1015 1.391 . S
C1015 H1003 0.950 . S
C1015 C1011 1.393 . S
C1015 C1014 1.391 . S
H1016 C1024 0.950 . S
H1017 C1029 0.950 . S
H1018 C1026 0.950 . S
H1019 C1028 0.950 . S
H1020 C1030 0.950 . S
H1021 C1032 0.950 . S
H1022 C1034 0.950 . S
H1023 C1035 0.950 . S
C1024 H1016 0.950 . S
C1024 C1025 1.386 . S
C1024 C1026 1.391 . S
C1025 C1024 1.386 . S
C1025 C1029 1.393 . S
C1026 H1018 0.950 . S
C1026 C1024 1.391 . S
C1026 C1027 1.400 . S
C1027 C1026 1.400 . S
C1027 C1028 1.398 . S
C1027 C1033 1.491 1_455 S
C1028 H1019 0.950 . S
C1028 C1027 1.398 . S
C1028 C1029 1.391 . S
C1029 H1017 0.950 . S
C1029 C1025 1.393 . S
C1029 C1028 1.391 . S
C1030 H1020 0.950 . S
C1030 C1031 1.386 . S
C1030 C1032 1.391 . S
C1031 C1030 1.386 . S
C1031 C1035 1.393 . S
C1032 H1021 0.950 . S
C1032 C1030 1.391 . S
C1032 C1033 1.400 . S
C1033 C1027 1.491 1_655 S
C1033 C1032 1.400 . S
C1033 C1034 1.398 . S
C1034 H1022 0.950 . S
C1034 C1033 1.398 . S
C1034 C1035 1.391 . S
C1035 H1023 0.950 . S
C1035 C1031 1.393 . S
C1035 C1034 1.391 . S
H1036 C1044 0.950 . S
H1037 C1049 0.950 . S
H1038 C1046 0.950 . S
H1039 C1048 0.950 . S
H1040 C1050 0.950 . S
H1041 C1052 0.950 . S
H1042 C1054 0.950 . S
H1043 C1055 0.950 . S
C1044 H1036 0.950 . S
C1044 C1045 1.386 . S
C1044 C1046 1.391 . S
C1045 C1044 1.386 . S
C1045 C1049 1.393 . S
C1046 H1038 0.950 . S
C1046 C1044 1.391 . S
C1046 C1047 1.400 . S
C1047 C1046 1.400 . S
C1047 C1048 1.398 . S
C1047 C1053 1.491 1_565 S
C1048 H1039 0.950 . S
C1048 C1047 1.398 . S
C1048 C1049 1.391 . S
C1049 H1037 0.950 . S
C1049 C1045 1.393 . S
C1049 C1048 1.391 . S
C1050 H1040 0.950 . S
C1050 C1051 1.386 . S
C1050 C1052 1.391 . S
C1051 C1050 1.386 . S
C1051 C1055 1.393 . S
C1052 H1041 0.950 . S
C1052 C1050 1.391 . S
C1052 C1053 1.400 . S
C1053 C1047 1.491 1_545 S
C1053 C1052 1.400 . S
C1053 C1054 1.398 . S
C1054 H1042 0.950 . S
C1054 C1053 1.398 . S
C1054 C1055 1.391 . S
C1055 H1043 0.950 . S
C1055 C1051 1.393 . S
C1055 C1054 1.391 . S
H1056 C1064 0.950 . S
H1057 C1069 0.950 . S
H1058 C1066 0.950 1_554 S
H1059 C1068 0.950 . S
H1060 C1070 0.950 . S
H1061 C1072 0.950 1_556 S
H1062 C1074 0.950 . S
H1063 C1075 0.950 . S
C1064 H1056 0.950 . S
C1064 C1065 1.386 . S
C1064 C1066 1.391 . S
C1065 C1064 1.386 . S
C1065 C1069 1.393 . S
C1066 H1058 0.950 1_556 S
C1066 C1064 1.391 . S
C1066 C1067 1.400 . S
C1067 C1066 1.400 . S
C1067 C1068 1.398 . S
C1067 C1073 1.491 1_556 S
C1068 H1059 0.950 . S
C1068 C1067 1.398 . S
C1068 C1069 1.391 . S
C1069 H1057 0.950 . S
C1069 C1065 1.393 . S
C1069 C1068 1.391 . S
C1070 H1060 0.950 . S
C1070 C1071 1.386 . S
C1070 C1072 1.391 . S
C1071 C1070 1.386 . S
C1071 C1075 1.393 . S
C1072 H1061 0.950 1_554 S
C1072 C1070 1.391 . S
C1072 C1073 1.400 . S
C1073 C1067 1.491 1_554 S
C1073 C1072 1.400 . S
C1073 C1074 1.398 . S
C1074 H1062 0.950 . S
C1074 C1073 1.398 . S
C1074 C1075 1.391 . S
C1075 H1063 0.950 . S
C1075 C1071 1.393 . S
C1075 C1074 1.391 . S
H1076 C1084 0.950 . S
H1077 C1089 0.950 . S
H1078 C1086 0.950 . S
H1079 C1088 0.950 . S
H1080 C1090 0.950 . S
H1081 C1092 0.950 . S
H1082 C1094 0.950 . S
H1083 C1095 0.950 . S
C1084 H1076 0.950 . S
C1084 C1085 1.386 . S
C1084 C1086 1.391 . S
C1085 C1084 1.386 . S
C1085 C1089 1.393 . S
C1086 H1078 0.950 . S
C1086 C1084 1.391 . S
C1086 C1087 1.400 . S
C1087 C1086 1.400 . S
C1087 C1088 1.398 . S
C1087 C1093 1.491 . S
C1088 H1079 0.950 . S
C1088 C1087 1.398 . S
C1088 C1089 1.391 . S
C1089 H1077 0.950 . S
C1089 C1085 1.393 . S
C1089 C1088 1.391 . S
C1090 H1080 0.950 . S
C1090 C1091 1.386 . S
C1090 C1092 1.391 . S
C1091 C1090 1.386 . S
C1091 C1095 1.393 . S
C1092 H1081 0.950 . S
C1092 C1090 1.391 . S
C1092 C1093 1.400 . S
C1093 C1087 1.491 . S
C1093 C1092 1.400 . S
C1093 C1094 1.398 . S
C1094 H1082 0.950 . S
C1094 C1093 1.398 . S
C1094 C1095 1.391 . S
C1095 H1083 0.950 . S
C1095 C1091 1.393 . S
C1095 C1094 1.391 . S
H1096 C1104 0.950 1_554 S
H1097 C1109 0.950 . S
H1098 C1106 0.950 . S
H1099 C1108 0.950 . S
H1100 C1110 0.950 1_556 S
H1101 C1112 0.950 . S
H1102 C1114 0.950 . S
H1103 C1115 0.950 . S
C1104 H1096 0.950 1_556 S
C1104 C1105 1.386 . S
C1104 C1106 1.391 1_556 S
C1105 C1104 1.386 . S
C1105 C1109 1.393 . S
C1106 H1098 0.950 . S
C1106 C1104 1.391 1_554 S
C1106 C1107 1.400 1_554 S
C1107 C1106 1.400 1_556 S
C1107 C1108 1.398 . S
C1107 C1113 1.491 1_556 S
C1108 H1099 0.950 . S
C1108 C1107 1.398 . S
C1108 C1109 1.391 . S
C1109 H1097 0.950 . S
C1109 C1105 1.393 . S
C1109 C1108 1.391 . S
C1110 H1100 0.950 1_554 S
C1110 C1111 1.386 . S
C1110 C1112 1.391 1_554 S
C1111 C1110 1.386 . S
C1111 C1115 1.393 . S
C1112 H1101 0.950 . S
C1112 C1110 1.391 1_556 S
C1112 C1113 1.400 1_556 S
C1113 C1107 1.491 1_554 S
C1113 C1112 1.400 1_554 S
C1113 C1114 1.398 . S
C1114 H1102 0.950 . S
C1114 C1113 1.398 . S
C1114 C1115 1.391 . S
C1115 H1103 0.950 . S
C1115 C1111 1.393 . S
C1115 C1114 1.391 . S
H1116 C1124 0.950 . S
H1117 C1129 0.950 . S
H1118 C1126 0.950 . S
H1119 C1128 0.950 . S
H1120 C1130 0.950 . S
H1121 C1132 0.950 . S
H1122 C1134 0.950 . S
H1123 C1135 0.950 . S
C1124 H1116 0.950 . S
C1124 C1125 1.386 . S
C1124 C1126 1.391 . S
C1125 C1124 1.386 . S
C1125 C1129 1.393 . S
C1126 H1118 0.950 . S
C1126 C1124 1.391 . S
C1126 C1127 1.400 . S
C1127 C1126 1.400 . S
C1127 C1128 1.398 . S
C1127 C1133 1.491 . S
C1128 H1119 0.950 . S
C1128 C1127 1.398 . S
C1128 C1129 1.391 . S
C1129 H1117 0.950 . S
C1129 C1125 1.393 . S
C1129 C1128 1.391 . S
C1130 H1120 0.950 . S
C1130 C1131 1.386 . S
C1130 C1132 1.391 . S
C1131 C1130 1.386 . S
C1131 C1135 1.393 . S
C1132 H1121 0.950 . S
C1132 C1130 1.391 . S
C1132 C1133 1.400 . S
C1133 C1127 1.491 . S
C1133 C1132 1.400 . S
C1133 C1134 1.398 . S
C1134 H1122 0.950 . S
C1134 C1133 1.398 . S
C1134 C1135 1.391 . S
C1135 H1123 0.950 . S
C1135 C1131 1.393 . S
C1135 C1134 1.391 . S
H1136 C1144 0.950 . S
H1137 C1149 0.950 . S
H1138 C1146 0.958 . S
H1139 C1148 0.950 . S
H1140 C1150 0.950 . S
H1141 C1152 0.958 . S
H1142 C1154 0.950 . S
H1143 C1155 0.950 . S
C1144 H1136 0.950 . S
C1144 C1145 1.386 . S
C1144 C1146 1.391 . S
C1145 C1144 1.386 . S
C1145 C1149 1.393 . S
C1146 H1138 0.958 . S
C1146 C1144 1.391 . S
C1146 C1147 1.400 . S
C1147 C1146 1.400 . S
C1147 C1148 1.398 . S
C1147 C1153 1.491 1_556 S
C1148 H1139 0.950 . S
C1148 C1147 1.398 . S
C1148 C1149 1.391 . S
C1149 H1137 0.950 . S
C1149 C1145 1.393 . S
C1149 C1148 1.391 . S
C1150 H1140 0.950 . S
C1150 C1151 1.386 . S
C1150 C1152 1.391 . S
C1151 C1150 1.386 . S
C1151 C1155 1.393 . S
C1152 H1141 0.958 . S
C1152 C1150 1.391 . S
C1152 C1153 1.400 . S
C1153 C1147 1.491 1_554 S
C1153 C1152 1.400 . S
C1153 C1154 1.398 . S
C1154 H1142 0.950 . S
C1154 C1153 1.398 . S
C1154 C1155 1.391 . S
C1155 H1143 0.950 . S
C1155 C1151 1.393 . S
C1155 C1154 1.391 . S
H1156 C1164 0.950 . S
H1157 C1169 0.950 . S
H1158 C1166 0.950 . S
H1159 C1168 0.950 . S
H1160 C1170 0.950 . S
H1161 C1172 0.950 . S
H1162 C1174 0.950 . S
H1163 C1175 0.950 . S
C1164 H1156 0.950 . S
C1164 C1165 1.386 . S
C1164 C1166 1.391 . S
C1165 C1164 1.386 . S
C1165 C1169 1.393 . S
C1166 H1158 0.950 . S
C1166 C1164 1.391 . S
C1166 C1167 1.400 . S
C1167 C1166 1.400 . S
C1167 C1168 1.398 . S
C1167 C1173 1.491 . S
C1168 H1159 0.950 . S
C1168 C1167 1.398 . S
C1168 C1169 1.391 . S
C1169 H1157 0.950 . S
C1169 C1165 1.393 . S
C1169 C1168 1.391 . S
C1170 H1160 0.950 . S
C1170 C1171 1.386 . S
C1170 C1172 1.391 . S
C1171 C1170 1.386 . S
C1171 C1175 1.393 . S
C1172 H1161 0.950 . S
C1172 C1170 1.391 . S
C1172 C1173 1.400 . S
C1173 C1167 1.491 . S
C1173 C1172 1.400 . S
C1173 C1174 1.398 . S
C1174 H1162 0.950 . S
C1174 C1173 1.398 . S
C1174 C1175 1.391 . S
C1175 H1163 0.950 . S
C1175 C1171 1.393 . S
C1175 C1174 1.391 . S
H1176 C1184 0.950 1_556 S
H1177 C1189 0.950 . S
H1178 C1186 0.950 . S
H1179 C1188 0.950 . S
H1180 C1190 0.950 1_554 S
H1181 C1192 0.950 . S
H1182 C1194 0.950 . S
H1183 C1195 0.950 . S
C1184 H1176 0.950 1_554 S
C1184 C1185 1.386 . S
C1184 C1186 1.391 1_554 S
C1185 C1184 1.386 . S
C1185 C1189 1.393 . S
C1186 H1178 0.950 . S
C1186 C1184 1.391 1_556 S
C1186 C1187 1.400 1_556 S
C1187 C1186 1.400 1_554 S
C1187 C1188 1.398 . S
C1187 C1193 1.491 1_554 S
C1188 H1179 0.950 . S
C1188 C1187 1.398 . S
C1188 C1189 1.391 . S
C1189 H1177 0.950 . S
C1189 C1185 1.393 . S
C1189 C1188 1.391 . S
C1190 H1180 0.950 1_556 S
C1190 C1191 1.386 . S
C1190 C1192 1.391 1_556 S
C1191 C1190 1.386 . S
C1191 C1195 1.393 . S
C1192 H1181 0.950 . S
C1192 C1190 1.391 1_554 S
C1192 C1193 1.400 1_554 S
C1193 C1187 1.491 1_556 S
C1193 C1192 1.400 1_556 S
C1193 C1194 1.398 . S
C1194 H1182 0.950 . S
C1194 C1193 1.398 . S
C1194 C1195 1.391 . S
C1195 H1183 0.950 . S
C1195 C1191 1.393 . S
C1195 C1194 1.391 . S
H1196 C1204 0.950 . S
H1197 C1209 0.950 . S
H1198 C1206 0.950 . S
H1199 C1208 0.950 . S
H1200 C1210 0.950 . S
H1201 C1212 0.950 . S
H1202 C1214 0.950 . S
H1203 C1215 0.950 . S
C1204 H1196 0.950 . S
C1204 C1205 1.386 . S
C1204 C1206 1.391 . S
C1205 C1204 1.386 . S
C1205 C1209 1.393 . S
C1206 H1198 0.950 . S
C1206 C1204 1.391 . S
C1206 C1207 1.400 . S
C1207 C1206 1.400 . S
C1207 C1208 1.398 . S
C1207 C1213 1.491 . S
C1208 H1199 0.950 . S
C1208 C1207 1.398 . S
C1208 C1209 1.391 . S
C1209 H1197 0.950 . S
C1209 C1205 1.393 . S
C1209 C1208 1.391 . S
C1210 H1200 0.950 . S
C1210 C1211 1.386 . S
C1210 C1212 1.391 . S
C1211 C1210 1.386 . S
C1211 C1215 1.393 . S
C1212 H1201 0.950 . S
C1212 C1210 1.391 . S
C1212 C1213 1.400 . S
C1213 C1207 1.491 . S
C1213 C1212 1.400 . S
C1213 C1214 1.398 . S
C1214 H1202 0.950 . S
C1214 C1213 1.398 . S
C1214 C1215 1.391 . S
C1215 H1203 0.950 . S
C1215 C1211 1.393 . S
C1215 C1214 1.391 . S
H1216 C1224 0.950 . S
H1217 C1229 0.950 . S
H1218 C1226 0.950 . S
H1219 C1228 0.950 1_556 S
H1220 C1230 0.950 . S
H1221 C1232 0.950 . S
H1222 C1234 0.950 1_554 S
H1223 C1235 0.950 . S
C1224 H1216 0.950 . S
C1224 C1225 1.386 . S
C1224 C1226 1.391 . S
C1225 C1224 1.386 . S
C1225 C1229 1.393 . S
C1226 H1218 0.950 . S
C1226 C1224 1.391 . S
C1226 C1227 1.400 . S
C1227 C1226 1.400 . S
C1227 C1228 1.398 . S
C1227 C1233 1.491 1_554 S
C1228 H1219 0.950 1_554 S
C1228 C1227 1.398 . S
C1228 C1229 1.391 . S
C1229 H1217 0.950 . S
C1229 C1225 1.393 . S
C1229 C1228 1.391 . S
C1230 H1220 0.950 . S
C1230 C1231 1.386 . S
C1230 C1232 1.391 . S
C1231 C1230 1.386 . S
C1231 C1235 1.393 . S
C1232 H1221 0.950 . S
C1232 C1230 1.391 . S
C1232 C1233 1.400 . S
C1233 C1227 1.491 1_556 S
C1233 C1232 1.400 . S
C1233 C1234 1.398 . S
C1234 H1222 0.950 1_556 S
C1234 C1233 1.398 . S
C1234 C1235 1.391 . S
C1235 H1223 0.950 . S
C1235 C1231 1.393 . S
C1235 C1234 1.391 . S
H1236 C1244 0.950 . S
H1237 C1249 0.950 . S
H1238 C1246 0.950 . S
H1239 C1248 0.950 . S
H1240 C1250 0.950 . S
H1241 C1252 0.950 . S
H1242 C1254 0.950 . S
H1243 C1255 0.950 . S
C1244 H1236 0.950 . S
C1244 C1245 1.386 . S
C1244 C1246 1.391 . S
C1245 C1244 1.386 . S
C1245 C1249 1.393 . S
C1246 H1238 0.950 . S
C1246 C1244 1.391 . S
C1246 C1247 1.400 . S
C1247 C1246 1.400 . S
C1247 C1248 1.398 . S
C1247 C1253 1.491 . S
C1248 H1239 0.950 . S
C1248 C1247 1.398 . S
C1248 C1249 1.391 . S
C1249 H1237 0.950 . S
C1249 C1245 1.393 . S
C1249 C1248 1.391 . S
C1250 H1240 0.950 . S
C1250 C1251 1.386 . S
C1250 C1252 1.391 . S
C1251 C1250 1.386 . S
C1251 C1255 1.393 . S
C1252 H1241 0.950 . S
C1252 C1250 1.391 . S
C1252 C1253 1.400 . S
C1253 C1247 1.491 . S
C1253 C1252 1.400 . S
C1253 C1254 1.398 . S
C1254 H1242 0.950 . S
C1254 C1253 1.398 . S
C1254 C1255 1.391 . S
C1255 H1243 0.950 . S
C1255 C1251 1.393 . S
C1255 C1254 1.391 . S
H1256 C1264 0.938 1_554 S
H1257 C1269 0.950 . S
H1258 C1266 0.950 . S
H1259 C1268 0.950 . S
H1260 C1270 0.938 1_556 S
H1261 C1272 0.950 . S
H1262 C1274 0.950 . S
H1263 C1275 0.950 . S
C1264 H1256 0.938 1_556 S
C1264 C1265 1.386 . S
C1264 C1266 1.391 1_556 S
C1265 C1264 1.386 . S
C1265 C1269 1.393 . S
C1266 H1258 0.950 . S
C1266 C1264 1.391 1_554 S
C1266 C1267 1.400 1_554 S
C1267 C1266 1.400 1_556 S
C1267 C1268 1.398 . S
C1267 C1273 1.491 1_556 S
C1268 H1259 0.950 . S
C1268 C1267 1.398 . S
C1268 C1269 1.391 . S
C1269 H1257 0.950 . S
C1269 C1265 1.393 . S
C1269 C1268 1.391 . S
C1270 H1260 0.938 1_554 S
C1270 C1271 1.386 . S
C1270 C1272 1.391 1_554 S
C1271 C1270 1.386 . S
C1271 C1275 1.393 . S
C1272 H1261 0.950 . S
C1272 C1270 1.391 1_556 S
C1272 C1273 1.400 1_556 S
C1273 C1267 1.491 1_554 S
C1273 C1272 1.400 1_554 S
C1273 C1274 1.398 . S
C1274 H1262 0.950 . S
C1274 C1273 1.398 . S
C1274 C1275 1.391 . S
C1275 H1263 0.950 . S
C1275 C1271 1.393 . S
C1275 C1274 1.391 . S
H1276 C1284 0.950 . S
H1277 C1289 0.950 . S
H1278 C1286 0.950 . S
H1279 C1288 0.950 . S
H1280 C1290 0.950 . S
H1281 C1292 0.950 . S
H1282 C1294 0.950 . S
H1283 C1295 0.950 . S
C1284 H1276 0.950 . S
C1284 C1285 1.386 . S
C1284 C1286 1.391 . S
C1285 C1284 1.386 . S
C1285 C1289 1.393 . S
C1286 H1278 0.950 . S
C1286 C1284 1.391 . S
C1286 C1287 1.400 . S
C1287 C1286 1.400 . S
C1287 C1288 1.398 . S
C1287 C1293 1.491 . S
C1288 H1279 0.950 . S
C1288 C1287 1.398 . S
C1288 C1289 1.391 . S
C1289 H1277 0.950 . S
C1289 C1285 1.393 . S
C1289 C1288 1.391 . S
C1290 H1280 0.950 . S
C1290 C1291 1.386 . S
C1290 C1292 1.391 . S
C1291 C1290 1.386 . S
C1291 C1295 1.393 . S
C1292 H1281 0.950 . S
C1292 C1290 1.391 . S
C1292 C1293 1.400 . S
C1293 C1287 1.491 . S
C1293 C1292 1.400 . S
C1293 C1294 1.398 . S
C1294 H1282 0.950 . S
C1294 C1293 1.398 . S
C1294 C1295 1.391 . S
C1295 H1283 0.950 . S
C1295 C1291 1.393 . S
C1295 C1294 1.391 . S
C345 C7 1.499 . S
C351 C217 1.496 . S
C365 C21 1.500 . S
C371 C231 1.495 . S
C385 C245 1.504 . S
C391 C35 1.491 . S
C405 C175 1.495 . S
C411 C49 1.499 . S
C425 C189 1.504 . S
C431 C63 1.491 . S
C445 C203 1.503 . S
C451 C77 1.493 . S
C465 C301 1.504 . S
C471 C91 1.490 . S
C485 C105 1.499 . S
C491 C315 1.496 . S
C505 C329 1.504 . S
C511 C119 1.491 . S
C525 C133 1.492 . S
C531 C259 1.503 . S
C545 C273 1.495 . S
C551 C147 1.500 . S
C565 C161 1.496 . S
C571 C287 1.499 . S
C585 C151 1.199 . S
C591 C11 1.197 . S
C605 C165 1.214 . S
C611 C25 1.209 . S
C625 C39 1.203 . S
C631 C95 1.197 . S
C645 C53 1.198 . S
C651 C109 1.206 . S
C665 C123 1.204 . S
C671 C67 1.212 . S
C685 C81 1.197 . S
C691 C137 1.205 . S
C705 C319 1.208 . S
C711 C179 1.199 . S
C725 C193 1.208 . S
C731 C333 1.214 . S
C745 C207 1.209 . S
C751 C263 1.214 . S
C765 C277 1.210 . S
C771 C221 1.214 . S
C785 C235 1.212 . S
C791 C291 1.203 . S
C805 C249 1.196 . S
C811 C305 1.200 . S
C825 C8 1.055 . S
C831 C260 1.099 . S
C845 C274 1.097 . S
C851 C22 1.056 . S
C865 C36 1.079 . S
C871 C288 1.075 . S
C885 C50 1.086 . S
C891 C302 1.068 . S
C905 C316 1.055 . S
C911 C64 1.098 . S
C925 C78 1.054 . S
C931 C330 1.099 . S
C945 C92 1.069 . S
C951 C176 1.084 . S
C965 C106 1.098 . S
C971 C190 1.055 . S
C985 C204 1.077 . S
C991 C120 1.077 . S
C1005 C218 1.055 . S
C1011 C134 1.099 . S
C1025 C148 1.057 . S
C1031 C232 1.096 . S
C1045 C246 1.099 . S
C1051 C162 1.055 . S
C1065 C97 1.486 . S
C1071 C13 1.477 . S
C1085 C27 1.476 . S
C1091 C111 1.455 . S
C1105 C125 1.483 . S
C1111 C41 1.461 . S
C1125 C139 1.480 . S
C1131 C55 1.485 . S
C1145 C153 1.486 . S
C1151 C69 1.479 . S
C1165 C83 1.471 . S
C1171 C167 1.453 . S
C1185 C265 1.462 . S
C1191 C181 1.483 . S
C1205 C195 1.457 . S
C1211 C279 1.479 . S
C1225 C293 1.485 . S
C1231 C209 1.481 . S
C1245 C307 1.487 . S
C1251 C223 1.472 . S
C1265 C237 1.468 . S
C1271 C321 1.486 . S
C1285 C251 1.480 . S
C1291 C335 1.458 . S
