# Generated by pormake.
# Topology yfj, (5)-cn, num edge types: 1
# Building blocks:
#     Node 0, Type 0, BuildingBlock: BEQFEK_clean_sbu_0, # of connection points: 5
#     Node 1, Type 0, BuildingBlock: BEQFEK_clean_sbu_0, # of connection points: 5
#     Node 2, Type 0, BuildingBlock: BEQFEK_clean_sbu_0, # of connection points: 5
#     Node 3, Type 0, BuildingBlock: BEQFEK_clean_sbu_0, # of connection points: 5
#     Node 4, Type 0, BuildingBlock: BEQFEK_clean_sbu_0, # of connection points: 5
#     Node 5, Type 0, BuildingBlock: BEQFEK_clean_sbu_0, # of connection points: 5
#     Node 6, Type 0, BuildingBlock: BEQFEK_clean_sbu_0, # of connection points: 5
#     Node 7, Type 0, BuildingBlock: BEQFEK_clean_sbu_0, # of connection points: 5
#     Node 8, Type 0, BuildingBlock: BEQFEK_clean_sbu_0, # of connection points: 5
#     Node 9, Type 0, BuildingBlock: BEQFEK_clean_sbu_0, # of connection points: 5
#     Node 10, Type 0, BuildingBlock: BEQFEK_clean_sbu_0, # of connection points: 5
#     Node 11, Type 0, BuildingBlock: BEQFEK_clean_sbu_0, # of connection points: 5
#     Node 12, Type 0, BuildingBlock: BEQFEK_clean_sbu_0, # of connection points: 5
#     Node 13, Type 0, BuildingBlock: BEQFEK_clean_sbu_0, # of connection points: 5
#     Node 14, Type 0, BuildingBlock: BEQFEK_clean_sbu_0, # of connection points: 5
#     Node 15, Type 0, BuildingBlock: BEQFEK_clean_sbu_0, # of connection points: 5
#     Edge 16, Type (0, 0), BuildingBlock: AJUNOK_clean_linker_0, # of connection points: 2
#     Edge 17, Type (0, 0), BuildingBlock: AJUNOK_clean_linker_0, # of connection points: 2
#     Edge 18, Type (0, 0), BuildingBlock: AJUNOK_clean_linker_0, # of connection points: 2
#     Edge 19, Type (0, 0), BuildingBlock: AJUNOK_clean_linker_0, # of connection points: 2
#     Edge 20, Type (0, 0), BuildingBlock: AJUNOK_clean_linker_0, # of connection points: 2
#     Edge 21, Type (0, 0), BuildingBlock: AJUNOK_clean_linker_0, # of connection points: 2
#     Edge 22, Type (0, 0), BuildingBlock: AJUNOK_clean_linker_0, # of connection points: 2
#     Edge 23, Type (0, 0), BuildingBlock: AJUNOK_clean_linker_0, # of connection points: 2
#     Edge 24, Type (0, 0), BuildingBlock: AJUNOK_clean_linker_0, # of connection points: 2
#     Edge 25, Type (0, 0), BuildingBlock: AJUNOK_clean_linker_0, # of connection points: 2
#     Edge 26, Type (0, 0), BuildingBlock: AJUNOK_clean_linker_0, # of connection points: 2
#     Edge 27, Type (0, 0), BuildingBlock: AJUNOK_clean_linker_0, # of connection points: 2
#     Edge 28, Type (0, 0), BuildingBlock: AJUNOK_clean_linker_0, # of connection points: 2
#     Edge 29, Type (0, 0), BuildingBlock: AJUNOK_clean_linker_0, # of connection points: 2
#     Edge 30, Type (0, 0), BuildingBlock: AJUNOK_clean_linker_0, # of connection points: 2
#     Edge 31, Type (0, 0), BuildingBlock: AJUNOK_clean_linker_0, # of connection points: 2
#     Edge 32, Type (0, 0), BuildingBlock: AJUNOK_clean_linker_0, # of connection points: 2
#     Edge 33, Type (0, 0), BuildingBlock: AJUNOK_clean_linker_0, # of connection points: 2
#     Edge 34, Type (0, 0), BuildingBlock: AJUNOK_clean_linker_0, # of connection points: 2
#     Edge 35, Type (0, 0), BuildingBlock: AJUNOK_clean_linker_0, # of connection points: 2
#     Edge 36, Type (0, 0), BuildingBlock: AJUNOK_clean_linker_0, # of connection points: 2
#     Edge 37, Type (0, 0), BuildingBlock: AJUNOK_clean_linker_0, # of connection points: 2
#     Edge 38, Type (0, 0), BuildingBlock: AJUNOK_clean_linker_0, # of connection points: 2
#     Edge 39, Type (0, 0), BuildingBlock: AJUNOK_clean_linker_0, # of connection points: 2
#     Edge 40, Type (0, 0), BuildingBlock: AJUNOK_clean_linker_0, # of connection points: 2
#     Edge 41, Type (0, 0), BuildingBlock: AJUNOK_clean_linker_0, # of connection points: 2
#     Edge 42, Type (0, 0), BuildingBlock: AJUNOK_clean_linker_0, # of connection points: 2
#     Edge 43, Type (0, 0), BuildingBlock: AJUNOK_clean_linker_0, # of connection points: 2
#     Edge 44, Type (0, 0), BuildingBlock: AJUNOK_clean_linker_0, # of connection points: 2
#     Edge 45, Type (0, 0), BuildingBlock: AJUNOK_clean_linker_0, # of connection points: 2
#     Edge 46, Type (0, 0), BuildingBlock: AJUNOK_clean_linker_0, # of connection points: 2
#     Edge 47, Type (0, 0), BuildingBlock: AJUNOK_clean_linker_0, # of connection points: 2
#     Edge 48, Type (0, 0), BuildingBlock: AJUNOK_clean_linker_0, # of connection points: 2
#     Edge 49, Type (0, 0), BuildingBlock: AJUNOK_clean_linker_0, # of connection points: 2
#     Edge 50, Type (0, 0), BuildingBlock: AJUNOK_clean_linker_0, # of connection points: 2
#     Edge 51, Type (0, 0), BuildingBlock: AJUNOK_clean_linker_0, # of connection points: 2
#     Edge 52, Type (0, 0), BuildingBlock: AJUNOK_clean_linker_0, # of connection points: 2
#     Edge 53, Type (0, 0), BuildingBlock: AJUNOK_clean_linker_0, # of connection points: 2
#     Edge 54, Type (0, 0), BuildingBlock: AJUNOK_clean_linker_0, # of connection points: 2
#     Edge 55, Type (0, 0), BuildingBlock: AJUNOK_clean_linker_0, # of connection points: 2
# Relax obj value: 0.531
# Max RMSD: 0.234
# Mean RMSD: 0.234
data_MOF--net-yfj--node1-BEQFEK_clean_sbu_0--edge1-AJUNOK_clean_linker_0
_symmetry_space_group_name_H-M    P1
_symmetry_Int_Tables_number       1
_symmetry_cell_setting            triclinic
loop_
_symmetry_equiv_pos_as_xyz
'x, y, z'
_cell_length_a     34.906767
_cell_length_b     34.970236
_cell_length_c     38.710892
_cell_angle_alpha  90.229304
_cell_angle_beta   90.001533
_cell_angle_gamma 89.924482
loop_
_atom_site_label
_atom_site_type_symbol
_atom_site_fract_x
_atom_site_fract_y
_atom_site_fract_z
_atom_type_partial_charge
Co0 Co 0.0946 0.12215 0.38444 0.0
Co1 Co 0.13264 0.14213 0.31226 0.0
C2 C 0.17465 0.09701 0.36483 0.0
O3 O 0.14673 0.10017 0.38573 0.0
O4 O 0.1728 0.11095 0.33453 0.0
C5 C 0.07909 0.07403 0.44225 0.0
O6 O 0.10224 0.05053 0.42584 0.0
C7 C 0.17884 0.13962 0.24795 0.0
C8 C 0.1398 0.16445 0.20927 0.0
C9 C 0.17506 0.14659 0.21271 0.0
N10 N 0.14691 0.15145 0.26437 0.0
N11 N 0.12399 0.16698 0.24106 0.0
C12 C 0.21329 0.12416 0.26614 0.0
H13 H 0.21767 0.14001 0.29069 0.0
H14 H 0.20851 0.09352 0.27206 0.0
H15 H 0.23953 0.12704 0.25022 0.0
C16 C 0.04012 0.08243 0.33975 0.0
N17 N 0.06902 0.10741 0.34376 0.0
N18 N 0.08575 0.11324 0.31375 0.0
C19 C 0.0689 0.09036 0.28996 0.0
C20 C 0.03911 0.07054 0.30556 0.0
C21 C 0.01886 0.06481 0.36927 0.0
H22 H 0.0122 0.08692 0.38898 0.0
H23 H 0.03712 0.04253 0.38128 0.0
H24 H 0.99184 0.05122 0.36054 0.0
O25 O 0.10028 0.17753 0.38784 0.0
O26 O 0.13177 0.19218 0.33969 0.0
H27 H 0.07645 0.10699 0.23746 0.0
H28 H 0.07293 0.05625 0.24322 0.0
C29 C 0.0846 0.08299 0.25457 0.0
H30 H 0.1163 0.08117 0.25558 0.0
H31 H 0.09693 0.17805 0.24663 0.0
O32 O 0.06942 0.10518 0.42777 0.0
C33 C 0.11757 0.20162 0.36902 0.0
Co34 Co 0.88473 0.59969 0.63416 0.0
Co35 Co 0.86035 0.63433 0.56164 0.0
C36 C 0.90359 0.68015 0.61452 0.0
O37 O 0.90475 0.65225 0.63544 0.0
O38 O 0.88727 0.67704 0.58523 0.0
C39 C 0.93222 0.58502 0.69305 0.0
O40 O 0.95514 0.6094 0.67772 0.0
C41 C 0.87156 0.67091 0.49263 0.0
C42 C 0.81753 0.6562 0.46635 0.0
C43 C 0.85139 0.67634 0.46179 0.0
N44 N 0.85037 0.6491 0.5141 0.0
N45 N 0.8183 0.64009 0.4979 0.0
C46 C 0.90971 0.68736 0.50218 0.0
H47 H 0.90991 0.71866 0.49753 0.0
H48 H 0.917 0.6812 0.52931 0.0
H49 H 0.9324 0.67404 0.48616 0.0
C50 C 0.92496 0.54525 0.58952 0.0
N51 N 0.90016 0.5743 0.59362 0.0
N52 N 0.89135 0.58866 0.5632 0.0
C53 C 0.9112 0.5692 0.53878 0.0
C54 C 0.93299 0.54107 0.55467 0.0
C55 C 0.94475 0.52563 0.61887 0.0
H56 H 0.96545 0.54572 0.63089 0.0
H57 H 0.96044 0.49973 0.61018 0.0
H58 H 0.9234 0.51744 0.63871 0.0
O59 O 0.82892 0.60302 0.63707 0.0
O60 O 0.80983 0.62931 0.58771 0.0
H61 H 0.88272 0.58439 0.49177 0.0
H62 H 0.92577 0.55617 0.48585 0.0
C63 C 0.91221 0.5793 0.50133 0.0
H64 H 0.92907 0.60584 0.49803 0.0
H65 H 0.79649 0.62365 0.50871 0.0
O66 O 0.90186 0.57456 0.67749 0.0
C67 C 0.80257 0.61612 0.61779 0.0
Co68 Co 0.40321 0.38917 0.88378 0.0
Co69 Co 0.36924 0.35803 0.81332 0.0
C70 C 0.32366 0.40761 0.86287 0.0
O71 O 0.35179 0.41159 0.8834 0.0
O72 O 0.3266 0.38761 0.83534 0.0
C73 C 0.42038 0.43689 0.9425 0.0
O74 O 0.39406 0.45949 0.92942 0.0
C75 C 0.33144 0.36586 0.74519 0.0
C76 C 0.33973 0.30896 0.72193 0.0
C77 C 0.32231 0.34401 0.71635 0.0
N78 N 0.35344 0.34507 0.76671 0.0
N79 N 0.35892 0.31121 0.75217 0.0
C80 C 0.31767 0.40557 0.75244 0.0
H81 H 0.33217 0.41787 0.7754 0.0
H82 H 0.32327 0.42385 0.72962 0.0
H83 H 0.28626 0.4052 0.75639 0.0
C84 C 0.45902 0.42327 0.83789 0.0
N85 N 0.42953 0.39942 0.84291 0.0
N86 N 0.41536 0.38845 0.81294 0.0
C87 C 0.43533 0.40619 0.78769 0.0
C88 C 0.46373 0.42861 0.80275 0.0
C89 C 0.47801 0.44524 0.86645 0.0
H90 H 0.48785 0.42513 0.88669 0.0
H91 H 0.45687 0.46508 0.87826 0.0
H92 H 0.50285 0.46206 0.85721 0.0
O93 O 0.39688 0.33466 0.89029 0.0
O94 O 0.37415 0.30919 0.842 0.0
H95 H 0.41882 0.37524 0.74221 0.0
H96 H 0.44884 0.41654 0.73417 0.0
C97 C 0.42516 0.40504 0.75021 0.0
H98 H 0.39922 0.42268 0.74588 0.0
H99 H 0.37409 0.28894 0.76371 0.0
O100 O 0.43016 0.40706 0.92583 0.0
C101 C 0.38516 0.3058 0.87339 0.0
Co102 Co 0.60856 0.90017 0.13355 0.0
Co103 Co 0.63983 0.86585 0.06267 0.0
C104 C 0.59231 0.8202 0.11324 0.0
O105 O 0.58761 0.84839 0.13359 0.0
O106 O 0.61216 0.82325 0.08576 0.0
C107 C 0.56125 0.91463 0.19308 0.0
O108 O 0.53955 0.88792 0.17937 0.0
C109 C 0.63156 0.82719 0.99397 0.0
C110 C 0.68802 0.83794 0.97049 0.0
C111 C 0.65359 0.81918 0.96465 0.0
N112 N 0.6522 0.84919 1.0159 0.0
N113 N 0.68577 0.85581 1.00134 0.0
C114 C 0.59234 0.81236 1.00192 0.0
H115 H 0.58345 0.82018 0.0284 0.0
H116 H 0.57123 0.82526 0.98406 0.0
H117 H 0.59154 0.78087 0.99832 0.0
C118 C 0.57133 0.95356 0.08702 0.0
N119 N 0.59668 0.92534 0.0923 0.0
N120 N 0.60802 0.91116 0.06239 0.0
C121 C 0.5893 0.93002 0.03701 0.0
C122 C 0.5655 0.95745 0.05184 0.0
C123 C 0.54853 0.97191 0.11539 0.0
H124 H 0.52898 0.95036 0.12675 0.0
H125 H 0.53133 0.99641 0.10592 0.0
H126 H 0.56814 0.98201 0.13602 0.0
O127 O 0.66369 0.89517 0.13925 0.0
O128 O 0.68901 0.87259 0.09075 0.0
H129 H 0.57904 0.94291 0.9834 0.0
H130 H 0.57305 0.89358 0.99532 0.0
C131 C 0.59067 0.91948 0.9996 0.0
H132 H 0.62057 0.91319 0.99177 0.0
H133 H 0.70762 0.87161 1.01293 0.0
O134 O 0.59024 0.92636 0.17627 0.0
C135 C 0.69264 0.88402 0.12205 0.0
Co136 Co 0.09166 0.3819 0.90042 0.0
Co137 Co 0.13265 0.36159 0.97125 0.0
C138 C 0.17244 0.40649 0.91697 0.0
O139 O 0.14346 0.40392 0.89724 0.0
O140 O 0.17199 0.3924 0.94727 0.0
C141 C 0.0729 0.42908 0.84261 0.0
O142 O 0.09757 0.45251 0.85711 0.0
C143 C 0.18153 0.36382 0.03427 0.0
C144 C 0.14377 0.33884 0.07384 0.0
C145 C 0.17902 0.35641 0.0696 0.0
N146 N 0.14891 0.35242 0.01871 0.0
N147 N 0.12678 0.33686 0.04255 0.0
C148 C 0.21536 0.37918 1.0151 0.0
H149 H 0.21838 0.36409 0.99 0.0
H150 H 0.21082 0.41007 1.01008 0.0
H151 H 0.24226 0.37535 0.02994 0.0
C152 C 0.03851 0.42094 0.94666 0.0
N153 N 0.06768 0.3964 0.94184 0.0
N154 N 0.08552 0.39064 0.97134 0.0
C155 C 0.06903 0.41319 0.99565 0.0
C156 C 0.03835 0.43267 0.98091 0.0
C157 C 0.01615 0.43835 0.91765 0.0
H158 H 0.03415 0.46006 0.90461 0.0
H159 H 0.98966 0.45252 0.92696 0.0
H160 H 0.00838 0.41594 0.89857 0.0
O161 O 0.09772 0.32672 0.89691 0.0
O162 O 0.13044 0.31112 0.94411 0.0
H163 H 0.0779 0.39615 0.04787 0.0
H164 H 0.07394 0.44692 0.04252 0.0
C165 C 0.08551 0.42032 0.03078 0.0
H166 H 0.11717 0.42222 0.02919 0.0
H167 H 0.09949 0.32598 0.03767 0.0
O168 O 0.06407 0.39834 0.85815 0.0
C169 C 0.11546 0.30216 0.91496 0.0
Co170 Co 0.62734 0.59044 0.14924 0.0
Co171 Co 0.64698 0.63148 0.22067 0.0
C172 C 0.60063 0.67025 0.16706 0.0
O173 O 0.60422 0.64157 0.14712 0.0
O174 O 0.61503 0.67024 0.19729 0.0
C175 C 0.57907 0.574 0.09151 0.0
O176 O 0.55512 0.59573 0.1089 0.0
C177 C 0.64115 0.67754 0.28533 0.0
C178 C 0.67549 0.64382 0.32214 0.0
C179 C 0.65213 0.67576 0.31989 0.0
N180 N 0.65621 0.6474 0.26823 0.0
N181 N 0.67709 0.62763 0.29044 0.0
C182 C 0.6192 0.70892 0.26813 0.0
H183 H 0.6345 0.71777 0.24437 0.0
H184 H 0.59048 0.69814 0.26063 0.0
H185 H 0.61598 0.73431 0.28515 0.0
C186 C 0.58778 0.53769 0.19543 0.0
N187 N 0.61299 0.56619 0.1906 0.0
N188 N 0.61905 0.58399 0.22018 0.0
C189 C 0.5964 0.56803 0.24449 0.0
C190 C 0.57609 0.53797 0.22967 0.0
C191 C 0.56944 0.51584 0.16652 0.0
H192 H 0.59095 0.50924 0.14629 0.0
H193 H 0.54638 0.53353 0.15499 0.0
H194 H 0.55657 0.48881 0.17591 0.0
O195 O 0.68274 0.59771 0.14619 0.0
O196 O 0.69735 0.6304 0.19381 0.0
H197 H 0.56507 0.57108 0.29277 0.0
H198 H 0.5834 0.61616 0.27684 0.0
C199 C 0.58938 0.58513 0.27942 0.0
H200 H 0.61543 0.58163 0.29545 0.0
H201 H 0.6918 0.60259 0.28412 0.0
O202 O 0.61061 0.56452 0.10569 0.0
C203 C 0.70683 0.61583 0.16463 0.0
Co204 Co 0.40646 0.1116 0.39763 0.0
Co205 Co 0.3712 0.14124 0.46867 0.0
C206 C 0.32599 0.09333 0.41823 0.0
O207 O 0.35437 0.09089 0.39777 0.0
O208 O 0.32825 0.11191 0.44661 0.0
C209 C 0.42087 0.06305 0.339 0.0
O210 O 0.39547 0.04093 0.35395 0.0
C211 C 0.32649 0.14326 0.53407 0.0
C212 C 0.36122 0.18029 0.56793 0.0
C213 C 0.32792 0.15887 0.56703 0.0
N214 N 0.35743 0.15462 0.51607 0.0
N215 N 0.3781 0.17683 0.53662 0.0
C216 C 0.29664 0.11684 0.52032 0.0
H217 H 0.31088 0.09109 0.50949 0.0
H218 H 0.2761 0.10792 0.54062 0.0
H219 H 0.28083 0.13152 0.49934 0.0
C220 C 0.46064 0.07492 0.44384 0.0
N221 N 0.43189 0.09973 0.4387 0.0
N222 N 0.41665 0.10962 0.46857 0.0
C223 C 0.43471 0.08984 0.49375 0.0
C224 C 0.46354 0.06769 0.4789 0.0
C225 C 0.48024 0.05368 0.41515 0.0
H226 H 0.4895 0.07415 0.39501 0.0
H227 H 0.45966 0.03339 0.40324 0.0
H228 H 0.50548 0.03738 0.42437 0.0
O229 O 0.40178 0.16643 0.39199 0.0
O230 O 0.37688 0.19029 0.44016 0.0
H231 H 0.42799 0.11641 0.54306 0.0
H232 H 0.43657 0.06562 0.5451 0.0
C233 C 0.42173 0.08855 0.53054 0.0
H234 H 0.39032 0.08388 0.5315 0.0
H235 H 0.40382 0.18962 0.52932 0.0
O236 O 0.43213 0.09291 0.35489 0.0
C237 C 0.38934 0.19473 0.40931 0.0
Co238 Co 0.87969 0.91257 0.64923 0.0
Co239 Co 0.86046 0.87493 0.72171 0.0
C240 C 0.90324 0.83202 0.66796 0.0
O241 O 0.90014 0.8601 0.64745 0.0
O242 O 0.8903 0.83399 0.69868 0.0
C243 C 0.92734 0.92591 0.59086 0.0
O244 O 0.95081 0.90364 0.60808 0.0
C245 C 0.86172 0.82752 0.7852 0.0
C246 C 0.84241 0.86782 0.82553 0.0
C247 C 0.85702 0.83127 0.82086 0.0
N248 N 0.85191 0.86061 0.7698 0.0
N249 N 0.83955 0.88427 0.79412 0.0
C250 C 0.87294 0.79223 0.76572 0.0
H251 H 0.85693 0.79067 0.74101 0.0
H252 H 0.90405 0.79339 0.76001 0.0
H253 H 0.86674 0.76606 0.78082 0.0
C254 C 0.92147 0.96635 0.69294 0.0
N255 N 0.89603 0.93777 0.68955 0.0
N256 N 0.89064 0.92125 0.71969 0.0
C257 C 0.91431 0.93797 0.74295 0.0
C258 C 0.93414 0.96746 0.72688 0.0
C259 C 0.93856 0.98719 0.66295 0.0
H260 H 0.96059 0.96878 0.65061 0.0
H261 H 0.95242 0.01424 0.67113 0.0
H262 H 0.91602 0.99364 0.64365 0.0
O263 O 0.8242 0.90821 0.64709 0.0
O264 O 0.80958 0.87682 0.69518 0.0
H265 H 0.94972 0.93314 0.78872 0.0
H266 H 0.92192 0.89108 0.77796 0.0
C267 C 0.92196 0.92278 0.77838 0.0
H268 H 0.89908 0.93285 0.79606 0.0
H269 H 0.83045 0.91221 0.78945 0.0
O270 O 0.89637 0.93664 0.6053 0.0
C271 C 0.79996 0.89119 0.66602 0.0
Co272 Co 0.59643 0.61814 0.88331 0.0
Co273 Co 0.63597 0.63868 0.81152 0.0
C274 C 0.67777 0.59521 0.86525 0.0
O275 O 0.64921 0.59815 0.88549 0.0
O276 O 0.67658 0.60842 0.83465 0.0
C277 C 0.58228 0.57065 0.94218 0.0
O278 O 0.60687 0.548 0.92651 0.0
C279 C 0.68131 0.63548 0.74641 0.0
C280 C 0.64546 0.66808 0.71002 0.0
C281 C 0.67853 0.64625 0.71193 0.0
N282 N 0.65071 0.649 0.76384 0.0
N283 N 0.62964 0.66893 0.74187 0.0
C284 C 0.71386 0.61488 0.76312 0.0
H285 H 0.72172 0.62968 0.78748 0.0
H286 H 0.70456 0.58537 0.76925 0.0
H287 H 0.73951 0.61378 0.74623 0.0
C288 C 0.54385 0.57749 0.83722 0.0
N289 N 0.57249 0.60255 0.84204 0.0
N290 N 0.58945 0.60934 0.81228 0.0
C291 C 0.5727 0.58742 0.78773 0.0
C292 C 0.54297 0.56691 0.80266 0.0
C293 C 0.52252 0.55885 0.86617 0.0
H294 H 0.5147 0.58055 0.88591 0.0
H295 H 0.54134 0.53724 0.87848 0.0
H296 H 0.49622 0.54436 0.85681 0.0
O297 O 0.6003 0.6738 0.88637 0.0
O298 O 0.63319 0.68846 0.83896 0.0
H299 H 0.58275 0.60802 0.73674 0.0
H300 H 0.57457 0.5573 0.73873 0.0
C301 C 0.58829 0.58188 0.75205 0.0
H302 H 0.6197 0.57725 0.75327 0.0
H303 H 0.60398 0.68241 0.74844 0.0
O304 O 0.57102 0.60071 0.92671 0.0
C305 C 0.61774 0.69799 0.86774 0.0
Co306 Co 0.38008 0.09044 0.13279 0.0
Co307 Co 0.35481 0.1279 0.06198 0.0
C308 C 0.39988 0.1711 0.11553 0.0
O309 O 0.40099 0.14242 0.1355 0.0
O310 O 0.38339 0.16912 0.08624 0.0
C311 C 0.4281 0.0733 0.19082 0.0
O312 O 0.45098 0.09828 0.17623 0.0
C313 C 0.36933 0.16838 0.99717 0.0
C314 C 0.31468 0.16339 0.96898 0.0
C315 C 0.35077 0.17994 0.96693 0.0
N316 N 0.3453 0.14668 1.0159 0.0
N317 N 0.31275 0.1435 0.99873 0.0
C318 C 0.4096 0.17662 1.00824 0.0
H319 H 0.4201 0.15406 0.02594 0.0
H320 H 0.42884 0.17866 0.98549 0.0
H321 H 0.41029 0.20403 0.02268 0.0
C322 C 0.41853 0.03702 0.08612 0.0
N323 N 0.39416 0.06621 0.09126 0.0
N324 N 0.38483 0.08149 0.06133 0.0
C325 C 0.40384 0.06234 0.03614 0.0
C326 C 0.42578 0.03366 0.05107 0.0
C327 C 0.43883 0.01659 0.11473 0.0
H328 H 0.41783 0.00791 0.1347 0.0
H329 H 0.4598 0.03631 0.12686 0.0
H330 H 0.45425 0.99087 0.10528 0.0
O331 O 0.32449 0.09522 0.1367 0.0
O332 O 0.30468 0.12294 0.0883 0.0
H333 H 0.37496 0.08313 0.99094 0.0
H334 H 0.4116 0.04756 0.98259 0.0
C335 C 0.40365 0.07268 0.99871 0.0
H336 H 0.42505 0.09546 0.99405 0.0
H337 H 0.28885 0.12866 1.00773 0.0
O338 O 0.39754 0.06356 0.1752 0.0
C339 C 0.29787 0.10942 0.11835 0.0
Co340 Co 0.90627 0.87838 0.38318 0.0
Co341 Co 0.87184 0.8559 0.31014 0.0
C342 C 0.82683 0.90065 0.36238 0.0
O343 O 0.8542 0.90002 0.38398 0.0
O344 O 0.83026 0.88504 0.3328 0.0
C345 C 0.92118 0.92609 0.44197 0.0
O346 O 0.8979 0.94965 0.42596 0.0
C347 C 0.83263 0.87122 0.24462 0.0
C348 C 0.83832 0.8169 0.21599 0.0
C349 C 0.82122 0.85275 0.21419 0.0
N350 N 0.85466 0.84731 0.26325 0.0
N351 N 0.85831 0.815 0.24577 0.0
C352 C 0.82363 0.91119 0.2561 0.0
H353 H 0.84618 0.92196 0.27381 0.0
H354 H 0.821 0.93052 0.23355 0.0
H355 H 0.7963 0.91131 0.27068 0.0
C356 C 0.96179 0.91802 0.33972 0.0
N357 N 0.93271 0.89321 0.34301 0.0
N358 N 0.91872 0.8849 0.31224 0.0
C359 C 0.9386 0.90495 0.28841 0.0
C360 C 0.96633 0.92673 0.30509 0.0
C361 C 0.98042 0.93794 0.36963 0.0
H362 H 0.98774 0.91684 0.38988 0.0
H363 H 0.96005 0.95905 0.3807 0.0
H364 H 0.00682 0.9532 0.36176 0.0
O365 O 0.90115 0.82271 0.3859 0.0
O366 O 0.87418 0.80565 0.33607 0.0
H367 H 0.95486 0.91509 0.23564 0.0
H368 H 0.90645 0.92777 0.24626 0.0
C369 C 0.9293 0.90634 0.25074 0.0
H370 H 0.91927 0.87802 0.24159 0.0
H371 H 0.87327 0.79116 0.2547 0.0
O372 O 0.93087 0.89508 0.42703 0.0
C373 C 0.88684 0.7974 0.36614 0.0
Co374 Co 0.10817 0.40111 0.63693 0.0
Co375 Co 0.13944 0.36543 0.56671 0.0
C376 C 0.08621 0.32314 0.61539 0.0
O377 O 0.08224 0.35158 0.6356 0.0
O378 O 0.1077 0.32491 0.5888 0.0
C379 C 0.06027 0.41959 0.69492 0.0
O380 O 0.03642 0.39567 0.68 0.0
C381 C 0.13175 0.32788 0.49721 0.0
C382 C 0.18893 0.33792 0.47494 0.0
C383 C 0.1542 0.32015 0.46804 0.0
N384 N 0.15243 0.34877 0.52 0.0
N385 N 0.18645 0.35495 0.50616 0.0
C386 C 0.0919 0.31411 0.50409 0.0
H387 H 0.08271 0.32135 0.53058 0.0
H388 H 0.0716 0.32839 0.48634 0.0
H389 H 0.09011 0.28279 0.49964 0.0
C390 C 0.07705 0.45778 0.59032 0.0
N391 N 0.10056 0.42807 0.59585 0.0
N392 N 0.11128 0.41311 0.56608 0.0
C393 C 0.09376 0.43284 0.54054 0.0
C394 C 0.07148 0.46172 0.55511 0.0
C395 C 0.05461 0.4771 0.61841 0.0
H396 H 0.07413 0.48538 0.63975 0.0
H397 H 0.03309 0.45681 0.62873 0.0
H398 H 0.03958 0.50298 0.60894 0.0
O399 O 0.16187 0.3897 0.64474 0.0
O400 O 0.18794 0.3672 0.59651 0.0
H401 H 0.12335 0.41375 0.49513 0.0
H402 H 0.0828 0.4448 0.48685 0.0
C403 C 0.09389 0.42135 0.50334 0.0
H404 H 0.07524 0.39602 0.49992 0.0
H405 H 0.20837 0.37003 0.51841 0.0
O406 O 0.09102 0.42841 0.67925 0.0
C407 C 0.19043 0.37611 0.62854 0.0
Co408 Co 0.5947 0.87805 0.39972 0.0
Co409 Co 0.63569 0.85712 0.47079 0.0
C410 C 0.67566 0.90189 0.41619 0.0
O411 O 0.64671 0.8995 0.39635 0.0
O412 O 0.67534 0.88755 0.44642 0.0
C413 C 0.57588 0.92443 0.34106 0.0
O414 O 0.60039 0.94813 0.35539 0.0
C415 C 0.68116 0.86317 0.53601 0.0
C416 C 0.64883 0.82621 0.57159 0.0
C417 C 0.67994 0.85073 0.57017 0.0
N418 N 0.65174 0.84753 0.51835 0.0
N419 N 0.63277 0.82515 0.53986 0.0
C420 C 0.71122 0.88752 0.51969 0.0
H421 H 0.72092 0.87377 0.49538 0.0
H422 H 0.69866 0.91582 0.51345 0.0
H423 H 0.73654 0.89139 0.53661 0.0
C424 C 0.54229 0.9176 0.44648 0.0
N425 N 0.57124 0.8929 0.44131 0.0
N426 N 0.58871 0.88618 0.47085 0.0
C427 C 0.57196 0.90786 0.49561 0.0
C428 C 0.54176 0.92818 0.48103 0.0
C429 C 0.52037 0.93607 0.41775 0.0
H430 H 0.51204 0.91418 0.39837 0.0
H431 H 0.53894 0.95747 0.40494 0.0
H432 H 0.49427 0.95076 0.42735 0.0
O433 O 0.59986 0.8227 0.39679 0.0
O434 O 0.63231 0.80657 0.44402 0.0
H435 H 0.5849 0.88631 0.54576 0.0
H436 H 0.5726 0.93637 0.54539 0.0
C437 C 0.58787 0.91333 0.53116 0.0
H438 H 0.61879 0.92037 0.52949 0.0
H439 H 0.60837 0.80968 0.53305 0.0
O440 O 0.56692 0.89409 0.35719 0.0
C441 C 0.61673 0.79778 0.4151 0.0
Co442 Co 0.12411 0.09659 0.64776 0.0
Co443 Co 0.14589 0.13663 0.71915 0.0
C444 C 0.09379 0.17378 0.6679 0.0
O445 O 0.09643 0.14525 0.64769 0.0
O446 O 0.11114 0.17428 0.69688 0.0
C447 C 0.07581 0.07713 0.59099 0.0
O448 O 0.05073 0.09725 0.60867 0.0
C449 C 0.1414 0.18295 0.78397 0.0
C450 C 0.1768 0.14949 0.82012 0.0
C451 C 0.1536 0.18161 0.81825 0.0
N452 N 0.15588 0.15263 0.76668 0.0
N453 N 0.17739 0.13302 0.7885 0.0
C454 C 0.11866 0.21404 0.76717 0.0
H455 H 0.13229 0.22187 0.74232 0.0
H456 H 0.0893 0.20345 0.76178 0.0
H457 H 0.11702 0.24007 0.78354 0.0
C458 C 0.09074 0.04041 0.69367 0.0
N459 N 0.11451 0.0701 0.68896 0.0
N460 N 0.12039 0.08765 0.71867 0.0
C461 C 0.09877 0.07035 0.743 0.0
C462 C 0.07927 0.03979 0.72795 0.0
C463 C 0.0728 0.01846 0.66458 0.0
H464 H 0.09409 0.01359 0.64379 0.0
H465 H 0.04842 0.03513 0.65406 0.0
H466 H 0.06182 0.99043 0.67344 0.0
O467 O 0.17772 0.10995 0.64207 0.0
O468 O 0.19552 0.13857 0.69091 0.0
H469 H 0.11824 0.08377 0.79385 0.0
H470 H 0.06828 0.07139 0.79177 0.0
C471 C 0.09177 0.08658 0.77827 0.0
H472 H 0.08468 0.11744 0.77625 0.0
H473 H 0.19192 0.10793 0.78199 0.0
O474 O 0.10821 0.06994 0.60461 0.0
C475 C 0.20267 0.12732 0.66006 0.0
Co476 Co 0.90842 0.62355 0.89999 0.0
Co477 Co 0.87214 0.6499 0.97166 0.0
C478 C 0.8285 0.60247 0.91973 0.0
O479 O 0.85678 0.60145 0.89912 0.0
O480 O 0.83062 0.62024 0.9485 0.0
C481 C 0.92486 0.57575 0.84133 0.0
O482 O 0.90063 0.55236 0.85629 0.0
C483 C 0.82651 0.64628 0.03648 0.0
C484 C 0.86174 0.67879 0.07358 0.0
C485 C 0.82873 0.65697 0.07108 0.0
N486 N 0.85716 0.66013 0.01945 0.0
N487 N 0.87784 0.68 0.04184 0.0
C488 C 0.79414 0.62595 0.01915 0.0
H489 H 0.7853 0.64268 0.99623 0.0
H490 H 0.80393 0.59727 1.0105 0.0
H491 H 0.76888 0.62292 0.03626 0.0
C492 C 0.96213 0.58488 0.94544 0.0
N493 N 0.93382 0.61038 0.94089 0.0
N494 N 0.91811 0.6189 0.97091 0.0
C495 C 0.93535 0.59747 0.99547 0.0
C496 C 0.96405 0.57554 0.98014 0.0
C497 C 0.98185 0.56457 0.91628 0.0
H498 H 0.9902 0.58547 0.8962 0.0
H499 H 0.96177 0.54363 0.90461 0.0
H500 H 0.00774 0.54904 0.92512 0.0
O501 O 0.90294 0.67867 0.89598 0.0
O502 O 0.87691 0.70008 0.94469 0.0
H503 H 0.92714 0.62089 0.04588 0.0
H504 H 0.93563 0.57012 0.04557 0.0
C505 C 0.92122 0.5939 0.03179 0.0
H506 H 0.88981 0.58912 0.03174 0.0
H507 H 0.90349 0.69363 0.03568 0.0
O508 O 0.93445 0.60634 0.85696 0.0
C509 C 0.88974 0.70598 0.91416 0.0
Co510 Co 0.38687 0.40453 0.14852 0.0
Co511 Co 0.3604 0.37092 0.22037 0.0
C512 C 0.4043 0.32418 0.16772 0.0
O513 O 0.40644 0.35192 0.14671 0.0
O514 O 0.38784 0.32801 0.19693 0.0
C515 C 0.43357 0.42053 0.08922 0.0
O516 O 0.4562 0.39449 0.10265 0.0
C517 C 0.3753 0.33403 0.28709 0.0
C518 C 0.31877 0.33453 0.31243 0.0
C519 C 0.356 0.32117 0.31649 0.0
N520 N 0.35063 0.35336 0.26688 0.0
N521 N 0.31694 0.35393 0.28242 0.0
C522 C 0.41683 0.32938 0.27838 0.0
H523 H 0.42596 0.35136 0.25953 0.0
H524 H 0.43462 0.33111 0.30211 0.0
H525 H 0.42156 0.30125 0.26607 0.0
C526 C 0.42699 0.45847 0.19309 0.0
N527 N 0.40187 0.42976 0.18918 0.0
N528 N 0.39162 0.41666 0.2197 0.0
C529 C 0.41054 0.43713 0.24412 0.0
C530 C 0.43355 0.4641 0.22798 0.0
C531 C 0.44837 0.47628 0.16371 0.0
H532 H 0.42768 0.48692 0.14424 0.0
H533 H 0.46668 0.45427 0.15124 0.0
H534 H 0.46679 0.50032 0.17223 0.0
O535 O 0.33124 0.40144 0.14485 0.0
O536 O 0.31014 0.37652 0.19398 0.0
H537 H 0.38061 0.41759 0.28933 0.0
H538 H 0.41251 0.45766 0.29641 0.0
C539 C 0.40851 0.43033 0.28217 0.0
H540 H 0.43203 0.41085 0.28994 0.0
H541 H 0.29234 0.3663 0.27196 0.0
O542 O 0.40386 0.43072 0.10589 0.0
C543 C 0.304 0.38911 0.16347 0.0
C544 C 0.09673 0.04573 0.4992 0.0
C545 C 0.0718 0.06876 0.47965 0.0
C546 C 0.09608 0.04661 0.53539 0.0
C547 C 0.0702 0.07022 0.55346 0.0
H548 H 0.11864 0.02871 0.48661 0.0
H549 H 0.11734 0.03007 0.54923 0.0
S550 S 0.99448 0.13093 0.51421 0.0
N551 N 0.01733 0.1121 0.48089 0.0
N552 N 0.0157 0.11352 0.54887 0.0
C553 C 0.04285 0.09078 0.53419 0.0
C554 C 0.04379 0.09015 0.4973 0.0
C555 C 0.90868 0.54975 0.78296 0.0
C556 C 0.93339 0.57147 0.80399 0.0
C557 C 0.91036 0.55215 0.74687 0.0
C558 C 0.93698 0.57617 0.73035 0.0
H559 H 0.88611 0.53271 0.79434 0.0
H560 H 0.88917 0.53665 0.73195 0.0
S561 S 0.01336 0.63257 0.77378 0.0
N562 N 0.98904 0.61312 0.80577 0.0
N563 N 0.99257 0.61744 0.73795 0.0
C564 C 0.96433 0.59505 0.75106 0.0
C565 C 0.9624 0.59279 0.78787 0.0
C566 C 0.41061 0.45708 0.03787 0.0
C567 C 0.43758 0.43188 0.05247 0.0
C568 C 0.4075 0.4613 1.00202 0.0
C569 C 0.43114 0.44036 0.9794 0.0
H570 H 0.39004 0.4719 0.05406 0.0
H571 H 0.38452 0.47896 0.99209 0.0
S572 S 0.51245 0.37791 1.00452 0.0
N573 N 0.49297 0.39114 0.04155 0.0
N574 N 0.48692 0.39901 0.97415 0.0
C575 C 0.46094 0.41839 0.99368 0.0
C576 C 0.46424 0.41419 0.03024 0.0
C577 C 0.54166 0.90075 0.28831 0.0
C578 C 0.56531 0.92842 0.30399 0.0
C579 C 0.53793 0.8985 0.25231 0.0
C580 C 0.55791 0.92367 0.23049 0.0
H581 H 0.52755 0.87921 0.30378 0.0
H582 H 0.52129 0.87519 0.24158 0.0
S583 S 0.61687 0.00635 0.25855 0.0
N584 N 0.60398 0.98546 0.2949 0.0
N585 N 0.59719 0.98089 0.22726 0.0
C586 C 0.57864 0.95371 0.24586 0.0
C587 C 0.58225 0.9562 0.28259 0.0
C588 C 0.08374 0.45292 0.74809 0.0
C589 C 0.05643 0.429 0.73223 0.0
C590 C 0.0868 0.45528 0.78411 0.0
C591 C 0.06283 0.43361 0.80568 0.0
H592 H 0.10449 0.46828 0.73265 0.0
H593 H 0.10991 0.47215 0.79492 0.0
S594 S 0.98136 0.37306 0.77751 0.0
N595 N 1.00087 0.38811 0.74117 0.0
N596 N 0.00699 0.39234 0.80888 0.0
C597 C 0.03304 0.41254 0.79032 0.0
C598 C 0.0297 0.41034 0.75359 0.0
C599 C 0.59918 0.54223 0.99945 0.0
C600 C 0.57502 0.56603 0.97979 0.0
C601 C 0.5986 0.54317 0.03567 0.0
C602 C 0.57356 0.56761 0.05379 0.0
H603 H 0.62039 0.52432 0.9869 0.0
H604 H 0.61923 0.52585 0.04951 0.0
S605 S 0.49991 0.63083 1.01449 0.0
N606 N 0.52206 0.61122 0.98116 0.0
N607 N 0.52058 0.61275 0.04913 0.0
C608 C 0.54696 0.58911 0.03446 0.0
C609 C 0.54781 0.5884 0.99752 0.0
C610 C 0.45348 0.08539 0.28517 0.0
C611 C 0.42945 0.05869 0.30154 0.0
C612 C 0.45526 0.08787 0.24909 0.0
C613 C 0.43293 0.06387 0.2279 0.0
H614 H 0.4694 0.10614 0.30025 0.0
H615 H 0.47232 0.11053 0.23792 0.0
S616 S 0.37185 0.98368 0.25749 0.0
N617 N 0.38772 0.00357 0.29348 0.0
N618 N 0.3909 0.00856 0.22568 0.0
C619 C 0.4117 0.03465 0.24378 0.0
C620 C 0.41005 0.03194 0.28058 0.0
C621 C 0.90584 0.9561 0.49901 0.0
C622 C 0.92926 0.93153 0.47929 0.0
C623 C 0.90726 0.956 0.53519 0.0
C624 C 0.93238 0.9316 0.55311 0.0
H625 H 0.88452 0.97391 0.48661 0.0
H626 H 0.88713 0.97388 0.54917 0.0
S627 S 0.00446 0.8667 0.51329 0.0
N628 N 0.98177 0.8858 0.48016 0.0
N629 N 0.98475 0.88577 0.54809 0.0
C630 C 0.95832 0.90936 0.53362 0.0
C631 C 0.95664 0.90926 0.49673 0.0
C632 C 0.24984 0.09017 0.16253 0.0
C633 C 0.26026 0.1151 0.13566 0.0
C634 C 0.22088 0.0997 0.18608 0.0
C635 C 0.20158 0.13497 0.18432 0.0
H636 H 0.2655 0.06376 0.16644 0.0
H637 H 0.21448 0.07968 0.20654 0.0
S638 S 0.21321 0.20747 0.11539 0.0
N639 N 0.24527 0.1743 0.10585 0.0
N640 N 0.19104 0.19251 0.15055 0.0
C641 C 0.20919 0.15865 0.15579 0.0
C642 C 0.23855 0.1487 0.13143 0.0
C643 C 0.89832 0.71022 0.42225 0.0
C644 C 0.86023 0.70243 0.43217 0.0
C645 C 0.90698 0.73919 0.39845 0.0
C646 C 0.87786 0.76025 0.38225 0.0
H647 H 0.92193 0.69461 0.4333 0.0
H648 H 0.93674 0.74616 0.39366 0.0
S649 S 0.77345 0.7485 0.39513 0.0
N650 N 0.79296 0.71669 0.42119 0.0
N651 N 0.80952 0.76964 0.37536 0.0
C652 C 0.83969 0.75065 0.38943 0.0
C653 C 0.83079 0.72196 0.41444 0.0
C654 C 0.29422 0.36007 0.65793 0.0
C655 C 0.28935 0.35061 0.693 0.0
C656 C 0.26229 0.36763 0.6365 0.0
C657 C 0.2247 0.36619 0.64971 0.0
H658 H 0.32278 0.36217 0.6472 0.0
H659 H 0.26708 0.37548 0.60982 0.0
S660 S 0.19731 0.33795 0.73905 0.0
N661 N 0.24456 0.33704 0.73911 0.0
N662 N 0.18494 0.35093 0.69966 0.0
C663 C 0.21988 0.35529 0.68458 0.0
C664 C 0.25209 0.3476 0.70601 0.0
C665 C 0.60812 0.78762 0.92206 0.0
C666 C 0.64545 0.79206 0.93547 0.0
C667 C 0.59944 0.75879 0.89784 0.0
C668 C 0.62808 0.73442 0.88484 0.0
H669 H 0.5851 0.80596 0.93063 0.0
H670 H 0.5699 0.75468 0.8901 0.0
S671 S 0.73054 0.73473 0.90945 0.0
N672 N 0.7115 0.76973 0.93255 0.0
N673 N 0.69527 0.71713 0.88594 0.0
C674 C 0.66584 0.74003 0.89614 0.0
C675 C 0.67456 0.76858 0.92152 0.0
C676 C 0.22745 0.40126 0.09549 0.0
C677 C 0.20669 0.36689 0.09753 0.0
C678 C 0.25683 0.40975 0.11895 0.0
C679 C 0.26623 0.38472 0.14609 0.0
H680 H 0.22173 0.42148 0.07503 0.0
H681 H 0.27351 0.43545 0.11485 0.0
S682 S 0.21565 0.2946 0.16708 0.0
N683 N 0.19404 0.31014 0.13182 0.0
N684 N 0.24901 0.32649 0.17632 0.0
C685 C 0.24327 0.35208 0.15053 0.0
C686 C 0.2135 0.34315 0.12625 0.0
C687 C 0.66068 0.74525 0.39565 0.0
C688 C 0.62326 0.76002 0.39849 0.0
C689 C 0.66955 0.71657 0.37121 0.0
C690 C 0.64135 0.70189 0.34878 0.0
H691 H 0.68375 0.7579 0.4105 0.0
H692 H 0.69905 0.70743 0.36849 0.0
S693 S 0.53769 0.72505 0.35125 0.0
N694 N 0.55699 0.75395 0.38025 0.0
N695 N 0.57337 0.69929 0.33551 0.0
C696 C 0.60328 0.71382 0.35378 0.0
C697 C 0.59434 0.74311 0.3783 0.0
C698 C 0.27397 0.12914 0.64834 0.0
C699 C 0.2365 0.14146 0.6409 0.0
C700 C 0.30436 0.13665 0.6252 0.0
C701 C 0.29791 0.15643 0.59406 0.0
H702 H 0.2794 0.11196 0.67104 0.0
H703 H 0.33254 0.12525 0.6308 0.0
S704 S 0.20597 0.19837 0.56496 0.0
N705 N 0.19554 0.17731 0.60188 0.0
N706 N 0.25221 0.19104 0.55878 0.0
C707 C 0.26108 0.17067 0.58754 0.0
C708 C 0.23048 0.16324 0.61089 0.0
C709 C 0.90871 0.75054 0.86714 0.0
C710 C 0.88571 0.74355 0.89637 0.0
C711 C 0.90027 0.78 0.84399 0.0
C712 C 0.86797 0.80355 0.84848 0.0
H713 H 0.93275 0.73201 0.86119 0.0
H714 H 0.91895 0.78369 0.82196 0.0
S715 S 0.80398 0.80367 0.92506 0.0
N716 N 0.83319 0.76722 0.93178 0.0
N717 N 0.81702 0.82257 0.88783 0.0
C718 C 0.847 0.79957 0.87939 0.0
C719 C 0.85584 0.76954 0.90335 0.0
C720 C 0.71855 0.66526 0.66073 0.0
C721 C 0.70491 0.63653 0.68295 0.0
C722 C 0.74789 0.65762 0.63664 0.0
C723 C 0.7644 0.62096 0.63398 0.0
H724 H 0.70811 0.6943 0.66342 0.0
H725 H 0.75968 0.68117 0.62199 0.0
S726 S 0.73311 0.53425 0.6809 0.0
N727 N 0.70536 0.56866 0.6962 0.0
N728 N 0.76144 0.55474 0.65227 0.0
C729 C 0.74869 0.59144 0.65398 0.0
C730 C 0.71864 0.59908 0.67807 0.0
C731 C 0.38772 0.23856 0.94975 0.0
C732 C 0.3632 0.20842 0.94039 0.0
C733 C 0.39677 0.26784 0.92673 0.0
C734 C 0.38077 0.26953 0.89331 0.0
H735 H 0.39857 0.24133 0.97569 0.0
H736 H 0.41513 0.29054 0.93617 0.0
S737 S 0.31586 0.19694 0.85494 0.0
N738 N 0.32444 0.18093 0.89429 0.0
N739 N 0.34019 0.23722 0.85135 0.0
C740 C 0.35701 0.23908 0.88295 0.0
C741 C 0.34828 0.20856 0.90645 0.0
C742 C 0.7615 0.88869 0.19755 0.0
C743 C 0.79204 0.86469 0.18792 0.0
C744 C 0.7315 0.89695 0.17487 0.0
C745 C 0.72948 0.88064 0.14154 0.0
H746 H 0.75897 0.89969 0.22348 0.0
H747 H 0.70851 0.91488 0.18453 0.0
S748 S 0.80286 0.81692 0.10248 0.0
N749 N 0.8195 0.82616 0.14159 0.0
N750 N 0.76193 0.84042 0.09932 0.0
C751 C 0.76033 0.85747 0.13088 0.0
C752 C 0.79156 0.84954 0.15401 0.0
C753 C 0.0998 0.26196 0.39981 0.0
C754 C 0.12833 0.23799 0.38605 0.0
C755 C 0.10862 0.29013 0.4246 0.0
C756 C 0.14603 0.29426 0.43791 0.0
H757 H 0.07017 0.25792 0.39232 0.0
H758 H 0.08559 0.3081 0.43368 0.0
S759 S 0.23137 0.23902 0.40889 0.0
N760 N 0.19578 0.22151 0.38566 0.0
N761 N 0.21234 0.27299 0.43321 0.0
C762 C 0.17516 0.27159 0.42287 0.0
C763 C 0.16626 0.24368 0.39693 0.0
C764 C 0.7174 0.89979 0.60366 0.0
C765 C 0.70566 0.86158 0.59941 0.0
C766 C 0.74556 0.9099 0.62792 0.0
C767 C 0.76249 0.88241 0.64961 0.0
H768 H 0.70584 0.92191 0.58715 0.0
H769 H 0.75564 0.93919 0.62845 0.0
S770 S 0.73846 0.77916 0.65179 0.0
N771 N 0.71056 0.79668 0.62119 0.0
N772 N 0.76305 0.8158 0.66717 0.0
C773 C 0.74868 0.84467 0.64768 0.0
C774 C 0.72028 0.83426 0.62258 0.0
C775 C 0.09592 0.24948 0.87518 0.0
C776 C 0.12356 0.26491 0.89776 0.0
C777 C 0.10548 0.22128 0.85076 0.0
C778 C 0.1433 0.20783 0.84733 0.0
H779 H 0.06697 0.26069 0.87521 0.0
H780 H 0.08325 0.21088 0.83363 0.0
S781 S 0.22574 0.23603 0.90231 0.0
N782 N 0.18977 0.26217 0.91703 0.0
N783 N 0.20785 0.20942 0.87085 0.0
C784 C 0.17067 0.22094 0.87134 0.0
C785 C 0.16081 0.24949 0.89655 0.0
C786 C 0.78931 0.60794 0.10194 0.0
C787 C 0.80257 0.64582 0.09975 0.0
C788 C 0.76049 0.59767 0.12536 0.0
C789 C 0.74426 0.62465 0.14817 0.0
H790 H 0.80019 0.5863 0.08439 0.0
H791 H 0.74947 0.56873 0.12442 0.0
S792 S 0.77256 0.72658 0.156 0.0
N793 N 0.80009 0.70961 0.12475 0.0
N794 N 0.7462 0.69024 0.1692 0.0
C795 C 0.75956 0.6619 0.14831 0.0
C796 C 0.78874 0.67247 0.12408 0.0
C797 C 0.39521 0.26439 0.33494 0.0
C798 C 0.36879 0.29328 0.34344 0.0
C799 C 0.40384 0.23483 0.35786 0.0
C800 C 0.38566 0.23167 0.39026 0.0
H801 H 0.40779 0.26261 0.3096 0.0
H802 H 0.42355 0.21293 0.34899 0.0
S803 S 0.31637 0.30153 0.42672 0.0
N804 N 0.32659 0.31861 0.38807 0.0
N805 N 0.34175 0.26188 0.43079 0.0
C806 C 0.36041 0.26122 0.4 0.0
C807 C 0.35201 0.29197 0.37663 0.0
C808 C 0.04262 0.00085 0.29314 0.0
C809 C 0.02091 0.03475 0.29373 0.0
C810 C 0.02462 0.96502 0.29273 0.0
C811 C 0.9845 0.9622 0.29279 0.0
H812 H 0.07347 0.00203 0.29603 0.0
H813 H 0.04202 0.93953 0.29544 0.0
S814 S 0.91528 0.0425 0.29055 0.0
N815 N 0.95771 0.0634 0.29116 0.0
N816 N 0.92377 0.99601 0.29041 0.0
C817 C 0.96269 0.99584 0.29035 0.0
C818 C 0.98099 0.03223 0.29087 0.0
C819 C 0.03648 0.52038 0.53776 0.0
C820 C 0.03731 0.48034 0.54032 0.0
C821 C 0.00152 0.54024 0.53788 0.0
C822 C 0.96662 0.52052 0.54089 0.0
H823 H 0.0629 0.53653 0.5392 0.0
H824 H 0.00198 0.5712 0.53924 0.0
S825 S 0.95354 0.41567 0.54387 0.0
N826 N 1.00044 0.42159 0.54193 0.0
N827 N 0.93475 0.45903 0.5426 0.0
C828 C 0.96704 0.48048 0.53998 0.0
C829 C 0.00251 0.46029 0.53955 0.0
C830 C 0.46481 0.49617 0.78437 0.0
C831 C 0.48449 0.46132 0.78796 0.0
C832 C 0.4846 0.53104 0.78532 0.0
C833 C 0.52454 0.53183 0.78953 0.0
H834 H 0.43377 0.49666 0.78466 0.0
H835 H 0.46833 0.55744 0.78593 0.0
S836 S 0.58933 0.44823 0.79529 0.0
N837 N 0.54605 0.42949 0.79201 0.0
N838 N 0.58338 0.49505 0.79348 0.0
C839 C 0.54476 0.49713 0.78948 0.0
C840 C 0.52462 0.46173 0.78866 0.0
C841 C 0.49425 0.03475 0.03455 0.0
C842 C 0.45972 0.01423 0.03662 0.0
C843 C 0.52961 0.01564 0.03483 0.0
C844 C 0.53123 0.97559 0.03683 0.0
H845 H 0.49402 0.06567 0.03652 0.0
H846 H 0.55563 0.03233 0.03706 0.0
S847 S 0.44887 0.90907 0.03753 0.0
N848 N 0.42916 0.95204 0.03661 0.0
N849 N 0.49566 0.91603 0.03665 0.0
C850 C 0.49693 0.95481 0.03497 0.0
C851 C 0.46102 0.97423 0.03498 0.0
C852 C 0.04077 0.50216 0.9944 0.0
C853 C 0.01956 0.46803 0.99332 0.0
C854 C 0.02229 0.5378 0.99434 0.0
C855 C 0.98213 0.54023 0.99317 0.0
H856 H 0.07169 0.50133 0.99205 0.0
H857 H 0.03944 0.56345 0.99196 0.0
S858 S 0.91396 0.45921 0.99426 0.0
N859 N 0.95665 0.43877 0.99479 0.0
N860 N 0.92182 0.50579 0.9943 0.0
C861 C 0.96072 0.50638 0.99531 0.0
C862 C 0.97952 0.47017 0.99546 0.0
C863 C 0.50119 0.46345 0.24722 0.0
C864 C 0.46724 0.48431 0.24195 0.0
C865 C 0.53694 0.48175 0.2469 0.0
C866 C 0.53958 0.52136 0.24165 0.0
H867 H 0.50038 0.43249 0.24806 0.0
H868 H 0.5627 0.46446 0.2478 0.0
S869 S 0.4588 0.58899 0.23086 0.0
N870 N 0.43814 0.54675 0.23482 0.0
N871 N 0.50532 0.58126 0.23448 0.0
C872 C 0.50567 0.54286 0.2397 0.0
C873 C 0.46938 0.52425 0.23988 0.0
C874 C 0.48337 0.96477 0.49735 0.0
C875 C 0.52343 0.96347 0.494 0.0
C876 C 0.46379 0.99984 0.49714 0.0
C877 C 0.48382 0.03441 0.49342 0.0
H878 H 0.46692 0.93852 0.4968 0.0
H879 H 0.43277 0.99965 0.49629 0.0
S880 S 0.58894 0.04636 0.48821 0.0
N881 N 0.58259 0.99965 0.49065 0.0
N882 N 0.54571 0.06556 0.49024 0.0
C883 C 0.52397 0.03359 0.49358 0.0
C884 C 0.54387 0.99799 0.49385 0.0
C885 C 0.0397 0.98255 0.74135 0.0
C886 C 0.04277 0.02253 0.73934 0.0
C887 C 0.00375 0.96466 0.74076 0.0
C888 C 0.96989 0.9863 0.73827 0.0
H889 H 0.06526 0.96496 0.74044 0.0
H890 H 0.00258 0.93373 0.7394 0.0
S891 S 0.96245 0.0918 0.7358 0.0
N892 N 0.00897 0.08325 0.7374 0.0
N893 N 0.9414 0.04954 0.737 0.0
C894 C 0.97251 0.02628 0.73916 0.0
C895 C 0.00903 0.04447 0.73955 0.0
C896 C 0.28139 0.08285 0.36914 0.0
C897 C 0.288 0.08161 0.40498 0.0
C898 C 0.24418 0.08371 0.35589 0.0
C899 C 0.21218 0.08343 0.37795 0.0
H900 H 0.30492 0.08653 0.3512 0.0
H901 H 0.24076 0.08752 0.32839 0.0
S902 S 0.21452 0.06655 0.47266 0.0
N903 N 0.25999 0.06975 0.46131 0.0
N904 N 0.18975 0.07207 0.4367 0.0
C905 C 0.21848 0.07649 0.41336 0.0
C906 C 0.25652 0.07554 0.42682 0.0
C907 C 0.91724 0.72534 0.66286 0.0
C908 C 0.91521 0.71846 0.62705 0.0
C909 C 0.91725 0.7626 0.67604 0.0
C910 C 0.91543 0.79439 0.65397 0.0
H911 H 0.9157 0.70193 0.68106 0.0
H912 H 0.91599 0.76629 0.70376 0.0
S913 S 0.92139 0.79159 0.55807 0.0
N914 N 0.91973 0.74627 0.56973 0.0
N915 N 0.92021 0.81643 0.59439 0.0
C916 C 0.91874 0.78787 0.6181 0.0
C917 C 0.91841 0.74985 0.60467 0.0
C918 C 0.24143 0.42339 0.92406 0.0
C919 C 0.20946 0.4193 0.90228 0.0
C920 C 0.27862 0.42375 0.91065 0.0
C921 C 0.28522 0.41965 0.87493 0.0
H922 H 0.23798 0.42361 0.95184 0.0
H923 H 0.30227 0.42388 0.92877 0.0
S924 S 0.21118 0.41921 0.80625 0.0
N925 N 0.18666 0.4196 0.84269 0.0
N926 N 0.25672 0.41972 0.81771 0.0
C927 C 0.25349 0.42056 0.85266 0.0
C928 C 0.21552 0.42062 0.86627 0.0
C929 C 0.57859 0.77526 0.16123 0.0
C930 C 0.58149 0.78175 0.12545 0.0
C931 C 0.58085 0.73828 0.17461 0.0
C932 C 0.58575 0.70651 0.15269 0.0
H933 H 0.57807 0.79896 0.17934 0.0
H934 H 0.58159 0.73497 0.20238 0.0
S935 S 0.58266 0.70766 0.05667 0.0
N936 N 0.58074 0.75312 0.06816 0.0
N937 N 0.58435 0.68338 0.09311 0.0
C938 C 0.58296 0.71225 0.11672 0.0
C939 C 0.58108 0.75001 0.10313 0.0
C940 C 0.7214 0.59 0.9157 0.0
C941 C 0.71515 0.58412 0.88017 0.0
C942 C 0.75849 0.59204 0.92912 0.0
C943 C 0.79071 0.58837 0.90757 0.0
H944 H 0.69774 0.59641 0.93291 0.0
H945 H 0.76166 0.59923 0.95608 0.0
S946 S 0.78906 0.55932 0.81507 0.0
N947 N 0.74353 0.56462 0.82562 0.0
N948 N 0.81354 0.56906 0.85051 0.0
C949 C 0.78465 0.57688 0.87302 0.0
C950 C 0.74675 0.5747 0.85939 0.0
C951 C 0.41285 0.24057 0.10648 0.0
C952 C 0.41196 0.20902 0.12889 0.0
C953 C 0.41425 0.27799 0.11933 0.0
C954 C 0.41423 0.28534 0.15514 0.0
H955 H 0.41 0.23655 0.07886 0.0
H956 H 0.41223 0.30123 0.101 0.0
S957 S 0.42081 0.21279 0.22456 0.0
N958 N 0.41805 0.18758 0.18852 0.0
N959 N 0.41982 0.25797 0.21249 0.0
C960 C 0.41741 0.25408 0.17765 0.0
C961 C 0.41654 0.21589 0.16457 0.0
C962 C 0.75649 0.90659 0.3525 0.0
C963 C 0.78833 0.9132 0.37401 0.0
C964 C 0.71928 0.90707 0.36579 0.0
C965 C 0.71255 0.91401 0.4011 0.0
H966 H 0.7603 0.8979 0.32584 0.0
H967 H 0.6961 0.89854 0.34882 0.0
S968 S 0.78459 0.94489 0.4657 0.0
N969 N 0.80975 0.93562 0.43053 0.0
N970 N 0.73949 0.93658 0.45526 0.0
C971 C 0.74345 0.92576 0.42172 0.0
C972 C 0.78146 0.92541 0.40821 0.0
C973 C 0.07324 0.24147 0.67647 0.0
C974 C 0.07742 0.20981 0.65432 0.0
C975 C 0.07105 0.27858 0.66329 0.0
C976 C 0.07342 0.28524 0.62749 0.0
H977 H 0.07485 0.23797 0.7042 0.0
H978 H 0.0715 0.30219 0.6815 0.0
S979 S 0.0722 0.2116 0.55837 0.0
N980 N 0.07428 0.18707 0.59466 0.0
N981 N 0.07098 0.257 0.57012 0.0
C982 C 0.07188 0.25365 0.60507 0.0
C983 C 0.0736 0.2158 0.61844 0.0
loop_
_geom_bond_atom_site_label_1
_geom_bond_atom_site_label_2
_geom_bond_distance
_geom_bond_site_symmetry_2
_ccdc_geom_bond_type
Co0 O3 1.970 . S
Co0 N17 1.989 . S
Co0 O25 1.967 . S
Co0 O32 1.920 . S
Co1 O4 1.966 . S
Co1 N10 2.022 . S
Co1 N18 1.993 . S
Co1 O26 1.941 . S
C2 O3 1.258 . S
C2 O4 1.263 . S
O3 Co0 1.970 . S
O3 C2 1.258 . S
O4 Co1 1.966 . S
O4 C2 1.263 . S
C5 O6 1.235 . S
C5 O32 1.289 . S
O6 C5 1.235 . S
C7 C9 1.400 . S
C7 N10 1.351 . S
C7 C12 1.501 . S
C8 C9 1.387 . S
C8 N11 1.341 . S
C9 C7 1.400 . S
C9 C8 1.387 . S
N10 Co1 2.022 . S
N10 C7 1.351 . S
N10 N11 1.365 . S
N11 C8 1.341 . S
N11 N10 1.365 . S
N11 H31 0.862 . S
C12 C7 1.501 . S
C12 H13 0.961 . S
C12 H14 0.961 . S
C12 H15 0.960 . S
H13 C12 0.961 . S
H14 C12 0.961 . S
H15 C12 0.960 . S
C16 N17 1.342 . S
C16 C20 1.401 . S
C16 C21 1.499 . S
N17 Co0 1.989 . S
N17 C16 1.342 . S
N17 N18 1.388 . S
N18 Co1 1.993 . S
N18 N17 1.388 . S
N18 C19 1.346 . S
C19 N18 1.346 . S
C19 C20 1.396 . S
C19 C29 1.510 . S
C20 C16 1.401 . S
C20 C19 1.396 . S
C21 C16 1.499 . S
C21 H22 0.959 . S
C21 H23 0.960 . S
C21 H24 0.961 . S
H22 C21 0.959 . S
H23 C21 0.960 . S
H24 C21 0.961 . S
O25 Co0 1.967 . S
O25 C33 1.258 . S
O26 Co1 1.941 . S
O26 C33 1.266 . S
H27 C29 0.959 . S
H28 C29 0.961 . S
C29 C19 1.510 . S
C29 H27 0.959 . S
C29 H28 0.961 . S
C29 H30 0.960 . S
H30 C29 0.960 . S
H31 N11 0.862 . S
O32 Co0 1.920 . S
O32 C5 1.289 . S
C33 O25 1.258 . S
C33 O26 1.266 . S
Co34 O37 1.970 . S
Co34 N51 1.989 . S
Co34 O59 1.967 . S
Co34 O66 1.920 . S
Co35 O38 1.966 . S
Co35 N44 2.022 . S
Co35 N52 1.993 . S
Co35 O60 1.941 . S
C36 O37 1.258 . S
C36 O38 1.263 . S
O37 Co34 1.970 . S
O37 C36 1.258 . S
O38 Co35 1.966 . S
O38 C36 1.263 . S
C39 O40 1.235 . S
C39 O66 1.289 . S
O40 C39 1.235 . S
C41 C43 1.400 . S
C41 N44 1.351 . S
C41 C46 1.501 . S
C42 C43 1.387 . S
C42 N45 1.341 . S
C43 C41 1.400 . S
C43 C42 1.387 . S
N44 Co35 2.022 . S
N44 C41 1.351 . S
N44 N45 1.365 . S
N45 C42 1.341 . S
N45 N44 1.365 . S
N45 H65 0.862 . S
C46 C41 1.501 . S
C46 H47 0.961 . S
C46 H48 0.961 . S
C46 H49 0.960 . S
H47 C46 0.961 . S
H48 C46 0.961 . S
H49 C46 0.960 . S
C50 N51 1.342 . S
C50 C54 1.401 . S
C50 C55 1.499 . S
N51 Co34 1.989 . S
N51 C50 1.342 . S
N51 N52 1.388 . S
N52 Co35 1.993 . S
N52 N51 1.388 . S
N52 C53 1.346 . S
C53 N52 1.346 . S
C53 C54 1.396 . S
C53 C63 1.510 . S
C54 C50 1.401 . S
C54 C53 1.396 . S
C55 C50 1.499 . S
C55 H56 0.959 . S
C55 H57 0.960 . S
C55 H58 0.961 . S
H56 C55 0.959 . S
H57 C55 0.960 . S
H58 C55 0.961 . S
O59 Co34 1.967 . S
O59 C67 1.258 . S
O60 Co35 1.941 . S
O60 C67 1.266 . S
H61 C63 0.959 . S
H62 C63 0.961 . S
C63 C53 1.510 . S
C63 H61 0.959 . S
C63 H62 0.961 . S
C63 H64 0.960 . S
H64 C63 0.960 . S
H65 N45 0.862 . S
O66 Co34 1.920 . S
O66 C39 1.289 . S
C67 O59 1.258 . S
C67 O60 1.266 . S
Co68 O71 1.970 . S
Co68 N85 1.989 . S
Co68 O93 1.967 . S
Co68 O100 1.920 . S
Co69 O72 1.966 . S
Co69 N78 2.022 . S
Co69 N86 1.993 . S
Co69 O94 1.941 . S
C70 O71 1.258 . S
C70 O72 1.263 . S
O71 Co68 1.970 . S
O71 C70 1.258 . S
O72 Co69 1.966 . S
O72 C70 1.263 . S
C73 O74 1.235 . S
C73 O100 1.289 . S
O74 C73 1.235 . S
C75 C77 1.400 . S
C75 N78 1.351 . S
C75 C80 1.501 . S
C76 C77 1.387 . S
C76 N79 1.341 . S
C77 C75 1.400 . S
C77 C76 1.387 . S
N78 Co69 2.022 . S
N78 C75 1.351 . S
N78 N79 1.365 . S
N79 C76 1.341 . S
N79 N78 1.365 . S
N79 H99 0.862 . S
C80 C75 1.501 . S
C80 H81 0.961 . S
C80 H82 0.961 . S
C80 H83 0.960 . S
H81 C80 0.961 . S
H82 C80 0.961 . S
H83 C80 0.960 . S
C84 N85 1.342 . S
C84 C88 1.401 . S
C84 C89 1.499 . S
N85 Co68 1.989 . S
N85 C84 1.342 . S
N85 N86 1.388 . S
N86 Co69 1.993 . S
N86 N85 1.388 . S
N86 C87 1.346 . S
C87 N86 1.346 . S
C87 C88 1.396 . S
C87 C97 1.510 . S
C88 C84 1.401 . S
C88 C87 1.396 . S
C89 C84 1.499 . S
C89 H90 0.959 . S
C89 H91 0.960 . S
C89 H92 0.961 . S
H90 C89 0.959 . S
H91 C89 0.960 . S
H92 C89 0.961 . S
O93 Co68 1.967 . S
O93 C101 1.258 . S
O94 Co69 1.941 . S
O94 C101 1.266 . S
H95 C97 0.959 . S
H96 C97 0.961 . S
C97 C87 1.510 . S
C97 H95 0.959 . S
C97 H96 0.961 . S
C97 H98 0.960 . S
H98 C97 0.960 . S
H99 N79 0.862 . S
O100 Co68 1.920 . S
O100 C73 1.289 . S
C101 O93 1.258 . S
C101 O94 1.266 . S
Co102 O105 1.970 . S
Co102 N119 1.989 . S
Co102 O127 1.967 . S
Co102 O134 1.920 . S
Co103 O106 1.966 . S
Co103 N112 2.022 . S
Co103 N120 1.993 . S
Co103 O128 1.941 . S
C104 O105 1.258 . S
C104 O106 1.263 . S
O105 Co102 1.970 . S
O105 C104 1.258 . S
O106 Co103 1.966 . S
O106 C104 1.263 . S
C107 O108 1.235 . S
C107 O134 1.289 . S
O108 C107 1.235 . S
C109 C111 1.400 . S
C109 N112 1.351 1_556 S
C109 C114 1.501 . S
C110 C111 1.387 . S
C110 N113 1.341 . S
C111 C109 1.400 . S
C111 C110 1.387 . S
N112 Co103 2.022 . S
N112 C109 1.351 1_554 S
N112 N113 1.365 1_554 S
N113 C110 1.341 . S
N113 N112 1.365 1_556 S
N113 H133 0.862 . S
C114 C109 1.501 . S
C114 H115 0.961 1_556 S
C114 H116 0.961 . S
C114 H117 0.960 . S
H115 C114 0.961 1_554 S
H116 C114 0.961 . S
H117 C114 0.960 . S
C118 N119 1.342 . S
C118 C122 1.401 . S
C118 C123 1.499 . S
N119 Co102 1.989 . S
N119 C118 1.342 . S
N119 N120 1.388 . S
N120 Co103 1.993 . S
N120 N119 1.388 . S
N120 C121 1.346 . S
C121 N120 1.346 . S
C121 C122 1.396 . S
C121 C131 1.510 . S
C122 C118 1.401 . S
C122 C121 1.396 . S
C123 C118 1.499 . S
C123 H124 0.959 . S
C123 H125 0.960 . S
C123 H126 0.961 . S
H124 C123 0.959 . S
H125 C123 0.960 . S
H126 C123 0.961 . S
O127 Co102 1.967 . S
O127 C135 1.258 . S
O128 Co103 1.941 . S
O128 C135 1.266 . S
H129 C131 0.959 1_556 S
H130 C131 0.961 1_556 S
C131 C121 1.510 . S
C131 H129 0.959 1_554 S
C131 H130 0.961 1_554 S
C131 H132 0.960 1_554 S
H132 C131 0.960 1_556 S
H133 N113 0.862 . S
O134 Co102 1.920 . S
O134 C107 1.289 . S
C135 O127 1.258 . S
C135 O128 1.266 . S
Co136 O139 1.970 . S
Co136 N153 1.989 . S
Co136 O161 1.967 . S
Co136 O168 1.920 . S
Co137 O140 1.966 . S
Co137 N146 2.022 . S
Co137 N154 1.993 . S
Co137 O162 1.941 . S
C138 O139 1.258 . S
C138 O140 1.263 . S
O139 Co136 1.970 . S
O139 C138 1.258 . S
O140 Co137 1.966 . S
O140 C138 1.263 . S
C141 O142 1.235 . S
C141 O168 1.289 . S
O142 C141 1.235 . S
C143 C145 1.400 . S
C143 N146 1.351 1_554 S
C143 C148 1.501 . S
C144 C145 1.387 . S
C144 N147 1.341 . S
C145 C143 1.400 . S
C145 C144 1.387 . S
N146 Co137 2.022 . S
N146 C143 1.351 1_556 S
N146 N147 1.365 1_556 S
N147 C144 1.341 . S
N147 N146 1.365 1_554 S
N147 H167 0.862 . S
C148 C143 1.501 . S
C148 H149 0.961 1_554 S
C148 H150 0.961 . S
C148 H151 0.960 . S
H149 C148 0.961 1_556 S
H150 C148 0.961 . S
H151 C148 0.960 . S
C152 N153 1.342 . S
C152 C156 1.401 . S
C152 C157 1.499 . S
N153 Co136 1.989 . S
N153 C152 1.342 . S
N153 N154 1.388 . S
N154 Co137 1.993 . S
N154 N153 1.388 . S
N154 C155 1.346 . S
C155 N154 1.346 . S
C155 C156 1.396 . S
C155 C165 1.510 . S
C156 C152 1.401 . S
C156 C155 1.396 . S
C157 C152 1.499 . S
C157 H158 0.959 . S
C157 H159 0.960 . S
C157 H160 0.961 . S
H158 C157 0.959 . S
H159 C157 0.960 . S
H160 C157 0.961 . S
O161 Co136 1.967 . S
O161 C169 1.258 . S
O162 Co137 1.941 . S
O162 C169 1.266 . S
H163 C165 0.959 1_554 S
H164 C165 0.961 1_554 S
C165 C155 1.510 . S
C165 H163 0.959 1_556 S
C165 H164 0.961 1_556 S
C165 H166 0.960 1_556 S
H166 C165 0.960 1_554 S
H167 N147 0.862 . S
O168 Co136 1.920 . S
O168 C141 1.289 . S
C169 O161 1.258 . S
C169 O162 1.266 . S
Co170 O173 1.970 . S
Co170 N187 1.989 . S
Co170 O195 1.967 . S
Co170 O202 1.920 . S
Co171 O174 1.966 . S
Co171 N180 2.022 . S
Co171 N188 1.993 . S
Co171 O196 1.941 . S
C172 O173 1.258 . S
C172 O174 1.263 . S
O173 Co170 1.970 . S
O173 C172 1.258 . S
O174 Co171 1.966 . S
O174 C172 1.263 . S
C175 O176 1.235 . S
C175 O202 1.289 . S
O176 C175 1.235 . S
C177 C179 1.400 . S
C177 N180 1.351 . S
C177 C182 1.501 . S
C178 C179 1.387 . S
C178 N181 1.341 . S
C179 C177 1.400 . S
C179 C178 1.387 . S
N180 Co171 2.022 . S
N180 C177 1.351 . S
N180 N181 1.365 . S
N181 C178 1.341 . S
N181 N180 1.365 . S
N181 H201 0.862 . S
C182 C177 1.501 . S
C182 H183 0.961 . S
C182 H184 0.961 . S
C182 H185 0.960 . S
H183 C182 0.961 . S
H184 C182 0.961 . S
H185 C182 0.960 . S
C186 N187 1.342 . S
C186 C190 1.401 . S
C186 C191 1.499 . S
N187 Co170 1.989 . S
N187 C186 1.342 . S
N187 N188 1.388 . S
N188 Co171 1.993 . S
N188 N187 1.388 . S
N188 C189 1.346 . S
C189 N188 1.346 . S
C189 C190 1.396 . S
C189 C199 1.510 . S
C190 C186 1.401 . S
C190 C189 1.396 . S
C191 C186 1.499 . S
C191 H192 0.959 . S
C191 H193 0.960 . S
C191 H194 0.961 . S
H192 C191 0.959 . S
H193 C191 0.960 . S
H194 C191 0.961 . S
O195 Co170 1.967 . S
O195 C203 1.258 . S
O196 Co171 1.941 . S
O196 C203 1.266 . S
H197 C199 0.959 . S
H198 C199 0.961 . S
C199 C189 1.510 . S
C199 H197 0.959 . S
C199 H198 0.961 . S
C199 H200 0.960 . S
H200 C199 0.960 . S
H201 N181 0.862 . S
O202 Co170 1.920 . S
O202 C175 1.289 . S
C203 O195 1.258 . S
C203 O196 1.266 . S
Co204 O207 1.970 . S
Co204 N221 1.989 . S
Co204 O229 1.967 . S
Co204 O236 1.920 . S
Co205 O208 1.966 . S
Co205 N214 2.022 . S
Co205 N222 1.993 . S
Co205 O230 1.941 . S
C206 O207 1.258 . S
C206 O208 1.263 . S
O207 Co204 1.970 . S
O207 C206 1.258 . S
O208 Co205 1.966 . S
O208 C206 1.263 . S
C209 O210 1.235 . S
C209 O236 1.289 . S
O210 C209 1.235 . S
C211 C213 1.400 . S
C211 N214 1.351 . S
C211 C216 1.501 . S
C212 C213 1.387 . S
C212 N215 1.341 . S
C213 C211 1.400 . S
C213 C212 1.387 . S
N214 Co205 2.022 . S
N214 C211 1.351 . S
N214 N215 1.365 . S
N215 C212 1.341 . S
N215 N214 1.365 . S
N215 H235 0.862 . S
C216 C211 1.501 . S
C216 H217 0.961 . S
C216 H218 0.961 . S
C216 H219 0.960 . S
H217 C216 0.961 . S
H218 C216 0.961 . S
H219 C216 0.960 . S
C220 N221 1.342 . S
C220 C224 1.401 . S
C220 C225 1.499 . S
N221 Co204 1.989 . S
N221 C220 1.342 . S
N221 N222 1.388 . S
N222 Co205 1.993 . S
N222 N221 1.388 . S
N222 C223 1.346 . S
C223 N222 1.346 . S
C223 C224 1.396 . S
C223 C233 1.510 . S
C224 C220 1.401 . S
C224 C223 1.396 . S
C225 C220 1.499 . S
C225 H226 0.959 . S
C225 H227 0.960 . S
C225 H228 0.961 . S
H226 C225 0.959 . S
H227 C225 0.960 . S
H228 C225 0.961 . S
O229 Co204 1.967 . S
O229 C237 1.258 . S
O230 Co205 1.941 . S
O230 C237 1.266 . S
H231 C233 0.959 . S
H232 C233 0.961 . S
C233 C223 1.510 . S
C233 H231 0.959 . S
C233 H232 0.961 . S
C233 H234 0.960 . S
H234 C233 0.960 . S
H235 N215 0.862 . S
O236 Co204 1.920 . S
O236 C209 1.289 . S
C237 O229 1.258 . S
C237 O230 1.266 . S
Co238 O241 1.970 . S
Co238 N255 1.989 . S
Co238 O263 1.967 . S
Co238 O270 1.920 . S
Co239 O242 1.966 . S
Co239 N248 2.022 . S
Co239 N256 1.993 . S
Co239 O264 1.941 . S
C240 O241 1.258 . S
C240 O242 1.263 . S
O241 Co238 1.970 . S
O241 C240 1.258 . S
O242 Co239 1.966 . S
O242 C240 1.263 . S
C243 O244 1.235 . S
C243 O270 1.289 . S
O244 C243 1.235 . S
C245 C247 1.400 . S
C245 N248 1.351 . S
C245 C250 1.501 . S
C246 C247 1.387 . S
C246 N249 1.341 . S
C247 C245 1.400 . S
C247 C246 1.387 . S
N248 Co239 2.022 . S
N248 C245 1.351 . S
N248 N249 1.365 . S
N249 C246 1.341 . S
N249 N248 1.365 . S
N249 H269 0.862 . S
C250 C245 1.501 . S
C250 H251 0.961 . S
C250 H252 0.961 . S
C250 H253 0.960 . S
H251 C250 0.961 . S
H252 C250 0.961 . S
H253 C250 0.960 . S
C254 N255 1.342 . S
C254 C258 1.401 . S
C254 C259 1.499 . S
N255 Co238 1.989 . S
N255 C254 1.342 . S
N255 N256 1.388 . S
N256 Co239 1.993 . S
N256 N255 1.388 . S
N256 C257 1.346 . S
C257 N256 1.346 . S
C257 C258 1.396 . S
C257 C267 1.510 . S
C258 C254 1.401 . S
C258 C257 1.396 . S
C259 C254 1.499 . S
C259 H260 0.959 . S
C259 H261 0.960 . S
C259 H262 0.961 . S
H260 C259 0.959 . S
H261 C259 0.960 . S
H262 C259 0.961 . S
O263 Co238 1.967 . S
O263 C271 1.258 . S
O264 Co239 1.941 . S
O264 C271 1.266 . S
H265 C267 0.959 . S
H266 C267 0.961 . S
C267 C257 1.510 . S
C267 H265 0.959 . S
C267 H266 0.961 . S
C267 H268 0.960 . S
H268 C267 0.960 . S
H269 N249 0.862 . S
O270 Co238 1.920 . S
O270 C243 1.289 . S
C271 O263 1.258 . S
C271 O264 1.266 . S
Co272 O275 1.970 . S
Co272 N289 1.989 . S
Co272 O297 1.967 . S
Co272 O304 1.920 . S
Co273 O276 1.966 . S
Co273 N282 2.022 . S
Co273 N290 1.993 . S
Co273 O298 1.941 . S
C274 O275 1.258 . S
C274 O276 1.263 . S
O275 Co272 1.970 . S
O275 C274 1.258 . S
O276 Co273 1.966 . S
O276 C274 1.263 . S
C277 O278 1.235 . S
C277 O304 1.289 . S
O278 C277 1.235 . S
C279 C281 1.400 . S
C279 N282 1.351 . S
C279 C284 1.501 . S
C280 C281 1.387 . S
C280 N283 1.341 . S
C281 C279 1.400 . S
C281 C280 1.387 . S
N282 Co273 2.022 . S
N282 C279 1.351 . S
N282 N283 1.365 . S
N283 C280 1.341 . S
N283 N282 1.365 . S
N283 H303 0.862 . S
C284 C279 1.501 . S
C284 H285 0.961 . S
C284 H286 0.961 . S
C284 H287 0.960 . S
H285 C284 0.961 . S
H286 C284 0.961 . S
H287 C284 0.960 . S
C288 N289 1.342 . S
C288 C292 1.401 . S
C288 C293 1.499 . S
N289 Co272 1.989 . S
N289 C288 1.342 . S
N289 N290 1.388 . S
N290 Co273 1.993 . S
N290 N289 1.388 . S
N290 C291 1.346 . S
C291 N290 1.346 . S
C291 C292 1.396 . S
C291 C301 1.510 . S
C292 C288 1.401 . S
C292 C291 1.396 . S
C293 C288 1.499 . S
C293 H294 0.959 . S
C293 H295 0.960 . S
C293 H296 0.961 . S
H294 C293 0.959 . S
H295 C293 0.960 . S
H296 C293 0.961 . S
O297 Co272 1.967 . S
O297 C305 1.258 . S
O298 Co273 1.941 . S
O298 C305 1.266 . S
H299 C301 0.959 . S
H300 C301 0.961 . S
C301 C291 1.510 . S
C301 H299 0.959 . S
C301 H300 0.961 . S
C301 H302 0.960 . S
H302 C301 0.960 . S
H303 N283 0.862 . S
O304 Co272 1.920 . S
O304 C277 1.289 . S
C305 O297 1.258 . S
C305 O298 1.266 . S
Co306 O309 1.970 . S
Co306 N323 1.989 . S
Co306 O331 1.967 . S
Co306 O338 1.920 . S
Co307 O310 1.966 . S
Co307 N316 2.022 . S
Co307 N324 1.993 . S
Co307 O332 1.941 . S
C308 O309 1.258 . S
C308 O310 1.263 . S
O309 Co306 1.970 . S
O309 C308 1.258 . S
O310 Co307 1.966 . S
O310 C308 1.263 . S
C311 O312 1.235 . S
C311 O338 1.289 . S
O312 C311 1.235 . S
C313 C315 1.400 . S
C313 N316 1.351 1_556 S
C313 C318 1.501 . S
C314 C315 1.387 . S
C314 N317 1.341 . S
C315 C313 1.400 . S
C315 C314 1.387 . S
N316 Co307 2.022 . S
N316 C313 1.351 1_554 S
N316 N317 1.365 1_554 S
N317 C314 1.341 . S
N317 N316 1.365 1_556 S
N317 H337 0.862 . S
C318 C313 1.501 . S
C318 H319 0.961 1_556 S
C318 H320 0.961 . S
C318 H321 0.960 . S
H319 C318 0.961 1_554 S
H320 C318 0.961 . S
H321 C318 0.960 . S
C322 N323 1.342 . S
C322 C326 1.401 . S
C322 C327 1.499 . S
N323 Co306 1.989 . S
N323 C322 1.342 . S
N323 N324 1.388 . S
N324 Co307 1.993 . S
N324 N323 1.388 . S
N324 C325 1.346 . S
C325 N324 1.346 . S
C325 C326 1.396 . S
C325 C335 1.510 . S
C326 C322 1.401 . S
C326 C325 1.396 . S
C327 C322 1.499 . S
C327 H328 0.959 . S
C327 H329 0.960 . S
C327 H330 0.961 . S
H328 C327 0.959 . S
H329 C327 0.960 . S
H330 C327 0.961 . S
O331 Co306 1.967 . S
O331 C339 1.258 . S
O332 Co307 1.941 . S
O332 C339 1.266 . S
H333 C335 0.959 1_556 S
H334 C335 0.961 1_556 S
C335 C325 1.510 . S
C335 H333 0.959 1_554 S
C335 H334 0.961 1_554 S
C335 H336 0.960 1_554 S
H336 C335 0.960 1_556 S
H337 N317 0.862 . S
O338 Co306 1.920 . S
O338 C311 1.289 . S
C339 O331 1.258 . S
C339 O332 1.266 . S
Co340 O343 1.970 . S
Co340 N357 1.989 . S
Co340 O365 1.967 . S
Co340 O372 1.920 . S
Co341 O344 1.966 . S
Co341 N350 2.022 . S
Co341 N358 1.993 . S
Co341 O366 1.941 . S
C342 O343 1.258 . S
C342 O344 1.263 . S
O343 Co340 1.970 . S
O343 C342 1.258 . S
O344 Co341 1.966 . S
O344 C342 1.263 . S
C345 O346 1.235 . S
C345 O372 1.289 . S
O346 C345 1.235 . S
C347 C349 1.400 . S
C347 N350 1.351 . S
C347 C352 1.501 . S
C348 C349 1.387 . S
C348 N351 1.341 . S
C349 C347 1.400 . S
C349 C348 1.387 . S
N350 Co341 2.022 . S
N350 C347 1.351 . S
N350 N351 1.365 . S
N351 C348 1.341 . S
N351 N350 1.365 . S
N351 H371 0.862 . S
C352 C347 1.501 . S
C352 H353 0.961 . S
C352 H354 0.961 . S
C352 H355 0.960 . S
H353 C352 0.961 . S
H354 C352 0.961 . S
H355 C352 0.960 . S
C356 N357 1.342 . S
C356 C360 1.401 . S
C356 C361 1.499 . S
N357 Co340 1.989 . S
N357 C356 1.342 . S
N357 N358 1.388 . S
N358 Co341 1.993 . S
N358 N357 1.388 . S
N358 C359 1.346 . S
C359 N358 1.346 . S
C359 C360 1.396 . S
C359 C369 1.510 . S
C360 C356 1.401 . S
C360 C359 1.396 . S
C361 C356 1.499 . S
C361 H362 0.959 . S
C361 H363 0.960 . S
C361 H364 0.961 . S
H362 C361 0.959 . S
H363 C361 0.960 . S
H364 C361 0.961 . S
O365 Co340 1.967 . S
O365 C373 1.258 . S
O366 Co341 1.941 . S
O366 C373 1.266 . S
H367 C369 0.959 . S
H368 C369 0.961 . S
C369 C359 1.510 . S
C369 H367 0.959 . S
C369 H368 0.961 . S
C369 H370 0.960 . S
H370 C369 0.960 . S
H371 N351 0.862 . S
O372 Co340 1.920 . S
O372 C345 1.289 . S
C373 O365 1.258 . S
C373 O366 1.266 . S
Co374 O377 1.970 . S
Co374 N391 1.989 . S
Co374 O399 1.967 . S
Co374 O406 1.920 . S
Co375 O378 1.966 . S
Co375 N384 2.022 . S
Co375 N392 1.993 . S
Co375 O400 1.941 . S
C376 O377 1.258 . S
C376 O378 1.263 . S
O377 Co374 1.970 . S
O377 C376 1.258 . S
O378 Co375 1.966 . S
O378 C376 1.263 . S
C379 O380 1.235 . S
C379 O406 1.289 . S
O380 C379 1.235 . S
C381 C383 1.400 . S
C381 N384 1.351 . S
C381 C386 1.501 . S
C382 C383 1.387 . S
C382 N385 1.341 . S
C383 C381 1.400 . S
C383 C382 1.387 . S
N384 Co375 2.022 . S
N384 C381 1.351 . S
N384 N385 1.365 . S
N385 C382 1.341 . S
N385 N384 1.365 . S
N385 H405 0.862 . S
C386 C381 1.501 . S
C386 H387 0.961 . S
C386 H388 0.961 . S
C386 H389 0.960 . S
H387 C386 0.961 . S
H388 C386 0.961 . S
H389 C386 0.960 . S
C390 N391 1.342 . S
C390 C394 1.401 . S
C390 C395 1.499 . S
N391 Co374 1.989 . S
N391 C390 1.342 . S
N391 N392 1.388 . S
N392 Co375 1.993 . S
N392 N391 1.388 . S
N392 C393 1.346 . S
C393 N392 1.346 . S
C393 C394 1.396 . S
C393 C403 1.510 . S
C394 C390 1.401 . S
C394 C393 1.396 . S
C395 C390 1.499 . S
C395 H396 0.959 . S
C395 H397 0.960 . S
C395 H398 0.961 . S
H396 C395 0.959 . S
H397 C395 0.960 . S
H398 C395 0.961 . S
O399 Co374 1.967 . S
O399 C407 1.258 . S
O400 Co375 1.941 . S
O400 C407 1.266 . S
H401 C403 0.959 . S
H402 C403 0.961 . S
C403 C393 1.510 . S
C403 H401 0.959 . S
C403 H402 0.961 . S
C403 H404 0.960 . S
H404 C403 0.960 . S
H405 N385 0.862 . S
O406 Co374 1.920 . S
O406 C379 1.289 . S
C407 O399 1.258 . S
C407 O400 1.266 . S
Co408 O411 1.970 . S
Co408 N425 1.989 . S
Co408 O433 1.967 . S
Co408 O440 1.920 . S
Co409 O412 1.966 . S
Co409 N418 2.022 . S
Co409 N426 1.993 . S
Co409 O434 1.941 . S
C410 O411 1.258 . S
C410 O412 1.263 . S
O411 Co408 1.970 . S
O411 C410 1.258 . S
O412 Co409 1.966 . S
O412 C410 1.263 . S
C413 O414 1.235 . S
C413 O440 1.289 . S
O414 C413 1.235 . S
C415 C417 1.400 . S
C415 N418 1.351 . S
C415 C420 1.501 . S
C416 C417 1.387 . S
C416 N419 1.341 . S
C417 C415 1.400 . S
C417 C416 1.387 . S
N418 Co409 2.022 . S
N418 C415 1.351 . S
N418 N419 1.365 . S
N419 C416 1.341 . S
N419 N418 1.365 . S
N419 H439 0.862 . S
C420 C415 1.501 . S
C420 H421 0.961 . S
C420 H422 0.961 . S
C420 H423 0.960 . S
H421 C420 0.961 . S
H422 C420 0.961 . S
H423 C420 0.960 . S
C424 N425 1.342 . S
C424 C428 1.401 . S
C424 C429 1.499 . S
N425 Co408 1.989 . S
N425 C424 1.342 . S
N425 N426 1.388 . S
N426 Co409 1.993 . S
N426 N425 1.388 . S
N426 C427 1.346 . S
C427 N426 1.346 . S
C427 C428 1.396 . S
C427 C437 1.510 . S
C428 C424 1.401 . S
C428 C427 1.396 . S
C429 C424 1.499 . S
C429 H430 0.959 . S
C429 H431 0.960 . S
C429 H432 0.961 . S
H430 C429 0.959 . S
H431 C429 0.960 . S
H432 C429 0.961 . S
O433 Co408 1.967 . S
O433 C441 1.258 . S
O434 Co409 1.941 . S
O434 C441 1.266 . S
H435 C437 0.959 . S
H436 C437 0.961 . S
C437 C427 1.510 . S
C437 H435 0.959 . S
C437 H436 0.961 . S
C437 H438 0.960 . S
H438 C437 0.960 . S
H439 N419 0.862 . S
O440 Co408 1.920 . S
O440 C413 1.289 . S
C441 O433 1.258 . S
C441 O434 1.266 . S
Co442 O445 1.970 . S
Co442 N459 1.989 . S
Co442 O467 1.967 . S
Co442 O474 1.920 . S
Co443 O446 1.966 . S
Co443 N452 2.022 . S
Co443 N460 1.993 . S
Co443 O468 1.941 . S
C444 O445 1.258 . S
C444 O446 1.263 . S
O445 Co442 1.970 . S
O445 C444 1.258 . S
O446 Co443 1.966 . S
O446 C444 1.263 . S
C447 O448 1.235 . S
C447 O474 1.289 . S
O448 C447 1.235 . S
C449 C451 1.400 . S
C449 N452 1.351 . S
C449 C454 1.501 . S
C450 C451 1.387 . S
C450 N453 1.341 . S
C451 C449 1.400 . S
C451 C450 1.387 . S
N452 Co443 2.022 . S
N452 C449 1.351 . S
N452 N453 1.365 . S
N453 C450 1.341 . S
N453 N452 1.365 . S
N453 H473 0.862 . S
C454 C449 1.501 . S
C454 H455 0.961 . S
C454 H456 0.961 . S
C454 H457 0.960 . S
H455 C454 0.961 . S
H456 C454 0.961 . S
H457 C454 0.960 . S
C458 N459 1.342 . S
C458 C462 1.401 . S
C458 C463 1.499 . S
N459 Co442 1.989 . S
N459 C458 1.342 . S
N459 N460 1.388 . S
N460 Co443 1.993 . S
N460 N459 1.388 . S
N460 C461 1.346 . S
C461 N460 1.346 . S
C461 C462 1.396 . S
C461 C471 1.510 . S
C462 C458 1.401 . S
C462 C461 1.396 . S
C463 C458 1.499 . S
C463 H464 0.959 . S
C463 H465 0.960 . S
C463 H466 0.961 . S
H464 C463 0.959 . S
H465 C463 0.960 . S
H466 C463 0.961 . S
O467 Co442 1.967 . S
O467 C475 1.258 . S
O468 Co443 1.941 . S
O468 C475 1.266 . S
H469 C471 0.959 . S
H470 C471 0.961 . S
C471 C461 1.510 . S
C471 H469 0.959 . S
C471 H470 0.961 . S
C471 H472 0.960 . S
H472 C471 0.960 . S
H473 N453 0.862 . S
O474 Co442 1.920 . S
O474 C447 1.289 . S
C475 O467 1.258 . S
C475 O468 1.266 . S
Co476 O479 1.970 . S
Co476 N493 1.989 . S
Co476 O501 1.967 . S
Co476 O508 1.920 . S
Co477 O480 1.966 . S
Co477 N486 2.022 . S
Co477 N494 1.993 . S
Co477 O502 1.941 . S
C478 O479 1.258 . S
C478 O480 1.263 . S
O479 Co476 1.970 . S
O479 C478 1.258 . S
O480 Co477 1.966 . S
O480 C478 1.263 . S
C481 O482 1.235 . S
C481 O508 1.289 . S
O482 C481 1.235 . S
C483 C485 1.400 . S
C483 N486 1.351 1_554 S
C483 C488 1.501 . S
C484 C485 1.387 . S
C484 N487 1.341 . S
C485 C483 1.400 . S
C485 C484 1.387 . S
N486 Co477 2.022 . S
N486 C483 1.351 1_556 S
N486 N487 1.365 1_556 S
N487 C484 1.341 . S
N487 N486 1.365 1_554 S
N487 H507 0.862 . S
C488 C483 1.501 . S
C488 H489 0.961 1_554 S
C488 H490 0.961 . S
C488 H491 0.960 . S
H489 C488 0.961 1_556 S
H490 C488 0.961 . S
H491 C488 0.960 . S
C492 N493 1.342 . S
C492 C496 1.401 . S
C492 C497 1.499 . S
N493 Co476 1.989 . S
N493 C492 1.342 . S
N493 N494 1.388 . S
N494 Co477 1.993 . S
N494 N493 1.388 . S
N494 C495 1.346 . S
C495 N494 1.346 . S
C495 C496 1.396 . S
C495 C505 1.510 . S
C496 C492 1.401 . S
C496 C495 1.396 . S
C497 C492 1.499 . S
C497 H498 0.959 . S
C497 H499 0.960 . S
C497 H500 0.961 . S
H498 C497 0.959 . S
H499 C497 0.960 . S
H500 C497 0.961 . S
O501 Co476 1.967 . S
O501 C509 1.258 . S
O502 Co477 1.941 . S
O502 C509 1.266 . S
H503 C505 0.959 1_554 S
H504 C505 0.961 1_554 S
C505 C495 1.510 . S
C505 H503 0.959 1_556 S
C505 H504 0.961 1_556 S
C505 H506 0.960 1_556 S
H506 C505 0.960 1_554 S
H507 N487 0.862 . S
O508 Co476 1.920 . S
O508 C481 1.289 . S
C509 O501 1.258 . S
C509 O502 1.266 . S
Co510 O513 1.970 . S
Co510 N527 1.989 . S
Co510 O535 1.967 . S
Co510 O542 1.920 . S
Co511 O514 1.966 . S
Co511 N520 2.022 . S
Co511 N528 1.993 . S
Co511 O536 1.941 . S
C512 O513 1.258 . S
C512 O514 1.263 . S
O513 Co510 1.970 . S
O513 C512 1.258 . S
O514 Co511 1.966 . S
O514 C512 1.263 . S
C515 O516 1.235 . S
C515 O542 1.289 . S
O516 C515 1.235 . S
C517 C519 1.400 . S
C517 N520 1.351 . S
C517 C522 1.501 . S
C518 C519 1.387 . S
C518 N521 1.341 . S
C519 C517 1.400 . S
C519 C518 1.387 . S
N520 Co511 2.022 . S
N520 C517 1.351 . S
N520 N521 1.365 . S
N521 C518 1.341 . S
N521 N520 1.365 . S
N521 H541 0.862 . S
C522 C517 1.501 . S
C522 H523 0.961 . S
C522 H524 0.961 . S
C522 H525 0.960 . S
H523 C522 0.961 . S
H524 C522 0.961 . S
H525 C522 0.960 . S
C526 N527 1.342 . S
C526 C530 1.401 . S
C526 C531 1.499 . S
N527 Co510 1.989 . S
N527 C526 1.342 . S
N527 N528 1.388 . S
N528 Co511 1.993 . S
N528 N527 1.388 . S
N528 C529 1.346 . S
C529 N528 1.346 . S
C529 C530 1.396 . S
C529 C539 1.510 . S
C530 C526 1.401 . S
C530 C529 1.396 . S
C531 C526 1.499 . S
C531 H532 0.959 . S
C531 H533 0.960 . S
C531 H534 0.961 . S
H532 C531 0.959 . S
H533 C531 0.960 . S
H534 C531 0.961 . S
O535 Co510 1.967 . S
O535 C543 1.258 . S
O536 Co511 1.941 . S
O536 C543 1.266 . S
H537 C539 0.959 . S
H538 C539 0.961 . S
C539 C529 1.510 . S
C539 H537 0.959 . S
C539 H538 0.961 . S
C539 H540 0.960 . S
H540 C539 0.960 . S
H541 N521 0.862 . S
O542 Co510 1.920 . S
O542 C515 1.289 . S
C543 O535 1.258 . S
C543 O536 1.266 . S
C544 C545 1.369 . S
C544 C546 1.419 . S
C544 H548 0.930 . S
C545 C544 1.369 . S
C545 C554 1.429 . S
C546 C544 1.419 . S
C546 C547 1.363 . S
C546 H549 0.929 . S
C547 C546 1.363 . S
C547 C553 1.428 . S
H548 C544 0.930 . S
H549 C546 0.929 . S
S550 N551 1.613 . S
S550 N552 1.610 . S
N551 S550 1.613 . S
N551 C554 1.350 . S
N552 S550 1.610 . S
N552 C553 1.351 . S
C553 C547 1.428 . S
C553 N552 1.351 . S
C553 C554 1.434 . S
C554 C545 1.429 . S
C554 N551 1.350 . S
C554 C553 1.434 . S
C555 C556 1.369 . S
C555 C557 1.419 . S
C555 H559 0.930 . S
C556 C555 1.369 . S
C556 C565 1.429 . S
C557 C555 1.419 . S
C557 C558 1.363 . S
C557 H560 0.929 . S
C558 C557 1.363 . S
C558 C564 1.428 . S
H559 C555 0.930 . S
H560 C557 0.929 . S
S561 N562 1.613 . S
S561 N563 1.610 . S
N562 S561 1.613 . S
N562 C565 1.350 . S
N563 S561 1.610 . S
N563 C564 1.351 . S
C564 C558 1.428 . S
C564 N563 1.351 . S
C564 C565 1.434 . S
C565 C556 1.429 . S
C565 N562 1.350 . S
C565 C564 1.434 . S
C566 C567 1.369 . S
C566 C568 1.419 1_554 S
C566 H570 0.930 . S
C567 C566 1.369 . S
C567 C576 1.429 . S
C568 C566 1.419 1_556 S
C568 C569 1.363 . S
C568 H571 0.929 . S
C569 C568 1.363 . S
C569 C575 1.428 . S
H570 C566 0.930 . S
H571 C568 0.929 . S
S572 N573 1.625 . S
S572 N574 1.599 1_554 S
N573 S572 1.625 . S
N573 C576 1.350 . S
N574 S572 1.599 1_556 S
N574 C575 1.351 . S
C575 C569 1.428 . S
C575 N574 1.351 . S
C575 C576 1.434 1_556 S
C576 C567 1.429 . S
C576 N573 1.350 . S
C576 C575 1.434 1_554 S
C577 C578 1.369 . S
C577 C579 1.419 . S
C577 H581 0.930 . S
C578 C577 1.369 . S
C578 C587 1.429 . S
C579 C577 1.419 . S
C579 C580 1.363 . S
C579 H582 0.929 . S
C580 C579 1.363 . S
C580 C586 1.428 . S
H581 C577 0.930 . S
H582 C579 0.929 . S
S583 N584 1.613 . S
S583 N585 1.610 . S
N584 S583 1.613 . S
N584 C587 1.350 . S
N585 S583 1.610 . S
N585 C586 1.351 . S
C586 C580 1.428 . S
C586 N585 1.351 . S
C586 C587 1.434 . S
C587 C578 1.429 . S
C587 N584 1.350 . S
C587 C586 1.434 . S
C588 C589 1.369 . S
C588 C590 1.419 . S
C588 H592 0.930 . S
C589 C588 1.369 . S
C589 C598 1.429 . S
C590 C588 1.419 . S
C590 C591 1.363 . S
C590 H593 0.929 . S
C591 C590 1.363 . S
C591 C597 1.428 . S
H592 C588 0.930 . S
H593 C590 0.929 . S
S594 N595 1.613 . S
S594 N596 1.610 . S
N595 S594 1.613 . S
N595 C598 1.350 . S
N596 S594 1.610 . S
N596 C597 1.351 . S
C597 C591 1.428 . S
C597 N596 1.351 . S
C597 C598 1.434 . S
C598 C589 1.429 . S
C598 N595 1.350 . S
C598 C597 1.434 . S
C599 C600 1.369 . S
C599 C601 1.419 1_556 S
C599 H603 0.930 . S
C600 C599 1.369 . S
C600 C609 1.429 . S
C601 C599 1.419 1_554 S
C601 C602 1.363 . S
C601 H604 0.929 . S
C602 C601 1.363 . S
C602 C608 1.428 . S
H603 C599 0.930 . S
H604 C601 0.929 . S
S605 N606 1.613 1_554 S
S605 N607 1.610 . S
N606 S605 1.613 1_556 S
N606 C609 1.350 . S
N607 S605 1.610 . S
N607 C608 1.351 . S
C608 C602 1.428 . S
C608 N607 1.351 . S
C608 C609 1.434 1_554 S
C609 C600 1.429 . S
C609 N606 1.350 . S
C609 C608 1.434 1_556 S
C610 C611 1.369 . S
C610 C612 1.419 . S
C610 H614 0.930 . S
C611 C610 1.369 . S
C611 C620 1.429 . S
C612 C610 1.419 . S
C612 C613 1.363 . S
C612 H615 0.929 . S
C613 C612 1.363 . S
C613 C619 1.428 . S
H614 C610 0.930 . S
H615 C612 0.929 . S
S616 N617 1.613 . S
S616 N618 1.610 . S
N617 S616 1.613 . S
N617 C620 1.350 . S
N618 S616 1.610 . S
N618 C619 1.351 . S
C619 C613 1.428 . S
C619 N618 1.351 . S
C619 C620 1.434 . S
C620 C611 1.429 . S
C620 N617 1.350 . S
C620 C619 1.434 . S
C621 C622 1.369 . S
C621 C623 1.419 . S
C621 H625 0.930 . S
C622 C621 1.369 . S
C622 C631 1.429 . S
C623 C621 1.419 . S
C623 C624 1.363 . S
C623 H626 0.929 . S
C624 C623 1.363 . S
C624 C630 1.428 . S
H625 C621 0.930 . S
H626 C623 0.929 . S
S627 N628 1.613 . S
S627 N629 1.610 . S
N628 S627 1.613 . S
N628 C631 1.350 . S
N629 S627 1.610 . S
N629 C630 1.351 . S
C630 C624 1.428 . S
C630 N629 1.351 . S
C630 C631 1.434 . S
C631 C622 1.429 . S
C631 N628 1.350 . S
C631 C630 1.434 . S
C632 C633 1.369 . S
C632 C634 1.419 . S
C632 H636 0.930 . S
C633 C632 1.369 . S
C633 C642 1.429 . S
C634 C632 1.419 . S
C634 C635 1.363 . S
C634 H637 0.929 . S
C635 C634 1.363 . S
C635 C641 1.428 . S
H636 C632 0.930 . S
H637 C634 0.929 . S
S638 N639 1.613 . S
S638 N640 1.610 . S
N639 S638 1.613 . S
N639 C642 1.350 . S
N640 S638 1.610 . S
N640 C641 1.351 . S
C641 C635 1.428 . S
C641 N640 1.351 . S
C641 C642 1.434 . S
C642 C633 1.429 . S
C642 N639 1.350 . S
C642 C641 1.434 . S
C643 C644 1.369 . S
C643 C645 1.419 . S
C643 H647 0.930 . S
C644 C643 1.369 . S
C644 C653 1.429 . S
C645 C643 1.419 . S
C645 C646 1.363 . S
C645 H648 0.929 . S
C646 C645 1.363 . S
C646 C652 1.428 . S
H647 C643 0.930 . S
H648 C645 0.929 . S
S649 N650 1.613 . S
S649 N651 1.610 . S
N650 S649 1.613 . S
N650 C653 1.350 . S
N651 S649 1.610 . S
N651 C652 1.351 . S
C652 C646 1.428 . S
C652 N651 1.351 . S
C652 C653 1.434 . S
C653 C644 1.429 . S
C653 N650 1.350 . S
C653 C652 1.434 . S
C654 C655 1.369 . S
C654 C656 1.419 . S
C654 H658 0.930 . S
C655 C654 1.369 . S
C655 C664 1.429 . S
C656 C654 1.419 . S
C656 C657 1.363 . S
C656 H659 0.929 . S
C657 C656 1.363 . S
C657 C663 1.428 . S
H658 C654 0.930 . S
H659 C656 0.929 . S
S660 N661 1.613 . S
S660 N662 1.610 . S
N661 S660 1.613 . S
N661 C664 1.350 . S
N662 S660 1.610 . S
N662 C663 1.351 . S
C663 C657 1.428 . S
C663 N662 1.351 . S
C663 C664 1.434 . S
C664 C655 1.429 . S
C664 N661 1.350 . S
C664 C663 1.434 . S
C665 C666 1.369 . S
C665 C667 1.419 . S
C665 H669 0.930 . S
C666 C665 1.369 . S
C666 C675 1.429 . S
C667 C665 1.419 . S
C667 C668 1.363 . S
C667 H670 0.929 . S
C668 C667 1.363 . S
C668 C674 1.428 . S
H669 C665 0.930 . S
H670 C667 0.929 . S
S671 N672 1.613 . S
S671 N673 1.610 . S
N672 S671 1.613 . S
N672 C675 1.350 . S
N673 S671 1.610 . S
N673 C674 1.351 . S
C674 C668 1.428 . S
C674 N673 1.351 . S
C674 C675 1.434 . S
C675 C666 1.429 . S
C675 N672 1.350 . S
C675 C674 1.434 . S
C676 C677 1.369 . S
C676 C678 1.419 . S
C676 H680 0.930 . S
C677 C676 1.369 . S
C677 C686 1.429 . S
C678 C676 1.419 . S
C678 C679 1.363 . S
C678 H681 0.929 . S
C679 C678 1.363 . S
C679 C685 1.428 . S
H680 C676 0.930 . S
H681 C678 0.929 . S
S682 N683 1.613 . S
S682 N684 1.610 . S
N683 S682 1.613 . S
N683 C686 1.350 . S
N684 S682 1.610 . S
N684 C685 1.351 . S
C685 C679 1.428 . S
C685 N684 1.351 . S
C685 C686 1.434 . S
C686 C677 1.429 . S
C686 N683 1.350 . S
C686 C685 1.434 . S
C687 C688 1.369 . S
C687 C689 1.419 . S
C687 H691 0.930 . S
C688 C687 1.369 . S
C688 C697 1.429 . S
C689 C687 1.419 . S
C689 C690 1.363 . S
C689 H692 0.929 . S
C690 C689 1.363 . S
C690 C696 1.428 . S
H691 C687 0.930 . S
H692 C689 0.929 . S
S693 N694 1.613 . S
S693 N695 1.610 . S
N694 S693 1.613 . S
N694 C697 1.350 . S
N695 S693 1.610 . S
N695 C696 1.351 . S
C696 C690 1.428 . S
C696 N695 1.351 . S
C696 C697 1.434 . S
C697 C688 1.429 . S
C697 N694 1.350 . S
C697 C696 1.434 . S
C698 C699 1.369 . S
C698 C700 1.419 . S
C698 H702 0.930 . S
C699 C698 1.369 . S
C699 C708 1.429 . S
C700 C698 1.419 . S
C700 C701 1.363 . S
C700 H703 0.929 . S
C701 C700 1.363 . S
C701 C707 1.428 . S
H702 C698 0.930 . S
H703 C700 0.929 . S
S704 N705 1.613 . S
S704 N706 1.610 . S
N705 S704 1.613 . S
N705 C708 1.350 . S
N706 S704 1.610 . S
N706 C707 1.351 . S
C707 C701 1.428 . S
C707 N706 1.351 . S
C707 C708 1.434 . S
C708 C699 1.429 . S
C708 N705 1.350 . S
C708 C707 1.434 . S
C709 C710 1.369 . S
C709 C711 1.419 . S
C709 H713 0.930 . S
C710 C709 1.369 . S
C710 C719 1.429 . S
C711 C709 1.419 . S
C711 C712 1.363 . S
C711 H714 0.929 . S
C712 C711 1.363 . S
C712 C718 1.428 . S
H713 C709 0.930 . S
H714 C711 0.929 . S
S715 N716 1.613 . S
S715 N717 1.610 . S
N716 S715 1.613 . S
N716 C719 1.350 . S
N717 S715 1.610 . S
N717 C718 1.351 . S
C718 C712 1.428 . S
C718 N717 1.351 . S
C718 C719 1.434 . S
C719 C710 1.429 . S
C719 N716 1.350 . S
C719 C718 1.434 . S
C720 C721 1.369 . S
C720 C722 1.419 . S
C720 H724 0.930 . S
C721 C720 1.369 . S
C721 C730 1.429 . S
C722 C720 1.419 . S
C722 C723 1.363 . S
C722 H725 0.929 . S
C723 C722 1.363 . S
C723 C729 1.428 . S
H724 C720 0.930 . S
H725 C722 0.929 . S
S726 N727 1.613 . S
S726 N728 1.610 . S
N727 S726 1.613 . S
N727 C730 1.350 . S
N728 S726 1.610 . S
N728 C729 1.351 . S
C729 C723 1.428 . S
C729 N728 1.351 . S
C729 C730 1.434 . S
C730 C721 1.429 . S
C730 N727 1.350 . S
C730 C729 1.434 . S
C731 C732 1.369 . S
C731 C733 1.419 . S
C731 H735 0.930 . S
C732 C731 1.369 . S
C732 C741 1.429 . S
C733 C731 1.419 . S
C733 C734 1.363 . S
C733 H736 0.929 . S
C734 C733 1.363 . S
C734 C740 1.428 . S
H735 C731 0.930 . S
H736 C733 0.929 . S
S737 N738 1.613 . S
S737 N739 1.610 . S
N738 S737 1.613 . S
N738 C741 1.350 . S
N739 S737 1.610 . S
N739 C740 1.351 . S
C740 C734 1.428 . S
C740 N739 1.351 . S
C740 C741 1.434 . S
C741 C732 1.429 . S
C741 N738 1.350 . S
C741 C740 1.434 . S
C742 C743 1.369 . S
C742 C744 1.419 . S
C742 H746 0.930 . S
C743 C742 1.369 . S
C743 C752 1.429 . S
C744 C742 1.419 . S
C744 C745 1.363 . S
C744 H747 0.929 . S
C745 C744 1.363 . S
C745 C751 1.428 . S
H746 C742 0.930 . S
H747 C744 0.929 . S
S748 N749 1.613 . S
S748 N750 1.610 . S
N749 S748 1.613 . S
N749 C752 1.350 . S
N750 S748 1.610 . S
N750 C751 1.351 . S
C751 C745 1.428 . S
C751 N750 1.351 . S
C751 C752 1.434 . S
C752 C743 1.429 . S
C752 N749 1.350 . S
C752 C751 1.434 . S
C753 C754 1.369 . S
C753 C755 1.419 . S
C753 H757 0.930 . S
C754 C753 1.369 . S
C754 C763 1.429 . S
C755 C753 1.419 . S
C755 C756 1.363 . S
C755 H758 0.929 . S
C756 C755 1.363 . S
C756 C762 1.428 . S
H757 C753 0.930 . S
H758 C755 0.929 . S
S759 N760 1.613 . S
S759 N761 1.610 . S
N760 S759 1.613 . S
N760 C763 1.350 . S
N761 S759 1.610 . S
N761 C762 1.351 . S
C762 C756 1.428 . S
C762 N761 1.351 . S
C762 C763 1.434 . S
C763 C754 1.429 . S
C763 N760 1.350 . S
C763 C762 1.434 . S
C764 C765 1.369 . S
C764 C766 1.419 . S
C764 H768 0.930 . S
C765 C764 1.369 . S
C765 C774 1.429 . S
C766 C764 1.419 . S
C766 C767 1.363 . S
C766 H769 0.929 . S
C767 C766 1.363 . S
C767 C773 1.428 . S
H768 C764 0.930 . S
H769 C766 0.929 . S
S770 N771 1.613 . S
S770 N772 1.610 . S
N771 S770 1.613 . S
N771 C774 1.350 . S
N772 S770 1.610 . S
N772 C773 1.351 . S
C773 C767 1.428 . S
C773 N772 1.351 . S
C773 C774 1.434 . S
C774 C765 1.429 . S
C774 N771 1.350 . S
C774 C773 1.434 . S
C775 C776 1.369 . S
C775 C777 1.419 . S
C775 H779 0.930 . S
C776 C775 1.369 . S
C776 C785 1.429 . S
C777 C775 1.419 . S
C777 C778 1.363 . S
C777 H780 0.929 . S
C778 C777 1.363 . S
C778 C784 1.428 . S
H779 C775 0.930 . S
H780 C777 0.929 . S
S781 N782 1.613 . S
S781 N783 1.610 . S
N782 S781 1.613 . S
N782 C785 1.350 . S
N783 S781 1.610 . S
N783 C784 1.351 . S
C784 C778 1.428 . S
C784 N783 1.351 . S
C784 C785 1.434 . S
C785 C776 1.429 . S
C785 N782 1.350 . S
C785 C784 1.434 . S
C786 C787 1.369 . S
C786 C788 1.419 . S
C786 H790 0.930 . S
C787 C786 1.369 . S
C787 C796 1.429 . S
C788 C786 1.419 . S
C788 C789 1.363 . S
C788 H791 0.929 . S
C789 C788 1.363 . S
C789 C795 1.428 . S
H790 C786 0.930 . S
H791 C788 0.929 . S
S792 N793 1.613 . S
S792 N794 1.610 . S
N793 S792 1.613 . S
N793 C796 1.350 . S
N794 S792 1.610 . S
N794 C795 1.351 . S
C795 C789 1.428 . S
C795 N794 1.351 . S
C795 C796 1.434 . S
C796 C787 1.429 . S
C796 N793 1.350 . S
C796 C795 1.434 . S
C797 C798 1.369 . S
C797 C799 1.419 . S
C797 H801 0.930 . S
C798 C797 1.369 . S
C798 C807 1.429 . S
C799 C797 1.419 . S
C799 C800 1.363 . S
C799 H802 0.929 . S
C800 C799 1.363 . S
C800 C806 1.428 . S
H801 C797 0.930 . S
H802 C799 0.929 . S
S803 N804 1.613 . S
S803 N805 1.610 . S
N804 S803 1.613 . S
N804 C807 1.350 . S
N805 S803 1.610 . S
N805 C806 1.351 . S
C806 C800 1.428 . S
C806 N805 1.351 . S
C806 C807 1.434 . S
C807 C798 1.429 . S
C807 N804 1.350 . S
C807 C806 1.434 . S
C808 C809 1.369 . S
C808 C810 1.419 1_545 S
C808 H812 0.930 . S
C809 C808 1.369 . S
C809 C818 1.429 1_455 S
C810 C808 1.419 1_565 S
C810 C811 1.363 1_455 S
C810 H813 0.929 . S
C811 C810 1.363 1_655 S
C811 C817 1.428 . S
H812 C808 0.930 . S
H813 C810 0.929 . S
S814 N815 1.613 . S
S814 N816 1.610 1_545 S
N815 S814 1.613 . S
N815 C818 1.350 . S
N816 S814 1.610 1_565 S
N816 C817 1.351 . S
C817 C811 1.428 . S
C817 N816 1.351 . S
C817 C818 1.434 1_565 S
C818 C809 1.429 1_655 S
C818 N815 1.350 . S
C818 C817 1.434 1_545 S
C819 C820 1.369 . S
C819 C821 1.419 1_455 S
C819 H823 0.930 . S
C820 C819 1.369 . S
C820 C829 1.429 . S
C821 C819 1.419 1_655 S
C821 C822 1.363 . S
C821 H824 0.929 . S
C822 C821 1.363 . S
C822 C828 1.428 . S
H823 C819 0.930 . S
H824 C821 0.929 . S
S825 N826 1.613 1_655 S
S825 N827 1.610 . S
N826 S825 1.613 1_455 S
N826 C829 1.350 . S
N827 S825 1.610 . S
N827 C828 1.351 . S
C828 C822 1.428 . S
C828 N827 1.351 . S
C828 C829 1.434 1_655 S
C829 C820 1.429 . S
C829 N826 1.350 . S
C829 C828 1.434 1_455 S
C830 C831 1.369 . S
C830 C832 1.419 . S
C830 H834 0.930 . S
C831 C830 1.369 . S
C831 C840 1.429 . S
C832 C830 1.419 . S
C832 C833 1.363 . S
C832 H835 0.929 . S
C833 C832 1.363 . S
C833 C839 1.428 . S
H834 C830 0.930 . S
H835 C832 0.929 . S
S836 N837 1.613 . S
S836 N838 1.610 . S
N837 S836 1.613 . S
N837 C840 1.350 . S
N838 S836 1.610 . S
N838 C839 1.351 . S
C839 C833 1.428 . S
C839 N838 1.351 . S
C839 C840 1.434 . S
C840 C831 1.429 . S
C840 N837 1.350 . S
C840 C839 1.434 . S
C841 C842 1.369 . S
C841 C843 1.424 . S
C841 H845 0.930 . S
C842 C841 1.369 . S
C842 C851 1.429 1_545 S
C843 C841 1.424 . S
C843 C844 1.358 1_545 S
C843 H846 0.930 . S
C844 C843 1.358 1_565 S
C844 C850 1.428 . S
H845 C841 0.930 . S
H846 C843 0.930 . S
S847 N848 1.633 . S
S847 N849 1.632 . S
N848 S847 1.633 . S
N848 C851 1.322 1_556 S
N849 S847 1.632 . S
N849 C850 1.320 1_556 S
C850 C844 1.428 . S
C850 N849 1.320 1_554 S
C850 C851 1.434 . S
C851 C842 1.429 1_565 S
C851 N848 1.322 1_554 S
C851 C850 1.434 . S
C852 C853 1.369 . S
C852 C854 1.419 . S
C852 H856 0.930 . S
C853 C852 1.369 . S
C853 C862 1.429 1_455 S
C854 C852 1.419 . S
C854 C855 1.363 1_455 S
C854 H857 0.929 . S
C855 C854 1.363 1_655 S
C855 C861 1.428 . S
H856 C852 0.930 . S
H857 C854 0.929 . S
S858 N859 1.613 . S
S858 N860 1.610 . S
N859 S858 1.613 . S
N859 C862 1.350 . S
N860 S858 1.610 . S
N860 C861 1.351 . S
C861 C855 1.428 . S
C861 N860 1.351 . S
C861 C862 1.434 . S
C862 C853 1.429 1_655 S
C862 N859 1.350 . S
C862 C861 1.434 . S
C863 C864 1.369 . S
C863 C865 1.419 . S
C863 H867 0.930 . S
C864 C863 1.369 . S
C864 C873 1.429 . S
C865 C863 1.419 . S
C865 C866 1.363 . S
C865 H868 0.929 . S
C866 C865 1.363 . S
C866 C872 1.428 . S
H867 C863 0.930 . S
H868 C865 0.929 . S
S869 N870 1.613 . S
S869 N871 1.610 . S
N870 S869 1.613 . S
N870 C873 1.350 . S
N871 S869 1.610 . S
N871 C872 1.351 . S
C872 C866 1.428 . S
C872 N871 1.351 . S
C872 C873 1.434 . S
C873 C864 1.429 . S
C873 N870 1.350 . S
C873 C872 1.434 . S
C874 C875 1.369 . S
C874 C876 1.419 1_565 S
C874 H878 0.930 . S
C875 C874 1.369 . S
C875 C884 1.429 . S
C876 C874 1.419 1_545 S
C876 C877 1.363 . S
C876 H879 0.929 . S
C877 C876 1.363 . S
C877 C883 1.428 . S
H878 C874 0.930 . S
H879 C876 0.929 . S
S880 N881 1.613 1_545 S
S880 N882 1.610 . S
N881 S880 1.613 1_565 S
N881 C884 1.350 . S
N882 S880 1.610 . S
N882 C883 1.351 . S
C883 C877 1.428 . S
C883 N882 1.351 . S
C883 C884 1.434 1_545 S
C884 C875 1.429 . S
C884 N881 1.350 . S
C884 C883 1.434 1_565 S
C885 C886 1.366 1_565 S
C885 C887 1.421 1_455 S
C885 H889 0.931 . S
C886 C885 1.366 1_545 S
C886 C895 1.429 . S
C887 C885 1.421 1_655 S
C887 C888 1.363 . S
C887 H890 0.929 . S
C888 C887 1.363 . S
C888 C894 1.428 1_565 S
H889 C885 0.931 . S
H890 C887 0.929 . S
S891 N892 1.613 1_655 S
S891 N893 1.610 . S
N892 S891 1.613 1_455 S
N892 C895 1.350 . S
N893 S891 1.610 . S
N893 C894 1.351 . S
C894 C888 1.428 1_545 S
C894 N893 1.351 . S
C894 C895 1.434 1_655 S
C895 C886 1.429 . S
C895 N892 1.350 . S
C895 C894 1.434 1_455 S
C896 C897 1.369 . S
C896 C898 1.419 . S
C896 H900 0.930 . S
C897 C896 1.369 . S
C897 C906 1.429 . S
C898 C896 1.419 . S
C898 C899 1.363 . S
C898 H901 0.929 . S
C899 C898 1.363 . S
C899 C905 1.428 . S
H900 C896 0.930 . S
H901 C898 0.929 . S
S902 N903 1.613 . S
S902 N904 1.610 . S
N903 S902 1.613 . S
N903 C906 1.350 . S
N904 S902 1.610 . S
N904 C905 1.351 . S
C905 C899 1.428 . S
C905 N904 1.351 . S
C905 C906 1.434 . S
C906 C897 1.429 . S
C906 N903 1.350 . S
C906 C905 1.434 . S
C907 C908 1.369 . S
C907 C909 1.419 . S
C907 H911 0.930 . S
C908 C907 1.369 . S
C908 C917 1.429 . S
C909 C907 1.419 . S
C909 C910 1.363 . S
C909 H912 0.929 . S
C910 C909 1.363 . S
C910 C916 1.428 . S
H911 C907 0.930 . S
H912 C909 0.929 . S
S913 N914 1.613 . S
S913 N915 1.610 . S
N914 S913 1.613 . S
N914 C917 1.350 . S
N915 S913 1.610 . S
N915 C916 1.351 . S
C916 C910 1.428 . S
C916 N915 1.351 . S
C916 C917 1.434 . S
C917 C908 1.429 . S
C917 N914 1.350 . S
C917 C916 1.434 . S
C918 C919 1.369 . S
C918 C920 1.419 . S
C918 H922 0.930 . S
C919 C918 1.369 . S
C919 C928 1.429 . S
C920 C918 1.419 . S
C920 C921 1.363 . S
C920 H923 0.929 . S
C921 C920 1.363 . S
C921 C927 1.428 . S
H922 C918 0.930 . S
H923 C920 0.929 . S
S924 N925 1.613 . S
S924 N926 1.610 . S
N925 S924 1.613 . S
N925 C928 1.350 . S
N926 S924 1.610 . S
N926 C927 1.351 . S
C927 C921 1.428 . S
C927 N926 1.351 . S
C927 C928 1.434 . S
C928 C919 1.429 . S
C928 N925 1.350 . S
C928 C927 1.434 . S
C929 C930 1.369 . S
C929 C931 1.419 . S
C929 H933 0.930 . S
C930 C929 1.369 . S
C930 C939 1.429 . S
C931 C929 1.419 . S
C931 C932 1.363 . S
C931 H934 0.929 . S
C932 C931 1.363 . S
C932 C938 1.428 . S
H933 C929 0.930 . S
H934 C931 0.929 . S
S935 N936 1.613 . S
S935 N937 1.610 . S
N936 S935 1.613 . S
N936 C939 1.350 . S
N937 S935 1.610 . S
N937 C938 1.351 . S
C938 C932 1.428 . S
C938 N937 1.351 . S
C938 C939 1.434 . S
C939 C930 1.429 . S
C939 N936 1.350 . S
C939 C938 1.434 . S
C940 C941 1.369 . S
C940 C942 1.419 . S
C940 H944 0.930 . S
C941 C940 1.369 . S
C941 C950 1.429 . S
C942 C940 1.419 . S
C942 C943 1.363 . S
C942 H945 0.929 . S
C943 C942 1.363 . S
C943 C949 1.428 . S
H944 C940 0.930 . S
H945 C942 0.929 . S
S946 N947 1.613 . S
S946 N948 1.610 . S
N947 S946 1.613 . S
N947 C950 1.350 . S
N948 S946 1.610 . S
N948 C949 1.351 . S
C949 C943 1.428 . S
C949 N948 1.351 . S
C949 C950 1.434 . S
C950 C941 1.429 . S
C950 N947 1.350 . S
C950 C949 1.434 . S
C951 C952 1.369 . S
C951 C953 1.419 . S
C951 H955 0.930 . S
C952 C951 1.369 . S
C952 C961 1.429 . S
C953 C951 1.419 . S
C953 C954 1.363 . S
C953 H956 0.929 . S
C954 C953 1.363 . S
C954 C960 1.428 . S
H955 C951 0.930 . S
H956 C953 0.929 . S
S957 N958 1.613 . S
S957 N959 1.610 . S
N958 S957 1.613 . S
N958 C961 1.350 . S
N959 S957 1.610 . S
N959 C960 1.351 . S
C960 C954 1.428 . S
C960 N959 1.351 . S
C960 C961 1.434 . S
C961 C952 1.429 . S
C961 N958 1.350 . S
C961 C960 1.434 . S
C962 C963 1.369 . S
C962 C964 1.419 . S
C962 H966 0.930 . S
C963 C962 1.369 . S
C963 C972 1.429 . S
C964 C962 1.419 . S
C964 C965 1.363 . S
C964 H967 0.929 . S
C965 C964 1.363 . S
C965 C971 1.428 . S
H966 C962 0.930 . S
H967 C964 0.929 . S
S968 N969 1.613 . S
S968 N970 1.610 . S
N969 S968 1.613 . S
N969 C972 1.350 . S
N970 S968 1.610 . S
N970 C971 1.351 . S
C971 C965 1.428 . S
C971 N970 1.351 . S
C971 C972 1.434 . S
C972 C963 1.429 . S
C972 N969 1.350 . S
C972 C971 1.434 . S
C973 C974 1.369 . S
C973 C975 1.419 . S
C973 H977 0.930 . S
C974 C973 1.369 . S
C974 C983 1.429 . S
C975 C973 1.419 . S
C975 C976 1.363 . S
C975 H978 0.929 . S
C976 C975 1.363 . S
C976 C982 1.428 . S
H977 C973 0.930 . S
H978 C975 0.929 . S
S979 N980 1.613 . S
S979 N981 1.610 . S
N980 S979 1.613 . S
N980 C983 1.350 . S
N981 S979 1.610 . S
N981 C982 1.351 . S
C982 C976 1.428 . S
C982 N981 1.351 . S
C982 C983 1.434 . S
C983 C974 1.429 . S
C983 N980 1.350 . S
C983 C982 1.434 . S
C545 C5 1.005 . S
C547 C447 1.001 . S
C556 C481 1.008 . S
C558 C39 1.004 . S
C567 C515 1.000 . S
C569 C73 1.003 . S
C578 C413 1.000 . S
C580 C107 1.005 . S
C589 C379 1.003 . S
C591 C141 1.007 . S
C600 C277 1.008 . S
C602 C175 1.002 . S
C611 C209 1.001 . S
C613 C311 1.002 . S
C622 C345 1.008 . S
C624 C243 1.004 . S
C633 C339 1.842 . S
C635 C9 1.955 . S
C644 C43 1.956 . S
C646 C373 1.845 . S
C655 C77 1.953 . S
C657 C407 1.843 . S
C666 C111 1.957 . S
C668 C305 1.845 . S
C677 C145 1.957 . S
C679 C543 1.848 . S
C688 C441 1.851 . S
C690 C179 1.955 . S
C699 C475 1.845 . S
C701 C213 1.953 . S
C710 C509 1.842 . S
C712 C247 1.955 . S
C721 C281 1.953 . S
C723 C67 1.847 . S
C732 C315 1.956 . S
C734 C101 1.849 . S
C743 C349 1.957 . S
C745 C135 1.849 . S
C754 C33 1.845 . S
C756 C383 1.953 . S
C765 C417 1.957 . S
C767 C271 1.848 . S
C776 C169 1.844 . S
C778 C451 1.956 . S
C787 C485 1.956 . S
C789 C203 1.844 . S
C798 C519 1.957 . S
C800 C237 1.849 . S
C809 C20 1.773 . S
C811 C360 1.768 . S
C820 C394 1.763 . S
C822 C54 1.771 . S
C831 C88 1.773 . S
C833 C292 1.765 . S
C842 C326 1.773 . S
C844 C122 1.768 . S
C853 C156 1.767 . S
C855 C496 1.767 . S
C864 C530 1.774 . S
C866 C190 1.767 . S
C875 C428 1.768 . S
C877 C224 1.772 . S
C886 C462 1.764 . S
C888 C258 1.769 . S
C897 C206 1.173 . S
C899 C2 1.166 . S
C908 C36 1.174 . S
C910 C240 1.166 . S
C919 C138 1.166 . S
C921 C70 1.173 . S
C930 C104 1.174 . S
C932 C172 1.167 . S
C941 C274 1.172 . S
C943 C478 1.167 . S
C952 C308 1.165 . S
C954 C512 1.173 . S
C963 C342 1.165 . S
C965 C410 1.173 . S
C974 C444 1.165 . S
C976 C376 1.173 . S
