# Generated by pormake.
# Topology srs-a, (3)-cn, num edge types: 1
# Building blocks:
#     Node 0, Type 0, BuildingBlock: OLANEW_clean_sbu_2, # of connection points: 3
#     Node 1, Type 0, BuildingBlock: OLANEW_clean_sbu_2, # of connection points: 3
#     Node 2, Type 0, BuildingBlock: OLANEW_clean_sbu_2, # of connection points: 3
#     Node 3, Type 0, BuildingBlock: OLANEW_clean_sbu_2, # of connection points: 3
#     Node 4, Type 0, BuildingBlock: OLANEW_clean_sbu_2, # of connection points: 3
#     Node 5, Type 0, BuildingBlock: OLANEW_clean_sbu_2, # of connection points: 3
#     Node 6, Type 0, BuildingBlock: OLANEW_clean_sbu_2, # of connection points: 3
#     Node 7, Type 0, BuildingBlock: OLANEW_clean_sbu_2, # of connection points: 3
#     Node 8, Type 0, BuildingBlock: OLANEW_clean_sbu_2, # of connection points: 3
#     Node 9, Type 0, BuildingBlock: OLANEW_clean_sbu_2, # of connection points: 3
#     Node 10, Type 0, BuildingBlock: OLANEW_clean_sbu_2, # of connection points: 3
#     Node 11, Type 0, BuildingBlock: OLANEW_clean_sbu_2, # of connection points: 3
#     Node 12, Type 0, BuildingBlock: OLANEW_clean_sbu_2, # of connection points: 3
#     Node 13, Type 0, BuildingBlock: OLANEW_clean_sbu_2, # of connection points: 3
#     Node 14, Type 0, BuildingBlock: OLANEW_clean_sbu_2, # of connection points: 3
#     Node 15, Type 0, BuildingBlock: OLANEW_clean_sbu_2, # of connection points: 3
#     Node 16, Type 0, BuildingBlock: OLANEW_clean_sbu_2, # of connection points: 3
#     Node 17, Type 0, BuildingBlock: OLANEW_clean_sbu_2, # of connection points: 3
#     Node 18, Type 0, BuildingBlock: OLANEW_clean_sbu_2, # of connection points: 3
#     Node 19, Type 0, BuildingBlock: OLANEW_clean_sbu_2, # of connection points: 3
#     Node 20, Type 0, BuildingBlock: OLANEW_clean_sbu_2, # of connection points: 3
#     Node 21, Type 0, BuildingBlock: OLANEW_clean_sbu_2, # of connection points: 3
#     Node 22, Type 0, BuildingBlock: OLANEW_clean_sbu_2, # of connection points: 3
#     Node 23, Type 0, BuildingBlock: OLANEW_clean_sbu_2, # of connection points: 3
#     Edge 24, Type (0, 0), None
#     Edge 25, Type (0, 0), None
#     Edge 26, Type (0, 0), None
#     Edge 27, Type (0, 0), None
#     Edge 28, Type (0, 0), None
#     Edge 29, Type (0, 0), None
#     Edge 30, Type (0, 0), None
#     Edge 31, Type (0, 0), None
#     Edge 32, Type (0, 0), None
#     Edge 33, Type (0, 0), None
#     Edge 34, Type (0, 0), None
#     Edge 35, Type (0, 0), None
#     Edge 36, Type (0, 0), None
#     Edge 37, Type (0, 0), None
#     Edge 38, Type (0, 0), None
#     Edge 39, Type (0, 0), None
#     Edge 40, Type (0, 0), None
#     Edge 41, Type (0, 0), None
#     Edge 42, Type (0, 0), None
#     Edge 43, Type (0, 0), None
#     Edge 44, Type (0, 0), None
#     Edge 45, Type (0, 0), None
#     Edge 46, Type (0, 0), None
#     Edge 47, Type (0, 0), None
#     Edge 48, Type (0, 0), None
#     Edge 49, Type (0, 0), None
#     Edge 50, Type (0, 0), None
#     Edge 51, Type (0, 0), None
#     Edge 52, Type (0, 0), None
#     Edge 53, Type (0, 0), None
#     Edge 54, Type (0, 0), None
#     Edge 55, Type (0, 0), None
#     Edge 56, Type (0, 0), None
#     Edge 57, Type (0, 0), None
#     Edge 58, Type (0, 0), None
#     Edge 59, Type (0, 0), None
# Relax obj value: 0.126
# Max RMSD: 0.284
# Mean RMSD: 0.219
data_MOF--net-srs-a--node1-OLANEW_clean_sbu_2--edge1-none
_symmetry_space_group_name_H-M    P1
_symmetry_Int_Tables_number       1
_symmetry_cell_setting            triclinic
loop_
_symmetry_equiv_pos_as_xyz
'x, y, z'
_cell_length_a     39.617488
_cell_length_b     41.146266
_cell_length_c     42.915859
_cell_angle_alpha  84.887618
_cell_angle_beta   85.309061
_cell_angle_gamma 97.871124
loop_
_atom_site_label
_atom_site_type_symbol
_atom_site_fract_x
_atom_site_fract_y
_atom_site_fract_z
_atom_type_partial_charge
O0 O 0.13785 0.28989 0.17381 0.0
Cd1 Cd 0.09922 0.33005 0.1835 0.0
O2 O 0.15763 0.29695 0.21937 0.0
Cd3 Cd 0.19119 0.28714 0.25588 0.0
O4 O 0.22907 0.26151 0.27758 0.0
C5 C 0.22053 0.23884 0.30001 0.0
O6 O 0.18858 0.23261 0.31232 0.0
C7 C 0.15798 0.28285 0.19414 0.0
C8 C 0.03237 0.30735 0.17211 0.0
O9 O 0.05368 0.32332 0.15013 0.0
O10 O 0.04256 0.30196 0.19942 0.0
O11 O 0.97937 0.76659 0.39464 0.0
Cd12 Cd 0.96317 0.70819 0.38902 0.0
O13 O 0.02605 0.76395 0.36426 0.0
Cd14 Cd 0.07704 0.78503 0.34188 0.0
O15 O 0.12568 0.81784 0.33919 0.0
C16 C 0.13485 0.84178 0.31804 0.0
O17 O 0.11557 0.84649 0.29505 0.0
C18 C 0.00798 0.78049 0.38091 0.0
C19 C 0.89822 0.69206 0.36973 0.0
O20 O 0.90264 0.69162 0.399 0.0
O21 O 0.92428 0.70071 0.34954 0.0
O22 O 0.34713 0.82784 0.68667 0.0
Cd23 Cd 0.38245 0.78368 0.69117 0.0
O24 O 0.33031 0.82463 0.73715 0.0
Cd25 Cd 0.34326 0.77474 0.74117 0.0
O26 O 0.30462 0.75281 0.71269 0.0
C27 C 0.27431 0.75752 0.72116 0.0
O28 O 0.26841 0.77064 0.74751 0.0
C29 C 0.33151 0.83904 0.70954 0.0
C30 C 0.44575 0.80268 0.65678 0.0
O31 O 0.42021 0.78882 0.64396 0.0
O32 O 0.44158 0.80738 0.68587 0.0
O33 O 0.37413 0.14085 0.79949 0.0
Cd34 Cd 0.41633 0.18005 0.82059 0.0
O35 O 0.34694 0.13252 0.84663 0.0
Cd36 Cd 0.30893 0.1104 0.88541 0.0
O37 O 0.28626 0.09425 0.93364 0.0
C38 C 0.29988 0.07382 0.95068 0.0
O39 O 0.32683 0.06213 0.93886 0.0
C40 C 0.34838 0.12711 0.81786 0.0
C41 C 0.48212 0.16358 0.82056 0.0
O42 O 0.4603 0.15508 0.84461 0.0
O43 O 0.47272 0.17912 0.7963 0.0
O44 O 0.23845 0.16369 0.24243 0.0
Cd45 Cd 0.2008 0.14404 0.2902 0.0
O46 O 0.28446 0.14703 0.26046 0.0
Cd47 Cd 0.26182 0.14867 0.30835 0.0
O48 O 0.23286 0.18739 0.32173 0.0
C49 C 0.24395 0.21492 0.30599 0.0
O50 O 0.27334 0.21822 0.28864 0.0
C51 C 0.26925 0.15842 0.23779 0.0
C52 C 0.18479 0.07577 0.29417 0.0
O53 O 0.16631 0.0944 0.27992 0.0
O54 O 0.21054 0.08926 0.30695 0.0
O55 O 0.10803 0.89895 0.41263 0.0
Cd56 Cd 0.06308 0.86511 0.44869 0.0
O57 O 0.0706 0.91721 0.38269 0.0
Cd58 Cd 0.02818 0.88149 0.40558 0.0
O59 O 0.00407 0.8308 0.40375 0.0
C60 C 0.02039 0.81505 0.38489 0.0
O61 O 0.04884 0.83007 0.36908 0.0
C62 C 0.10137 0.91737 0.38919 0.0
C63 C 0.07972 0.85491 0.5102 0.0
O64 O 0.0867 0.83508 0.49001 0.0
O65 O 0.06543 0.87983 0.50131 0.0
O66 O 0.28918 0.87152 0.72487 0.0
Cd67 Cd 0.24631 0.9076 0.71534 0.0
O68 O 0.30623 0.87373 0.67444 0.0
Cd69 Cd 0.2634 0.89715 0.65911 0.0
O70 O 0.21312 0.88403 0.64242 0.0
C71 C 0.20233 0.85327 0.64646 0.0
O72 O 0.22141 0.83347 0.65987 0.0
C73 C 0.30928 0.864 0.7029 0.0
C74 C 0.26307 0.97044 0.73377 0.0
O75 O 0.27253 0.96404 0.70598 0.0
O76 O 0.24617 0.94714 0.753 0.0
O77 O 0.30042 0.04332 0.00012 0.0
Cd78 Cd 0.27939 0.0304 0.05559 0.0
O79 O 0.26179 0.07642 0.99636 0.0
Cd80 Cd 0.23504 0.11409 0.974 0.0
O81 O 0.21124 0.15714 0.95871 0.0
C82 C 0.2142 0.1687 0.93001 0.0
O83 O 0.20248 0.19629 0.92199 0.0
C84 C 0.2865 0.06397 0.98362 0.0
C85 C 0.30263 0.08127 0.09071 0.0
O86 O 0.31948 0.05714 0.0875 0.0
O87 O 0.2748 0.08141 0.0775 0.0
O88 O 0.12176 0.94693 0.34006 0.0
Cd89 Cd 0.16313 0.97165 0.29614 0.0
O90 O 0.15997 0.93017 0.36985 0.0
Cd91 Cd 0.19577 0.93503 0.32776 0.0
O92 O 0.16818 0.89469 0.30597 0.0
C93 C 0.16282 0.86739 0.32321 0.0
O94 O 0.17776 0.8648 0.34936 0.0
C95 C 0.12917 0.93391 0.36616 0.0
C96 C 0.17703 0.03981 0.29527 0.0
O97 O 0.1952 0.02113 0.30987 0.0
O98 O 0.15228 0.02639 0.28116 0.0
O99 O 0.15222 0.85839 0.62057 0.0
Cd100 Cd 0.09642 0.83452 0.60608 0.0
O101 O 0.15713 0.80944 0.64314 0.0
Cd102 Cd 0.18392 0.77622 0.67178 0.0
O103 O 0.21999 0.76593 0.70601 0.0
C104 C 0.24792 0.75512 0.69908 0.0
O105 O 0.25522 0.74754 0.67046 0.0
C106 C 0.16921 0.83978 0.63622 0.0
C107 C 0.08667 0.84852 0.54305 0.0
O108 O 0.07861 0.86775 0.56346 0.0
O109 O 0.09982 0.82297 0.55222 0.0
O110 O 0.32696 0.09044 0.78205 0.0
Cd111 Cd 0.27588 0.06886 0.75771 0.0
O112 O 0.28948 0.10791 0.81427 0.0
Cd113 Cd 0.27218 0.14022 0.84784 0.0
O114 O 0.24632 0.16791 0.881 0.0
C115 C 0.23152 0.15188 0.90616 0.0
O116 O 0.23158 0.11993 0.91056 0.0
C117 C 0.32053 0.10652 0.80522 0.0
C118 C 0.26952 0.00413 0.74273 0.0
O119 O 0.28486 0.02778 0.72296 0.0
O120 O 0.25826 0.01084 0.76991 0.0
O121 O 0.31133 0.14956 0.19814 0.0
Cd122 Cd 0.3381 0.15903 0.14415 0.0
O123 O 0.27705 0.18542 0.18587 0.0
Cd124 Cd 0.23696 0.21569 0.19763 0.0
O125 O 0.20136 0.25072 0.20813 0.0
C126 C 0.18144 0.25882 0.18798 0.0
O127 O 0.1821 0.24573 0.16116 0.0
C128 C 0.28669 0.16482 0.20596 0.0
C129 C 0.31491 0.10811 0.1091 0.0
O130 O 0.34186 0.10721 0.12355 0.0
O131 O 0.29893 0.133 0.11106 0.0
O132 O 0.71685 0.34395 0.79907 0.0
Cd133 Cd 0.73189 0.31355 0.84618 0.0
O134 O 0.67069 0.35695 0.8242 0.0
Cd135 Cd 0.6682 0.31305 0.85685 0.0
O136 O 0.64722 0.26248 0.85065 0.0
C137 C 0.63629 0.25875 0.82395 0.0
O138 O 0.63881 0.28447 0.80302 0.0
C139 C 0.69206 0.36057 0.79999 0.0
C140 C 0.75142 0.35879 0.8881 0.0
O141 O 0.72024 0.34519 0.889 0.0
O142 O 0.77356 0.35053 0.86798 0.0
O143 O 0.88312 0.3836 0.18534 0.0
Cd144 Cd 0.85902 0.43424 0.1922 0.0
O145 O 0.8823 0.39992 0.13566 0.0
Cd146 Cd 0.88416 0.39809 0.08491 0.0
O147 O 0.87015 0.41199 0.03787 0.0
C148 C 0.83893 0.4071 0.03259 0.0
O149 O 0.81586 0.39282 0.05515 0.0
C150 C 0.88954 0.37898 0.15675 0.0
C151 C 0.84657 0.44625 0.25435 0.0
O152 O 0.82307 0.43067 0.24026 0.0
O153 O 0.87607 0.4557 0.23931 0.0
O154 O 0.66366 0.65783 0.42273 0.0
Cd155 Cd 0.62669 0.66375 0.4696 0.0
O156 O 0.67317 0.61225 0.44893 0.0
Cd157 Cd 0.69679 0.5671 0.45354 0.0
O158 O 0.72904 0.53221 0.43654 0.0
C159 C 0.71638 0.50673 0.42448 0.0
O160 O 0.68301 0.49975 0.42459 0.0
C161 C 0.67837 0.63225 0.42402 0.0
C162 C 0.66518 0.6828 0.51796 0.0
O163 O 0.66004 0.6526 0.51225 0.0
O164 O 0.65205 0.70411 0.50102 0.0
O165 O 0.81378 0.53059 0.34084 0.0
Cd166 Cd 0.82513 0.47358 0.34603 0.0
O167 O 0.76369 0.51787 0.32285 0.0
Cd168 Cd 0.75928 0.4668 0.34321 0.0
O169 O 0.72611 0.47119 0.38528 0.0
C170 C 0.73892 0.49039 0.40421 0.0
O171 O 0.77183 0.5015 0.40022 0.0
C172 C 0.78773 0.53946 0.32896 0.0
C173 C 0.83945 0.45439 0.28651 0.0
O174 O 0.86326 0.46885 0.30103 0.0
O175 O 0.80901 0.44834 0.30027 0.0
O176 O 0.6583 0.39384 0.77175 0.0
Cd177 Cd 0.64257 0.42553 0.72562 0.0
O178 O 0.70233 0.37784 0.74568 0.0
Cd179 Cd 0.68112 0.38949 0.70165 0.0
O180 O 0.641 0.37431 0.6717 0.0
C181 C 0.62075 0.34725 0.67801 0.0
O182 O 0.59676 0.33968 0.65942 0.0
C183 C 0.68484 0.37957 0.77148 0.0
C184 C 0.64195 0.49134 0.73566 0.0
O185 O 0.66986 0.48097 0.7267 0.0
O186 O 0.61425 0.47074 0.73986 0.0
O187 O 0.57628 0.78911 0.60168 0.0
Cd188 Cd 0.54166 0.83373 0.60349 0.0
O189 O 0.58005 0.7886 0.65253 0.0
Cd190 Cd 0.59958 0.76992 0.69607 0.0
O191 O 0.6356 0.74405 0.72107 0.0
C192 C 0.6271 0.71688 0.73823 0.0
O193 O 0.59471 0.70396 0.74339 0.0
C194 C 0.58719 0.7771 0.62658 0.0
C195 C 0.47892 0.81321 0.63847 0.0
O196 O 0.48257 0.81005 0.60901 0.0
O197 O 0.50481 0.82605 0.65149 0.0
O198 O 0.61751 0.20148 0.83698 0.0
Cd199 Cd 0.58608 0.14986 0.82399 0.0
O200 O 0.60673 0.22324 0.79097 0.0
Cd201 Cd 0.60678 0.26314 0.75317 0.0
O202 O 0.60254 0.29815 0.71234 0.0
C203 C 0.62385 0.3244 0.70574 0.0
O204 O 0.64876 0.33061 0.72364 0.0
C205 C 0.61974 0.22647 0.81688 0.0
C206 C 0.51759 0.1573 0.82135 0.0
O207 O 0.52813 0.14539 0.84678 0.0
O208 O 0.53912 0.16504 0.79702 0.0
O209 O 0.89707 0.32308 0.16701 0.0
Cd210 Cd 0.92874 0.27785 0.15617 0.0
O211 O 0.92657 0.35113 0.12549 0.0
Cd212 Cd 0.94707 0.39632 0.0955 0.0
O213 O 0.96875 0.43926 0.06292 0.0
C214 C 0.95983 0.44057 0.03515 0.0
O215 O 0.9393 0.41581 0.02667 0.0
C216 C 0.9043 0.34965 0.14882 0.0
C217 C 0.99687 0.29627 0.16635 0.0
O218 O 0.98653 0.30216 0.13919 0.0
O219 O 0.97531 0.28116 0.18857 0.0
O220 O 0.80512 0.59515 0.33693 0.0
Cd221 Cd 0.80233 0.65359 0.34058 0.0
O222 O 0.75365 0.58202 0.32176 0.0
Cd223 Cd 0.73733 0.6281 0.33426 0.0
O224 O 0.70624 0.64553 0.37205 0.0
C225 C 0.70049 0.62551 0.39686 0.0
O226 O 0.71383 0.598 0.39757 0.0
C227 C 0.78253 0.57414 0.32766 0.0
C228 C 0.86451 0.68081 0.35962 0.0
O229 O 0.83906 0.66966 0.37986 0.0
O230 O 0.86036 0.68015 0.33038 0.0
O231 O 0.6491 0.6252 0.69761 0.0
Cd232 Cd 0.6417 0.59243 0.74872 0.0
O233 O 0.70164 0.64752 0.70356 0.0
Cd234 Cd 0.68784 0.63826 0.75408 0.0
O235 O 0.64618 0.66774 0.75903 0.0
C236 C 0.65393 0.69739 0.74676 0.0
O237 O 0.68593 0.70839 0.73637 0.0
C238 C 0.67727 0.64247 0.68627 0.0
C239 C 0.64176 0.52608 0.74066 0.0
O240 O 0.66988 0.54553 0.74084 0.0
O241 O 0.61352 0.53775 0.74461 0.0
O242 O 0.79715 0.412 0.99675 0.0
Cd243 Cd 0.7795 0.43358 0.94687 0.0
O244 O 0.84968 0.43492 0.98072 0.0
Cd245 Cd 0.90389 0.45105 0.98587 0.0
O246 O 0.95519 0.47713 0.99022 0.0
C247 C 0.9726 0.46927 0.01258 0.0
O248 O 0.00165 0.48763 0.0159 0.0
C249 C 0.82835 0.41819 0.00192 0.0
C250 C 0.7613 0.38405 0.90893 0.0
O251 O 0.79228 0.39843 0.90737 0.0
O252 O 0.73893 0.39291 0.92845 0.0
O253 O 0.70716 0.67876 0.64385 0.0
Cd254 Cd 0.72401 0.71081 0.59231 0.0
O255 O 0.65247 0.6602 0.64094 0.0
Cd256 Cd 0.64364 0.69697 0.60432 0.0
O257 O 0.61618 0.73937 0.59929 0.0
C258 C 0.6076 0.74991 0.62531 0.0
O259 O 0.61623 0.73534 0.65132 0.0
C260 C 0.67951 0.66039 0.65492 0.0
C261 C 0.68561 0.69268 0.54337 0.0
O262 O 0.70523 0.67364 0.55523 0.0
O263 O 0.68404 0.7204 0.5544 0.0
loop_
_geom_bond_atom_site_label_1
_geom_bond_atom_site_label_2
_geom_bond_distance
_geom_bond_site_symmetry_2
_ccdc_geom_bond_type
O0 Cd1 2.300 . S
O0 C7 1.275 . S
Cd1 O0 2.300 . S
Cd1 O9 2.381 . S
Cd1 O10 2.378 . S
O2 Cd3 2.385 . S
O2 C7 1.255 . S
Cd3 O2 2.385 . S
Cd3 O4 2.317 . S
O4 Cd3 2.317 . S
O4 C5 1.232 . S
C5 O4 1.232 . S
C5 O6 1.218 . S
O6 C5 1.218 . S
C7 O0 1.275 . S
C7 O2 1.255 . S
C8 O9 1.258 . S
C8 O10 1.256 . S
O9 Cd1 2.381 . S
O9 C8 1.258 . S
O10 Cd1 2.378 . S
O10 C8 1.256 . S
O11 Cd12 2.300 1_455 S
O11 C18 1.275 . S
Cd12 O11 2.300 1_655 S
Cd12 O20 2.381 . S
Cd12 O21 2.378 . S
O13 Cd14 2.385 . S
O13 C18 1.255 . S
Cd14 O13 2.385 . S
Cd14 O15 2.317 . S
O15 Cd14 2.317 . S
O15 C16 1.232 . S
C16 O15 1.232 . S
C16 O17 1.218 . S
O17 C16 1.218 . S
C18 O11 1.275 . S
C18 O13 1.255 . S
C19 O20 1.258 . S
C19 O21 1.256 . S
O20 Cd12 2.381 . S
O20 C19 1.258 . S
O21 Cd12 2.378 . S
O21 C19 1.256 . S
O22 Cd23 2.300 . S
O22 C29 1.275 . S
Cd23 O22 2.300 . S
Cd23 O31 2.381 . S
Cd23 O32 2.378 . S
O24 Cd25 2.385 . S
O24 C29 1.255 . S
Cd25 O24 2.385 . S
Cd25 O26 2.317 . S
O26 Cd25 2.317 . S
O26 C27 1.232 . S
C27 O26 1.232 . S
C27 O28 1.218 . S
O28 C27 1.218 . S
C29 O22 1.275 . S
C29 O24 1.255 . S
C30 O31 1.258 . S
C30 O32 1.256 . S
O31 Cd23 2.381 . S
O31 C30 1.258 . S
O32 Cd23 2.378 . S
O32 C30 1.256 . S
O33 Cd34 2.300 . S
O33 C40 1.275 . S
Cd34 O33 2.300 . S
Cd34 O42 2.381 . S
Cd34 O43 2.378 . S
O35 Cd36 2.385 . S
O35 C40 1.255 . S
Cd36 O35 2.385 . S
Cd36 O37 2.317 . S
O37 Cd36 2.317 . S
O37 C38 1.232 . S
C38 O37 1.232 . S
C38 O39 1.218 . S
O39 C38 1.218 . S
C40 O33 1.275 . S
C40 O35 1.255 . S
C41 O42 1.258 . S
C41 O43 1.256 . S
O42 Cd34 2.381 . S
O42 C41 1.258 . S
O43 Cd34 2.378 . S
O43 C41 1.256 . S
O44 Cd45 2.300 . S
O44 C51 1.275 . S
Cd45 O44 2.300 . S
Cd45 O53 2.381 . S
Cd45 O54 2.378 . S
O46 Cd47 2.385 . S
O46 C51 1.255 . S
Cd47 O46 2.385 . S
Cd47 O48 2.317 . S
O48 Cd47 2.317 . S
O48 C49 1.232 . S
C49 O48 1.232 . S
C49 O50 1.218 . S
O50 C49 1.218 . S
C51 O44 1.275 . S
C51 O46 1.255 . S
C52 O53 1.258 . S
C52 O54 1.256 . S
O53 Cd45 2.381 . S
O53 C52 1.258 . S
O54 Cd45 2.378 . S
O54 C52 1.256 . S
O55 Cd56 2.300 . S
O55 C62 1.275 . S
Cd56 O55 2.300 . S
Cd56 O64 2.381 . S
Cd56 O65 2.378 . S
O57 Cd58 2.385 . S
O57 C62 1.255 . S
Cd58 O57 2.385 . S
Cd58 O59 2.317 . S
O59 Cd58 2.317 . S
O59 C60 1.232 . S
C60 O59 1.232 . S
C60 O61 1.218 . S
O61 C60 1.218 . S
C62 O55 1.275 . S
C62 O57 1.255 . S
C63 O64 1.258 . S
C63 O65 1.256 . S
O64 Cd56 2.381 . S
O64 C63 1.258 . S
O65 Cd56 2.378 . S
O65 C63 1.256 . S
O66 Cd67 2.300 . S
O66 C73 1.275 . S
Cd67 O66 2.300 . S
Cd67 O75 2.381 . S
Cd67 O76 2.378 1_565 S
O68 Cd69 2.385 . S
O68 C73 1.255 . S
Cd69 O68 2.385 . S
Cd69 O70 2.317 . S
O70 Cd69 2.317 . S
O70 C71 1.232 . S
C71 O70 1.232 . S
C71 O72 1.218 . S
O72 C71 1.218 . S
C73 O66 1.275 . S
C73 O68 1.255 . S
C74 O75 1.258 . S
C74 O76 1.256 1_565 S
O75 Cd67 2.381 . S
O75 C74 1.258 . S
O76 Cd67 2.378 1_545 S
O76 C74 1.256 1_545 S
O77 Cd78 2.300 . S
O77 C84 1.275 1_554 S
Cd78 O77 2.300 . S
Cd78 O86 2.381 . S
Cd78 O87 2.378 . S
O79 Cd80 2.385 . S
O79 C84 1.255 . S
Cd80 O79 2.385 . S
Cd80 O81 2.317 . S
O81 Cd80 2.317 . S
O81 C82 1.232 . S
C82 O81 1.232 . S
C82 O83 1.218 . S
O83 C82 1.218 . S
C84 O77 1.275 1_556 S
C84 O79 1.255 . S
C85 O86 1.258 . S
C85 O87 1.256 . S
O86 Cd78 2.381 . S
O86 C85 1.258 . S
O87 Cd78 2.378 . S
O87 C85 1.256 . S
O88 Cd89 2.300 . S
O88 C95 1.275 . S
Cd89 O88 2.300 . S
Cd89 O97 2.381 . S
Cd89 O98 2.378 . S
O90 Cd91 2.385 . S
O90 C95 1.255 . S
Cd91 O90 2.385 . S
Cd91 O92 2.317 . S
O92 Cd91 2.317 . S
O92 C93 1.232 . S
C93 O92 1.232 . S
C93 O94 1.218 . S
O94 C93 1.218 . S
C95 O88 1.275 . S
C95 O90 1.255 . S
C96 O97 1.258 1_545 S
C96 O98 1.256 1_545 S
O97 Cd89 2.381 . S
O97 C96 1.258 1_565 S
O98 Cd89 2.378 . S
O98 C96 1.256 1_565 S
O99 Cd100 2.300 . S
O99 C106 1.275 . S
Cd100 O99 2.300 . S
Cd100 O108 2.381 . S
Cd100 O109 2.378 . S
O101 Cd102 2.385 . S
O101 C106 1.255 . S
Cd102 O101 2.385 . S
Cd102 O103 2.317 . S
O103 Cd102 2.317 . S
O103 C104 1.232 . S
C104 O103 1.232 . S
C104 O105 1.218 . S
O105 C104 1.218 . S
C106 O99 1.275 . S
C106 O101 1.255 . S
C107 O108 1.258 . S
C107 O109 1.256 . S
O108 Cd100 2.381 . S
O108 C107 1.258 . S
O109 Cd100 2.378 . S
O109 C107 1.256 . S
O110 Cd111 2.300 . S
O110 C117 1.275 . S
Cd111 O110 2.300 . S
Cd111 O119 2.381 . S
Cd111 O120 2.399 . S
O112 Cd113 2.385 . S
O112 C117 1.255 . S
Cd113 O112 2.385 . S
Cd113 O114 2.317 . S
O114 Cd113 2.317 . S
O114 C115 1.232 . S
C115 O114 1.232 . S
C115 O116 1.218 . S
O116 C115 1.218 . S
C117 O110 1.275 . S
C117 O112 1.255 . S
C118 O119 1.258 . S
C118 O120 1.272 . S
O119 Cd111 2.381 . S
O119 C118 1.258 . S
O120 Cd111 2.399 . S
O120 C118 1.272 . S
O121 Cd122 2.300 . S
O121 C128 1.275 . S
Cd122 O121 2.300 . S
Cd122 O130 2.381 . S
Cd122 O131 2.378 . S
O123 Cd124 2.385 . S
O123 C128 1.255 . S
Cd124 O123 2.385 . S
Cd124 O125 2.317 . S
O125 Cd124 2.317 . S
O125 C126 1.232 . S
C126 O125 1.232 . S
C126 O127 1.218 . S
O127 C126 1.218 . S
C128 O121 1.275 . S
C128 O123 1.255 . S
C129 O130 1.258 . S
C129 O131 1.256 . S
O130 Cd122 2.381 . S
O130 C129 1.258 . S
O131 Cd122 2.378 . S
O131 C129 1.256 . S
O132 Cd133 2.300 . S
O132 C139 1.275 . S
Cd133 O132 2.300 . S
Cd133 O141 2.381 . S
Cd133 O142 2.378 . S
O134 Cd135 2.385 . S
O134 C139 1.255 . S
Cd135 O134 2.385 . S
Cd135 O136 2.317 . S
O136 Cd135 2.317 . S
O136 C137 1.232 . S
C137 O136 1.232 . S
C137 O138 1.218 . S
O138 C137 1.218 . S
C139 O132 1.275 . S
C139 O134 1.255 . S
C140 O141 1.258 . S
C140 O142 1.256 . S
O141 Cd133 2.381 . S
O141 C140 1.258 . S
O142 Cd133 2.378 . S
O142 C140 1.256 . S
O143 Cd144 2.300 . S
O143 C150 1.275 . S
Cd144 O143 2.300 . S
Cd144 O152 2.381 . S
Cd144 O153 2.378 . S
O145 Cd146 2.385 . S
O145 C150 1.255 . S
Cd146 O145 2.385 . S
Cd146 O147 2.317 . S
O147 Cd146 2.317 . S
O147 C148 1.232 . S
C148 O147 1.232 . S
C148 O149 1.218 . S
O149 C148 1.218 . S
C150 O143 1.275 . S
C150 O145 1.255 . S
C151 O152 1.258 . S
C151 O153 1.256 . S
O152 Cd144 2.381 . S
O152 C151 1.258 . S
O153 Cd144 2.378 . S
O153 C151 1.256 . S
O154 Cd155 2.300 . S
O154 C161 1.275 . S
Cd155 O154 2.300 . S
Cd155 O163 2.381 . S
Cd155 O164 2.378 . S
O156 Cd157 2.385 . S
O156 C161 1.255 . S
Cd157 O156 2.385 . S
Cd157 O158 2.317 . S
O158 Cd157 2.317 . S
O158 C159 1.232 . S
C159 O158 1.232 . S
C159 O160 1.218 . S
O160 C159 1.218 . S
C161 O154 1.275 . S
C161 O156 1.255 . S
C162 O163 1.258 . S
C162 O164 1.256 . S
O163 Cd155 2.381 . S
O163 C162 1.258 . S
O164 Cd155 2.378 . S
O164 C162 1.256 . S
O165 Cd166 2.300 . S
O165 C172 1.275 . S
Cd166 O165 2.300 . S
Cd166 O174 2.381 . S
Cd166 O175 2.378 . S
O167 Cd168 2.385 . S
O167 C172 1.255 . S
Cd168 O167 2.385 . S
Cd168 O169 2.317 . S
O169 Cd168 2.317 . S
O169 C170 1.232 . S
C170 O169 1.232 . S
C170 O171 1.218 . S
O171 C170 1.218 . S
C172 O165 1.275 . S
C172 O167 1.255 . S
C173 O174 1.258 . S
C173 O175 1.256 . S
O174 Cd166 2.381 . S
O174 C173 1.258 . S
O175 Cd166 2.378 . S
O175 C173 1.256 . S
O176 Cd177 2.300 . S
O176 C183 1.275 . S
Cd177 O176 2.300 . S
Cd177 O185 2.381 . S
Cd177 O186 2.378 . S
O178 Cd179 2.385 . S
O178 C183 1.255 . S
Cd179 O178 2.385 . S
Cd179 O180 2.317 . S
O180 Cd179 2.317 . S
O180 C181 1.232 . S
C181 O180 1.232 . S
C181 O182 1.218 . S
O182 C181 1.218 . S
C183 O176 1.275 . S
C183 O178 1.255 . S
C184 O185 1.258 . S
C184 O186 1.256 . S
O185 Cd177 2.381 . S
O185 C184 1.258 . S
O186 Cd177 2.378 . S
O186 C184 1.256 . S
O187 Cd188 2.300 . S
O187 C194 1.275 . S
Cd188 O187 2.300 . S
Cd188 O196 2.381 . S
Cd188 O197 2.378 . S
O189 Cd190 2.385 . S
O189 C194 1.255 . S
Cd190 O189 2.385 . S
Cd190 O191 2.317 . S
O191 Cd190 2.317 . S
O191 C192 1.232 . S
C192 O191 1.232 . S
C192 O193 1.218 . S
O193 C192 1.218 . S
C194 O187 1.275 . S
C194 O189 1.255 . S
C195 O196 1.258 . S
C195 O197 1.256 . S
O196 Cd188 2.381 . S
O196 C195 1.258 . S
O197 Cd188 2.378 . S
O197 C195 1.256 . S
O198 Cd199 2.300 . S
O198 C205 1.275 . S
Cd199 O198 2.300 . S
Cd199 O207 2.381 . S
Cd199 O208 2.378 . S
O200 Cd201 2.385 . S
O200 C205 1.255 . S
Cd201 O200 2.385 . S
Cd201 O202 2.317 . S
O202 Cd201 2.317 . S
O202 C203 1.232 . S
C203 O202 1.232 . S
C203 O204 1.218 . S
O204 C203 1.218 . S
C205 O198 1.275 . S
C205 O200 1.255 . S
C206 O207 1.258 . S
C206 O208 1.256 . S
O207 Cd199 2.381 . S
O207 C206 1.258 . S
O208 Cd199 2.378 . S
O208 C206 1.256 . S
O209 Cd210 2.300 . S
O209 C216 1.275 . S
Cd210 O209 2.300 . S
Cd210 O218 2.381 1_655 S
Cd210 O219 2.378 1_655 S
O211 Cd212 2.385 . S
O211 C216 1.255 . S
Cd212 O211 2.385 . S
Cd212 O213 2.317 . S
O213 Cd212 2.317 . S
O213 C214 1.232 . S
C214 O213 1.232 . S
C214 O215 1.218 . S
O215 C214 1.218 . S
C216 O209 1.275 . S
C216 O211 1.255 . S
C217 O218 1.258 . S
C217 O219 1.256 . S
O218 Cd210 2.381 1_455 S
O218 C217 1.258 . S
O219 Cd210 2.378 1_455 S
O219 C217 1.256 . S
O220 Cd221 2.300 . S
O220 C227 1.275 . S
Cd221 O220 2.300 . S
Cd221 O229 2.381 . S
Cd221 O230 2.378 . S
O222 Cd223 2.385 . S
O222 C227 1.255 . S
Cd223 O222 2.385 . S
Cd223 O224 2.317 . S
O224 Cd223 2.317 . S
O224 C225 1.232 . S
C225 O224 1.232 . S
C225 O226 1.218 . S
O226 C225 1.218 . S
C227 O220 1.275 . S
C227 O222 1.255 . S
C228 O229 1.258 . S
C228 O230 1.256 . S
O229 Cd221 2.381 . S
O229 C228 1.258 . S
O230 Cd221 2.378 . S
O230 C228 1.256 . S
O231 Cd232 2.300 . S
O231 C238 1.275 . S
Cd232 O231 2.300 . S
Cd232 O240 2.381 . S
Cd232 O241 2.378 . S
O233 Cd234 2.385 . S
O233 C238 1.255 . S
Cd234 O233 2.385 . S
Cd234 O235 2.317 . S
O235 Cd234 2.317 . S
O235 C236 1.232 . S
C236 O235 1.232 . S
C236 O237 1.218 . S
O237 C236 1.218 . S
C238 O231 1.275 . S
C238 O233 1.255 . S
C239 O240 1.258 . S
C239 O241 1.256 . S
O240 Cd232 2.381 . S
O240 C239 1.258 . S
O241 Cd232 2.378 . S
O241 C239 1.256 . S
O242 Cd243 2.300 1_554 S
O242 C249 1.275 . S
Cd243 O242 2.300 1_556 S
Cd243 O251 2.381 . S
Cd243 O252 2.378 . S
O244 Cd245 2.385 . S
O244 C249 1.255 . S
Cd245 O244 2.385 . S
Cd245 O246 2.317 1_554 S
O246 Cd245 2.317 1_556 S
O246 C247 1.232 1_556 S
C247 O246 1.232 1_554 S
C247 O248 1.218 . S
O248 C247 1.218 . S
C249 O242 1.275 . S
C249 O244 1.255 . S
C250 O251 1.258 . S
C250 O252 1.256 . S
O251 Cd243 2.381 . S
O251 C250 1.258 . S
O252 Cd243 2.378 . S
O252 C250 1.256 . S
O253 Cd254 2.300 . S
O253 C260 1.275 . S
Cd254 O253 2.300 . S
Cd254 O262 2.381 . S
Cd254 O263 2.378 . S
O255 Cd256 2.385 . S
O255 C260 1.255 . S
Cd256 O255 2.385 . S
Cd256 O257 2.317 . S
O257 Cd256 2.317 . S
O257 C258 1.232 . S
C258 O257 1.232 . S
C258 O259 1.218 . S
O259 C258 1.218 . S
C260 O253 1.275 . S
C260 O255 1.255 . S
C261 O262 1.258 . S
C261 O263 1.256 . S
O262 Cd254 2.381 . S
O262 C261 1.258 . S
O263 Cd254 2.378 . S
O263 C261 1.256 . S
C49 C5 1.411 . S
C60 C18 1.931 . S
C29 C73 2.413 . S
C38 C84 0.825 . S
C16 C93 1.575 . S
C104 C27 1.284 . S
C40 C117 1.680 . S
C126 C7 0.799 . S
C51 C128 1.747 . S
C95 C62 2.361 . S
C71 C106 2.061 . S
C82 C115 0.639 . S
C137 C205 1.861 . S
C216 C150 1.534 . S
C225 C161 1.384 . S
C172 C227 2.345 . S
C181 C203 1.297 . S
C236 C192 1.306 . S
C214 C247 1.445 . S
C194 C258 0.967 . S
C238 C260 1.823 . S
C139 C183 2.320 . S
C249 C148 1.188 . S
C170 C159 2.616 . S
C8 C217 1.700 . S
C19 C228 1.930 . S
C195 C30 2.076 . S
C41 C206 1.651 . S
C96 C52 2.130 . S
C63 C107 1.788 . S
C118 C74 1.880 1_545 S
C129 C85 1.951 . S
C140 C250 2.067 . S
C151 C173 1.771 . S
C261 C162 2.000 . S
C239 C184 2.164 . S
