# Generated by pormake.
# Topology mdf, (4)-cn, num edge types: 1
# Building blocks:
#     Node 0, Type 0, BuildingBlock: KUFVIS_clean_sbu_0, # of connection points: 4
#     Node 1, Type 0, BuildingBlock: KUFVIS_clean_sbu_0, # of connection points: 4
#     Node 2, Type 0, BuildingBlock: KUFVIS_clean_sbu_0, # of connection points: 4
#     Node 3, Type 0, BuildingBlock: KUFVIS_clean_sbu_0, # of connection points: 4
#     Node 4, Type 0, BuildingBlock: KUFVIS_clean_sbu_0, # of connection points: 4
#     Node 5, Type 0, BuildingBlock: KUFVIS_clean_sbu_0, # of connection points: 4
#     Node 6, Type 0, BuildingBlock: KUFVIS_clean_sbu_0, # of connection points: 4
#     Node 7, Type 0, BuildingBlock: KUFVIS_clean_sbu_0, # of connection points: 4
#     Edge 8, Type (0, 0), BuildingBlock: ZUJKAS_clean_linker_0, # of connection points: 2
#     Edge 9, Type (0, 0), BuildingBlock: ZUJKAS_clean_linker_0, # of connection points: 2
#     Edge 10, Type (0, 0), BuildingBlock: ZUJKAS_clean_linker_0, # of connection points: 2
#     Edge 11, Type (0, 0), BuildingBlock: ZUJKAS_clean_linker_0, # of connection points: 2
#     Edge 12, Type (0, 0), BuildingBlock: ZUJKAS_clean_linker_0, # of connection points: 2
#     Edge 13, Type (0, 0), BuildingBlock: ZUJKAS_clean_linker_0, # of connection points: 2
#     Edge 14, Type (0, 0), BuildingBlock: ZUJKAS_clean_linker_0, # of connection points: 2
#     Edge 15, Type (0, 0), BuildingBlock: ZUJKAS_clean_linker_0, # of connection points: 2
#     Edge 16, Type (0, 0), BuildingBlock: ZUJKAS_clean_linker_0, # of connection points: 2
#     Edge 17, Type (0, 0), BuildingBlock: ZUJKAS_clean_linker_0, # of connection points: 2
#     Edge 18, Type (0, 0), BuildingBlock: ZUJKAS_clean_linker_0, # of connection points: 2
#     Edge 19, Type (0, 0), BuildingBlock: ZUJKAS_clean_linker_0, # of connection points: 2
#     Edge 20, Type (0, 0), BuildingBlock: ZUJKAS_clean_linker_0, # of connection points: 2
#     Edge 21, Type (0, 0), BuildingBlock: ZUJKAS_clean_linker_0, # of connection points: 2
#     Edge 22, Type (0, 0), BuildingBlock: ZUJKAS_clean_linker_0, # of connection points: 2
#     Edge 23, Type (0, 0), BuildingBlock: ZUJKAS_clean_linker_0, # of connection points: 2
# Relax obj value: 0.028
# Max RMSD: 0.052
# Mean RMSD: 0.052
data_MOF--net-mdf--node1-KUFVIS_clean_sbu_0--edge1-ZUJKAS_clean_linker_0
_symmetry_space_group_name_H-M    P1
_symmetry_Int_Tables_number       1
_symmetry_cell_setting            triclinic
loop_
_symmetry_equiv_pos_as_xyz
'x, y, z'
_cell_length_a     48.488398
_cell_length_b     48.506919
_cell_length_c     15.918936
_cell_angle_alpha  90.038924
_cell_angle_beta   90.076145
_cell_angle_gamma 92.649054
loop_
_atom_site_label
_atom_site_type_symbol
_atom_site_fract_x
_atom_site_fract_y
_atom_site_fract_z
_atom_type_partial_charge
Mn0 Mn 0.25329 0.52809 0.40681 0.0
Mn1 Mn 0.26899 0.5029 0.21523 0.0
C2 C 0.22798 0.49055 0.35144 0.0
C3 C 0.22992 0.5591 0.4913 0.0
C4 C 0.30195 0.49117 0.37216 0.0
O5 O 0.27702 0.55958 0.35557 0.0
O6 O 0.28467 0.54094 0.22834 0.0
C7 C 0.23645 0.5402 0.11115 0.0
N8 N 0.24282 0.5142 0.134 0.0
C9 C 0.21385 0.49413 0.02528 0.0
C10 C 0.20699 0.52068 1.00035 0.0
C11 C 0.21818 0.54381 0.04392 0.0
C12 C 0.23171 0.49181 0.09378 0.0
H13 H 0.24538 0.55802 0.14365 0.0
C14 C 0.28714 0.56055 0.28172 0.0
O15 O 0.25215 0.54778 0.51715 0.0
O16 O 0.22144 0.55258 0.41622 0.0
N17 N 0.25519 0.46617 0.19196 0.0
C18 C 0.26308 0.44201 0.22613 0.0
C19 C 0.2535 0.41688 0.19051 0.0
C20 C 0.23648 0.41686 0.11904 0.0
C21 C 0.22868 0.442 0.08491 0.0
C22 C 0.23854 0.46636 0.12383 0.0
H23 H 0.2768 0.44195 0.27963 0.0
O24 O 0.22824 0.49525 0.43175 0.0
O25 O 0.24218 0.50814 0.30544 0.0
O26 O 0.28746 0.50471 0.42348 0.0
O27 O 0.29684 0.48968 0.29361 0.0
C28 C 0.21168 0.44387 0.01344 0.0
C29 C 0.2039 0.46988 0.98447 0.0
H30 H 0.19317 0.52356 0.94789 0.0
H31 H 0.21298 0.56437 0.0251 0.0
H32 H 0.25958 0.39756 0.21722 0.0
H33 H 0.2295 0.39742 0.09097 0.0
H34 H 0.20416 0.4254 0.98087 0.0
H35 H 0.19036 0.47099 0.93052 0.0
Mn36 Mn 0.47468 0.756 0.59941 0.0
Mn37 Mn 0.5111 0.75005 0.77915 0.0
C38 C 0.51299 0.78518 0.62629 0.0
C39 C 0.43857 0.77514 0.52415 0.0
C40 C 0.51468 0.71013 0.63274 0.0
O41 O 0.44799 0.73347 0.6752 0.0
O42 O 0.4731 0.73458 0.7946 0.0
C43 C 0.48088 0.78758 0.88901 0.0
N44 N 0.50491 0.78015 0.85309 0.0
C45 C 0.53107 0.81507 0.93037 0.0
C46 C 0.50662 0.82306 0.96843 0.0
C47 C 0.48139 0.80937 0.94721 0.0
C48 C 0.52921 0.79351 0.8719 0.0
H49 H 0.46151 0.77687 0.87362 0.0
C50 C 0.4509 0.72854 0.75363 0.0
O51 O 0.44916 0.75227 0.50058 0.0
O52 O 0.44836 0.7863 0.59262 0.0
N53 N 0.54834 0.76474 0.77286 0.0
C54 C 0.56983 0.75539 0.72754 0.0
C55 C 0.59638 0.76764 0.73893 0.0
C56 C 0.60066 0.78894 0.79797 0.0
C57 C 0.57829 0.79795 0.84466 0.0
C58 C 0.55223 0.78527 0.82967 0.0
H59 H 0.56675 0.73872 0.68304 0.0
O60 O 0.50431 0.78139 0.54982 0.0
O61 O 0.49912 0.77187 0.68399 0.0
O62 O 0.49874 0.72248 0.58267 0.0
O63 O 0.51959 0.71833 0.70771 0.0
C64 C 0.58082 0.81896 0.90562 0.0
C65 C 0.5572 0.82764 0.94812 0.0
H66 H 0.50696 0.83972 0.01384 0.0
H67 H 0.46243 0.81544 0.9762 0.0
H68 H 0.61355 0.76052 0.70278 0.0
H69 H 0.6212 0.79824 0.80693 0.0
H70 H 0.60077 0.82897 0.91922 0.0
H71 H 0.55935 0.84421 0.99366 0.0
Mn72 Mn 0.25662 0.9772 0.90752 0.0
Mn73 Mn 0.24916 0.01078 0.7232 0.0
C74 C 0.28624 0.01428 0.87228 0.0
C75 C 0.27559 0.9419 0.98665 0.0
C76 C 0.21195 0.01883 0.87347 0.0
O77 O 0.23256 0.94973 0.83884 0.0
O78 O 0.23064 0.97368 0.71771 0.0
C79 C 0.28238 0.97534 0.61517 0.0
N80 N 0.27721 1.00073 0.64639 0.0
C81 C 0.31236 0.02246 0.5592 0.0
C82 C 0.31804 0.99656 0.52585 0.0
C83 C 0.30309 0.97288 0.55437 0.0
C84 C 0.29177 0.02357 0.62047 0.0
H85 H 0.27072 0.95715 0.63628 0.0
C86 C 0.22493 0.95228 0.76247 0.0
O87 O 0.25332 0.95356 0.01045 0.0
O88 O 0.28631 0.95023 0.91598 0.0
N89 N 0.26625 0.04708 0.71879 0.0
C90 C 0.25899 0.07033 0.75977 0.0
C91 C 0.27255 0.09573 0.74032 0.0
C92 C 0.29295 0.09706 0.67766 0.0
C93 C 0.29971 0.07293 0.63537 0.0
C94 C 0.28581 0.04816 0.65832 0.0
H95 H 0.243 0.06949 0.80697 0.0
O96 O 0.28308 0.00699 0.95022 0.0
O97 O 0.2721 0.99972 0.81751 0.0
O98 O 0.22381 1.00243 0.92338 0.0
O99 O 0.21974 0.02295 0.79778 0.0
C100 C 0.31966 0.07248 0.57124 0.0
C101 C 0.32626 0.04722 0.53395 0.0
H102 H 0.33385 0.99461 0.47848 0.0
H103 H 0.30738 0.95282 0.52904 0.0
H104 H 0.26714 0.11427 0.77305 0.0
H105 H 0.30328 0.1167 0.66255 0.0
H106 H 0.33042 0.0914 0.55111 0.0
H107 H 0.34209 0.04709 0.48601 0.0
Mn108 Mn 0.031 0.7479 0.10169 0.0
Mn109 Mn 0.99791 0.75743 0.28612 0.0
C110 C 0.99294 0.71965 0.13728 0.0
C111 C 0.06549 0.72726 0.02337 0.0
C112 C 0.99022 0.79365 0.13357 0.0
O113 O 0.05935 0.77145 0.16857 0.0
O114 O 0.03516 0.77563 0.28823 0.0
C115 C 0.03381 0.72461 0.3941 0.0
N116 N 0.0082 0.73015 0.36527 0.0
C117 C 0.98676 0.69622 0.45737 0.0
C118 C 0.0129 0.69023 0.48842 0.0
C119 C 0.03652 0.70441 0.45637 0.0
C120 C 0.98536 0.71649 0.39516 0.0
H121 H 0.05199 0.73555 0.36983 0.0
C122 C 0.05675 0.78028 0.24356 0.0
O123 O 0.05465 0.74985 0.99848 0.0
O124 O 0.05688 0.71723 0.09461 0.0
N125 N 0.96143 0.74105 0.2953 0.0
C126 C 0.93793 0.74841 0.25588 0.0
C127 C 0.91241 0.73621 0.28072 0.0
C128 C 0.91132 0.71674 0.34609 0.0
C129 C 0.93577 0.70938 0.38535 0.0
C130 C 0.96053 0.72256 0.35889 0.0
H131 H 0.93863 0.76368 0.2065 0.0
O132 O 1.0005 0.72246 0.05951 0.0
O133 O 0.00789 0.73338 0.19248 0.0
O134 O 0.00676 0.78151 0.08472 0.0
O135 O 0.98564 0.78614 0.20929 0.0
C136 C 0.93659 0.68933 0.44922 0.0
C137 C 0.96209 0.68264 0.48485 0.0
H138 H 0.01508 0.67467 0.53643 0.0
H139 H 0.05677 0.69984 0.4798 0.0
H140 H 0.8936 0.7419 0.24988 0.0
H141 H 0.89159 0.70738 0.36516 0.0
H142 H 0.91776 0.67868 0.47062 0.0
H143 H 0.9625 0.6669 0.53303 0.0
Mn144 Mn 0.74858 0.0276 0.89434 0.0
Mn145 Mn 0.75392 0.99281 0.71152 0.0
C146 C 0.71894 0.98992 0.86491 0.0
C147 C 0.73008 0.06342 0.97242 0.0
C148 C 0.79398 0.98751 0.8571 0.0
O149 O 0.77155 0.05449 0.82059 0.0
O150 O 0.76963 0.03086 0.6984 0.0
C151 C 0.71621 0.02413 0.60518 0.0
N152 N 0.72367 0.99976 0.6388 0.0
C153 C 0.68838 0.97444 0.56056 0.0
C154 C 0.68038 0.99924 0.52474 0.0
C155 C 0.69424 0.02422 0.54761 0.0
C156 C 0.71014 0.97569 0.61845 0.0
H157 H 0.727 0.04332 0.62199 0.0
C158 C 0.77619 0.05242 0.74175 0.0
O159 O 0.7528 0.05228 0.99494 0.0
O160 O 0.7187 0.05434 0.90339 0.0
N161 N 0.73904 0.95561 0.71537 0.0
C162 C 0.74835 0.93372 0.75892 0.0
C163 C 0.73593 0.90733 0.74586 0.0
C164 C 0.71447 0.90365 0.68699 0.0
C165 C 0.70549 0.92644 0.64215 0.0
C166 C 0.71837 0.95229 0.65873 0.0
H167 H 0.76512 0.93634 0.80329 0.0
O168 O 0.72284 0.99797 0.94196 0.0
O169 O 0.73234 0.0041 0.80808 0.0
O170 O 0.78171 1.00293 0.90884 0.0
O171 O 0.78578 0.98354 0.78164 0.0
C172 C 0.6843 0.92452 0.5816 0.0
C173 C 0.6756 0.94853 0.54123 0.0
H174 H 0.66357 0.99937 0.47987 0.0
H175 H 0.68814 0.04345 0.52042 0.0
H176 H 0.74302 0.88984 0.7806 0.0
H177 H 0.70502 0.88324 0.67677 0.0
H178 H 0.67414 0.90475 0.56677 0.0
H179 H 0.65887 0.94685 0.4961 0.0
Mn180 Mn 0.97717 0.25938 0.10569 0.0
Mn181 Mn 0.01033 0.25281 0.29085 0.0
C182 C 0.01604 0.28737 0.13639 0.0
C183 C 0.94222 0.27886 0.02622 0.0
C184 C 0.01511 0.21249 0.14565 0.0
O185 O 0.94912 0.23703 0.1774 0.0
O186 O 0.97152 0.23917 0.30162 0.0
C187 C 0.98027 0.29255 0.39336 0.0
N188 N 0.00444 0.28356 0.36246 0.0
C189 C 0.03102 0.31539 0.4496 0.0
C190 C 0.00644 0.32485 0.48306 0.0
C191 C 0.98094 0.31362 0.45398 0.0
C192 C 0.02902 0.29504 0.38728 0.0
H193 H 0.96068 0.28358 0.37226 0.0
C194 C 0.95026 0.23293 0.25664 0.0
O195 O 0.95286 0.25587 0.00411 0.0
O196 O 0.95141 0.2901 0.09535 0.0
N197 N 0.04829 0.26547 0.29078 0.0
C198 C 0.07009 0.25418 0.25177 0.0
C199 C 0.09706 0.26405 0.27082 0.0
C200 C 0.1014 0.28468 0.33203 0.0
C201 C 0.07869 0.29539 0.37314 0.0
C202 C 0.05226 0.28541 0.34952 0.0
H203 H 0.06696 0.23775 0.20653 0.0
O204 O 0.00783 0.28404 0.05928 0.0
O205 O 1.001 0.27482 0.19303 0.0
O206 O 1.00086 0.22553 0.09252 0.0
O207 O 0.01847 0.2203 0.22179 0.0
C208 C 0.08126 0.31507 0.43815 0.0
C209 C 0.05743 0.32505 0.47645 0.0
H210 H 0.00689 0.34073 0.531 0.0
H211 H 0.96187 0.32088 0.47924 0.0
H212 H 0.11449 0.25545 0.23946 0.0
H213 H 0.12225 0.29189 0.34765 0.0
H214 H 0.10145 0.32293 0.45854 0.0
H215 H 0.05967 0.34048 0.5255 0.0
Mn216 Mn 0.75716 0.47654 0.40746 0.0
Mn217 Mn 0.75336 0.51297 0.22717 0.0
C218 C 0.78651 0.5149 0.38552 0.0
C219 C 0.77559 0.44022 0.48337 0.0
C220 C 0.71147 0.51611 0.36861 0.0
O221 O 0.73532 0.45021 0.32883 0.0
O222 O 0.73846 0.4748 0.20871 0.0
C223 C 0.79313 0.48349 0.12312 0.0
N224 N 0.78469 0.50737 0.15762 0.0
C225 C 0.82143 0.53389 0.08969 0.0
C226 C 0.83047 0.50959 0.05316 0.0
C227 C 0.81631 0.48428 0.07021 0.0
C228 C 0.79826 0.53181 0.14208 0.0
H229 H 0.78224 0.46402 0.1359 0.0
C230 C 0.73148 0.45288 0.24974 0.0
O231 O 0.75244 0.45065 0.50508 0.0
O232 O 0.78738 0.45025 0.41631 0.0
N233 N 0.7674 0.55038 0.23599 0.0
C234 C 0.75688 0.57166 0.27964 0.0
C235 C 0.76885 0.59839 0.27034 0.0
C236 C 0.79133 0.603 0.21581 0.0
C237 C 0.8019 0.58077 0.1719 0.0
C238 C 0.78897 0.55463 0.18312 0.0
H239 H 0.73938 0.56832 0.32083 0.0
O240 O 0.78184 0.50589 0.46113 0.0
O241 O 0.77398 0.50122 0.32554 0.0
O242 O 0.72348 0.5006 0.42078 0.0
O243 O 0.72046 0.52083 0.29437 0.0
C244 C 0.82488 0.58347 0.11792 0.0
C245 C 0.83473 0.56002 0.07722 0.0
H246 H 0.84835 0.5101 0.01238 0.0
H247 H 0.82322 0.46543 0.04247 0.0
H248 H 0.76064 0.61544 0.30465 0.0
H249 H 0.80031 0.6237 0.20826 0.0
H250 H 0.83536 0.60341 0.10817 0.0
H251 H 0.85268 0.56228 0.03696 0.0
Mn252 Mn 0.53268 0.24598 0.60016 0.0
Mn253 Mn 0.4989 0.25094 0.78458 0.0
C254 C 0.49458 0.21678 0.6292 0.0
C255 C 0.56808 0.22728 0.52086 0.0
C256 C 0.49367 0.29188 0.64128 0.0
O257 O 0.56008 0.26858 0.6738 0.0
O258 O 0.5374 0.26558 0.79745 0.0
C259 C 0.52964 0.21136 0.88586 0.0
N260 N 0.50533 0.21996 0.85472 0.0
C261 C 0.47943 0.18481 0.93146 0.0
C262 C 0.50417 0.17573 0.9651 0.0
C263 C 0.5294 0.18893 0.94164 0.0
C264 C 0.48101 0.207 0.87529 0.0
H265 H 0.54903 0.22154 0.86822 0.0
C266 C 0.55864 0.27246 0.75317 0.0
O267 O 0.55713 0.25016 0.49911 0.0
O268 O 0.55902 0.21583 0.58966 0.0
N269 N 0.46131 0.23713 0.7813 0.0
C270 C 0.43948 0.24744 0.73967 0.0
C271 C 0.41283 0.23573 0.75327 0.0
C272 C 0.40883 0.21396 0.81075 0.0
C273 C 0.43156 0.20397 0.8537 0.0
C274 C 0.45767 0.21619 0.83673 0.0
H275 H 0.44234 0.26445 0.69644 0.0
O276 O 0.50256 0.22075 0.55221 0.0
O277 O 0.50919 0.22972 0.68622 0.0
O278 O 0.50833 0.27942 0.58788 0.0
O279 O 0.49021 0.28354 0.7168 0.0
C280 C 0.42935 0.18238 0.91273 0.0
C281 C 0.45329 0.17266 0.95115 0.0
H282 H 0.50404 0.15855 0.00855 0.0
H283 H 0.54859 0.18193 0.96692 0.0
H284 H 0.39538 0.24362 0.72003 0.0
H285 H 0.38823 0.20506 0.82136 0.0
H286 H 0.40938 0.17271 0.92781 0.0
H287 H 0.45136 0.15562 0.99502 0.0
H288 H 0.40043 0.70686 0.69694 0.0
H289 H 0.36298 0.68568 0.7828 0.0
H290 H 0.41166 0.70098 0.00636 0.0
H291 H 0.44842 0.72217 0.92311 0.0
H292 H 0.36591 0.64021 0.88049 0.0
H293 H 0.33804 0.72695 0.08184 0.0
H294 H 0.35763 0.73199 0.98616 0.0
H295 H 0.37471 0.72384 0.08314 0.0
C296 C 0.40295 0.70595 0.76447 0.0
C297 C 0.42753 0.71612 0.8028 0.0
C298 C 0.38153 0.69397 0.8134 0.0
C299 C 0.38427 0.69241 0.90122 0.0
C300 C 0.40867 0.70274 0.93915 0.0
H301 H 0.34113 0.56769 0.24504 0.0
H302 H 0.36163 0.60326 0.15231 0.0
C303 C 0.42992 0.71453 0.89084 0.0
C304 C 0.36342 0.67735 0.95383 0.0
H305 H 0.33147 0.68091 0.14442 0.0
C306 C 0.35779 0.64928 0.93709 0.0
C307 C 0.3524 0.68925 0.02707 0.0
C308 C 0.35578 0.71975 0.04499 0.0
C309 C 0.34344 0.63232 0.99506 0.0
C310 C 0.33512 0.64364 0.0725 0.0
C311 C 0.33859 0.67214 0.08607 0.0
C312 C 0.32425 0.62575 0.14117 0.0
C313 C 0.33804 0.60221 0.97383 0.0
C314 C 0.29719 0.62799 0.17078 0.0
C315 C 0.28573 0.60806 0.22567 0.0
C316 C 0.3013 0.58587 0.25132 0.0
C317 C 0.32898 0.58493 0.2269 0.0
C318 C 0.3405 0.60495 0.17305 0.0
H319 H 0.33767 0.59883 0.90479 0.0
H320 H 0.35484 0.59009 1.00038 0.0
H321 H 0.31812 0.59417 1.0006 0.0
H322 H 0.28442 0.64403 0.14723 0.0
H323 H 0.26411 0.6087 0.24236 0.0
H324 H 0.41334 0.8229 0.56008 0.0
H325 H 0.38221 0.84811 0.47064 0.0
H326 H 0.38607 0.78483 0.28122 0.0
H327 H 0.41705 0.75924 0.37101 0.0
H328 H 0.3947 0.8691 0.31451 0.0
H329 H 0.30316 0.79635 0.29538 0.0
H330 H 0.32986 0.79317 0.37352 0.0
H331 H 0.33517 0.78147 0.26786 0.0
C332 C 0.40728 0.81409 0.49992 0.0
C333 C 0.41769 0.78901 0.47278 0.0
C334 C 0.38949 0.82859 0.44875 0.0
C335 C 0.38155 0.8183 0.36944 0.0
C336 C 0.39145 0.79296 0.34277 0.0
H337 H 0.32345 0.91631 0.95409 0.0
H338 H 0.34808 0.88541 0.04601 0.0
C339 C 0.40928 0.7784 0.39405 0.0
C340 C 0.36453 0.83511 0.31281 0.0
H341 H 0.30378 0.83502 0.20318 0.0
C342 C 0.37479 0.86164 0.29041 0.0
C343 C 0.33843 0.8255 0.28183 0.0
C344 C 0.32581 0.79767 0.30635 0.0
C345 C 0.35991 0.87865 0.2372 0.0
C346 C 0.33416 0.86879 0.20443 0.0
C347 C 0.32363 0.84244 0.22775 0.0
C348 C 0.31799 0.88576 0.14612 0.0
C349 C 0.37172 0.90723 0.2173 0.0
C350 C 0.2924 0.89554 0.17068 0.0
C351 C 0.27819 0.91325 0.11809 0.0
C352 C 0.28924 0.92133 0.0397 0.0
C353 C 0.31438 0.91064 0.01414 0.0
C354 C 0.32857 0.89303 0.06676 0.0
H355 H 0.38823 0.91398 0.26227 0.0
H356 H 0.38079 0.90728 0.15334 0.0
H357 H 0.35534 0.92249 0.21842 0.0
H358 H 0.28381 0.8901 0.23155 0.0
H359 H 0.25886 0.92105 0.13962 0.0
H360 H 0.05214 0.82198 0.35368 0.0
H361 H 0.08828 0.84387 0.4403 0.0
H362 H 0.14908 0.79562 0.31783 0.0
H363 H 0.11262 0.7738 0.22875 0.0
H364 H 0.12123 0.81556 0.55206 0.0
H365 H 0.18402 0.87466 0.31401 0.0
H366 H 0.1495 0.86115 0.29147 0.0
H367 H 0.17748 0.83828 0.29669 0.0
C368 C 0.07327 0.81632 0.3441 0.0
C369 C 0.07963 0.79621 0.28458 0.0
C370 C 0.09387 0.82874 0.39396 0.0
C371 C 0.1213 0.82124 0.38595 0.0
C372 C 0.12804 0.80184 0.32449 0.0
H373 H 0.22808 0.8964 0.78836 0.0
H374 H 0.20697 0.85929 0.70049 0.0
C375 C 0.10728 0.78951 0.27351 0.0
C376 C 0.14212 0.83358 0.44468 0.0
H377 H 0.19457 0.88272 0.45576 0.0
C378 C 0.13767 0.82988 0.53126 0.0
C379 C 0.16354 0.85208 0.41702 0.0
C380 C 0.16901 0.85702 0.32483 0.0
C381 C 0.15266 0.84576 0.5909 0.0
C382 C 0.17297 0.86545 0.563 0.0
C383 C 0.17888 0.86761 0.47675 0.0
C384 C 0.18517 0.88692 0.61984 0.0
C385 C 0.14525 0.84281 0.68261 0.0
C386 C 0.17966 0.91454 0.60412 0.0
C387 C 0.19168 0.93551 0.65336 0.0
C388 C 0.20943 0.92938 0.71991 0.0
C389 C 0.21421 0.90164 0.73804 0.0
C390 C 0.20227 0.88049 0.68778 0.0
H391 H 0.12643 0.82926 0.69239 0.0
H392 H 0.16259 0.83374 0.71687 0.0
H393 H 0.1418 0.86333 0.71069 0.0
H394 H 0.16628 0.91993 0.55266 0.0
H395 H 0.18748 0.95669 0.63816 0.0
H396 H 0.08966 0.67895 0.05966 0.0
H397 H 0.11978 0.65264 0.97005 0.0
H398 H 0.1162 0.71509 0.77826 0.0
H399 H 0.08611 0.74173 0.86802 0.0
H400 H 0.10645 0.63143 0.81135 0.0
H401 H 0.19945 0.70255 0.79727 0.0
H402 H 0.17286 0.70571 0.87559 0.0
H403 H 0.16756 0.71788 0.7705 0.0
C404 C 0.09552 0.68731 0.99884 0.0
C405 C 0.08549 0.71251 0.97112 0.0
C406 C 0.11272 0.67219 0.94758 0.0
C407 C 0.12048 0.68196 0.86769 0.0
C408 C 0.11089 0.70734 0.84022 0.0
H409 H 0.18131 0.58314 0.45614 0.0
H410 H 0.15524 0.61332 0.54667 0.0
C411 C 0.09359 0.7225 0.89149 0.0
C412 C 0.13734 0.66478 0.8118 0.0
H413 H 0.19886 0.66345 0.70728 0.0
C414 C 0.12666 0.63844 0.78866 0.0
C415 C 0.16382 0.67381 0.78283 0.0
C416 C 0.1768 0.70143 0.80824 0.0
C417 C 0.14157 0.62105 0.7367 0.0
C418 C 0.16779 0.6303 0.7062 0.0
C419 C 0.17866 0.65648 0.73015 0.0
C420 C 0.18424 0.61288 0.64998 0.0
C421 C 0.12933 0.59269 0.71588 0.0
C422 C 0.20954 0.60307 0.67716 0.0
C423 C 0.22452 0.58577 0.62551 0.0
C424 C 0.21458 0.57813 0.54531 0.0
C425 C 0.18952 0.5885 0.51762 0.0
C426 C 0.17452 0.60569 0.56942 0.0
H427 H 0.11219 0.5864 0.75905 0.0
H428 H 0.121 0.59275 0.65092 0.0
H429 H 0.14532 0.57705 0.71904 0.0
H430 H 0.21747 0.60843 0.73901 0.0
H431 H 0.24378 0.57823 0.64868 0.0
H432 H 0.80472 0.09829 0.8056 0.0
H433 H 0.82894 0.13519 0.725 0.0
H434 H 0.80187 0.09624 0.49375 0.0
H435 H 0.77771 0.05979 0.57246 0.0
H436 H 0.87131 0.12512 0.60922 0.0
H437 H 0.78583 0.17725 0.45272 0.0
H438 H 0.78057 0.15544 0.54382 0.0
H439 H 0.78374 0.1404 0.44119 0.0
C440 C 0.80362 0.09785 0.73765 0.0
C441 C 0.78946 0.07597 0.69563 0.0
C442 C 0.8174 0.11892 0.69177 0.0
C443 C 0.81678 0.11862 0.6035 0.0
C444 C 0.8021 0.09721 0.56175 0.0
H445 H 0.91008 0.19612 0.19595 0.0
H446 H 0.8752 0.16994 0.27988 0.0
C447 C 0.78855 0.07617 0.60716 0.0
C448 C 0.83378 0.13881 0.55412 0.0
H449 H 0.83105 0.1858 0.39483 0.0
C450 C 0.86251 0.13869 0.56323 0.0
C451 C 0.82218 0.15611 0.49323 0.0
C452 C 0.79136 0.15755 0.48251 0.0
C453 C 0.88007 0.1549 0.51156 0.0
C454 C 0.86852 0.17212 0.45038 0.0
C455 C 0.83977 0.17248 0.44163 0.0
C456 C 0.88632 0.19034 0.39692 0.0
C457 C 0.9109 0.15285 0.52134 0.0
C458 C 0.90311 0.2111 0.4345 0.0
C459 C 0.92301 0.22568 0.38744 0.0
C460 C 0.92628 0.22013 0.30134 0.0
C461 C 0.90804 0.20076 0.26216 0.0
C462 C 0.88819 0.18583 0.30993 0.0
H463 H 0.91621 0.1338 0.55525 0.0
H464 H 0.92129 0.15309 0.4592 0.0
H465 H 0.91927 0.17082 0.55806 0.0
H466 H 0.90156 0.21524 0.50119 0.0
H467 H 0.93645 0.24077 0.41934 0.0
H468 H 0.92042 0.2615 0.87488 0.0
H469 H 0.88943 0.28629 0.78273 0.0
H470 H 0.88659 0.35188 0.96493 0.0
H471 H 0.91764 0.32743 0.05692 0.0
H472 H 0.83528 0.30659 0.80936 0.0
H473 H 0.91399 0.39095 0.74808 0.0
H474 H 0.92255 0.35845 0.79423 0.0
H475 H 0.90723 0.38438 0.85735 0.0
C476 C 0.91305 0.28111 0.8956 0.0
C477 C 0.9217 0.29257 0.97303 0.0
C478 C 0.8953 0.29523 0.84289 0.0
C479 C 0.88602 0.32113 0.86637 0.0
C480 C 0.89386 0.33215 0.94487 0.0
H481 H 0.75911 0.41894 0.6362 0.0
H482 H 0.78455 0.3883 0.72758 0.0
C483 C 0.91154 0.31806 0.99756 0.0
C484 C 0.86893 0.33712 0.80781 0.0
H485 H 0.86896 0.39727 0.69627 0.0
C486 C 0.84261 0.3264 0.78444 0.0
C487 C 0.87867 0.3628 0.77449 0.0
C488 C 0.90724 0.37479 0.79404 0.0
C489 C 0.82562 0.34091 0.72976 0.0
C490 C 0.83511 0.36695 0.69826 0.0
C491 C 0.86158 0.37742 0.7208 0.0
C492 C 0.8183 0.38362 0.64061 0.0
C493 C 0.79787 0.32805 0.70503 0.0
C494 C 0.82877 0.3913 0.56142 0.0
C495 C 0.81438 0.4089 0.50939 0.0
C496 C 0.78919 0.41936 0.53547 0.0
C497 C 0.77835 0.41112 0.61397 0.0
C498 C 0.79283 0.39349 0.66616 0.0
H499 H 0.79664 0.30546 0.71679 0.0
H500 H 0.78155 0.3375 0.74274 0.0
H501 H 0.79348 0.33177 0.6376 0.0
H502 H 0.84839 0.38402 0.54035 0.0
H503 H 0.82336 0.4148 0.44941 0.0
H504 H 0.72708 0.44864 0.07945 0.0
H505 H 0.70229 0.41306 0.99809 0.0
H506 H 0.68124 0.36881 0.22566 0.0
H507 H 0.70583 0.40482 0.30885 0.0
H508 H 0.7075 0.35555 0.98469 0.0
H509 H 0.60613 0.38312 0.11628 0.0
H510 H 0.63705 0.40484 0.12939 0.0
H511 H 0.63173 0.3743 0.19215 0.0
C512 C 0.71726 0.43138 0.11275 0.0
C513 C 0.71809 0.42986 0.20112 0.0
C514 C 0.70324 0.41094 0.06579 0.0
C515 C 0.68966 0.38855 0.10588 0.0
C516 C 0.69129 0.38623 0.19372 0.0
H517 H 0.57155 0.26584 0.91737 0.0
H518 H 0.60644 0.2914 0.99935 0.0
C519 C 0.7054 0.40675 0.2411 0.0
C520 C 0.67256 0.36867 0.05527 0.0
H521 H 0.60581 0.34686 0.01838 0.0
C522 C 0.68527 0.35345 0.99223 0.0
C523 C 0.64358 0.36632 0.06474 0.0
C524 C 0.62868 0.38314 0.12873 0.0
C525 C 0.6697 0.33563 0.93889 0.0
C526 C 0.6407 0.3334 0.94824 0.0
C527 C 0.62809 0.34856 0.01152 0.0
C528 C 0.6227 0.31528 0.89441 0.0
C529 C 0.6844 0.31912 0.87385 0.0
C530 C 0.6207 0.31971 0.80734 0.0
C531 C 0.60078 0.3048 0.75958 0.0
C532 C 0.58232 0.28568 0.79877 0.0
C533 C 0.58524 0.28061 0.88527 0.0
C534 C 0.60523 0.29518 0.93238 0.0
H535 H 0.7067 0.31778 0.88877 0.0
H536 H 0.67495 0.2979 0.8686 0.0
H537 H 0.68268 0.32931 0.8118 0.0
H538 H 0.63368 0.33551 0.77703 0.0
H539 H 0.59891 0.30922 0.69318 0.0
H540 H 0.74742 0.08471 0.12449 0.0
H541 H 0.72251 0.11535 0.21741 0.0
H542 H 0.65739 0.11937 0.03385 0.0
H543 H 0.68196 0.08872 0.94106 0.0
H544 H 0.70193 0.16983 0.19271 0.0
H545 H 0.61805 0.09015 0.2489 0.0
H546 H 0.65079 0.08209 0.20332 0.0
H547 H 0.62491 0.09751 0.14013 0.0
C548 C 0.72792 0.09232 0.10357 0.0
C549 C 0.71659 0.08407 0.02557 0.0
C550 C 0.71372 0.10985 0.15673 0.0
C551 C 0.68789 0.11931 0.13312 0.0
C552 C 0.67707 0.11197 0.05397 0.0
H553 H 0.58853 0.24403 0.36732 0.0
H554 H 0.61924 0.21912 0.27482 0.0
C555 C 0.69123 0.09451 1.00082 0.0
C556 C 0.67168 0.13593 0.19231 0.0
H557 H 0.61133 0.13477 0.30305 0.0
C558 C 0.68214 0.16219 0.21702 0.0
C559 C 0.64602 0.12579 0.22482 0.0
C560 C 0.63431 0.09725 0.2037 0.0
C561 C 0.66737 0.17876 0.27222 0.0
C562 C 0.64135 0.16888 0.30292 0.0
C563 C 0.63116 0.14245 0.2791 0.0
C564 C 0.62444 0.18525 0.36102 0.0
C565 C 0.67992 0.20648 0.29835 0.0
C566 C 0.61698 0.17449 0.44006 0.0
C567 C 0.59936 0.1886 0.49277 0.0
C568 C 0.58864 0.21375 0.46749 0.0
C569 C 0.59654 0.2248 0.38894 0.0
C570 C 0.61421 0.21063 0.33612 0.0
H571 H 0.70252 0.20806 0.28655 0.0
H572 H 0.67024 0.22289 0.26159 0.0
H573 H 0.67618 0.21041 0.36602 0.0
H574 H 0.62451 0.15492 0.46058 0.0
H575 H 0.59371 0.17946 0.55274 0.0
H576 H 0.34181 0.46726 0.27993 0.0
H577 H 0.377 0.4368 0.32837 0.0
H578 H 0.35018 0.44708 0.58402 0.0
H579 H 0.31471 0.4781 0.5361 0.0
H580 H 0.40922 0.44817 0.56224 0.0
H581 H 0.35734 0.35752 0.40593 0.0
H582 H 0.36428 0.3864 0.33745 0.0
H583 H 0.34037 0.3894 0.42285 0.0
C584 C 0.34336 0.46328 0.34668 0.0
C585 C 0.32511 0.47498 0.40402 0.0
C586 C 0.36351 0.44572 0.37416 0.0
C587 C 0.36584 0.43918 0.45952 0.0
C588 C 0.34857 0.45171 0.51768 0.0
H589 H 0.4639 0.32592 0.73976 0.0
H590 H 0.435 0.36298 0.69528 0.0
C591 C 0.32834 0.46945 0.4902 0.0
C592 C 0.38578 0.4186 0.48691 0.0
H593 H 0.40201 0.3513 0.46121 0.0
C594 C 0.4076 0.42696 0.54057 0.0
C595 C 0.38368 0.39093 0.45834 0.0
C596 C 0.36003 0.38038 0.40358 0.0
C597 C 0.42767 0.40849 0.56511 0.0
C598 C 0.4256 0.38085 0.53622 0.0
C599 C 0.40374 0.37253 0.48271 0.0
C600 C 0.4451 0.3598 0.56346 0.0
C601 C 0.45121 0.41888 0.62042 0.0
C602 C 0.46032 0.34539 0.50406 0.0
C603 C 0.47692 0.32396 0.52925 0.0
C604 C 0.47838 0.3163 0.61436 0.0
C605 C 0.46344 0.33119 0.67369 0.0
C606 C 0.44697 0.3526 0.64848 0.0
H607 H 0.45423 0.4417 0.6173 0.0
H608 H 0.44657 0.41318 0.68657 0.0
H609 H 0.4708 0.40947 0.60236 0.0
H610 H 0.45903 0.35048 0.43796 0.0
H611 H 0.48798 0.31292 0.48174 0.0
H612 H 0.67641 1.00098 0.7634 0.0
H613 H 0.63675 0.97042 0.72596 0.0
H614 H 0.66949 0.906 0.87875 0.0
H615 H 0.70843 0.93729 0.91969 0.0
H616 H 0.63275 0.92638 0.64287 0.0
H617 H 0.592 0.90158 0.95731 0.0
H618 H 0.61849 0.92834 0.94055 0.0
H619 H 0.62742 0.89284 0.95198 0.0
C620 C 0.67491 0.98031 0.78927 0.0
C621 C 0.69545 0.97114 0.8432 0.0
C622 C 0.65228 0.9629 0.76806 0.0
C623 C 0.64982 0.93599 0.80049 0.0
C624 C 0.67042 0.92691 0.85493 0.0
H625 H 0.56534 0.79581 0.56874 0.0
H626 H 0.5969 0.83461 0.60903 0.0
C627 C 0.69279 0.9446 0.87762 0.0
C628 C 0.62655 0.917 0.77377 0.0
H629 H 0.57744 0.87079 0.84674 0.0
C630 C 0.62123 0.91371 0.68751 0.0
C631 C 0.60978 0.90198 0.83197 0.0
C632 C 0.61199 0.90665 0.92554 0.0
C633 C 0.60144 0.89413 0.65759 0.0
C634 C 0.5865 0.87728 0.71576 0.0
C635 C 0.59004 0.88236 0.80205 0.0
C636 C 0.56731 0.85416 0.68903 0.0
C637 C 0.59651 0.8922 0.56409 0.0
C638 C 0.54055 0.85167 0.72257 0.0
C639 C 0.52302 0.8291 0.70179 0.0
C640 C 0.53189 0.80866 0.64704 0.0
C641 C 0.55825 0.81138 0.6114 0.0
C642 C 0.57609 0.83368 0.63372 0.0
H643 H 0.60156 0.91226 0.53272 0.0
H644 H 0.6102 0.87681 0.53692 0.0
H645 H 0.57475 0.88581 0.54947 0.0
H646 H 0.53326 0.8671 0.76534 0.0
H647 H 0.50249 0.82755 0.7287 0.0
H648 H 0.0242 0.19488 0.98406 0.0
H649 H 0.05412 0.15828 0.93905 0.0
H650 H 0.07136 0.13926 0.19774 0.0
H651 H 0.04154 0.17551 0.24339 0.0
H652 H 0.11109 0.15751 0.98015 0.0
H653 H 0.05445 0.06262 0.09314 0.0
H654 H 0.03805 0.09503 0.07986 0.0
H655 H 0.05921 0.08943 0.17043 0.0
C656 C 0.0339 0.18257 0.03146 0.0
C657 C 0.0304 0.18823 0.11742 0.0
C658 C 0.05107 0.1617 0.00559 0.0
C659 C 0.06477 0.14584 0.06503 0.0
C660 C 0.06065 0.15087 0.15074 0.0
H661 H 0.1939 0.02583 0.03631 0.0
H662 H 0.15773 0.05597 0.08442 0.0
C663 C 0.04366 0.17178 0.17667 0.0
C664 C 0.08516 0.1257 0.03778 0.0
H665 H 0.10056 0.05765 0.04662 0.0
C666 C 0.10868 0.13565 0.9941 0.0
C667 C 0.08219 0.09724 0.05713 0.0
C668 C 0.05702 0.08531 0.10212 0.0
C669 C 0.12945 0.11802 0.97005 0.0
C670 C 0.12636 0.08948 0.98843 0.0
C671 C 0.10291 0.07951 0.03258 0.0
C672 C 0.14696 0.06971 0.95981 0.0
C673 C 0.15483 0.13028 0.92673 0.0
C674 C 0.15232 0.06679 0.87385 0.0
C675 C 0.17293 0.04978 0.84631 0.0
C676 C 0.18857 0.03496 0.90403 0.0
C677 C 0.18235 0.03696 0.99013 0.0
C678 C 0.16169 0.05419 0.01773 0.0
H679 H 0.15768 0.15279 0.93892 0.0
H680 H 0.1737 0.12006 0.94757 0.0
H681 H 0.15261 0.12731 0.85789 0.0
H682 H 0.14078 0.07801 0.82785 0.0
H683 H 0.17679 0.04855 0.77944 0.0
H684 H 0.94486 0.70484 0.05678 0.0
H685 H 0.9115 0.66747 0.09515 0.0
H686 H 0.96211 0.64813 0.3089 0.0
H687 H 0.99697 0.68256 0.26268 0.0
H688 H 0.94279 0.60465 0.25937 0.0
H689 H 0.86476 0.66545 0.15282 0.0
H690 H 0.88676 0.68468 0.22478 0.0
H691 H 0.85337 0.67151 0.25785 0.0
C692 C 0.94867 0.69249 0.11191 0.0
C693 C 0.97245 0.69772 0.16067 0.0
C694 C 0.92947 0.67137 0.1345 0.0
C695 C 0.93329 0.65584 0.20796 0.0
C696 C 0.95806 0.66011 0.2532 0.0
H697 H 0.79629 0.56566 0.45589 0.0
H698 H 0.83431 0.5991 0.42213 0.0
C699 C 0.97775 0.68028 0.2282 0.0
C700 C 0.91213 0.63478 0.2377 0.0
H701 H 0.84362 0.62358 0.28101 0.0
C702 C 0.92112 0.60903 0.26452 0.0
C703 C 0.88366 0.64011 0.24473 0.0
C704 C 0.8717 0.66703 0.21919 0.0
C705 C 0.90281 0.58881 0.29863 0.0
C706 C 0.87439 0.59393 0.30318 0.0
C707 C 0.86535 0.61957 0.27692 0.0
C708 C 0.85334 0.57272 0.33107 0.0
C709 C 0.91438 0.56253 0.33144 0.0
C710 C 0.85165 0.54669 0.29234 0.0
C711 C 0.83024 0.52769 0.31232 0.0
C712 C 0.80961 0.53471 0.36898 0.0
C713 C 0.81177 0.56017 0.41063 0.0
C714 C 0.83341 0.57916 0.3913 0.0
H715 H 0.93612 0.56604 0.35246 0.0
H716 H 0.90208 0.55391 0.38486 0.0
H717 H 0.91425 0.54699 0.28023 0.0
H718 H 0.86625 0.54138 0.24426 0.0
H719 H 0.82932 0.50775 0.28148 0.0
H720 H 0.32707 0.00389 0.76334 0.0
H721 H 0.36621 0.0347 0.72277 0.0
H722 H 0.3362 0.09796 0.88544 0.0
H723 H 0.29769 0.06655 0.92862 0.0
H724 H 0.36901 0.08053 0.64382 0.0
H725 H 0.41496 0.09962 0.9561 0.0
H726 H 0.38798 0.0734 0.93846 0.0
H727 H 0.37961 0.10878 0.95578 0.0
C728 C 0.32898 0.0244 0.79037 0.0
C729 C 0.3093 0.03322 0.84773 0.0
C730 C 0.35134 0.04193 0.76746 0.0
C731 C 0.35445 0.06854 0.80194 0.0
C732 C 0.33473 0.07728 0.85973 0.0
H733 H 0.4413 0.20897 0.57679 0.0
H734 H 0.40859 0.17113 0.61655 0.0
C735 C 0.31261 0.05951 0.88379 0.0
C736 C 0.37765 0.08752 0.7748 0.0
H737 H 0.42928 0.13103 0.84772 0.0
C738 C 0.38172 0.09204 0.68852 0.0
C739 C 0.3957 0.10115 0.83278 0.0
C740 C 0.39457 0.09522 0.92582 0.0
C741 C 0.40184 0.1113 0.65877 0.0
C742 C 0.41829 0.12671 0.71719 0.0
C743 C 0.41569 0.12054 0.8031 0.0
C744 C 0.43811 0.1494 0.69117 0.0
C745 C 0.40554 0.11433 0.56506 0.0
C746 C 0.46528 0.15044 0.72216 0.0
C747 C 0.48351 0.17252 0.70193 0.0
C748 C 0.47496 0.19391 0.65021 0.0
C749 C 0.44816 0.19266 0.61714 0.0
C750 C 0.42965 0.17089 0.63908 0.0
H751 H 0.39927 0.0949 0.53172 0.0
H752 H 0.39215 0.13063 0.54176 0.0
H753 H 0.42728 0.12007 0.54844 0.0
H754 H 0.47238 0.13423 0.76245 0.0
H755 H 0.50435 0.17293 0.72677 0.0
H756 H 0.82812 0.9569 0.76161 0.0
H757 H 0.86439 0.92743 0.80932 0.0
H758 H 0.85093 0.9528 0.06495 0.0
H759 H 0.81422 0.98234 0.01798 0.0
H760 H 0.91394 0.93865 0.90225 0.0
H761 H 0.83969 0.86782 0.07123 0.0
H762 H 0.82875 0.893 0.99627 0.0
H763 H 0.83881 0.90355 0.10051 0.0
C764 C 0.8329 0.95647 0.82806 0.0
C765 C 0.81796 0.9719 0.88602 0.0
C766 C 0.85376 0.9396 0.85512 0.0
C767 C 0.8601 0.93759 0.94073 0.0
C768 C 0.84606 0.95372 0.99863 0.0
H769 H 0.96238 0.83056 0.22629 0.0
H770 H 0.9331 0.86656 0.17682 0.0
C771 C 0.82518 0.97073 0.97158 0.0
C772 C 0.8806 0.91771 0.96915 0.0
H773 H 0.88685 0.85861 0.08261 0.0
C774 C 0.90808 0.92115 0.94178 0.0
C775 C 0.87284 0.89478 0.02011 0.0
C776 C 0.84339 0.8893 0.04832 0.0
C777 C 0.92815 0.90256 0.96552 0.0
C778 C 0.92037 0.87963 0.01659 0.0
C779 C 0.89284 0.8762 0.04358 0.0
C780 C 0.94036 0.85916 0.0449 0.0
C781 C 0.95758 0.90798 0.93731 0.0
C782 C 0.95459 0.84307 0.98718 0.0
C783 C 0.97166 0.82236 0.01541 0.0
C784 C 0.9745 0.81715 0.10189 0.0
C785 C 0.96063 0.83377 0.1592 0.0
C786 C 0.94381 0.85445 0.13106 0.0
H787 H 0.96151 0.92977 0.91754 0.0
H788 H 0.97231 0.90321 0.98817 0.0
H789 H 0.96175 0.89455 0.88276 0.0
H790 H 0.95185 0.84594 0.92029 0.0
H791 H 0.98184 0.80985 0.96955 0.0
H792 H 0.07078 0.2891 0.10026 0.0
H793 H 0.10505 0.32589 0.1358 0.0
H794 H 0.04038 0.37411 0.2389 0.0
H795 H 0.00704 0.33551 0.21408 0.0
H796 H 0.11327 0.37346 0.0851 0.0
H797 H 0.09079 0.38497 0.42357 0.0
H798 H 0.07016 0.36198 0.35821 0.0
H799 H 0.06364 0.39803 0.36054 0.0
C800 C 0.06423 0.30729 0.13282 0.0
C801 C 0.03673 0.30924 0.15759 0.0
C802 C 0.08367 0.32848 0.15233 0.0
C803 C 0.07563 0.35275 0.19241 0.0
C804 C 0.04757 0.35527 0.21191 0.0
H805 H 0.19131 0.49785 0.22525 0.0
H806 H 0.15429 0.46531 0.1779 0.0
C807 C 0.02846 0.33335 0.19704 0.0
C808 C 0.09671 0.37539 0.2105 0.0
H809 H 0.12417 0.41738 0.36508 0.0
C810 C 0.11561 0.38288 0.14666 0.0
C811 C 0.09957 0.38854 0.29009 0.0
C812 C 0.08003 0.38281 0.36206 0.0
C813 C 0.13784 0.40179 0.16113 0.0
C814 C 0.14122 0.41396 0.24123 0.0
C815 C 0.12177 0.40759 0.30402 0.0
C816 C 0.16522 0.4327 0.26273 0.0
C817 C 0.15824 0.40767 0.09179 0.0
C818 C 0.18358 0.42521 0.32618 0.0
C819 C 0.20473 0.44372 0.35295 0.0
C820 C 0.20803 0.46989 0.31604 0.0
C821 C 0.18981 0.47735 0.2522 0.0
C822 C 0.16862 0.45883 0.2254 0.0
H823 H 0.1547 0.39385 0.03676 0.0
H824 H 0.15668 0.42931 0.07054 0.0
H825 H 0.17938 0.40504 0.11585 0.0
H826 H 0.18114 0.40522 0.3563 0.0
H827 H 0.21825 0.43777 0.40336 0.0
H828 H 0.54472 0.67493 0.72613 0.0
H829 H 0.57373 0.63863 0.67636 0.0
H830 H 0.5485 0.65396 0.42156 0.0
H831 H 0.5194 0.69075 0.4707 0.0
H832 H 0.56196 0.58977 0.58042 0.0
H833 H 0.63368 0.66451 0.41633 0.0
H834 H 0.60859 0.67521 0.4919 0.0
H835 H 0.59792 0.66574 0.38731 0.0
C836 C 0.54507 0.67056 0.65942 0.0
C837 C 0.52982 0.68605 0.60236 0.0
C838 C 0.56167 0.64967 0.63118 0.0
C839 C 0.56361 0.64384 0.54523 0.0
C840 C 0.54762 0.65842 0.48815 0.0
H841 H 0.67548 0.54284 0.26879 0.0
H842 H 0.6379 0.57132 0.31176 0.0
C843 C 0.53086 0.67933 0.51642 0.0
C844 C 0.58334 0.62335 0.51584 0.0
H845 H 0.64323 0.61752 0.40596 0.0
C846 C 0.57969 0.59576 0.54198 0.0
C847 C 0.60654 0.63126 0.46619 0.0
C848 C 0.61218 0.66081 0.43917 0.0
C849 C 0.59846 0.57581 0.51893 0.0
C850 C 0.62182 0.58379 0.46989 0.0
C851 C 0.62532 0.61137 0.44343 0.0
C852 C 0.64299 0.56409 0.4448 0.0
C853 C 0.59286 0.5463 0.54615 0.0
C854 C 0.65829 0.55015 0.50525 0.0
C855 C 0.67985 0.53358 0.48079 0.0
C856 C 0.68676 0.53093 0.3954 0.0
C857 C 0.67091 0.54443 0.33515 0.0
C858 C 0.64935 0.56078 0.35957 0.0
H859 H 0.57076 0.54215 0.56217 0.0
H860 H 0.59869 0.53167 0.49625 0.0
H861 H 0.60529 0.54223 0.603 0.0
H862 H 0.65419 0.55282 0.57153 0.0
H863 H 0.69174 0.52371 0.5289 0.0
loop_
_geom_bond_atom_site_label_1
_geom_bond_atom_site_label_2
_geom_bond_distance
_geom_bond_site_symmetry_2
_ccdc_geom_bond_type
Mn0 O5 2.095 . S
Mn0 O15 2.162 . S
Mn0 O16 2.297 . S
Mn0 O24 2.385 . S
Mn0 O25 2.209 . S
Mn0 O26 2.094 . S
Mn1 O6 2.121 . S
Mn1 N8 2.257 . S
Mn1 N17 2.282 . S
Mn1 O25 2.215 . S
Mn1 O27 2.117 . S
C2 O24 1.234 . S
C2 O25 1.283 . S
C3 O15 1.281 . S
C3 O16 1.236 . S
C4 O26 1.240 . S
C4 O27 1.264 . S
O5 Mn0 2.095 . S
O5 C14 1.250 . S
O6 Mn1 2.121 . S
O6 C14 1.258 . S
C7 N8 1.326 . S
C7 C11 1.460 1_554 S
C7 H13 0.929 . S
N8 Mn1 2.257 . S
N8 C7 1.326 . S
N8 C12 1.362 . S
C9 C10 1.258 1_554 S
C9 C12 1.431 . S
C9 C29 1.449 . S
C10 C9 1.258 1_556 S
C10 C11 1.477 . S
C10 H30 0.931 . S
C11 C7 1.460 1_556 S
C11 C10 1.477 . S
C11 H31 0.930 . S
C12 N8 1.362 . S
C12 C9 1.431 . S
C12 C22 1.476 . S
H13 C7 0.929 . S
C14 O5 1.250 . S
C14 O6 1.258 . S
O15 Mn0 2.162 . S
O15 C3 1.281 . S
O16 Mn0 2.297 . S
O16 C3 1.236 . S
N17 Mn1 2.282 . S
N17 C18 1.328 . S
N17 C22 1.318 . S
C18 N17 1.328 . S
C18 C19 1.457 . S
C18 H23 0.929 . S
C19 C18 1.457 . S
C19 C20 1.291 . S
C19 H32 0.931 . S
C20 C19 1.291 . S
C20 C21 1.373 . S
C20 H33 0.929 . S
C21 C20 1.373 . S
C21 C22 1.396 . S
C21 C28 1.403 . S
C22 C12 1.476 . S
C22 N17 1.318 . S
C22 C21 1.396 . S
H23 C18 0.929 . S
O24 Mn0 2.385 . S
O24 C2 1.234 . S
O25 Mn0 2.209 . S
O25 Mn1 2.215 . S
O25 C2 1.283 . S
O26 Mn0 2.094 . S
O26 C4 1.240 . S
O27 Mn1 2.117 . S
O27 C4 1.264 . S
C28 C21 1.403 . S
C28 C29 1.399 . S
C28 H34 0.929 . S
C29 C9 1.449 . S
C29 C28 1.399 . S
C29 H35 0.930 1_554 S
H30 C10 0.931 . S
H31 C11 0.930 . S
H32 C19 0.931 . S
H33 C20 0.929 . S
H34 C28 0.929 . S
H35 C29 0.930 1_556 S
Mn36 O41 2.095 . S
Mn36 O51 2.162 . S
Mn36 O52 2.297 . S
Mn36 O60 2.385 . S
Mn36 O61 2.209 . S
Mn36 O62 2.094 . S
Mn37 O42 2.121 . S
Mn37 N44 2.257 . S
Mn37 N53 2.282 . S
Mn37 O61 2.215 . S
Mn37 O63 2.117 . S
C38 O60 1.234 . S
C38 O61 1.283 . S
C39 O51 1.281 . S
C39 O52 1.236 . S
C40 O62 1.240 . S
C40 O63 1.264 . S
O41 Mn36 2.095 . S
O41 C50 1.250 . S
O42 Mn37 2.121 . S
O42 C50 1.258 . S
C43 N44 1.326 . S
C43 C47 1.460 1_556 S
C43 H49 0.929 . S
N44 Mn37 2.257 . S
N44 C43 1.326 . S
N44 C48 1.362 . S
C45 C46 1.258 1_556 S
C45 C48 1.431 . S
C45 C65 1.449 . S
C46 C45 1.258 1_554 S
C46 C47 1.477 . S
C46 H66 0.931 . S
C47 C43 1.460 1_554 S
C47 C46 1.477 . S
C47 H67 0.930 . S
C48 N44 1.362 . S
C48 C45 1.431 . S
C48 C58 1.476 . S
H49 C43 0.929 . S
C50 O41 1.250 . S
C50 O42 1.258 . S
O51 Mn36 2.162 . S
O51 C39 1.281 . S
O52 Mn36 2.297 . S
O52 C39 1.236 . S
N53 Mn37 2.282 . S
N53 C54 1.328 . S
N53 C58 1.318 . S
C54 N53 1.328 . S
C54 C55 1.457 . S
C54 H59 0.929 . S
C55 C54 1.457 . S
C55 C56 1.291 . S
C55 H68 0.931 . S
C56 C55 1.291 . S
C56 C57 1.373 . S
C56 H69 0.929 . S
C57 C56 1.373 . S
C57 C58 1.396 . S
C57 C64 1.403 . S
C58 C48 1.476 . S
C58 N53 1.318 . S
C58 C57 1.396 . S
H59 C54 0.929 . S
O60 Mn36 2.385 . S
O60 C38 1.234 . S
O61 Mn36 2.209 . S
O61 Mn37 2.215 . S
O61 C38 1.283 . S
O62 Mn36 2.094 . S
O62 C40 1.240 . S
O63 Mn37 2.117 . S
O63 C40 1.264 . S
C64 C57 1.403 . S
C64 C65 1.399 . S
C64 H70 0.929 . S
C65 C45 1.449 . S
C65 C64 1.399 . S
C65 H71 0.930 1_556 S
H66 C46 0.931 . S
H67 C47 0.930 . S
H68 C55 0.931 . S
H69 C56 0.929 . S
H70 C64 0.929 . S
H71 C65 0.930 1_554 S
Mn72 O77 2.095 . S
Mn72 O87 2.162 1_556 S
Mn72 O88 2.297 . S
Mn72 O96 2.385 1_565 S
Mn72 O97 2.209 . S
Mn72 O98 2.094 . S
Mn73 O78 2.121 1_545 S
Mn73 N80 2.257 . S
Mn73 N89 2.282 . S
Mn73 O97 2.215 1_545 S
Mn73 O99 2.117 . S
C74 O96 1.234 . S
C74 O97 1.283 1_545 S
C75 O87 1.281 1_556 S
C75 O88 1.236 . S
C76 O98 1.240 1_545 S
C76 O99 1.264 . S
O77 Mn72 2.095 . S
O77 C86 1.250 . S
O78 Mn73 2.121 1_565 S
O78 C86 1.258 . S
C79 N80 1.326 1_565 S
C79 C83 1.460 . S
C79 H85 0.929 . S
N80 Mn73 2.257 . S
N80 C79 1.326 1_545 S
N80 C84 1.362 . S
C81 C82 1.258 . S
C81 C84 1.431 . S
C81 C101 1.449 . S
C82 C81 1.258 . S
C82 C83 1.477 1_545 S
C82 H102 0.931 . S
C83 C79 1.460 . S
C83 C82 1.477 1_565 S
C83 H103 0.930 . S
C84 N80 1.362 . S
C84 C81 1.431 . S
C84 C94 1.476 . S
H85 C79 0.929 . S
C86 O77 1.250 . S
C86 O78 1.258 . S
O87 Mn72 2.162 1_554 S
O87 C75 1.281 1_554 S
O88 Mn72 2.297 . S
O88 C75 1.236 . S
N89 Mn73 2.282 . S
N89 C90 1.328 . S
N89 C94 1.318 . S
C90 N89 1.328 . S
C90 C91 1.457 . S
C90 H95 0.929 . S
C91 C90 1.457 . S
C91 C92 1.291 . S
C91 H104 0.931 . S
C92 C91 1.291 . S
C92 C93 1.373 . S
C92 H105 0.929 . S
C93 C92 1.373 . S
C93 C94 1.396 . S
C93 C100 1.403 . S
C94 C84 1.476 . S
C94 N89 1.318 . S
C94 C93 1.396 . S
H95 C90 0.929 . S
O96 Mn72 2.385 1_545 S
O96 C74 1.234 . S
O97 Mn72 2.209 . S
O97 Mn73 2.215 1_565 S
O97 C74 1.283 1_565 S
O98 Mn72 2.094 . S
O98 C76 1.240 1_565 S
O99 Mn73 2.117 . S
O99 C76 1.264 . S
C100 C93 1.403 . S
C100 C101 1.399 . S
C100 H106 0.929 . S
C101 C81 1.449 . S
C101 C100 1.399 . S
C101 H107 0.930 . S
H102 C82 0.931 . S
H103 C83 0.930 . S
H104 C91 0.931 . S
H105 C92 0.929 . S
H106 C100 0.929 . S
H107 C101 0.930 . S
Mn108 O113 2.095 . S
Mn108 O123 2.162 1_554 S
Mn108 O124 2.297 . S
Mn108 O132 2.385 1_455 S
Mn108 O133 2.209 . S
Mn108 O134 2.094 . S
Mn109 O114 2.121 1_655 S
Mn109 N116 2.257 . S
Mn109 N125 2.282 . S
Mn109 O133 2.215 1_655 S
Mn109 O135 2.117 . S
C110 O132 1.234 . S
C110 O133 1.283 1_655 S
C111 O123 1.281 1_554 S
C111 O124 1.236 . S
C112 O134 1.240 1_655 S
C112 O135 1.264 . S
O113 Mn108 2.095 . S
O113 C122 1.250 . S
O114 Mn109 2.121 1_455 S
O114 C122 1.258 . S
C115 N116 1.326 1_455 S
C115 C119 1.460 . S
C115 H121 0.929 . S
N116 Mn109 2.257 . S
N116 C115 1.326 1_655 S
N116 C120 1.362 . S
C117 C118 1.258 . S
C117 C120 1.431 . S
C117 C137 1.449 . S
C118 C117 1.258 . S
C118 C119 1.477 1_655 S
C118 H138 0.931 . S
C119 C115 1.460 . S
C119 C118 1.477 1_455 S
C119 H139 0.930 . S
C120 N116 1.362 . S
C120 C117 1.431 . S
C120 C130 1.476 . S
H121 C115 0.929 . S
C122 O113 1.250 . S
C122 O114 1.258 . S
O123 Mn108 2.162 1_556 S
O123 C111 1.281 1_556 S
O124 Mn108 2.297 . S
O124 C111 1.236 . S
N125 Mn109 2.282 . S
N125 C126 1.328 . S
N125 C130 1.318 . S
C126 N125 1.328 . S
C126 C127 1.457 . S
C126 H131 0.929 . S
C127 C126 1.457 . S
C127 C128 1.291 . S
C127 H140 0.931 . S
C128 C127 1.291 . S
C128 C129 1.373 . S
C128 H141 0.929 . S
C129 C128 1.373 . S
C129 C130 1.396 . S
C129 C136 1.403 . S
C130 C120 1.476 . S
C130 N125 1.318 . S
C130 C129 1.396 . S
H131 C126 0.929 . S
O132 Mn108 2.385 1_655 S
O132 C110 1.234 . S
O133 Mn108 2.209 . S
O133 Mn109 2.215 1_455 S
O133 C110 1.283 1_455 S
O134 Mn108 2.094 . S
O134 C112 1.240 1_455 S
O135 Mn109 2.117 . S
O135 C112 1.264 . S
C136 C129 1.403 . S
C136 C137 1.399 . S
C136 H142 0.929 . S
C137 C117 1.449 . S
C137 C136 1.399 . S
C137 H143 0.930 . S
H138 C118 0.931 . S
H139 C119 0.930 . S
H140 C127 0.931 . S
H141 C128 0.929 . S
H142 C136 0.929 . S
H143 C137 0.930 . S
Mn144 O149 2.095 . S
Mn144 O159 2.162 1_556 S
Mn144 O160 2.297 . S
Mn144 O168 2.385 1_545 S
Mn144 O169 2.209 . S
Mn144 O170 2.094 . S
Mn145 O150 2.121 1_565 S
Mn145 N152 2.257 . S
Mn145 N161 2.282 . S
Mn145 O169 2.215 1_565 S
Mn145 O171 2.117 . S
C146 O168 1.234 . S
C146 O169 1.283 1_565 S
C147 O159 1.281 1_556 S
C147 O160 1.236 . S
C148 O170 1.240 1_565 S
C148 O171 1.264 . S
O149 Mn144 2.095 . S
O149 C158 1.250 . S
O150 Mn145 2.121 1_545 S
O150 C158 1.258 . S
C151 N152 1.326 1_545 S
C151 C155 1.460 . S
C151 H157 0.929 . S
N152 Mn145 2.257 . S
N152 C151 1.326 1_565 S
N152 C156 1.362 . S
C153 C154 1.258 . S
C153 C156 1.431 . S
C153 C173 1.449 . S
C154 C153 1.258 . S
C154 C155 1.477 1_565 S
C154 H174 0.931 . S
C155 C151 1.460 . S
C155 C154 1.477 1_545 S
C155 H175 0.930 . S
C156 N152 1.362 . S
C156 C153 1.431 . S
C156 C166 1.476 . S
H157 C151 0.929 . S
C158 O149 1.250 . S
C158 O150 1.258 . S
O159 Mn144 2.162 1_554 S
O159 C147 1.281 1_554 S
O160 Mn144 2.297 . S
O160 C147 1.236 . S
N161 Mn145 2.282 . S
N161 C162 1.328 . S
N161 C166 1.318 . S
C162 N161 1.328 . S
C162 C163 1.457 . S
C162 H167 0.929 . S
C163 C162 1.457 . S
C163 C164 1.291 . S
C163 H176 0.931 . S
C164 C163 1.291 . S
C164 C165 1.373 . S
C164 H177 0.929 . S
C165 C164 1.373 . S
C165 C166 1.396 . S
C165 C172 1.403 . S
C166 C156 1.476 . S
C166 N161 1.318 . S
C166 C165 1.396 . S
H167 C162 0.929 . S
O168 Mn144 2.385 1_565 S
O168 C146 1.234 . S
O169 Mn144 2.209 . S
O169 Mn145 2.215 1_545 S
O169 C146 1.283 1_545 S
O170 Mn144 2.094 . S
O170 C148 1.240 1_545 S
O171 Mn145 2.117 . S
O171 C148 1.264 . S
C172 C165 1.403 . S
C172 C173 1.399 . S
C172 H178 0.929 . S
C173 C153 1.449 . S
C173 C172 1.399 . S
C173 H179 0.930 . S
H174 C154 0.931 . S
H175 C155 0.930 . S
H176 C163 0.931 . S
H177 C164 0.929 . S
H178 C172 0.929 . S
H179 C173 0.930 . S
Mn180 O185 2.095 . S
Mn180 O195 2.162 1_554 S
Mn180 O196 2.297 . S
Mn180 O204 2.385 1_655 S
Mn180 O205 2.209 . S
Mn180 O206 2.094 . S
Mn181 O186 2.121 1_455 S
Mn181 N188 2.257 . S
Mn181 N197 2.282 . S
Mn181 O205 2.215 1_455 S
Mn181 O207 2.117 . S
C182 O204 1.234 . S
C182 O205 1.283 1_455 S
C183 O195 1.281 1_554 S
C183 O196 1.236 . S
C184 O206 1.240 1_455 S
C184 O207 1.264 . S
O185 Mn180 2.095 . S
O185 C194 1.250 . S
O186 Mn181 2.121 1_655 S
O186 C194 1.258 . S
C187 N188 1.326 1_655 S
C187 C191 1.460 . S
C187 H193 0.929 . S
N188 Mn181 2.257 . S
N188 C187 1.326 1_455 S
N188 C192 1.362 . S
C189 C190 1.258 . S
C189 C192 1.431 . S
C189 C209 1.449 . S
C190 C189 1.258 . S
C190 C191 1.477 1_455 S
C190 H210 0.931 . S
C191 C187 1.460 . S
C191 C190 1.477 1_655 S
C191 H211 0.930 . S
C192 N188 1.362 . S
C192 C189 1.431 . S
C192 C202 1.476 . S
H193 C187 0.929 . S
C194 O185 1.250 . S
C194 O186 1.258 . S
O195 Mn180 2.162 1_556 S
O195 C183 1.281 1_556 S
O196 Mn180 2.297 . S
O196 C183 1.236 . S
N197 Mn181 2.282 . S
N197 C198 1.328 . S
N197 C202 1.318 . S
C198 N197 1.328 . S
C198 C199 1.457 . S
C198 H203 0.929 . S
C199 C198 1.457 . S
C199 C200 1.291 . S
C199 H212 0.931 . S
C200 C199 1.291 . S
C200 C201 1.373 . S
C200 H213 0.929 . S
C201 C200 1.373 . S
C201 C202 1.396 . S
C201 C208 1.403 . S
C202 C192 1.476 . S
C202 N197 1.318 . S
C202 C201 1.396 . S
H203 C198 0.929 . S
O204 Mn180 2.385 1_455 S
O204 C182 1.234 . S
O205 Mn180 2.209 . S
O205 Mn181 2.215 1_655 S
O205 C182 1.283 1_655 S
O206 Mn180 2.094 . S
O206 C184 1.240 1_655 S
O207 Mn181 2.117 . S
O207 C184 1.264 . S
C208 C201 1.403 . S
C208 C209 1.399 . S
C208 H214 0.929 . S
C209 C189 1.449 . S
C209 C208 1.399 . S
C209 H215 0.930 . S
H210 C190 0.931 . S
H211 C191 0.930 . S
H212 C199 0.931 . S
H213 C200 0.929 . S
H214 C208 0.929 . S
H215 C209 0.930 . S
Mn216 O221 2.095 . S
Mn216 O231 2.162 . S
Mn216 O232 2.297 . S
Mn216 O240 2.385 . S
Mn216 O241 2.209 . S
Mn216 O242 2.094 . S
Mn217 O222 2.121 . S
Mn217 N224 2.257 . S
Mn217 N233 2.282 . S
Mn217 O241 2.215 . S
Mn217 O243 2.117 . S
C218 O240 1.234 . S
C218 O241 1.283 . S
C219 O231 1.281 . S
C219 O232 1.236 . S
C220 O242 1.240 . S
C220 O243 1.264 . S
O221 Mn216 2.095 . S
O221 C230 1.250 . S
O222 Mn217 2.121 . S
O222 C230 1.258 . S
C223 N224 1.326 . S
C223 C227 1.460 1_554 S
C223 H229 0.929 . S
N224 Mn217 2.257 . S
N224 C223 1.326 . S
N224 C228 1.362 . S
C225 C226 1.258 1_554 S
C225 C228 1.431 . S
C225 C245 1.449 . S
C226 C225 1.258 1_556 S
C226 C227 1.477 . S
C226 H246 0.931 . S
C227 C223 1.460 1_556 S
C227 C226 1.477 . S
C227 H247 0.930 . S
C228 N224 1.362 . S
C228 C225 1.431 . S
C228 C238 1.476 . S
H229 C223 0.929 . S
C230 O221 1.250 . S
C230 O222 1.258 . S
O231 Mn216 2.162 . S
O231 C219 1.281 . S
O232 Mn216 2.297 . S
O232 C219 1.236 . S
N233 Mn217 2.282 . S
N233 C234 1.328 . S
N233 C238 1.318 . S
C234 N233 1.328 . S
C234 C235 1.457 . S
C234 H239 0.929 . S
C235 C234 1.457 . S
C235 C236 1.291 . S
C235 H248 0.931 . S
C236 C235 1.291 . S
C236 C237 1.373 . S
C236 H249 0.929 . S
C237 C236 1.373 . S
C237 C238 1.396 . S
C237 C244 1.403 . S
C238 C228 1.476 . S
C238 N233 1.318 . S
C238 C237 1.396 . S
H239 C234 0.929 . S
O240 Mn216 2.385 . S
O240 C218 1.234 . S
O241 Mn216 2.209 . S
O241 Mn217 2.215 . S
O241 C218 1.283 . S
O242 Mn216 2.094 . S
O242 C220 1.240 . S
O243 Mn217 2.117 . S
O243 C220 1.264 . S
C244 C237 1.403 . S
C244 C245 1.399 . S
C244 H250 0.929 . S
C245 C225 1.449 . S
C245 C244 1.399 . S
C245 H251 0.930 1_554 S
H246 C226 0.931 . S
H247 C227 0.930 . S
H248 C235 0.931 . S
H249 C236 0.929 . S
H250 C244 0.929 . S
H251 C245 0.930 1_556 S
Mn252 O257 2.095 . S
Mn252 O267 2.162 . S
Mn252 O268 2.297 . S
Mn252 O276 2.385 . S
Mn252 O277 2.209 . S
Mn252 O278 2.094 . S
Mn253 O258 2.121 . S
Mn253 N260 2.257 . S
Mn253 N269 2.282 . S
Mn253 O277 2.215 . S
Mn253 O279 2.117 . S
C254 O276 1.234 . S
C254 O277 1.283 . S
C255 O267 1.281 . S
C255 O268 1.236 . S
C256 O278 1.240 . S
C256 O279 1.264 . S
O257 Mn252 2.095 . S
O257 C266 1.250 . S
O258 Mn253 2.121 . S
O258 C266 1.258 . S
C259 N260 1.326 . S
C259 C263 1.460 1_556 S
C259 H265 0.929 . S
N260 Mn253 2.257 . S
N260 C259 1.326 . S
N260 C264 1.362 . S
C261 C262 1.258 1_556 S
C261 C264 1.431 . S
C261 C281 1.449 . S
C262 C261 1.258 1_554 S
C262 C263 1.477 . S
C262 H282 0.931 . S
C263 C259 1.460 1_554 S
C263 C262 1.477 . S
C263 H283 0.930 . S
C264 N260 1.362 . S
C264 C261 1.431 . S
C264 C274 1.476 . S
H265 C259 0.929 . S
C266 O257 1.250 . S
C266 O258 1.258 . S
O267 Mn252 2.162 . S
O267 C255 1.281 . S
O268 Mn252 2.297 . S
O268 C255 1.236 . S
N269 Mn253 2.282 . S
N269 C270 1.328 . S
N269 C274 1.318 . S
C270 N269 1.328 . S
C270 C271 1.457 . S
C270 H275 0.929 . S
C271 C270 1.457 . S
C271 C272 1.291 . S
C271 H284 0.931 . S
C272 C271 1.291 . S
C272 C273 1.373 . S
C272 H285 0.929 . S
C273 C272 1.373 . S
C273 C274 1.396 . S
C273 C280 1.403 . S
C274 C264 1.476 . S
C274 N269 1.318 . S
C274 C273 1.396 . S
H275 C270 0.929 . S
O276 Mn252 2.385 . S
O276 C254 1.234 . S
O277 Mn252 2.209 . S
O277 Mn253 2.215 . S
O277 C254 1.283 . S
O278 Mn252 2.094 . S
O278 C256 1.240 . S
O279 Mn253 2.117 . S
O279 C256 1.264 . S
C280 C273 1.403 . S
C280 C281 1.399 . S
C280 H286 0.929 . S
C281 C261 1.449 . S
C281 C280 1.399 . S
C281 H287 0.930 1_556 S
H282 C262 0.931 . S
H283 C263 0.930 . S
H284 C271 0.931 . S
H285 C272 0.929 . S
H286 C280 0.929 . S
H287 C281 0.930 1_554 S
H288 C296 0.929 . S
H289 C298 0.930 . S
H290 C300 0.930 . S
H291 C303 0.929 . S
H292 C306 0.930 . S
H293 C308 0.960 . S
H294 C308 0.960 1_556 S
H295 C308 0.960 . S
C296 H288 0.929 . S
C296 C297 1.377 . S
C296 C298 1.384 . S
C297 C296 1.377 . S
C297 C303 1.390 . S
C298 H289 0.930 . S
C298 C296 1.384 . S
C298 C299 1.372 . S
C299 C298 1.372 . S
C299 C300 1.400 . S
C299 C304 1.490 . S
C300 H290 0.930 . S
C300 C299 1.400 . S
C300 C303 1.386 . S
H301 C317 0.930 . S
H302 C318 0.931 . S
C303 H291 0.929 . S
C303 C297 1.390 . S
C303 C300 1.386 . S
C304 C299 1.490 . S
C304 C306 1.395 . S
C304 C307 1.403 1_556 S
H305 C311 0.930 . S
C306 H292 0.930 . S
C306 C304 1.395 . S
C306 C309 1.403 . S
C307 C304 1.403 1_554 S
C307 C308 1.524 . S
C307 C311 1.400 . S
C308 H293 0.960 . S
C308 H294 0.960 1_554 S
C308 H295 0.960 . S
C308 C307 1.524 . S
C309 C306 1.403 . S
C309 C310 1.392 1_556 S
C309 C313 1.495 . S
C310 C309 1.392 1_554 S
C310 C311 1.385 . S
C310 C312 1.478 . S
C311 H305 0.930 . S
C311 C307 1.400 . S
C311 C310 1.385 . S
C312 C310 1.478 . S
C312 C314 1.381 . S
C312 C318 1.383 . S
C313 C309 1.495 . S
C313 H319 0.959 . S
C313 H320 0.961 1_556 S
C313 H321 0.960 . S
C314 C312 1.381 . S
C314 C315 1.394 . S
C314 H322 0.930 . S
C315 C314 1.394 . S
C315 C316 1.383 . S
C315 H323 0.929 . S
C316 C315 1.383 . S
C316 C317 1.377 . S
C317 H301 0.930 . S
C317 C316 1.377 . S
C317 C318 1.379 . S
C318 H302 0.931 . S
C318 C312 1.383 . S
C318 C317 1.379 . S
H319 C313 0.959 . S
H320 C313 0.961 1_554 S
H321 C313 0.960 . S
H322 C314 0.930 . S
H323 C315 0.929 . S
H324 C332 0.929 . S
H325 C334 0.930 . S
H326 C336 0.930 . S
H327 C339 0.929 . S
H328 C342 0.930 . S
H329 C344 0.960 . S
H330 C344 0.960 . S
H331 C344 0.960 . S
C332 H324 0.929 . S
C332 C333 1.377 . S
C332 C334 1.384 . S
C333 C332 1.377 . S
C333 C339 1.390 . S
C334 H325 0.930 . S
C334 C332 1.384 . S
C334 C335 1.372 . S
C335 C334 1.372 . S
C335 C336 1.400 . S
C335 C340 1.490 . S
C336 H326 0.930 . S
C336 C335 1.400 . S
C336 C339 1.386 . S
H337 C353 0.930 1_556 S
H338 C354 0.931 . S
C339 H327 0.929 . S
C339 C333 1.390 . S
C339 C336 1.386 . S
C340 C335 1.490 . S
C340 C342 1.395 . S
C340 C343 1.403 . S
H341 C347 0.930 . S
C342 H328 0.930 . S
C342 C340 1.395 . S
C342 C345 1.403 . S
C343 C340 1.403 . S
C343 C344 1.524 . S
C343 C347 1.400 . S
C344 H329 0.960 . S
C344 H330 0.960 . S
C344 H331 0.960 . S
C344 C343 1.524 . S
C345 C342 1.403 . S
C345 C346 1.392 . S
C345 C349 1.495 . S
C346 C345 1.392 . S
C346 C347 1.385 . S
C346 C348 1.478 . S
C347 H341 0.930 . S
C347 C343 1.400 . S
C347 C346 1.385 . S
C348 C346 1.478 . S
C348 C350 1.381 . S
C348 C354 1.383 . S
C349 C345 1.495 . S
C349 H355 0.959 . S
C349 H356 0.961 . S
C349 H357 0.960 . S
C350 C348 1.381 . S
C350 C351 1.394 . S
C350 H358 0.930 . S
C351 C350 1.394 . S
C351 C352 1.383 . S
C351 H359 0.929 . S
C352 C351 1.383 . S
C352 C353 1.377 . S
C353 H337 0.930 1_554 S
C353 C352 1.377 . S
C353 C354 1.379 . S
C354 H338 0.931 . S
C354 C348 1.383 . S
C354 C353 1.379 . S
H355 C349 0.959 . S
H356 C349 0.961 . S
H357 C349 0.960 . S
H358 C350 0.930 . S
H359 C351 0.929 . S
H360 C368 0.929 . S
H361 C370 0.930 . S
H362 C372 0.930 . S
H363 C375 0.929 . S
H364 C378 0.930 . S
H365 C380 0.960 . S
H366 C380 0.960 . S
H367 C380 0.960 . S
C368 H360 0.929 . S
C368 C369 1.377 . S
C368 C370 1.384 . S
C369 C368 1.377 . S
C369 C375 1.390 . S
C370 H361 0.930 . S
C370 C368 1.384 . S
C370 C371 1.372 . S
C371 C370 1.372 . S
C371 C372 1.400 . S
C371 C376 1.490 . S
C372 H362 0.930 . S
C372 C371 1.400 . S
C372 C375 1.386 . S
H373 C389 0.930 . S
H374 C390 0.931 . S
C375 H363 0.929 . S
C375 C369 1.390 . S
C375 C372 1.386 . S
C376 C371 1.490 . S
C376 C378 1.395 . S
C376 C379 1.403 . S
H377 C383 0.930 . S
C378 H364 0.930 . S
C378 C376 1.395 . S
C378 C381 1.403 . S
C379 C376 1.403 . S
C379 C380 1.524 . S
C379 C383 1.400 . S
C380 H365 0.960 . S
C380 H366 0.960 . S
C380 H367 0.960 . S
C380 C379 1.524 . S
C381 C378 1.403 . S
C381 C382 1.392 . S
C381 C385 1.495 . S
C382 C381 1.392 . S
C382 C383 1.385 . S
C382 C384 1.478 . S
C383 H377 0.930 . S
C383 C379 1.400 . S
C383 C382 1.385 . S
C384 C382 1.478 . S
C384 C386 1.381 . S
C384 C390 1.383 . S
C385 C381 1.495 . S
C385 H391 0.959 . S
C385 H392 0.961 . S
C385 H393 0.960 . S
C386 C384 1.381 . S
C386 C387 1.394 . S
C386 H394 0.930 . S
C387 C386 1.394 . S
C387 C388 1.383 . S
C387 H395 0.929 . S
C388 C387 1.383 . S
C388 C389 1.377 . S
C389 H373 0.930 . S
C389 C388 1.377 . S
C389 C390 1.379 . S
C390 H374 0.931 . S
C390 C384 1.383 . S
C390 C389 1.379 . S
H391 C385 0.959 . S
H392 C385 0.961 . S
H393 C385 0.960 . S
H394 C386 0.930 . S
H395 C387 0.929 . S
H396 C404 0.929 1_554 S
H397 C406 0.930 . S
H398 C408 0.930 . S
H399 C411 0.929 . S
H400 C414 0.930 . S
H401 C416 0.960 . S
H402 C416 0.960 . S
H403 C416 0.960 . S
C404 H396 0.929 1_556 S
C404 C405 1.377 . S
C404 C406 1.384 . S
C405 C404 1.377 . S
C405 C411 1.390 . S
C406 H397 0.930 . S
C406 C404 1.384 . S
C406 C407 1.372 . S
C407 C406 1.372 . S
C407 C408 1.400 . S
C407 C412 1.490 . S
C408 H398 0.930 . S
C408 C407 1.400 . S
C408 C411 1.386 . S
H409 C425 0.930 . S
H410 C426 0.931 . S
C411 H399 0.929 . S
C411 C405 1.390 . S
C411 C408 1.386 . S
C412 C407 1.490 . S
C412 C414 1.395 . S
C412 C415 1.403 . S
H413 C419 0.930 . S
C414 H400 0.930 . S
C414 C412 1.395 . S
C414 C417 1.403 . S
C415 C412 1.403 . S
C415 C416 1.524 . S
C415 C419 1.400 . S
C416 H401 0.960 . S
C416 H402 0.960 . S
C416 H403 0.960 . S
C416 C415 1.524 . S
C417 C414 1.403 . S
C417 C418 1.392 . S
C417 C421 1.495 . S
C418 C417 1.392 . S
C418 C419 1.385 . S
C418 C420 1.478 . S
C419 H413 0.930 . S
C419 C415 1.400 . S
C419 C418 1.385 . S
C420 C418 1.478 . S
C420 C422 1.381 . S
C420 C426 1.383 . S
C421 C417 1.495 . S
C421 H427 0.959 . S
C421 H428 0.961 . S
C421 H429 0.960 . S
C422 C420 1.381 . S
C422 C423 1.394 . S
C422 H430 0.930 . S
C423 C422 1.394 . S
C423 C424 1.383 . S
C423 H431 0.929 . S
C424 C423 1.383 . S
C424 C425 1.377 . S
C425 H409 0.930 . S
C425 C424 1.377 . S
C425 C426 1.379 . S
C426 H410 0.931 . S
C426 C420 1.383 . S
C426 C425 1.379 . S
H427 C421 0.959 . S
H428 C421 0.961 . S
H429 C421 0.960 . S
H430 C422 0.930 . S
H431 C423 0.929 . S
H432 C440 0.929 . S
H433 C442 0.930 . S
H434 C444 0.930 . S
H435 C447 0.929 . S
H436 C450 0.930 . S
H437 C452 0.960 . S
H438 C452 0.960 . S
H439 C452 0.960 . S
C440 H432 0.929 . S
C440 C441 1.377 . S
C440 C442 1.384 . S
C441 C440 1.377 . S
C441 C447 1.390 . S
C442 H433 0.930 . S
C442 C440 1.384 . S
C442 C443 1.372 . S
C443 C442 1.372 . S
C443 C444 1.400 . S
C443 C448 1.490 . S
C444 H434 0.930 . S
C444 C443 1.400 . S
C444 C447 1.386 . S
H445 C461 0.930 . S
H446 C462 0.931 . S
C447 H435 0.929 . S
C447 C441 1.390 . S
C447 C444 1.386 . S
C448 C443 1.490 . S
C448 C450 1.395 . S
C448 C451 1.403 . S
H449 C455 0.930 . S
C450 H436 0.930 . S
C450 C448 1.395 . S
C450 C453 1.403 . S
C451 C448 1.403 . S
C451 C452 1.524 . S
C451 C455 1.400 . S
C452 H437 0.960 . S
C452 H438 0.960 . S
C452 H439 0.960 . S
C452 C451 1.524 . S
C453 C450 1.403 . S
C453 C454 1.392 . S
C453 C457 1.495 . S
C454 C453 1.392 . S
C454 C455 1.385 . S
C454 C456 1.478 . S
C455 H449 0.930 . S
C455 C451 1.400 . S
C455 C454 1.385 . S
C456 C454 1.478 . S
C456 C458 1.381 . S
C456 C462 1.383 . S
C457 C453 1.495 . S
C457 H463 0.959 . S
C457 H464 0.961 . S
C457 H465 0.960 . S
C458 C456 1.381 . S
C458 C459 1.394 . S
C458 H466 0.930 . S
C459 C458 1.394 . S
C459 C460 1.383 . S
C459 H467 0.929 . S
C460 C459 1.383 . S
C460 C461 1.377 . S
C461 H445 0.930 . S
C461 C460 1.377 . S
C461 C462 1.379 . S
C462 H446 0.931 . S
C462 C456 1.383 . S
C462 C461 1.379 . S
H463 C457 0.959 . S
H464 C457 0.961 . S
H465 C457 0.960 . S
H466 C458 0.930 . S
H467 C459 0.929 . S
H468 C476 0.929 . S
H469 C478 0.930 . S
H470 C480 0.930 . S
H471 C483 0.929 1_554 S
H472 C486 0.930 . S
H473 C488 0.960 . S
H474 C488 0.960 . S
H475 C488 0.960 . S
C476 H468 0.929 . S
C476 C477 1.377 . S
C476 C478 1.384 . S
C477 C476 1.377 . S
C477 C483 1.390 . S
C478 H469 0.930 . S
C478 C476 1.384 . S
C478 C479 1.372 . S
C479 C478 1.372 . S
C479 C480 1.400 . S
C479 C484 1.490 . S
C480 H470 0.930 . S
C480 C479 1.400 . S
C480 C483 1.386 . S
H481 C497 0.930 . S
H482 C498 0.931 . S
C483 H471 0.929 1_556 S
C483 C477 1.390 . S
C483 C480 1.386 . S
C484 C479 1.490 . S
C484 C486 1.395 . S
C484 C487 1.403 . S
H485 C491 0.930 . S
C486 H472 0.930 . S
C486 C484 1.395 . S
C486 C489 1.403 . S
C487 C484 1.403 . S
C487 C488 1.524 . S
C487 C491 1.400 . S
C488 H473 0.960 . S
C488 H474 0.960 . S
C488 H475 0.960 . S
C488 C487 1.524 . S
C489 C486 1.403 . S
C489 C490 1.392 . S
C489 C493 1.495 . S
C490 C489 1.392 . S
C490 C491 1.385 . S
C490 C492 1.478 . S
C491 H485 0.930 . S
C491 C487 1.400 . S
C491 C490 1.385 . S
C492 C490 1.478 . S
C492 C494 1.381 . S
C492 C498 1.383 . S
C493 C489 1.495 . S
C493 H499 0.959 . S
C493 H500 0.961 . S
C493 H501 0.960 . S
C494 C492 1.381 . S
C494 C495 1.394 . S
C494 H502 0.930 . S
C495 C494 1.394 . S
C495 C496 1.383 . S
C495 H503 0.929 . S
C496 C495 1.383 . S
C496 C497 1.377 . S
C497 H481 0.930 . S
C497 C496 1.377 . S
C497 C498 1.379 . S
C498 H482 0.931 . S
C498 C492 1.383 . S
C498 C497 1.379 . S
H499 C493 0.959 . S
H500 C493 0.961 . S
H501 C493 0.960 . S
H502 C494 0.930 . S
H503 C495 0.929 . S
H504 C512 0.929 . S
H505 C514 0.930 . S
H506 C516 0.930 . S
H507 C519 0.929 . S
H508 C522 0.930 . S
H509 C524 0.960 . S
H510 C524 0.960 . S
H511 C524 0.960 . S
C512 H504 0.929 . S
C512 C513 1.377 . S
C512 C514 1.384 . S
C513 C512 1.377 . S
C513 C519 1.390 . S
C514 H505 0.930 . S
C514 C512 1.384 . S
C514 C515 1.372 . S
C515 C514 1.372 . S
C515 C516 1.400 . S
C515 C520 1.490 . S
C516 H506 0.930 . S
C516 C515 1.400 . S
C516 C519 1.386 . S
H517 C533 0.930 . S
H518 C534 0.931 . S
C519 H507 0.929 . S
C519 C513 1.390 . S
C519 C516 1.386 . S
C520 C515 1.490 . S
C520 C522 1.395 1_554 S
C520 C523 1.403 . S
H521 C527 0.930 . S
C522 H508 0.930 . S
C522 C520 1.395 1_556 S
C522 C525 1.403 . S
C523 C520 1.403 . S
C523 C524 1.524 . S
C523 C527 1.400 . S
C524 H509 0.960 . S
C524 H510 0.960 . S
C524 H511 0.960 . S
C524 C523 1.524 . S
C525 C522 1.403 . S
C525 C526 1.392 . S
C525 C529 1.495 . S
C526 C525 1.392 . S
C526 C527 1.385 1_556 S
C526 C528 1.478 . S
C527 H521 0.930 . S
C527 C523 1.400 . S
C527 C526 1.385 1_554 S
C528 C526 1.478 . S
C528 C530 1.381 . S
C528 C534 1.383 . S
C529 C525 1.495 . S
C529 H535 0.959 . S
C529 H536 0.961 . S
C529 H537 0.960 . S
C530 C528 1.381 . S
C530 C531 1.394 . S
C530 H538 0.930 . S
C531 C530 1.394 . S
C531 C532 1.383 . S
C531 H539 0.929 . S
C532 C531 1.383 . S
C532 C533 1.377 . S
C533 H517 0.930 . S
C533 C532 1.377 . S
C533 C534 1.379 . S
C534 H518 0.931 . S
C534 C528 1.383 . S
C534 C533 1.379 . S
H535 C529 0.959 . S
H536 C529 0.961 . S
H537 C529 0.960 . S
H538 C530 0.930 . S
H539 C531 0.929 . S
H540 C548 0.929 . S
H541 C550 0.930 . S
H542 C552 0.930 . S
H543 C555 0.929 1_556 S
H544 C558 0.930 . S
H545 C560 0.960 . S
H546 C560 0.960 . S
H547 C560 0.960 . S
C548 H540 0.929 . S
C548 C549 1.377 . S
C548 C550 1.384 . S
C549 C548 1.377 . S
C549 C555 1.390 . S
C550 H541 0.930 . S
C550 C548 1.384 . S
C550 C551 1.372 . S
C551 C550 1.372 . S
C551 C552 1.400 . S
C551 C556 1.490 . S
C552 H542 0.930 . S
C552 C551 1.400 . S
C552 C555 1.386 . S
H553 C569 0.930 . S
H554 C570 0.931 . S
C555 H543 0.929 1_554 S
C555 C549 1.390 . S
C555 C552 1.386 . S
C556 C551 1.490 . S
C556 C558 1.395 . S
C556 C559 1.403 . S
H557 C563 0.930 . S
C558 H544 0.930 . S
C558 C556 1.395 . S
C558 C561 1.403 . S
C559 C556 1.403 . S
C559 C560 1.524 . S
C559 C563 1.400 . S
C560 H545 0.960 . S
C560 H546 0.960 . S
C560 H547 0.960 . S
C560 C559 1.524 . S
C561 C558 1.403 . S
C561 C562 1.392 . S
C561 C565 1.495 . S
C562 C561 1.392 . S
C562 C563 1.385 . S
C562 C564 1.478 . S
C563 H557 0.930 . S
C563 C559 1.400 . S
C563 C562 1.385 . S
C564 C562 1.478 . S
C564 C566 1.381 . S
C564 C570 1.383 . S
C565 C561 1.495 . S
C565 H571 0.959 . S
C565 H572 0.961 . S
C565 H573 0.960 . S
C566 C564 1.381 . S
C566 C567 1.394 . S
C566 H574 0.930 . S
C567 C566 1.394 . S
C567 C568 1.383 . S
C567 H575 0.929 . S
C568 C567 1.383 . S
C568 C569 1.377 . S
C569 H553 0.930 . S
C569 C568 1.377 . S
C569 C570 1.379 . S
C570 H554 0.931 . S
C570 C564 1.383 . S
C570 C569 1.379 . S
H571 C565 0.959 . S
H572 C565 0.961 . S
H573 C565 0.960 . S
H574 C566 0.930 . S
H575 C567 0.929 . S
H576 C584 0.929 . S
H577 C586 0.930 . S
H578 C588 0.930 . S
H579 C591 0.929 . S
H580 C594 0.930 . S
H581 C596 0.960 . S
H582 C596 0.960 . S
H583 C596 0.960 . S
C584 H576 0.929 . S
C584 C585 1.377 . S
C584 C586 1.384 . S
C585 C584 1.377 . S
C585 C591 1.390 . S
C586 H577 0.930 . S
C586 C584 1.384 . S
C586 C587 1.372 . S
C587 C586 1.372 . S
C587 C588 1.400 . S
C587 C592 1.490 . S
C588 H578 0.930 . S
C588 C587 1.400 . S
C588 C591 1.386 . S
H589 C605 0.930 . S
H590 C606 0.931 . S
C591 H579 0.929 . S
C591 C585 1.390 . S
C591 C588 1.386 . S
C592 C587 1.490 . S
C592 C594 1.395 . S
C592 C595 1.403 . S
H593 C599 0.930 . S
C594 H580 0.930 . S
C594 C592 1.395 . S
C594 C597 1.403 . S
C595 C592 1.403 . S
C595 C596 1.524 . S
C595 C599 1.400 . S
C596 H581 0.960 . S
C596 H582 0.960 . S
C596 H583 0.960 . S
C596 C595 1.524 . S
C597 C594 1.403 . S
C597 C598 1.392 . S
C597 C601 1.495 . S
C598 C597 1.392 . S
C598 C599 1.385 . S
C598 C600 1.478 . S
C599 H593 0.930 . S
C599 C595 1.400 . S
C599 C598 1.385 . S
C600 C598 1.478 . S
C600 C602 1.381 . S
C600 C606 1.383 . S
C601 C597 1.495 . S
C601 H607 0.959 . S
C601 H608 0.961 . S
C601 H609 0.960 . S
C602 C600 1.381 . S
C602 C603 1.394 . S
C602 H610 0.930 . S
C603 C602 1.394 . S
C603 C604 1.383 . S
C603 H611 0.929 . S
C604 C603 1.383 . S
C604 C605 1.377 . S
C605 H589 0.930 . S
C605 C604 1.377 . S
C605 C606 1.379 . S
C606 H590 0.931 . S
C606 C600 1.383 . S
C606 C605 1.379 . S
H607 C601 0.959 . S
H608 C601 0.961 . S
H609 C601 0.960 . S
H610 C602 0.930 . S
H611 C603 0.929 . S
H612 C620 0.948 . S
H613 C622 0.930 . S
H614 C624 0.930 . S
H615 C627 0.929 . S
H616 C630 0.930 . S
H617 C632 0.960 . S
H618 C632 0.960 . S
H619 C632 0.960 . S
C620 H612 0.948 . S
C620 C621 1.377 . S
C620 C622 1.384 . S
C621 C620 1.377 . S
C621 C627 1.390 . S
C622 H613 0.930 . S
C622 C620 1.384 . S
C622 C623 1.372 . S
C623 C622 1.372 . S
C623 C624 1.400 . S
C623 C628 1.490 . S
C624 H614 0.930 . S
C624 C623 1.400 . S
C624 C627 1.386 . S
H625 C641 0.930 . S
H626 C642 0.931 . S
C627 H615 0.929 . S
C627 C621 1.390 . S
C627 C624 1.386 . S
C628 C623 1.490 . S
C628 C630 1.395 . S
C628 C631 1.403 . S
H629 C635 0.930 . S
C630 H616 0.930 . S
C630 C628 1.395 . S
C630 C633 1.403 . S
C631 C628 1.403 . S
C631 C632 1.524 . S
C631 C635 1.400 . S
C632 H617 0.960 . S
C632 H618 0.960 . S
C632 H619 0.960 . S
C632 C631 1.524 . S
C633 C630 1.403 . S
C633 C634 1.392 . S
C633 C637 1.495 . S
C634 C633 1.392 . S
C634 C635 1.385 . S
C634 C636 1.478 . S
C635 H629 0.930 . S
C635 C631 1.400 . S
C635 C634 1.385 . S
C636 C634 1.478 . S
C636 C638 1.381 . S
C636 C642 1.383 . S
C637 C633 1.495 . S
C637 H643 0.959 . S
C637 H644 0.961 . S
C637 H645 0.960 . S
C638 C636 1.381 . S
C638 C639 1.394 . S
C638 H646 0.930 . S
C639 C638 1.394 . S
C639 C640 1.383 . S
C639 H647 0.929 . S
C640 C639 1.383 . S
C640 C641 1.377 . S
C641 H625 0.930 . S
C641 C640 1.377 . S
C641 C642 1.379 . S
C642 H626 0.931 . S
C642 C636 1.383 . S
C642 C641 1.379 . S
H643 C637 0.959 . S
H644 C637 0.961 . S
H645 C637 0.960 . S
H646 C638 0.930 . S
H647 C639 0.929 . S
H648 C656 0.929 . S
H649 C658 0.930 . S
H650 C660 0.930 . S
H651 C663 0.929 . S
H652 C666 0.930 . S
H653 C668 0.960 . S
H654 C668 0.960 . S
H655 C668 0.960 . S
C656 H648 0.929 . S
C656 C657 1.377 1_556 S
C656 C658 1.384 . S
C657 C656 1.377 1_554 S
C657 C663 1.390 . S
C658 H649 0.930 . S
C658 C656 1.384 . S
C658 C659 1.372 1_556 S
C659 C658 1.372 1_554 S
C659 C660 1.400 . S
C659 C664 1.490 . S
C660 H650 0.930 . S
C660 C659 1.400 . S
C660 C663 1.386 . S
H661 C677 0.930 . S
H662 C678 0.931 . S
C663 H651 0.929 . S
C663 C657 1.390 . S
C663 C660 1.386 . S
C664 C659 1.490 . S
C664 C666 1.395 1_554 S
C664 C667 1.403 . S
H665 C671 0.930 . S
C666 H652 0.930 . S
C666 C664 1.395 1_556 S
C666 C669 1.403 . S
C667 C664 1.403 . S
C667 C668 1.524 . S
C667 C671 1.400 . S
C668 H653 0.960 . S
C668 H654 0.960 . S
C668 H655 0.960 . S
C668 C667 1.524 . S
C669 C666 1.403 . S
C669 C670 1.392 . S
C669 C673 1.495 . S
C670 C669 1.392 . S
C670 C671 1.385 1_556 S
C670 C672 1.478 . S
C671 H665 0.930 . S
C671 C667 1.400 . S
C671 C670 1.385 1_554 S
C672 C670 1.478 . S
C672 C674 1.381 . S
C672 C678 1.383 1_556 S
C673 C669 1.495 . S
C673 H679 0.959 . S
C673 H680 0.961 . S
C673 H681 0.960 . S
C674 C672 1.381 . S
C674 C675 1.394 . S
C674 H682 0.930 . S
C675 C674 1.394 . S
C675 C676 1.383 . S
C675 H683 0.929 . S
C676 C675 1.383 . S
C676 C677 1.377 1_556 S
C677 H661 0.930 . S
C677 C676 1.377 1_554 S
C677 C678 1.379 . S
C678 H662 0.931 . S
C678 C672 1.383 1_554 S
C678 C677 1.379 . S
H679 C673 0.959 . S
H680 C673 0.961 . S
H681 C673 0.960 . S
H682 C674 0.930 . S
H683 C675 0.929 . S
H684 C692 0.929 . S
H685 C694 0.930 . S
H686 C696 0.930 . S
H687 C699 0.929 . S
H688 C702 0.930 . S
H689 C704 0.960 . S
H690 C704 0.960 . S
H691 C704 0.960 . S
C692 H684 0.929 . S
C692 C693 1.377 . S
C692 C694 1.384 . S
C693 C692 1.377 . S
C693 C699 1.390 . S
C694 H685 0.930 . S
C694 C692 1.384 . S
C694 C695 1.372 . S
C695 C694 1.372 . S
C695 C696 1.400 . S
C695 C700 1.490 . S
C696 H686 0.930 . S
C696 C695 1.400 . S
C696 C699 1.386 . S
H697 C713 0.930 . S
H698 C714 0.931 . S
C699 H687 0.929 . S
C699 C693 1.390 . S
C699 C696 1.386 . S
C700 C695 1.490 . S
C700 C702 1.395 . S
C700 C703 1.403 . S
H701 C707 0.930 . S
C702 H688 0.930 . S
C702 C700 1.395 . S
C702 C705 1.403 . S
C703 C700 1.403 . S
C703 C704 1.524 . S
C703 C707 1.400 . S
C704 H689 0.960 . S
C704 H690 0.960 . S
C704 H691 0.960 . S
C704 C703 1.524 . S
C705 C702 1.403 . S
C705 C706 1.392 . S
C705 C709 1.495 . S
C706 C705 1.392 . S
C706 C707 1.385 . S
C706 C708 1.478 . S
C707 H701 0.930 . S
C707 C703 1.400 . S
C707 C706 1.385 . S
C708 C706 1.478 . S
C708 C710 1.381 . S
C708 C714 1.383 . S
C709 C705 1.495 . S
C709 H715 0.959 . S
C709 H716 0.961 . S
C709 H717 0.960 . S
C710 C708 1.381 . S
C710 C711 1.394 . S
C710 H718 0.930 . S
C711 C710 1.394 . S
C711 C712 1.383 . S
C711 H719 0.929 . S
C712 C711 1.383 . S
C712 C713 1.377 . S
C713 H697 0.930 . S
C713 C712 1.377 . S
C713 C714 1.379 . S
C714 H698 0.931 . S
C714 C708 1.383 . S
C714 C713 1.379 . S
H715 C709 0.959 . S
H716 C709 0.961 . S
H717 C709 0.960 . S
H718 C710 0.930 . S
H719 C711 0.929 . S
H720 C728 0.925 . S
H721 C730 0.930 . S
H722 C732 0.930 . S
H723 C735 0.929 . S
H724 C738 0.930 . S
H725 C740 0.960 . S
H726 C740 0.960 . S
H727 C740 0.960 . S
C728 H720 0.925 . S
C728 C729 1.377 . S
C728 C730 1.384 . S
C729 C728 1.377 . S
C729 C735 1.390 . S
C730 H721 0.930 . S
C730 C728 1.384 . S
C730 C731 1.372 . S
C731 C730 1.372 . S
C731 C732 1.400 . S
C731 C736 1.490 . S
C732 H722 0.930 . S
C732 C731 1.400 . S
C732 C735 1.386 . S
H733 C749 0.930 . S
H734 C750 0.931 . S
C735 H723 0.929 . S
C735 C729 1.390 . S
C735 C732 1.386 . S
C736 C731 1.490 . S
C736 C738 1.395 . S
C736 C739 1.403 . S
H737 C743 0.930 . S
C738 H724 0.930 . S
C738 C736 1.395 . S
C738 C741 1.403 . S
C739 C736 1.403 . S
C739 C740 1.524 . S
C739 C743 1.400 . S
C740 H725 0.960 . S
C740 H726 0.960 . S
C740 H727 0.960 . S
C740 C739 1.524 . S
C741 C738 1.403 . S
C741 C742 1.392 . S
C741 C745 1.495 . S
C742 C741 1.392 . S
C742 C743 1.385 . S
C742 C744 1.478 . S
C743 H737 0.930 . S
C743 C739 1.400 . S
C743 C742 1.385 . S
C744 C742 1.478 . S
C744 C746 1.381 . S
C744 C750 1.383 . S
C745 C741 1.495 . S
C745 H751 0.959 . S
C745 H752 0.961 . S
C745 H753 0.960 . S
C746 C744 1.381 . S
C746 C747 1.394 . S
C746 H754 0.930 . S
C747 C746 1.394 . S
C747 C748 1.383 . S
C747 H755 0.929 . S
C748 C747 1.383 . S
C748 C749 1.377 . S
C749 H733 0.930 . S
C749 C748 1.377 . S
C749 C750 1.379 . S
C750 H734 0.931 . S
C750 C744 1.383 . S
C750 C749 1.379 . S
H751 C745 0.959 . S
H752 C745 0.961 . S
H753 C745 0.960 . S
H754 C746 0.930 . S
H755 C747 0.929 . S
H756 C764 0.929 . S
H757 C766 0.930 . S
H758 C768 0.930 . S
H759 C771 0.929 . S
H760 C774 0.930 . S
H761 C776 0.960 . S
H762 C776 0.960 1_556 S
H763 C776 0.960 . S
C764 H756 0.929 . S
C764 C765 1.377 . S
C764 C766 1.384 . S
C765 C764 1.377 . S
C765 C771 1.390 1_556 S
C766 H757 0.930 . S
C766 C764 1.384 . S
C766 C767 1.372 . S
C767 C766 1.372 . S
C767 C768 1.400 1_556 S
C767 C772 1.490 . S
C768 H758 0.930 . S
C768 C767 1.400 1_554 S
C768 C771 1.386 . S
H769 C785 0.930 . S
H770 C786 0.931 . S
C771 H759 0.929 . S
C771 C765 1.390 1_554 S
C771 C768 1.386 . S
C772 C767 1.490 . S
C772 C774 1.395 . S
C772 C775 1.403 1_556 S
H773 C779 0.930 . S
C774 H760 0.930 . S
C774 C772 1.395 . S
C774 C777 1.403 . S
C775 C772 1.403 1_554 S
C775 C776 1.524 . S
C775 C779 1.400 . S
C776 H761 0.960 . S
C776 H762 0.960 1_554 S
C776 H763 0.960 . S
C776 C775 1.524 . S
C777 C774 1.403 . S
C777 C778 1.392 1_556 S
C777 C781 1.495 . S
C778 C777 1.392 1_554 S
C778 C779 1.385 . S
C778 C780 1.478 . S
C779 H773 0.930 . S
C779 C775 1.400 . S
C779 C778 1.385 . S
C780 C778 1.478 . S
C780 C782 1.381 1_554 S
C780 C786 1.383 . S
C781 C777 1.495 . S
C781 H787 0.959 . S
C781 H788 0.961 1_556 S
C781 H789 0.960 . S
C782 C780 1.381 1_556 S
C782 C783 1.394 . S
C782 H790 0.930 . S
C783 C782 1.394 . S
C783 C784 1.383 1_556 S
C783 H791 0.929 . S
C784 C783 1.383 1_554 S
C784 C785 1.377 . S
C785 H769 0.930 . S
C785 C784 1.377 . S
C785 C786 1.379 . S
C786 H770 0.931 . S
C786 C780 1.383 . S
C786 C785 1.379 . S
H787 C781 0.959 . S
H788 C781 0.961 1_554 S
H789 C781 0.960 . S
H790 C782 0.930 . S
H791 C783 0.929 . S
H792 C800 0.929 . S
H793 C802 0.930 . S
H794 C804 0.930 . S
H795 C807 0.929 . S
H796 C810 0.930 . S
H797 C812 0.960 . S
H798 C812 0.960 . S
H799 C812 0.960 . S
C800 H792 0.929 . S
C800 C801 1.377 . S
C800 C802 1.384 . S
C801 C800 1.377 . S
C801 C807 1.390 . S
C802 H793 0.930 . S
C802 C800 1.384 . S
C802 C803 1.372 . S
C803 C802 1.372 . S
C803 C804 1.400 . S
C803 C808 1.490 . S
C804 H794 0.930 . S
C804 C803 1.400 . S
C804 C807 1.386 . S
H805 C821 0.930 . S
H806 C822 0.931 . S
C807 H795 0.929 . S
C807 C801 1.390 . S
C807 C804 1.386 . S
C808 C803 1.490 . S
C808 C810 1.395 . S
C808 C811 1.403 . S
H809 C815 0.930 . S
C810 H796 0.930 . S
C810 C808 1.395 . S
C810 C813 1.403 . S
C811 C808 1.403 . S
C811 C812 1.524 . S
C811 C815 1.400 . S
C812 H797 0.960 . S
C812 H798 0.960 . S
C812 H799 0.960 . S
C812 C811 1.524 . S
C813 C810 1.403 . S
C813 C814 1.392 . S
C813 C817 1.495 . S
C814 C813 1.392 . S
C814 C815 1.385 . S
C814 C816 1.478 . S
C815 H809 0.930 . S
C815 C811 1.400 . S
C815 C814 1.385 . S
C816 C814 1.478 . S
C816 C818 1.381 . S
C816 C822 1.383 . S
C817 C813 1.495 . S
C817 H823 0.959 . S
C817 H824 0.961 . S
C817 H825 0.960 . S
C818 C816 1.381 . S
C818 C819 1.394 . S
C818 H826 0.930 . S
C819 C818 1.394 . S
C819 C820 1.383 . S
C819 H827 0.929 . S
C820 C819 1.383 . S
C820 C821 1.377 . S
C821 H805 0.930 . S
C821 C820 1.377 . S
C821 C822 1.379 . S
C822 H806 0.931 . S
C822 C816 1.383 . S
C822 C821 1.379 . S
H823 C817 0.959 . S
H824 C817 0.961 . S
H825 C817 0.960 . S
H826 C818 0.930 . S
H827 C819 0.929 . S
H828 C836 0.929 . S
H829 C838 0.930 . S
H830 C840 0.930 . S
H831 C843 0.929 . S
H832 C846 0.930 . S
H833 C848 0.960 . S
H834 C848 0.960 . S
H835 C848 0.960 . S
C836 H828 0.929 . S
C836 C837 1.377 . S
C836 C838 1.384 . S
C837 C836 1.377 . S
C837 C843 1.390 . S
C838 H829 0.930 . S
C838 C836 1.384 . S
C838 C839 1.372 . S
C839 C838 1.372 . S
C839 C840 1.400 . S
C839 C844 1.490 . S
C840 H830 0.930 . S
C840 C839 1.400 . S
C840 C843 1.386 . S
H841 C857 0.930 . S
H842 C858 0.931 . S
C843 H831 0.929 . S
C843 C837 1.390 . S
C843 C840 1.386 . S
C844 C839 1.490 . S
C844 C846 1.395 . S
C844 C847 1.403 . S
H845 C851 0.930 . S
C846 H832 0.930 . S
C846 C844 1.395 . S
C846 C849 1.403 . S
C847 C844 1.403 . S
C847 C848 1.524 . S
C847 C851 1.400 . S
C848 H833 0.960 . S
C848 H834 0.960 . S
C848 H835 0.960 . S
C848 C847 1.524 . S
C849 C846 1.403 . S
C849 C850 1.392 . S
C849 C853 1.495 . S
C850 C849 1.392 . S
C850 C851 1.385 . S
C850 C852 1.478 . S
C851 H845 0.930 . S
C851 C847 1.400 . S
C851 C850 1.385 . S
C852 C850 1.478 . S
C852 C854 1.381 . S
C852 C858 1.383 . S
C853 C849 1.495 . S
C853 H859 0.959 . S
C853 H860 0.961 . S
C853 H861 0.960 . S
C854 C852 1.381 . S
C854 C855 1.394 . S
C854 H862 0.930 . S
C855 C854 1.394 . S
C855 C856 1.383 . S
C855 H863 0.929 . S
C856 C855 1.383 . S
C856 C857 1.377 . S
C857 H841 0.930 . S
C857 C856 1.377 . S
C857 C858 1.379 . S
C858 H842 0.931 . S
C858 C852 1.383 . S
C858 C857 1.379 . S
H859 C853 0.959 . S
H860 C853 0.961 . S
H861 C853 0.960 . S
H862 C854 0.930 . S
H863 C855 0.929 . S
C297 C50 1.327 . S
C316 C14 1.286 . S
C333 C39 1.414 . S
C352 C75 1.411 1_554 S
C369 C122 1.321 . S
C388 C86 1.318 . S
C405 C111 1.414 1_556 S
C424 C3 1.409 . S
C441 C158 1.327 . S
C460 C194 1.286 . S
C477 C183 1.413 1_556 S
C496 C219 1.413 . S
C513 C230 1.317 . S
C532 C266 1.337 . S
C549 C147 1.413 1_554 S
C568 C255 1.411 . S
C585 C4 1.432 . S
C604 C256 1.434 . S
C621 C146 1.410 . S
C640 C38 1.396 . S
C657 C184 1.439 . S
C676 C76 1.421 . S
C693 C110 1.408 . S
C712 C218 1.418 . S
C729 C74 1.410 . S
C748 C254 1.394 . S
C765 C148 1.432 . S
C784 C112 1.444 . S
C801 C182 1.412 . S
C820 C2 1.424 . S
C837 C40 1.432 . S
C856 C220 1.441 . S
