# Generated by pormake.
# Topology uns, (4)-cn, num edge types: 1
# Building blocks:
#     Node 0, Type 0, BuildingBlock: MUDLON_clean_sbu_0, # of connection points: 4
#     Node 1, Type 0, BuildingBlock: MUDLON_clean_sbu_0, # of connection points: 4
#     Node 2, Type 0, BuildingBlock: MUDLON_clean_sbu_0, # of connection points: 4
#     Node 3, Type 0, BuildingBlock: MUDLON_clean_sbu_0, # of connection points: 4
#     Node 4, Type 0, BuildingBlock: MUDLON_clean_sbu_0, # of connection points: 4
#     Node 5, Type 0, BuildingBlock: MUDLON_clean_sbu_0, # of connection points: 4
#     Node 6, Type 0, BuildingBlock: MUDLON_clean_sbu_0, # of connection points: 4
#     Node 7, Type 0, BuildingBlock: MUDLON_clean_sbu_0, # of connection points: 4
#     Node 8, Type 0, BuildingBlock: MUDLON_clean_sbu_0, # of connection points: 4
#     Node 9, Type 0, BuildingBlock: MUDLON_clean_sbu_0, # of connection points: 4
#     Node 10, Type 0, BuildingBlock: MUDLON_clean_sbu_0, # of connection points: 4
#     Node 11, Type 0, BuildingBlock: MUDLON_clean_sbu_0, # of connection points: 4
#     Node 12, Type 0, BuildingBlock: MUDLON_clean_sbu_0, # of connection points: 4
#     Node 13, Type 0, BuildingBlock: MUDLON_clean_sbu_0, # of connection points: 4
#     Node 14, Type 0, BuildingBlock: MUDLON_clean_sbu_0, # of connection points: 4
#     Node 15, Type 0, BuildingBlock: MUDLON_clean_sbu_0, # of connection points: 4
#     Node 16, Type 0, BuildingBlock: MUDLON_clean_sbu_0, # of connection points: 4
#     Node 17, Type 0, BuildingBlock: MUDLON_clean_sbu_0, # of connection points: 4
#     Node 18, Type 0, BuildingBlock: MUDLON_clean_sbu_0, # of connection points: 4
#     Node 19, Type 0, BuildingBlock: MUDLON_clean_sbu_0, # of connection points: 4
#     Node 20, Type 0, BuildingBlock: MUDLON_clean_sbu_0, # of connection points: 4
#     Node 21, Type 0, BuildingBlock: MUDLON_clean_sbu_0, # of connection points: 4
#     Node 22, Type 0, BuildingBlock: MUDLON_clean_sbu_0, # of connection points: 4
#     Node 23, Type 0, BuildingBlock: MUDLON_clean_sbu_0, # of connection points: 4
#     Node 24, Type 0, BuildingBlock: MUDLON_clean_sbu_0, # of connection points: 4
#     Node 25, Type 0, BuildingBlock: MUDLON_clean_sbu_0, # of connection points: 4
#     Node 26, Type 0, BuildingBlock: MUDLON_clean_sbu_0, # of connection points: 4
#     Node 27, Type 0, BuildingBlock: MUDLON_clean_sbu_0, # of connection points: 4
#     Node 28, Type 0, BuildingBlock: MUDLON_clean_sbu_0, # of connection points: 4
#     Node 29, Type 0, BuildingBlock: MUDLON_clean_sbu_0, # of connection points: 4
#     Node 30, Type 0, BuildingBlock: MUDLON_clean_sbu_0, # of connection points: 4
#     Node 31, Type 0, BuildingBlock: MUDLON_clean_sbu_0, # of connection points: 4
#     Node 32, Type 0, BuildingBlock: MUDLON_clean_sbu_0, # of connection points: 4
#     Node 33, Type 0, BuildingBlock: MUDLON_clean_sbu_0, # of connection points: 4
#     Node 34, Type 0, BuildingBlock: MUDLON_clean_sbu_0, # of connection points: 4
#     Node 35, Type 0, BuildingBlock: MUDLON_clean_sbu_0, # of connection points: 4
#     Edge 36, Type (0, 0), BuildingBlock: ZUJKAS_clean_linker_0, # of connection points: 2
#     Edge 37, Type (0, 0), BuildingBlock: ZUJKAS_clean_linker_0, # of connection points: 2
#     Edge 38, Type (0, 0), BuildingBlock: ZUJKAS_clean_linker_0, # of connection points: 2
#     Edge 39, Type (0, 0), BuildingBlock: ZUJKAS_clean_linker_0, # of connection points: 2
#     Edge 40, Type (0, 0), BuildingBlock: ZUJKAS_clean_linker_0, # of connection points: 2
#     Edge 41, Type (0, 0), BuildingBlock: ZUJKAS_clean_linker_0, # of connection points: 2
#     Edge 42, Type (0, 0), BuildingBlock: ZUJKAS_clean_linker_0, # of connection points: 2
#     Edge 43, Type (0, 0), BuildingBlock: ZUJKAS_clean_linker_0, # of connection points: 2
#     Edge 44, Type (0, 0), BuildingBlock: ZUJKAS_clean_linker_0, # of connection points: 2
#     Edge 45, Type (0, 0), BuildingBlock: ZUJKAS_clean_linker_0, # of connection points: 2
#     Edge 46, Type (0, 0), BuildingBlock: ZUJKAS_clean_linker_0, # of connection points: 2
#     Edge 47, Type (0, 0), BuildingBlock: ZUJKAS_clean_linker_0, # of connection points: 2
#     Edge 48, Type (0, 0), BuildingBlock: ZUJKAS_clean_linker_0, # of connection points: 2
#     Edge 49, Type (0, 0), BuildingBlock: ZUJKAS_clean_linker_0, # of connection points: 2
#     Edge 50, Type (0, 0), BuildingBlock: ZUJKAS_clean_linker_0, # of connection points: 2
#     Edge 51, Type (0, 0), BuildingBlock: ZUJKAS_clean_linker_0, # of connection points: 2
#     Edge 52, Type (0, 0), BuildingBlock: ZUJKAS_clean_linker_0, # of connection points: 2
#     Edge 53, Type (0, 0), BuildingBlock: ZUJKAS_clean_linker_0, # of connection points: 2
#     Edge 54, Type (0, 0), BuildingBlock: ZUJKAS_clean_linker_0, # of connection points: 2
#     Edge 55, Type (0, 0), BuildingBlock: ZUJKAS_clean_linker_0, # of connection points: 2
#     Edge 56, Type (0, 0), BuildingBlock: ZUJKAS_clean_linker_0, # of connection points: 2
#     Edge 57, Type (0, 0), BuildingBlock: ZUJKAS_clean_linker_0, # of connection points: 2
#     Edge 58, Type (0, 0), BuildingBlock: ZUJKAS_clean_linker_0, # of connection points: 2
#     Edge 59, Type (0, 0), BuildingBlock: ZUJKAS_clean_linker_0, # of connection points: 2
#     Edge 60, Type (0, 0), BuildingBlock: ZUJKAS_clean_linker_0, # of connection points: 2
#     Edge 61, Type (0, 0), BuildingBlock: ZUJKAS_clean_linker_0, # of connection points: 2
#     Edge 62, Type (0, 0), BuildingBlock: ZUJKAS_clean_linker_0, # of connection points: 2
#     Edge 63, Type (0, 0), BuildingBlock: ZUJKAS_clean_linker_0, # of connection points: 2
#     Edge 64, Type (0, 0), BuildingBlock: ZUJKAS_clean_linker_0, # of connection points: 2
#     Edge 65, Type (0, 0), BuildingBlock: ZUJKAS_clean_linker_0, # of connection points: 2
#     Edge 66, Type (0, 0), BuildingBlock: ZUJKAS_clean_linker_0, # of connection points: 2
#     Edge 67, Type (0, 0), BuildingBlock: ZUJKAS_clean_linker_0, # of connection points: 2
#     Edge 68, Type (0, 0), BuildingBlock: ZUJKAS_clean_linker_0, # of connection points: 2
#     Edge 69, Type (0, 0), BuildingBlock: ZUJKAS_clean_linker_0, # of connection points: 2
#     Edge 70, Type (0, 0), BuildingBlock: ZUJKAS_clean_linker_0, # of connection points: 2
#     Edge 71, Type (0, 0), BuildingBlock: ZUJKAS_clean_linker_0, # of connection points: 2
#     Edge 72, Type (0, 0), BuildingBlock: ZUJKAS_clean_linker_0, # of connection points: 2
#     Edge 73, Type (0, 0), BuildingBlock: ZUJKAS_clean_linker_0, # of connection points: 2
#     Edge 74, Type (0, 0), BuildingBlock: ZUJKAS_clean_linker_0, # of connection points: 2
#     Edge 75, Type (0, 0), BuildingBlock: ZUJKAS_clean_linker_0, # of connection points: 2
#     Edge 76, Type (0, 0), BuildingBlock: ZUJKAS_clean_linker_0, # of connection points: 2
#     Edge 77, Type (0, 0), BuildingBlock: ZUJKAS_clean_linker_0, # of connection points: 2
#     Edge 78, Type (0, 0), BuildingBlock: ZUJKAS_clean_linker_0, # of connection points: 2
#     Edge 79, Type (0, 0), BuildingBlock: ZUJKAS_clean_linker_0, # of connection points: 2
#     Edge 80, Type (0, 0), BuildingBlock: ZUJKAS_clean_linker_0, # of connection points: 2
#     Edge 81, Type (0, 0), BuildingBlock: ZUJKAS_clean_linker_0, # of connection points: 2
#     Edge 82, Type (0, 0), BuildingBlock: ZUJKAS_clean_linker_0, # of connection points: 2
#     Edge 83, Type (0, 0), BuildingBlock: ZUJKAS_clean_linker_0, # of connection points: 2
#     Edge 84, Type (0, 0), BuildingBlock: ZUJKAS_clean_linker_0, # of connection points: 2
#     Edge 85, Type (0, 0), BuildingBlock: ZUJKAS_clean_linker_0, # of connection points: 2
#     Edge 86, Type (0, 0), BuildingBlock: ZUJKAS_clean_linker_0, # of connection points: 2
#     Edge 87, Type (0, 0), BuildingBlock: ZUJKAS_clean_linker_0, # of connection points: 2
#     Edge 88, Type (0, 0), BuildingBlock: ZUJKAS_clean_linker_0, # of connection points: 2
#     Edge 89, Type (0, 0), BuildingBlock: ZUJKAS_clean_linker_0, # of connection points: 2
#     Edge 90, Type (0, 0), BuildingBlock: ZUJKAS_clean_linker_0, # of connection points: 2
#     Edge 91, Type (0, 0), BuildingBlock: ZUJKAS_clean_linker_0, # of connection points: 2
#     Edge 92, Type (0, 0), BuildingBlock: ZUJKAS_clean_linker_0, # of connection points: 2
#     Edge 93, Type (0, 0), BuildingBlock: ZUJKAS_clean_linker_0, # of connection points: 2
#     Edge 94, Type (0, 0), BuildingBlock: ZUJKAS_clean_linker_0, # of connection points: 2
#     Edge 95, Type (0, 0), BuildingBlock: ZUJKAS_clean_linker_0, # of connection points: 2
#     Edge 96, Type (0, 0), BuildingBlock: ZUJKAS_clean_linker_0, # of connection points: 2
#     Edge 97, Type (0, 0), BuildingBlock: ZUJKAS_clean_linker_0, # of connection points: 2
#     Edge 98, Type (0, 0), BuildingBlock: ZUJKAS_clean_linker_0, # of connection points: 2
#     Edge 99, Type (0, 0), BuildingBlock: ZUJKAS_clean_linker_0, # of connection points: 2
#     Edge 100, Type (0, 0), BuildingBlock: ZUJKAS_clean_linker_0, # of connection points: 2
#     Edge 101, Type (0, 0), BuildingBlock: ZUJKAS_clean_linker_0, # of connection points: 2
#     Edge 102, Type (0, 0), BuildingBlock: ZUJKAS_clean_linker_0, # of connection points: 2
#     Edge 103, Type (0, 0), BuildingBlock: ZUJKAS_clean_linker_0, # of connection points: 2
#     Edge 104, Type (0, 0), BuildingBlock: ZUJKAS_clean_linker_0, # of connection points: 2
#     Edge 105, Type (0, 0), BuildingBlock: ZUJKAS_clean_linker_0, # of connection points: 2
#     Edge 106, Type (0, 0), BuildingBlock: ZUJKAS_clean_linker_0, # of connection points: 2
#     Edge 107, Type (0, 0), BuildingBlock: ZUJKAS_clean_linker_0, # of connection points: 2
# Relax obj value: 0.028
# Max RMSD: 0.173
# Mean RMSD: 0.173
data_MOF--net-uns--node1-MUDLON_clean_sbu_0--edge1-ZUJKAS_clean_linker_0
_symmetry_space_group_name_H-M    P1
_symmetry_Int_Tables_number       1
_symmetry_cell_setting            triclinic
loop_
_symmetry_equiv_pos_as_xyz
'x, y, z'
_cell_length_a     75.742111
_cell_length_b     75.757598
_cell_length_c     73.94317
_cell_angle_alpha  89.874189
_cell_angle_beta   89.980759
_cell_angle_gamma 119.96561
loop_
_atom_site_label
_atom_site_type_symbol
_atom_site_fract_x
_atom_site_fract_y
_atom_site_fract_z
_atom_type_partial_charge
Mg0 Mg 0.28355 0.19734 0.07221 0.0
C1 C 0.30539 0.2422 0.07414 0.0
O2 O 0.28688 0.23682 0.07962 0.0
C3 C 0.26523 0.1585 0.053 0.0
O4 O 0.25129 0.1567 0.06462 0.0
C5 C 0.29874 0.19949 0.1106 0.0
O6 O 0.30526 0.21891 0.1078 0.0
O7 O 0.2876 0.18667 0.09863 0.0
O8 O 0.3092 0.22835 0.06919 0.0
O9 O 0.25605 0.19936 0.06736 0.0
C10 C 0.2563 0.20651 0.05168 0.0
O11 O 0.27187 0.2109 0.04104 0.0
O12 O 0.28209 0.17523 0.05253 0.0
Mg13 Mg 0.82528 0.0918 0.06507 0.0
C14 C 0.82571 0.05659 0.04756 0.0
O15 O 0.8338 0.0708 0.03505 0.0
C16 C 0.83323 0.12252 0.09248 0.0
O17 O 0.82912 0.1293 0.0776 0.0
C18 C 0.86606 0.12448 0.05093 0.0
O19 O 0.86964 0.12588 0.0684 0.0
O20 O 0.84827 0.11178 0.0453 0.0
O21 O 0.82119 0.06114 0.06278 0.0
O22 O 0.79515 0.08833 0.06182 0.0
C23 C 0.7804 0.07265 0.05468 0.0
O24 O 0.78403 0.05946 0.0464 0.0
O25 O 0.83363 0.10592 0.09174 0.0
Mg26 Mg 0.93515 0.73862 0.06744 0.0
C27 C 0.9749 0.76429 0.0513 0.0
O28 O 0.96517 0.7484 0.04068 0.0
C29 C 0.90727 0.7131 0.09619 0.0
O30 O 0.90507 0.70038 0.08319 0.0
C31 C 0.8976 0.73496 0.04799 0.0
O32 O 0.88792 0.72265 0.06155 0.0
O33 O 0.9168 0.74256 0.04665 0.0
O34 O 0.96568 0.76536 0.06531 0.0
O35 O 0.94119 0.71347 0.06435 0.0
C36 C 0.95261 0.71389 0.07718 0.0
O37 O 0.95885 0.72868 0.08908 0.0
O38 O 0.91943 0.73208 0.09365 0.0
Mg39 Mg 0.2055 0.28239 0.45148 0.0
C40 C 0.2231 0.25934 0.4689 0.0
O41 O 0.23323 0.27746 0.47632 0.0
C42 C 0.18288 0.28795 0.41992 0.0
O43 O 0.17029 0.28629 0.4329 0.0
C44 C 0.17955 0.27555 0.48571 0.0
O45 O 0.19291 0.27153 0.49314 0.0
O46 O 0.18187 0.28129 0.46927 0.0
O47 O 0.20951 0.2562 0.45718 0.0
O48 O 0.23587 0.30912 0.45319 0.0
C49 C 0.24721 0.30825 0.44091 0.0
O50 O 0.2394 0.29226 0.43024 0.0
O51 O 0.19764 0.28503 0.4236 0.0
Mg52 Mg 0.75303 0.9321 0.45284 0.0
C53 C 0.7926 0.96772 0.46665 0.0
O54 O 0.79247 0.95296 0.47612 0.0
C55 C 0.73291 0.90065 0.42543 0.0
O56 O 0.72388 0.89199 0.44074 0.0
C57 C 0.75369 0.90835 0.48738 0.0
O58 O 0.74549 0.91772 0.49587 0.0
O59 O 0.75756 0.91154 0.47056 0.0
O60 O 0.7786 0.96329 0.45504 0.0
O61 O 0.72557 0.93401 0.4567 0.0
C62 C 0.7263 0.94969 0.46369 0.0
O63 O 0.74309 0.96308 0.47187 0.0
O64 O 0.74774 0.91889 0.42587 0.0
Mg65 Mg 0.09401 0.8199 0.45165 0.0
C66 C 0.09853 0.7824 0.44731 0.0
O67 O 0.11465 0.79531 0.438 0.0
C68 C 0.11212 0.85835 0.47252 0.0
O69 O 0.09809 0.85912 0.46266 0.0
C70 C 0.12723 0.83823 0.42397 0.0
O71 O 0.1376 0.84369 0.43915 0.0
O72 O 0.10783 0.82875 0.42479 0.0
O73 O 0.08844 0.78902 0.45586 0.0
O74 O 0.06413 0.81752 0.45447 0.0
C75 C 0.04791 0.8003 0.45304 0.0
O76 O 0.04935 0.78447 0.44793 0.0
O77 O 0.11422 0.84273 0.47119 0.0
Mg78 Mg 0.75093 0.82294 0.9515 0.0
C79 C 0.78919 0.82467 0.96635 0.0
O80 O 0.78834 0.83803 0.97707 0.0
C81 C 0.73073 0.83557 0.92502 0.0
O82 O 0.72131 0.83398 0.94039 0.0
C83 C 0.76703 0.86434 0.96598 0.0
O84 O 0.77624 0.86706 0.95031 0.0
O85 O 0.7545 0.8462 0.97099 0.0
O86 O 0.77632 0.81697 0.95355 0.0
O87 O 0.72403 0.79289 0.95445 0.0
C88 C 0.72082 0.78253 0.94004 0.0
O89 O 0.73331 0.79102 0.92632 0.0
O90 O 0.74594 0.83273 0.92512 0.0
Mg91 Mg 0.20563 0.92985 0.95435 0.0
C92 C 0.25052 0.95114 0.95191 0.0
O93 O 0.24601 0.96504 0.94683 0.0
C94 C 0.16786 0.91255 0.97652 0.0
O95 O 0.16811 0.92806 0.96829 0.0
C96 C 0.19639 0.89954 0.92644 0.0
O97 O 0.20144 0.89284 0.94082 0.0
O98 O 0.1961 0.91616 0.92768 0.0
O99 O 0.23616 0.93382 0.95705 0.0
O100 O 0.20919 0.96011 0.9581 0.0
C101 C 0.2137 0.96663 0.97425 0.0
O102 O 0.21474 0.9546 0.98651 0.0
O103 O 0.18253 0.90921 0.97367 0.0
Mg104 Mg 0.09512 0.27411 0.94792 0.0
C105 C 0.05829 0.24034 0.96597 0.0
O106 O 0.07123 0.24798 0.97945 0.0
C107 C 0.10483 0.28788 0.90909 0.0
O108 O 0.08958 0.29115 0.91199 0.0
C109 C 0.11301 0.25263 0.9679 0.0
O110 O 0.09938 0.23829 0.95745 0.0
O111 O 0.11501 0.27035 0.96718 0.0
O112 O 0.0642 0.24779 0.9502 0.0
O113 O 0.09229 0.30127 0.95122 0.0
C114 C 0.07509 0.29934 0.95534 0.0
O115 O 0.06032 0.2814 0.96051 0.0
O116 O 0.10951 0.27914 0.92137 0.0
Mg117 Mg 0.82732 0.7433 0.56767 0.0
C118 C 0.81213 0.77421 0.57286 0.0
O119 O 0.80198 0.76252 0.58662 0.0
C120 C 0.82287 0.729 0.60624 0.0
O121 O 0.80404 0.72434 0.60267 0.0
C122 C 0.8661 0.7634 0.54681 0.0
O123 O 0.86706 0.77848 0.55634 0.0
O124 O 0.85039 0.74581 0.54843 0.0
O125 O 0.824 0.77016 0.56386 0.0
O126 O 0.79747 0.71624 0.56414 0.0
C127 C 0.7823 0.71725 0.55804 0.0
O128 O 0.78527 0.73457 0.55128 0.0
O129 O 0.83664 0.73889 0.59447 0.0
Mg130 Mg 0.28184 0.0887 0.56731 0.0
C131 C 0.3073 0.06934 0.55759 0.0
O132 O 0.28981 0.05547 0.55081 0.0
C133 C 0.26151 0.10867 0.54913 0.0
O134 O 0.24742 0.09559 0.56017 0.0
C135 C 0.30166 0.12075 0.59432 0.0
O136 O 0.3107 0.12916 0.57894 0.0
O137 O 0.28693 0.10244 0.59407 0.0
O138 O 0.30884 0.08572 0.56374 0.0
O139 O 0.25531 0.05809 0.56441 0.0
C140 C 0.2487 0.0528 0.54836 0.0
O141 O 0.25726 0.06624 0.53529 0.0
O142 O 0.27866 0.10937 0.54863 0.0
Mg143 Mg 0.94105 0.19807 0.57039 0.0
C144 C 0.98743 0.21905 0.57162 0.0
O145 O 0.98505 0.23303 0.57992 0.0
C146 C 0.90701 0.18007 0.59646 0.0
O147 O 0.89822 0.17977 0.58106 0.0
C148 C 0.92168 0.15898 0.55131 0.0
O149 O 0.93262 0.15699 0.5641 0.0
O150 O 0.92203 0.17591 0.54994 0.0
O151 O 0.97169 0.20236 0.56725 0.0
O152 O 0.94451 0.22852 0.56828 0.0
C153 C 0.94426 0.23673 0.58324 0.0
O154 O 0.94085 0.22616 0.5982 0.0
O155 O 0.92597 0.18592 0.59637 0.0
Mg156 Mg 0.95046 0.53168 0.40087 0.0
C157 C 0.97686 0.57663 0.3908 0.0
O158 O 0.95992 0.57352 0.38309 0.0
C159 C 0.93053 0.4925 0.381 0.0
O160 O 0.91635 0.49059 0.39238 0.0
C161 C 0.96551 0.53457 0.43908 0.0
O162 O 0.97166 0.55383 0.43579 0.0
O163 O 0.95459 0.52132 0.42732 0.0
O164 O 0.97757 0.56156 0.3976 0.0
O165 O 0.92375 0.53532 0.3976 0.0
C166 C 0.92085 0.54828 0.40605 0.0
O167 O 0.93363 0.55923 0.41888 0.0
O168 O 0.9476 0.50903 0.38107 0.0
Mg169 Mg 0.49543 0.42531 0.39971 0.0
C170 C 0.47819 0.38459 0.38298 0.0
O171 O 0.47057 0.39379 0.37335 0.0
C172 C 0.51597 0.45719 0.42816 0.0
O173 O 0.52274 0.46799 0.41324 0.0
C174 C 0.52821 0.43917 0.37062 0.0
O175 O 0.52249 0.41971 0.37123 0.0
O176 O 0.51894 0.44573 0.3805 0.0
O177 O 0.49001 0.39427 0.39607 0.0
O178 O 0.46546 0.42244 0.39607 0.0
C179 C 0.4591 0.43127 0.4067 0.0
O180 O 0.4718 0.44447 0.41844 0.0
O181 O 0.50491 0.43791 0.42688 0.0
Mg182 Mg 0.60605 0.07642 0.40076 0.0
C183 C 0.64261 0.11035 0.38322 0.0
O184 O 0.63028 0.10129 0.36956 0.0
C185 C 0.57735 0.05108 0.42879 0.0
O186 O 0.57419 0.03883 0.4151 0.0
C187 C 0.5869 0.09679 0.38138 0.0
O188 O 0.59934 0.11062 0.39289 0.0
O189 O 0.58616 0.07962 0.38109 0.0
O190 O 0.63636 0.10363 0.39913 0.0
O191 O 0.61078 0.05041 0.39766 0.0
C192 C 0.62672 0.05144 0.39093 0.0
O193 O 0.64004 0.0682 0.38263 0.0
O194 O 0.59062 0.06989 0.42703 0.0
Mg195 Mg 0.872 0.60988 0.78051 0.0
C196 C 0.88905 0.5857 0.79571 0.0
O197 O 0.89601 0.60177 0.80621 0.0
C198 C 0.84649 0.6147 0.75066 0.0
O199 O 0.8325 0.60803 0.76338 0.0
C200 C 0.84235 0.61692 0.80433 0.0
O201 O 0.85087 0.63479 0.79629 0.0
O202 O 0.8487 0.60463 0.80067 0.0
O203 O 0.87753 0.58421 0.78255 0.0
O204 O 0.90199 0.63648 0.78473 0.0
C205 C 0.90778 0.65269 0.77555 0.0
O206 O 0.89432 0.65451 0.76574 0.0
O207 O 0.86324 0.61513 0.7537 0.0
Mg208 Mg 0.41366 0.26301 0.78501 0.0
C209 C 0.44709 0.29913 0.80351 0.0
O210 O 0.43908 0.2857 0.81665 0.0
C211 C 0.39455 0.23044 0.75835 0.0
O212 O 0.38542 0.22216 0.77373 0.0
C213 C 0.43303 0.24169 0.802 0.0
O214 O 0.44554 0.25234 0.78885 0.0
O215 O 0.41703 0.24295 0.80432 0.0
O216 O 0.43992 0.2938 0.78762 0.0
O217 O 0.38643 0.26568 0.78756 0.0
C218 C 0.38658 0.2808 0.79517 0.0
O219 O 0.4028 0.29375 0.80428 0.0
O220 O 0.40911 0.24883 0.7585 0.0
Mg221 Mg 0.76521 0.1585 0.78455 0.0
C222 C 0.75808 0.1188 0.77086 0.0
O223 O 0.75951 0.12911 0.75611 0.0
C224 C 0.78592 0.19723 0.80442 0.0
O225 O 0.77458 0.19978 0.79243 0.0
C226 C 0.79908 0.17474 0.75843 0.0
O227 O 0.80748 0.1741 0.77378 0.0
O228 O 0.78045 0.17016 0.75856 0.0
O229 O 0.7604 0.1275 0.78612 0.0
O230 O 0.73525 0.1559 0.78799 0.0
C231 C 0.71888 0.13918 0.78502 0.0
O232 O 0.72009 0.12394 0.77795 0.0
O233 O 0.78523 0.18009 0.80498 0.0
Mg234 Mg 0.41432 0.15378 0.2876 0.0
C235 C 0.4558 0.1528 0.28698 0.0
O236 O 0.46275 0.16742 0.27481 0.0
C237 C 0.40208 0.15107 0.24853 0.0
O238 O 0.39517 0.13171 0.25211 0.0
C239 C 0.43585 0.19168 0.30994 0.0
O240 O 0.45117 0.19054 0.30288 0.0
O241 O 0.41777 0.17763 0.30638 0.0
O242 O 0.43784 0.14572 0.29318 0.0
O243 O 0.38553 0.12516 0.28987 0.0
C244 C 0.38522 0.10964 0.29683 0.0
O245 O 0.40152 0.11207 0.30531 0.0
O246 O 0.41277 0.16425 0.26041 0.0
Mg247 Mg 0.86831 0.26552 0.28318 0.0
C248 C 0.90787 0.27314 0.2683 0.0
O249 O 0.89709 0.27128 0.25379 0.0
C250 C 0.84114 0.2518 0.31668 0.0
O251 O 0.84845 0.27154 0.31806 0.0
C252 C 0.85338 0.23174 0.25754 0.0
O253 O 0.85693 0.22468 0.27253 0.0
O254 O 0.85582 0.24963 0.25767 0.0
O255 O 0.89954 0.2709 0.28376 0.0
O256 O 0.87049 0.29532 0.28634 0.0
C257 C 0.88722 0.31166 0.28322 0.0
O258 O 0.90244 0.31036 0.27615 0.0
O259 O 0.84777 0.24516 0.30414 0.0
Mg260 Mg 0.76559 0.61338 0.28987 0.0
C261 C 0.72115 0.57633 0.2866 0.0
O262 O 0.72357 0.57927 0.26905 0.0
C263 C 0.79475 0.61976 0.25943 0.0
O264 O 0.80625 0.62147 0.27336 0.0
C265 C 0.78311 0.6039 0.32331 0.0
O266 O 0.76396 0.59515 0.32845 0.0
O267 O 0.78827 0.6136 0.30838 0.0
O268 O 0.73587 0.58742 0.29711 0.0
O269 O 0.76146 0.63989 0.29063 0.0
C270 C 0.75002 0.6392 0.2777 0.0
O271 O 0.74287 0.6236 0.26663 0.0
O272 O 0.77618 0.61456 0.26215 0.0
Mg273 Mg 0.49334 0.07208 0.8968 0.0
C274 C 0.49401 0.11394 0.89455 0.0
O275 O 0.51258 0.12234 0.9011 0.0
C276 C 0.49039 0.06199 0.93634 0.0
O277 O 0.47158 0.05763 0.93306 0.0
C278 C 0.53498 0.09227 0.88063 0.0
O279 O 0.53734 0.10365 0.89481 0.0
O280 O 0.51742 0.07698 0.8776 0.0
O281 O 0.48384 0.09473 0.8924 0.0
O282 O 0.46542 0.04273 0.89465 0.0
C283 C 0.44962 0.04146 0.88735 0.0
O284 O 0.45136 0.05724 0.87836 0.0
O285 O 0.50368 0.07031 0.9239 0.0
Mg286 Mg 0.9556 0.42554 0.89659 0.0
C287 C 0.98143 0.40668 0.88509 0.0
O288 O 0.96521 0.39471 0.87548 0.0
C289 C 0.94041 0.44038 0.86504 0.0
O290 O 0.92824 0.42067 0.86305 0.0
C291 C 0.97286 0.45838 0.92386 0.0
O292 O 0.97998 0.46813 0.90848 0.0
O293 O 0.9605 0.43925 0.92341 0.0
O294 O 0.98201 0.42157 0.89351 0.0
O295 O 0.92821 0.39564 0.89342 0.0
C296 C 0.92648 0.3792 0.89974 0.0
O297 O 0.9409 0.38017 0.91028 0.0
O298 O 0.95395 0.44667 0.87734 0.0
Mg299 Mg 0.60535 0.53108 0.89917 0.0
C300 C 0.64808 0.55319 0.88597 0.0
O301 O 0.64027 0.56401 0.87961 0.0
C302 C 0.5719 0.51286 0.92541 0.0
O303 O 0.56328 0.51369 0.91025 0.0
C304 C 0.58895 0.49429 0.87616 0.0
O305 O 0.60343 0.49367 0.88543 0.0
O306 O 0.58621 0.50941 0.87845 0.0
O307 O 0.63678 0.53751 0.89554 0.0
O308 O 0.607 0.56076 0.89903 0.0
C309 C 0.61018 0.56908 0.91455 0.0
O310 O 0.61129 0.55911 0.92864 0.0
O311 O 0.59068 0.51801 0.92506 0.0
Mg312 Mg 0.61533 0.86271 0.73546 0.0
C313 C 0.64727 0.90271 0.74919 0.0
O314 O 0.63784 0.89269 0.76391 0.0
C315 C 0.6004 0.83338 0.70354 0.0
O316 O 0.58675 0.83923 0.70297 0.0
C317 C 0.63413 0.84791 0.76147 0.0
O318 O 0.6439 0.85 0.74622 0.0
O319 O 0.61918 0.85117 0.76139 0.0
O320 O 0.64144 0.8937 0.734 0.0
O321 O 0.58787 0.86521 0.73216 0.0
C322 C 0.58822 0.88191 0.73527 0.0
O323 O 0.60467 0.89709 0.7424 0.0
O324 O 0.61479 0.84154 0.71504 0.0
Mg325 Mg 0.15871 0.75758 0.73309 0.0
C326 C 0.16257 0.72094 0.72286 0.0
O327 O 0.17801 0.73517 0.7137 0.0
C328 C 0.1652 0.78852 0.76035 0.0
O329 O 0.15936 0.7943 0.74587 0.0
C330 C 0.18827 0.79154 0.70621 0.0
O331 O 0.17627 0.7993 0.70815 0.0
O332 O 0.18394 0.77506 0.71438 0.0
O333 O 0.15255 0.7261 0.73328 0.0
O334 O 0.12965 0.75572 0.72695 0.0
C335 C 0.11471 0.73887 0.72172 0.0
O336 O 0.11804 0.72402 0.71725 0.0
O337 O 0.16688 0.77263 0.75937 0.0
Mg338 Mg 0.26747 0.4082 0.7317 0.0
C339 C 0.30456 0.43931 0.71189 0.0
O340 O 0.29177 0.42973 0.69865 0.0
C341 C 0.23481 0.3982 0.75939 0.0
O342 O 0.22461 0.39548 0.74431 0.0
C343 C 0.2506 0.42855 0.70822 0.0
O344 O 0.26584 0.44418 0.71626 0.0
O345 O 0.24735 0.41069 0.71173 0.0
O346 O 0.29858 0.4339 0.72812 0.0
O347 O 0.26978 0.38064 0.73081 0.0
C348 C 0.28424 0.37977 0.7229 0.0
O349 O 0.29664 0.3949 0.71235 0.0
O350 O 0.25398 0.40525 0.7585 0.0
Mg351 Mg 0.53396 0.94456 0.11551 0.0
C352 C 0.54032 0.91354 0.13461 0.0
O353 O 0.53586 0.92218 0.14786 0.0
C354 C 0.51215 0.95567 0.08812 0.0
O355 O 0.50531 0.95893 0.10335 0.0
C356 C 0.49479 0.92216 0.13506 0.0
O357 O 0.49455 0.9087 0.12374 0.0
O358 O 0.51038 0.93997 0.13521 0.0
O359 O 0.54021 0.9194 0.11847 0.0
O360 O 0.56332 0.97254 0.11733 0.0
C361 C 0.57856 0.97362 0.12557 0.0
O362 O 0.57583 0.95846 0.13607 0.0
O363 O 0.5237 0.94794 0.08878 0.0
Mg364 Mg 0.0874 0.59894 0.11363 0.0
C365 C 0.11031 0.64061 0.12892 0.0
O366 O 0.09294 0.63215 0.13778 0.0
C367 C 0.07516 0.56668 0.0855 0.0
O368 O 0.07064 0.5561 0.10059 0.0
C369 C 0.09962 0.58419 0.14787 0.0
O370 O 0.10639 0.603 0.15326 0.0
O371 O 0.09064 0.57856 0.13267 0.0
O372 O 0.11306 0.63005 0.11703 0.0
O373 O 0.06023 0.60165 0.11745 0.0
C374 C 0.04492 0.59277 0.10698 0.0
O375 O 0.04428 0.57952 0.09521 0.0
O376 O 0.084 0.58604 0.08651 0.0
Mg377 Mg 0.43285 0.49501 0.1149 0.0
C378 C 0.41861 0.45393 0.10388 0.0
O379 O 0.4133 0.46271 0.09134 0.0
C380 C 0.45769 0.53586 0.13053 0.0
O381 O 0.45071 0.53907 0.11534 0.0
C382 C 0.46561 0.50789 0.08822 0.0
O383 O 0.47391 0.50726 0.10364 0.0
O384 O 0.44732 0.50438 0.08839 0.0
O385 O 0.42831 0.46444 0.11758 0.0
O386 O 0.40227 0.49083 0.11795 0.0
C387 C 0.39652 0.489 0.13437 0.0
O388 O 0.40953 0.49103 0.14707 0.0
O389 O 0.45279 0.51764 0.13461 0.0
Mg390 Mg 0.08061 0.49124 0.61838 0.0
C391 C 0.11451 0.47904 0.61477 0.0
O392 O 0.10865 0.47429 0.5979 0.0
C393 C 0.06819 0.48859 0.57934 0.0
O394 O 0.06164 0.46928 0.5828 0.0
C395 C 0.10016 0.5302 0.63785 0.0
O396 O 0.11447 0.53126 0.62708 0.0
O397 O 0.08273 0.51413 0.63751 0.0
O398 O 0.10627 0.4867 0.62461 0.0
O399 O 0.0533 0.46147 0.62068 0.0
C400 C 0.05399 0.44679 0.62835 0.0
O401 O 0.07049 0.45056 0.63729 0.0
O402 O 0.07861 0.50177 0.59132 0.0
Mg403 Mg 0.53904 0.59842 0.61728 0.0
C404 C 0.57615 0.59309 0.61262 0.0
O405 O 0.5633 0.5775 0.60282 0.0
C406 C 0.49773 0.57554 0.63282 0.0
O407 O 0.49551 0.58415 0.61821 0.0
C408 C 0.52039 0.56544 0.58944 0.0
O409 O 0.51451 0.5549 0.60456 0.0
O410 O 0.53029 0.58483 0.59035 0.0
O411 O 0.56958 0.60301 0.62151 0.0
O412 O 0.54313 0.62903 0.61993 0.0
C413 C 0.55476 0.63928 0.63294 0.0
O414 O 0.56263 0.63067 0.64307 0.0
O415 O 0.51548 0.5787 0.63664 0.0
Mg416 Mg 0.42832 0.94122 0.61724 0.0
C417 C 0.39158 0.91009 0.63671 0.0
O418 O 0.40462 0.91947 0.64984 0.0
C419 C 0.46144 0.95236 0.58922 0.0
O420 O 0.47218 0.95508 0.60395 0.0
C421 C 0.44809 0.92214 0.63773 0.0
O422 O 0.43625 0.90793 0.62622 0.0
O423 O 0.44815 0.93899 0.63756 0.0
O424 O 0.3975 0.91528 0.62046 0.0
O425 O 0.42386 0.96747 0.61871 0.0
C426 C 0.41639 0.96953 0.60395 0.0
O427 O 0.41281 0.95642 0.59089 0.0
O428 O 0.44226 0.9449 0.59058 0.0
Mg429 Mg 0.1653 0.41574 0.23408 0.0
C430 C 0.15039 0.44659 0.23789 0.0
O431 O 0.1367 0.43241 0.24847 0.0
C432 C 0.1726 0.39109 0.25981 0.0
O433 O 0.1655 0.38005 0.24509 0.0
C434 C 0.2054 0.42728 0.21885 0.0
O435 O 0.20916 0.43504 0.23522 0.0
O436 O 0.18692 0.41715 0.21369 0.0
O437 O 0.16465 0.44421 0.23144 0.0
O438 O 0.13368 0.39104 0.23148 0.0
C439 C 0.12402 0.38555 0.24644 0.0
O440 O 0.13368 0.39469 0.26133 0.0
O441 O 0.17534 0.40911 0.25969 0.0
Mg442 Mg 0.62131 0.7636 0.23301 0.0
C443 C 0.64546 0.74607 0.24421 0.0
O444 O 0.62866 0.7376 0.25392 0.0
C445 C 0.60557 0.7779 0.20161 0.0
O446 O 0.5925 0.75828 0.20093 0.0
C447 C 0.63913 0.79563 0.26017 0.0
O448 O 0.64904 0.80413 0.24513 0.0
O449 O 0.62446 0.77732 0.25954 0.0
O450 O 0.64773 0.75934 0.23244 0.0
O451 O 0.59532 0.73288 0.22911 0.0
C452 C 0.59789 0.72344 0.21605 0.0
O453 O 0.61497 0.73287 0.20679 0.0
O454 O 0.62005 0.78444 0.21305 0.0
Mg455 Mg 0.26762 0.86369 0.23385 0.0
C456 C 0.30404 0.85684 0.22609 0.0
O457 O 0.28992 0.83755 0.22486 0.0
C458 C 0.23445 0.84569 0.26079 0.0
O459 O 0.22507 0.84495 0.24562 0.0
C460 C 0.25317 0.83756 0.19897 0.0
O461 O 0.27231 0.84874 0.194 0.0
O462 O 0.2474 0.84141 0.21388 0.0
O463 O 0.2989 0.86988 0.23049 0.0
O464 O 0.2704 0.89385 0.23263 0.0
C465 C 0.27435 0.90277 0.24791 0.0
O466 O 0.27565 0.89309 0.26215 0.0
O467 O 0.25348 0.85189 0.26022 0.0
H468 H 0.32328 0.22343 0.13785 0.0
H469 H 0.34071 0.21454 0.16079 0.0
H470 H 0.31079 0.1527 0.14129 0.0
H471 H 0.29345 0.16154 0.11803 0.0
H472 H 0.3265 0.18594 0.18848 0.0
H473 H 0.37115 0.16944 0.13857 0.0
H474 H 0.35727 0.1822 0.13245 0.0
H475 H 0.34402 0.15502 0.13549 0.0
C476 C 0.32023 0.20787 0.13849 0.0
C477 C 0.30706 0.19324 0.12597 0.0
C478 C 0.33025 0.20283 0.15164 0.0
C479 C 0.32742 0.18308 0.15252 0.0
C480 C 0.31359 0.16817 0.14059 0.0
H481 H 0.37782 0.12631 0.22146 0.0
H482 H 0.36049 0.13459 0.19789 0.0
C483 C 0.30352 0.1732 0.1274 0.0
C484 C 0.33921 0.17831 0.16581 0.0
H485 H 0.37459 0.163 0.16934 0.0
C486 C 0.33704 0.18096 0.1843 0.0
C487 C 0.35302 0.17187 0.16033 0.0
C488 C 0.35671 0.16962 0.14063 0.0
C489 C 0.34805 0.17706 0.19747 0.0
C490 C 0.36191 0.17069 0.19199 0.0
C491 C 0.36402 0.16795 0.17351 0.0
C492 C 0.37394 0.16631 0.20532 0.0
C493 C 0.3444 0.17936 0.21717 0.0
C494 C 0.38788 0.18159 0.21692 0.0
C495 C 0.39789 0.17692 0.23042 0.0
C496 C 0.39417 0.15688 0.23255 0.0
C497 C 0.381 0.14188 0.22028 0.0
C498 C 0.37104 0.14657 0.20679 0.0
H499 H 0.32994 0.17949 0.21924 0.0
H500 H 0.34391 0.16683 0.22538 0.0
H501 H 0.35707 0.194 0.22227 0.0
H502 H 0.3907 0.19704 0.21577 0.0
H503 H 0.40797 0.18887 0.23958 0.0
H504 H 0.83742 0.11116 0.12693 0.0
H505 H 0.83998 0.12918 0.15526 0.0
H506 H 0.83843 0.17717 0.12513 0.0
H507 H 0.83563 0.15931 0.09698 0.0
H508 H 0.86897 0.16845 0.16668 0.0
H509 H 0.79252 0.16109 0.1617 0.0
H510 H 0.80008 0.14635 0.14791 0.0
H511 H 0.8081 0.17234 0.14204 0.0
C512 C 0.83768 0.12557 0.12636 0.0
C513 C 0.83614 0.13369 0.1097 0.0
C514 C 0.83911 0.13583 0.14255 0.0
C515 C 0.83893 0.1543 0.14233 0.0
C516 C 0.83805 0.1627 0.12568 0.0
H517 H 0.85005 0.24315 0.22289 0.0
H518 H 0.84624 0.22419 0.19487 0.0
C519 C 0.83658 0.15248 0.10956 0.0
C520 C 0.83991 0.16502 0.15943 0.0
H521 H 0.81474 0.18372 0.18419 0.0
C522 C 0.85705 0.17165 0.17058 0.0
C523 C 0.82436 0.16927 0.16448 0.0
C524 C 0.80513 0.16174 0.1535 0.0
C525 C 0.85927 0.18278 0.18643 0.0
C526 C 0.84379 0.18713 0.1914 0.0
C527 C 0.82662 0.18046 0.1803 0.0
C528 C 0.845 0.19819 0.20832 0.0
C529 C 0.87837 0.19016 0.19756 0.0
C530 C 0.84494 0.18959 0.22513 0.0
C531 C 0.84702 0.20029 0.24108 0.0
C532 C 0.84914 0.21984 0.24059 0.0
C533 C 0.84846 0.22815 0.22374 0.0
C534 C 0.84634 0.21736 0.20774 0.0
H535 H 0.89079 0.18994 0.18974 0.0
H536 H 0.88389 0.20588 0.20252 0.0
H537 H 0.87497 0.18005 0.20949 0.0
H538 H 0.84351 0.17465 0.22591 0.0
H539 H 0.84733 0.19334 0.2538 0.0
H540 H 0.78012 0.63151 0.23068 0.0
H541 H 0.79823 0.64812 0.20277 0.0
H542 H 0.84912 0.64143 0.21956 0.0
H543 H 0.83141 0.62548 0.24775 0.0
H544 H 0.86201 0.67906 0.20804 0.0
H545 H 0.80789 0.62521 0.15762 0.0
H546 H 0.79641 0.63522 0.17258 0.0
H547 H 0.80579 0.6193 0.18143 0.0
C548 C 0.79501 0.63323 0.22827 0.0
C549 C 0.80429 0.62709 0.24141 0.0
C550 C 0.80535 0.64272 0.21227 0.0
C551 C 0.825 0.64588 0.20891 0.0
C552 C 0.83401 0.63922 0.22182 0.0
H553 H 0.88916 0.67397 0.1079 0.0
H554 H 0.86966 0.65942 0.13546 0.0
C555 C 0.82381 0.62999 0.2379 0.0
C556 C 0.83662 0.65689 0.19241 0.0
H557 H 0.83502 0.65622 0.14624 0.0
C558 C 0.85612 0.67404 0.19452 0.0
C559 C 0.82901 0.65032 0.17474 0.0
C560 C 0.80872 0.63139 0.17141 0.0
C561 C 0.86829 0.6846 0.17953 0.0
C562 C 0.86055 0.67823 0.16186 0.0
C563 C 0.84093 0.66125 0.15976 0.0
C564 C 0.87301 0.6878 0.14534 0.0
C565 C 0.88961 0.702 0.1828 0.0
C566 C 0.88157 0.70874 0.14161 0.0
C567 C 0.8931 0.71726 0.12583 0.0
C568 C 0.8959 0.70488 0.11336 0.0
C569 C 0.88723 0.68396 0.11714 0.0
C570 C 0.87601 0.67557 0.13292 0.0
H571 H 0.89498 0.70154 0.19668 0.0
H572 H 0.90054 0.70173 0.17294 0.0
H573 H 0.88978 0.71664 0.1812 0.0
H574 H 0.87912 0.71845 0.15076 0.0
H575 H 0.89945 0.73338 0.12322 0.0
H576 H 0.21348 0.30683 0.395 0.0
H577 H 0.21366 0.3257 0.36809 0.0
H578 H 0.15064 0.30761 0.37758 0.0
H579 H 0.15066 0.28948 0.40499 0.0
H580 H 0.19448 0.31656 0.3375 0.0
H581 H 0.17408 0.36761 0.37376 0.0
H582 H 0.18044 0.35064 0.38548 0.0
H583 H 0.15506 0.3414 0.37686 0.0
C584 C 0.1996 0.30672 0.39128 0.0
C585 C 0.18209 0.29678 0.40222 0.0
C586 C 0.19974 0.3176 0.37591 0.0
C587 C 0.18234 0.31863 0.37105 0.0
C588 C 0.16449 0.30772 0.38139 0.0
H589 H 0.15812 0.35085 0.26609 0.0
H590 H 0.16195 0.3347 0.29306 0.0
C591 C 0.16444 0.29714 0.39694 0.0
C592 C 0.18288 0.33102 0.35514 0.0
H593 H 0.17159 0.36741 0.34148 0.0
C594 C 0.18963 0.32779 0.33844 0.0
C595 C 0.1771 0.34613 0.35636 0.0
C596 C 0.17149 0.35183 0.37413 0.0
C597 C 0.19008 0.33867 0.32286 0.0
C598 C 0.18288 0.35269 0.32381 0.0
C599 C 0.17683 0.35647 0.34063 0.0
C600 C 0.18068 0.36289 0.30741 0.0
C601 C 0.19856 0.33517 0.30563 0.0
C602 C 0.18915 0.38418 0.30668 0.0
C603 C 0.18659 0.39354 0.29128 0.0
C604 C 0.17559 0.38175 0.27632 0.0
C605 C 0.16698 0.36046 0.27722 0.0
C606 C 0.16929 0.35116 0.29263 0.0
H607 H 0.20981 0.3302 0.30854 0.0
H608 H 0.18596 0.32287 0.29776 0.0
H609 H 0.20606 0.34914 0.29714 0.0
H610 H 0.19783 0.39357 0.31799 0.0
H611 H 0.19331 0.40995 0.29102 0.0
H612 H 0.62747 0.78097 0.29481 0.0
H613 H 0.64259 0.79903 0.32318 0.0
H614 H 0.68324 0.85307 0.29299 0.0
H615 H 0.66817 0.83538 0.26478 0.0
H616 H 0.68371 0.81627 0.33315 0.0
H617 H 0.66086 0.87531 0.33138 0.0
H618 H 0.64894 0.85282 0.31738 0.0
H619 H 0.67319 0.87414 0.31105 0.0
C620 C 0.63939 0.7968 0.29425 0.0
C621 C 0.64657 0.80673 0.27752 0.0
C622 C 0.64806 0.80707 0.31045 0.0
C623 C 0.66389 0.82748 0.31021 0.0
C624 C 0.67079 0.83748 0.29355 0.0
H625 H 0.74371 0.91525 0.39066 0.0
H626 H 0.72778 0.89724 0.36246 0.0
C627 C 0.6622 0.82726 0.2774 0.0
C628 C 0.67412 0.83804 0.32722 0.0
H629 H 0.68636 0.88013 0.3528 0.0
C630 C 0.68415 0.83014 0.33754 0.0
C631 C 0.67485 0.85625 0.33283 0.0
C632 C 0.66374 0.86506 0.32268 0.0
C633 C 0.69519 0.84013 0.35314 0.0
C634 C 0.69595 0.85835 0.35873 0.0
C635 C 0.6859 0.86624 0.34843 0.0
C636 C 0.70636 0.869 0.37565 0.0
C637 C 0.70632 0.83133 0.36327 0.0
C638 C 0.6996 0.85912 0.39238 0.0
C639 C 0.70864 0.8693 0.40843 0.0
C640 C 0.72461 0.88969 0.40814 0.0
C641 C 0.73154 0.89953 0.39135 0.0
C642 C 0.72241 0.88929 0.37524 0.0
H643 H 0.70902 0.82092 0.35464 0.0
H644 H 0.7212 0.84357 0.36842 0.0
H645 H 0.69696 0.82242 0.37502 0.0
H646 H 0.68699 0.84361 0.39306 0.0
H647 H 0.70284 0.86125 0.4211 0.0
H648 H 0.16827 0.85638 0.41844 0.0
H649 H 0.18613 0.8573 0.39065 0.0
H650 H 0.1288 0.82564 0.36244 0.0
H651 H 0.11071 0.82472 0.39025 0.0
H652 H 0.18069 0.82304 0.37088 0.0
H653 H 0.16446 0.87419 0.32892 0.0
H654 H 0.16132 0.87244 0.35318 0.0
H655 H 0.14247 0.85296 0.33895 0.0
C656 C 0.15941 0.84982 0.4063 0.0
C657 C 0.13802 0.8405 0.40659 0.0
C658 C 0.16968 0.85031 0.39042 0.0
C659 C 0.15884 0.84166 0.37445 0.0
C660 C 0.13751 0.83268 0.37456 0.0
H661 H 0.1935 0.82835 0.26586 0.0
H662 H 0.17541 0.82617 0.29384 0.0
C663 C 0.12719 0.83214 0.39047 0.0
C664 C 0.16985 0.84132 0.35794 0.0
H665 H 0.18055 0.85821 0.31429 0.0
C666 C 0.18072 0.83077 0.3585 0.0
C667 C 0.16985 0.85139 0.34182 0.0
C668 C 0.15906 0.86355 0.34063 0.0
C669 C 0.1913 0.82973 0.34328 0.0
C670 C 0.19135 0.83986 0.32716 0.0
C671 C 0.18049 0.85042 0.32663 0.0
C672 C 0.2024 0.83963 0.31059 0.0
C673 C 0.2019 0.81739 0.34449 0.0
C674 C 0.22362 0.84767 0.3107 0.0
C675 C 0.23405 0.84879 0.29467 0.0
C676 C 0.22345 0.84212 0.27822 0.0
C677 C 0.20215 0.83364 0.27828 0.0
C678 C 0.19177 0.83243 0.29427 0.0
H679 H 0.19581 0.8062 0.35578 0.0
H680 H 0.20027 0.80906 0.33169 0.0
H681 H 0.21838 0.82778 0.34697 0.0
H682 H 0.23224 0.8537 0.32304 0.0
H683 H 0.25047 0.85561 0.29506 0.0
H684 H 0.62274 0.84969 0.79649 0.0
H685 H 0.63921 0.84751 0.82435 0.0
H686 H 0.68039 0.83619 0.79281 0.0
H687 H 0.66425 0.83846 0.76505 0.0
H688 H 0.64554 0.81588 0.83818 0.0
H689 H 0.71883 0.88614 0.82326 0.0
H690 H 0.69554 0.87969 0.81142 0.0
H691 H 0.70993 0.86754 0.80551 0.0
C692 C 0.63517 0.84654 0.79551 0.0
C693 C 0.64227 0.84442 0.77853 0.0
C694 C 0.6446 0.84536 0.81143 0.0
C695 C 0.66132 0.84214 0.81062 0.0
C696 C 0.66784 0.83917 0.79373 0.0
H697 H 0.74195 0.83349 0.89001 0.0
H698 H 0.72519 0.83511 0.86213 0.0
C699 C 0.65848 0.84036 0.77787 0.0
C700 C 0.67213 0.84203 0.82734 0.0
H701 H 0.71856 0.86627 0.84823 0.0
C702 C 0.66147 0.82695 0.84044 0.0
C703 C 0.69295 0.85645 0.83021 0.0
C704 C 0.70498 0.8735 0.81695 0.0
C705 C 0.67116 0.82569 0.85619 0.0
C706 C 0.69198 0.84012 0.85907 0.0
C707 C 0.70264 0.85519 0.84597 0.0
C708 C 0.70279 0.84009 0.87582 0.0
C709 C 0.65913 0.80863 0.86944 0.0
C710 C 0.69617 0.84297 0.89269 0.0
C711 C 0.70569 0.84209 0.90856 0.0
C712 C 0.72217 0.83844 0.90794 0.0
C713 C 0.72931 0.83632 0.89097 0.0
C714 C 0.71971 0.83719 0.87504 0.0
H715 H 0.64537 0.79592 0.86308 0.0
H716 H 0.66862 0.80253 0.87507 0.0
H717 H 0.65403 0.81453 0.88082 0.0
H718 H 0.68348 0.84573 0.8936 0.0
H719 H 0.69989 0.84397 0.92137 0.0
H720 H 0.18664 0.90904 0.89328 0.0
H721 H 0.1805 0.89005 0.86488 0.0
H722 H 0.19082 0.8457 0.89224 0.0
H723 H 0.19664 0.86422 0.9205 0.0
H724 H 0.20695 0.88066 0.84632 0.0
H725 H 0.13689 0.80989 0.86676 0.0
H726 H 0.14672 0.83335 0.87931 0.0
H727 H 0.15769 0.81724 0.88219 0.0
C728 C 0.18741 0.89514 0.89325 0.0
C729 C 0.19202 0.88811 0.9092 0.0
C730 C 0.18394 0.88433 0.87703 0.0
C731 C 0.18486 0.86626 0.87651 0.0
C732 C 0.18954 0.85931 0.89238 0.0
H733 H 0.17556 0.78027 0.79373 0.0
H734 H 0.18107 0.79959 0.82181 0.0
C735 C 0.19299 0.87004 0.90854 0.0
C736 C 0.18174 0.85498 0.8593 0.0
H737 H 0.15315 0.80824 0.83974 0.0
C738 C 0.19508 0.86488 0.84481 0.0
C739 C 0.16632 0.83434 0.8574 0.0
C740 C 0.15096 0.82311 0.87218 0.0
C741 C 0.19371 0.85459 0.82862 0.0
C742 C 0.17839 0.83391 0.82678 0.0
C743 C 0.16498 0.82403 0.84123 0.0
C744 C 0.17558 0.82246 0.80974 0.0
C745 C 0.20898 0.8658 0.81378 0.0
C746 C 0.17049 0.82879 0.79372 0.0
C747 C 0.16736 0.81783 0.77773 0.0
C748 C 0.16912 0.8002 0.7774 0.0
C749 C 0.17417 0.79382 0.7935 0.0
C750 C 0.17728 0.80481 0.80955 0.0
H751 H 0.22281 0.87943 0.81902 0.0
H752 H 0.21367 0.85571 0.80702 0.0
H753 H 0.20193 0.87101 0.80348 0.0
H754 H 0.16867 0.84209 0.79362 0.0
H755 H 0.16338 0.82316 0.76563 0.0
H756 H 0.09745 0.30467 0.87936 0.0
H757 H 0.12085 0.32339 0.85464 0.0
H758 H 0.16625 0.31193 0.87823 0.0
H759 H 0.1427 0.29269 0.90276 0.0
H760 H 0.157 0.35783 0.85711 0.0
H761 H 0.1687 0.29777 0.82627 0.0
H762 H 0.14861 0.29202 0.84236 0.0
H763 H 0.17428 0.30113 0.85 0.0
C764 C 0.11228 0.3058 0.87913 0.0
C765 C 0.11815 0.29709 0.89303 0.0
C766 C 0.12569 0.31659 0.86501 0.0
C767 C 0.1453 0.31896 0.86443 0.0
C768 C 0.15108 0.30995 0.87811 0.0
H769 H 0.2482 0.38956 0.79093 0.0
H770 H 0.22766 0.37174 0.81763 0.0
C771 C 0.13759 0.29899 0.89218 0.0
C772 C 0.15996 0.33184 0.8501 0.0
H773 H 0.19021 0.33161 0.81585 0.0
C774 C 0.16421 0.35205 0.84808 0.0
C775 C 0.1695 0.32438 0.83833 0.0
C776 C 0.16493 0.30259 0.83919 0.0
C777 C 0.17763 0.36493 0.83466 0.0
C778 C 0.18701 0.35742 0.82285 0.0
C779 C 0.18308 0.33736 0.82501 0.0
C780 C 0.19995 0.36972 0.80745 0.0
C781 C 0.18174 0.38653 0.83321 0.0
C782 C 0.19122 0.37466 0.79299 0.0
C783 C 0.20285 0.38473 0.77773 0.0
C784 C 0.22349 0.39013 0.77662 0.0
C785 C 0.2324 0.38578 0.79141 0.0
C786 C 0.22067 0.3755 0.80663 0.0
H787 H 0.17732 0.39143 0.84575 0.0
H788 H 0.19812 0.39724 0.8304 0.0
H789 H 0.17275 0.38759 0.82184 0.0
H790 H 0.17521 0.37015 0.79325 0.0
H791 H 0.19549 0.38779 0.76658 0.0
H792 H 0.85833 0.72926 0.61481 0.0
H793 H 0.86333 0.70995 0.63895 0.0
H794 H 0.80213 0.68867 0.65797 0.0
H795 H 0.79689 0.70763 0.63384 0.0
H796 H 0.86025 0.71015 0.67683 0.0
H797 H 0.80249 0.63566 0.64852 0.0
H798 H 0.81249 0.65917 0.63592 0.0
H799 H 0.79296 0.65274 0.65267 0.0
C800 C 0.84601 0.72066 0.62426 0.0
C801 C 0.82713 0.71984 0.62226 0.0
C802 C 0.84888 0.70959 0.63802 0.0
C803 C 0.83294 0.69746 0.64998 0.0
C804 C 0.81447 0.69749 0.6486 0.0
H805 H 0.81316 0.61733 0.74041 0.0
H806 H 0.81069 0.6372 0.71544 0.0
C807 C 0.81156 0.70848 0.63486 0.0
C808 C 0.83538 0.68444 0.66369 0.0
H809 H 0.81512 0.63505 0.67781 0.0
C810 C 0.85051 0.69372 0.67698 0.0
C811 C 0.82269 0.66298 0.66383 0.0
C812 C 0.80687 0.65199 0.64938 0.0
C813 C 0.85284 0.68218 0.69073 0.0
C814 C 0.83991 0.66075 0.69102 0.0
C815 C 0.82498 0.65146 0.67759 0.0
C816 C 0.84122 0.64778 0.70547 0.0
C817 C 0.86869 0.69309 0.70516 0.0
C818 C 0.85899 0.64659 0.70784 0.0
C819 C 0.86045 0.63517 0.72209 0.0
C820 C 0.84411 0.62465 0.73423 0.0
C821 C 0.82605 0.62524 0.73136 0.0
C822 C 0.82461 0.63663 0.7171 0.0
H823 H 0.87405 0.70968 0.70538 0.0
H824 H 0.86258 0.68661 0.71874 0.0
H825 H 0.88204 0.69117 0.70247 0.0
H826 H 0.87185 0.65472 0.6988 0.0
H827 H 0.87458 0.63505 0.72386 0.0
H828 H 0.4057 0.24397 0.72333 0.0
H829 H 0.38974 0.22523 0.69542 0.0
H830 H 0.34925 0.17226 0.72689 0.0
H831 H 0.36486 0.19076 0.75468 0.0
H832 H 0.38494 0.18794 0.68191 0.0
H833 H 0.31007 0.18192 0.69564 0.0
H834 H 0.33293 0.19927 0.70774 0.0
H835 H 0.31922 0.17268 0.71365 0.0
C836 C 0.39349 0.2283 0.72429 0.0
C837 C 0.38645 0.21894 0.74126 0.0
C838 C 0.38436 0.21763 0.70834 0.0
C839 C 0.36801 0.1975 0.70911 0.0
C840 C 0.3615 0.18793 0.72599 0.0
H841 H 0.2905 0.10698 0.62929 0.0
H842 H 0.30654 0.12547 0.65728 0.0
C843 C 0.37056 0.19853 0.74187 0.0
C844 C 0.35767 0.18639 0.69233 0.0
H845 H 0.31149 0.16267 0.67096 0.0
C846 C 0.36892 0.18252 0.67946 0.0
C847 C 0.33672 0.17922 0.6892 0.0
C848 C 0.32403 0.18361 0.70219 0.0
C849 C 0.35971 0.17137 0.66369 0.0
C850 C 0.33876 0.16423 0.66054 0.0
C851 C 0.32751 0.16808 0.67342 0.0
C852 C 0.32844 0.15322 0.64372 0.0
C853 C 0.3724 0.16698 0.65069 0.0
C854 C 0.33504 0.16287 0.62688 0.0
C855 C 0.32593 0.15241 0.61095 0.0
C856 C 0.30991 0.13206 0.61147 0.0
C857 C 0.30282 0.12261 0.6284 0.0
C858 C 0.31199 0.13314 0.6444 0.0
H859 H 0.3863 0.16857 0.65728 0.0
H860 H 0.36347 0.15137 0.64506 0.0
H861 H 0.37731 0.17799 0.63929 0.0
H862 H 0.34736 0.17851 0.62604 0.0
H863 H 0.33169 0.16025 0.59818 0.0
H864 H 0.92186 0.18712 0.63123 0.0
H865 H 0.90348 0.18593 0.65892 0.0
H866 H 0.84823 0.16511 0.62819 0.0
H867 H 0.86643 0.16641 0.60053 0.0
H868 H 0.85719 0.19828 0.65028 0.0
H869 H 0.86136 0.13751 0.68887 0.0
H870 H 0.88546 0.15759 0.68077 0.0
H871 H 0.86636 0.14122 0.66488 0.0
C872 C 0.90572 0.18192 0.63042 0.0
C873 C 0.89563 0.17686 0.61364 0.0
C874 C 0.89522 0.18123 0.64627 0.0
C875 C 0.87443 0.17531 0.64565 0.0
C876 C 0.86425 0.16973 0.629 0.0
H877 H 0.78434 0.16827 0.72364 0.0
H878 H 0.80261 0.16928 0.69592 0.0
C879 C 0.8747 0.17043 0.61319 0.0
C880 C 0.8635 0.17601 0.66209 0.0
H881 H 0.84871 0.15617 0.70455 0.0
C882 C 0.85525 0.18901 0.66213 0.0
C883 C 0.86102 0.16394 0.67754 0.0
C884 C 0.86884 0.14913 0.67805 0.0
C885 C 0.8449 0.19054 0.67729 0.0
C886 C 0.84241 0.17846 0.69275 0.0
C887 C 0.85064 0.16545 0.6927 0.0
C888 C 0.83152 0.1792 0.70923 0.0
C889 C 0.83716 0.20542 0.67679 0.0
C890 C 0.84164 0.1844 0.72592 0.0
C891 C 0.83124 0.18375 0.74174 0.0
C892 C 0.81043 0.17781 0.74126 0.0
C893 C 0.80041 0.17312 0.72446 0.0
C894 C 0.81085 0.17371 0.70859 0.0
H895 H 0.84485 0.21716 0.6661 0.0
H896 H 0.82059 0.19706 0.67385 0.0
H897 H 0.83948 0.2132 0.69002 0.0
H898 H 0.85757 0.18868 0.72674 0.0
H899 H 0.83945 0.18747 0.75443 0.0
H900 H 0.96089 0.49714 0.44756 0.0
H901 H 0.97811 0.48923 0.47163 0.0
H902 H 1.00696 0.55152 0.48983 0.0
H903 H 0.98969 0.5595 0.46605 0.0
H904 H 0.02022 0.50703 0.47599 0.0
H905 H 0.98536 0.51977 0.53692 0.0
H906 H 0.97448 0.51674 0.51463 0.0
H907 H 0.99579 0.54078 0.52132 0.0
C908 C 0.9706 0.50907 0.45689 0.0
C909 C 0.97385 0.52896 0.45487 0.0
C910 C 0.98051 0.50454 0.47059 0.0
C911 C 0.9937 0.51973 0.48265 0.0
C912 C 0.99658 0.53945 0.48092 0.0
H913 H 0.07333 0.52614 0.57051 0.0
H914 H 0.05653 0.53413 0.54613 0.0
C915 C 0.98672 0.544 0.46724 0.0
C916 C 1.00537 0.51532 0.49635 0.0
H917 H 1.01454 0.51633 0.54169 0.0
C918 C 0.01888 0.50893 0.49037 0.0
C919 C 1.00374 0.51795 0.51511 0.0
C920 C 0.98893 0.524 0.52243 0.0
C921 C 0.03103 0.50541 0.50258 0.0
C922 C 0.0294 0.50805 0.52133 0.0
C923 C 1.01589 0.51444 0.52732 0.0
C924 C 0.04106 0.50365 0.53506 0.0
C925 C 0.04583 0.49934 0.49526 0.0
C926 C 0.03817 0.48393 0.53683 0.0
C927 C 0.0478 0.47933 0.55069 0.0
C928 C 0.06044 0.49433 0.5632 0.0
C929 C 0.06379 0.51424 0.56109 0.0
C930 C 0.05412 0.51882 0.5472 0.0
H931 H 0.04942 0.50359 0.48078 0.0
H932 H 0.06027 0.50658 0.50307 0.0
H933 H 0.03894 0.48256 0.49636 0.0
H934 H 0.02789 0.47187 0.52785 0.0
H935 H 0.04476 0.46381 0.55195 0.0
H936 H 0.53877 0.49794 0.43492 0.0
H937 H 0.53973 0.51595 0.46257 0.0
H938 H 0.49915 0.45872 0.48856 0.0
H939 H 0.49822 0.44048 0.46092 0.0
H940 H 0.50615 0.5152 0.47891 0.0
H941 H 0.54424 0.48784 0.52627 0.0
H942 H 0.54484 0.48521 0.50205 0.0
H943 H 0.52252 0.46801 0.51474 0.0
C944 C 0.53028 0.48911 0.44658 0.0
C945 C 0.51843 0.46773 0.44568 0.0
C946 C 0.5308 0.49947 0.46238 0.0
C947 C 0.51962 0.48871 0.47768 0.0
C948 C 0.50817 0.46733 0.47702 0.0
H949 H 0.49858 0.52453 0.58323 0.0
H950 H 0.49763 0.50636 0.55569 0.0
C951 C 0.50763 0.45692 0.46119 0.0
C952 C 0.5191 0.50001 0.4939 0.0
H953 H 0.53038 0.50701 0.53895 0.0
C954 C 0.51152 0.51348 0.49203 0.0
C955 C 0.52606 0.49771 0.51101 0.0
C956 C 0.53505 0.48405 0.51369 0.0
C957 C 0.51041 0.52447 0.50687 0.0
C958 C 0.51742 0.52221 0.52398 0.0
C959 C 0.52499 0.50873 0.52583 0.0
C960 C 0.51695 0.53356 0.5402 0.0
C961 C 0.5013 0.53802 0.50417 0.0
C962 C 0.52798 0.55497 0.54063 0.0
C963 C 0.52846 0.56547 0.55638 0.0
C964 C 0.51809 0.55473 0.57206 0.0
C965 C 0.50675 0.53331 0.57143 0.0
C966 C 0.50623 0.52286 0.55569 0.0
H967 H 0.4918 0.53391 0.49176 0.0
H968 H 0.49178 0.53712 0.51594 0.0
H969 H 0.51376 0.55404 0.50272 0.0
H970 H 0.53669 0.56356 0.52896 0.0
H971 H 0.5375 0.58194 0.55645 0.0
H972 H 0.5586 0.01162 0.43956 0.0
H973 H 0.53848 0.99645 0.46671 0.0
H974 H 0.54912 0.05541 0.48369 0.0
H975 H 0.57017 0.07098 0.45658 0.0
H976 H 0.55191 0.03506 0.51166 0.0
H977 H 0.48125 0.98325 0.47511 0.0
H978 H 0.50162 0.97925 0.4681 0.0
H979 H 0.50318 1.00344 0.46382 0.0
C980 C 0.55665 0.02143 0.44901 0.0
C981 C 0.56579 0.0425 0.4458 0.0
C982 C 0.54498 0.01266 0.4645 0.0
C983 C 0.54167 0.02462 0.477 0.0
C984 C 0.55123 0.0458 0.47412 0.0
H985 H 0.44747 0.96414 0.56011 0.0
H986 H 0.46675 0.98274 0.53327 0.0
C987 C 0.56326 0.0547 0.45866 0.0
C988 C 0.52861 0.01486 0.49318 0.0
H989 H 0.4828 0.97458 0.50616 0.0
C990 C 0.53671 0.02198 0.51045 0.0
C991 C 0.50855 0.99806 0.4917 0.0
C992 C 0.49808 0.99072 0.47367 0.0
C993 C 0.52566 0.0123 0.52622 0.0
C994 C 0.50623 0.99452 0.5247 0.0
C995 C 0.49783 0.98792 0.50742 0.0
C996 C 0.49432 0.9826 0.54079 0.0
C997 C 0.53487 0.02149 0.54429 0.0
C998 C 0.50308 0.97569 0.55374 0.0
C999 C 0.49217 0.96531 0.56922 0.0
C1000 C 0.47205 0.96109 0.57185 0.0
C1001 C 0.4629 0.96704 0.55843 0.0
C1002 C 0.47396 0.97777 0.54311 0.0
H1003 H 0.54583 0.03809 0.54306 0.0
H1004 H 0.52297 0.01923 0.55429 0.0
H1005 H 0.54337 0.01416 0.54955 0.0
H1006 H 0.51846 0.97849 0.55198 0.0
H1007 H 0.49957 0.96076 0.57924 0.0
H1008 H 0.46663 0.04649 0.96648 0.0
H1009 H 0.47179 0.02895 0.99193 0.0
H1010 H 0.52882 0.04039 0.96873 0.0
H1011 H 0.52405 0.05847 0.94348 0.0
H1012 H 0.4738 0.9947 0.99029 0.0
H1013 H 0.54539 0.05566 0.02049 0.0
H1014 H 0.53098 0.06095 1.00409 0.0
H1015 H 0.5477 0.05185 0.99687 0.0
C1016 C 0.48049 0.04565 0.96696 0.0
C1017 C 0.49495 0.05395 0.95294 0.0
C1018 C 0.48338 0.03553 0.98151 0.0
C1019 C 0.50076 0.03343 0.98237 0.0
C1020 C 0.5155 0.04216 0.96862 0.0
H1021 H 0.53338 0.96341 0.0562 0.0
H1022 H 0.53043 0.98104 0.02945 0.0
C1023 C 0.51271 0.05247 0.95414 0.0
C1024 C 0.50269 0.02095 0.997 0.0
H1025 H 0.53347 0.02198 0.03131 0.0
C1026 C 0.48683 1.00073 0.99928 0.0
C1027 C 0.51974 0.02872 1.0087 0.0
C1028 C 0.53683 0.05054 1.00756 0.0
C1029 C 0.48755 0.98814 0.0129 0.0
C1030 C 0.50452 0.99594 0.0246 0.0
C1031 C 0.52053 0.01601 0.0222 0.0
C1032 C 0.50538 0.98391 0.0401 0.0
C1033 C 0.47017 0.96653 0.01467 0.0
C1034 C 0.49214 0.97952 0.05483 0.0
C1035 C 0.49385 0.96958 0.07011 0.0
C1036 C 0.50878 0.96373 0.07095 0.0
C1037 C 0.52161 0.96755 0.05592 0.0
C1038 C 0.52003 0.97772 0.04068 0.0
H1039 H 0.4605 0.96146 1.00236 0.0
H1040 H 0.47601 0.95592 0.01728 0.0
H1041 H 0.46046 0.96553 0.02631 0.0
H1042 H 0.48086 0.98433 0.05472 0.0
H1043 H 0.48375 0.96691 0.08145 0.0
H1044 H 0.96928 0.44227 0.95794 0.0
H1045 H 0.98623 0.46076 0.98567 0.0
H1046 H 1.01246 0.51763 0.95644 0.0
H1047 H 0.99563 0.49941 0.92884 0.0
H1048 H 0.02957 0.48654 0.98968 0.0
H1049 H 0.98844 0.52884 1.00219 0.0
H1050 H 0.97843 0.50673 0.98773 0.0
H1051 H 0.99802 0.53108 0.97957 0.0
C1052 C 0.97837 0.45874 0.9575 0.0
C1053 C 0.98107 0.46935 0.94117 0.0
C1054 C 0.98812 0.46927 0.97333 0.0
C1055 C 1.00047 0.49059 0.97316 0.0
C1056 C 1.00276 0.50122 0.95698 0.0
H1057 H 0.07622 0.58318 0.05205 0.0
H1058 H 0.05934 0.5648 0.0243 0.0
C1059 C 0.99317 0.49074 0.94117 0.0
C1060 C 1.01197 0.50171 0.98954 0.0
H1061 H 0.01834 0.53874 0.01947 0.0
C1062 C 0.02703 0.49785 0.99629 0.0
C1063 C 1.00879 0.51663 0.998 0.0
C1064 C 0.99243 0.52101 0.99164 0.0
C1065 C 0.03924 0.50874 0.0111 0.0
C1066 C 0.03599 0.52359 0.01965 0.0
C1067 C 0.02091 0.52744 0.01287 0.0
C1068 C 0.04753 0.53478 0.03604 0.0
C1069 C 0.05583 0.50455 0.01715 0.0
C1070 C 0.04662 0.52405 0.05183 0.0
C1071 C 0.05633 0.53449 0.06762 0.0
C1072 C 0.06703 0.55593 0.06807 0.0
C1073 C 0.06824 0.56668 0.05215 0.0
C1074 C 0.05851 0.55619 0.0363 0.0
H1075 H 0.06043 0.49773 1.00613 0.0
H1076 H 0.06951 0.5187 0.0218 0.0
H1077 H 0.0501 0.49355 0.02858 0.0
H1078 H 0.03788 0.50757 0.05212 0.0
H1079 H 0.05494 0.52568 0.07964 0.0
H1080 H 0.58683 0.51858 0.96012 0.0
H1081 H 0.56855 0.51662 0.98814 0.0
H1082 H 0.51353 0.49796 0.95764 0.0
H1083 H 0.53146 0.49956 0.92977 0.0
H1084 H 0.54999 0.53951 0.99571 0.0
H1085 H 0.49308 0.45711 0.99902 0.0
H1086 H 0.51532 0.46719 0.98465 0.0
H1087 H 0.49329 0.4686 0.97772 0.0
C1088 C 0.57073 0.51362 0.95944 0.0
C1089 C 0.56061 0.50917 0.9427 0.0
C1090 C 0.56033 0.51262 0.97545 0.0
C1091 C 0.5396 0.50694 0.97503 0.0
C1092 C 0.52938 0.50198 0.95839 0.0
H1093 H 0.45102 0.5021 0.05338 0.0
H1094 H 0.46923 0.50305 0.02557 0.0
C1095 C 0.53973 0.50301 0.94242 0.0
C1096 C 0.52895 0.50756 0.9917 0.0
H1097 H 0.48739 0.47887 0.01844 0.0
C1098 C 0.5364 0.52621 1.00077 0.0
C1099 C 0.51111 0.49025 0.9982 0.0
C1100 C 0.50281 0.46961 0.9895 0.0
C1101 C 0.52631 0.5281 0.01596 0.0
C1102 C 0.50845 0.51081 0.02243 0.0
C1103 C 0.501 0.49215 0.01338 0.0
C1104 C 0.49774 0.51152 0.03902 0.0
C1105 C 0.53464 0.54871 0.02474 0.0
C1106 C 0.50774 0.51604 0.05576 0.0
C1107 C 0.49742 0.51552 0.07159 0.0
C1108 C 0.47682 0.51039 0.07107 0.0
C1109 C 0.46691 0.50625 0.05423 0.0
C1110 C 0.47726 0.50669 0.03836 0.0
H1111 H 0.54479 0.56124 0.01542 0.0
H1112 H 0.52212 0.55129 0.02923 0.0
H1113 H 0.5437 0.54945 0.0368 0.0
H1114 H 0.5234 0.51945 0.05665 0.0
H1115 H 0.50552 0.51873 0.08431 0.0
H1116 H 0.2195 0.98247 1.0081 0.0
H1117 H 0.22974 0.01725 0.01683 0.0
H1118 H 0.23065 0.03355 0.96078 0.0
H1119 H 0.21997 0.9984 0.95187 0.0
H1120 H 0.26483 0.05241 1.00766 0.0
H1121 H 0.1965 0.05529 0.98431 0.0
H1122 H 0.19675 0.03168 0.98634 0.0
H1123 H 0.20912 0.04839 0.96752 0.0
C1124 C 0.22171 0.99336 0.99758 0.0
C1125 C 0.21886 0.98761 0.97927 0.0
C1126 C 0.22763 0.01329 1.00261 0.0
C1127 C 0.23087 0.02802 0.98949 0.0
C1128 C 0.22794 0.02238 0.97116 0.0
H1129 H 0.29013 0.15612 0.02705 0.0
H1130 H 0.28327 0.12625 1.00888 0.0
C1131 C 0.22188 1.0023 0.96609 0.0
C1132 C 0.23767 0.04924 0.99531 0.0
H1133 H 0.22251 0.08471 0.99823 0.0
C1134 C 0.2557 0.05959 1.00544 0.0
C1135 C 0.22568 0.05853 0.99246 0.0
C1136 C 0.20585 0.04791 0.98219 0.0
C1137 C 0.26169 0.0786 0.01336 0.0
C1138 C 0.24953 0.08775 0.01077 0.0
C1139 C 0.23188 0.07774 1.0001 0.0
C1140 C 0.25357 0.10648 0.02065 0.0
C1141 C 0.28039 0.08818 0.02522 0.0
C1142 C 0.23894 0.10551 0.03287 0.0
C1143 C 0.24273 0.12251 0.04309 0.0
C1144 C 0.26127 0.14095 0.04137 0.0
C1145 C 0.27577 0.14211 0.0288 0.0
C1146 C 0.27191 0.12502 0.01847 0.0
H1147 H 0.28565 0.07728 0.02871 0.0
H1148 H 0.29296 0.10126 0.01797 0.0
H1149 H 0.27736 0.09396 0.03795 0.0
H1150 H 0.22469 0.09141 0.03479 0.0
H1151 H 0.23116 0.12103 0.05256 0.0
H1152 H 0.04337 0.21583 0.99553 0.0
H1153 H 1.00776 0.19384 1.00411 0.0
H1154 H 0.98854 0.2088 0.95433 0.0
H1155 H 0.02437 0.2309 0.94553 0.0
H1156 H 0.97106 0.21459 0.98725 0.0
H1157 H 0.96312 0.13784 0.98417 0.0
H1158 H 0.98552 0.15635 0.99591 0.0
H1159 H 0.98287 0.15955 0.97215 0.0
C1160 C 0.0316 0.2142 0.98623 0.0
C1161 C 0.0367 0.2251 0.96983 0.0
C1162 C 1.01123 0.20154 0.99113 0.0
C1163 C 0.99549 0.19953 0.9798 0.0
C1164 C 1.00047 0.21003 0.96321 0.0
H1165 H 0.86821 0.11795 0.01463 0.0
H1166 H 0.8979 0.13623 0.99459 0.0
C1167 C 0.02093 0.22256 0.95817 0.0
C1168 C 0.97403 0.18779 0.98616 0.0
H1169 H 0.93836 0.14095 1.00206 0.0
C1170 C 0.96374 0.19841 0.99018 0.0
C1171 C 0.96444 0.16666 0.98987 0.0
C1172 C 0.97445 0.15435 0.98516 0.0
C1173 C 0.94461 0.18869 0.99877 0.0
C1174 C 0.9356 0.16786 1.0035 0.0
C1175 C 0.94534 0.15696 0.99853 0.0
C1176 C 0.91708 0.15762 0.01502 0.0
C1177 C 0.9344 0.20088 1.00317 0.0
C1178 C 0.91805 0.1636 0.03309 0.0
C1179 C 0.90126 0.15314 0.04456 0.0
C1180 C 0.88308 0.13649 0.03817 0.0
C1181 C 0.88195 0.1308 0.01992 0.0
C1182 C 0.89889 0.14117 1.00848 0.0
H1183 H 0.94044 0.21486 0.99471 0.0
H1184 H 0.91766 0.19161 1.00118 0.0
H1185 H 0.93725 0.2056 0.01756 0.0
H1186 H 0.93201 0.17608 0.03848 0.0
H1187 H 0.90267 0.15792 0.05853 0.0
H1188 H 0.85646 0.7194 0.04508 0.0
H1189 H 0.83862 0.7332 0.02772 0.0
H1190 H 0.89606 0.78081 1.0069 0.0
H1191 H 0.91396 0.76674 0.02381 0.0
H1192 H 0.8418 0.76922 0.03225 0.0
H1193 H 0.86265 0.76432 0.96144 0.0
H1194 H 0.86695 0.75115 0.97977 0.0
H1195 H 0.88453 0.77774 0.97571 0.0
C1196 C 0.86529 0.73258 0.03654 0.0
C1197 C 0.88665 0.74194 0.03585 0.0
C1198 C 0.85505 0.74049 0.02663 0.0
C1199 C 0.86592 0.75796 0.01582 0.0
C1200 C 0.88724 0.76705 0.01476 0.0
H1201 H 0.82096 0.84038 0.99016 0.0
H1202 H 0.84036 0.82462 1.00094 0.0
C1203 C 0.89748 0.75904 0.02455 0.0
C1204 C 0.85511 0.76759 1.007 0.0
H1205 H 0.84803 0.78551 0.96674 0.0
C1206 C 0.84308 0.77264 0.01789 0.0
C1207 C 0.85655 0.7719 0.98823 0.0
C1208 C 0.8682 0.76581 0.97557 0.0
C1209 C 0.83277 0.78212 0.01066 0.0
C1210 C 0.83495 0.78727 0.99205 0.0
C1211 C 0.84661 0.78186 0.98104 0.0
C1212 C 0.82493 0.79801 0.98386 0.0
C1213 C 0.81934 0.78619 0.02302 0.0
C1214 C 0.81062 0.7889 0.9699 0.0
C1215 C 0.79967 0.79805 0.9635 0.0
C1216 C 0.80282 0.81648 0.97098 0.0
C1217 C 0.81797 0.82608 0.98425 0.0
C1218 C 0.829 0.81702 0.99052 0.0
H1219 H 0.81475 0.77629 0.03524 0.0
H1220 H 0.82784 0.80226 0.0276 0.0
H1221 H 0.80535 0.78368 0.01594 0.0
H1222 H 0.80734 0.77431 0.96445 0.0
H1223 H 0.78814 0.79025 0.95325 0.0
H1224 H 0.02421 0.25223 0.58015 0.0
H1225 H 0.0576 0.26198 0.56729 0.0
H1226 H 0.03068 0.20706 0.53542 0.0
H1227 H 0.99728 0.19692 0.54857 0.0
H1228 H 0.0671 0.21523 0.54917 0.0
H1229 H 0.07471 0.28478 0.51684 0.0
H1230 H 0.07121 0.28416 0.54088 0.0
H1231 H 0.05118 0.26551 0.52686 0.0
C1232 C 0.02539 0.24211 0.57052 0.0
C1233 C 1.00799 0.22386 0.56529 0.0
C1234 C 0.0445 0.2478 0.56306 0.0
C1235 C 0.0466 0.23553 0.55002 0.0
C1236 C 0.02943 0.21688 0.54534 0.0
H1237 H 0.14504 0.27387 0.47234 0.0
H1238 H 0.11327 0.26418 0.48841 0.0
C1239 C 1.01032 0.21109 0.5529 0.0
C1240 C 0.06658 0.24225 0.54101 0.0
H1241 H 0.10371 0.28063 0.51564 0.0
C1242 C 0.07511 0.22952 0.54183 0.0
C1243 C 0.07689 0.26075 0.53115 0.0
C1244 C 0.06796 0.2745 0.52869 0.0
C1245 C 0.09369 0.23484 0.53322 0.0
C1246 C 0.10434 0.25368 0.52388 0.0
C1247 C 0.09572 0.26632 0.52296 0.0
C1248 C 0.12404 0.26023 0.51439 0.0
C1249 C 0.10136 0.21989 0.53378 0.0
C1250 C 0.14094 0.26175 0.52367 0.0
C1251 C 0.1591 0.2671 0.51444 0.0
C1252 C 0.16089 0.27141 0.4958 0.0
C1253 C 0.14422 0.27067 0.48669 0.0
C1254 C 0.12601 0.2651 0.49588 0.0
H1255 H 0.08888 0.20418 0.5368 0.0
H1256 H 0.10854 0.2197 0.52075 0.0
H1257 H 0.11293 0.2244 0.54463 0.0
H1258 H 0.14006 0.25869 0.53805 0.0
H1259 H 0.17169 0.26771 0.52191 0.0
H1260 H 0.82572 0.79672 0.54173 0.0
H1261 H 0.8156 0.82026 0.52927 0.0
H1262 H 0.77811 0.81119 0.57612 0.0
H1263 H 0.78804 0.78744 0.58872 0.0
H1264 H 0.77202 0.80815 0.52304 0.0
H1265 H 0.81346 0.87518 0.56831 0.0
H1266 H 0.82156 0.85665 0.56509 0.0
H1267 H 0.79959 0.85037 0.57869 0.0
C1268 C 0.81553 0.7999 0.54954 0.0
C1269 C 0.80768 0.79013 0.56625 0.0
C1270 C 0.80974 0.81334 0.54236 0.0
C1271 C 0.79619 0.81754 0.5518 0.0
C1272 C 0.78875 0.80831 0.5687 0.0
H1273 H 0.74579 0.89591 0.52288 0.0
H1274 H 0.755 0.8733 0.53894 0.0
C1275 C 0.79441 0.79471 0.57586 0.0
C1276 C 0.78893 0.83057 0.54337 0.0
H1277 H 0.7922 0.87714 0.54606 0.0
C1278 C 0.77641 0.82323 0.52806 0.0
C1279 C 0.79448 0.85012 0.5501 0.0
C1280 C 0.8081 0.85872 0.5664 0.0
C1281 C 0.76931 0.83493 0.51924 0.0
C1282 C 0.77538 0.85479 0.52558 0.0
C1283 C 0.78761 0.86197 0.54114 0.0
C1284 C 0.76974 0.86852 0.5159 0.0
C1285 C 0.7551 0.82572 0.50336 0.0
C1286 C 0.77519 0.87363 0.49769 0.0
C1287 C 0.76983 0.88639 0.48846 0.0
C1288 C 0.75911 0.89461 0.49729 0.0
C1289 C 0.75396 0.88979 0.51564 0.0
C1290 C 0.75925 0.87689 0.52485 0.0
H1291 H 0.74694 0.8088 0.50387 0.0
H1292 H 0.74365 0.83078 0.50289 0.0
H1293 H 0.76409 0.83056 0.49064 0.0
H1294 H 0.78376 0.86784 0.4906 0.0
H1295 H 0.77427 0.88993 0.47441 0.0
H1296 H 0.23142 0.01915 0.57078 0.0
H1297 H 0.2086 0.98351 0.56203 0.0
H1298 H 0.20893 1.00253 0.50698 0.0
H1299 H 0.23162 0.03789 0.51549 0.0
H1300 H 0.16955 0.96438 0.54534 0.0
H1301 H 0.2267 0.95954 0.50217 0.0
H1302 H 0.23349 0.97965 0.51846 0.0
H1303 H 0.22368 0.98097 0.49665 0.0
C1304 C 0.22651 0.01574 0.55685 0.0
C1305 C 0.23349 0.03139 0.54382 0.0
C1306 C 0.21352 0.99536 0.55186 0.0
C1307 C 0.20744 0.99032 0.53377 0.0
C1308 C 0.21382 1.006 0.52093 0.0
H1309 H 0.10935 0.89223 0.47912 0.0
H1310 H 0.13242 0.92221 0.49655 0.0
C1311 C 0.22671 0.02626 0.52587 0.0
C1312 C 0.19432 0.96879 0.52807 0.0
H1313 H 0.1918 0.93388 0.49747 0.0
C1314 C 0.17449 0.95758 0.53507 0.0
C1315 C 0.2009 0.95975 0.51493 0.0
C1316 C 0.22243 0.97051 0.50774 0.0
C1317 C 0.16068 0.93804 0.52848 0.0
C1318 C 0.16679 0.92964 0.51435 0.0
C1319 C 0.18701 0.94037 0.50815 0.0
C1320 C 0.15211 0.9106 0.50484 0.0
C1321 C 0.13959 0.92669 0.53658 0.0
C1322 C 0.15565 0.89412 0.50334 0.0
C1323 C 0.14246 0.87686 0.4932 0.0
C1324 C 0.12562 0.87589 0.48421 0.0
C1325 C 0.1221 0.89238 0.48589 0.0
C1326 C 0.13521 0.90952 0.49601 0.0
H1327 H 0.13947 0.93168 0.55068 0.0
H1328 H 0.12917 0.92991 0.52848 0.0
H1329 H 0.13355 0.90998 0.53657 0.0
H1330 H 0.16872 0.8947 0.50989 0.0
H1331 H 0.14566 0.86448 0.49213 0.0
H1332 H 0.75255 0.86516 1.00006 0.0
H1333 H 0.75978 0.89547 0.01787 0.0
H1334 H 0.79848 0.93416 0.97506 0.0
H1335 H 0.79143 0.90432 0.95731 0.0
H1336 H 0.79979 0.93001 0.029 0.0
H1337 H 0.75644 0.95337 0.98411 0.0
H1338 H 0.75261 0.92784 0.98422 0.0
H1339 H 0.77384 0.94791 0.97223 0.0
C1340 C 0.76258 0.88014 0.99447 0.0
C1341 C 0.7713 0.88228 0.9772 0.0
C1342 C 0.76672 0.89741 1.00466 0.0
C1343 C 0.77946 0.91704 0.99766 0.0
C1344 C 0.78838 0.91916 0.9806 0.0
H1345 H 0.83541 0.04335 0.01699 0.0
H1346 H 0.82312 1.00834 1.0075 0.0
C1347 C 0.78435 0.90202 0.97049 0.0
C1348 C 0.7836 0.93557 1.00789 0.0
H1349 H 0.78058 0.97889 1.00396 0.0
C1350 C 0.79529 0.94057 0.02377 0.0
C1351 C 0.77765 0.94926 1.00105 0.0
C1352 C 0.76427 0.94428 0.98456 0.0
C1353 C 0.80221 0.95948 0.03236 0.0
C1354 C 0.7971 0.97358 0.02493 0.0
C1355 C 0.7846 0.96813 0.00957 0.0
C1356 C 0.80579 0.9947 0.03188 0.0
C1357 C 0.81576 0.96472 0.04873 0.0
C1358 C 0.80037 0.99871 0.04891 0.0
C1359 C 0.80743 0.01887 0.05445 0.0
C1360 C 0.81994 0.03529 0.04297 0.0
C1361 C 0.82576 0.03112 0.02617 0.0
C1362 C 0.81874 0.01108 0.02069 0.0
H1363 H 0.82061 0.95331 0.0513 0.0
H1364 H 0.82954 0.97996 0.04703 0.0
H1365 H 0.8074 0.96535 0.06082 0.0
H1366 H 0.79019 0.98628 0.05768 0.0
H1367 H 0.80257 0.02155 0.06742 0.0
H1368 H 0.15808 0.87511 0.99079 0.0
H1369 H 0.12648 0.85109 1.00658 0.0
H1370 H 0.10582 0.89471 1.00359 0.0
H1371 H 0.13702 0.91857 0.98772 0.0
H1372 H 0.10656 0.8541 0.0391 0.0
H1373 H 0.06141 0.84417 0.97692 0.0
H1374 H 0.08882 0.85594 0.97664 0.0
H1375 H 0.07696 0.87013 0.98406 0.0
C1376 C 0.1469 0.87965 0.99367 0.0
C1377 C 0.14997 0.89866 0.98777 0.0
C1378 C 0.12887 0.86593 1.00271 0.0
C1379 C 0.11366 0.871 1.00599 0.0
C1380 C 0.11718 0.89034 1.00092 0.0
H1381 H 0.99949 0.80138 0.06786 0.0
H1382 H 0.03378 0.82789 0.05832 0.0
C1383 C 0.13508 0.90398 0.99186 0.0
C1384 C 0.09361 0.85575 0.01369 0.0
H1385 H 0.04291 0.82845 1.00352 0.0
C1386 C 0.09262 0.84847 0.03137 0.0
C1387 C 0.07546 0.84831 1.0035 0.0
C1388 C 0.07563 0.85487 0.98417 0.0
C1389 C 0.0739 0.83399 0.03914 0.0
C1390 C 0.05574 0.8268 0.02901 0.0
C1391 C 0.05681 0.83411 0.01135 0.0
C1392 C 0.03558 0.81063 0.0358 0.0
C1393 C 0.07374 0.82612 0.05792 0.0
C1394 C 0.02517 0.79226 0.02627 0.0
C1395 C 1.00567 0.77728 0.03157 0.0
C1396 C 0.99599 0.78028 0.04653 0.0
C1397 C 1.00653 0.79858 0.0563 0.0
C1398 C 0.02616 0.81368 0.05093 0.0
H1399 H 0.08927 0.83008 0.06246 0.0
H1400 H 0.06762 0.83295 0.06755 0.0
H1401 H 0.06374 0.80931 0.0585 0.0
H1402 H 0.03209 0.78955 0.01456 0.0
H1403 H 0.99813 0.76337 0.02374 0.0
H1404 H 0.10589 0.2152 0.97838 0.0
H1405 H 0.12785 0.20683 0.99614 0.0
H1406 H 0.17166 0.27081 1.00162 0.0
H1407 H 0.1493 0.27933 0.9843 0.0
H1408 H 0.16403 0.21364 0.98724 0.0
H1409 H 0.17068 0.25198 0.05257 0.0
H1410 H 0.15194 0.24856 0.03579 0.0
H1411 H 0.1778 0.26917 0.03374 0.0
C1412 C 0.12008 0.22754 0.98356 0.0
C1413 C 0.12587 0.24795 0.97988 0.0
C1414 C 0.13263 0.22271 0.99375 0.0
C1415 C 0.15137 0.23814 1.00043 0.0
C1416 C 0.15707 0.2586 0.99704 0.0
H1417 H 0.25599 0.22546 0.02054 0.0
H1418 H 0.22985 0.23242 0.00948 0.0
C1419 C 0.14434 0.26347 0.98701 0.0
C1420 C 0.16553 0.23262 0.00953 0.0
H1421 H 0.19487 0.24089 0.04719 0.0
C1422 C 0.17059 0.21948 1.00044 0.0
C1423 C 0.17393 0.23994 0.02688 0.0
C1424 C 0.16815 0.25302 0.0379 0.0
C1425 C 0.18415 0.21392 1.00791 0.0
C1426 C 0.19342 0.22213 0.02477 0.0
C1427 C 0.18793 0.23476 0.03418 0.0
C1428 C 0.20959 0.21853 0.03226 0.0
C1429 C 0.18834 0.19919 0.99764 0.0
C1430 C 0.20728 0.20899 0.04913 0.0
C1431 C 0.22242 0.20507 0.05565 0.0
C1432 C 0.24012 0.2107 0.0454 0.0
C1433 C 0.24248 0.22065 0.02873 0.0
C1434 C 0.22748 0.22461 0.02232 0.0
H1435 H 0.17566 0.1896 0.98827 0.0
H1436 H 0.20236 0.20789 0.98941 0.0
H1437 H 0.19066 0.18904 1.00699 0.0
H1438 H 0.19363 0.20429 0.0571 0.0
H1439 H 0.22018 0.1975 0.06858 0.0
H1440 H 0.90091 0.79948 0.54044 0.0
H1441 H 0.9303 0.80558 0.52224 0.0
H1442 H 0.90063 0.74182 0.50852 0.0
H1443 H 0.87089 0.73556 0.52663 0.0
H1444 H 0.9548 0.78857 0.52758 0.0
H1445 H 0.92006 0.7697 0.45916 0.0
H1446 H 0.90789 0.77424 0.47817 0.0
H1447 H 0.90702 0.75021 0.47593 0.0
C1448 C 0.90049 0.78672 0.53345 0.0
C1449 C 0.88349 0.767 0.53501 0.0
C1450 C 0.91735 0.79027 0.52303 0.0
C1451 C 0.91762 0.77423 0.51384 0.0
C1452 C 0.90062 0.75452 0.51521 0.0
H1453 H 1.011 0.76508 0.45344 0.0
H1454 H 0.97932 0.75933 0.46745 0.0
C1455 C 0.88367 0.75094 0.52566 0.0
C1456 C 0.93618 0.77811 0.50367 0.0
H1457 H 0.95395 0.77598 0.46169 0.0
C1458 C 0.95463 0.7859 0.51315 0.0
C1459 C 0.93593 0.77456 0.48487 0.0
C1460 C 0.91672 0.76688 0.47385 0.0
C1461 C 0.97276 0.78999 0.50443 0.0
C1462 C 0.97257 0.78658 0.4856 0.0
C1463 C 0.9541 0.77869 0.4761 0.0
C1464 C 0.99133 0.79064 0.47569 0.0
C1465 C 0.99188 0.79745 0.51557 0.0
C1466 C 1.00846 0.81031 0.47513 0.0
C1467 C 0.02666 0.81368 0.46714 0.0
C1468 C 0.02805 0.79743 0.45946 0.0
C1469 C 1.01054 0.77794 0.45928 0.0
C1470 C 0.99237 0.7746 0.46728 0.0
H1471 H 0.9884 0.7944 0.53022 0.0
H1472 H 1.00071 0.79011 0.5112 0.0
H1473 H 1.00163 0.81415 0.51372 0.0
H1474 H 1.00787 0.82301 0.48119 0.0
H1475 H 0.03979 0.82889 0.46744 0.0
H1476 H 0.25264 0.26297 0.49205 0.0
H1477 H 0.25919 0.23641 0.50289 0.0
H1478 H 0.2098 0.19208 0.47024 0.0
H1479 H 0.20323 0.21882 0.45904 0.0
H1480 H 0.23252 0.20231 0.52209 0.0
H1481 H 0.2564 0.18083 0.45869 0.0
H1482 H 0.2554 0.20407 0.46079 0.0
H1483 H 0.23236 0.18016 0.45756 0.0
C1484 C 0.24321 0.24762 0.48701 0.0
C1485 C 0.22736 0.24304 0.47467 0.0
C1486 C 0.24701 0.23244 0.49324 0.0
C1487 C 0.23513 0.21228 0.48728 0.0
C1488 C 0.21941 0.20761 0.47479 0.0
H1489 H 0.22549 0.10825 0.54564 0.0
H1490 H 0.219 0.13263 0.52966 0.0
C1491 C 0.21559 0.22288 0.46848 0.0
C1492 C 0.23863 0.19618 0.49509 0.0
H1493 H 0.25248 0.16078 0.48471 0.0
C1494 C 0.23687 0.19323 0.5139 0.0
C1495 C 0.24454 0.18449 0.48442 0.0
C1496 C 0.24748 0.18759 0.46426 0.0
C1497 C 0.24074 0.1789 0.52234 0.0
C1498 C 0.2462 0.16688 0.51166 0.0
C1499 C 0.24815 0.1699 0.49285 0.0
C1500 C 0.2499 0.15113 0.51994 0.0
C1501 C 0.23933 0.17703 0.54269 0.0
C1502 C 0.26929 0.15297 0.51923 0.0
C1503 C 0.27308 0.13893 0.52833 0.0
C1504 C 0.2575 0.12279 0.53826 0.0
C1505 C 0.23792 0.12061 0.53832 0.0
C1506 C 0.23416 0.13457 0.52921 0.0
H1507 H 0.24011 0.19066 0.54909 0.0
H1508 H 0.22455 0.16356 0.5465 0.0
H1509 H 0.25175 0.17491 0.54827 0.0
H1510 H 0.28164 0.1656 0.51208 0.0
H1511 H 0.2883 0.14101 0.52796 0.0
H1512 H 0.7928 1.00226 0.45492 0.0
H1513 H 0.81568 0.03746 0.46461 0.0
H1514 H 0.84848 0.01704 0.49826 0.0
H1515 H 0.82587 0.98198 0.48863 0.0
H1516 H 0.82113 0.05168 0.50049 0.0
H1517 H 0.89428 0.06562 0.47117 0.0
H1518 H 0.86992 0.0451 0.46371 0.0
H1519 H 0.88149 0.04239 0.48398 0.0
C1520 C 0.8051 1.00531 0.46414 0.0
C1521 C 0.80753 0.98928 0.47096 0.0
C1522 C 0.81812 0.02543 0.46971 0.0
C1523 C 0.83395 0.02993 0.48199 0.0
C1524 C 0.83663 0.01401 0.48851 0.0
H1525 H 0.91914 0.12186 0.55121 0.0
H1526 H 0.89767 0.09241 0.53249 0.0
C1527 C 0.8236 0.99393 0.48305 0.0
C1528 C 0.84687 0.05094 0.48902 0.0
H1529 H 0.89646 0.08805 0.49501 0.0
C1530 C 0.83758 0.05983 0.49904 0.0
C1531 C 0.86832 0.06156 0.48709 0.0
C1532 C 0.8791 0.05328 0.47575 0.0
C1533 C 0.84925 0.0785 0.50805 0.0
C1534 C 0.87076 0.0887 0.50673 0.0
C1535 C 0.87998 0.0802 0.49607 0.0
C1536 C 0.88406 0.10717 0.51757 0.0
C1537 C 0.83851 0.08658 0.51969 0.0
C1538 C 0.88377 0.12546 0.5153 0.0
C1539 C 0.89609 0.14247 0.52609 0.0
C1540 C 0.90895 0.14147 0.53929 0.0
C1541 C 0.9094 0.12321 0.54125 0.0
C1542 C 0.89715 0.10632 0.53051 0.0
H1543 H 0.82225 0.07502 0.52199 0.0
H1544 H 0.84616 0.09165 0.53301 0.0
H1545 H 0.83908 0.09994 0.5129 0.0
H1546 H 0.87403 0.12659 0.50519 0.0
H1547 H 0.89545 0.15631 0.52419 0.0
H1548 H 0.8956 0.45574 0.37825 0.0
H1549 H 0.88907 0.42694 0.3591 0.0
H1550 H 0.94954 0.46139 0.33662 0.0
H1551 H 0.95637 0.49035 0.35602 0.0
H1552 H 0.88968 0.42376 0.32166 0.0
H1553 H 0.94735 0.40899 0.35389 0.0
H1554 H 0.93924 0.42547 0.36391 0.0
H1555 H 0.95705 0.43443 0.34542 0.0
C1556 C 0.90757 0.45727 0.36926 0.0
C1557 C 0.92659 0.47536 0.36879 0.0
C1558 C 0.90377 0.44076 0.35827 0.0
C1559 C 0.91889 0.44187 0.34659 0.0
C1560 C 0.93777 0.46003 0.34577 0.0
H1561 H 0.92119 0.34904 0.27872 0.0
H1562 H 0.92847 0.38132 0.29238 0.0
C1563 C 0.94161 0.47662 0.35681 0.0
C1564 C 0.91476 0.42386 0.33547 0.0
H1565 H 0.92953 0.38848 0.32893 0.0
C1566 C 0.89842 0.41607 0.32321 0.0
C1567 C 0.92615 0.41382 0.33751 0.0
C1568 C 0.94332 0.42094 0.35099 0.0
C1569 C 0.89322 0.39855 0.3129 0.0
C1570 C 0.90444 0.38835 0.31514 0.0
C1571 C 0.92095 0.39632 0.3272 0.0
C1572 C 0.89911 0.36912 0.30546 0.0
C1573 C 0.8759 0.39126 0.29958 0.0
C1574 C 0.88006 0.3515 0.30809 0.0
C1575 C 0.8758 0.33297 0.30024 0.0
C1576 C 0.89059 0.33165 0.28972 0.0
C1577 C 0.90943 0.34946 0.28673 0.0
C1578 C 0.91366 0.36796 0.29456 0.0
H1579 H 0.87277 0.40363 0.29577 0.0
H1580 H 0.87922 0.38529 0.28711 0.0
H1581 H 0.86187 0.37877 0.30584 0.0
H1582 H 0.86873 0.35191 0.31674 0.0
H1583 H 0.8612 0.31954 0.30295 0.0
H1584 H 0.54911 0.42947 0.34625 0.0
H1585 H 0.58092 0.45253 0.33071 0.0
H1586 H 0.581 0.50406 0.35542 0.0
H1587 H 0.54887 0.48105 0.37084 0.0
H1588 H 0.59255 0.5108 0.31927 0.0
H1589 H 0.63582 0.48085 0.35624 0.0
H1590 H 0.61403 0.46161 0.34437 0.0
H1591 H 0.61052 0.47495 0.36286 0.0
C1592 C 0.55579 0.44571 0.34832 0.0
C1593 C 0.5465 0.45339 0.35994 0.0
C1594 C 0.57407 0.45888 0.33949 0.0
C1595 C 0.58362 0.48001 0.34221 0.0
C1596 C 0.57399 0.4878 0.35322 0.0
H1597 H 0.71071 0.56807 0.32232 0.0
H1598 H 0.6772 0.54491 0.33514 0.0
C1599 C 0.55561 0.47462 0.36202 0.0
C1600 C 0.60383 0.49387 0.3339 0.0
H1601 H 0.65308 0.50385 0.33217 0.0
C1602 C 0.6058 0.50931 0.3221 0.0
C1603 C 0.6212 0.49211 0.33779 0.0
C1604 C 0.62041 0.47663 0.35114 0.0
C1605 C 0.62458 0.52284 0.3139 0.0
C1606 C 0.64179 0.52066 0.31737 0.0
C1607 C 0.63985 0.50537 0.32934 0.0
C1608 C 0.66216 0.53454 0.3093 0.0
C1609 C 0.62592 0.53964 0.30196 0.0
C1610 C 0.66502 0.53619 0.29046 0.0
C1611 C 0.68422 0.54951 0.28304 0.0
C1612 C 0.701 0.56133 0.29433 0.0
C1613 C 0.69816 0.55926 0.31319 0.0
C1614 C 0.67898 0.546 0.32057 0.0
H1615 H 0.61307 0.54247 0.30443 0.0
H1616 H 0.64047 0.55406 0.30415 0.0
H1617 H 0.62529 0.53519 0.28758 0.0
H1618 H 0.65239 0.52715 0.28147 0.0
H1619 H 0.68586 0.55063 0.26847 0.0
H1620 H 0.58839 0.13322 0.37713 0.0
H1621 H 0.56595 0.14078 0.35924 0.0
H1622 H 0.53303 0.0785 0.34098 0.0
H1623 H 0.55576 0.07077 0.35879 0.0
H1624 H 0.54084 0.10772 0.31324 0.0
H1625 H 0.50705 0.12209 0.37403 0.0
H1626 H 0.53436 0.13693 0.37337 0.0
H1627 H 0.52205 0.10964 0.3752 0.0
C1628 C 0.57643 0.12107 0.3693 0.0
C1629 C 0.57376 0.1013 0.36957 0.0
C1630 C 0.56355 0.12544 0.35911 0.0
C1631 C 0.54755 0.11013 0.34905 0.0
C1632 C 0.5452 0.09052 0.34875 0.0
H1633 H 0.44514 0.12146 0.31085 0.0
H1634 H 0.46696 0.10993 0.32445 0.0
C1635 C 0.55818 0.08612 0.35894 0.0
C1636 C 0.53312 0.11469 0.33926 0.0
H1637 H 0.49978 0.13207 0.34578 0.0
C1638 C 0.53175 0.11292 0.32033 0.0
C1639 C 0.52107 0.12124 0.34854 0.0
C1640 C 0.52101 0.12241 0.36892 0.0
C1641 C 0.51904 0.11805 0.31043 0.0
C1642 C 0.50763 0.12538 0.31969 0.0
C1643 C 0.50867 0.12666 0.33864 0.0
C1644 C 0.49424 0.13157 0.31016 0.0
C1645 C 0.51776 0.11531 0.29019 0.0
C1646 C 0.50224 0.14758 0.29749 0.0
C1647 C 0.48972 0.15424 0.2896 0.0
C1648 C 0.46899 0.14512 0.29436 0.0
C1649 C 0.46102 0.1289 0.30687 0.0
C1650 C 0.47349 0.12226 0.31468 0.0
H1651 H 0.5229 0.10458 0.28581 0.0
H1652 H 0.50195 0.10957 0.28533 0.0
H1653 H 0.52777 0.13025 0.28361 0.0
H1654 H 0.51828 0.15531 0.29405 0.0
H1655 H 0.4964 0.16681 0.2801 0.0
H1656 H 0.66761 0.53095 0.89013 0.0
H1657 H 0.70227 0.54057 0.88012 0.0
H1658 H 0.71102 0.59815 0.86085 0.0
H1659 H 0.67675 0.58879 0.87074 0.0
H1660 H 0.71736 0.55093 0.84385 0.0
H1661 H 0.7627 0.61466 0.89082 0.0
H1662 H 0.73637 0.59587 0.89505 0.0
H1663 H 0.7427 0.61663 0.87966 0.0
C1664 C 0.67704 0.54575 0.88397 0.0
C1665 C 0.6694 0.55909 0.88125 0.0
C1666 C 0.69681 0.55121 0.87823 0.0
C1667 C 0.70934 0.57021 0.86996 0.0
C1668 C 0.7018 0.5836 0.8675 0.0
H1669 H 0.82167 0.63722 0.81154 0.0
H1670 H 0.79 0.62484 0.82867 0.0
C1671 C 0.6821 0.57813 0.87308 0.0
C1672 C 0.72982 0.57576 0.86278 0.0
H1673 H 0.77998 0.61286 0.86438 0.0
C1674 C 0.73113 0.56427 0.84852 0.0
C1675 C 0.74773 0.59325 0.86881 0.0
C1676 C 0.74741 0.60573 0.88454 0.0
C1677 C 0.74969 0.57032 0.83958 0.0
C1678 C 0.76755 0.58812 0.84532 0.0
C1679 C 0.76632 0.59926 0.85994 0.0
C1680 C 0.78742 0.59592 0.83581 0.0
C1681 C 0.74981 0.55811 0.82352 0.0
C1682 C 0.79683 0.58403 0.83449 0.0
C1683 C 0.81492 0.59104 0.82463 0.0
C1684 C 0.8241 0.61019 0.81602 0.0
C1685 C 0.81504 0.62239 0.81795 0.0
C1686 C 0.7969 0.61533 0.82775 0.0
H1687 H 0.73421 0.54799 0.81821 0.0
H1688 H 0.75941 0.56829 0.81242 0.0
H1689 H 0.75624 0.54838 0.82766 0.0
H1690 H 0.79008 0.56921 0.84094 0.0
H1691 H 0.82155 0.5813 0.82356 0.0
H1692 H 0.46613 0.23664 0.79981 0.0
H1693 H 0.47369 0.2142 0.81773 0.0
H1694 H 0.41826 0.19393 0.84814 0.0
H1695 H 0.41053 0.21662 0.83021 0.0
H1696 H 0.45365 0.20304 0.86967 0.0
H1697 H 0.4434 0.15163 0.81242 0.0
H1698 H 0.46054 0.17807 0.80758 0.0
H1699 H 0.43408 0.16939 0.81189 0.0
C1700 C 0.45548 0.22745 0.81029 0.0
C1701 C 0.43762 0.22834 0.81346 0.0
C1702 C 0.45982 0.21456 0.8205 0.0
C1703 C 0.4464 0.20215 0.83407 0.0
C1704 C 0.42877 0.2033 0.83764 0.0
H1705 H 0.45631 0.10126 0.88004 0.0
H1706 H 0.44327 0.12225 0.86722 0.0
C1707 C 0.42437 0.21624 0.82737 0.0
C1708 C 0.45089 0.18795 0.84433 0.0
H1709 H 0.45975 0.14831 0.83867 0.0
C1710 C 0.45481 0.19094 0.86296 0.0
C1711 C 0.45215 0.17202 0.83559 0.0
C1712 C 0.44714 0.16741 0.8158 0.0
C1713 C 0.46066 0.17885 0.87295 0.0
C1714 C 0.46286 0.16355 0.86401 0.0
C1715 C 0.45825 0.16015 0.84551 0.0
C1716 C 0.47018 0.15101 0.8734 0.0
C1717 C 0.46433 0.18251 0.89298 0.0
C1718 C 0.48965 0.16016 0.88127 0.0
C1719 C 0.49719 0.14817 0.88866 0.0
C1720 C 0.48546 0.12677 0.88819 0.0
C1721 C 0.46579 0.11768 0.88064 0.0
C1722 C 0.45829 0.12967 0.87328 0.0
H1723 H 0.45653 0.19043 0.89859 0.0
H1724 H 0.45898 0.16796 0.90043 0.0
H1725 H 0.48092 0.19231 0.89543 0.0
H1726 H 0.4993 0.17657 0.8812 0.0
H1727 H 0.51241 0.15569 0.89428 0.0
H1728 H 0.89523 0.37176 0.87666 0.0
H1729 H 0.87066 0.33927 0.86301 0.0
H1730 H 0.89647 0.30888 0.89322 0.0
H1731 H 0.92093 0.34126 0.90714 0.0
H1732 H 0.88072 0.31573 0.84162 0.0
H1733 H 0.83547 0.27095 0.901 0.0
H1734 H 0.85167 0.2983 0.90162 0.0
H1735 H 0.86256 0.28204 0.9034 0.0
C1736 C 0.89548 0.35813 0.88066 0.0
C1737 C 0.91008 0.35917 0.89304 0.0
C1738 C 0.88143 0.33955 0.8728 0.0
C1739 C 0.88157 0.32157 0.87718 0.0
C1740 C 0.89578 0.32245 0.88987 0.0
H1741 H 0.81346 0.19884 0.82975 0.0
H1742 H 0.83718 0.22841 0.84795 0.0
C1743 C 0.90983 0.34103 0.89777 0.0
C1744 C 0.86784 0.30231 0.86746 0.0
H1745 H 0.82924 0.25317 0.87323 0.0
C1746 C 0.86944 0.30208 0.84855 0.0
C1747 C 0.85327 0.2844 0.87651 0.0
C1748 C 0.85045 0.28388 0.89673 0.0
C1749 C 0.85686 0.28454 0.83845 0.0
C1750 C 0.84201 0.26677 0.84744 0.0
C1751 C 0.84065 0.2668 0.86638 0.0
C1752 C 0.8271 0.24847 0.8372 0.0
C1753 C 0.85967 0.28514 0.81821 0.0
C1754 C 0.81329 0.24982 0.82546 0.0
C1755 C 0.79981 0.23307 0.8151 0.0
C1756 C 0.79971 0.21447 0.81629 0.0
C1757 C 0.81318 0.21294 0.82846 0.0
C1758 C 0.82672 0.2298 0.83888 0.0
H1759 H 0.87496 0.29762 0.81404 0.0
H1760 H 0.85768 0.27046 0.81315 0.0
H1761 H 0.84806 0.28784 0.81161 0.0
H1762 H 0.81306 0.26395 0.82418 0.0
H1763 H 0.78957 0.23481 0.80601 0.0
H1764 H 0.47276 0.22321 0.32024 0.0
H1765 H 0.47992 0.25452 0.33568 0.0
H1766 H 0.41554 0.23329 0.33902 0.0
H1767 H 0.40817 0.20166 0.32368 0.0
H1768 H 0.47008 0.28254 0.32295 0.0
H1769 H 0.43511 0.25407 0.39042 0.0
H1770 H 0.44043 0.23891 0.37491 0.0
H1771 H 0.41832 0.24152 0.37174 0.0
C1772 C 0.46005 0.22502 0.32443 0.0
C1773 C 0.43986 0.20989 0.32067 0.0
C1774 C 0.46421 0.24298 0.33328 0.0
C1775 C 0.4483 0.24622 0.33868 0.0
C1776 C 0.42807 0.23098 0.3353 0.0
H1777 H 0.45389 0.36123 0.35549 0.0
H1778 H 0.44714 0.32768 0.34589 0.0
C1779 C 0.42388 0.21295 0.32643 0.0
C1780 C 0.45307 0.26619 0.34656 0.0
H1781 H 0.44559 0.28873 0.38356 0.0
C1782 C 0.46481 0.28387 0.33625 0.0
C1783 C 0.44639 0.26798 0.364 0.0
C1784 C 0.43452 0.24965 0.37602 0.0
C1785 C 0.46965 0.30319 0.34268 0.0
C1786 C 0.46237 0.30493 0.35982 0.0
C1787 C 0.45106 0.28734 0.37037 0.0
C1788 C 0.46576 0.32484 0.36656 0.0
C1789 C 0.48257 0.32165 0.33107 0.0
C1790 C 0.47809 0.33423 0.38172 0.0
C1791 C 0.48205 0.35357 0.3873 0.0
C1792 C 0.47359 0.36375 0.37788 0.0
C1793 C 0.4608 0.35396 0.36302 0.0
C1794 C 0.45693 0.33475 0.35745 0.0
H1795 H 0.49106 0.31842 0.32055 0.0
H1796 H 0.47258 0.32636 0.32413 0.0
H1797 H 0.49367 0.33463 0.33944 0.0
H1798 H 0.48499 0.32678 0.38897 0.0
H1799 H 0.4919 0.36063 0.39883 0.0
H1800 H 0.67458 0.12917 0.4072 0.0
H1801 H 0.71 0.15504 0.40025 0.0
H1802 H 0.694 0.15411 0.34418 0.0
H1803 H 0.65883 0.12866 0.35095 0.0
H1804 H 0.73717 0.15207 0.3762 0.0
H1805 H 0.72389 0.21482 0.35586 0.0
H1806 H 0.70524 0.19278 0.36826 0.0
H1807 H 0.70758 0.19154 0.34413 0.0
C1808 C 0.67858 0.13468 0.39344 0.0
C1809 C 0.66382 0.12689 0.37966 0.0
C1810 C 0.69883 0.14939 0.38948 0.0
C1811 C 0.7046 0.15672 0.37173 0.0
C1812 C 0.68985 0.14902 0.35803 0.0
H1813 H 0.81782 0.21026 0.31354 0.0
H1814 H 0.78607 0.18758 0.32941 0.0
C1815 C 0.66972 0.13435 0.36194 0.0
C1816 C 0.7261 0.17182 0.36716 0.0
H1817 H 0.75539 0.21762 0.34615 0.0
C1818 C 0.74124 0.16654 0.36985 0.0
C1819 C 0.73149 0.19083 0.35911 0.0
C1820 C 0.71624 0.19794 0.35683 0.0
C1821 C 0.76141 0.17934 0.36396 0.0
C1822 C 0.76648 0.19775 0.35486 0.0
C1823 C 0.75152 0.20342 0.35293 0.0
C1824 C 0.7869 0.21107 0.34662 0.0
C1825 C 0.77705 0.17299 0.36751 0.0
C1826 C 0.79799 0.2319 0.35089 0.0
C1827 C 0.81607 0.24495 0.34169 0.0
C1828 C 0.82345 0.2375 0.32796 0.0
C1829 C 0.81269 0.21651 0.32412 0.0
C1830 C 0.79454 0.20347 0.33327 0.0
H1831 H 0.7727 0.16251 0.37931 0.0
H1832 H 0.77811 0.16477 0.35552 0.0
H1833 H 0.79233 0.18639 0.37004 0.0
H1834 H 0.79239 0.23815 0.36108 0.0
H1835 H 0.82395 0.26101 0.34502 0.0
H1836 H 0.89629 0.5331 0.3763 0.0
H1837 H 0.87286 0.54344 0.36409 0.0
H1838 H 0.88574 0.58415 0.40913 0.0
H1839 H 0.90969 0.5743 0.42121 0.0
H1840 H 0.83863 0.54124 0.37663 0.0
H1841 H 0.8974 0.6224 0.36705 0.0
H1842 H 0.90378 0.60306 0.37258 0.0
H1843 H 0.89532 0.61373 0.38996 0.0
C1844 C 0.89409 0.54419 0.3837 0.0
C1845 C 0.90503 0.55299 0.39969 0.0
C1846 C 0.88067 0.5501 0.37667 0.0
C1847 C 0.87784 0.56492 0.38545 0.0
C1848 C 0.88808 0.57312 0.40182 0.0
H1849 H 0.778 0.58666 0.35687 0.0
H1850 H 0.801 0.57804 0.37277 0.0
C1851 C 0.90164 0.56732 0.4088 0.0
C1852 C 0.86424 0.57177 0.37734 0.0
H1853 H 0.86317 0.61368 0.36149 0.0
C1854 C 0.844 0.55709 0.37335 0.0
C1855 C 0.8713 0.59242 0.37276 0.0
C1856 C 0.89318 0.6088 0.37563 0.0
C1857 C 0.83065 0.56244 0.36498 0.0
C1858 C 0.83754 0.58316 0.36088 0.0
C1859 C 0.8578 0.59784 0.36481 0.0
C1860 C 0.82418 0.58979 0.35192 0.0
C1861 C 0.80949 0.5457 0.3601 0.0
C1862 C 0.82996 0.60021 0.3353 0.0
C1863 C 0.81696 0.60547 0.32629 0.0
C1864 C 0.79788 0.60038 0.3337 0.0
C1865 C 0.79248 0.59064 0.35067 0.0
C1866 C 0.80556 0.58554 0.35973 0.0
H1867 H 0.80855 0.5306 0.3595 0.0
H1868 H 0.79857 0.54483 0.37056 0.0
H1869 H 0.80465 0.54874 0.34683 0.0
H1870 H 0.84431 0.6038 0.32904 0.0
H1871 H 0.82162 0.61297 0.31326 0.0
H1872 H 0.57237 0.12654 0.88137 0.0
H1873 H 0.60209 0.13479 0.86277 0.0
H1874 H 0.56803 0.07763 0.83468 0.0
H1875 H 0.53789 0.06943 0.85306 0.0
H1876 H 0.62297 0.11477 0.86097 0.0
H1877 H 0.5935 0.11679 0.79276 0.0
H1878 H 0.58045 0.11663 0.81324 0.0
H1879 H 0.57824 0.09336 0.8048 0.0
C1880 C 0.57108 0.11574 0.87115 0.0
C1881 C 0.5527 0.0973 0.86872 0.0
C1882 C 0.58813 0.12051 0.8605 0.0
C1883 C 0.5873 0.10698 0.84714 0.0
C1884 C 0.56895 0.08855 0.8446 0.0
H1885 H 0.68127 0.10537 0.78075 0.0
H1886 H 0.64921 0.09817 0.79502 0.0
C1887 C 0.55176 0.08381 0.85521 0.0
C1888 C 0.60603 0.11186 0.83669 0.0
H1889 H 0.62592 0.119 0.79399 0.0
C1890 C 0.62361 0.11579 0.84632 0.0
C1891 C 0.6069 0.11314 0.81756 0.0
C1892 C 0.58884 0.10995 0.80646 0.0
C1893 C 0.64191 0.12078 0.83742 0.0
C1894 C 0.6428 0.12213 0.81832 0.0
C1895 C 0.62522 0.11804 0.80863 0.0
C1896 C 0.66182 0.1274 0.80828 0.0
C1897 C 0.66006 0.12418 0.84852 0.0
C1898 C 0.67944 0.14649 0.81052 0.0
C1899 C 0.69783 0.15071 0.80234 0.0
C1900 C 0.69895 0.13588 0.79175 0.0
C1901 C 0.68102 0.11712 0.78887 0.0
C1902 C 0.66264 0.11296 0.79701 0.0
H1903 H 0.65563 0.11814 0.8625 0.0
H1904 H 0.668 0.11683 0.84208 0.0
H1905 H 0.67101 0.14077 0.84942 0.0
H1906 H 0.67906 0.15799 0.81893 0.0
H1907 H 0.71129 0.16533 0.8048 0.0
H1908 H 0.91339 0.43192 0.83733 0.0
H1909 H 0.90555 0.45555 0.82149 0.0
H1910 H 0.95089 0.5053 0.85316 0.0
H1911 H 0.9591 0.48187 0.86881 0.0
H1912 H 0.89063 0.47813 0.83599 0.0
H1913 H 0.96447 0.52955 0.80296 0.0
H1914 H 0.95865 0.5053 0.81258 0.0
H1915 H 0.96709 0.5273 0.82683 0.0
C1916 C 0.92193 0.44795 0.84075 0.0
C1917 C 0.93693 0.45499 0.85433 0.0
C1918 C 0.91739 0.46144 0.83168 0.0
C1919 C 0.92779 0.48228 0.83593 0.0
C1920 C 0.94298 0.4894 0.8493 0.0
H1921 H 0.91645 0.58752 0.82049 0.0
H1922 H 0.92507 0.56142 0.82808 0.0
C1923 C 0.94759 0.47593 0.85833 0.0
C1924 C 0.92183 0.49631 0.8273 0.0
H1925 H 0.94088 0.5419 0.80516 0.0
C1926 C 0.90155 0.49192 0.829 0.0
C1927 C 0.93604 0.51428 0.81811 0.0
C1928 C 0.95772 0.5193 0.81484 0.0
C1929 C 0.89534 0.50544 0.82254 0.0
C1930 C 0.90974 0.52375 0.81396 0.0
C1931 C 0.92986 0.52786 0.81177 0.0
C1932 C 0.90465 0.53958 0.80854 0.0
C1933 C 0.87364 0.50049 0.82564 0.0
C1934 C 0.89044 0.53609 0.79481 0.0
C1935 C 0.88545 0.5511 0.79035 0.0
C1936 C 0.89457 0.56981 0.79961 0.0
C1937 C 0.90902 0.57327 0.81313 0.0
C1938 C 0.91404 0.55838 0.81748 0.0
H1939 H 0.86535 0.48743 0.83507 0.0
H1940 H 0.87328 0.51391 0.83119 0.0
H1941 H 0.86541 0.4965 0.81255 0.0
H1942 H 0.8832 0.52177 0.78758 0.0
H1943 H 0.87432 0.54797 0.77984 0.0
H1944 H 0.55473 0.488 0.85762 0.0
H1945 H 0.53064 0.45734 0.84093 0.0
H1946 H 0.56764 0.4301 0.85234 0.0
H1947 H 0.59183 0.46061 0.86866 0.0
H1948 H 0.55299 0.42302 0.81714 0.0
H1949 H 0.49091 0.4044 0.86684 0.0
H1950 H 0.50147 0.42897 0.85622 0.0
H1951 H 0.51699 0.42364 0.87109 0.0
C1952 C 0.55783 0.47556 0.85641 0.0
C1953 C 0.57513 0.47672 0.86464 0.0
C1954 C 0.54399 0.458 0.84695 0.0
C1955 C 0.54715 0.44127 0.84563 0.0
C1956 C 0.56482 0.44276 0.85321 0.0
H1957 H 0.46652 0.31368 0.83561 0.0
H1958 H 0.49064 0.34883 0.8437 0.0
C1959 C 0.57863 0.46024 0.86261 0.0
C1960 C 0.53178 0.42176 0.83719 0.0
H1961 H 0.48364 0.38143 0.84292 0.0
C1962 C 0.53774 0.414 0.82263 0.0
C1963 C 0.51196 0.40991 0.84451 0.0
C1964 C 0.50491 0.41699 0.86061 0.0
C1965 C 0.52459 0.39455 0.81547 0.0
C1966 C 0.50486 0.38264 0.82292 0.0
C1967 C 0.49874 0.39062 0.83717 0.0
C1968 C 0.49089 0.36123 0.81726 0.0
C1969 C 0.53223 0.38654 0.80053 0.0
C1970 C 0.48307 0.3564 0.7996 0.0
C1971 C 0.46924 0.33615 0.79486 0.0
C1972 C 0.46289 0.32042 0.80775 0.0
C1973 C 0.47101 0.32536 0.82532 0.0
C1974 C 0.4848 0.3455 0.83001 0.0
H1975 H 0.54901 0.3959 0.79874 0.0
H1976 H 0.52821 0.37055 0.80332 0.0
H1977 H 0.52489 0.38676 0.78761 0.0
H1978 H 0.48732 0.36833 0.7896 0.0
H1979 H 0.46318 0.33289 0.78125 0.0
H1980 H 0.5826 0.66554 0.65701 0.0
H1981 H 0.59016 0.69985 0.66479 0.0
H1982 H 0.54574 0.69566 0.62603 0.0
H1983 H 0.53795 0.66099 0.61809 0.0
H1984 H 0.60358 0.73506 0.6415 0.0
H1985 H 0.52896 0.71101 0.67481 0.0
H1986 H 0.53789 0.69335 0.67036 0.0
H1987 H 0.52833 0.70195 0.65221 0.0
C1988 C 0.57439 0.67183 0.65008 0.0
C1989 C 0.55955 0.66041 0.63698 0.0
C1990 C 0.57881 0.69152 0.65453 0.0
C1991 C 0.56841 0.70026 0.64612 0.0
C1992 C 0.55378 0.6891 0.63283 0.0
H1993 H 0.57234 0.81374 0.67684 0.0
H1994 H 0.56538 0.7828 0.66068 0.0
C1995 C 0.54941 0.66934 0.62826 0.0
C1996 C 0.57286 0.72092 0.65167 0.0
H1997 H 0.55315 0.74592 0.67514 0.0
C1998 C 0.59252 0.7375 0.64872 0.0
C1999 C 0.5584 0.72406 0.66105 0.0
C2000 C 0.53722 0.7067 0.66496 0.0
C2001 C 0.59817 0.75711 0.65507 0.0
C2002 C 0.58393 0.76012 0.66505 0.0
C2003 C 0.56409 0.74363 0.66754 0.0
C2004 C 0.58944 0.77997 0.67368 0.0
C2005 C 0.61931 0.77439 0.65094 0.0
C2006 C 0.6054 0.78885 0.6863 0.0
C2007 C 0.60952 0.80665 0.69549 0.0
C2008 C 0.59758 0.81583 0.69243 0.0
C2009 C 0.58185 0.80712 0.67954 0.0
C2010 C 0.57782 0.78938 0.6703 0.0
H2011 H 0.62569 0.77124 0.63863 0.0
H2012 H 0.61937 0.78895 0.64894 0.0
H2013 H 0.62954 0.77627 0.66241 0.0
H2014 H 0.61428 0.78164 0.68951 0.0
H2015 H 0.62163 0.81282 0.70543 0.0
H2016 H 0.20333 0.82784 0.68794 0.0
H2017 H 0.23614 0.84683 0.67233 0.0
H2018 H 0.24989 0.79953 0.68557 0.0
H2019 H 0.21706 0.78031 0.70085 0.0
H2020 H 0.27345 0.86222 0.68699 0.0
H2021 H 0.26521 0.80858 0.63263 0.0
H2022 H 0.24377 0.80583 0.64561 0.0
H2023 H 0.26 0.79687 0.65457 0.0
C2024 C 0.2132 0.82133 0.68731 0.0
C2025 C 0.20751 0.80252 0.69565 0.0
C2026 C 0.23197 0.83222 0.67838 0.0
C2027 C 0.2454 0.8245 0.67751 0.0
C2028 C 0.23963 0.80561 0.68563 0.0
H2029 H 0.37599 0.89268 0.66942 0.0
H2030 H 0.34025 0.87171 0.67795 0.0
C2031 C 0.22087 0.79469 0.69451 0.0
C2032 C 0.26605 0.83685 0.66939 0.0
H2033 H 0.29935 0.83517 0.63912 0.0
C2034 C 0.27901 0.85637 0.67639 0.0
C2035 C 0.27329 0.82938 0.65537 0.0
C2036 C 0.25977 0.8091 0.64647 0.0
C2037 C 0.29916 0.86828 0.67025 0.0
C2038 C 0.30678 0.86032 0.657 0.0
C2039 C 0.29362 0.84114 0.64947 0.0
C2040 C 0.32851 0.87154 0.65124 0.0
C2041 C 0.31211 0.88933 0.67804 0.0
C2042 C 0.3339 0.87758 0.63315 0.0
C2043 C 0.35446 0.88946 0.62815 0.0
C2044 C 0.36995 0.89547 0.64117 0.0
C2045 C 0.36446 0.88856 0.65908 0.0
C2046 C 0.344 0.87665 0.66402 0.0
H2047 H 0.30259 0.89536 0.68371 0.0
H2048 H 0.32156 0.88864 0.68917 0.0
H2049 H 0.32244 0.90017 0.66763 0.0
H2050 H 0.32219 0.87365 0.62303 0.0
H2051 H 0.35816 0.89451 0.61424 0.0
H2052 H 0.26056 0.46254 0.68847 0.0
H2053 H 0.238 0.46999 0.67053 0.0
H2054 H 0.18737 0.41047 0.68315 0.0
H2055 H 0.21024 0.40256 0.70046 0.0
H2056 H 0.18445 0.42031 0.64932 0.0
H2057 H 0.2002 0.48591 0.69277 0.0
H2058 H 0.223 0.48899 0.6825 0.0
H2059 H 0.20909 0.46851 0.69836 0.0
C2060 C 0.24464 0.45096 0.6873 0.0
C2061 C 0.23711 0.43204 0.69603 0.0
C2062 C 0.23171 0.45531 0.67715 0.0
C2063 C 0.2108 0.44108 0.67594 0.0
C2064 C 0.2034 0.4218 0.68401 0.0
H2065 H 0.12045 0.47555 0.65064 0.0
H2066 H 0.14318 0.4654 0.66455 0.0
C2067 C 0.21647 0.41727 0.69389 0.0
C2068 C 0.19669 0.44656 0.66669 0.0
H2069 H 0.18213 0.48258 0.66557 0.0
C2070 C 0.18387 0.43388 0.65293 0.0
C2071 C 0.19559 0.46408 0.67158 0.0
C2072 C 0.20754 0.47752 0.68724 0.0
C2073 C 0.1702 0.43831 0.64383 0.0
C2074 C 0.1698 0.45633 0.64818 0.0
C2075 C 0.18254 0.46891 0.66202 0.0
C2076 C 0.15567 0.46207 0.63927 0.0
C2077 C 0.15594 0.42329 0.63006 0.0
C2078 C 0.1551 0.4638 0.62036 0.0
C2079 C 0.14177 0.46932 0.6123 0.0
C2080 C 0.12913 0.47372 0.62303 0.0
C2081 C 0.13006 0.4724 0.64195 0.0
C2082 C 0.14307 0.46655 0.64994 0.0
H2083 H 0.15385 0.40785 0.63228 0.0
H2084 H 0.14075 0.42216 0.63048 0.0
H2085 H 0.16247 0.42839 0.61633 0.0
H2086 H 0.16508 0.46106 0.6118 0.0
H2087 H 0.14151 0.47032 0.5977 0.0
H2088 H 0.33684 0.89567 0.22641 0.0
H2089 H 0.37052 0.90761 0.21302 0.0
H2090 H 0.353 0.84597 0.19836 0.0
H2091 H 0.31924 0.83386 0.2116 0.0
H2092 H 0.40143 0.89635 0.21929 0.0
H2093 H 0.36937 0.87798 0.14987 0.0
H2094 H 0.3552 0.87939 0.16891 0.0
H2095 H 0.35771 0.85723 0.16571 0.0
C2096 C 0.34019 0.88459 0.22051 0.0
C2097 C 0.32522 0.86379 0.21995 0.0
C2098 C 0.35948 0.89147 0.21288 0.0
C2099 C 0.36415 0.87773 0.20444 0.0
C2100 C 0.34959 0.85687 0.20455 0.0
H2101 H 0.46177 0.88441 0.13981 0.0
H2102 H 0.43125 0.87481 0.15769 0.0
C2103 C 0.33032 0.84997 0.21222 0.0
C2104 C 0.38389 0.88527 0.19484 0.0
H2105 H 0.40427 0.88827 0.15297 0.0
C2106 C 0.40211 0.89468 0.20478 0.0
C2107 C 0.38473 0.8832 0.1759 0.0
C2108 C 0.36575 0.87408 0.1644 0.0
C2109 C 0.42112 0.90146 0.19634 0.0
C2110 C 0.42191 0.89911 0.17741 0.0
C2111 C 0.40368 0.89001 0.16748 0.0
C2112 C 0.4413 0.90522 0.16759 0.0
C2113 C 0.44008 0.91048 0.20782 0.0
C2114 C 0.45727 0.92557 0.16721 0.0
C2115 C 0.47493 0.93116 0.15699 0.0
C2116 C 0.47681 0.9165 0.14682 0.0
C2117 C 0.46086 0.89614 0.14741 0.0
C2118 C 0.44335 0.89059 0.15765 0.0
H2119 H 0.43645 0.90668 0.22237 0.0
H2120 H 0.45051 0.90499 0.20337 0.0
H2121 H 0.44826 0.92731 0.20643 0.0
H2122 H 0.4559 0.93723 0.17447 0.0
H2123 H 0.48688 0.94699 0.15674 0.0
H2124 H 0.12358 0.45791 0.25065 0.0
H2125 H 0.11556 0.48268 0.2374 0.0
H2126 H 0.16145 0.49743 0.19645 0.0
H2127 H 0.16999 0.47314 0.20994 0.0
H2128 H 0.16146 0.53112 0.20795 0.0
H2129 H 0.08232 0.47137 0.19194 0.0
H2130 H 0.08823 0.47283 0.21557 0.0
H2131 H 0.10131 0.4654 0.19968 0.0
C2132 C 0.13214 0.46659 0.23895 0.0
C2133 C 0.14731 0.46339 0.23127 0.0
C2134 C 0.1274 0.48063 0.23128 0.0
C2135 C 0.13749 0.49153 0.21561 0.0
C2136 C 0.15332 0.48908 0.20844 0.0
H2137 H 0.09389 0.54685 0.13801 0.0
H2138 H 0.10327 0.52501 0.15493 0.0
C2139 C 0.15821 0.47519 0.2162 0.0
C2140 C 0.13126 0.50506 0.20639 0.0
H2141 H 0.09074 0.50553 0.18654 0.0
C2142 C 0.14599 0.52553 0.20327 0.0
C2143 C 0.11115 0.4977 0.19999 0.0
C2144 C 0.09488 0.47559 0.20178 0.0
C2145 C 0.14117 0.53884 0.19406 0.0
C2146 C 0.1209 0.53163 0.18817 0.0
C2147 C 0.10621 0.51114 0.19121 0.0
C2148 C 0.11477 0.54484 0.17821 0.0
C2149 C 0.15802 0.56031 0.19024 0.0
C2150 C 0.11766 0.56309 0.18579 0.0
C2151 C 0.11245 0.57572 0.17606 0.0
C2152 C 0.10394 0.57021 0.15866 0.0
C2153 C 0.10041 0.55159 0.15136 0.0
C2154 C 0.10579 0.53907 0.16103 0.0
H2155 H 0.17328 0.56164 0.191 0.0
H2156 H 0.15625 0.5655 0.17665 0.0
H2157 H 0.1575 0.57072 0.20049 0.0
H2158 H 0.124 0.56762 0.19922 0.0
H2159 H 0.11521 0.58986 0.18216 0.0
H2160 H 0.59843 0.70214 0.18674 0.0
H2161 H 0.57261 0.6683 0.17706 0.0
H2162 H 0.53572 0.66303 0.22344 0.0
H2163 H 0.56152 0.69744 0.2331 0.0
H2164 H 0.55763 0.63151 0.19339 0.0
H2165 H 0.49565 0.64946 0.18218 0.0
H2166 H 0.52173 0.66901 0.18594 0.0
H2167 H 0.50615 0.65416 0.2046 0.0
C2168 C 0.58484 0.69388 0.19494 0.0
C2169 C 0.58201 0.7026 0.21067 0.0
C2170 C 0.57008 0.67444 0.18938 0.0
C2171 C 0.5521 0.66314 0.19938 0.0
C2172 C 0.5493 0.6716 0.2153 0.0
H2173 H 0.47171 0.53517 0.16477 0.0
H2174 H 0.49327 0.56453 0.18404 0.0
C2175 C 0.56409 0.69122 0.22085 0.0
C2176 C 0.53649 0.64267 0.19276 0.0
H2177 H 0.48841 0.61625 0.17526 0.0
C2178 C 0.5424 0.62806 0.1896 0.0
C2179 C 0.51667 0.63825 0.18771 0.0
C2180 C 0.50963 0.65355 0.19012 0.0
C2181 C 0.52938 0.60953 0.18092 0.0
C2182 C 0.50968 0.60525 0.17561 0.0
C2183 C 0.50348 0.61952 0.1794 0.0
C2184 C 0.49607 0.58712 0.1645 0.0
C2185 C 0.53726 0.59523 0.17666 0.0
C2186 C 0.49007 0.58999 0.1473 0.0
C2187 C 0.47764 0.57332 0.1364 0.0
C2188 C 0.47091 0.55331 0.14239 0.0
C2189 C 0.47678 0.55039 0.15969 0.0
C2190 C 0.48916 0.56716 0.17069 0.0
H2191 H 0.55408 0.60273 0.17816 0.0
H2192 H 0.53024 0.58206 0.18608 0.0
H2193 H 0.53319 0.58932 0.16264 0.0
H2194 H 0.4952 0.60521 0.1422 0.0
H2195 H 0.47344 0.57618 0.12317 0.0
H2196 H 0.1818 0.70521 0.70298 0.0
H2197 H 0.16823 0.66998 0.69329 0.0
H2198 H 0.11335 0.65196 0.72392 0.0
H2199 H 0.12676 0.68734 0.73362 0.0
H2200 H 0.15389 0.63295 0.7134 0.0
H2201 H 0.09293 0.63339 0.67163 0.0
H2202 H 0.11434 0.65652 0.68009 0.0
H2203 H 0.09398 0.64017 0.69505 0.0
C2204 C 0.16692 0.69376 0.70783 0.0
C2205 C 0.15532 0.69915 0.71898 0.0
C2206 C 0.15919 0.6736 0.70228 0.0
C2207 C 0.13965 0.65841 0.70764 0.0
C2208 C 0.12833 0.66352 0.71938 0.0
H2209 H 0.07432 0.53439 0.66148 0.0
H2210 H 0.08235 0.56382 0.68083 0.0
C2211 C 0.13609 0.68372 0.72502 0.0
C2212 C 0.13109 0.63748 0.70029 0.0
H2213 H 0.09584 0.60397 0.67048 0.0
C2214 C 0.14106 0.6265 0.70417 0.0
C2215 C 0.11427 0.62904 0.68832 0.0
C2216 C 0.10327 0.64036 0.68336 0.0
C2217 C 0.13499 0.60757 0.69607 0.0
C2218 C 0.11881 0.59958 0.68343 0.0
C2219 C 0.10826 0.61012 0.68014 0.0
C2220 C 0.11385 0.58136 0.6723 0.0
C2221 C 0.14614 0.59639 0.701 0.0
C2222 C 0.12876 0.58157 0.66091 0.0
C2223 C 0.12424 0.5649 0.6499 0.0
C2224 C 0.10462 0.54761 0.64988 0.0
C2225 C 0.08959 0.54743 0.66122 0.0
C2226 C 0.09416 0.56421 0.67228 0.0
H2227 H 0.15304 0.60076 0.71467 0.0
H2228 H 0.13581 0.57962 0.70066 0.0
H2229 H 0.15866 0.60043 0.69115 0.0
H2230 H 0.1439 0.59481 0.66033 0.0
H2231 H 0.13618 0.56568 0.64129 0.0
H2232 H 0.33853 0.45502 0.73373 0.0
H2233 H 0.37385 0.47993 0.72518 0.0
H2234 H 0.35357 0.4845 0.67183 0.0
H2235 H 0.31855 0.45966 0.68009 0.0
H2236 H 0.39549 0.47503 0.69112 0.0
H2237 H 0.38937 0.54509 0.69297 0.0
H2238 H 0.37303 0.52263 0.70619 0.0
H2239 H 0.36854 0.52321 0.68241 0.0
C2240 C 0.34161 0.46151 0.72025 0.0
C2241 C 0.32574 0.45536 0.70759 0.0
C2242 C 0.36177 0.47565 0.71538 0.0
C2243 C 0.36626 0.4841 0.69791 0.0
C2244 C 0.3504 0.47825 0.68541 0.0
H2245 H 0.45806 0.56327 0.62549 0.0
H2246 H 0.42804 0.54152 0.64359 0.0
C2247 C 0.33039 0.46401 0.69016 0.0
C2248 C 0.38749 0.49854 0.69221 0.0
H2249 H 0.41786 0.54732 0.67734 0.0
C2250 C 0.40062 0.49095 0.68841 0.0
C2251 C 0.39401 0.51922 0.68863 0.0
C2252 C 0.38061 0.52816 0.69286 0.0
C2253 C 0.4197 0.50327 0.68012 0.0
C2254 C 0.42593 0.52382 0.6759 0.0
C2255 C 0.41311 0.53158 0.68053 0.0
C2256 C 0.44467 0.53701 0.66519 0.0
C2257 C 0.43245 0.49383 0.67502 0.0
C2258 C 0.46417 0.54185 0.67128 0.0
C2259 C 0.48152 0.55427 0.6608 0.0
C2260 C 0.47966 0.56223 0.64414 0.0
C2261 C 0.46012 0.55746 0.63824 0.0
C2262 C 0.44288 0.54502 0.64861 0.0
H2263 H 0.4236 0.47692 0.67572 0.0
H2264 H 0.43866 0.49842 0.66112 0.0
H2265 H 0.44547 0.49921 0.68449 0.0
H2266 H 0.466 0.5362 0.68419 0.0
H2267 H 0.49635 0.55775 0.6658 0.0
H2268 H 0.55461 0.85612 0.71519 0.0
H2269 H 0.52977 0.86373 0.70134 0.0
H2270 H 0.55933 0.9229 0.72651 0.0
H2271 H 0.58434 0.91557 0.74021 0.0
H2272 H 0.50235 0.87509 0.71598 0.0
H2273 H 0.56089 0.93648 0.67265 0.0
H2274 H 0.56563 0.91848 0.68462 0.0
H2275 H 0.5663 0.9395 0.69645 0.0
C2276 C 0.55571 0.87067 0.71794 0.0
C2277 C 0.57161 0.8853 0.72868 0.0
C2278 C 0.54151 0.87501 0.70999 0.0
C2279 C 0.54295 0.89405 0.71258 0.0
C2280 C 0.5582 0.90829 0.72399 0.0
H2281 H 0.47649 0.94866 0.66201 0.0
H2282 H 0.49881 0.94225 0.6817 0.0
C2283 C 0.57242 0.904 0.7319 0.0
C2284 C 0.52888 0.89922 0.70294 0.0
H2285 H 0.52758 0.93151 0.67128 0.0
C2286 C 0.50786 0.88743 0.70622 0.0
C2287 C 0.53609 0.9154 0.69025 0.0
C2288 C 0.55843 0.92811 0.68561 0.0
C2289 C 0.49386 0.8914 0.69719 0.0
C2290 C 0.50104 0.90735 0.68428 0.0
C2291 C 0.52209 0.91935 0.68122 0.0
C2292 C 0.48694 0.91108 0.67302 0.0
C2293 C 0.47151 0.87858 0.70169 0.0
C2294 C 0.47301 0.89579 0.66147 0.0
C2295 C 0.46031 0.8994 0.65025 0.0
C2296 C 0.4613 0.91845 0.65019 0.0
C2297 C 0.47527 0.9338 0.66177 0.0
C2298 C 0.48804 0.93016 0.67302 0.0
H2299 H 0.46915 0.87152 0.71532 0.0
H2300 H 0.4638 0.88777 0.7012 0.0
H2301 H 0.46412 0.8661 0.69166 0.0
H2302 H 0.47221 0.88112 0.6609 0.0
H2303 H 0.44983 0.88724 0.64146 0.0
H2304 H 0.20515 0.4205 0.18213 0.0
H2305 H 0.23468 0.42818 0.16283 0.0
H2306 H 0.27401 0.45005 0.2094 0.0
H2307 H 0.24496 0.4426 0.22859 0.0
H2308 H 0.27335 0.46883 0.15951 0.0
H2309 H 0.28557 0.40687 0.18493 0.0
H2310 H 0.26144 0.40613 0.18699 0.0
H2311 H 0.28182 0.42108 0.20244 0.0
C2312 C 0.22008 0.42681 0.18824 0.0
C2313 C 0.22267 0.43089 0.20692 0.0
C2314 C 0.23692 0.43125 0.1772 0.0
C2315 C 0.25649 0.43951 0.18474 0.0
C2316 C 0.25902 0.44347 0.20334 0.0
H2317 H 0.38169 0.48725 0.16819 0.0
H2318 H 0.3465 0.47461 0.17735 0.0
C2319 C 0.24235 0.43924 0.21429 0.0
C2320 C 0.27462 0.44452 0.17344 0.0
H2321 H 0.31391 0.4348 0.17017 0.0
C2322 C 0.28205 0.46115 0.16148 0.0
C2323 C 0.28589 0.43446 0.17606 0.0
C2324 C 0.27822 0.41602 0.18818 0.0
C2325 C 0.30117 0.46881 0.153 0.0
C2326 C 0.31294 0.4594 0.15644 0.0
C2327 C 0.30493 0.44209 0.16762 0.0
C2328 C 0.33439 0.46832 0.15018 0.0
C2329 C 0.30917 0.48758 0.14128 0.0
C2330 C 0.33939 0.46927 0.13175 0.0
C2331 C 0.35969 0.4766 0.1264 0.0
C2332 C 0.37525 0.48299 0.13942 0.0
C2333 C 0.37014 0.48241 0.15778 0.0
C2334 C 0.34998 0.47514 0.16308 0.0
H2335 H 0.29948 0.49474 0.14207 0.0
H2336 H 0.32494 0.49899 0.14531 0.0
H2337 H 0.30963 0.48339 0.12699 0.0
H2338 H 0.32756 0.46385 0.12157 0.0
H2339 H 0.3631 0.47674 0.11216 0.0
H2340 H 0.55447 0.89499 0.11133 0.0
H2341 H 0.56611 0.87091 0.11919 0.0
H2342 H 0.55276 0.8743 0.17533 0.0
H2343 H 0.54097 0.89797 0.16767 0.0
H2344 H 0.59765 0.87631 0.14297 0.0
H2345 H 0.5231 0.813 0.16589 0.0
H2346 H 0.52542 0.83415 0.15271 0.0
H2347 H 0.52985 0.83672 0.17671 0.0
C2348 C 0.55384 0.89044 0.12532 0.0
C2349 C 0.54666 0.89833 0.13884 0.0
C2350 C 0.56057 0.87675 0.12979 0.0
C2351 C 0.56004 0.87059 0.14782 0.0
C2352 C 0.55294 0.87851 0.16129 0.0
H2353 H 0.62366 0.81948 0.20493 0.0
H2354 H 0.61376 0.84198 0.18976 0.0
C2355 C 0.54627 0.89214 0.15687 0.0
C2356 C 0.56727 0.85623 0.15282 0.0
H2357 H 0.55253 0.81126 0.17474 0.0
C2358 C 0.58775 0.86197 0.14973 0.0
C2359 C 0.5543 0.83741 0.16144 0.0
C2360 C 0.53189 0.82983 0.16423 0.0
C2361 C 0.59577 0.84972 0.15565 0.0
C2362 C 0.58303 0.83142 0.16515 0.0
C2363 C 0.56238 0.82538 0.16763 0.0
C2364 C 0.59069 0.81836 0.17295 0.0
C2365 C 0.61776 0.85647 0.1516 0.0
C2366 C 0.58104 0.79756 0.16863 0.0
C2367 C 0.58651 0.78464 0.17742 0.0
C2368 C 0.60177 0.7922 0.19077 0.0
C2369 C 0.61196 0.81318 0.19462 0.0
C2370 C 0.60637 0.8261 0.18588 0.0
H2371 H 0.62346 0.86698 0.1398 0.0
H2372 H 0.62724 0.86476 0.16347 0.0
H2373 H 0.61986 0.84323 0.14884 0.0
H2374 H 0.56888 0.7912 0.15874 0.0
H2375 H 0.57837 0.76858 0.17407 0.0
H2376 H 0.21267 0.81112 0.20544 0.0
H2377 H 0.19023 0.77921 0.18979 0.0
H2378 H 0.23892 0.79021 0.15307 0.0
H2379 H 0.26157 0.82212 0.16872 0.0
H2380 H 0.17838 0.77148 0.15266 0.0
H2381 H 0.22141 0.73331 0.1744 0.0
H2382 H 0.22498 0.75637 0.18487 0.0
H2383 H 0.23593 0.75741 0.16308 0.0
C2384 C 0.21861 0.80686 0.19396 0.0
C2385 C 0.239 0.81917 0.18843 0.0
C2386 C 0.20574 0.78859 0.18502 0.0
C2387 C 0.21298 0.78215 0.17044 0.0
C2388 C 0.23311 0.79469 0.16449 0.0
H2389 H 0.14907 0.66335 0.11468 0.0
H2390 H 0.17481 0.69851 0.12254 0.0
C2391 C 0.246 0.81302 0.17339 0.0
C2392 C 0.19946 0.76214 0.16176 0.0
H2393 H 0.19246 0.71425 0.15625 0.0
C2394 C 0.18152 0.75901 0.15334 0.0
C2395 C 0.20364 0.7459 0.16254 0.0
C2396 C 0.22244 0.74825 0.17181 0.0
C2397 C 0.1675 0.74001 0.14594 0.0
C2398 C 0.17129 0.72354 0.14732 0.0
C2399 C 0.18956 0.72686 0.15519 0.0
C2400 C 0.15575 0.70245 0.14204 0.0
C2401 C 0.14871 0.73775 0.13672 0.0
C2402 C 0.13664 0.69289 0.15057 0.0
C2403 C 0.12202 0.67294 0.14615 0.0
C2404 C 0.12614 0.66192 0.13316 0.0
C2405 C 0.14536 0.67143 0.12468 0.0
C2406 C 0.16008 0.6915 0.12916 0.0
H2407 H 0.15119 0.75264 0.13164 0.0
H2408 H 0.14408 0.72695 0.12522 0.0
H2409 H 0.13598 0.73181 0.14661 0.0
H2410 H 0.1331 0.7008 0.16087 0.0
H2411 H 0.10746 0.66613 0.15306 0.0
H2412 H 0.30029 0.27497 0.0772 0.0
H2413 H 0.32605 0.31009 0.08351 0.0
H2414 H 0.37288 0.29354 0.08213 0.0
H2415 H 0.34697 0.25808 0.07545 0.0
H2416 H 0.35125 0.32301 0.11373 0.0
H2417 H 0.3962 0.3446 0.04976 0.0
H2418 H 0.37116 0.32235 0.05139 0.0
H2419 H 0.39267 0.32212 0.06129 0.0
C2420 C 0.31609 0.27879 0.07801 0.0
C2421 C 0.3216 0.26375 0.07584 0.0
C2422 C 0.3308 0.29888 0.08168 0.0
C2423 C 0.35138 0.30445 0.08332 0.0
C2424 C 0.3571 0.28962 0.08072 0.0
H2425 H 0.42591 0.42964 0.12704 0.0
H2426 H 0.41394 0.39308 0.12363 0.0
C2427 C 0.34231 0.2694 0.07689 0.0
C2428 C 0.36635 0.32573 0.08837 0.0
H2429 H 0.40482 0.37034 0.0713 0.0
C2430 C 0.36321 0.33334 0.10461 0.0
C2431 C 0.38194 0.33908 0.07644 0.0
C2432 C 0.38573 0.33177 0.05868 0.0
C2433 C 0.37433 0.35418 0.10874 0.0
C2434 C 0.38935 0.36772 0.09645 0.0
C2435 C 0.39336 0.3599 0.08073 0.0
C2436 C 0.3986 0.39014 0.09816 0.0
C2437 C 0.3689 0.36168 0.12558 0.0
C2438 C 0.39455 0.40072 0.08474 0.0
C2439 C 0.40144 0.42144 0.08658 0.0
C2440 C 0.41257 0.43217 0.10191 0.0
C2441 C 0.41722 0.42176 0.11515 0.0
C2442 C 0.41034 0.40088 0.11324 0.0
H2443 H 0.3547 0.34964 0.13204 0.0
H2444 H 0.38144 0.36672 0.13555 0.0
H2445 H 0.36689 0.37491 0.1224 0.0
H2446 H 0.3855 0.39278 0.07301 0.0
H2447 H 0.39765 0.42895 0.07604 0.0
H2448 H 0.59006 0.99977 0.09669 0.0
H2449 H 0.62438 0.02018 0.08427 0.0
H2450 H 0.6489 1.00359 0.12963 0.0
H2451 H 0.61451 0.98254 0.14184 0.0
H2452 H 0.66067 0.05183 0.09457 0.0
H2453 H 0.66678 0.98223 0.08776 0.0
H2454 H 0.64328 0.98128 0.09383 0.0
H2455 H 0.66258 0.98701 0.11065 0.0
C2456 C 0.60277 1.00071 0.10421 0.0
C2457 C 0.5995 0.98924 0.12013 0.0
C2458 C 0.62241 0.01239 0.09705 0.0
C2459 C 0.63915 0.01294 0.10573 0.0
C2460 C 0.63613 1.00288 0.1224 0.0
H2461 H 0.76738 0.08973 0.08018 0.0
H2462 H 0.73264 0.07657 0.09111 0.0
C2463 C 0.61647 0.99098 0.12945 0.0
C2464 C 0.65947 0.0229 0.09677 0.0
H2465 H 0.69666 0.01366 0.08162 0.0
C2466 C 0.66854 0.04349 0.09168 0.0
C2467 C 0.66951 0.01188 0.09256 0.0
C2468 C 0.65996 0.98934 0.0963 0.0
C2469 C 0.68757 0.05347 0.08288 0.0
C2470 C 0.69804 0.04269 0.07947 0.0
C2471 C 0.68875 0.02201 0.08429 0.0
C2472 C 0.71879 0.05242 0.07131 0.0
C2473 C 0.69603 0.07533 0.07704 0.0
C2474 C 0.72273 0.04329 0.0565 0.0
C2475 C 0.74268 0.05055 0.05042 0.0
C2476 C 0.75913 0.0672 0.05895 0.0
C2477 C 0.75506 0.07699 0.07316 0.0
C2478 C 0.73513 0.06954 0.0794 0.0
H2479 H 0.68368 0.079 0.075 0.0
H2480 H 0.70624 0.08554 0.08776 0.0
H2481 H 0.70491 0.07863 0.0643 0.0
H2482 H 0.7104 0.03006 0.05001 0.0
H2483 H 0.74528 0.04267 0.03944 0.0
H2484 H 0.94243 0.68028 0.05587 0.0
H2485 H 0.95241 0.65428 0.06056 0.0
H2486 H 0.98615 0.68608 0.10811 0.0
H2487 H 0.97624 0.71174 0.1037 0.0
H2488 H 0.9919 0.65981 0.06212 0.0
H2489 H 0.95143 0.62792 0.12672 0.0
H2490 H 0.94559 0.64343 0.11207 0.0
H2491 H 0.96689 0.65516 0.12735 0.0
C2492 C 0.95189 0.68163 0.06735 0.0
C2493 C 0.95845 0.69804 0.07944 0.0
C2494 C 0.95754 0.66677 0.07004 0.0
C2495 C 0.96964 0.66801 0.08493 0.0
C2496 C 0.97635 0.6845 0.09682 0.0
H2497 H 0.044 0.62298 0.12659 0.0
H2498 H 0.02286 0.63843 0.12088 0.0
C2499 C 0.97078 0.69928 0.09416 0.0
C2500 C 0.97636 0.65286 0.08775 0.0
H2501 H 0.97909 0.62189 0.11994 0.0
C2502 C 0.98878 0.65118 0.07459 0.0
C2503 C 0.97227 0.64164 0.10405 0.0
C2504 C 0.95814 0.64195 0.11827 0.0
C2505 C 0.99818 0.63949 0.07774 0.0
C2506 C 0.9948 0.629 0.09438 0.0
C2507 C 0.98173 0.63003 0.10724 0.0
C2508 C 1.00577 0.61799 0.09909 0.0
C2509 C 1.01246 0.63929 0.06361 0.0
C2510 C 1.00262 0.6009 0.08918 0.0
C2511 C 1.01465 0.59199 0.09243 0.0
C2512 C 0.03004 0.60002 0.10567 0.0
C2513 C 0.03234 0.61644 0.11627 0.0
C2514 C 0.02029 0.62531 0.11301 0.0
H2515 H 1.01629 0.65111 0.05304 0.0
H2516 H 0.02682 0.64178 0.06994 0.0
H2517 H 1.00515 0.62418 0.05691 0.0
H2518 H 0.99124 0.5948 0.0786 0.0
H2519 H 1.01236 0.57929 0.08409 0.0
H2520 H 0.27363 0.30936 0.4155 0.0
H2521 H 0.30889 0.33554 0.41054 0.0
H2522 H 0.305 0.37062 0.45462 0.0
H2523 H 0.26936 0.34409 0.45992 0.0
H2524 H 0.32505 0.37695 0.40218 0.0
H2525 H 0.35541 0.36573 0.46715 0.0
H2526 H 0.33049 0.34744 0.4588 0.0
H2527 H 0.3347 0.37086 0.46866 0.0
C2528 C 0.28017 0.32259 0.42423 0.0
C2529 C 0.26865 0.32456 0.4382 0.0
C2530 C 0.30037 0.3376 0.4213 0.0
C2531 C 0.30963 0.35495 0.43227 0.0
C2532 C 0.29821 0.35719 0.44615 0.0
H2533 H 0.44022 0.44454 0.43006 0.0
H2534 H 0.40365 0.42918 0.4357 0.0
C2535 C 0.27785 0.34207 0.44912 0.0
C2536 C 0.33133 0.37035 0.42899 0.0
H2537 H 0.37909 0.38921 0.44653 0.0
C2538 C 0.33687 0.37983 0.41195 0.0
C2539 C 0.3467 0.37412 0.44177 0.0
C2540 C 0.34167 0.36395 0.4601 0.0
C2541 C 0.3574 0.39252 0.40716 0.0
C2542 C 0.3728 0.39556 0.41964 0.0
C2543 C 0.36724 0.38682 0.43696 0.0
C2544 C 0.39474 0.40652 0.41467 0.0
C2545 C 0.36242 0.40238 0.38871 0.0
C2546 C 0.40188 0.39908 0.40076 0.0
C2547 C 0.42279 0.40783 0.39748 0.0
C2548 C 0.43699 0.42411 0.40814 0.0
C2549 C 0.42973 0.43204 0.42158 0.0
C2550 C 0.40882 0.42325 0.42486 0.0
H2551 H 0.34956 0.40383 0.38318 0.0
H2552 H 0.37623 0.41773 0.38915 0.0
H2553 H 0.36536 0.39277 0.37927 0.0
H2554 H 0.39132 0.38593 0.39294 0.0
H2555 H 0.42783 0.40127 0.38709 0.0
H2556 H 0.6561 0.0453 0.37566 0.0
H2557 H 0.66884 0.02337 0.38696 0.0
H2558 H 0.62384 1.0018 0.42957 0.0
H2559 H 0.61047 0.0229 0.41785 0.0
H2560 H 0.68649 0.0272 0.41763 0.0
H2561 H 0.61992 0.94935 0.41608 0.0
H2562 H 0.62002 0.97045 0.40462 0.0
H2563 H 0.61436 0.96632 0.42845 0.0
C2564 C 0.64857 0.03545 0.38714 0.0
C2565 C 0.63226 0.03583 0.39582 0.0
C2566 C 0.65591 0.02297 0.39364 0.0
C2567 C 0.64723 1.01074 0.40907 0.0
C2568 C 0.63049 1.0106 0.41738 0.0
H2569 H 0.72022 0.97921 0.4787 0.0
H2570 H 0.69917 0.99265 0.46666 0.0
C2571 C 0.62291 0.02281 0.4107 0.0
C2572 C 0.65704 0.99991 0.41751 0.0
H2573 H 0.64774 0.95424 0.43507 0.0
C2574 C 0.678 0.01118 0.42127 0.0
C2575 C 0.6461 0.97896 0.42219 0.0
C2576 C 0.62391 0.96553 0.41744 0.0
C2577 C 0.68825 1.00226 0.42966 0.0
C2578 C 0.67712 0.98159 0.43519 0.0
C2579 C 0.65622 0.97018 0.43119 0.0
C2580 C 0.68719 0.97143 0.44433 0.0
C2581 C 0.71105 0.01502 0.43205 0.0
C2582 C 0.68623 0.95403 0.43666 0.0
C2583 C 0.69783 0.94598 0.44381 0.0
C2584 C 0.71077 0.9553 0.45869 0.0
C2585 C 0.7106 0.97183 0.46711 0.0
C2586 C 0.69873 0.97966 0.46012 0.0
H2587 H 0.71786 0.02814 0.42252 0.0
H2588 H 0.71444 0.02123 0.44599 0.0
H2589 H 0.71859 1.00583 0.42991 0.0
H2590 H 0.67729 0.94726 0.42459 0.0
H2591 H 0.69757 0.93322 0.43699 0.0
H2592 H 0.06145 0.7514 0.45863 0.0
H2593 H 0.04506 0.71565 0.44979 0.0
H2594 H 0.09942 0.72716 0.42115 0.0
H2595 H 0.11582 0.7631 0.42962 0.0
H2596 H 0.06626 0.70802 0.40011 0.0
H2597 H 0.05036 0.66755 0.46565 0.0
H2598 H 0.04082 0.68496 0.465 0.0
H2599 H 0.06785 0.69458 0.46353 0.0
C2600 C 0.07012 0.74627 0.45081 0.0
C2601 C 0.08995 0.76017 0.4448 0.0
C2602 C 0.06073 0.72575 0.44581 0.0
C2603 C 0.07105 0.71863 0.43493 0.0
C2604 C 0.09117 0.73229 0.42958 0.0
H2605 H 1.01277 0.58865 0.40873 0.0
H2606 H 0.03791 0.62319 0.41813 0.0
C2607 C 0.10054 0.75283 0.43449 0.0
C2608 C 0.06021 0.6975 0.42774 0.0
H2609 H 0.0309 0.64763 0.4402 0.0
C2610 C 0.05876 0.69479 0.40889 0.0
C2611 C 0.05063 0.6802 0.43915 0.0
C2612 C 0.05266 0.68193 0.45945 0.0
C2613 C 0.04734 0.67537 0.40117 0.0
C2614 C 0.03671 0.6582 0.41259 0.0
C2615 C 0.03885 0.6608 0.43143 0.0
C2616 C 0.02259 0.63756 0.40536 0.0
C2617 C 0.04675 0.67345 0.38084 0.0
C2618 C 1.00574 0.63416 0.39486 0.0
C2619 C 0.99141 0.61446 0.38935 0.0
C2620 C 0.99352 0.5977 0.39441 0.0
C2621 C 1.01071 0.60121 0.40452 0.0
C2622 C 0.02507 0.62094 0.40999 0.0
H2623 H 0.06041 0.68636 0.37449 0.0
H2624 H 0.04583 0.65897 0.37659 0.0
H2625 H 0.03313 0.67367 0.37562 0.0
H2626 H 1.00324 0.64665 0.39145 0.0
H2627 H 0.9783 0.61233 0.38171 0.0
H2628 H 0.60893 0.58713 0.9458 0.0
H2629 H 0.62159 0.62325 0.95109 0.0
H2630 H 0.63558 0.63563 0.89433 0.0
H2631 H 0.62252 0.59926 0.88885 0.0
H2632 H 0.66087 0.65196 0.94532 0.0
H2633 H 0.61045 0.67089 0.90566 0.0
H2634 H 0.60362 0.64499 0.91114 0.0
H2635 H 0.62071 0.6581 0.89267 0.0
C2636 C 0.61432 0.59746 0.93435 0.0
C2637 C 0.61483 0.59037 0.91691 0.0
C2638 C 0.62153 0.61812 0.93741 0.0
C2639 C 0.62944 0.63216 0.92312 0.0
C2640 C 0.62918 0.62503 0.90552 0.0
H2641 H 0.70832 0.75939 0.90968 0.0
H2642 H 0.68391 0.72314 0.90721 0.0
C2643 C 0.62178 0.60426 0.9024 0.0
C2644 C 0.64001 0.65433 0.92705 0.0
H2645 H 0.6421 0.69906 0.91568 0.0
C2646 C 0.65658 0.66223 0.93905 0.0
C2647 C 0.6344 0.66769 0.91884 0.0
C2648 C 0.6162 0.65999 0.90649 0.0
C2649 C 0.6682 0.68319 0.94251 0.0
C2650 C 0.66291 0.69662 0.93397 0.0
C2651 C 0.64605 0.6887 0.92229 0.0
C2652 C 0.67595 0.71904 0.9356 0.0
C2653 C 0.68663 0.69087 0.95462 0.0
C2654 C 0.6792 0.72893 0.95236 0.0
C2655 C 0.69331 0.7498 0.95386 0.0
C2656 C 0.70432 0.76103 0.93862 0.0
C2657 C 0.70027 0.75119 0.92175 0.0
C2658 C 0.68622 0.73045 0.92027 0.0
H2659 H 0.69077 0.67898 0.95738 0.0
H2660 H 0.69997 0.70427 0.94844 0.0
H2661 H 0.68333 0.69571 0.96774 0.0
H2662 H 0.67118 0.72042 0.96432 0.0
H2663 H 0.69601 0.75698 0.96701 0.0
H2664 H 0.26397 0.9237 0.94767 0.0
H2665 H 0.29856 0.93154 0.93909 0.0
H2666 H 0.31895 0.99578 0.94158 0.0
H2667 H 0.28477 0.98814 0.95005 0.0
H2668 H 0.31925 0.95407 0.90748 0.0
H2669 H 0.3636 0.99114 0.9691 0.0
H2670 H 0.33622 0.97483 0.96937 0.0
H2671 H 0.34745 1.00108 0.96251 0.0
C2672 C 0.27598 0.93947 0.9468 0.0
C2673 C 0.27167 0.95531 0.94954 0.0
C2674 C 0.29567 0.94392 0.94182 0.0
C2675 C 0.31137 0.96425 0.93988 0.0
C2676 C 0.30719 0.98 0.9433 0.0
H2677 H 0.41284 0.03413 0.87431 0.0
H2678 H 0.3792 1.01066 0.88661 0.0
C2679 C 0.28759 0.97559 0.94805 0.0
C2680 C 0.3317 0.96938 0.93274 0.0
H2681 H 0.38244 1.00018 0.94102 0.0
C2682 C 0.3331 0.96377 0.91494 0.0
C2683 C 0.34976 0.98182 0.94253 0.0
C2684 C 0.34922 0.9874 0.96201 0.0
C2685 C 0.35207 0.97149 0.90625 0.0
C2686 C 0.37002 0.98535 0.91555 0.0
C2687 C 0.36868 0.98974 0.93378 0.0
C2688 C 0.39003 0.99706 0.90627 0.0
C2689 C 0.35264 0.96515 0.88705 0.0
C2690 C 0.40738 0.99715 0.91309 0.0
C2691 C 0.42673 1.01065 0.90609 0.0
C2692 C 0.4291 0.02451 0.89228 0.0
C2693 C 0.41158 0.02366 0.8849 0.0
C2694 C 0.39228 1.01012 0.89186 0.0
H2695 H 0.33939 0.94986 0.88415 0.0
H2696 H 0.35191 0.9762 0.87764 0.0
H2697 H 0.36689 0.96483 0.88426 0.0
H2698 H 0.40603 0.9873 0.92428 0.0
H2699 H 0.43988 0.01095 0.91216 0.0
H2700 H 0.03939 0.29903 0.96108 0.0
H2701 H 0.02933 0.32263 0.94893 0.0
H2702 H 0.08972 0.3602 0.9271 0.0
H2703 H 0.09984 0.33628 0.93886 0.0
H2704 H 0.04254 0.36293 0.95325 0.0
H2705 H 0.05435 0.34703 0.88224 0.0
H2706 H 0.05491 0.33214 0.90106 0.0
H2707 H 0.07646 0.35686 0.89647 0.0
C2708 C 0.05066 0.31243 0.95389 0.0
C2709 C 0.07037 0.31562 0.95078 0.0
C2710 C 0.04486 0.32593 0.94694 0.0
C2711 C 0.05861 0.34294 0.93674 0.0
C2712 C 0.0787 0.3469 0.93454 0.0
H2713 H 0.01733 0.42819 0.90364 0.0
H2714 H 0.03923 0.41544 0.91502 0.0
C2715 C 0.08452 0.33331 0.94145 0.0
C2716 C 0.05139 0.35581 0.92787 0.0
H2717 H 0.04187 0.36959 0.88653 0.0
C2718 C 0.04259 0.36459 0.93867 0.0
C2719 C 0.05122 0.35771 0.90881 0.0
C2720 C 0.05957 0.34782 0.89641 0.0
C2721 C 0.03316 0.37475 0.93098 0.0
C2722 C 0.03296 0.37663 0.91192 0.0
C2723 C 0.0422 0.36829 0.90113 0.0
C2724 C 0.02166 0.38559 0.90296 0.0
C2725 C 0.0226 0.38244 0.94333 0.0
C2726 C 1.00526 0.37352 0.89146 0.0
C2727 C 0.99291 0.38086 0.88469 0.0
C2728 C 0.99667 0.40043 0.88934 0.0
C2729 C 1.01388 0.41297 0.89993 0.0
C2730 C 0.02633 0.40565 0.90658 0.0
H2731 H 0.02015 0.37567 0.95708 0.0
H2732 H 0.03216 0.39921 0.94468 0.0
H2733 H 1.0076 0.37894 0.93772 0.0
H2734 H 1.00145 0.35803 0.88837 0.0
H2735 H 0.97982 0.3708 0.87656 0.0
H2736 H 0.77048 0.68059 0.57465 0.0
H2737 H 0.73595 0.65478 0.58366 0.0
H2738 H 0.71219 0.69029 0.55908 0.0
H2739 H 0.74649 0.7159 0.54974 0.0
H2740 H 0.71107 0.66032 0.60652 0.0
H2741 H 0.67304 0.63394 0.54028 0.0
H2742 H 0.70041 0.64859 0.54251 0.0
H2743 H 0.68552 0.66113 0.54236 0.0
C2744 C 0.75786 0.6827 0.57082 0.0
C2745 C 0.76128 0.70031 0.56141 0.0
C2746 C 0.73814 0.66797 0.57605 0.0
C2747 C 0.72143 0.67047 0.57189 0.0
C2748 C 0.72475 0.68777 0.56211 0.0
H2749 H 0.60724 0.62929 0.6253 0.0
H2750 H 0.64312 0.64578 0.61673 0.0
C2751 C 0.74443 0.70248 0.55683 0.0
C2752 C 0.70076 0.65586 0.57887 0.0
H2753 H 0.65107 0.62687 0.56599 0.0
C2754 C 0.69798 0.65277 0.59764 0.0
C2755 C 0.68371 0.64575 0.5673 0.0
C2756 C 0.68583 0.64734 0.54698 0.0
C2757 C 0.67851 0.6406 0.60518 0.0
C2758 C 0.66131 0.63158 0.59367 0.0
C2759 C 0.66421 0.63393 0.57486 0.0
C2760 C 0.64009 0.62049 0.60076 0.0
C2761 C 0.67658 0.63757 0.62541 0.0
C2762 C 0.62637 0.60073 0.59472 0.0
C2763 C 0.60574 0.5913 0.59947 0.0
C2764 C 0.5984 0.6015 0.61031 0.0
C2765 C 0.61236 0.62092 0.61704 0.0
C2766 C 0.63296 0.63037 0.6122 0.0
H2767 H 0.69086 0.63945 0.63142 0.0
H2768 H 0.67362 0.6492 0.63154 0.0
H2769 H 0.66382 0.62224 0.62906 0.0
H2770 H 0.6315 0.59282 0.58585 0.0
H2771 H 0.59543 0.57634 0.59404 0.0
H2772 H 0.30772 0.03489 0.54767 0.0
H2773 H 0.33106 0.02357 0.558 0.0
H2774 H 0.36645 0.0801 0.5866 0.0
H2775 H 0.34308 0.09166 0.57634 0.0
H2776 H 0.38947 0.06384 0.5659 0.0
H2777 H 0.3309 1.00839 0.61314 0.0
H2778 H 0.3222 1.00751 0.59036 0.0
H2779 H 0.32978 0.02988 0.60382 0.0
C2780 C 0.32061 0.04509 0.55594 0.0
C2781 C 0.32339 0.06411 0.56132 0.0
C2782 C 0.33388 0.03853 0.5619 0.0
C2783 C 0.35021 0.05085 0.57332 0.0
C2784 C 0.35381 0.07033 0.57789 0.0
H2785 H 0.41039 0.99234 0.62965 0.0
H2786 H 0.39734 0.01589 0.62443 0.0
C2787 C 0.34047 0.07692 0.57197 0.0
C2788 C 0.36286 0.04282 0.58102 0.0
H2789 H 0.35962 1.00427 0.60742 0.0
C2790 C 0.38308 0.05102 0.57518 0.0
C2791 C 0.35459 0.02634 0.59339 0.0
C2792 C 0.33323 0.01758 0.60071 0.0
C2793 C 0.39487 0.04232 0.58057 0.0
C2794 C 0.3861 0.02494 0.59195 0.0
C2795 C 0.3663 0.01755 0.59865 0.0
C2796 C 0.39617 0.01274 0.5953 0.0
C2797 C 0.41643 0.05149 0.57369 0.0
C2798 C 0.39983 1.00325 0.5807 0.0
C2799 C 0.40706 0.9898 0.58363 0.0
C2800 C 0.4108 0.98549 0.60126 0.0
C2801 C 0.40775 0.99547 0.61592 0.0
C2802 C 0.40029 1.00887 0.61296 0.0
H2803 H 0.42289 0.06784 0.57016 0.0
H2804 H 0.42643 0.05006 0.58388 0.0
H2805 H 0.41652 0.04333 0.56128 0.0
H2806 H 0.39635 1.00565 0.56701 0.0
H2807 H 0.40927 0.98241 0.57203 0.0
H2808 H 0.02246 0.43325 0.60415 0.0
H2809 H 1.00016 0.39817 0.5942 0.0
H2810 H 0.02781 0.37701 0.63317 0.0
H2811 H 0.0504 0.41202 0.64298 0.0
H2812 H 0.02749 0.3632 0.59875 0.0
H2813 H 0.95063 0.34976 0.61728 0.0
H2814 H 0.96575 0.37215 0.60384 0.0
H2815 H 0.97375 0.37064 0.62638 0.0
C2816 C 0.02351 0.4211 0.61088 0.0
C2817 C 0.03825 0.42546 0.62436 0.0
C2818 C 1.0107 0.40103 0.60518 0.0
C2819 C 1.01224 0.38495 0.61299 0.0
C2820 C 0.02638 0.38919 0.62693 0.0
H2821 H 0.9405 0.25626 0.61243 0.0
H2822 H 0.95558 0.29281 0.61685 0.0
C2823 C 0.03924 0.40922 0.63257 0.0
C2824 C 1.00028 0.36389 0.60586 0.0
H2825 H 0.95196 0.32379 0.6007 0.0
C2826 C 1.01096 0.3546 0.59908 0.0
C2827 C 0.97873 0.35274 0.60631 0.0
C2828 C 0.96648 0.36171 0.61397 0.0
C2829 C 1.00075 0.3343 0.59318 0.0
C2830 C 0.97919 0.32308 0.59369 0.0
C2831 C 0.96847 0.33251 0.6001 0.0
C2832 C 0.96775 0.30092 0.58972 0.0
C2833 C 1.01319 0.32478 0.58725 0.0
C2834 C 0.96889 0.29324 0.57274 0.0
C2835 C 0.96031 0.27219 0.57016 0.0
C2836 C 0.95043 0.25857 0.58453 0.0
C2837 C 0.9482 0.26632 0.60112 0.0
C2838 C 0.95675 0.28725 0.60367 0.0
H2839 H 0.0295 0.33425 0.59102 0.0
H2840 H 1.00715 0.30942 0.59335 0.0
H2841 H 1.01231 0.32307 0.57232 0.0
H2842 H 0.97698 0.30353 0.56168 0.0
H2843 H 0.96219 0.26668 0.5572 0.0
H2844 H 0.92562 0.68842 0.7563 0.0
H2845 H 0.96142 0.70868 0.74731 0.0
H2846 H 0.97557 0.6693 0.77869 0.0
H2847 H 0.93997 0.64927 0.7881 0.0
H2848 H 1.00564 0.7094 0.78089 0.0
H2849 H 0.98428 0.68689 0.70923 0.0
H2850 H 0.97253 0.7 0.71935 0.0
H2851 H 0.96647 0.67526 0.72762 0.0
C2852 C 0.93641 0.68427 0.76156 0.0
C2853 C 0.92985 0.66705 0.77276 0.0
C2854 C 0.95685 0.69579 0.75628 0.0
C2855 C 0.97107 0.69018 0.76192 0.0
C2856 C 0.96483 0.67382 0.77404 0.0
H2857 H 0.07953 0.70338 0.71469 0.0
H2858 H 0.04501 0.69421 0.72369 0.0
C2859 C 0.94444 0.66238 0.77943 0.0
C2860 C 0.99214 0.70047 0.7545 0.0
H2861 H 0.01914 0.7083 0.71536 0.0
C2862 C 1.00863 0.70934 0.76655 0.0
C2863 C 0.99598 0.70013 0.73578 0.0
C2864 C 0.97892 0.68992 0.72222 0.0
C2865 C 0.02882 0.71753 0.76047 0.0
C2866 C 0.03266 0.71722 0.74175 0.0
C2867 C 1.01619 0.70872 0.72967 0.0
C2868 C 0.05342 0.72384 0.73466 0.0
C2869 C 0.04576 0.72555 0.77425 0.0
C2870 C 0.06957 0.74382 0.73717 0.0
C2871 C 0.08945 0.74913 0.73208 0.0
C2872 C 0.09348 0.73457 0.72426 0.0
C2873 C 0.07704 0.71496 0.72075 0.0
C2874 C 0.05725 0.70967 0.7259 0.0
H2875 H 0.03988 0.72062 0.7882 0.0
H2876 H 0.05678 0.72036 0.77115 0.0
H2877 H 0.05408 0.74246 0.7739 0.0
H2878 H 0.0669 0.75516 0.74349 0.0
H2879 H 0.10173 0.7644 0.73488 0.0
H2880 H 0.26902 0.35326 0.75152 0.0
H2881 H 0.28281 0.33284 0.76423 0.0
H2882 H 0.3254 0.35056 0.71992 0.0
H2883 H 0.31215 0.37155 0.7074 0.0
H2884 H 0.28812 0.30141 0.75354 0.0
H2885 H 0.36306 0.37125 0.76307 0.0
H2886 H 0.34057 0.37211 0.75654 0.0
H2887 H 0.35491 0.36712 0.73993 0.0
C2888 C 0.28111 0.35257 0.7443 0.0
C2889 C 0.2897 0.36431 0.72857 0.0
C2890 C 0.28899 0.34089 0.75161 0.0
C2891 C 0.30553 0.34062 0.74331 0.0
C2892 C 0.31304 0.35103 0.72685 0.0
H2893 H 0.35764 0.26438 0.76862 0.0
H2894 H 0.33606 0.27746 0.75748 0.0
C2895 C 0.30534 0.3629 0.71963 0.0
C2896 C 0.31569 0.33057 0.75243 0.0
H2897 H 0.36168 0.3398 0.76876 0.0
C2898 C 0.30419 0.30979 0.75693 0.0
C2899 C 0.33655 0.34162 0.75728 0.0
C2900 C 0.34946 0.36429 0.75414 0.0
C2901 C 0.31311 0.29968 0.76574 0.0
C2902 C 0.3342 0.31054 0.7698 0.0
C2903 C 0.34555 0.3314 0.76559 0.0
C2904 C 0.34511 0.30073 0.77802 0.0
C2905 C 0.29974 0.27759 0.77089 0.0
C2906 C 0.35746 0.30937 0.79333 0.0
C2907 C 0.37013 0.30214 0.79955 0.0
C2908 C 0.37067 0.28604 0.79064 0.0
C2909 C 0.3575 0.2767 0.77591 0.0
C2910 C 0.34501 0.2841 0.76956 0.0
H2911 H 0.28357 0.27362 0.77245 0.0
H2912 H 0.30039 0.26786 0.76001 0.0
H2913 H 0.30486 0.27393 0.78371 0.0
H2914 H 0.35782 0.32221 0.8001 0.0
H2915 H 0.38006 0.30967 0.81093 0.0
H2916 H 0.66226 0.925 0.7799 0.0
H2917 H 0.68469 0.96166 0.78259 0.0
H2918 H 0.69021 0.96702 0.72452 0.0
H2919 H 0.66722 0.93014 0.72165 0.0
H2920 H 0.72394 0.98822 0.77184 0.0
H2921 H 0.66916 1.00547 0.73721 0.0
H2922 H 0.66233 0.98009 0.74444 0.0
H2923 H 0.67692 0.99059 0.72409 0.0
C2924 C 0.66829 0.93389 0.76765 0.0
C2925 C 0.66271 0.92464 0.75052 0.0
C2926 C 0.68119 0.95489 0.76924 0.0
C2927 C 0.68883 0.96714 0.75377 0.0
C2928 C 0.68412 0.95789 0.73664 0.0
H2929 H 0.75597 0.09811 0.74023 0.0
H2930 H 0.74123 0.06147 0.73652 0.0
C2931 C 0.6711 0.9368 0.73502 0.0
C2932 C 0.70095 0.98963 0.75577 0.0
H2933 H 0.70057 0.03352 0.74602 0.0
C2934 C 0.71888 0.99815 0.76615 0.0
C2935 C 0.69421 1.00254 0.7485 0.0
C2936 C 0.67452 0.99426 0.73808 0.0
C2937 C 0.73032 0.01924 0.7693 0.0
C2938 C 0.72355 0.03209 0.76202 0.0
C2939 C 0.70574 0.0236 0.75155 0.0
C2940 C 0.73465 0.05444 0.76493 0.0
C2941 C 0.74968 0.02767 0.7802 0.0
C2942 C 0.73616 0.06273 0.78223 0.0
C2943 C 0.74462 0.08382 0.78444 0.0
C2944 C 0.75156 0.09687 0.76934 0.0
C2945 C 0.75067 0.08851 0.75216 0.0
C2946 C 0.74226 0.06755 0.74998 0.0
H2947 H 0.75514 0.01657 0.78141 0.0
H2948 H 0.76192 0.04193 0.77399 0.0
H2949 H 0.7468 0.03135 0.79402 0.0
H2950 H 0.73008 0.05283 0.79392 0.0
H2951 H 0.74499 0.08977 0.79783 0.0
H2952 H 0.27501 0.92196 0.279 0.0
H2953 H 0.28819 0.95818 0.28362 0.0
H2954 H 0.29867 0.96882 0.22628 0.0
H2955 H 0.28555 0.93222 0.22152 0.0
H2956 H 0.33266 0.99283 0.24658 0.0
H2957 H 0.26745 0.99745 0.27452 0.0
H2958 H 0.271 0.97863 0.28611 0.0
H2959 H 0.26433 0.97533 0.26249 0.0
C2960 C 0.27974 0.93189 0.26728 0.0
C2961 C 0.27934 0.92422 0.24989 0.0
C2962 C 0.2871 0.95263 0.26995 0.0
C2963 C 0.29417 0.96622 0.25529 0.0
C2964 C 0.2931 0.95855 0.23777 0.0
H2965 H 0.35211 0.09861 0.27477 0.0
H2966 H 0.3284 0.06437 0.26337 0.0
C2967 C 0.28558 0.93766 0.23506 0.0
C2968 C 0.30494 0.98849 0.2588 0.0
H2969 H 0.30107 0.02518 0.28242 0.0
C2970 C 0.32562 1.0 0.25408 0.0
C2971 C 0.29576 0.99793 0.26849 0.0
C2972 C 0.27335 0.98673 0.27303 0.0
C2973 C 0.33764 0.02027 0.25975 0.0
C2974 C 0.32881 0.02919 0.2706 0.0
C2975 C 0.30787 0.01817 0.27436 0.0
C2976 C 0.34149 0.04952 0.27888 0.0
C2977 C 0.35986 0.03184 0.25449 0.0
C2978 C 0.35613 0.05232 0.29189 0.0
C2979 C 0.36959 0.07175 0.2985 0.0
C2980 C 0.36869 0.08882 0.29222 0.0
C2981 C 0.35323 0.0858 0.2799 0.0
C2982 C 0.3397 0.06627 0.27333 0.0
H2983 H 0.36304 0.02488 0.24263 0.0
H2984 H 0.36477 0.04798 0.25128 0.0
H2985 H 0.36919 0.03167 0.26599 0.0
H2986 H 0.35753 0.0395 0.29655 0.0
H2987 H 0.3812 0.07347 0.30803 0.0
H2988 H 0.93756 0.28733 0.29458 0.0
H2989 H 0.9745 0.30293 0.28987 0.0
H2990 H 0.96468 0.29045 0.23279 0.0
H2991 H 0.92801 0.27502 0.23728 0.0
H2992 H 0.99923 0.2875 0.27232 0.0
H2993 H 1.00196 0.3534 0.23642 0.0
H2994 H 0.98061 0.33617 0.25032 0.0
H2995 H 0.98358 0.3287 0.228 0.0
C2996 C 0.94327 0.28766 0.28108 0.0
C2997 C 0.92987 0.28015 0.26629 0.0
C2998 C 0.96435 0.29659 0.27841 0.0
C2999 C 0.97229 0.29815 0.26093 0.0
C3000 C 0.95887 0.28972 0.24633 0.0
H3001 H 0.09686 0.36708 0.21849 0.0
H3002 H 0.05997 0.34357 0.22102 0.0
C3003 C 0.9379 0.28086 0.24896 0.0
C3004 C 0.99459 0.30944 0.25771 0.0
H3005 H 0.03245 0.35221 0.23744 0.0
C3006 C 1.00653 0.30165 0.26471 0.0
C3007 C 1.00401 0.3278 0.24764 0.0
C3008 C 0.99196 0.33717 0.24025 0.0
C3009 C 0.02771 0.31174 0.26185 0.0
C3010 C 0.03719 0.33031 0.25205 0.0
C3011 C 0.02516 0.33791 0.24484 0.0
C3012 C 0.05967 0.34295 0.2503 0.0
C3013 C 0.0397 0.30233 0.26921 0.0
C3014 C 0.07169 0.35039 0.26587 0.0
C3015 C 0.09263 0.36373 0.26446 0.0
C3016 C 0.10205 0.37012 0.24744 0.0
C3017 C 0.09008 0.3624 0.23179 0.0
C3018 C 0.06902 0.349 0.23322 0.0
H3019 H 0.02991 0.28559 0.27099 0.0
H3020 H 0.05262 0.30534 0.26018 0.0
H3021 H 0.04593 0.30898 0.28267 0.0
H3022 H 0.06479 0.34637 0.27917 0.0
H3023 H 0.10134 0.36937 0.27682 0.0
H3024 H 0.72196 0.63795 0.25421 0.0
H3025 H 0.7121 0.66345 0.24895 0.0
H3026 H 0.75552 0.70252 0.28885 0.0
H3027 H 0.76523 0.67649 0.29463 0.0
H3028 H 0.72011 0.7012 0.29321 0.0
H3029 H 0.73992 0.71556 0.22104 0.0
H3030 H 0.72388 0.68874 0.22462 0.0
H3031 H 0.74865 0.70197 0.23515 0.0
C3032 C 0.7296 0.652 0.26182 0.0
C3033 C 0.74449 0.65521 0.27479 0.0
C3034 C 0.72407 0.66671 0.25863 0.0
C3035 C 0.73349 0.68521 0.26807 0.0
C3036 C 0.74825 0.68848 0.2812 0.0
H3037 H 0.68542 0.76487 0.23248 0.0
H3038 H 0.71082 0.75457 0.2393 0.0
C3039 C 0.75375 0.67359 0.28453 0.0
C3040 C 0.72654 0.70019 0.26496 0.0
H3041 H 0.71226 0.72112 0.23105 0.0
C3042 C 0.71884 0.70596 0.27966 0.0
C3043 C 0.72535 0.70699 0.24737 0.0
C3044 C 0.73514 0.70317 0.23121 0.0
C3045 C 0.70841 0.71674 0.27704 0.0
C3046 C 0.70506 0.72133 0.25922 0.0
C3047 C 0.71436 0.7172 0.24469 0.0
C3048 C 0.69021 0.72824 0.25529 0.0
C3049 C 0.70066 0.72264 0.29343 0.0
C3050 C 0.67011 0.71661 0.26156 0.0
C3051 C 0.65575 0.72248 0.2578 0.0
C3052 C 0.66098 0.73995 0.24736 0.0
C3053 C 0.68096 0.75136 0.24059 0.0
C3054 C 0.69548 0.74553 0.24453 0.0
H3055 H 0.71078 0.72547 0.30525 0.0
H3056 H 0.69957 0.73651 0.29087 0.0
H3057 H 0.68532 0.70993 0.29707 0.0
H3058 H 0.66541 0.70279 0.26926 0.0
H3059 H 0.64044 0.71315 0.26302 0.0
loop_
_geom_bond_atom_site_label_1
_geom_bond_atom_site_label_2
_geom_bond_distance
_geom_bond_site_symmetry_2
_ccdc_geom_bond_type
Mg0 O7 2.141 . S
Mg0 O8 2.048 . S
Mg0 O9 2.048 . S
Mg0 O12 2.141 . S
C1 O2 1.313 . S
C1 O8 1.195 . S
O2 C1 1.313 . S
C3 O4 1.245 . S
C3 O12 1.289 . S
O4 C3 1.245 . S
C5 O6 1.245 . S
C5 O7 1.289 . S
O6 C5 1.245 . S
O7 Mg0 2.141 . S
O7 C5 1.289 . S
O8 Mg0 2.048 . S
O8 C1 1.195 . S
O9 Mg0 2.048 . S
O9 C10 1.195 . S
C10 O9 1.195 . S
C10 O11 1.313 . S
O11 C10 1.313 . S
O12 Mg0 2.141 . S
O12 C3 1.289 . S
Mg13 O20 2.141 . S
Mg13 O21 2.048 . S
Mg13 O22 2.048 . S
Mg13 O25 2.141 . S
C14 O15 1.313 . S
C14 O21 1.195 . S
O15 C14 1.313 . S
C16 O17 1.245 . S
C16 O25 1.289 . S
O17 C16 1.245 . S
C18 O19 1.245 . S
C18 O20 1.289 . S
O19 C18 1.245 . S
O20 Mg13 2.141 . S
O20 C18 1.289 . S
O21 Mg13 2.048 . S
O21 C14 1.195 . S
O22 Mg13 2.048 . S
O22 C23 1.195 . S
C23 O22 1.195 . S
C23 O24 1.313 . S
O24 C23 1.313 . S
O25 Mg13 2.141 . S
O25 C16 1.289 . S
Mg26 O33 2.141 . S
Mg26 O34 2.048 . S
Mg26 O35 2.048 . S
Mg26 O38 2.141 . S
C27 O28 1.313 . S
C27 O34 1.195 . S
O28 C27 1.313 . S
C29 O30 1.245 . S
C29 O38 1.289 . S
O30 C29 1.245 . S
C31 O32 1.245 . S
C31 O33 1.289 . S
O32 C31 1.245 . S
O33 Mg26 2.141 . S
O33 C31 1.289 . S
O34 Mg26 2.048 . S
O34 C27 1.195 . S
O35 Mg26 2.048 . S
O35 C36 1.195 . S
C36 O35 1.195 . S
C36 O37 1.313 . S
O37 C36 1.313 . S
O38 Mg26 2.141 . S
O38 C29 1.289 . S
Mg39 O46 2.141 . S
Mg39 O47 2.048 . S
Mg39 O48 2.048 . S
Mg39 O51 2.141 . S
C40 O41 1.313 . S
C40 O47 1.195 . S
O41 C40 1.313 . S
C42 O43 1.245 . S
C42 O51 1.289 . S
O43 C42 1.245 . S
C44 O45 1.245 . S
C44 O46 1.289 . S
O45 C44 1.245 . S
O46 Mg39 2.141 . S
O46 C44 1.289 . S
O47 Mg39 2.048 . S
O47 C40 1.195 . S
O48 Mg39 2.048 . S
O48 C49 1.195 . S
C49 O48 1.195 . S
C49 O50 1.313 . S
O50 C49 1.313 . S
O51 Mg39 2.141 . S
O51 C42 1.289 . S
Mg52 O59 2.141 . S
Mg52 O60 2.048 . S
Mg52 O61 2.048 . S
Mg52 O64 2.141 . S
C53 O54 1.313 . S
C53 O60 1.195 . S
O54 C53 1.313 . S
C55 O56 1.245 . S
C55 O64 1.289 . S
O56 C55 1.245 . S
C57 O58 1.245 . S
C57 O59 1.289 . S
O58 C57 1.245 . S
O59 Mg52 2.141 . S
O59 C57 1.289 . S
O60 Mg52 2.048 . S
O60 C53 1.195 . S
O61 Mg52 2.048 . S
O61 C62 1.195 . S
C62 O61 1.195 . S
C62 O63 1.313 . S
O63 C62 1.313 . S
O64 Mg52 2.141 . S
O64 C55 1.289 . S
Mg65 O72 2.141 . S
Mg65 O73 2.048 . S
Mg65 O74 2.048 . S
Mg65 O77 2.141 . S
C66 O67 1.313 . S
C66 O73 1.195 . S
O67 C66 1.313 . S
C68 O69 1.245 . S
C68 O77 1.289 . S
O69 C68 1.245 . S
C70 O71 1.245 . S
C70 O72 1.289 . S
O71 C70 1.245 . S
O72 Mg65 2.141 . S
O72 C70 1.289 . S
O73 Mg65 2.048 . S
O73 C66 1.195 . S
O74 Mg65 2.048 . S
O74 C75 1.195 . S
C75 O74 1.195 . S
C75 O76 1.313 . S
O76 C75 1.313 . S
O77 Mg65 2.141 . S
O77 C68 1.289 . S
Mg78 O85 2.141 . S
Mg78 O86 2.048 . S
Mg78 O87 2.048 . S
Mg78 O90 2.141 . S
C79 O80 1.313 . S
C79 O86 1.195 . S
O80 C79 1.313 . S
C81 O82 1.245 . S
C81 O90 1.289 . S
O82 C81 1.245 . S
C83 O84 1.245 . S
C83 O85 1.289 . S
O84 C83 1.245 . S
O85 Mg78 2.141 . S
O85 C83 1.289 . S
O86 Mg78 2.048 . S
O86 C79 1.195 . S
O87 Mg78 2.048 . S
O87 C88 1.195 . S
C88 O87 1.195 . S
C88 O89 1.313 . S
O89 C88 1.313 . S
O90 Mg78 2.141 . S
O90 C81 1.289 . S
Mg91 O98 2.141 . S
Mg91 O99 2.048 . S
Mg91 O100 2.048 . S
Mg91 O103 2.141 . S
C92 O93 1.313 . S
C92 O99 1.195 . S
O93 C92 1.313 . S
C94 O95 1.245 . S
C94 O103 1.289 . S
O95 C94 1.245 . S
C96 O97 1.245 . S
C96 O98 1.289 . S
O97 C96 1.245 . S
O98 Mg91 2.141 . S
O98 C96 1.289 . S
O99 Mg91 2.048 . S
O99 C92 1.195 . S
O100 Mg91 2.048 . S
O100 C101 1.195 . S
C101 O100 1.195 . S
C101 O102 1.313 . S
O102 C101 1.313 . S
O103 Mg91 2.141 . S
O103 C94 1.289 . S
Mg104 O111 2.141 . S
Mg104 O112 2.048 . S
Mg104 O113 2.048 . S
Mg104 O116 2.141 . S
C105 O106 1.313 . S
C105 O112 1.195 . S
O106 C105 1.313 . S
C107 O108 1.245 . S
C107 O116 1.289 . S
O108 C107 1.245 . S
C109 O110 1.245 . S
C109 O111 1.289 . S
O110 C109 1.245 . S
O111 Mg104 2.141 . S
O111 C109 1.289 . S
O112 Mg104 2.048 . S
O112 C105 1.195 . S
O113 Mg104 2.048 . S
O113 C114 1.195 . S
C114 O113 1.195 . S
C114 O115 1.313 . S
O115 C114 1.313 . S
O116 Mg104 2.141 . S
O116 C107 1.289 . S
Mg117 O124 2.141 . S
Mg117 O125 2.048 . S
Mg117 O126 2.048 . S
Mg117 O129 2.141 . S
C118 O119 1.313 . S
C118 O125 1.195 . S
O119 C118 1.313 . S
C120 O121 1.245 . S
C120 O129 1.289 . S
O121 C120 1.245 . S
C122 O123 1.245 . S
C122 O124 1.289 . S
O123 C122 1.245 . S
O124 Mg117 2.141 . S
O124 C122 1.289 . S
O125 Mg117 2.048 . S
O125 C118 1.195 . S
O126 Mg117 2.048 . S
O126 C127 1.195 . S
C127 O126 1.195 . S
C127 O128 1.313 . S
O128 C127 1.313 . S
O129 Mg117 2.141 . S
O129 C120 1.289 . S
Mg130 O137 2.141 . S
Mg130 O138 2.048 . S
Mg130 O139 2.048 . S
Mg130 O142 2.141 . S
C131 O132 1.313 . S
C131 O138 1.195 . S
O132 C131 1.313 . S
C133 O134 1.245 . S
C133 O142 1.289 . S
O134 C133 1.245 . S
C135 O136 1.245 . S
C135 O137 1.289 . S
O136 C135 1.245 . S
O137 Mg130 2.141 . S
O137 C135 1.289 . S
O138 Mg130 2.048 . S
O138 C131 1.195 . S
O139 Mg130 2.048 . S
O139 C140 1.195 . S
C140 O139 1.195 . S
C140 O141 1.313 . S
O141 C140 1.313 . S
O142 Mg130 2.141 . S
O142 C133 1.289 . S
Mg143 O150 2.141 . S
Mg143 O151 2.048 . S
Mg143 O152 2.048 . S
Mg143 O155 2.141 . S
C144 O145 1.313 . S
C144 O151 1.195 . S
O145 C144 1.313 . S
C146 O147 1.245 . S
C146 O155 1.289 . S
O147 C146 1.245 . S
C148 O149 1.245 . S
C148 O150 1.289 . S
O149 C148 1.245 . S
O150 Mg143 2.141 . S
O150 C148 1.289 . S
O151 Mg143 2.048 . S
O151 C144 1.195 . S
O152 Mg143 2.048 . S
O152 C153 1.195 . S
C153 O152 1.195 . S
C153 O154 1.313 . S
O154 C153 1.313 . S
O155 Mg143 2.141 . S
O155 C146 1.289 . S
Mg156 O163 2.141 . S
Mg156 O164 2.048 . S
Mg156 O165 2.048 . S
Mg156 O168 2.141 . S
C157 O158 1.313 . S
C157 O164 1.195 . S
O158 C157 1.313 . S
C159 O160 1.245 . S
C159 O168 1.289 . S
O160 C159 1.245 . S
C161 O162 1.245 . S
C161 O163 1.289 . S
O162 C161 1.245 . S
O163 Mg156 2.141 . S
O163 C161 1.289 . S
O164 Mg156 2.048 . S
O164 C157 1.195 . S
O165 Mg156 2.048 . S
O165 C166 1.195 . S
C166 O165 1.195 . S
C166 O167 1.313 . S
O167 C166 1.313 . S
O168 Mg156 2.141 . S
O168 C159 1.289 . S
Mg169 O176 2.141 . S
Mg169 O177 2.048 . S
Mg169 O178 2.048 . S
Mg169 O181 2.141 . S
C170 O171 1.313 . S
C170 O177 1.195 . S
O171 C170 1.313 . S
C172 O173 1.245 . S
C172 O181 1.289 . S
O173 C172 1.245 . S
C174 O175 1.245 . S
C174 O176 1.289 . S
O175 C174 1.245 . S
O176 Mg169 2.141 . S
O176 C174 1.289 . S
O177 Mg169 2.048 . S
O177 C170 1.195 . S
O178 Mg169 2.048 . S
O178 C179 1.195 . S
C179 O178 1.195 . S
C179 O180 1.313 . S
O180 C179 1.313 . S
O181 Mg169 2.141 . S
O181 C172 1.289 . S
Mg182 O189 2.141 . S
Mg182 O190 2.048 . S
Mg182 O191 2.048 . S
Mg182 O194 2.141 . S
C183 O184 1.313 . S
C183 O190 1.195 . S
O184 C183 1.313 . S
C185 O186 1.245 . S
C185 O194 1.289 . S
O186 C185 1.245 . S
C187 O188 1.245 . S
C187 O189 1.289 . S
O188 C187 1.245 . S
O189 Mg182 2.141 . S
O189 C187 1.289 . S
O190 Mg182 2.048 . S
O190 C183 1.195 . S
O191 Mg182 2.048 . S
O191 C192 1.195 . S
C192 O191 1.195 . S
C192 O193 1.313 . S
O193 C192 1.313 . S
O194 Mg182 2.141 . S
O194 C185 1.289 . S
Mg195 O202 2.141 . S
Mg195 O203 2.048 . S
Mg195 O204 2.048 . S
Mg195 O207 2.141 . S
C196 O197 1.313 . S
C196 O203 1.195 . S
O197 C196 1.313 . S
C198 O199 1.245 . S
C198 O207 1.289 . S
O199 C198 1.245 . S
C200 O201 1.245 . S
C200 O202 1.289 . S
O201 C200 1.245 . S
O202 Mg195 2.141 . S
O202 C200 1.289 . S
O203 Mg195 2.048 . S
O203 C196 1.195 . S
O204 Mg195 2.048 . S
O204 C205 1.195 . S
C205 O204 1.195 . S
C205 O206 1.313 . S
O206 C205 1.313 . S
O207 Mg195 2.141 . S
O207 C198 1.289 . S
Mg208 O215 2.141 . S
Mg208 O216 2.048 . S
Mg208 O217 2.048 . S
Mg208 O220 2.141 . S
C209 O210 1.313 . S
C209 O216 1.195 . S
O210 C209 1.313 . S
C211 O212 1.245 . S
C211 O220 1.289 . S
O212 C211 1.245 . S
C213 O214 1.245 . S
C213 O215 1.289 . S
O214 C213 1.245 . S
O215 Mg208 2.141 . S
O215 C213 1.289 . S
O216 Mg208 2.048 . S
O216 C209 1.195 . S
O217 Mg208 2.048 . S
O217 C218 1.195 . S
C218 O217 1.195 . S
C218 O219 1.313 . S
O219 C218 1.313 . S
O220 Mg208 2.141 . S
O220 C211 1.289 . S
Mg221 O228 2.141 . S
Mg221 O229 2.048 . S
Mg221 O230 2.048 . S
Mg221 O233 2.141 . S
C222 O223 1.313 . S
C222 O229 1.195 . S
O223 C222 1.313 . S
C224 O225 1.245 . S
C224 O233 1.289 . S
O225 C224 1.245 . S
C226 O227 1.245 . S
C226 O228 1.289 . S
O227 C226 1.245 . S
O228 Mg221 2.141 . S
O228 C226 1.289 . S
O229 Mg221 2.048 . S
O229 C222 1.195 . S
O230 Mg221 2.048 . S
O230 C231 1.195 . S
C231 O230 1.195 . S
C231 O232 1.313 . S
O232 C231 1.313 . S
O233 Mg221 2.141 . S
O233 C224 1.289 . S
Mg234 O241 2.141 . S
Mg234 O242 2.048 . S
Mg234 O243 2.048 . S
Mg234 O246 2.141 . S
C235 O236 1.313 . S
C235 O242 1.195 . S
O236 C235 1.313 . S
C237 O238 1.245 . S
C237 O246 1.289 . S
O238 C237 1.245 . S
C239 O240 1.245 . S
C239 O241 1.289 . S
O240 C239 1.245 . S
O241 Mg234 2.141 . S
O241 C239 1.289 . S
O242 Mg234 2.048 . S
O242 C235 1.195 . S
O243 Mg234 2.048 . S
O243 C244 1.195 . S
C244 O243 1.195 . S
C244 O245 1.313 . S
O245 C244 1.313 . S
O246 Mg234 2.141 . S
O246 C237 1.289 . S
Mg247 O254 2.141 . S
Mg247 O255 2.048 . S
Mg247 O256 2.048 . S
Mg247 O259 2.141 . S
C248 O249 1.313 . S
C248 O255 1.195 . S
O249 C248 1.313 . S
C250 O251 1.245 . S
C250 O259 1.289 . S
O251 C250 1.245 . S
C252 O253 1.245 . S
C252 O254 1.289 . S
O253 C252 1.245 . S
O254 Mg247 2.141 . S
O254 C252 1.289 . S
O255 Mg247 2.048 . S
O255 C248 1.195 . S
O256 Mg247 2.048 . S
O256 C257 1.195 . S
C257 O256 1.195 . S
C257 O258 1.313 . S
O258 C257 1.313 . S
O259 Mg247 2.141 . S
O259 C250 1.289 . S
Mg260 O267 2.141 . S
Mg260 O268 2.048 . S
Mg260 O269 2.048 . S
Mg260 O272 2.141 . S
C261 O262 1.313 . S
C261 O268 1.195 . S
O262 C261 1.313 . S
C263 O264 1.245 . S
C263 O272 1.289 . S
O264 C263 1.245 . S
C265 O266 1.245 . S
C265 O267 1.289 . S
O266 C265 1.245 . S
O267 Mg260 2.141 . S
O267 C265 1.289 . S
O268 Mg260 2.048 . S
O268 C261 1.195 . S
O269 Mg260 2.048 . S
O269 C270 1.195 . S
C270 O269 1.195 . S
C270 O271 1.313 . S
O271 C270 1.313 . S
O272 Mg260 2.141 . S
O272 C263 1.289 . S
Mg273 O280 2.141 . S
Mg273 O281 2.048 . S
Mg273 O282 2.048 . S
Mg273 O285 2.141 . S
C274 O275 1.313 . S
C274 O281 1.195 . S
O275 C274 1.313 . S
C276 O277 1.245 . S
C276 O285 1.289 . S
O277 C276 1.245 . S
C278 O279 1.245 . S
C278 O280 1.289 . S
O279 C278 1.245 . S
O280 Mg273 2.141 . S
O280 C278 1.289 . S
O281 Mg273 2.048 . S
O281 C274 1.195 . S
O282 Mg273 2.048 . S
O282 C283 1.195 . S
C283 O282 1.195 . S
C283 O284 1.313 . S
O284 C283 1.313 . S
O285 Mg273 2.141 . S
O285 C276 1.289 . S
Mg286 O293 2.141 . S
Mg286 O294 2.048 . S
Mg286 O295 2.048 . S
Mg286 O298 2.141 . S
C287 O288 1.313 . S
C287 O294 1.195 . S
O288 C287 1.313 . S
C289 O290 1.245 . S
C289 O298 1.289 . S
O290 C289 1.245 . S
C291 O292 1.245 . S
C291 O293 1.289 . S
O292 C291 1.245 . S
O293 Mg286 2.141 . S
O293 C291 1.289 . S
O294 Mg286 2.048 . S
O294 C287 1.195 . S
O295 Mg286 2.048 . S
O295 C296 1.195 . S
C296 O295 1.195 . S
C296 O297 1.313 . S
O297 C296 1.313 . S
O298 Mg286 2.141 . S
O298 C289 1.289 . S
Mg299 O306 2.141 . S
Mg299 O307 2.048 . S
Mg299 O308 2.048 . S
Mg299 O311 2.141 . S
C300 O301 1.313 . S
C300 O307 1.195 . S
O301 C300 1.313 . S
C302 O303 1.245 . S
C302 O311 1.289 . S
O303 C302 1.245 . S
C304 O305 1.245 . S
C304 O306 1.289 . S
O305 C304 1.245 . S
O306 Mg299 2.141 . S
O306 C304 1.289 . S
O307 Mg299 2.048 . S
O307 C300 1.195 . S
O308 Mg299 2.048 . S
O308 C309 1.195 . S
C309 O308 1.195 . S
C309 O310 1.313 . S
O310 C309 1.313 . S
O311 Mg299 2.141 . S
O311 C302 1.289 . S
Mg312 O319 2.141 . S
Mg312 O320 2.048 . S
Mg312 O321 2.048 . S
Mg312 O324 2.141 . S
C313 O314 1.313 . S
C313 O320 1.195 . S
O314 C313 1.313 . S
C315 O316 1.245 . S
C315 O324 1.289 . S
O316 C315 1.245 . S
C317 O318 1.245 . S
C317 O319 1.289 . S
O318 C317 1.245 . S
O319 Mg312 2.141 . S
O319 C317 1.289 . S
O320 Mg312 2.048 . S
O320 C313 1.195 . S
O321 Mg312 2.048 . S
O321 C322 1.195 . S
C322 O321 1.195 . S
C322 O323 1.313 . S
O323 C322 1.313 . S
O324 Mg312 2.141 . S
O324 C315 1.289 . S
Mg325 O332 2.141 . S
Mg325 O333 2.048 . S
Mg325 O334 2.048 . S
Mg325 O337 2.141 . S
C326 O327 1.313 . S
C326 O333 1.195 . S
O327 C326 1.313 . S
C328 O329 1.245 . S
C328 O337 1.289 . S
O329 C328 1.245 . S
C330 O331 1.245 . S
C330 O332 1.289 . S
O331 C330 1.245 . S
O332 Mg325 2.141 . S
O332 C330 1.289 . S
O333 Mg325 2.048 . S
O333 C326 1.195 . S
O334 Mg325 2.048 . S
O334 C335 1.195 . S
C335 O334 1.195 . S
C335 O336 1.313 . S
O336 C335 1.313 . S
O337 Mg325 2.141 . S
O337 C328 1.289 . S
Mg338 O345 2.141 . S
Mg338 O346 2.048 . S
Mg338 O347 2.048 . S
Mg338 O350 2.141 . S
C339 O340 1.313 . S
C339 O346 1.195 . S
O340 C339 1.313 . S
C341 O342 1.245 . S
C341 O350 1.289 . S
O342 C341 1.245 . S
C343 O344 1.245 . S
C343 O345 1.289 . S
O344 C343 1.245 . S
O345 Mg338 2.141 . S
O345 C343 1.289 . S
O346 Mg338 2.048 . S
O346 C339 1.195 . S
O347 Mg338 2.048 . S
O347 C348 1.195 . S
C348 O347 1.195 . S
C348 O349 1.313 . S
O349 C348 1.313 . S
O350 Mg338 2.141 . S
O350 C341 1.289 . S
Mg351 O358 2.141 . S
Mg351 O359 2.048 . S
Mg351 O360 2.048 . S
Mg351 O363 2.141 . S
C352 O353 1.313 . S
C352 O359 1.195 . S
O353 C352 1.313 . S
C354 O355 1.245 . S
C354 O363 1.289 . S
O355 C354 1.245 . S
C356 O357 1.245 . S
C356 O358 1.289 . S
O357 C356 1.245 . S
O358 Mg351 2.141 . S
O358 C356 1.289 . S
O359 Mg351 2.048 . S
O359 C352 1.195 . S
O360 Mg351 2.048 . S
O360 C361 1.195 . S
C361 O360 1.195 . S
C361 O362 1.313 . S
O362 C361 1.313 . S
O363 Mg351 2.141 . S
O363 C354 1.289 . S
Mg364 O371 2.141 . S
Mg364 O372 2.048 . S
Mg364 O373 2.048 . S
Mg364 O376 2.141 . S
C365 O366 1.313 . S
C365 O372 1.195 . S
O366 C365 1.313 . S
C367 O368 1.245 . S
C367 O376 1.289 . S
O368 C367 1.245 . S
C369 O370 1.245 . S
C369 O371 1.289 . S
O370 C369 1.245 . S
O371 Mg364 2.141 . S
O371 C369 1.289 . S
O372 Mg364 2.048 . S
O372 C365 1.195 . S
O373 Mg364 2.048 . S
O373 C374 1.195 . S
C374 O373 1.195 . S
C374 O375 1.313 . S
O375 C374 1.313 . S
O376 Mg364 2.141 . S
O376 C367 1.289 . S
Mg377 O384 2.141 . S
Mg377 O385 2.048 . S
Mg377 O386 2.048 . S
Mg377 O389 2.141 . S
C378 O379 1.313 . S
C378 O385 1.195 . S
O379 C378 1.313 . S
C380 O381 1.245 . S
C380 O389 1.289 . S
O381 C380 1.245 . S
C382 O383 1.245 . S
C382 O384 1.289 . S
O383 C382 1.245 . S
O384 Mg377 2.141 . S
O384 C382 1.289 . S
O385 Mg377 2.048 . S
O385 C378 1.195 . S
O386 Mg377 2.048 . S
O386 C387 1.195 . S
C387 O386 1.195 . S
C387 O388 1.313 . S
O388 C387 1.313 . S
O389 Mg377 2.141 . S
O389 C380 1.289 . S
Mg390 O397 2.141 . S
Mg390 O398 2.048 . S
Mg390 O399 2.048 . S
Mg390 O402 2.141 . S
C391 O392 1.313 . S
C391 O398 1.195 . S
O392 C391 1.313 . S
C393 O394 1.245 . S
C393 O402 1.289 . S
O394 C393 1.245 . S
C395 O396 1.245 . S
C395 O397 1.289 . S
O396 C395 1.245 . S
O397 Mg390 2.141 . S
O397 C395 1.289 . S
O398 Mg390 2.048 . S
O398 C391 1.195 . S
O399 Mg390 2.048 . S
O399 C400 1.195 . S
C400 O399 1.195 . S
C400 O401 1.313 . S
O401 C400 1.313 . S
O402 Mg390 2.141 . S
O402 C393 1.289 . S
Mg403 O410 2.141 . S
Mg403 O411 2.048 . S
Mg403 O412 2.048 . S
Mg403 O415 2.141 . S
C404 O405 1.313 . S
C404 O411 1.195 . S
O405 C404 1.313 . S
C406 O407 1.245 . S
C406 O415 1.289 . S
O407 C406 1.245 . S
C408 O409 1.245 . S
C408 O410 1.289 . S
O409 C408 1.245 . S
O410 Mg403 2.141 . S
O410 C408 1.289 . S
O411 Mg403 2.048 . S
O411 C404 1.195 . S
O412 Mg403 2.048 . S
O412 C413 1.195 . S
C413 O412 1.195 . S
C413 O414 1.313 . S
O414 C413 1.313 . S
O415 Mg403 2.141 . S
O415 C406 1.289 . S
Mg416 O423 2.141 . S
Mg416 O424 2.048 . S
Mg416 O425 2.048 . S
Mg416 O428 2.141 . S
C417 O418 1.313 . S
C417 O424 1.195 . S
O418 C417 1.313 . S
C419 O420 1.245 . S
C419 O428 1.289 . S
O420 C419 1.245 . S
C421 O422 1.245 . S
C421 O423 1.289 . S
O422 C421 1.245 . S
O423 Mg416 2.141 . S
O423 C421 1.289 . S
O424 Mg416 2.048 . S
O424 C417 1.195 . S
O425 Mg416 2.048 . S
O425 C426 1.195 . S
C426 O425 1.195 . S
C426 O427 1.313 . S
O427 C426 1.313 . S
O428 Mg416 2.141 . S
O428 C419 1.289 . S
Mg429 O436 2.141 . S
Mg429 O437 2.048 . S
Mg429 O438 2.048 . S
Mg429 O441 2.141 . S
C430 O431 1.313 . S
C430 O437 1.195 . S
O431 C430 1.313 . S
C432 O433 1.245 . S
C432 O441 1.289 . S
O433 C432 1.245 . S
C434 O435 1.245 . S
C434 O436 1.289 . S
O435 C434 1.245 . S
O436 Mg429 2.141 . S
O436 C434 1.289 . S
O437 Mg429 2.048 . S
O437 C430 1.195 . S
O438 Mg429 2.048 . S
O438 C439 1.195 . S
C439 O438 1.195 . S
C439 O440 1.313 . S
O440 C439 1.313 . S
O441 Mg429 2.141 . S
O441 C432 1.289 . S
Mg442 O449 2.141 . S
Mg442 O450 2.048 . S
Mg442 O451 2.048 . S
Mg442 O454 2.141 . S
C443 O444 1.313 . S
C443 O450 1.195 . S
O444 C443 1.313 . S
C445 O446 1.245 . S
C445 O454 1.289 . S
O446 C445 1.245 . S
C447 O448 1.245 . S
C447 O449 1.289 . S
O448 C447 1.245 . S
O449 Mg442 2.141 . S
O449 C447 1.289 . S
O450 Mg442 2.048 . S
O450 C443 1.195 . S
O451 Mg442 2.048 . S
O451 C452 1.195 . S
C452 O451 1.195 . S
C452 O453 1.313 . S
O453 C452 1.313 . S
O454 Mg442 2.141 . S
O454 C445 1.289 . S
Mg455 O462 2.141 . S
Mg455 O463 2.048 . S
Mg455 O464 2.048 . S
Mg455 O467 2.141 . S
C456 O457 1.313 . S
C456 O463 1.195 . S
O457 C456 1.313 . S
C458 O459 1.245 . S
C458 O467 1.289 . S
O459 C458 1.245 . S
C460 O461 1.245 . S
C460 O462 1.289 . S
O461 C460 1.245 . S
O462 Mg455 2.141 . S
O462 C460 1.289 . S
O463 Mg455 2.048 . S
O463 C456 1.195 . S
O464 Mg455 2.048 . S
O464 C465 1.195 . S
C465 O464 1.195 . S
C465 O466 1.313 . S
O466 C465 1.313 . S
O467 Mg455 2.141 . S
O467 C458 1.289 . S
H468 C476 0.929 . S
H469 C478 0.930 . S
H470 C480 0.930 . S
H471 C483 0.929 . S
H472 C486 0.930 . S
H473 C488 0.960 . S
H474 C488 0.960 . S
H475 C488 0.960 . S
C476 H468 0.929 . S
C476 C477 1.377 . S
C476 C478 1.384 . S
C477 C476 1.377 . S
C477 C483 1.390 . S
C478 H469 0.930 . S
C478 C476 1.384 . S
C478 C479 1.372 . S
C479 C478 1.372 . S
C479 C480 1.400 . S
C479 C484 1.490 . S
C480 H470 0.930 . S
C480 C479 1.400 . S
C480 C483 1.386 . S
H481 C497 0.930 . S
H482 C498 0.931 . S
C483 H471 0.929 . S
C483 C477 1.390 . S
C483 C480 1.386 . S
C484 C479 1.490 . S
C484 C486 1.395 . S
C484 C487 1.403 . S
H485 C491 0.930 . S
C486 H472 0.930 . S
C486 C484 1.395 . S
C486 C489 1.403 . S
C487 C484 1.403 . S
C487 C488 1.524 . S
C487 C491 1.400 . S
C488 H473 0.960 . S
C488 H474 0.960 . S
C488 H475 0.960 . S
C488 C487 1.524 . S
C489 C486 1.403 . S
C489 C490 1.392 . S
C489 C493 1.495 . S
C490 C489 1.392 . S
C490 C491 1.385 . S
C490 C492 1.478 . S
C491 H485 0.930 . S
C491 C487 1.400 . S
C491 C490 1.385 . S
C492 C490 1.478 . S
C492 C494 1.381 . S
C492 C498 1.383 . S
C493 C489 1.495 . S
C493 H499 0.959 . S
C493 H500 0.961 . S
C493 H501 0.960 . S
C494 C492 1.381 . S
C494 C495 1.394 . S
C494 H502 0.930 . S
C495 C494 1.394 . S
C495 C496 1.383 . S
C495 H503 0.929 . S
C496 C495 1.383 . S
C496 C497 1.377 . S
C497 H481 0.930 . S
C497 C496 1.377 . S
C497 C498 1.379 . S
C498 H482 0.931 . S
C498 C492 1.383 . S
C498 C497 1.379 . S
H499 C493 0.959 . S
H500 C493 0.961 . S
H501 C493 0.960 . S
H502 C494 0.930 . S
H503 C495 0.929 . S
H504 C512 0.929 . S
H505 C514 0.930 . S
H506 C516 0.930 . S
H507 C519 0.929 . S
H508 C522 0.930 . S
H509 C524 0.960 . S
H510 C524 0.960 . S
H511 C524 0.960 . S
C512 H504 0.929 . S
C512 C513 1.377 . S
C512 C514 1.384 . S
C513 C512 1.377 . S
C513 C519 1.390 . S
C514 H505 0.930 . S
C514 C512 1.384 . S
C514 C515 1.372 . S
C515 C514 1.372 . S
C515 C516 1.400 . S
C515 C520 1.490 . S
C516 H506 0.930 . S
C516 C515 1.400 . S
C516 C519 1.386 . S
H517 C533 0.930 . S
H518 C534 0.931 . S
C519 H507 0.929 . S
C519 C513 1.390 . S
C519 C516 1.386 . S
C520 C515 1.490 . S
C520 C522 1.395 . S
C520 C523 1.403 . S
H521 C527 0.930 . S
C522 H508 0.930 . S
C522 C520 1.395 . S
C522 C525 1.403 . S
C523 C520 1.403 . S
C523 C524 1.524 . S
C523 C527 1.400 . S
C524 H509 0.960 . S
C524 H510 0.960 . S
C524 H511 0.960 . S
C524 C523 1.524 . S
C525 C522 1.403 . S
C525 C526 1.392 . S
C525 C529 1.495 . S
C526 C525 1.392 . S
C526 C527 1.385 . S
C526 C528 1.478 . S
C527 H521 0.930 . S
C527 C523 1.400 . S
C527 C526 1.385 . S
C528 C526 1.478 . S
C528 C530 1.381 . S
C528 C534 1.383 . S
C529 C525 1.495 . S
C529 H535 0.959 . S
C529 H536 0.961 . S
C529 H537 0.960 . S
C530 C528 1.381 . S
C530 C531 1.394 . S
C530 H538 0.930 . S
C531 C530 1.394 . S
C531 C532 1.383 . S
C531 H539 0.929 . S
C532 C531 1.383 . S
C532 C533 1.377 . S
C533 H517 0.930 . S
C533 C532 1.377 . S
C533 C534 1.379 . S
C534 H518 0.931 . S
C534 C528 1.383 . S
C534 C533 1.379 . S
H535 C529 0.959 . S
H536 C529 0.961 . S
H537 C529 0.960 . S
H538 C530 0.930 . S
H539 C531 0.929 . S
H540 C548 0.929 . S
H541 C550 0.930 . S
H542 C552 0.930 . S
H543 C555 0.929 . S
H544 C558 0.930 . S
H545 C560 0.960 . S
H546 C560 0.960 . S
H547 C560 0.960 . S
C548 H540 0.929 . S
C548 C549 1.377 . S
C548 C550 1.384 . S
C549 C548 1.377 . S
C549 C555 1.390 . S
C550 H541 0.930 . S
C550 C548 1.384 . S
C550 C551 1.372 . S
C551 C550 1.372 . S
C551 C552 1.400 . S
C551 C556 1.490 . S
C552 H542 0.930 . S
C552 C551 1.400 . S
C552 C555 1.386 . S
H553 C569 0.930 . S
H554 C570 0.931 . S
C555 H543 0.929 . S
C555 C549 1.390 . S
C555 C552 1.386 . S
C556 C551 1.490 . S
C556 C558 1.395 . S
C556 C559 1.403 . S
H557 C563 0.930 . S
C558 H544 0.930 . S
C558 C556 1.395 . S
C558 C561 1.403 . S
C559 C556 1.403 . S
C559 C560 1.524 . S
C559 C563 1.400 . S
C560 H545 0.960 . S
C560 H546 0.960 . S
C560 H547 0.960 . S
C560 C559 1.524 . S
C561 C558 1.403 . S
C561 C562 1.392 . S
C561 C565 1.495 . S
C562 C561 1.392 . S
C562 C563 1.385 . S
C562 C564 1.478 . S
C563 H557 0.930 . S
C563 C559 1.400 . S
C563 C562 1.385 . S
C564 C562 1.478 . S
C564 C566 1.381 . S
C564 C570 1.383 . S
C565 C561 1.495 . S
C565 H571 0.959 . S
C565 H572 0.961 . S
C565 H573 0.960 . S
C566 C564 1.381 . S
C566 C567 1.394 . S
C566 H574 0.930 . S
C567 C566 1.394 . S
C567 C568 1.383 . S
C567 H575 0.929 . S
C568 C567 1.383 . S
C568 C569 1.377 . S
C569 H553 0.930 . S
C569 C568 1.377 . S
C569 C570 1.379 . S
C570 H554 0.931 . S
C570 C564 1.383 . S
C570 C569 1.379 . S
H571 C565 0.959 . S
H572 C565 0.961 . S
H573 C565 0.960 . S
H574 C566 0.930 . S
H575 C567 0.929 . S
H576 C584 0.929 . S
H577 C586 0.930 . S
H578 C588 0.930 . S
H579 C591 0.929 . S
H580 C594 0.930 . S
H581 C596 0.960 . S
H582 C596 0.960 . S
H583 C596 0.960 . S
C584 H576 0.929 . S
C584 C585 1.377 . S
C584 C586 1.384 . S
C585 C584 1.377 . S
C585 C591 1.390 . S
C586 H577 0.930 . S
C586 C584 1.384 . S
C586 C587 1.372 . S
C587 C586 1.372 . S
C587 C588 1.400 . S
C587 C592 1.490 . S
C588 H578 0.930 . S
C588 C587 1.400 . S
C588 C591 1.386 . S
H589 C605 0.930 . S
H590 C606 0.931 . S
C591 H579 0.929 . S
C591 C585 1.390 . S
C591 C588 1.386 . S
C592 C587 1.490 . S
C592 C594 1.395 . S
C592 C595 1.403 . S
H593 C599 0.930 . S
C594 H580 0.930 . S
C594 C592 1.395 . S
C594 C597 1.403 . S
C595 C592 1.403 . S
C595 C596 1.524 . S
C595 C599 1.400 . S
C596 H581 0.960 . S
C596 H582 0.960 . S
C596 H583 0.960 . S
C596 C595 1.524 . S
C597 C594 1.403 . S
C597 C598 1.392 . S
C597 C601 1.495 . S
C598 C597 1.392 . S
C598 C599 1.385 . S
C598 C600 1.478 . S
C599 H593 0.930 . S
C599 C595 1.400 . S
C599 C598 1.385 . S
C600 C598 1.478 . S
C600 C602 1.381 . S
C600 C606 1.383 . S
C601 C597 1.495 . S
C601 H607 0.959 . S
C601 H608 0.961 . S
C601 H609 0.960 . S
C602 C600 1.381 . S
C602 C603 1.394 . S
C602 H610 0.930 . S
C603 C602 1.394 . S
C603 C604 1.383 . S
C603 H611 0.929 . S
C604 C603 1.383 . S
C604 C605 1.377 . S
C605 H589 0.930 . S
C605 C604 1.377 . S
C605 C606 1.379 . S
C606 H590 0.931 . S
C606 C600 1.383 . S
C606 C605 1.379 . S
H607 C601 0.959 . S
H608 C601 0.961 . S
H609 C601 0.960 . S
H610 C602 0.930 . S
H611 C603 0.929 . S
H612 C620 0.929 . S
H613 C622 0.930 . S
H614 C624 0.930 . S
H615 C627 0.929 . S
H616 C630 0.930 . S
H617 C632 0.960 . S
H618 C632 0.960 . S
H619 C632 0.960 . S
C620 H612 0.929 . S
C620 C621 1.377 . S
C620 C622 1.384 . S
C621 C620 1.377 . S
C621 C627 1.390 . S
C622 H613 0.930 . S
C622 C620 1.384 . S
C622 C623 1.372 . S
C623 C622 1.372 . S
C623 C624 1.400 . S
C623 C628 1.490 . S
C624 H614 0.930 . S
C624 C623 1.400 . S
C624 C627 1.386 . S
H625 C641 0.930 . S
H626 C642 0.931 . S
C627 H615 0.929 . S
C627 C621 1.390 . S
C627 C624 1.386 . S
C628 C623 1.490 . S
C628 C630 1.395 . S
C628 C631 1.403 . S
H629 C635 0.930 . S
C630 H616 0.930 . S
C630 C628 1.395 . S
C630 C633 1.403 . S
C631 C628 1.403 . S
C631 C632 1.524 . S
C631 C635 1.400 . S
C632 H617 0.960 . S
C632 H618 0.960 . S
C632 H619 0.960 . S
C632 C631 1.524 . S
C633 C630 1.403 . S
C633 C634 1.392 . S
C633 C637 1.495 . S
C634 C633 1.392 . S
C634 C635 1.385 . S
C634 C636 1.478 . S
C635 H629 0.930 . S
C635 C631 1.400 . S
C635 C634 1.385 . S
C636 C634 1.478 . S
C636 C638 1.381 . S
C636 C642 1.383 . S
C637 C633 1.495 . S
C637 H643 0.959 . S
C637 H644 0.961 . S
C637 H645 0.960 . S
C638 C636 1.381 . S
C638 C639 1.394 . S
C638 H646 0.930 . S
C639 C638 1.394 . S
C639 C640 1.383 . S
C639 H647 0.929 . S
C640 C639 1.383 . S
C640 C641 1.377 . S
C641 H625 0.930 . S
C641 C640 1.377 . S
C641 C642 1.379 . S
C642 H626 0.931 . S
C642 C636 1.383 . S
C642 C641 1.379 . S
H643 C637 0.959 . S
H644 C637 0.961 . S
H645 C637 0.960 . S
H646 C638 0.930 . S
H647 C639 0.929 . S
H648 C656 0.929 . S
H649 C658 0.930 . S
H650 C660 0.930 . S
H651 C663 0.929 . S
H652 C666 0.930 . S
H653 C668 0.960 . S
H654 C668 0.960 . S
H655 C668 0.960 . S
C656 H648 0.929 . S
C656 C657 1.377 . S
C656 C658 1.384 . S
C657 C656 1.377 . S
C657 C663 1.390 . S
C658 H649 0.930 . S
C658 C656 1.384 . S
C658 C659 1.372 . S
C659 C658 1.372 . S
C659 C660 1.400 . S
C659 C664 1.490 . S
C660 H650 0.930 . S
C660 C659 1.400 . S
C660 C663 1.386 . S
H661 C677 0.930 . S
H662 C678 0.931 . S
C663 H651 0.929 . S
C663 C657 1.390 . S
C663 C660 1.386 . S
C664 C659 1.490 . S
C664 C666 1.395 . S
C664 C667 1.403 . S
H665 C671 0.930 . S
C666 H652 0.930 . S
C666 C664 1.395 . S
C666 C669 1.403 . S
C667 C664 1.403 . S
C667 C668 1.524 . S
C667 C671 1.400 . S
C668 H653 0.960 . S
C668 H654 0.960 . S
C668 H655 0.960 . S
C668 C667 1.524 . S
C669 C666 1.403 . S
C669 C670 1.392 . S
C669 C673 1.495 . S
C670 C669 1.392 . S
C670 C671 1.385 . S
C670 C672 1.478 . S
C671 H665 0.930 . S
C671 C667 1.400 . S
C671 C670 1.385 . S
C672 C670 1.478 . S
C672 C674 1.381 . S
C672 C678 1.383 . S
C673 C669 1.495 . S
C673 H679 0.959 . S
C673 H680 0.961 . S
C673 H681 0.960 . S
C674 C672 1.381 . S
C674 C675 1.394 . S
C674 H682 0.930 . S
C675 C674 1.394 . S
C675 C676 1.383 . S
C675 H683 0.929 . S
C676 C675 1.383 . S
C676 C677 1.377 . S
C677 H661 0.930 . S
C677 C676 1.377 . S
C677 C678 1.379 . S
C678 H662 0.931 . S
C678 C672 1.383 . S
C678 C677 1.379 . S
H679 C673 0.959 . S
H680 C673 0.961 . S
H681 C673 0.960 . S
H682 C674 0.930 . S
H683 C675 0.929 . S
H684 C692 0.929 . S
H685 C694 0.930 . S
H686 C696 0.930 . S
H687 C699 0.929 . S
H688 C702 0.930 . S
H689 C704 0.960 . S
H690 C704 0.960 . S
H691 C704 0.960 . S
C692 H684 0.929 . S
C692 C693 1.377 . S
C692 C694 1.384 . S
C693 C692 1.377 . S
C693 C699 1.390 . S
C694 H685 0.930 . S
C694 C692 1.384 . S
C694 C695 1.372 . S
C695 C694 1.372 . S
C695 C696 1.400 . S
C695 C700 1.490 . S
C696 H686 0.930 . S
C696 C695 1.400 . S
C696 C699 1.386 . S
H697 C713 0.930 . S
H698 C714 0.931 . S
C699 H687 0.929 . S
C699 C693 1.390 . S
C699 C696 1.386 . S
C700 C695 1.490 . S
C700 C702 1.395 . S
C700 C703 1.403 . S
H701 C707 0.930 . S
C702 H688 0.930 . S
C702 C700 1.395 . S
C702 C705 1.403 . S
C703 C700 1.403 . S
C703 C704 1.524 . S
C703 C707 1.400 . S
C704 H689 0.960 . S
C704 H690 0.960 . S
C704 H691 0.960 . S
C704 C703 1.524 . S
C705 C702 1.403 . S
C705 C706 1.392 . S
C705 C709 1.495 . S
C706 C705 1.392 . S
C706 C707 1.385 . S
C706 C708 1.478 . S
C707 H701 0.930 . S
C707 C703 1.400 . S
C707 C706 1.385 . S
C708 C706 1.478 . S
C708 C710 1.381 . S
C708 C714 1.383 . S
C709 C705 1.495 . S
C709 H715 0.959 . S
C709 H716 0.961 . S
C709 H717 0.960 . S
C710 C708 1.381 . S
C710 C711 1.394 . S
C710 H718 0.930 . S
C711 C710 1.394 . S
C711 C712 1.383 . S
C711 H719 0.929 . S
C712 C711 1.383 . S
C712 C713 1.377 . S
C713 H697 0.930 . S
C713 C712 1.377 . S
C713 C714 1.379 . S
C714 H698 0.931 . S
C714 C708 1.383 . S
C714 C713 1.379 . S
H715 C709 0.959 . S
H716 C709 0.961 . S
H717 C709 0.960 . S
H718 C710 0.930 . S
H719 C711 0.929 . S
H720 C728 0.929 . S
H721 C730 0.930 . S
H722 C732 0.930 . S
H723 C735 0.929 . S
H724 C738 0.930 . S
H725 C740 0.960 . S
H726 C740 0.960 . S
H727 C740 0.960 . S
C728 H720 0.929 . S
C728 C729 1.377 . S
C728 C730 1.384 . S
C729 C728 1.377 . S
C729 C735 1.390 . S
C730 H721 0.930 . S
C730 C728 1.384 . S
C730 C731 1.372 . S
C731 C730 1.372 . S
C731 C732 1.400 . S
C731 C736 1.490 . S
C732 H722 0.930 . S
C732 C731 1.400 . S
C732 C735 1.386 . S
H733 C749 0.930 . S
H734 C750 0.931 . S
C735 H723 0.929 . S
C735 C729 1.390 . S
C735 C732 1.386 . S
C736 C731 1.490 . S
C736 C738 1.395 . S
C736 C739 1.403 . S
H737 C743 0.930 . S
C738 H724 0.930 . S
C738 C736 1.395 . S
C738 C741 1.403 . S
C739 C736 1.403 . S
C739 C740 1.524 . S
C739 C743 1.400 . S
C740 H725 0.960 . S
C740 H726 0.960 . S
C740 H727 0.960 . S
C740 C739 1.524 . S
C741 C738 1.403 . S
C741 C742 1.392 . S
C741 C745 1.495 . S
C742 C741 1.392 . S
C742 C743 1.385 . S
C742 C744 1.478 . S
C743 H737 0.930 . S
C743 C739 1.400 . S
C743 C742 1.385 . S
C744 C742 1.478 . S
C744 C746 1.381 . S
C744 C750 1.383 . S
C745 C741 1.495 . S
C745 H751 0.959 . S
C745 H752 0.961 . S
C745 H753 0.960 . S
C746 C744 1.381 . S
C746 C747 1.394 . S
C746 H754 0.930 . S
C747 C746 1.394 . S
C747 C748 1.383 . S
C747 H755 0.929 . S
C748 C747 1.383 . S
C748 C749 1.377 . S
C749 H733 0.930 . S
C749 C748 1.377 . S
C749 C750 1.379 . S
C750 H734 0.931 . S
C750 C744 1.383 . S
C750 C749 1.379 . S
H751 C745 0.959 . S
H752 C745 0.961 . S
H753 C745 0.960 . S
H754 C746 0.930 . S
H755 C747 0.929 . S
H756 C764 0.929 . S
H757 C766 0.930 . S
H758 C768 0.930 . S
H759 C771 0.929 . S
H760 C774 0.930 . S
H761 C776 0.960 . S
H762 C776 0.960 . S
H763 C776 0.960 . S
C764 H756 0.929 . S
C764 C765 1.377 . S
C764 C766 1.384 . S
C765 C764 1.377 . S
C765 C771 1.390 . S
C766 H757 0.930 . S
C766 C764 1.384 . S
C766 C767 1.372 . S
C767 C766 1.372 . S
C767 C768 1.400 . S
C767 C772 1.490 . S
C768 H758 0.930 . S
C768 C767 1.400 . S
C768 C771 1.386 . S
H769 C785 0.930 . S
H770 C786 0.931 . S
C771 H759 0.929 . S
C771 C765 1.390 . S
C771 C768 1.386 . S
C772 C767 1.490 . S
C772 C774 1.395 . S
C772 C775 1.403 . S
H773 C779 0.930 . S
C774 H760 0.930 . S
C774 C772 1.395 . S
C774 C777 1.403 . S
C775 C772 1.403 . S
C775 C776 1.524 . S
C775 C779 1.400 . S
C776 H761 0.960 . S
C776 H762 0.960 . S
C776 H763 0.960 . S
C776 C775 1.524 . S
C777 C774 1.403 . S
C777 C778 1.392 . S
C777 C781 1.495 . S
C778 C777 1.392 . S
C778 C779 1.385 . S
C778 C780 1.478 . S
C779 H773 0.930 . S
C779 C775 1.400 . S
C779 C778 1.385 . S
C780 C778 1.478 . S
C780 C782 1.381 . S
C780 C786 1.383 . S
C781 C777 1.495 . S
C781 H787 0.959 . S
C781 H788 0.961 . S
C781 H789 0.960 . S
C782 C780 1.381 . S
C782 C783 1.394 . S
C782 H790 0.930 . S
C783 C782 1.394 . S
C783 C784 1.383 . S
C783 H791 0.929 . S
C784 C783 1.383 . S
C784 C785 1.377 . S
C785 H769 0.930 . S
C785 C784 1.377 . S
C785 C786 1.379 . S
C786 H770 0.931 . S
C786 C780 1.383 . S
C786 C785 1.379 . S
H787 C781 0.959 . S
H788 C781 0.961 . S
H789 C781 0.960 . S
H790 C782 0.930 . S
H791 C783 0.929 . S
H792 C800 0.929 . S
H793 C802 0.930 . S
H794 C804 0.930 . S
H795 C807 0.929 . S
H796 C810 0.930 . S
H797 C812 0.960 . S
H798 C812 0.960 . S
H799 C812 0.960 . S
C800 H792 0.929 . S
C800 C801 1.377 . S
C800 C802 1.384 . S
C801 C800 1.377 . S
C801 C807 1.390 . S
C802 H793 0.930 . S
C802 C800 1.384 . S
C802 C803 1.372 . S
C803 C802 1.372 . S
C803 C804 1.400 . S
C803 C808 1.490 . S
C804 H794 0.930 . S
C804 C803 1.400 . S
C804 C807 1.386 . S
H805 C821 0.930 . S
H806 C822 0.931 . S
C807 H795 0.929 . S
C807 C801 1.390 . S
C807 C804 1.386 . S
C808 C803 1.490 . S
C808 C810 1.395 . S
C808 C811 1.403 . S
H809 C815 0.930 . S
C810 H796 0.930 . S
C810 C808 1.395 . S
C810 C813 1.403 . S
C811 C808 1.403 . S
C811 C812 1.524 . S
C811 C815 1.400 . S
C812 H797 0.960 . S
C812 H798 0.960 . S
C812 H799 0.960 . S
C812 C811 1.524 . S
C813 C810 1.403 . S
C813 C814 1.392 . S
C813 C817 1.495 . S
C814 C813 1.392 . S
C814 C815 1.385 . S
C814 C816 1.478 . S
C815 H809 0.930 . S
C815 C811 1.400 . S
C815 C814 1.385 . S
C816 C814 1.478 . S
C816 C818 1.381 . S
C816 C822 1.383 . S
C817 C813 1.495 . S
C817 H823 0.959 . S
C817 H824 0.961 . S
C817 H825 0.960 . S
C818 C816 1.381 . S
C818 C819 1.394 . S
C818 H826 0.930 . S
C819 C818 1.394 . S
C819 C820 1.383 . S
C819 H827 0.929 . S
C820 C819 1.383 . S
C820 C821 1.377 . S
C821 H805 0.930 . S
C821 C820 1.377 . S
C821 C822 1.379 . S
C822 H806 0.931 . S
C822 C816 1.383 . S
C822 C821 1.379 . S
H823 C817 0.959 . S
H824 C817 0.961 . S
H825 C817 0.960 . S
H826 C818 0.930 . S
H827 C819 0.929 . S
H828 C836 0.929 . S
H829 C838 0.930 . S
H830 C840 0.930 . S
H831 C843 0.929 . S
H832 C846 0.930 . S
H833 C848 0.960 . S
H834 C848 0.960 . S
H835 C848 0.960 . S
C836 H828 0.929 . S
C836 C837 1.377 . S
C836 C838 1.384 . S
C837 C836 1.377 . S
C837 C843 1.390 . S
C838 H829 0.930 . S
C838 C836 1.384 . S
C838 C839 1.372 . S
C839 C838 1.372 . S
C839 C840 1.400 . S
C839 C844 1.490 . S
C840 H830 0.930 . S
C840 C839 1.400 . S
C840 C843 1.386 . S
H841 C857 0.930 . S
H842 C858 0.931 . S
C843 H831 0.929 . S
C843 C837 1.390 . S
C843 C840 1.386 . S
C844 C839 1.490 . S
C844 C846 1.395 . S
C844 C847 1.403 . S
H845 C851 0.930 . S
C846 H832 0.930 . S
C846 C844 1.395 . S
C846 C849 1.403 . S
C847 C844 1.403 . S
C847 C848 1.524 . S
C847 C851 1.400 . S
C848 H833 0.960 . S
C848 H834 0.960 . S
C848 H835 0.960 . S
C848 C847 1.524 . S
C849 C846 1.403 . S
C849 C850 1.392 . S
C849 C853 1.495 . S
C850 C849 1.392 . S
C850 C851 1.385 . S
C850 C852 1.478 . S
C851 H845 0.930 . S
C851 C847 1.400 . S
C851 C850 1.385 . S
C852 C850 1.478 . S
C852 C854 1.381 . S
C852 C858 1.383 . S
C853 C849 1.495 . S
C853 H859 0.959 . S
C853 H860 0.961 . S
C853 H861 0.960 . S
C854 C852 1.381 . S
C854 C855 1.394 . S
C854 H862 0.930 . S
C855 C854 1.394 . S
C855 C856 1.383 . S
C855 H863 0.929 . S
C856 C855 1.383 . S
C856 C857 1.377 . S
C857 H841 0.930 . S
C857 C856 1.377 . S
C857 C858 1.379 . S
C858 H842 0.931 . S
C858 C852 1.383 . S
C858 C857 1.379 . S
H859 C853 0.959 . S
H860 C853 0.961 . S
H861 C853 0.960 . S
H862 C854 0.930 . S
H863 C855 0.929 . S
H864 C872 0.929 . S
H865 C874 0.930 . S
H866 C876 0.930 . S
H867 C879 0.929 . S
H868 C882 0.930 . S
H869 C884 0.960 . S
H870 C884 0.960 . S
H871 C884 0.960 . S
C872 H864 0.929 . S
C872 C873 1.377 . S
C872 C874 1.384 . S
C873 C872 1.377 . S
C873 C879 1.390 . S
C874 H865 0.930 . S
C874 C872 1.384 . S
C874 C875 1.372 . S
C875 C874 1.372 . S
C875 C876 1.400 . S
C875 C880 1.490 . S
C876 H866 0.930 . S
C876 C875 1.400 . S
C876 C879 1.386 . S
H877 C893 0.930 . S
H878 C894 0.931 . S
C879 H867 0.929 . S
C879 C873 1.390 . S
C879 C876 1.386 . S
C880 C875 1.490 . S
C880 C882 1.395 . S
C880 C883 1.403 . S
H881 C887 0.930 . S
C882 H868 0.930 . S
C882 C880 1.395 . S
C882 C885 1.403 . S
C883 C880 1.403 . S
C883 C884 1.524 . S
C883 C887 1.400 . S
C884 H869 0.960 . S
C884 H870 0.960 . S
C884 H871 0.960 . S
C884 C883 1.524 . S
C885 C882 1.403 . S
C885 C886 1.392 . S
C885 C889 1.495 . S
C886 C885 1.392 . S
C886 C887 1.385 . S
C886 C888 1.478 . S
C887 H881 0.930 . S
C887 C883 1.400 . S
C887 C886 1.385 . S
C888 C886 1.478 . S
C888 C890 1.381 . S
C888 C894 1.383 . S
C889 C885 1.495 . S
C889 H895 0.959 . S
C889 H896 0.961 . S
C889 H897 0.960 . S
C890 C888 1.381 . S
C890 C891 1.394 . S
C890 H898 0.930 . S
C891 C890 1.394 . S
C891 C892 1.383 . S
C891 H899 0.929 . S
C892 C891 1.383 . S
C892 C893 1.377 . S
C893 H877 0.930 . S
C893 C892 1.377 . S
C893 C894 1.379 . S
C894 H878 0.931 . S
C894 C888 1.383 . S
C894 C893 1.379 . S
H895 C889 0.959 . S
H896 C889 0.961 . S
H897 C889 0.960 . S
H898 C890 0.930 . S
H899 C891 0.929 . S
H900 C908 0.929 . S
H901 C910 0.930 . S
H902 C912 0.930 . S
H903 C915 0.929 . S
H904 C918 0.930 . S
H905 C920 0.960 . S
H906 C920 0.960 . S
H907 C920 0.960 . S
C908 H900 0.929 . S
C908 C909 1.377 . S
C908 C910 1.384 . S
C909 C908 1.377 . S
C909 C915 1.390 . S
C910 H901 0.930 . S
C910 C908 1.384 . S
C910 C911 1.372 . S
C911 C910 1.372 . S
C911 C912 1.400 . S
C911 C916 1.490 . S
C912 H902 0.930 . S
C912 C911 1.400 . S
C912 C915 1.386 . S
H913 C929 0.930 . S
H914 C930 0.931 . S
C915 H903 0.929 . S
C915 C909 1.390 . S
C915 C912 1.386 . S
C916 C911 1.490 . S
C916 C918 1.395 1_655 S
C916 C919 1.403 . S
H917 C923 0.930 . S
C918 H904 0.930 . S
C918 C916 1.395 1_455 S
C918 C921 1.403 . S
C919 C916 1.403 . S
C919 C920 1.524 . S
C919 C923 1.400 . S
C920 H905 0.960 . S
C920 H906 0.960 . S
C920 H907 0.960 . S
C920 C919 1.524 . S
C921 C918 1.403 . S
C921 C922 1.392 . S
C921 C925 1.495 . S
C922 C921 1.392 . S
C922 C923 1.385 1_455 S
C922 C924 1.478 . S
C923 H917 0.930 . S
C923 C919 1.400 . S
C923 C922 1.385 1_655 S
C924 C922 1.478 . S
C924 C926 1.381 . S
C924 C930 1.383 . S
C925 C921 1.495 . S
C925 H931 0.959 . S
C925 H932 0.961 . S
C925 H933 0.960 . S
C926 C924 1.381 . S
C926 C927 1.394 . S
C926 H934 0.930 . S
C927 C926 1.394 . S
C927 C928 1.383 . S
C927 H935 0.929 . S
C928 C927 1.383 . S
C928 C929 1.377 . S
C929 H913 0.930 . S
C929 C928 1.377 . S
C929 C930 1.379 . S
C930 H914 0.931 . S
C930 C924 1.383 . S
C930 C929 1.379 . S
H931 C925 0.959 . S
H932 C925 0.961 . S
H933 C925 0.960 . S
H934 C926 0.930 . S
H935 C927 0.929 . S
H936 C944 0.929 . S
H937 C946 0.930 . S
H938 C948 0.930 . S
H939 C951 0.929 . S
H940 C954 0.930 . S
H941 C956 0.960 . S
H942 C956 0.960 . S
H943 C956 0.960 . S
C944 H936 0.929 . S
C944 C945 1.377 . S
C944 C946 1.384 . S
C945 C944 1.377 . S
C945 C951 1.390 . S
C946 H937 0.930 . S
C946 C944 1.384 . S
C946 C947 1.372 . S
C947 C946 1.372 . S
C947 C948 1.400 . S
C947 C952 1.490 . S
C948 H938 0.930 . S
C948 C947 1.400 . S
C948 C951 1.386 . S
H949 C965 0.930 . S
H950 C966 0.931 . S
C951 H939 0.929 . S
C951 C945 1.390 . S
C951 C948 1.386 . S
C952 C947 1.490 . S
C952 C954 1.395 . S
C952 C955 1.403 . S
H953 C959 0.930 . S
C954 H940 0.930 . S
C954 C952 1.395 . S
C954 C957 1.403 . S
C955 C952 1.403 . S
C955 C956 1.524 . S
C955 C959 1.400 . S
C956 H941 0.960 . S
C956 H942 0.960 . S
C956 H943 0.960 . S
C956 C955 1.524 . S
C957 C954 1.403 . S
C957 C958 1.392 . S
C957 C961 1.495 . S
C958 C957 1.392 . S
C958 C959 1.385 . S
C958 C960 1.478 . S
C959 H953 0.930 . S
C959 C955 1.400 . S
C959 C958 1.385 . S
C960 C958 1.478 . S
C960 C962 1.381 . S
C960 C966 1.383 . S
C961 C957 1.495 . S
C961 H967 0.959 . S
C961 H968 0.961 . S
C961 H969 0.960 . S
C962 C960 1.381 . S
C962 C963 1.394 . S
C962 H970 0.930 . S
C963 C962 1.394 . S
C963 C964 1.383 . S
C963 H971 0.929 . S
C964 C963 1.383 . S
C964 C965 1.377 . S
C965 H949 0.930 . S
C965 C964 1.377 . S
C965 C966 1.379 . S
C966 H950 0.931 . S
C966 C960 1.383 . S
C966 C965 1.379 . S
H967 C961 0.959 . S
H968 C961 0.961 . S
H969 C961 0.960 . S
H970 C962 0.930 . S
H971 C963 0.929 . S
H972 C980 0.929 . S
H973 C982 0.930 . S
H974 C984 0.930 . S
H975 C987 0.929 . S
H976 C990 0.930 . S
H977 C992 0.960 1_565 S
H978 C992 0.958 1_565 S
H979 C992 0.962 . S
C980 H972 0.929 . S
C980 C981 1.377 . S
C980 C982 1.384 . S
C981 C980 1.377 . S
C981 C987 1.390 . S
C982 H973 0.930 . S
C982 C980 1.384 . S
C982 C983 1.372 . S
C983 C982 1.372 . S
C983 C984 1.400 . S
C983 C988 1.490 . S
C984 H974 0.930 . S
C984 C983 1.400 . S
C984 C987 1.386 . S
H985 C1001 0.930 . S
H986 C1002 0.931 . S
C987 H975 0.929 . S
C987 C981 1.390 . S
C987 C984 1.386 . S
C988 C983 1.490 . S
C988 C990 1.395 . S
C988 C991 1.402 . S
H989 C995 0.930 . S
C990 H976 0.930 . S
C990 C988 1.395 . S
C990 C993 1.403 1_545 S
C991 C988 1.402 . S
C991 C992 1.531 . S
C991 C995 1.393 1_545 S
C992 H977 0.960 1_545 S
C992 H978 0.958 1_545 S
C992 H979 0.962 . S
C992 C991 1.531 . S
C993 C990 1.403 1_565 S
C993 C994 1.392 . S
C993 C997 1.495 . S
C994 C993 1.392 . S
C994 C995 1.385 . S
C994 C996 1.478 . S
C995 H989 0.930 . S
C995 C991 1.393 1_565 S
C995 C994 1.385 . S
C996 C994 1.478 . S
C996 C998 1.381 . S
C996 C1002 1.383 . S
C997 C993 1.495 . S
C997 H1003 0.959 1_565 S
C997 H1004 0.961 1_565 S
C997 H1005 0.960 . S
C998 C996 1.381 . S
C998 C999 1.394 . S
C998 H1006 0.930 . S
C999 C998 1.394 . S
C999 C1000 1.383 . S
C999 H1007 0.929 . S
C1000 C999 1.383 . S
C1000 C1001 1.377 . S
C1001 H985 0.930 . S
C1001 C1000 1.377 . S
C1001 C1002 1.379 . S
C1002 H986 0.931 . S
C1002 C996 1.383 . S
C1002 C1001 1.379 . S
H1003 C997 0.959 1_545 S
H1004 C997 0.961 1_545 S
H1005 C997 0.960 . S
H1006 C998 0.930 . S
H1007 C999 0.929 . S
H1008 C1016 0.929 . S
H1009 C1018 0.930 . S
H1010 C1020 0.930 . S
H1011 C1023 0.929 . S
H1012 C1026 0.930 . S
H1013 C1028 0.960 . S
H1014 C1028 0.960 . S
H1015 C1028 0.960 . S
C1016 H1008 0.929 . S
C1016 C1017 1.377 . S
C1016 C1018 1.384 . S
C1017 C1016 1.377 . S
C1017 C1023 1.390 . S
C1018 H1009 0.930 . S
C1018 C1016 1.384 . S
C1018 C1019 1.372 . S
C1019 C1018 1.372 . S
C1019 C1020 1.400 . S
C1019 C1024 1.490 . S
C1020 H1010 0.930 . S
C1020 C1019 1.400 . S
C1020 C1023 1.386 . S
H1021 C1037 0.930 . S
H1022 C1038 0.931 . S
C1023 H1011 0.929 . S
C1023 C1017 1.390 . S
C1023 C1020 1.386 . S
C1024 C1019 1.490 . S
C1024 C1026 1.395 1_556 S
C1024 C1027 1.403 . S
H1025 C1031 0.933 . S
C1026 H1012 0.930 . S
C1026 C1024 1.395 1_554 S
C1026 C1029 1.403 1_545 S
C1027 C1024 1.403 . S
C1027 C1028 1.524 . S
C1027 C1031 1.400 1_546 S
C1028 H1013 0.960 . S
C1028 H1014 0.960 . S
C1028 H1015 0.960 . S
C1028 C1027 1.524 . S
C1029 C1026 1.403 1_565 S
C1029 C1030 1.392 . S
C1029 C1033 1.495 . S
C1030 C1029 1.392 . S
C1030 C1031 1.385 . S
C1030 C1032 1.478 . S
C1031 H1025 0.933 . S
C1031 C1027 1.400 1_564 S
C1031 C1030 1.385 . S
C1032 C1030 1.478 . S
C1032 C1034 1.381 . S
C1032 C1038 1.383 . S
C1033 C1029 1.495 . S
C1033 H1039 0.959 . S
C1033 H1040 0.961 . S
C1033 H1041 0.960 . S
C1034 C1032 1.381 . S
C1034 C1035 1.394 . S
C1034 H1042 0.930 . S
C1035 C1034 1.394 . S
C1035 C1036 1.383 . S
C1035 H1043 0.929 . S
C1036 C1035 1.383 . S
C1036 C1037 1.377 . S
C1037 H1021 0.930 . S
C1037 C1036 1.377 . S
C1037 C1038 1.379 . S
C1038 H1022 0.931 . S
C1038 C1032 1.383 . S
C1038 C1037 1.379 . S
H1039 C1033 0.959 . S
H1040 C1033 0.961 . S
H1041 C1033 0.960 . S
H1042 C1034 0.930 . S
H1043 C1035 0.929 . S
H1044 C1052 0.929 . S
H1045 C1054 0.930 . S
H1046 C1056 0.930 . S
H1047 C1059 0.929 . S
H1048 C1062 0.930 . S
H1049 C1064 0.960 . S
H1050 C1064 0.960 . S
H1051 C1064 0.960 . S
C1052 H1044 0.929 . S
C1052 C1053 1.377 . S
C1052 C1054 1.384 . S
C1053 C1052 1.377 . S
C1053 C1059 1.390 . S
C1054 H1045 0.930 . S
C1054 C1052 1.384 . S
C1054 C1055 1.372 . S
C1055 C1054 1.372 . S
C1055 C1056 1.400 . S
C1055 C1060 1.490 . S
C1056 H1046 0.930 . S
C1056 C1055 1.400 . S
C1056 C1059 1.386 . S
H1057 C1073 0.930 . S
H1058 C1074 0.931 . S
C1059 H1047 0.929 . S
C1059 C1053 1.390 . S
C1059 C1056 1.386 . S
C1060 C1055 1.490 . S
C1060 C1062 1.395 1_556 S
C1060 C1063 1.403 1_655 S
H1061 C1067 0.930 1_556 S
C1062 H1048 0.930 . S
C1062 C1060 1.395 1_554 S
C1062 C1065 1.403 . S
C1063 C1060 1.403 1_455 S
C1063 C1064 1.524 . S
C1063 C1067 1.388 1_556 S
C1064 H1049 0.960 . S
C1064 H1050 0.960 . S
C1064 H1051 0.960 . S
C1064 C1063 1.524 . S
C1065 C1062 1.403 . S
C1065 C1066 1.392 1_655 S
C1065 C1069 1.495 . S
C1066 C1065 1.392 1_455 S
C1066 C1067 1.397 . S
C1066 C1068 1.478 . S
C1067 H1061 0.930 1_554 S
C1067 C1063 1.388 1_554 S
C1067 C1066 1.397 . S
C1068 C1066 1.478 . S
C1068 C1070 1.381 . S
C1068 C1074 1.383 . S
C1069 C1065 1.495 . S
C1069 H1075 0.959 . S
C1069 H1076 0.961 . S
C1069 H1077 0.960 . S
C1070 C1068 1.381 . S
C1070 C1071 1.394 . S
C1070 H1078 0.930 . S
C1071 C1070 1.394 . S
C1071 C1072 1.383 . S
C1071 H1079 0.929 . S
C1072 C1071 1.383 . S
C1072 C1073 1.377 . S
C1073 H1057 0.930 . S
C1073 C1072 1.377 . S
C1073 C1074 1.379 . S
C1074 H1058 0.931 . S
C1074 C1068 1.383 . S
C1074 C1073 1.379 . S
H1075 C1069 0.959 . S
H1076 C1069 0.961 . S
H1077 C1069 0.960 . S
H1078 C1070 0.930 . S
H1079 C1071 0.929 . S
H1080 C1088 0.929 . S
H1081 C1090 0.930 . S
H1082 C1092 0.930 . S
H1083 C1095 0.929 . S
H1084 C1098 0.930 . S
H1085 C1100 0.960 . S
H1086 C1100 0.960 . S
H1087 C1100 0.960 1_556 S
C1088 H1080 0.929 . S
C1088 C1089 1.377 . S
C1088 C1090 1.384 . S
C1089 C1088 1.377 . S
C1089 C1095 1.390 . S
C1090 H1081 0.930 . S
C1090 C1088 1.384 . S
C1090 C1091 1.372 . S
C1091 C1090 1.372 . S
C1091 C1092 1.400 . S
C1091 C1096 1.490 . S
C1092 H1082 0.930 . S
C1092 C1091 1.400 . S
C1092 C1095 1.386 . S
H1093 C1109 0.930 . S
H1094 C1110 0.931 . S
C1095 H1083 0.929 . S
C1095 C1089 1.390 . S
C1095 C1092 1.386 . S
C1096 C1091 1.490 . S
C1096 C1098 1.395 . S
C1096 C1099 1.403 1_556 S
H1097 C1103 0.930 . S
C1098 H1084 0.930 . S
C1098 C1096 1.395 . S
C1098 C1101 1.403 . S
C1099 C1096 1.403 1_554 S
C1099 C1100 1.524 . S
C1099 C1103 1.400 . S
C1100 H1085 0.960 . S
C1100 H1086 0.960 . S
C1100 H1087 0.960 1_554 S
C1100 C1099 1.524 . S
C1101 C1098 1.403 . S
C1101 C1102 1.392 1_556 S
C1101 C1105 1.495 . S
C1102 C1101 1.392 1_554 S
C1102 C1103 1.385 . S
C1102 C1104 1.478 . S
C1103 H1097 0.930 . S
C1103 C1099 1.400 . S
C1103 C1102 1.385 . S
C1104 C1102 1.478 . S
C1104 C1106 1.381 . S
C1104 C1110 1.383 . S
C1105 C1101 1.495 . S
C1105 H1111 0.959 . S
C1105 H1112 0.961 . S
C1105 H1113 0.960 1_556 S
C1106 C1104 1.381 . S
C1106 C1107 1.394 . S
C1106 H1114 0.930 . S
C1107 C1106 1.394 . S
C1107 C1108 1.383 . S
C1107 H1115 0.929 . S
C1108 C1107 1.383 . S
C1108 C1109 1.377 . S
C1109 H1093 0.930 . S
C1109 C1108 1.377 . S
C1109 C1110 1.379 . S
C1110 H1094 0.931 . S
C1110 C1104 1.383 . S
C1110 C1109 1.379 . S
H1111 C1105 0.959 . S
H1112 C1105 0.961 . S
H1113 C1105 0.960 1_554 S
H1114 C1106 0.930 . S
H1115 C1107 0.929 . S
H1116 C1124 0.929 . S
H1117 C1126 0.930 1_564 S
H1118 C1128 0.930 . S
H1119 C1131 0.929 . S
H1120 C1134 0.930 . S
H1121 C1136 0.960 . S
H1122 C1136 0.960 . S
H1123 C1136 0.960 . S
C1124 H1116 0.929 . S
C1124 C1125 1.377 . S
C1124 C1126 1.339 1_565 S
C1125 C1124 1.377 . S
C1125 C1131 1.390 1_565 S
C1126 H1117 0.930 1_546 S
C1126 C1124 1.339 1_545 S
C1126 C1127 1.420 . S
C1127 C1126 1.420 . S
C1127 C1128 1.400 . S
C1127 C1132 1.490 . S
C1128 H1118 0.930 . S
C1128 C1127 1.400 . S
C1128 C1131 1.386 . S
H1129 C1145 0.930 . S
H1130 C1146 0.931 . S
C1131 H1119 0.929 . S
C1131 C1125 1.390 1_545 S
C1131 C1128 1.386 . S
C1132 C1127 1.490 . S
C1132 C1134 1.395 1_556 S
C1132 C1135 1.403 . S
H1133 C1139 0.930 . S
C1134 H1120 0.930 . S
C1134 C1132 1.395 1_554 S
C1134 C1137 1.403 . S
C1135 C1132 1.403 . S
C1135 C1136 1.524 . S
C1135 C1139 1.400 1_556 S
C1136 H1121 0.960 . S
C1136 H1122 0.960 . S
C1136 H1123 0.960 . S
C1136 C1135 1.524 . S
C1137 C1134 1.403 . S
C1137 C1138 1.392 . S
C1137 C1141 1.495 . S
C1138 C1137 1.392 . S
C1138 C1139 1.385 . S
C1138 C1140 1.478 . S
C1139 H1133 0.930 . S
C1139 C1135 1.400 1_554 S
C1139 C1138 1.385 . S
C1140 C1138 1.478 . S
C1140 C1142 1.381 . S
C1140 C1146 1.383 . S
C1141 C1137 1.495 . S
C1141 H1147 0.959 . S
C1141 H1148 0.961 . S
C1141 H1149 0.960 . S
C1142 C1140 1.381 . S
C1142 C1143 1.394 . S
C1142 H1150 0.930 . S
C1143 C1142 1.394 . S
C1143 C1144 1.383 . S
C1143 H1151 0.929 . S
C1144 C1143 1.383 . S
C1144 C1145 1.377 . S
C1145 H1129 0.930 . S
C1145 C1144 1.377 . S
C1145 C1146 1.379 . S
C1146 H1130 0.931 . S
C1146 C1140 1.383 . S
C1146 C1145 1.379 . S
H1147 C1141 0.959 . S
H1148 C1141 0.961 . S
H1149 C1141 0.960 . S
H1150 C1142 0.930 . S
H1151 C1143 0.929 . S
H1152 C1160 0.929 . S
H1153 C1162 0.930 . S
H1154 C1164 0.938 . S
H1155 C1167 0.929 . S
H1156 C1170 0.930 . S
H1157 C1172 0.960 . S
H1158 C1172 0.960 . S
H1159 C1172 0.960 . S
C1160 H1152 0.929 . S
C1160 C1161 1.377 1_655 S
C1160 C1162 1.384 . S
C1161 C1160 1.377 1_455 S
C1161 C1167 1.390 . S
C1162 H1153 0.930 . S
C1162 C1160 1.384 . S
C1162 C1163 1.372 . S
C1163 C1162 1.372 . S
C1163 C1164 1.400 . S
C1163 C1168 1.490 . S
C1164 H1154 0.938 . S
C1164 C1163 1.400 . S
C1164 C1167 1.386 1_655 S
H1165 C1181 0.930 . S
H1166 C1182 0.931 . S
C1167 H1155 0.929 . S
C1167 C1161 1.390 . S
C1167 C1164 1.386 1_455 S
C1168 C1163 1.490 . S
C1168 C1170 1.395 . S
C1168 C1171 1.403 1_556 S
H1169 C1175 0.930 . S
C1170 H1156 0.930 . S
C1170 C1168 1.395 . S
C1170 C1173 1.403 . S
C1171 C1168 1.403 1_554 S
C1171 C1172 1.524 . S
C1171 C1175 1.400 . S
C1172 H1157 0.960 . S
C1172 H1158 0.960 . S
C1172 H1159 0.960 . S
C1172 C1171 1.524 . S
C1173 C1170 1.403 . S
C1173 C1174 1.392 1_556 S
C1173 C1177 1.495 . S
C1174 C1173 1.392 1_554 S
C1174 C1175 1.385 . S
C1174 C1176 1.478 . S
C1175 H1169 0.930 . S
C1175 C1171 1.400 . S
C1175 C1174 1.385 . S
C1176 C1174 1.478 . S
C1176 C1178 1.381 . S
C1176 C1182 1.383 . S
C1177 C1173 1.495 . S
C1177 H1183 0.959 . S
C1177 H1184 0.961 . S
C1177 H1185 0.960 . S
C1178 C1176 1.381 . S
C1178 C1179 1.394 . S
C1178 H1186 0.930 . S
C1179 C1178 1.394 . S
C1179 C1180 1.383 . S
C1179 H1187 0.929 . S
C1180 C1179 1.383 . S
C1180 C1181 1.377 . S
C1181 H1165 0.930 . S
C1181 C1180 1.377 . S
C1181 C1182 1.379 . S
C1182 H1166 0.931 . S
C1182 C1176 1.383 . S
C1182 C1181 1.379 . S
H1183 C1177 0.959 . S
H1184 C1177 0.961 . S
H1185 C1177 0.960 . S
H1186 C1178 0.930 . S
H1187 C1179 0.929 . S
H1188 C1196 0.929 . S
H1189 C1198 0.930 . S
H1190 C1200 0.930 . S
H1191 C1203 0.929 . S
H1192 C1206 0.930 . S
H1193 C1208 0.960 . S
H1194 C1208 0.960 . S
H1195 C1208 0.959 1_554 S
C1196 H1188 0.929 . S
C1196 C1197 1.377 . S
C1196 C1198 1.384 . S
C1197 C1196 1.377 . S
C1197 C1203 1.390 . S
C1198 H1189 0.930 . S
C1198 C1196 1.384 . S
C1198 C1199 1.372 . S
C1199 C1198 1.372 . S
C1199 C1200 1.400 . S
C1199 C1204 1.490 . S
C1200 H1190 0.930 . S
C1200 C1199 1.400 . S
C1200 C1203 1.386 . S
H1201 C1217 0.930 . S
H1202 C1218 0.931 . S
C1203 H1191 0.929 . S
C1203 C1197 1.390 . S
C1203 C1200 1.386 . S
C1204 C1199 1.490 . S
C1204 C1206 1.395 . S
C1204 C1207 1.419 . S
H1205 C1211 0.930 . S
C1206 H1192 0.930 . S
C1206 C1204 1.395 . S
C1206 C1209 1.403 . S
C1207 C1204 1.419 . S
C1207 C1208 1.516 1_554 S
C1207 C1211 1.391 1_554 S
C1208 H1193 0.960 . S
C1208 H1194 0.960 . S
C1208 H1195 0.959 1_556 S
C1208 C1207 1.516 1_556 S
C1209 C1206 1.403 . S
C1209 C1210 1.392 1_554 S
C1209 C1213 1.495 . S
C1210 C1209 1.392 1_556 S
C1210 C1211 1.385 . S
C1210 C1212 1.478 . S
C1211 H1205 0.930 . S
C1211 C1207 1.391 1_556 S
C1211 C1210 1.385 . S
C1212 C1210 1.478 . S
C1212 C1214 1.381 . S
C1212 C1218 1.383 . S
C1213 C1209 1.495 . S
C1213 H1219 0.959 . S
C1213 H1220 0.961 . S
C1213 H1221 0.960 . S
C1214 C1212 1.381 . S
C1214 C1215 1.394 . S
C1214 H1222 0.930 . S
C1215 C1214 1.394 . S
C1215 C1216 1.383 . S
C1215 H1223 0.929 . S
C1216 C1215 1.383 . S
C1216 C1217 1.377 . S
C1217 H1201 0.930 . S
C1217 C1216 1.377 . S
C1217 C1218 1.379 . S
C1218 H1202 0.931 . S
C1218 C1212 1.383 . S
C1218 C1217 1.379 . S
H1219 C1213 0.959 . S
H1220 C1213 0.961 . S
H1221 C1213 0.960 . S
H1222 C1214 0.930 . S
H1223 C1215 0.929 . S
H1224 C1232 0.929 . S
H1225 C1234 0.930 . S
H1226 C1236 0.930 . S
H1227 C1239 0.929 . S
H1228 C1242 0.930 . S
H1229 C1244 0.960 . S
H1230 C1244 0.960 . S
H1231 C1244 0.960 . S
C1232 H1224 0.929 . S
C1232 C1233 1.377 1_455 S
C1232 C1234 1.384 . S
C1233 C1232 1.377 1_655 S
C1233 C1239 1.390 . S
C1234 H1225 0.930 . S
C1234 C1232 1.384 . S
C1234 C1235 1.372 . S
C1235 C1234 1.372 . S
C1235 C1236 1.400 . S
C1235 C1240 1.490 . S
C1236 H1226 0.930 . S
C1236 C1235 1.400 . S
C1236 C1239 1.386 1_455 S
H1237 C1253 0.930 . S
H1238 C1254 0.931 . S
C1239 H1227 0.929 . S
C1239 C1233 1.390 . S
C1239 C1236 1.386 1_655 S
C1240 C1235 1.490 . S
C1240 C1242 1.395 . S
C1240 C1243 1.403 . S
H1241 C1247 0.930 . S
C1242 H1228 0.930 . S
C1242 C1240 1.395 . S
C1242 C1245 1.403 . S
C1243 C1240 1.403 . S
C1243 C1244 1.524 . S
C1243 C1247 1.400 . S
C1244 H1229 0.960 . S
C1244 H1230 0.960 . S
C1244 H1231 0.960 . S
C1244 C1243 1.524 . S
C1245 C1242 1.403 . S
C1245 C1246 1.392 . S
C1245 C1249 1.495 . S
C1246 C1245 1.392 . S
C1246 C1247 1.385 . S
C1246 C1248 1.478 . S
C1247 H1241 0.930 . S
C1247 C1243 1.400 . S
C1247 C1246 1.385 . S
C1248 C1246 1.478 . S
C1248 C1250 1.381 . S
C1248 C1254 1.383 . S
C1249 C1245 1.495 . S
C1249 H1255 0.959 . S
C1249 H1256 0.961 . S
C1249 H1257 0.960 . S
C1250 C1248 1.381 . S
C1250 C1251 1.394 . S
C1250 H1258 0.930 . S
C1251 C1250 1.394 . S
C1251 C1252 1.383 . S
C1251 H1259 0.929 . S
C1252 C1251 1.383 . S
C1252 C1253 1.377 . S
C1253 H1237 0.930 . S
C1253 C1252 1.377 . S
C1253 C1254 1.379 . S
C1254 H1238 0.931 . S
C1254 C1248 1.383 . S
C1254 C1253 1.379 . S
H1255 C1249 0.959 . S
H1256 C1249 0.961 . S
H1257 C1249 0.960 . S
H1258 C1250 0.930 . S
H1259 C1251 0.929 . S
H1260 C1268 0.929 . S
H1261 C1270 0.930 . S
H1262 C1272 0.930 . S
H1263 C1275 0.929 . S
H1264 C1278 0.930 . S
H1265 C1280 0.960 . S
H1266 C1280 0.960 . S
H1267 C1280 0.960 . S
C1268 H1260 0.929 . S
C1268 C1269 1.377 . S
C1268 C1270 1.384 . S
C1269 C1268 1.377 . S
C1269 C1275 1.390 . S
C1270 H1261 0.930 . S
C1270 C1268 1.384 . S
C1270 C1271 1.372 . S
C1271 C1270 1.372 . S
C1271 C1272 1.400 . S
C1271 C1276 1.490 . S
C1272 H1262 0.930 . S
C1272 C1271 1.400 . S
C1272 C1275 1.386 . S
H1273 C1289 0.930 . S
H1274 C1290 0.931 . S
C1275 H1263 0.929 . S
C1275 C1269 1.390 . S
C1275 C1272 1.386 . S
C1276 C1271 1.490 . S
C1276 C1278 1.395 . S
C1276 C1279 1.403 . S
H1277 C1283 0.930 . S
C1278 H1264 0.930 . S
C1278 C1276 1.395 . S
C1278 C1281 1.403 . S
C1279 C1276 1.403 . S
C1279 C1280 1.524 . S
C1279 C1283 1.400 . S
C1280 H1265 0.960 . S
C1280 H1266 0.960 . S
C1280 H1267 0.960 . S
C1280 C1279 1.524 . S
C1281 C1278 1.403 . S
C1281 C1282 1.392 . S
C1281 C1285 1.495 . S
C1282 C1281 1.392 . S
C1282 C1283 1.385 . S
C1282 C1284 1.478 . S
C1283 H1277 0.930 . S
C1283 C1279 1.400 . S
C1283 C1282 1.385 . S
C1284 C1282 1.478 . S
C1284 C1286 1.381 . S
C1284 C1290 1.383 . S
C1285 C1281 1.495 . S
C1285 H1291 0.959 . S
C1285 H1292 0.961 . S
C1285 H1293 0.960 . S
C1286 C1284 1.381 . S
C1286 C1287 1.394 . S
C1286 H1294 0.930 . S
C1287 C1286 1.394 . S
C1287 C1288 1.383 . S
C1287 H1295 0.929 . S
C1288 C1287 1.383 . S
C1288 C1289 1.377 . S
C1289 H1273 0.930 . S
C1289 C1288 1.377 . S
C1289 C1290 1.379 . S
C1290 H1274 0.931 . S
C1290 C1284 1.383 . S
C1290 C1289 1.379 . S
H1291 C1285 0.959 . S
H1292 C1285 0.961 . S
H1293 C1285 0.960 . S
H1294 C1286 0.930 . S
H1295 C1287 0.929 . S
H1296 C1304 0.929 . S
H1297 C1306 0.930 . S
H1298 C1308 0.940 . S
H1299 C1311 0.929 . S
H1300 C1314 0.930 . S
H1301 C1316 0.960 . S
H1302 C1316 0.960 . S
H1303 C1316 0.960 . S
C1304 H1296 0.929 . S
C1304 C1305 1.377 1_565 S
C1304 C1306 1.384 . S
C1305 C1304 1.377 1_545 S
C1305 C1311 1.390 . S
C1306 H1297 0.930 . S
C1306 C1304 1.384 . S
C1306 C1307 1.372 . S
C1307 C1306 1.372 . S
C1307 C1308 1.400 . S
C1307 C1312 1.490 . S
C1308 H1298 0.940 . S
C1308 C1307 1.400 . S
C1308 C1311 1.386 1_565 S
H1309 C1325 0.930 . S
H1310 C1326 0.931 . S
C1311 H1299 0.929 . S
C1311 C1305 1.390 . S
C1311 C1308 1.386 1_545 S
C1312 C1307 1.490 . S
C1312 C1314 1.395 . S
C1312 C1315 1.403 . S
H1313 C1319 0.930 . S
C1314 H1300 0.930 . S
C1314 C1312 1.395 . S
C1314 C1317 1.403 . S
C1315 C1312 1.403 . S
C1315 C1316 1.524 . S
C1315 C1319 1.400 . S
C1316 H1301 0.960 . S
C1316 H1302 0.960 . S
C1316 H1303 0.960 . S
C1316 C1315 1.524 . S
C1317 C1314 1.403 . S
C1317 C1318 1.392 . S
C1317 C1321 1.495 . S
C1318 C1317 1.392 . S
C1318 C1319 1.385 . S
C1318 C1320 1.478 . S
C1319 H1313 0.930 . S
C1319 C1315 1.400 . S
C1319 C1318 1.385 . S
C1320 C1318 1.478 . S
C1320 C1322 1.381 . S
C1320 C1326 1.383 . S
C1321 C1317 1.495 . S
C1321 H1327 0.959 . S
C1321 H1328 0.961 . S
C1321 H1329 0.960 . S
C1322 C1320 1.381 . S
C1322 C1323 1.394 . S
C1322 H1330 0.930 . S
C1323 C1322 1.394 . S
C1323 C1324 1.383 . S
C1323 H1331 0.929 . S
C1324 C1323 1.383 . S
C1324 C1325 1.377 . S
C1325 H1309 0.930 . S
C1325 C1324 1.377 . S
C1325 C1326 1.379 . S
C1326 H1310 0.931 . S
C1326 C1320 1.383 . S
C1326 C1325 1.379 . S
H1327 C1321 0.959 . S
H1328 C1321 0.961 . S
H1329 C1321 0.960 . S
H1330 C1322 0.930 . S
H1331 C1323 0.929 . S
H1332 C1340 0.929 . S
H1333 C1342 0.930 . S
H1334 C1344 0.930 . S
H1335 C1347 0.929 . S
H1336 C1350 0.930 . S
H1337 C1352 0.960 . S
H1338 C1352 0.960 . S
H1339 C1352 0.960 . S
C1340 H1332 0.929 . S
C1340 C1341 1.377 . S
C1340 C1342 1.384 . S
C1341 C1340 1.377 . S
C1341 C1347 1.390 . S
C1342 H1333 0.930 . S
C1342 C1340 1.384 . S
C1342 C1343 1.372 . S
C1343 C1342 1.372 . S
C1343 C1344 1.400 . S
C1343 C1348 1.490 . S
C1344 H1334 0.930 . S
C1344 C1343 1.400 . S
C1344 C1347 1.386 . S
H1345 C1361 0.930 . S
H1346 C1362 0.931 . S
C1347 H1335 0.929 . S
C1347 C1341 1.390 . S
C1347 C1344 1.386 . S
C1348 C1343 1.490 . S
C1348 C1350 1.395 1_556 S
C1348 C1351 1.403 . S
H1349 C1355 0.930 . S
C1350 H1336 0.930 . S
C1350 C1348 1.395 1_554 S
C1350 C1353 1.403 . S
C1351 C1348 1.403 . S
C1351 C1352 1.524 . S
C1351 C1355 1.400 . S
C1352 H1337 0.960 . S
C1352 H1338 0.960 . S
C1352 H1339 0.960 . S
C1352 C1351 1.524 . S
C1353 C1350 1.403 . S
C1353 C1354 1.392 . S
C1353 C1357 1.495 . S
C1354 C1353 1.392 . S
C1354 C1355 1.385 1_554 S
C1354 C1356 1.478 . S
C1355 H1349 0.930 . S
C1355 C1351 1.400 . S
C1355 C1354 1.385 1_556 S
C1356 C1354 1.478 . S
C1356 C1358 1.381 . S
C1356 C1362 1.383 . S
C1357 C1353 1.495 . S
C1357 H1363 0.959 . S
C1357 H1364 0.961 . S
C1357 H1365 0.960 . S
C1358 C1356 1.381 . S
C1358 C1359 1.394 . S
C1358 H1366 0.930 . S
C1359 C1358 1.394 . S
C1359 C1360 1.383 1_565 S
C1359 H1367 0.929 . S
C1360 C1359 1.383 1_545 S
C1360 C1361 1.377 . S
C1361 H1345 0.930 . S
C1361 C1360 1.377 . S
C1361 C1362 1.379 1_545 S
C1362 H1346 0.931 . S
C1362 C1356 1.383 . S
C1362 C1361 1.379 1_565 S
H1363 C1357 0.959 . S
H1364 C1357 0.961 . S
H1365 C1357 0.960 . S
H1366 C1358 0.930 . S
H1367 C1359 0.929 . S
H1368 C1376 0.929 . S
H1369 C1378 0.930 . S
H1370 C1380 0.930 . S
H1371 C1383 0.929 . S
H1372 C1386 0.930 . S
H1373 C1388 0.960 . S
H1374 C1388 0.960 . S
H1375 C1388 0.960 . S
C1376 H1368 0.929 . S
C1376 C1377 1.377 . S
C1376 C1378 1.384 . S
C1377 C1376 1.377 . S
C1377 C1383 1.390 . S
C1378 H1369 0.930 . S
C1378 C1376 1.384 . S
C1378 C1379 1.372 . S
C1379 C1378 1.372 . S
C1379 C1380 1.400 . S
C1379 C1384 1.490 . S
C1380 H1370 0.930 . S
C1380 C1379 1.400 . S
C1380 C1383 1.386 . S
H1381 C1397 0.925 1_655 S
H1382 C1398 0.931 . S
C1383 H1371 0.929 . S
C1383 C1377 1.390 . S
C1383 C1380 1.386 . S
C1384 C1379 1.490 . S
C1384 C1386 1.395 . S
C1384 C1387 1.403 . S
H1385 C1391 0.930 1_554 S
C1386 H1372 0.930 . S
C1386 C1384 1.395 . S
C1386 C1389 1.429 . S
C1387 C1384 1.403 . S
C1387 C1388 1.524 . S
C1387 C1391 1.400 . S
C1388 H1373 0.960 . S
C1388 H1374 0.960 . S
C1388 H1375 0.960 . S
C1388 C1387 1.524 . S
C1389 C1386 1.429 . S
C1389 C1390 1.382 1_556 S
C1389 C1393 1.482 1_556 S
C1390 C1389 1.382 1_554 S
C1390 C1391 1.385 1_554 S
C1390 C1392 1.478 . S
C1391 H1385 0.930 1_556 S
C1391 C1387 1.400 . S
C1391 C1390 1.385 1_556 S
C1392 C1390 1.478 . S
C1392 C1394 1.381 . S
C1392 C1398 1.383 . S
C1393 C1389 1.482 1_554 S
C1393 H1399 0.980 . S
C1393 H1400 0.961 . S
C1393 H1401 0.960 . S
C1394 C1392 1.381 . S
C1394 C1395 1.394 1_455 S
C1394 H1402 0.930 1_554 S
C1395 C1394 1.394 1_655 S
C1395 C1396 1.383 . S
C1395 H1403 0.929 . S
C1396 C1395 1.383 . S
C1396 C1397 1.377 1_655 S
C1397 H1381 0.925 1_455 S
C1397 C1396 1.377 1_455 S
C1397 C1398 1.379 . S
C1398 H1382 0.931 . S
C1398 C1392 1.383 . S
C1398 C1397 1.379 . S
H1399 C1393 0.980 . S
H1400 C1393 0.961 . S
H1401 C1393 0.960 . S
H1402 C1394 0.930 1_556 S
H1403 C1395 0.929 . S
H1404 C1412 0.929 . S
H1405 C1414 0.930 . S
H1406 C1416 0.930 . S
H1407 C1419 0.929 . S
H1408 C1422 0.930 . S
H1409 C1424 0.960 . S
H1410 C1424 0.960 . S
H1411 C1424 0.960 . S
C1412 H1404 0.929 . S
C1412 C1413 1.377 . S
C1412 C1414 1.384 . S
C1413 C1412 1.377 . S
C1413 C1419 1.390 . S
C1414 H1405 0.930 . S
C1414 C1412 1.384 . S
C1414 C1415 1.372 . S
C1415 C1414 1.372 . S
C1415 C1416 1.400 . S
C1415 C1420 1.490 . S
C1416 H1406 0.930 . S
C1416 C1415 1.400 . S
C1416 C1419 1.386 . S
H1417 C1433 0.930 . S
H1418 C1434 0.931 . S
C1419 H1407 0.929 . S
C1419 C1413 1.390 . S
C1419 C1416 1.386 . S
C1420 C1415 1.490 . S
C1420 C1422 1.395 . S
C1420 C1423 1.403 1_556 S
H1421 C1427 0.930 . S
C1422 H1408 0.930 . S
C1422 C1420 1.395 . S
C1422 C1425 1.403 . S
C1423 C1420 1.403 1_554 S
C1423 C1424 1.524 . S
C1423 C1427 1.400 . S
C1424 H1409 0.960 . S
C1424 H1410 0.960 . S
C1424 H1411 0.960 . S
C1424 C1423 1.524 . S
C1425 C1422 1.403 . S
C1425 C1426 1.325 1_556 S
C1425 C1429 1.495 . S
C1426 C1425 1.325 1_554 S
C1426 C1427 1.420 . S
C1426 C1428 1.515 . S
C1427 H1421 0.930 . S
C1427 C1423 1.400 . S
C1427 C1426 1.420 . S
C1428 C1426 1.515 . S
C1428 C1430 1.381 . S
C1428 C1434 1.383 . S
C1429 C1425 1.495 . S
C1429 H1435 0.959 . S
C1429 H1436 0.961 . S
C1429 H1437 0.960 . S
C1430 C1428 1.381 . S
C1430 C1431 1.394 . S
C1430 H1438 0.930 . S
C1431 C1430 1.394 . S
C1431 C1432 1.383 . S
C1431 H1439 0.929 . S
C1432 C1431 1.383 . S
C1432 C1433 1.377 . S
C1433 H1417 0.930 . S
C1433 C1432 1.377 . S
C1433 C1434 1.379 . S
C1434 H1418 0.931 . S
C1434 C1428 1.383 . S
C1434 C1433 1.379 . S
H1435 C1429 0.959 . S
H1436 C1429 0.961 . S
H1437 C1429 0.960 . S
H1438 C1430 0.930 . S
H1439 C1431 0.929 . S
H1440 C1448 0.929 . S
H1441 C1450 0.930 . S
H1442 C1452 0.930 . S
H1443 C1455 0.929 . S
H1444 C1458 0.930 . S
H1445 C1460 0.960 . S
H1446 C1460 0.960 . S
H1447 C1460 0.960 . S
C1448 H1440 0.929 . S
C1448 C1449 1.377 . S
C1448 C1450 1.384 . S
C1449 C1448 1.377 . S
C1449 C1455 1.390 . S
C1450 H1441 0.930 . S
C1450 C1448 1.384 . S
C1450 C1451 1.372 . S
C1451 C1450 1.372 . S
C1451 C1452 1.400 . S
C1451 C1456 1.490 . S
C1452 H1442 0.930 . S
C1452 C1451 1.400 . S
C1452 C1455 1.386 . S
H1453 C1469 0.930 . S
H1454 C1470 0.931 . S
C1455 H1443 0.929 . S
C1455 C1449 1.390 . S
C1455 C1452 1.386 . S
C1456 C1451 1.490 . S
C1456 C1458 1.395 . S
C1456 C1459 1.403 . S
H1457 C1463 0.930 . S
C1458 H1444 0.930 . S
C1458 C1456 1.395 . S
C1458 C1461 1.403 . S
C1459 C1456 1.403 . S
C1459 C1460 1.524 . S
C1459 C1463 1.400 . S
C1460 H1445 0.960 . S
C1460 H1446 0.960 . S
C1460 H1447 0.960 . S
C1460 C1459 1.524 . S
C1461 C1458 1.403 . S
C1461 C1462 1.392 . S
C1461 C1465 1.495 . S
C1462 C1461 1.392 . S
C1462 C1463 1.385 . S
C1462 C1464 1.478 . S
C1463 H1457 0.930 . S
C1463 C1459 1.400 . S
C1463 C1462 1.385 . S
C1464 C1462 1.478 . S
C1464 C1466 1.341 1_655 S
C1464 C1470 1.383 . S
C1465 C1461 1.495 . S
C1465 H1471 0.959 . S
C1465 H1472 0.961 . S
C1465 H1473 0.960 . S
C1466 C1464 1.341 1_455 S
C1466 C1467 1.441 . S
C1466 H1474 0.926 . S
C1467 C1466 1.441 . S
C1467 C1468 1.383 . S
C1467 H1475 0.929 . S
C1468 C1467 1.383 . S
C1468 C1469 1.377 1_455 S
C1469 H1453 0.930 . S
C1469 C1468 1.377 1_655 S
C1469 C1470 1.379 . S
C1470 H1454 0.931 . S
C1470 C1464 1.383 . S
C1470 C1469 1.379 . S
H1471 C1465 0.959 . S
H1472 C1465 0.961 . S
H1473 C1465 0.960 . S
H1474 C1466 0.926 . S
H1475 C1467 0.929 . S
H1476 C1484 0.929 . S
H1477 C1486 0.930 . S
H1478 C1488 0.930 . S
H1479 C1491 0.929 . S
H1480 C1494 0.930 . S
H1481 C1496 0.960 . S
H1482 C1496 0.960 . S
H1483 C1496 0.960 . S
C1484 H1476 0.929 . S
C1484 C1485 1.377 . S
C1484 C1486 1.384 . S
C1485 C1484 1.377 . S
C1485 C1491 1.390 . S
C1486 H1477 0.930 . S
C1486 C1484 1.384 . S
C1486 C1487 1.372 . S
C1487 C1486 1.372 . S
C1487 C1488 1.400 . S
C1487 C1492 1.490 . S
C1488 H1478 0.930 . S
C1488 C1487 1.400 . S
C1488 C1491 1.386 . S
H1489 C1505 0.930 . S
H1490 C1506 0.931 . S
C1491 H1479 0.929 . S
C1491 C1485 1.390 . S
C1491 C1488 1.386 . S
C1492 C1487 1.490 . S
C1492 C1494 1.395 . S
C1492 C1495 1.403 . S
H1493 C1499 0.930 . S
C1494 H1480 0.930 . S
C1494 C1492 1.395 . S
C1494 C1497 1.403 . S
C1495 C1492 1.403 . S
C1495 C1496 1.524 . S
C1495 C1499 1.400 . S
C1496 H1481 0.960 . S
C1496 H1482 0.960 . S
C1496 H1483 0.960 . S
C1496 C1495 1.524 . S
C1497 C1494 1.403 . S
C1497 C1498 1.392 . S
C1497 C1501 1.495 . S
C1498 C1497 1.392 . S
C1498 C1499 1.385 . S
C1498 C1500 1.478 . S
C1499 H1493 0.930 . S
C1499 C1495 1.400 . S
C1499 C1498 1.385 . S
C1500 C1498 1.478 . S
C1500 C1502 1.381 . S
C1500 C1506 1.383 . S
C1501 C1497 1.495 . S
C1501 H1507 0.959 . S
C1501 H1508 0.961 . S
C1501 H1509 0.960 . S
C1502 C1500 1.381 . S
C1502 C1503 1.394 . S
C1502 H1510 0.930 . S
C1503 C1502 1.394 . S
C1503 C1504 1.383 . S
C1503 H1511 0.929 . S
C1504 C1503 1.383 . S
C1504 C1505 1.377 . S
C1505 H1489 0.930 . S
C1505 C1504 1.377 . S
C1505 C1506 1.379 . S
C1506 H1490 0.931 . S
C1506 C1500 1.383 . S
C1506 C1505 1.379 . S
H1507 C1501 0.959 . S
H1508 C1501 0.961 . S
H1509 C1501 0.960 . S
H1510 C1502 0.930 . S
H1511 C1503 0.929 . S
H1512 C1520 0.929 . S
H1513 C1522 0.930 . S
H1514 C1524 0.945 . S
H1515 C1527 0.929 . S
H1516 C1530 0.930 . S
H1517 C1532 0.960 . S
H1518 C1532 0.960 . S
H1519 C1532 0.960 . S
C1520 H1512 0.929 . S
C1520 C1521 1.377 1_545 S
C1520 C1522 1.384 . S
C1521 C1520 1.377 1_565 S
C1521 C1527 1.390 . S
C1522 H1513 0.930 . S
C1522 C1520 1.384 . S
C1522 C1523 1.372 . S
C1523 C1522 1.372 . S
C1523 C1524 1.400 . S
C1523 C1528 1.490 . S
C1524 H1514 0.945 . S
C1524 C1523 1.400 . S
C1524 C1527 1.386 1_545 S
H1525 C1541 0.930 . S
H1526 C1542 0.931 . S
C1527 H1515 0.929 . S
C1527 C1521 1.390 . S
C1527 C1524 1.386 1_565 S
C1528 C1523 1.490 . S
C1528 C1530 1.395 . S
C1528 C1531 1.403 . S
H1529 C1535 0.930 . S
C1530 H1516 0.930 . S
C1530 C1528 1.395 . S
C1530 C1533 1.403 . S
C1531 C1528 1.403 . S
C1531 C1532 1.524 . S
C1531 C1535 1.400 . S
C1532 H1517 0.960 . S
C1532 H1518 0.960 . S
C1532 H1519 0.960 . S
C1532 C1531 1.524 . S
C1533 C1530 1.403 . S
C1533 C1534 1.392 . S
C1533 C1537 1.495 . S
C1534 C1533 1.392 . S
C1534 C1535 1.385 . S
C1534 C1536 1.478 . S
C1535 H1529 0.930 . S
C1535 C1531 1.400 . S
C1535 C1534 1.385 . S
C1536 C1534 1.478 . S
C1536 C1538 1.381 . S
C1536 C1542 1.383 . S
C1537 C1533 1.495 . S
C1537 H1543 0.959 . S
C1537 H1544 0.961 . S
C1537 H1545 0.960 . S
C1538 C1536 1.381 . S
C1538 C1539 1.394 . S
C1538 H1546 0.930 . S
C1539 C1538 1.394 . S
C1539 C1540 1.383 . S
C1539 H1547 0.929 . S
C1540 C1539 1.383 . S
C1540 C1541 1.377 . S
C1541 H1525 0.930 . S
C1541 C1540 1.377 . S
C1541 C1542 1.379 . S
C1542 H1526 0.931 . S
C1542 C1536 1.383 . S
C1542 C1541 1.379 . S
H1543 C1537 0.959 . S
H1544 C1537 0.961 . S
H1545 C1537 0.960 . S
H1546 C1538 0.930 . S
H1547 C1539 0.929 . S
H1548 C1556 0.929 . S
H1549 C1558 0.930 . S
H1550 C1560 0.930 . S
H1551 C1563 0.929 . S
H1552 C1566 0.930 . S
H1553 C1568 0.960 . S
H1554 C1568 0.960 . S
H1555 C1568 0.960 . S
C1556 H1548 0.929 . S
C1556 C1557 1.377 . S
C1556 C1558 1.384 . S
C1557 C1556 1.377 . S
C1557 C1563 1.390 . S
C1558 H1549 0.930 . S
C1558 C1556 1.384 . S
C1558 C1559 1.372 . S
C1559 C1558 1.372 . S
C1559 C1560 1.400 . S
C1559 C1564 1.490 . S
C1560 H1550 0.930 . S
C1560 C1559 1.400 . S
C1560 C1563 1.386 . S
H1561 C1577 0.930 . S
H1562 C1578 0.931 . S
C1563 H1551 0.929 . S
C1563 C1557 1.390 . S
C1563 C1560 1.386 . S
C1564 C1559 1.490 . S
C1564 C1566 1.395 . S
C1564 C1567 1.403 . S
H1565 C1571 0.930 . S
C1566 H1552 0.930 . S
C1566 C1564 1.395 . S
C1566 C1569 1.403 . S
C1567 C1564 1.403 . S
C1567 C1568 1.524 . S
C1567 C1571 1.400 . S
C1568 H1553 0.960 . S
C1568 H1554 0.960 . S
C1568 H1555 0.960 . S
C1568 C1567 1.524 . S
C1569 C1566 1.403 . S
C1569 C1570 1.392 . S
C1569 C1573 1.495 . S
C1570 C1569 1.392 . S
C1570 C1571 1.385 . S
C1570 C1572 1.478 . S
C1571 H1565 0.930 . S
C1571 C1567 1.400 . S
C1571 C1570 1.385 . S
C1572 C1570 1.478 . S
C1572 C1574 1.381 . S
C1572 C1578 1.383 . S
C1573 C1569 1.495 . S
C1573 H1579 0.959 . S
C1573 H1580 0.961 . S
C1573 H1581 0.960 . S
C1574 C1572 1.381 . S
C1574 C1575 1.394 . S
C1574 H1582 0.930 . S
C1575 C1574 1.394 . S
C1575 C1576 1.383 . S
C1575 H1583 0.929 . S
C1576 C1575 1.383 . S
C1576 C1577 1.377 . S
C1577 H1561 0.930 . S
C1577 C1576 1.377 . S
C1577 C1578 1.379 . S
C1578 H1562 0.931 . S
C1578 C1572 1.383 . S
C1578 C1577 1.379 . S
H1579 C1573 0.959 . S
H1580 C1573 0.961 . S
H1581 C1573 0.960 . S
H1582 C1574 0.930 . S
H1583 C1575 0.929 . S
H1584 C1592 0.929 . S
H1585 C1594 0.930 . S
H1586 C1596 0.930 . S
H1587 C1599 0.929 . S
H1588 C1602 0.930 . S
H1589 C1604 0.960 . S
H1590 C1604 0.960 . S
H1591 C1604 0.960 . S
C1592 H1584 0.929 . S
C1592 C1593 1.377 . S
C1592 C1594 1.384 . S
C1593 C1592 1.377 . S
C1593 C1599 1.390 . S
C1594 H1585 0.930 . S
C1594 C1592 1.384 . S
C1594 C1595 1.372 . S
C1595 C1594 1.372 . S
C1595 C1596 1.400 . S
C1595 C1600 1.490 . S
C1596 H1586 0.930 . S
C1596 C1595 1.400 . S
C1596 C1599 1.386 . S
H1597 C1613 0.930 . S
H1598 C1614 0.931 . S
C1599 H1587 0.929 . S
C1599 C1593 1.390 . S
C1599 C1596 1.386 . S
C1600 C1595 1.490 . S
C1600 C1602 1.395 . S
C1600 C1603 1.403 . S
H1601 C1607 0.930 . S
C1602 H1588 0.930 . S
C1602 C1600 1.395 . S
C1602 C1605 1.403 . S
C1603 C1600 1.403 . S
C1603 C1604 1.524 . S
C1603 C1607 1.400 . S
C1604 H1589 0.960 . S
C1604 H1590 0.960 . S
C1604 H1591 0.960 . S
C1604 C1603 1.524 . S
C1605 C1602 1.403 . S
C1605 C1606 1.392 . S
C1605 C1609 1.495 . S
C1606 C1605 1.392 . S
C1606 C1607 1.385 . S
C1606 C1608 1.478 . S
C1607 H1601 0.930 . S
C1607 C1603 1.400 . S
C1607 C1606 1.385 . S
C1608 C1606 1.478 . S
C1608 C1610 1.381 . S
C1608 C1614 1.383 . S
C1609 C1605 1.495 . S
C1609 H1615 0.959 . S
C1609 H1616 0.961 . S
C1609 H1617 0.960 . S
C1610 C1608 1.381 . S
C1610 C1611 1.394 . S
C1610 H1618 0.930 . S
C1611 C1610 1.394 . S
C1611 C1612 1.383 . S
C1611 H1619 0.929 . S
C1612 C1611 1.383 . S
C1612 C1613 1.377 . S
C1613 H1597 0.930 . S
C1613 C1612 1.377 . S
C1613 C1614 1.379 . S
C1614 H1598 0.931 . S
C1614 C1608 1.383 . S
C1614 C1613 1.379 . S
H1615 C1609 0.959 . S
H1616 C1609 0.961 . S
H1617 C1609 0.960 . S
H1618 C1610 0.930 . S
H1619 C1611 0.929 . S
H1620 C1628 0.929 . S
H1621 C1630 0.930 . S
H1622 C1632 0.930 . S
H1623 C1635 0.929 . S
H1624 C1638 0.930 . S
H1625 C1640 0.960 . S
H1626 C1640 0.960 . S
H1627 C1640 0.960 . S
C1628 H1620 0.929 . S
C1628 C1629 1.377 . S
C1628 C1630 1.384 . S
C1629 C1628 1.377 . S
C1629 C1635 1.390 . S
C1630 H1621 0.930 . S
C1630 C1628 1.384 . S
C1630 C1631 1.372 . S
C1631 C1630 1.372 . S
C1631 C1632 1.400 . S
C1631 C1636 1.490 . S
C1632 H1622 0.930 . S
C1632 C1631 1.400 . S
C1632 C1635 1.386 . S
H1633 C1649 0.930 . S
H1634 C1650 0.931 . S
C1635 H1623 0.929 . S
C1635 C1629 1.390 . S
C1635 C1632 1.386 . S
C1636 C1631 1.490 . S
C1636 C1638 1.395 . S
C1636 C1639 1.403 . S
H1637 C1643 0.930 . S
C1638 H1624 0.930 . S
C1638 C1636 1.395 . S
C1638 C1641 1.403 . S
C1639 C1636 1.403 . S
C1639 C1640 1.524 . S
C1639 C1643 1.400 . S
C1640 H1625 0.960 . S
C1640 H1626 0.960 . S
C1640 H1627 0.960 . S
C1640 C1639 1.524 . S
C1641 C1638 1.403 . S
C1641 C1642 1.392 . S
C1641 C1645 1.495 . S
C1642 C1641 1.392 . S
C1642 C1643 1.385 . S
C1642 C1644 1.478 . S
C1643 H1637 0.930 . S
C1643 C1639 1.400 . S
C1643 C1642 1.385 . S
C1644 C1642 1.478 . S
C1644 C1646 1.381 . S
C1644 C1650 1.383 . S
C1645 C1641 1.495 . S
C1645 H1651 0.959 . S
C1645 H1652 0.961 . S
C1645 H1653 0.960 . S
C1646 C1644 1.381 . S
C1646 C1647 1.394 . S
C1646 H1654 0.930 . S
C1647 C1646 1.394 . S
C1647 C1648 1.383 . S
C1647 H1655 0.929 . S
C1648 C1647 1.383 . S
C1648 C1649 1.377 . S
C1649 H1633 0.930 . S
C1649 C1648 1.377 . S
C1649 C1650 1.379 . S
C1650 H1634 0.931 . S
C1650 C1644 1.383 . S
C1650 C1649 1.379 . S
H1651 C1645 0.959 . S
H1652 C1645 0.961 . S
H1653 C1645 0.960 . S
H1654 C1646 0.930 . S
H1655 C1647 0.929 . S
H1656 C1664 0.929 . S
H1657 C1666 0.930 . S
H1658 C1668 0.930 . S
H1659 C1671 0.929 . S
H1660 C1674 0.930 . S
H1661 C1676 0.960 . S
H1662 C1676 0.960 . S
H1663 C1676 0.960 . S
C1664 H1656 0.929 . S
C1664 C1665 1.377 . S
C1664 C1666 1.384 . S
C1665 C1664 1.377 . S
C1665 C1671 1.390 . S
C1666 H1657 0.930 . S
C1666 C1664 1.384 . S
C1666 C1667 1.372 . S
C1667 C1666 1.372 . S
C1667 C1668 1.400 . S
C1667 C1672 1.490 . S
C1668 H1658 0.930 . S
C1668 C1667 1.400 . S
C1668 C1671 1.386 . S
H1669 C1685 0.930 . S
H1670 C1686 0.931 . S
C1671 H1659 0.929 . S
C1671 C1665 1.390 . S
C1671 C1668 1.386 . S
C1672 C1667 1.490 . S
C1672 C1674 1.395 . S
C1672 C1675 1.403 . S
H1673 C1679 0.930 . S
C1674 H1660 0.930 . S
C1674 C1672 1.395 . S
C1674 C1677 1.403 . S
C1675 C1672 1.403 . S
C1675 C1676 1.524 . S
C1675 C1679 1.400 . S
C1676 H1661 0.960 . S
C1676 H1662 0.960 . S
C1676 H1663 0.960 . S
C1676 C1675 1.524 . S
C1677 C1674 1.403 . S
C1677 C1678 1.392 . S
C1677 C1681 1.495 . S
C1678 C1677 1.392 . S
C1678 C1679 1.385 . S
C1678 C1680 1.478 . S
C1679 H1673 0.930 . S
C1679 C1675 1.400 . S
C1679 C1678 1.385 . S
C1680 C1678 1.478 . S
C1680 C1682 1.381 . S
C1680 C1686 1.383 . S
C1681 C1677 1.495 . S
C1681 H1687 0.959 . S
C1681 H1688 0.961 . S
C1681 H1689 0.960 . S
C1682 C1680 1.381 . S
C1682 C1683 1.394 . S
C1682 H1690 0.930 . S
C1683 C1682 1.394 . S
C1683 C1684 1.383 . S
C1683 H1691 0.929 . S
C1684 C1683 1.383 . S
C1684 C1685 1.377 . S
C1685 H1669 0.930 . S
C1685 C1684 1.377 . S
C1685 C1686 1.379 . S
C1686 H1670 0.931 . S
C1686 C1680 1.383 . S
C1686 C1685 1.379 . S
H1687 C1681 0.959 . S
H1688 C1681 0.961 . S
H1689 C1681 0.960 . S
H1690 C1682 0.930 . S
H1691 C1683 0.929 . S
H1692 C1700 0.929 . S
H1693 C1702 0.930 . S
H1694 C1704 0.930 . S
H1695 C1707 0.929 . S
H1696 C1710 0.930 . S
H1697 C1712 0.960 . S
H1698 C1712 0.960 . S
H1699 C1712 0.960 . S
C1700 H1692 0.929 . S
C1700 C1701 1.377 . S
C1700 C1702 1.384 . S
C1701 C1700 1.377 . S
C1701 C1707 1.390 . S
C1702 H1693 0.930 . S
C1702 C1700 1.384 . S
C1702 C1703 1.372 . S
C1703 C1702 1.372 . S
C1703 C1704 1.400 . S
C1703 C1708 1.490 . S
C1704 H1694 0.930 . S
C1704 C1703 1.400 . S
C1704 C1707 1.386 . S
H1705 C1721 0.930 . S
H1706 C1722 0.931 . S
C1707 H1695 0.929 . S
C1707 C1701 1.390 . S
C1707 C1704 1.386 . S
C1708 C1703 1.490 . S
C1708 C1710 1.395 . S
C1708 C1711 1.403 . S
H1709 C1715 0.930 . S
C1710 H1696 0.930 . S
C1710 C1708 1.395 . S
C1710 C1713 1.403 . S
C1711 C1708 1.403 . S
C1711 C1712 1.524 . S
C1711 C1715 1.400 . S
C1712 H1697 0.960 . S
C1712 H1698 0.960 . S
C1712 H1699 0.960 . S
C1712 C1711 1.524 . S
C1713 C1710 1.403 . S
C1713 C1714 1.392 . S
C1713 C1717 1.495 . S
C1714 C1713 1.392 . S
C1714 C1715 1.385 . S
C1714 C1716 1.478 . S
C1715 H1709 0.930 . S
C1715 C1711 1.400 . S
C1715 C1714 1.385 . S
C1716 C1714 1.478 . S
C1716 C1718 1.381 . S
C1716 C1722 1.383 . S
C1717 C1713 1.495 . S
C1717 H1723 0.959 . S
C1717 H1724 0.961 . S
C1717 H1725 0.960 . S
C1718 C1716 1.381 . S
C1718 C1719 1.394 . S
C1718 H1726 0.930 . S
C1719 C1718 1.394 . S
C1719 C1720 1.383 . S
C1719 H1727 0.929 . S
C1720 C1719 1.383 . S
C1720 C1721 1.377 . S
C1721 H1705 0.930 . S
C1721 C1720 1.377 . S
C1721 C1722 1.379 . S
C1722 H1706 0.931 . S
C1722 C1716 1.383 . S
C1722 C1721 1.379 . S
H1723 C1717 0.959 . S
H1724 C1717 0.961 . S
H1725 C1717 0.960 . S
H1726 C1718 0.930 . S
H1727 C1719 0.929 . S
H1728 C1736 0.929 . S
H1729 C1738 0.930 . S
H1730 C1740 0.930 . S
H1731 C1743 0.929 . S
H1732 C1746 0.930 . S
H1733 C1748 0.960 . S
H1734 C1748 0.960 . S
H1735 C1748 0.960 . S
C1736 H1728 0.929 . S
C1736 C1737 1.377 . S
C1736 C1738 1.384 . S
C1737 C1736 1.377 . S
C1737 C1743 1.390 . S
C1738 H1729 0.930 . S
C1738 C1736 1.384 . S
C1738 C1739 1.372 . S
C1739 C1738 1.372 . S
C1739 C1740 1.400 . S
C1739 C1744 1.490 . S
C1740 H1730 0.930 . S
C1740 C1739 1.400 . S
C1740 C1743 1.386 . S
H1741 C1757 0.930 . S
H1742 C1758 0.931 . S
C1743 H1731 0.929 . S
C1743 C1737 1.390 . S
C1743 C1740 1.386 . S
C1744 C1739 1.490 . S
C1744 C1746 1.395 . S
C1744 C1747 1.403 . S
H1745 C1751 0.930 . S
C1746 H1732 0.930 . S
C1746 C1744 1.395 . S
C1746 C1749 1.403 . S
C1747 C1744 1.403 . S
C1747 C1748 1.524 . S
C1747 C1751 1.400 . S
C1748 H1733 0.960 . S
C1748 H1734 0.960 . S
C1748 H1735 0.960 . S
C1748 C1747 1.524 . S
C1749 C1746 1.403 . S
C1749 C1750 1.392 . S
C1749 C1753 1.495 . S
C1750 C1749 1.392 . S
C1750 C1751 1.385 . S
C1750 C1752 1.478 . S
C1751 H1745 0.930 . S
C1751 C1747 1.400 . S
C1751 C1750 1.385 . S
C1752 C1750 1.478 . S
C1752 C1754 1.381 . S
C1752 C1758 1.383 . S
C1753 C1749 1.495 . S
C1753 H1759 0.959 . S
C1753 H1760 0.961 . S
C1753 H1761 0.960 . S
C1754 C1752 1.381 . S
C1754 C1755 1.394 . S
C1754 H1762 0.930 . S
C1755 C1754 1.394 . S
C1755 C1756 1.383 . S
C1755 H1763 0.929 . S
C1756 C1755 1.383 . S
C1756 C1757 1.377 . S
C1757 H1741 0.930 . S
C1757 C1756 1.377 . S
C1757 C1758 1.379 . S
C1758 H1742 0.931 . S
C1758 C1752 1.383 . S
C1758 C1757 1.379 . S
H1759 C1753 0.959 . S
H1760 C1753 0.961 . S
H1761 C1753 0.960 . S
H1762 C1754 0.930 . S
H1763 C1755 0.929 . S
H1764 C1772 0.929 . S
H1765 C1774 0.930 . S
H1766 C1776 0.930 . S
H1767 C1779 0.929 . S
H1768 C1782 0.930 . S
H1769 C1784 0.960 . S
H1770 C1784 0.960 . S
H1771 C1784 0.960 . S
C1772 H1764 0.929 . S
C1772 C1773 1.377 . S
C1772 C1774 1.384 . S
C1773 C1772 1.377 . S
C1773 C1779 1.390 . S
C1774 H1765 0.930 . S
C1774 C1772 1.384 . S
C1774 C1775 1.372 . S
C1775 C1774 1.372 . S
C1775 C1776 1.400 . S
C1775 C1780 1.490 . S
C1776 H1766 0.930 . S
C1776 C1775 1.400 . S
C1776 C1779 1.386 . S
H1777 C1793 0.930 . S
H1778 C1794 0.931 . S
C1779 H1767 0.929 . S
C1779 C1773 1.390 . S
C1779 C1776 1.386 . S
C1780 C1775 1.490 . S
C1780 C1782 1.395 . S
C1780 C1783 1.403 . S
H1781 C1787 0.930 . S
C1782 H1768 0.930 . S
C1782 C1780 1.395 . S
C1782 C1785 1.403 . S
C1783 C1780 1.403 . S
C1783 C1784 1.524 . S
C1783 C1787 1.400 . S
C1784 H1769 0.960 . S
C1784 H1770 0.960 . S
C1784 H1771 0.960 . S
C1784 C1783 1.524 . S
C1785 C1782 1.403 . S
C1785 C1786 1.392 . S
C1785 C1789 1.495 . S
C1786 C1785 1.392 . S
C1786 C1787 1.385 . S
C1786 C1788 1.478 . S
C1787 H1781 0.930 . S
C1787 C1783 1.400 . S
C1787 C1786 1.385 . S
C1788 C1786 1.478 . S
C1788 C1790 1.381 . S
C1788 C1794 1.383 . S
C1789 C1785 1.495 . S
C1789 H1795 0.959 . S
C1789 H1796 0.961 . S
C1789 H1797 0.960 . S
C1790 C1788 1.381 . S
C1790 C1791 1.394 . S
C1790 H1798 0.930 . S
C1791 C1790 1.394 . S
C1791 C1792 1.383 . S
C1791 H1799 0.929 . S
C1792 C1791 1.383 . S
C1792 C1793 1.377 . S
C1793 H1777 0.930 . S
C1793 C1792 1.377 . S
C1793 C1794 1.379 . S
C1794 H1778 0.931 . S
C1794 C1788 1.383 . S
C1794 C1793 1.379 . S
H1795 C1789 0.959 . S
H1796 C1789 0.961 . S
H1797 C1789 0.960 . S
H1798 C1790 0.930 . S
H1799 C1791 0.929 . S
H1800 C1808 0.929 . S
H1801 C1810 0.930 . S
H1802 C1812 0.930 . S
H1803 C1815 0.929 . S
H1804 C1818 0.930 . S
H1805 C1820 0.960 . S
H1806 C1820 0.960 . S
H1807 C1820 0.960 . S
C1808 H1800 0.929 . S
C1808 C1809 1.377 . S
C1808 C1810 1.384 . S
C1809 C1808 1.377 . S
C1809 C1815 1.390 . S
C1810 H1801 0.930 . S
C1810 C1808 1.384 . S
C1810 C1811 1.372 . S
C1811 C1810 1.372 . S
C1811 C1812 1.400 . S
C1811 C1816 1.490 . S
C1812 H1802 0.930 . S
C1812 C1811 1.400 . S
C1812 C1815 1.386 . S
H1813 C1829 0.930 . S
H1814 C1830 0.931 . S
C1815 H1803 0.929 . S
C1815 C1809 1.390 . S
C1815 C1812 1.386 . S
C1816 C1811 1.490 . S
C1816 C1818 1.395 . S
C1816 C1819 1.403 . S
H1817 C1823 0.930 . S
C1818 H1804 0.930 . S
C1818 C1816 1.395 . S
C1818 C1821 1.403 . S
C1819 C1816 1.403 . S
C1819 C1820 1.524 . S
C1819 C1823 1.400 . S
C1820 H1805 0.960 . S
C1820 H1806 0.960 . S
C1820 H1807 0.960 . S
C1820 C1819 1.524 . S
C1821 C1818 1.403 . S
C1821 C1822 1.392 . S
C1821 C1825 1.495 . S
C1822 C1821 1.392 . S
C1822 C1823 1.385 . S
C1822 C1824 1.478 . S
C1823 H1817 0.930 . S
C1823 C1819 1.400 . S
C1823 C1822 1.385 . S
C1824 C1822 1.478 . S
C1824 C1826 1.381 . S
C1824 C1830 1.383 . S
C1825 C1821 1.495 . S
C1825 H1831 0.959 . S
C1825 H1832 0.961 . S
C1825 H1833 0.960 . S
C1826 C1824 1.381 . S
C1826 C1827 1.394 . S
C1826 H1834 0.930 . S
C1827 C1826 1.394 . S
C1827 C1828 1.383 . S
C1827 H1835 0.929 . S
C1828 C1827 1.383 . S
C1828 C1829 1.377 . S
C1829 H1813 0.930 . S
C1829 C1828 1.377 . S
C1829 C1830 1.379 . S
C1830 H1814 0.931 . S
C1830 C1824 1.383 . S
C1830 C1829 1.379 . S
H1831 C1825 0.959 . S
H1832 C1825 0.961 . S
H1833 C1825 0.960 . S
H1834 C1826 0.930 . S
H1835 C1827 0.929 . S
H1836 C1844 0.929 . S
H1837 C1846 0.930 . S
H1838 C1848 0.930 . S
H1839 C1851 0.929 . S
H1840 C1854 0.930 . S
H1841 C1856 0.960 . S
H1842 C1856 0.960 . S
H1843 C1856 0.960 . S
C1844 H1836 0.929 . S
C1844 C1845 1.377 . S
C1844 C1846 1.384 . S
C1845 C1844 1.377 . S
C1845 C1851 1.390 . S
C1846 H1837 0.930 . S
C1846 C1844 1.384 . S
C1846 C1847 1.372 . S
C1847 C1846 1.372 . S
C1847 C1848 1.400 . S
C1847 C1852 1.490 . S
C1848 H1838 0.930 . S
C1848 C1847 1.400 . S
C1848 C1851 1.386 . S
H1849 C1865 0.930 . S
H1850 C1866 0.931 . S
C1851 H1839 0.929 . S
C1851 C1845 1.390 . S
C1851 C1848 1.386 . S
C1852 C1847 1.490 . S
C1852 C1854 1.395 . S
C1852 C1855 1.403 . S
H1853 C1859 0.930 . S
C1854 H1840 0.930 . S
C1854 C1852 1.395 . S
C1854 C1857 1.403 . S
C1855 C1852 1.403 . S
C1855 C1856 1.524 . S
C1855 C1859 1.400 . S
C1856 H1841 0.960 . S
C1856 H1842 0.960 . S
C1856 H1843 0.960 . S
C1856 C1855 1.524 . S
C1857 C1854 1.403 . S
C1857 C1858 1.392 . S
C1857 C1861 1.495 . S
C1858 C1857 1.392 . S
C1858 C1859 1.385 . S
C1858 C1860 1.478 . S
C1859 H1853 0.930 . S
C1859 C1855 1.400 . S
C1859 C1858 1.385 . S
C1860 C1858 1.478 . S
C1860 C1862 1.381 . S
C1860 C1866 1.383 . S
C1861 C1857 1.495 . S
C1861 H1867 0.959 . S
C1861 H1868 0.961 . S
C1861 H1869 0.960 . S
C1862 C1860 1.381 . S
C1862 C1863 1.394 . S
C1862 H1870 0.930 . S
C1863 C1862 1.394 . S
C1863 C1864 1.383 . S
C1863 H1871 0.929 . S
C1864 C1863 1.383 . S
C1864 C1865 1.377 . S
C1865 H1849 0.930 . S
C1865 C1864 1.377 . S
C1865 C1866 1.379 . S
C1866 H1850 0.931 . S
C1866 C1860 1.383 . S
C1866 C1865 1.379 . S
H1867 C1861 0.959 . S
H1868 C1861 0.961 . S
H1869 C1861 0.960 . S
H1870 C1862 0.930 . S
H1871 C1863 0.929 . S
H1872 C1880 0.929 . S
H1873 C1882 0.930 . S
H1874 C1884 0.930 . S
H1875 C1887 0.929 . S
H1876 C1890 0.930 . S
H1877 C1892 0.960 . S
H1878 C1892 0.960 . S
H1879 C1892 0.960 . S
C1880 H1872 0.929 . S
C1880 C1881 1.377 . S
C1880 C1882 1.384 . S
C1881 C1880 1.377 . S
C1881 C1887 1.390 . S
C1882 H1873 0.930 . S
C1882 C1880 1.384 . S
C1882 C1883 1.372 . S
C1883 C1882 1.372 . S
C1883 C1884 1.400 . S
C1883 C1888 1.490 . S
C1884 H1874 0.930 . S
C1884 C1883 1.400 . S
C1884 C1887 1.386 . S
H1885 C1901 0.930 . S
H1886 C1902 0.931 . S
C1887 H1875 0.929 . S
C1887 C1881 1.390 . S
C1887 C1884 1.386 . S
C1888 C1883 1.490 . S
C1888 C1890 1.395 . S
C1888 C1891 1.403 . S
H1889 C1895 0.930 . S
C1890 H1876 0.930 . S
C1890 C1888 1.395 . S
C1890 C1893 1.403 . S
C1891 C1888 1.403 . S
C1891 C1892 1.524 . S
C1891 C1895 1.400 . S
C1892 H1877 0.960 . S
C1892 H1878 0.960 . S
C1892 H1879 0.960 . S
C1892 C1891 1.524 . S
C1893 C1890 1.403 . S
C1893 C1894 1.392 . S
C1893 C1897 1.495 . S
C1894 C1893 1.392 . S
C1894 C1895 1.385 . S
C1894 C1896 1.478 . S
C1895 H1889 0.930 . S
C1895 C1891 1.400 . S
C1895 C1894 1.385 . S
C1896 C1894 1.478 . S
C1896 C1898 1.381 . S
C1896 C1902 1.383 . S
C1897 C1893 1.495 . S
C1897 H1903 0.959 . S
C1897 H1904 0.961 . S
C1897 H1905 0.960 . S
C1898 C1896 1.381 . S
C1898 C1899 1.394 . S
C1898 H1906 0.930 . S
C1899 C1898 1.394 . S
C1899 C1900 1.383 . S
C1899 H1907 0.929 . S
C1900 C1899 1.383 . S
C1900 C1901 1.377 . S
C1901 H1885 0.930 . S
C1901 C1900 1.377 . S
C1901 C1902 1.379 . S
C1902 H1886 0.931 . S
C1902 C1896 1.383 . S
C1902 C1901 1.379 . S
H1903 C1897 0.959 . S
H1904 C1897 0.961 . S
H1905 C1897 0.960 . S
H1906 C1898 0.930 . S
H1907 C1899 0.929 . S
H1908 C1916 0.929 . S
H1909 C1918 0.930 . S
H1910 C1920 0.930 . S
H1911 C1923 0.929 . S
H1912 C1926 0.930 . S
H1913 C1928 0.960 . S
H1914 C1928 0.960 . S
H1915 C1928 0.960 . S
C1916 H1908 0.929 . S
C1916 C1917 1.377 . S
C1916 C1918 1.384 . S
C1917 C1916 1.377 . S
C1917 C1923 1.390 . S
C1918 H1909 0.930 . S
C1918 C1916 1.384 . S
C1918 C1919 1.372 . S
C1919 C1918 1.372 . S
C1919 C1920 1.400 . S
C1919 C1924 1.490 . S
C1920 H1910 0.930 . S
C1920 C1919 1.400 . S
C1920 C1923 1.386 . S
H1921 C1937 0.930 . S
H1922 C1938 0.931 . S
C1923 H1911 0.929 . S
C1923 C1917 1.390 . S
C1923 C1920 1.386 . S
C1924 C1919 1.490 . S
C1924 C1926 1.395 . S
C1924 C1927 1.403 . S
H1925 C1931 0.930 . S
C1926 H1912 0.930 . S
C1926 C1924 1.395 . S
C1926 C1929 1.403 . S
C1927 C1924 1.403 . S
C1927 C1928 1.524 . S
C1927 C1931 1.400 . S
C1928 H1913 0.960 . S
C1928 H1914 0.960 . S
C1928 H1915 0.960 . S
C1928 C1927 1.524 . S
C1929 C1926 1.403 . S
C1929 C1930 1.392 . S
C1929 C1933 1.495 . S
C1930 C1929 1.392 . S
C1930 C1931 1.385 . S
C1930 C1932 1.478 . S
C1931 H1925 0.930 . S
C1931 C1927 1.400 . S
C1931 C1930 1.385 . S
C1932 C1930 1.478 . S
C1932 C1934 1.381 . S
C1932 C1938 1.383 . S
C1933 C1929 1.495 . S
C1933 H1939 0.959 . S
C1933 H1940 0.961 . S
C1933 H1941 0.960 . S
C1934 C1932 1.381 . S
C1934 C1935 1.394 . S
C1934 H1942 0.930 . S
C1935 C1934 1.394 . S
C1935 C1936 1.383 . S
C1935 H1943 0.929 . S
C1936 C1935 1.383 . S
C1936 C1937 1.377 . S
C1937 H1921 0.930 . S
C1937 C1936 1.377 . S
C1937 C1938 1.379 . S
C1938 H1922 0.931 . S
C1938 C1932 1.383 . S
C1938 C1937 1.379 . S
H1939 C1933 0.959 . S
H1940 C1933 0.961 . S
H1941 C1933 0.960 . S
H1942 C1934 0.930 . S
H1943 C1935 0.929 . S
H1944 C1952 0.929 . S
H1945 C1954 0.930 . S
H1946 C1956 0.930 . S
H1947 C1959 0.929 . S
H1948 C1962 0.930 . S
H1949 C1964 0.960 . S
H1950 C1964 0.960 . S
H1951 C1964 0.960 . S
C1952 H1944 0.929 . S
C1952 C1953 1.377 . S
C1952 C1954 1.384 . S
C1953 C1952 1.377 . S
C1953 C1959 1.390 . S
C1954 H1945 0.930 . S
C1954 C1952 1.384 . S
C1954 C1955 1.372 . S
C1955 C1954 1.372 . S
C1955 C1956 1.400 . S
C1955 C1960 1.490 . S
C1956 H1946 0.930 . S
C1956 C1955 1.400 . S
C1956 C1959 1.386 . S
H1957 C1973 0.930 . S
H1958 C1974 0.931 . S
C1959 H1947 0.929 . S
C1959 C1953 1.390 . S
C1959 C1956 1.386 . S
C1960 C1955 1.490 . S
C1960 C1962 1.395 . S
C1960 C1963 1.403 . S
H1961 C1967 0.930 . S
C1962 H1948 0.930 . S
C1962 C1960 1.395 . S
C1962 C1965 1.403 . S
C1963 C1960 1.403 . S
C1963 C1964 1.524 . S
C1963 C1967 1.400 . S
C1964 H1949 0.960 . S
C1964 H1950 0.960 . S
C1964 H1951 0.960 . S
C1964 C1963 1.524 . S
C1965 C1962 1.403 . S
C1965 C1966 1.392 . S
C1965 C1969 1.495 . S
C1966 C1965 1.392 . S
C1966 C1967 1.385 . S
C1966 C1968 1.478 . S
C1967 H1961 0.930 . S
C1967 C1963 1.400 . S
C1967 C1966 1.385 . S
C1968 C1966 1.478 . S
C1968 C1970 1.381 . S
C1968 C1974 1.383 . S
C1969 C1965 1.495 . S
C1969 H1975 0.959 . S
C1969 H1976 0.961 . S
C1969 H1977 0.960 . S
C1970 C1968 1.381 . S
C1970 C1971 1.394 . S
C1970 H1978 0.930 . S
C1971 C1970 1.394 . S
C1971 C1972 1.383 . S
C1971 H1979 0.929 . S
C1972 C1971 1.383 . S
C1972 C1973 1.377 . S
C1973 H1957 0.930 . S
C1973 C1972 1.377 . S
C1973 C1974 1.379 . S
C1974 H1958 0.931 . S
C1974 C1968 1.383 . S
C1974 C1973 1.379 . S
H1975 C1969 0.959 . S
H1976 C1969 0.961 . S
H1977 C1969 0.960 . S
H1978 C1970 0.930 . S
H1979 C1971 0.929 . S
H1980 C1988 0.929 . S
H1981 C1990 0.930 . S
H1982 C1992 0.930 . S
H1983 C1995 0.929 . S
H1984 C1998 0.930 . S
H1985 C2000 0.960 . S
H1986 C2000 0.960 . S
H1987 C2000 0.960 . S
C1988 H1980 0.929 . S
C1988 C1989 1.377 . S
C1988 C1990 1.384 . S
C1989 C1988 1.377 . S
C1989 C1995 1.390 . S
C1990 H1981 0.930 . S
C1990 C1988 1.384 . S
C1990 C1991 1.372 . S
C1991 C1990 1.372 . S
C1991 C1992 1.400 . S
C1991 C1996 1.490 . S
C1992 H1982 0.930 . S
C1992 C1991 1.400 . S
C1992 C1995 1.386 . S
H1993 C2009 0.930 . S
H1994 C2010 0.931 . S
C1995 H1983 0.929 . S
C1995 C1989 1.390 . S
C1995 C1992 1.386 . S
C1996 C1991 1.490 . S
C1996 C1998 1.395 . S
C1996 C1999 1.403 . S
H1997 C2003 0.930 . S
C1998 H1984 0.930 . S
C1998 C1996 1.395 . S
C1998 C2001 1.403 . S
C1999 C1996 1.403 . S
C1999 C2000 1.524 . S
C1999 C2003 1.400 . S
C2000 H1985 0.960 . S
C2000 H1986 0.960 . S
C2000 H1987 0.960 . S
C2000 C1999 1.524 . S
C2001 C1998 1.403 . S
C2001 C2002 1.392 . S
C2001 C2005 1.495 . S
C2002 C2001 1.392 . S
C2002 C2003 1.385 . S
C2002 C2004 1.478 . S
C2003 H1997 0.930 . S
C2003 C1999 1.400 . S
C2003 C2002 1.385 . S
C2004 C2002 1.478 . S
C2004 C2006 1.381 . S
C2004 C2010 1.383 . S
C2005 C2001 1.495 . S
C2005 H2011 0.959 . S
C2005 H2012 0.961 . S
C2005 H2013 0.960 . S
C2006 C2004 1.381 . S
C2006 C2007 1.394 . S
C2006 H2014 0.930 . S
C2007 C2006 1.394 . S
C2007 C2008 1.383 . S
C2007 H2015 0.929 . S
C2008 C2007 1.383 . S
C2008 C2009 1.377 . S
C2009 H1993 0.930 . S
C2009 C2008 1.377 . S
C2009 C2010 1.379 . S
C2010 H1994 0.931 . S
C2010 C2004 1.383 . S
C2010 C2009 1.379 . S
H2011 C2005 0.959 . S
H2012 C2005 0.961 . S
H2013 C2005 0.960 . S
H2014 C2006 0.930 . S
H2015 C2007 0.929 . S
H2016 C2024 0.929 . S
H2017 C2026 0.930 . S
H2018 C2028 0.930 . S
H2019 C2031 0.929 . S
H2020 C2034 0.930 . S
H2021 C2036 0.960 . S
H2022 C2036 0.960 . S
H2023 C2036 0.960 . S
C2024 H2016 0.929 . S
C2024 C2025 1.377 . S
C2024 C2026 1.384 . S
C2025 C2024 1.377 . S
C2025 C2031 1.390 . S
C2026 H2017 0.930 . S
C2026 C2024 1.384 . S
C2026 C2027 1.372 . S
C2027 C2026 1.372 . S
C2027 C2028 1.400 . S
C2027 C2032 1.490 . S
C2028 H2018 0.930 . S
C2028 C2027 1.400 . S
C2028 C2031 1.386 . S
H2029 C2045 0.930 . S
H2030 C2046 0.931 . S
C2031 H2019 0.929 . S
C2031 C2025 1.390 . S
C2031 C2028 1.386 . S
C2032 C2027 1.490 . S
C2032 C2034 1.395 . S
C2032 C2035 1.403 . S
H2033 C2039 0.930 . S
C2034 H2020 0.930 . S
C2034 C2032 1.395 . S
C2034 C2037 1.403 . S
C2035 C2032 1.403 . S
C2035 C2036 1.524 . S
C2035 C2039 1.400 . S
C2036 H2021 0.960 . S
C2036 H2022 0.960 . S
C2036 H2023 0.960 . S
C2036 C2035 1.524 . S
C2037 C2034 1.403 . S
C2037 C2038 1.392 . S
C2037 C2041 1.495 . S
C2038 C2037 1.392 . S
C2038 C2039 1.385 . S
C2038 C2040 1.478 . S
C2039 H2033 0.930 . S
C2039 C2035 1.400 . S
C2039 C2038 1.385 . S
C2040 C2038 1.478 . S
C2040 C2042 1.381 . S
C2040 C2046 1.383 . S
C2041 C2037 1.495 . S
C2041 H2047 0.959 . S
C2041 H2048 0.961 . S
C2041 H2049 0.960 . S
C2042 C2040 1.381 . S
C2042 C2043 1.394 . S
C2042 H2050 0.930 . S
C2043 C2042 1.394 . S
C2043 C2044 1.383 . S
C2043 H2051 0.929 . S
C2044 C2043 1.383 . S
C2044 C2045 1.377 . S
C2045 H2029 0.930 . S
C2045 C2044 1.377 . S
C2045 C2046 1.379 . S
C2046 H2030 0.931 . S
C2046 C2040 1.383 . S
C2046 C2045 1.379 . S
H2047 C2041 0.959 . S
H2048 C2041 0.961 . S
H2049 C2041 0.960 . S
H2050 C2042 0.930 . S
H2051 C2043 0.929 . S
H2052 C2060 0.929 . S
H2053 C2062 0.930 . S
H2054 C2064 0.930 . S
H2055 C2067 0.929 . S
H2056 C2070 0.930 . S
H2057 C2072 0.960 . S
H2058 C2072 0.960 . S
H2059 C2072 0.960 . S
C2060 H2052 0.929 . S
C2060 C2061 1.377 . S
C2060 C2062 1.384 . S
C2061 C2060 1.377 . S
C2061 C2067 1.390 . S
C2062 H2053 0.930 . S
C2062 C2060 1.384 . S
C2062 C2063 1.372 . S
C2063 C2062 1.372 . S
C2063 C2064 1.400 . S
C2063 C2068 1.490 . S
C2064 H2054 0.930 . S
C2064 C2063 1.400 . S
C2064 C2067 1.386 . S
H2065 C2081 0.930 . S
H2066 C2082 0.931 . S
C2067 H2055 0.929 . S
C2067 C2061 1.390 . S
C2067 C2064 1.386 . S
C2068 C2063 1.490 . S
C2068 C2070 1.395 . S
C2068 C2071 1.403 . S
H2069 C2075 0.930 . S
C2070 H2056 0.930 . S
C2070 C2068 1.395 . S
C2070 C2073 1.403 . S
C2071 C2068 1.403 . S
C2071 C2072 1.524 . S
C2071 C2075 1.400 . S
C2072 H2057 0.960 . S
C2072 H2058 0.960 . S
C2072 H2059 0.960 . S
C2072 C2071 1.524 . S
C2073 C2070 1.403 . S
C2073 C2074 1.392 . S
C2073 C2077 1.495 . S
C2074 C2073 1.392 . S
C2074 C2075 1.385 . S
C2074 C2076 1.478 . S
C2075 H2069 0.930 . S
C2075 C2071 1.400 . S
C2075 C2074 1.385 . S
C2076 C2074 1.478 . S
C2076 C2078 1.381 . S
C2076 C2082 1.383 . S
C2077 C2073 1.495 . S
C2077 H2083 0.959 . S
C2077 H2084 0.961 . S
C2077 H2085 0.960 . S
C2078 C2076 1.381 . S
C2078 C2079 1.394 . S
C2078 H2086 0.930 . S
C2079 C2078 1.394 . S
C2079 C2080 1.383 . S
C2079 H2087 0.929 . S
C2080 C2079 1.383 . S
C2080 C2081 1.377 . S
C2081 H2065 0.930 . S
C2081 C2080 1.377 . S
C2081 C2082 1.379 . S
C2082 H2066 0.931 . S
C2082 C2076 1.383 . S
C2082 C2081 1.379 . S
H2083 C2077 0.959 . S
H2084 C2077 0.961 . S
H2085 C2077 0.960 . S
H2086 C2078 0.930 . S
H2087 C2079 0.929 . S
H2088 C2096 0.929 . S
H2089 C2098 0.930 . S
H2090 C2100 0.930 . S
H2091 C2103 0.929 . S
H2092 C2106 0.930 . S
H2093 C2108 0.960 . S
H2094 C2108 0.960 . S
H2095 C2108 0.960 . S
C2096 H2088 0.929 . S
C2096 C2097 1.377 . S
C2096 C2098 1.384 . S
C2097 C2096 1.377 . S
C2097 C2103 1.390 . S
C2098 H2089 0.930 . S
C2098 C2096 1.384 . S
C2098 C2099 1.372 . S
C2099 C2098 1.372 . S
C2099 C2100 1.400 . S
C2099 C2104 1.490 . S
C2100 H2090 0.930 . S
C2100 C2099 1.400 . S
C2100 C2103 1.386 . S
H2101 C2117 0.930 . S
H2102 C2118 0.931 . S
C2103 H2091 0.929 . S
C2103 C2097 1.390 . S
C2103 C2100 1.386 . S
C2104 C2099 1.490 . S
C2104 C2106 1.395 . S
C2104 C2107 1.403 . S
H2105 C2111 0.930 . S
C2106 H2092 0.930 . S
C2106 C2104 1.395 . S
C2106 C2109 1.403 . S
C2107 C2104 1.403 . S
C2107 C2108 1.524 . S
C2107 C2111 1.400 . S
C2108 H2093 0.960 . S
C2108 H2094 0.960 . S
C2108 H2095 0.960 . S
C2108 C2107 1.524 . S
C2109 C2106 1.403 . S
C2109 C2110 1.392 . S
C2109 C2113 1.495 . S
C2110 C2109 1.392 . S
C2110 C2111 1.385 . S
C2110 C2112 1.478 . S
C2111 H2105 0.930 . S
C2111 C2107 1.400 . S
C2111 C2110 1.385 . S
C2112 C2110 1.478 . S
C2112 C2114 1.381 . S
C2112 C2118 1.383 . S
C2113 C2109 1.495 . S
C2113 H2119 0.959 . S
C2113 H2120 0.961 . S
C2113 H2121 0.960 . S
C2114 C2112 1.381 . S
C2114 C2115 1.394 . S
C2114 H2122 0.930 . S
C2115 C2114 1.394 . S
C2115 C2116 1.383 . S
C2115 H2123 0.929 . S
C2116 C2115 1.383 . S
C2116 C2117 1.377 . S
C2117 H2101 0.930 . S
C2117 C2116 1.377 . S
C2117 C2118 1.379 . S
C2118 H2102 0.931 . S
C2118 C2112 1.383 . S
C2118 C2117 1.379 . S
H2119 C2113 0.959 . S
H2120 C2113 0.961 . S
H2121 C2113 0.960 . S
H2122 C2114 0.930 . S
H2123 C2115 0.929 . S
H2124 C2132 0.929 . S
H2125 C2134 0.930 . S
H2126 C2136 0.930 . S
H2127 C2139 0.929 . S
H2128 C2142 0.930 . S
H2129 C2144 0.960 . S
H2130 C2144 0.960 . S
H2131 C2144 0.960 . S
C2132 H2124 0.929 . S
C2132 C2133 1.377 . S
C2132 C2134 1.384 . S
C2133 C2132 1.377 . S
C2133 C2139 1.390 . S
C2134 H2125 0.930 . S
C2134 C2132 1.384 . S
C2134 C2135 1.372 . S
C2135 C2134 1.372 . S
C2135 C2136 1.400 . S
C2135 C2140 1.490 . S
C2136 H2126 0.930 . S
C2136 C2135 1.400 . S
C2136 C2139 1.386 . S
H2137 C2153 0.930 . S
H2138 C2154 0.931 . S
C2139 H2127 0.929 . S
C2139 C2133 1.390 . S
C2139 C2136 1.386 . S
C2140 C2135 1.490 . S
C2140 C2142 1.395 . S
C2140 C2143 1.403 . S
H2141 C2147 0.930 . S
C2142 H2128 0.930 . S
C2142 C2140 1.395 . S
C2142 C2145 1.403 . S
C2143 C2140 1.403 . S
C2143 C2144 1.524 . S
C2143 C2147 1.400 . S
C2144 H2129 0.960 . S
C2144 H2130 0.960 . S
C2144 H2131 0.960 . S
C2144 C2143 1.524 . S
C2145 C2142 1.403 . S
C2145 C2146 1.392 . S
C2145 C2149 1.495 . S
C2146 C2145 1.392 . S
C2146 C2147 1.385 . S
C2146 C2148 1.478 . S
C2147 H2141 0.930 . S
C2147 C2143 1.400 . S
C2147 C2146 1.385 . S
C2148 C2146 1.478 . S
C2148 C2150 1.381 . S
C2148 C2154 1.383 . S
C2149 C2145 1.495 . S
C2149 H2155 0.959 . S
C2149 H2156 0.961 . S
C2149 H2157 0.960 . S
C2150 C2148 1.381 . S
C2150 C2151 1.394 . S
C2150 H2158 0.930 . S
C2151 C2150 1.394 . S
C2151 C2152 1.383 . S
C2151 H2159 0.929 . S
C2152 C2151 1.383 . S
C2152 C2153 1.377 . S
C2153 H2137 0.930 . S
C2153 C2152 1.377 . S
C2153 C2154 1.379 . S
C2154 H2138 0.931 . S
C2154 C2148 1.383 . S
C2154 C2153 1.379 . S
H2155 C2149 0.959 . S
H2156 C2149 0.961 . S
H2157 C2149 0.960 . S
H2158 C2150 0.930 . S
H2159 C2151 0.929 . S
H2160 C2168 0.929 . S
H2161 C2170 0.930 . S
H2162 C2172 0.930 . S
H2163 C2175 0.929 . S
H2164 C2178 0.930 . S
H2165 C2180 0.960 . S
H2166 C2180 0.960 . S
H2167 C2180 0.960 . S
C2168 H2160 0.929 . S
C2168 C2169 1.377 . S
C2168 C2170 1.384 . S
C2169 C2168 1.377 . S
C2169 C2175 1.390 . S
C2170 H2161 0.930 . S
C2170 C2168 1.384 . S
C2170 C2171 1.372 . S
C2171 C2170 1.372 . S
C2171 C2172 1.400 . S
C2171 C2176 1.490 . S
C2172 H2162 0.930 . S
C2172 C2171 1.400 . S
C2172 C2175 1.386 . S
H2173 C2189 0.930 . S
H2174 C2190 0.931 . S
C2175 H2163 0.929 . S
C2175 C2169 1.390 . S
C2175 C2172 1.386 . S
C2176 C2171 1.490 . S
C2176 C2178 1.395 . S
C2176 C2179 1.403 . S
H2177 C2183 0.930 . S
C2178 H2164 0.930 . S
C2178 C2176 1.395 . S
C2178 C2181 1.403 . S
C2179 C2176 1.403 . S
C2179 C2180 1.524 . S
C2179 C2183 1.400 . S
C2180 H2165 0.960 . S
C2180 H2166 0.960 . S
C2180 H2167 0.960 . S
C2180 C2179 1.524 . S
C2181 C2178 1.403 . S
C2181 C2182 1.392 . S
C2181 C2185 1.495 . S
C2182 C2181 1.392 . S
C2182 C2183 1.385 . S
C2182 C2184 1.478 . S
C2183 H2177 0.930 . S
C2183 C2179 1.400 . S
C2183 C2182 1.385 . S
C2184 C2182 1.478 . S
C2184 C2186 1.381 . S
C2184 C2190 1.383 . S
C2185 C2181 1.495 . S
C2185 H2191 0.959 . S
C2185 H2192 0.961 . S
C2185 H2193 0.960 . S
C2186 C2184 1.381 . S
C2186 C2187 1.394 . S
C2186 H2194 0.930 . S
C2187 C2186 1.394 . S
C2187 C2188 1.383 . S
C2187 H2195 0.929 . S
C2188 C2187 1.383 . S
C2188 C2189 1.377 . S
C2189 H2173 0.930 . S
C2189 C2188 1.377 . S
C2189 C2190 1.379 . S
C2190 H2174 0.931 . S
C2190 C2184 1.383 . S
C2190 C2189 1.379 . S
H2191 C2185 0.959 . S
H2192 C2185 0.961 . S
H2193 C2185 0.960 . S
H2194 C2186 0.930 . S
H2195 C2187 0.929 . S
H2196 C2204 0.929 . S
H2197 C2206 0.930 . S
H2198 C2208 0.930 . S
H2199 C2211 0.929 . S
H2200 C2214 0.930 . S
H2201 C2216 0.960 . S
H2202 C2216 0.960 . S
H2203 C2216 0.960 . S
C2204 H2196 0.929 . S
C2204 C2205 1.377 . S
C2204 C2206 1.384 . S
C2205 C2204 1.377 . S
C2205 C2211 1.390 . S
C2206 H2197 0.930 . S
C2206 C2204 1.384 . S
C2206 C2207 1.372 . S
C2207 C2206 1.372 . S
C2207 C2208 1.400 . S
C2207 C2212 1.490 . S
C2208 H2198 0.930 . S
C2208 C2207 1.400 . S
C2208 C2211 1.386 . S
H2209 C2225 0.930 . S
H2210 C2226 0.931 . S
C2211 H2199 0.929 . S
C2211 C2205 1.390 . S
C2211 C2208 1.386 . S
C2212 C2207 1.490 . S
C2212 C2214 1.395 . S
C2212 C2215 1.403 . S
H2213 C2219 0.930 . S
C2214 H2200 0.930 . S
C2214 C2212 1.395 . S
C2214 C2217 1.403 . S
C2215 C2212 1.403 . S
C2215 C2216 1.524 . S
C2215 C2219 1.400 . S
C2216 H2201 0.960 . S
C2216 H2202 0.960 . S
C2216 H2203 0.960 . S
C2216 C2215 1.524 . S
C2217 C2214 1.403 . S
C2217 C2218 1.392 . S
C2217 C2221 1.495 . S
C2218 C2217 1.392 . S
C2218 C2219 1.385 . S
C2218 C2220 1.478 . S
C2219 H2213 0.930 . S
C2219 C2215 1.400 . S
C2219 C2218 1.385 . S
C2220 C2218 1.478 . S
C2220 C2222 1.381 . S
C2220 C2226 1.383 . S
C2221 C2217 1.495 . S
C2221 H2227 0.959 . S
C2221 H2228 0.961 . S
C2221 H2229 0.960 . S
C2222 C2220 1.381 . S
C2222 C2223 1.394 . S
C2222 H2230 0.930 . S
C2223 C2222 1.394 . S
C2223 C2224 1.383 . S
C2223 H2231 0.929 . S
C2224 C2223 1.383 . S
C2224 C2225 1.377 . S
C2225 H2209 0.930 . S
C2225 C2224 1.377 . S
C2225 C2226 1.379 . S
C2226 H2210 0.931 . S
C2226 C2220 1.383 . S
C2226 C2225 1.379 . S
H2227 C2221 0.959 . S
H2228 C2221 0.961 . S
H2229 C2221 0.960 . S
H2230 C2222 0.930 . S
H2231 C2223 0.929 . S
H2232 C2240 0.929 . S
H2233 C2242 0.930 . S
H2234 C2244 0.930 . S
H2235 C2247 0.929 . S
H2236 C2250 0.930 . S
H2237 C2252 0.960 . S
H2238 C2252 0.960 . S
H2239 C2252 0.960 . S
C2240 H2232 0.929 . S
C2240 C2241 1.377 . S
C2240 C2242 1.384 . S
C2241 C2240 1.377 . S
C2241 C2247 1.390 . S
C2242 H2233 0.930 . S
C2242 C2240 1.384 . S
C2242 C2243 1.372 . S
C2243 C2242 1.372 . S
C2243 C2244 1.400 . S
C2243 C2248 1.490 . S
C2244 H2234 0.930 . S
C2244 C2243 1.400 . S
C2244 C2247 1.386 . S
H2245 C2261 0.930 . S
H2246 C2262 0.931 . S
C2247 H2235 0.929 . S
C2247 C2241 1.390 . S
C2247 C2244 1.386 . S
C2248 C2243 1.490 . S
C2248 C2250 1.395 . S
C2248 C2251 1.403 . S
H2249 C2255 0.930 . S
C2250 H2236 0.930 . S
C2250 C2248 1.395 . S
C2250 C2253 1.403 . S
C2251 C2248 1.403 . S
C2251 C2252 1.524 . S
C2251 C2255 1.400 . S
C2252 H2237 0.960 . S
C2252 H2238 0.960 . S
C2252 H2239 0.960 . S
C2252 C2251 1.524 . S
C2253 C2250 1.403 . S
C2253 C2254 1.392 . S
C2253 C2257 1.495 . S
C2254 C2253 1.392 . S
C2254 C2255 1.385 . S
C2254 C2256 1.478 . S
C2255 H2249 0.930 . S
C2255 C2251 1.400 . S
C2255 C2254 1.385 . S
C2256 C2254 1.478 . S
C2256 C2258 1.381 . S
C2256 C2262 1.383 . S
C2257 C2253 1.495 . S
C2257 H2263 0.959 . S
C2257 H2264 0.961 . S
C2257 H2265 0.960 . S
C2258 C2256 1.381 . S
C2258 C2259 1.394 . S
C2258 H2266 0.930 . S
C2259 C2258 1.394 . S
C2259 C2260 1.383 . S
C2259 H2267 0.929 . S
C2260 C2259 1.383 . S
C2260 C2261 1.377 . S
C2261 H2245 0.930 . S
C2261 C2260 1.377 . S
C2261 C2262 1.379 . S
C2262 H2246 0.931 . S
C2262 C2256 1.383 . S
C2262 C2261 1.379 . S
H2263 C2257 0.959 . S
H2264 C2257 0.961 . S
H2265 C2257 0.960 . S
H2266 C2258 0.930 . S
H2267 C2259 0.929 . S
H2268 C2276 0.929 . S
H2269 C2278 0.930 . S
H2270 C2280 0.930 . S
H2271 C2283 0.929 . S
H2272 C2286 0.930 . S
H2273 C2288 0.960 . S
H2274 C2288 0.960 . S
H2275 C2288 0.960 . S
C2276 H2268 0.929 . S
C2276 C2277 1.377 . S
C2276 C2278 1.384 . S
C2277 C2276 1.377 . S
C2277 C2283 1.390 . S
C2278 H2269 0.930 . S
C2278 C2276 1.384 . S
C2278 C2279 1.372 . S
C2279 C2278 1.372 . S
C2279 C2280 1.400 . S
C2279 C2284 1.490 . S
C2280 H2270 0.930 . S
C2280 C2279 1.400 . S
C2280 C2283 1.386 . S
H2281 C2297 0.930 . S
H2282 C2298 0.931 . S
C2283 H2271 0.929 . S
C2283 C2277 1.390 . S
C2283 C2280 1.386 . S
C2284 C2279 1.490 . S
C2284 C2286 1.395 . S
C2284 C2287 1.403 . S
H2285 C2291 0.930 . S
C2286 H2272 0.930 . S
C2286 C2284 1.395 . S
C2286 C2289 1.403 . S
C2287 C2284 1.403 . S
C2287 C2288 1.524 . S
C2287 C2291 1.400 . S
C2288 H2273 0.960 . S
C2288 H2274 0.960 . S
C2288 H2275 0.960 . S
C2288 C2287 1.524 . S
C2289 C2286 1.403 . S
C2289 C2290 1.392 . S
C2289 C2293 1.495 . S
C2290 C2289 1.392 . S
C2290 C2291 1.385 . S
C2290 C2292 1.478 . S
C2291 H2285 0.930 . S
C2291 C2287 1.400 . S
C2291 C2290 1.385 . S
C2292 C2290 1.478 . S
C2292 C2294 1.381 . S
C2292 C2298 1.383 . S
C2293 C2289 1.495 . S
C2293 H2299 0.959 . S
C2293 H2300 0.961 . S
C2293 H2301 0.960 . S
C2294 C2292 1.381 . S
C2294 C2295 1.394 . S
C2294 H2302 0.930 . S
C2295 C2294 1.394 . S
C2295 C2296 1.383 . S
C2295 H2303 0.929 . S
C2296 C2295 1.383 . S
C2296 C2297 1.377 . S
C2297 H2281 0.930 . S
C2297 C2296 1.377 . S
C2297 C2298 1.379 . S
C2298 H2282 0.931 . S
C2298 C2292 1.383 . S
C2298 C2297 1.379 . S
H2299 C2293 0.959 . S
H2300 C2293 0.961 . S
H2301 C2293 0.960 . S
H2302 C2294 0.930 . S
H2303 C2295 0.929 . S
H2304 C2312 0.929 . S
H2305 C2314 0.930 . S
H2306 C2316 0.930 . S
H2307 C2319 0.929 . S
H2308 C2322 0.930 . S
H2309 C2324 0.960 . S
H2310 C2324 0.960 . S
H2311 C2324 0.960 . S
C2312 H2304 0.929 . S
C2312 C2313 1.377 . S
C2312 C2314 1.384 . S
C2313 C2312 1.377 . S
C2313 C2319 1.390 . S
C2314 H2305 0.930 . S
C2314 C2312 1.384 . S
C2314 C2315 1.372 . S
C2315 C2314 1.372 . S
C2315 C2316 1.400 . S
C2315 C2320 1.490 . S
C2316 H2306 0.930 . S
C2316 C2315 1.400 . S
C2316 C2319 1.386 . S
H2317 C2333 0.930 . S
H2318 C2334 0.931 . S
C2319 H2307 0.929 . S
C2319 C2313 1.390 . S
C2319 C2316 1.386 . S
C2320 C2315 1.490 . S
C2320 C2322 1.395 . S
C2320 C2323 1.403 . S
H2321 C2327 0.930 . S
C2322 H2308 0.930 . S
C2322 C2320 1.395 . S
C2322 C2325 1.403 . S
C2323 C2320 1.403 . S
C2323 C2324 1.524 . S
C2323 C2327 1.400 . S
C2324 H2309 0.960 . S
C2324 H2310 0.960 . S
C2324 H2311 0.960 . S
C2324 C2323 1.524 . S
C2325 C2322 1.403 . S
C2325 C2326 1.392 . S
C2325 C2329 1.495 . S
C2326 C2325 1.392 . S
C2326 C2327 1.385 . S
C2326 C2328 1.478 . S
C2327 H2321 0.930 . S
C2327 C2323 1.400 . S
C2327 C2326 1.385 . S
C2328 C2326 1.478 . S
C2328 C2330 1.381 . S
C2328 C2334 1.383 . S
C2329 C2325 1.495 . S
C2329 H2335 0.959 . S
C2329 H2336 0.961 . S
C2329 H2337 0.960 . S
C2330 C2328 1.381 . S
C2330 C2331 1.394 . S
C2330 H2338 0.930 . S
C2331 C2330 1.394 . S
C2331 C2332 1.383 . S
C2331 H2339 0.929 . S
C2332 C2331 1.383 . S
C2332 C2333 1.377 . S
C2333 H2317 0.930 . S
C2333 C2332 1.377 . S
C2333 C2334 1.379 . S
C2334 H2318 0.931 . S
C2334 C2328 1.383 . S
C2334 C2333 1.379 . S
H2335 C2329 0.959 . S
H2336 C2329 0.961 . S
H2337 C2329 0.960 . S
H2338 C2330 0.930 . S
H2339 C2331 0.929 . S
H2340 C2348 0.929 . S
H2341 C2350 0.930 . S
H2342 C2352 0.930 . S
H2343 C2355 0.929 . S
H2344 C2358 0.930 . S
H2345 C2360 0.960 . S
H2346 C2360 0.960 . S
H2347 C2360 0.960 . S
C2348 H2340 0.929 . S
C2348 C2349 1.377 . S
C2348 C2350 1.384 . S
C2349 C2348 1.377 . S
C2349 C2355 1.390 . S
C2350 H2341 0.930 . S
C2350 C2348 1.384 . S
C2350 C2351 1.372 . S
C2351 C2350 1.372 . S
C2351 C2352 1.400 . S
C2351 C2356 1.490 . S
C2352 H2342 0.930 . S
C2352 C2351 1.400 . S
C2352 C2355 1.386 . S
H2353 C2369 0.930 . S
H2354 C2370 0.931 . S
C2355 H2343 0.929 . S
C2355 C2349 1.390 . S
C2355 C2352 1.386 . S
C2356 C2351 1.490 . S
C2356 C2358 1.395 . S
C2356 C2359 1.403 . S
H2357 C2363 0.930 . S
C2358 H2344 0.930 . S
C2358 C2356 1.395 . S
C2358 C2361 1.403 . S
C2359 C2356 1.403 . S
C2359 C2360 1.524 . S
C2359 C2363 1.400 . S
C2360 H2345 0.960 . S
C2360 H2346 0.960 . S
C2360 H2347 0.960 . S
C2360 C2359 1.524 . S
C2361 C2358 1.403 . S
C2361 C2362 1.392 . S
C2361 C2365 1.495 . S
C2362 C2361 1.392 . S
C2362 C2363 1.385 . S
C2362 C2364 1.478 . S
C2363 H2357 0.930 . S
C2363 C2359 1.400 . S
C2363 C2362 1.385 . S
C2364 C2362 1.478 . S
C2364 C2366 1.381 . S
C2364 C2370 1.383 . S
C2365 C2361 1.495 . S
C2365 H2371 0.959 . S
C2365 H2372 0.961 . S
C2365 H2373 0.960 . S
C2366 C2364 1.381 . S
C2366 C2367 1.394 . S
C2366 H2374 0.930 . S
C2367 C2366 1.394 . S
C2367 C2368 1.383 . S
C2367 H2375 0.929 . S
C2368 C2367 1.383 . S
C2368 C2369 1.377 . S
C2369 H2353 0.930 . S
C2369 C2368 1.377 . S
C2369 C2370 1.379 . S
C2370 H2354 0.931 . S
C2370 C2364 1.383 . S
C2370 C2369 1.379 . S
H2371 C2365 0.959 . S
H2372 C2365 0.961 . S
H2373 C2365 0.960 . S
H2374 C2366 0.930 . S
H2375 C2367 0.929 . S
H2376 C2384 0.929 . S
H2377 C2386 0.930 . S
H2378 C2388 0.930 . S
H2379 C2391 0.929 . S
H2380 C2394 0.930 . S
H2381 C2396 0.960 . S
H2382 C2396 0.960 . S
H2383 C2396 0.960 . S
C2384 H2376 0.929 . S
C2384 C2385 1.377 . S
C2384 C2386 1.384 . S
C2385 C2384 1.377 . S
C2385 C2391 1.390 . S
C2386 H2377 0.930 . S
C2386 C2384 1.384 . S
C2386 C2387 1.372 . S
C2387 C2386 1.372 . S
C2387 C2388 1.400 . S
C2387 C2392 1.490 . S
C2388 H2378 0.930 . S
C2388 C2387 1.400 . S
C2388 C2391 1.386 . S
H2389 C2405 0.930 . S
H2390 C2406 0.931 . S
C2391 H2379 0.929 . S
C2391 C2385 1.390 . S
C2391 C2388 1.386 . S
C2392 C2387 1.490 . S
C2392 C2394 1.395 . S
C2392 C2395 1.403 . S
H2393 C2399 0.930 . S
C2394 H2380 0.930 . S
C2394 C2392 1.395 . S
C2394 C2397 1.403 . S
C2395 C2392 1.403 . S
C2395 C2396 1.524 . S
C2395 C2399 1.400 . S
C2396 H2381 0.960 . S
C2396 H2382 0.960 . S
C2396 H2383 0.960 . S
C2396 C2395 1.524 . S
C2397 C2394 1.403 . S
C2397 C2398 1.392 . S
C2397 C2401 1.495 . S
C2398 C2397 1.392 . S
C2398 C2399 1.385 . S
C2398 C2400 1.478 . S
C2399 H2393 0.930 . S
C2399 C2395 1.400 . S
C2399 C2398 1.385 . S
C2400 C2398 1.478 . S
C2400 C2402 1.381 . S
C2400 C2406 1.383 . S
C2401 C2397 1.495 . S
C2401 H2407 0.959 . S
C2401 H2408 0.961 . S
C2401 H2409 0.960 . S
C2402 C2400 1.381 . S
C2402 C2403 1.394 . S
C2402 H2410 0.930 . S
C2403 C2402 1.394 . S
C2403 C2404 1.383 . S
C2403 H2411 0.929 . S
C2404 C2403 1.383 . S
C2404 C2405 1.377 . S
C2405 H2389 0.930 . S
C2405 C2404 1.377 . S
C2405 C2406 1.379 . S
C2406 H2390 0.931 . S
C2406 C2400 1.383 . S
C2406 C2405 1.379 . S
H2407 C2401 0.959 . S
H2408 C2401 0.961 . S
H2409 C2401 0.960 . S
H2410 C2402 0.930 . S
H2411 C2403 0.929 . S
H2412 C2420 0.929 . S
H2413 C2422 0.930 . S
H2414 C2424 0.930 . S
H2415 C2427 0.929 . S
H2416 C2430 0.930 . S
H2417 C2432 0.960 . S
H2418 C2432 0.960 . S
H2419 C2432 0.960 . S
C2420 H2412 0.929 . S
C2420 C2421 1.377 . S
C2420 C2422 1.384 . S
C2421 C2420 1.377 . S
C2421 C2427 1.390 . S
C2422 H2413 0.930 . S
C2422 C2420 1.384 . S
C2422 C2423 1.372 . S
C2423 C2422 1.372 . S
C2423 C2424 1.400 . S
C2423 C2428 1.490 . S
C2424 H2414 0.930 . S
C2424 C2423 1.400 . S
C2424 C2427 1.386 . S
H2425 C2441 0.930 . S
H2426 C2442 0.931 . S
C2427 H2415 0.929 . S
C2427 C2421 1.390 . S
C2427 C2424 1.386 . S
C2428 C2423 1.490 . S
C2428 C2430 1.395 . S
C2428 C2431 1.403 . S
H2429 C2435 0.930 . S
C2430 H2416 0.930 . S
C2430 C2428 1.395 . S
C2430 C2433 1.403 . S
C2431 C2428 1.403 . S
C2431 C2432 1.524 . S
C2431 C2435 1.400 . S
C2432 H2417 0.960 . S
C2432 H2418 0.960 . S
C2432 H2419 0.960 . S
C2432 C2431 1.524 . S
C2433 C2430 1.403 . S
C2433 C2434 1.392 . S
C2433 C2437 1.495 . S
C2434 C2433 1.392 . S
C2434 C2435 1.385 . S
C2434 C2436 1.478 . S
C2435 H2429 0.930 . S
C2435 C2431 1.400 . S
C2435 C2434 1.385 . S
C2436 C2434 1.478 . S
C2436 C2438 1.381 . S
C2436 C2442 1.383 . S
C2437 C2433 1.495 . S
C2437 H2443 0.959 . S
C2437 H2444 0.961 . S
C2437 H2445 0.960 . S
C2438 C2436 1.381 . S
C2438 C2439 1.394 . S
C2438 H2446 0.930 . S
C2439 C2438 1.394 . S
C2439 C2440 1.383 . S
C2439 H2447 0.929 . S
C2440 C2439 1.383 . S
C2440 C2441 1.377 . S
C2441 H2425 0.930 . S
C2441 C2440 1.377 . S
C2441 C2442 1.379 . S
C2442 H2426 0.931 . S
C2442 C2436 1.383 . S
C2442 C2441 1.379 . S
H2443 C2437 0.959 . S
H2444 C2437 0.961 . S
H2445 C2437 0.960 . S
H2446 C2438 0.930 . S
H2447 C2439 0.929 . S
H2448 C2456 0.929 . S
H2449 C2458 0.930 . S
H2450 C2460 0.930 . S
H2451 C2463 0.929 . S
H2452 C2466 0.930 . S
H2453 C2468 0.960 . S
H2454 C2468 0.960 . S
H2455 C2468 0.960 . S
C2456 H2448 0.929 . S
C2456 C2457 1.377 . S
C2456 C2458 1.384 . S
C2457 C2456 1.377 . S
C2457 C2463 1.390 . S
C2458 H2449 0.930 . S
C2458 C2456 1.384 . S
C2458 C2459 1.372 . S
C2459 C2458 1.372 . S
C2459 C2460 1.400 . S
C2459 C2464 1.490 . S
C2460 H2450 0.930 . S
C2460 C2459 1.400 . S
C2460 C2463 1.386 . S
H2461 C2477 0.930 . S
H2462 C2478 0.931 . S
C2463 H2451 0.929 . S
C2463 C2457 1.390 . S
C2463 C2460 1.386 . S
C2464 C2459 1.490 . S
C2464 C2466 1.395 . S
C2464 C2467 1.403 . S
H2465 C2471 0.930 . S
C2466 H2452 0.930 . S
C2466 C2464 1.395 . S
C2466 C2469 1.403 1_565 S
C2467 C2464 1.403 . S
C2467 C2468 1.524 . S
C2467 C2471 1.400 . S
C2468 H2453 0.960 . S
C2468 H2454 0.960 . S
C2468 H2455 0.960 . S
C2468 C2467 1.524 . S
C2469 C2466 1.403 1_545 S
C2469 C2470 1.392 1_545 S
C2469 C2473 1.495 . S
C2470 C2469 1.392 1_565 S
C2470 C2471 1.385 . S
C2470 C2472 1.478 1_565 S
C2471 H2465 0.930 . S
C2471 C2467 1.400 . S
C2471 C2470 1.385 . S
C2472 C2470 1.478 1_545 S
C2472 C2474 1.381 . S
C2472 C2478 1.383 . S
C2473 C2469 1.495 . S
C2473 H2479 0.959 . S
C2473 H2480 0.961 . S
C2473 H2481 0.960 . S
C2474 C2472 1.381 . S
C2474 C2475 1.394 . S
C2474 H2482 0.930 . S
C2475 C2474 1.394 . S
C2475 C2476 1.383 . S
C2475 H2483 0.929 . S
C2476 C2475 1.383 . S
C2476 C2477 1.377 . S
C2477 H2461 0.930 . S
C2477 C2476 1.377 . S
C2477 C2478 1.379 . S
C2478 H2462 0.931 . S
C2478 C2472 1.383 . S
C2478 C2477 1.379 . S
H2479 C2473 0.959 . S
H2480 C2473 0.961 . S
H2481 C2473 0.960 . S
H2482 C2474 0.930 . S
H2483 C2475 0.929 . S
H2484 C2492 0.929 . S
H2485 C2494 0.930 . S
H2486 C2496 0.930 . S
H2487 C2499 0.929 . S
H2488 C2502 0.930 . S
H2489 C2504 0.960 . S
H2490 C2504 0.960 . S
H2491 C2504 0.960 . S
C2492 H2484 0.929 . S
C2492 C2493 1.377 . S
C2492 C2494 1.384 . S
C2493 C2492 1.377 . S
C2493 C2499 1.390 . S
C2494 H2485 0.930 . S
C2494 C2492 1.384 . S
C2494 C2495 1.372 . S
C2495 C2494 1.372 . S
C2495 C2496 1.400 . S
C2495 C2500 1.490 1_655 S
C2496 H2486 0.930 . S
C2496 C2495 1.400 . S
C2496 C2499 1.386 . S
H2497 C2513 0.930 . S
H2498 C2514 0.931 . S
C2499 H2487 0.929 . S
C2499 C2493 1.390 . S
C2499 C2496 1.386 . S
C2500 C2495 1.490 1_455 S
C2500 C2502 1.395 1_455 S
C2500 C2503 1.403 . S
H2501 C2507 0.930 . S
C2502 H2488 0.930 . S
C2502 C2500 1.395 1_655 S
C2502 C2505 1.403 1_655 S
C2503 C2500 1.403 . S
C2503 C2504 1.524 . S
C2503 C2507 1.400 . S
C2504 H2489 0.960 . S
C2504 H2490 0.960 . S
C2504 H2491 0.960 . S
C2504 C2503 1.524 . S
C2505 C2502 1.403 1_455 S
C2505 C2506 1.392 . S
C2505 C2509 1.495 1_455 S
C2506 C2505 1.392 . S
C2506 C2507 1.385 . S
C2506 C2508 1.478 . S
C2507 H2501 0.930 . S
C2507 C2503 1.400 . S
C2507 C2506 1.385 . S
C2508 C2506 1.478 . S
C2508 C2510 1.381 . S
C2508 C2514 1.383 . S
C2509 C2505 1.495 1_655 S
C2509 H2515 0.959 . S
C2509 H2516 0.961 . S
C2509 H2517 0.960 1_655 S
C2510 C2508 1.381 . S
C2510 C2511 1.394 . S
C2510 H2518 0.930 . S
C2511 C2510 1.394 . S
C2511 C2512 1.383 . S
C2511 H2519 0.929 . S
C2512 C2511 1.383 . S
C2512 C2513 1.377 . S
C2513 H2497 0.930 . S
C2513 C2512 1.377 . S
C2513 C2514 1.379 . S
C2514 H2498 0.931 . S
C2514 C2508 1.383 . S
C2514 C2513 1.379 . S
H2515 C2509 0.959 . S
H2516 C2509 0.961 . S
H2517 C2509 0.960 1_455 S
H2518 C2510 0.930 . S
H2519 C2511 0.929 . S
H2520 C2528 0.929 . S
H2521 C2530 0.930 . S
H2522 C2532 0.930 . S
H2523 C2535 0.929 . S
H2524 C2538 0.930 . S
H2525 C2540 0.960 . S
H2526 C2540 0.960 . S
H2527 C2540 0.960 . S
C2528 H2520 0.929 . S
C2528 C2529 1.377 . S
C2528 C2530 1.384 . S
C2529 C2528 1.377 . S
C2529 C2535 1.390 . S
C2530 H2521 0.930 . S
C2530 C2528 1.384 . S
C2530 C2531 1.372 . S
C2531 C2530 1.372 . S
C2531 C2532 1.400 . S
C2531 C2536 1.490 . S
C2532 H2522 0.930 . S
C2532 C2531 1.400 . S
C2532 C2535 1.386 . S
H2533 C2549 0.930 . S
H2534 C2550 0.931 . S
C2535 H2523 0.929 . S
C2535 C2529 1.390 . S
C2535 C2532 1.386 . S
C2536 C2531 1.490 . S
C2536 C2538 1.395 . S
C2536 C2539 1.403 . S
H2537 C2543 0.930 . S
C2538 H2524 0.930 . S
C2538 C2536 1.395 . S
C2538 C2541 1.403 . S
C2539 C2536 1.403 . S
C2539 C2540 1.524 . S
C2539 C2543 1.400 . S
C2540 H2525 0.960 . S
C2540 H2526 0.960 . S
C2540 H2527 0.960 . S
C2540 C2539 1.524 . S
C2541 C2538 1.403 . S
C2541 C2542 1.392 . S
C2541 C2545 1.495 . S
C2542 C2541 1.392 . S
C2542 C2543 1.385 . S
C2542 C2544 1.478 . S
C2543 H2537 0.930 . S
C2543 C2539 1.400 . S
C2543 C2542 1.385 . S
C2544 C2542 1.478 . S
C2544 C2546 1.381 . S
C2544 C2550 1.383 . S
C2545 C2541 1.495 . S
C2545 H2551 0.959 . S
C2545 H2552 0.961 . S
C2545 H2553 0.960 . S
C2546 C2544 1.381 . S
C2546 C2547 1.394 . S
C2546 H2554 0.930 . S
C2547 C2546 1.394 . S
C2547 C2548 1.383 . S
C2547 H2555 0.929 . S
C2548 C2547 1.383 . S
C2548 C2549 1.377 . S
C2549 H2533 0.930 . S
C2549 C2548 1.377 . S
C2549 C2550 1.379 . S
C2550 H2534 0.931 . S
C2550 C2544 1.383 . S
C2550 C2549 1.379 . S
H2551 C2545 0.959 . S
H2552 C2545 0.961 . S
H2553 C2545 0.960 . S
H2554 C2546 0.930 . S
H2555 C2547 0.929 . S
H2556 C2564 0.929 . S
H2557 C2566 0.930 . S
H2558 C2568 0.930 . S
H2559 C2571 0.929 . S
H2560 C2574 0.930 . S
H2561 C2576 0.960 . S
H2562 C2576 0.960 . S
H2563 C2576 0.960 . S
C2564 H2556 0.929 . S
C2564 C2565 1.377 . S
C2564 C2566 1.384 . S
C2565 C2564 1.377 . S
C2565 C2571 1.390 . S
C2566 H2557 0.930 . S
C2566 C2564 1.384 . S
C2566 C2567 1.372 . S
C2567 C2566 1.372 . S
C2567 C2568 1.400 . S
C2567 C2572 1.490 . S
C2568 H2558 0.930 . S
C2568 C2567 1.400 . S
C2568 C2571 1.386 . S
H2569 C2585 0.930 . S
H2570 C2586 0.931 . S
C2571 H2559 0.929 . S
C2571 C2565 1.390 . S
C2571 C2568 1.386 . S
C2572 C2567 1.490 . S
C2572 C2574 1.395 . S
C2572 C2575 1.403 . S
H2573 C2579 0.930 . S
C2574 H2560 0.930 . S
C2574 C2572 1.395 . S
C2574 C2577 1.403 . S
C2575 C2572 1.403 . S
C2575 C2576 1.524 1_545 S
C2575 C2579 1.400 1_545 S
C2576 H2561 0.960 . S
C2576 H2562 0.960 . S
C2576 H2563 0.960 . S
C2576 C2575 1.524 1_565 S
C2577 C2574 1.403 . S
C2577 C2578 1.392 . S
C2577 C2581 1.495 . S
C2578 C2577 1.392 . S
C2578 C2579 1.385 1_545 S
C2578 C2580 1.478 1_545 S
C2579 H2573 0.930 . S
C2579 C2575 1.400 1_565 S
C2579 C2578 1.385 1_565 S
C2580 C2578 1.478 1_565 S
C2580 C2582 1.381 . S
C2580 C2586 1.383 . S
C2581 C2577 1.495 . S
C2581 H2587 0.959 . S
C2581 H2588 0.961 . S
C2581 H2589 0.960 . S
C2582 C2580 1.381 . S
C2582 C2583 1.394 . S
C2582 H2590 0.901 1_565 S
C2583 C2582 1.394 . S
C2583 C2584 1.383 . S
C2583 H2591 0.929 . S
C2584 C2583 1.383 . S
C2584 C2585 1.377 . S
C2585 H2569 0.930 . S
C2585 C2584 1.377 . S
C2585 C2586 1.379 . S
C2586 H2570 0.931 . S
C2586 C2580 1.383 . S
C2586 C2585 1.379 . S
H2587 C2581 0.959 . S
H2588 C2581 0.961 . S
H2589 C2581 0.960 . S
H2590 C2582 0.901 1_545 S
H2591 C2583 0.929 . S
H2592 C2600 0.968 . S
H2593 C2602 0.930 . S
H2594 C2604 0.930 . S
H2595 C2607 0.929 . S
H2596 C2610 0.930 . S
H2597 C2612 0.960 . S
H2598 C2612 0.960 . S
H2599 C2612 0.960 . S
C2600 H2592 0.968 . S
C2600 C2601 1.377 . S
C2600 C2602 1.384 1_455 S
C2601 C2600 1.377 . S
C2601 C2607 1.390 . S
C2602 H2593 0.930 . S
C2602 C2600 1.384 1_655 S
C2602 C2603 1.372 1_655 S
C2603 C2602 1.372 1_455 S
C2603 C2604 1.400 . S
C2603 C2608 1.490 1_455 S
C2604 H2594 0.930 . S
C2604 C2603 1.400 . S
C2604 C2607 1.386 . S
H2605 C2621 0.930 . S
H2606 C2622 0.931 . S
C2607 H2595 0.929 . S
C2607 C2601 1.390 . S
C2607 C2604 1.386 . S
C2608 C2603 1.490 1_655 S
C2608 C2610 1.395 . S
C2608 C2611 1.403 . S
H2609 C2615 0.930 . S
C2610 H2596 0.930 . S
C2610 C2608 1.395 . S
C2610 C2613 1.403 . S
C2611 C2608 1.403 . S
C2611 C2612 1.524 1_655 S
C2611 C2615 1.400 . S
C2612 H2597 0.960 . S
C2612 H2598 0.960 . S
C2612 H2599 0.960 . S
C2612 C2611 1.524 1_455 S
C2613 C2610 1.403 . S
C2613 C2614 1.392 . S
C2613 C2617 1.495 . S
C2614 C2613 1.392 . S
C2614 C2615 1.385 . S
C2614 C2616 1.478 . S
C2615 H2609 0.930 . S
C2615 C2611 1.400 . S
C2615 C2614 1.385 . S
C2616 C2614 1.478 . S
C2616 C2618 1.381 . S
C2616 C2622 1.383 . S
C2617 C2613 1.495 . S
C2617 H2623 0.959 . S
C2617 H2624 0.961 . S
C2617 H2625 0.960 . S
C2618 C2616 1.381 . S
C2618 C2619 1.394 . S
C2618 H2626 0.930 . S
C2619 C2618 1.394 . S
C2619 C2620 1.383 . S
C2619 H2627 0.929 . S
C2620 C2619 1.383 . S
C2620 C2621 1.377 . S
C2621 H2605 0.930 . S
C2621 C2620 1.377 . S
C2621 C2622 1.379 . S
C2622 H2606 0.931 . S
C2622 C2616 1.383 . S
C2622 C2621 1.379 . S
H2623 C2617 0.959 . S
H2624 C2617 0.961 . S
H2625 C2617 0.960 . S
H2626 C2618 0.930 . S
H2627 C2619 0.929 . S
H2628 C2636 0.929 . S
H2629 C2638 0.930 . S
H2630 C2640 0.930 . S
H2631 C2643 0.929 . S
H2632 C2646 0.930 . S
H2633 C2648 0.960 . S
H2634 C2648 0.960 . S
H2635 C2648 0.960 . S
C2636 H2628 0.929 . S
C2636 C2637 1.377 . S
C2636 C2638 1.384 . S
C2637 C2636 1.377 . S
C2637 C2643 1.390 . S
C2638 H2629 0.930 . S
C2638 C2636 1.384 . S
C2638 C2639 1.372 . S
C2639 C2638 1.372 . S
C2639 C2640 1.400 . S
C2639 C2644 1.490 . S
C2640 H2630 0.930 . S
C2640 C2639 1.400 . S
C2640 C2643 1.386 . S
H2641 C2657 0.930 . S
H2642 C2658 0.931 . S
C2643 H2631 0.929 . S
C2643 C2637 1.390 . S
C2643 C2640 1.386 . S
C2644 C2639 1.490 . S
C2644 C2646 1.395 . S
C2644 C2647 1.403 . S
H2645 C2651 0.930 . S
C2646 H2632 0.930 . S
C2646 C2644 1.395 . S
C2646 C2649 1.403 . S
C2647 C2644 1.403 . S
C2647 C2648 1.524 . S
C2647 C2651 1.400 . S
C2648 H2633 0.960 . S
C2648 H2634 0.960 . S
C2648 H2635 0.960 . S
C2648 C2647 1.524 . S
C2649 C2646 1.403 . S
C2649 C2650 1.392 . S
C2649 C2653 1.495 . S
C2650 C2649 1.392 . S
C2650 C2651 1.385 . S
C2650 C2652 1.478 . S
C2651 H2645 0.930 . S
C2651 C2647 1.400 . S
C2651 C2650 1.385 . S
C2652 C2650 1.478 . S
C2652 C2654 1.381 . S
C2652 C2658 1.383 . S
C2653 C2649 1.495 . S
C2653 H2659 0.959 . S
C2653 H2660 0.961 . S
C2653 H2661 0.960 . S
C2654 C2652 1.381 . S
C2654 C2655 1.394 . S
C2654 H2662 0.930 . S
C2655 C2654 1.394 . S
C2655 C2656 1.383 . S
C2655 H2663 0.929 . S
C2656 C2655 1.383 . S
C2656 C2657 1.377 . S
C2657 H2641 0.930 . S
C2657 C2656 1.377 . S
C2657 C2658 1.379 . S
C2658 H2642 0.931 . S
C2658 C2652 1.383 . S
C2658 C2657 1.379 . S
H2659 C2653 0.959 . S
H2660 C2653 0.961 . S
H2661 C2653 0.960 . S
H2662 C2654 0.930 . S
H2663 C2655 0.929 . S
H2664 C2672 0.929 . S
H2665 C2674 0.930 1_545 S
H2666 C2676 0.930 . S
H2667 C2679 0.929 . S
H2668 C2682 0.930 . S
H2669 C2684 0.960 . S
H2670 C2684 0.960 . S
H2671 C2684 0.960 . S
C2672 H2664 0.929 . S
C2672 C2673 1.377 . S
C2672 C2674 1.384 . S
C2673 C2672 1.377 . S
C2673 C2679 1.390 . S
C2674 H2665 0.930 1_565 S
C2674 C2672 1.384 . S
C2674 C2675 1.372 . S
C2675 C2674 1.372 . S
C2675 C2676 1.400 . S
C2675 C2680 1.490 1_565 S
C2676 H2666 0.930 . S
C2676 C2675 1.400 . S
C2676 C2679 1.386 . S
H2677 C2693 0.930 . S
H2678 C2694 0.931 . S
C2679 H2667 0.929 . S
C2679 C2673 1.390 . S
C2679 C2676 1.386 . S
C2680 C2675 1.490 1_545 S
C2680 C2682 1.395 . S
C2680 C2683 1.403 1_545 S
H2681 C2687 0.930 . S
C2682 H2668 0.930 . S
C2682 C2680 1.395 . S
C2682 C2685 1.403 . S
C2683 C2680 1.403 1_565 S
C2683 C2684 1.524 . S
C2683 C2687 1.400 1_565 S
C2684 H2669 0.960 . S
C2684 H2670 0.960 . S
C2684 H2671 0.960 . S
C2684 C2683 1.524 . S
C2685 C2682 1.403 . S
C2685 C2686 1.392 . S
C2685 C2689 1.495 . S
C2686 C2685 1.392 . S
C2686 C2687 1.385 . S
C2686 C2688 1.478 . S
C2687 H2681 0.930 . S
C2687 C2683 1.400 1_545 S
C2687 C2686 1.385 . S
C2688 C2686 1.478 . S
C2688 C2690 1.381 . S
C2688 C2694 1.383 . S
C2689 C2685 1.495 . S
C2689 H2695 0.959 . S
C2689 H2696 0.961 . S
C2689 H2697 0.960 . S
C2690 C2688 1.381 . S
C2690 C2691 1.394 . S
C2690 H2698 0.930 . S
C2691 C2690 1.394 . S
C2691 C2692 1.383 . S
C2691 H2699 0.929 . S
C2692 C2691 1.383 . S
C2692 C2693 1.377 . S
C2693 H2677 0.930 . S
C2693 C2692 1.377 . S
C2693 C2694 1.379 . S
C2694 H2678 0.931 . S
C2694 C2688 1.383 . S
C2694 C2693 1.379 . S
H2695 C2689 0.959 . S
H2696 C2689 0.961 . S
H2697 C2689 0.960 . S
H2698 C2690 0.930 . S
H2699 C2691 0.929 . S
H2700 C2708 0.929 . S
H2701 C2710 0.930 . S
H2702 C2712 0.930 . S
H2703 C2715 0.929 . S
H2704 C2718 0.930 . S
H2705 C2720 0.960 . S
H2706 C2720 0.960 . S
H2707 C2720 0.960 . S
C2708 H2700 0.929 . S
C2708 C2709 1.377 . S
C2708 C2710 1.384 1_455 S
C2709 C2708 1.377 . S
C2709 C2715 1.390 . S
C2710 H2701 0.930 . S
C2710 C2708 1.384 1_655 S
C2710 C2711 1.372 1_655 S
C2711 C2710 1.372 1_455 S
C2711 C2712 1.400 . S
C2711 C2716 1.490 1_455 S
C2712 H2702 0.930 . S
C2712 C2711 1.400 . S
C2712 C2715 1.386 . S
H2713 C2729 0.930 . S
H2714 C2730 0.931 . S
C2715 H2703 0.929 . S
C2715 C2709 1.390 . S
C2715 C2712 1.386 . S
C2716 C2711 1.490 1_655 S
C2716 C2718 1.395 . S
C2716 C2719 1.403 1_655 S
H2717 C2723 0.930 . S
C2718 H2704 0.930 . S
C2718 C2716 1.395 . S
C2718 C2721 1.403 . S
C2719 C2716 1.403 1_455 S
C2719 C2720 1.524 . S
C2719 C2723 1.400 1_455 S
C2720 H2705 0.960 . S
C2720 H2706 0.960 . S
C2720 H2707 0.960 . S
C2720 C2719 1.524 . S
C2721 C2718 1.403 . S
C2721 C2722 1.392 . S
C2721 C2725 1.495 . S
C2722 C2721 1.392 . S
C2722 C2723 1.385 . S
C2722 C2724 1.478 . S
C2723 H2717 0.930 . S
C2723 C2719 1.400 1_655 S
C2723 C2722 1.385 . S
C2724 C2722 1.478 . S
C2724 C2726 1.381 . S
C2724 C2730 1.383 . S
C2725 C2721 1.495 . S
C2725 H2731 0.959 . S
C2725 H2732 0.961 . S
C2725 H2733 0.960 . S
C2726 C2724 1.381 . S
C2726 C2727 1.394 . S
C2726 H2734 0.930 . S
C2727 C2726 1.394 . S
C2727 C2728 1.383 . S
C2727 H2735 0.929 . S
C2728 C2727 1.383 . S
C2728 C2729 1.377 . S
C2729 H2713 0.930 . S
C2729 C2728 1.377 . S
C2729 C2730 1.379 . S
C2730 H2714 0.931 . S
C2730 C2724 1.383 . S
C2730 C2729 1.379 . S
H2731 C2725 0.959 . S
H2732 C2725 0.961 . S
H2733 C2725 0.960 . S
H2734 C2726 0.930 . S
H2735 C2727 0.929 . S
H2736 C2744 0.929 . S
H2737 C2746 0.930 . S
H2738 C2748 0.930 . S
H2739 C2751 0.929 . S
H2740 C2754 0.930 . S
H2741 C2756 0.960 . S
H2742 C2756 0.960 . S
H2743 C2756 0.960 . S
C2744 H2736 0.929 . S
C2744 C2745 1.377 . S
C2744 C2746 1.384 . S
C2745 C2744 1.377 . S
C2745 C2751 1.390 . S
C2746 H2737 0.930 . S
C2746 C2744 1.384 . S
C2746 C2747 1.372 . S
C2747 C2746 1.372 . S
C2747 C2748 1.400 . S
C2747 C2752 1.490 . S
C2748 H2738 0.930 . S
C2748 C2747 1.400 . S
C2748 C2751 1.386 . S
H2749 C2765 0.930 . S
H2750 C2766 0.931 . S
C2751 H2739 0.929 . S
C2751 C2745 1.390 . S
C2751 C2748 1.386 . S
C2752 C2747 1.490 . S
C2752 C2754 1.395 . S
C2752 C2755 1.403 . S
H2753 C2759 0.930 . S
C2754 H2740 0.930 . S
C2754 C2752 1.395 . S
C2754 C2757 1.403 . S
C2755 C2752 1.403 . S
C2755 C2756 1.524 . S
C2755 C2759 1.400 . S
C2756 H2741 0.960 . S
C2756 H2742 0.960 . S
C2756 H2743 0.960 . S
C2756 C2755 1.524 . S
C2757 C2754 1.403 . S
C2757 C2758 1.392 . S
C2757 C2761 1.495 . S
C2758 C2757 1.392 . S
C2758 C2759 1.385 . S
C2758 C2760 1.478 . S
C2759 H2753 0.930 . S
C2759 C2755 1.400 . S
C2759 C2758 1.385 . S
C2760 C2758 1.478 . S
C2760 C2762 1.381 . S
C2760 C2766 1.383 . S
C2761 C2757 1.495 . S
C2761 H2767 0.959 . S
C2761 H2768 0.961 . S
C2761 H2769 0.960 . S
C2762 C2760 1.381 . S
C2762 C2763 1.394 . S
C2762 H2770 0.930 . S
C2763 C2762 1.394 . S
C2763 C2764 1.383 . S
C2763 H2771 0.929 . S
C2764 C2763 1.383 . S
C2764 C2765 1.377 . S
C2765 H2749 0.930 . S
C2765 C2764 1.377 . S
C2765 C2766 1.379 . S
C2766 H2750 0.931 . S
C2766 C2760 1.383 . S
C2766 C2765 1.379 . S
H2767 C2761 0.959 . S
H2768 C2761 0.961 . S
H2769 C2761 0.960 . S
H2770 C2762 0.930 . S
H2771 C2763 0.929 . S
H2772 C2780 0.929 . S
H2773 C2782 0.930 . S
H2774 C2784 0.930 1_565 S
H2775 C2787 0.929 . S
H2776 C2790 0.930 . S
H2777 C2792 0.960 . S
H2778 C2792 0.960 . S
H2779 C2792 0.960 . S
C2780 H2772 0.929 . S
C2780 C2781 1.377 . S
C2780 C2782 1.384 . S
C2781 C2780 1.377 . S
C2781 C2787 1.390 . S
C2782 H2773 0.930 . S
C2782 C2780 1.384 . S
C2782 C2783 1.372 . S
C2783 C2782 1.372 . S
C2783 C2784 1.400 . S
C2783 C2788 1.490 1_545 S
C2784 H2774 0.930 1_545 S
C2784 C2783 1.400 . S
C2784 C2787 1.386 . S
H2785 C2801 0.930 . S
H2786 C2802 0.931 . S
C2787 H2775 0.929 . S
C2787 C2781 1.390 . S
C2787 C2784 1.386 . S
C2788 C2783 1.490 1_565 S
C2788 C2790 1.395 1_565 S
C2788 C2791 1.403 . S
H2789 C2795 0.930 . S
C2790 H2776 0.930 . S
C2790 C2788 1.395 1_545 S
C2790 C2793 1.403 1_545 S
C2791 C2788 1.403 . S
C2791 C2792 1.524 . S
C2791 C2795 1.400 . S
C2792 H2777 0.960 . S
C2792 H2778 0.960 . S
C2792 H2779 0.960 . S
C2792 C2791 1.524 . S
C2793 C2790 1.403 1_565 S
C2793 C2794 1.392 . S
C2793 C2797 1.495 1_565 S
C2794 C2793 1.392 . S
C2794 C2795 1.385 . S
C2794 C2796 1.478 . S
C2795 H2789 0.930 . S
C2795 C2791 1.400 . S
C2795 C2794 1.385 . S
C2796 C2794 1.478 . S
C2796 C2798 1.381 . S
C2796 C2802 1.383 . S
C2797 C2793 1.495 1_545 S
C2797 H2803 0.959 . S
C2797 H2804 0.961 . S
C2797 H2805 0.960 . S
C2798 C2796 1.381 . S
C2798 C2799 1.394 . S
C2798 H2806 0.930 . S
C2799 C2798 1.394 . S
C2799 C2800 1.383 . S
C2799 H2807 0.929 . S
C2800 C2799 1.383 . S
C2800 C2801 1.377 . S
C2801 H2785 0.930 . S
C2801 C2800 1.377 . S
C2801 C2802 1.379 . S
C2802 H2786 0.931 . S
C2802 C2796 1.383 . S
C2802 C2801 1.379 . S
H2803 C2797 0.959 . S
H2804 C2797 0.961 . S
H2805 C2797 0.960 . S
H2806 C2798 0.930 . S
H2807 C2799 0.929 . S
H2808 C2816 0.929 . S
H2809 C2818 0.930 . S
H2810 C2820 0.930 . S
H2811 C2823 0.929 . S
H2812 C2826 0.930 . S
H2813 C2828 0.960 . S
H2814 C2828 0.960 . S
H2815 C2828 0.960 . S
C2816 H2808 0.929 . S
C2816 C2817 1.377 . S
C2816 C2818 1.384 . S
C2817 C2816 1.377 . S
C2817 C2823 1.390 . S
C2818 H2809 0.930 . S
C2818 C2816 1.384 . S
C2818 C2819 1.372 . S
C2819 C2818 1.372 . S
C2819 C2820 1.400 . S
C2819 C2824 1.490 . S
C2820 H2810 0.930 . S
C2820 C2819 1.400 . S
C2820 C2823 1.386 . S
H2821 C2837 0.891 1_455 S
H2822 C2838 0.931 . S
C2823 H2811 0.929 . S
C2823 C2817 1.390 . S
C2823 C2820 1.386 . S
C2824 C2819 1.490 . S
C2824 C2826 1.395 . S
C2824 C2827 1.403 . S
H2825 C2831 0.930 . S
C2826 H2812 0.930 . S
C2826 C2824 1.395 . S
C2826 C2829 1.403 . S
C2827 C2824 1.403 . S
C2827 C2828 1.524 . S
C2827 C2831 1.400 . S
C2828 H2813 0.960 . S
C2828 H2814 0.960 . S
C2828 H2815 0.960 . S
C2828 C2827 1.524 . S
C2829 C2826 1.403 . S
C2829 C2830 1.390 . S
C2829 C2833 1.497 1_455 S
C2830 C2829 1.390 . S
C2830 C2831 1.385 . S
C2830 C2832 1.478 1_455 S
C2831 H2825 0.930 . S
C2831 C2827 1.400 . S
C2831 C2830 1.385 . S
C2832 C2830 1.478 1_655 S
C2832 C2834 1.381 . S
C2832 C2838 1.383 1_655 S
C2833 C2829 1.497 1_655 S
C2833 H2839 0.959 . S
C2833 H2840 0.961 . S
C2833 H2841 0.960 . S
C2834 C2832 1.381 . S
C2834 C2835 1.394 . S
C2834 H2842 0.930 . S
C2835 C2834 1.394 . S
C2835 C2836 1.383 . S
C2835 H2843 0.929 . S
C2836 C2835 1.383 . S
C2836 C2837 1.377 . S
C2837 H2821 0.891 1_655 S
C2837 C2836 1.377 . S
C2837 C2838 1.379 1_655 S
C2838 H2822 0.931 . S
C2838 C2832 1.383 1_455 S
C2838 C2837 1.379 1_455 S
H2839 C2833 0.959 . S
H2840 C2833 0.961 . S
H2841 C2833 0.960 . S
H2842 C2834 0.930 . S
H2843 C2835 0.929 . S
H2844 C2852 0.929 . S
H2845 C2854 0.930 . S
H2846 C2856 0.930 . S
H2847 C2859 0.929 . S
H2848 C2862 0.930 . S
H2849 C2864 0.960 . S
H2850 C2864 0.960 . S
H2851 C2864 0.960 . S
C2852 H2844 0.929 . S
C2852 C2853 1.377 . S
C2852 C2854 1.384 . S
C2853 C2852 1.377 . S
C2853 C2859 1.390 . S
C2854 H2845 0.930 . S
C2854 C2852 1.384 . S
C2854 C2855 1.372 . S
C2855 C2854 1.372 . S
C2855 C2856 1.400 . S
C2855 C2860 1.490 . S
C2856 H2846 0.930 . S
C2856 C2855 1.400 . S
C2856 C2859 1.386 . S
H2857 C2873 0.930 . S
H2858 C2874 0.931 . S
C2859 H2847 0.929 . S
C2859 C2853 1.390 . S
C2859 C2856 1.386 . S
C2860 C2855 1.490 . S
C2860 C2862 1.395 . S
C2860 C2863 1.403 . S
H2861 C2867 0.930 . S
C2862 H2848 0.930 . S
C2862 C2860 1.395 . S
C2862 C2865 1.403 1_655 S
C2863 C2860 1.403 . S
C2863 C2864 1.524 . S
C2863 C2867 1.400 1_655 S
C2864 H2849 0.960 . S
C2864 H2850 0.960 . S
C2864 H2851 0.960 . S
C2864 C2863 1.524 . S
C2865 C2862 1.403 1_455 S
C2865 C2866 1.392 . S
C2865 C2869 1.495 . S
C2866 C2865 1.392 . S
C2866 C2867 1.385 . S
C2866 C2868 1.478 . S
C2867 H2861 0.930 . S
C2867 C2863 1.400 1_455 S
C2867 C2866 1.385 . S
C2868 C2866 1.478 . S
C2868 C2870 1.381 . S
C2868 C2874 1.383 . S
C2869 C2865 1.495 . S
C2869 H2875 0.959 . S
C2869 H2876 0.961 . S
C2869 H2877 0.960 . S
C2870 C2868 1.381 . S
C2870 C2871 1.394 . S
C2870 H2878 0.930 . S
C2871 C2870 1.394 . S
C2871 C2872 1.383 . S
C2871 H2879 0.929 . S
C2872 C2871 1.383 . S
C2872 C2873 1.377 . S
C2873 H2857 0.930 . S
C2873 C2872 1.377 . S
C2873 C2874 1.379 . S
C2874 H2858 0.931 . S
C2874 C2868 1.383 . S
C2874 C2873 1.379 . S
H2875 C2869 0.959 . S
H2876 C2869 0.961 . S
H2877 C2869 0.960 . S
H2878 C2870 0.930 . S
H2879 C2871 0.929 . S
H2880 C2888 0.929 . S
H2881 C2890 0.930 . S
H2882 C2892 0.930 . S
H2883 C2895 0.929 . S
H2884 C2898 0.930 . S
H2885 C2900 0.960 . S
H2886 C2900 0.960 . S
H2887 C2900 0.960 . S
C2888 H2880 0.929 . S
C2888 C2889 1.377 . S
C2888 C2890 1.384 . S
C2889 C2888 1.377 . S
C2889 C2895 1.390 . S
C2890 H2881 0.930 . S
C2890 C2888 1.384 . S
C2890 C2891 1.372 . S
C2891 C2890 1.372 . S
C2891 C2892 1.400 . S
C2891 C2896 1.490 . S
C2892 H2882 0.930 . S
C2892 C2891 1.400 . S
C2892 C2895 1.386 . S
H2893 C2909 0.930 . S
H2894 C2910 0.931 . S
C2895 H2883 0.929 . S
C2895 C2889 1.390 . S
C2895 C2892 1.386 . S
C2896 C2891 1.490 . S
C2896 C2898 1.395 . S
C2896 C2899 1.403 . S
H2897 C2903 0.930 . S
C2898 H2884 0.930 . S
C2898 C2896 1.395 . S
C2898 C2901 1.403 . S
C2899 C2896 1.403 . S
C2899 C2900 1.524 . S
C2899 C2903 1.400 . S
C2900 H2885 0.960 . S
C2900 H2886 0.960 . S
C2900 H2887 0.960 . S
C2900 C2899 1.524 . S
C2901 C2898 1.403 . S
C2901 C2902 1.392 . S
C2901 C2905 1.495 . S
C2902 C2901 1.392 . S
C2902 C2903 1.385 . S
C2902 C2904 1.478 . S
C2903 H2897 0.930 . S
C2903 C2899 1.400 . S
C2903 C2902 1.385 . S
C2904 C2902 1.478 . S
C2904 C2906 1.381 . S
C2904 C2910 1.383 . S
C2905 C2901 1.495 . S
C2905 H2911 0.959 . S
C2905 H2912 0.961 . S
C2905 H2913 0.960 . S
C2906 C2904 1.381 . S
C2906 C2907 1.394 . S
C2906 H2914 0.930 . S
C2907 C2906 1.394 . S
C2907 C2908 1.383 . S
C2907 H2915 0.929 . S
C2908 C2907 1.383 . S
C2908 C2909 1.377 . S
C2909 H2893 0.930 . S
C2909 C2908 1.377 . S
C2909 C2910 1.379 . S
C2910 H2894 0.931 . S
C2910 C2904 1.383 . S
C2910 C2909 1.379 . S
H2911 C2905 0.959 . S
H2912 C2905 0.961 . S
H2913 C2905 0.960 . S
H2914 C2906 0.930 . S
H2915 C2907 0.929 . S
H2916 C2924 0.929 . S
H2917 C2926 0.930 . S
H2918 C2928 0.930 . S
H2919 C2931 0.929 . S
H2920 C2934 0.930 . S
H2921 C2936 0.960 . S
H2922 C2936 0.960 . S
H2923 C2936 0.960 . S
C2924 H2916 0.929 . S
C2924 C2925 1.377 . S
C2924 C2926 1.384 . S
C2925 C2924 1.377 . S
C2925 C2931 1.390 . S
C2926 H2917 0.930 . S
C2926 C2924 1.384 . S
C2926 C2927 1.372 . S
C2927 C2926 1.372 . S
C2927 C2928 1.400 . S
C2927 C2932 1.490 . S
C2928 H2918 0.930 . S
C2928 C2927 1.400 . S
C2928 C2931 1.386 . S
H2929 C2945 0.930 . S
H2930 C2946 0.931 . S
C2931 H2919 0.929 . S
C2931 C2925 1.390 . S
C2931 C2928 1.386 . S
C2932 C2927 1.490 . S
C2932 C2934 1.395 . S
C2932 C2935 1.403 . S
H2933 C2939 0.930 . S
C2934 H2920 0.930 . S
C2934 C2932 1.395 . S
C2934 C2937 1.403 1_565 S
C2935 C2932 1.403 . S
C2935 C2936 1.524 . S
C2935 C2939 1.400 1_565 S
C2936 H2921 0.960 . S
C2936 H2922 0.960 . S
C2936 H2923 0.960 . S
C2936 C2935 1.524 . S
C2937 C2934 1.403 1_545 S
C2937 C2938 1.392 . S
C2937 C2941 1.495 . S
C2938 C2937 1.392 . S
C2938 C2939 1.385 . S
C2938 C2940 1.478 . S
C2939 H2933 0.930 . S
C2939 C2935 1.400 1_545 S
C2939 C2938 1.385 . S
C2940 C2938 1.478 . S
C2940 C2942 1.381 . S
C2940 C2946 1.383 . S
C2941 C2937 1.495 . S
C2941 H2947 0.959 . S
C2941 H2948 0.961 . S
C2941 H2949 0.960 . S
C2942 C2940 1.381 . S
C2942 C2943 1.394 . S
C2942 H2950 0.930 . S
C2943 C2942 1.394 . S
C2943 C2944 1.383 . S
C2943 H2951 0.929 . S
C2944 C2943 1.383 . S
C2944 C2945 1.377 . S
C2945 H2929 0.930 . S
C2945 C2944 1.377 . S
C2945 C2946 1.379 . S
C2946 H2930 0.931 . S
C2946 C2940 1.383 . S
C2946 C2945 1.379 . S
H2947 C2941 0.959 . S
H2948 C2941 0.961 . S
H2949 C2941 0.960 . S
H2950 C2942 0.930 . S
H2951 C2943 0.929 . S
H2952 C2960 0.929 . S
H2953 C2962 0.930 . S
H2954 C2964 0.930 . S
H2955 C2967 0.929 . S
H2956 C2970 0.930 . S
H2957 C2972 0.960 . S
H2958 C2972 0.960 . S
H2959 C2972 0.960 . S
C2960 H2952 0.929 . S
C2960 C2961 1.377 . S
C2960 C2962 1.384 . S
C2961 C2960 1.377 . S
C2961 C2967 1.390 . S
C2962 H2953 0.930 . S
C2962 C2960 1.384 . S
C2962 C2963 1.372 . S
C2963 C2962 1.372 . S
C2963 C2964 1.400 . S
C2963 C2968 1.490 . S
C2964 H2954 0.930 . S
C2964 C2963 1.400 . S
C2964 C2967 1.386 . S
H2965 C2981 0.930 . S
H2966 C2982 0.931 . S
C2967 H2955 0.929 . S
C2967 C2961 1.390 . S
C2967 C2964 1.386 . S
C2968 C2963 1.490 . S
C2968 C2970 1.395 . S
C2968 C2971 1.403 . S
H2969 C2975 0.930 . S
C2970 H2956 0.930 . S
C2970 C2968 1.395 . S
C2970 C2973 1.403 1_565 S
C2971 C2968 1.403 . S
C2971 C2972 1.524 . S
C2971 C2975 1.400 1_565 S
C2972 H2957 0.960 . S
C2972 H2958 0.960 . S
C2972 H2959 0.960 . S
C2972 C2971 1.524 . S
C2973 C2970 1.403 1_545 S
C2973 C2974 1.392 . S
C2973 C2977 1.495 . S
C2974 C2973 1.392 . S
C2974 C2975 1.385 . S
C2974 C2976 1.478 . S
C2975 H2969 0.930 . S
C2975 C2971 1.400 1_545 S
C2975 C2974 1.385 . S
C2976 C2974 1.478 . S
C2976 C2978 1.381 . S
C2976 C2982 1.383 . S
C2977 C2973 1.495 . S
C2977 H2983 0.959 . S
C2977 H2984 0.961 . S
C2977 H2985 0.960 . S
C2978 C2976 1.381 . S
C2978 C2979 1.394 . S
C2978 H2986 0.930 . S
C2979 C2978 1.394 . S
C2979 C2980 1.383 . S
C2979 H2987 0.929 . S
C2980 C2979 1.383 . S
C2980 C2981 1.377 . S
C2981 H2965 0.930 . S
C2981 C2980 1.377 . S
C2981 C2982 1.379 . S
C2982 H2966 0.931 . S
C2982 C2976 1.383 . S
C2982 C2981 1.379 . S
H2983 C2977 0.959 . S
H2984 C2977 0.961 . S
H2985 C2977 0.960 . S
H2986 C2978 0.930 . S
H2987 C2979 0.929 . S
H2988 C2996 0.929 . S
H2989 C2998 0.930 . S
H2990 C3000 0.930 . S
H2991 C3003 0.929 . S
H2992 C3006 0.930 . S
H2993 C3008 0.960 . S
H2994 C3008 0.960 . S
H2995 C3008 0.960 . S
C2996 H2988 0.929 . S
C2996 C2997 1.377 . S
C2996 C2998 1.384 . S
C2997 C2996 1.377 . S
C2997 C3003 1.390 . S
C2998 H2989 0.930 . S
C2998 C2996 1.384 . S
C2998 C2999 1.372 . S
C2999 C2998 1.372 . S
C2999 C3000 1.400 . S
C2999 C3004 1.490 . S
C3000 H2990 0.930 . S
C3000 C2999 1.400 . S
C3000 C3003 1.386 . S
H3001 C3017 0.930 . S
H3002 C3018 0.931 . S
C3003 H2991 0.929 . S
C3003 C2997 1.390 . S
C3003 C3000 1.386 . S
C3004 C2999 1.490 . S
C3004 C3006 1.395 . S
C3004 C3007 1.403 . S
H3005 C3011 0.930 . S
C3006 H2992 0.930 . S
C3006 C3004 1.395 . S
C3006 C3009 1.403 1_655 S
C3007 C3004 1.403 . S
C3007 C3008 1.524 . S
C3007 C3011 1.400 1_655 S
C3008 H2993 0.960 . S
C3008 H2994 0.960 . S
C3008 H2995 0.960 . S
C3008 C3007 1.524 . S
C3009 C3006 1.403 1_455 S
C3009 C3010 1.392 . S
C3009 C3013 1.495 . S
C3010 C3009 1.392 . S
C3010 C3011 1.385 . S
C3010 C3012 1.478 . S
C3011 H3005 0.930 . S
C3011 C3007 1.400 1_455 S
C3011 C3010 1.385 . S
C3012 C3010 1.478 . S
C3012 C3014 1.381 . S
C3012 C3018 1.383 . S
C3013 C3009 1.495 . S
C3013 H3019 0.959 . S
C3013 H3020 0.961 . S
C3013 H3021 0.960 . S
C3014 C3012 1.381 . S
C3014 C3015 1.394 . S
C3014 H3022 0.930 . S
C3015 C3014 1.394 . S
C3015 C3016 1.383 . S
C3015 H3023 0.929 . S
C3016 C3015 1.383 . S
C3016 C3017 1.377 . S
C3017 H3001 0.930 . S
C3017 C3016 1.377 . S
C3017 C3018 1.379 . S
C3018 H3002 0.931 . S
C3018 C3012 1.383 . S
C3018 C3017 1.379 . S
H3019 C3013 0.959 . S
H3020 C3013 0.961 . S
H3021 C3013 0.960 . S
H3022 C3014 0.930 . S
H3023 C3015 0.929 . S
H3024 C3032 0.929 . S
H3025 C3034 0.930 . S
H3026 C3036 0.930 . S
H3027 C3039 0.929 . S
H3028 C3042 0.930 . S
H3029 C3044 0.960 . S
H3030 C3044 0.960 . S
H3031 C3044 0.960 . S
C3032 H3024 0.929 . S
C3032 C3033 1.377 . S
C3032 C3034 1.384 . S
C3033 C3032 1.377 . S
C3033 C3039 1.390 . S
C3034 H3025 0.930 . S
C3034 C3032 1.384 . S
C3034 C3035 1.372 . S
C3035 C3034 1.372 . S
C3035 C3036 1.400 . S
C3035 C3040 1.490 . S
C3036 H3026 0.930 . S
C3036 C3035 1.400 . S
C3036 C3039 1.386 . S
H3037 C3053 0.930 . S
H3038 C3054 0.931 . S
C3039 H3027 0.929 . S
C3039 C3033 1.390 . S
C3039 C3036 1.386 . S
C3040 C3035 1.490 . S
C3040 C3042 1.395 . S
C3040 C3043 1.403 . S
H3041 C3047 0.930 . S
C3042 H3028 0.930 . S
C3042 C3040 1.395 . S
C3042 C3045 1.403 . S
C3043 C3040 1.403 . S
C3043 C3044 1.524 . S
C3043 C3047 1.400 . S
C3044 H3029 0.960 . S
C3044 H3030 0.960 . S
C3044 H3031 0.960 . S
C3044 C3043 1.524 . S
C3045 C3042 1.403 . S
C3045 C3046 1.392 . S
C3045 C3049 1.495 . S
C3046 C3045 1.392 . S
C3046 C3047 1.385 . S
C3046 C3048 1.478 . S
C3047 H3041 0.930 . S
C3047 C3043 1.400 . S
C3047 C3046 1.385 . S
C3048 C3046 1.478 . S
C3048 C3050 1.381 . S
C3048 C3054 1.383 . S
C3049 C3045 1.495 . S
C3049 H3055 0.959 . S
C3049 H3056 0.961 . S
C3049 H3057 0.960 . S
C3050 C3048 1.381 . S
C3050 C3051 1.394 . S
C3050 H3058 0.930 . S
C3051 C3050 1.394 . S
C3051 C3052 1.383 . S
C3051 H3059 0.929 . S
C3052 C3051 1.383 . S
C3052 C3053 1.377 . S
C3053 H3037 0.930 . S
C3053 C3052 1.377 . S
C3053 C3054 1.379 . S
C3054 H3038 0.931 . S
C3054 C3048 1.383 . S
C3054 C3053 1.379 . S
H3055 C3049 0.959 . S
H3056 C3049 0.961 . S
H3057 C3049 0.960 . S
H3058 C3050 0.930 . S
H3059 C3051 0.929 . S
C477 C5 1.725 . S
C496 C237 1.735 . S
C513 C16 1.752 . S
C532 C252 1.748 . S
C549 C263 1.725 . S
C568 C29 1.751 . S
C585 C42 1.751 . S
C604 C432 1.736 . S
C621 C447 1.751 . S
C640 C55 1.743 . S
C657 C70 1.722 . S
C676 C458 1.708 . S
C693 C317 1.728 . S
C712 C81 1.733 . S
C729 C96 1.751 . S
C748 C328 1.743 . S
C765 C107 1.722 . S
C784 C341 1.749 . S
C801 C120 1.728 . S
C820 C198 1.745 . S
C837 C211 1.752 . S
C856 C135 1.748 . S
C873 C146 1.725 . S
C892 C226 1.707 . S
C909 C161 1.723 . S
C928 C393 1.705 . S
C945 C172 1.751 . S
C964 C408 1.747 . S
C981 C185 1.750 . S
C1000 C419 1.733 . S
C1017 C276 1.723 . S
C1036 C354 1.747 . S
C1053 C291 1.751 . S
C1072 C367 1.743 . S
C1089 C302 1.723 . S
C1108 C382 1.706 . S
C1125 C101 1.589 . S
C1144 C3 1.587 . S
C1161 C105 1.577 . S
C1180 C18 1.525 . S
C1197 C31 1.531 . S
C1216 C79 1.585 . S
C1233 C144 1.576 . S
C1252 C44 1.541 . S
C1269 C118 1.579 . S
C1288 C57 1.521 . S
C1305 C140 1.587 . S
C1324 C68 1.591 . S
C1341 C83 1.592 . S
C1360 C14 1.585 . S
C1377 C94 1.540 . S
C1396 C27 1.577 . S
C1413 C109 1.593 . S
C1432 C10 1.587 . S
C1449 C122 1.593 . S
C1468 C75 1.585 . S
C1485 C40 1.586 . S
C1504 C133 1.556 . S
C1521 C53 1.588 . S
C1540 C148 1.586 . S
C1557 C159 1.593 . S
C1576 C257 1.591 . S
C1593 C174 1.538 . S
C1612 C261 1.566 . S
C1629 C187 1.537 . S
C1648 C235 1.567 . S
C1665 C300 1.576 . S
C1684 C200 1.548 . S
C1701 C213 1.540 . S
C1720 C274 1.562 . S
C1737 C296 1.589 . S
C1756 C224 1.590 . S
C1773 C239 1.592 . S
C1792 C170 1.589 . S
C1809 C183 1.590 . S
C1828 C250 1.508 . S
C1845 C166 1.577 . S
C1864 C265 1.591 . S
C1881 C278 1.593 . S
C1900 C231 1.587 . S
C1917 C289 1.531 . S
C1936 C196 1.592 . S
C1953 C304 1.592 . S
C1972 C209 1.592 . S
C1989 C413 1.588 . S
C2008 C315 1.586 . S
C2025 C330 1.531 . S
C2044 C417 1.586 . S
C2061 C343 1.537 . S
C2080 C391 1.567 . S
C2097 C456 1.579 . S
C2116 C356 1.515 . S
C2133 C430 1.575 . S
C2152 C369 1.549 . S
C2169 C452 1.589 . S
C2188 C380 1.586 . S
C2205 C326 1.588 . S
C2224 C395 1.591 . S
C2241 C339 1.589 . S
C2260 C406 1.524 . S
C2277 C322 1.577 . S
C2296 C421 1.592 . S
C2313 C434 1.592 . S
C2332 C387 1.560 . S
C2349 C352 1.590 . S
C2368 C445 1.507 . S
C2385 C460 1.592 . S
C2404 C365 1.583 . S
C2421 C1 1.736 . S
C2440 C378 1.722 . S
C2457 C361 1.689 . S
C2476 C23 1.667 . S
C2493 C36 1.689 . S
C2512 C374 1.665 . S
C2529 C49 1.680 . S
C2548 C179 1.687 . S
C2565 C192 1.680 . S
C2584 C62 1.692 . S
C2601 C66 1.735 . S
C2620 C157 1.724 . S
C2637 C309 1.740 . S
C2656 C88 1.735 . S
C2673 C92 1.689 . S
C2692 C283 1.733 . S
C2709 C114 1.740 . S
C2728 C287 1.697 . S
C2745 C127 1.736 . S
C2764 C404 1.657 . S
C2781 C131 1.681 . S
C2800 C426 1.737 . S
C2817 C400 1.736 . S
C2836 C153 1.725 . S
C2853 C205 1.683 . S
C2872 C335 1.705 . S
C2889 C348 1.690 . S
C2908 C218 1.675 . S
C2925 C313 1.738 . S
C2944 C222 1.728 . S
C2961 C465 1.738 . S
C2980 C244 1.746 . S
C2997 C248 1.689 . S
C3016 C439 1.745 . S
C3033 C270 1.740 . S
C3052 C443 1.702 . S
