# Generated by pormake.
# Topology fnk, (5)-cn, num edge types: 1
# Building blocks:
#     Node 0, Type 0, BuildingBlock: XOMCOT_clean_sbu_1, # of connection points: 5
#     Node 1, Type 0, BuildingBlock: XOMCOT_clean_sbu_1, # of connection points: 5
#     Node 2, Type 0, BuildingBlock: XOMCOT_clean_sbu_1, # of connection points: 5
#     Node 3, Type 0, BuildingBlock: XOMCOT_clean_sbu_1, # of connection points: 5
#     Node 4, Type 0, BuildingBlock: XOMCOT_clean_sbu_1, # of connection points: 5
#     Node 5, Type 0, BuildingBlock: XOMCOT_clean_sbu_1, # of connection points: 5
#     Node 6, Type 0, BuildingBlock: XOMCOT_clean_sbu_1, # of connection points: 5
#     Node 7, Type 0, BuildingBlock: XOMCOT_clean_sbu_1, # of connection points: 5
#     Node 8, Type 0, BuildingBlock: XOMCOT_clean_sbu_1, # of connection points: 5
#     Node 9, Type 0, BuildingBlock: XOMCOT_clean_sbu_1, # of connection points: 5
#     Node 10, Type 0, BuildingBlock: XOMCOT_clean_sbu_1, # of connection points: 5
#     Node 11, Type 0, BuildingBlock: XOMCOT_clean_sbu_1, # of connection points: 5
#     Node 12, Type 0, BuildingBlock: XOMCOT_clean_sbu_1, # of connection points: 5
#     Node 13, Type 0, BuildingBlock: XOMCOT_clean_sbu_1, # of connection points: 5
#     Node 14, Type 0, BuildingBlock: XOMCOT_clean_sbu_1, # of connection points: 5
#     Node 15, Type 0, BuildingBlock: XOMCOT_clean_sbu_1, # of connection points: 5
#     Edge 16, Type (0, 0), BuildingBlock: AJUNOK_clean_linker_0, # of connection points: 2
#     Edge 17, Type (0, 0), BuildingBlock: AJUNOK_clean_linker_0, # of connection points: 2
#     Edge 18, Type (0, 0), BuildingBlock: AJUNOK_clean_linker_0, # of connection points: 2
#     Edge 19, Type (0, 0), BuildingBlock: AJUNOK_clean_linker_0, # of connection points: 2
#     Edge 20, Type (0, 0), BuildingBlock: AJUNOK_clean_linker_0, # of connection points: 2
#     Edge 21, Type (0, 0), BuildingBlock: AJUNOK_clean_linker_0, # of connection points: 2
#     Edge 22, Type (0, 0), BuildingBlock: AJUNOK_clean_linker_0, # of connection points: 2
#     Edge 23, Type (0, 0), BuildingBlock: AJUNOK_clean_linker_0, # of connection points: 2
#     Edge 24, Type (0, 0), BuildingBlock: AJUNOK_clean_linker_0, # of connection points: 2
#     Edge 25, Type (0, 0), BuildingBlock: AJUNOK_clean_linker_0, # of connection points: 2
#     Edge 26, Type (0, 0), BuildingBlock: AJUNOK_clean_linker_0, # of connection points: 2
#     Edge 27, Type (0, 0), BuildingBlock: AJUNOK_clean_linker_0, # of connection points: 2
#     Edge 28, Type (0, 0), BuildingBlock: AJUNOK_clean_linker_0, # of connection points: 2
#     Edge 29, Type (0, 0), BuildingBlock: AJUNOK_clean_linker_0, # of connection points: 2
#     Edge 30, Type (0, 0), BuildingBlock: AJUNOK_clean_linker_0, # of connection points: 2
#     Edge 31, Type (0, 0), BuildingBlock: AJUNOK_clean_linker_0, # of connection points: 2
#     Edge 32, Type (0, 0), BuildingBlock: AJUNOK_clean_linker_0, # of connection points: 2
#     Edge 33, Type (0, 0), BuildingBlock: AJUNOK_clean_linker_0, # of connection points: 2
#     Edge 34, Type (0, 0), BuildingBlock: AJUNOK_clean_linker_0, # of connection points: 2
#     Edge 35, Type (0, 0), BuildingBlock: AJUNOK_clean_linker_0, # of connection points: 2
#     Edge 36, Type (0, 0), BuildingBlock: AJUNOK_clean_linker_0, # of connection points: 2
#     Edge 37, Type (0, 0), BuildingBlock: AJUNOK_clean_linker_0, # of connection points: 2
#     Edge 38, Type (0, 0), BuildingBlock: AJUNOK_clean_linker_0, # of connection points: 2
#     Edge 39, Type (0, 0), BuildingBlock: AJUNOK_clean_linker_0, # of connection points: 2
#     Edge 40, Type (0, 0), BuildingBlock: AJUNOK_clean_linker_0, # of connection points: 2
#     Edge 41, Type (0, 0), BuildingBlock: AJUNOK_clean_linker_0, # of connection points: 2
#     Edge 42, Type (0, 0), BuildingBlock: AJUNOK_clean_linker_0, # of connection points: 2
#     Edge 43, Type (0, 0), BuildingBlock: AJUNOK_clean_linker_0, # of connection points: 2
#     Edge 44, Type (0, 0), BuildingBlock: AJUNOK_clean_linker_0, # of connection points: 2
#     Edge 45, Type (0, 0), BuildingBlock: AJUNOK_clean_linker_0, # of connection points: 2
#     Edge 46, Type (0, 0), BuildingBlock: AJUNOK_clean_linker_0, # of connection points: 2
#     Edge 47, Type (0, 0), BuildingBlock: AJUNOK_clean_linker_0, # of connection points: 2
#     Edge 48, Type (0, 0), BuildingBlock: AJUNOK_clean_linker_0, # of connection points: 2
#     Edge 49, Type (0, 0), BuildingBlock: AJUNOK_clean_linker_0, # of connection points: 2
#     Edge 50, Type (0, 0), BuildingBlock: AJUNOK_clean_linker_0, # of connection points: 2
#     Edge 51, Type (0, 0), BuildingBlock: AJUNOK_clean_linker_0, # of connection points: 2
#     Edge 52, Type (0, 0), BuildingBlock: AJUNOK_clean_linker_0, # of connection points: 2
#     Edge 53, Type (0, 0), BuildingBlock: AJUNOK_clean_linker_0, # of connection points: 2
#     Edge 54, Type (0, 0), BuildingBlock: AJUNOK_clean_linker_0, # of connection points: 2
#     Edge 55, Type (0, 0), BuildingBlock: AJUNOK_clean_linker_0, # of connection points: 2
# Relax obj value: 0.633
# Max RMSD: 0.261
# Mean RMSD: 0.261
data_MOF--net-fnk--node1-XOMCOT_clean_sbu_1--edge1-AJUNOK_clean_linker_0
_symmetry_space_group_name_H-M    P1
_symmetry_Int_Tables_number       1
_symmetry_cell_setting            triclinic
loop_
_symmetry_equiv_pos_as_xyz
'x, y, z'
_cell_length_a     35.259784
_cell_length_b     35.291887
_cell_length_c     35.31276
_cell_angle_alpha  90.082992
_cell_angle_beta   90.09852
_cell_angle_gamma 89.99095
loop_
_atom_site_label
_atom_site_type_symbol
_atom_site_fract_x
_atom_site_fract_y
_atom_site_fract_z
_atom_type_partial_charge
C0 C 0.23502 0.36202 0.1639 0.0
C1 C 0.2624 0.3402 0.18127 0.0
N2 N 0.24516 0.315 0.2041 0.0
N3 N 0.20029 0.35087 0.17548 0.0
C4 C 0.20764 0.32186 0.19976 0.0
H5 H 0.24037 0.38618 0.14591 0.0
Co6 Co 0.15351 0.37744 0.16604 0.0
C7 C 0.18935 0.42277 0.23045 0.0
O8 O 0.2045 0.39236 0.24555 0.0
N9 N 0.10785 0.40608 0.15921 0.0
C10 C 0.0635 0.44717 0.17789 0.0
C11 C 0.09158 0.42334 0.18938 0.0
C12 C 0.08851 0.42061 0.12904 0.0
N13 N 0.06151 0.44579 0.14008 0.0
O14 O 0.17255 0.39842 0.11912 0.0
H15 H 0.10106 0.4212 0.21829 0.0
H16 H 0.09518 0.41446 0.0998 0.0
O17 O 0.17087 0.41979 0.19923 0.0
C18 C 0.17129 0.37039 0.09568 0.0
O19 O 0.1702 0.33578 0.10893 0.0
N20 N 0.13014 0.35013 0.20381 0.0
C21 C 0.07517 0.30203 0.23126 0.0
C22 C 0.09132 0.32976 0.25516 0.0
C23 C 0.11983 0.35361 0.24086 0.0
C24 C 0.11677 0.32109 0.18213 0.0
C25 C 0.09012 0.29615 0.19553 0.0
H26 H 0.13033 0.37675 0.25797 0.0
H27 H 0.1243 0.31903 0.15284 0.0
H28 H 0.18616 0.30729 0.21594 0.0
H29 H 0.29269 0.34474 0.17946 0.0
H30 H 0.04647 0.46529 0.19589 0.0
H31 H 0.07955 0.33524 0.28295 0.0
H32 H 0.07788 0.27544 0.17636 0.0
C33 C 0.66568 0.23033 0.14943 0.0
C34 C 0.68802 0.25551 0.16916 0.0
N35 N 0.69249 0.24315 0.20511 0.0
N36 N 0.65572 0.20118 0.17194 0.0
C37 C 0.67305 0.20984 0.20547 0.0
H38 H 0.65774 0.23342 0.12006 0.0
Co39 Co 0.62413 0.15813 0.15693 0.0
C40 C 0.57636 0.18675 0.22304 0.0
O41 O 0.60692 0.18668 0.24408 0.0
N42 N 0.5907 0.11836 0.1418 0.0
C43 C 0.5343 0.09695 0.12293 0.0
C44 C 0.55588 0.12841 0.12935 0.0
C45 C 0.58973 0.0799 0.14148 0.0
N46 N 0.55537 0.06611 0.13046 0.0
O47 O 0.61396 0.18053 0.10689 0.0
H48 H 0.54599 0.15729 0.12672 0.0
H49 H 0.61311 0.06247 0.15056 0.0
O50 O 0.57928 0.17894 0.18738 0.0
C51 C 0.63995 0.16202 0.0885 0.0
O52 O 0.66368 0.14162 0.10863 0.0
N53 N 0.6421 0.12979 0.19751 0.0
C54 C 0.67646 0.06277 0.21833 0.0
C55 C 0.698 0.09146 0.20255 0.0
C56 C 0.68009 0.12447 0.19162 0.0
C57 C 0.62169 0.10422 0.21801 0.0
C58 C 0.63849 0.06976 0.22834 0.0
H59 H 0.69598 0.14347 0.17376 0.0
H60 H 0.59137 0.10757 0.22112 0.0
H61 H 0.67236 0.19129 0.22962 0.0
H62 H 0.70032 0.2804 0.15661 0.0
H63 H 0.5044 0.09714 0.11603 0.0
H64 H 0.72728 0.08671 0.19451 0.0
H65 H 0.62125 0.04763 0.24074 0.0
C66 C 0.82439 0.6936 0.1577 0.0
C67 C 0.79746 0.71529 0.17581 0.0
N68 N 0.77709 0.69274 0.19877 0.0
N69 N 0.82125 0.65716 0.16887 0.0
C70 C 0.79115 0.65748 0.193 0.0
H71 H 0.84707 0.70465 0.14042 0.0
Co72 Co 0.85947 0.61918 0.1616 0.0
C73 C 0.82538 0.57509 0.22903 0.0
O74 O 0.83491 0.60224 0.25222 0.0
N75 N 0.89615 0.57902 0.15554 0.0
C76 C 0.93215 0.5305 0.17403 0.0
C77 C 0.90626 0.55695 0.18521 0.0
C78 C 0.91759 0.56554 0.1264 0.0
N79 N 0.93932 0.5357 0.13715 0.0
O80 O 0.83805 0.6063 0.11249 0.0
H81 H 0.89701 0.56091 0.21403 0.0
H82 H 0.91812 0.57778 0.09834 0.0
O83 O 0.83005 0.57999 0.19303 0.0
C84 C 0.85798 0.63008 0.09288 0.0
O85 O 0.88306 0.65088 0.11095 0.0
N86 N 0.88796 0.64052 0.20203 0.0
C87 C 0.93881 0.68703 0.2409 0.0
C88 C 0.90092 0.68537 0.25204 0.0
C89 C 0.87567 0.66302 0.2313 0.0
C90 C 0.9246 0.64447 0.19 0.0
C91 C 0.95047 0.6662 0.20949 0.0
H92 H 0.84631 0.66578 0.23814 0.0
H93 H 0.93423 0.63279 0.16356 0.0
H94 H 0.78175 0.63315 0.20884 0.0
H95 H 0.7955 0.7459 0.17498 0.0
H96 H 0.94635 0.51018 0.19213 0.0
H97 H 0.89084 0.70164 0.27605 0.0
H98 H 0.97964 0.66632 0.19988 0.0
C99 C 0.30628 0.83802 0.17118 0.0
C100 C 0.27961 0.8135 0.1855 0.0
N101 N 0.29773 0.78349 0.20044 0.0
N102 N 0.34135 0.82407 0.17768 0.0
C103 C 0.33506 0.78997 0.19425 0.0
H104 H 0.3005 0.86626 0.16084 0.0
Co105 Co 0.38521 0.85527 0.17696 0.0
C106 C 0.42252 0.80358 0.23658 0.0
O107 O 0.39384 0.80297 0.25993 0.0
N108 N 0.43077 0.88567 0.17722 0.0
C109 C 0.4791 0.91631 0.20379 0.0
C110 C 0.45082 0.89063 0.20946 0.0
C111 C 0.44836 0.90873 0.1519 0.0
N112 N 0.47792 0.92824 0.16757 0.0
O113 O 0.39594 0.83793 0.12632 0.0
H114 H 0.44367 0.87846 0.23656 0.0
H115 H 0.43886 0.91165 0.12303 0.0
O116 O 0.41839 0.81708 0.203 0.0
C117 C 0.37737 0.86428 0.10903 0.0
O118 O 0.36217 0.89132 0.12958 0.0
N119 N 0.3678 0.87969 0.22127 0.0
C120 C 0.31946 0.9285 0.25993 0.0
C121 C 0.32002 0.89004 0.26898 0.0
C122 C 0.34386 0.86581 0.24859 0.0
C123 C 0.36738 0.91761 0.21344 0.0
C124 C 0.34451 0.9423 0.23287 0.0
H125 H 0.33894 0.83609 0.25212 0.0
H126 H 0.38192 0.92931 0.18939 0.0
H127 H 0.35726 0.77227 0.20567 0.0
H128 H 0.24947 0.81891 0.18781 0.0
H129 H 0.49744 0.92713 0.22587 0.0
H130 H 0.30092 0.87865 0.29008 0.0
H131 H 0.34574 0.97216 0.22574 0.0
C132 C 0.24134 0.63427 0.35491 0.0
C133 C 0.2637 0.65514 0.33093 0.0
N134 N 0.24184 0.68134 0.31395 0.0
N135 N 0.20532 0.64711 0.35342 0.0
C136 C 0.20668 0.6764 0.32847 0.0
H137 H 0.25052 0.6101 0.37133 0.0
Co138 Co 0.16483 0.62111 0.37782 0.0
C139 C 0.15851 0.55277 0.32822 0.0
O140 O 0.12186 0.5589 0.32786 0.0
N141 N 0.12517 0.59177 0.40165 0.0
C142 C 0.10215 0.54362 0.43533 0.0
C143 C 0.13354 0.56467 0.42728 0.0
C144 C 0.08781 0.58536 0.39383 0.0
N145 N 0.0732 0.55554 0.41352 0.0
O146 O 0.19552 0.61351 0.42266 0.0
H147 H 0.16164 0.55752 0.43695 0.0
H148 H 0.07312 0.59938 0.37096 0.0
O149 O 0.18017 0.57421 0.34844 0.0
C150 C 0.19334 0.64564 0.44013 0.0
O151 O 0.18861 0.67613 0.41942 0.0
N152 N 0.13235 0.63844 0.34181 0.0
C153 C 0.07699 0.68286 0.30967 0.0
C154 C 0.09777 0.65733 0.28704 0.0
C155 C 0.12659 0.63569 0.30374 0.0
C156 C 0.11463 0.66553 0.36281 0.0
C157 C 0.08693 0.68813 0.34735 0.0
H158 H 0.14359 0.61684 0.2866 0.0
H159 H 0.12124 0.6686 0.39254 0.0
H160 H 0.18217 0.69257 0.31957 0.0
H161 H 0.29361 0.65076 0.32559 0.0
H162 H 0.10191 0.51939 0.45401 0.0
H163 H 0.09064 0.65298 0.2575 0.0
H164 H 0.07161 0.70777 0.36534 0.0
C165 C 0.34494 0.22864 0.38229 0.0
C166 C 0.32291 0.25167 0.35999 0.0
N167 N 0.32076 0.23623 0.32535 0.0
N168 N 0.35618 0.19762 0.36254 0.0
C169 C 0.34138 0.20389 0.32739 0.0
H170 H 0.35232 0.23512 0.41123 0.0
Co171 Co 0.38674 0.15574 0.38125 0.0
C172 C 0.45033 0.1532 0.32367 0.0
O173 O 0.44652 0.11629 0.32333 0.0
N174 N 0.41859 0.11473 0.40014 0.0
C175 C 0.46453 0.08671 0.43364 0.0
C176 C 0.44421 0.11916 0.42846 0.0
C177 C 0.4247 0.07833 0.38856 0.0
N178 N 0.45321 0.06097 0.40799 0.0
O179 O 0.40085 0.18421 0.42597 0.0
H180 H 0.45 0.14489 0.44389 0.0
H181 H 0.41059 0.06594 0.36434 0.0
O182 O 0.42979 0.17316 0.34653 0.0
C183 C 0.37402 0.17501 0.44919 0.0
O184 O 0.34036 0.16744 0.43531 0.0
N185 N 0.36485 0.12404 0.34589 0.0
C186 C 0.31787 0.06783 0.31815 0.0
C187 C 0.34329 0.08657 0.29376 0.0
C188 C 0.36638 0.11556 0.30821 0.0
C189 C 0.33878 0.10717 0.36871 0.0
C190 C 0.31443 0.07989 0.35535 0.0
H191 H 0.38537 0.13047 0.28947 0.0
H192 H 0.33829 0.11315 0.39845 0.0
H193 H 0.34535 0.18536 0.30349 0.0
H194 H 0.31016 0.2783 0.36836 0.0
H195 H 0.4873 0.08318 0.4539 0.0
H196 H 0.34674 0.07756 0.26464 0.0
H197 H 0.2954 0.06589 0.37494 0.0
C198 C 0.83091 0.30452 0.36916 0.0
C199 C 0.80394 0.28284 0.35107 0.0
N200 N 0.7818 0.30559 0.32974 0.0
N201 N 0.82622 0.34122 0.35968 0.0
C202 C 0.79499 0.3411 0.33706 0.0
H203 H 0.85524 0.29339 0.38409 0.0
Co204 Co 0.86611 0.3777 0.36072 0.0
C205 C 0.83171 0.42344 0.29474 0.0
O206 O 0.84502 0.39932 0.27002 0.0
N207 N 0.90499 0.41611 0.35959 0.0
C208 C 0.94174 0.46007 0.33285 0.0
C209 C 0.91674 0.43125 0.32638 0.0
C210 C 0.92441 0.43626 0.38615 0.0
N211 N 0.94647 0.46349 0.37034 0.0
O212 O 0.85028 0.39519 0.41075 0.0
H213 H 0.90826 0.42158 0.29866 0.0
H214 H 0.92226 0.43149 0.41633 0.0
O215 O 0.83533 0.41637 0.33048 0.0
C216 C 0.86987 0.37212 0.43153 0.0
O217 O 0.89167 0.34745 0.41425 0.0
N218 N 0.88843 0.35216 0.3196 0.0
C219 C 0.93266 0.29835 0.28252 0.0
C220 C 0.89556 0.30549 0.27025 0.0
C221 C 0.87322 0.33147 0.29032 0.0
C222 C 0.92385 0.34338 0.33248 0.0
C223 C 0.94637 0.31743 0.3143 0.0
H224 H 0.84374 0.33367 0.28274 0.0
H225 H 0.9349 0.35543 0.35828 0.0
H226 H 0.78449 0.36628 0.32342 0.0
H227 H 0.80359 0.25219 0.35043 0.0
H228 H 0.95639 0.47655 0.31156 0.0
H229 H 0.88403 0.29103 0.24573 0.0
H230 H 0.97504 0.31343 0.32469 0.0
C231 C 0.70112 0.81719 0.36111 0.0
C232 C 0.72329 0.78902 0.34539 0.0
N233 N 0.70187 0.76879 0.32105 0.0
N234 N 0.66572 0.81494 0.34679 0.0
C235 C 0.66693 0.78442 0.32333 0.0
H236 H 0.71119 0.83993 0.37904 0.0
Co237 Co 0.62812 0.85339 0.34921 0.0
C238 C 0.57832 0.81305 0.29013 0.0
O239 O 0.59991 0.82383 0.26213 0.0
N240 N 0.58775 0.89059 0.34969 0.0
C241 C 0.54037 0.92408 0.32421 0.0
C242 C 0.56915 0.89923 0.31721 0.0
C243 C 0.56952 0.91172 0.37632 0.0
N244 N 0.54029 0.93189 0.36135 0.0
O245 O 0.61611 0.83805 0.40059 0.0
H246 H 0.57655 0.8889 0.28943 0.0
H247 H 0.57728 0.9124 0.40596 0.0
O248 O 0.58857 0.81996 0.32451 0.0
C249 C 0.63703 0.86167 0.41924 0.0
O250 O 0.65528 0.88784 0.40024 0.0
N251 N 0.64867 0.87521 0.30504 0.0
C252 C 0.69448 0.92052 0.25966 0.0
C253 C 0.6887 0.88249 0.25026 0.0
C254 C 0.66675 0.85987 0.27426 0.0
C255 C 0.65643 0.91176 0.31503 0.0
C256 C 0.67839 0.9348 0.29278 0.0
H257 H 0.66548 0.83024 0.26811 0.0
H258 H 0.64643 0.92363 0.34127 0.0
H259 H 0.6439 0.77614 0.30494 0.0
H260 H 0.7537 0.78617 0.34866 0.0
H261 H 0.52184 0.93676 0.30327 0.0
H262 H 0.70104 0.87047 0.22487 0.0
H263 H 0.68164 0.96419 0.30115 0.0
C264 C 0.80586 0.67942 0.86622 0.0
C265 C 0.78432 0.70723 0.84909 0.0
N266 N 0.80736 0.72989 0.82874 0.0
N267 N 0.84259 0.68421 0.85689 0.0
C268 C 0.8427 0.71618 0.8355 0.0
H269 H 0.79481 0.65486 0.88077 0.0
Co270 Co 0.88055 0.64585 0.85855 0.0
C271 C 0.92284 0.68135 0.79141 0.0
O272 O 0.89865 0.66608 0.76787 0.0
N273 N 0.92101 0.60894 0.85803 0.0
C274 C 0.96532 0.57331 0.83048 0.0
C275 C 0.93602 0.59769 0.82459 0.0
C276 C 0.94216 0.59007 0.88424 0.0
N277 N 0.96971 0.56864 0.86791 0.0
O278 O 0.89692 0.66372 0.90828 0.0
H279 H 0.92558 0.60559 0.79702 0.0
H280 H 0.93766 0.59193 0.91448 0.0
O281 O 0.91748 0.6777 0.82741 0.0
C282 C 0.87593 0.64127 0.92834 0.0
O283 O 0.85407 0.61714 0.91029 0.0
N284 N 0.85566 0.62077 0.81789 0.0
C285 C 0.80276 0.57327 0.78291 0.0
C286 C 0.8069 0.6108 0.77075 0.0
C287 C 0.8326 0.63465 0.78971 0.0
C288 C 0.85044 0.58437 0.82996 0.0
C289 C 0.82533 0.56026 0.81253 0.0
H290 H 0.83241 0.66432 0.78261 0.0
H291 H 0.86419 0.57365 0.85499 0.0
H292 H 0.86793 0.72742 0.82254 0.0
H293 H 0.75364 0.70812 0.84844 0.0
H294 H 0.98121 0.55872 0.80866 0.0
H295 H 0.78971 0.62177 0.7478 0.0
H296 H 0.82361 0.5313 0.8226 0.0
C297 C 0.29874 0.82064 0.88138 0.0
C298 C 0.27523 0.79962 0.8585 0.0
N299 N 0.2688 0.81914 0.82641 0.0
N300 N 0.30719 0.85368 0.86413 0.0
C301 C 0.28814 0.85201 0.83076 0.0
H302 H 0.30991 0.8113 0.90825 0.0
Co303 Co 0.34291 0.8903 0.87995 0.0
C304 C 0.29316 0.95824 0.84023 0.0
O305 O 0.25679 0.95995 0.84802 0.0
N306 N 0.37782 0.92786 0.89597 0.0
C307 C 0.39456 0.98334 0.92118 0.0
C308 C 0.36533 0.95855 0.91519 0.0
C309 C 0.41537 0.93467 0.89092 0.0
N310 N 0.42593 0.96885 0.90523 0.0
O311 O 0.31999 0.89333 0.92977 0.0
H312 H 0.33612 0.96347 0.92306 0.0
H313 H 0.43395 0.91648 0.87468 0.0
O314 O 0.31277 0.93163 0.85575 0.0
C315 C 0.34046 0.86981 0.94881 0.0
O316 O 0.36536 0.84929 0.93048 0.0
N317 N 0.36922 0.8818 0.83612 0.0
C318 C 0.42409 0.86328 0.78446 0.0
C319 C 0.39524 0.88864 0.77426 0.0
C320 C 0.36676 0.89659 0.80055 0.0
C321 C 0.39444 0.85384 0.84417 0.0
C322 C 0.42208 0.84393 0.81867 0.0
H323 H 0.34419 0.91566 0.79291 0.0
H324 H 0.39465 0.84052 0.87147 0.0
H325 H 0.28904 0.87424 0.80979 0.0
H326 H 0.26511 0.77126 0.86434 0.0
H327 H 0.39254 0.01053 0.93523 0.0
H328 H 0.39589 0.9034 0.7474 0.0
H329 H 0.44384 0.82398 0.82726 0.0
C330 C 0.19231 0.29936 0.87856 0.0
C331 C 0.21557 0.27425 0.85988 0.0
N332 N 0.19725 0.2618 0.82893 0.0
N333 N 0.15928 0.30367 0.85935 0.0
C334 C 0.16281 0.27857 0.83031 0.0
H335 H 0.2008 0.31585 0.90288 0.0
Co336 Co 0.12337 0.34409 0.86995 0.0
C337 C 0.07371 0.31065 0.80794 0.0
O338 O 0.10194 0.31463 0.78413 0.0
N339 N 0.08714 0.38223 0.88249 0.0
C340 C 0.03173 0.40309 0.90378 0.0
C341 C 0.05309 0.37178 0.89617 0.0
C342 C 0.08623 0.42068 0.88347 0.0
N343 N 0.05222 0.43433 0.89589 0.0
O344 O 0.11748 0.32566 0.92109 0.0
H345 H 0.04408 0.34279 0.90026 0.0
H346 H 0.11025 0.43778 0.87537 0.0
O347 O 0.07957 0.31637 0.84376 0.0
C348 C 0.14081 0.34983 0.93601 0.0
O349 O 0.15837 0.37363 0.91336 0.0
N350 N 0.13592 0.36865 0.82513 0.0
C351 C 0.16199 0.42533 0.77867 0.0
C352 C 0.18777 0.40187 0.79687 0.0
C353 C 0.17404 0.37415 0.82076 0.0
C354 C 0.11054 0.38925 0.8044 0.0
C355 C 0.12318 0.41743 0.78028 0.0
H356 H 0.19426 0.3607 0.83913 0.0
H357 H 0.08038 0.38655 0.80912 0.0
H358 H 0.14112 0.27196 0.81025 0.0
H359 H 0.2448 0.26799 0.86694 0.0
H360 H 1.00257 0.40244 0.91317 0.0
H361 H 0.21784 0.40831 0.79682 0.0
H362 H 0.10265 0.43607 0.76716 0.0
C363 C 0.68847 0.19476 0.86901 0.0
C364 C 0.71488 0.21959 0.85458 0.0
N365 N 0.7338 0.2022 0.82635 0.0
N366 N 0.69022 0.16151 0.85005 0.0
C367 C 0.7198 0.16649 0.8258 0.0
H368 H 0.66742 0.20184 0.89004 0.0
Co369 Co 0.65259 0.1219 0.85342 0.0
C370 C 0.6924 0.08513 0.78726 0.0
O371 O 0.68264 0.11505 0.76748 0.0
N372 N 0.61685 0.08011 0.85892 0.0
C373 C 0.59372 0.02132 0.85399 0.0
C374 C 0.62296 0.04475 0.84521 0.0
C375 C 0.58258 0.07672 0.87651 0.0
N376 N 0.56815 0.04103 0.87385 0.0
O377 O 0.67038 0.1115 0.90503 0.0
H378 H 0.64622 0.0357 0.82827 0.0
H379 H 0.56853 0.0998 0.89096 0.0
O380 O 0.68711 0.08561 0.82358 0.0
C381 C 0.64602 0.1317 0.9238 0.0
O382 O 0.61983 0.14954 0.90418 0.0
N383 N 0.6275 0.13958 0.80762 0.0
C384 C 0.56261 0.1831 0.80131 0.0
C385 C 0.59808 0.20044 0.80052 0.0
C386 C 0.63029 0.17778 0.801 0.0
C387 C 0.59424 0.12244 0.79756 0.0
C388 C 0.56085 0.14365 0.79605 0.0
H389 H 0.65702 0.19214 0.79961 0.0
H390 H 0.59223 0.09205 0.79513 0.0
H391 H 0.72942 0.1456 0.80592 0.0
H392 H 0.71847 0.24877 0.86324 0.0
H393 H 0.59092 0.99204 0.84518 0.0
H394 H 0.60129 0.2309 0.80171 0.0
H395 H 0.53392 0.12921 0.79277 0.0
C396 C 0.83488 0.29107 0.64895 0.0
C397 C 0.81566 0.26289 0.66831 0.0
N398 N 0.82283 0.26687 0.70557 0.0
N399 N 0.85386 0.31287 0.67404 0.0
C400 C 0.84622 0.29698 0.70814 0.0
H401 H 0.83255 0.29706 0.61901 0.0
Co402 Co 0.87646 0.36117 0.66834 0.0
C403 C 0.94047 0.3596 0.72613 0.0
O404 O 0.93687 0.39611 0.73227 0.0
N405 N 0.90008 0.40955 0.6639 0.0
C406 C 0.90973 0.47184 0.66479 0.0
C407 C 0.88354 0.44352 0.66975 0.0
C408 C 0.93648 0.41818 0.65444 0.0
N409 N 0.94304 0.45592 0.65548 0.0
O410 O 0.89959 0.34685 0.61992 0.0
H411 H 0.8542 0.44763 0.67695 0.0
H412 H 0.95772 0.39724 0.64722 0.0
O413 O 0.91952 0.34304 0.70121 0.0
C414 C 0.87739 0.36477 0.59688 0.0
O415 O 0.84818 0.38275 0.6112 0.0
N416 N 0.84583 0.37851 0.70815 0.0
C417 C 0.79446 0.42967 0.73735 0.0
C418 C 0.82638 0.41889 0.75876 0.0
C419 C 0.85196 0.39252 0.74364 0.0
C420 C 0.81133 0.38333 0.69112 0.0
C421 C 0.78535 0.40931 0.70493 0.0
H422 H 0.87718 0.38587 0.75932 0.0
H423 H 0.80558 0.37029 0.66409 0.0
H424 H 0.85495 0.30927 0.73488 0.0
H425 H 0.79547 0.24312 0.65628 0.0
H426 H 0.90469 0.50199 0.66752 0.0
H427 H 0.83368 0.43377 0.78462 0.0
H428 H 0.76075 0.41665 0.68802 0.0
C429 C 0.72062 0.81938 0.64585 0.0
C430 C 0.74423 0.7983 0.66847 0.0
N431 N 0.74506 0.81391 0.70325 0.0
N432 N 0.70594 0.84848 0.66592 0.0
C433 C 0.72162 0.8443 0.70097 0.0
H434 H 0.71378 0.81249 0.6169 0.0
Co435 Co 0.66726 0.88245 0.64908 0.0
C436 C 0.67689 0.95339 0.69521 0.0
O437 O 0.63975 0.9549 0.69662 0.0
N438 N 0.62884 0.91696 0.63175 0.0
C439 C 0.60711 0.97026 0.60572 0.0
C440 C 0.63835 0.94796 0.61147 0.0
C441 C 0.59091 0.9212 0.63756 0.0
N442 N 0.57696 0.9536 0.62204 0.0
O443 O 0.69216 0.88947 0.60006 0.0
H444 H 0.66699 0.9555 0.60359 0.0
H445 H 0.57411 0.90227 0.65466 0.0
O446 O 0.69333 0.92643 0.67655 0.0
C447 C 0.67478 0.86496 0.57915 0.0
O448 O 0.65215 0.84073 0.59573 0.0
N449 N 0.639 0.8694 0.69093 0.0
C450 C 0.57739 0.85187 0.73457 0.0
C451 C 0.60756 0.87243 0.75045 0.0
C452 C 0.63888 0.88063 0.72788 0.0
C453 C 0.6139 0.84287 0.67859 0.0
C454 C 0.58242 0.83397 0.69974 0.0
H455 H 0.66132 0.89765 0.73941 0.0
H456 H 0.61572 0.83172 0.65037 0.0
H457 H 0.71554 0.86268 0.72467 0.0
H458 H 0.75814 0.7722 0.66031 0.0
H459 H 0.60759 0.9983 0.59343 0.0
H460 H 0.6056 0.88453 0.77859 0.0
H461 H 0.56035 0.81699 0.68675 0.0
C462 C 0.19127 0.70542 0.65361 0.0
C463 C 0.21446 0.73167 0.67077 0.0
N464 N 0.19536 0.74748 0.69969 0.0
N465 N 0.1578 0.70336 0.67218 0.0
C466 C 0.16084 0.73082 0.69897 0.0
H467 H 0.1999 0.68653 0.63114 0.0
Co468 Co 0.12105 0.66416 0.66252 0.0
C469 C 0.07279 0.70055 0.72371 0.0
O470 O 0.1008 0.69574 0.74778 0.0
N471 N 0.08345 0.62654 0.65066 0.0
C472 C 0.02762 0.6076 0.62827 0.0
C473 C 0.05039 0.63809 0.63529 0.0
C474 C 0.08018 0.58806 0.65203 0.0
N475 N 0.04604 0.5759 0.63874 0.0
O476 O 0.11598 0.68287 0.61135 0.0
H477 H 0.04323 0.66726 0.62933 0.0
H478 H 0.10225 0.56953 0.66254 0.0
O479 O 0.07846 0.69408 0.68799 0.0
C480 C 0.13691 0.65742 0.59528 0.0
O481 O 0.15213 0.63092 0.61662 0.0
N482 N 0.13275 0.64014 0.70795 0.0
C483 C 0.15682 0.58106 0.75229 0.0
C484 C 0.1834 0.60482 0.73595 0.0
C485 C 0.17068 0.6337 0.7129 0.0
C486 C 0.10665 0.62003 0.72818 0.0
C487 C 0.11823 0.58985 0.75037 0.0
H488 H 0.19156 0.64698 0.69532 0.0
H489 H 0.07661 0.62402 0.72349 0.0
H490 H 0.13878 0.7388 0.71817 0.0
H491 H 0.24411 0.73615 0.66436 0.0
H492 H 0.99902 0.60883 0.61713 0.0
H493 H 0.21329 0.5976 0.7361 0.0
H494 H 0.09703 0.57062 0.7612 0.0
C495 C 0.32782 0.19717 0.66452 0.0
C496 C 0.29813 0.21699 0.68025 0.0
N497 N 0.2812 0.19496 0.7064 0.0
N498 N 0.32997 0.16264 0.68062 0.0
C499 C 0.30061 0.16187 0.70538 0.0
H500 H 0.34894 0.20891 0.64575 0.0
Co501 Co 0.37374 0.13205 0.68059 0.0
C502 C 0.35621 0.07679 0.74183 0.0
O503 O 0.38488 0.09222 0.75962 0.0
N504 N 0.41862 0.09965 0.6815 0.0
C505 C 0.46955 0.06824 0.70266 0.0
C506 C 0.44503 0.09739 0.70945 0.0
C507 C 0.4289 0.07116 0.65744 0.0
N508 N 0.45963 0.05169 0.66997 0.0
O509 O 0.36108 0.11396 0.62937 0.0
H510 H 0.44638 0.11481 0.73453 0.0
H511 H 0.41368 0.064 0.63179 0.0
O512 O 0.34605 0.09019 0.70938 0.0
C513 C 0.38089 0.13817 0.61034 0.0
O514 O 0.40259 0.16125 0.62954 0.0
N515 N 0.38983 0.15908 0.72361 0.0
C516 C 0.42425 0.21201 0.77125 0.0
C517 C 0.39038 0.19395 0.78217 0.0
C518 C 0.37293 0.16813 0.75733 0.0
C519 C 0.42034 0.17937 0.71168 0.0
C520 C 0.4378 0.20548 0.73457 0.0
H521 H 0.34702 0.15443 0.76596 0.0
H522 H 0.43362 0.17343 0.68505 0.0
H523 H 0.29592 0.13903 0.7252 0.0
H524 H 0.29237 0.24677 0.67575 0.0
H525 H 0.49323 0.05991 0.72037 0.0
H526 H 0.3787 0.19829 0.81018 0.0
H527 H 0.46411 0.21734 0.72424 0.0
C528 C 0.96653 0.47719 0.11201 0.0
C529 C 0.96971 0.51651 0.11796 0.0
C530 C 0.99869 0.45359 0.11225 0.0
C531 C 0.03505 0.46849 0.1189 0.0
H532 H 0.93872 0.46417 0.11206 0.0
H533 H 0.99458 0.42318 0.11268 0.0
S534 S 0.05898 0.5701 0.12991 0.0
N535 N 0.01236 0.56972 0.1251 0.0
N536 N 0.07274 0.52548 0.12611 0.0
C537 C 0.0389 0.50817 0.11983 0.0
C538 C 0.00621 0.53217 0.11928 0.0
C539 C 0.55272 0.00465 0.16377 0.0
C540 C 0.54049 0.02804 0.13412 0.0
C541 C 0.53397 0.97068 0.17221 0.0
C542 C 0.50082 0.95919 0.15263 0.0
H543 H 0.57568 0.01361 0.18204 0.0
H544 H 0.54497 0.95421 0.19555 0.0
S545 S 0.46059 0.00806 0.06831 0.0
N546 N 0.497 0.03457 0.08102 0.0
N547 N 0.45938 0.97287 0.099 0.0
C548 C 0.48967 0.98129 0.12125 0.0
C549 C 0.50987 0.01524 0.11172 0.0
C550 C 1.00443 0.47315 0.40769 0.0
C551 C 0.97383 0.48835 0.38763 0.0
C552 C 0.03607 0.49548 0.41682 0.0
C553 C 0.03834 0.53434 0.40677 0.0
H554 H 0.00499 0.44315 0.41415 0.0
H555 H 0.05953 0.48116 0.43027 0.0
S556 S 0.96222 0.58825 0.35764 0.0
N557 N 0.94572 0.54453 0.35997 0.0
N558 N 1.00413 0.58735 0.37861 0.0
C559 C 0.0065 0.55026 0.38848 0.0
C560 C 0.97457 0.52713 0.37864 0.0
C561 C 0.53343 0.99035 0.39871 0.0
C562 C 0.51678 0.96052 0.37853 0.0
C563 C 0.51232 0.02254 0.40864 0.0
C564 C 0.47337 0.02612 0.39929 0.0
H565 H 0.56353 0.98978 0.40485 0.0
H566 H 0.5274 0.04543 0.42234 0.0
S567 S 0.41571 0.95301 0.35009 0.0
N568 N 0.45884 0.93478 0.35163 0.0
N569 N 0.41864 0.99465 0.37134 0.0
C570 C 0.45602 0.99539 0.38063 0.0
C571 C 0.47778 0.96278 0.37013 0.0
C572 C 0.98241 0.51422 0.90982 0.0
C573 C 0.99553 0.54148 0.88425 0.0
C574 C 1.00308 0.48078 0.91624 0.0
C575 C 0.03721 0.47278 0.89654 0.0
H576 H 0.95472 0.51736 0.92266 0.0
H577 H 0.99086 0.4602 0.93528 0.0
S578 S 0.08789 0.54079 0.83461 0.0
N579 N 0.04827 0.56283 0.84594 0.0
N580 N 0.08621 0.49937 0.856 0.0
C581 C 0.05254 0.50209 0.87431 0.0
C582 C 0.03185 0.53648 0.86862 0.0
C583 C 0.49581 0.96854 0.90298 0.0
C584 C 0.46153 0.9884 0.9001 0.0
C585 C 0.53058 0.98672 0.89677 0.0
C586 C 0.53253 0.02539 0.88662 0.0
H587 H 0.49569 0.93867 0.90997 0.0
H588 H 0.55625 0.97005 0.89903 0.0
S589 S 0.45063 0.08982 0.87365 0.0
N590 N 0.43149 0.04901 0.88614 0.0
N591 N 0.4969 0.08267 0.87345 0.0
C592 C 0.49848 0.04577 0.88418 0.0
C593 C 0.46299 0.02738 0.89103 0.0
C594 C 0.97631 0.50001 0.61385 0.0
C595 C 0.97676 0.47688 0.64607 0.0
C596 C 1.00214 0.52988 0.60972 0.0
C597 C 0.02903 0.53849 0.6381 0.0
H598 H 0.9539 0.49668 0.59308 0.0
H599 H 0.99911 0.54825 0.58538 0.0
S600 S 0.04582 0.48209 0.72507 0.0
N601 N 0.0095 0.46081 0.70434 0.0
N602 N 0.05781 0.51766 0.69715 0.0
C603 C 0.03227 0.51312 0.6687 0.0
C604 C 0.00603 0.48226 0.67264 0.0
C605 C 0.49265 0.99057 0.67553 0.0
C606 C 0.48052 0.02101 0.65284 0.0
C607 C 0.52213 0.96643 0.66401 0.0
C608 C 0.5408 0.9719 0.62924 0.0
H609 H 0.48076 0.98708 0.70352 0.0
H610 H 0.53215 0.94528 0.68376 0.0
S611 S 0.51408 0.04282 0.55608 0.0
N612 N 0.48552 0.05209 0.59195 0.0
N613 N 0.54002 0.00614 0.56932 0.0
C614 C 0.52602 0.9998 0.60456 0.0
C615 C 0.49606 0.02445 0.61653 0.0
C616 C 0.24613 0.28774 0.26884 0.0
C617 C 0.26302 0.29172 0.23291 0.0
C618 C 0.2647 0.26863 0.29844 0.0
C619 C 0.30075 0.25223 0.29334 0.0
H620 H 0.21898 0.30078 0.2747 0.0
H621 H 0.25102 0.26716 0.32582 0.0
S622 S 0.35657 0.25268 0.20454 0.0
N623 N 0.31736 0.2759 0.19364 0.0
N624 N 0.3522 0.2403 0.24941 0.0
C625 C 0.31744 0.25481 0.25734 0.0
C626 C 0.29866 0.27453 0.22719 0.0
C627 C 0.73943 0.25669 0.30156 0.0
C628 C 0.75675 0.2926 0.29935 0.0
C629 C 0.7187 0.24115 0.27117 0.0
C630 C 0.71354 0.26071 0.23657 0.0
H631 H 0.74228 0.23994 0.32705 0.0
H632 H 0.70719 0.21313 0.27524 0.0
S633 S 0.7514 0.35746 0.2165 0.0
N634 N 0.76678 0.34782 0.25948 0.0
N635 N 0.72637 0.32017 0.20364 0.0
C636 C 0.72969 0.2975 0.23448 0.0
C637 C 0.75144 0.31304 0.26541 0.0
C638 C 0.70758 0.75309 0.2527 0.0
C639 C 0.71625 0.74498 0.29083 0.0
C640 C 0.72627 0.73459 0.22276 0.0
C641 C 0.75345 0.70621 0.22956 0.0
H642 H 0.68764 0.77521 0.24577 0.0
H643 H 0.7203 0.7433 0.19397 0.0
S644 S 0.7829 0.67112 0.32432 0.0
N645 N 0.75191 0.70496 0.3337 0.0
N646 N 0.78553 0.6687 0.27769 0.0
C647 C 0.76041 0.69598 0.26756 0.0
C648 C 0.74223 0.71572 0.29806 0.0
C649 C 0.24493 0.74527 0.28513 0.0
C650 C 0.2535 0.70638 0.28382 0.0
C651 C 0.25897 0.77026 0.25743 0.0
C652 C 0.28191 0.75717 0.22741 0.0
H653 H 0.2283 0.7565 0.30833 0.0
H654 H 0.25274 0.8002 0.26004 0.0
S655 S 0.30839 0.65747 0.20875 0.0
N656 N 0.28342 0.65562 0.24824 0.0
N657 N 0.31003 0.70265 0.19666 0.0
C658 C 0.28961 0.7183 0.22524 0.0
C659 C 0.27528 0.6929 0.25326 0.0
C660 C 0.74523 0.7965 0.7716 0.0
C661 C 0.76366 0.79793 0.73629 0.0
C662 C 0.76057 0.7757 0.80214 0.0
C663 C 0.79511 0.75562 0.79883 0.0
H664 H 0.71789 0.81002 0.77511 0.0
H665 H 0.74469 0.77444 0.82832 0.0
S666 S 0.85606 0.75369 0.71287 0.0
N667 N 0.81977 0.78053 0.70076 0.0
N668 N 0.84796 0.74066 0.75695 0.0
C669 C 0.8146 0.75851 0.76401 0.0
C670 C 0.79902 0.77978 0.73314 0.0
C671 C 0.19918 0.7632 0.76792 0.0
C672 C 0.21128 0.76958 0.73046 0.0
C673 C 0.21721 0.78063 0.79877 0.0
C674 C 0.24819 0.80525 0.79372 0.0
H675 H 0.17658 0.74331 0.77372 0.0
H676 H 0.20727 0.77411 0.82701 0.0
S677 S 0.28955 0.83346 0.7013 0.0
N678 N 0.25466 0.80435 0.68994 0.0
N679 N 0.28943 0.83609 0.74798 0.0
C680 C 0.25983 0.81298 0.75636 0.0
C681 C 0.24126 0.79532 0.72481 0.0
C682 C 0.2615 0.19645 0.77394 0.0
C683 C 0.25606 0.20812 0.73612 0.0
C684 C 0.24118 0.21308 0.8039 0.0
C685 C 0.21422 0.24176 0.79737 0.0
H686 H 0.28283 0.17554 0.78078 0.0
H687 H 0.24723 0.20408 0.83258 0.0
S688 S 0.18771 0.28106 0.7034 0.0
N689 N 0.22009 0.24867 0.69374 0.0
N690 N 0.18258 0.28044 0.74985 0.0
C691 C 0.20748 0.25271 0.75957 0.0
C692 C 0.22822 0.23581 0.72908 0.0
C693 C 0.8067 0.21352 0.74828 0.0
C694 C 0.80102 0.25101 0.73626 0.0
C695 C 0.78536 0.19808 0.77831 0.0
C696 C 0.75733 0.2195 0.79729 0.0
H697 H 0.82788 0.19615 0.73444 0.0
H698 H 0.79081 0.16911 0.78671 0.0
S699 S 0.72982 0.3185 0.77339 0.0
N700 N 0.7649 0.30877 0.74405 0.0
N701 N 0.7238 0.27995 0.79915 0.0
C702 C 0.75118 0.25704 0.78476 0.0
C703 C 0.77323 0.2727 0.75459 0.0
C704 C 0.1266 0.35856 0.04271 0.0
C705 C 0.16159 0.37384 0.05518 0.0
C706 C 0.12 0.3494 1.0044 0.0
C707 C 0.14842 0.35467 0.97721 0.0
H708 H 0.10462 0.35217 0.06314 0.0
H709 H 0.09255 0.33836 0.99609 0.0
S710 S 0.24576 0.39156 0.99573 0.0
N711 N 0.22507 0.39242 0.03761 0.0
N712 N 0.2135 0.37536 0.96587 0.0
C713 C 0.18356 0.36996 0.98948 0.0
C714 C 0.18996 0.3795 0.02833 0.0
C715 C 0.61317 0.15485 0.98315 0.0
C716 C 0.64574 0.13832 0.96604 0.0
C717 C 0.61165 0.16419 0.02208 0.0
C718 C 0.64275 0.15769 0.04603 0.0
H719 H 0.58811 0.16049 0.9663 0.0
H720 H 0.58559 0.17564 0.03358 0.0
S721 S 0.7357 0.11692 1.01566 0.0
N722 N 0.71009 0.11706 0.9765 0.0
N723 N 0.70814 0.13477 0.04895 0.0
C724 C 0.67581 0.14179 0.02912 0.0
C725 C 0.67709 0.13201 0.98953 0.0
C726 C 0.86405 0.60479 0.98805 0.0
C727 C 0.87397 0.63967 0.97067 0.0
C728 C 0.85638 0.60185 0.02712 0.0
C729 C 0.85811 0.63375 0.05069 0.0
H730 H 0.8622 0.5792 0.97117 0.0
H731 H 0.85037 0.57425 0.03906 0.0
S732 S 0.88012 0.73219 0.01963 0.0
N733 N 0.8833 0.70693 0.98035 0.0
N734 N 0.86906 0.70193 0.0535 0.0
C735 C 0.86742 0.66895 0.03364 0.0
C736 C 0.87542 0.6718 0.99386 0.0
C737 C 0.35286 0.83395 1.00828 0.0
C738 C 0.34337 0.86868 0.99064 0.0
C739 C 0.36538 0.83232 0.04614 0.0
C740 C 0.36941 0.86551 0.06765 0.0
H741 H 0.35144 0.80776 0.99228 0.0
H742 H 0.37148 0.80499 0.05867 0.0
S743 S 0.35145 0.96387 0.03385 0.0
N744 N 0.34029 0.93685 0.99734 0.0
N745 N 0.36476 0.93451 0.06769 0.0
C746 C 0.36044 0.90046 0.05009 0.0
C747 C 0.34706 0.9019 1.0119 0.0
C748 C 0.171 0.61704 0.50188 0.0
C749 C 0.18173 0.64902 0.48089 0.0
C750 C 0.15403 0.62065 0.53767 0.0
C751 C 0.14743 0.65635 0.55459 0.0
H752 H 0.17558 0.58892 0.49082 0.0
H753 H 0.14667 0.59493 0.5527 0.0
S754 S 0.17452 0.74913 0.51441 0.0
N755 N 0.18703 0.71812 0.48166 0.0
N756 N 0.1557 0.72414 0.54911 0.0
C757 C 0.15882 0.68858 0.53467 0.0
C758 C 0.17607 0.68506 0.49805 0.0
C759 C 0.3976 0.18685 0.51524 0.0
C760 C 0.38057 0.1627 0.48896 0.0
C761 C 0.39727 0.17805 0.55401 0.0
C762 C 0.38008 0.14455 0.56842 0.0
H763 H 0.40972 0.2135 0.50607 0.0
H764 H 0.41008 0.19856 0.57293 0.0
S765 S 0.33535 0.06971 0.51014 0.0
N766 N 0.34856 0.10218 0.47919 0.0
N767 N 0.34818 0.08596 0.55215 0.0
C768 C 0.36424 0.11944 0.54214 0.0
C769 C 0.36453 0.12841 0.5025 0.0
C770 C 0.88166 0.33748 0.49262 0.0
C771 C 0.8713 0.3716 0.47394 0.0
C772 C 0.8867 0.33552 0.53223 0.0
C773 C 0.88193 0.36774 0.55495 0.0
H774 H 0.88543 0.31165 0.47645 0.0
H775 H 0.89268 0.30836 0.54519 0.0
S776 S 0.85915 0.46476 0.5205 0.0
N777 N 0.85936 0.43871 0.48159 0.0
N778 N 0.86888 0.43549 0.55566 0.0
C779 C 0.87295 0.40227 0.53656 0.0
C780 C 0.86752 0.40413 0.4963 0.0
C781 C 0.64585 0.89559 0.48071 0.0
C782 C 0.64431 0.86084 0.46073 0.0
C783 C 0.65939 0.89785 0.51823 0.0
C784 C 0.67266 0.86548 0.53714 0.0
H785 H 0.63637 0.92143 0.4671 0.0
H786 H 0.65785 0.92473 0.53297 0.0
S787 S 0.67892 0.76854 0.49643 0.0
N788 N 0.66027 0.79409 0.46192 0.0
N789 N 0.68535 0.79795 0.53233 0.0
C790 C 0.67241 0.83083 0.51705 0.0
C791 C 0.65836 0.82854 0.47899 0.0
C792 C 0.15511 0.51908 0.26604 0.0
C793 C 0.17309 0.52326 0.30154 0.0
C794 C 0.16233 0.48788 0.24231 0.0
C795 C 0.18747 0.45883 0.25316 0.0
H796 H 0.13415 0.53962 0.25694 0.0
H797 H 0.14659 0.48578 0.21602 0.0
S798 S 0.24475 0.45799 0.34182 0.0
N799 N 0.2195 0.49731 0.34502 0.0
N800 N 0.23297 0.43829 0.30098 0.0
C801 C 0.2073 0.46375 0.28775 0.0
C802 C 0.20019 0.496 0.31174 0.0
C803 C 0.51029 0.16087 0.23384 0.0
C804 C 0.53908 0.18663 0.24382 0.0
C805 C 0.48032 0.15244 0.259 0.0
C806 C 0.47723 0.16974 0.29509 0.0
H807 H 0.51243 0.14489 0.20771 0.0
H808 H 0.46025 0.13067 0.25078 0.0
S809 S 0.54271 0.24244 0.33325 0.0
N810 N 0.56061 0.2318 0.29135 0.0
N811 N 0.50411 0.21631 0.33783 0.0
C812 C 0.50411 0.19763 0.30419 0.0
C813 C 0.53499 0.20589 0.27883 0.0
C814 C 0.8189 0.46746 0.24002 0.0
C815 C 0.82131 0.46193 0.27972 0.0
C816 C 0.81768 0.50387 0.22368 0.0
C817 C 0.81827 0.53669 0.24622 0.0
H818 H 0.81994 0.4434 0.22099 0.0
H819 H 0.81822 0.5062 0.19311 0.0
S820 S 0.81895 0.53825 0.35192 0.0
N821 N 0.82073 0.49278 0.34112 0.0
N822 N 0.81689 0.56087 0.3111 0.0
C823 C 0.81754 0.53151 0.28614 0.0
C824 C 0.81938 0.49436 0.30269 0.0
C825 C 0.52993 0.79262 0.24219 0.0
C826 C 0.53849 0.80241 0.28011 0.0
C827 C 0.49242 0.79124 0.22868 0.0
C828 C 0.46157 0.79888 0.25259 0.0
H829 H 0.55257 0.78782 0.22205 0.0
H830 H 0.48766 0.78542 0.19892 0.0
S831 S 0.46799 0.82462 0.35474 0.0
N832 N 0.5125 0.81874 0.34163 0.0
N833 N 0.44217 0.81548 0.31678 0.0
C834 C 0.46954 0.80674 0.29114 0.0
C835 C 0.50786 0.80855 0.30478 0.0
C836 C 0.79136 0.53427 0.72686 0.0
C837 C 0.77933 0.54493 0.76314 0.0
C838 C 0.79106 0.49611 0.71627 0.0
C839 C 0.779 0.46804 0.74186 0.0
H840 H 0.80652 0.55421 0.70913 0.0
H841 H 0.80465 0.4883 0.68995 0.0
S842 S 0.73151 0.48381 0.83357 0.0
N843 N 0.74377 0.52662 0.81915 0.0
N844 N 0.74551 0.45426 0.80005 0.0
C845 C 0.76047 0.47919 0.77492 0.0
C846 C 0.75942 0.51817 0.78503 0.0
C847 C 0.51452 0.8233 0.7478 0.0
C848 C 0.53861 0.85503 0.74914 0.0
C849 C 0.47597 0.82686 0.75541 0.0
C850 C 0.46043 0.86216 0.76497 0.0
H851 H 0.52559 0.79552 0.74081 0.0
H852 H 0.45848 0.80161 0.75565 0.0
S853 S 0.51128 0.95363 0.77374 0.0
N854 N 0.544 0.92302 0.76034 0.0
N855 N 0.47157 0.92907 0.77656 0.0
C856 C 0.48398 0.89411 0.76622 0.0
C857 C 0.52318 0.89064 0.75819 0.0
C858 C 0.1649 0.47787 0.73341 0.0
C859 C 0.17309 0.46381 0.76948 0.0
C860 C 0.16229 0.51671 0.7277 0.0
C861 C 0.1675 0.54197 0.75803 0.0
H862 H 0.15752 0.4588 0.71048 0.0
H863 H 0.15364 0.52703 0.7001 0.0
S864 S 0.19351 0.51925 0.85656 0.0
N865 N 0.18971 0.47776 0.83514 0.0
N866 N 0.18495 0.55143 0.82371 0.0
C867 C 0.17886 0.52859 0.79329 0.0
C868 C 0.18168 0.48907 0.79921 0.0
C869 C 0.46162 0.20158 0.82793 0.0
C870 C 0.45161 0.2274 0.79936 0.0
C871 C 0.49925 0.18963 0.83119 0.0
C872 C 0.52748 0.20504 0.80769 0.0
H873 H 0.44011 0.18472 0.84185 0.0
H874 H 0.50547 0.16555 0.84916 0.0
S875 S 0.51686 0.28987 0.74668 0.0
N876 N 0.47364 0.28096 0.76232 0.0
N877 N 0.54453 0.25758 0.76626 0.0
C878 C 0.51894 0.23836 0.78761 0.0
C879 C 0.48064 0.25109 0.7856 0.0
C880 C 0.70108 0.05214 0.72473 0.0
C881 C 0.70188 0.04981 0.7648 0.0
C882 C 0.69847 0.01978 0.70158 0.0
C883 C 0.69734 0.98326 0.71706 0.0
H884 H 0.69932 0.07939 0.71078 0.0
H885 H 0.69379 0.02365 0.67149 0.0
S886 S 0.70866 0.95998 0.81901 0.0
N887 N 0.70964 0.00679 0.81806 0.0
N888 N 0.70339 0.94612 0.7746 0.0
C889 C 0.70258 0.98006 0.75658 0.0
C890 C 0.70548 0.0132 0.78037 0.0
C891 C 0.99304 0.69508 0.79702 0.0
C892 C 0.95985 0.6945 0.77501 0.0
C893 C 0.02899 0.69948 0.7802 0.0
C894 C 0.03367 0.70328 0.74047 0.0
H895 H 0.99155 0.69 0.82723 0.0
H896 H 0.05348 0.69793 0.79867 0.0
S897 S 0.95539 0.70891 0.67057 0.0
N898 N 0.93384 0.70228 0.71148 0.0
N899 N 1.00115 0.71017 0.68035 0.0
C900 C 1.00056 0.7052 0.71848 0.0
C901 C 0.96388 0.70092 0.73558 0.0
C902 C 0.3 0.03683 0.76413 0.0
C903 C 0.3393 0.04265 0.76042 0.0
C904 C 0.28553 0.00907 0.78936 0.0
C905 C 0.30963 0.98642 0.81235 0.0
H906 H 0.28037 0.05482 0.74886 0.0
H907 H 0.25505 0.006 0.79144 0.0
S908 S 0.41486 0.99049 0.81138 0.0
N909 N 0.4019 0.02152 0.77923 0.0
N910 N 0.37509 0.97331 0.82872 0.0
C911 C 0.34886 0.99214 0.80807 0.0
C912 C 0.36347 0.01901 0.78156 0.0
C913 C 0.97404 0.34667 0.78755 0.0
C914 C 0.96964 0.33881 0.74858 0.0
C915 C 0.00575 0.33365 0.8082 0.0
C916 C 0.03489 0.31291 0.79052 0.0
H917 H 0.95358 0.36455 0.80185 0.0
H918 H 0.0087 0.34249 0.83736 0.0
S919 S 0.03556 0.28266 0.68946 0.0
N920 N 0.9957 0.30682 0.69382 0.0
N921 N 0.05531 0.28264 0.73191 0.0
C922 C 0.02939 0.30281 0.75204 0.0
C923 C 0.99688 0.31573 0.73124 0.0
C924 C 0.3085 0.96271 0.31829 0.0
C925 C 0.29701 0.9563 0.28092 0.0
C926 C 0.31152 0.99964 0.33178 0.0
C927 C 0.30215 0.03064 0.30843 0.0
H928 H 0.32135 0.94015 0.33471 0.0
H929 H 0.32555 1.00392 0.35878 0.0
S930 S 0.25656 0.02647 0.2143 0.0
N931 N 0.26524 0.9818 0.22534 0.0
N932 N 0.27131 0.05192 0.25078 0.0
C933 C 0.28371 0.02389 0.27405 0.0
C934 C 0.28012 0.98617 0.2606 0.0
C935 C 0.00734 0.30157 0.21468 0.0
C936 C 0.03679 0.2878 0.23783 0.0
C937 C 0.96955 0.29637 0.22489 0.0
C938 C 0.96072 0.27843 0.25913 0.0
H939 H 0.01355 0.31962 0.19066 0.0
H940 H 0.94808 0.31211 0.20952 0.0
S941 S 0.02692 0.22541 0.32094 0.0
N942 N 0.0546 0.24679 0.28987 0.0
N943 N 0.98292 0.2363 0.3089 0.0
C944 C 0.98941 0.25768 0.27762 0.0
C945 C 0.02799 0.26359 0.2677 0.0
C946 C 0.73248 0.97738 0.24857 0.0
C947 C 0.70988 0.94829 0.23294 0.0
C948 C 0.72267 0.01533 0.24256 0.0
C949 C 0.69211 0.02434 0.21878 0.0
H950 H 0.75221 0.97095 0.27124 0.0
H951 H 0.73664 0.03722 0.259 0.0
S952 S 0.64087 0.9587 0.15483 0.0
N953 N 0.66718 0.93099 0.18183 0.0
N954 N 0.65047 1.00248 0.16838 0.0
C955 C 0.67648 0.99581 0.19593 0.0
C956 C 0.68602 0.95741 0.20263 0.0
C957 C 0.972 0.69034 0.30138 0.0
C958 C 0.96811 0.70456 0.26456 0.0
C959 C 0.00784 0.68669 0.31743 0.0
C960 C 0.04036 0.69757 0.29713 0.0
H961 H 0.94831 0.67688 0.31553 0.0
H962 H 0.01035 0.67155 0.344 0.0
S963 S 0.04307 0.74867 0.20599 0.0
N964 N 0.99768 0.73943 0.21306 0.0
N965 N 0.06583 0.73141 0.2431 0.0
C966 C 0.03617 0.71754 0.26329 0.0
C967 C 0.99953 0.72196 0.24729 0.0
loop_
_geom_bond_atom_site_label_1
_geom_bond_atom_site_label_2
_geom_bond_distance
_geom_bond_site_symmetry_2
_ccdc_geom_bond_type
C0 C1 1.351 . S
C0 N3 1.368 . S
C0 H5 0.931 . S
C1 C0 1.351 . S
C1 N2 1.373 . S
C1 H29 0.930 . S
N2 C1 1.373 . S
N2 C4 1.340 . S
N3 C0 1.368 . S
N3 C4 1.321 . S
N3 Co6 2.135 . S
C4 N2 1.340 . S
C4 N3 1.321 . S
C4 H28 0.930 . S
H5 C0 0.931 . S
Co6 N3 2.135 . S
Co6 N9 2.121 . S
Co6 O14 2.055 . S
Co6 O17 2.039 . S
Co6 N20 2.140 . S
C7 O8 1.227 . S
C7 O17 1.265 . S
O8 C7 1.227 . S
N9 Co6 2.121 . S
N9 C11 1.375 . S
N9 C12 1.313 . S
C10 C11 1.338 . S
C10 N13 1.377 . S
C10 H30 0.930 . S
C11 N9 1.375 . S
C11 C10 1.338 . S
C11 H15 0.931 . S
C12 N9 1.313 . S
C12 N13 1.344 . S
C12 H16 0.930 . S
N13 C10 1.377 . S
N13 C12 1.344 . S
O14 Co6 2.055 . S
O14 C18 1.253 . S
H15 C11 0.931 . S
H16 C12 0.930 . S
O17 Co6 2.039 . S
O17 C7 1.265 . S
C18 O14 1.253 . S
C18 O19 1.227 . S
O19 C18 1.227 . S
N20 Co6 2.140 . S
N20 C23 1.346 . S
N20 C24 1.345 . S
C21 C22 1.387 . S
C21 C25 1.391 . S
C22 C21 1.387 . S
C22 C23 1.369 . S
C22 H31 0.929 . S
C23 N20 1.346 . S
C23 C22 1.369 . S
C23 H26 0.928 . S
C24 N20 1.345 . S
C24 C25 1.371 . S
C24 H27 0.931 . S
C25 C21 1.391 . S
C25 C24 1.371 . S
C25 H32 0.930 . S
H26 C23 0.928 . S
H27 C24 0.931 . S
H28 C4 0.930 . S
H29 C1 0.930 . S
H30 C10 0.930 . S
H31 C22 0.929 . S
H32 C25 0.930 . S
C33 C34 1.351 . S
C33 N36 1.368 . S
C33 H38 0.931 . S
C34 C33 1.351 . S
C34 N35 1.373 . S
C34 H62 0.930 . S
N35 C34 1.373 . S
N35 C37 1.340 . S
N36 C33 1.368 . S
N36 C37 1.321 . S
N36 Co39 2.135 . S
C37 N35 1.340 . S
C37 N36 1.321 . S
C37 H61 0.930 . S
H38 C33 0.931 . S
Co39 N36 2.135 . S
Co39 N42 2.121 . S
Co39 O47 2.055 . S
Co39 O50 2.039 . S
Co39 N53 2.140 . S
C40 O41 1.227 . S
C40 O50 1.265 . S
O41 C40 1.227 . S
N42 Co39 2.121 . S
N42 C44 1.375 . S
N42 C45 1.313 . S
C43 C44 1.338 . S
C43 N46 1.377 . S
C43 H63 0.930 . S
C44 N42 1.375 . S
C44 C43 1.338 . S
C44 H48 0.931 . S
C45 N42 1.313 . S
C45 N46 1.344 . S
C45 H49 0.930 . S
N46 C43 1.377 . S
N46 C45 1.344 . S
O47 Co39 2.055 . S
O47 C51 1.253 . S
H48 C44 0.931 . S
H49 C45 0.930 . S
O50 Co39 2.039 . S
O50 C40 1.265 . S
C51 O47 1.253 . S
C51 O52 1.227 . S
O52 C51 1.227 . S
N53 Co39 2.140 . S
N53 C56 1.346 . S
N53 C57 1.345 . S
C54 C55 1.387 . S
C54 C58 1.391 . S
C55 C54 1.387 . S
C55 C56 1.369 . S
C55 H64 0.929 . S
C56 N53 1.346 . S
C56 C55 1.369 . S
C56 H59 0.928 . S
C57 N53 1.345 . S
C57 C58 1.371 . S
C57 H60 0.931 . S
C58 C54 1.391 . S
C58 C57 1.371 . S
C58 H65 0.930 . S
H59 C56 0.928 . S
H60 C57 0.931 . S
H61 C37 0.930 . S
H62 C34 0.930 . S
H63 C43 0.930 . S
H64 C55 0.929 . S
H65 C58 0.930 . S
C66 C67 1.351 . S
C66 N69 1.368 . S
C66 H71 0.931 . S
C67 C66 1.351 . S
C67 N68 1.373 . S
C67 H95 0.930 . S
N68 C67 1.373 . S
N68 C70 1.340 . S
N69 C66 1.368 . S
N69 C70 1.321 . S
N69 Co72 2.135 . S
C70 N68 1.340 . S
C70 N69 1.321 . S
C70 H94 0.930 . S
H71 C66 0.931 . S
Co72 N69 2.135 . S
Co72 N75 2.121 . S
Co72 O80 2.055 . S
Co72 O83 2.039 . S
Co72 N86 2.140 . S
C73 O74 1.227 . S
C73 O83 1.265 . S
O74 C73 1.227 . S
N75 Co72 2.121 . S
N75 C77 1.375 . S
N75 C78 1.313 . S
C76 C77 1.338 . S
C76 N79 1.377 . S
C76 H96 0.930 . S
C77 N75 1.375 . S
C77 C76 1.338 . S
C77 H81 0.931 . S
C78 N75 1.313 . S
C78 N79 1.344 . S
C78 H82 0.930 . S
N79 C76 1.377 . S
N79 C78 1.344 . S
O80 Co72 2.055 . S
O80 C84 1.253 . S
H81 C77 0.931 . S
H82 C78 0.930 . S
O83 Co72 2.039 . S
O83 C73 1.265 . S
C84 O80 1.253 . S
C84 O85 1.227 . S
O85 C84 1.227 . S
N86 Co72 2.140 . S
N86 C89 1.346 . S
N86 C90 1.345 . S
C87 C88 1.387 . S
C87 C91 1.391 . S
C88 C87 1.387 . S
C88 C89 1.369 . S
C88 H97 0.929 . S
C89 N86 1.346 . S
C89 C88 1.369 . S
C89 H92 0.928 . S
C90 N86 1.345 . S
C90 C91 1.371 . S
C90 H93 0.931 . S
C91 C87 1.391 . S
C91 C90 1.371 . S
C91 H98 0.930 . S
H92 C89 0.928 . S
H93 C90 0.931 . S
H94 C70 0.930 . S
H95 C67 0.930 . S
H96 C76 0.930 . S
H97 C88 0.929 . S
H98 C91 0.930 . S
C99 C100 1.351 . S
C99 N102 1.368 . S
C99 H104 0.931 . S
C100 C99 1.351 . S
C100 N101 1.373 . S
C100 H128 0.930 . S
N101 C100 1.373 . S
N101 C103 1.340 . S
N102 C99 1.368 . S
N102 C103 1.321 . S
N102 Co105 2.135 . S
C103 N101 1.340 . S
C103 N102 1.321 . S
C103 H127 0.930 . S
H104 C99 0.931 . S
Co105 N102 2.135 . S
Co105 N108 2.121 . S
Co105 O113 2.055 . S
Co105 O116 2.039 . S
Co105 N119 2.140 . S
C106 O107 1.227 . S
C106 O116 1.265 . S
O107 C106 1.227 . S
N108 Co105 2.121 . S
N108 C110 1.375 . S
N108 C111 1.313 . S
C109 C110 1.338 . S
C109 N112 1.377 . S
C109 H129 0.930 . S
C110 N108 1.375 . S
C110 C109 1.338 . S
C110 H114 0.931 . S
C111 N108 1.313 . S
C111 N112 1.344 . S
C111 H115 0.930 . S
N112 C109 1.377 . S
N112 C111 1.344 . S
O113 Co105 2.055 . S
O113 C117 1.253 . S
H114 C110 0.931 . S
H115 C111 0.930 . S
O116 Co105 2.039 . S
O116 C106 1.265 . S
C117 O113 1.253 . S
C117 O118 1.227 . S
O118 C117 1.227 . S
N119 Co105 2.140 . S
N119 C122 1.346 . S
N119 C123 1.345 . S
C120 C121 1.387 . S
C120 C124 1.391 . S
C121 C120 1.387 . S
C121 C122 1.369 . S
C121 H130 0.929 . S
C122 N119 1.346 . S
C122 C121 1.369 . S
C122 H125 0.928 . S
C123 N119 1.345 . S
C123 C124 1.371 . S
C123 H126 0.931 . S
C124 C120 1.391 . S
C124 C123 1.371 . S
C124 H131 0.930 . S
H125 C122 0.928 . S
H126 C123 0.931 . S
H127 C103 0.930 . S
H128 C100 0.930 . S
H129 C109 0.930 . S
H130 C121 0.929 . S
H131 C124 0.930 . S
C132 C133 1.351 . S
C132 N135 1.368 . S
C132 H137 0.931 . S
C133 C132 1.351 . S
C133 N134 1.373 . S
C133 H161 0.930 . S
N134 C133 1.373 . S
N134 C136 1.340 . S
N135 C132 1.368 . S
N135 C136 1.321 . S
N135 Co138 2.135 . S
C136 N134 1.340 . S
C136 N135 1.321 . S
C136 H160 0.930 . S
H137 C132 0.931 . S
Co138 N135 2.135 . S
Co138 N141 2.121 . S
Co138 O146 2.055 . S
Co138 O149 2.039 . S
Co138 N152 2.140 . S
C139 O140 1.227 . S
C139 O149 1.265 . S
O140 C139 1.227 . S
N141 Co138 2.121 . S
N141 C143 1.375 . S
N141 C144 1.313 . S
C142 C143 1.338 . S
C142 N145 1.377 . S
C142 H162 0.930 . S
C143 N141 1.375 . S
C143 C142 1.338 . S
C143 H147 0.931 . S
C144 N141 1.313 . S
C144 N145 1.344 . S
C144 H148 0.930 . S
N145 C142 1.377 . S
N145 C144 1.344 . S
O146 Co138 2.055 . S
O146 C150 1.253 . S
H147 C143 0.931 . S
H148 C144 0.930 . S
O149 Co138 2.039 . S
O149 C139 1.265 . S
C150 O146 1.253 . S
C150 O151 1.227 . S
O151 C150 1.227 . S
N152 Co138 2.140 . S
N152 C155 1.346 . S
N152 C156 1.345 . S
C153 C154 1.387 . S
C153 C157 1.391 . S
C154 C153 1.387 . S
C154 C155 1.369 . S
C154 H163 0.929 . S
C155 N152 1.346 . S
C155 C154 1.369 . S
C155 H158 0.928 . S
C156 N152 1.345 . S
C156 C157 1.371 . S
C156 H159 0.931 . S
C157 C153 1.391 . S
C157 C156 1.371 . S
C157 H164 0.930 . S
H158 C155 0.928 . S
H159 C156 0.931 . S
H160 C136 0.930 . S
H161 C133 0.930 . S
H162 C142 0.930 . S
H163 C154 0.929 . S
H164 C157 0.930 . S
C165 C166 1.351 . S
C165 N168 1.368 . S
C165 H170 0.931 . S
C166 C165 1.351 . S
C166 N167 1.373 . S
C166 H194 0.930 . S
N167 C166 1.373 . S
N167 C169 1.340 . S
N168 C165 1.368 . S
N168 C169 1.321 . S
N168 Co171 2.135 . S
C169 N167 1.340 . S
C169 N168 1.321 . S
C169 H193 0.930 . S
H170 C165 0.931 . S
Co171 N168 2.135 . S
Co171 N174 2.121 . S
Co171 O179 2.055 . S
Co171 O182 2.039 . S
Co171 N185 2.140 . S
C172 O173 1.227 . S
C172 O182 1.265 . S
O173 C172 1.227 . S
N174 Co171 2.121 . S
N174 C176 1.375 . S
N174 C177 1.313 . S
C175 C176 1.338 . S
C175 N178 1.377 . S
C175 H195 0.930 . S
C176 N174 1.375 . S
C176 C175 1.338 . S
C176 H180 0.931 . S
C177 N174 1.313 . S
C177 N178 1.344 . S
C177 H181 0.930 . S
N178 C175 1.377 . S
N178 C177 1.344 . S
O179 Co171 2.055 . S
O179 C183 1.253 . S
H180 C176 0.931 . S
H181 C177 0.930 . S
O182 Co171 2.039 . S
O182 C172 1.265 . S
C183 O179 1.253 . S
C183 O184 1.227 . S
O184 C183 1.227 . S
N185 Co171 2.140 . S
N185 C188 1.346 . S
N185 C189 1.345 . S
C186 C187 1.387 . S
C186 C190 1.391 . S
C187 C186 1.387 . S
C187 C188 1.369 . S
C187 H196 0.929 . S
C188 N185 1.346 . S
C188 C187 1.369 . S
C188 H191 0.928 . S
C189 N185 1.345 . S
C189 C190 1.371 . S
C189 H192 0.931 . S
C190 C186 1.391 . S
C190 C189 1.371 . S
C190 H197 0.930 . S
H191 C188 0.928 . S
H192 C189 0.931 . S
H193 C169 0.930 . S
H194 C166 0.930 . S
H195 C175 0.930 . S
H196 C187 0.929 . S
H197 C190 0.930 . S
C198 C199 1.351 . S
C198 N201 1.368 . S
C198 H203 0.931 . S
C199 C198 1.351 . S
C199 N200 1.373 . S
C199 H227 0.930 . S
N200 C199 1.373 . S
N200 C202 1.340 . S
N201 C198 1.368 . S
N201 C202 1.321 . S
N201 Co204 2.135 . S
C202 N200 1.340 . S
C202 N201 1.321 . S
C202 H226 0.930 . S
H203 C198 0.931 . S
Co204 N201 2.135 . S
Co204 N207 2.121 . S
Co204 O212 2.055 . S
Co204 O215 2.039 . S
Co204 N218 2.140 . S
C205 O206 1.227 . S
C205 O215 1.265 . S
O206 C205 1.227 . S
N207 Co204 2.121 . S
N207 C209 1.375 . S
N207 C210 1.313 . S
C208 C209 1.338 . S
C208 N211 1.377 . S
C208 H228 0.930 . S
C209 N207 1.375 . S
C209 C208 1.338 . S
C209 H213 0.931 . S
C210 N207 1.313 . S
C210 N211 1.344 . S
C210 H214 0.930 . S
N211 C208 1.377 . S
N211 C210 1.344 . S
O212 Co204 2.055 . S
O212 C216 1.253 . S
H213 C209 0.931 . S
H214 C210 0.930 . S
O215 Co204 2.039 . S
O215 C205 1.265 . S
C216 O212 1.253 . S
C216 O217 1.227 . S
O217 C216 1.227 . S
N218 Co204 2.140 . S
N218 C221 1.346 . S
N218 C222 1.345 . S
C219 C220 1.387 . S
C219 C223 1.391 . S
C220 C219 1.387 . S
C220 C221 1.369 . S
C220 H229 0.929 . S
C221 N218 1.346 . S
C221 C220 1.369 . S
C221 H224 0.928 . S
C222 N218 1.345 . S
C222 C223 1.371 . S
C222 H225 0.931 . S
C223 C219 1.391 . S
C223 C222 1.371 . S
C223 H230 0.930 . S
H224 C221 0.928 . S
H225 C222 0.931 . S
H226 C202 0.930 . S
H227 C199 0.930 . S
H228 C208 0.930 . S
H229 C220 0.929 . S
H230 C223 0.930 . S
C231 C232 1.351 . S
C231 N234 1.368 . S
C231 H236 0.931 . S
C232 C231 1.351 . S
C232 N233 1.373 . S
C232 H260 0.930 . S
N233 C232 1.373 . S
N233 C235 1.340 . S
N234 C231 1.368 . S
N234 C235 1.321 . S
N234 Co237 2.135 . S
C235 N233 1.340 . S
C235 N234 1.321 . S
C235 H259 0.930 . S
H236 C231 0.931 . S
Co237 N234 2.135 . S
Co237 N240 2.121 . S
Co237 O245 2.055 . S
Co237 O248 2.039 . S
Co237 N251 2.140 . S
C238 O239 1.227 . S
C238 O248 1.265 . S
O239 C238 1.227 . S
N240 Co237 2.121 . S
N240 C242 1.375 . S
N240 C243 1.313 . S
C241 C242 1.338 . S
C241 N244 1.377 . S
C241 H261 0.930 . S
C242 N240 1.375 . S
C242 C241 1.338 . S
C242 H246 0.931 . S
C243 N240 1.313 . S
C243 N244 1.344 . S
C243 H247 0.930 . S
N244 C241 1.377 . S
N244 C243 1.344 . S
O245 Co237 2.055 . S
O245 C249 1.253 . S
H246 C242 0.931 . S
H247 C243 0.930 . S
O248 Co237 2.039 . S
O248 C238 1.265 . S
C249 O245 1.253 . S
C249 O250 1.227 . S
O250 C249 1.227 . S
N251 Co237 2.140 . S
N251 C254 1.346 . S
N251 C255 1.345 . S
C252 C253 1.387 . S
C252 C256 1.391 . S
C253 C252 1.387 . S
C253 C254 1.369 . S
C253 H262 0.929 . S
C254 N251 1.346 . S
C254 C253 1.369 . S
C254 H257 0.928 . S
C255 N251 1.345 . S
C255 C256 1.371 . S
C255 H258 0.931 . S
C256 C252 1.391 . S
C256 C255 1.371 . S
C256 H263 0.930 . S
H257 C254 0.928 . S
H258 C255 0.931 . S
H259 C235 0.930 . S
H260 C232 0.930 . S
H261 C241 0.930 . S
H262 C253 0.929 . S
H263 C256 0.930 . S
C264 C265 1.351 . S
C264 N267 1.368 . S
C264 H269 0.931 . S
C265 C264 1.351 . S
C265 N266 1.373 . S
C265 H293 0.930 . S
N266 C265 1.373 . S
N266 C268 1.340 . S
N267 C264 1.368 . S
N267 C268 1.321 . S
N267 Co270 2.135 . S
C268 N266 1.340 . S
C268 N267 1.321 . S
C268 H292 0.930 . S
H269 C264 0.931 . S
Co270 N267 2.135 . S
Co270 N273 2.121 . S
Co270 O278 2.055 . S
Co270 O281 2.039 . S
Co270 N284 2.140 . S
C271 O272 1.227 . S
C271 O281 1.265 . S
O272 C271 1.227 . S
N273 Co270 2.121 . S
N273 C275 1.375 . S
N273 C276 1.313 . S
C274 C275 1.338 . S
C274 N277 1.377 . S
C274 H294 0.930 1_655 S
C275 N273 1.375 . S
C275 C274 1.338 . S
C275 H279 0.931 . S
C276 N273 1.313 . S
C276 N277 1.344 . S
C276 H280 0.930 . S
N277 C274 1.377 . S
N277 C276 1.344 . S
O278 Co270 2.055 . S
O278 C282 1.253 . S
H279 C275 0.931 . S
H280 C276 0.930 . S
O281 Co270 2.039 . S
O281 C271 1.265 . S
C282 O278 1.253 . S
C282 O283 1.227 . S
O283 C282 1.227 . S
N284 Co270 2.140 . S
N284 C287 1.346 . S
N284 C288 1.345 . S
C285 C286 1.387 . S
C285 C289 1.391 . S
C286 C285 1.387 . S
C286 C287 1.369 . S
C286 H295 0.929 . S
C287 N284 1.346 . S
C287 C286 1.369 . S
C287 H290 0.928 . S
C288 N284 1.345 . S
C288 C289 1.371 . S
C288 H291 0.931 . S
C289 C285 1.391 . S
C289 C288 1.371 . S
C289 H296 0.930 . S
H290 C287 0.928 . S
H291 C288 0.931 . S
H292 C268 0.930 . S
H293 C265 0.930 . S
H294 C274 0.930 1_455 S
H295 C286 0.929 . S
H296 C289 0.930 . S
C297 C298 1.351 . S
C297 N300 1.368 . S
C297 H302 0.931 . S
C298 C297 1.351 . S
C298 N299 1.373 . S
C298 H326 0.930 . S
N299 C298 1.373 . S
N299 C301 1.340 . S
N300 C297 1.368 . S
N300 C301 1.321 . S
N300 Co303 2.135 . S
C301 N299 1.340 . S
C301 N300 1.321 . S
C301 H325 0.930 . S
H302 C297 0.931 . S
Co303 N300 2.135 . S
Co303 N306 2.121 . S
Co303 O311 2.055 . S
Co303 O314 2.039 . S
Co303 N317 2.140 . S
C304 O305 1.227 . S
C304 O314 1.265 . S
O305 C304 1.227 . S
N306 Co303 2.121 . S
N306 C308 1.375 . S
N306 C309 1.313 . S
C307 C308 1.338 . S
C307 N310 1.377 . S
C307 H327 0.930 1_565 S
C308 N306 1.375 . S
C308 C307 1.338 . S
C308 H312 0.931 . S
C309 N306 1.313 . S
C309 N310 1.344 . S
C309 H313 0.930 . S
N310 C307 1.377 . S
N310 C309 1.344 . S
O311 Co303 2.055 . S
O311 C315 1.253 . S
H312 C308 0.931 . S
H313 C309 0.930 . S
O314 Co303 2.039 . S
O314 C304 1.265 . S
C315 O311 1.253 . S
C315 O316 1.227 . S
O316 C315 1.227 . S
N317 Co303 2.140 . S
N317 C320 1.346 . S
N317 C321 1.345 . S
C318 C319 1.387 . S
C318 C322 1.391 . S
C319 C318 1.387 . S
C319 C320 1.369 . S
C319 H328 0.929 . S
C320 N317 1.346 . S
C320 C319 1.369 . S
C320 H323 0.928 . S
C321 N317 1.345 . S
C321 C322 1.371 . S
C321 H324 0.931 . S
C322 C318 1.391 . S
C322 C321 1.371 . S
C322 H329 0.930 . S
H323 C320 0.928 . S
H324 C321 0.931 . S
H325 C301 0.930 . S
H326 C298 0.930 . S
H327 C307 0.930 1_545 S
H328 C319 0.929 . S
H329 C322 0.930 . S
C330 C331 1.351 . S
C330 N333 1.368 . S
C330 H335 0.931 . S
C331 C330 1.351 . S
C331 N332 1.373 . S
C331 H359 0.930 . S
N332 C331 1.373 . S
N332 C334 1.340 . S
N333 C330 1.368 . S
N333 C334 1.321 . S
N333 Co336 2.135 . S
C334 N332 1.340 . S
C334 N333 1.321 . S
C334 H358 0.930 . S
H335 C330 0.931 . S
Co336 N333 2.135 . S
Co336 N339 2.121 . S
Co336 O344 2.055 . S
Co336 O347 2.039 . S
Co336 N350 2.140 . S
C337 O338 1.227 . S
C337 O347 1.265 . S
O338 C337 1.227 . S
N339 Co336 2.121 . S
N339 C341 1.375 . S
N339 C342 1.313 . S
C340 C341 1.338 . S
C340 N343 1.377 . S
C340 H360 0.930 1_455 S
C341 N339 1.375 . S
C341 C340 1.338 . S
C341 H345 0.931 . S
C342 N339 1.313 . S
C342 N343 1.344 . S
C342 H346 0.930 . S
N343 C340 1.377 . S
N343 C342 1.344 . S
O344 Co336 2.055 . S
O344 C348 1.253 . S
H345 C341 0.931 . S
H346 C342 0.930 . S
O347 Co336 2.039 . S
O347 C337 1.265 . S
C348 O344 1.253 . S
C348 O349 1.227 . S
O349 C348 1.227 . S
N350 Co336 2.140 . S
N350 C353 1.346 . S
N350 C354 1.345 . S
C351 C352 1.387 . S
C351 C355 1.391 . S
C352 C351 1.387 . S
C352 C353 1.369 . S
C352 H361 0.929 . S
C353 N350 1.346 . S
C353 C352 1.369 . S
C353 H356 0.928 . S
C354 N350 1.345 . S
C354 C355 1.371 . S
C354 H357 0.931 . S
C355 C351 1.391 . S
C355 C354 1.371 . S
C355 H362 0.930 . S
H356 C353 0.928 . S
H357 C354 0.931 . S
H358 C334 0.930 . S
H359 C331 0.930 . S
H360 C340 0.930 1_655 S
H361 C352 0.929 . S
H362 C355 0.930 . S
C363 C364 1.351 . S
C363 N366 1.368 . S
C363 H368 0.931 . S
C364 C363 1.351 . S
C364 N365 1.373 . S
C364 H392 0.930 . S
N365 C364 1.373 . S
N365 C367 1.340 . S
N366 C363 1.368 . S
N366 C367 1.321 . S
N366 Co369 2.135 . S
C367 N365 1.340 . S
C367 N366 1.321 . S
C367 H391 0.930 . S
H368 C363 0.931 . S
Co369 N366 2.135 . S
Co369 N372 2.121 . S
Co369 O377 2.055 . S
Co369 O380 2.039 . S
Co369 N383 2.140 . S
C370 O371 1.227 . S
C370 O380 1.265 . S
O371 C370 1.227 . S
N372 Co369 2.121 . S
N372 C374 1.375 . S
N372 C375 1.313 . S
C373 C374 1.338 . S
C373 N376 1.377 . S
C373 H393 0.930 1_545 S
C374 N372 1.375 . S
C374 C373 1.338 . S
C374 H378 0.931 . S
C375 N372 1.313 . S
C375 N376 1.344 . S
C375 H379 0.930 . S
N376 C373 1.377 . S
N376 C375 1.344 . S
O377 Co369 2.055 . S
O377 C381 1.253 . S
H378 C374 0.931 . S
H379 C375 0.930 . S
O380 Co369 2.039 . S
O380 C370 1.265 . S
C381 O377 1.253 . S
C381 O382 1.227 . S
O382 C381 1.227 . S
N383 Co369 2.140 . S
N383 C386 1.346 . S
N383 C387 1.345 . S
C384 C385 1.387 . S
C384 C388 1.391 . S
C385 C384 1.387 . S
C385 C386 1.369 . S
C385 H394 0.929 . S
C386 N383 1.346 . S
C386 C385 1.369 . S
C386 H389 0.928 . S
C387 N383 1.345 . S
C387 C388 1.371 . S
C387 H390 0.931 . S
C388 C384 1.391 . S
C388 C387 1.371 . S
C388 H395 0.930 . S
H389 C386 0.928 . S
H390 C387 0.931 . S
H391 C367 0.930 . S
H392 C364 0.930 . S
H393 C373 0.930 1_565 S
H394 C385 0.929 . S
H395 C388 0.930 . S
C396 C397 1.351 . S
C396 N399 1.368 . S
C396 H401 0.931 . S
C397 C396 1.351 . S
C397 N398 1.373 . S
C397 H425 0.930 . S
N398 C397 1.373 . S
N398 C400 1.340 . S
N399 C396 1.368 . S
N399 C400 1.321 . S
N399 Co402 2.135 . S
C400 N398 1.340 . S
C400 N399 1.321 . S
C400 H424 0.930 . S
H401 C396 0.931 . S
Co402 N399 2.135 . S
Co402 N405 2.121 . S
Co402 O410 2.055 . S
Co402 O413 2.039 . S
Co402 N416 2.140 . S
C403 O404 1.227 . S
C403 O413 1.265 . S
O404 C403 1.227 . S
N405 Co402 2.121 . S
N405 C407 1.375 . S
N405 C408 1.313 . S
C406 C407 1.338 . S
C406 N409 1.377 . S
C406 H426 0.930 1_655 S
C407 N405 1.375 . S
C407 C406 1.338 . S
C407 H411 0.931 . S
C408 N405 1.313 . S
C408 N409 1.344 . S
C408 H412 0.930 . S
N409 C406 1.377 . S
N409 C408 1.344 . S
O410 Co402 2.055 . S
O410 C414 1.253 . S
H411 C407 0.931 . S
H412 C408 0.930 . S
O413 Co402 2.039 . S
O413 C403 1.265 . S
C414 O410 1.253 . S
C414 O415 1.227 . S
O415 C414 1.227 . S
N416 Co402 2.140 . S
N416 C419 1.346 . S
N416 C420 1.345 . S
C417 C418 1.387 . S
C417 C421 1.391 . S
C418 C417 1.387 . S
C418 C419 1.369 . S
C418 H427 0.929 . S
C419 N416 1.346 . S
C419 C418 1.369 . S
C419 H422 0.928 . S
C420 N416 1.345 . S
C420 C421 1.371 . S
C420 H423 0.931 . S
C421 C417 1.391 . S
C421 C420 1.371 . S
C421 H428 0.930 . S
H422 C419 0.928 . S
H423 C420 0.931 . S
H424 C400 0.930 . S
H425 C397 0.930 . S
H426 C406 0.930 1_455 S
H427 C418 0.929 . S
H428 C421 0.930 . S
C429 C430 1.351 . S
C429 N432 1.368 . S
C429 H434 0.931 . S
C430 C429 1.351 . S
C430 N431 1.373 . S
C430 H458 0.930 . S
N431 C430 1.373 . S
N431 C433 1.340 . S
N432 C429 1.368 . S
N432 C433 1.321 . S
N432 Co435 2.135 . S
C433 N431 1.340 . S
C433 N432 1.321 . S
C433 H457 0.930 . S
H434 C429 0.931 . S
Co435 N432 2.135 . S
Co435 N438 2.121 . S
Co435 O443 2.055 . S
Co435 O446 2.039 . S
Co435 N449 2.140 . S
C436 O437 1.227 . S
C436 O446 1.265 . S
O437 C436 1.227 . S
N438 Co435 2.121 . S
N438 C440 1.375 . S
N438 C441 1.313 . S
C439 C440 1.338 . S
C439 N442 1.377 . S
C439 H459 0.930 1_565 S
C440 N438 1.375 . S
C440 C439 1.338 . S
C440 H444 0.931 . S
C441 N438 1.313 . S
C441 N442 1.344 . S
C441 H445 0.930 . S
N442 C439 1.377 . S
N442 C441 1.344 . S
O443 Co435 2.055 . S
O443 C447 1.253 . S
H444 C440 0.931 . S
H445 C441 0.930 . S
O446 Co435 2.039 . S
O446 C436 1.265 . S
C447 O443 1.253 . S
C447 O448 1.227 . S
O448 C447 1.227 . S
N449 Co435 2.140 . S
N449 C452 1.346 . S
N449 C453 1.345 . S
C450 C451 1.387 . S
C450 C454 1.391 . S
C451 C450 1.387 . S
C451 C452 1.369 . S
C451 H460 0.929 . S
C452 N449 1.346 . S
C452 C451 1.369 . S
C452 H455 0.928 . S
C453 N449 1.345 . S
C453 C454 1.371 . S
C453 H456 0.931 . S
C454 C450 1.391 . S
C454 C453 1.371 . S
C454 H461 0.930 . S
H455 C452 0.928 . S
H456 C453 0.931 . S
H457 C433 0.930 . S
H458 C430 0.930 . S
H459 C439 0.930 1_545 S
H460 C451 0.929 . S
H461 C454 0.930 . S
C462 C463 1.351 . S
C462 N465 1.368 . S
C462 H467 0.931 . S
C463 C462 1.351 . S
C463 N464 1.373 . S
C463 H491 0.930 . S
N464 C463 1.373 . S
N464 C466 1.340 . S
N465 C462 1.368 . S
N465 C466 1.321 . S
N465 Co468 2.135 . S
C466 N464 1.340 . S
C466 N465 1.321 . S
C466 H490 0.930 . S
H467 C462 0.931 . S
Co468 N465 2.135 . S
Co468 N471 2.121 . S
Co468 O476 2.055 . S
Co468 O479 2.039 . S
Co468 N482 2.140 . S
C469 O470 1.227 . S
C469 O479 1.265 . S
O470 C469 1.227 . S
N471 Co468 2.121 . S
N471 C473 1.375 . S
N471 C474 1.313 . S
C472 C473 1.338 . S
C472 N475 1.377 . S
C472 H492 0.930 1_455 S
C473 N471 1.375 . S
C473 C472 1.338 . S
C473 H477 0.931 . S
C474 N471 1.313 . S
C474 N475 1.344 . S
C474 H478 0.930 . S
N475 C472 1.377 . S
N475 C474 1.344 . S
O476 Co468 2.055 . S
O476 C480 1.253 . S
H477 C473 0.931 . S
H478 C474 0.930 . S
O479 Co468 2.039 . S
O479 C469 1.265 . S
C480 O476 1.253 . S
C480 O481 1.227 . S
O481 C480 1.227 . S
N482 Co468 2.140 . S
N482 C485 1.346 . S
N482 C486 1.345 . S
C483 C484 1.387 . S
C483 C487 1.391 . S
C484 C483 1.387 . S
C484 C485 1.369 . S
C484 H493 0.929 . S
C485 N482 1.346 . S
C485 C484 1.369 . S
C485 H488 0.928 . S
C486 N482 1.345 . S
C486 C487 1.371 . S
C486 H489 0.931 . S
C487 C483 1.391 . S
C487 C486 1.371 . S
C487 H494 0.930 . S
H488 C485 0.928 . S
H489 C486 0.931 . S
H490 C466 0.930 . S
H491 C463 0.930 . S
H492 C472 0.930 1_655 S
H493 C484 0.929 . S
H494 C487 0.930 . S
C495 C496 1.351 . S
C495 N498 1.368 . S
C495 H500 0.931 . S
C496 C495 1.351 . S
C496 N497 1.373 . S
C496 H524 0.930 . S
N497 C496 1.373 . S
N497 C499 1.340 . S
N498 C495 1.368 . S
N498 C499 1.321 . S
N498 Co501 2.135 . S
C499 N497 1.340 . S
C499 N498 1.321 . S
C499 H523 0.930 . S
H500 C495 0.931 . S
Co501 N498 2.135 . S
Co501 N504 2.121 . S
Co501 O509 2.055 . S
Co501 O512 2.039 . S
Co501 N515 2.140 . S
C502 O503 1.227 . S
C502 O512 1.265 . S
O503 C502 1.227 . S
N504 Co501 2.121 . S
N504 C506 1.375 . S
N504 C507 1.313 . S
C505 C506 1.338 . S
C505 N508 1.377 . S
C505 H525 0.930 1_545 S
C506 N504 1.375 . S
C506 C505 1.338 . S
C506 H510 0.931 . S
C507 N504 1.313 . S
C507 N508 1.344 . S
C507 H511 0.930 . S
N508 C505 1.377 . S
N508 C507 1.344 . S
O509 Co501 2.055 . S
O509 C513 1.253 . S
H510 C506 0.931 . S
H511 C507 0.930 . S
O512 Co501 2.039 . S
O512 C502 1.265 . S
C513 O509 1.253 . S
C513 O514 1.227 . S
O514 C513 1.227 . S
N515 Co501 2.140 . S
N515 C518 1.346 . S
N515 C519 1.345 . S
C516 C517 1.387 . S
C516 C520 1.391 . S
C517 C516 1.387 . S
C517 C518 1.369 . S
C517 H526 0.929 . S
C518 N515 1.346 . S
C518 C517 1.369 . S
C518 H521 0.928 . S
C519 N515 1.345 . S
C519 C520 1.371 . S
C519 H522 0.931 . S
C520 C516 1.391 . S
C520 C519 1.371 . S
C520 H527 0.930 . S
H521 C518 0.928 . S
H522 C519 0.931 . S
H523 C499 0.930 . S
H524 C496 0.930 . S
H525 C505 0.930 1_565 S
H526 C517 0.929 . S
H527 C520 0.930 . S
C528 C529 1.369 . S
C528 C530 1.419 1_655 S
C528 H532 0.930 . S
C529 C528 1.369 . S
C529 C538 1.429 . S
C530 C528 1.419 1_455 S
C530 C531 1.363 . S
C530 H533 0.929 . S
C531 C530 1.363 . S
C531 C537 1.428 . S
H532 C528 0.930 . S
H533 C530 0.929 . S
S534 N535 1.613 1_455 S
S534 N536 1.610 . S
N535 S534 1.613 1_655 S
N535 C538 1.350 . S
N536 S534 1.610 . S
N536 C537 1.351 . S
C537 C531 1.428 . S
C537 N536 1.351 . S
C537 C538 1.434 1_455 S
C538 C529 1.429 . S
C538 N535 1.350 . S
C538 C537 1.434 1_655 S
C539 C540 1.369 . S
C539 C541 1.419 1_545 S
C539 H543 0.930 . S
C540 C539 1.369 . S
C540 C549 1.429 . S
C541 C539 1.419 1_565 S
C541 C542 1.363 . S
C541 H544 0.929 . S
C542 C541 1.363 . S
C542 C548 1.428 . S
H543 C539 0.930 . S
H544 C541 0.929 . S
S545 N546 1.613 . S
S545 N547 1.610 1_545 S
N546 S545 1.613 . S
N546 C549 1.350 . S
N547 S545 1.610 1_565 S
N547 C548 1.351 . S
C548 C542 1.428 . S
C548 N547 1.351 . S
C548 C549 1.434 1_565 S
C549 C540 1.429 . S
C549 N546 1.350 . S
C549 C548 1.434 1_545 S
C550 C551 1.369 . S
C550 C552 1.419 1_655 S
C550 H554 0.930 . S
C551 C550 1.369 . S
C551 C560 1.429 . S
C552 C550 1.419 1_455 S
C552 C553 1.363 . S
C552 H555 0.929 . S
C553 C552 1.363 . S
C553 C559 1.428 . S
H554 C550 0.930 . S
H555 C552 0.929 . S
S556 N557 1.613 . S
S556 N558 1.610 1_655 S
N557 S556 1.613 . S
N557 C560 1.350 . S
N558 S556 1.610 1_455 S
N558 C559 1.351 . S
C559 C553 1.428 . S
C559 N558 1.351 . S
C559 C560 1.434 1_455 S
C560 C551 1.429 . S
C560 N557 1.350 . S
C560 C559 1.434 1_655 S
C561 C562 1.369 . S
C561 C563 1.419 1_565 S
C561 H565 0.930 . S
C562 C561 1.369 . S
C562 C571 1.429 . S
C563 C561 1.419 1_545 S
C563 C564 1.363 . S
C563 H566 0.929 . S
C564 C563 1.363 . S
C564 C570 1.428 . S
H565 C561 0.930 . S
H566 C563 0.929 . S
S567 N568 1.613 . S
S567 N569 1.610 1_565 S
N568 S567 1.613 . S
N568 C571 1.350 . S
N569 S567 1.610 1_545 S
N569 C570 1.351 . S
C570 C564 1.428 . S
C570 N569 1.351 . S
C570 C571 1.434 1_545 S
C571 C562 1.429 . S
C571 N568 1.350 . S
C571 C570 1.434 1_565 S
C572 C573 1.369 . S
C572 C574 1.419 . S
C572 H576 0.930 . S
C573 C572 1.369 . S
C573 C582 1.429 1_655 S
C574 C572 1.419 . S
C574 C575 1.363 1_655 S
C574 H577 0.929 . S
C575 C574 1.363 1_455 S
C575 C581 1.428 . S
H576 C572 0.930 . S
H577 C574 0.929 . S
S578 N579 1.613 . S
S578 N580 1.610 . S
N579 S578 1.613 . S
N579 C582 1.350 . S
N580 S578 1.610 . S
N580 C581 1.351 . S
C581 C575 1.428 . S
C581 N580 1.351 . S
C581 C582 1.434 . S
C582 C573 1.429 1_455 S
C582 N579 1.350 . S
C582 C581 1.434 . S
C583 C584 1.369 . S
C583 C585 1.419 . S
C583 H587 0.930 . S
C584 C583 1.369 . S
C584 C593 1.429 1_565 S
C585 C583 1.419 . S
C585 C586 1.363 1_565 S
C585 H588 0.929 . S
C586 C585 1.363 1_545 S
C586 C592 1.428 . S
H587 C583 0.930 . S
H588 C585 0.929 . S
S589 N590 1.613 . S
S589 N591 1.610 . S
N590 S589 1.613 . S
N590 C593 1.350 . S
N591 S589 1.610 . S
N591 C592 1.351 . S
C592 C586 1.428 . S
C592 N591 1.351 . S
C592 C593 1.434 . S
C593 C584 1.429 1_545 S
C593 N590 1.350 . S
C593 C592 1.434 . S
C594 C595 1.369 . S
C594 C596 1.419 . S
C594 H598 0.930 . S
C595 C594 1.369 . S
C595 C604 1.429 1_655 S
C596 C594 1.419 . S
C596 C597 1.363 1_655 S
C596 H599 0.929 . S
C597 C596 1.363 1_455 S
C597 C603 1.428 . S
H598 C594 0.930 . S
H599 C596 0.929 . S
S600 N601 1.613 . S
S600 N602 1.610 . S
N601 S600 1.613 . S
N601 C604 1.350 . S
N602 S600 1.610 . S
N602 C603 1.351 . S
C603 C597 1.428 . S
C603 N602 1.351 . S
C603 C604 1.434 . S
C604 C595 1.429 1_455 S
C604 N601 1.350 . S
C604 C603 1.434 . S
C605 C606 1.369 1_565 S
C605 C607 1.419 . S
C605 H609 0.930 . S
C606 C605 1.369 1_545 S
C606 C615 1.429 . S
C607 C605 1.419 . S
C607 C608 1.363 . S
C607 H610 0.929 . S
C608 C607 1.363 . S
C608 C614 1.428 1_565 S
H609 C605 0.930 . S
H610 C607 0.929 . S
S611 N612 1.613 . S
S611 N613 1.610 . S
N612 S611 1.613 . S
N612 C615 1.350 . S
N613 S611 1.610 . S
N613 C614 1.351 . S
C614 C608 1.428 1_545 S
C614 N613 1.351 . S
C614 C615 1.434 . S
C615 C606 1.429 . S
C615 N612 1.350 . S
C615 C614 1.434 . S
C616 C617 1.369 . S
C616 C618 1.419 . S
C616 H620 0.930 . S
C617 C616 1.369 . S
C617 C626 1.429 . S
C618 C616 1.419 . S
C618 C619 1.363 . S
C618 H621 0.929 . S
C619 C618 1.363 . S
C619 C625 1.428 . S
H620 C616 0.930 . S
H621 C618 0.929 . S
S622 N623 1.613 . S
S622 N624 1.610 . S
N623 S622 1.613 . S
N623 C626 1.350 . S
N624 S622 1.610 . S
N624 C625 1.351 . S
C625 C619 1.428 . S
C625 N624 1.351 . S
C625 C626 1.434 . S
C626 C617 1.429 . S
C626 N623 1.350 . S
C626 C625 1.434 . S
C627 C628 1.369 . S
C627 C629 1.419 . S
C627 H631 0.930 . S
C628 C627 1.369 . S
C628 C637 1.429 . S
C629 C627 1.419 . S
C629 C630 1.363 . S
C629 H632 0.929 . S
C630 C629 1.363 . S
C630 C636 1.428 . S
H631 C627 0.930 . S
H632 C629 0.929 . S
S633 N634 1.613 . S
S633 N635 1.610 . S
N634 S633 1.613 . S
N634 C637 1.350 . S
N635 S633 1.610 . S
N635 C636 1.351 . S
C636 C630 1.428 . S
C636 N635 1.351 . S
C636 C637 1.434 . S
C637 C628 1.429 . S
C637 N634 1.350 . S
C637 C636 1.434 . S
C638 C639 1.369 . S
C638 C640 1.419 . S
C638 H642 0.930 . S
C639 C638 1.369 . S
C639 C648 1.429 . S
C640 C638 1.419 . S
C640 C641 1.363 . S
C640 H643 0.929 . S
C641 C640 1.363 . S
C641 C647 1.428 . S
H642 C638 0.930 . S
H643 C640 0.929 . S
S644 N645 1.613 . S
S644 N646 1.610 . S
N645 S644 1.613 . S
N645 C648 1.350 . S
N646 S644 1.610 . S
N646 C647 1.351 . S
C647 C641 1.428 . S
C647 N646 1.351 . S
C647 C648 1.434 . S
C648 C639 1.429 . S
C648 N645 1.350 . S
C648 C647 1.434 . S
C649 C650 1.369 . S
C649 C651 1.419 . S
C649 H653 0.930 . S
C650 C649 1.369 . S
C650 C659 1.429 . S
C651 C649 1.419 . S
C651 C652 1.363 . S
C651 H654 0.929 . S
C652 C651 1.363 . S
C652 C658 1.428 . S
H653 C649 0.930 . S
H654 C651 0.929 . S
S655 N656 1.613 . S
S655 N657 1.610 . S
N656 S655 1.613 . S
N656 C659 1.350 . S
N657 S655 1.610 . S
N657 C658 1.351 . S
C658 C652 1.428 . S
C658 N657 1.351 . S
C658 C659 1.434 . S
C659 C650 1.429 . S
C659 N656 1.350 . S
C659 C658 1.434 . S
C660 C661 1.369 . S
C660 C662 1.419 . S
C660 H664 0.930 . S
C661 C660 1.369 . S
C661 C670 1.429 . S
C662 C660 1.419 . S
C662 C663 1.363 . S
C662 H665 0.929 . S
C663 C662 1.363 . S
C663 C669 1.428 . S
H664 C660 0.930 . S
H665 C662 0.929 . S
S666 N667 1.613 . S
S666 N668 1.610 . S
N667 S666 1.613 . S
N667 C670 1.350 . S
N668 S666 1.610 . S
N668 C669 1.351 . S
C669 C663 1.428 . S
C669 N668 1.351 . S
C669 C670 1.434 . S
C670 C661 1.429 . S
C670 N667 1.350 . S
C670 C669 1.434 . S
C671 C672 1.369 . S
C671 C673 1.419 . S
C671 H675 0.930 . S
C672 C671 1.369 . S
C672 C681 1.429 . S
C673 C671 1.419 . S
C673 C674 1.363 . S
C673 H676 0.929 . S
C674 C673 1.363 . S
C674 C680 1.428 . S
H675 C671 0.930 . S
H676 C673 0.929 . S
S677 N678 1.613 . S
S677 N679 1.610 . S
N678 S677 1.613 . S
N678 C681 1.350 . S
N679 S677 1.610 . S
N679 C680 1.351 . S
C680 C674 1.428 . S
C680 N679 1.351 . S
C680 C681 1.434 . S
C681 C672 1.429 . S
C681 N678 1.350 . S
C681 C680 1.434 . S
C682 C683 1.369 . S
C682 C684 1.419 . S
C682 H686 0.930 . S
C683 C682 1.369 . S
C683 C692 1.429 . S
C684 C682 1.419 . S
C684 C685 1.363 . S
C684 H687 0.929 . S
C685 C684 1.363 . S
C685 C691 1.428 . S
H686 C682 0.930 . S
H687 C684 0.929 . S
S688 N689 1.613 . S
S688 N690 1.610 . S
N689 S688 1.613 . S
N689 C692 1.350 . S
N690 S688 1.610 . S
N690 C691 1.351 . S
C691 C685 1.428 . S
C691 N690 1.351 . S
C691 C692 1.434 . S
C692 C683 1.429 . S
C692 N689 1.350 . S
C692 C691 1.434 . S
C693 C694 1.369 . S
C693 C695 1.419 . S
C693 H697 0.930 . S
C694 C693 1.369 . S
C694 C703 1.429 . S
C695 C693 1.419 . S
C695 C696 1.363 . S
C695 H698 0.929 . S
C696 C695 1.363 . S
C696 C702 1.428 . S
H697 C693 0.930 . S
H698 C695 0.929 . S
S699 N700 1.613 . S
S699 N701 1.610 . S
N700 S699 1.613 . S
N700 C703 1.350 . S
N701 S699 1.610 . S
N701 C702 1.351 . S
C702 C696 1.428 . S
C702 N701 1.351 . S
C702 C703 1.434 . S
C703 C694 1.429 . S
C703 N700 1.350 . S
C703 C702 1.434 . S
C704 C705 1.369 . S
C704 C706 1.419 1_554 S
C704 H708 0.930 . S
C705 C704 1.369 . S
C705 C714 1.429 . S
C706 C704 1.419 1_556 S
C706 C707 1.363 . S
C706 H709 0.929 . S
C707 C706 1.363 . S
C707 C713 1.428 . S
H708 C704 0.930 . S
H709 C706 0.929 . S
S710 N711 1.613 1_556 S
S710 N712 1.610 . S
N711 S710 1.613 1_554 S
N711 C714 1.350 . S
N712 S710 1.610 . S
N712 C713 1.351 . S
C713 C707 1.428 . S
C713 N712 1.351 . S
C713 C714 1.434 1_556 S
C714 C705 1.429 . S
C714 N711 1.350 . S
C714 C713 1.434 1_554 S
C715 C716 1.369 . S
C715 C717 1.419 1_556 S
C715 H719 0.930 . S
C716 C715 1.369 . S
C716 C725 1.429 . S
C717 C715 1.419 1_554 S
C717 C718 1.363 . S
C717 H720 0.929 . S
C718 C717 1.363 . S
C718 C724 1.428 . S
H719 C715 0.930 . S
H720 C717 0.929 . S
S721 N722 1.613 1_554 S
S721 N723 1.610 . S
N722 S721 1.613 1_556 S
N722 C725 1.350 . S
N723 S721 1.610 . S
N723 C724 1.351 . S
C724 C718 1.428 . S
C724 N723 1.351 . S
C724 C725 1.434 1_554 S
C725 C716 1.429 . S
C725 N722 1.350 . S
C725 C724 1.434 1_556 S
C726 C727 1.369 . S
C726 C728 1.419 1_556 S
C726 H730 0.930 . S
C727 C726 1.369 . S
C727 C736 1.429 . S
C728 C726 1.419 1_554 S
C728 C729 1.363 . S
C728 H731 0.929 . S
C729 C728 1.363 . S
C729 C735 1.428 . S
H730 C726 0.930 . S
H731 C728 0.929 . S
S732 N733 1.613 1_554 S
S732 N734 1.610 . S
N733 S732 1.613 1_556 S
N733 C736 1.350 . S
N734 S732 1.610 . S
N734 C735 1.351 . S
C735 C729 1.428 . S
C735 N734 1.351 . S
C735 C736 1.434 1_554 S
C736 C727 1.429 . S
C736 N733 1.350 . S
C736 C735 1.434 1_556 S
C737 C738 1.369 . S
C737 C739 1.419 1_556 S
C737 H741 0.930 . S
C738 C737 1.369 . S
C738 C747 1.429 . S
C739 C737 1.419 1_554 S
C739 C740 1.363 . S
C739 H742 0.929 . S
C740 C739 1.363 . S
C740 C746 1.428 . S
H741 C737 0.930 . S
H742 C739 0.929 . S
S743 N744 1.613 1_554 S
S743 N745 1.610 . S
N744 S743 1.613 1_556 S
N744 C747 1.350 . S
N745 S743 1.610 . S
N745 C746 1.351 . S
C746 C740 1.428 . S
C746 N745 1.351 . S
C746 C747 1.434 1_554 S
C747 C738 1.429 . S
C747 N744 1.350 . S
C747 C746 1.434 1_556 S
C748 C749 1.369 . S
C748 C750 1.419 . S
C748 H752 0.930 . S
C749 C748 1.369 . S
C749 C758 1.429 . S
C750 C748 1.419 . S
C750 C751 1.363 . S
C750 H753 0.929 . S
C751 C750 1.363 . S
C751 C757 1.428 . S
H752 C748 0.930 . S
H753 C750 0.929 . S
S754 N755 1.613 . S
S754 N756 1.610 . S
N755 S754 1.613 . S
N755 C758 1.350 . S
N756 S754 1.610 . S
N756 C757 1.351 . S
C757 C751 1.428 . S
C757 N756 1.351 . S
C757 C758 1.434 . S
C758 C749 1.429 . S
C758 N755 1.350 . S
C758 C757 1.434 . S
C759 C760 1.369 . S
C759 C761 1.419 . S
C759 H763 0.930 . S
C760 C759 1.369 . S
C760 C769 1.429 . S
C761 C759 1.419 . S
C761 C762 1.363 . S
C761 H764 0.929 . S
C762 C761 1.363 . S
C762 C768 1.428 . S
H763 C759 0.930 . S
H764 C761 0.929 . S
S765 N766 1.613 . S
S765 N767 1.610 . S
N766 S765 1.613 . S
N766 C769 1.350 . S
N767 S765 1.610 . S
N767 C768 1.351 . S
C768 C762 1.428 . S
C768 N767 1.351 . S
C768 C769 1.434 . S
C769 C760 1.429 . S
C769 N766 1.350 . S
C769 C768 1.434 . S
C770 C771 1.369 . S
C770 C772 1.419 . S
C770 H774 0.930 . S
C771 C770 1.369 . S
C771 C780 1.429 . S
C772 C770 1.419 . S
C772 C773 1.363 . S
C772 H775 0.929 . S
C773 C772 1.363 . S
C773 C779 1.428 . S
H774 C770 0.930 . S
H775 C772 0.929 . S
S776 N777 1.613 . S
S776 N778 1.610 . S
N777 S776 1.613 . S
N777 C780 1.350 . S
N778 S776 1.610 . S
N778 C779 1.351 . S
C779 C773 1.428 . S
C779 N778 1.351 . S
C779 C780 1.434 . S
C780 C771 1.429 . S
C780 N777 1.350 . S
C780 C779 1.434 . S
C781 C782 1.369 . S
C781 C783 1.419 . S
C781 H785 0.930 . S
C782 C781 1.369 . S
C782 C791 1.429 . S
C783 C781 1.419 . S
C783 C784 1.363 . S
C783 H786 0.929 . S
C784 C783 1.363 . S
C784 C790 1.428 . S
H785 C781 0.930 . S
H786 C783 0.929 . S
S787 N788 1.613 . S
S787 N789 1.610 . S
N788 S787 1.613 . S
N788 C791 1.350 . S
N789 S787 1.610 . S
N789 C790 1.351 . S
C790 C784 1.428 . S
C790 N789 1.351 . S
C790 C791 1.434 . S
C791 C782 1.429 . S
C791 N788 1.350 . S
C791 C790 1.434 . S
C792 C793 1.369 . S
C792 C794 1.419 . S
C792 H796 0.930 . S
C793 C792 1.369 . S
C793 C802 1.429 . S
C794 C792 1.419 . S
C794 C795 1.363 . S
C794 H797 0.929 . S
C795 C794 1.363 . S
C795 C801 1.428 . S
H796 C792 0.930 . S
H797 C794 0.929 . S
S798 N799 1.613 . S
S798 N800 1.610 . S
N799 S798 1.613 . S
N799 C802 1.350 . S
N800 S798 1.610 . S
N800 C801 1.351 . S
C801 C795 1.428 . S
C801 N800 1.351 . S
C801 C802 1.434 . S
C802 C793 1.429 . S
C802 N799 1.350 . S
C802 C801 1.434 . S
C803 C804 1.369 . S
C803 C805 1.419 . S
C803 H807 0.930 . S
C804 C803 1.369 . S
C804 C813 1.429 . S
C805 C803 1.419 . S
C805 C806 1.363 . S
C805 H808 0.929 . S
C806 C805 1.363 . S
C806 C812 1.428 . S
H807 C803 0.930 . S
H808 C805 0.929 . S
S809 N810 1.613 . S
S809 N811 1.610 . S
N810 S809 1.613 . S
N810 C813 1.350 . S
N811 S809 1.610 . S
N811 C812 1.351 . S
C812 C806 1.428 . S
C812 N811 1.351 . S
C812 C813 1.434 . S
C813 C804 1.429 . S
C813 N810 1.350 . S
C813 C812 1.434 . S
C814 C815 1.369 . S
C814 C816 1.419 . S
C814 H818 0.930 . S
C815 C814 1.369 . S
C815 C824 1.429 . S
C816 C814 1.419 . S
C816 C817 1.363 . S
C816 H819 0.929 . S
C817 C816 1.363 . S
C817 C823 1.428 . S
H818 C814 0.930 . S
H819 C816 0.929 . S
S820 N821 1.613 . S
S820 N822 1.610 . S
N821 S820 1.613 . S
N821 C824 1.350 . S
N822 S820 1.610 . S
N822 C823 1.351 . S
C823 C817 1.428 . S
C823 N822 1.351 . S
C823 C824 1.434 . S
C824 C815 1.429 . S
C824 N821 1.350 . S
C824 C823 1.434 . S
C825 C826 1.369 . S
C825 C827 1.419 . S
C825 H829 0.930 . S
C826 C825 1.369 . S
C826 C835 1.429 . S
C827 C825 1.419 . S
C827 C828 1.363 . S
C827 H830 0.929 . S
C828 C827 1.363 . S
C828 C834 1.428 . S
H829 C825 0.930 . S
H830 C827 0.929 . S
S831 N832 1.613 . S
S831 N833 1.610 . S
N832 S831 1.613 . S
N832 C835 1.350 . S
N833 S831 1.610 . S
N833 C834 1.351 . S
C834 C828 1.428 . S
C834 N833 1.351 . S
C834 C835 1.434 . S
C835 C826 1.429 . S
C835 N832 1.350 . S
C835 C834 1.434 . S
C836 C837 1.369 . S
C836 C838 1.419 . S
C836 H840 0.930 . S
C837 C836 1.369 . S
C837 C846 1.429 . S
C838 C836 1.419 . S
C838 C839 1.363 . S
C838 H841 0.929 . S
C839 C838 1.363 . S
C839 C845 1.428 . S
H840 C836 0.930 . S
H841 C838 0.929 . S
S842 N843 1.613 . S
S842 N844 1.610 . S
N843 S842 1.613 . S
N843 C846 1.350 . S
N844 S842 1.610 . S
N844 C845 1.351 . S
C845 C839 1.428 . S
C845 N844 1.351 . S
C845 C846 1.434 . S
C846 C837 1.429 . S
C846 N843 1.350 . S
C846 C845 1.434 . S
C847 C848 1.369 . S
C847 C849 1.419 . S
C847 H851 0.930 . S
C848 C847 1.369 . S
C848 C857 1.429 . S
C849 C847 1.419 . S
C849 C850 1.363 . S
C849 H852 0.929 . S
C850 C849 1.363 . S
C850 C856 1.428 . S
H851 C847 0.930 . S
H852 C849 0.929 . S
S853 N854 1.613 . S
S853 N855 1.610 . S
N854 S853 1.613 . S
N854 C857 1.350 . S
N855 S853 1.610 . S
N855 C856 1.351 . S
C856 C850 1.428 . S
C856 N855 1.351 . S
C856 C857 1.434 . S
C857 C848 1.429 . S
C857 N854 1.350 . S
C857 C856 1.434 . S
C858 C859 1.369 . S
C858 C860 1.419 . S
C858 H862 0.930 . S
C859 C858 1.369 . S
C859 C868 1.429 . S
C860 C858 1.419 . S
C860 C861 1.363 . S
C860 H863 0.929 . S
C861 C860 1.363 . S
C861 C867 1.428 . S
H862 C858 0.930 . S
H863 C860 0.929 . S
S864 N865 1.613 . S
S864 N866 1.610 . S
N865 S864 1.613 . S
N865 C868 1.350 . S
N866 S864 1.610 . S
N866 C867 1.351 . S
C867 C861 1.428 . S
C867 N866 1.351 . S
C867 C868 1.434 . S
C868 C859 1.429 . S
C868 N865 1.350 . S
C868 C867 1.434 . S
C869 C870 1.369 . S
C869 C871 1.419 . S
C869 H873 0.930 . S
C870 C869 1.369 . S
C870 C879 1.429 . S
C871 C869 1.419 . S
C871 C872 1.363 . S
C871 H874 0.929 . S
C872 C871 1.363 . S
C872 C878 1.428 . S
H873 C869 0.930 . S
H874 C871 0.929 . S
S875 N876 1.613 . S
S875 N877 1.610 . S
N876 S875 1.613 . S
N876 C879 1.350 . S
N877 S875 1.610 . S
N877 C878 1.351 . S
C878 C872 1.428 . S
C878 N877 1.351 . S
C878 C879 1.434 . S
C879 C870 1.429 . S
C879 N876 1.350 . S
C879 C878 1.434 . S
C880 C881 1.369 . S
C880 C882 1.419 . S
C880 H884 0.930 . S
C881 C880 1.369 . S
C881 C890 1.429 1_545 S
C882 C880 1.419 . S
C882 C883 1.363 1_545 S
C882 H885 0.929 . S
C883 C882 1.363 1_565 S
C883 C889 1.428 . S
H884 C880 0.930 . S
H885 C882 0.929 . S
S886 N887 1.613 . S
S886 N888 1.610 . S
N887 S886 1.613 . S
N887 C890 1.350 . S
N888 S886 1.610 . S
N888 C889 1.351 . S
C889 C883 1.428 . S
C889 N888 1.351 . S
C889 C890 1.434 . S
C890 C881 1.429 1_565 S
C890 N887 1.350 . S
C890 C889 1.434 . S
C891 C892 1.369 1_455 S
C891 C893 1.419 . S
C891 H895 0.930 . S
C892 C891 1.369 1_655 S
C892 C901 1.429 . S
C893 C891 1.419 . S
C893 C894 1.363 . S
C893 H896 0.929 . S
C894 C893 1.363 . S
C894 C900 1.428 1_455 S
H895 C891 0.930 . S
H896 C893 0.929 . S
S897 N898 1.613 . S
S897 N899 1.610 . S
N898 S897 1.613 . S
N898 C901 1.350 . S
N899 S897 1.610 . S
N899 C900 1.351 . S
C900 C894 1.428 1_655 S
C900 N899 1.351 . S
C900 C901 1.434 . S
C901 C892 1.429 . S
C901 N898 1.350 . S
C901 C900 1.434 . S
C902 C903 1.369 . S
C902 C904 1.419 1_545 S
C902 H906 0.930 . S
C903 C902 1.369 . S
C903 C912 1.429 . S
C904 C902 1.419 1_565 S
C904 C905 1.363 . S
C904 H907 0.929 . S
C905 C904 1.363 . S
C905 C911 1.428 . S
H906 C902 0.930 . S
H907 C904 0.929 . S
S908 N909 1.613 1_565 S
S908 N910 1.610 . S
N909 S908 1.613 1_545 S
N909 C912 1.350 . S
N910 S908 1.610 . S
N910 C911 1.351 . S
C911 C905 1.428 . S
C911 N910 1.351 . S
C911 C912 1.434 1_565 S
C912 C903 1.429 . S
C912 N909 1.350 . S
C912 C911 1.434 1_545 S
C913 C914 1.369 . S
C913 C915 1.419 . S
C913 H917 0.930 . S
C914 C913 1.369 . S
C914 C923 1.429 1_655 S
C915 C913 1.419 . S
C915 C916 1.363 1_655 S
C915 H918 0.929 . S
C916 C915 1.363 1_455 S
C916 C922 1.428 . S
H917 C913 0.930 . S
H918 C915 0.929 . S
S919 N920 1.613 . S
S919 N921 1.610 . S
N920 S919 1.613 . S
N920 C923 1.350 . S
N921 S919 1.610 . S
N921 C922 1.351 . S
C922 C916 1.428 . S
C922 N921 1.351 . S
C922 C923 1.434 . S
C923 C914 1.429 1_455 S
C923 N920 1.350 . S
C923 C922 1.434 . S
C924 C925 1.369 . S
C924 C926 1.419 1_565 S
C924 H928 0.930 . S
C925 C924 1.369 . S
C925 C934 1.429 . S
C926 C924 1.419 1_545 S
C926 C927 1.363 . S
C926 H929 0.929 . S
C927 C926 1.363 . S
C927 C933 1.428 . S
H928 C924 0.930 . S
H929 C926 0.929 . S
S930 N931 1.615 1_545 S
S930 N932 1.610 . S
N931 S930 1.615 1_565 S
N931 C934 1.350 . S
N932 S930 1.610 . S
N932 C933 1.351 . S
C933 C927 1.428 . S
C933 N932 1.351 . S
C933 C934 1.434 1_545 S
C934 C925 1.429 . S
C934 N931 1.350 . S
C934 C933 1.434 1_565 S
C935 C936 1.388 . S
C935 C937 1.401 1_455 S
C935 H939 0.929 1_455 S
C936 C935 1.388 . S
C936 C945 1.429 . S
C937 C935 1.401 1_655 S
C937 C938 1.363 . S
C937 H940 0.929 . S
C938 C937 1.363 . S
C938 C944 1.419 1_655 S
H939 C935 0.929 1_655 S
H940 C937 0.929 . S
S941 N942 1.613 . S
S941 N943 1.610 . S
N942 S941 1.613 . S
N942 C945 1.350 . S
N943 S941 1.610 . S
N943 C944 1.352 . S
C944 C938 1.419 1_455 S
C944 N943 1.352 . S
C944 C945 1.443 . S
C945 C936 1.429 . S
C945 N942 1.350 . S
C945 C944 1.443 . S
C946 C947 1.375 . S
C946 C948 1.413 1_565 S
C946 H950 0.930 1_565 S
C947 C946 1.375 . S
C947 C956 1.429 . S
C948 C946 1.413 1_545 S
C948 C949 1.363 . S
C948 H951 0.929 . S
C949 C948 1.363 . S
C949 C955 1.428 1_545 S
H950 C946 0.930 1_545 S
H951 C948 0.929 . S
S952 N953 1.613 . S
S952 N954 1.610 . S
N953 S952 1.613 . S
N953 C956 1.350 . S
N954 S952 1.610 . S
N954 C955 1.351 . S
C955 C949 1.428 1_565 S
C955 N954 1.351 . S
C955 C956 1.434 . S
C956 C947 1.429 . S
C956 N953 1.350 . S
C956 C955 1.434 . S
C957 C958 1.369 . S
C957 C959 1.419 1_655 S
C957 H961 0.930 . S
C958 C957 1.369 . S
C958 C967 1.431 1_655 S
C959 C957 1.419 1_455 S
C959 C960 1.363 . S
C959 H962 0.929 . S
C960 C959 1.363 . S
C960 C966 1.428 . S
H961 C957 0.930 . S
H962 C959 0.929 . S
S963 N964 1.613 . S
S963 N965 1.610 . S
N964 S963 1.613 . S
N964 C967 1.349 . S
N965 S963 1.610 . S
N965 C966 1.351 . S
C966 C960 1.428 . S
C966 N965 1.351 . S
C966 C967 1.431 . S
C967 C958 1.431 1_455 S
C967 N964 1.349 . S
C967 C966 1.431 . S
C529 N79 1.205 . S
C531 N13 1.208 . S
C540 N46 1.208 . S
C542 N112 1.205 . S
C551 N211 1.204 . S
C553 N145 1.202 . S
C562 N244 1.200 . S
C564 N178 1.200 . S
C573 N277 1.201 . S
C575 N343 1.201 . S
C584 N310 1.202 . S
C586 N376 1.201 . S
C595 N409 1.201 . S
C597 N475 1.201 . S
C606 N508 1.211 . S
C608 N442 1.212 . S
C617 N2 1.862 . S
C619 N167 1.862 . S
C628 N200 1.861 . S
C630 N35 1.861 . S
C639 N233 1.861 . S
C641 N68 1.861 . S
C650 N134 1.862 . S
C652 N101 1.862 . S
C661 N431 1.861 . S
C663 N266 1.860 . S
C672 N464 1.861 . S
C674 N299 1.860 . S
C683 N497 1.861 . S
C685 N332 1.860 . S
C694 N398 1.860 . S
C696 N365 1.861 . S
C705 C18 1.272 . S
C707 C348 1.269 . S
C716 C381 1.272 . S
C718 C51 1.269 . S
C727 C282 1.274 . S
C729 C84 1.270 . S
C738 C315 1.269 . S
C740 C117 1.268 . S
C749 C150 1.273 . S
C751 C480 1.273 . S
C760 C183 1.269 . S
C762 C513 1.272 . S
C771 C216 1.270 . S
C773 C414 1.268 . S
C782 C249 1.274 . S
C784 C447 1.272 . S
C793 C139 1.408 . S
C795 C7 1.403 . S
C804 C40 1.401 . S
C806 C172 1.406 . S
C815 C205 1.402 . S
C817 C73 1.400 . S
C826 C238 1.405 . S
C828 C106 1.400 . S
C837 C285 0.865 . S
C839 C417 0.865 . S
C848 C450 0.853 . S
C850 C318 0.855 . S
C859 C351 0.855 . S
C861 C483 0.858 . S
C870 C516 0.855 . S
C872 C384 0.857 . S
C881 C370 1.407 . S
C883 C436 1.402 . S
C892 C271 1.403 . S
C894 C469 1.407 . S
C903 C502 1.401 . S
C905 C304 1.400 . S
C914 C403 1.407 . S
C916 C337 1.401 . S
C925 C120 0.861 . S
C927 C186 0.862 . S
C936 C21 0.865 . S
C938 C219 0.863 . S
C947 C252 0.861 . S
C949 C54 0.859 . S
C958 C87 0.859 . S
C960 C153 0.861 . S
