# Generated by pormake.
# Topology qtz-e, (6)-cn, num edge types: 1
# Building blocks:
#     Node 0, Type 0, BuildingBlock: BETFAJ_clean_sbu_0, # of connection points: 6
#     Node 1, Type 0, BuildingBlock: BETFAJ_clean_sbu_0, # of connection points: 6
#     Node 2, Type 0, BuildingBlock: BETFAJ_clean_sbu_0, # of connection points: 6
#     Node 3, Type 0, BuildingBlock: BETFAJ_clean_sbu_0, # of connection points: 6
#     Node 4, Type 0, BuildingBlock: BETFAJ_clean_sbu_0, # of connection points: 6
#     Node 5, Type 0, BuildingBlock: BETFAJ_clean_sbu_0, # of connection points: 6
#     Edge 6, Type (0, 0), BuildingBlock: FUNLAD_clean_linker_0, # of connection points: 2
#     Edge 7, Type (0, 0), BuildingBlock: FUNLAD_clean_linker_0, # of connection points: 2
#     Edge 8, Type (0, 0), BuildingBlock: FUNLAD_clean_linker_0, # of connection points: 2
#     Edge 9, Type (0, 0), BuildingBlock: FUNLAD_clean_linker_0, # of connection points: 2
#     Edge 10, Type (0, 0), BuildingBlock: FUNLAD_clean_linker_0, # of connection points: 2
#     Edge 11, Type (0, 0), BuildingBlock: FUNLAD_clean_linker_0, # of connection points: 2
#     Edge 12, Type (0, 0), BuildingBlock: FUNLAD_clean_linker_0, # of connection points: 2
#     Edge 13, Type (0, 0), BuildingBlock: FUNLAD_clean_linker_0, # of connection points: 2
#     Edge 14, Type (0, 0), BuildingBlock: FUNLAD_clean_linker_0, # of connection points: 2
#     Edge 15, Type (0, 0), BuildingBlock: FUNLAD_clean_linker_0, # of connection points: 2
#     Edge 16, Type (0, 0), BuildingBlock: FUNLAD_clean_linker_0, # of connection points: 2
#     Edge 17, Type (0, 0), BuildingBlock: FUNLAD_clean_linker_0, # of connection points: 2
#     Edge 18, Type (0, 0), BuildingBlock: FUNLAD_clean_linker_0, # of connection points: 2
#     Edge 19, Type (0, 0), BuildingBlock: FUNLAD_clean_linker_0, # of connection points: 2
#     Edge 20, Type (0, 0), BuildingBlock: FUNLAD_clean_linker_0, # of connection points: 2
#     Edge 21, Type (0, 0), BuildingBlock: FUNLAD_clean_linker_0, # of connection points: 2
#     Edge 22, Type (0, 0), BuildingBlock: FUNLAD_clean_linker_0, # of connection points: 2
#     Edge 23, Type (0, 0), BuildingBlock: FUNLAD_clean_linker_0, # of connection points: 2
# Relax obj value: 0.110
# Max RMSD: 0.182
# Mean RMSD: 0.182
data_MOF--net-qtz-e--node1-BETFAJ_clean_sbu_0--edge1-FUNLAD_clean_linker_0
_symmetry_space_group_name_H-M    P1
_symmetry_Int_Tables_number       1
_symmetry_cell_setting            triclinic
loop_
_symmetry_equiv_pos_as_xyz
'x, y, z'
_cell_length_a     29.671306
_cell_length_b     29.700547
_cell_length_c     58.075668
_cell_angle_alpha  90.036303
_cell_angle_beta   89.700082
_cell_angle_gamma 120.11881
loop_
_atom_site_label
_atom_site_type_symbol
_atom_site_fract_x
_atom_site_fract_y
_atom_site_fract_z
_atom_type_partial_charge
Sm0 Sm 0.18866 0.46108 0.05916 0.0
Sm1 Sm 0.15795 0.35081 0.04225 0.0
C2 C 0.19592 0.54912 0.07294 0.0
C3 C 0.19828 0.57001 0.09625 0.0
C4 C 0.16964 0.53637 0.11442 0.0
C5 C 0.17462 0.55518 0.13685 0.0
C6 C 0.20843 0.60812 0.14167 0.0
C7 C 0.23641 0.64199 0.12337 0.0
C8 C 0.23147 0.62302 0.10087 0.0
C9 C 0.25837 0.42942 0.07009 0.0
C10 C 0.13858 0.36371 0.09567 0.0
C11 C 0.15182 0.26933 0.02078 0.0
C12 C 0.17464 0.26325 0.99919 0.0
C13 C 0.22073 0.3049 0.99015 0.0
C14 C 0.23977 0.30051 0.96868 0.0
C15 C 0.21309 0.25438 0.95576 0.0
C16 C 0.16719 0.21255 0.96503 0.0
C17 C 0.14816 0.21702 0.98653 0.0
C18 C 0.07888 0.37279 0.04584 0.0
C19 C 0.21429 0.44998 1.00554 0.0
O20 O 0.15157 0.50794 0.06736 0.0
O21 O 0.23662 0.54582 0.06657 0.0
O22 O 0.23491 0.42135 0.05118 0.0
O23 O 0.24637 0.45637 0.08378 0.0
O24 O 0.14113 0.40767 0.08927 0.0
O25 O 0.15161 0.33722 0.08144 0.0
O26 O 0.18409 0.29306 0.0378 0.0
O27 O 0.1176 0.28439 1.01818 0.0
O28 O 0.1235 0.40213 0.03772 0.0
O29 O 0.07343 0.32869 0.05264 0.0
O30 O 0.19481 0.3998 1.00959 0.0
O31 O 0.21602 0.48237 0.0216 0.0
H32 H 0.14374 0.4953 0.11133 0.0
H33 H 0.15186 0.52817 0.15044 0.0
H34 H 0.2631 0.6829 0.12653 0.0
H35 H 0.25423 0.64955 0.08714 0.0
H36 H 0.2415 0.34124 0.99948 0.0
H37 H 0.27471 0.3338 0.96195 0.0
H38 H 0.14598 0.17631 0.95568 0.0
H39 H 0.1123 0.1846 0.99313 0.0
Sm40 Sm 0.73319 0.20163 0.38771 0.0
Sm41 Sm 0.7936 0.14914 0.37035 0.0
C42 C 0.66688 0.23044 0.40208 0.0
C43 C 0.64599 0.22987 0.42532 0.0
C44 C 0.63755 0.1905 0.4411 0.0
C45 C 0.61793 0.1896 0.46311 0.0
C46 C 0.60661 0.22828 0.46998 0.0
C47 C 0.61595 0.26826 0.4543 0.0
C48 C 0.63536 0.26894 0.43213 0.0
C49 C 0.83524 0.24819 0.40213 0.0
C50 C 0.74877 0.12384 0.4218 0.0
C51 C 0.85788 0.12376 0.35014 0.0
C52 C 0.89237 0.1438 0.32983 0.0
C53 C 0.91228 0.19542 0.3225 0.0
C54 C 0.93933 0.21238 0.30161 0.0
C55 C 0.94698 0.17806 0.28761 0.0
C56 C 0.92842 0.12682 0.29541 0.0
C57 C 0.90119 0.10983 0.3163 0.0
C58 C 0.68666 0.09037 0.36889 0.0
C59 C 0.78075 0.2306 0.33559 0.0
O60 O 0.65224 0.18462 0.39314 0.0
O61 O 0.71649 0.26375 0.39876 0.0
O62 O 0.81922 0.23086 0.38222 0.0
O63 O 0.79649 0.24043 0.41525 0.0
O64 O 0.71538 0.13774 0.41451 0.0
O65 O 0.78972 0.1327 0.40923 0.0
O66 O 0.87095 0.1544 0.36815 0.0
O67 O 0.80809 0.10085 0.3456 0.0
O68 O 0.71444 0.13709 0.36311 0.0
O69 O 0.71539 0.07167 0.37606 0.0
O70 O 0.80153 0.20104 0.33946 0.0
O71 O 0.75144 0.23671 0.35112 0.0
H72 H 0.64607 0.16025 0.43643 0.0
H73 H 0.61205 0.15876 0.47485 0.0
H74 H 0.60737 0.29846 0.45903 0.0
H75 H 0.6419 0.29986 0.42029 0.0
H76 H 0.90569 0.22226 0.33262 0.0
H77 H 0.95367 0.25226 0.29628 0.0
H78 H 0.93317 0.09924 0.28496 0.0
H79 H 0.88562 0.06969 0.32155 0.0
Sm80 Sm 0.50985 0.71721 0.72102 0.0
Sm81 Sm 0.60459 0.8205 0.70949 0.0
C82 C 0.44545 0.62255 0.73687 0.0
C83 C 0.42757 0.60419 0.76049 0.0
C84 C 0.39418 0.55124 0.76513 0.0
C85 C 0.37597 0.53456 0.7876 0.0
C86 C 0.39073 0.5707 0.80574 0.0
C87 C 0.42481 0.62371 0.80096 0.0
C88 C 0.44307 0.64026 0.77857 0.0
C89 C 0.4992 0.80029 0.73317 0.0
C90 C 0.60572 0.77513 0.75898 0.0
C91 C 0.67021 0.91416 0.69305 0.0
C92 C 0.68332 0.93255 0.66914 0.0
C93 C 0.71191 0.98583 0.6641 0.0
C94 C 0.72283 0.0028 0.64119 0.0
C95 C 0.70518 0.96666 0.62297 0.0
C96 C 0.67667 0.91321 0.62824 0.0
C97 C 0.6658 0.89637 0.65108 0.0
C98 C 0.61029 0.73463 0.69628 0.0
C99 C 0.50865 0.76373 0.67157 0.0
O100 O 0.49485 0.63958 0.73274 0.0
O101 O 0.42962 0.65296 0.72834 0.0
O102 O 0.5404 0.79838 0.7357 0.0
O103 O 0.46146 0.7568 0.72547 0.0
O104 O 0.56785 0.73096 0.75054 0.0
O105 O 0.62308 0.81931 0.74763 0.0
O106 O 0.62262 0.90008 0.69951 0.0
O107 O 0.68476 0.88126 0.69959 0.0
O108 O 0.57192 0.74094 0.69415 0.0
O109 O 0.64912 0.77484 0.70574 0.0
O110 O 0.5464 0.80787 0.68012 0.0
O111 O 0.49194 0.71934 0.68275 0.0
H112 H 0.38176 0.52291 0.75137 0.0
H113 H 0.34944 0.49352 0.79067 0.0
H114 H 0.43756 0.65243 0.81456 0.0
H115 H 0.46901 0.68136 0.77531 0.0
H116 H 0.72539 0.01426 0.67785 0.0
H117 H 0.74427 0.04424 0.63774 0.0
H118 H 0.66306 0.88425 0.61472 0.0
H119 H 0.64353 0.85498 0.65466 0.0
Sm120 Sm 0.80345 0.5333 0.05158 0.0
Sm121 Sm 0.79946 0.63241 0.0424 0.0
C122 C 0.82592 0.46496 0.06934 0.0
C123 C 0.82348 0.44815 0.09338 0.0
C124 C 0.85275 0.42567 0.10064 0.0
C125 C 0.85097 0.41105 0.12373 0.0
C126 C 0.8202 0.41911 0.13994 0.0
C127 C 0.79134 0.44211 0.13251 0.0
C128 C 0.79296 0.45643 0.1095 0.0
C129 C 0.70517 0.51827 0.04945 0.0
C130 C 0.81372 0.61278 0.0949 0.0
C131 C 0.77863 0.70186 0.02446 0.0
C132 C 0.76872 0.71172 1.00063 0.0
C133 C 0.73496 0.73091 0.99636 0.0
C134 C 0.72261 0.7368 0.97371 0.0
C135 C 0.74362 0.72331 0.95491 0.0
C136 C 0.77812 0.70486 0.95933 0.0
C137 C 0.79052 0.69914 0.98193 0.0
C138 C 0.89689 0.6429 0.04341 0.0
C139 C 0.78779 0.55227 0.99951 0.0
O140 O 0.86122 0.51324 0.065 0.0
O141 O 0.78105 0.45168 0.05985 0.0
O142 O 0.74274 0.55622 0.05948 0.0
O143 O 0.71809 0.48564 0.04128 0.0
O144 O 0.82239 0.57625 0.08663 0.0
O145 O 0.79752 0.63776 0.08158 0.0
O146 O 0.74283 0.65804 0.03363 0.0
O147 O 0.82595 0.71175 0.02885 0.0
O148 O 0.85722 0.60788 0.03357 0.0
O149 O 0.88623 0.67518 0.05386 0.0
O150 O 0.77526 0.58589 1.00811 0.0
O151 O 0.80887 0.53134 1.01248 0.0
H152 H 0.87706 0.41963 0.0885 0.0
H153 H 0.87414 0.39399 0.12894 0.0
H154 H 0.7668 0.44837 0.14441 0.0
H155 H 0.77032 0.47409 0.10428 0.0
H156 H 0.71741 0.74045 1.01055 0.0
H157 H 0.69545 0.75054 0.97096 0.0
H158 H 0.7955 0.69466 0.9453 0.0
H159 H 0.81654 0.68404 0.98478 0.0
Sm160 Sm 0.23579 0.79 0.39246 0.0
Sm161 Sm 0.13621 0.79 0.37988 0.0
C162 C 0.32878 0.80581 0.40337 0.0
C163 C 0.35051 0.80122 0.42553 0.0
C164 C 0.39881 0.84176 0.43305 0.0
C165 C 0.41742 0.83996 0.45497 0.0
C166 C 0.38803 0.7975 0.46984 0.0
C167 C 0.34009 0.75651 0.46201 0.0
C168 C 0.32144 0.75846 0.4402 0.0
C169 C 0.14625 0.70314 0.40723 0.0
C170 C 0.17497 0.81829 0.43168 0.0
C171 C 0.04719 0.7734 0.36199 0.0
C172 C 0.02507 0.75984 0.3386 0.0
C173 C 0.97169 0.72525 0.33547 0.0
C174 C 0.95115 0.71114 0.31323 0.0
C175 C -0.01619 0.7312 0.29376 0.0
C176 C 0.03715 0.76639 0.29703 0.0
C177 C 0.05751 0.78057 0.31917 0.0
C178 C 0.22574 0.88527 0.37938 0.0
C179 C 0.19686 0.76181 0.33925 0.0
O180 O 0.31821 0.84366 0.40217 0.0
O181 O 0.29261 0.76233 0.3941 0.0
O182 O 0.15242 0.72482 0.3879 0.0
O183 O 0.18833 0.72693 0.4193 0.0
O184 O 0.22097 0.83011 0.42309 0.0
O185 O 0.13216 0.7932 0.41929 0.0
O186 O 0.05141 0.73742 0.37316 0.0
O187 O 0.0882 0.81962 0.36424 0.0
O188 O 0.2205 0.84376 0.37133 0.0
O189 O 0.18303 0.87802 0.38901 0.0
O190 O 0.15753 0.76857 0.34502 0.0
O191 O 0.23292 0.768 0.35424 0.0
H192 H 0.42159 0.87546 0.42218 0.0
H193 H 0.45414 0.87258 0.46048 0.0
H194 H 0.31673 0.72283 0.47278 0.0
H195 H 0.28377 0.72679 0.43499 0.0
H196 H 0.946 0.70874 0.35022 0.0
H197 H 0.90997 0.6836 0.3113 0.0
H198 H 0.06328 0.78313 0.28243 0.0
H199 H 0.09884 0.80754 0.32107 0.0
Sm200 Sm 0.45999 0.26705 0.72429 0.0
Sm201 Sm 0.3547 0.18077 0.70436 0.0
C202 C 0.54904 0.34948 0.73648 0.0
C203 C 0.57524 0.37033 0.75857 0.0
C204 C 0.60701 0.42419 0.76142 0.0
C205 C 0.62962 0.44458 0.78279 0.0
C206 C 0.62086 0.41134 0.80163 0.0
C207 C 0.58941 0.35728 0.79858 0.0
C208 C 0.56659 0.33698 0.77728 0.0
C209 C 0.43322 0.16726 0.7358 0.0
C210 C 0.35935 0.22224 0.75786 0.0
C211 C 0.26893 0.09778 0.68995 0.0
C212 C 0.25485 0.07437 0.6669 0.0
C213 C 0.21892 0.02123 0.66425 0.0
C214 C 0.2094 -0.00167 0.64239 0.0
C215 C 0.23591 0.02827 0.62286 0.0
C216 C 0.27095 0.08184 0.62565 0.0
C217 C 0.28053 0.10455 0.64743 0.0
C218 C 0.38456 0.28149 0.69244 0.0
C219 C 0.45447 0.22814 0.67058 0.0
O220 O 0.50617 0.3509 0.73332 0.0
O221 O 0.54531 0.30567 0.72973 0.0
O222 O 0.42714 0.18193 0.71631 0.0
O223 O 0.45681 0.20629 0.74978 0.0
O224 O 0.40598 0.26239 0.75341 0.0
O225 O 0.3346 0.18364 0.74295 0.0
O226 O 0.30707 0.09508 0.69982 0.0
O227 O 0.27304 0.14359 0.69214 0.0
O228 O 0.38808 0.26538 0.71194 0.0
O229 O 0.36185 0.24289 0.67816 0.0
O230 O 0.41018 0.18559 0.67573 0.0
O231 O 0.47714 0.26754 0.68519 0.0
H232 H 0.6138 0.45049 0.7472 0.0
H233 H 0.65395 0.48635 0.78457 0.0
H234 H 0.58127 0.33073 0.81284 0.0
H235 H 0.54154 0.29527 0.77552 0.0
H236 H 0.1992 -0.00275 0.67913 0.0
H237 H 0.18264 0.95689 0.6409 0.0
H238 H 0.29145 0.10627 0.611 0.0
H239 H 0.30882 0.1456 0.64912 0.0
C240 C 0.23887 0.73625 0.30789 0.0
C241 C 0.20037 0.74774 0.31501 0.0
C242 C 0.24135 0.72289 0.28492 0.0
C243 C 0.20532 0.72084 0.26862 0.0
C244 C 0.1674 0.73291 0.27576 0.0
C245 C 0.16471 0.74582 0.29863 0.0
C246 C 0.20637 0.70756 0.24397 0.0
C247 C 0.22622 0.67818 0.23635 0.0
C248 C 0.22318 0.6621 0.21183 0.0
C249 C 0.22242 0.61551 0.20679 0.0
C250 C 0.21794 0.59822 0.18406 0.0
C251 C 0.21471 0.62748 0.16577 0.0
H252 H 0.22336 0.72904 0.19657 0.0
C253 C 0.21703 0.67493 0.17073 0.0
C254 C 0.22126 0.69211 0.19349 0.0
H255 H 0.21468 0.69841 0.15705 0.0
H256 H 0.26712 0.73758 0.32001 0.0
H257 H 0.27199 0.71511 0.27999 0.0
H258 H 0.13931 0.73194 0.26362 0.0
H259 H 0.13456 0.75442 0.30337 0.0
H260 H 0.18654 0.71955 0.2319 0.0
H261 H 0.24169 0.66196 0.24865 0.0
H262 H 0.22447 0.59191 0.22051 0.0
H263 H 0.21726 0.56197 0.18082 0.0
C264 C 0.45648 0.18964 0.63238 0.0
C265 C 0.47783 0.23245 0.64742 0.0
C266 C 0.47728 0.19374 0.6103 0.0
C267 C 0.51976 0.24112 0.60251 0.0
C268 C 0.5415 0.28365 0.61772 0.0
C269 C 0.52079 0.27948 0.63987 0.0
C270 C 0.54332 0.24756 0.57905 0.0
C271 C 0.51929 0.21482 0.56131 0.0
C272 C 0.54307 0.22019 0.53805 0.0
C273 C 0.52423 0.17564 0.52419 0.0
C274 C 0.54481 0.17841 0.5022 0.0
C275 C 0.58443 0.22604 0.49331 0.0
H276 H 0.59707 0.30367 0.53892 0.0
C277 C 0.60274 0.27098 0.50694 0.0
C278 C 0.5824 0.26813 0.5291 0.0
H279 H 0.63328 0.30826 0.50059 0.0
H280 H 0.42362 0.15265 0.63765 0.0
H281 H 0.4601 0.15927 0.59968 0.0
H282 H 0.57444 0.32052 0.61237 0.0
H283 H 0.53818 0.31332 0.65095 0.0
H284 H 0.58204 0.28081 0.57644 0.0
H285 H 0.48064 0.18149 0.56378 0.0
H286 H 0.49362 0.13829 0.53047 0.0
H287 H 0.52923 0.14319 0.49203 0.0
C288 C 0.22905 0.43497 0.96441 0.0
C289 C 0.23537 0.4699 0.98216 0.0
C290 C 0.24946 0.45307 0.94242 0.0
C291 C 0.27741 0.50682 0.93762 0.0
C292 C 0.28298 0.54168 0.95528 0.0
C293 C 0.26231 0.52351 0.9773 0.0
C294 C 0.29979 0.52791 0.91437 0.0
C295 C 0.30925 0.50079 0.89824 0.0
C296 C 0.33083 0.52068 0.87475 0.0
C297 C 0.34747 0.49228 0.8613 0.0
C298 C 0.36686 0.50838 0.83898 0.0
C299 C 0.37019 0.55346 0.8295 0.0
H300 H 0.32017 0.58816 0.87442 0.0
C301 C 0.35345 0.58189 0.84286 0.0
C302 C 0.33376 0.56565 0.86514 0.0
H303 H 0.3546 0.61629 0.8359 0.0
H304 H 0.20793 0.39334 0.96738 0.0
H305 H 0.24231 0.4245 0.92928 0.0
H306 H 0.30377 0.58325 0.95208 0.0
H307 H 0.26781 0.55153 0.99052 0.0
H308 H 0.3103 0.56789 0.91095 0.0
H309 H 0.30233 0.46227 0.90249 0.0
H310 H 0.34552 0.45737 0.86809 0.0
H311 H 0.37981 0.4858 0.82924 0.0
C312 C 0.76492 0.28328 0.30593 0.0
C313 C 0.79032 0.25625 0.31269 0.0
C314 C 0.7724 0.30462 0.28372 0.0
C315 C 0.80583 0.29962 0.26786 0.0
C316 C 0.83165 0.2733 0.27486 0.0
C317 C 0.82412 0.25201 0.2969 0.0
C318 C 0.81313 0.31842 0.24357 0.0
C319 C 0.80017 0.35296 0.23549 0.0
C320 C 0.80714 0.36978 0.21089 0.0
C321 C 0.81125 0.41772 0.20534 0.0
C322 C 0.81643 0.43417 0.18241 0.0
C323 C 0.81719 0.40281 0.16441 0.0
H324 H 0.80288 0.30029 0.1962 0.0
C325 C 0.81305 0.35481 0.16994 0.0
C326 C 0.80781 0.33833 0.19285 0.0
H327 H 0.81235 0.32921 0.15648 0.0
H328 H 0.7384 0.28702 0.3176 0.0
H329 H 0.75081 0.3236 0.27898 0.0
H330 H 0.8575 0.2686 0.26311 0.0
H331 H 0.84445 0.23155 0.30137 0.0
H332 H 0.83165 0.30386 0.23194 0.0
H333 H 0.78576 0.37125 0.24729 0.0
H334 H 0.81058 0.44266 0.2188 0.0
H335 H 0.81997 0.4716 0.17879 0.0
C336 C 0.51181 0.80969 0.63483 0.0
C337 C 0.48838 0.76405 0.64828 0.0
C338 C 0.49421 0.80987 0.61254 0.0
C339 C 0.45266 0.76431 0.60313 0.0
C340 C 0.4286 0.71904 0.61675 0.0
C341 C 0.44645 0.71874 0.639 0.0
C342 C 0.43232 0.76307 0.57957 0.0
C343 C 0.46148 0.79547 0.56241 0.0
C344 C 0.44135 0.79443 0.53881 0.0
C345 C 0.4768 0.81468 0.52033 0.0
C346 C 0.45965 0.81541 0.498 0.0
C347 C 0.40652 0.79637 0.4936 0.0
H348 H 0.35981 0.76147 0.54832 0.0
C349 C 0.3711 0.77668 0.51218 0.0
C350 C 0.38823 0.77573 0.53449 0.0
H351 H 0.33009 0.76291 0.5096 0.0
H352 H 0.54407 0.84542 0.64143 0.0
H353 H 0.51283 0.84602 0.60295 0.0
H354 H 0.39617 0.68352 0.61007 0.0
H355 H 0.42739 0.68297 0.64889 0.0
H356 H 0.39264 0.73266 0.57606 0.0
H357 H 0.50255 0.82254 0.56533 0.0
H358 H 0.51799 0.82971 0.52315 0.0
H359 H 0.48804 0.83044 0.48414 0.0
C360 C 0.75513 0.56046 0.96102 0.0
C361 C 0.77617 0.53706 0.97502 0.0
C362 C 0.74195 0.54504 0.93818 0.0
C363 C 0.74865 0.50501 0.92883 0.0
C364 C 0.77099 0.48259 0.94265 0.0
C365 C 0.78454 0.49834 0.96551 0.0
C366 C 0.73315 0.4858 0.90485 0.0
C367 C 0.69794 0.49202 0.89275 0.0
C368 C 0.68098 0.4718 0.86905 0.0
C369 C 0.65922 0.49487 0.85533 0.0
C370 C 0.64066 0.4759 0.83331 0.0
C371 C 0.64289 0.43293 0.82459 0.0
H372 H 0.69858 0.409 0.87049 0.0
C373 C 0.66464 0.40972 0.83829 0.0
C374 C 0.68348 0.42888 0.86029 0.0
H375 H 0.66696 0.37659 0.83201 0.0
H376 H 0.74838 0.5906 0.96771 0.0
H377 H 0.7269 0.56502 0.92804 0.0
H378 H 0.77716 0.4521 0.93586 0.0
H379 H 0.80084 0.4796 0.97578 0.0
H380 H 0.75067 0.46479 0.89724 0.0
H381 H 0.68026 0.51288 0.90031 0.0
H382 H 0.65629 0.52761 0.86172 0.0
H383 H 0.62336 0.49411 0.82334 0.0
C384 C 0.32331 0.40725 0.05482 0.0
C385 C 0.30694 0.42808 0.07248 0.0
C386 C 0.37347 0.41433 0.05502 0.0
C387 C 0.40824 0.4429 0.07282 0.0
C388 C 0.39025 0.45993 0.09138 0.0
C389 C 0.34 0.45268 0.09121 0.0
C390 C 0.46387 0.45748 0.07217 0.0
C391 C 0.48975 0.46257 0.05238 0.0
C392 C 0.54567 0.47911 0.05168 0.0
C393 C 0.56323 0.45745 0.03494 0.0
C394 C 0.61545 0.47097 0.03411 0.0
C395 C 0.6512 0.50737 0.04967 0.0
H396 H 0.56942 0.53517 0.07956 0.0
C397 C 0.6343 0.53094 0.0658 0.0
C398 C 0.5817 0.51663 0.06692 0.0
H399 H 0.66139 0.55937 0.07786 0.0
H400 H 0.29812 0.38726 0.04039 0.0
H401 H 0.38497 0.39826 0.04098 0.0
H402 H 0.41592 0.48112 0.10551 0.0
H403 H 0.32804 0.46859 0.1052 0.0
H404 H 0.48472 0.46687 0.0884 0.0
H405 H 0.46957 0.4534 0.03602 0.0
H406 H 0.53625 0.42905 0.02283 0.0
H407 H 0.62781 0.45269 0.02136 0.0
C408 C 0.08053 0.615 0.39337 0.0
C409 C 0.10729 0.64846 0.4117 0.0
C410 C 0.04966 0.56158 0.3972 0.0
C411 C 0.04453 0.54098 0.41949 0.0
C412 C 0.06875 0.57479 0.438 0.0
C413 C 0.10058 0.62815 0.43409 0.0
C414 C 0.01253 0.48446 0.42371 0.0
C415 C 0.01349 0.44958 0.40918 0.0
C416 C 0.97486 0.39307 0.40986 0.0
C417 C 0.96624 0.36423 0.38956 0.0
C418 C 0.92303 0.31434 0.38767 0.0
C419 C 0.88778 0.2926 0.40611 0.0
H420 H 0.94985 0.38832 0.44556 0.0
C421 C 0.89971 0.31877 0.42728 0.0
C422 C 0.94306 0.36859 0.42921 0.0
H423 H 0.8737 0.30223 0.44193 0.0
H424 H 0.08503 0.62977 0.37596 0.0
H425 H 0.0299 0.5364 0.38274 0.0
H426 H 0.06442 0.55972 0.45535 0.0
H427 H 0.12075 0.6534 0.44849 0.0
H428 H -0.01296 0.47221 0.43865 0.0
H429 H 0.04049 0.46382 0.39468 0.0
H430 H -0.00922 0.38168 0.37454 0.0
H431 H 0.91516 0.2946 0.37122 0.0
C432 C 0.40503 0.07709 0.72309 0.0
C433 C 0.42715 0.11576 0.74003 0.0
C434 C 0.40372 0.02991 0.72599 0.0
C435 C 0.42545 0.021 0.74563 0.0
C436 C 0.44563 0.05881 0.76308 0.0
C437 C 0.44629 0.10585 0.7603 0.0
C438 C 0.42806 0.97269 0.74676 0.0
C439 C 0.46768 0.97032 0.75675 0.0
C440 C 0.47504 0.92496 0.75351 0.0
C441 C 0.52579 0.93269 0.75267 0.0
C442 C 0.53403 0.89175 0.74669 0.0
C443 C 0.49151 0.84263 0.74148 0.0
H444 H 0.39278 0.86679 0.75129 0.0
C445 C 0.44074 0.83419 0.74361 0.0
C446 C 0.43251 0.87476 0.74982 0.0
H447 H 0.40721 0.7963 0.74018 0.0
H448 H 0.39011 0.08381 0.70728 0.0
H449 H 0.38761 0.00115 0.7124 0.0
H450 H 0.46133 0.05239 0.77871 0.0
H451 H 0.46316 0.13499 0.7737 0.0
H452 H 0.40001 0.94024 0.73644 0.0
H453 H 0.49877 0.00466 0.765 0.0
H454 H 0.55916 0.97092 0.75572 0.0
H455 H 0.57354 0.89893 0.74538 0.0
C456 C 0.57299 0.65603 0.67216 0.0
C457 C 0.60879 0.68664 0.68909 0.0
C458 C 0.56214 0.60542 0.66822 0.0
C459 C 0.58673 0.58417 0.68136 0.0
C460 C 0.62574 0.61645 0.69701 0.0
C461 C 0.63703 0.66764 0.70076 0.0
C462 C 0.56539 0.52712 0.68252 0.0
C463 C 0.53039 0.49332 0.66745 0.0
C464 C 0.49347 0.43862 0.67381 0.0
C465 C 0.47206 0.40025 0.65668 0.0
C466 C 0.43486 0.349 0.66244 0.0
C467 C 0.41822 0.33585 0.68538 0.0
H468 H 0.48897 0.45449 0.71008 0.0
C469 C 0.43796 0.37462 0.70228 0.0
C470 C 0.47526 0.42545 0.69661 0.0
H471 H 0.42503 0.36544 0.72002 0.0
H472 H 0.55106 0.67022 0.66281 0.0
H473 H 0.53138 0.58228 0.65622 0.0
H474 H 0.64508 0.60102 0.70743 0.0
H475 H 0.66478 0.69077 0.71394 0.0
H476 H 0.57354 0.51211 0.69806 0.0
H477 H 0.5254 0.50646 0.65073 0.0
H478 H 0.48458 0.40982 0.63891 0.0
H479 H 0.42024 0.31954 0.64912 0.0
C480 C 0.03563 0.40798 0.07089 0.0
C481 C 0.04131 0.39033 0.04923 0.0
C482 C 0.01261 0.43903 0.07271 0.0
C483 C -0.006 0.45139 0.0529 0.0
C484 C -0.00445 0.42959 0.03168 0.0
C485 C 0.01999 0.40016 0.02978 0.0
C486 C 0.97579 0.48933 0.05306 0.0
C487 C -0.00122 0.53383 0.0653 0.0
C488 C -0.01321 0.57541 0.06004 0.0
C489 C 0.97429 0.5997 0.07768 0.0
C490 C 0.95064 0.62907 0.07225 0.0
C491 C 0.93978 0.63409 0.04917 0.0
H492 H -0.00618 0.57033 0.02305 0.0
C493 C 0.9587 0.61565 0.03161 0.0
C494 C 0.98249 0.58695 0.03698 0.0
H495 H 0.95074 0.61927 1.01371 0.0
H496 H 0.05191 0.40079 0.08612 0.0
H497 H 0.01079 0.45449 0.08936 0.0
H498 H 0.98106 0.43836 1.01623 0.0
H499 H 0.02464 0.38734 1.0129 0.0
H500 H 0.94692 0.48383 0.0402 0.0
H501 H 0.02728 0.54047 0.07849 0.0
H502 H 0.97816 0.59194 0.09557 0.0
H503 H 0.93582 0.64266 0.08606 0.0
C504 C 0.30306 0.94778 0.40175 0.0
C505 C 0.27655 0.93259 0.38072 0.0
C506 C 0.35678 0.9825 0.40198 0.0
C507 C 0.38375 0.0034 0.38122 0.0
C508 C 0.35617 -0.0081 0.36051 0.0
C509 C 0.30302 0.95579 0.3602 0.0
C510 C 0.44102 0.03266 0.38021 0.0
C511 C 0.46885 0.01161 0.38829 0.0
C512 C 0.5249 0.03206 0.38292 0.0
C513 C 0.55181 0.01136 0.39468 0.0
C514 C 0.6042 0.02857 0.38964 0.0
C515 C 0.63037 0.06684 0.37276 0.0
H516 H 0.53226 0.08526 0.35528 0.0
C517 C 0.60336 0.08661 0.36062 0.0
C518 C 0.55124 0.06932 0.3655 0.0
H519 H 0.62283 0.11606 0.34743 0.0
H520 H 0.28323 0.93001 0.41775 0.0
H521 H 0.37754 -0.00865 0.41815 0.0
H522 H 0.37648 0.00773 0.34435 0.0
H523 H 0.28315 0.94389 0.34381 0.0
H524 H 0.45884 0.06777 0.36987 0.0
H525 H 0.44878 0.9757 0.39822 0.0
H526 H 0.53239 0.98209 0.40794 0.0
H527 H 0.62451 0.01313 0.39936 0.0
C528 C 0.35868 0.26405 0.79527 0.0
C529 C 0.33478 0.22093 0.78042 0.0
C530 C 0.3368 0.26322 0.81674 0.0
C531 C 0.29058 0.21887 0.82414 0.0
C532 C 0.26605 0.17618 0.80911 0.0
C533 C 0.28792 0.17708 0.78752 0.0
C534 C 0.26636 0.21652 0.84706 0.0
C535 C 0.29364 0.24593 0.86521 0.0
C536 C 0.27098 0.24534 0.88832 0.0
C537 C 0.30521 0.26909 0.90683 0.0
C538 C 0.28647 0.2715 0.92866 0.0
C539 C 0.2328 0.25034 0.93262 0.0
H540 H 0.18929 0.20656 0.87848 0.0
C541 C 0.19835 0.22635 0.91416 0.0
C542 C 0.21713 0.22401 0.89225 0.0
H543 H 0.15684 0.21047 0.91649 0.0
H544 H 0.3944 0.29888 0.79031 0.0
H545 H 0.35602 0.29784 0.82725 0.0
H546 H 0.23009 0.14172 0.81418 0.0
H547 H 0.2683 0.14326 0.77651 0.0
H548 H 0.22533 0.18811 0.84911 0.0
H549 H 0.3355 0.27098 0.86346 0.0
H550 H 0.34686 0.28606 0.9044 0.0
H551 H 0.31412 0.28977 0.94249 0.0
C552 C 0.95973 0.22531 0.25018 0.0
C553 C 0.97215 0.19506 0.26455 0.0
C554 C 0.98269 0.24105 0.22842 0.0
C555 C 0.01921 0.22739 0.22051 0.0
C556 C 0.03085 0.19631 0.23469 0.0
C557 C 0.00773 0.18042 0.25649 0.0
C558 C 0.04471 0.24385 0.19744 0.0
C559 C 0.05168 0.28711 0.18663 0.0
C560 C 0.07644 0.30545 0.16352 0.0
C561 C 0.08957 0.3559 0.15667 0.0
C562 C 0.1104 0.37471 0.13487 0.0
C563 C 0.11874 0.34358 0.11916 0.0
H564 H 0.07489 0.23474 0.15222 0.0
C565 C 0.1064 0.29323 0.12599 0.0
C566 C 0.08524 0.27419 0.14792 0.0
H567 H 0.11206 0.26811 0.11426 0.0
H568 H 0.93136 0.23602 0.25557 0.0
H569 H 0.9708 0.26305 0.21773 0.0
H570 H 0.05838 0.18473 0.22899 0.0
H571 H 0.01822 0.15719 0.26713 0.0
H572 H 0.05997 0.22083 0.18983 0.0
H573 H 0.03997 0.31188 0.19544 0.0
H574 H 0.08327 0.38098 0.16819 0.0
H575 H 0.11956 0.41374 0.13034 0.0
C576 C 0.67771 0.95897 0.58159 0.0
C577 C 0.71592 0.98444 0.59856 0.0
C578 C 0.68761 0.97554 0.55866 0.0
C579 C 0.73589 0.01852 0.55214 0.0
C580 C 0.77434 0.04335 0.56902 0.0
C581 C 0.76447 0.02669 0.59196 0.0
C582 C 0.74773 0.03835 0.52801 0.0
C583 C 0.71061 0.03044 0.51261 0.0
C584 C 0.72173 0.05325 0.48903 0.0
C585 C 0.683 0.05898 0.47794 0.0
C586 C 0.69172 0.08128 0.45606 0.0
C587 C 0.73936 0.09803 0.44456 0.0
H588 H 0.7993 0.06355 0.48493 0.0
C589 C 0.77772 0.09095 0.45528 0.0
C590 C 0.76904 0.06876 0.47731 0.0
H591 H 0.81468 0.1031 0.4468 0.0
H592 H 0.63978 0.92643 0.58604 0.0
H593 H 0.65739 0.9541 0.54616 0.0
H594 H 0.81207 0.07615 0.5645 0.0
H595 H 0.79513 0.0466 0.60449 0.0
H596 H 0.78846 0.06322 0.52342 0.0
H597 H 0.67 0.00946 0.51791 0.0
H598 H 0.64598 0.04688 0.48639 0.0
H599 H 0.66099 0.08548 0.44823 0.0
C600 C 0.60509 0.72841 0.79504 0.0
C601 C 0.62689 0.77465 0.78204 0.0
C602 C 0.62375 0.72776 0.81703 0.0
C603 C 0.66513 0.77333 0.82655 0.0
C604 C 0.6867 0.81958 0.81359 0.0
C605 C 0.66796 0.82026 0.79157 0.0
C606 C 0.68515 0.77465 0.85023 0.0
C607 C 0.67944 0.73207 0.86128 0.0
C608 C 0.69791 0.73234 0.88517 0.0
C609 C 0.70321 0.69008 0.89236 0.0
C610 C 0.71846 0.68745 0.91483 0.0
C611 C 0.72851 0.72693 0.93082 0.0
H612 H 0.70303 0.80453 0.89666 0.0
C613 C 0.72307 0.76923 0.92371 0.0
C614 C 0.70789 0.77192 0.90118 0.0
H615 H 0.7307 0.80042 0.93555 0.0
H616 H 0.57295 0.69263 0.78841 0.0
H617 H 0.60464 0.69164 0.82662 0.0
H618 H 0.71823 0.85541 0.82052 0.0
H619 H 0.68552 0.85661 0.7821 0.0
H620 H 0.70683 0.81248 0.85837 0.0
H621 H 0.66184 0.69514 0.85225 0.0
H622 H 0.69525 0.65868 0.88056 0.0
H623 H 0.72134 0.65383 0.91979 0.0
C624 C 0.91521 0.71006 0.26358 0.0
C625 C 0.96297 0.71472 0.27009 0.0
C626 C 0.89619 0.69489 0.24119 0.0
C627 C 0.92463 0.684 0.22482 0.0
C628 C 0.97199 0.68812 0.23148 0.0
C629 C -0.00896 0.70346 0.25376 0.0
C630 C 0.90575 0.66622 0.20099 0.0
C631 C 0.8703 0.67413 0.19003 0.0
C632 C 0.85355 0.65649 0.16595 0.0
C633 C 0.83618 0.68343 0.15205 0.0
C634 C 0.82219 0.66888 0.12907 0.0
C635 C 0.82494 0.62675 0.11958 0.0
H636 H 0.86541 0.58995 0.16699 0.0
C637 C 0.84057 0.59873 0.13377 0.0
C638 C 0.85436 0.61314 0.15666 0.0
H639 H 0.84271 0.56574 0.12719 0.0
H640 H 0.89272 0.71858 0.27575 0.0
H641 H 0.85892 0.69096 0.23698 0.0
H642 H -0.0055 0.67946 0.21937 0.0
H643 H 0.02752 0.70579 0.25829 0.0
H644 H 0.92411 0.64786 0.1917 0.0
H645 H 0.85526 0.69674 0.19829 0.0
H646 H 0.83452 0.71656 0.15884 0.0
H647 H 0.81014 0.69119 0.11866 0.0
C648 C 0.17988 0.96457 0.59226 0.0
C649 C 0.22909 0.00369 0.59983 0.0
C650 C 0.1741 0.94155 0.57058 0.0
C651 C 0.21761 0.95728 0.55597 0.0
C652 C 0.26663 -0.00368 0.56366 0.0
C653 C 0.27237 0.0191 0.58525 0.0
C654 C 0.21488 0.93423 0.53282 0.0
C655 C 0.17124 0.89658 0.52275 0.0
C656 C 0.17204 0.87484 0.49971 0.0
C657 C 0.12727 0.85357 0.48589 0.0
C658 C 0.12757 0.83427 0.46388 0.0
C659 C 0.1727 0.83574 0.45533 0.0
H660 H 0.25097 0.88799 0.50185 0.0
C661 C 0.21684 0.85538 0.46948 0.0
C662 C 0.21643 0.87429 0.49143 0.0
H663 H 0.25198 0.85621 0.46364 0.0
H664 H 0.14566 0.95208 0.60299 0.0
H665 H 0.13553 0.91162 0.56559 0.0
H666 H 0.30101 0.00915 0.55297 0.0
H667 H 0.31106 0.04834 0.59065 0.0
H668 H 0.25147 0.95011 0.52344 0.0
H669 H 0.13358 0.88217 0.53095 0.0
H670 H 0.09228 0.85277 0.49194 0.0
H671 H 0.09283 0.81914 0.45345 0.0
loop_
_geom_bond_atom_site_label_1
_geom_bond_atom_site_label_2
_geom_bond_distance
_geom_bond_site_symmetry_2
_ccdc_geom_bond_type
Sm0 C2 2.846 . S
Sm0 O20 2.543 . S
Sm0 O21 2.450 . S
Sm0 O22 2.681 . S
Sm0 O23 2.464 . S
Sm0 O24 2.396 . S
Sm0 O28 2.386 . S
Sm0 O31 2.408 . S
Sm1 C11 2.846 1_554 S
Sm1 O22 2.386 . S
Sm1 O25 2.408 . S
Sm1 O26 2.543 1_554 S
Sm1 O27 2.450 1_554 S
Sm1 O28 2.681 . S
Sm1 O29 2.464 . S
Sm1 O30 2.396 1_554 S
C2 Sm0 2.846 . S
C2 C3 1.506 . S
C2 O20 1.261 . S
C2 O21 1.242 . S
C3 C2 1.506 . S
C3 C4 1.358 . S
C3 C8 1.382 . S
C4 C3 1.358 . S
C4 C5 1.385 . S
C4 H32 0.930 . S
C5 C4 1.385 . S
C5 C6 1.395 . S
C5 H33 0.929 . S
C6 C5 1.395 . S
C6 C7 1.335 . S
C7 C6 1.335 . S
C7 C8 1.398 . S
C7 H34 0.930 . S
C8 C3 1.382 . S
C8 C7 1.398 . S
C8 H35 0.929 . S
C9 O22 1.271 . S
C9 O23 1.251 . S
C10 O24 1.252 . S
C10 O25 1.272 . S
C11 Sm1 2.846 1_556 S
C11 C12 1.506 . S
C11 O26 1.261 . S
C11 O27 1.242 . S
C12 C11 1.506 . S
C12 C13 1.358 . S
C12 C17 1.382 . S
C13 C12 1.358 . S
C13 C14 1.385 . S
C13 H36 0.930 . S
C14 C13 1.385 . S
C14 C15 1.395 . S
C14 H37 0.929 . S
C15 C14 1.395 . S
C15 C16 1.335 . S
C16 C15 1.335 . S
C16 C17 1.398 . S
C16 H38 0.930 . S
C17 C12 1.382 . S
C17 C16 1.398 . S
C17 H39 0.929 . S
C18 O28 1.271 . S
C18 O29 1.251 . S
C19 O30 1.252 . S
C19 O31 1.272 1_556 S
O20 Sm0 2.543 . S
O20 C2 1.261 . S
O21 Sm0 2.450 . S
O21 C2 1.242 . S
O22 Sm0 2.681 . S
O22 Sm1 2.386 . S
O22 C9 1.271 . S
O23 Sm0 2.464 . S
O23 C9 1.251 . S
O24 Sm0 2.396 . S
O24 C10 1.252 . S
O25 Sm1 2.408 . S
O25 C10 1.272 . S
O26 Sm1 2.543 1_556 S
O26 C11 1.261 . S
O27 Sm1 2.450 1_556 S
O27 C11 1.242 . S
O28 Sm0 2.386 . S
O28 Sm1 2.681 . S
O28 C18 1.271 . S
O29 Sm1 2.464 . S
O29 C18 1.251 . S
O30 Sm1 2.396 1_556 S
O30 C19 1.252 . S
O31 Sm0 2.408 . S
O31 C19 1.272 1_554 S
H32 C4 0.930 . S
H33 C5 0.929 . S
H34 C7 0.930 . S
H35 C8 0.929 . S
H36 C13 0.930 . S
H37 C14 0.929 . S
H38 C16 0.930 . S
H39 C17 0.929 . S
Sm40 C42 2.846 . S
Sm40 O60 2.543 . S
Sm40 O61 2.450 . S
Sm40 O62 2.681 . S
Sm40 O63 2.464 . S
Sm40 O64 2.396 . S
Sm40 O68 2.386 . S
Sm40 O71 2.408 . S
Sm41 C51 2.846 . S
Sm41 O62 2.386 . S
Sm41 O65 2.408 . S
Sm41 O66 2.543 . S
Sm41 O67 2.450 . S
Sm41 O68 2.681 . S
Sm41 O69 2.464 . S
Sm41 O70 2.396 . S
C42 Sm40 2.846 . S
C42 C43 1.506 . S
C42 O60 1.261 . S
C42 O61 1.242 . S
C43 C42 1.506 . S
C43 C44 1.358 . S
C43 C48 1.382 . S
C44 C43 1.358 . S
C44 C45 1.385 . S
C44 H72 0.930 . S
C45 C44 1.385 . S
C45 C46 1.395 . S
C45 H73 0.929 . S
C46 C45 1.395 . S
C46 C47 1.335 . S
C47 C46 1.335 . S
C47 C48 1.398 . S
C47 H74 0.930 . S
C48 C43 1.382 . S
C48 C47 1.398 . S
C48 H75 0.929 . S
C49 O62 1.271 . S
C49 O63 1.251 . S
C50 O64 1.252 . S
C50 O65 1.272 . S
C51 Sm41 2.846 . S
C51 C52 1.506 . S
C51 O66 1.261 . S
C51 O67 1.242 . S
C52 C51 1.506 . S
C52 C53 1.358 . S
C52 C57 1.382 . S
C53 C52 1.358 . S
C53 C54 1.385 . S
C53 H76 0.930 . S
C54 C53 1.385 . S
C54 C55 1.395 . S
C54 H77 0.929 . S
C55 C54 1.395 . S
C55 C56 1.335 . S
C56 C55 1.335 . S
C56 C57 1.398 . S
C56 H78 0.930 . S
C57 C52 1.382 . S
C57 C56 1.398 . S
C57 H79 0.929 . S
C58 O68 1.271 . S
C58 O69 1.251 . S
C59 O70 1.252 . S
C59 O71 1.272 . S
O60 Sm40 2.543 . S
O60 C42 1.261 . S
O61 Sm40 2.450 . S
O61 C42 1.242 . S
O62 Sm40 2.681 . S
O62 Sm41 2.386 . S
O62 C49 1.271 . S
O63 Sm40 2.464 . S
O63 C49 1.251 . S
O64 Sm40 2.396 . S
O64 C50 1.252 . S
O65 Sm41 2.408 . S
O65 C50 1.272 . S
O66 Sm41 2.543 . S
O66 C51 1.261 . S
O67 Sm41 2.450 . S
O67 C51 1.242 . S
O68 Sm40 2.386 . S
O68 Sm41 2.681 . S
O68 C58 1.271 . S
O69 Sm41 2.464 . S
O69 C58 1.251 . S
O70 Sm41 2.396 . S
O70 C59 1.252 . S
O71 Sm40 2.408 . S
O71 C59 1.272 . S
H72 C44 0.930 . S
H73 C45 0.929 . S
H74 C47 0.930 . S
H75 C48 0.929 . S
H76 C53 0.930 . S
H77 C54 0.929 . S
H78 C56 0.930 . S
H79 C57 0.929 . S
Sm80 C82 2.846 . S
Sm80 O100 2.543 . S
Sm80 O101 2.450 . S
Sm80 O102 2.681 . S
Sm80 O103 2.464 . S
Sm80 O104 2.396 . S
Sm80 O108 2.386 . S
Sm80 O111 2.408 . S
Sm81 C91 2.846 . S
Sm81 O102 2.386 . S
Sm81 O105 2.408 . S
Sm81 O106 2.543 . S
Sm81 O107 2.450 . S
Sm81 O108 2.681 . S
Sm81 O109 2.464 . S
Sm81 O110 2.396 . S
C82 Sm80 2.846 . S
C82 C83 1.506 . S
C82 O100 1.261 . S
C82 O101 1.242 . S
C83 C82 1.506 . S
C83 C84 1.358 . S
C83 C88 1.382 . S
C84 C83 1.358 . S
C84 C85 1.385 . S
C84 H112 0.930 . S
C85 C84 1.385 . S
C85 C86 1.395 . S
C85 H113 0.929 . S
C86 C85 1.395 . S
C86 C87 1.335 . S
C87 C86 1.335 . S
C87 C88 1.398 . S
C87 H114 0.930 . S
C88 C83 1.382 . S
C88 C87 1.398 . S
C88 H115 0.929 . S
C89 O102 1.271 . S
C89 O103 1.251 . S
C90 O104 1.252 . S
C90 O105 1.272 . S
C91 Sm81 2.846 . S
C91 C92 1.506 . S
C91 O106 1.261 . S
C91 O107 1.242 . S
C92 C91 1.506 . S
C92 C93 1.358 . S
C92 C97 1.382 . S
C93 C92 1.358 . S
C93 C94 1.385 . S
C93 H116 0.930 . S
C94 C93 1.385 . S
C94 C95 1.395 . S
C94 H117 0.929 . S
C95 C94 1.395 . S
C95 C96 1.335 . S
C96 C95 1.335 . S
C96 C97 1.398 . S
C96 H118 0.930 . S
C97 C92 1.382 . S
C97 C96 1.398 . S
C97 H119 0.929 . S
C98 O108 1.271 . S
C98 O109 1.251 . S
C99 O110 1.252 . S
C99 O111 1.272 . S
O100 Sm80 2.543 . S
O100 C82 1.261 . S
O101 Sm80 2.450 . S
O101 C82 1.242 . S
O102 Sm80 2.681 . S
O102 Sm81 2.386 . S
O102 C89 1.271 . S
O103 Sm80 2.464 . S
O103 C89 1.251 . S
O104 Sm80 2.396 . S
O104 C90 1.252 . S
O105 Sm81 2.408 . S
O105 C90 1.272 . S
O106 Sm81 2.543 . S
O106 C91 1.261 . S
O107 Sm81 2.450 . S
O107 C91 1.242 . S
O108 Sm80 2.386 . S
O108 Sm81 2.681 . S
O108 C98 1.271 . S
O109 Sm81 2.464 . S
O109 C98 1.251 . S
O110 Sm81 2.396 . S
O110 C99 1.252 . S
O111 Sm80 2.408 . S
O111 C99 1.272 . S
H112 C84 0.930 . S
H113 C85 0.929 . S
H114 C87 0.930 . S
H115 C88 0.929 . S
H116 C93 0.930 . S
H117 C94 0.929 . S
H118 C96 0.930 . S
H119 C97 0.929 . S
Sm120 C122 2.846 . S
Sm120 O140 2.543 . S
Sm120 O141 2.450 . S
Sm120 O142 2.681 . S
Sm120 O143 2.464 . S
Sm120 O144 2.396 . S
Sm120 O148 2.386 . S
Sm120 O151 2.408 . S
Sm121 C131 2.846 1_554 S
Sm121 O142 2.386 . S
Sm121 O145 2.408 . S
Sm121 O146 2.543 1_554 S
Sm121 O147 2.450 1_554 S
Sm121 O148 2.681 . S
Sm121 O149 2.464 . S
Sm121 O150 2.396 1_554 S
C122 Sm120 2.846 . S
C122 C123 1.506 . S
C122 O140 1.261 . S
C122 O141 1.242 . S
C123 C122 1.506 . S
C123 C124 1.358 . S
C123 C128 1.382 . S
C124 C123 1.358 . S
C124 C125 1.385 . S
C124 H152 0.930 . S
C125 C124 1.385 . S
C125 C126 1.395 . S
C125 H153 0.929 . S
C126 C125 1.395 . S
C126 C127 1.335 . S
C127 C126 1.335 . S
C127 C128 1.398 . S
C127 H154 0.930 . S
C128 C123 1.382 . S
C128 C127 1.398 . S
C128 H155 0.929 . S
C129 O142 1.271 . S
C129 O143 1.251 . S
C130 O144 1.252 . S
C130 O145 1.272 . S
C131 Sm121 2.846 1_556 S
C131 C132 1.506 . S
C131 O146 1.261 . S
C131 O147 1.242 . S
C132 C131 1.506 . S
C132 C133 1.358 . S
C132 C137 1.382 . S
C133 C132 1.358 . S
C133 C134 1.385 . S
C133 H156 0.930 . S
C134 C133 1.385 . S
C134 C135 1.395 . S
C134 H157 0.929 . S
C135 C134 1.395 . S
C135 C136 1.335 . S
C136 C135 1.335 . S
C136 C137 1.398 . S
C136 H158 0.930 . S
C137 C132 1.382 . S
C137 C136 1.398 . S
C137 H159 0.929 . S
C138 O148 1.271 . S
C138 O149 1.251 . S
C139 O150 1.252 . S
C139 O151 1.272 1_556 S
O140 Sm120 2.543 . S
O140 C122 1.261 . S
O141 Sm120 2.450 . S
O141 C122 1.242 . S
O142 Sm120 2.681 . S
O142 Sm121 2.386 . S
O142 C129 1.271 . S
O143 Sm120 2.464 . S
O143 C129 1.251 . S
O144 Sm120 2.396 . S
O144 C130 1.252 . S
O145 Sm121 2.408 . S
O145 C130 1.272 . S
O146 Sm121 2.543 1_556 S
O146 C131 1.261 . S
O147 Sm121 2.450 1_556 S
O147 C131 1.242 . S
O148 Sm120 2.386 . S
O148 Sm121 2.681 . S
O148 C138 1.271 . S
O149 Sm121 2.464 . S
O149 C138 1.251 . S
O150 Sm121 2.396 1_556 S
O150 C139 1.252 . S
O151 Sm120 2.408 . S
O151 C139 1.272 1_554 S
H152 C124 0.930 . S
H153 C125 0.929 . S
H154 C127 0.930 . S
H155 C128 0.929 . S
H156 C133 0.930 . S
H157 C134 0.929 . S
H158 C136 0.930 . S
H159 C137 0.929 . S
Sm160 C162 2.846 . S
Sm160 O180 2.543 . S
Sm160 O181 2.450 . S
Sm160 O182 2.681 . S
Sm160 O183 2.464 . S
Sm160 O184 2.396 . S
Sm160 O188 2.386 . S
Sm160 O191 2.408 . S
Sm161 C171 2.846 . S
Sm161 O182 2.386 . S
Sm161 O185 2.408 . S
Sm161 O186 2.543 . S
Sm161 O187 2.450 . S
Sm161 O188 2.681 . S
Sm161 O189 2.464 . S
Sm161 O190 2.396 . S
C162 Sm160 2.846 . S
C162 C163 1.506 . S
C162 O180 1.261 . S
C162 O181 1.242 . S
C163 C162 1.506 . S
C163 C164 1.358 . S
C163 C168 1.382 . S
C164 C163 1.358 . S
C164 C165 1.385 . S
C164 H192 0.930 . S
C165 C164 1.385 . S
C165 C166 1.395 . S
C165 H193 0.929 . S
C166 C165 1.395 . S
C166 C167 1.335 . S
C167 C166 1.335 . S
C167 C168 1.398 . S
C167 H194 0.930 . S
C168 C163 1.382 . S
C168 C167 1.398 . S
C168 H195 0.929 . S
C169 O182 1.271 . S
C169 O183 1.251 . S
C170 O184 1.252 . S
C170 O185 1.272 . S
C171 Sm161 2.846 . S
C171 C172 1.506 . S
C171 O186 1.261 . S
C171 O187 1.242 . S
C172 C171 1.506 . S
C172 C173 1.358 . S
C172 C177 1.382 . S
C173 C172 1.358 . S
C173 C174 1.385 . S
C173 H196 0.930 . S
C174 C173 1.385 . S
C174 C175 1.395 . S
C174 H197 0.929 . S
C175 C174 1.395 . S
C175 C176 1.335 . S
C176 C175 1.335 . S
C176 C177 1.398 . S
C176 H198 0.930 . S
C177 C172 1.382 . S
C177 C176 1.398 . S
C177 H199 0.929 . S
C178 O188 1.271 . S
C178 O189 1.251 . S
C179 O190 1.252 . S
C179 O191 1.272 . S
O180 Sm160 2.543 . S
O180 C162 1.261 . S
O181 Sm160 2.450 . S
O181 C162 1.242 . S
O182 Sm160 2.681 . S
O182 Sm161 2.386 . S
O182 C169 1.271 . S
O183 Sm160 2.464 . S
O183 C169 1.251 . S
O184 Sm160 2.396 . S
O184 C170 1.252 . S
O185 Sm161 2.408 . S
O185 C170 1.272 . S
O186 Sm161 2.543 . S
O186 C171 1.261 . S
O187 Sm161 2.450 . S
O187 C171 1.242 . S
O188 Sm160 2.386 . S
O188 Sm161 2.681 . S
O188 C178 1.271 . S
O189 Sm161 2.464 . S
O189 C178 1.251 . S
O190 Sm161 2.396 . S
O190 C179 1.252 . S
O191 Sm160 2.408 . S
O191 C179 1.272 . S
H192 C164 0.930 . S
H193 C165 0.929 . S
H194 C167 0.930 . S
H195 C168 0.929 . S
H196 C173 0.930 . S
H197 C174 0.929 . S
H198 C176 0.930 . S
H199 C177 0.929 . S
Sm200 C202 2.846 . S
Sm200 O220 2.543 . S
Sm200 O221 2.450 . S
Sm200 O222 2.681 . S
Sm200 O223 2.464 . S
Sm200 O224 2.396 . S
Sm200 O228 2.386 . S
Sm200 O231 2.408 . S
Sm201 C211 2.846 . S
Sm201 O222 2.386 . S
Sm201 O225 2.408 . S
Sm201 O226 2.543 . S
Sm201 O227 2.450 . S
Sm201 O228 2.681 . S
Sm201 O229 2.464 . S
Sm201 O230 2.396 . S
C202 Sm200 2.846 . S
C202 C203 1.506 . S
C202 O220 1.261 . S
C202 O221 1.242 . S
C203 C202 1.506 . S
C203 C204 1.358 . S
C203 C208 1.382 . S
C204 C203 1.358 . S
C204 C205 1.385 . S
C204 H232 0.930 . S
C205 C204 1.385 . S
C205 C206 1.395 . S
C205 H233 0.929 . S
C206 C205 1.395 . S
C206 C207 1.335 . S
C207 C206 1.335 . S
C207 C208 1.398 . S
C207 H234 0.930 . S
C208 C203 1.382 . S
C208 C207 1.398 . S
C208 H235 0.929 . S
C209 O222 1.271 . S
C209 O223 1.251 . S
C210 O224 1.252 . S
C210 O225 1.272 . S
C211 Sm201 2.846 . S
C211 C212 1.506 . S
C211 O226 1.261 . S
C211 O227 1.242 . S
C212 C211 1.506 . S
C212 C213 1.358 . S
C212 C217 1.382 . S
C213 C212 1.358 . S
C213 C214 1.385 . S
C213 H236 0.930 . S
C214 C213 1.385 . S
C214 C215 1.395 . S
C214 H237 0.929 . S
C215 C214 1.395 . S
C215 C216 1.335 . S
C216 C215 1.335 . S
C216 C217 1.398 . S
C216 H238 0.930 . S
C217 C212 1.382 . S
C217 C216 1.398 . S
C217 H239 0.929 . S
C218 O228 1.271 . S
C218 O229 1.251 . S
C219 O230 1.252 . S
C219 O231 1.272 . S
O220 Sm200 2.543 . S
O220 C202 1.261 . S
O221 Sm200 2.450 . S
O221 C202 1.242 . S
O222 Sm200 2.681 . S
O222 Sm201 2.386 . S
O222 C209 1.271 . S
O223 Sm200 2.464 . S
O223 C209 1.251 . S
O224 Sm200 2.396 . S
O224 C210 1.252 . S
O225 Sm201 2.408 . S
O225 C210 1.272 . S
O226 Sm201 2.543 . S
O226 C211 1.261 . S
O227 Sm201 2.450 . S
O227 C211 1.242 . S
O228 Sm200 2.386 . S
O228 Sm201 2.681 . S
O228 C218 1.271 . S
O229 Sm201 2.464 . S
O229 C218 1.251 . S
O230 Sm201 2.396 . S
O230 C219 1.252 . S
O231 Sm200 2.408 . S
O231 C219 1.272 . S
H232 C204 0.930 . S
H233 C205 0.929 . S
H234 C207 0.930 . S
H235 C208 0.929 . S
H236 C213 0.930 . S
H237 C214 0.929 . S
H238 C216 0.930 . S
H239 C217 0.929 . S
C240 C241 1.386 . S
C240 C242 1.383 . S
C240 H256 0.951 . S
C241 C240 1.386 . S
C241 C245 1.383 . S
C242 C240 1.383 . S
C242 C243 1.402 . S
C242 H257 0.951 . S
C243 C242 1.402 . S
C243 C244 1.375 . S
C243 C246 1.481 . S
C244 C243 1.375 . S
C244 C245 1.367 . S
C244 H258 0.951 . S
C245 C241 1.383 . S
C245 C244 1.367 . S
C245 H259 0.950 . S
C246 C243 1.481 . S
C246 C247 1.297 . S
C246 H260 0.950 . S
C247 C246 1.297 . S
C247 C248 1.479 . S
C247 H261 0.950 . S
C248 C247 1.479 . S
C248 C249 1.375 . S
C248 C254 1.404 . S
C249 C248 1.375 . S
C249 C250 1.369 . S
C249 H262 0.950 . S
C250 C249 1.369 . S
C250 C251 1.392 . S
C250 H263 0.951 . S
C251 C250 1.392 . S
C251 C253 1.384 . S
H252 C254 0.949 . S
C253 C251 1.384 . S
C253 C254 1.385 . S
C253 H255 0.950 . S
C254 C248 1.404 . S
C254 H252 0.949 . S
C254 C253 1.385 . S
H255 C253 0.950 . S
H256 C240 0.951 . S
H257 C242 0.951 . S
H258 C244 0.951 . S
H259 C245 0.950 . S
H260 C246 0.950 . S
H261 C247 0.950 . S
H262 C249 0.950 . S
H263 C250 0.951 . S
C264 C265 1.386 . S
C264 C266 1.383 . S
C264 H280 0.951 . S
C265 C264 1.386 . S
C265 C269 1.383 . S
C266 C264 1.383 . S
C266 C267 1.402 . S
C266 H281 0.951 . S
C267 C266 1.402 . S
C267 C268 1.375 . S
C267 C270 1.481 . S
C268 C267 1.375 . S
C268 C269 1.367 . S
C268 H282 0.951 . S
C269 C265 1.383 . S
C269 C268 1.367 . S
C269 H283 0.950 . S
C270 C267 1.481 . S
C270 C271 1.297 . S
C270 H284 0.950 . S
C271 C270 1.297 . S
C271 C272 1.479 . S
C271 H285 0.950 . S
C272 C271 1.479 . S
C272 C273 1.375 . S
C272 C278 1.404 . S
C273 C272 1.375 . S
C273 C274 1.369 . S
C273 H286 0.950 . S
C274 C273 1.369 . S
C274 C275 1.392 . S
C274 H287 0.951 . S
C275 C274 1.392 . S
C275 C277 1.384 . S
H276 C278 0.949 . S
C277 C275 1.384 . S
C277 C278 1.385 . S
C277 H279 0.950 . S
C278 C272 1.404 . S
C278 H276 0.949 . S
C278 C277 1.385 . S
H279 C277 0.950 . S
H280 C264 0.951 . S
H281 C266 0.951 . S
H282 C268 0.951 . S
H283 C269 0.950 . S
H284 C270 0.950 . S
H285 C271 0.950 . S
H286 C273 0.950 . S
H287 C274 0.951 . S
C288 C289 1.386 . S
C288 C290 1.383 . S
C288 H304 0.951 . S
C289 C288 1.386 . S
C289 C293 1.383 . S
C290 C288 1.383 . S
C290 C291 1.402 . S
C290 H305 0.951 . S
C291 C290 1.402 . S
C291 C292 1.375 . S
C291 C294 1.481 . S
C292 C291 1.375 . S
C292 C293 1.367 . S
C292 H306 0.951 . S
C293 C289 1.383 . S
C293 C292 1.367 . S
C293 H307 0.950 . S
C294 C291 1.481 . S
C294 C295 1.297 . S
C294 H308 0.950 . S
C295 C294 1.297 . S
C295 C296 1.479 . S
C295 H309 0.950 . S
C296 C295 1.479 . S
C296 C297 1.375 . S
C296 C302 1.404 . S
C297 C296 1.375 . S
C297 C298 1.369 . S
C297 H310 0.950 . S
C298 C297 1.369 . S
C298 C299 1.392 . S
C298 H311 0.951 . S
C299 C298 1.392 . S
C299 C301 1.384 . S
H300 C302 0.949 . S
C301 C299 1.384 . S
C301 C302 1.385 . S
C301 H303 0.950 . S
C302 C296 1.404 . S
C302 H300 0.949 . S
C302 C301 1.385 . S
H303 C301 0.950 . S
H304 C288 0.951 . S
H305 C290 0.951 . S
H306 C292 0.951 . S
H307 C293 0.950 . S
H308 C294 0.950 . S
H309 C295 0.950 . S
H310 C297 0.950 . S
H311 C298 0.951 . S
C312 C313 1.386 . S
C312 C314 1.383 . S
C312 H328 0.951 . S
C313 C312 1.386 . S
C313 C317 1.383 . S
C314 C312 1.383 . S
C314 C315 1.402 . S
C314 H329 0.951 . S
C315 C314 1.402 . S
C315 C316 1.375 . S
C315 C318 1.481 . S
C316 C315 1.375 . S
C316 C317 1.367 . S
C316 H330 0.951 . S
C317 C313 1.383 . S
C317 C316 1.367 . S
C317 H331 0.950 . S
C318 C315 1.481 . S
C318 C319 1.297 . S
C318 H332 0.950 . S
C319 C318 1.297 . S
C319 C320 1.479 . S
C319 H333 0.950 . S
C320 C319 1.479 . S
C320 C321 1.375 . S
C320 C326 1.404 . S
C321 C320 1.375 . S
C321 C322 1.369 . S
C321 H334 0.950 . S
C322 C321 1.369 . S
C322 C323 1.392 . S
C322 H335 0.951 . S
C323 C322 1.392 . S
C323 C325 1.384 . S
H324 C326 0.949 . S
C325 C323 1.384 . S
C325 C326 1.385 . S
C325 H327 0.950 . S
C326 C320 1.404 . S
C326 H324 0.949 . S
C326 C325 1.385 . S
H327 C325 0.950 . S
H328 C312 0.951 . S
H329 C314 0.951 . S
H330 C316 0.951 . S
H331 C317 0.950 . S
H332 C318 0.950 . S
H333 C319 0.950 . S
H334 C321 0.950 . S
H335 C322 0.951 . S
C336 C337 1.386 . S
C336 C338 1.383 . S
C336 H352 0.951 . S
C337 C336 1.386 . S
C337 C341 1.383 . S
C338 C336 1.383 . S
C338 C339 1.402 . S
C338 H353 0.951 . S
C339 C338 1.402 . S
C339 C340 1.375 . S
C339 C342 1.481 . S
C340 C339 1.375 . S
C340 C341 1.367 . S
C340 H354 0.951 . S
C341 C337 1.383 . S
C341 C340 1.367 . S
C341 H355 0.950 . S
C342 C339 1.481 . S
C342 C343 1.297 . S
C342 H356 0.950 . S
C343 C342 1.297 . S
C343 C344 1.479 . S
C343 H357 0.950 . S
C344 C343 1.479 . S
C344 C345 1.375 . S
C344 C350 1.404 . S
C345 C344 1.375 . S
C345 C346 1.369 . S
C345 H358 0.950 . S
C346 C345 1.369 . S
C346 C347 1.392 . S
C346 H359 0.951 . S
C347 C346 1.392 . S
C347 C349 1.384 . S
H348 C350 0.949 . S
C349 C347 1.384 . S
C349 C350 1.385 . S
C349 H351 0.950 . S
C350 C344 1.404 . S
C350 H348 0.949 . S
C350 C349 1.385 . S
H351 C349 0.950 . S
H352 C336 0.951 . S
H353 C338 0.951 . S
H354 C340 0.951 . S
H355 C341 0.950 . S
H356 C342 0.950 . S
H357 C343 0.950 . S
H358 C345 0.950 . S
H359 C346 0.951 . S
C360 C361 1.386 . S
C360 C362 1.383 . S
C360 H376 0.951 . S
C361 C360 1.386 . S
C361 C365 1.383 . S
C362 C360 1.383 . S
C362 C363 1.402 . S
C362 H377 0.951 . S
C363 C362 1.402 . S
C363 C364 1.375 . S
C363 C366 1.481 . S
C364 C363 1.375 . S
C364 C365 1.367 . S
C364 H378 0.951 . S
C365 C361 1.383 . S
C365 C364 1.367 . S
C365 H379 0.950 . S
C366 C363 1.481 . S
C366 C367 1.297 . S
C366 H380 0.950 . S
C367 C366 1.297 . S
C367 C368 1.479 . S
C367 H381 0.950 . S
C368 C367 1.479 . S
C368 C369 1.375 . S
C368 C374 1.404 . S
C369 C368 1.375 . S
C369 C370 1.369 . S
C369 H382 0.950 . S
C370 C369 1.369 . S
C370 C371 1.392 . S
C370 H383 0.951 . S
C371 C370 1.392 . S
C371 C373 1.384 . S
H372 C374 0.949 . S
C373 C371 1.384 . S
C373 C374 1.385 . S
C373 H375 0.950 . S
C374 C368 1.404 . S
C374 H372 0.949 . S
C374 C373 1.385 . S
H375 C373 0.950 . S
H376 C360 0.951 . S
H377 C362 0.951 . S
H378 C364 0.951 . S
H379 C365 0.950 . S
H380 C366 0.950 . S
H381 C367 0.950 . S
H382 C369 0.950 . S
H383 C370 0.951 . S
C384 C385 1.386 . S
C384 C386 1.383 . S
C384 H400 0.951 . S
C385 C384 1.386 . S
C385 C389 1.383 . S
C386 C384 1.383 . S
C386 C387 1.402 . S
C386 H401 0.951 . S
C387 C386 1.402 . S
C387 C388 1.375 . S
C387 C390 1.481 . S
C388 C387 1.375 . S
C388 C389 1.367 . S
C388 H402 0.951 . S
C389 C385 1.383 . S
C389 C388 1.367 . S
C389 H403 0.950 . S
C390 C387 1.481 . S
C390 C391 1.297 . S
C390 H404 0.950 . S
C391 C390 1.297 . S
C391 C392 1.479 . S
C391 H405 0.950 . S
C392 C391 1.479 . S
C392 C393 1.375 . S
C392 C398 1.404 . S
C393 C392 1.375 . S
C393 C394 1.369 . S
C393 H406 0.950 . S
C394 C393 1.369 . S
C394 C395 1.392 . S
C394 H407 0.951 . S
C395 C394 1.392 . S
C395 C397 1.384 . S
H396 C398 0.949 . S
C397 C395 1.384 . S
C397 C398 1.385 . S
C397 H399 0.950 . S
C398 C392 1.404 . S
C398 H396 0.949 . S
C398 C397 1.385 . S
H399 C397 0.950 . S
H400 C384 0.951 . S
H401 C386 0.951 . S
H402 C388 0.951 . S
H403 C389 0.950 . S
H404 C390 0.950 . S
H405 C391 0.950 . S
H406 C393 0.950 . S
H407 C394 0.951 . S
C408 C409 1.386 . S
C408 C410 1.383 . S
C408 H424 0.951 . S
C409 C408 1.386 . S
C409 C413 1.383 . S
C410 C408 1.383 . S
C410 C411 1.402 . S
C410 H425 0.951 . S
C411 C410 1.402 . S
C411 C412 1.375 . S
C411 C414 1.481 1_455 S
C412 C411 1.375 . S
C412 C413 1.367 . S
C412 H426 0.951 1_455 S
C413 C409 1.383 . S
C413 C412 1.367 . S
C413 H427 0.950 . S
C414 C411 1.481 1_655 S
C414 C415 1.297 1_655 S
C414 H428 0.950 . S
C415 C414 1.297 1_455 S
C415 C416 1.479 1_455 S
C415 H429 0.950 . S
C416 C415 1.479 1_655 S
C416 C417 1.375 . S
C416 C422 1.404 . S
C417 C416 1.375 . S
C417 C418 1.369 . S
C417 H430 0.950 1_655 S
C418 C417 1.369 . S
C418 C419 1.392 . S
C418 H431 0.951 . S
C419 C418 1.392 . S
C419 C421 1.384 . S
H420 C422 0.949 . S
C421 C419 1.384 . S
C421 C422 1.385 . S
C421 H423 0.950 . S
C422 C416 1.404 . S
C422 H420 0.949 . S
C422 C421 1.385 . S
H423 C421 0.950 . S
H424 C408 0.951 . S
H425 C410 0.951 . S
H426 C412 0.951 1_655 S
H427 C413 0.950 . S
H428 C414 0.950 . S
H429 C415 0.950 . S
H430 C417 0.950 1_455 S
H431 C418 0.951 . S
C432 C433 1.386 . S
C432 C434 1.383 . S
C432 H448 0.951 . S
C433 C432 1.386 . S
C433 C437 1.383 . S
C434 C432 1.383 . S
C434 C435 1.402 . S
C434 H449 0.951 . S
C435 C434 1.402 . S
C435 C436 1.375 . S
C435 C438 1.481 . S
C436 C435 1.375 . S
C436 C437 1.367 . S
C436 H450 0.951 1_545 S
C437 C433 1.383 . S
C437 C436 1.367 . S
C437 H451 0.950 . S
C438 C435 1.481 . S
C438 C439 1.297 . S
C438 H452 0.950 1_545 S
C439 C438 1.297 . S
C439 C440 1.479 1_545 S
C439 H453 0.950 . S
C440 C439 1.479 1_565 S
C440 C441 1.375 . S
C440 C446 1.404 . S
C441 C440 1.375 . S
C441 C442 1.369 . S
C441 H454 0.950 1_565 S
C442 C441 1.369 . S
C442 C443 1.392 . S
C442 H455 0.951 . S
C443 C442 1.392 . S
C443 C445 1.384 . S
H444 C446 0.949 . S
C445 C443 1.384 . S
C445 C446 1.385 . S
C445 H447 0.950 . S
C446 C440 1.404 . S
C446 H444 0.949 . S
C446 C445 1.385 . S
H447 C445 0.950 . S
H448 C432 0.951 . S
H449 C434 0.951 . S
H450 C436 0.951 1_565 S
H451 C437 0.950 . S
H452 C438 0.950 1_565 S
H453 C439 0.950 . S
H454 C441 0.950 1_545 S
H455 C442 0.951 . S
C456 C457 1.386 . S
C456 C458 1.383 . S
C456 H472 0.951 . S
C457 C456 1.386 . S
C457 C461 1.383 . S
C458 C456 1.383 . S
C458 C459 1.402 . S
C458 H473 0.951 . S
C459 C458 1.402 . S
C459 C460 1.375 . S
C459 C462 1.481 . S
C460 C459 1.375 . S
C460 C461 1.367 . S
C460 H474 0.951 . S
C461 C457 1.383 . S
C461 C460 1.367 . S
C461 H475 0.950 . S
C462 C459 1.481 . S
C462 C463 1.297 . S
C462 H476 0.950 . S
C463 C462 1.297 . S
C463 C464 1.479 . S
C463 H477 0.950 . S
C464 C463 1.479 . S
C464 C465 1.375 . S
C464 C470 1.404 . S
C465 C464 1.375 . S
C465 C466 1.369 . S
C465 H478 0.950 . S
C466 C465 1.369 . S
C466 C467 1.392 . S
C466 H479 0.951 . S
C467 C466 1.392 . S
C467 C469 1.384 . S
H468 C470 0.949 . S
C469 C467 1.384 . S
C469 C470 1.385 . S
C469 H471 0.950 . S
C470 C464 1.404 . S
C470 H468 0.949 . S
C470 C469 1.385 . S
H471 C469 0.950 . S
H472 C456 0.951 . S
H473 C458 0.951 . S
H474 C460 0.951 . S
H475 C461 0.950 . S
H476 C462 0.950 . S
H477 C463 0.950 . S
H478 C465 0.950 . S
H479 C466 0.951 . S
C480 C481 1.386 . S
C480 C482 1.383 . S
C480 H496 0.951 . S
C481 C480 1.386 . S
C481 C485 1.417 . S
C482 C480 1.383 . S
C482 C483 1.402 . S
C482 H497 0.951 . S
C483 C482 1.402 . S
C483 C484 1.375 1_554 S
C483 C486 1.481 . S
C484 C483 1.375 1_556 S
C484 C485 1.364 1_556 S
C484 H498 0.951 . S
C485 C481 1.417 . S
C485 C484 1.364 1_554 S
C485 H499 0.919 1_554 S
C486 C483 1.481 . S
C486 C487 1.297 . S
C486 H500 0.950 1_554 S
C487 C486 1.297 . S
C487 C488 1.479 1_455 S
C487 H501 0.950 . S
C488 C487 1.479 1_655 S
C488 C489 1.375 . S
C488 C494 1.404 . S
C489 C488 1.375 . S
C489 C490 1.369 . S
C489 H502 0.950 . S
C490 C489 1.369 . S
C490 C491 1.392 . S
C490 H503 0.951 . S
C491 C490 1.392 . S
C491 C493 1.384 . S
H492 C494 0.949 1_556 S
C493 C491 1.384 . S
C493 C494 1.385 . S
C493 H495 0.950 1_554 S
C494 C488 1.404 . S
C494 H492 0.949 1_554 S
C494 C493 1.385 . S
H495 C493 0.950 1_556 S
H496 C480 0.951 . S
H497 C482 0.951 . S
H498 C484 0.951 . S
H499 C485 0.919 1_556 S
H500 C486 0.950 1_556 S
H501 C487 0.950 . S
H502 C489 0.950 . S
H503 C490 0.951 . S
C504 C505 1.386 . S
C504 C506 1.383 . S
C504 H520 0.951 . S
C505 C504 1.386 . S
C505 C509 1.383 . S
C506 C504 1.383 . S
C506 C507 1.402 . S
C506 H521 0.951 . S
C507 C506 1.402 . S
C507 C508 1.375 . S
C507 C510 1.481 . S
C508 C507 1.375 . S
C508 C509 1.367 . S
C508 H522 0.951 . S
C509 C505 1.383 . S
C509 C508 1.367 . S
C509 H523 0.950 . S
C510 C507 1.481 . S
C510 C511 1.297 . S
C510 H524 0.950 1_565 S
C511 C510 1.297 . S
C511 C512 1.479 1_565 S
C511 H525 0.950 . S
C512 C511 1.479 1_545 S
C512 C513 1.375 . S
C512 C518 1.404 . S
C513 C512 1.375 . S
C513 C514 1.369 . S
C513 H526 0.950 1_545 S
C514 C513 1.369 . S
C514 C515 1.392 . S
C514 H527 0.951 . S
C515 C514 1.392 . S
C515 C517 1.384 . S
H516 C518 0.949 . S
C517 C515 1.384 . S
C517 C518 1.385 . S
C517 H519 0.950 . S
C518 C512 1.404 . S
C518 H516 0.949 . S
C518 C517 1.385 . S
H519 C517 0.950 . S
H520 C504 0.951 . S
H521 C506 0.951 . S
H522 C508 0.951 . S
H523 C509 0.950 . S
H524 C510 0.950 1_545 S
H525 C511 0.950 . S
H526 C513 0.950 1_565 S
H527 C514 0.951 . S
C528 C529 1.386 . S
C528 C530 1.383 . S
C528 H544 0.951 . S
C529 C528 1.386 . S
C529 C533 1.383 . S
C530 C528 1.383 . S
C530 C531 1.402 . S
C530 H545 0.951 . S
C531 C530 1.402 . S
C531 C532 1.375 . S
C531 C534 1.481 . S
C532 C531 1.375 . S
C532 C533 1.367 . S
C532 H546 0.951 . S
C533 C529 1.383 . S
C533 C532 1.367 . S
C533 H547 0.950 . S
C534 C531 1.481 . S
C534 C535 1.297 . S
C534 H548 0.950 . S
C535 C534 1.297 . S
C535 C536 1.479 . S
C535 H549 0.950 . S
C536 C535 1.479 . S
C536 C537 1.375 . S
C536 C542 1.404 . S
C537 C536 1.375 . S
C537 C538 1.369 . S
C537 H550 0.950 . S
C538 C537 1.369 . S
C538 C539 1.392 . S
C538 H551 0.951 . S
C539 C538 1.392 . S
C539 C541 1.384 . S
H540 C542 0.949 . S
C541 C539 1.384 . S
C541 C542 1.385 . S
C541 H543 0.950 . S
C542 C536 1.404 . S
C542 H540 0.949 . S
C542 C541 1.385 . S
H543 C541 0.950 . S
H544 C528 0.951 . S
H545 C530 0.951 . S
H546 C532 0.951 . S
H547 C533 0.950 . S
H548 C534 0.950 . S
H549 C535 0.950 . S
H550 C537 0.950 . S
H551 C538 0.951 . S
C552 C553 1.386 . S
C552 C554 1.383 1_655 S
C552 H568 0.951 . S
C553 C552 1.386 . S
C553 C557 1.383 . S
C554 C552 1.383 1_455 S
C554 C555 1.402 . S
C554 H569 0.951 . S
C555 C554 1.402 . S
C555 C556 1.375 1_455 S
C555 C558 1.481 . S
C556 C555 1.375 1_655 S
C556 C557 1.367 . S
C556 H570 0.951 . S
C557 C553 1.383 . S
C557 C556 1.367 . S
C557 H571 0.950 . S
C558 C555 1.481 . S
C558 C559 1.297 . S
C558 H572 0.950 . S
C559 C558 1.297 . S
C559 C560 1.479 . S
C559 H573 0.950 . S
C560 C559 1.479 . S
C560 C561 1.375 . S
C560 C566 1.404 . S
C561 C560 1.375 . S
C561 C562 1.369 . S
C561 H574 0.950 . S
C562 C561 1.369 . S
C562 C563 1.392 . S
C562 H575 0.951 . S
C563 C562 1.392 . S
C563 C565 1.384 . S
H564 C566 0.949 . S
C565 C563 1.384 . S
C565 C566 1.385 . S
C565 H567 0.950 . S
C566 C560 1.404 . S
C566 H564 0.949 . S
C566 C565 1.385 . S
H567 C565 0.950 . S
H568 C552 0.951 . S
H569 C554 0.951 . S
H570 C556 0.951 . S
H571 C557 0.950 . S
H572 C558 0.950 . S
H573 C559 0.950 . S
H574 C561 0.950 . S
H575 C562 0.951 . S
C576 C577 1.386 . S
C576 C578 1.383 . S
C576 H592 0.951 . S
C577 C576 1.386 . S
C577 C581 1.383 1_565 S
C578 C576 1.383 . S
C578 C579 1.402 1_565 S
C578 H593 0.951 . S
C579 C578 1.402 1_545 S
C579 C580 1.375 . S
C579 C582 1.481 . S
C580 C579 1.375 . S
C580 C581 1.367 . S
C580 H594 0.951 . S
C581 C577 1.383 1_545 S
C581 C580 1.367 . S
C581 H595 0.950 . S
C582 C579 1.481 . S
C582 C583 1.297 . S
C582 H596 0.950 . S
C583 C582 1.297 . S
C583 C584 1.479 . S
C583 H597 0.950 . S
C584 C583 1.479 . S
C584 C585 1.375 . S
C584 C590 1.404 . S
C585 C584 1.375 . S
C585 C586 1.369 . S
C585 H598 0.950 . S
C586 C585 1.369 . S
C586 C587 1.392 . S
C586 H599 0.951 . S
C587 C586 1.392 . S
C587 C589 1.384 . S
H588 C590 0.949 . S
C589 C587 1.384 . S
C589 C590 1.385 . S
C589 H591 0.950 . S
C590 C584 1.404 . S
C590 H588 0.949 . S
C590 C589 1.385 . S
H591 C589 0.950 . S
H592 C576 0.951 . S
H593 C578 0.951 . S
H594 C580 0.951 . S
H595 C581 0.950 . S
H596 C582 0.950 . S
H597 C583 0.950 . S
H598 C585 0.950 . S
H599 C586 0.951 . S
C600 C601 1.386 . S
C600 C602 1.383 . S
C600 H616 0.951 . S
C601 C600 1.386 . S
C601 C605 1.383 . S
C602 C600 1.383 . S
C602 C603 1.402 . S
C602 H617 0.951 . S
C603 C602 1.402 . S
C603 C604 1.375 . S
C603 C606 1.481 . S
C604 C603 1.375 . S
C604 C605 1.367 . S
C604 H618 0.951 . S
C605 C601 1.383 . S
C605 C604 1.367 . S
C605 H619 0.950 . S
C606 C603 1.481 . S
C606 C607 1.297 . S
C606 H620 0.950 . S
C607 C606 1.297 . S
C607 C608 1.479 . S
C607 H621 0.950 . S
C608 C607 1.479 . S
C608 C609 1.375 . S
C608 C614 1.404 . S
C609 C608 1.375 . S
C609 C610 1.369 . S
C609 H622 0.950 . S
C610 C609 1.369 . S
C610 C611 1.392 . S
C610 H623 0.951 . S
C611 C610 1.392 . S
C611 C613 1.384 . S
H612 C614 0.949 . S
C613 C611 1.384 . S
C613 C614 1.385 . S
C613 H615 0.950 . S
C614 C608 1.404 . S
C614 H612 0.949 . S
C614 C613 1.385 . S
H615 C613 0.950 . S
H616 C600 0.951 . S
H617 C602 0.951 . S
H618 C604 0.951 . S
H619 C605 0.950 . S
H620 C606 0.950 . S
H621 C607 0.950 . S
H622 C609 0.950 . S
H623 C610 0.951 . S
C624 C625 1.386 1_655 S
C624 C626 1.383 . S
C624 H640 0.951 . S
C625 C624 1.386 1_455 S
C625 C629 1.383 . S
C626 C624 1.383 . S
C626 C627 1.399 1_655 S
C626 H641 0.951 . S
C627 C626 1.399 1_455 S
C627 C628 1.379 . S
C627 C630 1.480 1_455 S
C628 C627 1.379 . S
C628 C629 1.367 . S
C628 H642 0.951 . S
C629 C625 1.383 . S
C629 C628 1.367 . S
C629 H643 0.950 . S
C630 C627 1.480 1_655 S
C630 C631 1.297 . S
C630 H644 0.950 1_655 S
C631 C630 1.297 . S
C631 C632 1.479 . S
C631 H645 0.950 . S
C632 C631 1.479 . S
C632 C633 1.375 . S
C632 C638 1.404 . S
C633 C632 1.375 . S
C633 C634 1.369 . S
C633 H646 0.950 . S
C634 C633 1.369 . S
C634 C635 1.392 . S
C634 H647 0.951 . S
C635 C634 1.392 . S
C635 C637 1.384 . S
H636 C638 0.949 . S
C637 C635 1.384 . S
C637 C638 1.385 . S
C637 H639 0.950 . S
C638 C632 1.404 . S
C638 H636 0.949 . S
C638 C637 1.385 . S
H639 C637 0.950 . S
H640 C624 0.951 . S
H641 C626 0.951 . S
H642 C628 0.951 . S
H643 C629 0.950 . S
H644 C630 0.950 1_455 S
H645 C631 0.950 . S
H646 C633 0.950 . S
H647 C634 0.951 . S
C648 C649 1.386 1_565 S
C648 C650 1.383 . S
C648 H664 0.951 . S
C649 C648 1.386 1_545 S
C649 C653 1.383 . S
C650 C648 1.383 . S
C650 C651 1.402 . S
C650 H665 0.951 . S
C651 C650 1.402 . S
C651 C652 1.375 1_565 S
C651 C654 1.481 . S
C652 C651 1.375 1_545 S
C652 C653 1.367 . S
C652 H666 0.951 . S
C653 C649 1.383 . S
C653 C652 1.367 . S
C653 H667 0.950 . S
C654 C651 1.481 . S
C654 C655 1.297 . S
C654 H668 0.950 1_565 S
C655 C654 1.297 . S
C655 C656 1.479 . S
C655 H669 0.950 . S
C656 C655 1.479 . S
C656 C657 1.375 . S
C656 C662 1.404 . S
C657 C656 1.375 . S
C657 C658 1.369 . S
C657 H670 0.950 . S
C658 C657 1.369 . S
C658 C659 1.392 . S
C658 H671 0.951 . S
C659 C658 1.392 . S
C659 C661 1.384 . S
H660 C662 0.949 . S
C661 C659 1.384 . S
C661 C662 1.385 . S
C661 H663 0.950 . S
C662 C656 1.404 . S
C662 H660 0.949 . S
C662 C661 1.385 . S
H663 C661 0.950 . S
H664 C648 0.951 . S
H665 C650 0.951 . S
H666 C652 0.951 . S
H667 C653 0.950 . S
H668 C654 0.950 1_545 S
H669 C655 0.950 . S
H670 C657 0.950 . S
H671 C658 0.951 . S
C241 C179 1.155 . S
C251 C6 1.160 . S
C265 C219 1.143 . S
C275 C46 1.157 . S
C289 C19 1.148 . S
C299 C86 1.160 . S
C313 C59 1.167 . S
C323 C126 1.159 . S
C337 C99 1.143 . S
C347 C166 1.157 . S
C361 C139 1.151 . S
C371 C206 1.160 . S
C385 C9 0.660 . S
C395 C129 0.803 . S
C409 C169 0.792 . S
C419 C49 0.791 . S
C433 C209 0.753 . S
C443 C89 0.850 . S
C457 C98 0.773 . S
C467 C218 0.755 . S
C481 C18 0.749 . S
C491 C138 0.775 . S
C505 C178 0.751 . S
C515 C58 0.763 . S
C529 C210 1.263 . S
C539 C15 1.193 . S
C553 C55 1.259 . S
C563 C10 1.241 . S
C577 C95 1.227 . S
C587 C50 1.255 . S
C601 C90 1.251 . S
C611 C135 1.273 . S
C625 C175 1.248 . S
C635 C130 1.248 . S
C649 C215 1.251 . S
C659 C170 1.247 . S
