# Generated by pormake.
# Topology tsi, (8)-cn, num edge types: 1
# Building blocks:
#     Node 0, Type 0, BuildingBlock: TAGTUT_clean_sbu_3, # of connection points: 8
#     Node 1, Type 0, BuildingBlock: TAGTUT_clean_sbu_3, # of connection points: 8
#     Node 2, Type 0, BuildingBlock: TAGTUT_clean_sbu_3, # of connection points: 8
#     Node 3, Type 0, BuildingBlock: TAGTUT_clean_sbu_3, # of connection points: 8
#     Edge 4, Type (0, 0), BuildingBlock: AJUNOK_clean_linker_0, # of connection points: 2
#     Edge 5, Type (0, 0), BuildingBlock: AJUNOK_clean_linker_0, # of connection points: 2
#     Edge 6, Type (0, 0), BuildingBlock: AJUNOK_clean_linker_0, # of connection points: 2
#     Edge 7, Type (0, 0), BuildingBlock: AJUNOK_clean_linker_0, # of connection points: 2
#     Edge 8, Type (0, 0), BuildingBlock: AJUNOK_clean_linker_0, # of connection points: 2
#     Edge 9, Type (0, 0), BuildingBlock: AJUNOK_clean_linker_0, # of connection points: 2
#     Edge 10, Type (0, 0), BuildingBlock: AJUNOK_clean_linker_0, # of connection points: 2
#     Edge 11, Type (0, 0), BuildingBlock: AJUNOK_clean_linker_0, # of connection points: 2
#     Edge 12, Type (0, 0), BuildingBlock: AJUNOK_clean_linker_0, # of connection points: 2
#     Edge 13, Type (0, 0), BuildingBlock: AJUNOK_clean_linker_0, # of connection points: 2
#     Edge 14, Type (0, 0), BuildingBlock: AJUNOK_clean_linker_0, # of connection points: 2
#     Edge 15, Type (0, 0), BuildingBlock: AJUNOK_clean_linker_0, # of connection points: 2
#     Edge 16, Type (0, 0), BuildingBlock: AJUNOK_clean_linker_0, # of connection points: 2
#     Edge 17, Type (0, 0), BuildingBlock: AJUNOK_clean_linker_0, # of connection points: 2
#     Edge 18, Type (0, 0), BuildingBlock: AJUNOK_clean_linker_0, # of connection points: 2
#     Edge 19, Type (0, 0), BuildingBlock: AJUNOK_clean_linker_0, # of connection points: 2
# Relax obj value: 0.151
# Max RMSD: 0.223
# Mean RMSD: 0.223
data_MOF--net-tsi--node1-TAGTUT_clean_sbu_3--edge1-AJUNOK_clean_linker_0
_symmetry_space_group_name_H-M    P1
_symmetry_Int_Tables_number       1
_symmetry_cell_setting            triclinic
loop_
_symmetry_equiv_pos_as_xyz
'x, y, z'
_cell_length_a     11.953751
_cell_length_b     11.985237
_cell_length_c     54.923714
_cell_angle_alpha  91.71449
_cell_angle_beta   89.526225
_cell_angle_gamma 89.909498
loop_
_atom_site_label
_atom_site_type_symbol
_atom_site_fract_x
_atom_site_fract_y
_atom_site_fract_z
_atom_type_partial_charge
C0 C 0.24585 0.16494 0.33652 0.0
C1 C 0.03873 0.10119 0.25061 0.0
C2 C 0.77009 0.24826 0.28717 0.0
Mg3 Mg 0.13655 0.21295 0.38941 0.0
Mg4 Mg 0.8869 0.11575 0.40592 0.0
O5 O 0.97406 0.1814 0.38241 0.0
Mg6 Mg 0.98299 0.136 0.34722 0.0
O7 O 0.00534 0.10323 0.31163 0.0
Mg8 Mg 0.04352 0.25859 0.30207 0.0
Mg9 Mg 0.89176 0.03124 0.29413 0.0
C10 C 0.71349 0.12009 0.3623 0.0
O11 O 0.97072 0.94377 0.35071 0.0
O12 O 0.08009 0.30199 0.42443 0.0
O13 O 0.89133 0.8826 0.31562 0.0
O14 O 0.15331 0.05566 0.41308 0.0
O15 O 0.90427 0.24805 0.43347 0.0
O16 O 0.98638 0.97413 0.41418 0.0
O17 O -0.00416 0.32231 0.34049 0.0
O18 O 0.11028 0.37466 0.37022 0.0
C19 C 0.04858 0.39881 0.35233 0.0
C20 C 0.99093 0.30855 0.4374 0.0
O21 O 0.79005 0.14019 0.34644 0.0
O22 O 0.07619 0.18309 0.26375 0.0
O23 O 0.73466 0.10146 0.38471 0.0
O24 O 0.86609 0.29447 0.28874 0.0
O25 O 0.96832 0.02996 0.25838 0.0
O26 O 0.7558 0.14659 0.29279 0.0
O27 O 0.17066 0.13098 0.35123 0.0
O28 O 0.21962 0.21362 0.3168 0.0
C29 C 0.08481 0.98683 0.42258 0.0
C30 C 0.93391 0.86445 0.33657 0.0
C31 C 0.29745 0.78514 0.6102 0.0
C32 C 0.09348 0.87247 0.6958 0.0
C33 C 0.82182 0.71317 0.66307 0.0
Mg34 Mg 0.18491 0.74069 0.55752 0.0
Mg35 Mg 0.94417 0.85808 0.54279 0.0
O36 O 0.02143 0.77347 0.565 0.0
Mg37 Mg 0.03373 0.82055 0.60027 0.0
O38 O 0.05602 0.85583 0.63559 0.0
Mg39 Mg 0.09478 0.70246 0.6462 0.0
Mg40 Mg 0.94035 0.92838 0.65289 0.0
C41 C 0.76582 0.8427 0.58581 0.0
O42 O 0.02343 0.01242 0.59628 0.0
O43 O 0.12285 0.65714 0.52254 0.0
O44 O 0.93629 0.07437 0.63077 0.0
O45 O 0.21283 0.89944 0.53461 0.0
O46 O 0.95967 0.7375 0.51267 0.0
O47 O 0.05781 -0.00652 0.54122 0.0
O48 O 0.04507 0.63452 0.60798 0.0
O49 O 0.15383 0.58015 0.57686 0.0
C50 C 0.09638 0.55739 0.59571 0.0
C51 C 0.037 0.66457 0.50888 0.0
O52 O 0.84019 0.82084 0.6018 0.0
O53 O 0.13108 0.78727 0.68352 0.0
O54 O 0.79015 0.8666 0.56376 0.0
O55 O 0.91828 0.66761 0.66115 0.0
O56 O 0.01953 0.93908 0.68783 0.0
O57 O 0.80586 0.81306 0.65648 0.0
O58 O 0.22352 0.82009 0.59546 0.0
O59 O 0.27014 0.74322 0.63063 0.0
C60 C 0.14313 0.9732 0.52792 0.0
C61 C 0.98297 0.09186 0.61008 0.0
C62 C 0.57434 0.94177 0.85093 0.0
C63 C 0.49013 0.85464 0.93495 0.0
C64 C 0.62463 0.53794 0.92486 0.0
Mg65 Mg 0.5816 0.79933 0.80101 0.0
Mg66 Mg 0.42668 0.57496 0.79205 0.0
O67 O 0.5387 0.64531 0.81053 0.0
Mg68 Mg 0.51391 0.67644 0.84618 0.0
O69 O 0.50145 0.71834 0.8814 0.0
Mg70 Mg 0.65857 0.76342 0.88973 0.0
Mg71 Mg 0.41625 0.64763 0.9046 0.0
C72 C 0.46484 0.40733 0.8348 0.0
O73 O 0.31972 0.67434 0.84499 0.0
O74 O 0.62193 0.72197 0.76305 0.0
O75 O 0.26639 0.62685 0.88302 0.0
O76 O 0.40927 0.83833 0.7861 0.0
O77 O 0.51441 0.56879 0.75742 0.0
O78 O 0.29292 0.69395 0.78804 0.0
O79 O 0.70325 0.67641 0.85206 0.0
O80 O 0.754 0.75155 0.8168 0.0
C81 C 0.77864 0.7073 0.83707 0.0
C82 C 0.58744 0.63838 0.75001 0.0
O83 O 0.50299 0.48552 0.84906 0.0
O84 O 0.58376 0.85533 0.92338 0.0
O85 O 0.42146 0.42647 0.81395 0.0
O86 O 0.68382 0.61108 0.91419 0.0
O87 O 0.41299 0.78309 0.93073 0.0
O88 O 0.52207 0.52178 0.91936 0.0
O89 O 0.52503 0.86341 0.839 0.0
O90 O 0.63045 0.92039 0.86973 0.0
C91 C 0.31264 0.79544 0.78296 0.0
C92 C 0.24442 0.64912 0.86083 0.0
C93 C 0.74152 0.29141 0.11432 0.0
C94 C 0.54366 0.34917 0.20199 0.0
C95 C 0.26576 0.21353 0.16647 0.0
Mg96 Mg 0.62546 0.24733 0.0615 0.0
Mg97 Mg 0.38515 0.36866 0.0468 0.0
O98 O 0.46861 0.29575 0.06973 0.0
Mg99 Mg 0.47861 0.33184 0.10533 0.0
O100 O 0.5022 0.35657 0.14118 0.0
Mg101 Mg 0.53768 0.19875 0.14948 0.0
Mg102 Mg 0.39325 0.42926 0.16041 0.0
C103 C 0.21086 0.36403 0.09113 0.0
O104 O 0.47001 0.52507 0.1038 0.0
O105 O 0.55638 0.16828 0.0263 0.0
O106 O 0.39198 0.58063 0.13985 0.0
O107 O 0.65893 0.40192 0.03872 0.0
O108 O 0.38416 0.23782 0.01942 0.0
O109 O 0.49663 0.48658 0.03068 0.0
O110 O 0.48458 0.14466 0.11117 0.0
O111 O 0.58866 0.08624 0.07989 0.0
C112 C 0.53004 0.06563 0.09861 0.0
C113 C 0.46559 0.17198 0.01409 0.0
O114 O 0.28583 0.33468 0.10638 0.0
O115 O 0.57533 0.26656 0.18816 0.0
O116 O 0.23403 0.39141 0.06915 0.0
O117 O 0.36016 0.16468 0.16344 0.0
O118 O 0.47626 0.42493 0.19514 0.0
O119 O 0.2542 0.31748 0.16265 0.0
O120 O 0.66669 0.32702 0.09998 0.0
O121 O 0.71466 0.24203 0.13402 0.0
C122 C 0.60171 0.4724 0.02696 0.0
C123 C 0.43255 0.60188 0.11874 0.0
C124 C 0.04728 0.37951 0.47792 0.0
C125 C 0.98808 0.39554 0.45645 0.0
C126 C 0.06301 0.46791 0.49465 0.0
C127 C 0.02052 0.57527 0.49032 0.0
H128 H 0.08374 0.29881 0.48151 0.0
H129 H 0.10872 0.45173 0.51114 0.0
S130 S 0.86566 0.66005 0.43569 0.0
N131 N 0.89073 0.52546 0.43091 0.0
N132 N 0.91932 0.69272 0.46261 0.0
C133 C 0.96067 0.59194 0.46885 0.0
C134 C 0.94494 0.50164 0.45178 0.0
C135 C 0.5882 0.71217 0.70866 0.0
C136 C 0.62524 0.63116 0.72464 0.0
C137 C 0.64283 0.72746 0.68641 0.0
C138 C 0.73845 0.66417 0.67982 0.0
H139 H 0.52155 0.76924 0.71415 0.0
H140 H 0.61664 0.79682 0.67559 0.0
S141 S 0.85084 0.42435 0.71349 0.0
N142 N 0.74837 0.47431 0.73101 0.0
N143 N 0.8528 0.50207 0.68915 0.0
C144 C 0.7667 0.57325 0.6944 0.0
C145 C 0.71023 0.55765 0.71702 0.0
C146 C 0.60722 0.61178 0.96684 0.0
C147 C 0.64886 0.52719 0.95098 0.0
C148 C 0.6037 0.59948 -0.00798 0.0
C149 C 0.64422 0.50264 0.00255 0.0
H150 H 0.56957 0.68524 0.95959 0.0
H151 H 0.56096 0.66258 0.00298 0.0
S152 S 0.78 0.26323 0.969 0.0
N153 N 0.74428 0.34911 0.94739 0.0
N154 N 0.74063 0.32476 -0.00498 0.0
C155 C 0.69684 0.42148 -0.01304 0.0
C156 C 0.69828 0.43377 0.96107 0.0
C157 C 0.59456 0.23508 0.26344 0.0
C158 C 0.68474 0.30089 0.2718 0.0
C159 C 0.54283 0.25705 0.24139 0.0
C160 C 0.57677 0.34749 0.22752 0.0
H161 H 0.5717 0.15917 0.27247 0.0
H162 H 0.48134 0.19841 0.23431 0.0
S163 S 0.78312 0.56439 0.24479 0.0
N164 N 0.78742 0.47502 0.26709 0.0
N165 N 0.68776 0.516 0.22563 0.0
C166 C 0.6541 0.42338 0.2373 0.0
C167 C 0.70805 0.40066 0.25968 0.0
C168 C 0.21165 0.06212 0.19423 0.0
C169 C 0.17984 0.15713 0.18127 0.0
C170 C 0.15726 0.03525 0.21594 0.0
C171 C 0.06774 0.10036 0.22475 0.0
H172 H 0.28678 0.01585 0.18927 0.0
H173 H 0.19187 0.97024 0.22694 0.0
S174 S 0.92902 0.33309 0.194 0.0
N175 N 0.03642 0.29915 0.17615 0.0
N176 N 0.93328 0.24627 0.21677 0.0
C177 C 0.02413 0.18362 0.21016 0.0
C178 C 0.07995 0.21207 0.18825 0.0
C179 C 0.23678 0.9322 0.72535 0.0
C180 C 0.13103 0.88713 0.72083 0.0
C181 C 0.28892 0.91626 0.74763 0.0
C182 C 0.23835 0.85068 0.76562 0.0
H183 H 0.28286 0.97233 0.71097 0.0
H184 H 0.37447 0.9448 0.74947 0.0
S185 S 0.94921 0.73973 0.76402 0.0
N186 N 0.96763 0.79497 0.73711 0.0
N187 N 0.06704 0.76108 0.77903 0.0
C188 C 0.12688 0.8171 0.76222 0.0
C189 C 0.07301 0.8357 0.73967 0.0
C190 C 0.44895 0.90306 -0.0219 0.0
C191 C 0.47217 0.9377 0.95443 0.0
C192 C 0.44233 0.98105 -0.00257 0.0
C193 C 0.45541 0.09512 -0.00665 0.0
H194 H 0.44011 0.81527 -0.01818 0.0
H195 H 0.42908 0.9522 0.01571 0.0
S196 S 0.49892 0.22819 0.93412 0.0
N197 N 0.49771 0.09284 0.92745 0.0
N198 N 0.48042 0.24057 0.96394 0.0
C199 C 0.47121 0.13135 0.96959 0.0
C200 C 0.48087 0.05191 0.94999 0.0
C201 C 0.20444 0.95654 0.45941 0.0
C202 C 0.09802 0.97063 0.44915 0.0
C203 C 0.21922 0.96006 0.48486 0.0
C204 C 0.12881 0.98167 0.50103 0.0
H205 H 0.27689 0.94371 0.44767 0.0
H206 H 0.30228 0.94624 0.49193 0.0
S207 S 0.83315 0.03078 0.48326 0.0
N208 N 0.90057 0.0083 0.45731 0.0
N209 N 0.92889 0.02092 0.50447 0.0
C210 C 0.02226 -0.00178 0.49085 0.0
C211 C 0.00671 -0.00921 0.46515 0.0
C212 C 0.91493 0.6592 0.32729 0.0
C213 C 0.95643 0.74619 0.34253 0.0
C214 C 0.94719 0.54793 0.33016 0.0
C215 C 0.02265 0.51839 0.34841 0.0
H216 H 0.85805 0.67701 0.31262 0.0
H217 H 0.9123 0.48476 0.31798 0.0
S218 S 0.15366 0.71356 0.39381 0.0
N219 N 0.07571 0.7941 0.37698 0.0
N220 N 0.136 0.58583 0.38253 0.0
C221 C 0.06371 0.60431 0.36406 0.0
C222 C 0.03049 0.71767 0.36117 0.0
C223 C 0.4911 0.84442 0.62103 0.0
C224 C 0.41689 0.79633 0.60397 0.0
C225 C 0.60429 0.86044 0.6151 0.0
C226 C 0.64659 0.82814 0.592 0.0
H227 H 0.46094 0.87191 0.63888 0.0
H228 H 0.65825 0.90032 0.62845 0.0
S229 S 0.48955 0.68471 0.54219 0.0
N230 N 0.39595 0.70728 0.56403 0.0
N231 N 0.60756 0.73769 0.55274 0.0
C232 C 0.57363 0.77726 0.57508 0.0
C233 C 0.45896 0.7611 0.58112 0.0
C234 C 0.43423 0.20206 0.82741 0.0
C235 C 0.48792 0.28928 0.84053 0.0
C236 C 0.46495 0.09012 0.83018 0.0
C237 C 0.55125 0.06085 0.84605 0.0
H238 H 0.36819 0.2203 0.81473 0.0
H239 H 0.41957 0.02621 0.82003 0.0
S240 S 0.72222 0.25793 0.88389 0.0
N241 N 0.63348 0.33832 0.86969 0.0
N242 N 0.69248 0.12938 0.87459 0.0
C243 C 0.60641 0.1475 0.85912 0.0
C244 C 0.57423 0.26111 0.85653 0.0
C245 C 0.05883 0.27294 0.11487 0.0
C246 C 0.09162 0.35395 0.0982 0.0
C247 C 0.94565 0.25323 0.12003 0.0
C248 C 0.86081 0.31358 0.10866 0.0
H249 H 0.12086 0.22155 0.12343 0.0
H250 H 0.92464 0.18884 0.13271 0.0
S251 S 0.90289 0.54183 0.0651 0.0
N252 N 0.03053 0.49917 0.07135 0.0
N253 N 0.81808 0.46326 0.08108 0.0
C254 C 0.89267 0.39694 0.09239 0.0
C255 C 0.00789 0.4168 0.08715 0.0
C256 C 0.94842 0.29666 0.61671 0.0
C257 C 0.00728 0.20965 0.60438 0.0
C258 C 0.9801 0.40853 0.61457 0.0
C259 C 0.07217 0.43815 0.60004 0.0
H260 H 0.87772 0.27824 0.62838 0.0
H261 H 0.93086 0.47217 0.62414 0.0
S262 S 0.25793 0.24201 0.56479 0.0
N263 N 0.16445 0.1611 0.57766 0.0
N264 N 0.22401 0.37055 0.57358 0.0
C265 C 0.13228 0.3519 0.5877 0.0
C266 C 0.09964 0.2381 0.5898 0.0
C267 C 0.94137 0.73777 0.86421 0.0
C268 C 0.89663 0.68894 0.84294 0.0
C269 C 0.0543 0.72314 0.86988 0.0
C270 C 0.12578 0.65936 0.85442 0.0
H271 H 0.88918 0.78888 0.87633 0.0
H272 H 0.08646 0.76367 0.88627 0.0
S273 S 0.04368 0.49828 0.79891 0.0
N274 N 0.92776 0.56309 0.80801 0.0
N275 N 0.14145 0.5378 0.81843 0.0
C276 C 0.08112 0.6071 0.83353 0.0
C277 C 0.96583 0.62121 0.82787 0.0
C278 C 0.44484 0.80428 0.13155 0.0
C279 C 0.44827 0.72089 0.11282 0.0
C280 C 0.47125 0.91577 0.12696 0.0
C281 C 0.5029 0.94794 0.10353 0.0
H282 H 0.42439 0.78315 0.1501 0.0
H283 H 0.46892 0.97653 0.14195 0.0
S284 S 0.511 0.76577 0.04773 0.0
N285 N 0.47595 0.6811 0.0696 0.0
N286 N 0.52628 0.88983 0.06098 0.0
C287 C 0.50287 0.86635 0.08452 0.0
C288 C 0.47533 0.75323 0.08916 0.0
C289 C 0.56147 0.19952 0.33713 0.0
C290 C 0.59517 0.12465 0.35489 0.0
C291 C 0.44856 0.21117 0.33104 0.0
C292 C 0.36508 0.14887 0.34265 0.0
H293 H 0.62224 0.25238 0.32844 0.0
H294 H 0.42655 0.27126 0.31752 0.0
S295 S 0.41128 0.93399 0.38899 0.0
N296 N 0.5374 0.98247 0.38301 0.0
N297 N 0.32531 0.00373 0.37164 0.0
C298 C 0.39822 0.07148 0.36004 0.0
C299 C 0.51315 0.05969 0.36618 0.0
loop_
_geom_bond_atom_site_label_1
_geom_bond_atom_site_label_2
_geom_bond_distance
_geom_bond_site_symmetry_2
_ccdc_geom_bond_type
C0 O27 1.312 . S
C0 O28 1.208 . S
C1 O22 1.331 . S
C1 O25 1.244 . S
C2 O24 1.264 . S
C2 O26 1.273 . S
Mg3 O5 1.936 1_455 S
Mg3 O12 2.081 1_455 S
Mg3 O14 2.023 . S
Mg3 O18 2.031 . S
Mg3 O27 2.291 . S
Mg4 O5 1.963 . S
Mg4 O15 1.942 . S
Mg4 O16 1.955 . S
Mg4 O23 1.986 . S
O5 Mg3 1.936 1_655 S
O5 Mg4 1.963 . S
O5 Mg6 1.915 . S
Mg6 O5 1.915 . S
Mg6 O7 1.915 1_655 S
Mg6 O11 2.013 . S
Mg6 O17 2.114 1_655 S
Mg6 O21 2.013 . S
Mg6 O27 2.114 1_655 S
O7 Mg6 1.915 1_455 S
O7 Mg8 1.936 . S
O7 Mg9 1.963 1_455 S
Mg8 O7 1.936 . S
Mg8 O17 2.291 . S
Mg8 O22 2.081 . S
Mg8 O24 2.023 1_455 S
Mg8 O28 2.031 . S
Mg9 O7 1.963 1_655 S
Mg9 O13 1.986 1_545 S
Mg9 O25 1.942 1_655 S
Mg9 O26 1.955 . S
C10 O21 1.191 . S
C10 O23 1.307 . S
O11 Mg6 2.013 . S
O11 C30 1.191 1_545 S
O12 Mg3 2.081 1_655 S
O12 C20 1.331 . S
O13 Mg9 1.986 1_565 S
O13 C30 1.307 . S
O14 Mg3 2.023 . S
O14 C29 1.264 . S
O15 Mg4 1.942 . S
O15 C20 1.244 . S
O16 Mg4 1.955 . S
O16 C29 1.273 1_655 S
O17 Mg6 2.114 1_455 S
O17 Mg8 2.291 . S
O17 C19 1.312 . S
O18 Mg3 2.031 . S
O18 C19 1.208 . S
C19 O17 1.312 . S
C19 O18 1.208 . S
C20 O12 1.331 . S
C20 O15 1.244 . S
O21 Mg6 2.013 . S
O21 C10 1.191 . S
O22 C1 1.331 . S
O22 Mg8 2.081 . S
O23 Mg4 1.986 . S
O23 C10 1.307 . S
O24 C2 1.264 . S
O24 Mg8 2.023 1_655 S
O25 C1 1.244 . S
O25 Mg9 1.942 1_455 S
O26 C2 1.273 . S
O26 Mg9 1.955 . S
O27 C0 1.312 . S
O27 Mg3 2.291 . S
O27 Mg6 2.114 1_455 S
O28 C0 1.208 . S
O28 Mg8 2.031 . S
C29 O14 1.264 . S
C29 O16 1.273 1_455 S
C30 O11 1.191 1_565 S
C30 O13 1.307 . S
C31 O58 1.312 . S
C31 O59 1.208 . S
C32 O53 1.331 . S
C32 O56 1.244 . S
C33 O55 1.264 . S
C33 O57 1.273 . S
Mg34 O36 1.936 1_455 S
Mg34 O43 2.081 1_455 S
Mg34 O45 2.023 . S
Mg34 O49 2.031 . S
Mg34 O58 2.291 . S
Mg35 O36 1.963 . S
Mg35 O46 1.942 . S
Mg35 O47 1.955 . S
Mg35 O54 1.986 . S
O36 Mg34 1.936 1_655 S
O36 Mg35 1.963 . S
O36 Mg37 1.915 . S
Mg37 O36 1.915 . S
Mg37 O38 1.915 1_655 S
Mg37 O42 2.013 . S
Mg37 O48 2.114 1_655 S
Mg37 O52 2.013 . S
Mg37 O58 2.114 1_655 S
O38 Mg37 1.915 1_455 S
O38 Mg39 1.936 . S
O38 Mg40 1.963 1_455 S
Mg39 O38 1.936 . S
Mg39 O48 2.291 . S
Mg39 O53 2.081 . S
Mg39 O55 2.023 1_455 S
Mg39 O59 2.031 . S
Mg40 O38 1.963 1_655 S
Mg40 O44 1.986 1_565 S
Mg40 O56 1.942 1_655 S
Mg40 O57 1.955 . S
C41 O52 1.191 . S
C41 O54 1.307 . S
O42 Mg37 2.013 . S
O42 C61 1.191 1_565 S
O43 Mg34 2.081 1_655 S
O43 C51 1.331 . S
O44 Mg40 1.986 1_545 S
O44 C61 1.307 . S
O45 Mg34 2.023 . S
O45 C60 1.264 . S
O46 Mg35 1.942 . S
O46 C51 1.244 . S
O47 Mg35 1.955 . S
O47 C60 1.273 1_655 S
O48 Mg37 2.114 1_455 S
O48 Mg39 2.291 . S
O48 C50 1.312 . S
O49 Mg34 2.031 . S
O49 C50 1.208 . S
C50 O48 1.312 . S
C50 O49 1.208 . S
C51 O43 1.331 . S
C51 O46 1.244 . S
O52 Mg37 2.013 . S
O52 C41 1.191 . S
O53 C32 1.331 . S
O53 Mg39 2.081 . S
O54 Mg35 1.986 . S
O54 C41 1.307 . S
O55 C33 1.264 . S
O55 Mg39 2.023 1_655 S
O56 C32 1.244 . S
O56 Mg40 1.942 1_455 S
O57 C33 1.273 . S
O57 Mg40 1.955 . S
O58 C31 1.312 . S
O58 Mg34 2.291 . S
O58 Mg37 2.114 1_455 S
O59 C31 1.208 . S
O59 Mg39 2.031 . S
C60 O45 1.264 . S
C60 O47 1.273 1_455 S
C61 O42 1.191 1_545 S
C61 O44 1.307 . S
C62 O89 1.312 . S
C62 O90 1.208 . S
C63 O84 1.331 . S
C63 O87 1.244 . S
C64 O86 1.264 . S
C64 O88 1.273 . S
Mg65 O67 1.936 . S
Mg65 O74 2.081 . S
Mg65 O76 2.023 . S
Mg65 O80 2.031 . S
Mg65 O89 2.291 . S
Mg66 O67 1.963 . S
Mg66 O77 1.942 . S
Mg66 O78 1.955 . S
Mg66 O85 1.986 . S
O67 Mg65 1.936 . S
O67 Mg66 1.963 . S
O67 Mg68 1.915 . S
Mg68 O67 1.915 . S
Mg68 O69 1.915 . S
Mg68 O73 2.013 . S
Mg68 O79 2.114 . S
Mg68 O83 2.013 . S
Mg68 O89 2.114 . S
O69 Mg68 1.915 . S
O69 Mg70 1.936 . S
O69 Mg71 1.963 . S
Mg70 O69 1.936 . S
Mg70 O79 2.291 . S
Mg70 O84 2.081 . S
Mg70 O86 2.023 . S
Mg70 O90 2.031 . S
Mg71 O69 1.963 . S
Mg71 O75 1.986 . S
Mg71 O87 1.942 . S
Mg71 O88 1.955 . S
C72 O83 1.191 . S
C72 O85 1.307 . S
O73 Mg68 2.013 . S
O73 C92 1.191 . S
O74 Mg65 2.081 . S
O74 C82 1.331 . S
O75 Mg71 1.986 . S
O75 C92 1.307 . S
O76 Mg65 2.023 . S
O76 C91 1.264 . S
O77 Mg66 1.942 . S
O77 C82 1.244 . S
O78 Mg66 1.955 . S
O78 C91 1.273 . S
O79 Mg68 2.114 . S
O79 Mg70 2.291 . S
O79 C81 1.312 . S
O80 Mg65 2.031 . S
O80 C81 1.208 . S
C81 O79 1.312 . S
C81 O80 1.208 . S
C82 O74 1.331 . S
C82 O77 1.244 . S
O83 Mg68 2.013 . S
O83 C72 1.191 . S
O84 C63 1.331 . S
O84 Mg70 2.081 . S
O85 Mg66 1.986 . S
O85 C72 1.307 . S
O86 C64 1.264 . S
O86 Mg70 2.023 . S
O87 C63 1.244 . S
O87 Mg71 1.942 . S
O88 C64 1.273 . S
O88 Mg71 1.955 . S
O89 C62 1.312 . S
O89 Mg65 2.291 . S
O89 Mg68 2.114 . S
O90 C62 1.208 . S
O90 Mg70 2.031 . S
C91 O76 1.264 . S
C91 O78 1.273 . S
C92 O73 1.191 . S
C92 O75 1.307 . S
C93 O120 1.312 . S
C93 O121 1.208 . S
C94 O115 1.331 . S
C94 O118 1.244 . S
C95 O117 1.264 . S
C95 O119 1.273 . S
Mg96 O98 1.936 . S
Mg96 O105 2.081 . S
Mg96 O107 2.023 . S
Mg96 O111 2.031 . S
Mg96 O120 2.291 . S
Mg97 O98 1.963 . S
Mg97 O108 1.942 . S
Mg97 O109 1.955 . S
Mg97 O116 1.986 . S
O98 Mg96 1.936 . S
O98 Mg97 1.963 . S
O98 Mg99 1.915 . S
Mg99 O98 1.915 . S
Mg99 O100 1.915 . S
Mg99 O104 2.013 . S
Mg99 O110 2.114 . S
Mg99 O114 2.013 . S
Mg99 O120 2.114 . S
O100 Mg99 1.915 . S
O100 Mg101 1.936 . S
O100 Mg102 1.963 . S
Mg101 O100 1.936 . S
Mg101 O110 2.291 . S
Mg101 O115 2.081 . S
Mg101 O117 2.023 . S
Mg101 O121 2.031 . S
Mg102 O100 1.963 . S
Mg102 O106 1.986 . S
Mg102 O118 1.942 . S
Mg102 O119 1.955 . S
C103 O114 1.191 . S
C103 O116 1.307 . S
O104 Mg99 2.013 . S
O104 C123 1.191 . S
O105 Mg96 2.081 . S
O105 C113 1.331 . S
O106 Mg102 1.986 . S
O106 C123 1.307 . S
O107 Mg96 2.023 . S
O107 C122 1.264 . S
O108 Mg97 1.942 . S
O108 C113 1.244 . S
O109 Mg97 1.955 . S
O109 C122 1.273 . S
O110 Mg99 2.114 . S
O110 Mg101 2.291 . S
O110 C112 1.312 . S
O111 Mg96 2.031 . S
O111 C112 1.208 . S
C112 O110 1.312 . S
C112 O111 1.208 . S
C113 O105 1.331 . S
C113 O108 1.244 . S
O114 Mg99 2.013 . S
O114 C103 1.191 . S
O115 C94 1.331 . S
O115 Mg101 2.081 . S
O116 Mg97 1.986 . S
O116 C103 1.307 . S
O117 C95 1.264 . S
O117 Mg101 2.023 . S
O118 C94 1.244 . S
O118 Mg102 1.942 . S
O119 C95 1.273 . S
O119 Mg102 1.955 . S
O120 C93 1.312 . S
O120 Mg96 2.291 . S
O120 Mg99 2.114 . S
O121 C93 1.208 . S
O121 Mg101 2.031 . S
C122 O107 1.264 . S
C122 O109 1.273 . S
C123 O104 1.191 . S
C123 O106 1.307 . S
C124 C125 1.369 . S
C124 C126 1.419 . S
C124 H128 0.930 1_655 S
C125 C124 1.369 . S
C125 C134 1.429 . S
C126 C124 1.419 . S
C126 C127 1.363 . S
C126 H129 0.929 1_655 S
C127 C126 1.363 . S
C127 C133 1.428 . S
H128 C124 0.930 1_455 S
H129 C126 0.929 1_455 S
S130 N131 1.613 . S
S130 N132 1.610 . S
N131 S130 1.613 . S
N131 C134 1.350 . S
N132 S130 1.610 . S
N132 C133 1.351 . S
C133 C127 1.428 . S
C133 N132 1.351 . S
C133 C134 1.434 . S
C134 C125 1.429 . S
C134 N131 1.350 . S
C134 C133 1.434 . S
C135 C136 1.369 . S
C135 C137 1.419 . S
C135 H139 0.930 . S
C136 C135 1.369 . S
C136 C145 1.429 . S
C137 C135 1.419 . S
C137 C138 1.363 . S
C137 H140 0.929 . S
C138 C137 1.363 . S
C138 C144 1.428 . S
H139 C135 0.930 . S
H140 C137 0.929 . S
S141 N142 1.613 1_455 S
S141 N143 1.610 1_455 S
N142 S141 1.613 1_655 S
N142 C145 1.350 . S
N143 S141 1.610 1_655 S
N143 C144 1.351 . S
C144 C138 1.428 . S
C144 N143 1.351 . S
C144 C145 1.434 . S
C145 C136 1.429 . S
C145 N142 1.350 . S
C145 C144 1.434 . S
C146 C147 1.369 . S
C146 C148 1.419 1_556 S
C146 H150 0.930 . S
C147 C146 1.369 . S
C147 C156 1.429 . S
C148 C146 1.419 1_554 S
C148 C149 1.363 . S
C148 H151 0.929 . S
C149 C148 1.363 . S
C149 C155 1.428 . S
H150 C146 0.930 . S
H151 C148 0.929 . S
S152 N153 1.613 . S
S152 N154 1.610 1_556 S
N153 S152 1.613 . S
N153 C156 1.350 . S
N154 S152 1.610 1_554 S
N154 C155 1.351 . S
C155 C149 1.428 . S
C155 N154 1.351 . S
C155 C156 1.434 1_554 S
C156 C147 1.429 . S
C156 N153 1.350 . S
C156 C155 1.434 1_556 S
C157 C158 1.369 . S
C157 C159 1.419 . S
C157 H161 0.930 . S
C158 C157 1.369 . S
C158 C167 1.429 . S
C159 C157 1.419 . S
C159 C160 1.363 . S
C159 H162 0.929 . S
C160 C159 1.363 . S
C160 C166 1.428 . S
H161 C157 0.930 . S
H162 C159 0.929 . S
S163 N164 1.613 . S
S163 N165 1.610 . S
N164 S163 1.613 . S
N164 C167 1.350 . S
N165 S163 1.610 . S
N165 C166 1.351 . S
C166 C160 1.428 . S
C166 N165 1.351 . S
C166 C167 1.434 . S
C167 C158 1.429 . S
C167 N164 1.350 . S
C167 C166 1.434 . S
C168 C169 1.369 . S
C168 C170 1.419 . S
C168 H172 0.930 . S
C169 C168 1.369 . S
C169 C178 1.429 . S
C170 C168 1.419 . S
C170 C171 1.363 . S
C170 H173 0.929 . S
C171 C170 1.363 . S
C171 C177 1.428 . S
H172 C168 0.930 . S
H173 C170 0.929 . S
S174 N175 1.613 . S
S174 N176 1.610 . S
N175 S174 1.613 . S
N175 C178 1.350 . S
N176 S174 1.610 . S
N176 C177 1.351 . S
C177 C171 1.428 . S
C177 N176 1.351 . S
C177 C178 1.434 . S
C178 C169 1.429 . S
C178 N175 1.350 . S
C178 C177 1.434 . S
C179 C180 1.369 . S
C179 C181 1.419 . S
C179 H183 0.930 . S
C180 C179 1.369 . S
C180 C189 1.429 . S
C181 C179 1.419 . S
C181 C182 1.363 . S
C181 H184 0.929 . S
C182 C181 1.363 . S
C182 C188 1.428 . S
H183 C179 0.930 . S
H184 C181 0.929 . S
S185 N186 1.613 . S
S185 N187 1.610 . S
N186 S185 1.613 . S
N186 C189 1.350 1_545 S
N187 S185 1.610 . S
N187 C188 1.351 1_545 S
C188 C182 1.428 . S
C188 N187 1.351 1_565 S
C188 C189 1.434 . S
C189 C180 1.429 . S
C189 N186 1.350 1_565 S
C189 C188 1.434 . S
C190 C191 1.369 . S
C190 C192 1.419 1_556 S
C190 H194 0.930 . S
C191 C190 1.369 . S
C191 C200 1.429 1_565 S
C192 C190 1.419 1_554 S
C192 C193 1.363 1_565 S
C192 H195 0.929 . S
C193 C192 1.363 1_545 S
C193 C199 1.465 . S
H194 C190 0.930 . S
H195 C192 0.929 . S
S196 N197 1.613 . S
S196 N198 1.610 . S
N197 S196 1.613 . S
N197 C200 1.350 . S
N198 S196 1.610 . S
N198 C199 1.349 1_556 S
C199 C193 1.465 . S
C199 N198 1.349 1_554 S
C199 C200 1.395 1_554 S
C200 C191 1.429 1_545 S
C200 N197 1.350 . S
C200 C199 1.395 1_556 S
C201 C202 1.369 1_565 S
C201 C203 1.419 . S
C201 H205 0.930 . S
C202 C201 1.369 1_545 S
C202 C211 1.429 . S
C203 C201 1.419 . S
C203 C204 1.363 . S
C203 H206 0.929 . S
C204 C203 1.363 . S
C204 C210 1.428 1_565 S
H205 C201 0.930 . S
H206 C203 0.929 . S
S207 N208 1.613 . S
S207 N209 1.610 . S
N208 S207 1.613 . S
N208 C211 1.350 1_655 S
N209 S207 1.610 . S
N209 C210 1.351 1_655 S
C210 C204 1.428 1_545 S
C210 N209 1.351 1_455 S
C210 C211 1.434 . S
C211 C202 1.429 . S
C211 N208 1.350 1_455 S
C211 C210 1.434 . S
C212 C213 1.366 1_655 S
C212 C214 1.419 . S
C212 H216 0.930 . S
C213 C212 1.366 1_455 S
C213 C222 1.432 . S
C214 C212 1.419 . S
C214 C215 1.361 1_655 S
C214 H217 0.929 . S
C215 C214 1.361 1_455 S
C215 C221 1.430 . S
H216 C212 0.930 . S
H217 C214 0.929 . S
S218 N219 1.613 . S
S218 N220 1.610 . S
N219 S218 1.613 . S
N219 C222 1.350 . S
N220 S218 1.610 . S
N220 C221 1.351 . S
C221 C215 1.430 . S
C221 N220 1.351 . S
C221 C222 1.434 . S
C222 C213 1.432 . S
C222 N219 1.350 . S
C222 C221 1.434 . S
C223 C224 1.369 . S
C223 C225 1.419 . S
C223 H227 0.930 . S
C224 C223 1.369 . S
C224 C233 1.429 . S
C225 C223 1.419 . S
C225 C226 1.363 . S
C225 H228 0.929 . S
C226 C225 1.363 . S
C226 C232 1.428 . S
H227 C223 0.930 . S
H228 C225 0.929 . S
S229 N230 1.613 . S
S229 N231 1.610 . S
N230 S229 1.613 . S
N230 C233 1.350 . S
N231 S229 1.610 . S
N231 C232 1.351 . S
C232 C226 1.428 . S
C232 N231 1.351 . S
C232 C233 1.434 . S
C233 C224 1.429 . S
C233 N230 1.350 . S
C233 C232 1.434 . S
C234 C235 1.369 . S
C234 C236 1.419 . S
C234 H238 0.930 . S
C235 C234 1.369 . S
C235 C244 1.429 . S
C236 C234 1.419 . S
C236 C237 1.363 . S
C236 H239 0.929 . S
C237 C236 1.363 . S
C237 C243 1.428 . S
H238 C234 0.930 . S
H239 C236 0.929 . S
S240 N241 1.613 . S
S240 N242 1.610 . S
N241 S240 1.613 . S
N241 C244 1.350 . S
N242 S240 1.610 . S
N242 C243 1.351 . S
C243 C237 1.428 . S
C243 N242 1.351 . S
C243 C244 1.434 . S
C244 C235 1.429 . S
C244 N241 1.350 . S
C244 C243 1.434 . S
C245 C246 1.369 . S
C245 C247 1.419 1_455 S
C245 H249 0.930 . S
C246 C245 1.369 . S
C246 C255 1.429 . S
C247 C245 1.419 1_655 S
C247 C248 1.363 . S
C247 H250 0.929 . S
C248 C247 1.363 . S
C248 C254 1.428 . S
H249 C245 0.930 . S
H250 C247 0.929 . S
S251 N252 1.613 1_655 S
S251 N253 1.610 . S
N252 S251 1.613 1_455 S
N252 C255 1.350 . S
N253 S251 1.610 . S
N253 C254 1.351 . S
C254 C248 1.428 . S
C254 N253 1.351 . S
C254 C255 1.434 1_655 S
C255 C246 1.429 . S
C255 N252 1.350 . S
C255 C254 1.434 1_455 S
C256 C257 1.369 1_655 S
C256 C258 1.419 . S
C256 H260 0.930 . S
C257 C256 1.369 1_455 S
C257 C266 1.429 . S
C258 C256 1.419 . S
C258 C259 1.356 1_655 S
C258 H261 0.929 . S
C259 C258 1.356 1_455 S
C259 C265 1.436 . S
H260 C256 0.930 . S
H261 C258 0.929 . S
S262 N263 1.613 . S
S262 N264 1.610 . S
N263 S262 1.613 . S
N263 C266 1.350 . S
N264 S262 1.610 . S
N264 C265 1.351 . S
C265 C259 1.436 . S
C265 N264 1.351 . S
C265 C266 1.434 . S
C266 C257 1.429 . S
C266 N263 1.350 . S
C266 C265 1.434 . S
C267 C268 1.369 . S
C267 C269 1.419 1_655 S
C267 H271 0.930 . S
C268 C267 1.369 . S
C268 C277 1.429 . S
C269 C267 1.419 1_455 S
C269 C270 1.363 . S
C269 H272 0.929 . S
C270 C269 1.363 . S
C270 C276 1.428 . S
H271 C267 0.930 . S
H272 C269 0.929 . S
S273 N274 1.613 . S
S273 N275 1.610 1_655 S
N274 S273 1.613 . S
N274 C277 1.350 . S
N275 S273 1.610 1_455 S
N275 C276 1.351 . S
C276 C270 1.428 . S
C276 N275 1.351 . S
C276 C277 1.434 1_455 S
C277 C268 1.429 . S
C277 N274 1.350 . S
C277 C276 1.434 1_655 S
C278 C279 1.369 . S
C278 C280 1.419 . S
C278 H282 0.930 . S
C279 C278 1.369 . S
C279 C288 1.429 . S
C280 C278 1.419 . S
C280 C281 1.363 . S
C280 H283 0.929 . S
C281 C280 1.363 . S
C281 C287 1.428 . S
H282 C278 0.930 . S
H283 C280 0.929 . S
S284 N285 1.613 . S
S284 N286 1.610 . S
N285 S284 1.613 . S
N285 C288 1.350 . S
N286 S284 1.610 . S
N286 C287 1.351 . S
C287 C281 1.428 . S
C287 N286 1.351 . S
C287 C288 1.434 . S
C288 C279 1.429 . S
C288 N285 1.350 . S
C288 C287 1.434 . S
C289 C290 1.369 . S
C289 C291 1.419 . S
C289 H293 0.930 . S
C290 C289 1.369 . S
C290 C299 1.429 . S
C291 C289 1.419 . S
C291 C292 1.363 . S
C291 H294 0.929 . S
C292 C291 1.363 . S
C292 C298 1.428 . S
H293 C289 0.930 . S
H294 C291 0.929 . S
S295 N296 1.613 1_565 S
S295 N297 1.610 1_565 S
N296 S295 1.613 1_545 S
N296 C299 1.350 . S
N297 S295 1.610 1_545 S
N297 C298 1.351 . S
C298 C292 1.428 . S
C298 N297 1.351 . S
C298 C299 1.434 . S
C299 C290 1.429 . S
C299 N296 1.350 . S
C299 C298 1.434 . S
C125 C20 1.273 . S
C127 C51 1.268 . S
C136 C82 1.368 . S
C138 C33 1.375 . S
C147 C64 1.488 . S
C149 C122 1.482 . S
C158 C2 1.381 . S
C160 C94 1.374 . S
C169 C95 1.377 . S
C171 C1 1.362 . S
C180 C32 1.371 . S
C182 C91 1.383 . S
C191 C63 1.269 . S
C193 C113 1.263 . S
C202 C29 1.477 . S
C204 C60 1.483 . S
C213 C30 1.556 1_455 S
C215 C19 1.532 . S
C224 C31 1.541 . S
C226 C41 1.556 . S
C235 C72 1.552 . S
C237 C62 1.536 1_545 S
C246 C103 1.556 . S
C248 C93 1.541 . S
C257 C61 1.555 1_455 S
C259 C50 1.535 . S
C268 C81 1.539 . S
C270 C92 1.558 . S
C279 C123 1.557 . S
C281 C112 1.532 1_565 S
C290 C10 1.557 . S
C292 C0 1.541 . S
