# Generated by pormake.
# Topology mdf, (4)-cn, num edge types: 1
# Building blocks:
#     Node 0, Type 0, BuildingBlock: AZAVOO_clean_sbu_0, # of connection points: 4
#     Node 1, Type 0, BuildingBlock: AZAVOO_clean_sbu_0, # of connection points: 4
#     Node 2, Type 0, BuildingBlock: AZAVOO_clean_sbu_0, # of connection points: 4
#     Node 3, Type 0, BuildingBlock: AZAVOO_clean_sbu_0, # of connection points: 4
#     Node 4, Type 0, BuildingBlock: AZAVOO_clean_sbu_0, # of connection points: 4
#     Node 5, Type 0, BuildingBlock: AZAVOO_clean_sbu_0, # of connection points: 4
#     Node 6, Type 0, BuildingBlock: AZAVOO_clean_sbu_0, # of connection points: 4
#     Node 7, Type 0, BuildingBlock: AZAVOO_clean_sbu_0, # of connection points: 4
#     Edge 8, Type (0, 0), BuildingBlock: KIFKEQ_clean_linker_1, # of connection points: 2
#     Edge 9, Type (0, 0), BuildingBlock: KIFKEQ_clean_linker_1, # of connection points: 2
#     Edge 10, Type (0, 0), BuildingBlock: KIFKEQ_clean_linker_1, # of connection points: 2
#     Edge 11, Type (0, 0), BuildingBlock: KIFKEQ_clean_linker_1, # of connection points: 2
#     Edge 12, Type (0, 0), BuildingBlock: KIFKEQ_clean_linker_1, # of connection points: 2
#     Edge 13, Type (0, 0), BuildingBlock: KIFKEQ_clean_linker_1, # of connection points: 2
#     Edge 14, Type (0, 0), BuildingBlock: KIFKEQ_clean_linker_1, # of connection points: 2
#     Edge 15, Type (0, 0), BuildingBlock: KIFKEQ_clean_linker_1, # of connection points: 2
#     Edge 16, Type (0, 0), BuildingBlock: KIFKEQ_clean_linker_1, # of connection points: 2
#     Edge 17, Type (0, 0), BuildingBlock: KIFKEQ_clean_linker_1, # of connection points: 2
#     Edge 18, Type (0, 0), BuildingBlock: KIFKEQ_clean_linker_1, # of connection points: 2
#     Edge 19, Type (0, 0), BuildingBlock: KIFKEQ_clean_linker_1, # of connection points: 2
#     Edge 20, Type (0, 0), BuildingBlock: KIFKEQ_clean_linker_1, # of connection points: 2
#     Edge 21, Type (0, 0), BuildingBlock: KIFKEQ_clean_linker_1, # of connection points: 2
#     Edge 22, Type (0, 0), BuildingBlock: KIFKEQ_clean_linker_1, # of connection points: 2
#     Edge 23, Type (0, 0), BuildingBlock: KIFKEQ_clean_linker_1, # of connection points: 2
# Relax obj value: 0.038
# Max RMSD: 0.047
# Mean RMSD: 0.047
data_MOF--net-mdf--node1-AZAVOO_clean_sbu_0--edge1-KIFKEQ_clean_linker_1
_symmetry_space_group_name_H-M    P1
_symmetry_Int_Tables_number       1
_symmetry_cell_setting            triclinic
loop_
_symmetry_equiv_pos_as_xyz
'x, y, z'
_cell_length_a     34.826537
_cell_length_b     35.006454
_cell_length_c     16.227486
_cell_angle_alpha  89.91479
_cell_angle_beta   89.938183
_cell_angle_gamma 95.692937
loop_
_atom_site_label
_atom_site_type_symbol
_atom_site_fract_x
_atom_site_fract_y
_atom_site_fract_z
_atom_type_partial_charge
Mg0 Mg 0.2641 0.54748 0.38893 0.0
O1 O 0.21653 0.50425 0.33475 0.0
O2 O 0.24352 0.4732 0.23297 0.0
Mg3 Mg 0.30721 0.49515 0.22392 0.0
C4 C 0.21436 0.47937 0.27691 0.0
C5 C 0.23369 0.6033 0.50924 0.0
O6 O 0.27113 0.61294 0.50952 0.0
O7 O 0.26139 0.5871 0.27802 0.0
O8 O 0.28997 0.55393 0.18166 0.0
O9 O 0.27994 0.50362 0.4776 0.0
O10 O 0.30637 0.51247 0.35425 0.0
C11 C 0.27373 0.58327 0.20478 0.0
C12 C 0.30345 0.49314 0.4221 0.0
O13 O 0.2199 0.57729 0.46002 0.0
Mg14 Mg 0.43952 0.72752 0.57994 0.0
O15 O 0.48133 0.77361 0.64273 0.0
O16 O 0.51053 0.74456 0.74447 0.0
Mg17 Mg 0.489 0.68089 0.74482 0.0
C18 C 0.50508 0.77451 0.70285 0.0
C19 C 0.38237 0.76127 0.46583 0.0
O20 O 0.37016 0.72452 0.46616 0.0
O21 O 0.3972 0.72696 0.68734 0.0
O22 O 0.42852 0.6956 0.78249 0.0
O23 O 0.48592 0.71452 0.4938 0.0
O24 O 0.47461 0.68518 0.61334 0.0
C25 C 0.39939 0.7122 0.75885 0.0
C26 C 0.49568 0.69015 0.54807 0.0
O27 O 0.4105 0.77313 0.51187 0.0
Mg28 Mg 0.22655 0.94209 0.88475 0.0
O29 O 0.27504 0.98622 0.8365 0.0
O30 O 0.24914 0.01856 0.73499 0.0
Mg31 Mg 0.18572 -0.00295 0.72042 0.0
C32 C 0.27777 0.01183 0.77992 0.0
C33 C 0.28537 0.9265 0.01875 0.0
O34 O 0.28058 0.96267 0.03275 0.0
O35 O 0.23177 0.90483 0.77122 0.0
O36 O 0.20462 0.93946 0.67549 0.0
O37 O 0.20871 0.98438 0.97519 0.0
O38 O 0.18495 0.97785 0.84935 0.0
C39 C 0.22078 0.90981 0.69734 0.0
C40 C 0.18654 -0.00397 0.91847 0.0
O41 O 0.26902 0.90994 0.95662 0.0
Mg42 Mg 0.05923 0.76293 0.0965 0.0
O43 O 0.01641 0.7139 0.14725 0.0
O44 O 0.98396 0.73927 0.24929 0.0
Mg45 Mg 0.00409 0.80272 0.26229 0.0
C46 C 0.9911 0.71083 0.20466 0.0
C47 C 0.07449 0.70405 0.96361 0.0
O48 O 0.03783 0.70822 0.95178 0.0
O49 O 0.09811 0.75948 0.20866 0.0
O50 O 0.06295 0.78578 0.30479 0.0
O51 O 0.01514 0.7792 0.00768 0.0
O52 O 0.02245 0.80338 0.13286 0.0
C53 C 0.09319 0.77061 0.28243 0.0
C54 C 0.00338 0.80101 0.06476 0.0
O55 O 0.09183 0.72105 0.0241 0.0
Mg56 Mg 0.77142 0.04278 0.92297 0.0
O57 O 0.72336 0.00149 0.86514 0.0
O58 O 0.75013 0.9712 0.76191 0.0
Mg59 Mg 0.81445 0.99116 0.75642 0.0
C60 C 0.72092 0.97755 0.80554 0.0
C61 C 0.74124 0.09687 0.04755 0.0
O62 O 0.77889 0.104 0.05365 0.0
O63 O 0.77055 0.08381 0.8138 0.0
O64 O 0.80001 0.05125 0.71766 0.0
O65 O 0.78571 -0.00283 0.00958 0.0
O66 O 0.81282 0.00715 0.88724 0.0
C67 C 0.7841 0.08069 0.74133 0.0
C68 C 0.80918 0.98693 0.95373 0.0
O69 O 0.72744 0.07298 0.99386 0.0
Mg70 Mg 0.93612 0.21564 0.09218 0.0
O71 O 0.9792 0.26406 0.14395 0.0
O72 O 0.01348 0.23765 0.24147 0.0
Mg73 Mg 0.99383 0.17376 0.25026 0.0
C74 C 0.00538 0.26663 0.19941 0.0
C75 C 0.9181 0.28151 0.97511 0.0
O76 O 0.95542 0.2818 0.96272 0.0
O77 O 0.89873 0.21618 0.20721 0.0
O78 O 0.93516 0.18874 0.29946 0.0
O79 O 0.97914 0.20186 -0.00157 0.0
O80 O 0.97371 0.17511 0.12186 0.0
C81 C 0.90457 0.20387 0.27963 0.0
C82 C 0.99176 0.17893 0.05249 0.0
O83 O 0.90183 0.25863 0.02823 0.0
Mg84 Mg 0.72379 0.44475 0.41535 0.0
O85 O 0.7735 0.48323 0.35491 0.0
O86 O 0.74815 0.51337 0.24953 0.0
Mg87 Mg 0.68348 0.49558 0.24382 0.0
C88 C 0.77694 0.50638 0.29373 0.0
C89 C 0.75474 0.40873 0.5654 0.0
O90 O 0.72161 0.42049 0.58783 0.0
O91 O 0.72366 0.40188 0.30971 0.0
O92 O 0.69641 0.43442 0.21015 0.0
O93 O 0.71123 0.49252 0.49763 0.0
O94 O 0.6841 0.48169 0.37583 0.0
C95 C 0.71098 0.40463 0.23646 0.0
C96 C 0.68837 0.50284 0.44076 0.0
O97 O 0.76569 0.4137 0.49107 0.0
Mg98 Mg 0.55577 0.27438 0.59168 0.0
O99 O 0.51264 0.22635 0.64488 0.0
O100 O 0.47929 0.25294 0.74374 0.0
Mg101 Mg 0.49961 0.31665 0.75227 0.0
C102 C 0.48688 0.22393 0.70137 0.0
C103 C 0.57291 0.21359 0.46367 0.0
O104 O 0.53711 0.21901 0.44546 0.0
O105 O 0.59375 0.27284 0.70538 0.0
O106 O 0.55824 0.30048 0.79912 0.0
O107 O 0.51239 0.28906 0.49979 0.0
O108 O 0.51875 0.31545 0.62314 0.0
C109 C 0.58843 0.28491 0.77817 0.0
C110 C 0.50023 0.31191 0.55439 0.0
O111 O 0.58882 0.23087 0.52544 0.0
H112 H 0.33905 0.65873 0.74776 0.0
H113 H 0.38497 0.75568 0.8924 0.0
H114 H 0.29485 0.63814 0.85763 0.0
H115 H 0.33833 0.73734 0.00155 0.0
H116 H 0.31961 0.64943 0.21487 0.0
H117 H 0.33776 0.69274 0.102 0.0
H118 H 0.2473 0.63428 0.952 0.0
H119 H 0.23207 0.5887 0.06417 0.0
C120 C 0.33817 0.67666 0.80201 0.0
C121 C 0.36535 0.70846 0.81244 0.0
C122 C 0.31258 0.66504 0.86549 0.0
C123 C 0.31339 0.68533 0.94066 0.0
C124 C 0.3377 0.71999 0.94634 0.0
C125 C 0.36407 0.73098 0.88343 0.0
C126 C 0.30298 0.64671 0.1584 0.0
C127 C 0.27487 0.61573 0.14735 0.0
C128 C 0.31317 0.67175 0.09318 0.0
C129 C 0.2949 0.66663 0.01582 0.0
C130 C 0.26327 0.63832 0.00902 0.0
C131 C 0.25401 0.61247 0.07355 0.0
H132 H 0.40929 0.83554 0.43121 0.0
H133 H 0.32107 0.74566 0.36238 0.0
H134 H 0.38824 0.87604 0.32132 0.0
H135 H 0.29934 0.7866 0.25392 0.0
H136 H 0.2986 0.85083 0.01143 0.0
H137 H 0.3222 0.81191 0.12149 0.0
H138 H 0.33568 0.91159 0.27959 0.0
H139 H 0.31313 0.95068 0.16901 0.0
C140 C 0.38505 0.82463 0.3934 0.0
C141 C 0.36697 0.78732 0.4052 0.0
C142 C 0.37294 0.84789 0.33047 0.0
C143 C 0.34239 0.83439 0.2783 0.0
C144 C 0.32353 0.79752 0.29187 0.0
C145 C 0.33575 0.7742 0.35454 0.0
C146 C 0.30707 0.86454 0.06932 0.0
C147 C 0.30387 0.90383 0.08156 0.0
C148 C 0.32021 0.84215 0.13268 0.0
C149 C 0.33034 0.85856 0.20966 0.0
C150 C 0.32836 0.89811 0.22088 0.0
C151 C 0.31536 0.92052 0.15745 0.0
H152 H 0.08703 0.75922 0.44726 0.0
H153 H 0.17064 0.78397 0.25311 0.0
H154 H 0.1354 0.78033 0.54938 0.0
H155 H 0.21944 0.80559 0.35586 0.0
H156 H 0.22898 0.91733 0.53163 0.0
H157 H 0.21295 0.8677 0.42951 0.0
H158 H 0.19897 0.78234 0.6226 0.0
H159 H 0.21543 0.8324 0.72539 0.0
C160 C 0.11625 0.76779 0.42679 0.0
C161 C 0.12494 0.77083 0.34246 0.0
C162 C 0.14415 0.7796 0.48537 0.0
C163 C 0.18106 0.79531 0.4605 0.0
C164 C 0.19107 0.79395 0.37659 0.0
C165 C 0.16319 0.78151 0.31786 0.0
C166 C 0.22385 0.88778 0.55204 0.0
C167 C 0.2225 0.8788 0.63637 0.0
C168 C 0.21507 0.85919 0.49342 0.0
C169 C 0.20411 0.82116 0.51817 0.0
C170 C 0.20702 0.81149 0.60195 0.0
C171 C 0.21643 0.84013 0.6607 0.0
H172 H 0.04895 0.67748 0.81363 0.0
H173 H 0.14998 0.68863 0.96956 0.0
H174 H 0.08685 0.65384 0.7024 0.0
H175 H 0.18772 0.66363 0.85893 0.0
H176 H 0.25324 0.66186 0.61681 0.0
H177 H 0.21408 0.68433 0.7277 0.0
H178 H 0.11972 0.60111 0.65767 0.0
H179 H 0.15844 0.57955 0.54516 0.0
C180 C 0.07912 0.67423 0.82471 0.0
C181 C 0.0965 0.68511 0.90031 0.0
C182 C 0.10086 0.66056 0.76088 0.0
C183 C 0.14042 0.65713 0.77142 0.0
C184 C 0.15749 0.6667 0.84815 0.0
C185 C 0.13579 0.68066 0.91185 0.0
C186 C 0.22401 0.64861 0.62464 0.0
C187 C 0.20892 0.61895 0.5722 0.0
C188 C 0.20168 0.66122 0.68875 0.0
C189 C 0.16387 0.64426 0.70215 0.0
C190 C 0.14859 0.61507 0.64865 0.0
C191 C 0.17082 0.60265 0.58418 0.0
H192 H 0.83973 0.13909 0.74417 0.0
H193 H 0.73762 0.09515 0.61222 0.0
H194 H 0.85858 0.18196 0.63122 0.0
H195 H 0.75443 0.14044 0.49991 0.0
H196 H 0.83792 0.15786 0.27659 0.0
H197 H 0.79708 0.13994 0.39418 0.0
H198 H 0.85963 0.22991 0.538 0.0
H199 H 0.90262 0.24501 0.42106 0.0
C200 C 0.82035 0.14017 0.69215 0.0
C201 C 0.78744 0.114 0.6862 0.0
C202 C 0.83097 0.16498 0.62696 0.0
C203 C 0.80856 0.16443 0.55451 0.0
C204 C 0.77319 0.14094 0.55312 0.0
C205 C 0.76312 0.11536 0.61782 0.0
C206 C 0.84207 0.17439 0.33287 0.0
C207 C 0.87346 0.20235 0.34075 0.0
C208 C 0.81848 0.16433 0.40071 0.0
C209 C 0.82554 0.18259 0.47746 0.0
C210 C 0.85418 0.21401 0.48138 0.0
C211 C 0.87854 0.22315 0.41419 0.0
H212 H 0.94327 0.33292 0.85511 0.0
H213 H 0.8396 0.28026 0.97204 0.0
H214 H 0.9041 0.36539 0.75805 0.0
H215 H 0.80054 0.31176 0.87377 0.0
H216 H 0.74122 0.40003 0.73007 0.0
H217 H 0.78133 0.37247 0.83236 0.0
H218 H 0.86268 0.34919 0.64185 0.0
H219 H 0.82301 0.37793 0.53962 0.0
C220 C 0.91215 0.3284 0.86034 0.0
C221 C 0.89456 0.30391 0.92107 0.0
C222 C 0.88969 0.34675 0.80427 0.0
C223 C 0.84919 0.3409 0.80761 0.0
C224 C 0.83165 0.31722 0.86987 0.0
C225 C 0.85408 0.29903 0.9261 0.0
C226 C 0.76769 0.38909 0.70991 0.0
C227 C 0.77897 0.39119 0.6267 0.0
C228 C 0.79061 0.37312 0.7686 0.0
C229 C 0.82526 0.35867 0.74539 0.0
C230 C 0.83649 0.36067 0.66204 0.0
C231 C 0.81362 0.37685 0.60331 0.0
H232 H 0.65509 0.3464 0.24147 0.0
H233 H 0.75748 0.38912 0.10829 0.0
H234 H 0.63571 0.30359 0.12909 0.0
H235 H 0.74016 0.34385 0.99668 0.0
H236 H 0.65586 0.32965 0.77486 0.0
H237 H 0.6974 0.34588 0.89187 0.0
H238 H 0.63349 0.25611 0.03481 0.0
H239 H 0.58991 0.2427 0.91843 0.0
C240 C 0.67443 0.34501 0.18941 0.0
C241 C 0.70752 0.37091 0.18279 0.0
C242 C 0.66351 0.32024 0.12451 0.0
C243 C 0.6858 0.3206 0.05179 0.0
C244 C 0.72146 0.34357 0.05005 0.0
C245 C 0.73182 0.36913 0.11437 0.0
C246 C 0.65157 0.31277 0.83076 0.0
C247 C 0.61967 0.28539 0.83863 0.0
C248 C 0.67555 0.32184 0.89827 0.0
C249 C 0.66835 0.30317 0.97469 0.0
C250 C 0.63911 0.27229 0.97846 0.0
C251 C 0.61439 0.26413 0.9116 0.0
H252 H 0.6639 0.07838 0.07019 0.0
H253 H 0.76097 0.15311 0.1604 0.0
H254 H 0.6227 0.10329 0.17435 0.0
H255 H 0.71951 0.17905 0.26264 0.0
H256 H 0.64552 0.19213 0.48726 0.0
H257 H 0.68553 0.16233 0.38743 0.0
H258 H 0.59289 0.15911 0.20958 0.0
H259 H 0.55255 0.18743 0.31022 0.0
C260 C 0.67633 0.10047 0.11162 0.0
C261 C 0.71567 0.11379 0.10704 0.0
C262 C 0.65269 0.11484 0.17124 0.0
C263 C 0.66778 0.14309 0.22714 0.0
C264 C 0.70706 0.15677 0.22167 0.0
C265 C 0.73077 0.14218 0.16248 0.0
C266 C 0.63359 0.18461 0.42715 0.0
C267 C 0.59592 0.19222 0.40656 0.0
C268 C 0.65662 0.16785 0.36965 0.0
C269 C 0.64258 0.15867 0.29011 0.0
C270 C 0.60452 0.16538 0.27048 0.0
C271 C 0.58139 0.18176 0.3282 0.0
H272 H 0.30351 0.44842 0.55985 0.0
H273 H 0.35731 0.46585 0.32079 0.0
H274 H 0.34717 0.40024 0.59236 0.0
H275 H 0.40111 0.41787 0.35369 0.0
H276 H 0.46881 0.36351 0.6543 0.0
H277 H 0.41716 0.40302 0.62072 0.0
H278 H 0.40429 0.34879 0.38208 0.0
H279 H 0.45612 0.30938 0.41536 0.0
C280 C 0.32435 0.44169 0.51385 0.0
C281 C 0.32705 0.46107 0.4378 0.0
C282 C 0.34948 0.41423 0.53273 0.0
C283 C 0.37771 0.40546 0.47583 0.0
C284 C 0.3794 0.42375 0.39852 0.0
C285 C 0.35437 0.45134 0.37975 0.0
C286 C 0.45462 0.3596 0.59517 0.0
C287 C 0.46664 0.33338 0.53747 0.0
C288 C 0.42493 0.38215 0.57601 0.0
C289 C 0.40677 0.37908 0.49862 0.0
C290 C 0.41806 0.3521 0.44182 0.0
C291 C 0.44763 0.32942 0.46111 0.0
H292 H 0.65838 0.9644 0.90806 0.0
H293 H 0.69925 0.93901 0.66454 0.0
H294 H 0.60003 0.92083 0.88449 0.0
H295 H 0.64109 0.89577 0.64127 0.0
H296 H 0.52115 0.83727 0.60303 0.0
H297 H 0.56831 0.8926 0.62781 0.0
H298 H 0.59122 0.84834 0.86939 0.0
H299 H 0.54435 0.79314 0.8449 0.0
C300 C 0.65465 0.95005 0.8491 0.0
C301 C 0.68362 0.95485 0.78848 0.0
C302 C 0.62134 0.92504 0.83579 0.0
C303 C 0.6161 0.90487 0.76115 0.0
C304 C 0.64416 0.91118 0.6991 0.0
C305 C 0.67763 0.93572 0.71276 0.0
C306 C 0.53572 0.83972 0.662 0.0
C307 C 0.52931 0.81062 0.72168 0.0
C308 C 0.56282 0.87129 0.67598 0.0
C309 C 0.58354 0.87465 0.75034 0.0
C310 C 0.57548 0.84669 0.81175 0.0
C311 C 0.54883 0.81492 0.79742 0.0
H312 H 0.02347 0.12725 0.15146 0.0
H313 H 0.03519 0.18133 0.91194 0.0
H314 H 0.07463 0.08751 0.11681 0.0
H315 H 0.08672 0.14163 0.87752 0.0
H316 H 0.13333 0.02411 0.8167 0.0
H317 H 0.09017 0.07276 0.8492 0.0
H318 H 0.14402 0.08967 0.0878 0.0
H319 H 0.18689 0.04078 0.0558 0.0
C320 C 0.03738 0.13114 0.09194 0.0
C321 C 0.02522 0.15742 0.03446 0.0
C322 C 0.06683 0.10842 0.07216 0.0
C323 C 0.08467 0.1114 0.99434 0.0
C324 C 0.07322 0.13842 0.93763 0.0
C325 C 0.04384 0.16127 0.95755 0.0
C326 C 0.13636 0.03861 0.87555 0.0
C327 C 0.16335 0.02842 0.93384 0.0
C328 C 0.11172 0.06659 0.89408 0.0
C329 C 0.11354 0.08485 0.97131 0.0
C330 C 0.14156 0.07569 0.02827 0.0
C331 C 0.16622 0.0478 0.00971 0.0
H332 H 0.97584 0.65122 0.09613 0.0
H333 H 0.95323 0.68689 0.34485 0.0
H334 H 0.92997 0.59411 0.11527 0.0
H335 H 0.90775 0.63024 0.36369 0.0
H336 H 0.84064 0.51574 0.39357 0.0
H337 H 0.89958 0.55846 0.3706 0.0
H338 H 0.85767 0.58835 0.13101 0.0
H339 H 0.79904 0.54573 0.15344 0.0
C340 C 0.96168 0.64651 0.15526 0.0
C341 C 0.96776 0.67374 0.21865 0.0
C342 C 0.93536 0.61395 0.16608 0.0
C343 C 0.91522 0.6078 0.24089 0.0
C344 C 0.92308 0.63395 0.30566 0.0
C345 C 0.94889 0.66661 0.29454 0.0
C346 C 0.84433 0.53086 0.33538 0.0
C347 C 0.81489 0.52777 0.27586 0.0
C348 C 0.87801 0.55538 0.32238 0.0
C349 C 0.88309 0.57691 0.24925 0.0
C350 C 0.85475 0.57192 0.18769 0.0
C351 C 0.82096 0.54775 0.20096 0.0
H352 H 0.33754 0.02654 0.88894 0.0
H353 H 0.30139 0.05146 0.64159 0.0
H354 H 0.39483 0.07244 0.87146 0.0
H355 H 0.35836 0.09694 0.62435 0.0
H356 H 0.47604 0.16172 0.59853 0.0
H357 H 0.43126 0.10396 0.61813 0.0
H358 H 0.40039 0.14492 0.85773 0.0
H359 H 0.44486 0.20242 0.83846 0.0
C360 C 0.34215 0.04128 0.83048 0.0
C361 C 0.31475 0.03575 0.767 0.0
C362 C 0.37482 0.06759 0.82061 0.0
C363 C 0.38096 0.0883 0.74662 0.0
C364 C 0.35461 0.08116 0.68175 0.0
C365 C 0.32178 0.05535 0.69197 0.0
C366 C 0.46017 0.15806 0.65592 0.0
C367 C 0.46364 0.18685 0.71651 0.0
C368 C 0.43449 0.12509 0.66699 0.0
C369 C 0.41228 0.12005 0.73933 0.0
C370 C 0.41737 0.14783 0.80168 0.0
C371 C 0.4426 0.18095 0.79024 0.0
H372 H 0.80875 0.94039 0.089 0.0
H373 H 0.86158 0.95951 0.8494 0.0
H374 H 0.85119 0.89044 0.11692 0.0
H375 H 0.90397 0.90985 0.87754 0.0
H376 H 0.95739 0.80011 0.92871 0.0
H377 H 0.90543 0.84021 0.90124 0.0
H378 H 0.92153 0.89141 0.14232 0.0
H379 H 0.9733 0.85124 0.17009 0.0
C380 C 0.82906 0.93363 0.04189 0.0
C381 C 0.83186 0.95397 0.96702 0.0
C382 C 0.85346 0.90517 0.05809 0.0
C383 C 0.88098 0.89635 -0.00043 0.0
C384 C 0.88274 0.91568 0.92349 0.0
C385 C 0.8585 0.94425 0.90746 0.0
C386 C 0.94955 0.8196 0.97626 0.0
C387 C 0.96956 0.8226 0.05151 0.0
C388 C 0.91989 0.84264 0.96034 0.0
C389 C 0.90954 0.86904 0.01946 0.0
C390 C 0.92857 0.87101 0.0959 0.0
C391 C 0.95835 0.84808 0.1117 0.0
H392 H 0.04654 0.28916 0.33655 0.0
H393 H 0.01743 0.32778 0.09352 0.0
H394 H 0.0913 0.34655 0.35418 0.0
H395 H 0.06263 0.3854 0.11131 0.0
H396 H 0.19263 0.43843 0.13892 0.0
H397 H 0.13592 0.3926 0.12077 0.0
H398 H 0.09622 0.41922 0.36418 0.0
H399 H 0.15308 0.46539 0.38257 0.0
C400 C 0.04933 0.31017 0.28727 0.0
C401 C 0.02872 0.30375 0.21331 0.0
C402 C 0.07475 0.34321 0.2977 0.0
C403 C 0.08052 0.37038 0.23404 0.0
C404 C 0.05885 0.36477 0.16121 0.0
C405 C 0.03291 0.33191 0.1512 0.0
C406 C 0.17157 0.43495 0.18822 0.0
C407 C 0.17757 0.45526 0.26256 0.0
C408 C 0.13892 0.40891 0.17748 0.0
C409 C 0.11174 0.40226 0.24117 0.0
C410 C 0.11687 0.42366 0.31427 0.0
C411 C 0.14933 0.45016 0.32463 0.0
H412 H 0.54301 0.69256 0.41358 0.0
H413 H 0.52428 0.63812 0.65146 0.0
H414 H 0.59498 0.65239 0.38584 0.0
H415 H 0.57615 0.59817 0.62364 0.0
H416 H 0.68923 0.55009 0.57436 0.0
H417 H 0.64735 0.60061 0.60068 0.0
H418 H 0.59596 0.58195 0.36019 0.0
H419 H 0.63777 0.53149 0.33364 0.0
C420 C 0.55026 0.67239 0.46037 0.0
C421 C 0.52945 0.66847 0.53472 0.0
C422 C 0.57991 0.64933 0.44428 0.0
C423 C 0.58954 0.62215 0.5025 0.0
C424 C 0.56968 0.61922 0.57802 0.0
C425 C 0.53984 0.64204 0.59384 0.0
C426 C 0.66941 0.55714 0.52656 0.0
C427 C 0.66666 0.53663 0.45204 0.0
C428 C 0.64534 0.58595 0.54186 0.0
C429 C 0.61825 0.59501 0.48273 0.0
C430 C 0.61681 0.57581 0.40664 0.0
C431 C 0.6407 0.5468 0.39154 0.0
loop_
_geom_bond_atom_site_label_1
_geom_bond_atom_site_label_2
_geom_bond_distance
_geom_bond_site_symmetry_2
_ccdc_geom_bond_type
Mg0 O1 2.028 . S
Mg0 O7 1.986 . S
Mg0 O9 2.114 . S
Mg0 O10 2.251 . S
Mg0 O13 2.010 . S
O1 Mg0 2.028 . S
O1 C4 1.250 . S
O2 Mg3 2.028 . S
O2 C4 1.248 . S
Mg3 O2 2.028 . S
Mg3 O8 2.032 . S
Mg3 O10 2.079 . S
C4 O1 1.250 . S
C4 O2 1.248 . S
C5 O6 1.264 . S
C5 O13 1.249 . S
O6 C5 1.264 . S
O7 Mg0 1.986 . S
O7 C11 1.246 . S
O8 Mg3 2.032 . S
O8 C11 1.259 . S
O9 Mg0 2.114 . S
O9 C12 1.252 . S
O10 Mg0 2.251 . S
O10 Mg3 2.079 . S
O10 C12 1.273 . S
C11 O7 1.246 . S
C11 O8 1.259 . S
C12 O9 1.252 . S
C12 O10 1.273 . S
O13 Mg0 2.010 . S
O13 C5 1.249 . S
Mg14 O15 2.028 . S
Mg14 O21 1.986 . S
Mg14 O23 2.114 . S
Mg14 O24 2.251 . S
Mg14 O27 2.010 . S
O15 Mg14 2.028 . S
O15 C18 1.250 . S
O16 Mg17 2.028 . S
O16 C18 1.248 . S
Mg17 O16 2.028 . S
Mg17 O22 2.032 . S
Mg17 O24 2.079 . S
C18 O15 1.250 . S
C18 O16 1.248 . S
C19 O20 1.264 . S
C19 O27 1.249 . S
O20 C19 1.264 . S
O21 Mg14 1.986 . S
O21 C25 1.246 . S
O22 Mg17 2.032 . S
O22 C25 1.259 . S
O23 Mg14 2.114 . S
O23 C26 1.252 . S
O24 Mg14 2.251 . S
O24 Mg17 2.079 . S
O24 C26 1.273 . S
C25 O21 1.246 . S
C25 O22 1.259 . S
C26 O23 1.252 . S
C26 O24 1.273 . S
O27 Mg14 2.010 . S
O27 C19 1.249 . S
Mg28 O29 2.028 . S
Mg28 O35 1.986 . S
Mg28 O37 2.114 . S
Mg28 O38 2.251 . S
Mg28 O41 2.010 . S
O29 Mg28 2.028 . S
O29 C32 1.250 1_565 S
O30 Mg31 2.028 . S
O30 C32 1.248 . S
Mg31 O30 2.028 . S
Mg31 O36 2.032 1_545 S
Mg31 O38 2.079 1_545 S
C32 O29 1.250 1_545 S
C32 O30 1.248 . S
C33 O34 1.264 . S
C33 O41 1.249 1_554 S
O34 C33 1.264 . S
O35 Mg28 1.986 . S
O35 C39 1.246 . S
O36 Mg31 2.032 1_565 S
O36 C39 1.259 . S
O37 Mg28 2.114 . S
O37 C40 1.252 1_565 S
O38 Mg28 2.251 . S
O38 Mg31 2.079 1_565 S
O38 C40 1.273 1_565 S
C39 O35 1.246 . S
C39 O36 1.259 . S
C40 O37 1.252 1_545 S
C40 O38 1.273 1_545 S
O41 Mg28 2.010 . S
O41 C33 1.249 1_556 S
Mg42 O43 2.028 . S
Mg42 O49 1.986 . S
Mg42 O51 2.114 . S
Mg42 O52 2.251 . S
Mg42 O55 2.010 . S
O43 Mg42 2.028 . S
O43 C46 1.250 1_455 S
O44 Mg45 2.028 . S
O44 C46 1.248 . S
Mg45 O44 2.028 . S
Mg45 O50 2.032 1_655 S
Mg45 O52 2.079 1_655 S
C46 O43 1.250 1_655 S
C46 O44 1.248 . S
C47 O48 1.264 . S
C47 O55 1.249 1_556 S
O48 C47 1.264 . S
O49 Mg42 1.986 . S
O49 C53 1.246 . S
O50 Mg45 2.032 1_455 S
O50 C53 1.259 . S
O51 Mg42 2.114 . S
O51 C54 1.252 1_455 S
O52 Mg42 2.251 . S
O52 Mg45 2.079 1_455 S
O52 C54 1.273 1_455 S
C53 O49 1.246 . S
C53 O50 1.259 . S
C54 O51 1.252 1_655 S
C54 O52 1.273 1_655 S
O55 Mg42 2.010 . S
O55 C47 1.249 1_554 S
Mg56 O57 2.028 . S
Mg56 O63 1.986 . S
Mg56 O65 2.114 . S
Mg56 O66 2.251 . S
Mg56 O69 2.010 . S
O57 Mg56 2.028 . S
O57 C60 1.250 1_545 S
O58 Mg59 2.028 . S
O58 C60 1.248 . S
Mg59 O58 2.028 . S
Mg59 O64 2.032 1_565 S
Mg59 O66 2.079 1_565 S
C60 O57 1.250 1_565 S
C60 O58 1.248 . S
C61 O62 1.264 . S
C61 O69 1.249 1_554 S
O62 C61 1.264 . S
O63 Mg56 1.986 . S
O63 C67 1.246 . S
O64 Mg59 2.032 1_545 S
O64 C67 1.259 . S
O65 Mg56 2.114 . S
O65 C68 1.252 1_545 S
O66 Mg56 2.251 . S
O66 Mg59 2.079 1_545 S
O66 C68 1.273 1_545 S
C67 O63 1.246 . S
C67 O64 1.259 . S
C68 O65 1.252 1_565 S
C68 O66 1.273 1_565 S
O69 Mg56 2.010 . S
O69 C61 1.249 1_556 S
Mg70 O71 2.028 . S
Mg70 O77 1.986 . S
Mg70 O79 2.114 . S
Mg70 O80 2.251 . S
Mg70 O83 2.010 . S
O71 Mg70 2.028 . S
O71 C74 1.250 1_655 S
O72 Mg73 2.028 . S
O72 C74 1.248 . S
Mg73 O72 2.028 . S
Mg73 O78 2.032 1_455 S
Mg73 O80 2.079 1_455 S
C74 O71 1.250 1_455 S
C74 O72 1.248 . S
C75 O76 1.264 . S
C75 O83 1.249 1_556 S
O76 C75 1.264 . S
O77 Mg70 1.986 . S
O77 C81 1.246 . S
O78 Mg73 2.032 1_655 S
O78 C81 1.259 . S
O79 Mg70 2.114 . S
O79 C82 1.252 1_655 S
O80 Mg70 2.251 . S
O80 Mg73 2.079 1_655 S
O80 C82 1.273 1_655 S
C81 O77 1.246 . S
C81 O78 1.259 . S
C82 O79 1.252 1_455 S
C82 O80 1.273 1_455 S
O83 Mg70 2.010 . S
O83 C75 1.249 1_554 S
Mg84 O85 2.028 . S
Mg84 O91 1.986 . S
Mg84 O93 2.114 . S
Mg84 O94 2.251 . S
Mg84 O97 2.010 . S
O85 Mg84 2.028 . S
O85 C88 1.250 . S
O86 Mg87 2.028 . S
O86 C88 1.248 . S
Mg87 O86 2.028 . S
Mg87 O92 2.032 . S
Mg87 O94 2.079 . S
C88 O85 1.250 . S
C88 O86 1.248 . S
C89 O90 1.264 . S
C89 O97 1.249 . S
O90 C89 1.264 . S
O91 Mg84 1.986 . S
O91 C95 1.246 . S
O92 Mg87 2.032 . S
O92 C95 1.259 . S
O93 Mg84 2.114 . S
O93 C96 1.252 . S
O94 Mg84 2.251 . S
O94 Mg87 2.079 . S
O94 C96 1.273 . S
C95 O91 1.246 . S
C95 O92 1.259 . S
C96 O93 1.252 . S
C96 O94 1.273 . S
O97 Mg84 2.010 . S
O97 C89 1.249 . S
Mg98 O99 2.028 . S
Mg98 O105 1.986 . S
Mg98 O107 2.114 . S
Mg98 O108 2.251 . S
Mg98 O111 2.010 . S
O99 Mg98 2.028 . S
O99 C102 1.250 . S
O100 Mg101 2.028 . S
O100 C102 1.248 . S
Mg101 O100 2.028 . S
Mg101 O106 2.032 . S
Mg101 O108 2.079 . S
C102 O99 1.250 . S
C102 O100 1.248 . S
C103 O104 1.264 . S
C103 O111 1.249 . S
O104 C103 1.264 . S
O105 Mg98 1.986 . S
O105 C109 1.246 . S
O106 Mg101 2.032 . S
O106 C109 1.259 . S
O107 Mg98 2.114 . S
O107 C110 1.252 . S
O108 Mg98 2.251 . S
O108 Mg101 2.079 . S
O108 C110 1.273 . S
C109 O105 1.246 . S
C109 O106 1.259 . S
C110 O107 1.252 . S
C110 O108 1.273 . S
O111 Mg98 2.010 . S
O111 C103 1.249 . S
H112 C120 0.950 . S
H113 C125 0.950 . S
H114 C122 0.950 . S
H115 C124 0.950 1_554 S
H116 C126 0.950 . S
H117 C128 0.950 . S
H118 C130 0.950 1_556 S
H119 C131 0.950 . S
C120 H112 0.950 . S
C120 C121 1.386 . S
C120 C122 1.391 . S
C121 C120 1.386 . S
C121 C125 1.393 . S
C122 H114 0.950 . S
C122 C120 1.391 . S
C122 C123 1.400 . S
C123 C122 1.400 . S
C123 C124 1.398 . S
C123 C129 1.491 1_556 S
C124 H115 0.950 1_556 S
C124 C123 1.398 . S
C124 C125 1.391 . S
C125 H113 0.950 . S
C125 C121 1.393 . S
C125 C124 1.391 . S
C126 H116 0.950 . S
C126 C127 1.386 . S
C126 C128 1.391 . S
C127 C126 1.386 . S
C127 C131 1.393 . S
C128 H117 0.950 . S
C128 C126 1.391 . S
C128 C129 1.400 . S
C129 C123 1.491 1_554 S
C129 C128 1.400 . S
C129 C130 1.398 . S
C130 H118 0.950 1_554 S
C130 C129 1.398 . S
C130 C131 1.391 . S
C131 H119 0.950 . S
C131 C127 1.393 . S
C131 C130 1.391 . S
H132 C140 0.950 . S
H133 C145 0.950 . S
H134 C142 0.950 . S
H135 C144 0.950 . S
H136 C146 0.950 . S
H137 C148 0.950 . S
H138 C150 0.950 . S
H139 C151 0.950 . S
C140 H132 0.950 . S
C140 C141 1.386 . S
C140 C142 1.391 . S
C141 C140 1.386 . S
C141 C145 1.393 . S
C142 H134 0.950 . S
C142 C140 1.391 . S
C142 C143 1.400 . S
C143 C142 1.400 . S
C143 C144 1.398 . S
C143 C149 1.491 . S
C144 H135 0.950 . S
C144 C143 1.398 . S
C144 C145 1.391 . S
C145 H133 0.950 . S
C145 C141 1.393 . S
C145 C144 1.391 . S
C146 H136 0.950 . S
C146 C147 1.386 . S
C146 C148 1.391 . S
C147 C146 1.386 . S
C147 C151 1.393 . S
C148 H137 0.950 . S
C148 C146 1.391 . S
C148 C149 1.400 . S
C149 C143 1.491 . S
C149 C148 1.400 . S
C149 C150 1.398 . S
C150 H138 0.950 . S
C150 C149 1.398 . S
C150 C151 1.391 . S
C151 H139 0.950 . S
C151 C147 1.393 . S
C151 C150 1.391 . S
H152 C160 0.950 . S
H153 C165 0.950 . S
H154 C162 0.950 . S
H155 C164 0.950 . S
H156 C166 0.950 . S
H157 C168 0.950 . S
H158 C170 0.950 . S
H159 C171 0.950 . S
C160 H152 0.950 . S
C160 C161 1.386 . S
C160 C162 1.391 . S
C161 C160 1.386 . S
C161 C165 1.393 . S
C162 H154 0.950 . S
C162 C160 1.391 . S
C162 C163 1.400 . S
C163 C162 1.400 . S
C163 C164 1.398 . S
C163 C169 1.491 . S
C164 H155 0.950 . S
C164 C163 1.398 . S
C164 C165 1.391 . S
C165 H153 0.950 . S
C165 C161 1.393 . S
C165 C164 1.391 . S
C166 H156 0.950 . S
C166 C167 1.386 . S
C166 C168 1.391 . S
C167 C166 1.386 . S
C167 C171 1.393 . S
C168 H157 0.950 . S
C168 C166 1.391 . S
C168 C169 1.400 . S
C169 C163 1.491 . S
C169 C168 1.400 . S
C169 C170 1.398 . S
C170 H158 0.950 . S
C170 C169 1.398 . S
C170 C171 1.391 . S
C171 H159 0.950 . S
C171 C167 1.393 . S
C171 C170 1.391 . S
H172 C180 0.950 . S
H173 C185 0.950 . S
H174 C182 0.950 . S
H175 C184 0.950 . S
H176 C186 0.950 . S
H177 C188 0.950 . S
H178 C190 0.950 . S
H179 C191 0.950 . S
C180 H172 0.950 . S
C180 C181 1.386 . S
C180 C182 1.391 . S
C181 C180 1.386 . S
C181 C185 1.393 . S
C182 H174 0.950 . S
C182 C180 1.391 . S
C182 C183 1.400 . S
C183 C182 1.400 . S
C183 C184 1.398 . S
C183 C189 1.491 . S
C184 H175 0.950 . S
C184 C183 1.398 . S
C184 C185 1.391 . S
C185 H173 0.950 . S
C185 C181 1.393 . S
C185 C184 1.391 . S
C186 H176 0.950 . S
C186 C187 1.386 . S
C186 C188 1.391 . S
C187 C186 1.386 . S
C187 C191 1.393 . S
C188 H177 0.950 . S
C188 C186 1.391 . S
C188 C189 1.400 . S
C189 C183 1.491 . S
C189 C188 1.400 . S
C189 C190 1.398 . S
C190 H178 0.950 . S
C190 C189 1.398 . S
C190 C191 1.391 . S
C191 H179 0.950 . S
C191 C187 1.393 . S
C191 C190 1.391 . S
H192 C200 0.950 . S
H193 C205 0.950 . S
H194 C202 0.950 . S
H195 C204 0.950 . S
H196 C206 0.950 . S
H197 C208 0.950 . S
H198 C210 0.950 . S
H199 C211 0.950 . S
C200 H192 0.950 . S
C200 C201 1.386 . S
C200 C202 1.391 . S
C201 C200 1.386 . S
C201 C205 1.393 . S
C202 H194 0.950 . S
C202 C200 1.391 . S
C202 C203 1.400 . S
C203 C202 1.400 . S
C203 C204 1.398 . S
C203 C209 1.491 . S
C204 H195 0.950 . S
C204 C203 1.398 . S
C204 C205 1.391 . S
C205 H193 0.950 . S
C205 C201 1.393 . S
C205 C204 1.391 . S
C206 H196 0.950 . S
C206 C207 1.386 . S
C206 C208 1.391 . S
C207 C206 1.386 . S
C207 C211 1.393 . S
C208 H197 0.950 . S
C208 C206 1.391 . S
C208 C209 1.400 . S
C209 C203 1.491 . S
C209 C208 1.400 . S
C209 C210 1.398 . S
C210 H198 0.950 . S
C210 C209 1.398 . S
C210 C211 1.391 . S
C211 H199 0.950 . S
C211 C207 1.393 . S
C211 C210 1.391 . S
H212 C220 0.950 . S
H213 C225 0.950 . S
H214 C222 0.950 . S
H215 C224 0.950 . S
H216 C226 0.950 . S
H217 C228 0.950 . S
H218 C230 0.950 . S
H219 C231 0.950 . S
C220 H212 0.950 . S
C220 C221 1.386 . S
C220 C222 1.391 . S
C221 C220 1.386 . S
C221 C225 1.393 . S
C222 H214 0.950 . S
C222 C220 1.391 . S
C222 C223 1.400 . S
C223 C222 1.400 . S
C223 C224 1.398 . S
C223 C229 1.491 . S
C224 H215 0.950 . S
C224 C223 1.398 . S
C224 C225 1.391 . S
C225 H213 0.950 . S
C225 C221 1.393 . S
C225 C224 1.391 . S
C226 H216 0.950 . S
C226 C227 1.386 . S
C226 C228 1.391 . S
C227 C226 1.386 . S
C227 C231 1.393 . S
C228 H217 0.950 . S
C228 C226 1.391 . S
C228 C229 1.400 . S
C229 C223 1.491 . S
C229 C228 1.400 . S
C229 C230 1.398 . S
C230 H218 0.950 . S
C230 C229 1.398 . S
C230 C231 1.391 . S
C231 H219 0.950 . S
C231 C227 1.393 . S
C231 C230 1.391 . S
H232 C240 0.950 . S
H233 C245 0.950 . S
H234 C242 0.950 . S
H235 C244 0.950 1_556 S
H236 C246 0.950 . S
H237 C248 0.950 . S
H238 C250 0.950 1_554 S
H239 C251 0.950 . S
C240 H232 0.950 . S
C240 C241 1.386 . S
C240 C242 1.391 . S
C241 C240 1.386 . S
C241 C245 1.393 . S
C242 H234 0.950 . S
C242 C240 1.391 . S
C242 C243 1.400 . S
C243 C242 1.400 . S
C243 C244 1.398 . S
C243 C249 1.491 1_554 S
C244 H235 0.950 1_554 S
C244 C243 1.398 . S
C244 C245 1.391 . S
C245 H233 0.950 . S
C245 C241 1.393 . S
C245 C244 1.391 . S
C246 H236 0.950 . S
C246 C247 1.386 . S
C246 C248 1.391 . S
C247 C246 1.386 . S
C247 C251 1.393 . S
C248 H237 0.950 . S
C248 C246 1.391 . S
C248 C249 1.400 . S
C249 C243 1.491 1_556 S
C249 C248 1.400 . S
C249 C250 1.398 . S
C250 H238 0.950 1_556 S
C250 C249 1.398 . S
C250 C251 1.391 . S
C251 H239 0.950 . S
C251 C247 1.393 . S
C251 C250 1.391 . S
H252 C260 0.950 . S
H253 C265 0.950 . S
H254 C262 0.950 . S
H255 C264 0.950 . S
H256 C266 0.950 . S
H257 C268 0.950 . S
H258 C270 0.950 . S
H259 C271 0.950 . S
C260 H252 0.950 . S
C260 C261 1.386 . S
C260 C262 1.391 . S
C261 C260 1.386 . S
C261 C265 1.393 . S
C262 H254 0.950 . S
C262 C260 1.391 . S
C262 C263 1.400 . S
C263 C262 1.400 . S
C263 C264 1.398 . S
C263 C269 1.491 . S
C264 H255 0.950 . S
C264 C263 1.398 . S
C264 C265 1.391 . S
C265 H253 0.950 . S
C265 C261 1.393 . S
C265 C264 1.391 . S
C266 H256 0.950 . S
C266 C267 1.386 . S
C266 C268 1.391 . S
C267 C266 1.386 . S
C267 C271 1.393 . S
C268 H257 0.950 . S
C268 C266 1.391 . S
C268 C269 1.400 . S
C269 C263 1.491 . S
C269 C268 1.400 . S
C269 C270 1.398 . S
C270 H258 0.950 . S
C270 C269 1.398 . S
C270 C271 1.391 . S
C271 H259 0.950 . S
C271 C267 1.393 . S
C271 C270 1.391 . S
H272 C280 0.950 . S
H273 C285 0.950 . S
H274 C282 0.950 . S
H275 C284 0.950 . S
H276 C286 0.950 . S
H277 C288 0.950 . S
H278 C290 0.950 . S
H279 C291 0.950 . S
C280 H272 0.950 . S
C280 C281 1.386 . S
C280 C282 1.391 . S
C281 C280 1.386 . S
C281 C285 1.393 . S
C282 H274 0.950 . S
C282 C280 1.391 . S
C282 C283 1.400 . S
C283 C282 1.400 . S
C283 C284 1.398 . S
C283 C289 1.491 . S
C284 H275 0.950 . S
C284 C283 1.398 . S
C284 C285 1.391 . S
C285 H273 0.950 . S
C285 C281 1.393 . S
C285 C284 1.391 . S
C286 H276 0.950 . S
C286 C287 1.386 . S
C286 C288 1.391 . S
C287 C286 1.386 . S
C287 C291 1.393 . S
C288 H277 0.950 . S
C288 C286 1.391 . S
C288 C289 1.400 . S
C289 C283 1.491 . S
C289 C288 1.400 . S
C289 C290 1.398 . S
C290 H278 0.950 . S
C290 C289 1.398 . S
C290 C291 1.391 . S
C291 H279 0.950 . S
C291 C287 1.393 . S
C291 C290 1.391 . S
H292 C300 0.950 1_545 S
H293 C305 0.950 . S
H294 C302 0.950 . S
H295 C304 0.950 . S
H296 C306 0.950 . S
H297 C308 0.950 . S
H298 C310 0.950 . S
H299 C311 0.950 . S
C300 H292 0.950 1_565 S
C300 C301 1.386 . S
C300 C302 1.391 . S
C301 C300 1.386 . S
C301 C305 1.393 . S
C302 H294 0.950 . S
C302 C300 1.391 . S
C302 C303 1.400 . S
C303 C302 1.400 . S
C303 C304 1.398 . S
C303 C309 1.491 . S
C304 H295 0.950 . S
C304 C303 1.398 . S
C304 C305 1.391 . S
C305 H293 0.950 . S
C305 C301 1.393 . S
C305 C304 1.391 . S
C306 H296 0.950 . S
C306 C307 1.386 . S
C306 C308 1.391 . S
C307 C306 1.386 . S
C307 C311 1.393 . S
C308 H297 0.950 . S
C308 C306 1.391 . S
C308 C309 1.400 . S
C309 C303 1.491 . S
C309 C308 1.400 . S
C309 C310 1.398 . S
C310 H298 0.950 . S
C310 C309 1.398 . S
C310 C311 1.391 . S
C311 H299 0.950 . S
C311 C307 1.393 . S
C311 C310 1.391 . S
H312 C320 0.950 . S
H313 C325 0.950 1_655 S
H314 C322 0.950 . S
H315 C324 0.950 . S
H316 C326 0.950 . S
H317 C328 0.950 . S
H318 C330 0.950 . S
H319 C331 0.950 . S
C320 H312 0.950 . S
C320 C321 1.386 . S
C320 C322 1.391 . S
C321 C320 1.386 . S
C321 C325 1.393 1_554 S
C322 H314 0.950 . S
C322 C320 1.391 . S
C322 C323 1.400 . S
C323 C322 1.400 . S
C323 C324 1.398 1_554 S
C323 C329 1.491 1_554 S
C324 H315 0.950 . S
C324 C323 1.398 1_556 S
C324 C325 1.391 . S
C325 H313 0.950 1_455 S
C325 C321 1.393 1_556 S
C325 C324 1.391 . S
C326 H316 0.950 . S
C326 C327 1.386 . S
C326 C328 1.391 . S
C327 C326 1.386 . S
C327 C331 1.393 1_556 S
C328 H317 0.950 . S
C328 C326 1.391 . S
C328 C329 1.400 . S
C329 C323 1.491 1_556 S
C329 C328 1.400 . S
C329 C330 1.398 1_556 S
C330 H318 0.950 . S
C330 C329 1.398 1_554 S
C330 C331 1.391 . S
C331 H319 0.950 . S
C331 C327 1.393 1_554 S
C331 C330 1.391 . S
H332 C340 0.950 . S
H333 C345 0.950 1_455 S
H334 C342 0.950 . S
H335 C344 0.950 . S
H336 C346 0.950 . S
H337 C348 0.950 . S
H338 C350 0.950 . S
H339 C351 0.950 . S
C340 H332 0.950 . S
C340 C341 1.386 . S
C340 C342 1.391 . S
C341 C340 1.386 . S
C341 C345 1.393 . S
C342 H334 0.950 . S
C342 C340 1.391 . S
C342 C343 1.400 . S
C343 C342 1.400 . S
C343 C344 1.398 . S
C343 C349 1.491 . S
C344 H335 0.950 . S
C344 C343 1.398 . S
C344 C345 1.391 . S
C345 H333 0.950 1_655 S
C345 C341 1.393 . S
C345 C344 1.391 . S
C346 H336 0.950 . S
C346 C347 1.386 . S
C346 C348 1.391 . S
C347 C346 1.386 . S
C347 C351 1.393 . S
C348 H337 0.950 . S
C348 C346 1.391 . S
C348 C349 1.400 . S
C349 C343 1.491 . S
C349 C348 1.400 . S
C349 C350 1.398 . S
C350 H338 0.950 . S
C350 C349 1.398 . S
C350 C351 1.391 . S
C351 H339 0.950 . S
C351 C347 1.393 . S
C351 C350 1.391 . S
H352 C360 0.950 . S
H353 C365 0.950 1_565 S
H354 C362 0.950 . S
H355 C364 0.950 . S
H356 C366 0.950 . S
H357 C368 0.950 . S
H358 C370 0.950 . S
H359 C371 0.950 . S
C360 H352 0.950 . S
C360 C361 1.386 . S
C360 C362 1.391 . S
C361 C360 1.386 . S
C361 C365 1.393 . S
C362 H354 0.950 . S
C362 C360 1.391 . S
C362 C363 1.400 . S
C363 C362 1.400 . S
C363 C364 1.398 . S
C363 C369 1.491 . S
C364 H355 0.950 . S
C364 C363 1.398 . S
C364 C365 1.391 . S
C365 H353 0.950 1_545 S
C365 C361 1.393 . S
C365 C364 1.391 . S
C366 H356 0.950 . S
C366 C367 1.386 . S
C366 C368 1.391 . S
C367 C366 1.386 . S
C367 C371 1.393 . S
C368 H357 0.950 . S
C368 C366 1.391 . S
C368 C369 1.400 . S
C369 C363 1.491 . S
C369 C368 1.400 . S
C369 C370 1.398 . S
C370 H358 0.950 . S
C370 C369 1.398 . S
C370 C371 1.391 . S
C371 H359 0.950 . S
C371 C367 1.393 . S
C371 C370 1.391 . S
H372 C380 0.950 . S
H373 C385 0.950 . S
H374 C382 0.950 . S
H375 C384 0.950 . S
H376 C386 0.950 . S
H377 C388 0.950 . S
H378 C390 0.950 . S
H379 C391 0.950 . S
C380 H372 0.950 . S
C380 C381 1.386 1_554 S
C380 C382 1.391 . S
C381 C380 1.386 1_556 S
C381 C385 1.393 . S
C382 H374 0.950 . S
C382 C380 1.391 . S
C382 C383 1.400 1_554 S
C383 C382 1.400 1_556 S
C383 C384 1.398 . S
C383 C389 1.491 1_556 S
C384 H375 0.950 . S
C384 C383 1.398 . S
C384 C385 1.391 . S
C385 H373 0.950 . S
C385 C381 1.393 . S
C385 C384 1.391 . S
C386 H376 0.950 . S
C386 C387 1.386 1_556 S
C386 C388 1.391 . S
C387 C386 1.386 1_554 S
C387 C391 1.393 . S
C388 H377 0.950 . S
C388 C386 1.391 . S
C388 C389 1.400 1_556 S
C389 C383 1.491 1_554 S
C389 C388 1.400 1_554 S
C389 C390 1.398 . S
C390 H378 0.950 . S
C390 C389 1.398 . S
C390 C391 1.391 . S
C391 H379 0.950 . S
C391 C387 1.393 . S
C391 C390 1.391 . S
H392 C400 0.950 1_655 S
H393 C405 0.950 . S
H394 C402 0.950 . S
H395 C404 0.950 . S
H396 C406 0.950 . S
H397 C408 0.950 . S
H398 C410 0.950 . S
H399 C411 0.950 . S
C400 H392 0.950 1_455 S
C400 C401 1.386 . S
C400 C402 1.391 . S
C401 C400 1.386 . S
C401 C405 1.393 . S
C402 H394 0.950 . S
C402 C400 1.391 . S
C402 C403 1.400 . S
C403 C402 1.400 . S
C403 C404 1.398 . S
C403 C409 1.491 . S
C404 H395 0.950 . S
C404 C403 1.398 . S
C404 C405 1.391 . S
C405 H393 0.950 . S
C405 C401 1.393 . S
C405 C404 1.391 . S
C406 H396 0.950 . S
C406 C407 1.386 . S
C406 C408 1.391 . S
C407 C406 1.386 . S
C407 C411 1.393 . S
C408 H397 0.950 . S
C408 C406 1.391 . S
C408 C409 1.400 . S
C409 C403 1.491 . S
C409 C408 1.400 . S
C409 C410 1.398 . S
C410 H398 0.950 . S
C410 C409 1.398 . S
C410 C411 1.391 . S
C411 H399 0.950 . S
C411 C407 1.393 . S
C411 C410 1.391 . S
H412 C420 0.950 . S
H413 C425 0.950 . S
H414 C422 0.950 . S
H415 C424 0.950 . S
H416 C426 0.950 . S
H417 C428 0.950 . S
H418 C430 0.950 . S
H419 C431 0.950 . S
C420 H412 0.950 . S
C420 C421 1.386 . S
C420 C422 1.391 . S
C421 C420 1.386 . S
C421 C425 1.393 . S
C422 H414 0.950 . S
C422 C420 1.391 . S
C422 C423 1.400 . S
C423 C422 1.400 . S
C423 C424 1.398 . S
C423 C429 1.491 . S
C424 H415 0.950 . S
C424 C423 1.398 . S
C424 C425 1.391 . S
C425 H413 0.950 . S
C425 C421 1.393 . S
C425 C424 1.391 . S
C426 H416 0.950 . S
C426 C427 1.386 . S
C426 C428 1.391 . S
C427 C426 1.386 . S
C427 C431 1.393 . S
C428 H417 0.950 . S
C428 C426 1.391 . S
C428 C429 1.400 . S
C429 C423 1.491 . S
C429 C428 1.400 . S
C429 C430 1.398 . S
C430 H418 0.950 . S
C430 C429 1.398 . S
C430 C431 1.391 . S
C431 H419 0.950 . S
C431 C427 1.393 . S
C431 C430 1.391 . S
C121 C25 1.347 . S
C127 C11 1.361 . S
C141 C19 1.221 . S
C147 C33 1.221 . S
C161 C53 1.370 . S
C167 C39 1.360 . S
C181 C47 1.212 . S
C187 C5 1.233 . S
C201 C67 1.347 . S
C207 C81 1.366 . S
C221 C75 1.206 . S
C227 C89 1.244 . S
C241 C95 1.347 . S
C247 C109 1.361 . S
C261 C61 1.228 . S
C267 C103 1.215 . S
C281 C12 1.475 . S
C287 C110 1.474 . S
C301 C60 1.407 . S
C307 C18 1.407 . S
C321 C82 1.476 . S
C327 C40 1.475 . S
C341 C46 1.422 . S
C347 C88 1.409 . S
C361 C32 1.420 . S
C367 C102 1.413 . S
C381 C68 1.476 . S
C387 C54 1.478 . S
C401 C74 1.401 . S
C407 C4 1.415 . S
C421 C26 1.475 . S
C427 C96 1.477 . S
