# Generated by pormake.
# Topology fnu, (5)-cn, num edge types: 1
# Building blocks:
#     Node 0, Type 0, BuildingBlock: XOMCOT_clean_sbu_0, # of connection points: 5
#     Node 1, Type 0, BuildingBlock: XOMCOT_clean_sbu_0, # of connection points: 5
#     Node 2, Type 0, BuildingBlock: XOMCOT_clean_sbu_0, # of connection points: 5
#     Node 3, Type 0, BuildingBlock: XOMCOT_clean_sbu_0, # of connection points: 5
#     Node 4, Type 0, BuildingBlock: XOMCOT_clean_sbu_0, # of connection points: 5
#     Node 5, Type 0, BuildingBlock: XOMCOT_clean_sbu_0, # of connection points: 5
#     Edge 6, Type (0, 0), BuildingBlock: EZIPEK_clean_linker_0, # of connection points: 2
#     Edge 7, Type (0, 0), BuildingBlock: EZIPEK_clean_linker_0, # of connection points: 2
#     Edge 8, Type (0, 0), BuildingBlock: EZIPEK_clean_linker_0, # of connection points: 2
#     Edge 9, Type (0, 0), BuildingBlock: EZIPEK_clean_linker_0, # of connection points: 2
#     Edge 10, Type (0, 0), BuildingBlock: EZIPEK_clean_linker_0, # of connection points: 2
#     Edge 11, Type (0, 0), BuildingBlock: EZIPEK_clean_linker_0, # of connection points: 2
#     Edge 12, Type (0, 0), BuildingBlock: EZIPEK_clean_linker_0, # of connection points: 2
#     Edge 13, Type (0, 0), BuildingBlock: EZIPEK_clean_linker_0, # of connection points: 2
#     Edge 14, Type (0, 0), BuildingBlock: EZIPEK_clean_linker_0, # of connection points: 2
#     Edge 15, Type (0, 0), BuildingBlock: EZIPEK_clean_linker_0, # of connection points: 2
#     Edge 16, Type (0, 0), BuildingBlock: EZIPEK_clean_linker_0, # of connection points: 2
#     Edge 17, Type (0, 0), BuildingBlock: EZIPEK_clean_linker_0, # of connection points: 2
#     Edge 18, Type (0, 0), BuildingBlock: EZIPEK_clean_linker_0, # of connection points: 2
#     Edge 19, Type (0, 0), BuildingBlock: EZIPEK_clean_linker_0, # of connection points: 2
#     Edge 20, Type (0, 0), BuildingBlock: EZIPEK_clean_linker_0, # of connection points: 2
# Relax obj value: 0.186
# Max RMSD: 0.134
# Mean RMSD: 0.134
data_MOF--net-fnu--node1-XOMCOT_clean_sbu_0--edge1-EZIPEK_clean_linker_0
_symmetry_space_group_name_H-M    P1
_symmetry_Int_Tables_number       1
_symmetry_cell_setting            triclinic
loop_
_symmetry_equiv_pos_as_xyz
'x, y, z'
_cell_length_a     18.818566
_cell_length_b     21.626851
_cell_length_c     26.238887
_cell_angle_alpha  90.836257
_cell_angle_beta   97.999795
_cell_angle_gamma 124.03886
loop_
_atom_site_label
_atom_site_type_symbol
_atom_site_fract_x
_atom_site_fract_y
_atom_site_fract_z
_atom_type_partial_charge
Co0 Co 0.12796 1.02213 0.25549 0.0
C1 C 0.12424 1.0219 0.36675 0.0
C2 C 0.25379 0.10344 0.35351 0.0
C3 C 0.25316 0.10859 0.40609 0.0
N4 N 0.17285 0.04891 0.32905 0.0
N5 N 0.17163 0.05724 0.41402 0.0
H6 H 1.05474 0.97957 0.35963 0.0
H7 H 0.30851 0.13899 0.33446 0.0
C8 C 0.27886 0.05671 0.19934 0.0
O9 O 0.22387 1.00452 0.16118 0.0
N10 N 1.07409 0.99147 0.18382 0.0
C11 C 0.99114 0.9315 0.16704 0.0
C12 C 0.9649 0.93436 0.11658 0.0
C13 C 0.0946 1.033 0.14406 0.0
N14 N 1.02986 0.99844 0.10295 0.0
C15 C 1.01199 0.86434 0.26883 0.0
C16 C 0.10427 0.82362 0.22131 0.0
C17 C 1.01502 0.76998 0.21921 0.0
C18 C 0.97033 0.78933 0.24724 0.0
C19 C 0.14312 0.89673 0.24421 0.0
N20 N 0.09439 0.91859 0.2614 0.0
H21 H 0.97359 0.88037 0.28441 0.0
H22 H 0.211 0.93631 0.2443 0.0
H23 H 0.94813 0.89171 0.19053 0.0
H24 H 0.15448 0.08743 0.14503 0.0
O25 O 1.02225 1.01722 0.26471 0.0
O26 O 0.14311 0.11664 0.24972 0.0
O27 O 0.25204 0.06286 0.24064 0.0
C28 C 1.06315 0.087 0.25421 0.0
H29 H 0.30735 0.14859 0.43593 0.0
H30 H 0.90281 0.89404 0.0921 0.0
H31 H 0.14296 0.81031 0.20292 0.0
H32 H 0.90203 0.74884 0.24845 0.0
Co33 Co 1.05657 0.05741 0.75814 0.0
C34 C 1.07783 0.04162 0.65073 0.0
C35 C 0.94267 0.9877 0.6556 0.0
C36 C 0.94952 0.9817 0.60423 0.0
N37 N 1.02317 1.02521 0.68459 0.0
N38 N 1.03445 1.01569 0.60149 0.0
H39 H 0.14803 0.07367 0.66168 0.0
H40 H 0.88342 0.96792 0.67044 0.0
C41 C 0.9095 0.92697 0.80737 0.0
O42 O 0.9676 0.92807 0.84224 0.0
N43 N 0.09576 0.09441 0.83092 0.0
C44 C 0.17977 0.14222 0.85461 0.0
C45 C 0.18223 0.15476 0.90623 0.0
C46 C 1.04885 0.08401 0.86791 0.0
N47 N 0.09962 0.11549 0.91444 0.0
C48 C 0.19703 1.03682 0.7788 0.0
C49 C 0.09331 0.88593 0.79031 0.0
C50 C 0.18339 0.92542 0.80904 0.0
C51 C 0.23586 1.00081 0.79955 0.0
C52 C 1.05806 0.92335 0.76703 0.0
N53 N 0.10842 0.99955 0.76727 0.0
H54 H 0.23847 0.09556 0.77386 0.0
H55 H 0.98938 0.89133 0.75138 0.0
H56 H 0.23624 0.16497 0.83643 0.0
H57 H 0.97906 0.05005 0.86263 0.0
O58 O 0.15678 0.15547 0.74693 0.0
O59 O 1.0265 0.1288 0.74919 0.0
O60 O 0.93441 0.96927 0.77041 0.0
C61 C 0.10823 0.18044 0.75018 0.0
H62 H 0.89668 0.95611 0.57131 0.0
H63 H 0.23974 0.18237 0.93621 0.0
H64 H 1.0502 0.82668 0.79414 0.0
H65 H 0.30609 1.03264 0.81049 0.0
Co66 Co 0.78626 0.47863 0.5833 0.0
C67 C 0.78715 0.43018 0.68949 0.0
C68 C 0.90419 0.53729 0.68485 0.0
C69 C 0.90527 0.52257 0.73593 0.0
N70 N 0.83086 0.47897 0.65536 0.0
N71 N 0.83167 0.45538 0.73894 0.0
H72 H 0.72216 0.37945 0.67888 0.0
H73 H 0.95172 0.58876 0.67058 0.0
C74 C 0.97253 0.52038 0.57469 0.0
O75 O 0.98048 0.49112 0.61684 0.0
N76 N 0.73832 0.47796 0.51293 0.0
C77 C 0.65296 0.43896 0.49159 0.0
C78 C 0.64536 0.44152 0.43906 0.0
C79 C 0.78124 0.50679 0.47339 0.0
N80 N 0.72612 0.48276 0.42781 0.0
C81 C 0.65061 0.3207 0.56264 0.0
C82 C 0.74484 0.27552 0.52267 0.0
C83 C 0.65408 0.22592 0.51437 0.0
C84 C 0.6071 0.2485 0.53619 0.0
C85 C 0.78579 0.34736 0.5493 0.0
N86 N 0.7387 0.37127 0.56663 0.0
H87 H 0.6121 0.33691 0.57764 0.0
H88 H 0.85511 0.38291 0.55455 0.0
H89 H 0.59952 0.40524 0.51179 0.0
H90 H 0.85101 0.53756 0.47651 0.0
O91 O 0.68677 0.46988 0.60459 0.0
O92 O 0.80844 0.57681 0.59848 0.0
O93 O 0.90201 0.51607 0.5592 0.0
C94 C 0.72761 0.54223 0.6044 0.0
H95 H 0.95441 0.55994 0.76877 0.0
H96 H 0.58586 0.40787 0.41086 0.0
H97 H 0.78396 0.25881 0.5088 0.0
H98 H 0.53703 0.21051 0.53271 0.0
Co99 Co 0.77789 0.35667 0.0955 0.0
C100 C 0.78739 0.37199 0.98259 0.0
C101 C 0.66441 0.27509 0.99345 0.0
C102 C 0.66296 0.28125 0.94092 0.0
N103 N 0.74236 0.33215 0.01991 0.0
N104 N 0.74024 0.34215 0.93412 0.0
H105 H 0.85252 0.42289 0.99041 0.0
H106 H 0.61117 0.23247 0.01086 0.0
C107 C 0.63033 0.23897 0.14762 0.0
O108 O 0.69043 0.24385 0.18306 0.0
N109 N 0.81674 0.38587 0.16944 0.0
C110 C 0.89721 0.41504 0.19745 0.0
C111 C 0.90317 0.44583 0.2452 0.0
C112 C 0.77674 0.40262 0.20011 0.0
N113 N 0.82749 0.43794 0.2462 0.0
C114 C 0.90351 0.32101 0.10914 0.0
C115 C 0.79399 0.17087 0.1205 0.0
C116 C 0.8835 0.20832 0.14103 0.0
C117 C 0.93817 0.28421 0.13326 0.0
C118 C 0.7612 0.21219 0.10027 0.0
N119 N 0.81585 0.28817 0.09932 0.0
H120 H 0.94818 0.37913 0.10382 0.0
H121 H 0.69193 0.18343 0.08741 0.0
H122 H 0.95095 0.41905 0.18412 0.0
H123 H 0.71215 0.39006 0.1889 0.0
O124 O 0.88619 0.44872 0.08758 0.0
O125 O 0.76607 0.44053 0.09292 0.0
O126 O 0.65301 0.27493 0.10749 0.0
C127 C 0.84963 0.48391 0.09304 0.0
H128 H 0.60875 0.24452 0.91006 0.0
H129 H 0.95819 0.47166 0.27683 0.0
H130 H 0.74934 0.1113 0.12265 0.0
H131 H 1.00789 0.31603 0.14677 0.0
Co132 Co 0.41081 0.72131 0.9153 0.0
C133 C 0.40521 0.72018 0.02803 0.0
C134 C 0.53524 0.79667 0.01349 0.0
C135 C 0.53733 0.8008 0.06625 0.0
N136 N 0.45253 0.746 0.98951 0.0
N137 N 0.45573 0.75275 0.07528 0.0
H138 H 0.33519 0.68008 0.02167 0.0
H139 H 0.5901 0.83004 0.9941 0.0
C140 C 0.56174 0.7468 0.86375 0.0
O141 O 0.50605 0.68806 0.82977 0.0
N142 N 0.36649 0.69634 0.84221 0.0
C143 C 0.29221 0.63514 0.81508 0.0
C144 C 0.28816 0.64521 0.76343 0.0
C145 C 0.40343 0.74378 0.80736 0.0
N146 N 0.35921 0.7131 0.75952 0.0
C147 C 0.2894 0.56488 0.91961 0.0
C148 C 0.39033 0.52107 0.88804 0.0
C149 C 0.29918 0.471 0.87574 0.0
C150 C 0.24921 0.49205 0.89562 0.0
C151 C 0.42755 0.59436 0.91116 0.0
N152 N 0.37582 0.61764 0.92024 0.0
H153 H 0.24824 0.58116 0.93018 0.0
H154 H 0.49731 0.63307 0.9186 0.0
H155 H 0.24249 0.58716 0.83073 0.0
H156 H 0.46357 0.79881 0.81638 0.0
O157 O 0.30262 0.71058 0.92302 0.0
O158 O 0.42121 0.81575 0.90987 0.0
O159 O 0.53566 0.76119 0.90251 0.0
C160 C 0.33895 0.77958 0.91252 0.0
H161 H 0.59389 0.83797 0.09574 0.0
H162 H 0.23932 0.60548 0.73133 0.0
H163 H 0.43198 0.50537 0.87695 0.0
H164 H 0.1788 0.45438 0.88935 0.0
Co165 Co 0.42871 0.79264 0.43456 0.0
C166 C 0.41452 0.75095 0.32375 0.0
C167 C 0.2995 0.7413 0.3385 0.0
C168 C 0.29224 0.72866 0.28575 0.0
N169 N 0.37559 0.75426 0.36243 0.0
N170 N 0.36446 0.73469 0.27659 0.0
H171 H 0.48036 0.76526 0.32963 0.0
H172 H 0.25464 0.74503 0.35781 0.0
C173 C 0.24514 0.65182 0.44505 0.0
O174 O 0.23343 0.61599 0.40048 0.0
N175 N 0.48643 0.83308 0.50491 0.0
C176 C 0.57354 0.87658 0.52247 0.0
C177 C 0.58841 0.88365 0.57567 0.0
C178 C 0.44984 0.81611 0.54713 0.0
N179 N 0.51015 0.84527 0.5902 0.0
C180 C 0.56308 0.76406 0.4385 0.0
C181 C 0.47492 0.63596 0.48732 0.0
C182 C 0.56468 0.67182 0.49053 0.0
C183 C 0.60816 0.7346 0.46292 0.0
C184 C 0.43221 0.66432 0.46017 0.0
N185 N 0.47669 0.73133 0.44007 0.0
H186 H 0.5993 0.81645 0.42199 0.0
H187 H 0.36387 0.63323 0.4589 0.0
H188 H 0.62306 0.89839 0.49847 0.0
H189 H 0.38068 0.78118 0.54702 0.0
O190 O 0.5239 0.88842 0.41564 0.0
O191 O 0.39901 0.86452 0.42995 0.0
O192 O 0.31722 0.71513 0.46133 0.0
C193 C 0.47792 0.91445 0.42452 0.0
H194 H 0.24075 0.72063 0.25613 0.0
H195 H 0.65058 0.90979 0.60136 0.0
H196 H 0.43744 0.5865 0.50679 0.0
H197 H 0.67723 0.76321 0.46289 0.0
C198 C 0.42833 0.08417 0.1982 0.0
C199 C 0.37269 0.10915 0.19246 0.0
C200 C 0.48575 0.22173 0.1565 0.0
C201 C 0.53696 0.19185 0.15686 0.0
N202 N 0.54611 0.08607 0.16918 0.0
N203 N 0.34771 0.20221 0.16566 0.0
C204 C 0.50509 0.12078 0.17543 0.0
C205 C 0.40141 0.17814 0.17142 0.0
N206 N 0.40988 1.02707 0.22751 0.0
N207 N 0.51906 0.29327 0.14459 0.0
H208 H 0.29183 0.17757 0.18222 0.0
H209 H 0.35729 0.24511 0.14366 0.0
H210 H 0.57824 0.32643 0.13194 0.0
H211 H 0.49059 0.32192 0.15016 0.0
H212 H 0.45434 1.01374 0.23959 0.0
H213 H 0.35551 1.0003 0.2455 0.0
H214 H 0.52191 1.03167 0.17786 0.0
H215 H 0.599 0.10825 0.14999 0.0
C216 C 0.93308 0.10006 0.2411 0.0
C217 C 1.01831 0.12444 0.23359 0.0
C218 C 1.00311 0.1872 0.16009 0.0
C219 C 0.92273 0.17117 0.1703 0.0
N220 N 0.82387 0.12801 0.23188 0.0
N221 N 0.14524 0.22707 0.2029 0.0
C222 C 0.89039 0.13125 0.21378 0.0
C223 C 1.05694 0.17873 0.19823 0.0
N224 N 0.89436 0.05047 0.276 0.0
N225 N 1.02947 0.21154 0.11423 0.0
H226 H 0.18805 0.23549 0.23631 0.0
H227 H 0.1743 0.26867 0.17831 0.0
H228 H 0.98982 0.21454 0.08379 0.0
H229 H 1.08578 0.2194 0.10461 0.0
H230 H 0.82852 1.02326 0.27796 0.0
H231 H 0.92791 1.03602 0.30252 0.0
H232 H 0.80344 0.10589 0.26609 0.0
H233 H 0.79535 0.15471 0.21621 0.0
C234 C 0.86511 0.60742 0.10941 0.0
C235 C 0.90201 0.56528 0.11541 0.0
C236 C 1.00267 0.65126 0.19269 0.0
C237 C 0.97019 0.69644 0.18543 0.0
N238 N 0.88358 0.72617 0.12811 0.0
N239 N 1.03381 0.57266 0.14925 0.0
C240 C 0.90472 0.67687 0.14136 0.0
C241 C 0.97931 0.59475 0.15281 0.0
N242 N 0.79327 0.58206 0.0723 0.0
N243 N 1.05446 0.66086 0.23826 0.0
H244 H 1.02839 0.5415 0.11656 0.0
H245 H 0.09283 0.59606 0.17462 0.0
H246 H 1.0707 0.70001 0.26916 0.0
H247 H 1.07264 0.62417 0.24712 0.0
H248 H 0.7558 0.60385 0.07063 0.0
H249 H 0.77022 0.53783 0.04373 0.0
H250 H 0.84367 0.71887 0.09357 0.0
H251 H 0.91215 0.77793 0.14935 0.0
C252 C 0.22342 0.32199 0.75992 0.0
C253 C 0.14858 0.25904 0.77517 0.0
C254 C 0.18625 0.33175 0.85883 0.0
C255 C 0.25425 0.39749 0.84192 0.0
N256 N 0.3225 0.45795 0.76926 0.0
N257 N 1.04151 0.22218 0.83165 0.0
C258 C 0.26915 0.39362 0.7904 0.0
C259 C 0.12427 0.26911 0.82216 0.0
N260 N 0.24977 0.31409 0.71585 0.0
N261 N 0.18088 0.32831 0.91017 0.0
H262 H 0.98907 0.18196 0.804 0.0
H263 H 1.02212 0.23235 0.86431 0.0
H264 H 0.22776 0.37177 0.9387 0.0
H265 H 0.13573 0.27901 0.92445 0.0
H266 H 0.30911 0.3556 0.70592 0.0
H267 H 0.21359 0.26462 0.69046 0.0
H268 H 0.32905 0.45846 0.73045 0.0
H269 H 0.35323 0.51137 0.78881 0.0
C270 C 0.69998 0.76371 0.84561 0.0
C271 C 0.65458 0.79675 0.85431 0.0
C272 C 0.77249 0.91506 0.82612 0.0
C273 C 0.81574 0.88048 0.81547 0.0
N274 N 0.8105 0.76732 0.80496 0.0
N275 N 0.6457 0.90365 0.85005 0.0
C276 C 0.77639 0.8035 0.82249 0.0
C277 C 0.69077 0.87257 0.84414 0.0
N278 N 0.67185 0.6949 0.86158 0.0
N279 N 0.81061 0.98946 0.82061 0.0
H280 H 0.5922 0.87912 0.86867 0.0
H281 H 0.65958 0.95295 0.83532 0.0
H282 H 0.8636 1.02047 0.80193 0.0
H283 H 0.79146 1.02159 0.83575 0.0
H284 H 0.70652 0.67065 0.86167 0.0
H285 H 0.61794 0.66511 0.87982 0.0
H286 H 0.78039 0.70955 0.80355 0.0
H287 H 0.86466 0.79402 0.78669 0.0
C288 C 0.27445 0.9183 0.88816 0.0
C289 C 0.22182 0.88756 0.8378 0.0
C290 C 0.2226 0.77498 0.84725 0.0
C291 C 0.28762 0.81107 0.8928 0.0
N292 N 0.37905 0.92055 0.95535 0.0
N293 N 0.16575 0.79355 0.76487 0.0
C294 C 0.31489 0.88402 0.91268 0.0
C295 C 0.20149 0.81778 0.81612 0.0
N296 N 0.28277 0.97802 0.91387 0.0
N297 N 0.17905 0.69962 0.83363 0.0
H298 H 0.15503 0.8255 0.73968 0.0
H299 H 0.15689 0.74625 0.74615 0.0
H300 H 0.18565 0.66419 0.85699 0.0
H301 H 0.12707 0.67063 0.80269 0.0
H302 H 0.31249 0.99761 0.95251 0.0
H303 H 0.25258 1.00349 0.89846 0.0
H304 H 0.4095 0.97718 0.96784 0.0
H305 H 0.40455 0.8949 0.97689 0.0
C306 C 0.13269 0.59864 0.56472 0.0
C307 C 1.04294 0.55276 0.54172 0.0
C308 C 1.08659 0.57974 0.45602 0.0
C309 C 0.17581 0.61663 0.47856 0.0
N310 N 0.27755 0.63764 0.55552 0.0
N311 N 0.9406 0.47981 0.46303 0.0
C312 C 0.19735 0.61955 0.5333 0.0
C313 C 1.02148 0.53769 0.48668 0.0
N314 N 0.15736 0.62497 0.61611 0.0
N315 N 1.0628 0.5864 0.40586 0.0
H316 H 0.8921 0.44415 0.48349 0.0
H317 H 0.92626 0.46211 0.42356 0.0
H318 H 0.1076 0.62039 0.38261 0.0
H319 H 0.99834 0.565 0.38958 0.0
H320 H 0.22231 0.66381 0.63322 0.0
H321 H 0.11311 0.6151 0.64011 0.0
H322 H 0.29269 0.63324 0.59447 0.0
H323 H 0.3251 0.64832 0.53416 0.0
C324 C 0.5944 0.53245 0.55944 0.0
C325 C 0.67849 0.57756 0.59026 0.0
C326 C 0.68218 0.68858 0.56406 0.0
C327 C 0.60963 0.64213 0.52329 0.0
N328 N 0.51225 0.51797 0.47604 0.0
N329 N 0.80072 0.70203 0.62568 0.0
C330 C 0.57051 0.56346 0.51911 0.0
C331 C 0.72218 0.65696 0.59357 0.0
N332 N 0.53577 0.4609 0.5693 0.0
N333 N 0.70993 0.76116 0.57674 0.0
H334 H 0.82586 0.68052 0.65222 0.0
H335 H 0.84098 0.76 0.62508 0.0
H336 H 0.67981 0.7852 0.55841 0.0
H337 H 0.75717 0.79518 0.60892 0.0
H338 H 0.47223 0.42776 0.54848 0.0
H339 H 0.54649 0.43959 0.60269 0.0
H340 H 0.48697 0.46089 0.47062 0.0
H341 H 0.49768 0.53893 0.44364 0.0
C342 C 0.51792 1.01305 0.49788 0.0
C343 C 0.51942 0.99482 0.4454 0.0
C344 C 0.59637 0.12926 0.43531 0.0
C345 C 0.60927 0.14692 0.48971 0.0
N346 N 0.59819 0.10348 0.57398 0.0
N347 N 0.56799 1.03949 0.36509 0.0
C348 C 0.57559 0.08812 0.5213 0.0
C349 C 0.56239 0.05435 0.41455 0.0
N350 N 0.45844 0.96126 0.5252 0.0
N351 N 0.60961 0.18221 0.40318 0.0
H352 H 0.53961 0.98505 0.34787 0.0
H353 H 0.60529 0.08166 0.34261 0.0
H354 H 0.62265 0.23338 0.41728 0.0
H355 H 0.59539 0.17139 0.36293 0.0
H356 H 0.4517 0.97586 0.56138 0.0
H357 H 0.4073 0.90722 0.51007 0.0
H358 H 0.58144 0.06166 0.59838 0.0
H359 H 0.64094 0.15778 0.59298 0.0
C360 C 0.09298 0.97848 0.53764 0.0
C361 C 1.07149 1.02744 0.55496 0.0
C362 C 0.11362 0.09455 0.47813 0.0
C363 C 0.13907 0.04792 0.46206 0.0
N364 N 0.16205 0.95091 0.47758 0.0
N365 N 1.07072 0.13739 0.54652 0.0
C366 C 0.13129 0.9913 0.49225 0.0
C367 C 1.08449 0.08707 0.52645 0.0
N368 N 1.07439 0.9187 0.56415 0.0
N369 N 0.11518 0.14448 0.44621 0.0
H370 H 1.04879 0.13256 0.5816 0.0
H371 H 1.08646 0.18641 0.53058 0.0
H372 H 0.13733 0.15157 0.41104 0.0
H373 H 0.08963 0.1753 0.45268 0.0
H374 H 1.08079 0.87646 0.55164 0.0
H375 H 1.04745 0.90912 0.59775 0.0
H376 H 0.16583 0.91301 0.49972 0.0
H377 H 0.18895 0.95886 0.44408 0.0
C378 C 0.75494 0.4289 0.86839 0.0
C379 C 0.76405 0.37108 0.88498 0.0
C380 C 0.81581 0.36758 0.80405 0.0
C381 C 0.80363 0.42339 0.78665 0.0
N382 N 0.75317 0.5018 0.79869 0.0
N383 N 0.79518 0.28021 0.86761 0.0
C384 C 0.77092 0.45262 0.81803 0.0
C385 C 0.79209 0.33887 0.85231 0.0
N386 N 0.73154 0.46134 0.9013 0.0
N387 N 0.85292 0.3441 0.7749 0.0
H388 H 0.7819 0.26069 0.90354 0.0
H389 H 0.80671 0.24861 0.84419 0.0
H390 H 0.86924 0.36347 0.73931 0.0
H391 H 0.87182 0.30892 0.7868 0.0
H392 H 0.73119 0.50844 0.89454 0.0
H393 H 0.71641 0.44305 0.93728 0.0
H394 H 0.72291 0.5216 0.81698 0.0
H395 H 0.76381 0.51928 0.76201 0.0
C396 C 0.4185 0.80489 0.20176 0.0
C397 C 0.38955 0.73899 0.22637 0.0
C398 C 0.40598 0.68165 0.15109 0.0
C399 C 0.42854 0.74567 0.12508 0.0
N400 N 0.44064 0.862 0.12145 0.0
N401 N 0.34672 0.61151 0.2236 0.0
C402 C 0.43052 0.80562 0.14936 0.0
C403 C 0.38076 0.67632 0.20071 0.0
N404 N 0.43766 0.86789 0.22932 0.0
N405 N 0.41146 0.62732 0.12888 0.0
H406 H 0.32962 0.60732 0.26019 0.0
H407 H 0.33065 0.56112 0.20536 0.0
H408 H 0.42918 0.63007 0.0926 0.0
H409 H 0.40396 0.58236 0.14749 0.0
H410 H 0.47052 0.92024 0.2158 0.0
H411 H 0.42898 0.86919 0.26763 0.0
H412 H 0.43281 0.90297 0.13496 0.0
H413 H 0.44838 0.86338 0.08278 0.0
C414 C 1.08184 1.00248 0.02304 0.0
C415 C 1.03602 1.01902 0.05218 0.0
C416 C 1.02312 0.09269 0.98753 0.0
C417 C 1.07361 0.07985 0.95978 0.0
N418 N 0.12055 0.99973 0.94002 0.0
N419 N 0.94138 0.05915 0.05794 0.0
C420 C 0.09415 1.0279 0.97416 0.0
C421 C 0.9994 0.05758 0.03299 0.0
N422 N 0.11406 0.96296 0.04258 0.0
N423 N 0.99986 0.13939 0.97075 0.0
H424 H 0.92548 1.0353 0.09243 0.0
H425 H 0.90486 0.07929 0.04289 0.0
H426 H 1.01355 0.1627 0.93598 0.0
H427 H 0.97006 0.15694 0.99179 0.0
H428 H 0.1585 0.95823 0.02637 0.0
H429 H 0.09909 0.93747 0.07657 0.0
H430 H 0.12652 0.95538 0.94666 0.0
H431 H 0.12706 1.0143 0.90251 0.0
C432 C 0.7747 0.39544 0.32652 0.0
C433 C 0.79919 0.44892 0.29087 0.0
C434 C 0.76549 0.52087 0.34281 0.0
C435 C 0.74754 0.47026 0.38036 0.0
N436 N 0.74609 0.36557 0.4122 0.0
N437 N 0.82068 0.56225 0.26261 0.0
C438 C 0.7546 0.40896 0.37321 0.0
C439 C 0.79508 0.51169 0.29817 0.0
N440 N 0.76745 0.33014 0.31461 0.0
N441 N 0.75384 0.57701 0.35035 0.0
H442 H 0.84037 0.55472 0.22918 0.0
H443 H 0.82524 0.61231 0.26666 0.0
H444 H 0.73318 0.58439 0.38344 0.0
H445 H 0.7608 0.61404 0.32343 0.0
H446 H 0.7401 0.28494 0.33647 0.0
H447 H 0.78217 0.31837 0.28046 0.0
H448 H 0.7676 0.33039 0.41297 0.0
H449 H 0.72384 0.36844 0.44566 0.0
C450 C 0.47657 0.75056 0.64896 0.0
C451 C 0.48999 0.82001 0.63892 0.0
C452 C 0.40549 0.81179 0.70343 0.0
C453 C 0.39426 0.74361 0.71476 0.0
N454 N 0.43347 0.65533 0.70733 0.0
N455 N 0.48481 0.92461 0.66133 0.0
C456 C 0.43387 0.71482 0.69011 0.0
C457 C 0.46021 0.8533 0.66812 0.0
N458 N 0.50069 0.71728 0.6173 0.0
N459 N 0.36267 0.83558 0.72634 0.0
H460 H 0.52764 0.95546 0.63629 0.0
H461 H 0.46999 0.95499 0.68339 0.0
H462 H 0.32156 0.80486 0.7523 0.0
H463 H 0.36264 0.88217 0.71701 0.0
H464 H 0.4824 0.66216 0.61842 0.0
H465 H 0.53503 0.74352 0.58769 0.0
H466 H 0.47012 0.63774 0.69466 0.0
H467 H 0.40156 0.62663 0.73708 0.0
loop_
_geom_bond_atom_site_label_1
_geom_bond_atom_site_label_2
_geom_bond_distance
_geom_bond_site_symmetry_2
_ccdc_geom_bond_type
Co0 N4 2.148 . S
Co0 N10 2.128 . S
Co0 N20 2.194 1_445 S
Co0 O25 2.351 1_455 S
Co0 O26 2.155 . S
Co0 O27 2.096 . S
C1 N4 1.301 . S
C1 N5 1.328 . S
C1 H6 0.930 1_455 S
C2 C3 1.333 . S
C2 N4 1.317 . S
C2 H7 0.930 . S
C3 C2 1.333 . S
C3 N5 1.350 . S
C3 H29 0.931 . S
N4 Co0 2.148 . S
N4 C1 1.301 . S
N4 C2 1.317 . S
N5 C1 1.328 . S
N5 C3 1.350 . S
H6 C1 0.930 1_655 S
H7 C2 0.930 . S
C8 O9 1.224 . S
C8 O27 1.247 . S
O9 C8 1.224 . S
N10 Co0 2.128 . S
N10 C11 1.355 1_445 S
N10 C13 1.311 . S
C11 N10 1.355 1_665 S
C11 C12 1.363 . S
C11 H23 0.929 . S
C12 C11 1.363 . S
C12 N14 1.375 1_665 S
C12 H30 0.931 . S
C13 N10 1.311 . S
C13 N14 1.347 . S
C13 H24 0.929 . S
N14 C12 1.375 1_445 S
N14 C13 1.347 . S
C15 C18 1.365 . S
C15 N20 1.328 . S
C15 H21 0.929 . S
C16 C17 1.362 . S
C16 C19 1.378 1_655 S
C16 H31 0.929 . S
C17 C16 1.362 . S
C17 C18 1.366 . S
C18 C15 1.365 . S
C18 C17 1.366 . S
C18 H32 0.930 . S
C19 C16 1.378 1_455 S
C19 N20 1.315 1_455 S
C19 H22 0.930 . S
N20 Co0 2.194 1_665 S
N20 C15 1.328 . S
N20 C19 1.315 1_655 S
H21 C15 0.929 . S
H22 C19 0.930 . S
H23 C11 0.929 . S
H24 C13 0.929 . S
O25 Co0 2.351 1_655 S
O25 C28 1.244 . S
O26 Co0 2.155 . S
O26 C28 1.240 1_455 S
O27 Co0 2.096 . S
O27 C8 1.247 . S
C28 O25 1.244 . S
C28 O26 1.240 1_655 S
H29 C3 0.931 . S
H30 C12 0.931 . S
H31 C16 0.929 . S
H32 C18 0.930 . S
Co33 N37 2.148 . S
Co33 N43 2.128 1_655 S
Co33 N53 2.194 1_645 S
Co33 O58 2.351 1_655 S
Co33 O59 2.155 1_655 S
Co33 O60 2.096 1_545 S
C34 N37 1.301 1_455 S
C34 N38 1.328 1_455 S
C34 H39 0.930 . S
C35 C36 1.333 . S
C35 N37 1.317 1_565 S
C35 H40 0.930 . S
C36 C35 1.333 . S
C36 N38 1.350 1_565 S
C36 H62 0.931 . S
N37 Co33 2.148 . S
N37 C34 1.301 1_655 S
N37 C35 1.317 1_545 S
N38 C34 1.328 1_655 S
N38 C36 1.350 1_545 S
H39 C34 0.930 . S
H40 C35 0.930 . S
C41 O42 1.224 . S
C41 O60 1.247 . S
O42 C41 1.224 . S
N43 Co33 2.128 1_455 S
N43 C44 1.355 . S
N43 C46 1.311 1_455 S
C44 N43 1.355 . S
C44 C45 1.363 . S
C44 H56 0.929 . S
C45 C44 1.363 . S
C45 N47 1.375 . S
C45 H63 0.931 . S
C46 N43 1.311 1_655 S
C46 N47 1.347 1_655 S
C46 H57 0.929 1_545 S
N47 C45 1.375 . S
N47 C46 1.347 1_455 S
C48 C51 1.365 1_545 S
C48 N53 1.328 1_545 S
C48 H54 0.929 . S
C49 C50 1.362 . S
C49 C52 1.378 . S
C49 H64 0.929 . S
C50 C49 1.362 . S
C50 C51 1.366 . S
C51 C48 1.365 1_565 S
C51 C50 1.366 . S
C51 H65 0.930 . S
C52 C49 1.378 . S
C52 N53 1.315 . S
C52 H55 0.930 1_455 S
N53 Co33 2.194 1_465 S
N53 C48 1.328 1_565 S
N53 C52 1.315 . S
H54 C48 0.929 . S
H55 C52 0.930 1_655 S
H56 C44 0.929 . S
H57 C46 0.929 1_565 S
O58 Co33 2.351 1_455 S
O58 C61 1.244 . S
O59 Co33 2.155 1_455 S
O59 C61 1.240 . S
O60 Co33 2.096 1_565 S
O60 C41 1.247 . S
C61 O58 1.244 . S
C61 O59 1.240 . S
H62 C36 0.931 . S
H63 C45 0.931 . S
H64 C49 0.929 . S
H65 C51 0.930 . S
Co66 N70 2.148 . S
Co66 N76 2.128 . S
Co66 N86 2.194 . S
Co66 O91 2.351 . S
Co66 O92 2.155 . S
Co66 O93 2.096 . S
C67 N70 1.301 . S
C67 N71 1.328 . S
C67 H72 0.930 . S
C68 C69 1.333 . S
C68 N70 1.317 . S
C68 H73 0.930 . S
C69 C68 1.333 . S
C69 N71 1.350 . S
C69 H95 0.931 . S
N70 Co66 2.148 . S
N70 C67 1.301 . S
N70 C68 1.317 . S
N71 C67 1.328 . S
N71 C69 1.350 . S
H72 C67 0.930 . S
H73 C68 0.930 . S
C74 O75 1.224 . S
C74 O93 1.247 . S
O75 C74 1.224 . S
N76 Co66 2.128 . S
N76 C77 1.355 . S
N76 C79 1.311 . S
C77 N76 1.355 . S
C77 C78 1.363 . S
C77 H89 0.929 . S
C78 C77 1.363 . S
C78 N80 1.375 . S
C78 H96 0.931 . S
C79 N76 1.311 . S
C79 N80 1.347 . S
C79 H90 0.929 . S
N80 C78 1.375 . S
N80 C79 1.347 . S
C81 C84 1.365 . S
C81 N86 1.328 . S
C81 H87 0.929 . S
C82 C83 1.362 . S
C82 C85 1.378 . S
C82 H97 0.929 . S
C83 C82 1.362 . S
C83 C84 1.366 . S
C84 C81 1.365 . S
C84 C83 1.366 . S
C84 H98 0.930 . S
C85 C82 1.378 . S
C85 N86 1.315 . S
C85 H88 0.930 . S
N86 Co66 2.194 . S
N86 C81 1.328 . S
N86 C85 1.315 . S
H87 C81 0.929 . S
H88 C85 0.930 . S
H89 C77 0.929 . S
H90 C79 0.929 . S
O91 Co66 2.351 . S
O91 C94 1.244 . S
O92 Co66 2.155 . S
O92 C94 1.240 . S
O93 Co66 2.096 . S
O93 C74 1.247 . S
C94 O91 1.244 . S
C94 O92 1.240 . S
H95 C69 0.931 . S
H96 C78 0.931 . S
H97 C82 0.929 . S
H98 C84 0.930 . S
Co99 N103 2.148 . S
Co99 N109 2.128 . S
Co99 N119 2.194 . S
Co99 O124 2.351 . S
Co99 O125 2.155 . S
Co99 O126 2.096 . S
C100 N103 1.301 . S
C100 N104 1.328 1_554 S
C100 H105 0.930 . S
C101 C102 1.333 1_554 S
C101 N103 1.317 . S
C101 H106 0.930 . S
C102 C101 1.333 1_556 S
C102 N104 1.350 . S
C102 H128 0.931 . S
N103 Co99 2.148 . S
N103 C100 1.301 . S
N103 C101 1.317 . S
N104 C100 1.328 1_556 S
N104 C102 1.350 . S
H105 C100 0.930 . S
H106 C101 0.930 . S
C107 O108 1.224 . S
C107 O126 1.247 . S
O108 C107 1.224 . S
N109 Co99 2.128 . S
N109 C110 1.355 . S
N109 C112 1.311 . S
C110 N109 1.355 . S
C110 C111 1.363 . S
C110 H122 0.929 . S
C111 C110 1.363 . S
C111 N113 1.375 . S
C111 H129 0.931 . S
C112 N109 1.311 . S
C112 N113 1.347 . S
C112 H123 0.929 . S
N113 C111 1.375 . S
N113 C112 1.347 . S
C114 C117 1.365 . S
C114 N119 1.328 . S
C114 H120 0.929 . S
C115 C116 1.362 . S
C115 C118 1.378 . S
C115 H130 0.929 . S
C116 C115 1.362 . S
C116 C117 1.366 . S
C117 C114 1.365 . S
C117 C116 1.366 . S
C117 H131 0.930 . S
C118 C115 1.378 . S
C118 N119 1.315 . S
C118 H121 0.930 . S
N119 Co99 2.194 . S
N119 C114 1.328 . S
N119 C118 1.315 . S
H120 C114 0.929 . S
H121 C118 0.930 . S
H122 C110 0.929 . S
H123 C112 0.929 . S
O124 Co99 2.351 . S
O124 C127 1.244 . S
O125 Co99 2.155 . S
O125 C127 1.240 . S
O126 Co99 2.096 . S
O126 C107 1.247 . S
C127 O124 1.244 . S
C127 O125 1.240 . S
H128 C102 0.931 . S
H129 C111 0.931 . S
H130 C115 0.929 . S
H131 C117 0.930 . S
Co132 N136 2.148 . S
Co132 N142 2.128 . S
Co132 N152 2.194 . S
Co132 O157 2.351 . S
Co132 O158 2.155 . S
Co132 O159 2.096 . S
C133 N136 1.301 . S
C133 N137 1.328 1_556 S
C133 H138 0.930 . S
C134 C135 1.333 1_556 S
C134 N136 1.317 . S
C134 H139 0.930 . S
C135 C134 1.333 1_554 S
C135 N137 1.350 . S
C135 H161 0.931 . S
N136 Co132 2.148 . S
N136 C133 1.301 . S
N136 C134 1.317 . S
N137 C133 1.328 1_554 S
N137 C135 1.350 . S
H138 C133 0.930 . S
H139 C134 0.930 . S
C140 O141 1.224 . S
C140 O159 1.247 . S
O141 C140 1.224 . S
N142 Co132 2.128 . S
N142 C143 1.355 . S
N142 C145 1.311 . S
C143 N142 1.355 . S
C143 C144 1.363 . S
C143 H155 0.929 . S
C144 C143 1.363 . S
C144 N146 1.375 . S
C144 H162 0.931 . S
C145 N142 1.311 . S
C145 N146 1.347 . S
C145 H156 0.929 . S
N146 C144 1.375 . S
N146 C145 1.347 . S
C147 C150 1.365 . S
C147 N152 1.328 . S
C147 H153 0.929 . S
C148 C149 1.362 . S
C148 C151 1.378 . S
C148 H163 0.929 . S
C149 C148 1.362 . S
C149 C150 1.366 . S
C150 C147 1.365 . S
C150 C149 1.366 . S
C150 H164 0.930 . S
C151 C148 1.378 . S
C151 N152 1.315 . S
C151 H154 0.930 . S
N152 Co132 2.194 . S
N152 C147 1.328 . S
N152 C151 1.315 . S
H153 C147 0.929 . S
H154 C151 0.930 . S
H155 C143 0.929 . S
H156 C145 0.929 . S
O157 Co132 2.351 . S
O157 C160 1.244 . S
O158 Co132 2.155 . S
O158 C160 1.240 . S
O159 Co132 2.096 . S
O159 C140 1.247 . S
C160 O157 1.244 . S
C160 O158 1.240 . S
H161 C135 0.931 . S
H162 C144 0.931 . S
H163 C148 0.929 . S
H164 C150 0.930 . S
Co165 N169 2.148 . S
Co165 N175 2.128 . S
Co165 N185 2.194 . S
Co165 O190 2.351 . S
Co165 O191 2.155 . S
Co165 O192 2.096 . S
C166 N169 1.301 . S
C166 N170 1.328 . S
C166 H171 0.930 . S
C167 C168 1.333 . S
C167 N169 1.317 . S
C167 H172 0.930 . S
C168 C167 1.333 . S
C168 N170 1.350 . S
C168 H194 0.931 . S
N169 Co165 2.148 . S
N169 C166 1.301 . S
N169 C167 1.317 . S
N170 C166 1.328 . S
N170 C168 1.350 . S
H171 C166 0.930 . S
H172 C167 0.930 . S
C173 O174 1.224 . S
C173 O192 1.247 . S
O174 C173 1.224 . S
N175 Co165 2.128 . S
N175 C176 1.355 . S
N175 C178 1.311 . S
C176 N175 1.355 . S
C176 C177 1.363 . S
C176 H188 0.929 . S
C177 C176 1.363 . S
C177 N179 1.375 . S
C177 H195 0.931 . S
C178 N175 1.311 . S
C178 N179 1.347 . S
C178 H189 0.929 . S
N179 C177 1.375 . S
N179 C178 1.347 . S
C180 C183 1.365 . S
C180 N185 1.328 . S
C180 H186 0.929 . S
C181 C182 1.362 . S
C181 C184 1.378 . S
C181 H196 0.929 . S
C182 C181 1.362 . S
C182 C183 1.366 . S
C183 C180 1.365 . S
C183 C182 1.366 . S
C183 H197 0.930 . S
C184 C181 1.378 . S
C184 N185 1.315 . S
C184 H187 0.930 . S
N185 Co165 2.194 . S
N185 C180 1.328 . S
N185 C184 1.315 . S
H186 C180 0.929 . S
H187 C184 0.930 . S
H188 C176 0.929 . S
H189 C178 0.929 . S
O190 Co165 2.351 . S
O190 C193 1.244 . S
O191 Co165 2.155 . S
O191 C193 1.240 . S
O192 Co165 2.096 . S
O192 C173 1.247 . S
C193 O190 1.244 . S
C193 O191 1.240 . S
H194 C168 0.931 . S
H195 C177 0.931 . S
H196 C181 0.929 . S
H197 C183 0.930 . S
C198 C199 1.363 . S
C198 C204 1.379 . S
C198 N206 1.356 . S
C199 C198 1.363 . S
C199 C205 1.363 . S
C200 C201 1.363 . S
C200 C205 1.379 . S
C200 N207 1.356 . S
C201 C200 1.363 . S
C201 C204 1.363 . S
N202 C204 1.356 . S
N202 H214 0.984 . S
N202 H215 0.985 . S
N203 C205 1.356 . S
N203 H208 0.984 . S
N203 H209 0.985 . S
C204 C198 1.379 . S
C204 C201 1.363 . S
C204 N202 1.356 . S
C205 C199 1.363 . S
C205 C200 1.379 . S
C205 N203 1.356 . S
N206 C198 1.356 . S
N206 H212 0.984 . S
N206 H213 0.984 . S
N207 C200 1.356 . S
N207 H210 0.984 . S
N207 H211 0.985 . S
H208 N203 0.984 . S
H209 N203 0.985 . S
H210 N207 0.984 . S
H211 N207 0.985 . S
H212 N206 0.984 . S
H213 N206 0.984 . S
H214 N202 0.984 . S
H215 N202 0.985 . S
C216 C217 1.363 . S
C216 C222 1.379 . S
C216 N224 1.356 . S
C217 C216 1.363 . S
C217 C223 1.363 . S
C218 C219 1.363 . S
C218 C223 1.379 . S
C218 N225 1.356 . S
C219 C218 1.363 . S
C219 C222 1.363 . S
N220 C222 1.356 . S
N220 H232 0.984 . S
N220 H233 0.985 . S
N221 C223 1.356 . S
N221 H226 0.984 . S
N221 H227 0.985 1_655 S
C222 C216 1.379 . S
C222 C219 1.363 . S
C222 N220 1.356 . S
C223 C217 1.363 . S
C223 C218 1.379 . S
C223 N221 1.356 . S
N224 C216 1.356 . S
N224 H230 0.984 . S
N224 H231 0.984 . S
N225 C218 1.356 . S
N225 H228 0.984 . S
N225 H229 0.985 . S
H226 N221 0.984 . S
H227 N221 0.985 1_455 S
H228 N225 0.984 . S
H229 N225 0.985 . S
H230 N224 0.984 . S
H231 N224 0.984 . S
H232 N220 0.984 . S
H233 N220 0.985 . S
C234 C235 1.363 . S
C234 C240 1.379 . S
C234 N242 1.356 . S
C235 C234 1.363 . S
C235 C241 1.363 . S
C236 C237 1.363 . S
C236 C241 1.379 . S
C236 N243 1.356 . S
C237 C236 1.363 . S
C237 C240 1.363 . S
N238 C240 1.356 . S
N238 H250 0.984 . S
N238 H251 0.985 . S
N239 C241 1.356 . S
N239 H244 0.984 . S
N239 H245 0.985 . S
C240 C234 1.379 . S
C240 C237 1.363 . S
C240 N238 1.356 . S
C241 C235 1.363 . S
C241 C236 1.379 . S
C241 N239 1.356 . S
N242 C234 1.356 . S
N242 H248 0.984 . S
N242 H249 0.984 . S
N243 C236 1.356 . S
N243 H246 0.984 . S
N243 H247 0.985 1_655 S
H244 N239 0.984 . S
H245 N239 0.985 . S
H246 N243 0.984 . S
H247 N243 0.985 1_455 S
H248 N242 0.984 . S
H249 N242 0.984 . S
H250 N238 0.984 . S
H251 N238 0.985 . S
C252 C253 1.363 . S
C252 C258 1.379 . S
C252 N260 1.356 . S
C253 C252 1.363 . S
C253 C259 1.363 . S
C254 C255 1.363 . S
C254 C259 1.379 . S
C254 N261 1.356 . S
C255 C254 1.363 . S
C255 C258 1.363 . S
N256 C258 1.356 . S
N256 H268 0.984 . S
N256 H269 0.985 . S
N257 C259 1.356 . S
N257 H262 0.984 . S
N257 H263 0.985 . S
C258 C252 1.379 . S
C258 C255 1.363 . S
C258 N256 1.356 . S
C259 C253 1.363 . S
C259 C254 1.379 . S
C259 N257 1.356 . S
N260 C252 1.356 . S
N260 H266 0.984 . S
N260 H267 0.984 . S
N261 C254 1.356 . S
N261 H264 0.984 . S
N261 H265 0.985 . S
H262 N257 0.984 . S
H263 N257 0.985 . S
H264 N261 0.984 . S
H265 N261 0.985 . S
H266 N260 0.984 . S
H267 N260 0.984 . S
H268 N256 0.984 . S
H269 N256 0.985 . S
C270 C271 1.363 . S
C270 C276 1.379 . S
C270 N278 1.356 . S
C271 C270 1.363 . S
C271 C277 1.363 . S
C272 C273 1.363 . S
C272 C277 1.379 . S
C272 N279 1.356 . S
C273 C272 1.363 . S
C273 C276 1.363 . S
N274 C276 1.356 . S
N274 H286 0.984 . S
N274 H287 0.985 . S
N275 C277 1.356 . S
N275 H280 0.984 . S
N275 H281 0.985 . S
C276 C270 1.379 . S
C276 C273 1.363 . S
C276 N274 1.356 . S
C277 C271 1.363 . S
C277 C272 1.379 . S
C277 N275 1.356 . S
N278 C270 1.356 . S
N278 H284 0.984 . S
N278 H285 0.984 . S
N279 C272 1.356 . S
N279 H282 0.984 . S
N279 H283 0.985 1_565 S
H280 N275 0.984 . S
H281 N275 0.985 . S
H282 N279 0.984 . S
H283 N279 0.985 1_545 S
H284 N278 0.984 . S
H285 N278 0.984 . S
H286 N274 0.984 . S
H287 N274 0.985 . S
C288 C289 1.363 . S
C288 C294 1.379 . S
C288 N296 1.356 . S
C289 C288 1.363 . S
C289 C295 1.363 . S
C290 C291 1.363 . S
C290 C295 1.379 . S
C290 N297 1.356 . S
C291 C290 1.363 . S
C291 C294 1.363 . S
N292 C294 1.356 . S
N292 H304 0.984 . S
N292 H305 0.985 . S
N293 C295 1.356 . S
N293 H298 0.984 . S
N293 H299 0.985 . S
C294 C288 1.379 . S
C294 C291 1.363 . S
C294 N292 1.356 . S
C295 C289 1.363 . S
C295 C290 1.379 . S
C295 N293 1.356 . S
N296 C288 1.356 . S
N296 H302 0.984 . S
N296 H303 0.984 . S
N297 C290 1.356 . S
N297 H300 0.984 . S
N297 H301 0.985 . S
H298 N293 0.984 . S
H299 N293 0.985 . S
H300 N297 0.984 . S
H301 N297 0.985 . S
H302 N296 0.984 . S
H303 N296 0.984 . S
H304 N292 0.984 . S
H305 N292 0.985 . S
C306 C307 1.363 1_455 S
C306 C312 1.379 . S
C306 N314 1.356 . S
C307 C306 1.363 1_655 S
C307 C313 1.363 . S
C308 C309 1.367 . S
C308 C313 1.374 1_455 S
C308 N315 1.358 . S
C309 C308 1.367 . S
C309 C312 1.363 . S
N310 C312 1.356 . S
N310 H322 0.984 . S
N310 H323 0.985 . S
N311 C313 1.356 . S
N311 H316 0.984 . S
N311 H317 0.985 . S
C312 C306 1.379 . S
C312 C309 1.363 . S
C312 N310 1.356 . S
C313 C307 1.363 . S
C313 C308 1.374 1_655 S
C313 N311 1.356 . S
N314 C306 1.356 . S
N314 H320 0.984 . S
N314 H321 0.984 1_455 S
N315 C308 1.358 . S
N315 H318 0.984 . S
N315 H319 0.985 1_455 S
H316 N311 0.984 . S
H317 N311 0.985 . S
H318 N315 0.984 . S
H319 N315 0.985 1_655 S
H320 N314 0.984 . S
H321 N314 0.984 1_655 S
H322 N310 0.984 . S
H323 N310 0.985 . S
C324 C325 1.363 . S
C324 C330 1.379 . S
C324 N332 1.356 . S
C325 C324 1.363 . S
C325 C331 1.363 . S
C326 C327 1.363 . S
C326 C331 1.379 . S
C326 N333 1.356 . S
C327 C326 1.363 . S
C327 C330 1.363 . S
N328 C330 1.356 . S
N328 H340 0.984 . S
N328 H341 0.985 . S
N329 C331 1.356 . S
N329 H334 0.984 . S
N329 H335 0.985 . S
C330 C324 1.379 . S
C330 C327 1.363 . S
C330 N328 1.356 . S
C331 C325 1.363 . S
C331 C326 1.379 . S
C331 N329 1.356 . S
N332 C324 1.356 . S
N332 H338 0.984 . S
N332 H339 0.984 . S
N333 C326 1.356 . S
N333 H336 0.984 . S
N333 H337 0.985 . S
H334 N329 0.984 . S
H335 N329 0.985 . S
H336 N333 0.984 . S
H337 N333 0.985 . S
H338 N332 0.984 . S
H339 N332 0.984 . S
H340 N328 0.984 . S
H341 N328 0.985 . S
C342 C343 1.363 . S
C342 C348 1.379 . S
C342 N350 1.356 . S
C343 C342 1.363 . S
C343 C349 1.363 . S
C344 C345 1.363 . S
C344 C349 1.379 1_545 S
C344 N351 1.356 . S
C345 C344 1.363 . S
C345 C348 1.363 1_545 S
N346 C348 1.350 1_545 S
N346 H358 0.981 1_545 S
N346 H359 0.995 . S
N347 C349 1.356 . S
N347 H352 0.984 . S
N347 H353 0.985 . S
C348 C342 1.379 . S
C348 C345 1.363 1_565 S
C348 N346 1.350 1_565 S
C349 C343 1.363 . S
C349 C344 1.379 1_565 S
C349 N347 1.356 . S
N350 C342 1.356 . S
N350 H356 0.984 . S
N350 H357 0.984 . S
N351 C344 1.356 . S
N351 H354 0.984 . S
N351 H355 0.985 . S
H352 N347 0.984 . S
H353 N347 0.985 . S
H354 N351 0.984 . S
H355 N351 0.985 . S
H356 N350 0.984 . S
H357 N350 0.984 . S
H358 N346 0.981 1_565 S
H359 N346 0.995 . S
C360 C361 1.363 1_465 S
C360 C366 1.379 . S
C360 N368 1.356 . S
C361 C360 1.363 1_645 S
C361 C367 1.363 . S
C362 C363 1.363 . S
C362 C367 1.379 1_455 S
C362 N369 1.356 . S
C363 C362 1.363 . S
C363 C366 1.363 1_545 S
N364 C366 1.356 . S
N364 H376 0.984 . S
N364 H377 0.985 . S
N365 C367 1.356 . S
N365 H370 0.984 . S
N365 H371 0.985 . S
C366 C360 1.379 . S
C366 C363 1.363 1_565 S
C366 N364 1.356 . S
C367 C361 1.363 . S
C367 C362 1.379 1_655 S
C367 N365 1.356 . S
N368 C360 1.356 . S
N368 H374 0.984 . S
N368 H375 0.984 . S
N369 C362 1.356 . S
N369 H372 0.984 . S
N369 H373 0.985 1_455 S
H370 N365 0.984 . S
H371 N365 0.985 . S
H372 N369 0.984 . S
H373 N369 0.985 1_655 S
H374 N368 0.984 . S
H375 N368 0.984 . S
H376 N364 0.984 . S
H377 N364 0.985 . S
C378 C379 1.363 . S
C378 C384 1.379 . S
C378 N386 1.356 . S
C379 C378 1.363 . S
C379 C385 1.363 . S
C380 C381 1.363 . S
C380 C385 1.379 . S
C380 N387 1.356 . S
C381 C380 1.363 . S
C381 C384 1.363 . S
N382 C384 1.356 . S
N382 H394 0.984 . S
N382 H395 0.985 . S
N383 C385 1.356 . S
N383 H388 0.984 . S
N383 H389 0.985 . S
C384 C378 1.379 . S
C384 C381 1.363 . S
C384 N382 1.356 . S
C385 C379 1.363 . S
C385 C380 1.379 . S
C385 N383 1.356 . S
N386 C378 1.356 . S
N386 H392 0.984 . S
N386 H393 0.984 . S
N387 C380 1.356 . S
N387 H390 0.984 . S
N387 H391 0.985 . S
H388 N383 0.984 . S
H389 N383 0.985 . S
H390 N387 0.984 . S
H391 N387 0.985 . S
H392 N386 0.984 . S
H393 N386 0.984 . S
H394 N382 0.984 . S
H395 N382 0.985 . S
C396 C397 1.363 . S
C396 C402 1.379 . S
C396 N404 1.356 . S
C397 C396 1.363 . S
C397 C403 1.363 . S
C398 C399 1.363 . S
C398 C403 1.379 . S
C398 N405 1.356 . S
C399 C398 1.363 . S
C399 C402 1.363 . S
N400 C402 1.356 . S
N400 H412 0.984 . S
N400 H413 0.985 . S
N401 C403 1.356 . S
N401 H406 0.984 . S
N401 H407 0.985 . S
C402 C396 1.379 . S
C402 C399 1.363 . S
C402 N400 1.356 . S
C403 C397 1.363 . S
C403 C398 1.379 . S
C403 N401 1.356 . S
N404 C396 1.356 . S
N404 H410 0.984 . S
N404 H411 0.984 . S
N405 C398 1.356 . S
N405 H408 0.984 . S
N405 H409 0.985 . S
H406 N401 0.984 . S
H407 N401 0.985 . S
H408 N405 0.984 . S
H409 N405 0.985 . S
H410 N404 0.984 . S
H411 N404 0.984 . S
H412 N400 0.984 . S
H413 N400 0.985 . S
C414 C415 1.363 1_565 S
C414 C420 1.379 1_454 S
C414 N422 1.356 . S
C415 C414 1.363 1_545 S
C415 C421 1.363 . S
C416 C417 1.346 1_545 S
C416 C421 1.379 1_656 S
C416 N423 1.356 . S
C417 C416 1.346 1_565 S
C417 C420 1.380 . S
N418 C420 1.356 . S
N418 H430 0.984 . S
N418 H431 0.985 . S
N419 C421 1.356 . S
N419 H424 0.984 . S
N419 H425 0.985 . S
C420 C414 1.379 1_656 S
C420 C417 1.380 . S
C420 N418 1.356 . S
C421 C415 1.363 . S
C421 C416 1.379 1_454 S
C421 N419 1.356 . S
N422 C414 1.356 . S
N422 H428 0.984 . S
N422 H429 0.984 . S
N423 C416 1.356 . S
N423 H426 0.984 . S
N423 H427 0.985 . S
H424 N419 0.984 . S
H425 N419 0.985 . S
H426 N423 0.984 . S
H427 N423 0.985 . S
H428 N422 0.984 . S
H429 N422 0.984 . S
H430 N418 0.984 . S
H431 N418 0.985 . S
C432 C433 1.363 . S
C432 C438 1.379 . S
C432 N440 1.356 . S
C433 C432 1.363 . S
C433 C439 1.363 . S
C434 C435 1.363 . S
C434 C439 1.379 . S
C434 N441 1.356 . S
C435 C434 1.363 . S
C435 C438 1.363 . S
N436 C438 1.356 . S
N436 H448 0.984 . S
N436 H449 0.985 . S
N437 C439 1.356 . S
N437 H442 0.984 . S
N437 H443 0.985 . S
C438 C432 1.379 . S
C438 C435 1.363 . S
C438 N436 1.356 . S
C439 C433 1.363 . S
C439 C434 1.379 . S
C439 N437 1.356 . S
N440 C432 1.356 . S
N440 H446 0.984 . S
N440 H447 0.984 . S
N441 C434 1.356 . S
N441 H444 0.984 . S
N441 H445 0.985 . S
H442 N437 0.984 . S
H443 N437 0.985 . S
H444 N441 0.984 . S
H445 N441 0.985 . S
H446 N440 0.984 . S
H447 N440 0.984 . S
H448 N436 0.984 . S
H449 N436 0.985 . S
C450 C451 1.363 . S
C450 C456 1.379 . S
C450 N458 1.356 . S
C451 C450 1.363 . S
C451 C457 1.363 . S
C452 C453 1.363 . S
C452 C457 1.379 . S
C452 N459 1.356 . S
C453 C452 1.363 . S
C453 C456 1.363 . S
N454 C456 1.356 . S
N454 H466 0.984 . S
N454 H467 0.985 . S
N455 C457 1.356 . S
N455 H460 0.984 . S
N455 H461 0.985 . S
C456 C450 1.379 . S
C456 C453 1.363 . S
C456 N454 1.356 . S
C457 C451 1.363 . S
C457 C452 1.379 . S
C457 N455 1.356 . S
N458 C450 1.356 . S
N458 H464 0.984 . S
N458 H465 0.984 . S
N459 C452 1.356 . S
N459 H462 0.984 . S
N459 H463 0.985 . S
H460 N455 0.984 . S
H461 N455 0.985 . S
H462 N459 0.984 . S
H463 N459 0.985 . S
H464 N458 0.984 . S
H465 N458 0.984 . S
H466 N454 0.984 . S
H467 N454 0.985 . S
C199 C8 1.891 . S
C201 C107 1.891 . S
C217 C28 1.604 . S
C219 C116 1.661 . S
C235 C127 1.604 . S
C237 C17 1.661 . S
C253 C61 1.604 . S
C255 C149 1.661 . S
C271 C140 1.891 . S
C273 C41 1.891 . S
C289 C50 1.661 . S
C291 C160 1.604 . S
C307 C74 1.891 . S
C309 C173 1.891 . S
C325 C94 1.604 . S
C327 C182 1.661 . S
C343 C193 1.604 . S
C345 C83 1.661 . S
C361 N38 2.075 . S
C363 N5 2.075 . S
C379 N104 2.075 . S
C381 N71 2.075 . S
C397 N170 2.075 . S
C399 N137 2.075 . S
C415 N14 0.612 . S
C417 N47 0.612 1_665 S
C433 N113 0.612 . S
C435 N80 0.612 . S
C451 N179 0.612 . S
C453 N146 0.612 . S
