# Generated by pormake.
# Topology ukf, (4)-cn, num edge types: 1
# Building blocks:
#     Node 0, Type 0, BuildingBlock: ICAMEG_clean_sbu_1, # of connection points: 4
#     Node 1, Type 0, BuildingBlock: ICAMEG_clean_sbu_1, # of connection points: 4
#     Node 2, Type 0, BuildingBlock: ICAMEG_clean_sbu_1, # of connection points: 4
#     Node 3, Type 0, BuildingBlock: ICAMEG_clean_sbu_1, # of connection points: 4
#     Node 4, Type 0, BuildingBlock: ICAMEG_clean_sbu_1, # of connection points: 4
#     Node 5, Type 0, BuildingBlock: ICAMEG_clean_sbu_1, # of connection points: 4
#     Node 6, Type 0, BuildingBlock: ICAMEG_clean_sbu_1, # of connection points: 4
#     Node 7, Type 0, BuildingBlock: ICAMEG_clean_sbu_1, # of connection points: 4
#     Node 8, Type 0, BuildingBlock: ICAMEG_clean_sbu_1, # of connection points: 4
#     Node 9, Type 0, BuildingBlock: ICAMEG_clean_sbu_1, # of connection points: 4
#     Node 10, Type 0, BuildingBlock: ICAMEG_clean_sbu_1, # of connection points: 4
#     Node 11, Type 0, BuildingBlock: ICAMEG_clean_sbu_1, # of connection points: 4
#     Edge 12, Type (0, 0), BuildingBlock: ZUJKAS_clean_linker_0, # of connection points: 2
#     Edge 13, Type (0, 0), BuildingBlock: ZUJKAS_clean_linker_0, # of connection points: 2
#     Edge 14, Type (0, 0), BuildingBlock: ZUJKAS_clean_linker_0, # of connection points: 2
#     Edge 15, Type (0, 0), BuildingBlock: ZUJKAS_clean_linker_0, # of connection points: 2
#     Edge 16, Type (0, 0), BuildingBlock: ZUJKAS_clean_linker_0, # of connection points: 2
#     Edge 17, Type (0, 0), BuildingBlock: ZUJKAS_clean_linker_0, # of connection points: 2
#     Edge 18, Type (0, 0), BuildingBlock: ZUJKAS_clean_linker_0, # of connection points: 2
#     Edge 19, Type (0, 0), BuildingBlock: ZUJKAS_clean_linker_0, # of connection points: 2
#     Edge 20, Type (0, 0), BuildingBlock: ZUJKAS_clean_linker_0, # of connection points: 2
#     Edge 21, Type (0, 0), BuildingBlock: ZUJKAS_clean_linker_0, # of connection points: 2
#     Edge 22, Type (0, 0), BuildingBlock: ZUJKAS_clean_linker_0, # of connection points: 2
#     Edge 23, Type (0, 0), BuildingBlock: ZUJKAS_clean_linker_0, # of connection points: 2
#     Edge 24, Type (0, 0), BuildingBlock: ZUJKAS_clean_linker_0, # of connection points: 2
#     Edge 25, Type (0, 0), BuildingBlock: ZUJKAS_clean_linker_0, # of connection points: 2
#     Edge 26, Type (0, 0), BuildingBlock: ZUJKAS_clean_linker_0, # of connection points: 2
#     Edge 27, Type (0, 0), BuildingBlock: ZUJKAS_clean_linker_0, # of connection points: 2
#     Edge 28, Type (0, 0), BuildingBlock: ZUJKAS_clean_linker_0, # of connection points: 2
#     Edge 29, Type (0, 0), BuildingBlock: ZUJKAS_clean_linker_0, # of connection points: 2
#     Edge 30, Type (0, 0), BuildingBlock: ZUJKAS_clean_linker_0, # of connection points: 2
#     Edge 31, Type (0, 0), BuildingBlock: ZUJKAS_clean_linker_0, # of connection points: 2
#     Edge 32, Type (0, 0), BuildingBlock: ZUJKAS_clean_linker_0, # of connection points: 2
#     Edge 33, Type (0, 0), BuildingBlock: ZUJKAS_clean_linker_0, # of connection points: 2
#     Edge 34, Type (0, 0), BuildingBlock: ZUJKAS_clean_linker_0, # of connection points: 2
#     Edge 35, Type (0, 0), BuildingBlock: ZUJKAS_clean_linker_0, # of connection points: 2
# Relax obj value: 0.105
# Max RMSD: 0.104
# Mean RMSD: 0.104
data_MOF--net-ukf--node1-ICAMEG_clean_sbu_1--edge1-ZUJKAS_clean_linker_0
_symmetry_space_group_name_H-M    P1
_symmetry_Int_Tables_number       1
_symmetry_cell_setting            triclinic
loop_
_symmetry_equiv_pos_as_xyz
'x, y, z'
_cell_length_a     43.203555
_cell_length_b     43.214686
_cell_length_c     90.802143
_cell_angle_alpha  89.995088
_cell_angle_beta   89.922439
_cell_angle_gamma 119.99875
loop_
_atom_site_label
_atom_site_type_symbol
_atom_site_fract_x
_atom_site_fract_y
_atom_site_fract_z
_atom_type_partial_charge
Co0 Co 0.41561 0.24779 0.04683 0.0
Co1 Co 0.44726 0.21152 0.07273 0.0
O2 O 0.42691 0.24152 0.06717 0.0
C3 C 0.46415 0.32252 0.05663 0.0
O4 O 0.48589 0.31207 0.0617 0.0
C5 C 0.38607 0.19028 0.09387 0.0
O6 O 0.36842 0.19764 0.08406 0.0
O7 O 0.4101 0.17034 0.06118 0.0
O8 O 0.39571 0.19569 0.04275 0.0
H9 H 0.49245 0.12652 0.06302 0.0
H10 H 0.3904 0.27461 0.07147 0.0
O11 O 0.43498 0.30013 0.05044 0.0
H12 H 0.28122 0.1869 0.04554 0.0
H13 H 0.37101 0.29798 0.0075 0.0
H14 H 0.42237 0.22077 0.0177 0.0
H15 H 0.34064 0.20016 0.03675 0.0
H16 H 0.38491 0.28913 0.03296 0.0
O17 O 0.41652 0.19407 0.09081 0.0
H18 H 0.467 0.16452 0.05636 0.0
H19 H 0.47096 0.195 0.1011 0.0
H20 H 0.4086 0.22864 0.99209 0.0
H21 H 0.33156 0.26266 0.08051 0.0
H22 H 0.38273 0.26749 0.98686 0.0
H23 H 0.27642 0.21838 0.06756 0.0
O24 O 0.46361 0.25806 0.0396 0.0
H25 H 0.49134 0.31457 0.108 0.0
H26 H 0.52675 0.24691 0.07505 0.0
H27 H 0.57313 0.29893 0.08857 0.0
H28 H 0.55552 0.33313 0.10521 0.0
H29 H 0.44588 0.26261 0.09416 0.0
H30 H 0.49618 0.15709 0.10825 0.0
H31 H 0.50721 0.12261 0.08913 0.0
O32 O 0.47907 0.22793 0.05522 0.0
C33 C 0.3941 0.16854 0.04911 0.0
C34 C 0.48782 0.14145 0.07145 0.0
C35 C 0.48986 0.15857 0.09684 0.0
N36 N 0.46756 0.18203 0.07831 0.0
C37 C 0.47346 0.16306 0.06774 0.0
C38 C 0.47546 0.1799 0.09272 0.0
C39 C 0.49606 0.13925 0.0861 0.0
C40 C 0.36655 0.25554 0.0657 0.0
N41 N 0.36894 0.23794 0.05364 0.0
C42 C 0.3333 0.24877 0.07091 0.0
C43 C 0.30237 0.22388 0.06365 0.0
C44 C 0.30504 0.20616 0.05131 0.0
C45 C 0.33874 0.21359 0.04644 0.0
C46 C 0.38223 0.28094 0.00964 0.0
C47 C 0.41092 0.23755 0.01552 0.0
C48 C 0.39024 0.2759 0.02403 0.0
N49 N 0.40424 0.25428 0.02682 0.0
C50 C 0.40327 0.24198 1.00099 0.0
C51 C 0.3888 0.26382 0.99806 0.0
C52 C 0.48427 0.24648 0.04363 0.0
C53 C 0.49935 0.29983 0.10081 0.0
C54 C 0.51887 0.26172 0.08222 0.0
C55 C 0.54525 0.2911 0.08988 0.0
C56 C 0.53535 0.31026 0.09923 0.0
N57 N 0.4836 0.25161 0.08385 0.0
C58 C 0.4737 0.27027 0.09299 0.0
Co59 Co 0.17019 0.41395 0.37859 0.0
Co60 Co 0.23122 0.43478 0.40639 0.0
O61 O 0.18273 0.41879 0.39945 0.0
C62 C 0.14146 0.45847 0.39041 0.0
O63 O 0.17222 0.47775 0.39708 0.0
C64 C 0.21843 0.37951 0.42886 0.0
O65 O 0.24134 0.37345 0.42171 0.0
O66 O 0.23279 0.39649 0.39467 0.0
O67 O 0.20366 0.39568 0.37408 0.0
H68 H 0.35953 0.46642 0.40102 0.0
H69 H 0.1131 0.38021 0.40109 0.0
O70 O 0.13612 0.43184 0.38255 0.0
H71 H 0.09895 0.28139 0.36933 0.0
H72 H 0.0856 0.38277 0.33583 0.0
H73 H 0.21118 0.43083 0.35068 0.0
H74 H 0.14637 0.34331 0.36433 0.0
H75 H 0.10191 0.38801 0.36211 0.0
O76 O 0.21002 0.40181 0.42373 0.0
H77 H 0.29848 0.44726 0.39237 0.0
H78 H 0.2668 0.4553 0.43585 0.0
H79 H 0.19603 0.42577 0.32428 0.0
H80 H 0.06505 0.3187 0.40642 0.0
H81 H 0.13283 0.40159 0.31671 0.0
H82 H 0.05779 0.26878 0.39049 0.0
O83 O 0.20904 0.46377 0.37471 0.0
H84 H 0.17504 0.48422 0.44061 0.0
H85 H 0.28006 0.5135 0.40964 0.0
H86 H 0.27736 0.56155 0.42316 0.0
H87 H 0.22462 0.54704 0.43882 0.0
H88 H 0.17855 0.43703 0.42674 0.0
H89 H 0.3275 0.4745 0.44498 0.0
H90 H 0.37437 0.48019 0.4275 0.0
O91 O 0.25294 0.46847 0.38938 0.0
C92 C 0.22387 0.38738 0.38128 0.0
C93 C 0.33935 0.46407 0.40874 0.0
C94 C 0.32138 0.4686 0.43341 0.0
N95 N 0.27911 0.4502 0.41358 0.0
C96 C 0.30473 0.45324 0.4039 0.0
C97 C 0.28706 0.45772 0.42818 0.0
C98 C 0.34765 0.47178 0.4236 0.0
C99 C 0.10996 0.35864 0.39406 0.0
N100 N 0.13242 0.36536 0.38239 0.0
C101 C 0.08277 0.32386 0.39716 0.0
C102 C 0.07873 0.29586 0.38822 0.0
C103 C 0.10184 0.30292 0.37636 0.0
C104 C 0.12872 0.33802 0.3736 0.0
C105 C 0.11322 0.39329 0.33899 0.0
C106 C 0.1836 0.42009 0.34747 0.0
C107 C 0.12263 0.3964 0.35385 0.0
N108 N 0.15743 0.40947 0.35791 0.0
C109 C 0.17519 0.41737 0.3325 0.0
C110 C 0.13973 0.40384 0.32826 0.0
C111 C 0.24156 0.4798 0.3789 0.0
C112 C 0.19824 0.49086 0.43388 0.0
C113 C 0.25692 0.50694 0.41637 0.0
C114 C 0.25561 0.53428 0.42404 0.0
C115 C 0.22603 0.52611 0.43284 0.0
N116 N 0.22957 0.47239 0.41746 0.0
C117 C 0.20048 0.46421 0.42606 0.0
Co118 Co 0.7646 0.17117 0.712 0.0
Co119 Co 0.80636 0.23689 0.73794 0.0
O120 O 0.77323 0.18699 0.73258 0.0
C121 C 0.69129 0.1418 0.72417 0.0
O122 O 0.70207 0.17284 0.7305 0.0
C123 C 0.82358 0.19403 0.7589 0.0
O124 O 0.81908 0.17145 0.74833 0.0
O125 O 0.84561 0.23606 0.72671 0.0
O126 O 0.81593 0.20512 0.70668 0.0
H127 H 0.90185 0.36374 0.72805 0.0
H128 H 0.74277 0.11668 0.73552 0.0
O129 O 0.71307 0.13658 0.71657 0.0
H130 H 0.82954 0.10252 0.70512 0.0
H131 H 0.71128 0.08009 0.67138 0.0
H132 H 0.78595 0.20811 0.68314 0.0
H133 H 0.8131 0.14793 0.69881 0.0
H134 H 0.72334 0.1003 0.69721 0.0
O135 O 0.82033 0.22119 0.7563 0.0
H136 H 0.85924 0.30116 0.72154 0.0
H137 H 0.82479 0.27817 0.76605 0.0
H138 H 0.77482 0.18904 0.65716 0.0
H139 H 0.75809 0.07057 0.74212 0.0
H140 H 0.73724 0.1246 0.65114 0.0
H141 H 0.80187 0.06336 0.72689 0.0
O142 O 0.75181 0.20829 0.70713 0.0
H143 H 0.70292 0.18828 0.77328 0.0
H144 H 0.7772 0.28664 0.73912 0.0
H145 H 0.7275 0.28705 0.75231 0.0
H146 H 0.69 0.23766 0.76957 0.0
H147 H 0.7526 0.18867 0.75972 0.0
H148 H 0.8672 0.34046 0.77307 0.0
H149 H 0.90603 0.38377 0.75399 0.0
O150 O 0.79316 0.25475 0.72005 0.0
C151 C 0.84496 0.22605 0.71343 0.0
C152 C 0.88502 0.34515 0.73646 0.0
C153 C 0.8656 0.33207 0.76173 0.0
N154 N 0.8394 0.28606 0.74338 0.0
C155 C 0.86078 0.30969 0.73284 0.0
C156 C 0.84169 0.29681 0.75769 0.0
C157 C 0.88737 0.35636 0.75102 0.0
C158 C 0.76158 0.11346 0.72876 0.0
N159 N 0.77699 0.13495 0.7168 0.0
C160 C 0.77026 0.08741 0.73259 0.0
C161 C 0.79488 0.08343 0.72405 0.0
C162 C 0.81045 0.10542 0.71185 0.0
C163 C 0.80115 0.1312 0.70837 0.0
C164 C 0.72775 0.10823 0.67386 0.0
C165 C 0.76973 0.18001 0.68061 0.0
C166 C 0.73461 0.11985 0.68846 0.0
N167 N 0.75554 0.15534 0.69167 0.0
C168 C 0.76345 0.16938 0.66588 0.0
C169 C 0.74233 0.13322 0.66251 0.0
C170 C 0.76889 0.24149 0.71022 0.0
C171 C 0.71914 0.21001 0.76583 0.0
C172 C 0.76092 0.26495 0.74656 0.0
C173 C 0.73287 0.26539 0.75403 0.0
C174 C 0.71187 0.23769 0.76372 0.0
N175 N 0.76791 0.23771 0.74869 0.0
C176 C 0.74743 0.21047 0.75818 0.0
Co177 Co 0.59702 0.76503 0.04498 0.0
Co178 Co 0.57041 0.80703 0.0697 0.0
O179 O 0.58781 0.77393 0.06525 0.0
C180 C 0.5516 0.69116 0.05651 0.0
O181 O 0.52892 0.70077 0.06127 0.0
C182 C 0.6278 0.82431 0.09215 0.0
O183 O 0.64671 0.81834 0.08244 0.0
O184 O 0.61163 0.84611 0.05894 0.0
O185 O 0.61448 0.81615 0.0393 0.0
H186 H 0.5399 0.90214 0.0576 0.0
H187 H 0.62791 0.74407 0.06951 0.0
O188 O 0.58024 0.71378 0.05001 0.0
H189 H 0.73116 0.83066 0.04008 0.0
H190 H 0.63916 0.71146 0.00606 0.0
H191 H 0.5839 0.78554 0.01549 0.0
H192 H 0.66979 0.81369 0.0327 0.0
H193 H 0.62841 0.72388 0.03149 0.0
O194 O 0.59801 0.82145 0.08858 0.0
H195 H 0.56067 0.85956 0.05224 0.0
H196 H 0.54446 0.82578 0.09691 0.0
H197 H 0.59446 0.77405 0.98988 0.0
H198 H 0.68882 0.75988 0.07717 0.0
H199 H 0.62228 0.73675 0.98504 0.0
H200 H 0.74098 0.80358 0.06244 0.0
O201 O 0.54742 0.75175 0.03917 0.0
H202 H 0.51179 0.70345 0.1048 0.0
H203 H 0.49146 0.77799 0.0694 0.0
H204 H 0.43996 0.72821 0.08191 0.0
H205 H 0.44996 0.69057 0.09978 0.0
H206 H 0.56252 0.75325 0.0919 0.0
H207 H 0.52373 0.86817 0.10277 0.0
H208 H 0.52123 0.90664 0.08303 0.0
O209 O 0.54137 0.79358 0.05126 0.0
C210 C 0.62208 0.84527 0.04586 0.0
C211 C 0.54078 0.88546 0.06629 0.0
C212 C 0.53175 0.86643 0.09165 0.0
N213 N 0.55361 0.84005 0.07422 0.0
C214 C 0.55246 0.86124 0.06332 0.0
C215 C 0.5436 0.84253 0.08827 0.0
C216 C 0.53034 0.88799 0.08056 0.0
C217 C 0.65045 0.76284 0.06296 0.0
N218 N 0.64528 0.77794 0.05068 0.0
C219 C 0.68489 0.77181 0.06739 0.0
C220 C 0.71414 0.79638 0.05913 0.0
C221 C 0.70865 0.81162 0.0466 0.0
C222 C 0.67383 0.80204 0.04251 0.0
C223 C 0.62707 0.72779 0.00803 0.0
C224 C 0.59619 0.76944 0.01347 0.0
C225 C 0.62084 0.73485 0.0224 0.0
N226 N 0.60576 0.75561 0.02497 0.0
C227 C 0.60202 0.76296 0.99895 0.0
C228 C 0.6176 0.742 0.99624 0.0
C229 C 0.53108 0.76895 0.04162 0.0
C230 C 0.50709 0.71972 0.09707 0.0
C231 C 0.49605 0.76168 0.07712 0.0
C232 C 0.46677 0.73357 0.0842 0.0
C233 C 0.47241 0.71248 0.09423 0.0
N234 N 0.53002 0.76865 0.07997 0.0
C235 C 0.53573 0.74807 0.08978 0.0
Co236 Co 0.83436 0.59311 0.37983 0.0
Co237 Co 0.7672 0.56833 0.4053 0.0
O238 O 0.81736 0.58509 0.40029 0.0
C239 C 0.86212 0.54781 0.3919 0.0
O240 O 0.83063 0.52745 0.39791 0.0
C241 C 0.8093 0.62727 0.42693 0.0
O242 O 0.83389 0.64499 0.41694 0.0
O243 O 0.76875 0.60876 0.39417 0.0
O244 O 0.80126 0.61135 0.37443 0.0
H245 H 0.64095 0.53751 0.39444 0.0
H246 H 0.88776 0.62401 0.4038 0.0
O247 O 0.86813 0.57533 0.38452 0.0
H248 H 0.90495 0.72694 0.37407 0.0
H249 H 0.92767 0.63185 0.33997 0.0
H250 H 0.79914 0.57944 0.35068 0.0
H251 H 0.85917 0.66566 0.36722 0.0
H252 H 0.90599 0.62261 0.36563 0.0
O253 O 0.7818 0.59752 0.42378 0.0
H254 H 0.70385 0.55753 0.38841 0.0
H255 H 0.72443 0.54484 0.43309 0.0
H256 H 0.81969 0.5885 0.32486 0.0
H257 H 0.93425 0.68482 0.41093 0.0
H258 H 0.88439 0.61487 0.31938 0.0
H259 H 0.94297 0.73682 0.39604 0.0
O260 O 0.79712 0.54363 0.37443 0.0
H261 H 0.8139 0.51243 0.44092 0.0
H262 H 0.71721 0.48942 0.4061 0.0
H263 H 0.71604 0.43893 0.41924 0.0
H264 H 0.76459 0.45029 0.43683 0.0
H265 H 0.81428 0.56211 0.4274 0.0
H266 H 0.6618 0.52491 0.43961 0.0
H267 H 0.61954 0.52102 0.4202 0.0
O268 O 0.75019 0.53774 0.38728 0.0
C269 C 0.77995 0.61912 0.38108 0.0
C270 C 0.65907 0.539 0.40299 0.0
C271 C 0.67079 0.53197 0.42835 0.0
N272 N 0.71776 0.55215 0.41036 0.0
C273 C 0.69472 0.55025 0.39964 0.0
C274 C 0.70625 0.54335 0.42459 0.0
C275 C 0.64709 0.52978 0.41745 0.0
C276 C 0.89164 0.64648 0.39719 0.0
N277 N 0.87076 0.64128 0.38511 0.0
C278 C 0.91789 0.68086 0.40132 0.0
C279 C 0.92273 0.71003 0.39297 0.0
C280 C 0.90137 0.70451 0.38065 0.0
C281 C 0.87536 0.66975 0.37687 0.0
C282 C 0.89942 0.62039 0.34222 0.0
C283 C 0.82735 0.59112 0.34838 0.0
C284 C 0.88698 0.61502 0.35673 0.0
N285 N 0.85136 0.60073 0.35965 0.0
C286 C 0.83882 0.5961 0.33374 0.0
C287 C 0.87512 0.61087 0.33067 0.0
C288 C 0.76382 0.52728 0.37738 0.0
C289 C 0.79253 0.50715 0.43332 0.0
C290 C 0.73853 0.4946 0.41368 0.0
C291 C 0.73766 0.46589 0.42113 0.0
C292 C 0.76489 0.47229 0.431 0.0
N293 N 0.76573 0.52874 0.41602 0.0
C294 C 0.79251 0.5352 0.42569 0.0
Co295 Co 0.24751 0.83486 0.71401 0.0
Co296 Co 0.21119 0.76792 0.74049 0.0
O297 O 0.24077 0.81812 0.73451 0.0
C298 C 0.32161 0.86146 0.72475 0.0
O299 O 0.31018 0.83052 0.73129 0.0
C300 C 0.1885 0.80863 0.76056 0.0
O301 O 0.19749 0.83386 0.75068 0.0
O302 O 0.1704 0.76217 0.72811 0.0
O303 O 0.19542 0.80287 0.70996 0.0
H304 H 0.12912 0.6368 0.73161 0.0
H305 H 0.2746 0.88807 0.73816 0.0
O306 O 0.29998 0.86753 0.71749 0.0
H307 H 0.1877 0.90923 0.71135 0.0
H308 H 0.29873 0.92763 0.67385 0.0
H309 H 0.22046 0.79976 0.68511 0.0
H310 H 0.20045 0.86226 0.70324 0.0
H311 H 0.28953 0.90614 0.69952 0.0
O312 O 0.19176 0.7815 0.75785 0.0
H313 H 0.16659 0.70004 0.72449 0.0
H314 H 0.19315 0.7293 0.76932 0.0
H315 H 0.22866 0.82016 0.65929 0.0
H316 H 0.26316 0.93576 0.74652 0.0
H317 H 0.26806 0.88452 0.65353 0.0
H318 H 0.21928 0.94646 0.73312 0.0
O319 O 0.25755 0.79667 0.70734 0.0
H320 H 0.3114 0.83086 0.77679 0.0
H321 H 0.24758 0.72527 0.74482 0.0
H322 H 0.29898 0.73289 0.75942 0.0
H323 H 0.33125 0.78599 0.77558 0.0
H324 H 0.26015 0.82238 0.76185 0.0
H325 H 0.15573 0.66642 0.77693 0.0
H326 H 0.12349 0.61964 0.75801 0.0
O327 O 0.22968 0.75226 0.72373 0.0
C328 C 0.16848 0.77665 0.71612 0.0
C329 C 0.14309 0.65693 0.73996 0.0
C330 C 0.15798 0.67356 0.76539 0.0
N331 N 0.18214 0.71834 0.74646 0.0
C332 C 0.1644 0.69277 0.73599 0.0
C333 C 0.17904 0.70915 0.76102 0.0
C334 C 0.13991 0.64733 0.75477 0.0
C335 C 0.25571 0.89278 0.7322 0.0
N336 N 0.23806 0.87227 0.72027 0.0
C337 C 0.24923 0.91972 0.73702 0.0
C338 C 0.22457 0.92567 0.72951 0.0
C339 C 0.20679 0.90475 0.71731 0.0
C340 C 0.21392 0.87802 0.71282 0.0
C341 C 0.28146 0.89953 0.67622 0.0
C342 C 0.23746 0.82785 0.6827 0.0
C343 C 0.27621 0.88719 0.69074 0.0
N344 N 0.2543 0.85176 0.69382 0.0
C345 C 0.24209 0.83922 0.66806 0.0
C346 C 0.26422 0.87533 0.66483 0.0
C347 C 0.24766 0.7652 0.71197 0.0
C348 C 0.2975 0.80756 0.76982 0.0
C349 C 0.26158 0.74852 0.75174 0.0
C350 C 0.2906 0.75264 0.76004 0.0
C351 C 0.30867 0.78241 0.76912 0.0
N352 N 0.25078 0.77329 0.75248 0.0
C353 C 0.26834 0.80252 0.76138 0.0
Co354 Co 0.76615 0.59414 0.63001 0.0
Co355 Co 0.80604 0.56587 0.60458 0.0
O356 O 0.7742 0.58448 0.60965 0.0
C357 C 0.69251 0.54826 0.61853 0.0
O358 O 0.70335 0.5275 0.61271 0.0
C359 C 0.82522 0.6255 0.58297 0.0
O360 O 0.81856 0.64356 0.59285 0.0
O361 O 0.84606 0.60508 0.61577 0.0
O362 O 0.81776 0.61261 0.63504 0.0
H363 H 0.89682 0.52857 0.61528 0.0
H364 H 0.7428 0.62295 0.60551 0.0
O365 O 0.71435 0.57613 0.62564 0.0
H366 H 0.82966 0.72839 0.63368 0.0
H367 H 0.71366 0.63651 0.66932 0.0
H368 H 0.78927 0.5832 0.65932 0.0
H369 H 0.81424 0.66772 0.64153 0.0
H370 H 0.72474 0.62492 0.6438 0.0
O371 O 0.82188 0.5953 0.58614 0.0
H372 H 0.85627 0.5514 0.6214 0.0
H373 H 0.82375 0.54136 0.5767 0.0
H374 H 0.77916 0.59465 0.68499 0.0
H375 H 0.75698 0.6831 0.59739 0.0
H376 H 0.74109 0.62149 0.69012 0.0
H377 H 0.80084 0.73637 0.61147 0.0
O378 O 0.75392 0.54505 0.63628 0.0
H379 H 0.70327 0.5142 0.56901 0.0
H380 H 0.77373 0.48653 0.60376 0.0
H381 H 0.72307 0.43744 0.59063 0.0
H382 H 0.68749 0.45114 0.57308 0.0
H383 H 0.7539 0.56246 0.5825 0.0
H384 H 0.86415 0.51866 0.57007 0.0
H385 H 0.90096 0.51201 0.58945 0.0
O386 O 0.79129 0.53525 0.62254 0.0
C387 C 0.84615 0.61762 0.62852 0.0
C388 C 0.88087 0.53127 0.60674 0.0
C389 C 0.86257 0.52576 0.58137 0.0
N390 N 0.83754 0.54758 0.59944 0.0
C391 C 0.8578 0.54412 0.61015 0.0
C392 C 0.8398 0.53872 0.58518 0.0
C393 C 0.8832 0.52202 0.59225 0.0
C394 C 0.76166 0.64597 0.61178 0.0
N395 N 0.77777 0.64182 0.62396 0.0
C396 C 0.7697 0.67998 0.60709 0.0
C397 C 0.79435 0.70985 0.61498 0.0
C398 C 0.81058 0.7054 0.62742 0.0
C399 C 0.80191 0.67099 0.63177 0.0
C400 C 0.73034 0.62486 0.66722 0.0
C401 C 0.77285 0.59508 0.66146 0.0
C402 C 0.73664 0.61815 0.6528 0.0
N403 N 0.75783 0.60361 0.65007 0.0
C404 C 0.76714 0.60141 0.67602 0.0
C405 C 0.74575 0.61644 0.67889 0.0
C406 C 0.76908 0.52708 0.63309 0.0
C407 C 0.71866 0.5079 0.57658 0.0
C408 C 0.75832 0.49274 0.59618 0.0
C409 C 0.72971 0.46481 0.58875 0.0
C410 C 0.70978 0.47252 0.5789 0.0
N411 N 0.76691 0.52739 0.59384 0.0
C412 C 0.74747 0.53514 0.5842 0.0
Co413 Co 0.17683 0.76671 0.96284 0.0
Co414 Co 0.24456 0.80652 0.93716 0.0
O415 O 0.19421 0.77481 0.94243 0.0
C416 C 0.14918 0.69307 0.95138 0.0
O417 O 0.1806 0.70396 0.94535 0.0
C418 C 0.20368 0.82629 0.91607 0.0
O419 O 0.17966 0.82023 0.92622 0.0
O420 O 0.24597 0.84654 0.94863 0.0
O421 O 0.20976 0.81831 0.96782 0.0
H422 H 0.37315 0.89646 0.94741 0.0
H423 H 0.12452 0.7433 0.93843 0.0
O424 O 0.1432 0.71491 0.95853 0.0
H425 H 0.10521 0.82927 0.96698 0.0
H426 H 0.0827 0.7139 1.00246 0.0
H427 H 0.21139 0.78996 0.99204 0.0
H428 H 0.15079 0.81416 0.97465 0.0
H429 H 0.10491 0.72508 0.97687 0.0
O430 O 0.23052 0.82268 0.91896 0.0
H431 H 0.30987 0.85609 0.95379 0.0
H432 H 0.28596 0.82454 0.90903 0.0
H433 H 0.19029 0.77976 0.01779 0.0
H434 H 0.07821 0.75717 0.93048 0.0
H435 H 0.12552 0.74147 0.02313 0.0
H436 H 0.06844 0.80058 0.94477 0.0
O437 O 0.21394 0.75468 0.96892 0.0
H438 H 0.19194 0.70436 0.90128 0.0
H439 H 0.29127 0.77388 0.93563 0.0
H440 H 0.28903 0.72333 0.92213 0.0
H441 H 0.23914 0.68822 0.90477 0.0
H442 H 0.19496 0.75484 0.91515 0.0
H443 H 0.34893 0.86476 0.90215 0.0
H444 H 0.39305 0.90099 0.92142 0.0
O445 O 0.26078 0.79127 0.95484 0.0
C446 C 0.23333 0.84665 0.96134 0.0
C447 C 0.35419 0.88077 0.93891 0.0
C448 C 0.34059 0.86301 0.91351 0.0
N449 N 0.29424 0.83788 0.93181 0.0
C450 C 0.31833 0.85781 0.94246 0.0
C451 C 0.30494 0.84035 0.91747 0.0
C452 C 0.36533 0.88332 0.92433 0.0
C453 C 0.12021 0.76199 0.94477 0.0
N454 N 0.14046 0.77804 0.95696 0.0
C455 C 0.09404 0.76984 0.94019 0.0
C456 C 0.08862 0.79424 0.94819 0.0
C457 C 0.10929 0.8104 0.96064 0.0
C458 C 0.13523 0.80192 0.96488 0.0
C459 C 0.11098 0.73068 1.00028 0.0
C460 C 0.18313 0.77345 0.99427 0.0
C461 C 0.12372 0.73704 0.98581 0.0
N462 N 0.15939 0.75835 0.98297 0.0
C463 C 0.17136 0.76768 0.00888 0.0
C464 C 0.13502 0.74617 0.01187 0.0
C465 C 0.24689 0.7692 0.96544 0.0
C466 C 0.21388 0.71953 0.90877 0.0
C467 C 0.26939 0.75867 0.92815 0.0
C468 C 0.26832 0.73012 0.9205 0.0
C469 C 0.24034 0.71045 0.91076 0.0
N470 N 0.24336 0.76745 0.92613 0.0
C471 C 0.21583 0.74827 0.9166 0.0
Co472 Co 0.41435 0.17219 0.2972 0.0
Co473 Co 0.43983 0.2397 0.27188 0.0
O474 O 0.42278 0.18943 0.27677 0.0
C475 C 0.45926 0.14387 0.28506 0.0
O476 O 0.47965 0.17519 0.27894 0.0
C477 C 0.38137 0.19823 0.24996 0.0
O478 O 0.36333 0.17331 0.25978 0.0
O479 O 0.39923 0.23814 0.28291 0.0
O480 O 0.39627 0.20546 0.30263 0.0
H481 H 0.47092 0.36589 0.28306 0.0
H482 H 0.38358 0.11915 0.2731 0.0
O483 O 0.43192 0.1382 0.29252 0.0
H484 H 0.28037 0.10224 0.30262 0.0
H485 H 0.37444 0.07841 0.33687 0.0
H486 H 0.42774 0.2071 0.32643 0.0
H487 H 0.34165 0.14762 0.30966 0.0
H488 H 0.38421 0.10037 0.31126 0.0
O489 O 0.41107 0.22556 0.2533 0.0
H490 H 0.45049 0.30284 0.28891 0.0
H491 H 0.46416 0.28293 0.24424 0.0
H492 H 0.41816 0.18626 0.3522 0.0
H493 H 0.32276 0.07306 0.26577 0.0
H494 H 0.39132 0.12148 0.35755 0.0
H495 H 0.27062 0.06448 0.28056 0.0
O496 O 0.46385 0.20917 0.30274 0.0
H497 H 0.49623 0.1934 0.23627 0.0
H498 H 0.51883 0.28942 0.27141 0.0
H499 H 0.56952 0.29063 0.25839 0.0
H500 H 0.55837 0.24242 0.24064 0.0
H501 H 0.44634 0.19295 0.24968 0.0
H502 H 0.48451 0.34572 0.23789 0.0
H503 H 0.48812 0.38771 0.25738 0.0
O504 O 0.46999 0.2563 0.29001 0.0
C505 C 0.38869 0.2269 0.29598 0.0
C506 C 0.46955 0.34788 0.27447 0.0
C507 C 0.47714 0.33654 0.24912 0.0
N508 N 0.45632 0.28925 0.26696 0.0
C509 C 0.45807 0.31215 0.27773 0.0
C510 C 0.46551 0.30099 0.25278 0.0
C511 C 0.47917 0.36009 0.26006 0.0
C512 C 0.36105 0.11533 0.27966 0.0
N513 N 0.36618 0.13607 0.29178 0.0
C514 C 0.32666 0.0893 0.27543 0.0
C515 C 0.29742 0.08454 0.28371 0.0
C516 C 0.30286 0.10576 0.29608 0.0
C517 C 0.33763 0.13154 0.29997 0.0
C518 C 0.3861 0.10669 0.33468 0.0
C519 C 0.41587 0.17885 0.32867 0.0
C520 C 0.39177 0.1193 0.3202 0.0
N521 N 0.40631 0.15497 0.31735 0.0
C522 C 0.41059 0.16722 0.34328 0.0
C523 C 0.39557 0.13087 0.34628 0.0
C524 C 0.48025 0.24253 0.29991 0.0
C525 C 0.50142 0.21461 0.24394 0.0
C526 C 0.51374 0.26823 0.26377 0.0
C527 C 0.54256 0.26913 0.25639 0.0
C528 C 0.53628 0.2421 0.24642 0.0
N529 N 0.4796 0.24119 0.26127 0.0
C530 C 0.47325 0.2146 0.25151 0.0
Co531 Co 0.25005 0.41484 0.6299 0.0
Co532 Co 0.21229 0.44121 0.60247 0.0
O533 O 0.24284 0.42228 0.60913 0.0
C534 C 0.32384 0.46064 0.61849 0.0
O535 O 0.31246 0.47987 0.6117 0.0
C536 C 0.19185 0.3769 0.58328 0.0
O537 O 0.20017 0.36143 0.59374 0.0
O538 O 0.17177 0.40613 0.61505 0.0
O539 O 0.19825 0.39578 0.6342 0.0
H540 H 0.12661 0.48655 0.60981 0.0
H541 H 0.27654 0.38511 0.60688 0.0
O542 O 0.30233 0.43374 0.6262 0.0
H543 H 0.18829 0.28105 0.63545 0.0
H544 H 0.30189 0.37763 0.67132 0.0
H545 H 0.22405 0.4267 0.65842 0.0
H546 H 0.20179 0.34189 0.64202 0.0
H547 H 0.29209 0.38696 0.64533 0.0
O548 O 0.19416 0.40708 0.58546 0.0
H549 H 0.16569 0.46321 0.61767 0.0
H550 H 0.1935 0.45881 0.57313 0.0
H551 H 0.23289 0.41754 0.68454 0.0
H552 H 0.26426 0.32476 0.60007 0.0
H553 H 0.27206 0.39283 0.69113 0.0
H554 H 0.21973 0.27219 0.61436 0.0
O555 O 0.26049 0.46387 0.63532 0.0
H556 H 0.31432 0.47868 0.56696 0.0
H557 H 0.24525 0.51929 0.59627 0.0
H558 H 0.29629 0.56297 0.5814 0.0
H559 H 0.3312 0.5427 0.56657 0.0
H560 H 0.26345 0.4361 0.58218 0.0
H561 H 0.15444 0.48174 0.5648 0.0
H562 H 0.12078 0.49595 0.5832 0.0
O563 O 0.22999 0.47689 0.61879 0.0
C564 C 0.17063 0.39256 0.62769 0.0
C565 C 0.14122 0.48056 0.60169 0.0
C566 C 0.15678 0.4778 0.57642 0.0
N567 N 0.18203 0.45985 0.59589 0.0
C568 C 0.16346 0.46743 0.60607 0.0
C569 C 0.17877 0.4647 0.58121 0.0
C570 C 0.13793 0.48578 0.58676 0.0
C571 C 0.25742 0.36241 0.61326 0.0
N572 N 0.23992 0.36705 0.62484 0.0
C573 C 0.25045 0.32828 0.6093 0.0
C574 C 0.22541 0.29879 0.61731 0.0
C575 C 0.20772 0.30374 0.62912 0.0
C576 C 0.21535 0.33825 0.63275 0.0
C577 C 0.28473 0.38838 0.66858 0.0
C578 C 0.24101 0.4158 0.66119 0.0
C579 C 0.27916 0.39382 0.65389 0.0
N580 N 0.2574 0.40723 0.65036 0.0
C581 C 0.24597 0.41074 0.67601 0.0
C582 C 0.26798 0.3969 0.6797 0.0
C583 C 0.24922 0.48402 0.63031 0.0
C584 C 0.29935 0.48786 0.57338 0.0
C585 C 0.26058 0.51039 0.59002 0.0
C586 C 0.28931 0.53518 0.58152 0.0
C587 C 0.30884 0.52378 0.57319 0.0
N588 N 0.25152 0.47524 0.59022 0.0
C589 C 0.27042 0.46383 0.58199 0.0
Co590 Co 0.83828 0.25072 0.9639 0.0
Co591 Co 0.78104 0.21146 0.93471 0.0
O592 O 0.82845 0.24358 0.94279 0.0
C593 C 0.86761 0.32428 0.95225 0.0
O594 O 0.83785 0.31264 0.94478 0.0
C595 C 0.79601 0.16859 0.91326 0.0
O596 O 0.77178 0.13975 0.92008 0.0
O597 O 0.77704 0.17115 0.94697 0.0
O598 O 0.80504 0.19876 0.96787 0.0
H599 H 0.6517 0.11597 0.93725 0.0
H600 H 0.89821 0.27585 0.94265 0.0
O601 O 0.87212 0.30297 0.96048 0.0
H602 H 0.9102 0.19106 0.97518 0.0
H603 H 0.91717 0.30356 0.00833 0.0
H604 H 0.79394 0.22493 0.99093 0.0
H605 H 0.86147 0.2043 0.97897 0.0
H606 H 0.90424 0.29329 0.98176 0.0
O607 O 0.80448 0.19938 0.9183 0.0
H608 H 0.71152 0.15717 0.94727 0.0
H609 H 0.74997 0.19706 0.90434 0.0
H610 H 0.80571 0.23421 0.0176 0.0
H611 H 0.94759 0.26367 0.93855 0.0
H612 H 0.86771 0.27378 0.02645 0.0
H613 H 0.95377 0.22096 0.95488 0.0
O614 O 0.79835 0.26063 0.96686 0.0
H615 H 0.84398 0.31738 0.90095 0.0
H616 H 0.7336 0.24217 0.9291 0.0
H617 H 0.73931 0.29339 0.91491 0.0
H618 H 0.79478 0.33137 0.90066 0.0
H619 H 0.83738 0.26622 0.91546 0.0
H620 H 0.69058 0.15625 0.89386 0.0
H621 H 0.64094 0.11533 0.91036 0.0
O622 O 0.75714 0.22373 0.95069 0.0
C623 C 0.78509 0.17054 0.96047 0.0
C624 C 0.67311 0.13368 0.92995 0.0
C625 C 0.69493 0.15628 0.90559 0.0
N626 N 0.73422 0.1795 0.92641 0.0
C627 C 0.70704 0.15707 0.93556 0.0
C628 C 0.7285 0.17932 0.9116 0.0
C629 C 0.66709 0.13333 0.91486 0.0
C630 C 0.90086 0.25739 0.94985 0.0
N631 N 0.87706 0.2409 0.96107 0.0
C632 C 0.92881 0.25052 0.94745 0.0
C633 C 0.93224 0.22653 0.95661 0.0
C634 C 0.90779 0.20973 0.968 0.0
C635 C 0.88018 0.21724 0.97006 0.0
C636 C 0.89005 0.28621 0.00461 0.0
C637 C 0.82102 0.24202 0.9947 0.0
C638 C 0.88256 0.28037 0.98958 0.0
N639 N 0.8484 0.25834 0.98481 0.0
C640 C 0.8275 0.24725 0.00981 0.0
C641 C 0.86229 0.26949 0.01477 0.0
C642 C 0.76673 0.2451 0.96162 0.0
C643 C 0.81962 0.30096 0.90706 0.0
C644 C 0.75791 0.25866 0.92301 0.0
C645 C 0.76093 0.28757 0.91494 0.0
C646 C 0.79204 0.30883 0.90694 0.0
N647 N 0.78506 0.25105 0.92308 0.0
C648 C 0.81564 0.27181 0.91524 0.0
Co649 Co 0.59214 0.83454 0.29628 0.0
Co650 Co 0.56649 0.76713 0.27092 0.0
O651 O 0.58305 0.81726 0.27587 0.0
C652 C 0.54597 0.86192 0.2847 0.0
O653 O 0.52572 0.83058 0.2786 0.0
C654 C 0.62411 0.80923 0.24868 0.0
O655 O 0.64195 0.83438 0.25841 0.0
O656 O 0.60774 0.76925 0.28156 0.0
O657 O 0.61118 0.80191 0.30135 0.0
H658 H 0.53752 0.64142 0.28181 0.0
H659 H 0.62116 0.88769 0.27211 0.0
O660 O 0.57362 0.86791 0.29196 0.0
H661 H 0.72627 0.90622 0.30052 0.0
H662 H 0.63254 0.9283 0.33593 0.0
H663 H 0.5806 0.79979 0.3255 0.0
H664 H 0.66559 0.86014 0.30802 0.0
H665 H 0.6219 0.90628 0.31033 0.0
O666 O 0.5947 0.78162 0.25213 0.0
H667 H 0.55731 0.70427 0.28776 0.0
H668 H 0.54172 0.72394 0.24331 0.0
H669 H 0.59108 0.82068 0.35125 0.0
H670 H 0.68135 0.93448 0.26435 0.0
H671 H 0.61722 0.88537 0.3566 0.0
H672 H 0.73445 0.94387 0.27856 0.0
O673 O 0.54315 0.79699 0.30224 0.0
H674 H 0.50778 0.81231 0.23603 0.0
H675 H 0.48765 0.71666 0.271 0.0
H676 H 0.43616 0.71474 0.25845 0.0
H677 H 0.44606 0.76276 0.24079 0.0
H678 H 0.55849 0.81344 0.24896 0.0
H679 H 0.52199 0.66136 0.23686 0.0
H680 H 0.51967 0.61958 0.2562 0.0
O681 O 0.53701 0.75017 0.28927 0.0
C682 C 0.61877 0.78065 0.29456 0.0
C683 C 0.53832 0.65933 0.27329 0.0
C684 C 0.52965 0.67054 0.24807 0.0
N685 N 0.55046 0.71772 0.26592 0.0
C686 C 0.54943 0.69494 0.2766 0.0
C687 C 0.54091 0.70597 0.25178 0.0
C688 C 0.52834 0.64711 0.25892 0.0
C689 C 0.6441 0.89187 0.27844 0.0
N690 N 0.63984 0.87119 0.2905 0.0
C691 C 0.67814 0.91829 0.27395 0.0
C692 C 0.70792 0.9235 0.28192 0.0
C693 C 0.70335 0.90235 0.29422 0.0
C694 C 0.66892 0.87617 0.29837 0.0
C695 C 0.62118 0.90005 0.33374 0.0
C696 C 0.59217 0.828 0.32773 0.0
C697 C 0.61502 0.88742 0.31927 0.0
N698 N 0.60086 0.8518 0.31642 0.0
C699 C 0.59796 0.83966 0.34234 0.0
C700 C 0.6126 0.87596 0.34533 0.0
C701 C 0.5271 0.76363 0.29945 0.0
C702 C 0.50313 0.79116 0.24366 0.0
C703 C 0.4922 0.73775 0.26338 0.0
C704 C 0.46293 0.73646 0.25627 0.0
C705 C 0.46851 0.76339 0.24636 0.0
N706 N 0.5261 0.76508 0.26067 0.0
C707 C 0.53177 0.79156 0.25096 0.0
H708 H 0.20363 0.86196 0.98488 0.0
H709 H 0.22897 0.91676 0.99927 0.0
H710 H 0.32323 0.96277 0.97184 0.0
H711 H 0.29689 0.90877 0.95676 0.0
H712 H 0.28339 0.94589 0.01598 0.0
H713 H 0.30657 0.04445 0.97235 0.0
H714 H 0.28122 0.99701 0.96908 0.0
H715 H 0.32938 0.02037 0.96837 0.0
C716 C 0.22941 0.88397 0.98168 0.0
C717 C 0.24795 0.88097 0.96951 0.0
C718 C 0.24405 0.91533 0.99001 0.0
C719 C 0.27789 0.94438 0.98659 0.0
C720 C 0.29662 0.94138 0.97449 0.0
H721 H 0.40392 0.11071 0.05138 0.0
H722 H 0.37595 0.05622 0.03658 0.0
C723 C 0.28159 0.91026 0.96591 0.0
C724 C 0.29399 0.97692 0.99611 0.0
H725 H 0.33524 0.06806 0.99537 0.0
C726 C 0.29445 0.97258 0.01145 0.0
C727 C 0.30806 0.01188 0.99032 0.0
C728 C 0.30595 0.0187 0.97415 0.0
C729 C 0.30856 1.00195 0.0211 0.0
C730 C 0.32421 0.037 0.01526 0.0
C731 C 0.32363 0.04133 0.99992 0.0
C732 C 0.34066 0.06959 0.02475 0.0
C733 C 0.30543 0.9948 0.03746 0.0
C734 C 0.33106 0.09597 0.02286 0.0
C735 C 0.34782 0.12764 0.031 0.0
C736 C 0.37424 0.13357 0.04145 0.0
C737 C 0.38331 0.10683 0.0436 0.0
C738 C 0.36711 0.07546 0.03518 0.0
H739 H 0.28287 0.96771 0.04006 0.0
H740 H 0.3303 0.99612 0.04148 0.0
H741 H 0.30134 0.01472 0.04358 0.0
H742 H 0.3108 0.09228 0.01492 0.0
H743 H 0.34023 0.14762 0.02899 0.0
H744 H 0.27546 0.37209 0.39058 0.0
H745 H 0.3023 0.34304 0.37646 0.0
H746 H 0.2336 0.32971 0.33974 0.0
H747 H 0.20666 0.35849 0.35363 0.0
H748 H 0.23847 0.26774 0.3467 0.0
H749 H 0.37163 0.39026 0.34106 0.0
H750 H 0.35455 0.37856 0.35952 0.0
H751 H 0.33212 0.39169 0.34645 0.0
C752 C 0.26587 0.36278 0.37954 0.0
C753 C 0.23887 0.36776 0.37327 0.0
C754 C 0.28141 0.34638 0.37145 0.0
C755 C 0.27024 0.33461 0.35698 0.0
C756 C 0.24272 0.33868 0.35086 0.0
H757 H 0.37502 0.28032 0.28797 0.0
H758 H 0.34514 0.30543 0.3026 0.0
C759 C 0.22733 0.3552 0.35886 0.0
C760 C 0.28728 0.31833 0.34806 0.0
H761 H 0.36569 0.33673 0.33141 0.0
C762 C 0.26631 0.28276 0.34339 0.0
C763 C 0.32345 0.33817 0.34357 0.0
C764 C 0.34681 0.37688 0.34778 0.0
C765 C 0.28065 0.26638 0.33449 0.0
C766 C 0.317 0.28601 0.33021 0.0
C767 C 0.33787 0.3217 0.33475 0.0
C768 C 0.33394 0.2699 0.32113 0.0
C769 C 0.25667 0.22836 0.32951 0.0
C770 C 0.33761 0.24164 0.3267 0.0
C771 C 0.3547 0.22726 0.31841 0.0
C772 C 0.36854 0.24083 0.30431 0.0
C773 C 0.3645 0.26899 0.29871 0.0
C774 C 0.34755 0.28349 0.30708 0.0
H775 H 0.22794 0.21994 0.33079 0.0
H776 H 0.26189 0.22502 0.3178 0.0
H777 H 0.26218 0.21026 0.33627 0.0
H778 H 0.32782 0.2311 0.33761 0.0
H779 H 0.35747 0.2058 0.32318 0.0
H780 H 0.91237 0.27815 0.72192 0.0
H781 H 0.96712 0.30528 0.70708 0.0
H782 H 0.90951 0.23586 0.67084 0.0
H783 H 0.85488 0.20841 0.68553 0.0
H784 H 0.97562 0.24102 0.67578 0.0
H785 H 0.98837 0.37525 0.67275 0.0
H786 H 0.98522 0.35839 0.69111 0.0
H787 H 0.94792 0.33608 0.6788 0.0
C788 C 0.91134 0.26844 0.71083 0.0
C789 C 0.87903 0.24107 0.70495 0.0
C790 C 0.94265 0.28422 0.70231 0.0
C791 C 0.94232 0.27303 0.68775 0.0
C792 C 0.9104 0.24509 0.68201 0.0
H793 H 0.10546 0.38491 0.61991 0.0
H794 H 0.04934 0.35482 0.6339 0.0
C795 C 0.87913 0.2294 0.69047 0.0
C796 C 0.97511 0.29026 0.67844 0.0
H797 H 0.03639 0.36984 0.66294 0.0
C798 C 0.98888 0.26918 0.67296 0.0
C799 C 0.99208 0.32688 0.67454 0.0
C800 C 0.97754 0.35049 0.67947 0.0
C801 C 0.01953 0.28384 0.66397 0.0
C802 C 0.03716 0.3207 0.66047 0.0
C803 C 0.02299 0.34164 0.66569 0.0
C804 C 0.07088 0.33817 0.65174 0.0
C805 C 0.03254 0.25963 0.65816 0.0
C806 C 0.10169 0.33903 0.65715 0.0
C807 C 0.13372 0.35615 0.64922 0.0
C808 C 0.13583 0.37297 0.63565 0.0
C809 C 0.10484 0.37204 0.63023 0.0
C810 C 0.07275 0.35496 0.63824 0.0
H811 H 0.01116 0.23111 0.65846 0.0
H812 H 0.04239 0.26679 0.64666 0.0
H813 H 0.05498 0.26258 0.6651 0.0
H814 H 0.10113 0.32691 0.66766 0.0
H815 H 0.15694 0.35647 0.65386 0.0
H816 H 0.6349 0.9123 0.05354 0.0
H817 H 0.66332 0.96671 0.03852 0.0
H818 H 0.68167 0.90955 1.00388 0.0
H819 H 0.65344 0.85516 0.01872 0.0
H820 H 0.74163 0.97812 0.01034 0.0
H821 H 0.61713 0.98342 1.00145 0.0
H822 H 0.6275 0.98014 0.02035 0.0
H823 H 0.6168 0.94377 0.00796 0.0
C824 C 0.64519 0.9113 0.04278 0.0
C825 C 0.64173 0.87918 0.03737 0.0
C826 C 0.6612 0.9424 0.03416 0.0
C827 C 0.67414 0.94205 0.01999 0.0
C828 C 0.6717 0.91039 0.01475 0.0
H829 H 0.73398 0.10377 0.95078 0.0
H830 H 0.70747 0.04732 0.96455 0.0
C831 C 0.65554 0.87928 0.02329 0.0
C832 C 0.69013 0.97457 0.01057 0.0
H833 H 0.67106 0.0327 0.99272 0.0
C834 C 0.72621 0.99003 0.00647 0.0
C835 C 0.66982 0.98974 0.00533 0.0
C836 C 0.63058 0.97334 0.00886 0.0
C837 C 0.74272 0.02076 0.99756 0.0
C838 C 0.72269 0.03656 0.99269 0.0
C839 C 0.6864 0.02063 0.99651 0.0
C840 C 0.73932 0.07042 0.98412 0.0
C841 C 0.78144 0.03599 0.99335 0.0
C842 C 0.76581 0.10211 0.99057 0.0
C843 C 0.78087 0.13432 0.9828 0.0
C844 C 0.76986 0.13567 0.96832 0.0
C845 C 0.74335 0.10376 0.96183 0.0
C846 C 0.72807 0.07148 0.9697 0.0
H847 H 0.79037 0.01611 0.99479 0.0
H848 H 0.78607 0.04528 0.98173 0.0
H849 H 0.79826 0.05929 1.00048 0.0
H850 H 0.77447 0.10205 1.00176 0.0
H851 H 0.80095 0.15824 0.98826 0.0
H852 H 0.65072 0.80191 0.32156 0.0
H853 H 0.68061 0.7766 0.33576 0.0
H854 H 0.66306 0.70262 0.30059 0.0
H855 H 0.63284 0.7277 0.28621 0.0
H856 H 0.64252 0.67071 0.32894 0.0
H857 H 0.78009 0.78755 0.32928 0.0
H858 H 0.746 0.79727 0.33495 0.0
H859 H 0.74643 0.78326 0.31635 0.0
C860 C 0.65352 0.78055 0.3167 0.0
C861 C 0.63943 0.76701 0.30266 0.0
C862 C 0.67078 0.76619 0.32486 0.0
C863 C 0.67443 0.738 0.31918 0.0
C864 C 0.66069 0.72452 0.30515 0.0
H865 H 0.80078 0.64965 0.35378 0.0
H866 H 0.77517 0.6787 0.33919 0.0
C867 C 0.64354 0.73899 0.29692 0.0
C868 C 0.69113 0.72159 0.32821 0.0
H869 H 0.76871 0.73966 0.34542 0.0
C870 C 0.67014 0.68572 0.33251 0.0
C871 C 0.72723 0.74118 0.33277 0.0
C872 C 0.75143 0.77936 0.32801 0.0
C873 C 0.68412 0.66906 0.34144 0.0
C874 C 0.71995 0.68892 0.34632 0.0
C875 C 0.74112 0.72462 0.34182 0.0
C876 C 0.7363 0.67266 0.35564 0.0
C877 C 0.66062 0.63017 0.34538 0.0
C878 C 0.72347 0.66026 0.3699 0.0
C879 C 0.73818 0.64369 0.37837 0.0
C880 C 0.76605 0.6392 0.37271 0.0
C881 C 0.77937 0.65253 0.35854 0.0
C882 C 0.76476 0.66919 0.35014 0.0
H883 H 0.63667 0.6168 0.33819 0.0
H884 H 0.67569 0.61564 0.34452 0.0
H885 H 0.65136 0.62806 0.35694 0.0
H886 H 0.70187 0.66317 0.37445 0.0
H887 H 0.72723 0.63381 0.38922 0.0
H888 H 0.90853 0.61704 0.62336 0.0
H889 H 0.96221 0.64297 0.63865 0.0
H890 H 0.916 0.68903 0.66716 0.0
H891 H 0.8615 0.66132 0.65252 0.0
H892 H 0.01105 0.70625 0.64554 0.0
H893 H 0.9426 0.64095 0.69741 0.0
H894 H 0.91984 0.62958 0.67994 0.0
H895 H 0.92541 0.66787 0.69012 0.0
C896 C 0.90974 0.63267 0.63289 0.0
C897 C 0.88042 0.63674 0.63676 0.0
C898 C 0.94053 0.64752 0.64165 0.0
C899 C 0.94295 0.66719 0.65437 0.0
C900 C 0.91443 0.67285 0.65778 0.0
H901 H 0.14611 0.80991 0.69678 0.0
H902 H 0.09124 0.78342 0.68238 0.0
C903 C 0.88335 0.65735 0.64924 0.0
C904 C 0.97537 0.68207 0.66393 0.0
H905 H 1.00288 0.68875 0.69968 0.0
C906 C 0.0092 0.70216 0.65736 0.0
C907 C 0.97329 0.67619 0.67936 0.0
C908 C 0.93835 0.65213 0.68708 0.0
C909 C 0.04075 0.71703 0.66575 0.0
C910 C 0.03852 0.71311 0.68129 0.0
C911 C 1.00474 0.69239 0.68783 0.0
C912 C 0.07083 0.72988 0.69093 0.0
C913 C 0.07611 0.73589 0.65773 0.0
C914 C 0.07681 0.70932 0.70134 0.0
C915 C 0.10779 0.72479 0.71001 0.0
C916 C 0.13367 0.76108 0.70832 0.0
C917 C 0.12703 0.78182 0.69825 0.0
C918 C 0.09575 0.76655 0.68985 0.0
H919 H 0.07353 0.72608 0.64624 0.0
H920 H 0.08546 0.7649 0.65719 0.0
H921 H 0.09674 0.73213 0.66341 0.0
H922 H 0.05791 0.68105 0.70252 0.0
H923 H 0.11204 0.70801 0.71763 0.0
H924 H 0.77258 0.28281 0.98689 0.0
H925 H 0.72527 0.28866 0.99922 0.0
H926 H 0.65161 0.22752 0.96466 0.0
H927 H 0.69812 0.22087 0.95241 0.0
H928 H 0.67989 0.31593 0.9897 0.0
H929 H 0.60389 0.17065 1.00231 0.0
H930 H 0.64978 0.19293 0.99618 0.0
H931 H 0.61431 0.18118 0.98316 0.0
C932 C 0.74639 0.2708 0.98185 0.0
C933 C 0.73918 0.2511 0.9687 0.0
C934 C 0.71943 0.27428 0.98889 0.0
C935 C 0.68486 0.25813 0.98294 0.0
C936 C 0.67797 0.23972 0.96955 0.0
H937 H 0.5021 0.27597 0.01575 0.0
H938 H 0.55144 0.28204 1.00017 0.0
C939 C 0.70473 0.23606 0.96255 0.0
C940 C 0.6554 0.2587 0.9911 0.0
H941 H 0.57624 0.20417 0.00839 0.0
C942 C 0.65715 0.29155 0.99378 0.0
C943 C 0.62594 0.22682 0.99648 0.0
C944 C 0.62336 0.1909 0.99453 0.0
C945 C 0.63012 0.29331 1.00176 0.0
C946 C 0.60058 0.26138 0.00702 0.0
C947 C 0.5988 0.22859 1.00422 0.0
C948 C 0.57256 0.26115 0.01655 0.0
C949 C 0.6338 0.32928 0.00488 0.0
C950 C 0.56814 0.24747 0.03085 0.0
C951 C 0.54007 0.2437 0.03966 0.0
C952 C 0.51557 0.2536 0.03441 0.0
C953 C 0.52056 0.26829 0.02017 0.0
C954 C 0.5488 0.2719 0.01128 0.0
H955 H 0.66105 0.35159 1.0023 0.0
H956 H 0.61435 0.33255 0.99805 0.0
H957 H 0.62775 0.33122 0.01662 0.0
H958 H 0.58611 0.23897 0.03513 0.0
H959 H 0.53727 0.23224 0.05051 0.0
H960 H 0.31431 0.51446 0.38107 0.0
H961 H 0.35777 0.56829 0.36828 0.0
H962 H 0.27241 0.57518 0.3468 0.0
H963 H 0.22844 0.52029 0.35926 0.0
H964 H 0.32225 0.58573 0.32767 0.0
H965 H 0.38913 0.67074 0.37583 0.0
H966 H 0.38951 0.62958 0.3772 0.0
H967 H 0.34751 0.62907 0.3774 0.0
C968 C 0.30462 0.52746 0.37372 0.0
C969 C 0.26778 0.51303 0.37124 0.0
C970 C 0.3296 0.55856 0.36651 0.0
C971 C 0.31842 0.57642 0.35686 0.0
C972 C 0.28167 0.56208 0.35432 0.0
H973 H 0.48832 0.77951 0.3191 0.0
H974 H 0.43451 0.73701 0.33275 0.0
C975 C 0.25658 0.53066 0.36142 0.0
C976 C 0.34535 0.60856 0.34872 0.0
H977 H 0.42367 0.68723 0.35318 0.0
C978 C 0.34407 0.6082 0.33328 0.0
C979 C 0.37344 0.63842 0.35598 0.0
C980 C 0.37474 0.64217 0.37252 0.0
C981 C 0.37123 0.63568 0.32491 0.0
C982 C 0.40106 0.66375 0.33217 0.0
C983 C 0.40119 0.66537 0.3476 0.0
C984 C 0.43343 0.68991 0.32396 0.0
C985 C 0.36784 0.63406 0.30835 0.0
C986 C 0.45116 0.6776 0.31481 0.0
C987 C 0.48154 0.70162 0.30698 0.0
C988 C 0.49541 0.7387 0.30829 0.0
C989 C 0.47828 0.75115 0.31781 0.0
C990 C 0.44752 0.72691 0.32559 0.0
H991 H 0.33934 0.61952 0.30493 0.0
H992 H 0.38098 0.66119 0.3034 0.0
H993 H 0.38065 0.61932 0.30383 0.0
H994 H 0.44157 0.64926 0.31376 0.0
H995 H 0.4942 0.69096 0.29993 0.0
H996 H 0.71062 0.22563 0.69284 0.0
H997 H 0.69736 0.26808 0.68038 0.0
H998 H 0.79595 0.35582 0.6968 0.0
H999 H 0.80879 0.3141 0.70954 0.0
H1000 H 0.74128 0.3687 0.69988 0.0
H1001 H 0.74352 0.32216 0.64294 0.0
H1002 H 0.71164 0.28901 0.65527 0.0
H1003 H 0.75864 0.30768 0.6586 0.0
C1004 C 0.7295 0.25398 0.69373 0.0
C1005 C 0.76083 0.26642 0.70214 0.0
C1006 C 0.72192 0.27819 0.68658 0.0
C1007 C 0.74584 0.31514 0.68754 0.0
C1008 C 0.77701 0.32746 0.69594 0.0
H1009 H 0.80651 0.49186 0.63335 0.0
H1010 H 0.79362 0.43843 0.64693 0.0
C1011 C 0.78439 0.30347 0.70318 0.0
C1012 C 0.73934 0.34155 0.67973 0.0
H1013 H 0.73608 0.37201 0.64542 0.0
C1014 C 0.73967 0.36924 0.68797 0.0
C1015 C 0.73727 0.34215 0.66419 0.0
C1016 C 0.738 0.31387 0.65468 0.0
C1017 C 0.74011 0.39857 0.6811 0.0
C1018 C 0.73924 0.39974 0.66555 0.0
C1019 C 0.73671 0.37099 0.65734 0.0
C1020 C 0.74598 0.43242 0.65748 0.0
C1021 C 0.74383 0.42905 0.6905 0.0
C1022 C 0.72354 0.44714 0.65893 0.0
C1023 C 0.73117 0.47836 0.65125 0.0
C1024 C 0.76104 0.49493 0.64184 0.0
C1025 C 0.7832 0.47987 0.64043 0.0
C1026 C 0.77581 0.44913 0.64817 0.0
H1027 H 0.75079 0.42685 0.70208 0.0
H1028 H 0.76473 0.45509 0.68598 0.0
H1029 H 0.71812 0.42899 0.69056 0.0
H1030 H 0.70003 0.43436 0.66588 0.0
H1031 H 0.71342 0.48911 0.65247 0.0
H1032 H 0.31942 0.8018 0.96356 0.0
H1033 H 0.35928 0.78688 0.97646 0.0
H1034 H 0.26951 0.70075 0.99893 0.0
H1035 H 0.22886 0.71611 0.98616 0.0
H1036 H 0.32356 0.73927 0.01756 0.0
H1037 H 0.3786 0.70645 0.96916 0.0
H1038 H 0.3826 0.74944 0.96671 0.0
H1039 H 0.33889 0.71024 0.96812 0.0
C1040 C 0.30786 0.77951 0.97117 0.0
C1041 C 0.27076 0.76001 0.97373 0.0
C1042 C 0.3308 0.77077 0.97845 0.0
C1043 C 0.31735 0.74199 0.98832 0.0
C1044 C 0.28041 0.72273 0.99117 0.0
H1045 H 0.4891 0.70953 0.02466 0.0
H1046 H 0.43261 0.69467 0.01239 0.0
C1047 C 0.25726 0.73163 0.98391 0.0
C1048 C 0.34263 0.73413 0.99627 0.0
H1049 H 0.4176 0.72806 0.9907 0.0
C1050 C 0.34362 0.73597 0.0117 0.0
C1051 C 0.3683 0.72881 0.98871 0.0
C1052 C 0.36677 0.7232 0.97227 0.0
C1053 C 0.37139 0.73582 0.01964 0.0
C1054 C 0.39935 0.73478 0.01192 0.0
C1055 C 0.39663 0.72968 0.99662 0.0
C1056 C 0.43324 0.74293 0.01929 0.0
C1057 C 0.37098 0.73784 0.03623 0.0
C1058 C 0.45282 0.7754 0.02679 0.0
C1059 C 0.48476 0.78387 0.03377 0.0
C1060 C 0.49831 0.76029 0.03325 0.0
C1061 C 0.47937 0.72824 0.02528 0.0
C1062 C 0.44705 0.71964 0.01833 0.0
H1063 H 0.34316 0.72512 0.04049 0.0
H1064 H 0.38467 0.72464 0.04139 0.0
H1065 H 0.38485 0.76629 0.03966 0.0
H1066 H 0.44344 0.79441 0.02723 0.0
H1067 H 0.4988 0.80903 0.03962 0.0
H1068 H 0.5154 0.31529 0.29977 0.0
H1069 H 0.56967 0.35629 0.31276 0.0
H1070 H 0.57453 0.26749 0.33191 0.0
H1071 H 0.51913 0.22567 0.31907 0.0
H1072 H 0.58758 0.31832 0.35208 0.0
H1073 H 0.67098 0.38318 0.30323 0.0
H1074 H 0.63015 0.38432 0.30217 0.0
H1075 H 0.6288 0.34194 0.30204 0.0
C1076 C 0.52791 0.30422 0.30667 0.0
C1077 C 0.51292 0.26705 0.30828 0.0
C1078 C 0.55926 0.32784 0.314 0.0
C1079 C 0.57681 0.31502 0.32295 0.0
C1080 C 0.56168 0.27796 0.32487 0.0
H1081 H 0.78063 0.48796 0.35846 0.0
H1082 H 0.73885 0.43221 0.34585 0.0
C1083 C 0.52999 0.25412 0.31757 0.0
C1084 C 0.60978 0.34084 0.33086 0.0
H1085 H 0.68844 0.41872 0.32567 0.0
C1086 C 0.60999 0.33985 0.3463 0.0
C1087 C 0.63954 0.36846 0.32335 0.0
C1088 C 0.64254 0.36929 0.30678 0.0
C1089 C 0.63777 0.36731 0.35442 0.0
C1090 C 0.66553 0.39694 0.34689 0.0
C1091 C 0.66681 0.39642 0.33146 0.0
C1092 C 0.69128 0.43005 0.35474 0.0
C1093 C 0.63664 0.36461 0.371 0.0
C1094 C 0.67844 0.44777 0.3636 0.0
C1095 C 0.70206 0.47934 0.37081 0.0
C1096 C 0.73924 0.49437 0.36916 0.0
C1097 C 0.75218 0.47709 0.35998 0.0
C1098 C 0.72836 0.44519 0.35281 0.0
H1099 H 0.62274 0.33625 0.37463 0.0
H1100 H 0.6639 0.37849 0.37581 0.0
H1101 H 0.62145 0.37701 0.37545 0.0
H1102 H 0.64998 0.43736 0.36485 0.0
H1103 H 0.691 0.49201 0.37764 0.0
H1104 H 0.26063 0.49738 0.65994 0.0
H1105 H 0.26744 0.54993 0.67322 0.0
H1106 H 0.26576 0.59852 0.63196 0.0
H1107 H 0.25748 0.5459 0.61882 0.0
H1108 H 0.31552 0.62108 0.67301 0.0
H1109 H 0.18461 0.59887 0.6532 0.0
H1110 H 0.19864 0.56635 0.65064 0.0
H1111 H 0.21441 0.60412 0.63842 0.0
C1112 C 0.26195 0.5194 0.65373 0.0
C1113 C 0.25785 0.51719 0.63834 0.0
C1114 C 0.26583 0.54939 0.66131 0.0
C1115 C 0.26606 0.57773 0.6536 0.0
C1116 C 0.26439 0.57649 0.63819 0.0
H1117 H 0.27156 0.77373 0.68331 0.0
H1118 H 0.28077 0.73128 0.66858 0.0
C1119 C 0.25983 0.54637 0.63066 0.0
C1120 C 0.26677 0.60804 0.66162 0.0
H1121 H 0.22098 0.65299 0.66597 0.0
C1122 C 0.29485 0.62804 0.67147 0.0
C1123 C 0.23966 0.61704 0.65966 0.0
C1124 C 0.20745 0.59526 0.65003 0.0
C1125 C 0.29659 0.65687 0.67935 0.0
C1126 C 0.26967 0.66591 0.67726 0.0
C1127 C 0.24187 0.64626 0.66732 0.0
C1128 C 0.26778 0.69333 0.68633 0.0
C1129 C 0.327 0.67745 0.68991 0.0
C1130 C 0.2574 0.68587 0.7011 0.0
C1131 C 0.25166 0.70963 0.70943 0.0
C1132 C 0.25646 0.74161 0.70322 0.0
C1133 C 0.26783 0.7495 0.68847 0.0
C1134 C 0.27311 0.72533 0.68005 0.0
H1135 H 0.34913 0.67174 0.68821 0.0
H1136 H 0.33762 0.70662 0.6887 0.0
H1137 H 0.31705 0.66991 0.70137 0.0
H1138 H 0.25261 0.66105 0.70606 0.0
H1139 H 0.24275 0.70245 0.7207 0.0
H1140 H 0.40127 0.15242 0.11347 0.0
H1141 H 0.38909 0.14591 0.13986 0.0
H1142 H 0.33216 0.20387 0.13581 0.0
H1143 H 0.34329 0.20936 0.10917 0.0
H1144 H 0.41532 0.20039 0.15793 0.0
H1145 H 0.26803 0.12648 0.16428 0.0
H1146 H 0.2898 0.12827 0.14705 0.0
H1147 H 0.28394 0.16499 0.1526 0.0
C1148 C 0.38539 0.16303 0.11814 0.0
C1149 C 0.37329 0.18147 0.10926 0.0
C1150 C 0.37845 0.15931 0.13324 0.0
C1151 C 0.35957 0.17425 0.13988 0.0
C1152 C 0.3461 0.1914 0.13094 0.0
H1153 H 0.39983 0.2502 0.22939 0.0
H1154 H 0.39018 0.24283 0.20286 0.0
C1155 C 0.3526 0.19467 0.11571 0.0
C1156 C 0.35804 0.17547 0.15625 0.0
H1157 H 0.30209 0.15587 0.18584 0.0
C1158 C 0.39046 0.19036 0.16399 0.0
C1159 C 0.32565 0.16219 0.16423 0.0
C1160 C 0.28985 0.14426 0.15663 0.0
C1161 C 0.39153 0.19276 0.17939 0.0
C1162 C 0.35935 0.1809 0.18735 0.0
C1163 C 0.32676 0.16534 0.1797 0.0
C1164 C 0.35967 0.18509 0.20359 0.0
C1165 C 0.42724 0.2077 0.18701 0.0
C1166 C 0.34391 0.15512 0.21292 0.0
C1167 C 0.34901 0.15928 0.22821 0.0
C1168 C 0.37012 0.19348 0.23433 0.0
C1169 C 0.38385 0.22346 0.225 0.0
C1170 C 0.37843 0.21931 0.20982 0.0
H1171 H 0.44737 0.20619 0.17988 0.0
H1172 H 0.43743 0.23623 0.1897 0.0
H1173 H 0.42478 0.19316 0.19742 0.0
H1174 H 0.32917 0.12847 0.20833 0.0
H1175 H 0.33814 0.13569 0.23512 0.0
H1176 H 0.17725 0.39303 0.44776 0.0
H1177 H 0.16701 0.37866 0.47391 0.0
H1178 H 0.22438 0.32102 0.47095 0.0
H1179 H 0.23554 0.336 0.44473 0.0
H1180 H 0.13483 0.31605 0.49009 0.0
H1181 H 0.28029 0.39538 0.50236 0.0
H1182 H 0.26212 0.39722 0.48472 0.0
H1183 H 0.26756 0.35977 0.48933 0.0
C1184 C 0.1874 0.37694 0.45258 0.0
C1185 C 0.20762 0.36604 0.44413 0.0
C1186 C 0.18146 0.36871 0.46757 0.0
C1187 C 0.19554 0.34939 0.47448 0.0
C1188 C 0.21396 0.33667 0.46593 0.0
H1189 H 0.21041 0.33071 0.57059 0.0
H1190 H 0.20761 0.31608 0.54429 0.0
C1191 C 0.22008 0.34504 0.45091 0.0
C1192 C 0.19237 0.34445 0.49074 0.0
H1193 H 0.24154 0.36928 0.52243 0.0
C1194 C 0.15817 0.32734 0.49715 0.0
C1195 C 0.22284 0.35918 0.49998 0.0
C1196 C 0.2603 0.37919 0.49381 0.0
C1197 C 0.15364 0.32536 0.51253 0.0
C1198 C 0.18408 0.34122 0.52174 0.0
C1199 C 0.21823 0.35696 0.51535 0.0
C1200 C 0.18137 0.34547 0.53784 0.0
C1201 C 0.11628 0.30682 0.51879 0.0
C1202 C 0.16719 0.36645 0.54295 0.0
C1203 C 0.16891 0.37494 0.55787 0.0
C1204 C 0.18486 0.36265 0.56805 0.0
C1205 C 0.19765 0.3403 0.56305 0.0
C1206 C 0.19622 0.33205 0.54803 0.0
H1207 H 0.09681 0.28689 0.51094 0.0
H1208 H 0.11498 0.29315 0.52932 0.0
H1209 H 0.10804 0.32694 0.52096 0.0
H1210 H 0.15625 0.37769 0.53529 0.0
H1211 H 0.15883 0.39225 0.56136 0.0
H1212 H 0.77752 0.10802 0.89713 0.0
H1213 H 0.78982 0.10462 0.87102 0.0
H1214 H 0.85168 0.21963 0.86895 0.0
H1215 H 0.84034 0.22326 0.89496 0.0
H1216 H 0.76827 0.13007 0.84888 0.0
H1217 H 0.91523 0.19432 0.84599 0.0
H1218 H 0.8911 0.17956 0.86318 0.0
H1219 H 0.90198 0.22225 0.85545 0.0
C1220 C 0.79451 0.13256 0.89121 0.0
C1221 C 0.80792 0.16592 0.89819 0.0
C1222 C 0.80143 0.13056 0.87626 0.0
C1223 C 0.82206 0.16183 0.86801 0.0
C1224 C 0.83649 0.19506 0.8751 0.0
H1225 H 0.84803 0.24113 0.7817 0.0
H1226 H 0.84968 0.22836 0.80776 0.0
C1227 C 0.82973 0.19709 0.89002 0.0
C1228 C 0.82538 0.16021 0.85174 0.0
H1229 H 0.88542 0.19451 0.82339 0.0
C1230 C 0.79392 0.14342 0.84331 0.0
C1231 C 0.85884 0.17761 0.84443 0.0
C1232 C 0.89367 0.19411 0.85276 0.0
C1233 C 0.79496 0.14547 0.82786 0.0
C1234 C 0.82833 0.16455 0.82062 0.0
C1235 C 0.85985 0.17995 0.82898 0.0
C1236 C 0.8307 0.1721 0.80459 0.0
C1237 C 0.76029 0.12899 0.8194 0.0
C1238 C 0.82037 0.14481 0.79408 0.0
C1239 C 0.81957 0.15207 0.77906 0.0
C1240 C 0.82882 0.18669 0.77438 0.0
C1241 C 0.84049 0.21412 0.78493 0.0
C1242 C 0.84156 0.20692 0.79984 0.0
H1243 H 0.73664 0.11881 0.82677 0.0
H1244 H 0.76003 0.14886 0.81172 0.0
H1245 H 0.75777 0.10634 0.81272 0.0
H1246 H 0.81214 0.11779 0.79753 0.0
H1247 H 0.81039 0.13036 0.77122 0.0
H1248 H 0.67186 0.80636 0.10716 0.0
H1249 H 0.68014 0.80774 0.13399 0.0
H1250 H 0.61592 0.85774 0.13932 0.0
H1251 H 0.60691 0.85574 0.11275 0.0
H1252 H 0.70547 0.86123 0.15644 0.0
H1253 H 0.56074 0.76423 0.16235 0.0
H1254 H 0.58331 0.77444 0.1448 0.0
H1255 H 0.56977 0.80406 0.15265 0.0
C1256 C 0.66007 0.81821 0.11405 0.0
C1257 C 0.6383 0.83046 0.10787 0.0
C1258 C 0.66478 0.81895 0.12937 0.0
C1259 C 0.64797 0.83212 0.13867 0.0
C1260 C 0.62845 0.84671 0.13239 0.0
H1261 H 0.665 0.87155 0.23335 0.0
H1262 H 0.6751 0.8778 0.20664 0.0
C1263 C 0.62341 0.84562 0.11718 0.0
C1264 C 0.64829 0.82825 0.15492 0.0
H1265 H 0.59251 0.79083 0.18433 0.0
C1266 C 0.68086 0.84568 0.16257 0.0
C1267 C 0.6162 0.80746 0.16287 0.0
C1268 C 0.58056 0.78618 0.15525 0.0
C1269 C 0.68203 0.84354 0.17803 0.0
C1270 C 0.6497 0.82394 0.18602 0.0
C1271 C 0.61731 0.80605 0.17827 0.0
C1272 C 0.64827 0.82088 0.20238 0.0
C1273 C 0.71785 0.86177 0.18562 0.0
C1274 C 0.62993 0.78692 0.20893 0.0
C1275 C 0.62355 0.78335 0.22407 0.0
C1276 C 0.63568 0.81366 0.23309 0.0
C1277 C 0.65566 0.84772 0.22669 0.0
C1278 C 0.66159 0.8513 0.21143 0.0
H1279 H 0.73977 0.86626 0.17794 0.0
H1280 H 0.72334 0.88823 0.18973 0.0
H1281 H 0.71821 0.84585 0.19515 0.0
H1282 H 0.61942 0.76304 0.20223 0.0
H1283 H 0.60824 0.75673 0.22868 0.0
H1284 H 0.86074 0.60861 0.56279 0.0
H1285 H 0.86552 0.62004 0.53636 0.0
H1286 H 0.80973 0.67892 0.54132 0.0
H1287 H 0.80593 0.66849 0.568 0.0
H1288 H 0.80974 0.5944 0.51889 0.0
H1289 H 0.88622 0.74153 0.51214 0.0
H1290 H 0.88502 0.71978 0.52928 0.0
H1291 H 0.84856 0.72654 0.52427 0.0
C1292 C 0.85021 0.62472 0.55831 0.0
C1293 C 0.83287 0.63759 0.56746 0.0
C1294 C 0.85295 0.63123 0.54318 0.0
C1295 C 0.83814 0.65048 0.53679 0.0
C1296 C 0.82207 0.66466 0.54598 0.0
H1297 H 0.75813 0.60997 0.44779 0.0
H1298 H 0.76651 0.62 0.47428 0.0
C1299 C 0.81976 0.65857 0.56123 0.0
C1300 C 0.83598 0.65178 0.52045 0.0
H1301 H 0.85537 0.70745 0.49081 0.0
C1302 C 0.81998 0.61921 0.51278 0.0
C1303 C 0.84955 0.6841 0.51242 0.0
C1304 C 0.86862 0.72 0.51992 0.0
C1305 C 0.81681 0.61794 0.49741 0.0
C1306 C 0.82902 0.6501 0.48941 0.0
C1307 C 0.84563 0.68281 0.49698 0.0
C1308 C 0.82426 0.64967 0.4732 0.0
C1309 C 0.80077 0.58205 0.48986 0.0
C1310 C 0.85393 0.6649 0.46369 0.0
C1311 C 0.84919 0.65962 0.44842 0.0
C1312 C 0.8147 0.63885 0.44251 0.0
C1313 C 0.78506 0.62569 0.45202 0.0
C1314 C 0.7898 0.63131 0.46718 0.0
H1315 H 0.80206 0.56175 0.49694 0.0
H1316 H 0.77222 0.57243 0.48743 0.0
H1317 H 0.81468 0.58398 0.47932 0.0
H1318 H 0.88077 0.67933 0.46812 0.0
H1319 H 0.87252 0.67005 0.44137 0.0
H1320 H 0.14047 0.80828 0.90208 0.0
H1321 H 0.13143 0.80933 0.87538 0.0
H1322 H 0.24524 0.86001 0.86846 0.0
H1323 H 0.25438 0.85843 0.8949 0.0
H1324 H 0.15891 0.86326 0.85232 0.0
H1325 H 0.20408 0.76422 0.84638 0.0
H1326 H 0.19266 0.7752 0.86397 0.0
H1327 H 0.23559 0.80422 0.85579 0.0
C1328 C 0.16357 0.82032 0.89487 0.0
C1329 C 0.19809 0.83282 0.90055 0.0
C1330 C 0.15837 0.82087 0.87964 0.0
C1331 C 0.18763 0.83409 0.86994 0.0
C1332 C 0.22224 0.84905 0.87573 0.0
H1333 H 0.20921 0.87119 0.77548 0.0
H1334 H 0.20424 0.87776 0.80207 0.0
C1335 C 0.22741 0.84818 0.89085 0.0
C1336 C 0.1822 0.82946 0.85376 0.0
H1337 H 0.19798 0.79013 0.82437 0.0
C1338 C 0.16718 0.84709 0.84618 0.0
C1339 C 0.19246 0.80787 0.84581 0.0
C1340 C 0.20677 0.7865 0.8534 0.0
C1341 C 0.16309 0.84446 0.83075 0.0
C1342 C 0.17483 0.82409 0.82274 0.0
C1343 C 0.1891 0.8059 0.83044 0.0
C1344 C 0.17292 0.82092 0.8064 0.0
C1345 C 0.14586 0.86312 0.82322 0.0
C1346 C 0.15674 0.78689 0.7999 0.0
C1347 C 0.16013 0.78312 0.78482 0.0
C1348 C 0.17948 0.81331 0.77582 0.0
C1349 C 0.19379 0.84747 0.78211 0.0
C1350 C 0.19084 0.85124 0.79732 0.0
H1351 H 0.12894 0.86815 0.83097 0.0
H1352 H 0.16704 0.88934 0.81898 0.0
H1353 H 0.12916 0.84723 0.81378 0.0
H1354 H 0.14275 0.76309 0.80663 0.0
H1355 H 0.1487 0.75644 0.78028 0.0
H1356 H 0.49291 0.63454 0.06934 0.0
H1357 H 0.47895 0.5722 0.07065 0.0
H1358 H 0.57796 0.60048 0.04849 0.0
H1359 H 0.592 0.66256 0.04701 0.0
H1360 H 0.51915 0.54141 0.03626 0.0
H1361 H 0.52317 0.52672 0.09687 0.0
H1362 H 0.49466 0.54337 0.09077 0.0
H1363 H 0.5421 0.56974 0.08793 0.0
C1364 C 0.51185 0.62755 0.06485 0.0
C1365 C 0.54357 0.65363 0.05806 0.0
C1366 C 0.50392 0.59192 0.06568 0.0
C1367 C 0.5276 0.58173 0.05981 0.0
C1368 C 0.55935 0.60774 0.05314 0.0
H1369 H 0.52377 0.37856 0.06914 0.0
H1370 H 0.53945 0.4415 0.07009 0.0
C1371 C 0.56733 0.64328 0.05232 0.0
C1372 C 0.51869 0.54373 0.05994 0.0
H1373 H 0.50173 0.4738 0.08262 0.0
C1374 C 0.5154 0.52666 0.0464 0.0
C1375 C 0.51424 0.52462 0.07317 0.0
C1376 C 0.51901 0.54205 0.08803 0.0
C1377 C 0.50726 0.49089 0.04572 0.0
C1378 C 0.50178 0.47145 0.05894 0.0
C1379 C 0.50567 0.48866 0.0725 0.0
C1380 C 0.49176 0.43315 0.05884 0.0
C1381 C 0.50505 0.47434 0.03084 0.0
C1382 C 0.45947 0.4075 0.05246 0.0
C1383 C 0.45046 0.37163 0.05188 0.0
C1384 C 0.4735 0.36053 0.05774 0.0
C1385 C 0.50551 0.38618 0.06444 0.0
C1386 C 0.51448 0.42215 0.06503 0.0
H1387 H 0.51874 0.49497 0.02218 0.0
H1388 H 0.51711 0.4569 0.03116 0.0
H1389 H 0.47656 0.45768 0.02766 0.0
H1390 H 0.44122 0.41526 0.04786 0.0
H1391 H 0.42546 0.35264 0.04673 0.0
H1392 H 0.8668 0.50244 0.41175 0.0
H1393 H 0.91484 0.48811 0.41393 0.0
H1394 H 0.96895 0.55661 0.37686 0.0
H1395 H 0.92205 0.57208 0.37502 0.0
H1396 H 0.93734 0.45607 0.3961 0.0
H1397 H 0.04994 0.59269 0.40502 0.0
H1398 H 1.00402 0.58236 0.4057 0.0
H1399 H 0.02693 0.59034 0.38829 0.0
C1400 C 0.88911 0.51464 0.40415 0.0
C1401 C 0.89078 0.53866 0.39331 0.0
C1402 C 0.91656 0.50644 0.4054 0.0
C1403 C 0.94606 0.52192 0.39578 0.0
C1404 C 0.94724 0.54527 0.38475 0.0
H1405 H 0.08311 0.43705 0.37281 0.0
H1406 H 0.03586 0.45204 0.37512 0.0
C1407 C 0.92018 0.55389 0.38364 0.0
C1408 C 0.97486 0.51261 0.39682 0.0
H1409 H 0.06559 0.54905 0.39728 0.0
C1410 C 0.96537 0.47643 0.39653 0.0
C1411 C 0.0115 0.53903 0.3977 0.0
C1412 C 0.02366 0.57822 0.39937 0.0
C1413 C 0.99141 0.46601 0.39656 0.0
C1414 C 0.02809 0.49253 0.39634 0.0
C1415 C 0.03755 0.52866 0.39719 0.0
C1416 C 0.05704 0.48349 0.39496 0.0
C1417 C 0.97918 0.42662 0.39699 0.0
C1418 C 0.0857 0.49738 0.40496 0.0
C1419 C 0.11332 0.48954 0.40345 0.0
C1420 C 0.11269 0.46743 0.39196 0.0
C1421 C 0.08415 0.45378 0.38191 0.0
C1422 C 0.0569 0.46209 0.38329 0.0
H1423 H 0.95244 0.41113 0.40224 0.0
H1424 H 0.97689 0.41659 0.38557 0.0
H1425 H 0.99831 0.42137 0.40312 0.0
H1426 H 0.08661 0.51418 0.414 0.0
H1427 H 0.13493 0.50044 0.41138 0.0
H1428 H 0.65604 0.08298 0.70668 0.0
H1429 H 0.59347 0.03608 0.70806 0.0
H1430 H 0.57865 0.08701 0.74615 0.0
H1431 H 0.64106 0.13502 0.74441 0.0
H1432 H 0.55647 0.98783 0.7278 0.0
H1433 H 0.49691 0.07472 0.72167 0.0
H1434 H 0.54392 0.0911 0.71894 0.0
H1435 H 0.52609 0.08655 0.73726 0.0
C1436 C 0.63946 0.08431 0.71533 0.0
C1437 C 0.65347 0.11291 0.72537 0.0
C1438 C 0.60363 0.0574 0.71612 0.0
C1439 C 0.58097 0.05819 0.72704 0.0
C1440 C 0.59517 0.08626 0.73734 0.0
H1441 H 0.37188 0.86756 0.74475 0.0
H1442 H 0.43456 0.915 0.74625 0.0
C1443 C 0.63095 0.11359 0.7364 0.0
C1444 C 0.54274 0.02936 0.72762 0.0
H1445 H 0.45708 0.01399 0.72757 0.0
C1446 C 0.53474 0.99358 0.72773 0.0
C1447 C 0.51426 0.03672 0.72732 0.0
C1448 C 0.52065 0.07432 0.72614 0.0
C1449 C 0.49928 0.96508 0.72744 0.0
C1450 C 0.4708 0.97244 0.7276 0.0
C1451 C 0.4788 0.00823 0.7276 0.0
C1452 C 0.43256 0.94365 0.72702 0.0
C1453 C 0.49289 0.92746 0.7264 0.0
C1454 C 0.41004 0.94447 0.71607 0.0
C1455 C 0.37407 0.91788 0.71541 0.0
C1456 C 0.35978 0.88958 0.72561 0.0
C1457 C 0.38221 0.88875 0.73662 0.0
C1458 C 0.41814 0.91577 0.73742 0.0
H1459 H 0.51668 0.92701 0.72201 0.0
H1460 H 0.48731 0.91538 0.73756 0.0
H1461 H 0.46971 0.9106 0.71921 0.0
H1462 H 0.42037 0.96564 0.70793 0.0
H1463 H 0.35755 0.91931 0.70678 0.0
H1464 H 0.64214 0.50247 0.59891 0.0
H1465 H 0.57996 0.48862 0.59663 0.0
H1466 H 0.59497 0.55842 0.63323 0.0
H1467 H 0.65723 0.57345 0.63515 0.0
H1468 H 0.52529 0.45748 0.61432 0.0
H1469 H 0.55058 0.59436 0.60479 0.0
H1470 H 0.58592 0.58367 0.60434 0.0
H1471 H 0.57086 0.59203 0.62163 0.0
C1472 C 0.63221 0.51505 0.6064 0.0
C1473 C 0.65473 0.53932 0.61712 0.0
C1474 C 0.59665 0.50713 0.60509 0.0
C1475 C 0.58284 0.52311 0.61453 0.0
C1476 C 0.60516 0.54669 0.62546 0.0
H1477 H 0.36024 0.43938 0.63649 0.0
H1478 H 0.42252 0.45429 0.6346 0.0
C1479 C 0.64078 0.55505 0.62662 0.0
C1480 C 0.54479 0.51409 0.6134 0.0
H1481 H 0.49102 0.55113 0.6124 0.0
C1482 C 0.51786 0.47799 0.61373 0.0
C1483 C 0.53484 0.54069 0.61231 0.0
C1484 C 0.56212 0.5798 0.61058 0.0
C1485 C 0.48145 0.46783 0.61353 0.0
C1486 C 0.47154 0.49454 0.61353 0.0
C1487 C 0.49845 0.53059 0.61266 0.0
C1488 C 0.43355 0.48576 0.6147 0.0
C1489 C 0.45409 0.4285 0.61311 0.0
C1490 C 0.41917 0.49974 0.60454 0.0
C1491 C 0.38365 0.49195 0.60582 0.0
C1492 C 0.36172 0.4698 0.61722 0.0
C1493 C 0.37625 0.45613 0.62745 0.0
C1494 C 0.41186 0.46439 0.62631 0.0
H1495 H 0.4653 0.41283 0.60801 0.0
H1496 H 0.44602 0.41855 0.62454 0.0
H1497 H 0.42992 0.42337 0.60686 0.0
H1498 H 0.43537 0.51652 0.59555 0.0
H1499 H 0.37323 0.50287 0.59776 0.0
H1500 H 0.08925 0.65842 0.96834 0.0
H1501 H 0.04256 0.59582 0.96718 0.0
H1502 H 0.09647 0.57935 0.93057 0.0
H1503 H 0.14425 0.64191 0.93208 0.0
H1504 H 0.99605 0.55839 0.94685 0.0
H1505 H 0.08167 0.49854 0.95652 0.0
H1506 H 0.09796 0.54566 0.95873 0.0
H1507 H 0.09502 0.52714 0.94068 0.0
C1508 C 0.0913 0.64149 0.96006 0.0
C1509 C 0.12062 0.65511 0.95036 0.0
C1510 C 0.06451 0.60564 0.9594 0.0
C1511 C 0.06615 0.58255 0.94895 0.0
C1512 C 0.09503 0.59627 0.93901 0.0
H1513 H 0.87667 0.3733 0.93106 0.0
H1514 H 0.92477 0.43562 0.92932 0.0
C1515 C 0.12222 0.63212 0.93982 0.0
C1516 C 0.03727 0.54437 0.94846 0.0
H1517 H 0.02129 0.45862 0.9502 0.0
C1518 C 1.0016 0.53658 0.94759 0.0
C1519 C 0.04438 0.51582 0.94963 0.0
C1520 C 0.08179 0.52213 0.95159 0.0
C1521 C 0.97293 0.50124 0.94799 0.0
C1522 C 0.98007 0.47266 0.94873 0.0
C1523 C 0.01575 0.48044 0.94949 0.0
C1524 C 0.95103 0.43458 0.94946 0.0
C1525 C 0.93533 0.4951 0.94816 0.0
C1526 C 0.95036 0.41272 0.96106 0.0
C1527 C 0.92337 0.37694 0.9619 0.0
C1528 C 0.8962 0.36222 0.95123 0.0
C1529 C 0.89694 0.38399 0.93957 0.0
C1530 C 0.92433 0.41971 0.93861 0.0
H1531 H 0.93465 0.51924 0.9519 0.0
H1532 H 0.92423 0.48877 0.93684 0.0
H1533 H 0.91773 0.47246 0.95549 0.0
H1534 H 0.97063 0.42344 0.96956 0.0
H1535 H 0.92359 0.36091 0.97103 0.0
H1536 H 0.56892 0.92056 0.30221 0.0
H1537 H 0.55314 0.96733 0.30074 0.0
H1538 H 0.48763 0.91602 0.26269 0.0
H1539 H 0.50211 0.86808 0.26453 0.0
H1540 H 0.56488 0.01529 0.28094 0.0
H1541 H 0.4182 0.92919 0.28681 0.0
H1542 H 0.44852 0.91251 0.28966 0.0
H1543 H 0.4357 0.91722 0.27129 0.0
C1544 C 0.551 0.91909 0.29355 0.0
C1545 C 0.53655 0.89044 0.28354 0.0
C1546 C 0.54202 0.94593 0.29271 0.0
C1547 C 0.51867 0.94505 0.28176 0.0
C1548 C 0.50483 0.91685 0.27152 0.0
H1549 H 0.50274 0.1375 0.26471 0.0
H1550 H 0.51694 0.08938 0.26273 0.0
C1551 C 0.51331 0.88956 0.27252 0.0
C1552 C 0.5095 0.97403 0.28106 0.0
H1553 H 0.43963 0.99004 0.28101 0.0
C1554 C 0.53746 0.00973 0.28098 0.0
C1555 C 0.47373 0.96692 0.28129 0.0
C1556 C 0.44233 0.92941 0.28242 0.0
C1557 C 0.53078 0.0384 0.28128 0.0
C1558 C 0.49502 0.0313 0.28109 0.0
C1559 C 0.46705 0.99559 0.28101 0.0
C1560 C 0.48586 0.06028 0.28183 0.0
C1561 C 0.56219 0.0759 0.28242 0.0
C1562 C 0.46255 0.0594 0.29283 0.0
C1563 C 0.45373 0.08635 0.29375 0.0
C1564 C 0.4683 0.1151 0.28377 0.0
C1565 C 0.49144 0.11593 0.27267 0.0
C1566 C 0.49977 0.08854 0.2716 0.0
H1567 H 0.5863 0.07609 0.28678 0.0
H1568 H 0.56885 0.08818 0.2713 0.0
H1569 H 0.55597 0.09274 0.28969 0.0
H1570 H 0.45138 0.03795 0.30085 0.0
H1571 H 0.43587 0.0849 0.30245 0.0
loop_
_geom_bond_atom_site_label_1
_geom_bond_atom_site_label_2
_geom_bond_distance
_geom_bond_site_symmetry_2
_ccdc_geom_bond_type
Co0 O2 2.143 . S
Co0 O8 2.074 . S
Co0 O11 2.093 . S
Co0 O24 2.097 . S
Co0 N41 2.151 . S
Co0 N49 2.214 . S
Co1 O2 2.160 . S
Co1 O7 2.058 . S
Co1 O17 2.057 . S
Co1 O32 2.037 . S
Co1 N36 2.145 . S
Co1 N57 2.257 . S
O2 Co0 2.143 . S
O2 Co1 2.160 . S
C3 O4 1.278 . S
C3 O11 1.224 . S
O4 C3 1.278 . S
C5 O6 1.245 . S
C5 O17 1.232 . S
O6 C5 1.245 . S
O7 Co1 2.058 . S
O7 C33 1.269 . S
O8 Co0 2.074 . S
O8 C33 1.257 . S
H9 C34 0.930 . S
H10 C40 0.930 . S
O11 Co0 2.093 . S
O11 C3 1.224 . S
H12 C44 0.929 . S
H13 C46 0.930 . S
H14 C47 0.925 1_554 S
H15 C45 0.929 . S
H16 C48 0.928 . S
O17 Co1 2.057 . S
O17 C5 1.232 . S
H18 C37 0.929 . S
H19 C38 0.929 . S
H20 C50 0.931 . S
H21 C42 0.929 . S
H22 C51 0.930 . S
H23 C43 0.931 . S
O24 Co0 2.097 . S
O24 C52 1.214 . S
H25 C53 0.929 . S
H26 C54 0.929 . S
H27 C55 0.930 . S
H28 C56 0.929 . S
H29 C58 0.930 . S
H30 C35 0.930 . S
H31 C39 0.930 . S
O32 Co1 2.037 . S
O32 C52 1.234 . S
C33 O7 1.269 . S
C33 O8 1.257 . S
C34 H9 0.930 . S
C34 C37 1.388 . S
C34 C39 1.418 . S
C35 H30 0.930 . S
C35 C38 1.404 . S
C35 C39 1.353 . S
N36 Co1 2.145 . S
N36 C37 1.397 . S
N36 C38 1.334 . S
C37 H18 0.929 . S
C37 C34 1.388 . S
C37 N36 1.397 . S
C38 H19 0.929 . S
C38 C35 1.404 . S
C38 N36 1.334 . S
C39 H31 0.930 . S
C39 C34 1.418 . S
C39 C35 1.353 . S
C40 H10 0.930 . S
C40 N41 1.330 . S
C40 C42 1.446 . S
N41 Co0 2.151 . S
N41 C40 1.330 . S
N41 C45 1.418 . S
C42 H21 0.929 . S
C42 C40 1.446 . S
C42 C43 1.332 . S
C43 H23 0.931 . S
C43 C42 1.332 . S
C43 C44 1.267 . S
C44 H12 0.929 . S
C44 C43 1.267 . S
C44 C45 1.251 . S
C45 H15 0.929 . S
C45 N41 1.418 . S
C45 C44 1.251 . S
C46 H13 0.930 . S
C46 C48 1.406 1_556 S
C46 C51 1.261 . S
C47 H14 0.925 1_556 S
C47 N49 1.318 1_556 S
C47 C50 1.369 . S
C48 H16 0.928 . S
C48 C46 1.406 1_554 S
C48 N49 1.261 . S
N49 Co0 2.214 . S
N49 C47 1.318 1_554 S
N49 C48 1.261 . S
C50 H20 0.931 . S
C50 C47 1.369 . S
C50 C51 1.312 . S
C51 H22 0.930 . S
C51 C46 1.261 . S
C51 C50 1.312 . S
C52 O24 1.214 . S
C52 O32 1.234 . S
C53 H25 0.929 . S
C53 C56 1.391 . S
C53 C58 1.391 . S
C54 H26 0.929 . S
C54 C55 1.390 . S
C54 N57 1.391 . S
C55 H27 0.930 . S
C55 C54 1.390 . S
C55 C56 1.392 . S
C56 H28 0.929 . S
C56 C53 1.391 . S
C56 C55 1.392 . S
N57 Co1 2.257 . S
N57 C54 1.391 . S
N57 C58 1.388 . S
C58 H29 0.930 . S
C58 C53 1.391 . S
C58 N57 1.388 . S
Co59 O61 2.143 . S
Co59 O67 2.074 . S
Co59 O70 2.093 . S
Co59 O83 2.097 . S
Co59 N100 2.151 . S
Co59 N108 2.214 . S
Co60 O61 2.160 . S
Co60 O66 2.058 . S
Co60 O76 2.057 . S
Co60 O91 2.037 . S
Co60 N95 2.145 . S
Co60 N116 2.257 . S
O61 Co59 2.143 . S
O61 Co60 2.160 . S
C62 O63 1.278 . S
C62 O70 1.224 . S
O63 C62 1.278 . S
C64 O65 1.245 . S
C64 O76 1.232 . S
O65 C64 1.245 . S
O66 Co60 2.058 . S
O66 C92 1.269 . S
O67 Co59 2.074 . S
O67 C92 1.257 . S
H68 C93 0.930 . S
H69 C99 0.930 . S
O70 Co59 2.093 . S
O70 C62 1.224 . S
H71 C103 0.929 . S
H72 C105 0.930 . S
H73 C106 0.930 . S
H74 C104 0.929 . S
H75 C107 0.928 . S
O76 Co60 2.057 . S
O76 C64 1.232 . S
H77 C96 0.929 . S
H78 C97 0.929 . S
H79 C109 0.931 . S
H80 C101 0.929 . S
H81 C110 0.930 . S
H82 C102 0.931 . S
O83 Co59 2.097 . S
O83 C111 1.214 . S
H84 C112 0.929 . S
H85 C113 0.929 . S
H86 C114 0.930 . S
H87 C115 0.929 . S
H88 C117 0.930 . S
H89 C94 0.930 . S
H90 C98 0.930 . S
O91 Co60 2.037 . S
O91 C111 1.234 . S
C92 O66 1.269 . S
C92 O67 1.257 . S
C93 H68 0.930 . S
C93 C96 1.388 . S
C93 C98 1.418 . S
C94 H89 0.930 . S
C94 C97 1.404 . S
C94 C98 1.353 . S
N95 Co60 2.145 . S
N95 C96 1.397 . S
N95 C97 1.334 . S
C96 H77 0.929 . S
C96 C93 1.388 . S
C96 N95 1.397 . S
C97 H78 0.929 . S
C97 C94 1.404 . S
C97 N95 1.334 . S
C98 H90 0.930 . S
C98 C93 1.418 . S
C98 C94 1.353 . S
C99 H69 0.930 . S
C99 N100 1.330 . S
C99 C101 1.446 . S
N100 Co59 2.151 . S
N100 C99 1.330 . S
N100 C104 1.418 . S
C101 H80 0.929 . S
C101 C99 1.446 . S
C101 C102 1.332 . S
C102 H82 0.931 . S
C102 C101 1.332 . S
C102 C103 1.267 . S
C103 H71 0.929 . S
C103 C102 1.267 . S
C103 C104 1.251 . S
C104 H74 0.929 . S
C104 N100 1.418 . S
C104 C103 1.251 . S
C105 H72 0.930 . S
C105 C107 1.406 . S
C105 C110 1.261 . S
C106 H73 0.930 . S
C106 N108 1.325 . S
C106 C109 1.357 . S
C107 H75 0.928 . S
C107 C105 1.406 . S
C107 N108 1.261 . S
N108 Co59 2.214 . S
N108 C106 1.325 . S
N108 C107 1.261 . S
C109 H79 0.931 . S
C109 C106 1.357 . S
C109 C110 1.312 . S
C110 H81 0.930 . S
C110 C105 1.261 . S
C110 C109 1.312 . S
C111 O83 1.214 . S
C111 O91 1.234 . S
C112 H84 0.929 . S
C112 C115 1.391 . S
C112 C117 1.391 . S
C113 H85 0.929 . S
C113 C114 1.390 . S
C113 N116 1.391 . S
C114 H86 0.930 . S
C114 C113 1.390 . S
C114 C115 1.392 . S
C115 H87 0.929 . S
C115 C112 1.391 . S
C115 C114 1.392 . S
N116 Co60 2.257 . S
N116 C113 1.391 . S
N116 C117 1.388 . S
C117 H88 0.930 . S
C117 C112 1.391 . S
C117 N116 1.388 . S
Co118 O120 2.143 . S
Co118 O126 2.074 . S
Co118 O129 2.093 . S
Co118 O142 2.097 . S
Co118 N159 2.151 . S
Co118 N167 2.214 . S
Co119 O120 2.160 . S
Co119 O125 2.058 . S
Co119 O135 2.057 . S
Co119 O150 2.037 . S
Co119 N154 2.145 . S
Co119 N175 2.257 . S
O120 Co118 2.143 . S
O120 Co119 2.160 . S
C121 O122 1.278 . S
C121 O129 1.224 . S
O122 C121 1.278 . S
C123 O124 1.245 . S
C123 O135 1.232 . S
O124 C123 1.245 . S
O125 Co119 2.058 . S
O125 C151 1.269 . S
O126 Co118 2.074 . S
O126 C151 1.257 . S
H127 C152 0.930 . S
H128 C158 0.930 . S
O129 Co118 2.093 . S
O129 C121 1.224 . S
H130 C162 0.929 . S
H131 C164 0.930 . S
H132 C165 0.930 . S
H133 C163 0.929 . S
H134 C166 0.928 . S
O135 Co119 2.057 . S
O135 C123 1.232 . S
H136 C155 0.929 . S
H137 C156 0.929 . S
H138 C168 0.931 . S
H139 C160 0.929 . S
H140 C169 0.930 . S
H141 C161 0.931 . S
O142 Co118 2.097 . S
O142 C170 1.214 . S
H143 C171 0.929 . S
H144 C172 0.929 . S
H145 C173 0.930 . S
H146 C174 0.929 . S
H147 C176 0.930 . S
H148 C153 0.930 . S
H149 C157 0.930 . S
O150 Co119 2.037 . S
O150 C170 1.234 . S
C151 O125 1.269 . S
C151 O126 1.257 . S
C152 H127 0.930 . S
C152 C155 1.388 . S
C152 C157 1.418 . S
C153 H148 0.930 . S
C153 C156 1.404 . S
C153 C157 1.353 . S
N154 Co119 2.145 . S
N154 C155 1.397 . S
N154 C156 1.334 . S
C155 H136 0.929 . S
C155 C152 1.388 . S
C155 N154 1.397 . S
C156 H137 0.929 . S
C156 C153 1.404 . S
C156 N154 1.334 . S
C157 H149 0.930 . S
C157 C152 1.418 . S
C157 C153 1.353 . S
C158 H128 0.930 . S
C158 N159 1.330 . S
C158 C160 1.446 . S
N159 Co118 2.151 . S
N159 C158 1.330 . S
N159 C163 1.418 . S
C160 H139 0.929 . S
C160 C158 1.446 . S
C160 C161 1.332 . S
C161 H141 0.931 . S
C161 C160 1.332 . S
C161 C162 1.267 . S
C162 H130 0.929 . S
C162 C161 1.267 . S
C162 C163 1.251 . S
C163 H133 0.929 . S
C163 N159 1.418 . S
C163 C162 1.251 . S
C164 H131 0.930 . S
C164 C166 1.406 . S
C164 C169 1.261 . S
C165 H132 0.930 . S
C165 N167 1.325 . S
C165 C168 1.357 . S
C166 H134 0.928 . S
C166 C164 1.406 . S
C166 N167 1.261 . S
N167 Co118 2.214 . S
N167 C165 1.325 . S
N167 C166 1.261 . S
C168 H138 0.931 . S
C168 C165 1.357 . S
C168 C169 1.312 . S
C169 H140 0.930 . S
C169 C164 1.261 . S
C169 C168 1.312 . S
C170 O142 1.214 . S
C170 O150 1.234 . S
C171 H143 0.929 . S
C171 C174 1.391 . S
C171 C176 1.391 . S
C172 H144 0.929 . S
C172 C173 1.390 . S
C172 N175 1.391 . S
C173 H145 0.930 . S
C173 C172 1.390 . S
C173 C174 1.392 . S
C174 H146 0.929 . S
C174 C171 1.391 . S
C174 C173 1.392 . S
N175 Co119 2.257 . S
N175 C172 1.391 . S
N175 C176 1.388 . S
C176 H147 0.930 . S
C176 C171 1.391 . S
C176 N175 1.388 . S
Co177 O179 2.143 . S
Co177 O185 2.074 . S
Co177 O188 2.093 . S
Co177 O201 2.097 . S
Co177 N218 2.151 . S
Co177 N226 2.214 . S
Co178 O179 2.160 . S
Co178 O184 2.058 . S
Co178 O194 2.057 . S
Co178 O209 2.037 . S
Co178 N213 2.145 . S
Co178 N234 2.257 . S
O179 Co177 2.143 . S
O179 Co178 2.160 . S
C180 O181 1.278 . S
C180 O188 1.224 . S
O181 C180 1.278 . S
C182 O183 1.245 . S
C182 O194 1.232 . S
O183 C182 1.245 . S
O184 Co178 2.058 . S
O184 C210 1.269 . S
O185 Co177 2.074 . S
O185 C210 1.257 . S
H186 C211 0.930 . S
H187 C217 0.930 . S
O188 Co177 2.093 . S
O188 C180 1.224 . S
H189 C221 0.929 . S
H190 C223 0.930 . S
H191 C224 0.925 1_554 S
H192 C222 0.929 . S
H193 C225 0.928 . S
O194 Co178 2.057 . S
O194 C182 1.232 . S
H195 C214 0.929 . S
H196 C215 0.929 . S
H197 C227 0.931 . S
H198 C219 0.929 . S
H199 C228 0.930 . S
H200 C220 0.931 . S
O201 Co177 2.097 . S
O201 C229 1.214 . S
H202 C230 0.929 . S
H203 C231 0.929 . S
H204 C232 0.930 . S
H205 C233 0.929 . S
H206 C235 0.930 . S
H207 C212 0.930 . S
H208 C216 0.930 . S
O209 Co178 2.037 . S
O209 C229 1.234 . S
C210 O184 1.269 . S
C210 O185 1.257 . S
C211 H186 0.930 . S
C211 C214 1.388 . S
C211 C216 1.418 . S
C212 H207 0.930 . S
C212 C215 1.404 . S
C212 C216 1.353 . S
N213 Co178 2.145 . S
N213 C214 1.397 . S
N213 C215 1.334 . S
C214 H195 0.929 . S
C214 C211 1.388 . S
C214 N213 1.397 . S
C215 H196 0.929 . S
C215 C212 1.404 . S
C215 N213 1.334 . S
C216 H208 0.930 . S
C216 C211 1.418 . S
C216 C212 1.353 . S
C217 H187 0.930 . S
C217 N218 1.330 . S
C217 C219 1.446 . S
N218 Co177 2.151 . S
N218 C217 1.330 . S
N218 C222 1.418 . S
C219 H198 0.929 . S
C219 C217 1.446 . S
C219 C220 1.332 . S
C220 H200 0.931 . S
C220 C219 1.332 . S
C220 C221 1.267 . S
C221 H189 0.929 . S
C221 C220 1.267 . S
C221 C222 1.251 . S
C222 H192 0.929 . S
C222 N218 1.418 . S
C222 C221 1.251 . S
C223 H190 0.930 . S
C223 C225 1.406 1_556 S
C223 C228 1.261 . S
C224 H191 0.925 1_556 S
C224 N226 1.318 1_556 S
C224 C227 1.369 . S
C225 H193 0.928 . S
C225 C223 1.406 1_554 S
C225 N226 1.261 . S
N226 Co177 2.214 . S
N226 C224 1.318 1_554 S
N226 C225 1.261 . S
C227 H197 0.931 . S
C227 C224 1.369 . S
C227 C228 1.312 . S
C228 H199 0.930 . S
C228 C223 1.261 . S
C228 C227 1.312 . S
C229 O201 1.214 . S
C229 O209 1.234 . S
C230 H202 0.929 . S
C230 C233 1.391 . S
C230 C235 1.391 . S
C231 H203 0.929 . S
C231 C232 1.390 . S
C231 N234 1.391 . S
C232 H204 0.930 . S
C232 C231 1.390 . S
C232 C233 1.392 . S
C233 H205 0.929 . S
C233 C230 1.391 . S
C233 C232 1.392 . S
N234 Co178 2.257 . S
N234 C231 1.391 . S
N234 C235 1.388 . S
C235 H206 0.930 . S
C235 C230 1.391 . S
C235 N234 1.388 . S
Co236 O238 2.143 . S
Co236 O244 2.074 . S
Co236 O247 2.093 . S
Co236 O260 2.097 . S
Co236 N277 2.151 . S
Co236 N285 2.214 . S
Co237 O238 2.160 . S
Co237 O243 2.058 . S
Co237 O253 2.057 . S
Co237 O268 2.037 . S
Co237 N272 2.145 . S
Co237 N293 2.257 . S
O238 Co236 2.143 . S
O238 Co237 2.160 . S
C239 O240 1.278 . S
C239 O247 1.224 . S
O240 C239 1.278 . S
C241 O242 1.245 . S
C241 O253 1.232 . S
O242 C241 1.245 . S
O243 Co237 2.058 . S
O243 C269 1.269 . S
O244 Co236 2.074 . S
O244 C269 1.257 . S
H245 C270 0.930 . S
H246 C276 0.930 . S
O247 Co236 2.093 . S
O247 C239 1.224 . S
H248 C280 0.929 . S
H249 C282 0.930 . S
H250 C283 0.930 . S
H251 C281 0.929 . S
H252 C284 0.928 . S
O253 Co237 2.057 . S
O253 C241 1.232 . S
H254 C273 0.929 . S
H255 C274 0.929 . S
H256 C286 0.931 . S
H257 C278 0.929 . S
H258 C287 0.930 . S
H259 C279 0.931 . S
O260 Co236 2.097 . S
O260 C288 1.214 . S
H261 C289 0.929 . S
H262 C290 0.929 . S
H263 C291 0.930 . S
H264 C292 0.929 . S
H265 C294 0.930 . S
H266 C271 0.930 . S
H267 C275 0.930 . S
O268 Co237 2.037 . S
O268 C288 1.234 . S
C269 O243 1.269 . S
C269 O244 1.257 . S
C270 H245 0.930 . S
C270 C273 1.388 . S
C270 C275 1.418 . S
C271 H266 0.930 . S
C271 C274 1.404 . S
C271 C275 1.353 . S
N272 Co237 2.145 . S
N272 C273 1.397 . S
N272 C274 1.334 . S
C273 H254 0.929 . S
C273 C270 1.388 . S
C273 N272 1.397 . S
C274 H255 0.929 . S
C274 C271 1.404 . S
C274 N272 1.334 . S
C275 H267 0.930 . S
C275 C270 1.418 . S
C275 C271 1.353 . S
C276 H246 0.930 . S
C276 N277 1.330 . S
C276 C278 1.446 . S
N277 Co236 2.151 . S
N277 C276 1.330 . S
N277 C281 1.418 . S
C278 H257 0.929 . S
C278 C276 1.446 . S
C278 C279 1.332 . S
C279 H259 0.931 . S
C279 C278 1.332 . S
C279 C280 1.267 . S
C280 H248 0.929 . S
C280 C279 1.267 . S
C280 C281 1.251 . S
C281 H251 0.929 . S
C281 N277 1.418 . S
C281 C280 1.251 . S
C282 H249 0.930 . S
C282 C284 1.406 . S
C282 C287 1.261 . S
C283 H250 0.930 . S
C283 N285 1.325 . S
C283 C286 1.357 . S
C284 H252 0.928 . S
C284 C282 1.406 . S
C284 N285 1.261 . S
N285 Co236 2.214 . S
N285 C283 1.325 . S
N285 C284 1.261 . S
C286 H256 0.931 . S
C286 C283 1.357 . S
C286 C287 1.312 . S
C287 H258 0.930 . S
C287 C282 1.261 . S
C287 C286 1.312 . S
C288 O260 1.214 . S
C288 O268 1.234 . S
C289 H261 0.929 . S
C289 C292 1.391 . S
C289 C294 1.391 . S
C290 H262 0.929 . S
C290 C291 1.390 . S
C290 N293 1.391 . S
C291 H263 0.930 . S
C291 C290 1.390 . S
C291 C292 1.392 . S
C292 H264 0.929 . S
C292 C289 1.391 . S
C292 C291 1.392 . S
N293 Co237 2.257 . S
N293 C290 1.391 . S
N293 C294 1.388 . S
C294 H265 0.930 . S
C294 C289 1.391 . S
C294 N293 1.388 . S
Co295 O297 2.143 . S
Co295 O303 2.074 . S
Co295 O306 2.093 . S
Co295 O319 2.097 . S
Co295 N336 2.151 . S
Co295 N344 2.214 . S
Co296 O297 2.160 . S
Co296 O302 2.058 . S
Co296 O312 2.057 . S
Co296 O327 2.037 . S
Co296 N331 2.145 . S
Co296 N352 2.257 . S
O297 Co295 2.143 . S
O297 Co296 2.160 . S
C298 O299 1.278 . S
C298 O306 1.224 . S
O299 C298 1.278 . S
C300 O301 1.245 . S
C300 O312 1.232 . S
O301 C300 1.245 . S
O302 Co296 2.058 . S
O302 C328 1.269 . S
O303 Co295 2.074 . S
O303 C328 1.257 . S
H304 C329 0.930 . S
H305 C335 0.930 . S
O306 Co295 2.093 . S
O306 C298 1.224 . S
H307 C339 0.929 . S
H308 C341 0.930 . S
H309 C342 0.930 . S
H310 C340 0.929 . S
H311 C343 0.928 . S
O312 Co296 2.057 . S
O312 C300 1.232 . S
H313 C332 0.929 . S
H314 C333 0.929 . S
H315 C345 0.931 . S
H316 C337 0.929 . S
H317 C346 0.930 . S
H318 C338 0.931 . S
O319 Co295 2.097 . S
O319 C347 1.214 . S
H320 C348 0.929 . S
H321 C349 0.929 . S
H322 C350 0.930 . S
H323 C351 0.929 . S
H324 C353 0.930 . S
H325 C330 0.930 . S
H326 C334 0.930 . S
O327 Co296 2.037 . S
O327 C347 1.234 . S
C328 O302 1.269 . S
C328 O303 1.257 . S
C329 H304 0.930 . S
C329 C332 1.388 . S
C329 C334 1.418 . S
C330 H325 0.930 . S
C330 C333 1.404 . S
C330 C334 1.353 . S
N331 Co296 2.145 . S
N331 C332 1.397 . S
N331 C333 1.334 . S
C332 H313 0.929 . S
C332 C329 1.388 . S
C332 N331 1.397 . S
C333 H314 0.929 . S
C333 C330 1.404 . S
C333 N331 1.334 . S
C334 H326 0.930 . S
C334 C329 1.418 . S
C334 C330 1.353 . S
C335 H305 0.930 . S
C335 N336 1.330 . S
C335 C337 1.446 . S
N336 Co295 2.151 . S
N336 C335 1.330 . S
N336 C340 1.418 . S
C337 H316 0.929 . S
C337 C335 1.446 . S
C337 C338 1.332 . S
C338 H318 0.931 . S
C338 C337 1.332 . S
C338 C339 1.267 . S
C339 H307 0.929 . S
C339 C338 1.267 . S
C339 C340 1.251 . S
C340 H310 0.929 . S
C340 N336 1.418 . S
C340 C339 1.251 . S
C341 H308 0.930 . S
C341 C343 1.406 . S
C341 C346 1.261 . S
C342 H309 0.930 . S
C342 N344 1.325 . S
C342 C345 1.357 . S
C343 H311 0.928 . S
C343 C341 1.406 . S
C343 N344 1.261 . S
N344 Co295 2.214 . S
N344 C342 1.325 . S
N344 C343 1.261 . S
C345 H315 0.931 . S
C345 C342 1.357 . S
C345 C346 1.312 . S
C346 H317 0.930 . S
C346 C341 1.261 . S
C346 C345 1.312 . S
C347 O319 1.214 . S
C347 O327 1.234 . S
C348 H320 0.929 . S
C348 C351 1.391 . S
C348 C353 1.391 . S
C349 H321 0.929 . S
C349 C350 1.390 . S
C349 N352 1.391 . S
C350 H322 0.930 . S
C350 C349 1.390 . S
C350 C351 1.392 . S
C351 H323 0.929 . S
C351 C348 1.391 . S
C351 C350 1.392 . S
N352 Co296 2.257 . S
N352 C349 1.391 . S
N352 C353 1.388 . S
C353 H324 0.930 . S
C353 C348 1.391 . S
C353 N352 1.388 . S
Co354 O356 2.143 . S
Co354 O362 2.074 . S
Co354 O365 2.093 . S
Co354 O378 2.097 . S
Co354 N395 2.151 . S
Co354 N403 2.214 . S
Co355 O356 2.160 . S
Co355 O361 2.058 . S
Co355 O371 2.057 . S
Co355 O386 2.037 . S
Co355 N390 2.145 . S
Co355 N411 2.257 . S
O356 Co354 2.143 . S
O356 Co355 2.160 . S
C357 O358 1.278 . S
C357 O365 1.224 . S
O358 C357 1.278 . S
C359 O360 1.245 . S
C359 O371 1.232 . S
O360 C359 1.245 . S
O361 Co355 2.058 . S
O361 C387 1.269 . S
O362 Co354 2.074 . S
O362 C387 1.257 . S
H363 C388 0.930 . S
H364 C394 0.930 . S
O365 Co354 2.093 . S
O365 C357 1.224 . S
H366 C398 0.929 . S
H367 C400 0.930 . S
H368 C401 0.930 . S
H369 C399 0.929 . S
H370 C402 0.928 . S
O371 Co355 2.057 . S
O371 C359 1.232 . S
H372 C391 0.929 . S
H373 C392 0.929 . S
H374 C404 0.931 . S
H375 C396 0.929 . S
H376 C405 0.930 . S
H377 C397 0.931 . S
O378 Co354 2.097 . S
O378 C406 1.214 . S
H379 C407 0.929 . S
H380 C408 0.929 . S
H381 C409 0.930 . S
H382 C410 0.929 . S
H383 C412 0.930 . S
H384 C389 0.930 . S
H385 C393 0.930 . S
O386 Co355 2.037 . S
O386 C406 1.234 . S
C387 O361 1.269 . S
C387 O362 1.257 . S
C388 H363 0.930 . S
C388 C391 1.388 . S
C388 C393 1.418 . S
C389 H384 0.930 . S
C389 C392 1.404 . S
C389 C393 1.353 . S
N390 Co355 2.145 . S
N390 C391 1.397 . S
N390 C392 1.334 . S
C391 H372 0.929 . S
C391 C388 1.388 . S
C391 N390 1.397 . S
C392 H373 0.929 . S
C392 C389 1.404 . S
C392 N390 1.334 . S
C393 H385 0.930 . S
C393 C388 1.418 . S
C393 C389 1.353 . S
C394 H364 0.930 . S
C394 N395 1.330 . S
C394 C396 1.446 . S
N395 Co354 2.151 . S
N395 C394 1.330 . S
N395 C399 1.418 . S
C396 H375 0.929 . S
C396 C394 1.446 . S
C396 C397 1.332 . S
C397 H377 0.931 . S
C397 C396 1.332 . S
C397 C398 1.267 . S
C398 H366 0.929 . S
C398 C397 1.267 . S
C398 C399 1.251 . S
C399 H369 0.929 . S
C399 N395 1.418 . S
C399 C398 1.251 . S
C400 H367 0.930 . S
C400 C402 1.406 . S
C400 C405 1.261 . S
C401 H368 0.930 . S
C401 N403 1.325 . S
C401 C404 1.357 . S
C402 H370 0.928 . S
C402 C400 1.406 . S
C402 N403 1.261 . S
N403 Co354 2.214 . S
N403 C401 1.325 . S
N403 C402 1.261 . S
C404 H374 0.931 . S
C404 C401 1.357 . S
C404 C405 1.312 . S
C405 H376 0.930 . S
C405 C400 1.261 . S
C405 C404 1.312 . S
C406 O378 1.214 . S
C406 O386 1.234 . S
C407 H379 0.929 . S
C407 C410 1.391 . S
C407 C412 1.391 . S
C408 H380 0.929 . S
C408 C409 1.390 . S
C408 N411 1.391 . S
C409 H381 0.930 . S
C409 C408 1.390 . S
C409 C410 1.392 . S
C410 H382 0.929 . S
C410 C407 1.391 . S
C410 C409 1.392 . S
N411 Co355 2.257 . S
N411 C408 1.391 . S
N411 C412 1.388 . S
C412 H383 0.930 . S
C412 C407 1.391 . S
C412 N411 1.388 . S
Co413 O415 2.143 . S
Co413 O421 2.074 . S
Co413 O424 2.093 . S
Co413 O437 2.097 . S
Co413 N454 2.151 . S
Co413 N462 2.214 . S
Co414 O415 2.160 . S
Co414 O420 2.058 . S
Co414 O430 2.057 . S
Co414 O445 2.037 . S
Co414 N449 2.145 . S
Co414 N470 2.257 . S
O415 Co413 2.143 . S
O415 Co414 2.160 . S
C416 O417 1.278 . S
C416 O424 1.224 . S
O417 C416 1.278 . S
C418 O419 1.245 . S
C418 O430 1.232 . S
O419 C418 1.245 . S
O420 Co414 2.058 . S
O420 C446 1.269 . S
O421 Co413 2.074 . S
O421 C446 1.257 . S
H422 C447 0.930 . S
H423 C453 0.930 . S
O424 Co413 2.093 . S
O424 C416 1.224 . S
H425 C457 0.929 . S
H426 C459 0.930 . S
H427 C460 0.925 1_556 S
H428 C458 0.929 . S
H429 C461 0.928 . S
O430 Co414 2.057 . S
O430 C418 1.232 . S
H431 C450 0.929 . S
H432 C451 0.929 . S
H433 C463 0.931 . S
H434 C455 0.929 . S
H435 C464 0.930 . S
H436 C456 0.931 . S
O437 Co413 2.097 . S
O437 C465 1.214 . S
H438 C466 0.929 . S
H439 C467 0.929 . S
H440 C468 0.930 . S
H441 C469 0.929 . S
H442 C471 0.930 . S
H443 C448 0.930 . S
H444 C452 0.930 . S
O445 Co414 2.037 . S
O445 C465 1.234 . S
C446 O420 1.269 . S
C446 O421 1.257 . S
C447 H422 0.930 . S
C447 C450 1.388 . S
C447 C452 1.418 . S
C448 H443 0.930 . S
C448 C451 1.404 . S
C448 C452 1.353 . S
N449 Co414 2.145 . S
N449 C450 1.397 . S
N449 C451 1.334 . S
C450 H431 0.929 . S
C450 C447 1.388 . S
C450 N449 1.397 . S
C451 H432 0.929 . S
C451 C448 1.404 . S
C451 N449 1.334 . S
C452 H444 0.930 . S
C452 C447 1.418 . S
C452 C448 1.353 . S
C453 H423 0.930 . S
C453 N454 1.330 . S
C453 C455 1.446 . S
N454 Co413 2.151 . S
N454 C453 1.330 . S
N454 C458 1.418 . S
C455 H434 0.929 . S
C455 C453 1.446 . S
C455 C456 1.332 . S
C456 H436 0.931 . S
C456 C455 1.332 . S
C456 C457 1.267 . S
C457 H425 0.929 . S
C457 C456 1.267 . S
C457 C458 1.251 . S
C458 H428 0.929 . S
C458 N454 1.418 . S
C458 C457 1.251 . S
C459 H426 0.930 . S
C459 C461 1.406 1_554 S
C459 C464 1.261 . S
C460 H427 0.925 1_554 S
C460 N462 1.318 1_554 S
C460 C463 1.369 . S
C461 H429 0.928 . S
C461 C459 1.406 1_556 S
C461 N462 1.261 . S
N462 Co413 2.214 . S
N462 C460 1.318 1_556 S
N462 C461 1.261 . S
C463 H433 0.931 . S
C463 C460 1.369 . S
C463 C464 1.312 . S
C464 H435 0.930 . S
C464 C459 1.261 . S
C464 C463 1.312 . S
C465 O437 1.214 . S
C465 O445 1.234 . S
C466 H438 0.929 . S
C466 C469 1.391 . S
C466 C471 1.391 . S
C467 H439 0.929 . S
C467 C468 1.390 . S
C467 N470 1.391 . S
C468 H440 0.930 . S
C468 C467 1.390 . S
C468 C469 1.392 . S
C469 H441 0.929 . S
C469 C466 1.391 . S
C469 C468 1.392 . S
N470 Co414 2.257 . S
N470 C467 1.391 . S
N470 C471 1.388 . S
C471 H442 0.930 . S
C471 C466 1.391 . S
C471 N470 1.388 . S
Co472 O474 2.143 . S
Co472 O480 2.074 . S
Co472 O483 2.093 . S
Co472 O496 2.097 . S
Co472 N513 2.151 . S
Co472 N521 2.214 . S
Co473 O474 2.160 . S
Co473 O479 2.058 . S
Co473 O489 2.057 . S
Co473 O504 2.037 . S
Co473 N508 2.145 . S
Co473 N529 2.257 . S
O474 Co472 2.143 . S
O474 Co473 2.160 . S
C475 O476 1.278 . S
C475 O483 1.224 . S
O476 C475 1.278 . S
C477 O478 1.245 . S
C477 O489 1.232 . S
O478 C477 1.245 . S
O479 Co473 2.058 . S
O479 C505 1.269 . S
O480 Co472 2.074 . S
O480 C505 1.257 . S
H481 C506 0.930 . S
H482 C512 0.930 . S
O483 Co472 2.093 . S
O483 C475 1.224 . S
H484 C516 0.929 . S
H485 C518 0.930 . S
H486 C519 0.930 . S
H487 C517 0.929 . S
H488 C520 0.928 . S
O489 Co473 2.057 . S
O489 C477 1.232 . S
H490 C509 0.929 . S
H491 C510 0.929 . S
H492 C522 0.931 . S
H493 C514 0.929 . S
H494 C523 0.930 . S
H495 C515 0.931 . S
O496 Co472 2.097 . S
O496 C524 1.214 . S
H497 C525 0.929 . S
H498 C526 0.929 . S
H499 C527 0.930 . S
H500 C528 0.929 . S
H501 C530 0.930 . S
H502 C507 0.930 . S
H503 C511 0.930 . S
O504 Co473 2.037 . S
O504 C524 1.234 . S
C505 O479 1.269 . S
C505 O480 1.257 . S
C506 H481 0.930 . S
C506 C509 1.388 . S
C506 C511 1.418 . S
C507 H502 0.930 . S
C507 C510 1.404 . S
C507 C511 1.353 . S
N508 Co473 2.145 . S
N508 C509 1.397 . S
N508 C510 1.334 . S
C509 H490 0.929 . S
C509 C506 1.388 . S
C509 N508 1.397 . S
C510 H491 0.929 . S
C510 C507 1.404 . S
C510 N508 1.334 . S
C511 H503 0.930 . S
C511 C506 1.418 . S
C511 C507 1.353 . S
C512 H482 0.930 . S
C512 N513 1.330 . S
C512 C514 1.446 . S
N513 Co472 2.151 . S
N513 C512 1.330 . S
N513 C517 1.418 . S
C514 H493 0.929 . S
C514 C512 1.446 . S
C514 C515 1.332 . S
C515 H495 0.931 . S
C515 C514 1.332 . S
C515 C516 1.267 . S
C516 H484 0.929 . S
C516 C515 1.267 . S
C516 C517 1.251 . S
C517 H487 0.929 . S
C517 N513 1.418 . S
C517 C516 1.251 . S
C518 H485 0.930 . S
C518 C520 1.406 . S
C518 C523 1.261 . S
C519 H486 0.930 . S
C519 N521 1.325 . S
C519 C522 1.357 . S
C520 H488 0.928 . S
C520 C518 1.406 . S
C520 N521 1.261 . S
N521 Co472 2.214 . S
N521 C519 1.325 . S
N521 C520 1.261 . S
C522 H492 0.931 . S
C522 C519 1.357 . S
C522 C523 1.312 . S
C523 H494 0.930 . S
C523 C518 1.261 . S
C523 C522 1.312 . S
C524 O496 1.214 . S
C524 O504 1.234 . S
C525 H497 0.929 . S
C525 C528 1.391 . S
C525 C530 1.391 . S
C526 H498 0.929 . S
C526 C527 1.390 . S
C526 N529 1.391 . S
C527 H499 0.930 . S
C527 C526 1.390 . S
C527 C528 1.392 . S
C528 H500 0.929 . S
C528 C525 1.391 . S
C528 C527 1.392 . S
N529 Co473 2.257 . S
N529 C526 1.391 . S
N529 C530 1.388 . S
C530 H501 0.930 . S
C530 C525 1.391 . S
C530 N529 1.388 . S
Co531 O533 2.143 . S
Co531 O539 2.074 . S
Co531 O542 2.093 . S
Co531 O555 2.097 . S
Co531 N572 2.151 . S
Co531 N580 2.214 . S
Co532 O533 2.160 . S
Co532 O538 2.058 . S
Co532 O548 2.057 . S
Co532 O563 2.037 . S
Co532 N567 2.145 . S
Co532 N588 2.257 . S
O533 Co531 2.143 . S
O533 Co532 2.160 . S
C534 O535 1.278 . S
C534 O542 1.224 . S
O535 C534 1.278 . S
C536 O537 1.245 . S
C536 O548 1.232 . S
O537 C536 1.245 . S
O538 Co532 2.058 . S
O538 C564 1.269 . S
O539 Co531 2.074 . S
O539 C564 1.257 . S
H540 C565 0.930 . S
H541 C571 0.930 . S
O542 Co531 2.093 . S
O542 C534 1.224 . S
H543 C575 0.929 . S
H544 C577 0.930 . S
H545 C578 0.930 . S
H546 C576 0.929 . S
H547 C579 0.928 . S
O548 Co532 2.057 . S
O548 C536 1.232 . S
H549 C568 0.929 . S
H550 C569 0.929 . S
H551 C581 0.931 . S
H552 C573 0.929 . S
H553 C582 0.930 . S
H554 C574 0.931 . S
O555 Co531 2.097 . S
O555 C583 1.214 . S
H556 C584 0.929 . S
H557 C585 0.929 . S
H558 C586 0.930 . S
H559 C587 0.929 . S
H560 C589 0.930 . S
H561 C566 0.930 . S
H562 C570 0.930 . S
O563 Co532 2.037 . S
O563 C583 1.234 . S
C564 O538 1.269 . S
C564 O539 1.257 . S
C565 H540 0.930 . S
C565 C568 1.388 . S
C565 C570 1.418 . S
C566 H561 0.930 . S
C566 C569 1.404 . S
C566 C570 1.353 . S
N567 Co532 2.145 . S
N567 C568 1.397 . S
N567 C569 1.334 . S
C568 H549 0.929 . S
C568 C565 1.388 . S
C568 N567 1.397 . S
C569 H550 0.929 . S
C569 C566 1.404 . S
C569 N567 1.334 . S
C570 H562 0.930 . S
C570 C565 1.418 . S
C570 C566 1.353 . S
C571 H541 0.930 . S
C571 N572 1.330 . S
C571 C573 1.446 . S
N572 Co531 2.151 . S
N572 C571 1.330 . S
N572 C576 1.418 . S
C573 H552 0.929 . S
C573 C571 1.446 . S
C573 C574 1.332 . S
C574 H554 0.931 . S
C574 C573 1.332 . S
C574 C575 1.267 . S
C575 H543 0.929 . S
C575 C574 1.267 . S
C575 C576 1.251 . S
C576 H546 0.929 . S
C576 N572 1.418 . S
C576 C575 1.251 . S
C577 H544 0.930 . S
C577 C579 1.406 . S
C577 C582 1.261 . S
C578 H545 0.930 . S
C578 N580 1.325 . S
C578 C581 1.357 . S
C579 H547 0.928 . S
C579 C577 1.406 . S
C579 N580 1.261 . S
N580 Co531 2.214 . S
N580 C578 1.325 . S
N580 C579 1.261 . S
C581 H551 0.931 . S
C581 C578 1.357 . S
C581 C582 1.312 . S
C582 H553 0.930 . S
C582 C577 1.261 . S
C582 C581 1.312 . S
C583 O555 1.214 . S
C583 O563 1.234 . S
C584 H556 0.929 . S
C584 C587 1.391 . S
C584 C589 1.391 . S
C585 H557 0.929 . S
C585 C586 1.390 . S
C585 N588 1.391 . S
C586 H558 0.930 . S
C586 C585 1.390 . S
C586 C587 1.392 . S
C587 H559 0.929 . S
C587 C584 1.391 . S
C587 C586 1.392 . S
N588 Co532 2.257 . S
N588 C585 1.391 . S
N588 C589 1.388 . S
C589 H560 0.930 . S
C589 C584 1.391 . S
C589 N588 1.388 . S
Co590 O592 2.143 . S
Co590 O598 2.074 . S
Co590 O601 2.093 . S
Co590 O614 2.097 . S
Co590 N631 2.151 . S
Co590 N639 2.214 . S
Co591 O592 2.160 . S
Co591 O597 2.058 . S
Co591 O607 2.057 . S
Co591 O622 2.037 . S
Co591 N626 2.145 . S
Co591 N647 2.257 . S
O592 Co590 2.143 . S
O592 Co591 2.160 . S
C593 O594 1.278 . S
C593 O601 1.224 . S
O594 C593 1.278 . S
C595 O596 1.245 . S
C595 O607 1.232 . S
O596 C595 1.245 . S
O597 Co591 2.058 . S
O597 C623 1.269 . S
O598 Co590 2.074 . S
O598 C623 1.257 . S
H599 C624 0.930 . S
H600 C630 0.930 . S
O601 Co590 2.093 . S
O601 C593 1.224 . S
H602 C634 0.929 . S
H603 C636 0.930 . S
H604 C637 0.925 1_556 S
H605 C635 0.929 . S
H606 C638 0.928 . S
O607 Co591 2.057 . S
O607 C595 1.232 . S
H608 C627 0.929 . S
H609 C628 0.929 . S
H610 C640 0.931 . S
H611 C632 0.929 . S
H612 C641 0.930 . S
H613 C633 0.931 . S
O614 Co590 2.097 . S
O614 C642 1.214 . S
H615 C643 0.929 . S
H616 C644 0.929 . S
H617 C645 0.930 . S
H618 C646 0.929 . S
H619 C648 0.930 . S
H620 C625 0.930 . S
H621 C629 0.930 . S
O622 Co591 2.037 . S
O622 C642 1.234 . S
C623 O597 1.269 . S
C623 O598 1.257 . S
C624 H599 0.930 . S
C624 C627 1.388 . S
C624 C629 1.418 . S
C625 H620 0.930 . S
C625 C628 1.404 . S
C625 C629 1.353 . S
N626 Co591 2.145 . S
N626 C627 1.397 . S
N626 C628 1.334 . S
C627 H608 0.929 . S
C627 C624 1.388 . S
C627 N626 1.397 . S
C628 H609 0.929 . S
C628 C625 1.404 . S
C628 N626 1.334 . S
C629 H621 0.930 . S
C629 C624 1.418 . S
C629 C625 1.353 . S
C630 H600 0.930 . S
C630 N631 1.330 . S
C630 C632 1.446 . S
N631 Co590 2.151 . S
N631 C630 1.330 . S
N631 C635 1.418 . S
C632 H611 0.929 . S
C632 C630 1.446 . S
C632 C633 1.332 . S
C633 H613 0.931 . S
C633 C632 1.332 . S
C633 C634 1.267 . S
C634 H602 0.929 . S
C634 C633 1.267 . S
C634 C635 1.251 . S
C635 H605 0.929 . S
C635 N631 1.418 . S
C635 C634 1.251 . S
C636 H603 0.930 . S
C636 C638 1.406 1_554 S
C636 C641 1.261 . S
C637 H604 0.925 1_554 S
C637 N639 1.318 1_554 S
C637 C640 1.369 . S
C638 H606 0.928 . S
C638 C636 1.406 1_556 S
C638 N639 1.261 . S
N639 Co590 2.214 . S
N639 C637 1.318 1_556 S
N639 C638 1.261 . S
C640 H610 0.931 . S
C640 C637 1.369 . S
C640 C641 1.312 . S
C641 H612 0.930 . S
C641 C636 1.261 . S
C641 C640 1.312 . S
C642 O614 1.214 . S
C642 O622 1.234 . S
C643 H615 0.929 . S
C643 C646 1.391 . S
C643 C648 1.391 . S
C644 H616 0.929 . S
C644 C645 1.390 . S
C644 N647 1.391 . S
C645 H617 0.930 . S
C645 C644 1.390 . S
C645 C646 1.392 . S
C646 H618 0.929 . S
C646 C643 1.391 . S
C646 C645 1.392 . S
N647 Co591 2.257 . S
N647 C644 1.391 . S
N647 C648 1.388 . S
C648 H619 0.930 . S
C648 C643 1.391 . S
C648 N647 1.388 . S
Co649 O651 2.143 . S
Co649 O657 2.074 . S
Co649 O660 2.093 . S
Co649 O673 2.097 . S
Co649 N690 2.151 . S
Co649 N698 2.214 . S
Co650 O651 2.160 . S
Co650 O656 2.058 . S
Co650 O666 2.057 . S
Co650 O681 2.037 . S
Co650 N685 2.145 . S
Co650 N706 2.257 . S
O651 Co649 2.143 . S
O651 Co650 2.160 . S
C652 O653 1.278 . S
C652 O660 1.224 . S
O653 C652 1.278 . S
C654 O655 1.245 . S
C654 O666 1.232 . S
O655 C654 1.245 . S
O656 Co650 2.058 . S
O656 C682 1.269 . S
O657 Co649 2.074 . S
O657 C682 1.257 . S
H658 C683 0.930 . S
H659 C689 0.930 . S
O660 Co649 2.093 . S
O660 C652 1.224 . S
H661 C693 0.929 . S
H662 C695 0.930 . S
H663 C696 0.930 . S
H664 C694 0.929 . S
H665 C697 0.928 . S
O666 Co650 2.057 . S
O666 C654 1.232 . S
H667 C686 0.929 . S
H668 C687 0.929 . S
H669 C699 0.931 . S
H670 C691 0.929 . S
H671 C700 0.930 . S
H672 C692 0.931 . S
O673 Co649 2.097 . S
O673 C701 1.214 . S
H674 C702 0.929 . S
H675 C703 0.929 . S
H676 C704 0.930 . S
H677 C705 0.929 . S
H678 C707 0.930 . S
H679 C684 0.930 . S
H680 C688 0.930 . S
O681 Co650 2.037 . S
O681 C701 1.234 . S
C682 O656 1.269 . S
C682 O657 1.257 . S
C683 H658 0.930 . S
C683 C686 1.388 . S
C683 C688 1.418 . S
C684 H679 0.930 . S
C684 C687 1.404 . S
C684 C688 1.353 . S
N685 Co650 2.145 . S
N685 C686 1.397 . S
N685 C687 1.334 . S
C686 H667 0.929 . S
C686 C683 1.388 . S
C686 N685 1.397 . S
C687 H668 0.929 . S
C687 C684 1.404 . S
C687 N685 1.334 . S
C688 H680 0.930 . S
C688 C683 1.418 . S
C688 C684 1.353 . S
C689 H659 0.930 . S
C689 N690 1.330 . S
C689 C691 1.446 . S
N690 Co649 2.151 . S
N690 C689 1.330 . S
N690 C694 1.418 . S
C691 H670 0.929 . S
C691 C689 1.446 . S
C691 C692 1.332 . S
C692 H672 0.931 . S
C692 C691 1.332 . S
C692 C693 1.267 . S
C693 H661 0.929 . S
C693 C692 1.267 . S
C693 C694 1.251 . S
C694 H664 0.929 . S
C694 N690 1.418 . S
C694 C693 1.251 . S
C695 H662 0.930 . S
C695 C697 1.406 . S
C695 C700 1.261 . S
C696 H663 0.930 . S
C696 N698 1.325 . S
C696 C699 1.357 . S
C697 H665 0.928 . S
C697 C695 1.406 . S
C697 N698 1.261 . S
N698 Co649 2.214 . S
N698 C696 1.325 . S
N698 C697 1.261 . S
C699 H669 0.931 . S
C699 C696 1.357 . S
C699 C700 1.312 . S
C700 H671 0.930 . S
C700 C695 1.261 . S
C700 C699 1.312 . S
C701 O673 1.214 . S
C701 O681 1.234 . S
C702 H674 0.929 . S
C702 C705 1.391 . S
C702 C707 1.391 . S
C703 H675 0.929 . S
C703 C704 1.390 . S
C703 N706 1.391 . S
C704 H676 0.930 . S
C704 C703 1.390 . S
C704 C705 1.392 . S
C705 H677 0.929 . S
C705 C702 1.391 . S
C705 C704 1.392 . S
N706 Co650 2.257 . S
N706 C703 1.391 . S
N706 C707 1.388 . S
C707 H678 0.930 . S
C707 C702 1.391 . S
C707 N706 1.388 . S
H708 C716 0.929 . S
H709 C718 0.930 . S
H710 C720 0.930 . S
H711 C723 0.929 . S
H712 C726 0.930 . S
H713 C728 0.984 . S
H714 C728 0.967 1_565 S
H715 C728 0.924 1_565 S
C716 H708 0.929 . S
C716 C717 1.377 . S
C716 C718 1.384 . S
C717 C716 1.377 . S
C717 C723 1.390 . S
C718 H709 0.930 . S
C718 C716 1.384 . S
C718 C719 1.372 . S
C719 C718 1.372 . S
C719 C720 1.400 . S
C719 C724 1.490 . S
C720 H710 0.930 . S
C720 C719 1.400 . S
C720 C723 1.386 . S
H721 C737 0.930 . S
H722 C738 0.931 . S
C723 H711 0.929 . S
C723 C717 1.390 . S
C723 C720 1.386 . S
C724 C719 1.490 . S
C724 C726 1.395 1_556 S
C724 C727 1.403 . S
H725 C731 0.930 . S
C726 H712 0.930 . S
C726 C724 1.395 1_554 S
C726 C729 1.426 . S
C727 C724 1.403 . S
C727 C728 1.530 1_565 S
C727 C731 1.400 1_565 S
C728 H713 0.984 . S
C728 H714 0.967 1_545 S
C728 H715 0.924 1_545 S
C728 C727 1.530 1_545 S
C729 C726 1.426 . S
C729 C730 1.377 1_565 S
C729 C733 1.489 . S
C730 C729 1.377 1_545 S
C730 C731 1.385 1_554 S
C730 C732 1.478 . S
C731 H725 0.930 . S
C731 C727 1.400 1_545 S
C731 C730 1.385 1_556 S
C732 C730 1.478 . S
C732 C734 1.381 . S
C732 C738 1.383 . S
C733 C729 1.489 . S
C733 H739 0.959 . S
C733 H740 0.961 1_565 S
C733 H741 0.960 1_565 S
C734 C732 1.381 . S
C734 C735 1.394 . S
C734 H742 0.930 . S
C735 C734 1.394 . S
C735 C736 1.383 . S
C735 H743 0.929 . S
C736 C735 1.383 . S
C736 C737 1.377 . S
C737 H721 0.930 . S
C737 C736 1.377 . S
C737 C738 1.379 . S
C738 H722 0.931 . S
C738 C732 1.383 . S
C738 C737 1.379 . S
H739 C733 0.959 . S
H740 C733 0.961 1_545 S
H741 C733 0.960 1_545 S
H742 C734 0.930 . S
H743 C735 0.929 . S
H744 C752 0.929 . S
H745 C754 0.930 . S
H746 C756 0.930 . S
H747 C759 0.929 . S
H748 C762 0.930 . S
H749 C764 0.960 . S
H750 C764 0.960 . S
H751 C764 0.960 . S
C752 H744 0.929 . S
C752 C753 1.377 . S
C752 C754 1.384 . S
C753 C752 1.377 . S
C753 C759 1.390 . S
C754 H745 0.930 . S
C754 C752 1.384 . S
C754 C755 1.372 . S
C755 C754 1.372 . S
C755 C756 1.400 . S
C755 C760 1.490 . S
C756 H746 0.930 . S
C756 C755 1.400 . S
C756 C759 1.386 . S
H757 C773 0.930 . S
H758 C774 0.931 . S
C759 H747 0.929 . S
C759 C753 1.390 . S
C759 C756 1.386 . S
C760 C755 1.490 . S
C760 C762 1.395 . S
C760 C763 1.403 . S
H761 C767 0.930 . S
C762 H748 0.930 . S
C762 C760 1.395 . S
C762 C765 1.403 . S
C763 C760 1.403 . S
C763 C764 1.524 . S
C763 C767 1.400 . S
C764 H749 0.960 . S
C764 H750 0.960 . S
C764 H751 0.960 . S
C764 C763 1.524 . S
C765 C762 1.403 . S
C765 C766 1.392 . S
C765 C769 1.495 . S
C766 C765 1.392 . S
C766 C767 1.385 . S
C766 C768 1.478 . S
C767 H761 0.930 . S
C767 C763 1.400 . S
C767 C766 1.385 . S
C768 C766 1.478 . S
C768 C770 1.381 . S
C768 C774 1.383 . S
C769 C765 1.495 . S
C769 H775 0.959 . S
C769 H776 0.961 . S
C769 H777 0.960 . S
C770 C768 1.381 . S
C770 C771 1.394 . S
C770 H778 0.930 . S
C771 C770 1.394 . S
C771 C772 1.383 . S
C771 H779 0.929 . S
C772 C771 1.383 . S
C772 C773 1.377 . S
C773 H757 0.930 . S
C773 C772 1.377 . S
C773 C774 1.379 . S
C774 H758 0.931 . S
C774 C768 1.383 . S
C774 C773 1.379 . S
H775 C769 0.959 . S
H776 C769 0.961 . S
H777 C769 0.960 . S
H778 C770 0.930 . S
H779 C771 0.929 . S
H780 C788 0.929 . S
H781 C790 0.930 . S
H782 C792 0.930 . S
H783 C795 0.929 . S
H784 C798 0.930 . S
H785 C800 0.960 . S
H786 C800 0.960 . S
H787 C800 0.960 . S
C788 H780 0.929 . S
C788 C789 1.377 . S
C788 C790 1.384 . S
C789 C788 1.377 . S
C789 C795 1.390 . S
C790 H781 0.930 . S
C790 C788 1.384 . S
C790 C791 1.372 . S
C791 C790 1.372 . S
C791 C792 1.400 . S
C791 C796 1.490 . S
C792 H782 0.930 . S
C792 C791 1.400 . S
C792 C795 1.386 . S
H793 C809 0.930 . S
H794 C810 0.931 . S
C795 H783 0.929 . S
C795 C789 1.390 . S
C795 C792 1.386 . S
C796 C791 1.490 . S
C796 C798 1.398 . S
C796 C799 1.403 . S
H797 C803 0.930 . S
C798 H784 0.930 . S
C798 C796 1.398 . S
C798 C801 1.401 1_655 S
C799 C796 1.403 . S
C799 C800 1.524 . S
C799 C803 1.400 1_655 S
C800 H785 0.960 . S
C800 H786 0.960 . S
C800 H787 0.960 . S
C800 C799 1.524 . S
C801 C798 1.401 1_455 S
C801 C802 1.392 . S
C801 C805 1.495 . S
C802 C801 1.392 . S
C802 C803 1.385 . S
C802 C804 1.478 . S
C803 H797 0.930 . S
C803 C799 1.400 1_455 S
C803 C802 1.385 . S
C804 C802 1.478 . S
C804 C806 1.381 . S
C804 C810 1.383 . S
C805 C801 1.495 . S
C805 H811 0.959 . S
C805 H812 0.961 . S
C805 H813 0.960 . S
C806 C804 1.381 . S
C806 C807 1.394 . S
C806 H814 0.930 . S
C807 C806 1.394 . S
C807 C808 1.383 . S
C807 H815 0.929 . S
C808 C807 1.383 . S
C808 C809 1.377 . S
C809 H793 0.930 . S
C809 C808 1.377 . S
C809 C810 1.379 . S
C810 H794 0.931 . S
C810 C804 1.383 . S
C810 C809 1.379 . S
H811 C805 0.959 . S
H812 C805 0.961 . S
H813 C805 0.960 . S
H814 C806 0.930 . S
H815 C807 0.929 . S
H816 C824 0.929 . S
H817 C826 0.930 . S
H818 C828 0.919 1_556 S
H819 C831 0.929 . S
H820 C834 0.930 . S
H821 C836 0.960 . S
H822 C836 0.960 . S
H823 C836 0.960 . S
C824 H816 0.929 . S
C824 C825 1.377 . S
C824 C826 1.384 . S
C825 C824 1.377 . S
C825 C831 1.390 . S
C826 H817 0.930 . S
C826 C824 1.384 . S
C826 C827 1.372 . S
C827 C826 1.372 . S
C827 C828 1.400 . S
C827 C832 1.490 . S
C828 H818 0.919 1_554 S
C828 C827 1.400 . S
C828 C831 1.386 . S
H829 C845 0.930 . S
H830 C846 0.931 . S
C831 H819 0.929 . S
C831 C825 1.390 . S
C831 C828 1.386 . S
C832 C827 1.490 . S
C832 C834 1.395 . S
C832 C835 1.403 1_554 S
H833 C839 0.930 . S
C834 H820 0.930 . S
C834 C832 1.395 . S
C834 C837 1.403 1_565 S
C835 C832 1.403 1_556 S
C835 C836 1.524 . S
C835 C839 1.400 1_565 S
C836 H821 0.960 . S
C836 H822 0.960 . S
C836 H823 0.960 . S
C836 C835 1.524 . S
C837 C834 1.403 1_545 S
C837 C838 1.392 1_554 S
C837 C841 1.495 . S
C838 C837 1.392 1_556 S
C838 C839 1.385 . S
C838 C840 1.478 . S
C839 H833 0.930 . S
C839 C835 1.400 1_545 S
C839 C838 1.385 . S
C840 C838 1.478 . S
C840 C842 1.381 . S
C840 C846 1.383 . S
C841 C837 1.495 . S
C841 H847 0.959 . S
C841 H848 0.961 . S
C841 H849 0.960 . S
C842 C840 1.381 . S
C842 C843 1.394 . S
C842 H850 0.930 1_556 S
C843 C842 1.394 . S
C843 C844 1.383 . S
C843 H851 0.929 . S
C844 C843 1.383 . S
C844 C845 1.377 . S
C845 H829 0.930 . S
C845 C844 1.377 . S
C845 C846 1.379 . S
C846 H830 0.931 . S
C846 C840 1.383 . S
C846 C845 1.379 . S
H847 C841 0.959 . S
H848 C841 0.961 . S
H849 C841 0.960 . S
H850 C842 0.930 1_554 S
H851 C843 0.929 . S
H852 C860 0.929 . S
H853 C862 0.930 . S
H854 C864 0.930 . S
H855 C867 0.929 . S
H856 C870 0.930 . S
H857 C872 0.960 . S
H858 C872 0.960 . S
H859 C872 0.960 . S
C860 H852 0.929 . S
C860 C861 1.377 . S
C860 C862 1.384 . S
C861 C860 1.377 . S
C861 C867 1.390 . S
C862 H853 0.930 . S
C862 C860 1.384 . S
C862 C863 1.372 . S
C863 C862 1.372 . S
C863 C864 1.400 . S
C863 C868 1.490 . S
C864 H854 0.930 . S
C864 C863 1.400 . S
C864 C867 1.386 . S
H865 C881 0.930 . S
H866 C882 0.931 . S
C867 H855 0.929 . S
C867 C861 1.390 . S
C867 C864 1.386 . S
C868 C863 1.490 . S
C868 C870 1.395 . S
C868 C871 1.403 . S
H869 C875 0.930 . S
C870 H856 0.930 . S
C870 C868 1.395 . S
C870 C873 1.403 . S
C871 C868 1.403 . S
C871 C872 1.524 . S
C871 C875 1.400 . S
C872 H857 0.960 . S
C872 H858 0.960 . S
C872 H859 0.960 . S
C872 C871 1.524 . S
C873 C870 1.403 . S
C873 C874 1.392 . S
C873 C877 1.495 . S
C874 C873 1.392 . S
C874 C875 1.385 . S
C874 C876 1.478 . S
C875 H869 0.930 . S
C875 C871 1.400 . S
C875 C874 1.385 . S
C876 C874 1.478 . S
C876 C878 1.381 . S
C876 C882 1.383 . S
C877 C873 1.495 . S
C877 H883 0.959 . S
C877 H884 0.961 . S
C877 H885 0.960 . S
C878 C876 1.381 . S
C878 C879 1.394 . S
C878 H886 0.930 . S
C879 C878 1.394 . S
C879 C880 1.383 . S
C879 H887 0.929 . S
C880 C879 1.383 . S
C880 C881 1.377 . S
C881 H865 0.930 . S
C881 C880 1.377 . S
C881 C882 1.379 . S
C882 H866 0.931 . S
C882 C876 1.383 . S
C882 C881 1.379 . S
H883 C877 0.959 . S
H884 C877 0.961 . S
H885 C877 0.960 . S
H886 C878 0.930 . S
H887 C879 0.929 . S
H888 C896 0.929 . S
H889 C898 0.930 . S
H890 C900 0.930 . S
H891 C903 0.929 . S
H892 C906 0.930 . S
H893 C908 0.960 . S
H894 C908 0.960 . S
H895 C908 0.960 . S
C896 H888 0.929 . S
C896 C897 1.377 . S
C896 C898 1.384 . S
C897 C896 1.377 . S
C897 C903 1.390 . S
C898 H889 0.930 . S
C898 C896 1.384 . S
C898 C899 1.372 . S
C899 C898 1.372 . S
C899 C900 1.400 . S
C899 C904 1.490 . S
C900 H890 0.930 . S
C900 C899 1.400 . S
C900 C903 1.386 . S
H901 C917 0.930 . S
H902 C918 0.931 . S
C903 H891 0.929 . S
C903 C897 1.390 . S
C903 C900 1.386 . S
C904 C899 1.490 . S
C904 C906 1.395 . S
C904 C907 1.403 . S
H905 C911 0.930 . S
C906 H892 0.930 . S
C906 C904 1.395 . S
C906 C909 1.403 1_655 S
C907 C904 1.403 . S
C907 C908 1.524 . S
C907 C911 1.400 1_655 S
C908 H893 0.960 . S
C908 H894 0.960 . S
C908 H895 0.960 . S
C908 C907 1.524 . S
C909 C906 1.403 1_455 S
C909 C910 1.392 . S
C909 C913 1.495 . S
C910 C909 1.392 . S
C910 C911 1.385 . S
C910 C912 1.478 . S
C911 H905 0.930 . S
C911 C907 1.400 1_455 S
C911 C910 1.385 . S
C912 C910 1.478 . S
C912 C914 1.381 . S
C912 C918 1.383 . S
C913 C909 1.495 . S
C913 H919 0.959 . S
C913 H920 0.961 . S
C913 H921 0.960 . S
C914 C912 1.381 . S
C914 C915 1.394 . S
C914 H922 0.930 . S
C915 C914 1.394 . S
C915 C916 1.383 . S
C915 H923 0.929 . S
C916 C915 1.383 . S
C916 C917 1.377 . S
C917 H901 0.930 . S
C917 C916 1.377 . S
C917 C918 1.379 . S
C918 H902 0.931 . S
C918 C912 1.383 . S
C918 C917 1.379 . S
H919 C913 0.959 . S
H920 C913 0.961 . S
H921 C913 0.960 . S
H922 C914 0.930 . S
H923 C915 0.929 . S
H924 C932 0.929 . S
H925 C934 0.930 1_554 S
H926 C936 0.930 . S
H927 C939 0.929 . S
H928 C942 0.939 . S
H929 C944 0.960 . S
H930 C944 0.935 1_554 S
H931 C944 0.960 . S
C932 H924 0.929 . S
C932 C933 1.377 . S
C932 C934 1.384 . S
C933 C932 1.377 . S
C933 C939 1.390 . S
C934 H925 0.930 1_556 S
C934 C932 1.384 . S
C934 C935 1.372 . S
C935 C934 1.372 . S
C935 C936 1.400 . S
C935 C940 1.490 . S
C936 H926 0.930 . S
C936 C935 1.400 . S
C936 C939 1.386 . S
H937 C953 0.930 . S
H938 C954 0.931 1_556 S
C939 H927 0.929 . S
C939 C933 1.390 . S
C939 C936 1.386 . S
C940 C935 1.490 . S
C940 C942 1.411 . S
C940 C943 1.403 . S
H941 C947 0.930 . S
C942 H928 0.939 . S
C942 C940 1.411 . S
C942 C945 1.383 1_556 S
C943 C940 1.403 . S
C943 C944 1.524 . S
C943 C947 1.400 1_556 S
C944 H929 0.960 . S
C944 H930 0.935 1_556 S
C944 H931 0.960 . S
C944 C943 1.524 . S
C945 C942 1.383 1_554 S
C945 C946 1.392 . S
C945 C949 1.495 . S
C946 C945 1.392 . S
C946 C947 1.385 . S
C946 C948 1.478 . S
C947 H941 0.930 . S
C947 C943 1.400 1_554 S
C947 C946 1.385 . S
C948 C946 1.478 . S
C948 C950 1.381 . S
C948 C954 1.383 . S
C949 C945 1.495 . S
C949 H955 0.959 . S
C949 H956 0.961 . S
C949 H957 0.960 . S
C950 C948 1.381 . S
C950 C951 1.394 . S
C950 H958 0.930 . S
C951 C950 1.394 . S
C951 C952 1.383 . S
C951 H959 0.929 . S
C952 C951 1.383 . S
C952 C953 1.377 . S
C953 H937 0.930 . S
C953 C952 1.377 . S
C953 C954 1.379 . S
C954 H938 0.931 1_554 S
C954 C948 1.383 . S
C954 C953 1.379 . S
H955 C949 0.959 . S
H956 C949 0.961 . S
H957 C949 0.960 . S
H958 C950 0.930 . S
H959 C951 0.929 . S
H960 C968 0.929 . S
H961 C970 0.930 . S
H962 C972 0.930 . S
H963 C975 0.929 . S
H964 C978 0.930 . S
H965 C980 0.960 . S
H966 C980 0.960 . S
H967 C980 0.960 . S
C968 H960 0.929 . S
C968 C969 1.377 . S
C968 C970 1.384 . S
C969 C968 1.377 . S
C969 C975 1.390 . S
C970 H961 0.930 . S
C970 C968 1.384 . S
C970 C971 1.372 . S
C971 C970 1.372 . S
C971 C972 1.400 . S
C971 C976 1.490 . S
C972 H962 0.930 . S
C972 C971 1.400 . S
C972 C975 1.386 . S
H973 C989 0.930 . S
H974 C990 0.931 . S
C975 H963 0.929 . S
C975 C969 1.390 . S
C975 C972 1.386 . S
C976 C971 1.490 . S
C976 C978 1.395 . S
C976 C979 1.403 . S
H977 C983 0.930 . S
C978 H964 0.930 . S
C978 C976 1.395 . S
C978 C981 1.403 . S
C979 C976 1.403 . S
C979 C980 1.524 . S
C979 C983 1.400 . S
C980 H965 0.960 . S
C980 H966 0.960 . S
C980 H967 0.960 . S
C980 C979 1.524 . S
C981 C978 1.403 . S
C981 C982 1.392 . S
C981 C985 1.495 . S
C982 C981 1.392 . S
C982 C983 1.385 . S
C982 C984 1.478 . S
C983 H977 0.930 . S
C983 C979 1.400 . S
C983 C982 1.385 . S
C984 C982 1.478 . S
C984 C986 1.381 . S
C984 C990 1.383 . S
C985 C981 1.495 . S
C985 H991 0.959 . S
C985 H992 0.961 . S
C985 H993 0.960 . S
C986 C984 1.381 . S
C986 C987 1.394 . S
C986 H994 0.930 . S
C987 C986 1.394 . S
C987 C988 1.383 . S
C987 H995 0.929 . S
C988 C987 1.383 . S
C988 C989 1.377 . S
C989 H973 0.930 . S
C989 C988 1.377 . S
C989 C990 1.379 . S
C990 H974 0.931 . S
C990 C984 1.383 . S
C990 C989 1.379 . S
H991 C985 0.959 . S
H992 C985 0.961 . S
H993 C985 0.960 . S
H994 C986 0.930 . S
H995 C987 0.929 . S
H996 C1004 0.929 . S
H997 C1006 0.930 . S
H998 C1008 0.930 . S
H999 C1011 0.929 . S
H1000 C1014 0.930 . S
H1001 C1016 0.960 . S
H1002 C1016 0.960 . S
H1003 C1016 0.960 . S
C1004 H996 0.929 . S
C1004 C1005 1.377 . S
C1004 C1006 1.384 . S
C1005 C1004 1.377 . S
C1005 C1011 1.390 . S
C1006 H997 0.930 . S
C1006 C1004 1.384 . S
C1006 C1007 1.372 . S
C1007 C1006 1.372 . S
C1007 C1008 1.400 . S
C1007 C1012 1.490 . S
C1008 H998 0.930 . S
C1008 C1007 1.400 . S
C1008 C1011 1.386 . S
H1009 C1025 0.930 . S
H1010 C1026 0.931 . S
C1011 H999 0.929 . S
C1011 C1005 1.390 . S
C1011 C1008 1.386 . S
C1012 C1007 1.490 . S
C1012 C1014 1.395 . S
C1012 C1015 1.403 . S
H1013 C1019 0.930 . S
C1014 H1000 0.930 . S
C1014 C1012 1.395 . S
C1014 C1017 1.403 . S
C1015 C1012 1.403 . S
C1015 C1016 1.524 . S
C1015 C1019 1.400 . S
C1016 H1001 0.960 . S
C1016 H1002 0.960 . S
C1016 H1003 0.960 . S
C1016 C1015 1.524 . S
C1017 C1014 1.403 . S
C1017 C1018 1.392 . S
C1017 C1021 1.495 . S
C1018 C1017 1.392 . S
C1018 C1019 1.385 . S
C1018 C1020 1.478 . S
C1019 H1013 0.930 . S
C1019 C1015 1.400 . S
C1019 C1018 1.385 . S
C1020 C1018 1.478 . S
C1020 C1022 1.381 . S
C1020 C1026 1.383 . S
C1021 C1017 1.495 . S
C1021 H1027 0.959 . S
C1021 H1028 0.961 . S
C1021 H1029 0.960 . S
C1022 C1020 1.381 . S
C1022 C1023 1.394 . S
C1022 H1030 0.930 . S
C1023 C1022 1.394 . S
C1023 C1024 1.383 . S
C1023 H1031 0.929 . S
C1024 C1023 1.383 . S
C1024 C1025 1.377 . S
C1025 H1009 0.930 . S
C1025 C1024 1.377 . S
C1025 C1026 1.379 . S
C1026 H1010 0.931 . S
C1026 C1020 1.383 . S
C1026 C1025 1.379 . S
H1027 C1021 0.959 . S
H1028 C1021 0.961 . S
H1029 C1021 0.960 . S
H1030 C1022 0.930 . S
H1031 C1023 0.929 . S
H1032 C1040 0.929 . S
H1033 C1042 0.930 . S
H1034 C1044 0.963 . S
H1035 C1047 0.929 . S
H1036 C1050 0.930 . S
H1037 C1052 0.960 . S
H1038 C1052 0.960 . S
H1039 C1052 0.960 . S
C1040 H1032 0.929 . S
C1040 C1041 1.377 . S
C1040 C1042 1.384 . S
C1041 C1040 1.377 . S
C1041 C1047 1.390 . S
C1042 H1033 0.930 . S
C1042 C1040 1.384 . S
C1042 C1043 1.372 . S
C1043 C1042 1.372 . S
C1043 C1044 1.400 . S
C1043 C1048 1.490 . S
C1044 H1034 0.963 . S
C1044 C1043 1.400 . S
C1044 C1047 1.386 . S
H1045 C1061 0.930 . S
H1046 C1062 0.931 . S
C1047 H1035 0.929 . S
C1047 C1041 1.390 . S
C1047 C1044 1.386 . S
C1048 C1043 1.490 . S
C1048 C1050 1.395 1_556 S
C1048 C1051 1.403 . S
H1049 C1055 0.930 . S
C1050 H1036 0.930 . S
C1050 C1048 1.395 1_554 S
C1050 C1053 1.403 . S
C1051 C1048 1.403 . S
C1051 C1052 1.524 . S
C1051 C1055 1.400 . S
C1052 H1037 0.960 . S
C1052 H1038 0.960 . S
C1052 H1039 0.960 . S
C1052 C1051 1.524 . S
C1053 C1050 1.403 . S
C1053 C1054 1.392 . S
C1053 C1057 1.495 . S
C1054 C1053 1.392 . S
C1054 C1055 1.385 1_554 S
C1054 C1056 1.478 . S
C1055 H1049 0.930 . S
C1055 C1051 1.400 . S
C1055 C1054 1.385 1_556 S
C1056 C1054 1.478 . S
C1056 C1058 1.381 . S
C1056 C1062 1.383 . S
C1057 C1053 1.495 . S
C1057 H1063 0.959 . S
C1057 H1064 0.961 . S
C1057 H1065 0.960 . S
C1058 C1056 1.381 . S
C1058 C1059 1.394 . S
C1058 H1066 0.921 1_554 S
C1059 C1058 1.394 . S
C1059 C1060 1.383 . S
C1059 H1067 0.929 . S
C1060 C1059 1.383 . S
C1060 C1061 1.377 . S
C1061 H1045 0.930 . S
C1061 C1060 1.377 . S
C1061 C1062 1.379 . S
C1062 H1046 0.931 . S
C1062 C1056 1.383 . S
C1062 C1061 1.379 . S
H1063 C1057 0.959 . S
H1064 C1057 0.961 . S
H1065 C1057 0.960 . S
H1066 C1058 0.921 1_556 S
H1067 C1059 0.929 . S
H1068 C1076 0.929 . S
H1069 C1078 0.930 . S
H1070 C1080 0.930 . S
H1071 C1083 0.929 . S
H1072 C1086 0.930 . S
H1073 C1088 0.960 . S
H1074 C1088 0.960 . S
H1075 C1088 0.960 . S
C1076 H1068 0.929 . S
C1076 C1077 1.377 . S
C1076 C1078 1.384 . S
C1077 C1076 1.377 . S
C1077 C1083 1.390 . S
C1078 H1069 0.930 . S
C1078 C1076 1.384 . S
C1078 C1079 1.372 . S
C1079 C1078 1.372 . S
C1079 C1080 1.400 . S
C1079 C1084 1.490 . S
C1080 H1070 0.930 . S
C1080 C1079 1.400 . S
C1080 C1083 1.386 . S
H1081 C1097 0.930 . S
H1082 C1098 0.931 . S
C1083 H1071 0.929 . S
C1083 C1077 1.390 . S
C1083 C1080 1.386 . S
C1084 C1079 1.490 . S
C1084 C1086 1.395 . S
C1084 C1087 1.403 . S
H1085 C1091 0.930 . S
C1086 H1072 0.930 . S
C1086 C1084 1.395 . S
C1086 C1089 1.403 . S
C1087 C1084 1.403 . S
C1087 C1088 1.524 . S
C1087 C1091 1.400 . S
C1088 H1073 0.960 . S
C1088 H1074 0.960 . S
C1088 H1075 0.960 . S
C1088 C1087 1.524 . S
C1089 C1086 1.403 . S
C1089 C1090 1.392 . S
C1089 C1093 1.495 . S
C1090 C1089 1.392 . S
C1090 C1091 1.385 . S
C1090 C1092 1.478 . S
C1091 H1085 0.930 . S
C1091 C1087 1.400 . S
C1091 C1090 1.385 . S
C1092 C1090 1.478 . S
C1092 C1094 1.381 . S
C1092 C1098 1.383 . S
C1093 C1089 1.495 . S
C1093 H1099 0.959 . S
C1093 H1100 0.961 . S
C1093 H1101 0.960 . S
C1094 C1092 1.381 . S
C1094 C1095 1.394 . S
C1094 H1102 0.930 . S
C1095 C1094 1.394 . S
C1095 C1096 1.383 . S
C1095 H1103 0.929 . S
C1096 C1095 1.383 . S
C1096 C1097 1.377 . S
C1097 H1081 0.930 . S
C1097 C1096 1.377 . S
C1097 C1098 1.379 . S
C1098 H1082 0.931 . S
C1098 C1092 1.383 . S
C1098 C1097 1.379 . S
H1099 C1093 0.959 . S
H1100 C1093 0.961 . S
H1101 C1093 0.960 . S
H1102 C1094 0.930 . S
H1103 C1095 0.929 . S
H1104 C1112 0.929 . S
H1105 C1114 0.930 . S
H1106 C1116 0.930 . S
H1107 C1119 0.929 . S
H1108 C1122 0.930 . S
H1109 C1124 0.960 . S
H1110 C1124 0.960 . S
H1111 C1124 0.960 . S
C1112 H1104 0.929 . S
C1112 C1113 1.377 . S
C1112 C1114 1.384 . S
C1113 C1112 1.377 . S
C1113 C1119 1.390 . S
C1114 H1105 0.930 . S
C1114 C1112 1.384 . S
C1114 C1115 1.372 . S
C1115 C1114 1.372 . S
C1115 C1116 1.400 . S
C1115 C1120 1.490 . S
C1116 H1106 0.930 . S
C1116 C1115 1.400 . S
C1116 C1119 1.386 . S
H1117 C1133 0.930 . S
H1118 C1134 0.931 . S
C1119 H1107 0.929 . S
C1119 C1113 1.390 . S
C1119 C1116 1.386 . S
C1120 C1115 1.490 . S
C1120 C1122 1.395 . S
C1120 C1123 1.403 . S
H1121 C1127 0.930 . S
C1122 H1108 0.930 . S
C1122 C1120 1.395 . S
C1122 C1125 1.403 . S
C1123 C1120 1.403 . S
C1123 C1124 1.524 . S
C1123 C1127 1.400 . S
C1124 H1109 0.960 . S
C1124 H1110 0.960 . S
C1124 H1111 0.960 . S
C1124 C1123 1.524 . S
C1125 C1122 1.403 . S
C1125 C1126 1.392 . S
C1125 C1129 1.495 . S
C1126 C1125 1.392 . S
C1126 C1127 1.385 . S
C1126 C1128 1.478 . S
C1127 H1121 0.930 . S
C1127 C1123 1.400 . S
C1127 C1126 1.385 . S
C1128 C1126 1.478 . S
C1128 C1130 1.381 . S
C1128 C1134 1.383 . S
C1129 C1125 1.495 . S
C1129 H1135 0.959 . S
C1129 H1136 0.961 . S
C1129 H1137 0.960 . S
C1130 C1128 1.381 . S
C1130 C1131 1.394 . S
C1130 H1138 0.930 . S
C1131 C1130 1.394 . S
C1131 C1132 1.383 . S
C1131 H1139 0.929 . S
C1132 C1131 1.383 . S
C1132 C1133 1.377 . S
C1133 H1117 0.930 . S
C1133 C1132 1.377 . S
C1133 C1134 1.379 . S
C1134 H1118 0.931 . S
C1134 C1128 1.383 . S
C1134 C1133 1.379 . S
H1135 C1129 0.959 . S
H1136 C1129 0.961 . S
H1137 C1129 0.960 . S
H1138 C1130 0.930 . S
H1139 C1131 0.929 . S
H1140 C1148 0.929 . S
H1141 C1150 0.930 . S
H1142 C1152 0.930 . S
H1143 C1155 0.929 . S
H1144 C1158 0.930 . S
H1145 C1160 0.960 . S
H1146 C1160 0.960 . S
H1147 C1160 0.960 . S
C1148 H1140 0.929 . S
C1148 C1149 1.377 . S
C1148 C1150 1.384 . S
C1149 C1148 1.377 . S
C1149 C1155 1.390 . S
C1150 H1141 0.930 . S
C1150 C1148 1.384 . S
C1150 C1151 1.372 . S
C1151 C1150 1.372 . S
C1151 C1152 1.400 . S
C1151 C1156 1.490 . S
C1152 H1142 0.930 . S
C1152 C1151 1.400 . S
C1152 C1155 1.386 . S
H1153 C1169 0.930 . S
H1154 C1170 0.931 . S
C1155 H1143 0.929 . S
C1155 C1149 1.390 . S
C1155 C1152 1.386 . S
C1156 C1151 1.490 . S
C1156 C1158 1.395 . S
C1156 C1159 1.403 . S
H1157 C1163 0.930 . S
C1158 H1144 0.930 . S
C1158 C1156 1.395 . S
C1158 C1161 1.403 . S
C1159 C1156 1.403 . S
C1159 C1160 1.524 . S
C1159 C1163 1.400 . S
C1160 H1145 0.960 . S
C1160 H1146 0.960 . S
C1160 H1147 0.960 . S
C1160 C1159 1.524 . S
C1161 C1158 1.403 . S
C1161 C1162 1.392 . S
C1161 C1165 1.495 . S
C1162 C1161 1.392 . S
C1162 C1163 1.385 . S
C1162 C1164 1.478 . S
C1163 H1157 0.930 . S
C1163 C1159 1.400 . S
C1163 C1162 1.385 . S
C1164 C1162 1.478 . S
C1164 C1166 1.381 . S
C1164 C1170 1.383 . S
C1165 C1161 1.495 . S
C1165 H1171 0.959 . S
C1165 H1172 0.961 . S
C1165 H1173 0.960 . S
C1166 C1164 1.381 . S
C1166 C1167 1.394 . S
C1166 H1174 0.930 . S
C1167 C1166 1.394 . S
C1167 C1168 1.383 . S
C1167 H1175 0.929 . S
C1168 C1167 1.383 . S
C1168 C1169 1.377 . S
C1169 H1153 0.930 . S
C1169 C1168 1.377 . S
C1169 C1170 1.379 . S
C1170 H1154 0.931 . S
C1170 C1164 1.383 . S
C1170 C1169 1.379 . S
H1171 C1165 0.959 . S
H1172 C1165 0.961 . S
H1173 C1165 0.960 . S
H1174 C1166 0.930 . S
H1175 C1167 0.929 . S
H1176 C1184 0.929 . S
H1177 C1186 0.930 . S
H1178 C1188 0.930 . S
H1179 C1191 0.929 . S
H1180 C1194 0.930 . S
H1181 C1196 0.960 . S
H1182 C1196 0.960 . S
H1183 C1196 0.960 . S
C1184 H1176 0.929 . S
C1184 C1185 1.377 . S
C1184 C1186 1.384 . S
C1185 C1184 1.377 . S
C1185 C1191 1.390 . S
C1186 H1177 0.930 . S
C1186 C1184 1.384 . S
C1186 C1187 1.372 . S
C1187 C1186 1.372 . S
C1187 C1188 1.400 . S
C1187 C1192 1.490 . S
C1188 H1178 0.930 . S
C1188 C1187 1.400 . S
C1188 C1191 1.386 . S
H1189 C1205 0.930 . S
H1190 C1206 0.931 . S
C1191 H1179 0.929 . S
C1191 C1185 1.390 . S
C1191 C1188 1.386 . S
C1192 C1187 1.490 . S
C1192 C1194 1.395 . S
C1192 C1195 1.403 . S
H1193 C1199 0.930 . S
C1194 H1180 0.930 . S
C1194 C1192 1.395 . S
C1194 C1197 1.403 . S
C1195 C1192 1.403 . S
C1195 C1196 1.524 . S
C1195 C1199 1.400 . S
C1196 H1181 0.960 . S
C1196 H1182 0.960 . S
C1196 H1183 0.960 . S
C1196 C1195 1.524 . S
C1197 C1194 1.403 . S
C1197 C1198 1.392 . S
C1197 C1201 1.495 . S
C1198 C1197 1.392 . S
C1198 C1199 1.385 . S
C1198 C1200 1.478 . S
C1199 H1193 0.930 . S
C1199 C1195 1.400 . S
C1199 C1198 1.385 . S
C1200 C1198 1.478 . S
C1200 C1202 1.381 . S
C1200 C1206 1.383 . S
C1201 C1197 1.495 . S
C1201 H1207 0.959 . S
C1201 H1208 0.961 . S
C1201 H1209 0.960 . S
C1202 C1200 1.381 . S
C1202 C1203 1.394 . S
C1202 H1210 0.930 . S
C1203 C1202 1.394 . S
C1203 C1204 1.383 . S
C1203 H1211 0.929 . S
C1204 C1203 1.383 . S
C1204 C1205 1.377 . S
C1205 H1189 0.930 . S
C1205 C1204 1.377 . S
C1205 C1206 1.379 . S
C1206 H1190 0.931 . S
C1206 C1200 1.383 . S
C1206 C1205 1.379 . S
H1207 C1201 0.959 . S
H1208 C1201 0.961 . S
H1209 C1201 0.960 . S
H1210 C1202 0.930 . S
H1211 C1203 0.929 . S
H1212 C1220 0.929 . S
H1213 C1222 0.930 . S
H1214 C1224 0.930 . S
H1215 C1227 0.929 . S
H1216 C1230 0.930 . S
H1217 C1232 0.960 . S
H1218 C1232 0.960 . S
H1219 C1232 0.960 . S
C1220 H1212 0.929 . S
C1220 C1221 1.377 . S
C1220 C1222 1.384 . S
C1221 C1220 1.377 . S
C1221 C1227 1.390 . S
C1222 H1213 0.930 . S
C1222 C1220 1.384 . S
C1222 C1223 1.372 . S
C1223 C1222 1.372 . S
C1223 C1224 1.400 . S
C1223 C1228 1.490 . S
C1224 H1214 0.930 . S
C1224 C1223 1.400 . S
C1224 C1227 1.386 . S
H1225 C1241 0.930 . S
H1226 C1242 0.931 . S
C1227 H1215 0.929 . S
C1227 C1221 1.390 . S
C1227 C1224 1.386 . S
C1228 C1223 1.490 . S
C1228 C1230 1.395 . S
C1228 C1231 1.403 . S
H1229 C1235 0.930 . S
C1230 H1216 0.930 . S
C1230 C1228 1.395 . S
C1230 C1233 1.403 . S
C1231 C1228 1.403 . S
C1231 C1232 1.524 . S
C1231 C1235 1.400 . S
C1232 H1217 0.960 . S
C1232 H1218 0.960 . S
C1232 H1219 0.960 . S
C1232 C1231 1.524 . S
C1233 C1230 1.403 . S
C1233 C1234 1.392 . S
C1233 C1237 1.495 . S
C1234 C1233 1.392 . S
C1234 C1235 1.385 . S
C1234 C1236 1.478 . S
C1235 H1229 0.930 . S
C1235 C1231 1.400 . S
C1235 C1234 1.385 . S
C1236 C1234 1.478 . S
C1236 C1238 1.381 . S
C1236 C1242 1.383 . S
C1237 C1233 1.495 . S
C1237 H1243 0.959 . S
C1237 H1244 0.961 . S
C1237 H1245 0.960 . S
C1238 C1236 1.381 . S
C1238 C1239 1.394 . S
C1238 H1246 0.930 . S
C1239 C1238 1.394 . S
C1239 C1240 1.383 . S
C1239 H1247 0.929 . S
C1240 C1239 1.383 . S
C1240 C1241 1.377 . S
C1241 H1225 0.930 . S
C1241 C1240 1.377 . S
C1241 C1242 1.379 . S
C1242 H1226 0.931 . S
C1242 C1236 1.383 . S
C1242 C1241 1.379 . S
H1243 C1237 0.959 . S
H1244 C1237 0.961 . S
H1245 C1237 0.960 . S
H1246 C1238 0.930 . S
H1247 C1239 0.929 . S
H1248 C1256 0.929 . S
H1249 C1258 0.930 . S
H1250 C1260 0.930 . S
H1251 C1263 0.929 . S
H1252 C1266 0.930 . S
H1253 C1268 0.960 . S
H1254 C1268 0.960 . S
H1255 C1268 0.960 . S
C1256 H1248 0.929 . S
C1256 C1257 1.377 . S
C1256 C1258 1.384 . S
C1257 C1256 1.377 . S
C1257 C1263 1.390 . S
C1258 H1249 0.930 . S
C1258 C1256 1.384 . S
C1258 C1259 1.372 . S
C1259 C1258 1.372 . S
C1259 C1260 1.400 . S
C1259 C1264 1.490 . S
C1260 H1250 0.930 . S
C1260 C1259 1.400 . S
C1260 C1263 1.386 . S
H1261 C1277 0.930 . S
H1262 C1278 0.931 . S
C1263 H1251 0.929 . S
C1263 C1257 1.390 . S
C1263 C1260 1.386 . S
C1264 C1259 1.490 . S
C1264 C1266 1.395 . S
C1264 C1267 1.403 . S
H1265 C1271 0.930 . S
C1266 H1252 0.930 . S
C1266 C1264 1.395 . S
C1266 C1269 1.403 . S
C1267 C1264 1.403 . S
C1267 C1268 1.524 . S
C1267 C1271 1.400 . S
C1268 H1253 0.960 . S
C1268 H1254 0.960 . S
C1268 H1255 0.960 . S
C1268 C1267 1.524 . S
C1269 C1266 1.403 . S
C1269 C1270 1.392 . S
C1269 C1273 1.495 . S
C1270 C1269 1.392 . S
C1270 C1271 1.385 . S
C1270 C1272 1.478 . S
C1271 H1265 0.930 . S
C1271 C1267 1.400 . S
C1271 C1270 1.385 . S
C1272 C1270 1.478 . S
C1272 C1274 1.381 . S
C1272 C1278 1.383 . S
C1273 C1269 1.495 . S
C1273 H1279 0.959 . S
C1273 H1280 0.961 . S
C1273 H1281 0.960 . S
C1274 C1272 1.381 . S
C1274 C1275 1.394 . S
C1274 H1282 0.930 . S
C1275 C1274 1.394 . S
C1275 C1276 1.383 . S
C1275 H1283 0.929 . S
C1276 C1275 1.383 . S
C1276 C1277 1.377 . S
C1277 H1261 0.930 . S
C1277 C1276 1.377 . S
C1277 C1278 1.379 . S
C1278 H1262 0.931 . S
C1278 C1272 1.383 . S
C1278 C1277 1.379 . S
H1279 C1273 0.959 . S
H1280 C1273 0.961 . S
H1281 C1273 0.960 . S
H1282 C1274 0.930 . S
H1283 C1275 0.929 . S
H1284 C1292 0.929 . S
H1285 C1294 0.930 . S
H1286 C1296 0.930 . S
H1287 C1299 0.929 . S
H1288 C1302 0.930 . S
H1289 C1304 0.960 . S
H1290 C1304 0.960 . S
H1291 C1304 0.960 . S
C1292 H1284 0.929 . S
C1292 C1293 1.377 . S
C1292 C1294 1.384 . S
C1293 C1292 1.377 . S
C1293 C1299 1.390 . S
C1294 H1285 0.930 . S
C1294 C1292 1.384 . S
C1294 C1295 1.372 . S
C1295 C1294 1.372 . S
C1295 C1296 1.400 . S
C1295 C1300 1.490 . S
C1296 H1286 0.930 . S
C1296 C1295 1.400 . S
C1296 C1299 1.386 . S
H1297 C1313 0.930 . S
H1298 C1314 0.931 . S
C1299 H1287 0.929 . S
C1299 C1293 1.390 . S
C1299 C1296 1.386 . S
C1300 C1295 1.490 . S
C1300 C1302 1.395 . S
C1300 C1303 1.403 . S
H1301 C1307 0.930 . S
C1302 H1288 0.930 . S
C1302 C1300 1.395 . S
C1302 C1305 1.403 . S
C1303 C1300 1.403 . S
C1303 C1304 1.524 . S
C1303 C1307 1.400 . S
C1304 H1289 0.960 . S
C1304 H1290 0.960 . S
C1304 H1291 0.960 . S
C1304 C1303 1.524 . S
C1305 C1302 1.403 . S
C1305 C1306 1.392 . S
C1305 C1309 1.495 . S
C1306 C1305 1.392 . S
C1306 C1307 1.385 . S
C1306 C1308 1.478 . S
C1307 H1301 0.930 . S
C1307 C1303 1.400 . S
C1307 C1306 1.385 . S
C1308 C1306 1.478 . S
C1308 C1310 1.381 . S
C1308 C1314 1.383 . S
C1309 C1305 1.495 . S
C1309 H1315 0.959 . S
C1309 H1316 0.961 . S
C1309 H1317 0.960 . S
C1310 C1308 1.381 . S
C1310 C1311 1.394 . S
C1310 H1318 0.930 . S
C1311 C1310 1.394 . S
C1311 C1312 1.383 . S
C1311 H1319 0.929 . S
C1312 C1311 1.383 . S
C1312 C1313 1.377 . S
C1313 H1297 0.930 . S
C1313 C1312 1.377 . S
C1313 C1314 1.379 . S
C1314 H1298 0.931 . S
C1314 C1308 1.383 . S
C1314 C1313 1.379 . S
H1315 C1309 0.959 . S
H1316 C1309 0.961 . S
H1317 C1309 0.960 . S
H1318 C1310 0.930 . S
H1319 C1311 0.929 . S
H1320 C1328 0.929 . S
H1321 C1330 0.930 . S
H1322 C1332 0.930 . S
H1323 C1335 0.929 . S
H1324 C1338 0.930 . S
H1325 C1340 0.960 . S
H1326 C1340 0.960 . S
H1327 C1340 0.960 . S
C1328 H1320 0.929 . S
C1328 C1329 1.377 . S
C1328 C1330 1.384 . S
C1329 C1328 1.377 . S
C1329 C1335 1.390 . S
C1330 H1321 0.930 . S
C1330 C1328 1.384 . S
C1330 C1331 1.372 . S
C1331 C1330 1.372 . S
C1331 C1332 1.400 . S
C1331 C1336 1.490 . S
C1332 H1322 0.930 . S
C1332 C1331 1.400 . S
C1332 C1335 1.386 . S
H1333 C1349 0.930 . S
H1334 C1350 0.931 . S
C1335 H1323 0.929 . S
C1335 C1329 1.390 . S
C1335 C1332 1.386 . S
C1336 C1331 1.490 . S
C1336 C1338 1.395 . S
C1336 C1339 1.403 . S
H1337 C1343 0.930 . S
C1338 H1324 0.930 . S
C1338 C1336 1.395 . S
C1338 C1341 1.403 . S
C1339 C1336 1.403 . S
C1339 C1340 1.524 . S
C1339 C1343 1.400 . S
C1340 H1325 0.960 . S
C1340 H1326 0.960 . S
C1340 H1327 0.960 . S
C1340 C1339 1.524 . S
C1341 C1338 1.403 . S
C1341 C1342 1.392 . S
C1341 C1345 1.495 . S
C1342 C1341 1.392 . S
C1342 C1343 1.385 . S
C1342 C1344 1.478 . S
C1343 H1337 0.930 . S
C1343 C1339 1.400 . S
C1343 C1342 1.385 . S
C1344 C1342 1.478 . S
C1344 C1346 1.381 . S
C1344 C1350 1.383 . S
C1345 C1341 1.495 . S
C1345 H1351 0.959 . S
C1345 H1352 0.961 . S
C1345 H1353 0.960 . S
C1346 C1344 1.381 . S
C1346 C1347 1.394 . S
C1346 H1354 0.930 . S
C1347 C1346 1.394 . S
C1347 C1348 1.383 . S
C1347 H1355 0.929 . S
C1348 C1347 1.383 . S
C1348 C1349 1.377 . S
C1349 H1333 0.930 . S
C1349 C1348 1.377 . S
C1349 C1350 1.379 . S
C1350 H1334 0.931 . S
C1350 C1344 1.383 . S
C1350 C1349 1.379 . S
H1351 C1345 0.959 . S
H1352 C1345 0.961 . S
H1353 C1345 0.960 . S
H1354 C1346 0.930 . S
H1355 C1347 0.929 . S
H1356 C1364 0.929 . S
H1357 C1366 0.930 . S
H1358 C1368 0.930 . S
H1359 C1371 0.929 . S
H1360 C1374 0.930 . S
H1361 C1376 0.960 . S
H1362 C1376 0.960 . S
H1363 C1376 0.960 . S
C1364 H1356 0.929 . S
C1364 C1365 1.377 . S
C1364 C1366 1.384 . S
C1365 C1364 1.377 . S
C1365 C1371 1.390 . S
C1366 H1357 0.930 . S
C1366 C1364 1.384 . S
C1366 C1367 1.372 . S
C1367 C1366 1.372 . S
C1367 C1368 1.400 . S
C1367 C1372 1.490 . S
C1368 H1358 0.930 . S
C1368 C1367 1.400 . S
C1368 C1371 1.386 . S
H1369 C1385 0.930 . S
H1370 C1386 0.931 . S
C1371 H1359 0.929 . S
C1371 C1365 1.390 . S
C1371 C1368 1.386 . S
C1372 C1367 1.490 . S
C1372 C1374 1.395 . S
C1372 C1375 1.403 . S
H1373 C1379 0.930 . S
C1374 H1360 0.930 . S
C1374 C1372 1.395 . S
C1374 C1377 1.403 . S
C1375 C1372 1.403 . S
C1375 C1376 1.524 . S
C1375 C1379 1.400 . S
C1376 H1361 0.960 . S
C1376 H1362 0.960 . S
C1376 H1363 0.960 . S
C1376 C1375 1.524 . S
C1377 C1374 1.403 . S
C1377 C1378 1.392 . S
C1377 C1381 1.495 . S
C1378 C1377 1.392 . S
C1378 C1379 1.385 . S
C1378 C1380 1.478 . S
C1379 H1373 0.930 . S
C1379 C1375 1.400 . S
C1379 C1378 1.385 . S
C1380 C1378 1.478 . S
C1380 C1382 1.381 . S
C1380 C1386 1.383 . S
C1381 C1377 1.495 . S
C1381 H1387 0.959 . S
C1381 H1388 0.961 . S
C1381 H1389 0.960 . S
C1382 C1380 1.381 . S
C1382 C1383 1.394 . S
C1382 H1390 0.930 . S
C1383 C1382 1.394 . S
C1383 C1384 1.383 . S
C1383 H1391 0.929 . S
C1384 C1383 1.383 . S
C1384 C1385 1.377 . S
C1385 H1369 0.930 . S
C1385 C1384 1.377 . S
C1385 C1386 1.379 . S
C1386 H1370 0.931 . S
C1386 C1380 1.383 . S
C1386 C1385 1.379 . S
H1387 C1381 0.959 . S
H1388 C1381 0.961 . S
H1389 C1381 0.960 . S
H1390 C1382 0.930 . S
H1391 C1383 0.929 . S
H1392 C1400 0.929 . S
H1393 C1402 0.930 . S
H1394 C1404 0.930 . S
H1395 C1407 0.929 . S
H1396 C1410 0.930 . S
H1397 C1412 0.960 . S
H1398 C1412 0.960 . S
H1399 C1412 0.960 . S
C1400 H1392 0.929 . S
C1400 C1401 1.377 . S
C1400 C1402 1.384 . S
C1401 C1400 1.377 . S
C1401 C1407 1.390 . S
C1402 H1393 0.930 . S
C1402 C1400 1.384 . S
C1402 C1403 1.372 . S
C1403 C1402 1.372 . S
C1403 C1404 1.400 . S
C1403 C1408 1.490 . S
C1404 H1394 0.930 . S
C1404 C1403 1.400 . S
C1404 C1407 1.386 . S
H1405 C1421 0.930 . S
H1406 C1422 0.931 . S
C1407 H1395 0.929 . S
C1407 C1401 1.390 . S
C1407 C1404 1.386 . S
C1408 C1403 1.490 . S
C1408 C1410 1.395 . S
C1408 C1411 1.403 1_655 S
H1409 C1415 0.930 . S
C1410 H1396 0.930 . S
C1410 C1408 1.395 . S
C1410 C1413 1.403 . S
C1411 C1408 1.403 1_455 S
C1411 C1412 1.524 . S
C1411 C1415 1.400 . S
C1412 H1397 0.960 . S
C1412 H1398 0.960 . S
C1412 H1399 0.960 . S
C1412 C1411 1.524 . S
C1413 C1410 1.403 . S
C1413 C1414 1.392 1_655 S
C1413 C1417 1.495 . S
C1414 C1413 1.392 1_455 S
C1414 C1415 1.385 . S
C1414 C1416 1.478 . S
C1415 H1409 0.930 . S
C1415 C1411 1.400 . S
C1415 C1414 1.385 . S
C1416 C1414 1.478 . S
C1416 C1418 1.381 . S
C1416 C1422 1.383 . S
C1417 C1413 1.495 . S
C1417 H1423 0.959 . S
C1417 H1424 0.961 . S
C1417 H1425 0.960 . S
C1418 C1416 1.381 . S
C1418 C1419 1.394 . S
C1418 H1426 0.930 . S
C1419 C1418 1.394 . S
C1419 C1420 1.383 . S
C1419 H1427 0.929 . S
C1420 C1419 1.383 . S
C1420 C1421 1.377 . S
C1421 H1405 0.930 . S
C1421 C1420 1.377 . S
C1421 C1422 1.379 . S
C1422 H1406 0.931 . S
C1422 C1416 1.383 . S
C1422 C1421 1.379 . S
H1423 C1417 0.959 . S
H1424 C1417 0.961 . S
H1425 C1417 0.960 . S
H1426 C1418 0.930 . S
H1427 C1419 0.929 . S
H1428 C1436 0.929 . S
H1429 C1438 0.930 . S
H1430 C1440 0.930 . S
H1431 C1443 0.929 . S
H1432 C1446 0.930 . S
H1433 C1448 0.960 . S
H1434 C1448 0.960 . S
H1435 C1448 0.960 . S
C1436 H1428 0.929 . S
C1436 C1437 1.377 . S
C1436 C1438 1.384 . S
C1437 C1436 1.377 . S
C1437 C1443 1.390 . S
C1438 H1429 0.930 . S
C1438 C1436 1.384 . S
C1438 C1439 1.372 . S
C1439 C1438 1.372 . S
C1439 C1440 1.400 . S
C1439 C1444 1.490 . S
C1440 H1430 0.930 . S
C1440 C1439 1.400 . S
C1440 C1443 1.386 . S
H1441 C1457 0.930 . S
H1442 C1458 0.931 . S
C1443 H1431 0.929 . S
C1443 C1437 1.390 . S
C1443 C1440 1.386 . S
C1444 C1439 1.490 . S
C1444 C1446 1.395 1_545 S
C1444 C1447 1.403 . S
H1445 C1451 0.930 . S
C1446 H1432 0.930 . S
C1446 C1444 1.395 1_565 S
C1446 C1449 1.403 . S
C1447 C1444 1.403 . S
C1447 C1448 1.524 . S
C1447 C1451 1.400 . S
C1448 H1433 0.960 . S
C1448 H1434 0.960 . S
C1448 H1435 0.960 . S
C1448 C1447 1.524 . S
C1449 C1446 1.403 . S
C1449 C1450 1.392 . S
C1449 C1453 1.495 . S
C1450 C1449 1.392 . S
C1450 C1451 1.385 1_565 S
C1450 C1452 1.478 . S
C1451 H1445 0.930 . S
C1451 C1447 1.400 . S
C1451 C1450 1.385 1_545 S
C1452 C1450 1.478 . S
C1452 C1454 1.381 . S
C1452 C1458 1.383 . S
C1453 C1449 1.495 . S
C1453 H1459 0.959 . S
C1453 H1460 0.961 . S
C1453 H1461 0.960 . S
C1454 C1452 1.381 . S
C1454 C1455 1.394 . S
C1454 H1462 0.930 . S
C1455 C1454 1.394 . S
C1455 C1456 1.383 . S
C1455 H1463 0.929 . S
C1456 C1455 1.383 . S
C1456 C1457 1.377 . S
C1457 H1441 0.930 . S
C1457 C1456 1.377 . S
C1457 C1458 1.379 . S
C1458 H1442 0.931 . S
C1458 C1452 1.383 . S
C1458 C1457 1.379 . S
H1459 C1453 0.959 . S
H1460 C1453 0.961 . S
H1461 C1453 0.960 . S
H1462 C1454 0.930 . S
H1463 C1455 0.929 . S
H1464 C1472 0.929 . S
H1465 C1474 0.930 . S
H1466 C1476 0.930 . S
H1467 C1479 0.929 . S
H1468 C1482 0.930 . S
H1469 C1484 0.960 . S
H1470 C1484 0.960 . S
H1471 C1484 0.960 . S
C1472 H1464 0.929 . S
C1472 C1473 1.377 . S
C1472 C1474 1.384 . S
C1473 C1472 1.377 . S
C1473 C1479 1.390 . S
C1474 H1465 0.930 . S
C1474 C1472 1.384 . S
C1474 C1475 1.372 . S
C1475 C1474 1.372 . S
C1475 C1476 1.400 . S
C1475 C1480 1.490 . S
C1476 H1466 0.930 . S
C1476 C1475 1.400 . S
C1476 C1479 1.386 . S
H1477 C1493 0.930 . S
H1478 C1494 0.931 . S
C1479 H1467 0.929 . S
C1479 C1473 1.390 . S
C1479 C1476 1.386 . S
C1480 C1475 1.490 . S
C1480 C1482 1.395 . S
C1480 C1483 1.403 . S
H1481 C1487 0.930 . S
C1482 H1468 0.930 . S
C1482 C1480 1.395 . S
C1482 C1485 1.403 . S
C1483 C1480 1.403 . S
C1483 C1484 1.524 . S
C1483 C1487 1.400 . S
C1484 H1469 0.960 . S
C1484 H1470 0.960 . S
C1484 H1471 0.960 . S
C1484 C1483 1.524 . S
C1485 C1482 1.403 . S
C1485 C1486 1.392 . S
C1485 C1489 1.495 . S
C1486 C1485 1.392 . S
C1486 C1487 1.385 . S
C1486 C1488 1.478 . S
C1487 H1481 0.930 . S
C1487 C1483 1.400 . S
C1487 C1486 1.385 . S
C1488 C1486 1.478 . S
C1488 C1490 1.381 . S
C1488 C1494 1.383 . S
C1489 C1485 1.495 . S
C1489 H1495 0.959 . S
C1489 H1496 0.961 . S
C1489 H1497 0.960 . S
C1490 C1488 1.381 . S
C1490 C1491 1.394 . S
C1490 H1498 0.930 . S
C1491 C1490 1.394 . S
C1491 C1492 1.383 . S
C1491 H1499 0.929 . S
C1492 C1491 1.383 . S
C1492 C1493 1.377 . S
C1493 H1477 0.930 . S
C1493 C1492 1.377 . S
C1493 C1494 1.379 . S
C1494 H1478 0.931 . S
C1494 C1488 1.383 . S
C1494 C1493 1.379 . S
H1495 C1489 0.959 . S
H1496 C1489 0.961 . S
H1497 C1489 0.960 . S
H1498 C1490 0.930 . S
H1499 C1491 0.929 . S
H1500 C1508 0.929 . S
H1501 C1510 0.930 . S
H1502 C1512 0.930 . S
H1503 C1515 0.929 . S
H1504 C1518 0.930 . S
H1505 C1520 0.960 . S
H1506 C1520 0.960 . S
H1507 C1520 0.960 . S
C1508 H1500 0.929 . S
C1508 C1509 1.377 . S
C1508 C1510 1.384 . S
C1509 C1508 1.377 . S
C1509 C1515 1.390 . S
C1510 H1501 0.930 . S
C1510 C1508 1.384 . S
C1510 C1511 1.372 . S
C1511 C1510 1.372 . S
C1511 C1512 1.400 . S
C1511 C1516 1.490 . S
C1512 H1502 0.930 . S
C1512 C1511 1.400 . S
C1512 C1515 1.386 . S
H1513 C1529 0.930 . S
H1514 C1530 0.931 . S
C1515 H1503 0.929 . S
C1515 C1509 1.390 . S
C1515 C1512 1.386 . S
C1516 C1511 1.490 . S
C1516 C1518 1.395 1_455 S
C1516 C1519 1.403 . S
H1517 C1523 0.930 . S
C1518 H1504 0.930 . S
C1518 C1516 1.395 1_655 S
C1518 C1521 1.403 . S
C1519 C1516 1.403 . S
C1519 C1520 1.524 . S
C1519 C1523 1.400 . S
C1520 H1505 0.960 . S
C1520 H1506 0.960 . S
C1520 H1507 0.960 . S
C1520 C1519 1.524 . S
C1521 C1518 1.403 . S
C1521 C1522 1.392 . S
C1521 C1525 1.495 . S
C1522 C1521 1.392 . S
C1522 C1523 1.385 1_655 S
C1522 C1524 1.478 . S
C1523 H1517 0.930 . S
C1523 C1519 1.400 . S
C1523 C1522 1.385 1_455 S
C1524 C1522 1.478 . S
C1524 C1526 1.381 . S
C1524 C1530 1.383 . S
C1525 C1521 1.495 . S
C1525 H1531 0.959 . S
C1525 H1532 0.961 . S
C1525 H1533 0.960 . S
C1526 C1524 1.381 . S
C1526 C1527 1.394 . S
C1526 H1534 0.930 . S
C1527 C1526 1.394 . S
C1527 C1528 1.383 . S
C1527 H1535 0.929 . S
C1528 C1527 1.383 . S
C1528 C1529 1.377 . S
C1529 H1513 0.930 . S
C1529 C1528 1.377 . S
C1529 C1530 1.379 . S
C1530 H1514 0.931 . S
C1530 C1524 1.383 . S
C1530 C1529 1.379 . S
H1531 C1525 0.959 . S
H1532 C1525 0.961 . S
H1533 C1525 0.960 . S
H1534 C1526 0.930 . S
H1535 C1527 0.929 . S
H1536 C1544 0.929 . S
H1537 C1546 0.930 . S
H1538 C1548 0.930 . S
H1539 C1551 0.929 . S
H1540 C1554 0.930 . S
H1541 C1556 0.960 . S
H1542 C1556 0.960 . S
H1543 C1556 0.960 . S
C1544 H1536 0.929 . S
C1544 C1545 1.377 . S
C1544 C1546 1.384 . S
C1545 C1544 1.377 . S
C1545 C1551 1.390 . S
C1546 H1537 0.930 . S
C1546 C1544 1.384 . S
C1546 C1547 1.372 . S
C1547 C1546 1.372 . S
C1547 C1548 1.400 . S
C1547 C1552 1.490 . S
C1548 H1538 0.930 . S
C1548 C1547 1.400 . S
C1548 C1551 1.386 . S
H1549 C1565 0.930 . S
H1550 C1566 0.931 . S
C1551 H1539 0.929 . S
C1551 C1545 1.390 . S
C1551 C1548 1.386 . S
C1552 C1547 1.490 . S
C1552 C1554 1.395 1_565 S
C1552 C1555 1.403 . S
H1553 C1559 0.930 . S
C1554 H1540 0.930 . S
C1554 C1552 1.395 1_545 S
C1554 C1557 1.403 . S
C1555 C1552 1.403 . S
C1555 C1556 1.524 . S
C1555 C1559 1.400 . S
C1556 H1541 0.960 . S
C1556 H1542 0.960 . S
C1556 H1543 0.960 . S
C1556 C1555 1.524 . S
C1557 C1554 1.403 . S
C1557 C1558 1.392 . S
C1557 C1561 1.495 . S
C1558 C1557 1.392 . S
C1558 C1559 1.385 1_545 S
C1558 C1560 1.478 . S
C1559 H1553 0.930 . S
C1559 C1555 1.400 . S
C1559 C1558 1.385 1_565 S
C1560 C1558 1.478 . S
C1560 C1562 1.381 . S
C1560 C1566 1.383 . S
C1561 C1557 1.495 . S
C1561 H1567 0.959 . S
C1561 H1568 0.961 . S
C1561 H1569 0.960 . S
C1562 C1560 1.381 . S
C1562 C1563 1.394 . S
C1562 H1570 0.930 . S
C1563 C1562 1.394 . S
C1563 C1564 1.383 . S
C1563 H1571 0.929 . S
C1564 C1563 1.383 . S
C1564 C1565 1.377 . S
C1565 H1549 0.930 . S
C1565 C1564 1.377 . S
C1565 C1566 1.379 . S
C1566 H1550 0.931 . S
C1566 C1560 1.383 . S
C1566 C1565 1.379 . S
H1567 C1561 0.959 . S
H1568 C1561 0.961 . S
H1569 C1561 0.960 . S
H1570 C1562 0.930 . S
H1571 C1563 0.929 . S
C717 C446 1.552 . S
C736 C33 1.556 . S
C753 C92 1.551 . S
C772 C505 1.559 . S
C789 C151 1.547 . S
C808 C564 1.545 . S
C825 C210 1.547 . S
C844 C623 1.550 . S
C861 C682 1.550 . S
C880 C269 1.535 . S
C897 C387 1.547 . S
C916 C328 1.537 . S
C933 C642 1.724 . S
C952 C52 1.717 . S
C969 C111 1.721 . S
C988 C701 1.703 . S
C1005 C170 1.724 . S
C1024 C406 1.727 . S
C1041 C465 1.718 . S
C1060 C229 1.711 . S
C1077 C524 1.719 . S
C1096 C288 1.704 . S
C1113 C583 1.723 . S
C1132 C347 1.708 . S
C1149 C5 1.785 . S
C1168 C477 1.777 . S
C1185 C64 1.781 . S
C1204 C536 1.776 . S
C1221 C595 1.785 . S
C1240 C123 1.783 . S
C1257 C182 1.783 . S
C1276 C654 1.788 . S
C1293 C359 1.782 . S
C1312 C241 1.770 . S
C1329 C418 1.781 . S
C1348 C300 1.777 . S
C1365 C180 1.212 . S
C1384 C3 1.214 . S
C1401 C239 1.218 . S
C1420 C62 1.232 . S
C1437 C121 1.210 . S
C1456 C298 1.189 . S
C1473 C357 1.217 . S
C1492 C534 1.233 . S
C1509 C416 1.210 . S
C1528 C593 1.189 . S
C1545 C652 1.209 . S
C1564 C475 1.189 . S
