# Generated by pormake.
# Topology uma, (4)-cn, num edge types: 1
# Building blocks:
#     Node 0, Type 0, BuildingBlock: CEKHIL_clean_sbu_0, # of connection points: 4
#     Node 1, Type 0, BuildingBlock: CEKHIL_clean_sbu_0, # of connection points: 4
#     Node 2, Type 0, BuildingBlock: CEKHIL_clean_sbu_0, # of connection points: 4
#     Node 3, Type 0, BuildingBlock: CEKHIL_clean_sbu_0, # of connection points: 4
#     Node 4, Type 0, BuildingBlock: CEKHIL_clean_sbu_0, # of connection points: 4
#     Node 5, Type 0, BuildingBlock: CEKHIL_clean_sbu_0, # of connection points: 4
#     Node 6, Type 0, BuildingBlock: CEKHIL_clean_sbu_0, # of connection points: 4
#     Node 7, Type 0, BuildingBlock: CEKHIL_clean_sbu_0, # of connection points: 4
#     Node 8, Type 0, BuildingBlock: CEKHIL_clean_sbu_0, # of connection points: 4
#     Node 9, Type 0, BuildingBlock: CEKHIL_clean_sbu_0, # of connection points: 4
#     Node 10, Type 0, BuildingBlock: CEKHIL_clean_sbu_0, # of connection points: 4
#     Node 11, Type 0, BuildingBlock: CEKHIL_clean_sbu_0, # of connection points: 4
#     Node 12, Type 0, BuildingBlock: CEKHIL_clean_sbu_0, # of connection points: 4
#     Node 13, Type 0, BuildingBlock: CEKHIL_clean_sbu_0, # of connection points: 4
#     Node 14, Type 0, BuildingBlock: CEKHIL_clean_sbu_0, # of connection points: 4
#     Node 15, Type 0, BuildingBlock: CEKHIL_clean_sbu_0, # of connection points: 4
#     Node 16, Type 0, BuildingBlock: CEKHIL_clean_sbu_0, # of connection points: 4
#     Node 17, Type 0, BuildingBlock: CEKHIL_clean_sbu_0, # of connection points: 4
#     Node 18, Type 0, BuildingBlock: CEKHIL_clean_sbu_0, # of connection points: 4
#     Node 19, Type 0, BuildingBlock: CEKHIL_clean_sbu_0, # of connection points: 4
#     Node 20, Type 0, BuildingBlock: CEKHIL_clean_sbu_0, # of connection points: 4
#     Node 21, Type 0, BuildingBlock: CEKHIL_clean_sbu_0, # of connection points: 4
#     Node 22, Type 0, BuildingBlock: CEKHIL_clean_sbu_0, # of connection points: 4
#     Node 23, Type 0, BuildingBlock: CEKHIL_clean_sbu_0, # of connection points: 4
#     Node 24, Type 0, BuildingBlock: CEKHIL_clean_sbu_0, # of connection points: 4
#     Node 25, Type 0, BuildingBlock: CEKHIL_clean_sbu_0, # of connection points: 4
#     Node 26, Type 0, BuildingBlock: CEKHIL_clean_sbu_0, # of connection points: 4
#     Node 27, Type 0, BuildingBlock: CEKHIL_clean_sbu_0, # of connection points: 4
#     Node 28, Type 0, BuildingBlock: CEKHIL_clean_sbu_0, # of connection points: 4
#     Node 29, Type 0, BuildingBlock: CEKHIL_clean_sbu_0, # of connection points: 4
#     Node 30, Type 0, BuildingBlock: CEKHIL_clean_sbu_0, # of connection points: 4
#     Node 31, Type 0, BuildingBlock: CEKHIL_clean_sbu_0, # of connection points: 4
#     Node 32, Type 0, BuildingBlock: CEKHIL_clean_sbu_0, # of connection points: 4
#     Node 33, Type 0, BuildingBlock: CEKHIL_clean_sbu_0, # of connection points: 4
#     Node 34, Type 0, BuildingBlock: CEKHIL_clean_sbu_0, # of connection points: 4
#     Node 35, Type 0, BuildingBlock: CEKHIL_clean_sbu_0, # of connection points: 4
#     Edge 36, Type (0, 0), BuildingBlock: OJICUG_clean_linker_0, # of connection points: 2
#     Edge 37, Type (0, 0), BuildingBlock: OJICUG_clean_linker_0, # of connection points: 2
#     Edge 38, Type (0, 0), BuildingBlock: OJICUG_clean_linker_0, # of connection points: 2
#     Edge 39, Type (0, 0), BuildingBlock: OJICUG_clean_linker_0, # of connection points: 2
#     Edge 40, Type (0, 0), BuildingBlock: OJICUG_clean_linker_0, # of connection points: 2
#     Edge 41, Type (0, 0), BuildingBlock: OJICUG_clean_linker_0, # of connection points: 2
#     Edge 42, Type (0, 0), BuildingBlock: OJICUG_clean_linker_0, # of connection points: 2
#     Edge 43, Type (0, 0), BuildingBlock: OJICUG_clean_linker_0, # of connection points: 2
#     Edge 44, Type (0, 0), BuildingBlock: OJICUG_clean_linker_0, # of connection points: 2
#     Edge 45, Type (0, 0), BuildingBlock: OJICUG_clean_linker_0, # of connection points: 2
#     Edge 46, Type (0, 0), BuildingBlock: OJICUG_clean_linker_0, # of connection points: 2
#     Edge 47, Type (0, 0), BuildingBlock: OJICUG_clean_linker_0, # of connection points: 2
#     Edge 48, Type (0, 0), BuildingBlock: OJICUG_clean_linker_0, # of connection points: 2
#     Edge 49, Type (0, 0), BuildingBlock: OJICUG_clean_linker_0, # of connection points: 2
#     Edge 50, Type (0, 0), BuildingBlock: OJICUG_clean_linker_0, # of connection points: 2
#     Edge 51, Type (0, 0), BuildingBlock: OJICUG_clean_linker_0, # of connection points: 2
#     Edge 52, Type (0, 0), BuildingBlock: OJICUG_clean_linker_0, # of connection points: 2
#     Edge 53, Type (0, 0), BuildingBlock: OJICUG_clean_linker_0, # of connection points: 2
#     Edge 54, Type (0, 0), BuildingBlock: OJICUG_clean_linker_0, # of connection points: 2
#     Edge 55, Type (0, 0), BuildingBlock: OJICUG_clean_linker_0, # of connection points: 2
#     Edge 56, Type (0, 0), BuildingBlock: OJICUG_clean_linker_0, # of connection points: 2
#     Edge 57, Type (0, 0), BuildingBlock: OJICUG_clean_linker_0, # of connection points: 2
#     Edge 58, Type (0, 0), BuildingBlock: OJICUG_clean_linker_0, # of connection points: 2
#     Edge 59, Type (0, 0), BuildingBlock: OJICUG_clean_linker_0, # of connection points: 2
#     Edge 60, Type (0, 0), BuildingBlock: OJICUG_clean_linker_0, # of connection points: 2
#     Edge 61, Type (0, 0), BuildingBlock: OJICUG_clean_linker_0, # of connection points: 2
#     Edge 62, Type (0, 0), BuildingBlock: OJICUG_clean_linker_0, # of connection points: 2
#     Edge 63, Type (0, 0), BuildingBlock: OJICUG_clean_linker_0, # of connection points: 2
#     Edge 64, Type (0, 0), BuildingBlock: OJICUG_clean_linker_0, # of connection points: 2
#     Edge 65, Type (0, 0), BuildingBlock: OJICUG_clean_linker_0, # of connection points: 2
#     Edge 66, Type (0, 0), BuildingBlock: OJICUG_clean_linker_0, # of connection points: 2
#     Edge 67, Type (0, 0), BuildingBlock: OJICUG_clean_linker_0, # of connection points: 2
#     Edge 68, Type (0, 0), BuildingBlock: OJICUG_clean_linker_0, # of connection points: 2
#     Edge 69, Type (0, 0), BuildingBlock: OJICUG_clean_linker_0, # of connection points: 2
#     Edge 70, Type (0, 0), BuildingBlock: OJICUG_clean_linker_0, # of connection points: 2
#     Edge 71, Type (0, 0), BuildingBlock: OJICUG_clean_linker_0, # of connection points: 2
#     Edge 72, Type (0, 0), BuildingBlock: OJICUG_clean_linker_0, # of connection points: 2
#     Edge 73, Type (0, 0), BuildingBlock: OJICUG_clean_linker_0, # of connection points: 2
#     Edge 74, Type (0, 0), BuildingBlock: OJICUG_clean_linker_0, # of connection points: 2
#     Edge 75, Type (0, 0), BuildingBlock: OJICUG_clean_linker_0, # of connection points: 2
#     Edge 76, Type (0, 0), BuildingBlock: OJICUG_clean_linker_0, # of connection points: 2
#     Edge 77, Type (0, 0), BuildingBlock: OJICUG_clean_linker_0, # of connection points: 2
#     Edge 78, Type (0, 0), BuildingBlock: OJICUG_clean_linker_0, # of connection points: 2
#     Edge 79, Type (0, 0), BuildingBlock: OJICUG_clean_linker_0, # of connection points: 2
#     Edge 80, Type (0, 0), BuildingBlock: OJICUG_clean_linker_0, # of connection points: 2
#     Edge 81, Type (0, 0), BuildingBlock: OJICUG_clean_linker_0, # of connection points: 2
#     Edge 82, Type (0, 0), BuildingBlock: OJICUG_clean_linker_0, # of connection points: 2
#     Edge 83, Type (0, 0), BuildingBlock: OJICUG_clean_linker_0, # of connection points: 2
#     Edge 84, Type (0, 0), BuildingBlock: OJICUG_clean_linker_0, # of connection points: 2
#     Edge 85, Type (0, 0), BuildingBlock: OJICUG_clean_linker_0, # of connection points: 2
#     Edge 86, Type (0, 0), BuildingBlock: OJICUG_clean_linker_0, # of connection points: 2
#     Edge 87, Type (0, 0), BuildingBlock: OJICUG_clean_linker_0, # of connection points: 2
#     Edge 88, Type (0, 0), BuildingBlock: OJICUG_clean_linker_0, # of connection points: 2
#     Edge 89, Type (0, 0), BuildingBlock: OJICUG_clean_linker_0, # of connection points: 2
#     Edge 90, Type (0, 0), BuildingBlock: OJICUG_clean_linker_0, # of connection points: 2
#     Edge 91, Type (0, 0), BuildingBlock: OJICUG_clean_linker_0, # of connection points: 2
#     Edge 92, Type (0, 0), BuildingBlock: OJICUG_clean_linker_0, # of connection points: 2
#     Edge 93, Type (0, 0), BuildingBlock: OJICUG_clean_linker_0, # of connection points: 2
#     Edge 94, Type (0, 0), BuildingBlock: OJICUG_clean_linker_0, # of connection points: 2
#     Edge 95, Type (0, 0), BuildingBlock: OJICUG_clean_linker_0, # of connection points: 2
#     Edge 96, Type (0, 0), BuildingBlock: OJICUG_clean_linker_0, # of connection points: 2
#     Edge 97, Type (0, 0), BuildingBlock: OJICUG_clean_linker_0, # of connection points: 2
#     Edge 98, Type (0, 0), BuildingBlock: OJICUG_clean_linker_0, # of connection points: 2
#     Edge 99, Type (0, 0), BuildingBlock: OJICUG_clean_linker_0, # of connection points: 2
#     Edge 100, Type (0, 0), BuildingBlock: OJICUG_clean_linker_0, # of connection points: 2
#     Edge 101, Type (0, 0), BuildingBlock: OJICUG_clean_linker_0, # of connection points: 2
#     Edge 102, Type (0, 0), BuildingBlock: OJICUG_clean_linker_0, # of connection points: 2
#     Edge 103, Type (0, 0), BuildingBlock: OJICUG_clean_linker_0, # of connection points: 2
#     Edge 104, Type (0, 0), BuildingBlock: OJICUG_clean_linker_0, # of connection points: 2
#     Edge 105, Type (0, 0), BuildingBlock: OJICUG_clean_linker_0, # of connection points: 2
#     Edge 106, Type (0, 0), BuildingBlock: OJICUG_clean_linker_0, # of connection points: 2
#     Edge 107, Type (0, 0), BuildingBlock: OJICUG_clean_linker_0, # of connection points: 2
# Relax obj value: 0.192
# Max RMSD: 0.424
# Mean RMSD: 0.420
data_MOF--net-uma--node1-CEKHIL_clean_sbu_0--edge1-OJICUG_clean_linker_0
_symmetry_space_group_name_H-M    P1
_symmetry_Int_Tables_number       1
_symmetry_cell_setting            triclinic
loop_
_symmetry_equiv_pos_as_xyz
'x, y, z'
_cell_length_a     56.995304
_cell_length_b     56.977143
_cell_length_c     26.243392
_cell_angle_alpha  89.852889
_cell_angle_beta   90.035696
_cell_angle_gamma 119.96361
loop_
_atom_site_label
_atom_site_type_symbol
_atom_site_fract_x
_atom_site_fract_y
_atom_site_fract_z
_atom_type_partial_charge
Co0 Co 0.08558 0.37776 0.04651 0.0
O1 O 0.12132 0.38422 0.0322 0.0
O2 O 0.08682 0.34466 0.05645 0.0
C3 C 0.09907 0.41362 0.10348 0.0
O4 O 0.04727 0.36554 0.06105 0.0
Co5 Co 0.08884 0.40548 0.9863 0.0
O6 O 0.0485 0.39106 0.99646 0.0
C7 C 0.08392 0.36817 0.93298 0.0
C8 C 0.11197 0.3588 0.04255 0.0
C9 C 0.0351 0.37353 0.03079 0.0
O10 O 0.07227 0.36114 0.97609 0.0
O11 O 0.10034 0.39291 0.9259 0.0
O12 O 0.09693 0.39081 0.11406 0.0
O13 O 0.09413 0.41756 0.05696 0.0
Co14 Co 0.61923 0.72463 0.05479 0.0
O15 O 0.61752 0.75733 0.05177 0.0
O16 O 0.6549 0.7559 0.06803 0.0
C17 C 0.58322 0.70266 0.11286 0.0
O18 O 0.62535 0.69335 0.05793 0.0
Co19 Co 0.59156 0.71092 0.99685 0.0
O20 O 0.59729 0.67837 0.99264 0.0
C21 C 0.62981 0.74123 0.94421 0.0
C22 C 0.64321 0.77025 0.06124 0.0
C23 C 0.61287 0.67543 0.0237 0.0
O24 O 0.63508 0.7308 0.98236 0.0
O25 O 0.60661 0.73862 0.94208 0.0
O26 O 0.60739 0.72024 0.12439 0.0
O27 O 0.57801 0.6969 0.065 0.0
Co28 Co 0.2552 0.89182 0.07184 0.0
O29 O 0.2238 0.85699 0.0805 0.0
O30 O 0.2231 0.89552 0.07508 0.0
C31 C 0.27788 0.88355 0.13535 0.0
O32 O 0.28497 0.92976 0.06077 0.0
Co33 Co 0.28992 0.87924 0.01522 0.0
O34 O 0.31248 0.92032 0.01413 0.0
C35 C 0.25081 0.87905 0.95523 0.0
C36 C 0.20988 0.86927 0.0797 0.0
C37 C 0.30653 0.93721 0.0341 0.0
O38 O 0.24873 0.89023 0.99568 0.0
O39 O 0.26544 0.86806 0.9549 0.0
O40 O 0.2615 0.89242 0.14403 0.0
O41 O 0.28282 0.88177 0.08755 0.0
Co42 Co 0.36346 0.0959 0.94458 0.0
O43 O 0.36714 0.13099 0.95208 0.0
O44 O 0.32807 0.09306 0.94042 0.0
C45 C 0.39614 0.10942 0.88091 0.0
O46 O 0.35404 0.05753 0.93817 0.0
Co47 Co 0.39616 0.10425 1.0004 0.0
O48 O 0.38393 0.06418 0.99831 0.0
C49 C 0.36111 0.10165 0.05852 0.0
C50 C 0.34102 0.11904 0.9481 0.0
C51 C 0.36502 0.04821 0.96852 0.0
O52 O 0.35217 0.08686 0.01911 0.0
O53 O 0.3859 0.11901 0.05939 0.0
O54 O 0.37158 0.10314 0.87381 0.0
O55 O 0.40363 0.10826 0.92716 0.0
Co56 Co 0.88017 0.25095 0.96356 0.0
O57 O 0.84608 0.2185 0.97358 0.0
O58 O 0.88421 0.21936 0.95315 0.0
C59 C 0.86419 0.2707 0.90425 0.0
O60 O 0.91721 0.28141 0.95389 0.0
Co61 Co 0.8684 0.26783 0.02112 0.0
O62 O 0.90626 0.30092 0.01461 0.0
C63 C 0.88013 0.24106 0.07704 0.0
C64 C 0.85858 0.20528 0.96381 0.0
C65 C 0.92375 0.30148 0.98355 0.0
O66 O 0.89313 0.24852 0.03526 0.0
O67 O 0.8598 0.24399 0.08164 0.0
O68 O 0.86988 0.25227 0.89436 0.0
O69 O 0.8665 0.27841 0.95125 0.0
Co70 Co 0.71311 0.61692 0.96861 0.0
O71 O 0.74549 0.61515 0.97793 0.0
O72 O 0.74474 0.65302 0.96251 0.0
C73 C 0.69574 0.58344 0.90616 0.0
O74 O 0.68247 0.6238 0.95933 0.0
Co75 Co 0.6922 0.58561 0.02438 0.0
O76 O 0.66197 0.59464 0.02189 0.0
C77 C 0.72189 0.62173 0.08206 0.0
C78 C 0.75874 0.64115 0.97147 0.0
C79 C 0.6625 0.61184 0.99006 0.0
O80 O 0.71467 0.62927 0.04229 0.0
O81 O 0.71698 0.59767 0.08376 0.0
O82 O 0.71323 0.6082 0.89874 0.0
O83 O 0.68672 0.57607 0.95218 0.0
Co84 Co 0.88341 0.62817 0.95998 0.0
O85 O 0.84748 0.62138 0.97318 0.0
O86 O 0.88165 0.66118 0.94969 0.0
C87 C 0.87004 0.59164 0.90264 0.0
O88 O 0.92181 0.63983 0.94723 0.0
Co89 Co 0.87551 0.60195 0.01739 0.0
O90 O 0.91491 0.61107 0.00943 0.0
C91 C 0.88424 0.63907 0.07327 0.0
C92 C 0.85646 0.64673 0.96333 0.0
C93 C 0.93098 0.62866 0.97734 0.0
O94 O 0.89675 0.64542 0.03082 0.0
O95 O 0.86511 0.61516 0.0783 0.0
O96 O 0.87232 0.61446 0.89149 0.0
O97 O 0.8749 0.58828 0.9494 0.0
Co98 Co 0.3487 0.2551 0.9595 0.0
O99 O 0.35712 0.22676 0.96787 0.0
O100 O 0.31639 0.21992 0.94842 0.0
C101 C 0.38425 0.28008 0.90061 0.0
O102 O 0.33576 0.28124 0.95257 0.0
Co103 Co 0.37529 0.27132 0.01488 0.0
O104 O 0.3653 0.30115 0.01436 0.0
C105 C 0.33889 0.24204 0.07228 0.0
C106 C 0.33189 0.20985 0.95876 0.0
C107 C 0.34696 0.30033 0.9852 0.0
O108 O 0.33194 0.24886 0.03129 0.0
O109 O 0.36293 0.24697 0.0753 0.0
O110 O 0.3615 0.25953 0.8898 0.0
O111 O 0.38801 0.28752 0.9478 0.0
Co112 Co 0.72102 0.09041 0.93969 0.0
O113 O 0.75337 0.12484 0.93722 0.0
O114 O 0.75215 0.08525 0.93766 0.0
C115 C 0.70085 0.1022 0.87734 0.0
O116 O 0.69044 0.0526 0.94469 0.0
Co117 Co 0.68604 0.1017 0.99752 0.0
O118 O 0.66357 0.06057 0.99626 0.0
C119 C 0.72465 0.10095 0.056 0.0
C120 C 0.76635 0.11156 0.938 0.0
C121 C 0.66925 0.04432 0.97276 0.0
O122 O 0.72513 0.08874 0.0158 0.0
O123 O 0.71115 0.11312 0.0569 0.0
O124 O 0.71697 0.0931 0.86763 0.0
O125 O 0.69466 0.10215 0.92505 0.0
Co126 Co 0.62091 0.88755 0.07006 0.0
O127 O 0.61764 0.85241 0.06907 0.0
O128 O 0.65659 0.89098 0.07497 0.0
C129 C 0.58896 0.8767 0.13451 0.0
O130 O 0.62982 0.92594 0.07018 0.0
Co131 Co 0.58687 0.87668 0.01437 0.0
O132 O 0.59801 0.91643 0.01242 0.0
C133 C 0.6213 0.87778 0.95612 0.0
C134 C 0.6438 0.86472 0.07212 0.0
C135 C 0.61744 0.93366 0.03978 0.0
O136 O 0.63107 0.89336 0.99442 0.0
O137 O 0.59649 0.86051 0.95709 0.0
O138 O 0.61368 0.8835 0.14166 0.0
O139 O 0.58089 0.87551 0.08786 0.0
Co140 Co 0.09676 0.72857 0.04992 0.0
O141 O 0.13065 0.76009 0.06536 0.0
O142 O 0.09152 0.75951 0.05859 0.0
C143 C 0.10108 0.70049 0.10467 0.0
O144 O 0.05771 0.69962 0.03455 0.0
Co145 Co 0.09503 0.67926 0.99891 0.0
O146 O 0.0556 0.66063 0.01124 0.0
C147 C 0.09929 0.72395 0.93504 0.0
C148 C 0.11751 0.77321 0.06649 0.0
C149 C 0.0443 0.67446 0.02152 0.0
O150 O 0.10237 0.73737 0.97586 0.0
O151 O 0.09636 0.70014 0.93524 0.0
O152 O 0.09286 0.71681 0.11988 0.0
O153 O 0.10919 0.70332 0.05759 0.0
Co154 Co 0.25073 0.37297 0.04556 0.0
O155 O 0.22165 0.3803 0.04659 0.0
O156 O 0.21673 0.33914 0.05296 0.0
C157 C 0.27772 0.40582 0.09987 0.0
O158 O 0.27698 0.35829 0.04451 0.0
Co159 Co 0.30505 0.41497 0.9987 0.0
O160 O 0.31901 0.39282 0.02941 0.0
C161 C 0.26295 0.37266 0.93402 0.0
C162 C 0.20569 0.35432 0.04964 0.0
C163 C 0.30273 0.36802 0.03943 0.0
O164 O 0.24646 0.36754 0.97075 0.0
O165 O 0.28792 0.39114 0.93665 0.0
O166 O 0.25836 0.3827 0.11622 0.0
O167 O 0.27853 0.40974 0.05088 0.0
Co168 Co 0.76118 0.70242 0.36596 0.0
O169 O 0.79828 0.71627 0.34766 0.0
O170 O 0.77013 0.6736 0.36905 0.0
C171 C 0.76993 0.73571 0.42794 0.0
O172 O 0.72241 0.68417 0.38325 0.0
Co173 Co 0.76448 0.72884 0.31308 0.0
O174 O 0.72404 0.71376 0.32689 0.0
C175 C 0.7599 0.69516 0.25214 0.0
C176 C 0.7941 0.69195 0.35392 0.0
C177 C 0.71044 0.6942 0.35775 0.0
O178 O 0.74792 0.68637 0.29464 0.0
O179 O 0.77665 0.72006 0.24875 0.0
O180 O 0.77264 0.71504 0.43457 0.0
O181 O 0.7625 0.73884 0.38308 0.0
Co182 Co 0.29364 0.05452 0.35083 0.0
O183 O 0.27012 0.06946 0.34715 0.0
O184 O 0.31441 0.09371 0.35822 0.0
C185 C 0.26797 0.022 0.41402 0.0
O186 O 0.32117 0.0431 0.35231 0.0
Co187 Co 0.26786 0.03094 0.30027 0.0
O188 O 0.29367 0.01606 0.29303 0.0
C189 C 0.29379 0.06534 0.23712 0.0
C190 C 0.29147 0.09306 0.35195 0.0
C191 C 0.31577 0.02523 0.31801 0.0
O192 O 0.30642 0.06526 0.27691 0.0
O193 O 0.26841 0.05107 0.23778 0.0
O194 O 0.28458 0.04694 0.42211 0.0
O195 O 0.26478 0.01421 0.36703 0.0
Co196 Co 0.93979 0.21945 0.35541 0.0
O197 O 0.91364 0.18201 0.34422 0.0
O198 O 0.90333 0.21378 0.36128 0.0
C199 C 0.96428 0.21135 0.4177 0.0
O200 O 0.96267 0.25869 0.36614 0.0
Co201 Co 0.96371 0.21526 0.30035 0.0
O202 O -0.01117 0.25616 0.30697 0.0
C203 C 0.93062 0.21589 0.24237 0.0
C204 C 0.89512 0.18856 0.35101 0.0
C205 C 0.98367 0.27025 0.33786 0.0
O206 O 0.93545 0.22978 0.28276 0.0
O207 O 0.93974 0.1999 0.23986 0.0
O208 O 0.94198 0.21084 0.42487 0.0
O209 O 0.97392 0.21606 0.37175 0.0
Co210 Co 0.02664 0.43118 0.32219 0.0
O211 O 0.03184 0.46538 0.34548 0.0
O212 O -0.00564 0.43375 0.30898 0.0
C213 C 0.06615 0.4487 0.27198 0.0
O214 O 0.01694 0.39501 0.29758 0.0
Co215 Co 0.04883 0.43558 0.38228 0.0
O216 O 0.04306 0.39813 0.36204 0.0
C217 C 0.00758 0.42167 0.4299 0.0
C218 C 0.00746 0.45749 0.32996 0.0
C219 C 0.02783 0.38447 0.32486 0.0
O220 O 0.0052 0.41102 0.38637 0.0
O221 O 0.03017 0.44192 0.44025 0.0
O222 O 0.04451 0.44862 0.25966 0.0
O223 O 0.06681 0.43995 0.31717 0.0
Co224 Co 0.54015 0.59803 0.32141 0.0
O225 O 0.50455 0.56749 0.31605 0.0
O226 O 0.54247 0.56543 0.31318 0.0
C227 C 0.53484 0.62554 0.26735 0.0
O228 O 0.58061 0.6257 0.32599 0.0
Co229 Co 0.54758 0.64964 0.37263 0.0
O230 O 0.58624 0.66497 0.35707 0.0
C231 C 0.55139 0.60834 0.43314 0.0
C232 C 0.51615 0.55289 0.31333 0.0
C233 C 0.59576 0.65049 0.34034 0.0
O234 O 0.53914 0.59222 0.39636 0.0
O235 O 0.55677 0.633 0.43254 0.0
O236 O 0.53975 0.60697 0.25088 0.0
O237 O 0.52968 0.62481 0.31588 0.0
Co238 Co 0.36755 0.92036 0.3724 0.0
O239 O 0.3768 0.89667 0.40995 0.0
O240 O 0.40579 0.93818 0.38289 0.0
C241 C 0.33908 0.89034 0.31393 0.0
O242 O 0.36695 0.95049 0.33282 0.0
Co243 Co 0.30988 0.91221 0.36993 0.0
O244 O 0.32429 0.93492 0.30785 0.0
C245 C 0.34876 0.94818 0.44733 0.0
C246 C 0.40174 0.9163 0.406 0.0
C247 C 0.34927 0.95283 0.30666 0.0
O248 O 0.36396 0.93805 0.43638 0.0
O249 O 0.32584 0.94025 0.42577 0.0
O250 O 0.36515 0.90132 0.30923 0.0
O251 O 0.33105 0.89464 0.35746 0.0
Co252 Co 0.53588 0.91311 0.37168 0.0
O253 O 0.50141 0.89044 0.40557 0.0
O254 O 0.5175 0.93307 0.38122 0.0
C255 C 0.53409 0.88363 0.31214 0.0
O256 O 0.56889 0.94291 0.33601 0.0
Co257 Co 0.58287 0.90101 0.37368 0.0
O258 O 0.59627 0.92678 0.31574 0.0
C259 C 0.58 0.93677 0.45156 0.0
C260 C 0.4982 0.91148 0.40262 0.0
C261 C 0.58982 0.94514 0.31336 0.0
O262 O 0.55527 0.92803 0.43813 0.0
O263 O 0.59474 0.92826 0.43103 0.0
O264 O 0.52048 0.89617 0.30655 0.0
O265 O 0.54483 0.88603 0.35688 0.0
Co266 Co 0.02876 0.59986 0.3153 0.0
O267 O 0.03385 0.57001 0.3325 0.0
O268 O -0.00472 0.56555 0.3042 0.0
C269 C 0.06633 0.62245 0.2603 0.0
O270 O 0.0199 0.62803 0.2978 0.0
Co271 Co 0.05278 0.61411 0.37284 0.0
O272 O 0.04829 0.64742 0.36153 0.0
C273 C 0.01289 0.58822 0.42542 0.0
C274 C 0.00868 0.5542 0.32108 0.0
C275 C 0.0327 0.6483 0.32736 0.0
O276 O 0.00977 0.59776 0.38371 0.0
O277 O 0.03508 0.58883 0.43129 0.0
O278 O 0.04406 0.60133 0.24888 0.0
O279 O 0.06894 0.63038 0.30718 0.0
Co280 Co 0.37768 0.42636 0.30736 0.0
O281 O 0.40568 0.46101 0.3309 0.0
O282 O 0.41314 0.4302 0.29523 0.0
C283 C 0.35474 0.44253 0.25583 0.0
O284 O 0.35234 0.38991 0.28302 0.0
Co285 Co 0.35995 0.43085 0.36633 0.0
O286 O 0.32894 0.39289 0.34685 0.0
C287 C 0.38609 0.41641 0.41646 0.0
C288 C 0.42288 0.4539 0.31605 0.0
C289 C 0.33104 0.37911 0.31051 0.0
O290 O 0.3792 0.40642 0.3721 0.0
O291 O 0.38365 0.43667 0.42629 0.0
O292 O 0.37675 0.44323 0.24397 0.0
O293 O 0.34556 0.43393 0.30115 0.0
Co294 Co 0.26098 0.2151 0.3564 0.0
O295 O 0.24837 0.17745 0.34464 0.0
O296 O 0.29109 0.20831 0.35924 0.0
C297 C 0.23016 0.2083 0.42194 0.0
O298 O 0.2782 0.25428 0.36697 0.0
Co299 Co 0.23228 0.20948 0.30513 0.0
O300 O 0.24714 0.25034 0.31199 0.0
C301 C 0.26528 0.21199 0.24274 0.0
C302 C 0.27331 0.18324 0.34966 0.0
C303 C 0.2675 0.26518 0.34021 0.0
O304 O 0.27475 0.22564 0.28323 0.0
O305 O 0.2403 0.19531 0.24187 0.0
O306 O 0.25146 0.20664 0.42665 0.0
O307 O 0.2245 0.21306 0.37657 0.0
Co308 Co 0.74638 0.05983 0.35278 0.0
O309 O 0.78502 0.07634 0.35014 0.0
O310 O 0.76347 0.09925 0.35866 0.0
C311 C 0.74049 0.02834 0.41738 0.0
O312 O 0.70683 0.04591 0.35276 0.0
Co313 Co 0.75153 0.03755 0.30434 0.0
O314 O 0.71041 0.01903 0.29701 0.0
C315 C 0.75795 0.07075 0.23978 0.0
C316 C 0.78632 0.09955 0.35349 0.0
C317 C 0.6957 0.02675 0.32014 0.0
O318 O 0.74379 0.06924 0.27824 0.0
O319 O 0.77115 0.05851 0.24243 0.0
O320 O 0.74783 0.05315 0.42456 0.0
O321 O 0.73688 0.02029 0.37051 0.0
Co322 Co 0.94156 0.71864 0.35382 0.0
O323 O 0.91357 0.72735 0.34296 0.0
O324 O 0.90629 0.68601 0.35869 0.0
C325 C 0.96471 0.75086 0.41744 0.0
O326 O 0.96702 0.70535 0.36428 0.0
Co327 Co 0.96271 0.7478 0.3002 0.0
O328 O -0.00946 0.73513 0.30424 0.0
C329 C 0.9319 0.71365 0.24078 0.0
C330 C 0.89649 0.70172 0.34835 0.0
C331 C 0.98775 0.71663 0.33533 0.0
O332 O 0.93828 0.70504 0.28023 0.0
O333 O 0.93847 0.73823 0.23996 0.0
O334 O 0.94291 0.72845 0.42391 0.0
O335 O 0.97398 0.75693 0.37128 0.0
Co336 Co 0.44379 0.07222 0.64267 0.0
O337 O 0.47798 0.09256 0.60732 0.0
O338 O 0.45987 0.05005 0.63426 0.0
C339 C 0.4485 0.10343 0.70055 0.0
O340 O 0.41003 0.04472 0.68051 0.0
Co341 Co 0.39964 0.08772 0.63786 0.0
O342 O 0.38628 0.06498 0.69972 0.0
C343 C 0.39891 0.04822 0.56499 0.0
C344 C 0.47969 0.07071 0.61152 0.0
C345 C 0.39032 0.04505 0.70354 0.0
O346 O 0.42379 0.05718 0.57703 0.0
O347 O 0.38497 0.05789 0.58466 0.0
O348 O 0.46067 0.08948 0.70623 0.0
O349 O 0.43748 0.10129 0.656 0.0
Co350 Co 0.92602 0.37722 0.69664 0.0
O351 O 0.92098 0.40711 0.71302 0.0
O352 O 0.96094 0.40931 0.7076 0.0
C353 C 0.89406 0.34673 0.74842 0.0
O354 O 0.93907 0.35054 0.68141 0.0
Co355 Co 0.88204 0.32798 0.63994 0.0
O356 O 0.90542 0.31194 0.6486 0.0
C357 C 0.92318 0.37421 0.58144 0.0
C358 C 0.94718 0.42156 0.7152 0.0
C359 C 0.92969 0.32636 0.66392 0.0
O360 O 0.92991 0.38733 0.62326 0.0
O361 O 0.90402 0.34956 0.57876 0.0
O362 O 0.91783 0.36422 0.76549 0.0
O363 O 0.88884 0.34991 0.70139 0.0
Co364 Co 0.61357 0.55827 0.67542 0.0
O365 O 0.59062 0.52425 0.64264 0.0
O366 O 0.57588 0.5485 0.68256 0.0
C367 C 0.63782 0.5436 0.72636 0.0
O368 O 0.63326 0.59314 0.71011 0.0
Co369 Co 0.6362 0.56116 0.61824 0.0
O370 O 0.66243 0.59825 0.65023 0.0
C371 C 0.60705 0.57259 0.56956 0.0
C372 C 0.5703 0.52672 0.65741 0.0
C373 C 0.65614 0.60776 0.68876 0.0
O374 O 0.61209 0.58078 0.61529 0.0
O375 O 0.61347 0.55533 0.55645 0.0
O376 O 0.61368 0.53838 0.73461 0.0
O377 O 0.64877 0.55605 0.68416 0.0
Co378 Co 0.71087 0.76853 0.66597 0.0
O379 O 0.71932 0.80542 0.67132 0.0
O380 O 0.6781 0.77068 0.65844 0.0
C381 C 0.74302 0.77586 0.6033 0.0
O382 O 0.69771 0.72964 0.66169 0.0
Co383 Co 0.74059 0.77904 0.72011 0.0
O384 O 0.72952 0.73886 0.71917 0.0
C385 C 0.70576 0.77586 0.77816 0.0
C386 C 0.69367 0.79653 0.66526 0.0
C387 C 0.71016 0.72175 0.69132 0.0
O388 O 0.69748 0.7603 0.73971 0.0
O389 O 0.73024 0.79412 0.77874 0.0
O390 O 0.72045 0.7747 0.59551 0.0
O391 O 0.74923 0.77408 0.65014 0.0
Co392 Co 0.23521 0.9221 0.65547 0.0
O393 O 0.1969 0.89819 0.65436 0.0
O394 O 0.2272 0.88469 0.65162 0.0
C395 C 0.23561 0.94997 0.5883 0.0
O396 O 0.27505 0.9432 0.65905 0.0
Co397 Co 0.22481 0.94238 0.70281 0.0
O398 O 0.26554 0.9666 0.71352 0.0
C399 C 0.22117 0.91053 0.76792 0.0
C400 C 0.20197 0.87845 0.65343 0.0
C401 C 0.28307 0.96237 0.69146 0.0
O402 O 0.23755 0.91472 0.73157 0.0
O403 O 0.20515 0.9195 0.76277 0.0
O404 O 0.23426 0.92713 0.58297 0.0
O405 O 0.23618 0.95805 0.6346 0.0
Co406 Co 0.04568 0.27826 0.66097 0.0
O407 O 0.06936 0.26664 0.68835 0.0
O408 O 0.08264 0.30833 0.66174 0.0
C409 C 0.02514 0.2438 0.59973 0.0
O410 O 0.02488 0.29449 0.63411 0.0
Co411 Co 0.02078 0.25215 0.71308 0.0
O412 O -0.0054 0.26437 0.68673 0.0
C413 C 0.04663 0.28817 0.77323 0.0
C414 C 0.08886 0.29128 0.6818 0.0
C415 C 0.00136 0.28341 0.65407 0.0
O416 O 0.04406 0.2953 0.72863 0.0
O417 O 0.03953 0.26366 0.77997 0.0
O418 O 0.0485 0.26474 0.59549 0.0
O419 O 0.01252 0.2408 0.64232 0.0
Co420 Co 0.21836 0.27988 0.66701 0.0
O421 O 0.18199 0.26754 0.68882 0.0
O422 O 0.21095 0.30969 0.66578 0.0
C423 C 0.20695 0.24592 0.60524 0.0
O424 O 0.25645 0.29659 0.64694 0.0
Co425 Co 0.21309 0.25406 0.71894 0.0
O426 O 0.2533 0.26722 0.70509 0.0
C427 C 0.22329 0.29004 0.7792 0.0
C428 C 0.18713 0.29219 0.68299 0.0
C429 C 0.26791 0.28679 0.67468 0.0
O430 O 0.23468 0.29681 0.73615 0.0
O431 O 0.20373 0.26628 0.78373 0.0
O432 O 0.20466 0.26689 0.59968 0.0
O433 O 0.21522 0.2428 0.64937 0.0
Co434 Co 0.67657 0.925 0.65764 0.0
O435 O 0.69663 0.90644 0.6542 0.0
O436 O 0.65188 0.8861 0.6525 0.0
C437 C 0.70111 0.95576 0.5914 0.0
O438 O 0.65237 0.94038 0.66408 0.0
Co439 Co 0.70615 0.94789 0.70485 0.0
O440 O 0.68372 0.96593 0.71968 0.0
C441 C 0.68181 0.91408 0.7697 0.0
C442 C 0.67363 0.88412 0.65351 0.0
C443 C 0.66088 0.95858 0.69863 0.0
O444 O 0.66774 0.91545 0.73347 0.0
O445 O 0.70712 0.92686 0.76457 0.0
O446 O 0.68182 0.93159 0.58526 0.0
O447 O 0.70768 0.96384 0.63795 0.0
Co448 Co 0.05288 0.7619 0.65232 0.0
O449 O 0.08209 0.7977 0.66586 0.0
O450 O 0.08731 0.7631 0.64358 0.0
C451 C 0.03043 0.77509 0.59332 0.0
O452 O 0.02638 0.72393 0.63907 0.0
Co453 Co 0.03536 0.77083 0.70792 0.0
O454 O 0.0046 0.73137 0.7005 0.0
C455 C 0.06405 0.76219 0.76378 0.0
C456 C 0.09823 0.78834 0.65675 0.0
C457 C 0.00606 0.71509 0.66893 0.0
O458 O 0.05566 0.74815 0.72341 0.0
O459 O 0.06105 0.78255 0.76657 0.0
O460 O 0.05137 0.77327 0.58396 0.0
O461 O 0.02146 0.77016 0.63967 0.0
Co462 Co 0.93088 0.54454 0.7019 0.0
O463 O 0.92413 0.50819 0.70544 0.0
O464 O 0.96453 0.54496 0.71561 0.0
C465 C 0.89645 0.5394 0.75171 0.0
O466 O 0.94484 0.58509 0.70082 0.0
Co467 Co 0.8899 0.55541 0.64521 0.0
O468 O 0.9117 0.59242 0.67247 0.0
C469 C 0.93232 0.55275 0.5861 0.0
C470 C 0.94989 0.51871 0.71357 0.0
C471 C 0.93524 0.60082 0.69067 0.0
O472 O 0.93945 0.54632 0.62765 0.0
O473 O 0.91214 0.55677 0.58367 0.0
O474 O 0.91867 0.54229 0.77102 0.0
O475 O 0.89399 0.53578 0.70253 0.0
Co476 Co 0.44063 0.3832 0.6828 0.0
O477 O 0.47833 0.40644 0.67098 0.0
O478 O 0.44894 0.42052 0.68583 0.0
C479 C 0.44251 0.3545 0.73964 0.0
O480 O 0.39994 0.36376 0.69504 0.0
Co481 Co 0.41672 0.32562 0.63996 0.0
O482 O 0.38608 0.31954 0.68351 0.0
C483 C 0.42098 0.3682 0.57221 0.0
C484 C 0.47347 0.42634 0.67415 0.0
C485 C 0.38176 0.33848 0.69686 0.0
O486 O 0.4335 0.3843 0.60886 0.0
O487 O 0.41235 0.34274 0.57522 0.0
O488 O 0.44685 0.37821 0.75315 0.0
O489 O 0.442 0.3508 0.69046 0.0
Co490 Co 0.61095 0.064 0.64725 0.0
O491 O 0.60042 0.08563 0.60666 0.0
O492 O 0.57258 0.04499 0.63922 0.0
C493 C 0.63991 0.09628 0.70142 0.0
O494 O 0.61321 0.03584 0.69065 0.0
Co495 Co 0.66888 0.07324 0.64764 0.0
O496 O 0.65648 0.05296 0.71273 0.0
C497 C 0.62926 0.03498 0.57397 0.0
C498 C 0.57579 0.0657 0.61286 0.0
C499 C 0.63171 0.03473 0.71647 0.0
O500 O 0.61371 0.04454 0.58554 0.0
O501 O 0.65271 0.04392 0.59393 0.0
O502 O 0.6139 0.08503 0.70755 0.0
O503 O 0.64745 0.09075 0.65849 0.0
C504 C 0.97004 0.31118 1.00018 0.0
C505 C 0.95236 0.32118 0.9922 0.0
H506 H 0.00968 0.32001 0.02146 0.0
C507 C 0.96154 0.34886 0.99997 0.0
H508 H 0.9632 0.28982 0.99561 0.0
C509 C -0.01142 0.36643 0.0139 0.0
C510 C 0.00596 0.35603 0.023 0.0
H511 H 0.94794 0.3568 0.99484 0.0
H512 H -0.00415 0.38791 0.01778 0.0
C513 C -0.0036 0.32833 0.01618 0.0
C514 C 0.63706 0.63355 0.95556 0.0
C515 C 0.64353 0.62206 0.99663 0.0
H516 H 0.62116 0.65891 0.93231 0.0
C517 C 0.63554 0.62452 0.04617 0.0
H518 H 0.64282 0.63173 0.91707 0.0
C519 C 0.62415 0.64088 0.05514 0.0
C520 C 0.61962 0.65406 0.01445 0.0
H521 H 0.64021 0.61574 0.07855 0.0
H522 H 0.61999 0.64417 0.09394 0.0
C523 C 0.6247 0.64905 0.96436 0.0
C524 C 0.36501 0.00561 0.99379 0.0
C525 C 0.35091 0.01906 0.97998 0.0
H526 H 0.36181 0.96846 0.02122 0.0
C527 C 0.32268 0.00564 0.9854 0.0
H528 H 0.38688 0.01583 0.99089 0.0
C529 C 0.30872 0.9795 1.00514 0.0
C530 C 0.32253 0.96581 0.0185 0.0
H531 H 0.31142 0.01582 0.97641 0.0
H532 H 0.28691 0.96977 0.009 0.0
C533 C 0.35078 0.97881 0.01178 0.0
C534 C 0.00556 0.67821 0.98781 0.0
C535 C 0.01521 0.66225 0.01014 0.0
H536 H 0.97146 0.67972 0.95767 0.0
C537 C -0.00262 0.63437 0.01693 0.0
H538 H 0.01908 0.6996 0.9808 0.0
C539 C 0.97001 0.623 1.00402 0.0
C540 C 0.9603 0.63917 0.98254 0.0
H541 H 0.00448 0.62153 0.03318 0.0
H542 H 0.95636 0.60169 0.0116 0.0
C543 C 0.97845 0.66673 0.97357 0.0
C544 C 0.30848 0.30937 0.98883 0.0
C545 C 0.33602 0.31832 0.99669 0.0
H546 H 0.276 0.31758 0.99867 0.0
C547 C 0.35208 0.34284 0.02255 0.0
H548 H 0.29553 0.29027 0.97002 0.0
C549 C 0.34089 0.35838 0.03931 0.0
C550 C 0.31328 0.34939 0.03152 0.0
H551 H 0.37333 0.35004 0.02974 0.0
H552 H 0.35392 0.37765 0.05759 0.0
C553 C 0.29715 0.32464 1.00651 0.0
C554 C 0.6578 0.97717 0.01884 0.0
C555 C 0.62976 0.96249 0.02663 0.0
H556 H 0.69179 0.01403 0.99349 0.0
C557 C 0.61405 0.97451 0.01482 0.0
H558 H 0.67025 0.96812 0.02647 0.0
C559 C 0.62657 0.00128 0.99662 0.0
C560 C 0.65466 0.01559 0.98768 0.0
H561 H 0.59226 0.96329 0.0198 0.0
H562 H 0.61439 0.01063 0.98902 0.0
C563 C 0.67003 0.00323 0.99889 0.0
C564 C 0.66874 0.69502 0.38043 0.0
C565 C 0.68103 0.68172 0.35771 0.0
H566 H 0.63201 0.69554 0.39272 0.0
C567 C 0.66559 0.65869 0.32776 0.0
H568 H 0.68059 0.71321 0.40268 0.0
C569 C 0.63791 0.64877 0.321 0.0
C570 C 0.62534 0.66186 0.34397 0.0
H571 H 0.67513 0.64883 0.30849 0.0
H572 H 0.62641 0.63097 0.29761 0.0
C573 C 0.64107 0.68509 0.3739 0.0
C574 C 0.36424 -0.00079 0.33361 0.0
C575 C 0.35482 0.9801 0.29382 0.0
H576 H 0.35795 0.02822 0.37432 0.0
C577 C 0.33989 0.98269 0.25415 0.0
H578 H 0.37622 -0.00213 0.36437 0.0
C579 C 0.32941 -7e-05 0.25998 0.0
C580 C 0.33398 0.01476 0.30535 0.0
H581 H 0.33281 0.96847 0.22273 0.0
H582 H 0.31546 -0.00059 0.23133 0.0
C583 C 0.3534 0.01626 0.33991 0.0
C584 C 0.98262 0.31003 0.30543 0.0
C585 C -0.00294 0.29951 0.33044 0.0
H586 H 0.98162 0.34541 0.28226 0.0
C587 C 0.02356 0.31694 0.34714 0.0
H588 H 0.96233 0.29666 0.29133 0.0
C589 C 0.03461 0.34501 0.34247 0.0
C590 C 0.01941 0.35562 0.31994 0.0
H591 H 0.03515 0.30895 0.36551 0.0
H592 H 0.05453 0.35838 0.35806 0.0
C593 C -0.0062 0.33785 0.29967 0.0
C594 C 0.62027 -0.00754 0.33872 0.0
C595 C 0.61197 0.97232 0.30099 0.0
H596 H 0.65416 0.02572 0.37556 0.0
C597 C 0.63007 0.97509 0.26239 0.0
H598 H 0.60655 0.99069 0.36901 0.0
C599 C 0.65714 -0.00491 0.26611 0.0
C600 C 0.66647 0.01231 0.30885 0.0
H601 H 0.62405 0.95988 0.23285 0.0
H602 H 0.67116 -0.00471 0.23799 0.0
C603 C 0.64758 0.01231 0.34296 0.0
C604 C 0.00893 0.69585 0.28439 0.0
C605 C 0.00562 0.70526 0.3317 0.0
H606 H 0.01988 0.66954 0.24589 0.0
C607 C 0.01559 0.69962 0.37597 0.0
H608 H 0.00134 0.70015 0.24981 0.0
C609 C 0.02689 0.68289 0.3735 0.0
C610 C 0.02726 0.67085 0.32705 0.0
H611 H 0.01335 0.70697 0.41266 0.0
H612 H 0.0332 0.67762 0.40859 0.0
C613 C 0.01931 0.6783 0.28215 0.0
C614 C 0.32358 0.33302 0.30014 0.0
C615 C 0.31261 0.34978 0.3095 0.0
H616 H 0.31791 0.29311 0.30522 0.0
C617 C 0.2858 0.33835 0.32726 0.0
H618 H 0.34427 0.34137 0.28708 0.0
C619 C 0.27051 0.31048 0.3369 0.0
C620 C 0.28245 0.29429 0.33093 0.0
H621 H 0.27704 0.35103 0.33497 0.0
H622 H 0.24989 0.30179 0.35057 0.0
C623 C 0.30876 0.30558 0.31153 0.0
C624 C 0.33206 0.97713 0.67877 0.0
C625 C 0.31188 0.97963 0.70453 0.0
H626 H 0.37416 -0.00412 0.66092 0.0
C627 C 0.31947 -0.00015 0.74185 0.0
H628 H 0.32681 0.96128 0.6509 0.0
C629 C 0.34656 0.01941 0.7482 0.0
C630 C 0.3664 0.01914 0.71705 0.0
H631 H 0.3044 0.00177 0.7637 0.0
H632 H 0.35161 0.03639 0.77325 0.0
C633 C 0.35926 -0.00333 0.68537 0.0
C634 C 0.93841 0.28842 0.64317 0.0
C635 C 0.94825 0.31549 0.65809 0.0
H636 H 0.94794 0.25697 0.62959 0.0
C637 C 0.97621 0.33238 0.66576 0.0
H638 H 0.91703 0.27495 0.6362 0.0
C639 C -0.00616 0.32227 0.66018 0.0
C640 C 0.98378 0.29502 0.64767 0.0
H641 H 0.9845 0.35336 0.67676 0.0
H642 H 0.01515 0.33535 0.66851 0.0
C643 C 0.95603 0.27817 0.63872 0.0
C644 C 0.71294 0.67978 0.6826 0.0
C645 C 0.69927 0.69294 0.69976 0.0
H646 H 0.70968 0.64142 0.66638 0.0
C647 C 0.67377 0.67813 0.72254 0.0
H648 H 0.73293 0.69119 0.66579 0.0
C649 C 0.66082 0.65002 0.72418 0.0
C650 C 0.67302 0.63648 0.70175 0.0
H651 H 0.66333 0.68827 0.73689 0.0
H652 H 0.64036 0.63896 0.73898 0.0
C653 C 0.69973 0.6515 0.68322 0.0
C654 C 0.34191 0.3401 0.66588 0.0
C655 C 0.35324 0.33027 0.70163 0.0
H656 H 0.3059 0.33326 0.62732 0.0
C657 C 0.33641 0.30665 0.72915 0.0
H658 H 0.35477 0.3578 0.64298 0.0
C659 C 0.30878 0.29224 0.71924 0.0
C660 C 0.29745 0.30121 0.68157 0.0
H661 H 0.34492 0.29843 0.75599 0.0
H662 H 0.2964 0.27384 0.74073 0.0
C663 C 0.31416 0.32561 0.65579 0.0
C664 C 0.62326 0.96884 0.68738 0.0
C665 C 0.64536 0.97146 0.71542 0.0
H666 H 0.5992 0.98679 0.66947 0.0
C667 C 0.65445 0.98881 0.75793 0.0
H668 H 0.61517 0.95489 0.65568 0.0
C669 C 0.64514 0.00687 0.76623 0.0
C670 C 0.62703 0.00795 0.73155 0.0
H671 H 0.67063 0.99035 0.78194 0.0
H672 H 0.6552 0.02261 0.79458 0.0
C673 C 0.61374 0.9868 0.69611 0.0
C674 C -0.00333 0.66787 0.66374 0.0
C675 C 0.98723 0.6859 0.67363 0.0
H676 H 0.98778 0.62678 0.66377 0.0
C677 C 0.96092 0.67594 0.69283 0.0
H678 H 0.01706 0.67514 0.64992 0.0
C679 C 0.94402 0.64811 0.70039 0.0
C680 C 0.95364 0.63016 0.69051 0.0
H681 H 0.95337 0.68958 0.70138 0.0
H682 H 0.92345 0.64059 0.71352 0.0
C683 C 0.98015 0.6403 0.67273 0.0
C684 C 0.15884 0.33432 0.0833 0.0
C685 C 0.17672 0.34355 0.04178 0.0
H686 H 0.1228 0.3314 0.1155 0.0
C687 C 0.16904 0.35084 0.99632 0.0
H688 H 0.16462 0.32885 0.11877 0.0
C689 C 0.14574 0.35289 0.99483 0.0
C690 C 0.12971 0.3472 0.03852 0.0
H691 H 0.18266 0.35801 0.9639 0.0
H692 H 0.14164 0.36131 0.96115 0.0
C693 C 0.1351 0.33594 0.08149 0.0
C694 C 0.65788 0.81355 0.01788 0.0
C695 C 0.65751 0.79987 0.06267 0.0
H696 H 0.65473 0.84652 0.98615 0.0
C697 C 0.66124 0.81278 0.10981 0.0
H698 H 0.65469 0.80371 0.98118 0.0
C699 C 0.66112 0.83725 0.11268 0.0
C700 C 0.65748 0.84887 0.06837 0.0
H701 H 0.66058 0.80231 0.14478 0.0
H702 H 0.66044 0.84518 0.14978 0.0
C703 C 0.65788 0.838 0.02072 0.0
C704 C 0.14391 0.81319 0.12051 0.0
C705 C 0.13264 0.80267 0.07273 0.0
H706 H 0.1779 0.84446 0.16041 0.0
C707 C 0.14325 0.81899 0.02918 0.0
H708 H 0.13624 0.80069 0.15437 0.0
C709 C 0.16709 0.84409 0.03265 0.0
C710 C 0.18034 0.85288 0.07969 0.0
H711 H 0.13516 0.81095 0.99181 0.0
H712 H 0.17693 0.85476 0.99785 0.0
C713 C 0.16767 0.83824 0.12398 0.0
C714 C 0.31377 0.16478 0.91803 0.0
C715 C 0.32225 0.18081 0.96208 0.0
H716 H 0.3128 0.13114 0.87912 0.0
C717 C 0.32953 0.17151 1.00546 0.0
H718 H 0.30832 0.17183 0.88409 0.0
C719 C 0.33216 0.14856 1.00259 0.0
C720 C 0.3274 0.13466 0.95639 0.0
H721 H 0.33612 0.18366 0.0398 0.0
H722 H 0.34065 0.1434 0.0348 0.0
C723 C 0.31638 0.14162 0.91516 0.0
C724 C 0.8272 0.1617 1.00403 0.0
C725 C 0.84314 0.1757 0.96179 0.0
H726 H 0.78975 0.12814 0.02915 0.0
C727 C 0.83742 0.16295 0.91413 0.0
H728 H 0.83129 0.17135 0.04106 0.0
C729 C 0.81334 0.1384 0.9071 0.0
C730 C 0.79541 0.12646 0.94799 0.0
H731 H 0.84943 0.17364 0.88107 0.0
H732 H 0.80721 0.13071 0.86879 0.0
C733 C 0.80351 0.13696 0.99721 0.0
C734 C 0.82889 0.66554 0.92751 0.0
C735 C 0.8384 0.65785 0.97008 0.0
H736 H 0.79498 0.66693 0.89508 0.0
C737 C 0.8248 0.65309 0.01677 0.0
H738 H 0.8391 0.66911 0.89111 0.0
C739 C 0.79984 0.65196 0.01907 0.0
C740 C 0.78831 0.65553 0.97468 0.0
H741 H 0.83193 0.64721 0.05007 0.0
H742 H 0.78816 0.64507 0.054 0.0
C743 C 0.80375 0.66436 0.92982 0.0
C744 C 0.82241 0.67129 0.37757 0.0
C745 C 0.81616 0.68646 0.34358 0.0
H746 H 0.85382 0.66416 0.40557 0.0
C747 C 0.8343 0.70114 0.30431 0.0
H748 H 0.80851 0.65969 0.4079 0.0
C749 C 0.85984 0.70376 0.30315 0.0
C750 C 0.86754 0.69164 0.34111 0.0
H751 H 0.82956 0.71244 0.27693 0.0
H752 H 0.87431 0.71697 0.27485 0.0
C753 C 0.84821 0.67388 0.37629 0.0
C754 C 0.3042 0.1646 0.36713 0.0
C755 C 0.28047 0.16188 0.34518 0.0
H756 H 0.32644 0.14451 0.38687 0.0
C757 C 0.26218 0.13751 0.32135 0.0
H758 H 0.3187 0.18333 0.38539 0.0
C759 C 0.2665 0.1156 0.32237 0.0
C760 C 0.28923 0.11757 0.34716 0.0
H761 H 0.24407 0.13509 0.30297 0.0
H762 H 0.25165 0.09687 0.30454 0.0
C763 C 0.30859 0.14248 0.36808 0.0
C764 C 0.83283 0.12289 0.31938 0.0
C765 C 0.81275 0.12441 0.34771 0.0
H766 H 0.87441 0.14219 0.29776 0.0
C767 C 0.81913 0.14872 0.3724 0.0
H768 H 0.82828 0.10465 0.29873 0.0
C769 C 0.84589 0.17049 0.3718 0.0
C770 C 0.86628 0.16796 0.34651 0.0
H771 H 0.80388 0.15038 0.39414 0.0
H772 H 0.85085 0.18866 0.39305 0.0
C773 C 0.85926 0.14439 0.3188 0.0
C774 C 0.00313 0.49229 0.37738 0.0
C775 C -0.00339 0.47594 0.33398 0.0
H776 H 0.01096 0.53031 0.40739 0.0
C777 C 0.98606 0.48215 0.2909 0.0
H778 H 0.0109 0.48759 0.41127 0.0
C779 C 0.98622 0.50683 0.28856 0.0
C780 C -0.00325 0.52501 0.32945 0.0
H781 H 0.98085 0.46966 0.2571 0.0
H782 H 0.98123 0.51298 0.25297 0.0
C783 C 0.00311 0.51666 0.37517 0.0
C784 C 0.485 0.51357 0.36429 0.0
C785 C 0.49948 0.5235 0.31872 0.0
H786 H 0.44885 0.48252 0.39922 0.0
C787 C 0.49218 0.50664 0.27588 0.0
H788 H 0.49043 0.52639 0.39772 0.0
C789 C 0.46844 0.48128 0.2769 0.0
C790 C 0.45192 0.47319 0.32047 0.0
H791 H 0.50309 0.51414 0.24032 0.0
H792 H 0.46143 0.46966 0.24203 0.0
C793 C 0.46127 0.48856 0.36514 0.0
C794 C 0.42392 0.88819 0.41956 0.0
C795 C 0.42512 0.91345 0.42108 0.0
H796 H 0.44673 0.86758 0.41274 0.0
C797 C 0.45027 0.93699 0.42786 0.0
H798 H 0.4047 0.8697 0.41474 0.0
C799 C 0.47405 0.93579 0.42667 0.0
C800 C 0.47317 0.91103 0.41865 0.0
H801 H 0.45173 0.95666 0.4303 0.0
H802 H 0.49323 0.95458 0.42839 0.0
C803 C 0.44793 0.88698 0.41832 0.0
C804 C 0.5267 0.04338 0.59506 0.0
C805 C 0.55194 0.06726 0.59641 0.0
H806 H 0.48377 0.02587 0.59772 0.0
C807 C 0.55313 0.09237 0.59087 0.0
H808 H 0.52525 0.02372 0.59795 0.0
C809 C 0.5292 0.09362 0.59087 0.0
C810 C 0.50406 0.06976 0.59634 0.0
H811 H 0.57242 0.11106 0.59115 0.0
H812 H 0.53054 0.11326 0.591 0.0
C813 C 0.50295 0.04462 0.595 0.0
C814 C 0.9593 0.46319 0.76382 0.0
C815 C 0.95991 0.45105 0.71785 0.0
H816 H 0.95684 0.49594 0.79855 0.0
C817 C 0.96457 0.46546 0.67205 0.0
H818 H 0.95533 0.45215 0.7994 0.0
C819 C 0.96519 0.49025 0.67149 0.0
C820 C 0.9614 0.50088 0.71683 0.0
H821 H 0.96448 0.45615 0.63612 0.0
H822 H 0.96558 0.49952 0.63514 0.0
C823 C 0.96018 0.48816 0.76333 0.0
C824 C 0.52136 0.50163 0.68241 0.0
C825 C 0.54256 0.50395 0.65149 0.0
H826 H 0.48207 0.47454 0.71397 0.0
C827 C 0.53833 0.48202 0.62093 0.0
H828 H 0.52402 0.51844 0.70574 0.0
C829 C 0.51482 0.45714 0.62629 0.0
C830 C 0.49497 0.45389 0.66165 0.0
H831 H 0.55403 0.48347 0.59563 0.0
H832 H 0.51282 0.44005 0.60466 0.0
C833 C 0.49749 0.47659 0.68731 0.0
C834 C 0.69106 0.85856 0.69918 0.0
C835 C 0.67322 0.85856 0.66245 0.0
H836 H 0.71099 0.83833 0.7292 0.0
C837 C 0.65831 0.83561 0.63188 0.0
H838 H 0.70226 0.87582 0.724 0.0
C839 C 0.66335 0.8139 0.63495 0.0
C840 C 0.6833 0.81537 0.66845 0.0
H841 H 0.64433 0.83529 0.60352 0.0
H842 H 0.65317 0.79705 0.60889 0.0
C843 C 0.69607 0.83717 0.70215 0.0
C844 C 0.13658 0.8242 0.70369 0.0
C845 C 0.12745 0.80603 0.66282 0.0
H846 H 0.16842 0.86145 0.73294 0.0
C847 C 0.14565 0.80845 0.62433 0.0
H848 H 0.12292 0.82233 0.7342 0.0
C849 C 0.17186 0.83105 0.62353 0.0
C850 C 0.17969 0.85086 0.66148 0.0
H851 H 0.13886 0.79446 0.5926 0.0
H852 H 0.1849 0.83427 0.5911 0.0
C853 C 0.16256 0.84645 0.70305 0.0
C854 C 0.16332 0.31812 0.66514 0.0
C855 C 0.16597 0.29887 0.69418 0.0
H856 H 0.13589 0.33101 0.63868 0.0
C857 C 0.14542 0.28226 0.72845 0.0
H858 H 0.1792 0.33142 0.63911 0.0
C859 C 0.12094 0.28198 0.72817 0.0
C860 C 0.11676 0.29835 0.69368 0.0
H861 H 0.14743 0.26786 0.75249 0.0
H862 H 0.10458 0.26736 0.75195 0.0
C863 C 0.13863 0.31787 0.6649 0.0
C864 C 0.09884 0.43575 0.23762 0.0
C865 C 0.08439 0.44953 0.23111 0.0
H866 H 0.1154 0.41373 0.20116 0.0
C867 C 0.08207 0.45797 0.18182 0.0
H868 H 0.10131 0.42927 0.27511 0.0
C869 C 0.09015 0.44902 0.13929 0.0
C870 C 0.10054 0.43146 0.14565 0.0
H871 H 0.07149 0.46911 0.17576 0.0
H872 H 0.08553 0.45344 0.10165 0.0
C873 C 0.10679 0.4267 0.19512 0.0
C874 C 0.53064 0.64058 0.18129 0.0
C875 C 0.53897 0.64745 0.23216 0.0
H876 H 0.53779 0.65302 0.10314 0.0
C877 C 0.55744 0.67448 0.24417 0.0
H878 H 0.51632 0.6198 0.17119 0.0
C879 C 0.57019 0.69346 0.20501 0.0
C880 C 0.56429 0.68566 0.15354 0.0
H881 H 0.56419 0.68028 0.28303 0.0
H882 H 0.58622 0.71361 0.21489 0.0
C883 C 0.54303 0.65959 0.14227 0.0
C884 C 0.31792 0.88262 0.17478 0.0
C885 C 0.29179 0.87903 0.17904 0.0
H886 H 0.35346 0.88873 0.21456 0.0
C887 C 0.27984 0.87438 0.22772 0.0
H888 H 0.32761 0.88609 0.13788 0.0
C889 C 0.29442 0.87563 0.2715 0.0
C890 C 0.32151 0.88197 0.2678 0.0
H891 H 0.25952 0.8711 0.23226 0.0
H892 H 0.28501 0.87344 0.30838 0.0
C893 C 0.33269 0.88415 0.21884 0.0
C894 C 0.43616 0.11025 0.8395 0.0
C895 C 0.4141 0.11466 0.83643 0.0
H896 H 0.4648 0.10377 0.79846 0.0
C897 C 0.40733 0.12104 0.78875 0.0
H898 H 0.44208 0.10561 0.8757 0.0
C899 C 0.42056 0.1203 0.74434 0.0
C900 C 0.44041 0.11264 0.74678 0.0
H901 H 0.39078 0.12514 0.78538 0.0
H902 H 0.4137 0.12358 0.70791 0.0
C903 C 0.44916 0.10921 0.79507 0.0
C904 C 0.86543 0.31258 0.87186 0.0
C905 C 0.86205 0.28687 0.86205 0.0
H906 H 0.87779 0.35199 0.84165 0.0
C907 C 0.86178 0.27905 0.81101 0.0
H908 H 0.86546 0.31915 0.91057 0.0
C909 C 0.86847 0.29785 0.77131 0.0
C910 C 0.87553 0.32463 0.78234 0.0
H911 H 0.85884 0.2592 0.80213 0.0
H912 H 0.87104 0.29226 0.73317 0.0
C913 C 0.87232 0.33135 0.83232 0.0
C914 C 0.65632 0.54466 0.8632 0.0
C915 C 0.68332 0.56574 0.86161 0.0
H916 H 0.62045 0.52007 0.81994 0.0
C917 C 0.69685 0.57322 0.81444 0.0
H918 H 0.64551 0.53823 0.89906 0.0
C919 C 0.6826 0.56277 0.76913 0.0
C920 C 0.65456 0.54489 0.77045 0.0
H921 H 0.71791 0.589 0.81226 0.0
H922 H 0.69297 0.57108 0.73335 0.0
C923 C 0.64201 0.53426 0.81778 0.0
C924 C 0.86627 0.57811 0.8102 0.0
C925 C 0.86786 0.5725 0.86207 0.0
H926 H 0.87225 0.57027 0.73267 0.0
C927 C 0.8711 0.55031 0.87446 0.0
H928 H 0.86309 0.59465 0.7993 0.0
C929 C 0.87659 0.53666 0.83638 0.0
C930 C 0.87877 0.54474 0.78512 0.0
H931 H 0.87178 0.54495 0.91385 0.0
H932 H 0.88182 0.52153 0.84762 0.0
C933 C 0.87142 0.56407 0.77188 0.0
C934 C 0.42386 0.32347 0.87029 0.0
C935 C 0.4032 0.29705 0.8596 0.0
H936 H 0.45298 0.36203 0.84032 0.0
C937 C 0.39952 0.28794 0.80869 0.0
H938 H 0.42761 0.33105 0.90899 0.0
C939 C 0.4146 0.30571 0.76892 0.0
C940 C 0.43302 0.33304 0.77942 0.0
H941 H 0.38417 0.26741 0.79932 0.0
H942 H 0.41046 0.29852 0.73004 0.0
C943 C 0.43851 0.34122 0.83073 0.0
C944 C 0.69973 0.1133 0.78584 0.0
C945 C 0.68771 0.10817 0.83447 0.0
H946 H 0.69432 0.11451 0.70533 0.0
C947 C 0.66177 0.10497 0.83936 0.0
H948 H 0.71995 0.11637 0.78099 0.0
C949 C 0.64699 0.10376 0.79573 0.0
C950 C 0.65796 0.10581 0.74666 0.0
H951 H 0.65211 0.10124 0.87634 0.0
H952 H 0.62623 0.09916 0.80042 0.0
C953 C 0.68509 0.11235 0.74239 0.0
C954 C 0.54898 0.87701 0.17395 0.0
C955 C 0.57124 0.87296 0.17875 0.0
H956 H 0.5195 0.88329 0.21264 0.0
C957 C 0.57811 0.8679 0.22744 0.0
H958 H 0.54307 0.88078 0.13695 0.0
C959 C 0.56436 0.86891 0.27081 0.0
C960 C 0.54382 0.87558 0.26649 0.0
H961 H 0.5949 0.86423 0.23225 0.0
H962 H 0.57104 0.8662 0.30787 0.0
C963 C 0.53547 0.87842 0.21742 0.0
C964 C 0.10001 0.66886 0.23016 0.0
C965 C 0.08314 0.64128 0.21915 0.0
H966 H 0.11911 0.70943 0.20138 0.0
C967 C 0.078 0.63321 0.16766 0.0
H968 H 0.10455 0.67582 0.26921 0.0
C969 C 0.08676 0.65262 0.12852 0.0
C970 C 0.1005 0.68026 0.14058 0.0
H971 H 0.06525 0.61205 0.15789 0.0
H972 H 0.08045 0.64605 0.08973 0.0
C973 C 0.10834 0.68816 0.19127 0.0
C974 C 0.30942 0.43336 0.22619 0.0
C975 C 0.33677 0.44271 0.21521 0.0
H976 H 0.26906 0.41454 0.19702 0.0
C977 C 0.34514 0.44652 0.16381 0.0
H978 H 0.30232 0.43061 0.26522 0.0
C979 C 0.32595 0.43748 0.12445 0.0
C980 C 0.29828 0.42439 0.13629 0.0
H981 H 0.3662 0.45414 0.15409 0.0
H982 H 0.3326 0.43826 0.08553 0.0
C983 C 0.29034 0.42411 0.18706 0.0
C984 C 0.77037 0.75716 0.56449 0.0
C985 C 0.75712 0.77221 0.5594 0.0
H986 H 0.78495 0.73372 0.52633 0.0
C987 C 0.75263 0.7791 0.51029 0.0
H988 H 0.774 0.75147 0.60183 0.0
C989 C 0.75884 0.76896 0.46711 0.0
C990 C 0.76945 0.75153 0.47223 0.0
H991 H 0.74262 0.79087 0.50527 0.0
H992 H 0.75354 0.77326 0.42997 0.0
C993 C 0.7764 0.74681 0.5212 0.0
C994 C 0.24626 0.97494 0.45114 0.0
C995 C 0.25632 0.00282 0.45754 0.0
H996 H 0.23182 0.93641 0.48747 0.0
C997 C 0.25694 0.01269 0.50697 0.0
H998 H 0.24538 0.96667 0.41361 0.0
C999 C 0.249 -0.00464 0.54932 0.0
C1000 C 0.24051 0.96778 0.54329 0.0
H1001 H 0.26424 0.03403 0.51314 0.0
H1002 H 0.25051 0.0038 0.58692 0.0
C1003 C 0.23857 0.95764 0.49357 0.0
C1004 C 0.98245 0.21133 0.55511 0.0
C1005 C 0.01061 0.22861 0.55359 0.0
H1006 H 0.94563 0.19186 0.51246 0.0
C1007 C 0.02385 0.23494 0.50602 0.0
H1008 H 0.97166 0.20578 0.59107 0.0
C1009 C 0.00888 0.22689 0.46075 0.0
C1010 C 0.98048 0.21247 0.46256 0.0
H1011 H 0.04562 0.24791 0.50364 0.0
H1012 H 0.01941 0.23401 0.42474 0.0
C1013 C 0.96753 0.2034 0.50999 0.0
C1014 C 0.22312 0.20405 0.51612 0.0
C1015 C 0.21724 0.21134 0.46847 0.0
H1016 H 0.22418 0.209 0.59716 0.0
C1017 C 0.20318 0.2257 0.46712 0.0
H1018 H 0.23364 0.19265 0.51838 0.0
C1019 C 0.1978 0.2351 0.5124 0.0
C1020 C 0.20631 0.23024 0.55975 0.0
H1021 H 0.19826 0.23152 0.4311 0.0
H1022 H 0.18857 0.2477 0.50996 0.0
C1023 C 0.21768 0.21337 0.56136 0.0
C1024 C 0.73003 0.00221 0.55358 0.0
C1025 C 0.71314 0.9742 0.5469 0.0
H1026 H 0.75195 0.04118 0.51789 0.0
C1027 C 0.70703 0.9639 0.4969 0.0
H1028 H 0.73531 0.0108 0.59145 0.0
C1029 C 0.71676 0.98128 0.45463 0.0
C1030 C 0.73263 0.00941 0.46139 0.0
H1031 H 0.69431 0.94236 0.49036 0.0
H1032 H 0.71113 0.97275 0.41676 0.0
C1033 C 0.73955 0.01961 0.51133 0.0
C1034 C 0.02609 0.78471 0.50188 0.0
C1035 C 0.01417 0.77621 0.55033 0.0
H1036 H 0.01968 0.78399 0.4213 0.0
C1037 C 0.986 0.76464 0.55499 0.0
H1038 H 0.04782 0.79401 0.49723 0.0
C1039 C 0.96988 0.7588 0.5114 0.0
C1040 C 0.98165 0.76467 0.4625 0.0
H1041 H 0.97623 0.75799 0.59177 0.0
H1042 H 0.94806 0.74784 0.51582 0.0
C1043 C 0.00998 0.77913 0.45834 0.0
C1044 C 0.0605 0.32002 0.90411 0.0
C1045 C 0.07551 0.34783 0.892 0.0
H1046 H 0.03977 0.27921 0.87611 0.0
C1047 C 0.0814 0.35568 0.84085 0.0
H1048 H 0.05565 0.31334 0.94334 0.0
C1049 C 0.07196 0.33612 0.80249 0.0
C1050 C 0.05684 0.30834 0.81459 0.0
H1051 H 0.09283 0.3769 0.83038 0.0
H1052 H 0.07657 0.34278 0.76322 0.0
C1053 C 0.05143 0.30044 0.86578 0.0
C1054 C 0.6774 0.76505 0.9119 0.0
C1055 C 0.64945 0.75293 0.90201 0.0
H1056 H 0.71748 0.78266 0.88027 0.0
C1057 C 0.64057 0.75051 0.85152 0.0
H1058 H 0.68473 0.76721 0.95068 0.0
C1059 C 0.6592 0.75881 0.81149 0.0
C1060 C 0.68709 0.77032 0.82124 0.0
H1061 H 0.61917 0.74111 0.84286 0.0
H1062 H 0.65172 0.75576 0.77269 0.0
C1063 C 0.69614 0.77403 0.87181 0.0
C1064 C 0.22492 0.89752 0.90843 0.0
C1065 C 0.23914 0.88308 0.90743 0.0
H1066 H 0.20786 0.91745 0.86514 0.0
C1067 C 0.24419 0.87508 0.8601 0.0
H1068 H 0.22051 0.90395 0.94421 0.0
C1069 C 0.23687 0.88287 0.81494 0.0
C1070 C 0.2242 0.89867 0.81597 0.0
H1071 H 0.25484 0.86383 0.85779 0.0
H1072 H 0.24204 0.8773 0.77897 0.0
C1073 C 0.21749 0.9052 0.86316 0.0
C1074 C 0.31529 0.07694 0.09901 0.0
C1075 C 0.34332 0.09522 0.10356 0.0
H1076 H 0.27732 0.05342 0.13768 0.0
C1077 C 0.35402 0.10586 0.15158 0.0
H1078 H 0.30637 0.06854 0.06231 0.0
C1079 C 0.33732 0.09721 0.19457 0.0
C1080 C 0.30957 0.07792 0.19038 0.0
H1081 H 0.37544 0.12002 0.1563 0.0
H1082 H 0.3464 0.10491 0.2315 0.0
C1083 C 0.29853 0.06843 0.14202 0.0
C1084 C 0.92004 0.21504 0.14933 0.0
C1085 C 0.91632 0.22038 0.19987 0.0
H1086 H 0.91154 0.21773 0.07069 0.0
C1087 C 0.8994 0.23128 0.20999 0.0
H1088 H 0.93304 0.20679 0.14048 0.0
C1089 C 0.88668 0.23703 0.17032 0.0
C1090 C 0.8911 0.23254 0.11967 0.0
H1091 H 0.89612 0.23553 0.24873 0.0
H1092 H 0.87416 0.24584 0.17917 0.0
C1093 C 0.90778 0.22137 0.10954 0.0
C1094 C 0.75473 0.68653 0.15833 0.0
C1095 C 0.75208 0.67671 0.20821 0.0
H1096 H 0.74688 0.67658 0.0793 0.0
C1097 C 0.74048 0.64865 0.21637 0.0
H1098 H 0.76343 0.70802 0.15105 0.0
C1099 C 0.73136 0.63065 0.17535 0.0
C1100 C 0.73318 0.64041 0.1256 0.0
H1101 H 0.73827 0.64058 0.2546 0.0
H1102 H 0.72221 0.60913 0.1827 0.0
C1103 C 0.74512 0.66851 0.11742 0.0
C1104 C 0.90172 0.66722 0.20705 0.0
C1105 C 0.91835 0.69513 0.19767 0.0
H1106 H 0.87732 0.62764 0.17517 0.0
C1107 C 0.92241 0.70462 0.14729 0.0
H1108 H 0.8981 0.6594 0.24566 0.0
C1109 C 0.91089 0.68634 0.10689 0.0
C1110 C 0.89455 0.65837 0.11626 0.0
H1111 H 0.93519 0.726 0.13906 0.0
H1112 H 0.91497 0.69409 0.06823 0.0
C1113 C 0.88968 0.64905 0.16679 0.0
C1114 C 0.31163 0.22958 0.207 0.0
C1115 C 0.28352 0.21746 0.19869 0.0
H1116 H 0.35116 0.24632 0.17371 0.0
C1117 C 0.27372 0.21204 0.1486 0.0
H1118 H 0.31981 0.23396 0.2453 0.0
C1119 C 0.29181 0.21954 0.10757 0.0
C1120 C 0.31994 0.23201 0.11595 0.0
H1121 H 0.25223 0.20286 0.14108 0.0
H1122 H 0.28379 0.21586 0.06916 0.0
C1123 C 0.32963 0.23652 0.1661 0.0
C1124 C 0.74299 0.09946 0.19438 0.0
C1125 C 0.75436 0.08246 0.19216 0.0
H1126 H 0.72478 0.11885 0.15332 0.0
C1127 C 0.75855 0.07416 0.14456 0.0
H1128 H 0.73971 0.10635 0.23072 0.0
C1129 C 0.74991 0.08129 0.10028 0.0
C1130 C 0.73692 0.09688 0.10269 0.0
H1131 H 0.76708 0.06096 0.14167 0.0
H1132 H 0.75249 0.0736 0.06426 0.0
C1133 C 0.73437 0.10662 0.15011 0.0
C1134 C 0.68083 0.91135 0.86511 0.0
C1135 C 0.6681 0.90139 0.81807 0.0
H1136 H 0.67582 0.91164 0.94591 0.0
C1137 C 0.64048 0.88149 0.8172 0.0
H1138 H 0.70199 0.92688 0.86684 0.0
C1139 C 0.62548 0.87269 0.86225 0.0
C1140 C 0.63773 0.88386 0.90912 0.0
H1141 H 0.63018 0.87344 0.78132 0.0
H1142 H 0.60405 0.8581 0.86005 0.0
C1143 C 0.66574 0.90274 0.91026 0.0
C1144 C 0.08734 0.77012 0.84825 0.0
C1145 C 0.07525 0.75347 0.80591 0.0
H1146 H 0.10541 0.77433 0.92131 0.0
C1147 C 0.07397 0.72814 0.80379 0.0
H1148 H 0.08894 0.78985 0.8507 0.0
C1149 C 0.08345 0.71912 0.84426 0.0
C1150 C 0.09457 0.73532 0.88766 0.0
H1151 H 0.06489 0.71486 0.77142 0.0
H1152 H 0.08094 0.69901 0.84242 0.0
C1153 C 0.09701 0.76122 0.88851 0.0
C1154 C 0.21545 0.31192 0.85437 0.0
C1155 C 0.23337 0.31026 0.82027 0.0
H1156 H 0.21052 0.33383 0.91516 0.0
C1157 C 0.26098 0.33026 0.82143 0.0
H1158 H 0.19403 0.29714 0.85333 0.0
C1159 C 0.27062 0.35141 0.85672 0.0
C1160 C 0.25272 0.35319 0.89107 0.0
H1161 H 0.2752 0.32944 0.79509 0.0
H1162 H 0.29211 0.36591 0.85786 0.0
C1163 C 0.22497 0.33327 0.8891 0.0
C1164 C 0.98516 0.425 0.50884 0.0
C1165 C 0.98481 0.41002 0.46644 0.0
H1166 H 0.96548 0.42592 0.57683 0.0
C1167 C 0.96229 0.38399 0.45879 0.0
H1168 H 0.002 0.44521 0.51539 0.0
C1169 C 0.94108 0.3727 0.49433 0.0
C1170 C 0.94189 0.3874 0.53785 0.0
H1171 H 0.96142 0.37201 0.4261 0.0
H1172 H 0.92472 0.35214 0.48879 0.0
C1173 C 0.96391 0.41394 0.54379 0.0
C1174 C 0.59301 0.60644 0.54491 0.0
C1175 C 0.5929 0.58206 0.53528 0.0
H1176 H 0.57992 0.6341 0.52034 0.0
C1177 C 0.5776 0.56582 0.4946 0.0
H1178 H 0.60453 0.61927 0.57644 0.0
C1179 C 0.56283 0.57376 0.46388 0.0
C1180 C 0.56343 0.59855 0.47216 0.0
H1181 H 0.57677 0.54676 0.48679 0.0
H1182 H 0.55158 0.56066 0.43244 0.0
C1183 C 0.57867 0.61479 0.51323 0.0
C1184 C 0.40031 0.01069 0.51837 0.0
C1185 C 0.38556 0.02343 0.53245 0.0
H1186 H 0.40036 0.97715 0.48283 0.0
C1187 C 0.35777 0.01038 0.52022 0.0
H1188 H 0.42162 0.0197 0.52746 0.0
C1189 C 0.34535 0.98546 0.49406 0.0
C1190 C 0.36031 0.97277 0.48045 0.0
H1191 H 0.34559 0.01928 0.53111 0.0
H1192 H 0.32411 0.97628 0.48423 0.0
C1193 C 0.38792 0.98583 0.49323 0.0
C1194 C 0.57783 0.97289 0.50173 0.0
C1195 C 0.59276 0.96055 0.48653 0.0
H1196 H 0.57756 0.00587 0.53903 0.0
C1197 C 0.62047 0.97338 0.49947 0.0
H1198 H 0.55658 0.96399 0.49219 0.0
C1199 C 0.63275 -0.00211 0.52685 0.0
C1200 C 0.6177 0.01035 0.54109 0.0
H1201 H 0.63278 0.96473 0.48786 0.0
H1202 H 0.65397 0.00702 0.53681 0.0
C1203 C 0.59008 -0.00265 0.52817 0.0
C1204 C 0.94845 0.57158 0.4976 0.0
C1205 C 0.95086 0.55892 0.54172 0.0
H1206 H 0.96622 0.5909 0.4265 0.0
C1207 C 0.97348 0.55517 0.54613 0.0
H1208 H 0.93156 0.57508 0.49302 0.0
C1209 C -0.00647 0.56461 0.50852 0.0
C1210 C -0.00853 0.57787 0.46515 0.0
H1211 H 0.97622 0.54559 0.57952 0.0
H1212 H 0.01077 0.56171 0.51368 0.0
C1213 C 0.96849 0.58086 0.45968 0.0
C1214 C 0.38945 0.37672 0.4501 0.0
C1215 C 0.39552 0.40386 0.45474 0.0
H1216 H 0.39254 0.34381 0.48355 0.0
C1217 C 0.41118 0.41917 0.49591 0.0
H1218 H 0.37735 0.36441 0.41851 0.0
C1219 C 0.42044 0.40772 0.53196 0.0
C1220 C 0.41383 0.38032 0.5287 0.0
H1221 H 0.41643 0.44015 0.50022 0.0
H1222 H 0.43226 0.42043 0.56337 0.0
C1223 C 0.39827 0.36494 0.48708 0.0
loop_
_geom_bond_atom_site_label_1
_geom_bond_atom_site_label_2
_geom_bond_distance
_geom_bond_site_symmetry_2
_ccdc_geom_bond_type
Co0 O1 2.216 . S
Co0 O2 2.091 . S
Co0 O4 2.004 . S
Co0 O10 2.021 1_554 S
Co0 O12 2.137 . S
Co0 O13 2.244 . S
O1 Co0 2.216 . S
O1 C8 1.247 . S
O2 Co0 2.091 . S
O2 C8 1.261 . S
C3 O12 1.247 . S
C3 O13 1.272 . S
O4 Co0 2.004 . S
O4 C9 1.259 . S
Co5 O6 2.061 . S
Co5 O11 2.052 . S
Co5 O13 2.135 1_556 S
O6 Co5 2.061 . S
O6 C9 1.235 1_556 S
C7 O10 1.238 . S
C7 O11 1.241 . S
C8 O1 1.247 . S
C8 O2 1.261 . S
C9 O4 1.259 . S
C9 O6 1.235 1_554 S
O10 Co0 2.021 1_556 S
O10 C7 1.238 . S
O11 Co5 2.052 . S
O11 C7 1.241 . S
O12 Co0 2.137 . S
O12 C3 1.247 . S
O13 Co0 2.244 . S
O13 C3 1.272 . S
O13 Co5 2.135 1_554 S
Co14 O15 2.216 . S
Co14 O16 2.091 . S
Co14 O18 2.004 . S
Co14 O24 2.021 1_554 S
Co14 O26 2.137 . S
Co14 O27 2.244 . S
O15 Co14 2.216 . S
O15 C22 1.247 . S
O16 Co14 2.091 . S
O16 C22 1.261 . S
C17 O26 1.247 . S
C17 O27 1.272 . S
O18 Co14 2.004 . S
O18 C23 1.259 . S
Co19 O20 2.061 . S
Co19 O25 2.052 . S
Co19 O27 2.135 1_556 S
O20 Co19 2.061 . S
O20 C23 1.235 1_556 S
C21 O24 1.238 . S
C21 O25 1.241 . S
C22 O15 1.247 . S
C22 O16 1.261 . S
C23 O18 1.259 . S
C23 O20 1.235 1_554 S
O24 Co14 2.021 1_556 S
O24 C21 1.238 . S
O25 Co19 2.052 . S
O25 C21 1.241 . S
O26 Co14 2.137 . S
O26 C17 1.247 . S
O27 Co14 2.244 . S
O27 C17 1.272 . S
O27 Co19 2.135 1_554 S
Co28 O29 2.216 . S
Co28 O30 2.091 . S
Co28 O32 2.004 . S
Co28 O38 2.021 1_554 S
Co28 O40 2.137 . S
Co28 O41 2.244 . S
O29 Co28 2.216 . S
O29 C36 1.247 . S
O30 Co28 2.091 . S
O30 C36 1.261 . S
C31 O40 1.247 . S
C31 O41 1.272 . S
O32 Co28 2.004 . S
O32 C37 1.259 . S
Co33 O34 2.061 . S
Co33 O39 2.052 . S
Co33 O41 2.135 1_556 S
O34 Co33 2.061 . S
O34 C37 1.235 1_556 S
C35 O38 1.238 . S
C35 O39 1.241 . S
C36 O29 1.247 . S
C36 O30 1.261 . S
C37 O32 1.259 . S
C37 O34 1.235 1_554 S
O38 Co28 2.021 1_556 S
O38 C35 1.238 . S
O39 Co33 2.052 . S
O39 C35 1.241 . S
O40 Co28 2.137 . S
O40 C31 1.247 . S
O41 Co28 2.244 . S
O41 C31 1.272 . S
O41 Co33 2.135 1_554 S
Co42 O43 2.216 . S
Co42 O44 2.091 . S
Co42 O46 2.004 . S
Co42 O52 2.021 1_556 S
Co42 O54 2.137 . S
Co42 O55 2.244 . S
O43 Co42 2.216 . S
O43 C50 1.247 . S
O44 Co42 2.091 . S
O44 C50 1.261 . S
C45 O54 1.247 . S
C45 O55 1.272 . S
O46 Co42 2.004 . S
O46 C51 1.259 . S
Co47 O48 2.061 . S
Co47 O53 2.052 . S
Co47 O55 2.135 1_554 S
O48 Co47 2.061 . S
O48 C51 1.235 1_554 S
C49 O52 1.238 . S
C49 O53 1.241 . S
C50 O43 1.247 . S
C50 O44 1.261 . S
C51 O46 1.259 . S
C51 O48 1.235 1_556 S
O52 Co42 2.021 1_554 S
O52 C49 1.238 . S
O53 Co47 2.052 . S
O53 C49 1.241 . S
O54 Co42 2.137 . S
O54 C45 1.247 . S
O55 Co42 2.244 . S
O55 C45 1.272 . S
O55 Co47 2.135 1_556 S
Co56 O57 2.216 . S
Co56 O58 2.091 . S
Co56 O60 2.004 . S
Co56 O66 2.021 1_556 S
Co56 O68 2.137 . S
Co56 O69 2.244 . S
O57 Co56 2.216 . S
O57 C64 1.247 . S
O58 Co56 2.091 . S
O58 C64 1.261 . S
C59 O68 1.247 . S
C59 O69 1.272 . S
O60 Co56 2.004 . S
O60 C65 1.259 . S
Co61 O62 2.061 . S
Co61 O67 2.052 . S
Co61 O69 2.135 1_554 S
O62 Co61 2.061 . S
O62 C65 1.235 1_554 S
C63 O66 1.238 . S
C63 O67 1.241 . S
C64 O57 1.247 . S
C64 O58 1.261 . S
C65 O60 1.259 . S
C65 O62 1.235 1_556 S
O66 Co56 2.021 1_554 S
O66 C63 1.238 . S
O67 Co61 2.052 . S
O67 C63 1.241 . S
O68 Co56 2.137 . S
O68 C59 1.247 . S
O69 Co56 2.244 . S
O69 C59 1.272 . S
O69 Co61 2.135 1_556 S
Co70 O71 2.216 . S
Co70 O72 2.091 . S
Co70 O74 2.004 . S
Co70 O80 2.021 1_556 S
Co70 O82 2.137 . S
Co70 O83 2.244 . S
O71 Co70 2.216 . S
O71 C78 1.247 . S
O72 Co70 2.091 . S
O72 C78 1.261 . S
C73 O82 1.247 . S
C73 O83 1.272 . S
O74 Co70 2.004 . S
O74 C79 1.259 . S
Co75 O76 2.061 . S
Co75 O81 2.052 . S
Co75 O83 2.135 1_554 S
O76 Co75 2.061 . S
O76 C79 1.235 1_554 S
C77 O80 1.238 . S
C77 O81 1.241 . S
C78 O71 1.247 . S
C78 O72 1.261 . S
C79 O74 1.259 . S
C79 O76 1.235 1_556 S
O80 Co70 2.021 1_554 S
O80 C77 1.238 . S
O81 Co75 2.052 . S
O81 C77 1.241 . S
O82 Co70 2.137 . S
O82 C73 1.247 . S
O83 Co70 2.244 . S
O83 C73 1.272 . S
O83 Co75 2.135 1_556 S
Co84 O85 2.216 . S
Co84 O86 2.091 . S
Co84 O88 2.004 . S
Co84 O94 2.021 1_556 S
Co84 O96 2.137 . S
Co84 O97 2.244 . S
O85 Co84 2.216 . S
O85 C92 1.247 . S
O86 Co84 2.091 . S
O86 C92 1.261 . S
C87 O96 1.247 . S
C87 O97 1.272 . S
O88 Co84 2.004 . S
O88 C93 1.259 . S
Co89 O90 2.061 . S
Co89 O95 2.052 . S
Co89 O97 2.135 1_554 S
O90 Co89 2.061 . S
O90 C93 1.235 1_554 S
C91 O94 1.238 . S
C91 O95 1.241 . S
C92 O85 1.247 . S
C92 O86 1.261 . S
C93 O88 1.259 . S
C93 O90 1.235 1_556 S
O94 Co84 2.021 1_554 S
O94 C91 1.238 . S
O95 Co89 2.052 . S
O95 C91 1.241 . S
O96 Co84 2.137 . S
O96 C87 1.247 . S
O97 Co84 2.244 . S
O97 C87 1.272 . S
O97 Co89 2.135 1_556 S
Co98 O99 2.216 . S
Co98 O100 2.091 . S
Co98 O102 2.004 . S
Co98 O108 2.021 1_556 S
Co98 O110 2.137 . S
Co98 O111 2.244 . S
O99 Co98 2.216 . S
O99 C106 1.247 . S
O100 Co98 2.091 . S
O100 C106 1.261 . S
C101 O110 1.247 . S
C101 O111 1.272 . S
O102 Co98 2.004 . S
O102 C107 1.259 . S
Co103 O104 2.061 . S
Co103 O109 2.052 . S
Co103 O111 2.135 1_554 S
O104 Co103 2.061 . S
O104 C107 1.235 1_554 S
C105 O108 1.238 . S
C105 O109 1.241 . S
C106 O99 1.247 . S
C106 O100 1.261 . S
C107 O102 1.259 . S
C107 O104 1.235 1_556 S
O108 Co98 2.021 1_554 S
O108 C105 1.238 . S
O109 Co103 2.052 . S
O109 C105 1.241 . S
O110 Co98 2.137 . S
O110 C101 1.247 . S
O111 Co98 2.244 . S
O111 C101 1.272 . S
O111 Co103 2.135 1_556 S
Co112 O113 2.216 . S
Co112 O114 2.091 . S
Co112 O116 2.004 . S
Co112 O122 2.021 1_556 S
Co112 O124 2.137 . S
Co112 O125 2.244 . S
O113 Co112 2.216 . S
O113 C120 1.247 . S
O114 Co112 2.091 . S
O114 C120 1.261 . S
C115 O124 1.247 . S
C115 O125 1.272 . S
O116 Co112 2.004 . S
O116 C121 1.259 . S
Co117 O118 2.061 . S
Co117 O123 2.052 . S
Co117 O125 2.135 1_554 S
O118 Co117 2.061 . S
O118 C121 1.235 1_554 S
C119 O122 1.238 . S
C119 O123 1.241 . S
C120 O113 1.247 . S
C120 O114 1.261 . S
C121 O116 1.259 . S
C121 O118 1.235 1_556 S
O122 Co112 2.021 1_554 S
O122 C119 1.238 . S
O123 Co117 2.052 . S
O123 C119 1.241 . S
O124 Co112 2.137 . S
O124 C115 1.247 . S
O125 Co112 2.244 . S
O125 C115 1.272 . S
O125 Co117 2.135 1_556 S
Co126 O127 2.216 . S
Co126 O128 2.091 . S
Co126 O130 2.004 . S
Co126 O136 2.021 1_554 S
Co126 O138 2.137 . S
Co126 O139 2.244 . S
O127 Co126 2.216 . S
O127 C134 1.247 . S
O128 Co126 2.091 . S
O128 C134 1.261 . S
C129 O138 1.247 . S
C129 O139 1.272 . S
O130 Co126 2.004 . S
O130 C135 1.259 . S
Co131 O132 2.061 . S
Co131 O137 2.052 . S
Co131 O139 2.135 1_556 S
O132 Co131 2.061 . S
O132 C135 1.235 1_556 S
C133 O136 1.238 . S
C133 O137 1.241 . S
C134 O127 1.247 . S
C134 O128 1.261 . S
C135 O130 1.259 . S
C135 O132 1.235 1_554 S
O136 Co126 2.021 1_556 S
O136 C133 1.238 . S
O137 Co131 2.052 . S
O137 C133 1.241 . S
O138 Co126 2.137 . S
O138 C129 1.247 . S
O139 Co126 2.244 . S
O139 C129 1.272 . S
O139 Co131 2.135 1_554 S
Co140 O141 2.216 . S
Co140 O142 2.091 . S
Co140 O144 2.004 . S
Co140 O150 2.021 1_554 S
Co140 O152 2.137 . S
Co140 O153 2.244 . S
O141 Co140 2.216 . S
O141 C148 1.247 . S
O142 Co140 2.091 . S
O142 C148 1.261 . S
C143 O152 1.247 . S
C143 O153 1.272 . S
O144 Co140 2.004 . S
O144 C149 1.259 . S
Co145 O146 2.061 . S
Co145 O151 2.052 . S
Co145 O153 2.135 1_556 S
O146 Co145 2.061 . S
O146 C149 1.235 1_556 S
C147 O150 1.238 . S
C147 O151 1.241 . S
C148 O141 1.247 . S
C148 O142 1.261 . S
C149 O144 1.259 . S
C149 O146 1.235 1_554 S
O150 Co140 2.021 1_556 S
O150 C147 1.238 . S
O151 Co145 2.052 . S
O151 C147 1.241 . S
O152 Co140 2.137 . S
O152 C143 1.247 . S
O153 Co140 2.244 . S
O153 C143 1.272 . S
O153 Co145 2.135 1_554 S
Co154 O155 2.216 . S
Co154 O156 2.091 . S
Co154 O158 2.004 . S
Co154 O164 2.021 1_554 S
Co154 O166 2.137 . S
Co154 O167 2.244 . S
O155 Co154 2.216 . S
O155 C162 1.247 . S
O156 Co154 2.091 . S
O156 C162 1.261 . S
C157 O166 1.247 . S
C157 O167 1.272 . S
O158 Co154 2.004 . S
O158 C163 1.259 . S
Co159 O160 2.061 . S
Co159 O165 2.052 . S
Co159 O167 2.135 1_556 S
O160 Co159 2.061 . S
O160 C163 1.235 1_556 S
C161 O164 1.238 . S
C161 O165 1.241 . S
C162 O155 1.247 . S
C162 O156 1.261 . S
C163 O158 1.259 . S
C163 O160 1.235 1_554 S
O164 Co154 2.021 1_556 S
O164 C161 1.238 . S
O165 Co159 2.052 . S
O165 C161 1.241 . S
O166 Co154 2.137 . S
O166 C157 1.247 . S
O167 Co154 2.244 . S
O167 C157 1.272 . S
O167 Co159 2.135 1_554 S
Co168 O169 2.216 . S
Co168 O170 2.091 . S
Co168 O172 2.004 . S
Co168 O178 2.021 . S
Co168 O180 2.137 . S
Co168 O181 2.244 . S
O169 Co168 2.216 . S
O169 C176 1.247 . S
O170 Co168 2.091 . S
O170 C176 1.261 . S
C171 O180 1.247 . S
C171 O181 1.272 . S
O172 Co168 2.004 . S
O172 C177 1.259 . S
Co173 O174 2.061 . S
Co173 O179 2.052 . S
Co173 O181 2.135 . S
O174 Co173 2.061 . S
O174 C177 1.235 . S
C175 O178 1.238 . S
C175 O179 1.241 . S
C176 O169 1.247 . S
C176 O170 1.261 . S
C177 O172 1.259 . S
C177 O174 1.235 . S
O178 Co168 2.021 . S
O178 C175 1.238 . S
O179 Co173 2.052 . S
O179 C175 1.241 . S
O180 Co168 2.137 . S
O180 C171 1.247 . S
O181 Co168 2.244 . S
O181 C171 1.272 . S
O181 Co173 2.135 . S
Co182 O183 2.216 . S
Co182 O184 2.091 . S
Co182 O186 2.004 . S
Co182 O192 2.021 . S
Co182 O194 2.137 . S
Co182 O195 2.244 1_545 S
O183 Co182 2.216 . S
O183 C190 1.247 . S
O184 Co182 2.091 . S
O184 C190 1.261 . S
C185 O194 1.247 . S
C185 O195 1.272 1_545 S
O186 Co182 2.004 . S
O186 C191 1.259 . S
Co187 O188 2.061 . S
Co187 O193 2.052 . S
Co187 O195 2.135 . S
O188 Co187 2.061 . S
O188 C191 1.235 1_565 S
C189 O192 1.238 . S
C189 O193 1.241 1_545 S
C190 O183 1.247 . S
C190 O184 1.261 . S
C191 O186 1.259 . S
C191 O188 1.235 1_545 S
O192 Co182 2.021 . S
O192 C189 1.238 . S
O193 Co187 2.052 . S
O193 C189 1.241 1_565 S
O194 Co182 2.137 . S
O194 C185 1.247 . S
O195 Co182 2.244 1_565 S
O195 C185 1.272 1_565 S
O195 Co187 2.135 . S
Co196 O197 2.216 . S
Co196 O198 2.091 . S
Co196 O200 2.004 . S
Co196 O206 2.021 . S
Co196 O208 2.137 . S
Co196 O209 2.244 1_655 S
O197 Co196 2.216 . S
O197 C204 1.247 . S
O198 Co196 2.091 . S
O198 C204 1.261 . S
C199 O208 1.247 . S
C199 O209 1.272 1_655 S
O200 Co196 2.004 . S
O200 C205 1.259 . S
Co201 O202 2.061 . S
Co201 O207 2.052 . S
Co201 O209 2.135 . S
O202 Co201 2.061 . S
O202 C205 1.235 1_455 S
C203 O206 1.238 . S
C203 O207 1.241 1_655 S
C204 O197 1.247 . S
C204 O198 1.261 . S
C205 O200 1.259 . S
C205 O202 1.235 1_655 S
O206 Co196 2.021 . S
O206 C203 1.238 . S
O207 Co201 2.052 . S
O207 C203 1.241 1_455 S
O208 Co196 2.137 . S
O208 C199 1.247 . S
O209 Co196 2.244 1_455 S
O209 C199 1.272 1_455 S
O209 Co201 2.135 . S
Co210 O211 2.216 . S
Co210 O212 2.091 . S
Co210 O214 2.004 . S
Co210 O220 2.021 . S
Co210 O222 2.137 . S
Co210 O223 2.244 . S
O211 Co210 2.216 . S
O211 C218 1.247 . S
O212 Co210 2.091 . S
O212 C218 1.261 . S
C213 O222 1.247 . S
C213 O223 1.272 . S
O214 Co210 2.004 . S
O214 C219 1.259 . S
Co215 O216 2.061 . S
Co215 O221 2.052 . S
Co215 O223 2.135 . S
O216 Co215 2.061 . S
O216 C219 1.235 . S
C217 O220 1.238 . S
C217 O221 1.241 . S
C218 O211 1.247 . S
C218 O212 1.261 . S
C219 O214 1.259 . S
C219 O216 1.235 . S
O220 Co210 2.021 . S
O220 C217 1.238 . S
O221 Co215 2.052 . S
O221 C217 1.241 . S
O222 Co210 2.137 . S
O222 C213 1.247 . S
O223 Co210 2.244 . S
O223 C213 1.272 . S
O223 Co215 2.135 . S
Co224 O225 2.216 . S
Co224 O226 2.091 . S
Co224 O228 2.004 . S
Co224 O234 2.021 . S
Co224 O236 2.137 . S
Co224 O237 2.244 . S
O225 Co224 2.216 . S
O225 C232 1.247 . S
O226 Co224 2.091 . S
O226 C232 1.261 . S
C227 O236 1.247 . S
C227 O237 1.272 . S
O228 Co224 2.004 . S
O228 C233 1.259 . S
Co229 O230 2.061 . S
Co229 O235 2.052 . S
Co229 O237 2.135 . S
O230 Co229 2.061 . S
O230 C233 1.235 . S
C231 O234 1.238 . S
C231 O235 1.241 . S
C232 O225 1.247 . S
C232 O226 1.261 . S
C233 O228 1.259 . S
C233 O230 1.235 . S
O234 Co224 2.021 . S
O234 C231 1.238 . S
O235 Co229 2.052 . S
O235 C231 1.241 . S
O236 Co224 2.137 . S
O236 C227 1.247 . S
O237 Co224 2.244 . S
O237 C227 1.272 . S
O237 Co229 2.135 . S
Co238 O239 2.216 . S
Co238 O240 2.091 . S
Co238 O242 2.004 . S
Co238 O248 2.021 . S
Co238 O250 2.137 . S
Co238 O251 2.244 . S
O239 Co238 2.216 . S
O239 C246 1.247 . S
O240 Co238 2.091 . S
O240 C246 1.261 . S
C241 O250 1.247 . S
C241 O251 1.272 . S
O242 Co238 2.004 . S
O242 C247 1.259 . S
Co243 O244 2.061 . S
Co243 O249 2.052 . S
Co243 O251 2.135 . S
O244 Co243 2.061 . S
O244 C247 1.235 . S
C245 O248 1.238 . S
C245 O249 1.241 . S
C246 O239 1.247 . S
C246 O240 1.261 . S
C247 O242 1.259 . S
C247 O244 1.235 . S
O248 Co238 2.021 . S
O248 C245 1.238 . S
O249 Co243 2.052 . S
O249 C245 1.241 . S
O250 Co238 2.137 . S
O250 C241 1.247 . S
O251 Co238 2.244 . S
O251 C241 1.272 . S
O251 Co243 2.135 . S
Co252 O253 2.216 . S
Co252 O254 2.091 . S
Co252 O256 2.004 . S
Co252 O262 2.021 . S
Co252 O264 2.137 . S
Co252 O265 2.244 . S
O253 Co252 2.216 . S
O253 C260 1.247 . S
O254 Co252 2.091 . S
O254 C260 1.261 . S
C255 O264 1.247 . S
C255 O265 1.272 . S
O256 Co252 2.004 . S
O256 C261 1.259 . S
Co257 O258 2.061 . S
Co257 O263 2.052 . S
Co257 O265 2.135 . S
O258 Co257 2.061 . S
O258 C261 1.235 . S
C259 O262 1.238 . S
C259 O263 1.241 . S
C260 O253 1.247 . S
C260 O254 1.261 . S
C261 O256 1.259 . S
C261 O258 1.235 . S
O262 Co252 2.021 . S
O262 C259 1.238 . S
O263 Co257 2.052 . S
O263 C259 1.241 . S
O264 Co252 2.137 . S
O264 C255 1.247 . S
O265 Co252 2.244 . S
O265 C255 1.272 . S
O265 Co257 2.135 . S
Co266 O267 2.216 . S
Co266 O268 2.091 . S
Co266 O270 2.004 . S
Co266 O276 2.021 . S
Co266 O278 2.137 . S
Co266 O279 2.244 . S
O267 Co266 2.216 . S
O267 C274 1.247 . S
O268 Co266 2.091 . S
O268 C274 1.261 . S
C269 O278 1.247 . S
C269 O279 1.272 . S
O270 Co266 2.004 . S
O270 C275 1.259 . S
Co271 O272 2.061 . S
Co271 O277 2.052 . S
Co271 O279 2.135 . S
O272 Co271 2.061 . S
O272 C275 1.235 . S
C273 O276 1.238 . S
C273 O277 1.241 . S
C274 O267 1.247 . S
C274 O268 1.261 . S
C275 O270 1.259 . S
C275 O272 1.235 . S
O276 Co266 2.021 . S
O276 C273 1.238 . S
O277 Co271 2.052 . S
O277 C273 1.241 . S
O278 Co266 2.137 . S
O278 C269 1.247 . S
O279 Co266 2.244 . S
O279 C269 1.272 . S
O279 Co271 2.135 . S
Co280 O281 2.216 . S
Co280 O282 2.091 . S
Co280 O284 2.004 . S
Co280 O290 2.021 . S
Co280 O292 2.137 . S
Co280 O293 2.244 . S
O281 Co280 2.216 . S
O281 C288 1.247 . S
O282 Co280 2.091 . S
O282 C288 1.261 . S
C283 O292 1.247 . S
C283 O293 1.272 . S
O284 Co280 2.004 . S
O284 C289 1.259 . S
Co285 O286 2.061 . S
Co285 O291 2.052 . S
Co285 O293 2.135 . S
O286 Co285 2.061 . S
O286 C289 1.235 . S
C287 O290 1.238 . S
C287 O291 1.241 . S
C288 O281 1.247 . S
C288 O282 1.261 . S
C289 O284 1.259 . S
C289 O286 1.235 . S
O290 Co280 2.021 . S
O290 C287 1.238 . S
O291 Co285 2.052 . S
O291 C287 1.241 . S
O292 Co280 2.137 . S
O292 C283 1.247 . S
O293 Co280 2.244 . S
O293 C283 1.272 . S
O293 Co285 2.135 . S
Co294 O295 2.216 . S
Co294 O296 2.091 . S
Co294 O298 2.004 . S
Co294 O304 2.021 . S
Co294 O306 2.137 . S
Co294 O307 2.244 . S
O295 Co294 2.216 . S
O295 C302 1.247 . S
O296 Co294 2.091 . S
O296 C302 1.261 . S
C297 O306 1.247 . S
C297 O307 1.272 . S
O298 Co294 2.004 . S
O298 C303 1.259 . S
Co299 O300 2.061 . S
Co299 O305 2.052 . S
Co299 O307 2.135 . S
O300 Co299 2.061 . S
O300 C303 1.235 . S
C301 O304 1.238 . S
C301 O305 1.241 . S
C302 O295 1.247 . S
C302 O296 1.261 . S
C303 O298 1.259 . S
C303 O300 1.235 . S
O304 Co294 2.021 . S
O304 C301 1.238 . S
O305 Co299 2.052 . S
O305 C301 1.241 . S
O306 Co294 2.137 . S
O306 C297 1.247 . S
O307 Co294 2.244 . S
O307 C297 1.272 . S
O307 Co299 2.135 . S
Co308 O309 2.216 . S
Co308 O310 2.091 . S
Co308 O312 2.004 . S
Co308 O318 2.021 . S
Co308 O320 2.137 . S
Co308 O321 2.244 1_545 S
O309 Co308 2.216 . S
O309 C316 1.247 . S
O310 Co308 2.091 . S
O310 C316 1.261 . S
C311 O320 1.247 . S
C311 O321 1.272 1_545 S
O312 Co308 2.004 . S
O312 C317 1.259 . S
Co313 O314 2.061 . S
Co313 O319 2.052 . S
Co313 O321 2.135 . S
O314 Co313 2.061 . S
O314 C317 1.235 1_565 S
C315 O318 1.238 . S
C315 O319 1.241 1_545 S
C316 O309 1.247 . S
C316 O310 1.261 . S
C317 O312 1.259 . S
C317 O314 1.235 1_545 S
O318 Co308 2.021 . S
O318 C315 1.238 . S
O319 Co313 2.052 . S
O319 C315 1.241 1_565 S
O320 Co308 2.137 . S
O320 C311 1.247 . S
O321 Co308 2.244 1_565 S
O321 C311 1.272 1_565 S
O321 Co313 2.135 . S
Co322 O323 2.216 . S
Co322 O324 2.091 . S
Co322 O326 2.004 . S
Co322 O332 2.021 . S
Co322 O334 2.137 . S
Co322 O335 2.244 1_655 S
O323 Co322 2.216 . S
O323 C330 1.247 . S
O324 Co322 2.091 . S
O324 C330 1.261 . S
C325 O334 1.247 . S
C325 O335 1.272 1_655 S
O326 Co322 2.004 . S
O326 C331 1.259 . S
Co327 O328 2.061 . S
Co327 O333 2.052 . S
Co327 O335 2.135 . S
O328 Co327 2.061 . S
O328 C331 1.235 1_455 S
C329 O332 1.238 . S
C329 O333 1.241 1_655 S
C330 O323 1.247 . S
C330 O324 1.261 . S
C331 O326 1.259 . S
C331 O328 1.235 1_655 S
O332 Co322 2.021 . S
O332 C329 1.238 . S
O333 Co327 2.052 . S
O333 C329 1.241 1_455 S
O334 Co322 2.137 . S
O334 C325 1.247 . S
O335 Co322 2.244 1_455 S
O335 C325 1.272 1_455 S
O335 Co327 2.135 . S
Co336 O337 2.216 . S
Co336 O338 2.091 . S
Co336 O340 2.004 . S
Co336 O346 2.021 . S
Co336 O348 2.137 . S
Co336 O349 2.244 . S
O337 Co336 2.216 . S
O337 C344 1.247 . S
O338 Co336 2.091 . S
O338 C344 1.261 . S
C339 O348 1.247 . S
C339 O349 1.272 . S
O340 Co336 2.004 . S
O340 C345 1.259 . S
Co341 O342 2.061 . S
Co341 O347 2.052 . S
Co341 O349 2.135 . S
O342 Co341 2.061 . S
O342 C345 1.235 . S
C343 O346 1.238 . S
C343 O347 1.241 . S
C344 O337 1.247 . S
C344 O338 1.261 . S
C345 O340 1.259 . S
C345 O342 1.235 . S
O346 Co336 2.021 . S
O346 C343 1.238 . S
O347 Co341 2.052 . S
O347 C343 1.241 . S
O348 Co336 2.137 . S
O348 C339 1.247 . S
O349 Co336 2.244 . S
O349 C339 1.272 . S
O349 Co341 2.135 . S
Co350 O351 2.216 . S
Co350 O352 2.091 . S
Co350 O354 2.004 . S
Co350 O360 2.021 . S
Co350 O362 2.137 . S
Co350 O363 2.244 . S
O351 Co350 2.216 . S
O351 C358 1.247 . S
O352 Co350 2.091 . S
O352 C358 1.261 . S
C353 O362 1.247 . S
C353 O363 1.272 . S
O354 Co350 2.004 . S
O354 C359 1.259 . S
Co355 O356 2.061 . S
Co355 O361 2.052 . S
Co355 O363 2.135 . S
O356 Co355 2.061 . S
O356 C359 1.235 . S
C357 O360 1.238 . S
C357 O361 1.241 . S
C358 O351 1.247 . S
C358 O352 1.261 . S
C359 O354 1.259 . S
C359 O356 1.235 . S
O360 Co350 2.021 . S
O360 C357 1.238 . S
O361 Co355 2.052 . S
O361 C357 1.241 . S
O362 Co350 2.137 . S
O362 C353 1.247 . S
O363 Co350 2.244 . S
O363 C353 1.272 . S
O363 Co355 2.135 . S
Co364 O365 2.216 . S
Co364 O366 2.091 . S
Co364 O368 2.004 . S
Co364 O374 2.021 . S
Co364 O376 2.137 . S
Co364 O377 2.244 . S
O365 Co364 2.216 . S
O365 C372 1.247 . S
O366 Co364 2.091 . S
O366 C372 1.261 . S
C367 O376 1.247 . S
C367 O377 1.272 . S
O368 Co364 2.004 . S
O368 C373 1.259 . S
Co369 O370 2.061 . S
Co369 O375 2.052 . S
Co369 O377 2.135 . S
O370 Co369 2.061 . S
O370 C373 1.235 . S
C371 O374 1.238 . S
C371 O375 1.241 . S
C372 O365 1.247 . S
C372 O366 1.261 . S
C373 O368 1.259 . S
C373 O370 1.235 . S
O374 Co364 2.021 . S
O374 C371 1.238 . S
O375 Co369 2.052 . S
O375 C371 1.241 . S
O376 Co364 2.137 . S
O376 C367 1.247 . S
O377 Co364 2.244 . S
O377 C367 1.272 . S
O377 Co369 2.135 . S
Co378 O379 2.216 . S
Co378 O380 2.091 . S
Co378 O382 2.004 . S
Co378 O388 2.021 . S
Co378 O390 2.137 . S
Co378 O391 2.244 . S
O379 Co378 2.216 . S
O379 C386 1.247 . S
O380 Co378 2.091 . S
O380 C386 1.261 . S
C381 O390 1.247 . S
C381 O391 1.272 . S
O382 Co378 2.004 . S
O382 C387 1.259 . S
Co383 O384 2.061 . S
Co383 O389 2.052 . S
Co383 O391 2.135 . S
O384 Co383 2.061 . S
O384 C387 1.235 . S
C385 O388 1.238 . S
C385 O389 1.241 . S
C386 O379 1.247 . S
C386 O380 1.261 . S
C387 O382 1.259 . S
C387 O384 1.235 . S
O388 Co378 2.021 . S
O388 C385 1.238 . S
O389 Co383 2.052 . S
O389 C385 1.241 . S
O390 Co378 2.137 . S
O390 C381 1.247 . S
O391 Co378 2.244 . S
O391 C381 1.272 . S
O391 Co383 2.135 . S
Co392 O393 2.216 . S
Co392 O394 2.091 . S
Co392 O396 2.004 . S
Co392 O402 2.021 . S
Co392 O404 2.137 . S
Co392 O405 2.244 1_565 S
O393 Co392 2.216 . S
O393 C400 1.247 . S
O394 Co392 2.091 . S
O394 C400 1.261 . S
C395 O404 1.247 . S
C395 O405 1.272 1_565 S
O396 Co392 2.004 . S
O396 C401 1.259 . S
Co397 O398 2.061 . S
Co397 O403 2.052 . S
Co397 O405 2.135 . S
O398 Co397 2.061 . S
O398 C401 1.235 1_545 S
C399 O402 1.238 . S
C399 O403 1.241 1_565 S
C400 O393 1.247 . S
C400 O394 1.261 . S
C401 O396 1.259 . S
C401 O398 1.235 1_565 S
O402 Co392 2.021 . S
O402 C399 1.238 . S
O403 Co397 2.052 . S
O403 C399 1.241 1_545 S
O404 Co392 2.137 . S
O404 C395 1.247 . S
O405 Co392 2.244 1_545 S
O405 C395 1.272 1_545 S
O405 Co397 2.135 . S
Co406 O407 2.216 . S
Co406 O408 2.091 . S
Co406 O410 2.004 . S
Co406 O416 2.021 . S
Co406 O418 2.137 . S
Co406 O419 2.244 1_455 S
O407 Co406 2.216 . S
O407 C414 1.247 . S
O408 Co406 2.091 . S
O408 C414 1.261 . S
C409 O418 1.247 . S
C409 O419 1.272 1_455 S
O410 Co406 2.004 . S
O410 C415 1.259 . S
Co411 O412 2.061 . S
Co411 O417 2.052 . S
Co411 O419 2.135 . S
O412 Co411 2.061 . S
O412 C415 1.235 1_655 S
C413 O416 1.238 . S
C413 O417 1.241 1_455 S
C414 O407 1.247 . S
C414 O408 1.261 . S
C415 O410 1.259 . S
C415 O412 1.235 1_455 S
O416 Co406 2.021 . S
O416 C413 1.238 . S
O417 Co411 2.052 . S
O417 C413 1.241 1_655 S
O418 Co406 2.137 . S
O418 C409 1.247 . S
O419 Co406 2.244 1_655 S
O419 C409 1.272 1_655 S
O419 Co411 2.135 . S
Co420 O421 2.216 . S
Co420 O422 2.091 . S
Co420 O424 2.004 . S
Co420 O430 2.021 . S
Co420 O432 2.137 . S
Co420 O433 2.244 . S
O421 Co420 2.216 . S
O421 C428 1.247 . S
O422 Co420 2.091 . S
O422 C428 1.261 . S
C423 O432 1.247 . S
C423 O433 1.272 . S
O424 Co420 2.004 . S
O424 C429 1.259 . S
Co425 O426 2.061 . S
Co425 O431 2.052 . S
Co425 O433 2.135 . S
O426 Co425 2.061 . S
O426 C429 1.235 . S
C427 O430 1.238 . S
C427 O431 1.241 . S
C428 O421 1.247 . S
C428 O422 1.261 . S
C429 O424 1.259 . S
C429 O426 1.235 . S
O430 Co420 2.021 . S
O430 C427 1.238 . S
O431 Co425 2.052 . S
O431 C427 1.241 . S
O432 Co420 2.137 . S
O432 C423 1.247 . S
O433 Co420 2.244 . S
O433 C423 1.272 . S
O433 Co425 2.135 . S
Co434 O435 2.216 . S
Co434 O436 2.091 . S
Co434 O438 2.004 . S
Co434 O444 2.021 . S
Co434 O446 2.137 . S
Co434 O447 2.244 1_565 S
O435 Co434 2.216 . S
O435 C442 1.247 . S
O436 Co434 2.091 . S
O436 C442 1.261 . S
C437 O446 1.247 . S
C437 O447 1.272 1_565 S
O438 Co434 2.004 . S
O438 C443 1.259 . S
Co439 O440 2.061 . S
Co439 O445 2.052 . S
Co439 O447 2.135 . S
O440 Co439 2.061 . S
O440 C443 1.235 1_545 S
C441 O444 1.238 . S
C441 O445 1.241 1_565 S
C442 O435 1.247 . S
C442 O436 1.261 . S
C443 O438 1.259 . S
C443 O440 1.235 1_565 S
O444 Co434 2.021 . S
O444 C441 1.238 . S
O445 Co439 2.052 . S
O445 C441 1.241 1_545 S
O446 Co434 2.137 . S
O446 C437 1.247 . S
O447 Co434 2.244 1_545 S
O447 C437 1.272 1_545 S
O447 Co439 2.135 . S
Co448 O449 2.216 . S
Co448 O450 2.091 . S
Co448 O452 2.004 . S
Co448 O458 2.021 . S
Co448 O460 2.137 . S
Co448 O461 2.244 1_455 S
O449 Co448 2.216 . S
O449 C456 1.247 . S
O450 Co448 2.091 . S
O450 C456 1.261 . S
C451 O460 1.247 . S
C451 O461 1.272 1_455 S
O452 Co448 2.004 . S
O452 C457 1.259 . S
Co453 O454 2.061 . S
Co453 O459 2.052 . S
Co453 O461 2.135 . S
O454 Co453 2.061 . S
O454 C457 1.235 1_655 S
C455 O458 1.238 . S
C455 O459 1.241 1_455 S
C456 O449 1.247 . S
C456 O450 1.261 . S
C457 O452 1.259 . S
C457 O454 1.235 1_455 S
O458 Co448 2.021 . S
O458 C455 1.238 . S
O459 Co453 2.052 . S
O459 C455 1.241 1_655 S
O460 Co448 2.137 . S
O460 C451 1.247 . S
O461 Co448 2.244 1_655 S
O461 C451 1.272 1_655 S
O461 Co453 2.135 . S
Co462 O463 2.216 . S
Co462 O464 2.091 . S
Co462 O466 2.004 . S
Co462 O472 2.021 . S
Co462 O474 2.137 . S
Co462 O475 2.244 . S
O463 Co462 2.216 . S
O463 C470 1.247 . S
O464 Co462 2.091 . S
O464 C470 1.261 . S
C465 O474 1.247 . S
C465 O475 1.272 . S
O466 Co462 2.004 . S
O466 C471 1.259 . S
Co467 O468 2.061 . S
Co467 O473 2.052 . S
Co467 O475 2.135 . S
O468 Co467 2.061 . S
O468 C471 1.235 . S
C469 O472 1.238 . S
C469 O473 1.241 . S
C470 O463 1.247 . S
C470 O464 1.261 . S
C471 O466 1.259 . S
C471 O468 1.235 . S
O472 Co462 2.021 . S
O472 C469 1.238 . S
O473 Co467 2.052 . S
O473 C469 1.241 . S
O474 Co462 2.137 . S
O474 C465 1.247 . S
O475 Co462 2.244 . S
O475 C465 1.272 . S
O475 Co467 2.135 . S
Co476 O477 2.216 . S
Co476 O478 2.091 . S
Co476 O480 2.004 . S
Co476 O486 2.021 . S
Co476 O488 2.137 . S
Co476 O489 2.244 . S
O477 Co476 2.216 . S
O477 C484 1.247 . S
O478 Co476 2.091 . S
O478 C484 1.261 . S
C479 O488 1.247 . S
C479 O489 1.272 . S
O480 Co476 2.004 . S
O480 C485 1.259 . S
Co481 O482 2.061 . S
Co481 O487 2.052 . S
Co481 O489 2.135 . S
O482 Co481 2.061 . S
O482 C485 1.235 . S
C483 O486 1.238 . S
C483 O487 1.241 . S
C484 O477 1.247 . S
C484 O478 1.261 . S
C485 O480 1.259 . S
C485 O482 1.235 . S
O486 Co476 2.021 . S
O486 C483 1.238 . S
O487 Co481 2.052 . S
O487 C483 1.241 . S
O488 Co476 2.137 . S
O488 C479 1.247 . S
O489 Co476 2.244 . S
O489 C479 1.272 . S
O489 Co481 2.135 . S
Co490 O491 2.216 . S
Co490 O492 2.091 . S
Co490 O494 2.004 . S
Co490 O500 2.021 . S
Co490 O502 2.137 . S
Co490 O503 2.244 . S
O491 Co490 2.216 . S
O491 C498 1.247 . S
O492 Co490 2.091 . S
O492 C498 1.261 . S
C493 O502 1.247 . S
C493 O503 1.272 . S
O494 Co490 2.004 . S
O494 C499 1.259 . S
Co495 O496 2.061 . S
Co495 O501 2.052 . S
Co495 O503 2.135 . S
O496 Co495 2.061 . S
O496 C499 1.235 . S
C497 O500 1.238 . S
C497 O501 1.241 . S
C498 O491 1.247 . S
C498 O492 1.261 . S
C499 O494 1.259 . S
C499 O496 1.235 . S
O500 Co490 2.021 . S
O500 C497 1.238 . S
O501 Co495 2.052 . S
O501 C497 1.241 . S
O502 Co490 2.137 . S
O502 C493 1.247 . S
O503 Co490 2.244 . S
O503 C493 1.272 . S
O503 Co495 2.135 . S
C504 C505 1.387 . S
C504 H508 0.950 . S
C504 C513 1.390 1_656 S
C505 C504 1.387 . S
C505 C507 1.387 . S
H506 C513 0.950 . S
C507 C505 1.387 . S
C507 C509 1.390 1_656 S
C507 H511 0.950 . S
H508 C504 0.950 . S
C509 C507 1.390 1_454 S
C509 C510 1.387 . S
C509 H512 0.950 . S
C510 C509 1.387 . S
C510 C513 1.387 . S
H511 C507 0.950 . S
H512 C509 0.950 . S
C513 C504 1.390 1_454 S
C513 H506 0.950 . S
C513 C510 1.387 . S
C514 C515 1.387 . S
C514 H518 0.950 . S
C514 C523 1.390 . S
C515 C514 1.387 . S
C515 C517 1.387 1_556 S
H516 C523 0.950 . S
C517 C515 1.387 1_554 S
C517 C519 1.390 . S
C517 H521 0.950 . S
H518 C514 0.950 . S
C519 C517 1.390 . S
C519 C520 1.387 . S
C519 H522 0.950 . S
C520 C519 1.387 . S
C520 C523 1.387 1_554 S
H521 C517 0.950 . S
H522 C519 0.950 . S
C523 C514 1.390 . S
C523 H516 0.950 . S
C523 C520 1.387 1_556 S
C524 C525 1.387 . S
C524 H528 0.950 . S
C524 C533 1.390 1_546 S
C525 C524 1.387 . S
C525 C527 1.387 . S
H526 C533 0.950 . S
C527 C525 1.387 . S
C527 C529 1.390 1_546 S
C527 H531 0.950 . S
H528 C524 0.950 . S
C529 C527 1.390 1_564 S
C529 C530 1.387 . S
C529 H532 0.950 . S
C530 C529 1.387 . S
C530 C533 1.387 . S
H531 C527 0.950 . S
H532 C529 0.950 . S
C533 C524 1.390 1_564 S
C533 H526 0.950 . S
C533 C530 1.387 . S
C534 C535 1.387 1_556 S
C534 H538 0.950 . S
C534 C543 1.390 1_455 S
C535 C534 1.387 1_554 S
C535 C537 1.387 . S
H536 C543 0.950 . S
C537 C535 1.387 . S
C537 C539 1.390 1_455 S
C537 H541 0.950 . S
H538 C534 0.950 . S
C539 C537 1.390 1_655 S
C539 C540 1.387 1_554 S
C539 H542 0.950 . S
C540 C539 1.387 1_556 S
C540 C543 1.387 . S
H541 C537 0.950 . S
H542 C539 0.950 . S
C543 C534 1.390 1_655 S
C543 H536 0.950 . S
C543 C540 1.387 . S
C544 C545 1.387 1_554 S
C544 H548 0.950 . S
C544 C553 1.390 . S
C545 C544 1.387 1_556 S
C545 C547 1.387 . S
H546 C553 0.950 . S
C547 C545 1.387 . S
C547 C549 1.390 . S
C547 H551 0.950 . S
H548 C544 0.950 . S
C549 C547 1.390 . S
C549 C550 1.387 1_556 S
C549 H552 0.950 . S
C550 C549 1.387 1_554 S
C550 C553 1.387 . S
H551 C547 0.950 . S
H552 C549 0.950 . S
C553 C544 1.390 . S
C553 H546 0.950 . S
C553 C550 1.387 . S
C554 C555 1.387 . S
C554 H558 0.950 . S
C554 C563 1.390 1_564 S
C555 C554 1.387 . S
C555 C557 1.387 . S
H556 C563 0.950 . S
C557 C555 1.387 . S
C557 C559 1.390 1_564 S
C557 H561 0.950 . S
H558 C554 0.950 . S
C559 C557 1.390 1_546 S
C559 C560 1.387 . S
C559 H562 0.950 . S
C560 C559 1.387 . S
C560 C563 1.387 . S
H561 C557 0.950 . S
H562 C559 0.950 . S
C563 C554 1.390 1_546 S
C563 H556 0.950 . S
C563 C560 1.387 . S
C564 C565 1.387 . S
C564 H568 0.950 . S
C564 C573 1.390 . S
C565 C564 1.387 . S
C565 C567 1.387 . S
H566 C573 0.950 . S
C567 C565 1.387 . S
C567 C569 1.390 . S
C567 H571 0.950 . S
H568 C564 0.950 . S
C569 C567 1.390 . S
C569 C570 1.387 . S
C569 H572 0.950 . S
C570 C569 1.387 . S
C570 C573 1.387 . S
H571 C567 0.950 . S
H572 C569 0.950 . S
C573 C564 1.390 . S
C573 H566 0.950 . S
C573 C570 1.387 . S
C574 C575 1.387 . S
C574 H578 0.950 . S
C574 C583 1.390 . S
C575 C574 1.387 . S
C575 C577 1.387 . S
H576 C583 0.950 . S
C577 C575 1.387 . S
C577 C579 1.390 1_565 S
C577 H581 0.950 . S
H578 C574 0.950 . S
C579 C577 1.390 1_545 S
C579 C580 1.387 . S
C579 H582 0.950 . S
C580 C579 1.387 . S
C580 C583 1.387 1_545 S
H581 C577 0.950 . S
H582 C579 0.950 . S
C583 C574 1.390 . S
C583 H576 0.950 . S
C583 C580 1.387 1_565 S
C584 C585 1.387 . S
C584 H588 0.950 . S
C584 C593 1.390 . S
C585 C584 1.387 . S
C585 C587 1.387 1_655 S
H586 C593 0.950 . S
C587 C585 1.387 1_455 S
C587 C589 1.390 . S
C587 H591 0.950 . S
H588 C584 0.950 . S
C589 C587 1.390 . S
C589 C590 1.387 . S
C589 H592 0.950 . S
C590 C589 1.387 . S
C590 C593 1.387 1_455 S
H591 C587 0.950 . S
H592 C589 0.950 . S
C593 C584 1.390 . S
C593 H586 0.950 . S
C593 C590 1.387 1_655 S
C594 C595 1.387 . S
C594 H598 0.950 . S
C594 C603 1.390 . S
C595 C594 1.387 . S
C595 C597 1.387 . S
H596 C603 0.950 . S
C597 C595 1.387 . S
C597 C599 1.390 1_565 S
C597 H601 0.950 . S
H598 C594 0.950 . S
C599 C597 1.390 1_545 S
C599 C600 1.387 . S
C599 H602 0.950 . S
C600 C599 1.387 . S
C600 C603 1.387 1_545 S
H601 C597 0.950 . S
H602 C599 0.950 . S
C603 C594 1.390 . S
C603 H596 0.950 . S
C603 C600 1.387 1_565 S
C604 C605 1.387 1_455 S
C604 H608 0.950 . S
C604 C613 1.390 . S
C605 C604 1.387 1_655 S
C605 C607 1.387 1_655 S
H606 C613 0.950 . S
C607 C605 1.387 1_455 S
C607 C609 1.390 . S
C607 H611 0.950 1_455 S
H608 C604 0.950 . S
C609 C607 1.390 . S
C609 C610 1.387 . S
C609 H612 0.950 . S
C610 C609 1.387 . S
C610 C613 1.387 . S
H611 C607 0.950 1_655 S
H612 C609 0.950 . S
C613 C604 1.390 . S
C613 H606 0.950 . S
C613 C610 1.387 . S
C614 C615 1.387 . S
C614 H618 0.950 . S
C614 C623 1.390 . S
C615 C614 1.387 . S
C615 C617 1.387 . S
H616 C623 0.950 . S
C617 C615 1.387 . S
C617 C619 1.390 . S
C617 H621 0.950 . S
H618 C614 0.950 . S
C619 C617 1.390 . S
C619 C620 1.387 . S
C619 H622 0.950 . S
C620 C619 1.387 . S
C620 C623 1.387 . S
H621 C617 0.950 . S
H622 C619 0.950 . S
C623 C614 1.390 . S
C623 H616 0.950 . S
C623 C620 1.387 . S
C624 C625 1.387 . S
C624 H628 0.950 . S
C624 C633 1.390 1_565 S
C625 C624 1.387 . S
C625 C627 1.387 1_565 S
H626 C633 0.946 1_565 S
C627 C625 1.387 1_545 S
C627 C629 1.390 . S
C627 H631 0.950 . S
H628 C624 0.950 . S
C629 C627 1.390 . S
C629 C630 1.387 . S
C629 H632 0.950 . S
C630 C629 1.387 . S
C630 C633 1.387 . S
H631 C627 0.950 . S
H632 C629 0.950 . S
C633 C624 1.390 1_545 S
C633 H626 0.946 1_545 S
C633 C630 1.387 . S
C634 C635 1.387 . S
C634 H638 0.950 . S
C634 C643 1.390 . S
C635 C634 1.387 . S
C635 C637 1.387 . S
H636 C643 0.940 1_455 S
C637 C635 1.387 . S
C637 C639 1.390 . S
C637 H641 0.950 . S
H638 C634 0.950 . S
C639 C637 1.390 . S
C639 C640 1.387 1_655 S
C639 H642 0.950 1_655 S
C640 C639 1.387 1_455 S
C640 C643 1.387 1_455 S
H641 C637 0.950 . S
H642 C639 0.950 1_455 S
C643 C634 1.390 . S
C643 H636 0.940 1_655 S
C643 C640 1.387 1_655 S
C644 C645 1.387 . S
C644 H648 0.950 . S
C644 C653 1.390 . S
C645 C644 1.387 . S
C645 C647 1.387 . S
H646 C653 0.950 . S
C647 C645 1.387 . S
C647 C649 1.390 . S
C647 H651 0.950 . S
H648 C644 0.950 . S
C649 C647 1.390 . S
C649 C650 1.387 . S
C649 H652 0.950 . S
C650 C649 1.387 . S
C650 C653 1.387 . S
H651 C647 0.950 . S
H652 C649 0.950 . S
C653 C644 1.390 . S
C653 H646 0.950 . S
C653 C650 1.387 . S
C654 C655 1.387 . S
C654 H658 0.950 . S
C654 C663 1.390 . S
C655 C654 1.387 . S
C655 C657 1.387 . S
H656 C663 0.950 . S
C657 C655 1.387 . S
C657 C659 1.390 . S
C657 H661 0.950 . S
H658 C654 0.950 . S
C659 C657 1.390 . S
C659 C660 1.387 . S
C659 H662 0.950 . S
C660 C659 1.387 . S
C660 C663 1.387 . S
H661 C657 0.950 . S
H662 C659 0.950 . S
C663 C654 1.390 . S
C663 H656 0.950 . S
C663 C660 1.387 . S
C664 C665 1.387 1_545 S
C664 H668 0.950 . S
C664 C673 1.390 . S
C665 C664 1.387 1_565 S
C665 C667 1.383 1_565 S
H666 C673 0.950 . S
C667 C665 1.383 1_545 S
C667 C669 1.403 . S
C667 H671 0.942 1_545 S
H668 C664 0.950 . S
C669 C667 1.403 . S
C669 C670 1.387 . S
C669 H672 0.950 . S
C670 C669 1.387 . S
C670 C673 1.387 . S
H671 C667 0.942 1_565 S
H672 C669 0.950 . S
C673 C664 1.390 . S
C673 H666 0.950 . S
C673 C670 1.387 . S
C674 C675 1.387 . S
C674 H678 0.950 . S
C674 C683 1.390 1_455 S
C675 C674 1.387 . S
C675 C677 1.387 1_455 S
H676 C683 0.950 . S
C677 C675 1.387 1_655 S
C677 C679 1.390 . S
C677 H681 0.950 . S
H678 C674 0.950 . S
C679 C677 1.390 . S
C679 C680 1.387 . S
C679 H682 0.950 . S
C680 C679 1.387 . S
C680 C683 1.387 . S
H681 C677 0.950 . S
H682 C679 0.950 . S
C683 C674 1.390 1_655 S
C683 H676 0.950 . S
C683 C680 1.387 . S
C684 C685 1.387 . S
C684 H688 0.950 . S
C684 C693 1.390 . S
C685 C684 1.387 . S
C685 C687 1.387 . S
H686 C693 0.950 . S
C687 C685 1.387 . S
C687 C689 1.390 . S
C687 H691 0.950 . S
H688 C684 0.950 . S
C689 C687 1.390 . S
C689 C690 1.387 . S
C689 H692 0.950 . S
C690 C689 1.387 . S
C690 C693 1.387 . S
H691 C687 0.950 . S
H692 C689 0.950 . S
C693 C684 1.390 . S
C693 H686 0.950 . S
C693 C690 1.387 . S
C694 C695 1.387 1_556 S
C694 H698 0.950 . S
C694 C703 1.390 . S
C695 C694 1.387 1_554 S
C695 C697 1.387 . S
H696 C703 0.950 . S
C697 C695 1.387 . S
C697 C699 1.390 . S
C697 H701 0.950 . S
H698 C694 0.950 . S
C699 C697 1.390 . S
C699 C700 1.387 . S
C699 H702 0.950 . S
C700 C699 1.387 . S
C700 C703 1.387 1_554 S
H701 C697 0.950 . S
H702 C699 0.950 . S
C703 C694 1.390 . S
C703 H696 0.950 . S
C703 C700 1.387 1_556 S
C704 C705 1.387 . S
C704 H708 0.950 . S
C704 C713 1.390 . S
C705 C704 1.387 . S
C705 C707 1.387 1_554 S
H706 C713 0.950 . S
C707 C705 1.387 1_556 S
C707 C709 1.390 . S
C707 H711 0.950 . S
H708 C704 0.950 . S
C709 C707 1.390 . S
C709 C710 1.387 1_556 S
C709 H712 0.950 . S
C710 C709 1.387 1_554 S
C710 C713 1.387 . S
H711 C707 0.950 . S
H712 C709 0.950 . S
C713 C704 1.390 . S
C713 H706 0.950 . S
C713 C710 1.387 . S
C714 C715 1.387 . S
C714 H718 0.950 . S
C714 C723 1.390 . S
C715 C714 1.387 . S
C715 C717 1.387 1_556 S
H716 C723 0.950 . S
C717 C715 1.387 1_554 S
C717 C719 1.390 . S
C717 H721 0.950 . S
H718 C714 0.950 . S
C719 C717 1.390 . S
C719 C720 1.387 1_554 S
C719 H722 0.950 . S
C720 C719 1.387 1_556 S
C720 C723 1.387 . S
H721 C717 0.950 . S
H722 C719 0.950 . S
C723 C714 1.390 . S
C723 H716 0.950 . S
C723 C720 1.387 . S
C724 C725 1.387 1_554 S
C724 H728 0.950 . S
C724 C733 1.390 . S
C725 C724 1.387 1_556 S
C725 C727 1.387 . S
H726 C733 0.950 . S
C727 C725 1.387 . S
C727 C729 1.390 . S
C727 H731 0.950 . S
H728 C724 0.950 . S
C729 C727 1.390 . S
C729 C730 1.387 . S
C729 H732 0.950 . S
C730 C729 1.387 . S
C730 C733 1.387 1_556 S
H731 C727 0.950 . S
H732 C729 0.950 . S
C733 C724 1.390 . S
C733 H726 0.950 . S
C733 C730 1.387 1_554 S
C734 C735 1.387 . S
C734 H738 0.950 1_556 S
C734 C743 1.390 . S
C735 C734 1.387 . S
C735 C737 1.387 . S
H736 C743 0.950 1_554 S
C737 C735 1.387 . S
C737 C739 1.390 . S
C737 H741 0.950 . S
H738 C734 0.950 1_554 S
C739 C737 1.390 . S
C739 C740 1.387 . S
C739 H742 0.950 . S
C740 C739 1.387 . S
C740 C743 1.387 . S
H741 C737 0.950 . S
H742 C739 0.950 . S
C743 C734 1.390 . S
C743 H736 0.950 1_556 S
C743 C740 1.387 . S
C744 C745 1.387 . S
C744 H748 0.950 . S
C744 C753 1.390 . S
C745 C744 1.387 . S
C745 C747 1.387 . S
H746 C753 0.950 . S
C747 C745 1.387 . S
C747 C749 1.390 . S
C747 H751 0.950 . S
H748 C744 0.950 . S
C749 C747 1.390 . S
C749 C750 1.387 . S
C749 H752 0.950 . S
C750 C749 1.387 . S
C750 C753 1.387 . S
H751 C747 0.950 . S
H752 C749 0.950 . S
C753 C744 1.390 . S
C753 H746 0.950 . S
C753 C750 1.387 . S
C754 C755 1.387 . S
C754 H758 0.950 . S
C754 C763 1.390 . S
C755 C754 1.387 . S
C755 C757 1.387 . S
H756 C763 0.950 . S
C757 C755 1.387 . S
C757 C759 1.390 . S
C757 H761 0.950 . S
H758 C754 0.950 . S
C759 C757 1.390 . S
C759 C760 1.387 . S
C759 H762 0.950 . S
C760 C759 1.387 . S
C760 C763 1.387 . S
H761 C757 0.950 . S
H762 C759 0.950 . S
C763 C754 1.390 . S
C763 H756 0.950 . S
C763 C760 1.387 . S
C764 C765 1.387 . S
C764 H768 0.950 . S
C764 C773 1.390 . S
C765 C764 1.387 . S
C765 C767 1.387 . S
H766 C773 0.950 . S
C767 C765 1.387 . S
C767 C769 1.390 . S
C767 H771 0.950 . S
H768 C764 0.950 . S
C769 C767 1.390 . S
C769 C770 1.387 . S
C769 H772 0.950 . S
C770 C769 1.387 . S
C770 C773 1.387 . S
H771 C767 0.950 . S
H772 C769 0.950 . S
C773 C764 1.390 . S
C773 H766 0.950 . S
C773 C770 1.387 . S
C774 C775 1.387 . S
C774 H778 0.950 . S
C774 C783 1.390 . S
C775 C774 1.387 . S
C775 C777 1.387 . S
H776 C783 0.950 . S
C777 C775 1.387 . S
C777 C779 1.390 . S
C777 H781 0.950 . S
H778 C774 0.950 . S
C779 C777 1.390 . S
C779 C780 1.387 . S
C779 H782 0.950 . S
C780 C779 1.387 . S
C780 C783 1.387 . S
H781 C777 0.950 . S
H782 C779 0.950 . S
C783 C774 1.390 . S
C783 H776 0.950 . S
C783 C780 1.387 . S
C784 C785 1.387 . S
C784 H788 0.950 . S
C784 C793 1.390 . S
C785 C784 1.387 . S
C785 C787 1.387 . S
H786 C793 0.950 . S
C787 C785 1.387 . S
C787 C789 1.390 . S
C787 H791 0.950 . S
H788 C784 0.950 . S
C789 C787 1.390 . S
C789 C790 1.387 . S
C789 H792 0.950 . S
C790 C789 1.387 . S
C790 C793 1.387 . S
H791 C787 0.950 . S
H792 C789 0.950 . S
C793 C784 1.390 . S
C793 H786 0.950 . S
C793 C790 1.387 . S
C794 C795 1.387 . S
C794 H798 0.950 . S
C794 C803 1.390 . S
C795 C794 1.387 . S
C795 C797 1.387 . S
H796 C803 0.950 . S
C797 C795 1.387 . S
C797 C799 1.390 . S
C797 H801 0.950 . S
H798 C794 0.950 . S
C799 C797 1.390 . S
C799 C800 1.387 . S
C799 H802 0.950 . S
C800 C799 1.387 . S
C800 C803 1.387 . S
H801 C797 0.950 . S
H802 C799 0.950 . S
C803 C794 1.390 . S
C803 H796 0.950 . S
C803 C800 1.387 . S
C804 C805 1.387 . S
C804 H808 0.950 . S
C804 C813 1.390 . S
C805 C804 1.387 . S
C805 C807 1.387 . S
H806 C813 0.950 . S
C807 C805 1.387 . S
C807 C809 1.390 . S
C807 H811 0.950 . S
H808 C804 0.950 . S
C809 C807 1.390 . S
C809 C810 1.387 . S
C809 H812 0.950 . S
C810 C809 1.387 . S
C810 C813 1.387 . S
H811 C807 0.950 . S
H812 C809 0.950 . S
C813 C804 1.390 . S
C813 H806 0.950 . S
C813 C810 1.387 . S
C814 C815 1.387 . S
C814 H818 0.950 . S
C814 C823 1.390 . S
C815 C814 1.387 . S
C815 C817 1.387 . S
H816 C823 0.950 . S
C817 C815 1.387 . S
C817 C819 1.390 . S
C817 H821 0.950 . S
H818 C814 0.950 . S
C819 C817 1.390 . S
C819 C820 1.387 . S
C819 H822 0.950 . S
C820 C819 1.387 . S
C820 C823 1.387 . S
H821 C817 0.950 . S
H822 C819 0.950 . S
C823 C814 1.390 . S
C823 H816 0.950 . S
C823 C820 1.387 . S
C824 C825 1.387 . S
C824 H828 0.950 . S
C824 C833 1.390 . S
C825 C824 1.387 . S
C825 C827 1.387 . S
H826 C833 0.950 . S
C827 C825 1.387 . S
C827 C829 1.390 . S
C827 H831 0.950 . S
H828 C824 0.950 . S
C829 C827 1.390 . S
C829 C830 1.387 . S
C829 H832 0.950 . S
C830 C829 1.387 . S
C830 C833 1.387 . S
H831 C827 0.950 . S
H832 C829 0.950 . S
C833 C824 1.390 . S
C833 H826 0.950 . S
C833 C830 1.387 . S
C834 C835 1.387 . S
C834 H838 0.950 . S
C834 C843 1.390 . S
C835 C834 1.387 . S
C835 C837 1.387 . S
H836 C843 0.950 . S
C837 C835 1.387 . S
C837 C839 1.390 . S
C837 H841 0.950 . S
H838 C834 0.950 . S
C839 C837 1.390 . S
C839 C840 1.387 . S
C839 H842 0.950 . S
C840 C839 1.387 . S
C840 C843 1.387 . S
H841 C837 0.950 . S
H842 C839 0.950 . S
C843 C834 1.390 . S
C843 H836 0.950 . S
C843 C840 1.387 . S
C844 C845 1.387 . S
C844 H848 0.950 . S
C844 C853 1.390 . S
C845 C844 1.387 . S
C845 C847 1.387 . S
H846 C853 0.950 . S
C847 C845 1.387 . S
C847 C849 1.390 . S
C847 H851 0.950 . S
H848 C844 0.950 . S
C849 C847 1.390 . S
C849 C850 1.387 . S
C849 H852 0.950 . S
C850 C849 1.387 . S
C850 C853 1.387 . S
H851 C847 0.950 . S
H852 C849 0.950 . S
C853 C844 1.390 . S
C853 H846 0.950 . S
C853 C850 1.387 . S
C854 C855 1.387 . S
C854 H858 0.950 . S
C854 C863 1.390 . S
C855 C854 1.387 . S
C855 C857 1.387 . S
H856 C863 0.950 . S
C857 C855 1.387 . S
C857 C859 1.390 . S
C857 H861 0.950 . S
H858 C854 0.950 . S
C859 C857 1.390 . S
C859 C860 1.387 . S
C859 H862 0.950 . S
C860 C859 1.387 . S
C860 C863 1.387 . S
H861 C857 0.950 . S
H862 C859 0.950 . S
C863 C854 1.390 . S
C863 H856 0.950 . S
C863 C860 1.387 . S
C864 C865 1.387 . S
C864 H868 0.950 . S
C864 C873 1.390 . S
C865 C864 1.387 . S
C865 C867 1.387 . S
H866 C873 0.950 . S
C867 C865 1.387 . S
C867 C869 1.390 . S
C867 H871 0.950 . S
H868 C864 0.950 . S
C869 C867 1.390 . S
C869 C870 1.387 . S
C869 H872 0.950 . S
C870 C869 1.387 . S
C870 C873 1.387 . S
H871 C867 0.950 . S
H872 C869 0.950 . S
C873 C864 1.390 . S
C873 H866 0.950 . S
C873 C870 1.387 . S
C874 C875 1.387 . S
C874 H878 0.950 . S
C874 C883 1.390 . S
C875 C874 1.387 . S
C875 C877 1.387 . S
H876 C883 0.950 . S
C877 C875 1.387 . S
C877 C879 1.390 . S
C877 H881 0.950 . S
H878 C874 0.950 . S
C879 C877 1.390 . S
C879 C880 1.387 . S
C879 H882 0.950 . S
C880 C879 1.387 . S
C880 C883 1.387 . S
H881 C877 0.950 . S
H882 C879 0.950 . S
C883 C874 1.390 . S
C883 H876 0.950 . S
C883 C880 1.387 . S
C884 C885 1.387 . S
C884 H888 0.950 . S
C884 C893 1.390 . S
C885 C884 1.387 . S
C885 C887 1.387 . S
H886 C893 0.950 . S
C887 C885 1.387 . S
C887 C889 1.390 . S
C887 H891 0.950 . S
H888 C884 0.950 . S
C889 C887 1.390 . S
C889 C890 1.387 . S
C889 H892 0.950 . S
C890 C889 1.387 . S
C890 C893 1.387 . S
H891 C887 0.950 . S
H892 C889 0.950 . S
C893 C884 1.390 . S
C893 H886 0.950 . S
C893 C890 1.387 . S
C894 C895 1.387 . S
C894 H898 0.950 . S
C894 C903 1.390 . S
C895 C894 1.387 . S
C895 C897 1.387 . S
H896 C903 0.950 . S
C897 C895 1.387 . S
C897 C899 1.390 . S
C897 H901 0.950 . S
H898 C894 0.950 . S
C899 C897 1.390 . S
C899 C900 1.387 . S
C899 H902 0.950 . S
C900 C899 1.387 . S
C900 C903 1.387 . S
H901 C897 0.950 . S
H902 C899 0.950 . S
C903 C894 1.390 . S
C903 H896 0.950 . S
C903 C900 1.387 . S
C904 C905 1.387 . S
C904 H908 0.950 . S
C904 C913 1.390 . S
C905 C904 1.387 . S
C905 C907 1.387 . S
H906 C913 0.950 . S
C907 C905 1.387 . S
C907 C909 1.390 . S
C907 H911 0.950 . S
H908 C904 0.950 . S
C909 C907 1.390 . S
C909 C910 1.387 . S
C909 H912 0.950 . S
C910 C909 1.387 . S
C910 C913 1.387 . S
H911 C907 0.950 . S
H912 C909 0.950 . S
C913 C904 1.390 . S
C913 H906 0.950 . S
C913 C910 1.387 . S
C914 C915 1.387 . S
C914 H918 0.950 . S
C914 C923 1.390 . S
C915 C914 1.387 . S
C915 C917 1.387 . S
H916 C923 0.950 . S
C917 C915 1.387 . S
C917 C919 1.390 . S
C917 H921 0.950 . S
H918 C914 0.950 . S
C919 C917 1.390 . S
C919 C920 1.387 . S
C919 H922 0.950 . S
C920 C919 1.387 . S
C920 C923 1.387 . S
H921 C917 0.950 . S
H922 C919 0.950 . S
C923 C914 1.390 . S
C923 H916 0.950 . S
C923 C920 1.387 . S
C924 C925 1.387 . S
C924 H928 0.950 . S
C924 C933 1.390 . S
C925 C924 1.387 . S
C925 C927 1.387 . S
H926 C933 0.950 . S
C927 C925 1.387 . S
C927 C929 1.390 . S
C927 H931 0.950 . S
H928 C924 0.950 . S
C929 C927 1.390 . S
C929 C930 1.387 . S
C929 H932 0.950 . S
C930 C929 1.387 . S
C930 C933 1.387 . S
H931 C927 0.950 . S
H932 C929 0.950 . S
C933 C924 1.390 . S
C933 H926 0.950 . S
C933 C930 1.387 . S
C934 C935 1.387 . S
C934 H938 0.950 . S
C934 C943 1.390 . S
C935 C934 1.387 . S
C935 C937 1.387 . S
H936 C943 0.950 . S
C937 C935 1.387 . S
C937 C939 1.390 . S
C937 H941 0.950 . S
H938 C934 0.950 . S
C939 C937 1.390 . S
C939 C940 1.387 . S
C939 H942 0.950 . S
C940 C939 1.387 . S
C940 C943 1.387 . S
H941 C937 0.950 . S
H942 C939 0.950 . S
C943 C934 1.390 . S
C943 H936 0.950 . S
C943 C940 1.387 . S
C944 C945 1.387 . S
C944 H948 0.950 . S
C944 C953 1.390 . S
C945 C944 1.387 . S
C945 C947 1.387 . S
H946 C953 0.950 . S
C947 C945 1.387 . S
C947 C949 1.390 . S
C947 H951 0.950 . S
H948 C944 0.950 . S
C949 C947 1.390 . S
C949 C950 1.387 . S
C949 H952 0.950 . S
C950 C949 1.387 . S
C950 C953 1.387 . S
H951 C947 0.950 . S
H952 C949 0.950 . S
C953 C944 1.390 . S
C953 H946 0.950 . S
C953 C950 1.387 . S
C954 C955 1.387 . S
C954 H958 0.950 . S
C954 C963 1.390 . S
C955 C954 1.387 . S
C955 C957 1.387 . S
H956 C963 0.950 . S
C957 C955 1.387 . S
C957 C959 1.390 . S
C957 H961 0.950 . S
H958 C954 0.950 . S
C959 C957 1.390 . S
C959 C960 1.387 . S
C959 H962 0.950 . S
C960 C959 1.387 . S
C960 C963 1.387 . S
H961 C957 0.950 . S
H962 C959 0.950 . S
C963 C954 1.390 . S
C963 H956 0.950 . S
C963 C960 1.387 . S
C964 C965 1.387 . S
C964 H968 0.950 . S
C964 C973 1.390 . S
C965 C964 1.387 . S
C965 C967 1.387 . S
H966 C973 0.950 . S
C967 C965 1.387 . S
C967 C969 1.390 . S
C967 H971 0.950 . S
H968 C964 0.950 . S
C969 C967 1.390 . S
C969 C970 1.387 . S
C969 H972 0.950 . S
C970 C969 1.387 . S
C970 C973 1.387 . S
H971 C967 0.950 . S
H972 C969 0.950 . S
C973 C964 1.390 . S
C973 H966 0.950 . S
C973 C970 1.387 . S
C974 C975 1.387 . S
C974 H978 0.950 . S
C974 C983 1.390 . S
C975 C974 1.387 . S
C975 C977 1.387 . S
H976 C983 0.950 . S
C977 C975 1.387 . S
C977 C979 1.390 . S
C977 H981 0.950 . S
H978 C974 0.950 . S
C979 C977 1.390 . S
C979 C980 1.387 . S
C979 H982 0.950 . S
C980 C979 1.387 . S
C980 C983 1.387 . S
H981 C977 0.950 . S
H982 C979 0.950 . S
C983 C974 1.390 . S
C983 H976 0.950 . S
C983 C980 1.387 . S
C984 C985 1.387 . S
C984 H988 0.950 . S
C984 C993 1.390 . S
C985 C984 1.387 . S
C985 C987 1.387 . S
H986 C993 0.950 . S
C987 C985 1.387 . S
C987 C989 1.390 . S
C987 H991 0.950 . S
H988 C984 0.950 . S
C989 C987 1.390 . S
C989 C990 1.387 . S
C989 H992 0.950 . S
C990 C989 1.387 . S
C990 C993 1.387 . S
H991 C987 0.950 . S
H992 C989 0.950 . S
C993 C984 1.390 . S
C993 H986 0.950 . S
C993 C990 1.387 . S
C994 C995 1.387 . S
C994 H998 0.950 . S
C994 C1003 1.390 1_565 S
C995 C994 1.387 . S
C995 C997 1.387 . S
H996 C1003 0.950 . S
C997 C995 1.387 . S
C997 C999 1.390 1_565 S
C997 H1001 0.950 . S
H998 C994 0.950 . S
C999 C997 1.390 1_545 S
C999 C1000 1.387 . S
C999 H1002 0.950 . S
C1000 C999 1.387 . S
C1000 C1003 1.387 . S
H1001 C997 0.950 . S
H1002 C999 0.950 . S
C1003 C994 1.390 1_545 S
C1003 H996 0.950 . S
C1003 C1000 1.387 . S
C1004 C1005 1.387 . S
C1004 H1008 0.950 . S
C1004 C1013 1.390 . S
C1005 C1004 1.387 . S
C1005 C1007 1.387 1_655 S
H1006 C1013 0.950 . S
C1007 C1005 1.387 1_455 S
C1007 C1009 1.390 . S
C1007 H1011 0.950 . S
H1008 C1004 0.950 . S
C1009 C1007 1.390 . S
C1009 C1010 1.387 . S
C1009 H1012 0.950 . S
C1010 C1009 1.387 . S
C1010 C1013 1.387 1_455 S
H1011 C1007 0.950 . S
H1012 C1009 0.950 . S
C1013 C1004 1.390 . S
C1013 H1006 0.950 . S
C1013 C1010 1.387 1_655 S
C1014 C1015 1.387 . S
C1014 H1018 0.950 . S
C1014 C1023 1.390 . S
C1015 C1014 1.387 . S
C1015 C1017 1.387 . S
H1016 C1023 0.950 . S
C1017 C1015 1.387 . S
C1017 C1019 1.390 . S
C1017 H1021 0.950 . S
H1018 C1014 0.950 . S
C1019 C1017 1.390 . S
C1019 C1020 1.387 . S
C1019 H1022 0.950 . S
C1020 C1019 1.387 . S
C1020 C1023 1.387 . S
H1021 C1017 0.950 . S
H1022 C1019 0.950 . S
C1023 C1014 1.390 . S
C1023 H1016 0.950 . S
C1023 C1020 1.387 . S
C1024 C1025 1.387 . S
C1024 H1028 0.950 . S
C1024 C1033 1.390 1_545 S
C1025 C1024 1.387 . S
C1025 C1027 1.387 . S
H1026 C1033 0.950 . S
C1027 C1025 1.387 . S
C1027 C1029 1.390 1_545 S
C1027 H1031 0.950 . S
H1028 C1024 0.950 . S
C1029 C1027 1.390 1_565 S
C1029 C1030 1.387 . S
C1029 H1032 0.950 . S
C1030 C1029 1.387 . S
C1030 C1033 1.387 . S
H1031 C1027 0.950 . S
H1032 C1029 0.950 . S
C1033 C1024 1.390 1_565 S
C1033 H1026 0.950 . S
C1033 C1030 1.387 . S
C1034 C1035 1.387 1_455 S
C1034 H1038 0.950 . S
C1034 C1043 1.390 . S
C1035 C1034 1.387 1_655 S
C1035 C1037 1.387 . S
H1036 C1043 0.950 . S
C1037 C1035 1.387 . S
C1037 C1039 1.390 . S
C1037 H1041 0.950 . S
H1038 C1034 0.950 . S
C1039 C1037 1.390 . S
C1039 C1040 1.387 1_655 S
C1039 H1042 0.950 . S
C1040 C1039 1.387 1_455 S
C1040 C1043 1.387 . S
H1041 C1037 0.950 . S
H1042 C1039 0.950 . S
C1043 C1034 1.390 . S
C1043 H1036 0.950 . S
C1043 C1040 1.387 . S
C1044 C1045 1.387 . S
C1044 H1048 0.950 . S
C1044 C1053 1.390 . S
C1045 C1044 1.387 . S
C1045 C1047 1.387 . S
H1046 C1053 0.950 . S
C1047 C1045 1.387 . S
C1047 C1049 1.390 . S
C1047 H1051 0.950 . S
H1048 C1044 0.950 . S
C1049 C1047 1.390 . S
C1049 C1050 1.387 . S
C1049 H1052 0.950 . S
C1050 C1049 1.387 . S
C1050 C1053 1.387 . S
H1051 C1047 0.950 . S
H1052 C1049 0.950 . S
C1053 C1044 1.390 . S
C1053 H1046 0.950 . S
C1053 C1050 1.387 . S
C1054 C1055 1.387 . S
C1054 H1058 0.950 . S
C1054 C1063 1.390 . S
C1055 C1054 1.387 . S
C1055 C1057 1.387 . S
H1056 C1063 0.950 . S
C1057 C1055 1.387 . S
C1057 C1059 1.390 . S
C1057 H1061 0.950 . S
H1058 C1054 0.950 . S
C1059 C1057 1.390 . S
C1059 C1060 1.387 . S
C1059 H1062 0.950 . S
C1060 C1059 1.387 . S
C1060 C1063 1.387 . S
H1061 C1057 0.950 . S
H1062 C1059 0.950 . S
C1063 C1054 1.390 . S
C1063 H1056 0.950 . S
C1063 C1060 1.387 . S
C1064 C1065 1.387 . S
C1064 H1068 0.950 . S
C1064 C1073 1.390 . S
C1065 C1064 1.387 . S
C1065 C1067 1.387 . S
H1066 C1073 0.950 . S
C1067 C1065 1.387 . S
C1067 C1069 1.390 . S
C1067 H1071 0.950 . S
H1068 C1064 0.950 . S
C1069 C1067 1.390 . S
C1069 C1070 1.387 . S
C1069 H1072 0.950 . S
C1070 C1069 1.387 . S
C1070 C1073 1.387 . S
H1071 C1067 0.950 . S
H1072 C1069 0.950 . S
C1073 C1064 1.390 . S
C1073 H1066 0.950 . S
C1073 C1070 1.387 . S
C1074 C1075 1.387 . S
C1074 H1078 0.950 . S
C1074 C1083 1.390 . S
C1075 C1074 1.387 . S
C1075 C1077 1.387 . S
H1076 C1083 0.950 . S
C1077 C1075 1.387 . S
C1077 C1079 1.390 . S
C1077 H1081 0.950 . S
H1078 C1074 0.950 . S
C1079 C1077 1.390 . S
C1079 C1080 1.387 . S
C1079 H1082 0.950 . S
C1080 C1079 1.387 . S
C1080 C1083 1.387 . S
H1081 C1077 0.950 . S
H1082 C1079 0.950 . S
C1083 C1074 1.390 . S
C1083 H1076 0.950 . S
C1083 C1080 1.387 . S
C1084 C1085 1.387 . S
C1084 H1088 0.950 . S
C1084 C1093 1.390 . S
C1085 C1084 1.387 . S
C1085 C1087 1.387 . S
H1086 C1093 0.950 . S
C1087 C1085 1.387 . S
C1087 C1089 1.390 . S
C1087 H1091 0.950 . S
H1088 C1084 0.950 . S
C1089 C1087 1.390 . S
C1089 C1090 1.387 . S
C1089 H1092 0.950 . S
C1090 C1089 1.387 . S
C1090 C1093 1.387 . S
H1091 C1087 0.950 . S
H1092 C1089 0.950 . S
C1093 C1084 1.390 . S
C1093 H1086 0.950 . S
C1093 C1090 1.387 . S
C1094 C1095 1.387 . S
C1094 H1098 0.950 . S
C1094 C1103 1.390 . S
C1095 C1094 1.387 . S
C1095 C1097 1.387 . S
H1096 C1103 0.950 . S
C1097 C1095 1.387 . S
C1097 C1099 1.390 . S
C1097 H1101 0.950 . S
H1098 C1094 0.950 . S
C1099 C1097 1.390 . S
C1099 C1100 1.387 . S
C1099 H1102 0.950 . S
C1100 C1099 1.387 . S
C1100 C1103 1.387 . S
H1101 C1097 0.950 . S
H1102 C1099 0.950 . S
C1103 C1094 1.390 . S
C1103 H1096 0.950 . S
C1103 C1100 1.387 . S
C1104 C1105 1.387 . S
C1104 H1108 0.950 . S
C1104 C1113 1.390 . S
C1105 C1104 1.387 . S
C1105 C1107 1.387 . S
H1106 C1113 0.950 . S
C1107 C1105 1.387 . S
C1107 C1109 1.390 . S
C1107 H1111 0.950 . S
H1108 C1104 0.950 . S
C1109 C1107 1.390 . S
C1109 C1110 1.387 . S
C1109 H1112 0.950 . S
C1110 C1109 1.387 . S
C1110 C1113 1.387 . S
H1111 C1107 0.950 . S
H1112 C1109 0.950 . S
C1113 C1104 1.390 . S
C1113 H1106 0.950 . S
C1113 C1110 1.387 . S
C1114 C1115 1.387 . S
C1114 H1118 0.950 . S
C1114 C1123 1.390 . S
C1115 C1114 1.387 . S
C1115 C1117 1.387 . S
H1116 C1123 0.950 . S
C1117 C1115 1.387 . S
C1117 C1119 1.390 . S
C1117 H1121 0.950 . S
H1118 C1114 0.950 . S
C1119 C1117 1.390 . S
C1119 C1120 1.387 . S
C1119 H1122 0.950 . S
C1120 C1119 1.387 . S
C1120 C1123 1.387 . S
H1121 C1117 0.950 . S
H1122 C1119 0.950 . S
C1123 C1114 1.390 . S
C1123 H1116 0.950 . S
C1123 C1120 1.387 . S
C1124 C1125 1.387 . S
C1124 H1128 0.950 . S
C1124 C1133 1.390 . S
C1125 C1124 1.387 . S
C1125 C1127 1.387 . S
H1126 C1133 0.950 . S
C1127 C1125 1.387 . S
C1127 C1129 1.390 . S
C1127 H1131 0.950 . S
H1128 C1124 0.950 . S
C1129 C1127 1.390 . S
C1129 C1130 1.387 . S
C1129 H1132 0.950 . S
C1130 C1129 1.387 . S
C1130 C1133 1.387 . S
H1131 C1127 0.950 . S
H1132 C1129 0.950 . S
C1133 C1124 1.390 . S
C1133 H1126 0.950 . S
C1133 C1130 1.387 . S
C1134 C1135 1.387 . S
C1134 H1138 0.950 . S
C1134 C1143 1.390 . S
C1135 C1134 1.387 . S
C1135 C1137 1.387 . S
H1136 C1143 0.950 . S
C1137 C1135 1.387 . S
C1137 C1139 1.390 . S
C1137 H1141 0.950 . S
H1138 C1134 0.950 . S
C1139 C1137 1.390 . S
C1139 C1140 1.387 . S
C1139 H1142 0.950 . S
C1140 C1139 1.387 . S
C1140 C1143 1.387 . S
H1141 C1137 0.950 . S
H1142 C1139 0.950 . S
C1143 C1134 1.390 . S
C1143 H1136 0.950 . S
C1143 C1140 1.387 . S
C1144 C1145 1.387 . S
C1144 H1148 0.950 . S
C1144 C1153 1.390 . S
C1145 C1144 1.387 . S
C1145 C1147 1.387 . S
H1146 C1153 0.950 . S
C1147 C1145 1.387 . S
C1147 C1149 1.390 . S
C1147 H1151 0.950 . S
H1148 C1144 0.950 . S
C1149 C1147 1.390 . S
C1149 C1150 1.387 . S
C1149 H1152 0.950 . S
C1150 C1149 1.387 . S
C1150 C1153 1.387 . S
H1151 C1147 0.950 . S
H1152 C1149 0.950 . S
C1153 C1144 1.390 . S
C1153 H1146 0.950 . S
C1153 C1150 1.387 . S
C1154 C1155 1.387 . S
C1154 H1158 0.950 . S
C1154 C1163 1.390 . S
C1155 C1154 1.387 . S
C1155 C1157 1.387 . S
H1156 C1163 0.950 . S
C1157 C1155 1.387 . S
C1157 C1159 1.390 . S
C1157 H1161 0.950 . S
H1158 C1154 0.950 . S
C1159 C1157 1.390 . S
C1159 C1160 1.387 . S
C1159 H1162 0.950 . S
C1160 C1159 1.387 . S
C1160 C1163 1.387 . S
H1161 C1157 0.950 . S
H1162 C1159 0.950 . S
C1163 C1154 1.390 . S
C1163 H1156 0.950 . S
C1163 C1160 1.387 . S
C1164 C1165 1.387 . S
C1164 H1168 0.950 . S
C1164 C1173 1.390 1_455 S
C1165 C1164 1.387 . S
C1165 C1167 1.387 . S
H1166 C1173 0.950 . S
C1167 C1165 1.387 . S
C1167 C1169 1.390 1_455 S
C1167 H1171 0.950 . S
H1168 C1164 0.950 . S
C1169 C1167 1.390 1_655 S
C1169 C1170 1.387 . S
C1169 H1172 0.950 . S
C1170 C1169 1.387 . S
C1170 C1173 1.387 . S
H1171 C1167 0.950 . S
H1172 C1169 0.950 . S
C1173 C1164 1.390 1_655 S
C1173 H1166 0.950 . S
C1173 C1170 1.387 . S
C1174 C1175 1.387 . S
C1174 H1178 0.950 . S
C1174 C1183 1.390 . S
C1175 C1174 1.387 . S
C1175 C1177 1.387 . S
H1176 C1183 0.950 . S
C1177 C1175 1.387 . S
C1177 C1179 1.390 . S
C1177 H1181 0.950 . S
H1178 C1174 0.950 . S
C1179 C1177 1.390 . S
C1179 C1180 1.387 . S
C1179 H1182 0.950 . S
C1180 C1179 1.387 . S
C1180 C1183 1.387 . S
H1181 C1177 0.950 . S
H1182 C1179 0.950 . S
C1183 C1174 1.390 . S
C1183 H1176 0.950 . S
C1183 C1180 1.387 . S
C1184 C1185 1.387 . S
C1184 H1188 0.950 . S
C1184 C1193 1.390 1_545 S
C1185 C1184 1.387 . S
C1185 C1187 1.387 . S
H1186 C1193 0.950 . S
C1187 C1185 1.387 . S
C1187 C1189 1.390 1_545 S
C1187 H1191 0.950 . S
H1188 C1184 0.950 . S
C1189 C1187 1.390 1_565 S
C1189 C1190 1.387 . S
C1189 H1192 0.950 . S
C1190 C1189 1.387 . S
C1190 C1193 1.387 . S
H1191 C1187 0.950 . S
H1192 C1189 0.950 . S
C1193 C1184 1.390 1_565 S
C1193 H1186 0.950 . S
C1193 C1190 1.387 . S
C1194 C1195 1.387 . S
C1194 H1198 0.950 . S
C1194 C1203 1.390 1_565 S
C1195 C1194 1.387 . S
C1195 C1197 1.387 . S
H1196 C1203 0.950 . S
C1197 C1195 1.387 . S
C1197 C1199 1.390 1_565 S
C1197 H1201 0.950 . S
H1198 C1194 0.950 . S
C1199 C1197 1.390 1_545 S
C1199 C1200 1.387 . S
C1199 H1202 0.950 . S
C1200 C1199 1.387 . S
C1200 C1203 1.387 . S
H1201 C1197 0.950 . S
H1202 C1199 0.950 . S
C1203 C1194 1.390 1_545 S
C1203 H1196 0.950 . S
C1203 C1200 1.387 . S
C1204 C1205 1.387 . S
C1204 H1208 0.950 . S
C1204 C1213 1.390 1_655 S
C1205 C1204 1.387 . S
C1205 C1207 1.387 . S
H1206 C1213 0.950 . S
C1207 C1205 1.387 . S
C1207 C1209 1.390 1_655 S
C1207 H1211 0.950 . S
H1208 C1204 0.950 . S
C1209 C1207 1.390 1_455 S
C1209 C1210 1.387 . S
C1209 H1212 0.950 . S
C1210 C1209 1.387 . S
C1210 C1213 1.387 . S
H1211 C1207 0.950 . S
H1212 C1209 0.950 . S
C1213 C1204 1.390 1_455 S
C1213 H1206 0.950 . S
C1213 C1210 1.387 . S
C1214 C1215 1.387 . S
C1214 H1218 0.950 . S
C1214 C1223 1.390 . S
C1215 C1214 1.387 . S
C1215 C1217 1.387 . S
H1216 C1223 0.950 . S
C1217 C1215 1.387 . S
C1217 C1219 1.390 . S
C1217 H1221 0.950 . S
H1218 C1214 0.950 . S
C1219 C1217 1.390 . S
C1219 C1220 1.387 . S
C1219 H1222 0.950 . S
C1220 C1219 1.387 . S
C1220 C1223 1.387 . S
H1221 C1217 0.950 . S
H1222 C1219 0.950 . S
C1223 C1214 1.390 . S
C1223 H1216 0.950 . S
C1223 C1220 1.387 . S
C505 C65 1.019 . S
C510 C9 1.019 . S
C515 C79 1.023 . S
C520 C23 1.019 . S
C525 C51 1.024 . S
C530 C37 1.024 . S
C535 C149 1.024 . S
C540 C93 1.020 . S
C545 C107 1.025 . S
C550 C163 1.022 . S
C555 C135 1.024 . S
C560 C121 1.024 . S
C565 C177 0.959 . S
C570 C233 0.956 . S
C575 C247 0.956 . S
C580 C191 0.959 . S
C585 C205 0.954 . S
C590 C219 0.956 . S
C595 C261 0.959 . S
C600 C317 0.954 . S
C605 C331 0.958 . S
C610 C275 0.955 . S
C615 C289 0.960 . S
C620 C303 0.957 . S
C625 C401 0.954 . S
C630 C345 0.958 . S
C635 C359 0.956 . S
C640 C415 0.958 . S
C645 C387 0.957 . S
C650 C373 0.960 . S
C655 C485 0.960 . S
C660 C429 0.954 . S
C665 C443 0.954 . S
C670 C499 0.959 . S
C675 C457 0.955 . S
C680 C471 0.960 . S
C685 C162 1.440 . S
C690 C8 1.440 . S
C695 C22 1.440 . S
C700 C134 1.440 . S
C705 C148 1.440 . S
C710 C36 1.440 . S
C715 C106 1.440 . S
C720 C50 1.440 . S
C725 C64 1.440 . S
C730 C120 1.440 . S
C735 C92 1.440 . S
C740 C78 1.440 . S
C745 C176 1.465 . S
C750 C330 1.465 . S
C755 C302 1.465 . S
C760 C190 1.465 . S
C765 C316 1.465 . S
C770 C204 1.465 . S
C775 C218 1.450 . S
C780 C274 1.450 . S
C785 C232 1.450 . S
C790 C288 1.450 . S
C795 C246 1.450 . S
C800 C260 1.450 . S
C805 C498 1.450 . S
C810 C344 1.450 . S
C815 C358 1.450 . S
C820 C470 1.450 . S
C825 C372 1.450 . S
C830 C484 1.450 . S
C835 C442 1.465 . S
C840 C386 1.465 . S
C845 C456 1.465 . S
C850 C400 1.465 . S
C855 C428 1.465 . S
C860 C414 1.465 . S
C865 C213 1.866 . S
C870 C3 1.895 . S
C875 C227 1.862 . S
C880 C17 1.893 . S
C885 C31 1.898 . S
C890 C241 1.863 . S
C895 C45 1.899 . S
C900 C339 1.863 . S
C905 C59 1.896 . S
C910 C353 1.859 . S
C915 C73 1.896 . S
C920 C367 1.859 . S
C925 C87 1.896 . S
C930 C465 1.859 . S
C935 C101 1.895 . S
C940 C479 1.860 . S
C945 C115 1.899 . S
C950 C493 1.863 . S
C955 C129 1.895 . S
C960 C255 1.861 . S
C965 C269 1.864 . S
C970 C143 1.896 . S
C975 C283 1.862 . S
C980 C157 1.894 . S
C985 C381 2.097 . S
C990 C171 2.096 . S
C995 C185 2.097 1_565 S
C1000 C395 2.097 1_545 S
C1005 C409 2.094 1_655 S
C1010 C199 2.093 1_455 S
C1015 C297 2.097 . S
C1020 C423 2.096 . S
C1025 C437 2.097 1_545 S
C1030 C311 2.097 1_565 S
C1035 C451 2.097 1_655 S
C1040 C325 2.096 1_455 S
C1045 C7 2.498 . S
C1050 C413 2.515 . S
C1055 C21 2.499 . S
C1060 C385 2.516 . S
C1065 C35 2.498 . S
C1070 C399 2.515 . S
C1075 C49 2.498 . S
C1080 C189 2.515 . S
C1085 C203 2.515 . S
C1090 C63 2.501 . S
C1095 C175 2.514 . S
C1100 C77 2.498 . S
C1105 C329 2.514 . S
C1110 C91 2.498 . S
C1115 C301 2.516 . S
C1120 C105 2.501 . S
C1125 C315 2.514 . S
C1130 C119 2.500 . S
C1135 C441 2.517 . S
C1140 C133 2.501 . S
C1145 C455 2.515 . S
C1150 C147 2.498 . S
C1155 C427 2.514 . S
C1160 C161 2.498 . S
C1165 C217 2.352 . S
C1170 C357 2.354 . S
C1175 C371 2.353 . S
C1180 C231 2.352 . S
C1185 C343 2.354 . S
C1190 C245 2.354 . S
C1195 C259 2.351 . S
C1200 C497 2.351 . S
C1205 C469 2.353 . S
C1210 C273 2.352 . S
C1215 C287 2.352 . S
C1220 C483 2.354 . S
