# Generated by pormake.
# Topology tsi, (8)-cn, num edge types: 1
# Building blocks:
#     Node 0, Type 0, BuildingBlock: TAGTUT_clean_sbu_3, # of connection points: 8
#     Node 1, Type 0, BuildingBlock: TAGTUT_clean_sbu_3, # of connection points: 8
#     Node 2, Type 0, BuildingBlock: TAGTUT_clean_sbu_3, # of connection points: 8
#     Node 3, Type 0, BuildingBlock: TAGTUT_clean_sbu_3, # of connection points: 8
#     Edge 4, Type (0, 0), BuildingBlock: FUNLAD_clean_linker_0, # of connection points: 2
#     Edge 5, Type (0, 0), BuildingBlock: FUNLAD_clean_linker_0, # of connection points: 2
#     Edge 6, Type (0, 0), BuildingBlock: FUNLAD_clean_linker_0, # of connection points: 2
#     Edge 7, Type (0, 0), BuildingBlock: FUNLAD_clean_linker_0, # of connection points: 2
#     Edge 8, Type (0, 0), BuildingBlock: FUNLAD_clean_linker_0, # of connection points: 2
#     Edge 9, Type (0, 0), BuildingBlock: FUNLAD_clean_linker_0, # of connection points: 2
#     Edge 10, Type (0, 0), BuildingBlock: FUNLAD_clean_linker_0, # of connection points: 2
#     Edge 11, Type (0, 0), BuildingBlock: FUNLAD_clean_linker_0, # of connection points: 2
#     Edge 12, Type (0, 0), BuildingBlock: FUNLAD_clean_linker_0, # of connection points: 2
#     Edge 13, Type (0, 0), BuildingBlock: FUNLAD_clean_linker_0, # of connection points: 2
#     Edge 14, Type (0, 0), BuildingBlock: FUNLAD_clean_linker_0, # of connection points: 2
#     Edge 15, Type (0, 0), BuildingBlock: FUNLAD_clean_linker_0, # of connection points: 2
#     Edge 16, Type (0, 0), BuildingBlock: FUNLAD_clean_linker_0, # of connection points: 2
#     Edge 17, Type (0, 0), BuildingBlock: FUNLAD_clean_linker_0, # of connection points: 2
#     Edge 18, Type (0, 0), BuildingBlock: FUNLAD_clean_linker_0, # of connection points: 2
#     Edge 19, Type (0, 0), BuildingBlock: FUNLAD_clean_linker_0, # of connection points: 2
# Relax obj value: 0.144
# Max RMSD: 0.224
# Mean RMSD: 0.224
data_MOF--net-tsi--node1-TAGTUT_clean_sbu_3--edge1-FUNLAD_clean_linker_0
_symmetry_space_group_name_H-M    P1
_symmetry_Int_Tables_number       1
_symmetry_cell_setting            triclinic
loop_
_symmetry_equiv_pos_as_xyz
'x, y, z'
_cell_length_a     18.475753
_cell_length_b     18.476663
_cell_length_c     74.470056
_cell_angle_alpha  89.196412
_cell_angle_beta   90.257477
_cell_angle_gamma 90.162387
loop_
_atom_site_label
_atom_site_type_symbol
_atom_site_fract_x
_atom_site_fract_y
_atom_site_fract_z
_atom_type_partial_charge
C0 C 0.14698 0.22939 0.36142 0.0
C1 C 0.00988 0.18955 0.29904 0.0
C2 C 0.83126 0.27937 0.32699 0.0
Mg3 Mg 0.08171 0.24618 0.40106 0.0
Mg4 Mg 0.9287 0.16682 0.41417 0.0
O5 O 0.97702 0.22279 0.39691 0.0
Mg6 Mg 0.97914 0.20102 0.37079 0.0
O7 O -0.01106 0.1862 0.34431 0.0
Mg8 Mg 0.0105 0.28887 0.33669 0.0
Mg9 Mg 0.91611 0.13964 0.33147 0.0
C10 C 0.80878 0.17839 0.38343 0.0
O11 O 0.97044 0.07606 0.37382 0.0
O12 O 0.04691 0.29088 0.4284 0.0
O13 O 0.91161 0.04383 0.34844 0.0
O14 O 0.10204 0.13793 0.41561 0.0
O15 O 0.93743 0.24477 0.43537 0.0
O16 O -0.00039 0.07934 0.42217 0.0
O17 O 0.98556 0.32283 0.36551 0.0
O18 O 0.05901 0.35474 0.38778 0.0
C19 C 0.0207 0.37129 0.37403 0.0
C20 C -0.00867 0.2865 0.43866 0.0
O21 O 0.85508 0.20027 0.37167 0.0
O22 O 0.03053 0.24427 0.30825 0.0
O23 O 0.82664 0.15673 0.39935 0.0
O24 O 0.89194 0.3128 0.32787 0.0
O25 O 0.96724 0.14082 0.30542 0.0
O26 O 0.8264 0.21154 0.33014 0.0
O27 O 0.10104 0.20237 0.37245 0.0
O28 O 0.12661 0.26169 0.34684 0.0
C29 C 0.06857 0.08486 0.42305 0.0
C30 C 0.93924 0.02847 0.3639 0.0
C31 C 0.16035 0.79297 0.63885 0.0
C32 C 0.01937 0.83353 0.70025 0.0
C33 C 0.84519 0.73196 0.67209 0.0
Mg34 Mg 0.09746 0.77208 0.59914 0.0
Mg35 Mg 0.94231 0.84384 0.5849 0.0
O36 O -0.00827 0.79154 0.60267 0.0
Mg37 Mg -0.00817 0.81517 0.62874 0.0
O38 O -0.00041 0.83213 0.65518 0.0
Mg39 Mg 0.02544 0.73119 0.66324 0.0
Mg40 Mg 0.92296 0.87526 0.66736 0.0
C41 C 0.82149 0.83158 0.61523 0.0
O42 O 0.98006 0.93991 0.62537 0.0
O43 O 0.06686 0.72561 0.57165 0.0
O44 O 0.91759 0.9709 0.65016 0.0
O45 O 0.11492 0.8806 0.58434 0.0
O46 O 0.9559 0.76575 0.56387 0.0
O47 O 0.01028 0.93398 0.5772 0.0
O48 O 0.00146 0.69364 0.63447 0.0
O49 O 0.07656 0.66296 0.61261 0.0
C50 C 0.03774 0.64572 0.62617 0.0
C51 C 0.01219 0.72722 0.56096 0.0
O52 O 0.86782 0.81221 0.62731 0.0
O53 O 0.04457 0.78007 0.69137 0.0
O54 O 0.83944 0.85163 0.59922 0.0
O55 O 0.90799 0.70303 0.6716 0.0
O56 O 0.9721 0.87739 0.69374 0.0
O57 O 0.83604 0.79911 0.66865 0.0
O58 O 0.11382 0.8178 0.62762 0.0
O59 O 0.14065 0.7612 0.6535 0.0
C60 C 0.07941 0.93158 0.57657 0.0
C61 C 0.94694 0.98693 0.63498 0.0
C62 C 0.55582 0.8233 0.87783 0.0
C63 C 0.52892 0.74058 0.94299 0.0
C64 C 0.59698 0.53535 0.92671 0.0
Mg65 Mg 0.54647 0.73754 0.84065 0.0
Mg66 Mg 0.44453 0.59243 0.83574 0.0
O67 O 0.51915 0.63692 0.84865 0.0
Mg68 Mg 0.51051 0.65348 0.87502 0.0
O69 O 0.50951 0.67698 0.90112 0.0
Mg70 Mg 0.61523 0.6969 0.9051 0.0
Mg71 Mg 0.46019 0.62367 0.91866 0.0
C72 C 0.46543 0.48169 0.86856 0.0
O73 O 0.38642 0.65486 0.87585 0.0
O74 O 0.56946 0.68704 0.81297 0.0
O75 O 0.35828 0.61477 0.90384 0.0
O76 O 0.43043 0.76504 0.83119 0.0
O77 O 0.49967 0.58752 0.81028 0.0
O78 O 0.35804 0.66852 0.83272 0.0
O79 O 0.63279 0.65148 0.87676 0.0
O80 O 0.66023 0.70848 0.85105 0.0
C81 C 0.67955 0.67664 0.8657 0.0
C82 C 0.54747 0.63173 0.80417 0.0
O83 O 0.49862 0.52869 0.87829 0.0
O84 O 0.58384 0.74271 0.9325 0.0
O85 O 0.43682 0.49765 0.85323 0.0
O86 O 0.63265 0.58777 0.91962 0.0
O87 O 0.47284 0.70154 0.93987 0.0
O88 O 0.52785 0.5331 0.926 0.0
O89 O 0.52006 0.77517 0.86931 0.0
O90 O 0.59417 0.80617 0.89157 0.0
C91 C 0.36787 0.73593 0.82966 0.0
C92 C 0.34023 0.63428 0.88777 0.0
C93 C 0.64464 0.27226 0.13603 0.0
C94 C 0.49658 0.31055 0.19582 0.0
C95 C 0.32105 0.22083 0.16582 0.0
Mg96 Mg 0.5882 0.25736 0.09522 0.0
Mg97 Mg 0.43908 0.33615 0.07947 0.0
O98 O 0.48255 0.28115 0.09767 0.0
Mg99 Mg 0.47745 0.30206 0.1238 0.0
O100 O 0.48094 0.31506 0.15045 0.0
Mg101 Mg 0.50124 0.21211 0.15804 0.0
Mg102 Mg 0.40723 0.36175 0.16268 0.0
C103 C 0.30888 0.3265 0.10762 0.0
O104 O 0.47047 0.42688 0.12111 0.0
O105 O 0.55989 0.21238 0.06734 0.0
O106 O 0.40616 0.45776 0.14563 0.0
O107 O 0.6125 0.36652 0.08129 0.0
O108 O 0.45287 0.2586 0.05843 0.0
O109 O 0.51131 0.42481 0.07342 0.0
O110 O 0.48186 0.17986 0.12879 0.0
O111 O 0.56126 0.14865 0.10794 0.0
C112 C 0.51896 0.13169 0.12084 0.0
C113 C 0.50698 0.21651 0.05614 0.0
O114 O 0.3506 0.3054 0.12065 0.0
O115 O 0.51647 0.25543 0.18676 0.0
O116 O 0.33329 0.34523 0.09207 0.0
O117 O 0.38152 0.18746 0.16506 0.0
O118 O 0.45628 0.36054 0.18911 0.0
O119 O 0.31715 0.2892 0.16348 0.0
O120 O 0.60202 0.30035 0.12421 0.0
O121 O 0.61941 0.23928 0.14998 0.0
C122 C 0.58036 0.42032 0.07379 0.0
C123 C 0.43711 0.47385 0.13065 0.0
C124 C 0.05149 0.3694 0.46028 0.0
C125 C -0.0114 0.33384 0.45442 0.0
C126 C 0.04864 0.41775 0.47443 0.0
C127 C 0.98241 0.43253 0.48288 0.0
C128 C 0.92008 0.39499 0.47745 0.0
C129 C 0.92305 0.34608 0.46335 0.0
C130 C 0.97639 0.48575 0.4975 0.0
C131 C 0.02498 0.53896 0.50014 0.0
C132 C 0.01992 0.58937 0.51526 0.0
C133 C 0.08397 0.61288 0.52348 0.0
C134 C 0.08134 0.6581 0.53827 0.0
C135 C 0.0145 0.68191 0.54487 0.0
H136 H 0.90278 0.59882 0.51511 0.0
C137 C 0.95037 0.66069 0.53619 0.0
C138 C 0.953 0.61445 0.52154 0.0
H139 H 0.89814 0.67861 0.54093 0.0
H140 H 0.10315 0.36007 0.4539 0.0
H141 H 0.09873 0.44269 0.47868 0.0
H142 H 0.86861 0.40454 0.48391 0.0
H143 H 0.87366 0.31926 0.4592 0.0
H144 H 0.92988 0.48104 0.50633 0.0
H145 H 0.07196 0.54453 0.49155 0.0
H146 H 0.13613 0.59481 0.51871 0.0
H147 H 0.13173 0.67433 0.54455 0.0
C148 C 0.53986 0.58446 0.77284 0.0
C149 C 0.57996 0.61791 0.78652 0.0
C150 C 0.57066 0.57406 0.75593 0.0
C151 C 0.64249 0.59551 0.75267 0.0
C152 C 0.68311 0.62641 0.76656 0.0
C153 C 0.65189 0.63848 0.78324 0.0
C154 C 0.67658 0.58931 0.73485 0.0
C155 C 0.64144 0.60577 0.71947 0.0
C156 C 0.68314 0.62578 0.70321 0.0
C157 C 0.66656 0.69084 0.69422 0.0
C158 C 0.71698 0.72291 0.68266 0.0
C159 C 0.7842 0.68962 0.6797 0.0
H160 H 0.75918 0.53684 0.70498 0.0
C161 C 0.79622 0.61974 0.68682 0.0
C162 C 0.74617 0.58817 0.69855 0.0
H163 H 0.84677 0.59184 0.68453 0.0
H164 H 0.4843 0.56792 0.77508 0.0
H165 H 0.53852 0.54928 0.74547 0.0
H166 H 0.73863 0.64325 0.76434 0.0
H167 H 0.68423 0.66359 0.79362 0.0
H168 H 0.73518 0.58387 0.7347 0.0
H169 H 0.58429 0.61947 0.71982 0.0
H170 H 0.61783 0.72034 0.69746 0.0
H171 H 0.7055 0.77631 0.6772 0.0
C172 C 0.6987 0.51889 0.94842 0.0
C173 C 0.63384 0.49203 0.94094 0.0
C174 C 0.71837 0.50071 0.96602 0.0
C175 C 0.67519 0.45322 0.97618 0.0
C176 C 0.61691 0.4179 0.96787 0.0
C177 C 0.59584 0.43766 0.9504 0.0
C178 C 0.68421 0.44705 0.99588 0.0
C179 C 0.68453 0.50655 0.00618 0.0
C180 C 0.67159 0.50071 0.02572 0.0
C181 C 0.71091 0.45177 0.03644 0.0
C182 C 0.68707 0.43402 0.05371 0.0
C183 C 0.6218 0.46282 0.06025 0.0
H184 H 0.58275 0.57671 0.0252 0.0
C185 C 0.58785 0.51858 0.05032 0.0
C186 C 0.61312 0.53786 0.03321 0.0
H187 H 0.538 0.54241 0.05501 0.0
H188 H 0.73012 0.56018 0.9415 0.0
H189 H 0.7646 0.52728 0.97208 0.0
H190 H 0.58354 0.38019 0.97545 0.0
H191 H 0.54615 0.41535 0.945 0.0
H192 H 0.67769 0.3939 0.00213 0.0
H193 H 0.68146 0.55988 -0.00014 0.0
H194 H 0.75723 0.42375 0.03103 0.0
H195 H 0.71548 0.39161 0.06102 0.0
C196 C 0.70034 0.28089 0.31872 0.0
C197 C 0.76757 0.31653 0.31911 0.0
C198 C 0.64561 0.30477 0.30719 0.0
C199 C 0.65825 0.36297 0.29523 0.0
C200 C 0.72172 0.40407 0.29721 0.0
C201 C 0.77604 0.38119 0.30913 0.0
C202 C 0.61314 0.37373 0.27886 0.0
C203 C 0.58471 0.31634 0.27032 0.0
C204 C 0.55945 0.31787 0.25142 0.0
C205 C 0.56416 0.25351 0.24174 0.0
C206 C 0.54458 0.25174 0.22369 0.0
C207 C 0.51853 0.31419 0.2149 0.0
H208 H 0.52718 0.43076 0.24993 0.0
C209 C 0.51214 0.37857 0.22465 0.0
C210 C 0.53278 0.38056 0.24277 0.0
H211 H 0.49168 0.42746 0.21826 0.0
H212 H 0.69168 0.23127 0.32632 0.0
H213 H 0.5957 0.27399 0.30666 0.0
H214 H 0.73221 0.45002 0.28839 0.0
H215 H 0.82693 0.41043 0.30926 0.0
H216 H 0.61483 0.42629 0.27216 0.0
H217 H 0.58952 0.2629 0.27646 0.0
H218 H 0.58434 0.20437 0.24808 0.0
H219 H 0.54935 0.20099 0.21669 0.0
C220 C 0.19007 0.21834 0.17391 0.0
C221 C 0.25705 0.18264 0.17321 0.0
C222 C 0.13708 0.19509 0.18597 0.0
C223 C 0.15086 0.13654 0.19774 0.0
C224 C 0.21288 0.09446 0.19513 0.0
C225 C 0.26575 0.11729 0.1829 0.0
C226 C 0.10953 0.12696 0.21465 0.0
C227 C 0.08963 0.18533 0.22407 0.0
C228 C 0.06853 0.18309 0.24324 0.0
C229 C 0.0817 0.24499 0.25346 0.0
C230 C 0.06439 0.24613 0.27163 0.0
C231 C 0.03229 0.18561 0.28002 0.0
H232 H 0.02475 0.07389 0.24399 0.0
C233 C 0.01854 0.1235 0.26978 0.0
C234 C 0.03675 0.12209 0.25155 0.0
H235 H -0.00665 0.07613 0.27582 0.0
H236 H 0.18093 0.26793 0.16636 0.0
H237 H 0.08813 0.22676 0.18715 0.0
H238 H 0.224 0.04821 0.2038 0.0
H239 H 0.31625 0.08773 0.18246 0.0
H240 H 0.108 0.07348 0.22087 0.0
H241 H 0.09838 0.23893 0.21826 0.0
H242 H 0.10614 0.29274 0.24739 0.0
H243 H 0.07515 0.29515 0.279 0.0
C244 C 0.11566 0.8255 0.72366 0.0
C245 C 0.04431 0.8431 0.71888 0.0
C246 C 0.13847 0.83011 0.74148 0.0
C247 C 0.08991 0.85108 0.75493 0.0
C248 C 0.01854 0.86875 0.75017 0.0
C249 C -0.0038 0.86609 0.73221 0.0
C250 C 0.11197 0.84725 0.77404 0.0
C251 C 0.17836 0.86841 0.77925 0.0
C252 C 0.21367 0.8442 0.7962 0.0
C253 C 0.27631 0.88059 0.80183 0.0
C254 C 0.32322 0.84847 0.81431 0.0
C255 C 0.30889 0.77861 0.82117 0.0
H256 H 0.14753 0.748 0.8006 0.0
C257 C 0.24228 0.74568 0.81704 0.0
C258 C 0.19502 0.77813 0.80465 0.0
H259 H 0.22916 0.69221 0.82224 0.0
H260 H 0.15368 0.8075 0.71364 0.0
H261 H 0.19339 0.81438 0.74483 0.0
H262 H 0.98004 0.88401 0.76037 0.0
H263 H 0.94062 0.87924 0.72884 0.0
H264 H 0.07491 0.82221 0.78356 0.0
H265 H 0.21159 0.89905 0.76979 0.0
H266 H 0.29174 0.93165 0.79559 0.0
H267 H 0.37353 0.87598 0.81739 0.0
C268 C 0.4655 0.81403 0.966 0.0
C269 C 0.53011 0.78736 0.95881 0.0
C270 C 0.46759 0.86418 0.97985 0.0
C271 C 0.53439 0.88755 0.98683 0.0
C272 C 0.59862 0.85792 0.9803 0.0
C273 C 0.59662 0.80892 0.96625 0.0
C274 C 0.53909 0.94325 0.0008 0.0
C275 C 0.49456 0.00073 0.00101 0.0
C276 C 0.50071 0.05919 0.01436 0.0
C277 C 0.43984 0.10201 0.01777 0.0
C278 C 0.44243 0.15518 0.0309 0.0
C279 C 0.50619 0.16659 0.04084 0.0
H280 H 0.61488 0.04425 0.02083 0.0
C281 C 0.56814 0.1262 0.0368 0.0
C282 C 0.56566 0.07342 0.02362 0.0
H283 H 0.61853 0.13459 0.04398 0.0
H284 H 0.41351 0.79801 0.96054 0.0
H285 H 0.41708 0.8847 0.98503 0.0
H286 H 0.6506 0.87457 0.98566 0.0
H287 H 0.64723 0.78846 0.9611 0.0
H288 H 0.58284 0.93804 0.01048 0.0
H289 H 0.45126 0.00497 0.99112 0.0
H290 H 0.38952 0.093 0.0106 0.0
H291 H 0.39379 0.18564 0.03363 0.0
C292 C 0.06866 -0.00099 0.44945 0.0
C293 C 0.10661 0.04749 0.43816 0.0
C294 C 0.08998 -0.01075 0.4674 0.0
C295 C 0.14899 0.02839 0.47431 0.0
C296 C 0.19186 0.06955 0.46257 0.0
C297 C 0.17213 0.07735 0.44453 0.0
C298 C 0.15797 0.03706 0.4939 0.0
C299 C 0.15956 0.9804 0.50527 0.0
C300 C 0.15318 -0.01121 0.52492 0.0
C301 C 0.19739 0.9475 0.53636 0.0
C302 C 0.18008 0.93947 0.55451 0.0
C303 C 0.11566 0.96929 0.5613 0.0
H304 H 0.06042 0.06015 0.52359 0.0
C305 C 0.07645 0.01785 0.55028 0.0
C306 C 0.09536 0.02783 0.53221 0.0
H307 H 0.02695 0.04215 0.55504 0.0
H308 H 0.01841 0.9746 0.44502 0.0
H309 H 0.05609 0.957 0.47627 0.0
H310 H 0.23796 0.09958 0.4676 0.0
H311 H 0.20375 0.11412 0.43623 0.0
H312 H 0.16036 0.0917 0.49911 0.0
H313 H 0.16268 0.92587 0.50003 0.0
H314 H 0.2426 0.91752 0.53103 0.0
H315 H 0.21251 0.90248 0.56257 0.0
C316 C 0.89641 0.90144 0.36027 0.0
C317 C 0.94035 0.95131 0.36939 0.0
C318 C 0.90529 0.82727 0.36303 0.0
C319 C 0.95882 0.80122 0.37489 0.0
C320 C -0.00103 0.85096 0.38503 0.0
C321 C -0.01002 0.92548 0.38229 0.0
C322 C 0.97514 0.7229 0.37672 0.0
C323 C 0.9638 0.67536 0.36339 0.0
C324 C 0.983 0.59771 0.36502 0.0
C325 C 0.94288 0.54635 0.3554 0.0
C326 C 0.95702 0.47237 0.35758 0.0
C327 C 0.01209 0.44874 0.36932 0.0
H328 H 0.07522 0.61227 0.38284 0.0
C329 C 0.05511 0.50056 0.37803 0.0
C330 C 0.04089 0.57416 0.37588 0.0
H331 H 0.09888 0.4843 0.38692 0.0
H332 H 0.8564 0.9196 0.35054 0.0
H333 H 0.87072 0.79078 0.35564 0.0
H334 H 0.03962 0.83218 0.39452 0.0
H335 H 0.02431 0.96251 0.38963 0.0
H336 H 1e-05 0.70475 0.38922 0.0
H337 H 0.93878 0.69306 0.35087 0.0
H338 H 0.89885 0.56333 0.34666 0.0
H339 H 0.92309 0.43384 0.35063 0.0
C340 C 0.29024 0.76435 0.64538 0.0
C341 C 0.23807 0.79864 0.63448 0.0
C342 C 0.36369 0.77034 0.6413 0.0
C343 C 0.38659 0.8116 0.62631 0.0
C344 C 0.33429 0.84476 0.61527 0.0
C345 C 0.26087 0.83858 0.61932 0.0
C346 C 0.46402 0.82005 0.62148 0.0
C347 C 0.51863 0.81058 0.63328 0.0
C348 C 0.59577 0.81754 0.62825 0.0
C349 C 0.6469 0.77635 0.63782 0.0
C350 C 0.72014 0.78105 0.63355 0.0
C351 C 0.74394 0.82791 0.61978 0.0
H352 H 0.58165 0.89883 0.60713 0.0
C353 C 0.69287 0.86958 0.61022 0.0
C354 C 0.61939 0.86474 0.61447 0.0
H355 H 0.70974 0.90642 0.59959 0.0
H356 H 0.27442 0.7324 0.65703 0.0
H357 H 0.40175 0.7415 0.64981 0.0
H358 H 0.3503 0.87624 0.60355 0.0
H359 H 0.22211 0.86565 0.61061 0.0
H360 H 0.47606 0.83529 0.60767 0.0
H361 H 0.50737 0.79512 0.6471 0.0
H362 H 0.62994 0.73933 0.64841 0.0
H363 H 0.75791 0.74666 0.64076 0.0
C364 C 0.42447 0.35397 0.8644 0.0
C365 C 0.46637 0.40423 0.87398 0.0
C366 C 0.43395 0.27975 0.86711 0.0
C367 C 0.48598 0.25391 0.87943 0.0
C368 C 0.52396 0.30397 0.88998 0.0
C369 C 0.51446 0.37848 0.88726 0.0
C370 C 0.50299 0.17558 0.88137 0.0
C371 C 0.49337 0.12762 0.86803 0.0
C372 C 0.51366 0.05005 0.86971 0.0
C373 C 0.47645 -0.0015 0.85945 0.0
C374 C 0.49207 0.92467 0.86139 0.0
C375 C 0.54584 0.90117 0.87353 0.0
H376 H 0.60224 0.06495 0.88862 0.0
C377 C 0.58581 0.95327 0.883 0.0
C378 C 0.57006 0.02676 0.8811 0.0
H379 H 0.62838 0.93728 0.89227 0.0
H380 H 0.38573 0.37185 0.85433 0.0
H381 H 0.40099 0.24307 0.85935 0.0
H382 H 0.56338 0.28547 0.89982 0.0
H383 H 0.54725 0.41564 0.89497 0.0
H384 H 0.52697 0.15783 0.89401 0.0
H385 H 0.46923 0.14499 0.85538 0.0
H386 H 0.43362 0.01517 0.85032 0.0
H387 H 0.46035 0.88606 0.85386 0.0
C388 C 0.19701 0.32564 0.12706 0.0
C389 C 0.22885 0.32603 0.10997 0.0
C390 C 0.12145 0.32339 0.12896 0.0
C391 C 0.07591 0.321 0.11372 0.0
C392 C 0.10796 0.32289 0.09666 0.0
C393 C 0.18316 0.32529 0.09479 0.0
C394 C -0.00488 0.31808 0.1148 0.0
C395 C 0.958 0.29659 0.12953 0.0
C396 C 0.87724 0.29066 0.13038 0.0
C397 C 0.84644 0.251 0.14466 0.0
C398 C 0.77133 0.24442 0.14633 0.0
C399 C 0.72453 0.27761 0.13376 0.0
H400 H 0.8511 0.35691 0.1068 0.0
C401 C 0.75505 0.31744 0.11943 0.0
C402 C 0.83041 0.3242 0.11778 0.0
H403 H 0.72075 0.34434 0.10959 0.0
H404 H 0.23043 0.32832 0.13895 0.0
H405 H 0.09933 0.32474 0.14236 0.0
H406 H 0.07466 0.32176 0.08465 0.0
H407 H 0.20544 0.32556 0.08137 0.0
H408 H 0.96569 0.33057 0.10252 0.0
H409 H -0.01218 0.27904 0.14138 0.0
H410 H 0.88068 0.22482 0.15465 0.0
H411 H 0.75005 0.21347 0.15759 0.0
C412 C 0.9064 0.1146 0.63893 0.0
C413 C 0.94881 0.06443 0.62962 0.0
C414 C 0.91656 0.18883 0.63634 0.0
C415 C 0.96982 0.21477 0.62445 0.0
C416 C 0.00844 0.16482 0.61416 0.0
C417 C -0.00176 0.09029 0.61674 0.0
C418 C 0.98729 0.29312 0.62267 0.0
C419 C 0.97664 0.34099 0.63594 0.0
C420 C -0.0032 0.41871 0.63438 0.0
C421 C 0.05402 0.44242 0.62339 0.0
C422 C 0.06939 0.51606 0.6215 0.0
C423 C 0.02819 0.56787 0.63057 0.0
H424 H 0.91488 0.45301 0.65312 0.0
C425 C 0.97363 0.54398 0.64236 0.0
C426 C 0.95839 0.47 0.64429 0.0
H427 H 0.94096 0.58236 0.64958 0.0
H428 H 0.86667 0.09661 0.64868 0.0
H429 H 0.88311 0.22544 0.64387 0.0
H430 H 0.04884 0.18341 0.60464 0.0
H431 H 0.03149 0.05318 0.60926 0.0
H432 H 0.0123 0.31101 0.61021 0.0
H433 H 0.95149 0.32347 0.64841 0.0
H434 H 0.08708 0.40444 0.61617 0.0
H435 H 0.11261 0.53238 0.61252 0.0
C436 C 0.80937 0.70261 0.85883 0.0
C437 C 0.75727 0.67051 0.8701 0.0
C438 C 0.88291 0.69529 0.86269 0.0
C439 C 0.90595 0.65497 0.87783 0.0
C440 C 0.85386 0.62439 0.88931 0.0
C441 C 0.78025 0.63178 0.88546 0.0
C442 C 0.98355 0.64529 0.88231 0.0
C443 C 0.03638 0.64901 0.86995 0.0
C444 C 0.11401 0.64228 0.87458 0.0
C445 C 0.16477 0.67885 0.86384 0.0
C446 C 0.23827 0.67589 0.86808 0.0
C447 C 0.26265 0.63522 0.88298 0.0
H448 H 0.1009 0.56956 0.89756 0.0
C449 C 0.21196 0.59717 0.89351 0.0
C450 C 0.13831 0.60042 0.88933 0.0
H451 H 0.22913 0.56475 0.90498 0.0
H452 H 0.79347 0.7336 0.84701 0.0
H453 H 0.92112 0.72227 0.85389 0.0
H454 H 0.87017 0.59382 0.90117 0.0
H455 H 0.74151 0.60651 0.89445 0.0
H456 H -0.00291 0.63429 0.89629 0.0
H457 H 0.02318 0.65998 0.85596 0.0
H458 H 0.14735 0.71133 0.85239 0.0
H459 H 0.27569 0.70707 0.85995 0.0
C460 C 0.39397 0.60068 0.13397 0.0
C461 C 0.43901 0.5511 0.12527 0.0
C462 C 0.40277 0.67488 0.13119 0.0
C463 C 0.45732 0.70125 0.11974 0.0
C464 C 0.4988 0.65175 0.11003 0.0
C465 C 0.4899 0.57722 0.11278 0.0
C466 C 0.47334 0.77968 0.11792 0.0
C467 C 0.46022 0.82745 0.13105 0.0
C468 C 0.4794 0.90517 0.12947 0.0
C469 C 0.43788 0.95647 0.13857 0.0
C470 C 0.45233 0.03046 0.13646 0.0
C471 C 0.50913 0.05417 0.12534 0.0
H472 H 0.57401 0.89075 0.11267 0.0
C473 C 0.55327 0.00244 0.11713 0.0
C474 C 0.53872 0.92881 0.1192 0.0
H475 H 0.59831 0.01874 0.10872 0.0
H476 H 0.353 0.5823 0.14336 0.0
H477 H 0.36724 0.71115 0.13823 0.0
H478 H 0.54029 0.67076 0.10086 0.0
H479 H 0.52506 0.54042 0.10576 0.0
H480 H 0.49954 0.79776 0.10562 0.0
H481 H 0.43385 0.80988 0.14336 0.0
H482 H 0.39267 0.9394 0.14684 0.0
H483 H 0.4175 0.06891 0.14302 0.0
C484 C 0.67995 0.13917 0.3876 0.0
C485 C 0.73123 0.1832 0.37883 0.0
C486 C 0.60629 0.14636 0.3836 0.0
C487 C 0.58277 0.19844 0.3709 0.0
C488 C 0.63409 0.24213 0.36217 0.0
C489 C 0.70753 0.23478 0.36611 0.0
C490 C 0.50553 0.20798 0.36612 0.0
C491 C 0.45151 0.19665 0.37789 0.0
C492 C 0.37385 0.20744 0.37339 0.0
C493 C 0.32174 0.17405 0.38438 0.0
C494 C 0.24815 0.18177 0.38058 0.0
C495 C 0.22491 0.22343 0.36571 0.0
H496 H 0.38845 0.27978 0.35029 0.0
C497 C 0.27688 0.2582 0.35491 0.0
C498 C 0.35055 0.25071 0.35874 0.0
H499 H 0.26075 0.29141 0.34348 0.0
H500 H 0.6968 0.09888 0.39746 0.0
H501 H 0.56824 0.11051 0.39027 0.0
H502 H 0.61713 0.28303 0.35248 0.0
H503 H 0.74561 0.27084 0.35952 0.0
H504 H 0.49387 0.22708 0.35258 0.0
H505 H 0.46432 0.17794 0.39142 0.0
H506 H 0.338 0.14105 0.39584 0.0
H507 H 0.20958 0.15426 0.38922 0.0
loop_
_geom_bond_atom_site_label_1
_geom_bond_atom_site_label_2
_geom_bond_distance
_geom_bond_site_symmetry_2
_ccdc_geom_bond_type
C0 O27 1.312 . S
C0 O28 1.208 . S
C1 O22 1.331 . S
C1 O25 1.244 . S
C2 O24 1.264 . S
C2 O26 1.273 . S
Mg3 O5 1.936 1_455 S
Mg3 O12 2.081 1_455 S
Mg3 O14 2.023 . S
Mg3 O18 2.031 . S
Mg3 O27 2.291 . S
Mg4 O5 1.963 . S
Mg4 O15 1.942 . S
Mg4 O16 1.955 . S
Mg4 O23 1.986 . S
O5 Mg3 1.936 1_655 S
O5 Mg4 1.963 . S
O5 Mg6 1.915 . S
Mg6 O5 1.915 . S
Mg6 O7 1.915 1_655 S
Mg6 O11 2.013 . S
Mg6 O17 2.114 1_655 S
Mg6 O21 2.013 . S
Mg6 O27 2.114 1_655 S
O7 Mg6 1.915 1_455 S
O7 Mg8 1.936 . S
O7 Mg9 1.963 1_455 S
Mg8 O7 1.936 . S
Mg8 O17 2.291 . S
Mg8 O22 2.081 . S
Mg8 O24 2.023 1_455 S
Mg8 O28 2.031 . S
Mg9 O7 1.963 1_655 S
Mg9 O13 1.986 . S
Mg9 O25 1.942 1_655 S
Mg9 O26 1.955 . S
C10 O21 1.191 . S
C10 O23 1.307 . S
O11 Mg6 2.013 . S
O11 C30 1.191 . S
O12 Mg3 2.081 1_655 S
O12 C20 1.331 . S
O13 Mg9 1.986 . S
O13 C30 1.307 . S
O14 Mg3 2.023 . S
O14 C29 1.264 . S
O15 Mg4 1.942 . S
O15 C20 1.244 . S
O16 Mg4 1.955 . S
O16 C29 1.273 1_655 S
O17 Mg6 2.114 1_455 S
O17 Mg8 2.291 . S
O17 C19 1.312 . S
O18 Mg3 2.031 . S
O18 C19 1.208 . S
C19 O17 1.312 . S
C19 O18 1.208 . S
C20 O12 1.331 . S
C20 O15 1.244 . S
O21 Mg6 2.013 . S
O21 C10 1.191 . S
O22 C1 1.331 . S
O22 Mg8 2.081 . S
O23 Mg4 1.986 . S
O23 C10 1.307 . S
O24 C2 1.264 . S
O24 Mg8 2.023 1_655 S
O25 C1 1.244 . S
O25 Mg9 1.942 1_455 S
O26 C2 1.273 . S
O26 Mg9 1.955 . S
O27 C0 1.312 . S
O27 Mg3 2.291 . S
O27 Mg6 2.114 1_455 S
O28 C0 1.208 . S
O28 Mg8 2.031 . S
C29 O14 1.264 . S
C29 O16 1.273 1_455 S
C30 O11 1.191 . S
C30 O13 1.307 . S
C31 O58 1.312 . S
C31 O59 1.208 . S
C32 O53 1.331 . S
C32 O56 1.244 . S
C33 O55 1.264 . S
C33 O57 1.273 . S
Mg34 O36 1.936 1_455 S
Mg34 O43 2.081 1_455 S
Mg34 O45 2.023 . S
Mg34 O49 2.031 . S
Mg34 O58 2.291 . S
Mg35 O36 1.963 . S
Mg35 O46 1.942 . S
Mg35 O47 1.955 . S
Mg35 O54 1.986 . S
O36 Mg34 1.936 1_655 S
O36 Mg35 1.963 . S
O36 Mg37 1.915 . S
Mg37 O36 1.915 . S
Mg37 O38 1.915 1_655 S
Mg37 O42 2.013 . S
Mg37 O48 2.114 1_655 S
Mg37 O52 2.013 . S
Mg37 O58 2.114 1_655 S
O38 Mg37 1.915 1_455 S
O38 Mg39 1.936 . S
O38 Mg40 1.963 1_455 S
Mg39 O38 1.936 . S
Mg39 O48 2.291 . S
Mg39 O53 2.081 . S
Mg39 O55 2.023 1_455 S
Mg39 O59 2.031 . S
Mg40 O38 1.963 1_655 S
Mg40 O44 1.986 . S
Mg40 O56 1.942 1_655 S
Mg40 O57 1.955 . S
C41 O52 1.191 . S
C41 O54 1.307 . S
O42 Mg37 2.013 . S
O42 C61 1.191 . S
O43 Mg34 2.081 1_655 S
O43 C51 1.331 . S
O44 Mg40 1.986 . S
O44 C61 1.307 . S
O45 Mg34 2.023 . S
O45 C60 1.264 . S
O46 Mg35 1.942 . S
O46 C51 1.244 . S
O47 Mg35 1.955 . S
O47 C60 1.273 1_655 S
O48 Mg37 2.114 1_455 S
O48 Mg39 2.291 . S
O48 C50 1.312 . S
O49 Mg34 2.031 . S
O49 C50 1.208 . S
C50 O48 1.312 . S
C50 O49 1.208 . S
C51 O43 1.331 . S
C51 O46 1.244 . S
O52 Mg37 2.013 . S
O52 C41 1.191 . S
O53 C32 1.331 . S
O53 Mg39 2.081 . S
O54 Mg35 1.986 . S
O54 C41 1.307 . S
O55 C33 1.264 . S
O55 Mg39 2.023 1_655 S
O56 C32 1.244 . S
O56 Mg40 1.942 1_455 S
O57 C33 1.273 . S
O57 Mg40 1.955 . S
O58 C31 1.312 . S
O58 Mg34 2.291 . S
O58 Mg37 2.114 1_455 S
O59 C31 1.208 . S
O59 Mg39 2.031 . S
C60 O45 1.264 . S
C60 O47 1.273 1_455 S
C61 O42 1.191 . S
C61 O44 1.307 . S
C62 O89 1.312 . S
C62 O90 1.208 . S
C63 O84 1.331 . S
C63 O87 1.244 . S
C64 O86 1.264 . S
C64 O88 1.273 . S
Mg65 O67 1.936 . S
Mg65 O74 2.081 . S
Mg65 O76 2.023 . S
Mg65 O80 2.031 . S
Mg65 O89 2.291 . S
Mg66 O67 1.963 . S
Mg66 O77 1.942 . S
Mg66 O78 1.955 . S
Mg66 O85 1.986 . S
O67 Mg65 1.936 . S
O67 Mg66 1.963 . S
O67 Mg68 1.915 . S
Mg68 O67 1.915 . S
Mg68 O69 1.915 . S
Mg68 O73 2.013 . S
Mg68 O79 2.114 . S
Mg68 O83 2.013 . S
Mg68 O89 2.114 . S
O69 Mg68 1.915 . S
O69 Mg70 1.936 . S
O69 Mg71 1.963 . S
Mg70 O69 1.936 . S
Mg70 O79 2.291 . S
Mg70 O84 2.081 . S
Mg70 O86 2.023 . S
Mg70 O90 2.031 . S
Mg71 O69 1.963 . S
Mg71 O75 1.986 . S
Mg71 O87 1.942 . S
Mg71 O88 1.955 . S
C72 O83 1.191 . S
C72 O85 1.307 . S
O73 Mg68 2.013 . S
O73 C92 1.191 . S
O74 Mg65 2.081 . S
O74 C82 1.331 . S
O75 Mg71 1.986 . S
O75 C92 1.307 . S
O76 Mg65 2.023 . S
O76 C91 1.264 . S
O77 Mg66 1.942 . S
O77 C82 1.244 . S
O78 Mg66 1.955 . S
O78 C91 1.273 . S
O79 Mg68 2.114 . S
O79 Mg70 2.291 . S
O79 C81 1.312 . S
O80 Mg65 2.031 . S
O80 C81 1.208 . S
C81 O79 1.312 . S
C81 O80 1.208 . S
C82 O74 1.331 . S
C82 O77 1.244 . S
O83 Mg68 2.013 . S
O83 C72 1.191 . S
O84 C63 1.331 . S
O84 Mg70 2.081 . S
O85 Mg66 1.986 . S
O85 C72 1.307 . S
O86 C64 1.264 . S
O86 Mg70 2.023 . S
O87 C63 1.244 . S
O87 Mg71 1.942 . S
O88 C64 1.273 . S
O88 Mg71 1.955 . S
O89 C62 1.312 . S
O89 Mg65 2.291 . S
O89 Mg68 2.114 . S
O90 C62 1.208 . S
O90 Mg70 2.031 . S
C91 O76 1.264 . S
C91 O78 1.273 . S
C92 O73 1.191 . S
C92 O75 1.307 . S
C93 O120 1.312 . S
C93 O121 1.208 . S
C94 O115 1.331 . S
C94 O118 1.244 . S
C95 O117 1.264 . S
C95 O119 1.273 . S
Mg96 O98 1.936 . S
Mg96 O105 2.081 . S
Mg96 O107 2.023 . S
Mg96 O111 2.031 . S
Mg96 O120 2.291 . S
Mg97 O98 1.963 . S
Mg97 O108 1.942 . S
Mg97 O109 1.955 . S
Mg97 O116 1.986 . S
O98 Mg96 1.936 . S
O98 Mg97 1.963 . S
O98 Mg99 1.915 . S
Mg99 O98 1.915 . S
Mg99 O100 1.915 . S
Mg99 O104 2.013 . S
Mg99 O110 2.114 . S
Mg99 O114 2.013 . S
Mg99 O120 2.114 . S
O100 Mg99 1.915 . S
O100 Mg101 1.936 . S
O100 Mg102 1.963 . S
Mg101 O100 1.936 . S
Mg101 O110 2.291 . S
Mg101 O115 2.081 . S
Mg101 O117 2.023 . S
Mg101 O121 2.031 . S
Mg102 O100 1.963 . S
Mg102 O106 1.986 . S
Mg102 O118 1.942 . S
Mg102 O119 1.955 . S
C103 O114 1.191 . S
C103 O116 1.307 . S
O104 Mg99 2.013 . S
O104 C123 1.191 . S
O105 Mg96 2.081 . S
O105 C113 1.331 . S
O106 Mg102 1.986 . S
O106 C123 1.307 . S
O107 Mg96 2.023 . S
O107 C122 1.264 . S
O108 Mg97 1.942 . S
O108 C113 1.244 . S
O109 Mg97 1.955 . S
O109 C122 1.273 . S
O110 Mg99 2.114 . S
O110 Mg101 2.291 . S
O110 C112 1.312 . S
O111 Mg96 2.031 . S
O111 C112 1.208 . S
C112 O110 1.312 . S
C112 O111 1.208 . S
C113 O105 1.331 . S
C113 O108 1.244 . S
O114 Mg99 2.013 . S
O114 C103 1.191 . S
O115 C94 1.331 . S
O115 Mg101 2.081 . S
O116 Mg97 1.986 . S
O116 C103 1.307 . S
O117 C95 1.264 . S
O117 Mg101 2.023 . S
O118 C94 1.244 . S
O118 Mg102 1.942 . S
O119 C95 1.273 . S
O119 Mg102 1.955 . S
O120 C93 1.312 . S
O120 Mg96 2.291 . S
O120 Mg99 2.114 . S
O121 C93 1.208 . S
O121 Mg101 2.031 . S
C122 O107 1.264 . S
C122 O109 1.273 . S
C123 O104 1.191 . S
C123 O106 1.307 . S
C124 C125 1.386 . S
C124 C126 1.383 . S
C124 H140 0.951 . S
C125 C124 1.386 . S
C125 C129 1.383 . S
C126 C124 1.383 . S
C126 C127 1.402 . S
C126 H141 0.951 . S
C127 C126 1.402 . S
C127 C128 1.375 . S
C127 C130 1.481 . S
C128 C127 1.375 . S
C128 C129 1.367 . S
C128 H142 0.951 . S
C129 C125 1.383 . S
C129 C128 1.367 . S
C129 H143 0.950 . S
C130 C127 1.481 . S
C130 C131 1.297 . S
C130 H144 0.950 . S
C131 C130 1.297 . S
C131 C132 1.479 . S
C131 H145 0.950 . S
C132 C131 1.479 . S
C132 C133 1.375 . S
C132 C138 1.404 . S
C133 C132 1.375 . S
C133 C134 1.369 . S
C133 H146 0.950 . S
C134 C133 1.369 . S
C134 C135 1.392 . S
C134 H147 0.951 . S
C135 C134 1.392 . S
C135 C137 1.384 . S
H136 C138 0.949 . S
C137 C135 1.384 . S
C137 C138 1.385 . S
C137 H139 0.950 . S
C138 C132 1.404 . S
C138 H136 0.949 . S
C138 C137 1.385 . S
H139 C137 0.950 . S
H140 C124 0.951 . S
H141 C126 0.951 . S
H142 C128 0.951 . S
H143 C129 0.950 . S
H144 C130 0.950 . S
H145 C131 0.950 . S
H146 C133 0.950 . S
H147 C134 0.951 . S
C148 C149 1.386 . S
C148 C150 1.383 . S
C148 H164 0.951 . S
C149 C148 1.386 . S
C149 C153 1.383 . S
C150 C148 1.383 . S
C150 C151 1.402 . S
C150 H165 0.951 . S
C151 C150 1.402 . S
C151 C152 1.375 . S
C151 C154 1.481 . S
C152 C151 1.375 . S
C152 C153 1.367 . S
C152 H166 0.951 . S
C153 C149 1.383 . S
C153 C152 1.367 . S
C153 H167 0.950 . S
C154 C151 1.481 . S
C154 C155 1.297 . S
C154 H168 0.950 . S
C155 C154 1.297 . S
C155 C156 1.479 . S
C155 H169 0.950 . S
C156 C155 1.479 . S
C156 C157 1.375 . S
C156 C162 1.404 . S
C157 C156 1.375 . S
C157 C158 1.369 . S
C157 H170 0.950 . S
C158 C157 1.369 . S
C158 C159 1.392 . S
C158 H171 0.951 . S
C159 C158 1.392 . S
C159 C161 1.384 . S
H160 C162 0.949 . S
C161 C159 1.384 . S
C161 C162 1.385 . S
C161 H163 0.950 . S
C162 C156 1.404 . S
C162 H160 0.949 . S
C162 C161 1.385 . S
H163 C161 0.950 . S
H164 C148 0.951 . S
H165 C150 0.951 . S
H166 C152 0.951 . S
H167 C153 0.950 . S
H168 C154 0.950 . S
H169 C155 0.950 . S
H170 C157 0.950 . S
H171 C158 0.951 . S
C172 C173 1.386 . S
C172 C174 1.383 . S
C172 H188 0.951 . S
C173 C172 1.386 . S
C173 C177 1.383 . S
C174 C172 1.383 . S
C174 C175 1.402 . S
C174 H189 0.951 . S
C175 C174 1.402 . S
C175 C176 1.375 . S
C175 C178 1.481 . S
C176 C175 1.375 . S
C176 C177 1.367 . S
C176 H190 0.951 . S
C177 C173 1.383 . S
C177 C176 1.367 . S
C177 H191 0.950 . S
C178 C175 1.481 . S
C178 C179 1.297 1_556 S
C178 H192 0.950 1_556 S
C179 C178 1.297 1_554 S
C179 C180 1.479 . S
C179 H193 0.950 . S
C180 C179 1.479 . S
C180 C181 1.375 . S
C180 C186 1.404 . S
C181 C180 1.375 . S
C181 C182 1.369 . S
C181 H194 0.950 . S
C182 C181 1.369 . S
C182 C183 1.392 . S
C182 H195 0.951 . S
C183 C182 1.392 . S
C183 C185 1.384 . S
H184 C186 0.949 . S
C185 C183 1.384 . S
C185 C186 1.385 . S
C185 H187 0.950 . S
C186 C180 1.404 . S
C186 H184 0.949 . S
C186 C185 1.385 . S
H187 C185 0.950 . S
H188 C172 0.951 . S
H189 C174 0.951 . S
H190 C176 0.951 . S
H191 C177 0.950 . S
H192 C178 0.950 1_554 S
H193 C179 0.950 . S
H194 C181 0.950 . S
H195 C182 0.951 . S
C196 C197 1.386 . S
C196 C198 1.383 . S
C196 H212 0.951 . S
C197 C196 1.386 . S
C197 C201 1.383 . S
C198 C196 1.383 . S
C198 C199 1.402 . S
C198 H213 0.951 . S
C199 C198 1.402 . S
C199 C200 1.375 . S
C199 C202 1.481 . S
C200 C199 1.375 . S
C200 C201 1.367 . S
C200 H214 0.951 . S
C201 C197 1.383 . S
C201 C200 1.367 . S
C201 H215 0.950 . S
C202 C199 1.481 . S
C202 C203 1.297 . S
C202 H216 0.950 . S
C203 C202 1.297 . S
C203 C204 1.479 . S
C203 H217 0.950 . S
C204 C203 1.479 . S
C204 C205 1.375 . S
C204 C210 1.404 . S
C205 C204 1.375 . S
C205 C206 1.369 . S
C205 H218 0.950 . S
C206 C205 1.369 . S
C206 C207 1.392 . S
C206 H219 0.951 . S
C207 C206 1.392 . S
C207 C209 1.384 . S
H208 C210 0.949 . S
C209 C207 1.384 . S
C209 C210 1.385 . S
C209 H211 0.950 . S
C210 C204 1.404 . S
C210 H208 0.949 . S
C210 C209 1.385 . S
H211 C209 0.950 . S
H212 C196 0.951 . S
H213 C198 0.951 . S
H214 C200 0.951 . S
H215 C201 0.950 . S
H216 C202 0.950 . S
H217 C203 0.950 . S
H218 C205 0.950 . S
H219 C206 0.951 . S
C220 C221 1.386 . S
C220 C222 1.383 . S
C220 H236 0.951 . S
C221 C220 1.386 . S
C221 C225 1.383 . S
C222 C220 1.383 . S
C222 C223 1.402 . S
C222 H237 0.951 . S
C223 C222 1.402 . S
C223 C224 1.375 . S
C223 C226 1.481 . S
C224 C223 1.375 . S
C224 C225 1.367 . S
C224 H238 0.951 . S
C225 C221 1.383 . S
C225 C224 1.367 . S
C225 H239 0.950 . S
C226 C223 1.481 . S
C226 C227 1.297 . S
C226 H240 0.950 . S
C227 C226 1.297 . S
C227 C228 1.479 . S
C227 H241 0.950 . S
C228 C227 1.479 . S
C228 C229 1.375 . S
C228 C234 1.404 . S
C229 C228 1.375 . S
C229 C230 1.369 . S
C229 H242 0.950 . S
C230 C229 1.369 . S
C230 C231 1.392 . S
C230 H243 0.951 . S
C231 C230 1.392 . S
C231 C233 1.384 . S
H232 C234 0.949 . S
C233 C231 1.384 . S
C233 C234 1.385 . S
C233 H235 0.950 . S
C234 C228 1.404 . S
C234 H232 0.949 . S
C234 C233 1.385 . S
H235 C233 0.950 . S
H236 C220 0.951 . S
H237 C222 0.951 . S
H238 C224 0.951 . S
H239 C225 0.950 . S
H240 C226 0.950 . S
H241 C227 0.950 . S
H242 C229 0.950 . S
H243 C230 0.951 . S
C244 C245 1.386 . S
C244 C246 1.383 . S
C244 H260 0.951 . S
C245 C244 1.386 . S
C245 C249 1.383 . S
C246 C244 1.383 . S
C246 C247 1.402 . S
C246 H261 0.951 . S
C247 C246 1.402 . S
C247 C248 1.375 . S
C247 C250 1.481 . S
C248 C247 1.375 . S
C248 C249 1.367 . S
C248 H262 0.951 . S
C249 C245 1.383 . S
C249 C248 1.367 . S
C249 H263 0.950 . S
C250 C247 1.481 . S
C250 C251 1.297 . S
C250 H264 0.950 . S
C251 C250 1.297 . S
C251 C252 1.479 . S
C251 H265 0.950 . S
C252 C251 1.479 . S
C252 C253 1.375 . S
C252 C258 1.404 . S
C253 C252 1.375 . S
C253 C254 1.369 . S
C253 H266 0.950 . S
C254 C253 1.369 . S
C254 C255 1.392 . S
C254 H267 0.951 . S
C255 C254 1.392 . S
C255 C257 1.384 . S
H256 C258 0.949 . S
C257 C255 1.384 . S
C257 C258 1.385 . S
C257 H259 0.950 . S
C258 C252 1.404 . S
C258 H256 0.949 . S
C258 C257 1.385 . S
H259 C257 0.950 . S
H260 C244 0.951 . S
H261 C246 0.951 . S
H262 C248 0.951 . S
H263 C249 0.950 . S
H264 C250 0.950 . S
H265 C251 0.950 . S
H266 C253 0.950 . S
H267 C254 0.951 . S
C268 C269 1.386 . S
C268 C270 1.383 . S
C268 H284 0.951 . S
C269 C268 1.386 . S
C269 C273 1.383 . S
C270 C268 1.383 . S
C270 C271 1.402 . S
C270 H285 0.951 1_565 S
C271 C270 1.402 . S
C271 C272 1.375 . S
C271 C274 1.481 . S
C272 C271 1.375 . S
C272 C273 1.367 . S
C272 H286 0.951 . S
C273 C269 1.383 . S
C273 C272 1.367 . S
C273 H287 0.950 . S
C274 C271 1.481 . S
C274 C275 1.297 1_566 S
C274 H288 0.950 1_556 S
C275 C274 1.297 1_544 S
C275 C276 1.479 . S
C275 H289 0.950 1_554 S
C276 C275 1.479 . S
C276 C277 1.375 . S
C276 C282 1.404 . S
C277 C276 1.375 . S
C277 C278 1.369 . S
C277 H290 0.950 . S
C278 C277 1.369 . S
C278 C279 1.392 . S
C278 H291 0.951 . S
C279 C278 1.392 . S
C279 C281 1.384 . S
H280 C282 0.949 1_565 S
C281 C279 1.384 . S
C281 C282 1.385 . S
C281 H283 0.950 . S
C282 C276 1.404 . S
C282 H280 0.949 1_545 S
C282 C281 1.385 . S
H283 C281 0.950 . S
H284 C268 0.951 . S
H285 C270 0.951 1_545 S
H286 C272 0.951 . S
H287 C273 0.950 . S
H288 C274 0.950 1_554 S
H289 C275 0.950 1_556 S
H290 C277 0.950 . S
H291 C278 0.951 . S
C292 C293 1.386 . S
C292 C294 1.383 . S
C292 H308 0.951 . S
C293 C292 1.386 . S
C293 C297 1.383 . S
C294 C292 1.383 . S
C294 C295 1.402 . S
C294 H309 0.951 1_545 S
C295 C294 1.402 . S
C295 C296 1.375 . S
C295 C298 1.481 . S
C296 C295 1.375 . S
C296 C297 1.367 . S
C296 H310 0.951 . S
C297 C293 1.383 . S
C297 C296 1.367 . S
C297 H311 0.950 . S
C298 C295 1.481 . S
C298 C299 1.297 1_545 S
C298 H312 0.950 . S
C299 C298 1.297 1_565 S
C299 C300 1.479 . S
C299 H313 0.950 . S
C300 C299 1.479 . S
C300 C301 1.375 . S
C300 C306 1.404 . S
C301 C300 1.375 . S
C301 C302 1.369 . S
C301 H314 0.950 . S
C302 C301 1.369 . S
C302 C303 1.392 . S
C302 H315 0.951 . S
C303 C302 1.392 . S
C303 C305 1.384 . S
H304 C306 0.949 1_545 S
C305 C303 1.384 . S
C305 C306 1.385 . S
C305 H307 0.950 . S
C306 C300 1.404 . S
C306 H304 0.949 1_565 S
C306 C305 1.385 . S
H307 C305 0.950 . S
H308 C292 0.951 . S
H309 C294 0.951 1_565 S
H310 C296 0.951 . S
H311 C297 0.950 . S
H312 C298 0.950 . S
H313 C299 0.950 . S
H314 C301 0.950 . S
H315 C302 0.951 . S
C316 C317 1.386 1_655 S
C316 C318 1.383 . S
C316 H332 0.951 . S
C317 C316 1.386 1_455 S
C317 C321 1.383 . S
C318 C316 1.383 . S
C318 C319 1.402 1_655 S
C318 H333 0.951 . S
C319 C318 1.402 1_455 S
C319 C320 1.375 . S
C319 C322 1.481 . S
C320 C319 1.375 . S
C320 C321 1.367 . S
C320 H334 0.951 . S
C321 C317 1.383 . S
C321 C320 1.367 . S
C321 H335 0.957 . S
C322 C319 1.481 . S
C322 C323 1.297 1_455 S
C322 H336 0.950 . S
C323 C322 1.297 1_655 S
C323 C324 1.479 . S
C323 H337 0.950 . S
C324 C323 1.479 . S
C324 C325 1.375 . S
C324 C330 1.404 1_655 S
C325 C324 1.375 . S
C325 C326 1.369 . S
C325 H338 0.950 . S
C326 C325 1.369 . S
C326 C327 1.392 . S
C326 H339 0.951 . S
C327 C326 1.392 . S
C327 C329 1.384 1_655 S
H328 C330 0.949 . S
C329 C327 1.384 1_455 S
C329 C330 1.385 . S
C329 H331 0.950 . S
C330 C324 1.404 1_455 S
C330 H328 0.949 . S
C330 C329 1.385 . S
H331 C329 0.950 . S
H332 C316 0.951 . S
H333 C318 0.951 . S
H334 C320 0.951 . S
H335 C321 0.957 . S
H336 C322 0.950 . S
H337 C323 0.950 . S
H338 C325 0.950 . S
H339 C326 0.951 . S
C340 C341 1.386 . S
C340 C342 1.383 . S
C340 H356 0.951 . S
C341 C340 1.386 . S
C341 C345 1.383 . S
C342 C340 1.383 . S
C342 C343 1.402 . S
C342 H357 0.951 . S
C343 C342 1.402 . S
C343 C344 1.375 . S
C343 C346 1.481 . S
C344 C343 1.375 . S
C344 C345 1.367 . S
C344 H358 0.951 . S
C345 C341 1.383 . S
C345 C344 1.367 . S
C345 H359 0.950 . S
C346 C343 1.481 . S
C346 C347 1.297 . S
C346 H360 0.950 . S
C347 C346 1.297 . S
C347 C348 1.479 . S
C347 H361 0.950 . S
C348 C347 1.479 . S
C348 C349 1.375 . S
C348 C354 1.404 . S
C349 C348 1.375 . S
C349 C350 1.369 . S
C349 H362 0.950 . S
C350 C349 1.369 . S
C350 C351 1.392 . S
C350 H363 0.951 . S
C351 C350 1.392 . S
C351 C353 1.384 . S
H352 C354 0.949 . S
C353 C351 1.384 . S
C353 C354 1.385 . S
C353 H355 0.950 . S
C354 C348 1.404 . S
C354 H352 0.949 . S
C354 C353 1.385 . S
H355 C353 0.950 . S
H356 C340 0.951 . S
H357 C342 0.951 . S
H358 C344 0.951 . S
H359 C345 0.950 . S
H360 C346 0.950 . S
H361 C347 0.950 . S
H362 C349 0.950 . S
H363 C350 0.951 . S
C364 C365 1.386 . S
C364 C366 1.383 . S
C364 H380 0.951 . S
C365 C364 1.386 . S
C365 C369 1.383 . S
C366 C364 1.383 . S
C366 C367 1.402 . S
C366 H381 0.951 . S
C367 C366 1.402 . S
C367 C368 1.375 . S
C367 C370 1.481 . S
C368 C367 1.375 . S
C368 C369 1.367 . S
C368 H382 0.951 . S
C369 C365 1.383 . S
C369 C368 1.367 . S
C369 H383 0.950 . S
C370 C367 1.481 . S
C370 C371 1.297 . S
C370 H384 0.950 . S
C371 C370 1.297 . S
C371 C372 1.479 . S
C371 H385 0.950 . S
C372 C371 1.479 . S
C372 C373 1.375 . S
C372 C378 1.404 . S
C373 C372 1.375 . S
C373 C374 1.369 . S
C373 H386 0.950 . S
C374 C373 1.369 . S
C374 C375 1.392 1_545 S
C374 H387 0.951 1_545 S
C375 C374 1.392 1_565 S
C375 C377 1.384 1_565 S
H376 C378 0.949 . S
C377 C375 1.384 1_545 S
C377 C378 1.385 . S
C377 H379 0.950 1_545 S
C378 C372 1.404 . S
C378 H376 0.949 . S
C378 C377 1.385 . S
H379 C377 0.950 1_565 S
H380 C364 0.951 . S
H381 C366 0.951 . S
H382 C368 0.951 . S
H383 C369 0.950 . S
H384 C370 0.950 . S
H385 C371 0.950 . S
H386 C373 0.950 . S
H387 C374 0.951 1_565 S
C388 C389 1.386 . S
C388 C390 1.383 . S
C388 H404 0.951 . S
C389 C388 1.386 . S
C389 C393 1.383 . S
C390 C388 1.383 . S
C390 C391 1.402 . S
C390 H405 0.951 . S
C391 C390 1.402 . S
C391 C392 1.375 . S
C391 C394 1.481 . S
C392 C391 1.375 . S
C392 C393 1.367 . S
C392 H406 0.951 . S
C393 C389 1.383 . S
C393 C392 1.367 . S
C393 H407 0.950 . S
C394 C391 1.481 . S
C394 C395 1.297 1_455 S
C394 H408 0.950 . S
C395 C394 1.297 1_655 S
C395 C396 1.479 . S
C395 H409 0.950 . S
C396 C395 1.479 . S
C396 C397 1.375 . S
C396 C402 1.404 . S
C397 C396 1.375 . S
C397 C398 1.369 . S
C397 H410 0.950 . S
C398 C397 1.369 . S
C398 C399 1.392 . S
C398 H411 0.951 . S
C399 C398 1.392 . S
C399 C401 1.384 . S
H400 C402 0.949 . S
C401 C399 1.384 . S
C401 C402 1.385 . S
C401 H403 0.950 . S
C402 C396 1.404 . S
C402 H400 0.949 . S
C402 C401 1.385 . S
H403 C401 0.950 . S
H404 C388 0.951 . S
H405 C390 0.951 . S
H406 C392 0.951 . S
H407 C393 0.950 . S
H408 C394 0.950 . S
H409 C395 0.950 . S
H410 C397 0.950 . S
H411 C398 0.951 . S
C412 C413 1.383 1_455 S
C412 C414 1.383 . S
C412 H428 0.951 . S
C413 C412 1.383 1_655 S
C413 C417 1.385 . S
C414 C412 1.383 . S
C414 C415 1.402 1_455 S
C414 H429 0.951 . S
C415 C414 1.402 1_655 S
C415 C416 1.375 . S
C415 C418 1.481 . S
C416 C415 1.375 . S
C416 C417 1.367 . S
C416 H430 0.951 . S
C417 C413 1.385 . S
C417 C416 1.367 . S
C417 H431 0.950 . S
C418 C415 1.481 . S
C418 C419 1.297 1_655 S
C418 H432 0.950 . S
C419 C418 1.297 1_455 S
C419 C420 1.479 . S
C419 H433 0.950 . S
C420 C419 1.479 . S
C420 C421 1.375 . S
C420 C426 1.404 1_455 S
C421 C420 1.375 . S
C421 C422 1.369 . S
C421 H434 0.950 . S
C422 C421 1.369 . S
C422 C423 1.392 . S
C422 H435 0.951 . S
C423 C422 1.392 . S
C423 C425 1.384 1_455 S
H424 C426 0.949 . S
C425 C423 1.384 1_655 S
C425 C426 1.385 . S
C425 H427 0.950 . S
C426 C420 1.404 1_655 S
C426 H424 0.949 . S
C426 C425 1.385 . S
H427 C425 0.950 . S
H428 C412 0.951 . S
H429 C414 0.951 . S
H430 C416 0.951 . S
H431 C417 0.950 . S
H432 C418 0.950 . S
H433 C419 0.950 . S
H434 C421 0.950 . S
H435 C422 0.951 . S
C436 C437 1.386 . S
C436 C438 1.383 . S
C436 H452 0.951 . S
C437 C436 1.386 . S
C437 C441 1.383 . S
C438 C436 1.383 . S
C438 C439 1.402 . S
C438 H453 0.951 . S
C439 C438 1.402 . S
C439 C440 1.375 . S
C439 C442 1.481 . S
C440 C439 1.375 . S
C440 C441 1.367 . S
C440 H454 0.951 . S
C441 C437 1.383 . S
C441 C440 1.367 . S
C441 H455 0.950 . S
C442 C439 1.481 . S
C442 C443 1.297 1_655 S
C442 H456 0.950 . S
C443 C442 1.297 1_455 S
C443 C444 1.479 . S
C443 H457 0.950 . S
C444 C443 1.479 . S
C444 C445 1.375 . S
C444 C450 1.404 . S
C445 C444 1.375 . S
C445 C446 1.369 . S
C445 H458 0.950 . S
C446 C445 1.369 . S
C446 C447 1.392 . S
C446 H459 0.951 . S
C447 C446 1.392 . S
C447 C449 1.384 . S
H448 C450 0.949 . S
C449 C447 1.384 . S
C449 C450 1.385 . S
C449 H451 0.950 . S
C450 C444 1.404 . S
C450 H448 0.949 . S
C450 C449 1.385 . S
H451 C449 0.950 . S
H452 C436 0.951 . S
H453 C438 0.951 . S
H454 C440 0.951 . S
H455 C441 0.950 . S
H456 C442 0.950 . S
H457 C443 0.950 . S
H458 C445 0.950 . S
H459 C446 0.951 . S
C460 C461 1.386 . S
C460 C462 1.383 . S
C460 H476 0.951 . S
C461 C460 1.386 . S
C461 C465 1.383 . S
C462 C460 1.383 . S
C462 C463 1.402 . S
C462 H477 0.951 . S
C463 C462 1.402 . S
C463 C464 1.375 . S
C463 C466 1.481 . S
C464 C463 1.375 . S
C464 C465 1.367 . S
C464 H478 0.951 . S
C465 C461 1.383 . S
C465 C464 1.367 . S
C465 H479 0.950 . S
C466 C463 1.481 . S
C466 C467 1.297 . S
C466 H480 0.950 . S
C467 C466 1.297 . S
C467 C468 1.479 . S
C467 H481 0.950 . S
C468 C467 1.479 . S
C468 C469 1.375 . S
C468 C474 1.404 . S
C469 C468 1.375 . S
C469 C470 1.369 . S
C469 H482 0.950 . S
C470 C469 1.369 . S
C470 C471 1.392 1_565 S
C470 H483 0.951 1_565 S
C471 C470 1.392 1_545 S
C471 C473 1.384 1_545 S
H472 C474 0.949 . S
C473 C471 1.384 1_565 S
C473 C474 1.385 . S
C473 H475 0.950 1_565 S
C474 C468 1.404 . S
C474 H472 0.949 . S
C474 C473 1.385 . S
H475 C473 0.950 1_545 S
H476 C460 0.951 . S
H477 C462 0.951 . S
H478 C464 0.951 . S
H479 C465 0.950 . S
H480 C466 0.950 . S
H481 C467 0.950 . S
H482 C469 0.950 . S
H483 C470 0.951 1_545 S
C484 C485 1.386 . S
C484 C486 1.383 . S
C484 H500 0.951 . S
C485 C484 1.386 . S
C485 C489 1.383 . S
C486 C484 1.383 . S
C486 C487 1.402 . S
C486 H501 0.951 . S
C487 C486 1.402 . S
C487 C488 1.375 . S
C487 C490 1.481 . S
C488 C487 1.375 . S
C488 C489 1.367 . S
C488 H502 0.951 . S
C489 C485 1.383 . S
C489 C488 1.367 . S
C489 H503 0.950 . S
C490 C487 1.481 . S
C490 C491 1.297 . S
C490 H504 0.950 . S
C491 C490 1.297 . S
C491 C492 1.479 . S
C491 H505 0.950 . S
C492 C491 1.479 . S
C492 C493 1.375 . S
C492 C498 1.404 . S
C493 C492 1.375 . S
C493 C494 1.369 . S
C493 H506 0.950 . S
C494 C493 1.369 . S
C494 C495 1.392 . S
C494 H507 0.951 . S
C495 C494 1.392 . S
C495 C497 1.384 . S
H496 C498 0.949 . S
C497 C495 1.384 . S
C497 C498 1.385 . S
C497 H499 0.950 . S
C498 C492 1.404 . S
C498 H496 0.949 . S
C498 C497 1.385 . S
H499 C497 0.950 . S
H500 C484 0.951 . S
H501 C486 0.951 . S
H502 C488 0.951 . S
H503 C489 0.950 . S
H504 C490 0.950 . S
H505 C491 0.950 . S
H506 C493 0.950 . S
H507 C494 0.951 . S
C125 C20 1.279 . S
C135 C51 1.251 . S
C149 C82 1.352 . S
C159 C33 1.299 . S
C173 C64 1.428 . S
C183 C122 1.510 . S
C197 C2 1.391 . S
C207 C94 1.336 . S
C221 C95 1.391 . S
C231 C1 1.329 . S
C245 C32 1.373 . S
C255 C91 1.380 . S
C269 C63 1.228 . S
C279 C113 1.311 . S
C293 C29 1.472 . S
C303 C60 1.499 . S
C317 C30 1.456 1_465 S
C327 C19 1.493 1_655 S
C341 C31 1.480 . S
C351 C41 1.430 . S
C365 C72 1.489 . S
C375 C62 1.398 . S
C389 C103 1.450 . S
C399 C93 1.481 . S
C413 C61 1.490 1_545 S
C423 C50 1.398 . S
C437 C81 1.481 . S
C447 C92 1.441 . S
C461 C123 1.460 . S
C471 C112 1.491 . S
C485 C10 1.479 . S
C495 C0 1.466 . S
