# Generated by pormake.
# Topology uoi, (4)-cn, num edge types: 1
# Building blocks:
#     Node 0, Type 0, BuildingBlock: NAHDIM_clean_sbu_0, # of connection points: 4
#     Node 1, Type 0, BuildingBlock: NAHDIM_clean_sbu_0, # of connection points: 4
#     Node 2, Type 0, BuildingBlock: NAHDIM_clean_sbu_0, # of connection points: 4
#     Node 3, Type 0, BuildingBlock: NAHDIM_clean_sbu_0, # of connection points: 4
#     Node 4, Type 0, BuildingBlock: NAHDIM_clean_sbu_0, # of connection points: 4
#     Node 5, Type 0, BuildingBlock: NAHDIM_clean_sbu_0, # of connection points: 4
#     Node 6, Type 0, BuildingBlock: NAHDIM_clean_sbu_0, # of connection points: 4
#     Node 7, Type 0, BuildingBlock: NAHDIM_clean_sbu_0, # of connection points: 4
#     Node 8, Type 0, BuildingBlock: NAHDIM_clean_sbu_0, # of connection points: 4
#     Node 9, Type 0, BuildingBlock: NAHDIM_clean_sbu_0, # of connection points: 4
#     Node 10, Type 0, BuildingBlock: NAHDIM_clean_sbu_0, # of connection points: 4
#     Node 11, Type 0, BuildingBlock: NAHDIM_clean_sbu_0, # of connection points: 4
#     Node 12, Type 0, BuildingBlock: NAHDIM_clean_sbu_0, # of connection points: 4
#     Node 13, Type 0, BuildingBlock: NAHDIM_clean_sbu_0, # of connection points: 4
#     Node 14, Type 0, BuildingBlock: NAHDIM_clean_sbu_0, # of connection points: 4
#     Node 15, Type 0, BuildingBlock: NAHDIM_clean_sbu_0, # of connection points: 4
#     Node 16, Type 0, BuildingBlock: NAHDIM_clean_sbu_0, # of connection points: 4
#     Node 17, Type 0, BuildingBlock: NAHDIM_clean_sbu_0, # of connection points: 4
#     Node 18, Type 0, BuildingBlock: NAHDIM_clean_sbu_0, # of connection points: 4
#     Node 19, Type 0, BuildingBlock: NAHDIM_clean_sbu_0, # of connection points: 4
#     Node 20, Type 0, BuildingBlock: NAHDIM_clean_sbu_0, # of connection points: 4
#     Node 21, Type 0, BuildingBlock: NAHDIM_clean_sbu_0, # of connection points: 4
#     Node 22, Type 0, BuildingBlock: NAHDIM_clean_sbu_0, # of connection points: 4
#     Node 23, Type 0, BuildingBlock: NAHDIM_clean_sbu_0, # of connection points: 4
#     Node 24, Type 0, BuildingBlock: NAHDIM_clean_sbu_0, # of connection points: 4
#     Node 25, Type 0, BuildingBlock: NAHDIM_clean_sbu_0, # of connection points: 4
#     Node 26, Type 0, BuildingBlock: NAHDIM_clean_sbu_0, # of connection points: 4
#     Node 27, Type 0, BuildingBlock: NAHDIM_clean_sbu_0, # of connection points: 4
#     Node 28, Type 0, BuildingBlock: NAHDIM_clean_sbu_0, # of connection points: 4
#     Node 29, Type 0, BuildingBlock: NAHDIM_clean_sbu_0, # of connection points: 4
#     Node 30, Type 0, BuildingBlock: NAHDIM_clean_sbu_0, # of connection points: 4
#     Node 31, Type 0, BuildingBlock: NAHDIM_clean_sbu_0, # of connection points: 4
#     Edge 32, Type (0, 0), BuildingBlock: XUDNAN_clean_linker_2, # of connection points: 2
#     Edge 33, Type (0, 0), BuildingBlock: XUDNAN_clean_linker_2, # of connection points: 2
#     Edge 34, Type (0, 0), BuildingBlock: XUDNAN_clean_linker_2, # of connection points: 2
#     Edge 35, Type (0, 0), BuildingBlock: XUDNAN_clean_linker_2, # of connection points: 2
#     Edge 36, Type (0, 0), BuildingBlock: XUDNAN_clean_linker_2, # of connection points: 2
#     Edge 37, Type (0, 0), BuildingBlock: XUDNAN_clean_linker_2, # of connection points: 2
#     Edge 38, Type (0, 0), BuildingBlock: XUDNAN_clean_linker_2, # of connection points: 2
#     Edge 39, Type (0, 0), BuildingBlock: XUDNAN_clean_linker_2, # of connection points: 2
#     Edge 40, Type (0, 0), BuildingBlock: XUDNAN_clean_linker_2, # of connection points: 2
#     Edge 41, Type (0, 0), BuildingBlock: XUDNAN_clean_linker_2, # of connection points: 2
#     Edge 42, Type (0, 0), BuildingBlock: XUDNAN_clean_linker_2, # of connection points: 2
#     Edge 43, Type (0, 0), BuildingBlock: XUDNAN_clean_linker_2, # of connection points: 2
#     Edge 44, Type (0, 0), BuildingBlock: XUDNAN_clean_linker_2, # of connection points: 2
#     Edge 45, Type (0, 0), BuildingBlock: XUDNAN_clean_linker_2, # of connection points: 2
#     Edge 46, Type (0, 0), BuildingBlock: XUDNAN_clean_linker_2, # of connection points: 2
#     Edge 47, Type (0, 0), BuildingBlock: XUDNAN_clean_linker_2, # of connection points: 2
#     Edge 48, Type (0, 0), BuildingBlock: XUDNAN_clean_linker_2, # of connection points: 2
#     Edge 49, Type (0, 0), BuildingBlock: XUDNAN_clean_linker_2, # of connection points: 2
#     Edge 50, Type (0, 0), BuildingBlock: XUDNAN_clean_linker_2, # of connection points: 2
#     Edge 51, Type (0, 0), BuildingBlock: XUDNAN_clean_linker_2, # of connection points: 2
#     Edge 52, Type (0, 0), BuildingBlock: XUDNAN_clean_linker_2, # of connection points: 2
#     Edge 53, Type (0, 0), BuildingBlock: XUDNAN_clean_linker_2, # of connection points: 2
#     Edge 54, Type (0, 0), BuildingBlock: XUDNAN_clean_linker_2, # of connection points: 2
#     Edge 55, Type (0, 0), BuildingBlock: XUDNAN_clean_linker_2, # of connection points: 2
#     Edge 56, Type (0, 0), BuildingBlock: XUDNAN_clean_linker_2, # of connection points: 2
#     Edge 57, Type (0, 0), BuildingBlock: XUDNAN_clean_linker_2, # of connection points: 2
#     Edge 58, Type (0, 0), BuildingBlock: XUDNAN_clean_linker_2, # of connection points: 2
#     Edge 59, Type (0, 0), BuildingBlock: XUDNAN_clean_linker_2, # of connection points: 2
#     Edge 60, Type (0, 0), BuildingBlock: XUDNAN_clean_linker_2, # of connection points: 2
#     Edge 61, Type (0, 0), BuildingBlock: XUDNAN_clean_linker_2, # of connection points: 2
#     Edge 62, Type (0, 0), BuildingBlock: XUDNAN_clean_linker_2, # of connection points: 2
#     Edge 63, Type (0, 0), BuildingBlock: XUDNAN_clean_linker_2, # of connection points: 2
#     Edge 64, Type (0, 0), BuildingBlock: XUDNAN_clean_linker_2, # of connection points: 2
#     Edge 65, Type (0, 0), BuildingBlock: XUDNAN_clean_linker_2, # of connection points: 2
#     Edge 66, Type (0, 0), BuildingBlock: XUDNAN_clean_linker_2, # of connection points: 2
#     Edge 67, Type (0, 0), BuildingBlock: XUDNAN_clean_linker_2, # of connection points: 2
#     Edge 68, Type (0, 0), BuildingBlock: XUDNAN_clean_linker_2, # of connection points: 2
#     Edge 69, Type (0, 0), BuildingBlock: XUDNAN_clean_linker_2, # of connection points: 2
#     Edge 70, Type (0, 0), BuildingBlock: XUDNAN_clean_linker_2, # of connection points: 2
#     Edge 71, Type (0, 0), BuildingBlock: XUDNAN_clean_linker_2, # of connection points: 2
#     Edge 72, Type (0, 0), BuildingBlock: XUDNAN_clean_linker_2, # of connection points: 2
#     Edge 73, Type (0, 0), BuildingBlock: XUDNAN_clean_linker_2, # of connection points: 2
#     Edge 74, Type (0, 0), BuildingBlock: XUDNAN_clean_linker_2, # of connection points: 2
#     Edge 75, Type (0, 0), BuildingBlock: XUDNAN_clean_linker_2, # of connection points: 2
#     Edge 76, Type (0, 0), BuildingBlock: XUDNAN_clean_linker_2, # of connection points: 2
#     Edge 77, Type (0, 0), BuildingBlock: XUDNAN_clean_linker_2, # of connection points: 2
#     Edge 78, Type (0, 0), BuildingBlock: XUDNAN_clean_linker_2, # of connection points: 2
#     Edge 79, Type (0, 0), BuildingBlock: XUDNAN_clean_linker_2, # of connection points: 2
#     Edge 80, Type (0, 0), BuildingBlock: XUDNAN_clean_linker_2, # of connection points: 2
#     Edge 81, Type (0, 0), BuildingBlock: XUDNAN_clean_linker_2, # of connection points: 2
#     Edge 82, Type (0, 0), BuildingBlock: XUDNAN_clean_linker_2, # of connection points: 2
#     Edge 83, Type (0, 0), BuildingBlock: XUDNAN_clean_linker_2, # of connection points: 2
#     Edge 84, Type (0, 0), BuildingBlock: XUDNAN_clean_linker_2, # of connection points: 2
#     Edge 85, Type (0, 0), BuildingBlock: XUDNAN_clean_linker_2, # of connection points: 2
#     Edge 86, Type (0, 0), BuildingBlock: XUDNAN_clean_linker_2, # of connection points: 2
#     Edge 87, Type (0, 0), BuildingBlock: XUDNAN_clean_linker_2, # of connection points: 2
#     Edge 88, Type (0, 0), BuildingBlock: XUDNAN_clean_linker_2, # of connection points: 2
#     Edge 89, Type (0, 0), BuildingBlock: XUDNAN_clean_linker_2, # of connection points: 2
#     Edge 90, Type (0, 0), BuildingBlock: XUDNAN_clean_linker_2, # of connection points: 2
#     Edge 91, Type (0, 0), BuildingBlock: XUDNAN_clean_linker_2, # of connection points: 2
#     Edge 92, Type (0, 0), BuildingBlock: XUDNAN_clean_linker_2, # of connection points: 2
#     Edge 93, Type (0, 0), BuildingBlock: XUDNAN_clean_linker_2, # of connection points: 2
#     Edge 94, Type (0, 0), BuildingBlock: XUDNAN_clean_linker_2, # of connection points: 2
#     Edge 95, Type (0, 0), BuildingBlock: XUDNAN_clean_linker_2, # of connection points: 2
# Relax obj value: 0.315
# Max RMSD: 0.189
# Mean RMSD: 0.189
data_MOF--net-uoi--node1-NAHDIM_clean_sbu_0--edge1-XUDNAN_clean_linker_2
_symmetry_space_group_name_H-M    P1
_symmetry_Int_Tables_number       1
_symmetry_cell_setting            triclinic
loop_
_symmetry_equiv_pos_as_xyz
'x, y, z'
_cell_length_a     89.98248
_cell_length_b     80.271122
_cell_length_c     80.27189
_cell_angle_alpha  4149.4415
_cell_angle_beta   89.985165
_cell_angle_gamma 90.02479
loop_
_atom_site_label
_atom_site_type_symbol
_atom_site_fract_x
_atom_site_fract_y
_atom_site_fract_z
_atom_type_partial_charge
C0 C 0.12547 0.62427 0.4798 0.0
O1 O 0.11441 0.6791 0.52815 0.0
O2 O 0.16398 0.81882 0.65758 0.0
Zn3 Zn 0.14442 0.75604 0.58936 0.0
O4 O 0.14571 0.69577 0.50678 0.0
C5 C 0.13469 0.92638 0.74291 0.0
O6 O 0.14711 0.90021 0.70962 0.0
O7 O 0.13869 0.64671 0.49778 0.0
C8 C 0.13384 0.6637 0.46835 0.0
O9 O 0.12157 0.65976 0.4733 0.0
C10 C 0.17657 0.77756 0.61469 0.0
O11 O 0.17723 0.68495 0.51729 0.0
O12 O 0.13009 0.87313 0.70257 0.0
C13 C 0.08445 1.70167 0.82292 0.0
O14 O 0.07699 1.69215 0.79955 0.0
O15 O 0.07336 1.92367 1.01889 0.0
Zn16 Zn 0.06652 1.87102 0.98924 0.0
O17 O 0.04772 1.78825 0.90586 0.0
C18 C 0.0504 1.99939 1.13841 0.0
O19 O 0.04343 1.91446 1.0582 0.0
O20 O 0.08224 1.77995 0.90908 0.0
C21 C 0.03558 1.81881 0.92965 0.0
O22 O 0.03496 1.90889 1.0115 0.0
C23 C 0.06898 1.89585 0.97711 0.0
O24 O 0.05928 1.8217 0.90264 0.0
O25 O 0.06194 1.99596 1.12593 0.0
C26 C 0.31387 1.98102 1.14821 0.0
O27 O 0.30243 2.0428 1.20953 0.0
O28 O 0.29297 2.04139 1.24373 0.0
Zn29 Zn 0.31524 2.02075 1.22292 0.0
O30 O 0.32151 1.91984 1.14092 0.0
C31 C 0.31733 2.23575 1.43608 0.0
O32 O 0.30748 2.22877 1.41715 0.0
O33 O 0.32127 1.96546 1.1461 0.0
C34 C 0.32333 1.9423 1.17835 0.0
O35 O 0.32099 2.03558 1.27549 0.0
C36 C 0.28722 2.09181 1.30534 0.0
O37 O 0.29567 2.12059 1.34619 0.0
O38 O 0.32419 2.15598 1.36188 0.0
C39 C 0.38079 0.18635 0.06931 0.0
O40 O 0.37536 0.2789 0.1611 0.0
O41 O 0.40087 0.25982 0.18629 0.0
Zn42 Zn 0.40594 0.26315 0.16515 0.0
O43 O 0.42691 0.21581 0.11519 0.0
C44 C 0.39932 0.47649 0.37691 0.0
O45 O 0.39147 0.44914 0.36299 0.0
O46 O 0.39303 0.16719 0.05759 0.0
C47 C 0.43826 0.26079 0.16546 0.0
O48 O 0.43648 0.34205 0.2549 0.0
C49 C 0.38879 0.22353 0.15616 0.0
O50 O 0.3794 0.17953 0.10252 0.0
O51 O 0.40515 0.40826 0.3005 0.0
C52 C 0.14573 1.19899 0.38536 0.0
O53 O 0.15264 1.23947 0.43809 0.0
O54 O 0.17792 0.98209 0.17565 0.0
Zn55 Zn 0.15744 1.01118 0.21337 0.0
O56 O 0.15818 1.06575 0.29063 0.0
C57 C 0.15463 0.81779 0.03442 0.0
O58 O 0.16745 0.84993 0.07192 0.0
O59 O 0.14626 1.10346 0.28894 0.0
C60 C 0.14612 1.09022 0.32198 0.0
O61 O 0.13365 1.08913 0.31239 0.0
C62 C 0.18978 0.9957 0.19738 0.0
O63 O 0.189 1.03847 0.25434 0.0
O64 O 0.1472 0.87639 0.08281 0.0
C65 C 0.35098 1.51762 0.60546 0.0
O66 O 0.35294 1.53884 0.61055 0.0
O67 O 0.37204 1.37671 0.43611 0.0
Zn68 Zn 0.3763 1.39208 0.47582 0.0
O69 O 0.39328 1.48671 0.57386 0.0
C70 C 0.3845 1.17986 0.26661 0.0
O71 O 0.3783 1.17923 0.25117 0.0
O72 O 0.35902 1.44989 0.54541 0.0
C73 C 0.40674 1.46282 0.54755 0.0
O74 O 0.40981 1.37781 0.45584 0.0
C75 C 0.37972 1.41789 0.46528 0.0
O76 O 0.39046 1.48082 0.53139 0.0
O77 O 0.38336 1.25878 0.35348 0.0
C78 C 0.31913 1.16644 1.00495 0.0
O79 O 0.30927 1.22329 1.05339 0.0
O80 O 0.28531 1.01173 0.83932 0.0
Zn81 Zn 0.30618 1.02577 0.84426 0.0
O82 O 0.3072 1.1268 0.92515 0.0
C83 C 0.30189 0.83874 0.64334 0.0
O84 O 0.28807 0.86704 0.67371 0.0
O85 O 0.32008 1.07303 0.90893 0.0
C86 C 0.29788 1.12929 0.91574 0.0
O87 O 0.28639 1.06769 0.85523 0.0
C88 C 0.27562 1.0812 0.90927 0.0
O89 O 0.27911 1.17529 0.99832 0.0
O90 O 0.31231 0.89224 0.70226 0.0
C91 C 0.08741 1.40882 1.33892 0.0
O92 O 0.09418 1.32493 1.26073 0.0
O93 O 0.06633 1.23225 1.19346 0.0
Zn94 Zn 0.0598 1.29902 1.23801 0.0
O95 O 0.03943 1.35723 1.29885 0.0
C96 C 0.05707 1.10147 1.0277 0.0
O97 O 0.06142 1.0683 1.00962 0.0
O98 O 0.07332 1.41253 1.34284 0.0
C99 C 0.03412 1.41076 1.33991 0.0
O100 O 0.04236 1.42902 1.34474 0.0
C101 C 0.07367 1.27735 1.24927 0.0
O102 O 0.07771 1.37229 1.3407 0.0
O103 O 0.05699 1.19647 1.11865 0.0
C104 C 0.75831 1.91739 1.09206 0.0
O105 O 0.75074 1.94663 1.13404 0.0
O106 O 0.72665 1.74608 0.93398 0.0
Zn107 Zn 0.74879 1.7356 0.92651 0.0
O108 O 0.7552 1.7874 1.00008 0.0
C109 C 0.74464 1.52293 0.72074 0.0
O110 O 0.73096 1.55462 0.75418 0.0
O111 O 0.75914 1.823 0.99568 0.0
C112 C 0.75096 1.75044 0.97744 0.0
O113 O 0.74113 1.67661 0.90474 0.0
C114 C 0.72084 1.74233 0.91587 0.0
O115 O 0.72952 1.74427 0.90462 0.0
O116 O 0.75457 1.58687 0.77953 0.0
C117 C 0.81673 0.78019 0.67831 0.0
O118 O 0.82031 0.79617 0.70972 0.0
O119 O 0.83065 0.59965 0.5294 0.0
Zn120 Zn 0.83701 0.62107 0.52664 0.0
O121 O 0.85599 0.7018 0.60512 0.0
C122 C 0.83712 0.40276 0.30775 0.0
O123 O 0.82663 0.40616 0.32247 0.0
O124 O 0.82192 0.70242 0.59422 0.0
C125 C 0.86884 0.66171 0.56533 0.0
O126 O 0.87028 0.5628 0.46907 0.0
C127 C 0.83976 0.55929 0.4997 0.0
O128 O 0.85323 0.53779 0.47332 0.0
O129 O 0.84164 0.48519 0.38255 0.0
C130 C 0.58343 0.34958 0.19806 0.0
O131 O 0.59498 0.39052 0.23099 0.0
O132 O 0.61281 0.17921 0.0147 0.0
Zn133 Zn 0.59186 0.20592 0.03327 0.0
O134 O 0.59086 0.31039 0.1181 0.0
C135 C 0.5939 1.46593 1.29341 0.0
O136 O 0.60723 1.50646 1.33309 0.0
O137 O 0.57947 0.26037 0.10587 0.0
C138 C 0.57789 0.32221 0.12377 0.0
O139 O 0.56685 0.26937 0.07798 0.0
C140 C 0.6239 0.23223 0.06251 0.0
O141 O 0.62171 0.31336 0.13333 0.0
O142 O 0.58435 1.50136 1.33853 0.0
C143 C 0.52677 2.2099 1.32631 0.0
O144 O 0.52979 2.22619 1.3266 0.0
O145 O 0.51067 2.09382 1.17544 0.0
Zn146 Zn 0.5018 2.09799 1.20268 0.0
O147 O 0.48443 2.1931 1.29829 0.0
C148 C 0.49244 1.88918 0.99224 0.0
O149 O 0.49976 1.89624 0.98509 0.0
O150 O 0.51617 2.15049 1.27156 0.0
C151 C 0.47121 2.16739 1.26925 0.0
O152 O 0.46869 2.07897 1.175 0.0
C153 C 0.50326 2.11967 1.18813 0.0
O154 O 0.48983 2.15659 1.22646 0.0
O155 O 0.49323 1.96163 1.07414 0.0
C156 C 0.76937 1.39846 1.24536 0.0
O157 O 0.76102 1.44085 1.29865 0.0
O158 O 0.73469 1.5304 1.36194 0.0
Zn159 Zn 0.75466 1.53182 1.35209 0.0
O160 O 0.75281 1.48971 1.28664 0.0
C161 C 0.75143 0.31177 0.10294 0.0
O162 O 0.73799 0.27373 0.06398 0.0
O163 O 0.76881 1.43091 1.26247 0.0
C164 C 0.74101 1.47687 1.26557 0.0
O165 O 0.72801 1.48793 1.28369 0.0
C166 C 0.72761 1.45572 1.29439 0.0
O167 O 0.73359 1.36475 1.20445 0.0
O168 O 0.76178 0.25434 0.05156 0.0
C169 C 0.53133 0.88209 0.78539 0.0
O170 O 0.53702 0.97154 0.87016 0.0
O171 O 0.50652 0.98888 0.9328 0.0
Zn172 Zn 0.50596 0.98612 0.90503 0.0
O173 O 0.48553 0.94974 0.86113 0.0
C174 C 0.51553 1.1959 1.11236 0.0
O175 O 0.5233 1.16849 1.09841 0.0
O176 O 0.51929 0.87638 0.78794 0.0
C177 C 0.4735 0.9549 0.87445 0.0
O178 O 0.47377 0.98483 0.91957 0.0
C179 C 0.51822 0.96616 0.91842 0.0
O180 O 0.53006 0.93614 0.88059 0.0
O181 O 0.50946 1.12754 1.03604 0.0
C182 C 0.58146 1.27736 0.43641 0.0
O183 O 0.59573 1.26545 0.42185 0.0
O184 O 0.61142 1.42421 0.6016 0.0
Zn185 Zn 0.59201 1.37264 0.56026 0.0
O186 O 0.59486 1.24714 0.4505 0.0
C187 C 0.58902 1.56113 0.76519 0.0
O188 O 0.59986 1.59541 0.78959 0.0
O189 O 0.57731 1.32936 0.5002 0.0
C190 C 0.59628 1.25153 0.47059 0.0
O191 O 0.59753 1.34031 0.56549 0.0
C192 C 0.62234 1.43237 0.6196 0.0
O193 O 0.62069 1.40229 0.60541 0.0
O194 O 0.58326 1.47523 0.67721 0.0
C195 C 0.8177 1.06151 0.1665 0.0
O196 O 0.82176 1.118 0.23493 0.0
O197 O 0.83948 1.22027 0.28088 0.0
Zn198 Zn 0.8411 1.16748 0.25225 0.0
O199 O 0.85944 1.0821 0.17068 0.0
C200 C 0.84498 1.37489 0.46807 0.0
O201 O 0.84141 1.39657 0.47401 0.0
O202 O 0.82391 1.07441 0.16519 0.0
C203 C 0.87216 1.12178 0.21213 0.0
O204 O 0.8736 1.22097 0.30922 0.0
C205 C 0.82699 1.25167 0.30655 0.0
O206 O 0.81534 1.24589 0.31068 0.0
O207 O 0.84383 1.28352 0.38295 0.0
C208 C 0.58367 1.78148 1.15007 0.0
O209 O 0.59708 1.74664 1.11277 0.0
O210 O 0.61378 1.96323 1.31387 0.0
Zn211 Zn 0.59325 1.92858 1.27153 0.0
O212 O 0.59412 1.83113 1.15632 0.0
C213 C 0.59048 0.71738 0.02818 0.0
O214 O 0.60164 0.73158 0.05247 0.0
O215 O 0.57976 1.86512 1.226 0.0
C216 C 0.59934 1.86038 1.17127 0.0
O217 O 0.60584 1.9496 1.2583 0.0
C218 C 0.62482 1.90333 1.25436 0.0
O219 O 0.62294 1.80915 1.15649 0.0
O220 O 0.58437 2.05276 1.38356 0.0
C221 C 0.51202 1.79679 1.41625 0.0
O222 O 0.50212 1.80096 1.40836 0.0
O223 O 0.50961 0.63721 0.21358 0.0
Zn224 Zn 0.50309 0.57978 0.17895 0.0
O225 O 0.4817 0.5386 0.13604 0.0
C226 C 0.5076 0.77817 0.38961 0.0
O227 O 0.51616 0.7953 0.39355 0.0
O228 O 0.51489 0.4554 0.06242 0.0
C229 C 0.47546 0.48987 0.09971 0.0
O230 O 0.48327 0.46503 0.08842 0.0
C231 C 0.50137 0.70528 0.27435 0.0
O232 O 0.48937 0.73393 0.31067 0.0
O233 O 0.50286 0.68862 0.3039 0.0
C234 C 0.75165 0.81764 0.46531 0.0
O235 O 0.73753 0.79678 0.4424 0.0
O236 O 0.71928 0.94547 0.60976 0.0
Zn237 Zn 0.74028 0.94078 0.61375 0.0
O238 O 0.74151 0.85013 0.54435 0.0
C239 C 0.73514 1.11094 0.80044 0.0
O240 O 0.72285 1.05765 0.74927 0.0
O241 O 0.75525 0.88432 0.54181 0.0
C242 C 0.75402 0.8491 0.55069 0.0
O243 O 0.76494 0.90432 0.59913 0.0
C244 C 0.71039 0.87078 0.53707 0.0
O245 O 0.71531 0.78258 0.45536 0.0
O246 O 0.74529 1.07883 0.75906 0.0
C247 C 0.80134 1.46062 0.87528 0.0
O248 O 0.80713 1.41022 0.83812 0.0
O249 O 0.81509 1.6119 1.06136 0.0
Zn250 Zn 0.82127 1.60544 1.03088 0.0
O251 O 0.83869 1.51354 0.93627 0.0
C252 C 0.82996 1.8156 1.24151 0.0
O253 O 0.82402 1.80589 1.24679 0.0
O254 O 0.80503 1.55298 0.96429 0.0
C255 C 0.85164 1.53033 0.95852 0.0
O256 O 0.85376 1.60538 1.04307 0.0
C257 C 0.82009 1.55597 1.0178 0.0
O258 O 0.82907 1.4807 0.93985 0.0
O259 O 0.82877 1.74297 1.1595 0.0
C260 C 0.56557 1.22023 0.89637 0.0
O261 O 0.57637 1.25619 0.94114 0.0
O262 O 0.59665 1.0236 0.70607 0.0
Zn263 Zn 0.57691 1.04616 0.73966 0.0
O264 O 0.5781 1.12154 0.83584 0.0
C265 C 0.5795 0.85519 0.56493 0.0
O266 O 0.5931 0.89127 0.60069 0.0
O267 O 0.56321 1.12493 0.80227 0.0
C268 C 0.58887 1.12557 0.85001 0.0
O269 O 0.60164 1.08363 0.80471 0.0
C270 C 0.60794 1.08084 0.76108 0.0
O271 O 0.60756 1.17349 0.85852 0.0
O272 O 0.56931 0.90792 0.61014 0.0
C273 C 0.81063 1.69414 1.3177 0.0
O274 O 0.80414 1.66211 1.27242 0.0
O275 O 0.83209 1.61281 1.20088 0.0
Zn276 Zn 0.83829 1.59912 1.21139 0.0
O277 O 0.85757 1.67059 1.28609 0.0
C278 C 0.84787 1.4004 1.0085 0.0
O279 O 0.84722 1.43911 1.03164 0.0
O280 O 0.82398 1.66848 1.29536 0.0
C281 C 0.86935 1.66435 1.2713 0.0
O282 O 0.86926 1.61271 1.20635 0.0
C283 C 0.82729 1.69166 1.27134 0.0
O284 O 0.82579 1.7767 1.36362 0.0
O285 O 0.8429 1.45243 1.07197 0.0
C286 C 0.76081 0.96236 0.30534 0.0
O287 O 0.75652 0.87832 0.22985 0.0
O288 O 0.7323 0.80802 0.13023 0.0
Zn289 Zn 0.75119 0.86896 0.18143 0.0
O290 O 0.74772 0.9473 0.23746 0.0
C291 C 0.76051 2.08543 1.41325 0.0
O292 O 0.74845 2.06226 1.39878 0.0
O293 O 0.75994 0.96949 0.29664 0.0
C294 C 0.75951 0.96532 0.24696 0.0
O295 O 0.77226 0.93213 0.22002 0.0
C296 C 0.7192 0.84277 0.1631 0.0
O297 O 0.71711 0.93084 0.24266 0.0
O298 O 0.76492 0.75501 0.0622 0.0
C299 C 0.52464 1.19912 0.61242 0.0
O300 O 0.53204 1.13866 0.56281 0.0
O301 O 0.5072 1.01481 0.45818 0.0
Zn302 Zn 0.49914 1.06369 0.48441 0.0
O303 O 0.47885 1.12306 0.5462 0.0
C304 C 0.49543 0.85615 0.2695 0.0
O305 O 0.5011 0.8379 0.26627 0.0
O306 O 0.51135 1.17733 0.58698 0.0
C307 C 0.46737 1.06933 0.49599 0.0
O308 O 0.46877 0.97084 0.40086 0.0
C309 C 0.50216 1.04848 0.5051 0.0
O310 O 0.49212 1.12084 0.57627 0.0
O311 O 0.49552 0.94679 0.35343 0.0
C312 C 0.31045 0.5807 0.23898 0.0
O313 O 0.31917 0.52932 0.19832 0.0
O314 O 0.26604 0.44508 0.11758 0.0
Zn315 Zn 0.28836 0.45003 0.12453 0.0
O316 O 0.29302 0.49309 0.19049 0.0
C317 C 0.28877 1.65492 1.35103 0.0
O318 O 0.27436 1.66821 1.36286 0.0
O319 O 0.29684 0.55569 0.21325 0.0
C320 C 0.30441 0.4633 0.16911 0.0
O321 O 0.31403 0.40261 0.10203 0.0
C322 C 0.2581 0.50348 0.18411 0.0
O323 O 0.26465 0.57123 0.26046 0.0
O324 O 0.29728 1.73173 1.42554 0.0
C325 C 0.36276 1.90398 1.32901 0.0
O326 O 0.37079 1.93884 1.37582 0.0
O327 O 0.37663 1.69143 1.14795 0.0
Zn328 Zn 0.38214 1.74172 1.17464 0.0
O329 O 0.39962 1.83726 1.26844 0.0
C330 C 0.38342 1.53129 0.95737 0.0
O331 O 0.37181 1.52237 0.95839 0.0
O332 O 0.36511 1.81421 1.23526 0.0
C333 C 0.41302 1.80859 1.24187 0.0
O334 O 0.4159 1.71346 1.15174 0.0
C335 C 0.38474 1.69663 1.16599 0.0
O336 O 0.39722 1.74835 1.21646 0.0
O337 O 0.38862 1.61912 1.04099 0.0
C338 C 0.1196 1.68317 1.04398 0.0
O339 O 0.11275 1.68701 1.03333 0.0
O340 O 0.16025 1.51878 0.86631 0.0
Zn341 Zn 0.13869 1.55394 0.89781 0.0
O342 O 0.13825 1.65363 0.9773 0.0
C343 C 0.13451 1.3429 0.68417 0.0
O344 O 0.14413 1.33551 0.68914 0.0
O345 O 0.13055 1.62319 0.98652 0.0
C346 C 0.12885 1.65339 0.96523 0.0
O347 O 0.11803 1.58638 0.89908 0.0
C348 C 0.16703 1.49313 0.82776 0.0
O349 O 0.15969 1.49289 0.81336 0.0
O350 O 0.12829 1.42808 0.76563 0.0
C351 C 0.08199 1.0495 0.66182 0.0
O352 O 0.07194 1.10013 0.70331 0.0
O353 O 0.07398 0.88771 0.46187 0.0
Zn354 Zn 0.06742 0.88704 0.48518 0.0
O355 O 0.04797 0.96026 0.56022 0.0
C356 C 0.06285 0.67144 0.26847 0.0
O357 O 0.0686 0.68834 0.27036 0.0
O358 O 0.08262 0.95343 0.56552 0.0
C359 C 0.04168 0.95384 0.56803 0.0
O360 O 0.04828 0.90273 0.52957 0.0
C361 C 0.06737 0.93629 0.49832 0.0
O362 O 0.05642 0.99778 0.56288 0.0
O363 O 0.06275 0.74284 0.34957 0.0
C364 C 0.3125 1.05181 0.39516 0.0
O365 O 0.31575 1.13759 0.4873 0.0
O366 O 0.27865 1.22552 0.55107 0.0
Zn367 Zn 0.29814 1.17954 0.49599 0.0
O368 O 0.2957 1.14469 0.43741 0.0
C369 C 0.31003 1.38321 0.70063 0.0
O370 O 0.29715 1.40223 0.72644 0.0
O371 O 0.30531 1.05379 0.38351 0.0
C372 C 0.30745 1.11698 0.40257 0.0
O373 O 0.31985 1.1087 0.40295 0.0
C374 C 0.26865 1.26139 0.57696 0.0
O375 O 0.27125 1.26793 0.56734 0.0
O376 O 0.31324 1.29218 0.60703 0.0
C377 C 0.08381 0.82606 0.22842 0.0
O378 O 0.08805 0.85938 0.27597 0.0
O379 O 0.05875 0.89329 0.32825 0.0
Zn380 Zn 0.05426 0.90285 0.3132 0.0
O381 O 0.03644 0.81807 0.22425 0.0
C382 C 0.04651 1.11202 0.52499 0.0
O383 O 0.05226 1.09488 0.52285 0.0
O384 O 0.07071 0.84481 0.24189 0.0
C385 C 0.02413 0.82754 0.24116 0.0
O386 O 0.02312 0.89057 0.31597 0.0
C387 C 0.06345 0.81442 0.25786 0.0
O388 O 0.06575 0.73079 0.16682 0.0
O389 O 0.04788 1.04485 0.44745 0.0
C390 C 0.12647 1.48178 1.17404 0.0
O391 O 0.13616 1.45604 1.16013 0.0
O392 O 0.14592 1.67961 1.3933 0.0
Zn393 Zn 0.12451 1.63433 1.3479 0.0
O394 O 0.12151 1.52991 1.26278 0.0
C395 C 0.11876 0.42061 0.11547 0.0
O396 O 0.12835 0.42675 0.10922 0.0
O397 O 0.11945 1.56507 1.25788 0.0
C398 C 0.11532 1.543 1.28978 0.0
O399 O 0.11037 1.63331 1.383 0.0
C400 C 0.15521 1.68142 1.38317 0.0
O401 O 0.15142 1.64549 1.33306 0.0
O402 O 0.11251 0.3356 0.03432 0.0
C403 C 0.36305 1.20116 0.81754 0.0
O404 O 0.35873 1.28372 0.89118 0.0
O405 O 0.39182 1.3228 0.90964 0.0
Zn406 Zn 0.39356 1.27991 0.89138 0.0
O407 O 0.41258 1.20421 0.82063 0.0
C408 C 0.39057 1.49139 1.10817 0.0
O409 O 0.38203 1.49244 1.09594 0.0
O410 O 0.37676 1.18837 0.80805 0.0
C411 C 0.42499 1.23012 0.83992 0.0
O412 O 0.42557 1.30705 0.9054 0.0
C413 C 0.38418 1.27849 0.85478 0.0
O414 O 0.37726 1.1934 0.77445 0.0
O415 O 0.39526 1.40671 1.0301 0.0
H416 H 0.26324 0.89169 0.7219 0.0
H417 H 0.25289 1.2083 1.04376 0.0
H418 H 0.22659 1.16192 1.0028 0.0
H419 H 0.23134 0.8396 0.64726 0.0
H420 H 0.22902 0.71185 0.52889 0.0
H421 H 0.24724 0.76809 0.5837 0.0
H422 H 0.25061 0.73278 0.5804 0.0
H423 H 0.23238 0.67611 0.52527 0.0
H424 H 0.23698 0.77945 0.64102 0.0
H425 H 0.20125 1.08233 0.9263 0.0
H426 H 0.17859 0.97782 0.82108 0.0
H427 H 0.20552 0.71401 0.54898 0.0
C428 C 0.25552 0.95117 0.784 0.0
C429 C 0.26013 1.05359 0.88616 0.0
C430 C 0.24961 1.12932 0.96501 0.0
C431 C 0.23467 1.10364 0.94246 0.0
C432 C 0.23047 1.00205 0.84078 0.0
C433 C 0.24059 0.92707 0.76285 0.0
C434 C 0.23307 0.82497 0.66 0.0
C435 C 0.2353 0.78377 0.60158 0.0
C436 C 0.23859 0.74885 0.59804 0.0
C437 C 0.21706 0.85445 0.69217 0.0
C438 C 0.21583 0.95661 0.79667 0.0
C439 C 0.2021 1.00213 0.8444 0.0
C440 C 0.18929 0.94199 0.78383 0.0
C441 C 0.19027 0.83758 0.67664 0.0
C442 C 0.20439 0.79337 0.63056 0.0
H443 H 0.05914 1.8752 0.92451 0.0
H444 H 0.08944 2.04942 1.12733 0.0
H445 H 0.09567 2.1577 1.2101 0.0
H446 H 0.08068 0.89033 0.90064 0.0
H447 H 0.06437 0.90239 0.89966 0.0
H448 H 0.06413 1.83163 0.84905 0.0
H449 H 0.04227 1.9445 0.97031 0.0
H450 H 0.04249 1.01577 1.02154 0.0
H451 H 0.04461 2.08046 1.10506 0.0
H452 H 0.09668 2.25791 1.28249 0.0
H453 H 0.09225 1.33957 1.33567 0.0
H454 H 0.06167 1.09865 1.08415 0.0
C455 C 0.06731 1.93476 0.98492 0.0
C456 C 0.07381 1.95363 1.01925 0.0
C457 C 0.08431 2.03331 1.09952 0.0
C458 C 0.08797 2.0952 1.14698 0.0
C459 C 0.08111 2.07605 1.11286 0.0
C460 C 0.0711 1.99726 1.03312 0.0
C461 C 0.06465 1.99673 1.01517 0.0
C462 C 0.0684 0.89948 0.90987 0.0
C463 C 0.04767 2.01021 1.02889 0.0
C464 C 0.07164 1.0891 1.09902 0.0
C465 C 0.08182 2.1334 1.15409 0.0
C466 C 0.08877 1.22311 1.23905 0.0
C467 C 0.08652 1.26912 1.26888 0.0
C468 C 0.07674 1.22524 1.2138 0.0
C469 C 0.06938 1.13337 1.12707 0.0
H470 H 0.21676 0.99483 0.21248 0.0
H471 H 0.19453 0.88998 0.0642 0.0
H472 H 0.21726 2.21852 1.40529 0.0
H473 H 0.25391 1.02405 0.22262 0.0
H474 H 0.26316 0.98062 0.19837 0.0
H475 H 0.2456 1.04559 0.264 0.0
H476 H 0.23484 0.89297 0.12998 0.0
H477 H 0.2523 0.82717 0.0633 0.0
H478 H 0.23558 2.18965 1.43876 0.0
H479 H 0.24171 2.1275 1.3131 0.0
H480 H 0.26684 2.05391 1.24327 0.0
H481 H 0.2728 0.79627 0.01039 0.0
C482 C 0.21671 0.95371 0.16024 0.0
C483 C 0.20386 0.94984 0.14632 0.0
C484 C 0.20424 0.89435 0.07645 0.0
C485 C 0.21702 0.84085 0.01893 0.0
C486 C 0.22935 0.8441 0.0326 0.0
C487 C 0.22937 0.90005 0.10237 0.0
C488 C 0.24393 0.88848 0.10022 0.0
C489 C 0.25213 0.99076 0.20237 0.0
C490 C 0.24147 0.84125 0.07095 0.0
C491 C 0.25196 0.81593 0.01715 0.0
C492 C 0.24353 2.21337 1.42067 0.0
C493 C 0.24855 2.14656 1.34254 0.0
C494 C 0.26281 2.10479 1.30304 0.0
C495 C 0.27182 2.12988 1.34167 0.0
C496 C 0.26629 2.19692 1.42007 0.0
H497 H 0.4031 0.34365 0.29741 0.0
H498 H 0.36529 0.14135 0.09214 0.0
H499 H 0.35805 0.17461 0.15415 0.0
H500 H 0.41217 0.27526 0.2719 0.0
H501 H 0.41721 0.40273 0.40359 0.0
H502 H 0.41931 0.36252 0.34262 0.0
H503 H 0.40297 0.51339 0.48177 0.0
H504 H 0.40071 0.55364 0.54277 0.0
H505 H 0.3846 0.52865 0.50542 0.0
H506 H 0.35585 1.22823 0.23694 0.0
H507 H 0.35787 1.29499 0.33144 0.0
H508 H 0.39726 1.46506 0.48497 0.0
C509 C 0.39334 0.30574 0.26491 0.0
C510 C 0.38478 0.23951 0.18957 0.0
C511 C 0.37202 0.19228 0.14983 0.0
C512 C 0.3678 0.21087 0.18471 0.0
C513 C 0.37641 0.27735 0.25975 0.0
C514 C 0.38892 0.32396 0.29929 0.0
C515 C 0.39628 0.39203 0.3792 0.0
C516 C 0.41218 0.35592 0.34737 0.0
C517 C 0.39613 0.50352 0.48345 0.0
C518 C 0.38605 0.37551 0.37762 0.0
C519 C 0.37464 0.30939 0.30849 0.0
C520 C 0.36469 1.28045 0.29165 0.0
C521 C 0.36593 1.31889 0.3458 0.0
C522 C 0.37768 1.38557 0.41592 0.0
C523 C 0.38806 1.41504 0.43269 0.0
H524 H 0.64585 1.48208 0.68846 0.0
H525 H 0.6301 1.50116 0.65626 0.0
H526 H 0.65308 1.5931 0.73909 0.0
H527 H 0.66266 1.72941 0.9341 0.0
H528 H 0.67805 1.68778 0.90566 0.0
H529 H 0.66037 1.6242 0.84446 0.0
H530 H 0.67298 1.4519 0.6678 0.0
H531 H 0.69071 1.51476 0.72843 0.0
H532 H 0.68405 1.43991 0.63735 0.0
H533 H 0.67839 1.67787 0.82043 0.0
H534 H 0.70393 1.74475 0.8898 0.0
H535 H 0.7021 1.67457 0.87337 0.0
C536 C 0.6472 1.50527 0.69848 0.0
C537 C 0.6362 1.4842 0.66563 0.0
C538 C 0.6384 1.51636 0.68069 0.0
C539 C 0.65139 1.56886 0.72792 0.0
C540 C 0.66195 1.58906 0.76012 0.0
C541 C 0.65997 1.55807 0.74585 0.0
C542 C 0.67301 1.58759 0.7858 0.0
C543 C 0.66823 1.66166 0.87267 0.0
C544 C 0.68064 1.49292 0.69972 0.0
C545 C 0.68276 1.63947 0.82421 0.0
C546 C 0.67623 1.63969 0.80885 0.0
C547 C 0.68354 1.67893 0.83366 0.0
C548 C 0.69802 1.7169 0.87316 0.0
C549 C 0.70496 1.7157 0.88782 0.0
C550 C 0.69705 1.67823 0.86475 0.0
H551 H 0.85652 0.46612 0.43172 0.0
H552 H 0.81197 0.57685 0.5309 0.0
H553 H 0.80362 0.51059 0.4928 0.0
H554 H 0.84585 0.23601 0.22417 0.0
H555 H 0.86056 0.23851 0.24186 0.0
H556 H 0.86317 0.29872 0.28134 0.0
H557 H 0.86954 0.46874 0.4637 0.0
H558 H 0.86773 1.40884 0.42459 0.0
H559 H 0.85733 1.5215 0.53062 0.0
H560 H 0.80066 1.42609 0.43739 0.0
H561 H 0.80226 1.33625 0.37572 0.0
H562 H 0.84923 1.2815 0.31315 0.0
C563 C 0.84503 0.47744 0.44644 0.0
C564 C 0.8349 0.52679 0.48441 0.0
C565 C 0.81995 0.53955 0.50213 0.0
C566 C 0.8151 0.502 0.48053 0.0
C567 C 0.82534 0.45227 0.44161 0.0
C568 C 0.84002 0.44059 0.42542 0.0
C569 C 0.84877 0.38302 0.38164 0.0
C570 C 0.85494 0.28315 0.27599 0.0
C571 C 0.86125 0.44951 0.45451 0.0
C572 C 0.83736 1.36338 0.37496 0.0
C573 C 0.82327 0.40387 0.4099 0.0
C574 C 0.81114 1.39442 0.41023 0.0
C575 C 0.81215 1.34302 0.3748 0.0
C576 C 0.82586 1.30181 0.33958 0.0
C577 C 0.83858 1.31202 0.33947 0.0
H578 H 0.7104 0.20307 0.0161 0.0
H579 H 0.70996 1.32184 1.17967 0.0
H580 H 0.68383 1.34738 1.21355 0.0
H581 H 0.68613 0.32534 0.16757 0.0
H582 H 0.67715 0.40264 0.22828 0.0
H583 H 0.69623 0.36453 0.18792 0.0
H584 H 0.68963 0.28563 0.08145 0.0
H585 H 0.67058 0.32349 0.12144 0.0
H586 H 0.67514 1.61408 1.42936 0.0
H587 H 0.65727 1.40216 1.27207 0.0
H588 H 0.63217 1.47691 1.34443 0.0
H589 H 0.65017 0.32074 0.14041 0.0
C590 C 0.70503 1.56446 1.40452 0.0
C591 C 0.71231 1.47158 1.3162 0.0
C592 C 0.70461 1.39372 1.24797 0.0
C593 C 0.6898 1.40775 1.26685 0.0
C594 C 0.68291 1.49999 1.35419 0.0
C595 C 0.69029 1.57688 1.42175 0.0
C596 C 0.67999 0.24357 0.06412 0.0
C597 C 0.68519 0.3397 0.16813 0.0
C598 C 0.67873 0.26222 0.06363 0.0
C599 C 0.66559 0.2037 0.03196 0.0
C600 C 0.66759 1.53074 1.38682 0.0
C601 C 0.6557 1.4768 1.34034 0.0
C602 C 0.64148 1.52001 1.38213 0.0
C603 C 0.63913 0.19387 0.02756 0.0
C604 C 0.6515 0.24785 0.07456 0.0
H605 H 0.48879 2.14446 1.18289 0.0
H606 H 0.5306 2.0431 1.10415 0.0
H607 H 0.53933 1.9942 1.02786 0.0
H608 H 0.48441 0.94593 0.95772 0.0
H609 H 0.47653 1.02481 1.01946 0.0
H610 H 0.47456 2.05756 1.07333 0.0
H611 H 0.48524 1.23569 1.24371 0.0
H612 H 0.48778 1.20384 1.19066 0.0
H613 H 0.50339 1.24584 1.24436 0.0
H614 H 0.54243 0.95063 0.95456 0.0
H615 H 0.54117 0.91975 0.89377 0.0
H616 H 0.49671 1.04763 1.01887 0.0
C617 C 0.49986 2.11318 1.1508 0.0
C618 C 0.50903 2.09789 1.14978 0.0
C619 C 0.52339 2.05581 1.10609 0.0
C620 C 0.52844 2.02768 1.06246 0.0
C621 C 0.519 2.04219 1.06323 0.0
C622 C 0.50505 2.08442 1.10672 0.0
C623 C 0.49625 1.08957 1.09534 0.0
C624 C 0.48193 1.02563 1.03272 0.0
C625 C 0.49298 1.20032 1.19973 0.0
C626 C 0.50775 1.04281 1.03784 0.0
C627 C 0.52044 1.01627 1.0203 0.0
C628 C 0.53257 0.97138 0.96813 0.0
C629 C 0.53173 0.95396 0.93372 0.0
C630 C 0.51884 0.98106 0.95136 0.0
C631 C 0.50671 1.02567 1.0038 0.0
H632 H 0.63413 0.67735 0.0029 0.0
H633 H 0.64947 1.79661 1.1585 0.0
H634 H 0.67516 1.86179 1.22549 0.0
H635 H 0.66398 0.73563 0.03451 0.0
H636 H 0.66499 0.86804 0.17071 0.0
H637 H 0.64759 0.80141 0.10647 0.0
H638 H 0.64537 0.8522 0.18764 0.0
H639 H 0.66278 0.91952 0.25267 0.0
H640 H 0.66028 0.8222 0.17221 0.0
H641 H 0.69921 1.95684 1.31868 0.0
H642 H 0.72028 2.07141 1.42619 0.0
H643 H 0.6894 0.88908 0.20729 0.0
C644 C 0.64294 2.04724 1.39674 0.0
C645 C 0.6399 1.94316 1.29672 0.0
C646 C 0.65159 1.87673 1.23558 0.0
C647 C 0.66618 1.91315 1.27314 0.0
C648 C 0.66885 2.01594 1.37157 0.0
C649 C 0.65756 2.08198 1.4324 0.0
C650 C 0.66346 0.76458 0.08998 0.0
C651 C 0.65979 0.79407 0.10098 0.0
C652 C 0.65762 0.84433 0.181 0.0
C653 C 0.67994 0.74648 0.07446 0.0
C654 C 0.68282 2.07005 1.42398 0.0
C655 C 0.69719 2.03422 1.39107 0.0
C656 C 0.70897 0.67813 0.01146 0.0
C657 C 0.70645 0.77842 0.10459 0.0
C658 C 0.6917 0.81316 0.13688 0.0
H659 H 0.48867 1.07044 0.55708 0.0
H660 H 0.52446 0.91072 0.37448 0.0
H661 H 0.52948 0.8141 0.30494 0.0
H662 H 0.50594 1.08099 0.60925 0.0
H663 H 0.48845 1.05978 0.59871 0.0
H664 H 0.48892 1.12502 0.64333 0.0
H665 H 0.47028 0.99427 0.50221 0.0
H666 H 0.46984 0.92838 0.45684 0.0
H667 H 0.47468 0.86081 0.37143 0.0
H668 H 0.52926 0.72537 0.24515 0.0
H669 H 0.52368 0.65055 0.19888 0.0
H670 H 0.48767 0.86628 0.41817 0.0
C671 C 0.49779 1.01687 0.50426 0.0
C672 C 0.50624 0.99855 0.47167 0.0
C673 C 0.51788 0.92625 0.40081 0.0
C674 C 0.52084 0.87117 0.36106 0.0
C675 C 0.51207 0.88942 0.39305 0.0
C676 C 0.50081 0.96083 0.46337 0.0
C677 C 0.49228 0.96065 0.47944 0.0
C678 C 0.49401 1.06267 0.5892 0.0
C679 C 0.4758 0.93442 0.45072 0.0
C680 C 0.50026 0.87635 0.40542 0.0
C681 C 0.51175 0.83704 0.35723 0.0
C682 C 0.52038 0.75616 0.28307 0.0
C683 C 0.51711 0.71407 0.25719 0.0
C684 C 0.50523 0.75243 0.30474 0.0
C685 C 0.49682 0.83519 0.38037 0.0
H686 H 0.69534 1.04918 0.71653 0.0
H687 H 0.68915 0.72924 0.39003 0.0
H688 H 0.66191 0.75446 0.41462 0.0
H689 H 0.66688 1.06497 0.76083 0.0
H690 H 0.66111 1.19183 0.88058 0.0
H691 H 0.68001 1.15309 0.83883 0.0
H692 H 0.67769 1.20184 0.85576 0.0
H693 H 0.65876 1.24135 0.89818 0.0
H694 H 0.66289 1.14823 0.79053 0.0
H695 H 0.63564 0.81041 0.4734 0.0
H696 H 0.61209 0.8899 0.56028 0.0
H697 H 0.63536 1.17276 0.84919 0.0
C698 C 0.68826 0.98508 0.65033 0.0
C699 C 0.69431 0.88747 0.55132 0.0
C700 C 0.68471 0.80472 0.46645 0.0
C701 C 0.66925 0.81846 0.47976 0.0
C702 C 0.66363 0.91527 0.57839 0.0
C703 C 0.67284 0.99718 0.66226 0.0
C704 C 0.664 1.09051 0.7592 0.0
C705 C 0.66825 1.12718 0.81295 0.0
C706 C 0.66595 1.1755 0.83009 0.0
C707 C 0.64839 1.04763 0.7165 0.0
C708 C 0.64842 0.94696 0.61229 0.0
C709 C 0.63545 0.88947 0.55506 0.0
C710 C 0.62212 0.93546 0.60531 0.0
C711 C 0.62185 1.03779 0.71177 0.0
C712 C 0.63516 1.09482 0.76801 0.0
H713 H 0.8346 1.54123 1.101 0.0
H714 H 0.81167 1.83041 1.38966 0.0
H715 H 0.80564 1.82039 1.34974 0.0
H716 H 0.85121 1.58651 1.10641 0.0
H717 H 0.8495 1.45698 0.97162 0.0
H718 H 0.85104 1.48402 1.0202 0.0
H719 H 0.82652 1.38612 0.92908 0.0
H720 H 0.82485 1.35912 0.88052 0.0
H721 H 0.80991 1.42187 0.95325 0.0
H722 H 0.80275 1.78051 1.27988 0.0
H723 H 0.80462 1.72059 1.19175 0.0
H724 H 0.83001 1.4592 0.95052 0.0
C725 C 0.82818 1.6021 1.15553 0.0
C726 C 0.82352 1.68641 1.24826 0.0
C727 C 0.81534 1.76512 1.31816 0.0
C728 C 0.8118 1.75982 1.29591 0.0
C729 C 0.81658 1.67553 1.20372 0.0
C730 C 0.82467 1.59842 1.13497 0.0
C731 C 0.82922 1.51891 1.0439 0.0
C732 C 0.84625 1.51123 1.03509 0.0
C733 C 0.8222 1.41539 0.9459 0.0
C734 C 0.82257 1.56387 1.0726 0.0
C735 C 0.81518 1.65356 1.16443 0.0
C736 C 0.80845 1.71019 1.20775 0.0
C737 C 0.80957 1.67532 1.15689 0.0
C738 C 0.81747 1.58505 1.06406 0.0
C739 C 0.82383 1.52809 1.02095 0.0
H740 H 0.18074 1.65498 1.33887 0.0
H741 H 0.16225 0.39953 0.10361 0.0
H742 H 0.18626 0.48686 0.19367 0.0
H743 H 0.21662 1.61522 1.3179 0.0
H744 H 0.22656 1.62865 1.31178 0.0
H745 H 0.20771 1.58273 1.26645 0.0
H746 H 0.20028 1.72604 1.38731 0.0
H747 H 0.21911 1.77274 1.43343 0.0
H748 H 0.20389 0.43452 0.08001 0.0
H749 H 0.21211 0.55605 0.26135 0.0
H750 H 0.23879 0.59295 0.29416 0.0
H751 H 0.24073 0.37709 0.04036 0.0
C752 C 0.18177 1.71017 1.40324 0.0
C753 C 0.16971 1.73164 1.43511 0.0
C754 C 0.17139 0.38151 0.07756 0.0
C755 C 0.18494 0.43198 0.1296 0.0
C756 C 0.19662 0.40917 0.09636 0.0
C757 C 0.19518 0.33835 0.01389 0.0
C758 C 0.20982 1.74643 1.43231 0.0
C759 C 0.21551 1.63676 1.32581 0.0
C760 C 0.20808 0.35536 0.00299 0.0
C761 C 0.21951 0.39843 0.07326 0.0
C762 C 0.21169 0.44724 0.13387 0.0
C763 C 0.21837 0.51837 0.21446 0.0
C764 C 0.23352 0.53899 0.23264 0.0
C765 C 0.24186 0.48791 0.16984 0.0
C766 C 0.23467 0.41753 0.08983 0.0
H767 H 0.39956 1.44063 1.00198 0.0
H768 H 0.36394 1.22907 0.78185 0.0
H769 H 0.35942 1.31878 0.84379 0.0
H770 H 0.38243 1.66346 1.20479 0.0
H771 H 0.3995 1.71442 1.24678 0.0
H772 H 0.39989 1.63424 1.18587 0.0
H773 H 0.41839 1.51291 1.05151 0.0
H774 H 0.41818 1.59322 1.11257 0.0
H775 H 0.41367 1.46032 0.97957 0.0
H776 H 0.35847 1.43351 0.932 0.0
H777 H 0.36258 1.55508 1.02903 0.0
H778 H 0.39927 1.68932 1.18889 0.0
C779 C 0.39082 1.4129 0.96654 0.0
C780 C 0.38207 1.32792 0.88717 0.0
C781 C 0.37081 1.29379 0.84251 0.0
C782 C 0.36811 1.34458 0.87755 0.0
C783 C 0.37682 1.42888 0.9568 0.0
C784 C 0.38806 1.46212 0.99997 0.0
C785 C 0.39608 1.55289 1.08219 0.0
C786 C 0.39437 1.6468 1.18605 0.0
C787 C 0.41256 1.52832 1.05477 0.0
C788 C 0.38762 1.56545 1.07841 0.0
C789 C 0.37646 1.49379 1.00629 0.0
C790 C 0.36718 1.48988 0.98856 0.0
C791 C 0.36958 1.55965 1.04448 0.0
C792 C 0.38125 1.63188 1.11669 0.0
C793 C 0.39024 1.63532 1.13451 0.0
H794 H 0.24373 1.31496 0.61247 0.0
H795 H 0.26108 1.28499 0.63313 0.0
H796 H 0.237 1.34324 0.70192 0.0
H797 H 0.22213 1.53956 0.84099 0.0
H798 H 0.20709 1.49922 0.78792 0.0
H799 H 0.22573 1.45619 0.7414 0.0
H800 H 0.21676 1.26912 0.55817 0.0
H801 H 0.19809 1.31161 0.60413 0.0
H802 H 0.20701 1.22478 0.53266 0.0
H803 H 0.21093 1.40632 0.76989 0.0
H804 H 0.18477 1.4641 0.82656 0.0
H805 H 0.18476 1.44876 0.75739 0.0
C806 C 0.24251 1.32085 0.63166 0.0
C807 C 0.25429 1.29573 0.61773 0.0
C808 C 0.25219 1.30378 0.64312 0.0
C809 C 0.23857 1.33694 0.68238 0.0
C810 C 0.22718 1.36114 0.69519 0.0
C811 C 0.229 1.35302 0.67013 0.0
C812 C 0.21499 1.38198 0.68947 0.0
C813 C 0.21765 1.47476 0.76973 0.0
C814 C 0.20885 1.29147 0.59019 0.0
C815 C 0.20499 1.40803 0.72968 0.0
C816 C 0.2122 1.39592 0.7328 0.0
C817 C 0.20516 1.41596 0.76768 0.0
C818 C 0.19033 1.44887 0.79983 0.0
C819 C 0.18273 1.46088 0.79635 0.0
C820 C 0.19023 1.44021 0.76089 0.0
H821 H 0.05603 1.02878 0.56169 0.0
H822 H 0.08549 0.78633 0.33838 0.0
H823 H 0.08837 0.73178 0.25538 0.0
H824 H 0.03714 0.8915 0.39548 0.0
H825 H 0.03574 0.99532 0.48334 0.0
H826 H 0.03685 1.02068 0.53035 0.0
H827 H 0.05981 1.136 0.63929 0.0
H828 H 0.05868 1.11178 0.59335 0.0
H829 H 0.0757 1.08629 0.57927 0.0
H830 H 0.0861 0.6933 0.18684 0.0
H831 H 0.08058 0.68364 0.14716 0.0
H832 H 0.05339 0.95459 0.41852 0.0
C833 C 0.06329 0.96529 0.49638 0.0
C834 C 0.07052 0.91184 0.45656 0.0
C835 C 0.07987 0.8288 0.3706 0.0
C836 C 0.08155 0.79699 0.32267 0.0
C837 C 0.07397 0.84974 0.36233 0.0
C838 C 0.0652 0.93307 0.44813 0.0
C839 C 0.05797 0.975 0.47392 0.0
C840 C 0.04092 0.97028 0.47052 0.0
C841 C 0.06337 1.08371 0.5776 0.0
C842 C 0.0638 0.90096 0.38804 0.0
C843 C 0.07298 0.82911 0.3243 0.0
C844 C 0.0791 0.74996 0.23695 0.0
C845 C 0.07584 0.74473 0.21472 0.0
C846 C 0.06665 0.81865 0.28005 0.0
C847 C 0.0606 0.89765 0.36777 0.0
H848 H 0.07641 0.16561 0.06142 0.0
H849 H 0.11767 1.4349 1.36529 0.0
H850 H 0.13174 0.16465 0.06474 0.0
H851 H 0.08989 0.28504 0.14267 0.0
H852 H 0.0794 0.40011 0.25919 0.0
H853 H 0.07253 0.28181 0.15069 0.0
H854 H 0.07103 0.36146 0.25873 0.0
H855 H 0.07797 0.48004 0.36761 0.0
H856 H 0.08738 0.41876 0.32424 0.0
H857 H 0.14141 0.33064 0.21739 0.0
H858 H 0.14602 0.49562 0.36653 0.0
H859 H 0.09847 0.53886 0.40327 0.0
C860 C 0.0884 0.16411 0.06108 0.0
C861 C 0.09601 1.49936 1.42309 0.0
C862 C 0.11171 1.5004 1.42525 0.0
C863 C 0.11973 0.16438 0.06371 0.0
C864 C 0.11199 0.24846 0.14065 0.0
C865 C 0.09668 0.24887 0.13981 0.0
C866 C 0.09107 0.34714 0.22926 0.0
C867 C 0.08273 0.3273 0.19327 0.0
C868 C 0.08129 0.40527 0.29909 0.0
C869 C 0.10564 0.40162 0.28001 0.0
C870 C 0.11756 0.34377 0.22819 0.0
C871 C 0.13216 0.37683 0.25887 0.0
C872 C 0.13465 0.47074 0.34377 0.0
C873 C 0.1226 0.53039 0.39682 0.0
C874 C 0.10791 0.49561 0.365 0.0
H875 H 0.13685 1.39645 0.58465 0.0
H876 H 0.13525 1.14649 0.30283 0.0
H877 H 0.12057 1.25213 0.38773 0.0
H878 H 0.09973 1.47917 0.65974 0.0
H879 H 0.10394 1.61244 0.79326 0.0
H880 H 0.11517 1.51976 0.71246 0.0
H881 H 0.13877 1.59203 0.76949 0.0
H882 H 0.1276 1.68498 0.8505 0.0
H883 H 0.13945 1.60093 0.75587 0.0
H884 H 0.10563 1.38161 0.5004 0.0
H885 H 0.09032 1.52492 0.63218 0.0
H886 H 0.10099 1.69076 0.84102 0.0
C887 C 0.13355 1.36433 0.54111 0.0
C888 C 0.13725 1.26341 0.43724 0.0
C889 C 0.13254 1.22361 0.38246 0.0
C890 C 0.12425 1.2831 0.43008 0.0
C891 C 0.12072 1.38202 0.53232 0.0
C892 C 0.12515 1.42239 0.58724 0.0
C893 C 0.11923 1.52924 0.69492 0.0
C894 C 0.1089 1.53546 0.7163 0.0
C895 C 0.13203 1.60634 0.77225 0.0
C896 C 0.11067 1.54213 0.69153 0.0
C897 C 0.11181 1.45655 0.59723 0.0
C898 C 0.10468 1.44922 0.57468 0.0
C899 C 0.096 1.53117 0.6502 0.0
C900 C 0.09444 1.61915 0.74701 0.0
C901 C 0.10201 1.62477 0.76796 0.0
H902 H 0.35195 1.53747 0.65887 0.0
H903 H 0.32979 1.65338 0.72913 0.0
H904 H 0.31703 1.78217 0.87346 0.0
H905 H 0.32152 1.5805 0.731 0.0
H906 H 0.33412 1.61785 0.78419 0.0
H907 H 0.34001 1.52819 0.68014 0.0
H908 H 0.36257 1.64337 0.78685 0.0
H909 H 0.35664 1.73409 0.89171 0.0
H910 H 0.35946 1.77378 0.90961 0.0
H911 H 0.3079 1.90506 1.01672 0.0
H912 H 0.30293 2.00991 1.14513 0.0
H913 H 0.33219 1.81647 0.98329 0.0
C914 C 0.34413 1.58815 0.70287 0.0
C915 C 0.34174 1.58484 0.68223 0.0
C916 C 0.3317 1.65423 0.74329 0.0
C917 C 0.32442 1.72765 0.82542 0.0
C918 C 0.32738 1.73078 0.84554 0.0
C919 C 0.33696 1.66249 0.78564 0.0
C920 C 0.33906 1.68579 0.82692 0.0
C921 C 0.33333 1.59786 0.75105 0.0
C922 C 0.3554 1.71075 0.85547 0.0
C923 C 0.32931 1.77863 0.92015 0.0
C924 C 0.32255 1.80304 0.92931 0.0
C925 C 0.3131 1.88639 1.01007 0.0
C926 C 0.31038 1.94564 1.08275 0.0
C927 C 0.31723 1.92173 1.07455 0.0
C928 C 0.32686 1.83734 0.99227 0.0
H929 H 0.3191 1.36245 1.20953 0.0
H930 H 0.34234 1.07523 0.93134 0.0
H931 H 0.36013 1.15613 1.0305 0.0
H932 H 0.35081 1.51987 1.36441 0.0
H933 H 0.34228 0.19914 0.03468 0.0
H934 H 0.33099 1.53927 1.38276 0.0
H935 H 0.31493 1.49456 1.36444 0.0
H936 H 0.32614 0.1547 0.01672 0.0
H937 H 0.32377 1.44541 1.33442 0.0
H938 H 0.37604 1.27019 1.16055 0.0
H939 H 0.38883 1.40819 1.31165 0.0
H940 H 0.35495 0.19921 0.06379 0.0
C941 C 0.32785 1.31613 1.16913 0.0
C942 C 0.32934 1.21245 1.06262 0.0
C943 C 0.34096 1.15472 1.01284 0.0
C944 C 0.35111 1.19998 1.06849 0.0
C945 C 0.34941 1.3027 1.17356 0.0
C946 C 0.33802 1.35992 1.22333 0.0
C947 C 0.33888 1.46946 1.33706 0.0
C948 C 0.3409 1.54163 1.39334 0.0
C949 C 0.32514 1.49816 1.37575 0.0
C950 C 0.35271 1.46546 1.34379 0.0
C951 C 0.35856 1.36844 1.24857 0.0
C952 C 0.37152 1.34629 1.23543 0.0
C953 C 0.37871 1.42541 1.32191 0.0
C954 C 0.37295 1.52564 1.42043 0.0
C955 C 0.35973 1.54541 1.43104 0.0
H956 H 0.80044 1.01826 0.15117 0.0
H957 H 0.81217 2.32895 1.43359 0.0
H958 H 0.79722 2.17488 1.28654 0.0
H959 H 0.80243 2.20688 1.3832 0.0
H960 H 0.78673 2.22974 1.41917 0.0
H961 H 0.7973 0.91304 0.07378 0.0
H962 H 0.77348 0.99297 0.14012 0.0
H963 H 0.76267 0.8882 0.04466 0.0
H964 H 0.76209 0.91917 0.05335 0.0
H965 H 0.78313 2.02476 1.14986 0.0
H966 H 0.76918 1.89654 1.0397 0.0
H967 H 0.76587 2.10958 1.29093 0.0
C968 C 0.79966 0.96226 0.08609 0.0
C969 C 0.80744 0.97476 0.08329 0.0
C970 C 0.80627 2.32139 1.43783 0.0
C971 C 0.79782 2.23338 1.3537 0.0
C972 C 0.79055 2.22238 1.35804 0.0
C973 C 0.79113 0.87447 0.00188 0.0
C974 C 0.78268 2.26495 1.42761 0.0
C975 C 0.79293 2.25875 1.4368 0.0
C976 C 0.76941 0.91513 0.0605 0.0
C977 C 0.77737 2.16075 1.31952 0.0
C978 C 0.78203 2.13738 1.28052 0.0
C979 C 0.77921 2.0428 1.18004 0.0
C980 C 0.77135 1.97037 1.11796 0.0
C981 C 0.76634 1.99352 1.15708 0.0
C982 C 0.76935 2.09021 1.25931 0.0
H983 H 0.77524 1.31083 1.18941 0.0
H984 H 0.78171 1.26943 1.09536 0.0
H985 H 0.79327 1.10329 0.93668 0.0
H986 H 0.81025 1.19687 1.08926 0.0
H987 H 0.80263 1.13881 1.05046 0.0
H988 H 0.79471 1.25463 1.15677 0.0
H989 H 0.76886 1.16785 1.06987 0.0
H990 H 0.77676 1.05134 0.96266 0.0
H991 H 0.76668 1.05183 0.94375 0.0
H992 H 0.80325 0.9391 0.78539 0.0
H993 H 0.81386 0.79582 0.65988 0.0
H994 H 0.8019 0.94533 0.85369 0.0
C995 C 0.77918 1.26709 1.13573 0.0
C996 C 0.77752 1.30325 1.15493 0.0
C997 C 0.78287 1.24375 1.08278 0.0
C998 C 0.78939 1.14882 0.99194 0.0
C999 C 0.79061 1.11462 0.97453 0.0
C1000 C 0.78589 1.17239 1.04488 0.0
C1001 C 0.78897 1.11882 1.00838 0.0
C1002 C 0.79979 1.18098 1.08049 0.0
C1003 C 0.77445 1.09612 0.9954 0.0
C1004 C 0.79614 1.02209 0.90665 0.0
C1005 C 0.7968 1.02075 0.88814 0.0
C1006 C 0.80287 0.93932 0.79908 0.0
C1007 C 0.80879 0.85803 0.728 0.0
C1008 C 0.80874 0.85945 0.74704 0.0
C1009 C 0.80212 0.94206 0.83698 0.0
H1010 H 0.55675 0.8621 0.74684 0.0
H1011 H 0.52126 0.68778 0.59793 0.0
H1012 H 0.53153 0.53074 0.43101 0.0
H1013 H 0.55767 0.72699 0.57575 0.0
H1014 H 0.57758 0.73216 0.57851 0.0
H1015 H 0.56807 0.83028 0.68668 0.0
H1016 H 0.58478 0.79615 0.67872 0.0
H1017 H 0.59437 0.69793 0.57049 0.0
H1018 H 0.58586 0.66955 0.56229 0.0
H1019 H 0.54454 0.39383 0.27974 0.0
H1020 H 0.55987 0.28746 0.1561 0.0
H1021 H 0.58705 0.55038 0.40359 0.0
C1022 C 0.55124 0.79081 0.67922 0.0
C1023 C 0.5382 0.78754 0.68576 0.0
C1024 C 0.53129 0.69252 0.59517 0.0
C1025 C 0.53703 0.60265 0.49977 0.0
C1026 C 0.54978 0.60869 0.49596 0.0
C1027 C 0.55687 0.70016 0.58321 0.0
C1028 C 0.57011 0.68614 0.55798 0.0
C1029 C 0.56823 0.74752 0.60235 0.0
C1030 C 0.58464 0.71409 0.59453 0.0
C1031 C 0.56914 0.57302 0.44317 0.0
C1032 C 0.55739 0.52953 0.40872 0.0
C1033 C 0.5539 0.42676 0.30568 0.0
C1034 C 0.56264 0.36699 0.23605 0.0
C1035 C 0.5747 0.41035 0.27 0.0
C1036 C 0.57801 0.51452 0.37491 0.0
H1037 H 0.55311 2.31547 1.42887 0.0
H1038 H 0.51541 2.25365 1.40013 0.0
H1039 H 0.52468 0.95681 0.1024 0.0
H1040 H 0.57989 0.92109 0.04842 0.0
H1041 H 0.59011 1.02012 0.13564 0.0
H1042 H 0.58039 0.92536 0.03019 0.0
H1043 H 0.56615 1.06775 0.15513 0.0
H1044 H 0.57565 1.1629 0.2611 0.0
H1045 H 0.55563 1.15931 0.25725 0.0
H1046 H 0.53702 1.0965 0.25594 0.0
H1047 H 0.55385 1.22205 0.39255 0.0
H1048 H 0.58458 1.18608 0.31576 0.0
C1049 C 0.54681 0.90566 0.01085 0.0
C1050 C 0.53351 2.27503 1.40351 0.0
C1051 C 0.52576 2.29252 1.43586 0.0
C1052 C 0.53081 0.94214 0.07658 0.0
C1053 C 0.54387 0.99439 0.1245 0.0
C1054 C 0.55197 0.97552 0.09159 0.0
C1055 C 0.56595 1.03984 0.1545 0.0
C1056 C 0.57991 0.97258 0.08823 0.0
C1057 C 0.56583 1.1117 0.21029 0.0
C1058 C 0.56436 1.09819 0.22824 0.0
C1059 C 0.55141 1.07191 0.21051 0.0
C1060 C 0.54727 1.11711 0.27007 0.0
C1061 C 0.55686 1.18897 0.34803 0.0
C1062 C 0.57054 1.21366 0.36463 0.0
C1063 C 0.57421 1.16851 0.30465 0.0
H1064 H 0.55404 1.25656 0.66869 0.0
H1065 H 0.50954 1.36456 0.76422 0.0
H1066 H 0.51975 1.53155 0.92111 0.0
H1067 H 0.5688 1.49435 0.9197 0.0
H1068 H 0.58675 1.4779 0.89389 0.0
H1069 H 0.57594 1.36843 0.79184 0.0
H1070 H 0.5774 1.29942 0.69356 0.0
H1071 H 0.58834 1.40798 0.79469 0.0
H1072 H 0.57143 1.37887 0.75492 0.0
H1073 H 0.53467 1.68567 1.06606 0.0
H1074 H 0.55354 1.80995 1.17962 0.0
H1075 H 0.58847 1.60057 0.98762 0.0
C1076 C 0.54646 1.3156 0.72296 0.0
C1077 C 0.531 1.29767 0.70441 0.0
C1078 C 0.52143 1.3764 0.77661 0.0
C1079 C 0.52711 1.47185 0.86641 0.0
C1080 C 0.54238 1.48728 0.88271 0.0
C1081 C 0.55196 1.4111 0.81256 0.0
C1082 C 0.56799 1.44555 0.84545 0.0
C1083 C 0.5753 1.44662 0.86382 0.0
C1084 C 0.5768 1.37902 0.76754 0.0
C1085 C 0.56592 1.55234 0.94416 0.0
C1086 C 0.55105 1.57549 0.96514 0.0
C1087 C 0.54636 1.66864 1.0507 0.0
C1088 C 0.55717 1.73892 1.115 0.0
C1089 C 0.57249 1.71501 1.09251 0.0
C1090 C 0.57686 1.62131 1.00714 0.0
H1091 H 0.53455 1.76272 1.40499 0.0
H1092 H 0.50484 1.60844 1.21848 0.0
H1093 H 0.51548 1.44346 1.06411 0.0
H1094 H 0.56631 1.59893 1.23658 0.0
H1095 H 0.57211 1.60347 1.26254 0.0
H1096 H 0.56231 1.70934 1.35799 0.0
H1097 H 0.54249 1.69744 1.36963 0.0
H1098 H 0.55221 1.59141 1.27405 0.0
H1099 H 0.5329 1.57899 1.2562 0.0
H1100 H 0.52877 1.29408 0.92979 0.0
H1101 H 0.54436 1.1735 0.82679 0.0
H1102 H 0.56557 1.42714 1.10212 0.0
C1103 C 0.53032 1.69435 1.33172 0.0
C1104 C 0.51886 1.69854 1.32388 0.0
C1105 C 0.51365 1.60721 1.22646 0.0
C1106 C 0.51961 1.51304 1.13824 0.0
C1107 C 0.53083 1.51154 1.14871 0.0
C1108 C 0.5362 1.59987 1.24297 0.0
C1109 C 0.54826 1.57759 1.23358 0.0
C1110 C 0.56313 1.62515 1.27512 0.0
C1111 C 0.54368 1.61347 1.28649 0.0
C1112 C 0.54874 1.46294 1.11944 0.0
C1113 C 0.5386 1.42604 1.07163 0.0
C1114 C 0.53682 1.32214 0.96636 0.0
C1115 C 0.54569 1.25426 0.90853 0.0
C1116 C 0.55622 1.29085 0.95629 0.0
C1117 C 0.55771 1.39661 1.06309 0.0
H1118 H 0.74822 0.67434 0.29936 0.0
H1119 H 0.78099 0.80656 0.46309 0.0
H1120 H 0.79926 0.6784 0.32769 0.0
H1121 H 0.75788 0.41745 0.05229 0.0
H1122 H 0.75542 1.80107 1.43452 0.0
H1123 H 0.74484 0.48416 0.10504 0.0
H1124 H 0.75467 0.60126 0.19705 0.0
H1125 H 0.76495 0.49614 0.0848 0.0
H1126 H 0.77442 0.61248 0.20482 0.0
H1127 H 0.81328 0.52882 0.16935 0.0
H1128 H 0.82348 0.38086 0.0086 0.0
H1129 H 0.78214 1.77 1.39043 0.0
C1130 C 0.75931 0.67735 0.30755 0.0
C1131 C 0.76316 0.75055 0.39191 0.0
C1132 C 0.77779 0.75172 0.3996 0.0
C1133 C 0.78823 0.67878 0.32271 0.0
C1134 C 0.78392 0.60591 0.23921 0.0
C1135 C 0.76992 0.60568 0.23194 0.0
C1136 C 0.7682 0.51902 0.13416 0.0
C1137 C 0.75582 0.44562 0.06723 0.0
C1138 C 0.7654 0.55967 0.15657 0.0
C1139 C 0.78337 0.46993 0.08713 0.0
C1140 C 0.7922 0.52086 0.14872 0.0
C1141 C 0.80654 0.48887 0.1209 0.0
C1142 C 0.81219 0.40418 0.02894 0.0
C1143 C 0.8037 1.77471 1.40744 0.0
C1144 C 0.78901 1.80756 1.43668 0.0
H1145 H 0.76916 0.96913 0.34501 0.0
H1146 H 0.76337 1.15782 0.48725 0.0
H1147 H 0.77104 1.30826 0.65174 0.0
H1148 H 0.75661 1.15534 0.55927 0.0
H1149 H 0.77037 1.11947 0.53911 0.0
H1150 H 0.76347 1.0268 0.43309 0.0
H1151 H 0.79038 0.98917 0.38624 0.0
H1152 H 0.79734 1.08104 0.49152 0.0
H1153 H 0.80195 1.09226 0.48081 0.0
H1154 H 0.77987 1.43769 0.79989 0.0
H1155 H 0.79137 1.53482 0.91862 0.0
H1156 H 0.79207 1.2622 0.68014 0.0
C1157 C 0.7694 1.04223 0.41094 0.0
C1158 C 0.76561 1.05168 0.40325 0.0
C1159 C 0.76625 1.14853 0.49109 0.0
C1160 C 0.7705 1.23468 0.58514 0.0
C1161 C 0.77415 1.22287 0.59022 0.0
C1162 C 0.77377 1.12909 0.50545 0.0
C1163 C 0.7791 1.13657 0.53068 0.0
C1164 C 0.76664 1.10784 0.51458 0.0
C1165 C 0.79302 1.07089 0.46865 0.0
C1166 C 0.78272 1.24884 0.64241 0.0
C1167 C 0.77957 1.29744 0.67553 0.0
C1168 C 0.78234 1.40065 0.77506 0.0
C1169 C 0.78883 1.45525 0.84202 0.0
C1170 C 0.79263 1.40623 0.8088 0.0
C1171 C 0.78924 1.30207 0.7081 0.0
H1172 H 0.36857 1.02458 0.66016 0.0
H1173 H 0.33355 1.18934 0.79718 0.0
H1174 H 0.3164 1.04519 0.65974 0.0
H1175 H 0.35954 0.77814 0.40139 0.0
H1176 H 0.36387 0.71392 0.35727 0.0
H1177 H 0.37329 0.83026 0.46673 0.0
H1178 H 0.3649 0.9107 0.57402 0.0
H1179 H 0.35559 0.7943 0.46466 0.0
H1180 H 0.34543 0.91217 0.58075 0.0
H1181 H 0.30321 0.88089 0.50503 0.0
H1182 H 0.29462 0.71532 0.35259 0.0
H1183 H 0.33852 0.66038 0.31893 0.0
C1184 C 0.35728 1.03082 0.66177 0.0
C1185 C 0.35241 1.11833 0.7395 0.0
C1186 C 0.33753 1.12321 0.7386 0.0
C1187 C 0.32773 1.04155 0.66062 0.0
C1188 C 0.33299 0.95584 0.58439 0.0
C1189 C 0.3474 0.95042 0.58492 0.0
C1190 C 0.35031 0.85064 0.49524 0.0
C1191 C 0.36247 0.78966 0.42608 0.0
C1192 C 0.35429 0.86803 0.53082 0.0
C1193 C 0.33527 0.80056 0.44401 0.0
C1194 C 0.32544 0.86205 0.49613 0.0
C1195 C 0.31082 0.83214 0.46363 0.0
C1196 C 0.30607 0.73778 0.37674 0.0
C1197 C 0.3159 0.6747 0.32363 0.0
C1198 C 0.33074 0.70641 0.35737 0.0
H1199 H 0.35839 0.68517 0.09329 0.0
H1200 H 0.34382 1.85556 1.25567 0.0
H1201 H 0.32813 1.97329 1.35552 0.0
H1202 H 0.32316 0.82581 0.23213 0.0
H1203 H 0.33236 0.94734 0.35102 0.0
H1204 H 0.34131 0.84172 0.25697 0.0
H1205 H 0.36424 0.86437 0.26012 0.0
H1206 H 0.35534 0.96951 0.35358 0.0
H1207 H 0.36179 0.86271 0.23619 0.0
H1208 H 0.31542 0.69787 0.04458 0.0
H1209 H 0.30655 0.86218 0.19586 0.0
H1210 H 0.32968 1.01834 0.38991 0.0
C1211 C 0.35168 0.65432 0.05287 0.0
C1212 C 0.35234 1.97198 1.38726 0.0
C1213 C 0.34354 1.93509 1.33754 0.0
C1214 C 0.33459 2.00133 1.39359 0.0
C1215 C 0.33443 0.68209 0.05773 0.0
C1216 C 0.34275 0.71932 0.10756 0.0
C1217 C 0.34139 0.83363 0.22173 0.0
C1218 C 0.33412 0.86388 0.26818 0.0
C1219 C 0.35659 0.88556 0.27073 0.0
C1220 C 0.33121 0.85521 0.22845 0.0
C1221 C 0.32724 0.7667 0.13301 0.0
C1222 C 0.31833 0.76758 0.1197 0.0
C1223 C 0.31338 0.86143 0.20623 0.0
C1224 C 0.31739 0.95327 0.30489 0.0
C1225 C 0.32634 0.94959 0.3157 0.0
H1226 H 0.09727 1.8241 1.18279 0.0
H1227 H 0.13441 1.71633 1.10611 0.0
H1228 H 0.13028 1.85577 1.26373 0.0
H1229 H 0.10386 0.66677 0.0079 0.0
H1230 H 0.08446 0.70001 0.04198 0.0
H1231 H 0.09025 2.01255 1.36358 0.0
H1232 H 0.07257 1.89793 1.26778 0.0
H1233 H 0.06667 2.00723 1.38732 0.0
H1234 H 0.07398 1.89774 1.29 0.0
H1235 H 0.1224 2.01064 1.43296 0.0
H1236 H 0.10971 0.73547 0.14935 0.0
H1237 H 0.07785 0.7403 0.11349 0.0
C1238 C 0.10447 1.82906 1.19846 0.0
C1239 C 0.11617 1.75924 1.13204 0.0
C1240 C 0.12534 1.76869 1.15564 0.0
C1241 C 0.12314 1.84802 1.24532 0.0
C1242 C 0.11172 1.917 1.31033 0.0
C1243 C 0.10243 1.90748 1.28732 0.0
C1244 C 0.09084 1.99059 1.36898 0.0
C1245 C 0.09253 2.05738 1.41925 0.0
C1246 C 0.07508 1.94568 1.32594 0.0
C1247 C 0.09489 0.62639 0.00015 0.0
C1248 C 0.10716 2.00534 1.40694 0.0
C1249 C 0.11276 0.62297 0.01937 0.0
C1250 C 0.10559 0.70677 0.10927 0.0
C1251 C 0.09279 0.74955 0.14396 0.0
C1252 C 0.08764 0.70978 0.08942 0.0
H1253 H 0.10497 1.49829 1.166 0.0
H1254 H 0.14053 1.30312 0.99112 0.0
H1255 H 0.13403 1.17605 0.84451 0.0
H1256 H 0.07897 1.30476 0.96789 0.0
H1257 H 0.07122 1.36 1.00377 0.0
H1258 H 0.07945 1.44042 1.0987 0.0
H1259 H 0.09721 1.51676 1.15187 0.0
H1260 H 0.08897 1.43679 1.05728 0.0
H1261 H 0.10875 1.43335 1.05736 0.0
H1262 H 0.12237 1.06336 0.712 0.0
H1263 H 0.10676 0.97551 0.60451 0.0
H1264 H 0.07914 1.24442 0.86549 0.0
C1265 C 0.11155 1.42965 1.09748 0.0
C1266 C 0.12326 1.41082 1.09021 0.0
C1267 C 0.1315 1.31945 0.99872 0.0
C1268 C 0.12792 1.24669 0.91488 0.0
C1269 C 0.11614 1.26658 0.92377 0.0
C1270 C 0.10814 1.35608 1.01289 0.0
C1271 C 0.09556 1.35634 1.00061 0.0
C1272 C 0.08041 1.36591 1.01879 0.0
C1273 C 0.09776 1.44082 1.07096 0.0
C1274 C 0.09755 1.25217 0.89015 0.0
C1275 C 0.10952 1.20181 0.84736 0.0
C1276 C 0.11308 1.10245 0.7449 0.0
C1277 C 0.10414 1.05308 0.68439 0.0
C1278 C 0.09181 1.10329 0.72671 0.0
C1279 C 0.08861 1.20445 0.83118 0.0
H1280 H 0.11335 0.55086 0.33995 0.0
H1281 H 0.15299 0.73431 0.51421 0.0
H1282 H 0.15113 0.71145 0.46118 0.0
H1283 H 0.12222 0.36873 0.12901 0.0
H1284 H 0.10316 0.3516 0.1058 0.0
H1285 H 0.10735 0.38959 0.16426 0.0
H1286 H 0.09008 0.54598 0.31467 0.0
H1287 H 0.08635 0.50928 0.25724 0.0
H1288 H 0.09364 0.63388 0.38463 0.0
H1289 H 0.14533 0.66521 0.38598 0.0
H1290 H 0.13843 0.57828 0.27419 0.0
H1291 H 0.10284 0.42147 0.14551 0.0
C1292 C 0.1216 0.58653 0.36724 0.0
C1293 C 0.1333 0.6445 0.4313 0.0
C1294 C 0.14399 0.68903 0.46453 0.0
C1295 C 0.14292 0.67743 0.43575 0.0
C1296 C 0.13116 0.62066 0.37335 0.0
C1297 C 0.12081 0.57461 0.33818 0.0
C1298 C 0.10995 0.51088 0.26539 0.0
C1299 C 0.11073 0.39858 0.1599 0.0
C1300 C 0.09406 0.55254 0.30808 0.0
C1301 C 0.11599 0.5266 0.26347 0.0
C1302 C 0.12802 0.59192 0.32795 0.0
C1303 C 0.13588 0.61436 0.3356 0.0
C1304 C 0.1318 0.56493 0.27207 0.0
C1305 C 0.12011 0.49256 0.20056 0.0
C1306 C 0.11176 0.47665 0.19957 0.0
H1307 H 0.85324 1.5672 0.64867 0.0
H1308 H 0.85814 1.34453 0.46851 0.0
H1309 H 0.87814 1.44763 0.58262 0.0
H1310 H 0.88967 1.6061 0.68025 0.0
H1311 H 0.88889 1.7408 0.80922 0.0
H1312 H 0.87283 1.66311 0.72871 0.0
H1313 H 0.85698 1.77537 0.85908 0.0
H1314 H 0.87295 1.85506 0.94143 0.0
H1315 H 0.86321 1.79833 0.90274 0.0
H1316 H 0.00852 1.55409 0.69237 0.0
H1317 H 0.03036 1.66706 0.8023 0.0
H1318 H 0.01074 1.82397 0.91496 0.0
C1319 C 0.8581 1.542 0.63544 0.0
C1320 C 0.85409 1.4477 0.54956 0.0
C1321 C 0.86094 1.41669 0.53403 0.0
C1322 C 0.87234 1.47476 0.59845 0.0
C1323 C 0.8766 1.56441 0.67897 0.0
C1324 C 0.86948 1.59919 0.69914 0.0
C1325 C 0.87715 1.69249 0.78417 0.0
C1326 C 0.88245 1.67445 0.74837 0.0
C1327 C 0.86696 1.78585 0.8774 0.0
C1328 C 0.89013 1.70149 0.80496 0.0
C1329 C 0.88952 1.62746 0.74413 0.0
C1330 C 0.00893 1.61401 0.74226 0.0
C1331 C 0.02135 1.67794 0.80426 0.0
C1332 C 0.02217 1.75455 0.86748 0.0
C1333 C 0.01027 1.76719 0.86871 0.0
H1334 H 0.30434 1.58734 0.90376 0.0
H1335 H 0.33461 1.36757 0.66528 0.0
H1336 H 0.34449 1.49958 0.77686 0.0
H1337 H 0.2938 1.6971 0.97682 0.0
H1338 H 0.29285 1.82659 1.11177 0.0
H1339 H 0.29068 1.72411 1.02522 0.0
H1340 H 0.31235 1.794 1.11204 0.0
H1341 H 0.31445 1.89835 1.20061 0.0
H1342 H 0.33013 1.81842 1.12655 0.0
H1343 H 0.34622 1.63813 0.89277 0.0
H1344 H 0.34207 1.78273 1.01631 0.0
H1345 H 0.31207 1.91849 1.18608 0.0
C1346 C 0.3135 1.56806 0.87659 0.0
C1347 C 0.31864 1.46698 0.77562 0.0
C1348 C 0.33049 1.44444 0.74235 0.0
C1349 C 0.3362 1.51907 0.80531 0.0
C1350 C 0.33021 1.61643 0.90214 0.0
C1351 C 0.3194 1.64202 0.9389 0.0
C1352 C 0.31367 1.74872 1.04118 0.0
C1353 C 0.29676 1.74902 1.03845 0.0
C1354 C 0.31791 1.81904 1.12507 0.0
C1355 C 0.32217 1.7762 1.05264 0.0
C1356 C 0.33177 1.69923 0.97208 0.0
C1357 C 0.33919 1.70061 0.95819 0.0
C1358 C 0.33669 1.78241 1.02807 0.0
C1359 C 0.32699 1.862 1.11118 0.0
C1360 C 0.31991 1.85989 1.12476 0.0
H1361 H 0.49255 1.26273 1.15907 0.0
H1362 H 0.5242 1.3628 1.29511 0.0
H1363 H 0.50939 0.09704 0.01203 0.0
H1364 H 0.48069 1.52414 1.40142 0.0
H1365 H 0.46175 1.48088 1.35686 0.0
H1366 H 0.47688 1.39393 1.26748 0.0
H1367 H 0.46578 1.27197 1.16925 0.0
H1368 H 0.45085 1.35887 1.25893 0.0
H1369 H 0.46258 1.31775 1.23528 0.0
H1370 H 0.48871 0.22289 0.14053 0.0
H1371 H 0.46437 0.30722 0.22732 0.0
H1372 H 0.44588 0.11807 0.00163 0.0
C1373 C 0.49682 1.3195 1.22359 0.0
C1374 C 0.50957 1.30058 1.21469 0.0
C1375 C 0.51452 1.37591 1.30032 0.0
C1376 C 0.50624 1.46496 1.39066 0.0
C1377 C 0.4931 1.47772 1.39426 0.0
C1378 C 0.48854 1.40747 1.3132 0.0
C1379 C 0.47297 1.42954 1.32888 0.0
C1380 C 0.47309 1.45891 1.33932 0.0
C1381 C 0.46244 1.33921 1.24304 0.0
C1382 C 0.46913 1.51959 1.42854 0.0
C1383 C 0.48086 0.12629 0.02531 0.0
C1384 C 0.47947 0.20249 0.11246 0.0
C1385 C 0.46559 0.24969 0.16103 0.0
C1386 C 0.45323 0.21898 0.12103 0.0
C1387 C 0.45513 0.14342 0.03421 0.0
H1388 H 0.118 1.3432 0.65575 0.0
H1389 H 0.15355 1.18219 0.52219 0.0
H1390 H 0.15945 1.09197 0.40715 0.0
H1391 H 0.10708 1.12963 0.41645 0.0
H1392 H 0.1034 1.21682 0.48565 0.0
H1393 H 0.10048 1.25598 0.54554 0.0
H1394 H 0.11789 1.41001 0.69262 0.0
H1395 H 0.12118 1.37026 0.63229 0.0
H1396 H 0.13662 1.38866 0.66442 0.0
H1397 H 0.1644 1.04321 0.32942 0.0
H1398 H 0.1655 1.01833 0.27438 0.0
H1399 H 0.12617 1.20524 0.45288 0.0
C1400 C 0.12666 1.28622 0.59978 0.0
C1401 C 0.1353 1.26993 0.59818 0.0
C1402 C 0.14669 1.19567 0.52463 0.0
C1403 C 0.1502 1.14432 0.45919 0.0
C1404 C 0.14203 1.16664 0.46694 0.0
C1405 C 0.13025 1.23382 0.53348 0.0
C1406 C 0.12385 1.24918 0.53135 0.0
C1407 C 0.10775 1.21056 0.49239 0.0
C1408 C 0.12496 1.36115 0.63639 0.0
C1409 C 0.13419 1.18266 0.45563 0.0
C1410 C 0.14463 1.13598 0.41962 0.0
C1411 C 0.15609 1.07742 0.35522 0.0
C1412 C 0.15671 1.0646 0.32525 0.0
C1413 C 0.14586 1.1094 0.35899 0.0
C1414 C 0.13447 1.16901 0.42489 0.0
H1415 H 0.43521 1.48489 0.55766 0.0
H1416 H 0.40531 1.58146 0.69226 0.0
H1417 H 0.42547 1.68271 0.80475 0.0
H1418 H 0.46944 1.47479 0.57252 0.0
H1419 H 0.48077 1.52693 0.60753 0.0
H1420 H 0.46454 1.45272 0.52929 0.0
H1421 H 0.4542 1.60116 0.65794 0.0
H1422 H 0.47047 1.67502 0.73561 0.0
H1423 H 0.45227 1.72509 0.78949 0.0
H1424 H 0.44835 1.77724 0.90584 0.0
H1425 H 0.47126 1.87944 1.00703 0.0
H1426 H 0.4861 1.7296 0.81396 0.0
C1427 C 0.433 1.52654 0.61012 0.0
C1428 C 0.41878 1.52503 0.61604 0.0
C1429 C 0.41615 1.58194 0.68685 0.0
C1430 C 0.42756 1.63878 0.75026 0.0
C1431 C 0.44148 1.63864 0.74254 0.0
C1432 C 0.4442 1.58541 0.67551 0.0
C1433 C 0.45971 1.60655 0.68986 0.0
C1434 C 0.46917 1.50945 0.59408 0.0
C1435 C 0.45912 1.65486 0.72006 0.0
C1436 C 0.46515 1.68144 0.77672 0.0
C1437 C 0.45458 1.69688 0.80416 0.0
C1438 C 0.45676 1.76553 0.88484 0.0
C1439 C 0.46986 1.823 0.94166 0.0
C1440 C 0.48049 1.81272 0.9186 0.0
C1441 C 0.47826 1.7387 0.83306 0.0
H1442 H 0.27768 1.18576 0.94766 0.0
H1443 H 0.32333 1.2317 1.0087 0.0
H1444 H 0.32714 1.35161 1.10375 0.0
H1445 H 0.28406 1.21159 0.9276 0.0
H1446 H 0.26692 1.27979 0.99186 0.0
H1447 H 0.26836 1.18639 0.91607 0.0
H1448 H 0.26034 1.32095 1.07062 0.0
H1449 H 0.25872 1.41397 1.1461 0.0
H1450 H 0.27052 1.43869 1.18818 0.0
H1451 H 0.32536 1.47774 1.20501 0.0
H1452 H 0.31741 1.61308 1.31927 0.0
H1453 H 0.27282 1.48684 1.19427 0.0
C1454 C 0.28855 1.21957 0.97937 0.0
C1455 C 0.30023 1.19897 0.97029 0.0
C1456 C 0.31422 1.24635 1.01468 0.0
C1457 C 0.31653 1.31386 1.06802 0.0
C1458 C 0.30476 1.33312 1.07621 0.0
C1459 C 0.29101 1.28784 1.03364 0.0
C1460 C 0.27975 1.32979 1.06283 0.0
C1461 C 0.27446 1.24693 0.96898 0.0
C1462 C 0.26657 1.37878 1.12038 0.0
C1463 C 0.28917 1.40845 1.13157 0.0
C1464 C 0.30365 1.4075 1.13636 0.0
C1465 C 0.31411 1.47838 1.20089 0.0
C1466 C 0.30949 1.55492 1.26541 0.0
C1467 C 0.29448 1.56075 1.26589 0.0
C1468 C 0.2844 1.48394 1.19503 0.0
H1469 H 0.02185 0.14131 0.03038 0.0
H1470 H 0.01174 1.34812 1.29888 0.0
H1471 H 0.8782 1.41537 1.36672 0.0
H1472 H 0.00276 0.34599 0.25016 0.0
H1473 H 0.88863 0.39805 0.28196 0.0
H1474 H 0.01337 0.32467 0.21039 0.0
H1475 H 0.00288 0.20413 0.06876 0.0
H1476 H 0.87799 0.27671 0.13965 0.0
H1477 H 0.87733 0.1421 0.01089 0.0
H1478 H 0.8542 0.09206 0.02112 0.0
H1479 H 0.83501 0.22511 0.15019 0.0
H1480 H 0.8611 0.37642 0.2613 0.0
C1481 C 0.01415 0.10725 0.00553 0.0
C1482 C 0.01878 1.45002 1.37954 0.0
C1483 C 0.00849 1.40885 1.35046 0.0
C1484 C 0.88597 1.44595 1.38789 0.0
C1485 C 0.88176 0.10232 0.013 0.0
C1486 C -0.00037 0.14402 0.04292 0.0
C1487 C 0.88503 0.2339 0.12256 0.0
C1488 C 0.00194 0.33136 0.22211 0.0
C1489 C 0.88375 0.2129 0.08305 0.0
C1490 C 0.86988 0.23772 0.13447 0.0
C1491 C 0.8681 0.16018 0.0694 0.0
C1492 C 0.8554 0.15242 0.07161 0.0
C1493 C 0.84452 0.22821 0.145 0.0
C1494 C 0.84652 0.31121 0.21585 0.0
C1495 C 0.85914 0.31349 0.20762 0.0
H1496 H 0.74031 1.72192 0.98097 0.0
H1497 H 0.77533 1.87222 1.10136 0.0
H1498 H 0.78479 1.9484 1.20249 0.0
H1499 H 0.73195 1.92513 1.2064 0.0
H1500 H 0.72798 1.85251 1.15328 0.0
H1501 H 0.72573 1.79528 1.07668 0.0
H1502 H 0.74356 1.64994 0.94198 0.0
H1503 H 0.74597 1.70776 1.0192 0.0
H1504 H 0.76195 1.68022 0.97926 0.0
H1505 H 0.7884 2.02626 1.30719 0.0
H1506 H 0.78447 2.11106 1.41785 0.0
H1507 H 0.74721 1.9105 1.22999 0.0
C1508 C 0.75019 1.7688 1.02665 0.0
C1509 C 0.75713 1.79067 1.03286 0.0
C1510 C 0.76983 1.85429 1.09533 0.0
C1511 C 0.77539 1.89719 1.15235 0.0
C1512 C 0.76816 1.87544 1.14583 0.0
C1513 C 0.75581 1.81287 1.0847 0.0
C1514 C 0.74897 1.81201 1.10107 0.0
C1515 C 0.73271 1.84846 1.13652 0.0
C1516 C 0.75019 1.70617 1.00462 0.0
C1517 C 0.75895 1.88772 1.18453 0.0
C1518 C 0.77018 1.92143 1.20742 0.0
C1519 C 0.77984 1.99909 1.28875 0.0
C1520 C 0.77754 2.04677 1.35119 0.0
C1521 C 0.76556 2.01733 1.33254 0.0
C1522 C 0.75663 1.93364 1.24532 0.0
H1523 H 0.05151 0.89826 0.83123 0.0
H1524 H 0.04278 1.15333 1.05001 0.0
H1525 H 0.02337 1.05425 0.9381 0.0
H1526 H 0.04214 0.69054 0.59422 0.0
H1527 H 0.0339 0.61308 0.53387 0.0
H1528 H 0.0495 0.69404 0.61854 0.0
H1529 H 0.03417 0.77773 0.72469 0.0
H1530 H 0.01846 0.69903 0.64215 0.0
H1531 H 0.01651 0.83526 0.77656 0.0
H1532 H 0.00114 0.94904 0.82899 0.0
H1533 H 0.8717 0.83236 0.71492 0.0
H1534 H 0.00327 0.63919 0.55908 0.0
C1535 C 0.04597 0.93167 0.85354 0.0
C1536 C 0.04862 1.03371 0.94961 0.0
C1537 C 0.04098 1.07528 0.97678 0.0
C1538 C 0.02991 1.01949 0.91358 0.0
C1539 C 0.02688 0.92146 0.82243 0.0
C1540 C 0.03496 0.87656 0.79079 0.0
C1541 C 0.02841 0.77455 0.69497 0.0
C1542 C 0.03913 0.68792 0.60506 0.0
C1543 C 0.02413 0.77161 0.71065 0.0
C1544 C 0.01479 0.77274 0.6821 0.0
C1545 C 0.01421 0.85776 0.75587 0.0
C1546 C 0.00171 0.8803 0.76854 0.0
C1547 C 0.88159 0.81433 0.70424 0.0
C1548 C 0.88206 0.72656 0.62778 0.0
C1549 C 0.00288 0.7045 0.61531 0.0
H1550 H 0.59916 0.73883 0.46734 0.0
H1551 H 0.55224 0.76491 0.48123 0.0
H1552 H 0.54681 0.62291 0.36046 0.0
H1553 H 0.60032 0.462 0.19939 0.0
H1554 H 0.61327 0.47038 0.22472 0.0
H1555 H 0.61346 0.56533 0.30223 0.0
H1556 H 0.61019 0.70596 0.46326 0.0
H1557 H 0.60982 0.61162 0.38639 0.0
H1558 H 0.59463 0.69984 0.47133 0.0
H1559 H 0.54648 0.48762 0.24941 0.0
H1560 H 0.55118 0.36822 0.15473 0.0
H1561 H 0.59835 0.43617 0.21909 0.0
C1562 C 0.58774 0.71366 0.44367 0.0
C1563 C 0.57611 0.76269 0.48339 0.0
C1564 C 0.56133 0.72795 0.45119 0.0
C1565 C 0.55815 0.64754 0.38281 0.0
C1566 C 0.56989 0.60295 0.34753 0.0
C1567 C 0.5844 0.6345 0.37648 0.0
C1568 C 0.59493 0.57917 0.33343 0.0
C1569 C 0.60616 0.51542 0.26059 0.0
C1570 C 0.60285 0.6536 0.41869 0.0
C1571 C 0.58406 0.51251 0.27695 0.0
C1572 C 0.56969 0.5266 0.2852 0.0
C1573 C 0.5577 0.47539 0.24175 0.0
C1574 C 0.56049 0.40794 0.18838 0.0
C1575 C 0.57514 0.39287 0.17951 0.0
C1576 C 0.58704 0.44583 0.2243 0.0
H1577 H 0.39192 1.00894 0.08032 0.0
H1578 H 0.40348 1.18119 0.29453 0.0
H1579 H 0.42611 1.07856 0.19658 0.0
H1580 H 0.40773 2.18095 1.29015 0.0
H1581 H 0.41405 2.14886 1.23785 0.0
H1582 H 0.39755 2.22463 1.31527 0.0
H1583 H 0.40898 2.36345 1.43326 0.0
H1584 H 0.42563 2.28952 1.35787 0.0
H1585 H 0.42664 0.99568 0.05067 0.0
H1586 H 0.44944 0.98178 0.09665 0.0
H1587 H 0.47063 2.29876 1.42499 0.0
H1588 H 0.44367 2.18177 1.26908 0.0
C1589 C 0.39893 1.02275 0.10466 0.0
C1590 C 0.39592 1.10332 0.19528 0.0
C1591 C 0.40549 1.11973 0.22523 0.0
C1592 C 0.41842 1.06197 0.17022 0.0
C1593 C 0.42147 0.98683 0.08439 0.0
C1594 C 0.41183 0.96509 0.05002 0.0
C1595 C 0.41835 2.30655 1.40058 0.0
C1596 C 0.40885 2.20948 1.30531 0.0
C1597 C 0.42003 2.34675 1.42232 0.0
C1598 C 0.43334 2.28988 1.39224 0.0
C1599 C 0.43484 0.92772 0.02387 0.0
C1600 C 0.44818 0.93266 0.03748 0.0
C1601 C 0.46024 2.29559 1.41506 0.0
C1602 C 0.4587 2.2319 1.33814 0.0
C1603 C 0.44504 2.22872 1.32637 0.0
H1604 H 0.71562 1.19055 0.90135 0.0
H1605 H 0.76109 1.21726 0.91017 0.0
H1606 H 0.76666 1.33416 1.04875 0.0
H1607 H 0.71194 1.45567 1.17971 0.0
H1608 H 0.70107 1.41148 1.15354 0.0
H1609 H 0.69999 1.34657 1.06977 0.0
H1610 H 0.70691 1.17766 0.91775 0.0
H1611 H 0.70822 1.24187 1.00078 0.0
H1612 H 0.72384 1.17043 0.92258 0.0
H1613 H 0.76828 1.42353 1.16433 0.0
H1614 H 0.76568 1.48512 1.25393 0.0
H1615 H 0.71909 1.39949 1.16916 0.0
C1616 C 0.72664 1.22336 0.93444 0.0
C1617 C 0.73792 1.19502 0.89516 0.0
C1618 C 0.75225 1.23854 0.93962 0.0
C1619 C 0.7555 1.30499 1.01835 0.0
C1620 C 0.74426 1.3278 1.05221 0.0
C1621 C 0.73006 1.28933 1.01257 0.0
C1622 C 0.72038 1.31676 1.0544 0.0
C1623 C 0.70759 1.38682 1.11817 0.0
C1624 C 0.71451 1.22098 0.96877 0.0
C1625 C 0.73155 1.37285 1.12038 0.0
C1626 C 0.7452 1.37963 1.11921 0.0
C1627 C 0.75758 1.42053 1.1675 0.0
C1628 C 0.756 1.45467 1.21761 0.0
C1629 C 0.74216 1.44735 1.21874 0.0
C1630 C 0.72974 1.40746 1.17088 0.0
H1631 H 0.40286 0.60964 0.53379 0.0
H1632 H 0.4105 0.57275 0.44444 0.0
H1633 H 0.42673 0.72382 0.59361 0.0
H1634 H 0.40756 0.90143 0.82343 0.0
H1635 H 0.41716 0.89034 0.83212 0.0
H1636 H 0.40247 0.80253 0.74032 0.0
H1637 H 0.42044 0.65251 0.5975 0.0
H1638 H 0.43522 0.73895 0.68761 0.0
H1639 H 0.43765 0.64639 0.57998 0.0
H1640 H 0.44642 0.8464 0.7214 0.0
H1641 H 0.46778 0.93322 0.81992 0.0
H1642 H 0.44823 0.88917 0.82533 0.0
C1643 C 0.40728 0.63682 0.54887 0.0
C1644 C 0.40528 0.58064 0.47863 0.0
C1645 C 0.41177 0.61568 0.49821 0.0
C1646 C 0.42097 0.70157 0.58292 0.0
C1647 C 0.42354 0.75149 0.64722 0.0
C1648 C 0.41673 0.72123 0.63202 0.0
C1649 C 0.42338 0.77503 0.70003 0.0
C1650 C 0.41196 0.84662 0.77867 0.0
C1651 C 0.42954 0.69865 0.63751 0.0
C1652 C 0.43572 0.83438 0.75021 0.0
C1653 C 0.43533 0.82209 0.72097 0.0
C1654 C 0.44661 0.85898 0.74713 0.0
C1655 C 0.45876 0.90752 0.80246 0.0
C1656 C 0.4596 0.91815 0.83047 0.0
C1657 C 0.4477 0.88396 0.80673 0.0
H1658 H 0.60528 1.22164 0.47328 0.0
H1659 H 0.58276 1.07429 0.28666 0.0
H1660 H 0.57725 0.92672 0.15903 0.0
H1661 H 0.6223 0.99252 0.26332 0.0
H1662 H 0.6205 1.03118 0.3229 0.0
H1663 H 0.6224 1.12551 0.39985 0.0
H1664 H 0.59802 1.21064 0.49387 0.0
H1665 H 0.59592 1.11551 0.41599 0.0
H1666 H 0.5812 1.13646 0.42183 0.0
H1667 H 0.57331 0.79901 0.05567 0.0
H1668 H 0.57458 2.10893 1.41109 0.0
H1669 H 0.6006 0.91365 0.21956 0.0
C1670 C 0.59925 1.15803 0.40527 0.0
C1671 C 0.59439 1.15933 0.38984 0.0
C1672 C 0.58665 1.07451 0.29963 0.0
C1673 C 0.58336 0.9908 0.22719 0.0
C1674 C 0.58805 0.99279 0.24569 0.0
C1675 C 0.59609 1.07318 0.33142 0.0
C1676 C 0.6004 1.05414 0.33061 0.0
C1677 C 0.61741 1.05059 0.32903 0.0
C1678 C 0.59347 1.13395 0.42095 0.0
C1679 C 0.59349 0.95056 0.2311 0.0
C1680 C 0.58623 0.91735 0.18418 0.0
C1681 C 0.579 0.82394 0.09142 0.0
C1682 C 0.57963 0.76118 0.04357 0.0
C1683 C 0.58762 0.79158 0.08795 0.0
C1684 C 0.59437 0.88845 0.18392 0.0
H1685 H 0.02055 2.02814 1.16913 0.0
H1686 H 0.06245 2.19048 1.32664 0.0
H1687 H 0.04869 0.93007 0.04088 0.0
H1688 H 0.00409 2.15519 1.26233 0.0
H1689 H 0.87767 2.15717 1.2729 0.0
H1690 H 0.89036 2.05795 1.18083 0.0
H1691 H 0.88713 2.1031 1.25657 0.0
H1692 H 0.87414 2.20131 1.34779 0.0
H1693 H 0.89017 2.23186 1.39043 0.0
H1694 H 0.03053 1.07008 0.1723 0.0
H1695 H 0.00935 1.1779 0.2702 0.0
H1696 H 0.87171 0.92006 0.02137 0.0
C1697 C 0.02686 2.09811 1.23751 0.0
C1698 C 0.04255 2.09722 1.23654 0.0
C1699 C 0.05041 2.18993 1.32643 0.0
C1700 C 0.04276 2.28185 1.41496 0.0
C1701 C 0.02728 2.27941 1.41191 0.0
C1702 C 0.01942 2.18993 1.32563 0.0
C1703 C 0.00298 2.20549 1.33799 0.0
C1704 C 0.8895 2.14009 1.25883 0.0
C1705 C 0.88609 2.18421 1.33293 0.0
C1706 C 0.00271 0.89528 0.00248 0.0
C1707 C 0.01679 0.93701 0.04449 0.0
C1708 C 0.01944 1.03844 0.14055 0.0
C1709 C 0.00735 1.09894 0.19536 0.0
C1710 C 0.88493 1.05736 0.15334 0.0
C1711 C 0.88266 0.95414 0.05559 0.0
H1712 H 0.60313 1.72508 0.94101 0.0
H1713 H 0.56905 1.49831 0.72675 0.0
H1714 H 0.56787 1.5522 0.80925 0.0
H1715 H 0.6225 1.69303 0.94639 0.0
H1716 H 0.62682 1.82527 1.08007 0.0
H1717 H 0.62398 1.77785 1.01251 0.0
H1718 H 0.60334 1.91146 1.13925 0.0
H1719 H 0.60633 1.96087 1.20865 0.0
H1720 H 0.58802 1.92038 1.16246 0.0
H1721 H 0.57245 1.61553 0.90052 0.0
H1722 H 0.58006 1.70113 1.0109 0.0
H1723 H 0.61072 1.8901 1.16921 0.0
C1724 C 0.59512 1.68863 0.91316 0.0
C1725 C 0.58619 1.60739 0.8273 0.0
C1726 C 0.57598 1.56089 0.79253 0.0
C1727 C 0.57526 1.59064 0.8386 0.0
C1728 C 0.58469 1.66777 0.92007 0.0
C1729 C 0.5942 1.71768 0.95855 0.0
C1730 C 0.60351 1.79579 1.04474 0.0
C1731 C 0.62019 1.77147 1.01935 0.0
C1732 C 0.60009 1.90351 1.1447 0.0
C1733 C 0.59794 1.78037 1.04716 0.0
C1734 C 0.58713 1.70587 0.97431 0.0
C1735 C 0.58074 1.67508 0.95891 0.0
C1736 C 0.58523 1.72362 1.02148 0.0
C1737 C 0.59595 1.80257 1.09893 0.0
C1738 C 0.60245 1.83041 1.11104 0.0
H1739 H 0.41095 1.51178 1.15329 0.0
H1740 H 0.38811 1.68164 1.28225 0.0
H1741 H 0.40569 1.82336 1.42586 0.0
H1742 H 0.42296 1.74011 1.40463 0.0
H1743 H 0.44046 1.67986 1.3498 0.0
H1744 H 0.42396 1.60385 1.27207 0.0
H1745 H 0.43751 1.49933 1.14624 0.0
H1746 H 0.45389 1.57584 1.22409 0.0
H1747 H 0.44527 1.56392 1.19215 0.0
H1748 H 0.42865 0.50447 0.08926 0.0
H1749 H 0.45416 0.56894 0.15719 0.0
H1750 H 0.46192 1.75611 1.4039 0.0
C1751 C 0.40924 1.58049 1.21391 0.0
C1752 C 0.39816 1.58548 1.20639 0.0
C1753 C 0.39645 1.67613 1.2865 0.0
C1754 C 0.40641 1.75715 1.36849 0.0
C1755 C 0.41783 1.74696 1.37006 0.0
C1756 C 0.41908 1.66178 1.296 0.0
C1757 C 0.43333 1.6637 1.30794 0.0
C1758 C 0.42997 1.67244 1.33527 0.0
C1759 C 0.44306 1.57021 1.21194 0.0
C1760 C 0.4403 1.76014 1.39646 0.0
C1761 C 0.43111 1.80786 1.43215 0.0
C1762 C 0.43576 0.46961 0.06412 0.0
C1763 C 0.4503 0.50514 0.10161 0.0
C1764 C 0.45986 0.45704 0.06572 0.0
C1765 C 0.45473 1.79573 1.43436 0.0
H1766 H 0.73317 0.74278 0.4635 0.0
H1767 H 0.78036 0.81045 0.52842 0.0
H1768 H 0.78458 0.69588 0.43929 0.0
H1769 H 0.73049 0.72001 0.48699 0.0
H1770 H 0.71728 0.61738 0.38436 0.0
H1771 H 0.7178 0.71363 0.46335 0.0
H1772 H 0.72137 0.57467 0.30372 0.0
H1773 H 0.72076 0.47836 0.22456 0.0
H1774 H 0.7365 0.48586 0.21812 0.0
H1775 H 0.78399 0.558 0.32513 0.0
H1776 H 0.77852 0.40795 0.19466 0.0
H1777 H 0.73167 0.43776 0.21217 0.0
C1778 C 0.74436 0.73477 0.46037 0.0
C1779 C 0.75643 0.7854 0.50276 0.0
C1780 C 0.77093 0.77254 0.49665 0.0
C1781 C 0.77343 0.70795 0.44654 0.0
C1782 C 0.7613 0.65805 0.40435 0.0
C1783 C 0.74704 0.67142 0.41151 0.0
C1784 C 0.73605 0.60397 0.35393 0.0
C1785 C 0.72474 0.66757 0.42652 0.0
C1786 C 0.72822 0.53143 0.27013 0.0
C1787 C 0.74643 0.54756 0.30983 0.0
C1788 C 0.76094 0.58042 0.34056 0.0
C1789 C 0.77263 0.53291 0.30205 0.0
C1790 C 0.76943 0.44785 0.22809 0.0
C1791 C 0.75467 0.41137 0.19352 0.0
C1792 C 0.74305 0.46428 0.2377 0.0
H1793 H 0.8786 1.49491 0.93849 0.0
H1794 H 0.85332 1.43603 0.8354 0.0
H1795 H 0.87465 1.34343 0.73219 0.0
H1796 H 0.02333 1.52059 0.9443 0.0
H1797 H 0.03268 1.45394 0.89512 0.0
H1798 H 0.01608 1.52583 0.97039 0.0
H1799 H 0.00368 1.36593 0.82543 0.0
H1800 H 0.02028 1.29427 0.75064 0.0
H1801 H 0.00268 1.25091 0.69983 0.0
H1802 H 0.00599 1.25171 0.63514 0.0
H1803 H 0.0285 1.14568 0.53126 0.0
H1804 H 0.03836 1.25684 0.69065 0.0
C1805 C 0.87766 1.46346 0.89504 0.0
C1806 C 0.86438 1.47308 0.89531 0.0
C1807 C 0.8634 1.42929 0.83603 0.0
C1808 C 0.8755 1.37747 0.77801 0.0
C1809 C 0.88846 1.36942 0.77944 0.0
C1810 C 0.88956 1.40981 0.83513 0.0
C1811 C 0.01212 1.38128 0.81505 0.0
C1812 C 0.02161 1.47608 0.91201 0.0
C1813 C 0.00953 1.3194 0.77003 0.0
C1814 C 0.01889 1.31675 0.73774 0.0
C1815 C 0.00978 1.313 0.72021 0.0
C1816 C 0.01329 1.25446 0.64856 0.0
C1817 C 0.02615 1.19471 0.59013 0.0
C1818 C 0.03521 1.1927 0.60257 0.0
C1819 C 0.03175 1.2573 0.67984 0.0
H1820 H 0.60991 1.17211 0.91948 0.0
H1821 H 0.5624 1.17897 0.91694 0.0
H1822 H 0.55822 1.24884 1.01397 0.0
H1823 H 0.608 1.10669 0.8991 0.0
H1824 H 0.62333 1.18822 0.98503 0.0
H1825 H 0.62255 1.13132 0.90849 0.0
H1826 H 0.62454 1.30931 1.07041 0.0
H1827 H 0.62551 1.36639 1.14704 0.0
H1828 H 0.61145 1.40672 1.17228 0.0
H1829 H 0.55926 1.32448 1.11738 0.0
H1830 H 0.56577 1.41575 1.23336 0.0
H1831 H 0.61252 1.36089 1.16944 0.0
C1832 C 0.59862 1.18753 0.93861 0.0
C1833 C 0.58649 1.16969 0.91026 0.0
C1834 C 0.57189 1.19214 0.93793 0.0
C1835 C 0.56937 1.23113 0.9924 0.0
C1836 C 0.58157 1.24744 1.01881 0.0
C1837 C 0.59592 1.2272 0.99363 0.0
C1838 C 0.60716 1.25823 1.03728 0.0
C1839 C 0.61577 1.16557 0.95239 0.0
C1840 C 0.61778 1.34003 1.11114 0.0
C1841 C 0.59692 1.3008 1.09249 0.0
C1842 C 0.58218 1.29243 1.07964 0.0
C1843 C 0.57076 1.33073 1.12735 0.0
C1844 C 0.57455 1.38192 1.1926 0.0
C1845 C 0.58963 1.39513 1.21014 0.0
C1846 C 0.60087 1.35148 1.15709 0.0
H1847 H 0.00255 1.71078 1.29946 0.0
H1848 H 0.87508 1.72659 1.36443 0.0
H1849 H 0.00533 0.39063 0.01832 0.0
H1850 H 0.04206 1.67972 1.28246 0.0
H1851 H 0.04886 1.76022 1.34538 0.0
H1852 H 0.03234 1.68492 1.26798 0.0
H1853 H 0.01758 1.84701 1.41999 0.0
H1854 H 0.03392 0.50027 0.05573 0.0
H1855 H 0.0172 0.531 0.09734 0.0
H1856 H 0.02824 0.49165 0.12243 0.0
H1857 H 0.04901 0.61296 0.23962 0.0
H1858 H 0.05388 0.53315 0.10869 0.0
C1859 C 0.00316 1.73038 1.33188 0.0
C1860 C 0.88315 1.71167 1.32422 0.0
C1861 C 0.8842 1.74035 1.36948 0.0
C1862 C 0.0049 1.78833 1.42293 0.0
C1863 C 0.01655 1.80698 1.43033 0.0
C1864 C 0.0158 1.77928 1.38641 0.0
C1865 C 0.0291 1.81873 1.41575 0.0
C1866 C 0.03866 1.73062 1.32231 0.0
C1867 C 0.02409 0.4675 0.02984 0.0
C1868 C 0.03696 0.45468 0.04512 0.0
C1869 C 0.02971 0.44487 0.05052 0.0
C1870 C 0.03418 0.49862 0.11764 0.0
C1871 C 0.046 0.56736 0.18393 0.0
C1872 C 0.0531 0.58237 0.18317 0.0
C1873 C 0.04886 0.5222 0.11002 0.0
H1874 H 0.73577 1.06712 0.3338 0.0
H1875 H 0.78282 1.00837 0.26882 0.0
H1876 H 0.78326 1.12783 0.36307 0.0
H1877 H 0.72656 1.1045 0.32548 0.0
H1878 H 0.71358 1.20464 0.429 0.0
H1879 H 0.71639 1.1025 0.34286 0.0
H1880 H 0.7228 1.23321 0.49487 0.0
H1881 H 0.71999 1.33527 0.58104 0.0
H1882 H 0.73742 1.32437 0.58121 0.0
H1883 H 0.77956 1.2717 0.48508 0.0
H1884 H 0.7718 1.42831 0.625 0.0
H1885 H 0.72707 1.38932 0.60581 0.0
C1886 C 0.74607 1.07741 0.33717 0.0
C1887 C 0.75924 1.02834 0.29388 0.0
C1888 C 0.77257 1.04507 0.30136 0.0
C1889 C 0.77293 1.11244 0.35431 0.0
C1890 C 0.75984 1.16167 0.39841 0.0
C1891 C 0.74662 1.14432 0.38963 0.0
C1892 C 0.73447 1.21384 0.45196 0.0
C1893 C 0.72201 1.1527 0.38319 0.0
C1894 C 0.72832 1.28061 0.532 0.0
C1895 C 0.74309 1.276 0.50069 0.0
C1896 C 0.75766 1.24389 0.46778 0.0
C1897 C 0.76809 1.29622 0.50982 0.0
C1898 C 0.7636 1.38515 0.58932 0.0
C1899 C 0.74882 1.42069 0.62587 0.0
C1900 C 0.73839 1.36333 0.57851 0.0
H1901 H 0.46067 1.26473 0.68037 0.0
H1902 H 0.4406 0.98269 0.41891 0.0
H1903 H 0.41592 1.06555 0.50077 0.0
H1904 H 0.43932 1.4283 0.86632 0.0
H1905 H 0.43808 1.52655 0.94767 0.0
H1906 H 0.45375 1.44202 0.86443 0.0
H1907 H 0.44824 1.39286 0.78525 0.0
H1908 H 0.43242 1.47667 0.86777 0.0
H1909 H 0.43013 1.3446 0.73215 0.0
H1910 H 0.39382 1.18474 0.61891 0.0
H1911 H 0.37652 1.33027 0.76416 0.0
H1912 H 0.41131 1.52977 0.94262 0.0
C1913 C 0.45109 1.21991 0.63976 0.0
C1914 C 0.45255 1.11734 0.54339 0.0
C1915 C 0.43972 1.0615 0.49291 0.0
C1916 C 0.42567 1.10774 0.53856 0.0
C1917 C 0.42464 1.20926 0.63389 0.0
C1918 C 0.43704 1.2644 0.6836 0.0
C1919 C 0.43318 1.3735 0.78736 0.0
C1920 C 0.44158 1.44686 0.87135 0.0
C1921 C 0.43617 1.39831 0.79342 0.0
C1922 C 0.41672 1.37217 0.78975 0.0
C1923 C 0.41193 1.27674 0.70039 0.0
C1924 C 0.39739 1.25942 0.68859 0.0
C1925 C 0.38764 1.34247 0.77141 0.0
C1926 C 0.39252 1.44128 0.86453 0.0
C1927 C 0.40712 1.45507 0.8721 0.0
H1928 H 0.28221 0.75129 0.53583 0.0
H1929 H 0.32882 0.75011 0.54853 0.0
H1930 H 0.33423 0.63583 0.41206 0.0
H1931 H 0.27995 0.48851 0.26009 0.0
H1932 H 0.26776 0.52752 0.28195 0.0
H1933 H 0.26731 0.59297 0.36622 0.0
H1934 H 0.27204 0.76361 0.51933 0.0
H1935 H 0.27269 0.69885 0.43576 0.0
H1936 H 0.28815 0.77655 0.51889 0.0
H1937 H 0.33476 0.53591 0.28647 0.0
H1938 H 0.33054 0.46481 0.18817 0.0
H1939 H 0.28381 0.54268 0.26858 0.0
C1940 C 0.2935 0.72471 0.50802 0.0
C1941 C 0.30508 0.75872 0.55204 0.0
C1942 C 0.31976 0.72418 0.51515 0.0
C1943 C 0.32293 0.65922 0.43764 0.0
C1944 C 0.31128 0.63001 0.39839 0.0
C1945 C 0.29686 0.66165 0.43239 0.0
C1946 C 0.28658 0.62983 0.38705 0.0
C1947 C 0.2747 0.55525 0.31981 0.0
C1948 C 0.27946 0.72274 0.47022 0.0
C1949 C 0.29754 0.57771 0.32427 0.0
C1950 C 0.31168 0.57659 0.3299 0.0
C1951 C 0.32371 0.53553 0.28078 0.0
C1952 C 0.32121 0.49549 0.2253 0.0
C1953 C 0.30687 0.49876 0.22129 0.0
C1954 C 0.29491 0.53942 0.27057 0.0
H1955 H 0.49017 0.66062 0.08678 0.0
H1956 H 0.47659 0.88531 0.27189 0.0
H1957 H 0.45507 0.77915 0.15974 0.0
H1958 H 0.47671 1.85259 1.27714 0.0
H1959 H 0.47092 1.79032 1.23464 0.0
H1960 H 0.48675 1.8744 1.31775 0.0
H1961 H 0.47434 0.55655 0.00269 0.0
H1962 H 0.45847 1.89654 1.36292 0.0
H1963 H 0.45608 0.6095 0.05174 0.0
H1964 H 0.4326 0.66911 0.05198 0.0
H1965 H 0.41248 1.96962 1.3795 0.0
H1966 H 0.44093 1.81036 1.25729 0.0
C1967 C 0.483 0.68569 0.1015 0.0
C1968 C 0.48509 0.78147 0.18834 0.0
C1969 C 0.47531 0.81211 0.20568 0.0
C1970 C 0.463 0.75239 0.14248 0.0
C1971 C 0.46079 0.66129 0.06107 0.0
C1972 C 0.47072 0.62653 0.0386 0.0
C1973 C 0.46526 1.9518 1.39281 0.0
C1974 C 0.47552 1.86194 1.30007 0.0
C1975 C 0.4635 1.96547 1.42524 0.0
C1976 C 0.45033 1.94057 1.37324 0.0
C1977 C 0.44806 2.01709 1.4372 0.0
C1978 C 0.4344 0.60717 -0.0005 0.0
C1979 C 0.42305 1.96045 1.37673 0.0
C1980 C 0.42523 1.88035 1.30921 0.0
C1981 C 0.43909 1.86986 1.30689 0.0
H1982 H 0.1682 2.10646 1.36521 0.0
H1983 H 0.12756 2.15313 1.38318 0.0
H1984 H 0.11695 1.99702 1.24174 0.0
H1985 H 0.16833 1.82729 1.0886 0.0
H1986 H 0.1754 1.81887 1.10125 0.0
H1987 H 0.18025 1.92585 1.19388 0.0
H1988 H 0.17025 2.04835 1.3374 0.0
H1989 H 0.16527 1.94204 1.24543 0.0
H1990 H 0.15139 2.03439 1.33088 0.0
H1991 H 0.11024 1.84242 1.10695 0.0
H1992 H 0.10794 1.70732 0.99504 0.0
H1993 H 0.15295 1.77039 1.07372 0.0
C1994 C 0.15716 2.08317 1.33843 0.0
C1995 C 0.14871 2.1417 1.38493 0.0
C1996 C 0.13426 2.10894 1.34813 0.0
C1997 C 0.12816 2.02043 1.26787 0.0
C1998 C 0.13672 1.96587 1.22545 0.0
C1999 C 0.15095 1.99608 1.25946 0.0
C2000 C 0.15752 1.92988 1.20761 0.0
C2001 C 0.17118 1.87203 1.14405 0.0
C2002 C 0.16132 1.99241 1.28494 0.0
C2003 C 0.14464 1.85905 1.14082 0.0
C2004 C 0.13279 1.87952 1.15059 0.0
C2005 C 0.1195 1.8253 1.09818 0.0
C2006 C 0.11829 1.7489 1.03498 0.0
C2007 C 0.13024 1.72896 1.02632 0.0
C2008 C 0.14359 1.78416 1.07913 0.0
H2009 H 0.02393 1.05055 0.64073 0.0
H2010 H 0.02681 0.97057 0.61419 0.0
H2011 H 0.00314 1.05969 0.70739 0.0
H2012 H 0.01055 1.29648 0.88903 0.0
H2013 H 0.89045 1.29451 0.86926 0.0
H2014 H 0.01473 1.21626 0.7923 0.0
H2015 H 0.89052 1.05709 0.62977 0.0
H2016 H 0.87407 1.13507 0.70657 0.0
H2017 H 0.87531 1.02821 0.61512 0.0
H2018 H 0.87253 1.17251 0.81867 0.0
H2019 H 0.85312 1.30142 0.94051 0.0
H2020 H 0.86477 1.30034 0.88696 0.0
C2021 C 0.01951 1.05064 0.65336 0.0
C2022 C 0.02722 1.00362 0.6202 0.0
C2023 C 0.02108 1.00591 0.63871 0.0
C2024 C 0.0076 1.056 0.69125 0.0
C2025 C 0.00033 1.10229 0.72361 0.0
C2026 C 0.00605 1.09953 0.7049 0.0
C2027 C 0.88865 1.16011 0.7527 0.0
C2028 C 0.00559 1.24697 0.83043 0.0
C2029 C 0.88173 1.09096 0.67115 0.0
C2030 C 0.87697 1.20005 0.80396 0.0
C2031 C 0.87921 1.16528 0.7857 0.0
C2032 C 0.8705 1.19887 0.83211 0.0
C2033 C 0.85949 1.27196 0.90108 0.0
C2034 C 0.85734 1.3105 0.92279 0.0
C2035 C 0.86593 1.27143 0.871 0.0
H2036 H 0.32877 1.0191 0.28802 0.0
H2037 H 0.28578 1.16527 0.42751 0.0
H2038 H 0.28569 1.12716 0.35974 0.0
H2039 H 0.34396 1.09313 0.32026 0.0
H2040 H 0.35287 0.97196 0.19772 0.0
H2041 H 0.35039 1.02152 0.26735 0.0
H2042 H 0.33642 0.8572 0.11394 0.0
H2043 H 0.33909 0.80691 0.04374 0.0
H2044 H 0.32062 0.81584 0.0611 0.0
H2045 H 0.28949 1.06179 0.26614 0.0
H2046 H 0.29531 0.95771 0.13881 0.0
H2047 H 0.3357 0.8529 0.05941 0.0
C2048 C 0.31945 1.04472 0.30588 0.0
C2049 C 0.30734 1.09586 0.36368 0.0
C2050 C 0.29519 1.12614 0.38349 0.0
C2051 C 0.29511 1.10564 0.34611 0.0
C2052 C 0.30725 1.05499 0.28928 0.0
C2053 C 0.31913 1.02415 0.26852 0.0
C2054 C 0.33007 0.96169 0.19694 0.0
C2055 C 0.34522 1.01532 0.2487 0.0
C2056 C 0.33163 0.85408 0.09812 0.0
C2057 C 0.32233 0.96003 0.17859 0.0
C2058 C 0.30933 1.0159 0.23402 0.0
C2059 C 0.29975 1.0191 0.22355 0.0
C2060 C 0.30322 0.96015 0.15138 0.0
C2061 C 0.31603 0.89753 0.08947 0.0
C2062 C 0.32596 0.90107 0.10656 0.0
H2063 H 0.83891 1.96455 1.41002 0.0
H2064 H 0.84615 1.84856 1.24562 0.0
H2065 H 0.86787 1.96122 1.35373 0.0
H2066 H 0.852 0.80933 0.22339 0.0
H2067 H 0.86051 0.81763 0.25186 0.0
H2068 H 0.84404 0.74164 0.17398 0.0
H2069 H 0.85784 0.58605 0.03273 0.0
H2070 H 0.87441 0.66065 0.10899 0.0
H2071 H 0.87517 1.96713 1.42444 0.0
H2072 H 0.89082 0.64058 0.01641 0.0
H2073 H 0.02049 0.73695 0.1215 0.0
H2074 H 0.89023 0.79019 0.22115 0.0
C2075 C 0.84474 1.96531 1.39896 0.0
C2076 C 0.84081 1.89777 1.31938 0.0
C2077 C 0.8489 1.89991 1.30635 0.0
C2078 C 0.86127 1.96362 1.36737 0.0
C2079 C 0.86516 0.60366 0.00045 0.0
C2080 C 0.85698 0.60653 0.01785 0.0
C2081 C 0.86438 0.67331 0.09668 0.0
C2082 C 0.85465 0.766 0.19215 0.0
C2083 C 0.86814 0.61264 0.05268 0.0
C2084 C 0.87829 0.70413 0.11776 0.0
C2085 C 0.87846 0.66369 0.06197 0.0
C2086 C 0.89068 0.67455 0.06219 0.0
C2087 C 0.01094 0.72869 0.12146 0.0
C2088 C 0.01096 0.77147 0.17987 0.0
C2089 C 0.89044 0.75961 0.17847 0.0
H2090 H 0.12287 1.3468 1.09009 0.0
H2091 H 0.10525 1.54354 1.32277 0.0
H2092 H 0.10493 1.39811 1.19891 0.0
H2093 H 0.10284 1.11382 0.8725 0.0
H2094 H 0.11858 1.03499 0.78968 0.0
H2095 H 0.1154 1.15106 0.89283 0.0
H2096 H 0.14196 1.2129 0.9613 0.0
H2097 H 0.14522 1.09723 0.85847 0.0
H2098 H 0.14754 1.21789 0.98778 0.0
H2099 H 0.109 1.23199 1.05112 0.0
H2100 H 0.11839 1.06736 0.89966 0.0
H2101 H 0.13337 0.98664 0.77048 0.0
C2102 C 0.1187 1.35939 1.115 0.0
C2103 C 0.11406 1.45641 1.21599 0.0
C2104 C 0.1088 1.46955 1.24544 0.0
C2105 C 0.10852 1.38734 1.17555 0.0
C2106 C 0.11341 1.29273 1.07663 0.0
C2107 C 0.11835 1.27881 1.04674 0.0
C2108 C 0.12427 1.17302 0.93965 0.0
C2109 C 0.1147 1.1148 0.86954 0.0
C2110 C 0.14072 1.17549 0.93673 0.0
C2111 C 0.12244 1.13028 0.91479 0.0
C2112 C 0.11589 1.19909 0.9934 0.0
C2113 C 0.11395 1.17715 0.98866 0.0
C2114 C 0.11925 1.08365 0.90253 0.0
C2115 C 0.12658 1.01518 0.8242 0.0
C2116 C 0.12778 1.03794 0.82957 0.0
H2117 H 0.45136 1.22188 0.8147 0.0
H2118 H 0.42915 1.10955 0.7482 0.0
H2119 H 0.45115 1.00644 0.65334 0.0
H2120 H 0.46606 0.9929 0.57701 0.0
H2121 H 0.48336 1.04221 0.61772 0.0
H2122 H 0.46716 1.12167 0.69649 0.0
H2123 H 0.48169 1.25578 0.84601 0.0
H2124 H 0.49791 1.17546 0.76659 0.0
H2125 H 0.49035 1.21903 0.8291 0.0
H2126 H 0.47346 0.89721 0.54548 0.0
H2127 H 0.49345 0.77984 0.42132 0.0
H2128 H 0.50162 0.96219 0.55715 0.0
C2129 C 0.45132 1.17766 0.78245 0.0
C2130 C 0.4386 1.17411 0.78925 0.0
C2131 C 0.43878 1.11337 0.74389 0.0
C2132 C 0.45129 1.05532 0.69072 0.0
C2133 C 0.46356 1.05895 0.68374 0.0
C2134 C 0.46368 1.11834 0.72812 0.0
C2135 C 0.47743 1.09821 0.69787 0.0
C2136 C 0.47325 1.06152 0.64405 0.0
C2137 C 0.48744 1.19277 0.79043 0.0
C2138 C 0.4846 1.0145 0.62546 0.0
C2139 C 0.47662 0.99491 0.62049 0.0
C2140 C 0.48002 0.91327 0.55033 0.0
C2141 C 0.49141 0.84707 0.4802 0.0
C2142 C 0.4992 0.86273 0.48054 0.0
C2143 C 0.49618 0.95011 0.5571 0.0
loop_
_geom_bond_atom_site_label_1
_geom_bond_atom_site_label_2
_geom_bond_distance
_geom_bond_site_symmetry_2
_ccdc_geom_bond_type
C0 O1 1.160 . S
C0 O7 1.185 . S
O1 C0 1.160 . S
O2 Zn3 1.899 . S
O2 C10 1.284 . S
Zn3 O2 1.899 . S
Zn3 O4 2.032 . S
Zn3 O7 2.086 . S
Zn3 O12 1.977 . S
O4 Zn3 2.032 . S
O4 C8 1.278 . S
C5 O6 1.203 . S
C5 O12 1.267 . S
O6 C5 1.203 . S
O7 C0 1.185 . S
O7 Zn3 2.086 . S
C8 O4 1.278 . S
C8 O9 1.211 . S
O9 C8 1.211 . S
C10 O2 1.284 . S
C10 O11 1.273 . S
O11 C10 1.273 . S
O12 Zn3 1.977 . S
O12 C5 1.267 . S
C13 O14 1.160 . S
C13 O20 1.185 . S
O14 C13 1.160 . S
O15 Zn16 1.899 . S
O15 C23 1.284 . S
Zn16 O15 1.899 . S
Zn16 O17 2.032 . S
Zn16 O20 2.086 . S
Zn16 O25 1.977 . S
O17 Zn16 2.032 . S
O17 C21 1.278 . S
C18 O19 1.203 . S
C18 O25 1.267 . S
O19 C18 1.203 . S
O20 C13 1.185 . S
O20 Zn16 2.086 . S
C21 O17 1.278 . S
C21 O22 1.211 . S
O22 C21 1.211 . S
C23 O15 1.284 . S
C23 O24 1.273 . S
O24 C23 1.273 . S
O25 Zn16 1.977 . S
O25 C18 1.267 . S
C26 O27 1.160 . S
C26 O33 1.185 . S
O27 C26 1.160 . S
O28 Zn29 1.899 . S
O28 C36 1.284 . S
Zn29 O28 1.899 . S
Zn29 O30 2.032 . S
Zn29 O33 2.086 . S
Zn29 O38 1.977 . S
O30 Zn29 2.032 . S
O30 C34 1.278 . S
C31 O32 1.203 . S
C31 O38 1.267 . S
O32 C31 1.203 . S
O33 C26 1.185 . S
O33 Zn29 2.086 . S
C34 O30 1.278 . S
C34 O35 1.211 . S
O35 C34 1.211 . S
C36 O28 1.284 . S
C36 O37 1.273 . S
O37 C36 1.273 . S
O38 Zn29 1.977 . S
O38 C31 1.267 . S
C39 O40 1.160 . S
C39 O46 1.185 . S
O40 C39 1.160 . S
O41 Zn42 1.899 . S
O41 C49 1.284 . S
Zn42 O41 1.899 . S
Zn42 O43 2.032 . S
Zn42 O46 2.086 . S
Zn42 O51 1.977 . S
O43 Zn42 2.032 . S
O43 C47 1.278 . S
C44 O45 1.203 . S
C44 O51 1.267 . S
O45 C44 1.203 . S
O46 C39 1.185 . S
O46 Zn42 2.086 . S
C47 O43 1.278 . S
C47 O48 1.211 . S
O48 C47 1.211 . S
C49 O41 1.284 . S
C49 O50 1.273 . S
O50 C49 1.273 . S
O51 Zn42 1.977 . S
O51 C44 1.267 . S
C52 O53 1.160 . S
C52 O59 1.185 . S
O53 C52 1.160 . S
O54 Zn55 1.899 . S
O54 C62 1.284 . S
Zn55 O54 1.899 . S
Zn55 O56 2.032 . S
Zn55 O59 2.086 . S
Zn55 O64 1.977 . S
O56 Zn55 2.032 . S
O56 C60 1.278 . S
C57 O58 1.203 . S
C57 O64 1.267 . S
O58 C57 1.203 . S
O59 C52 1.185 . S
O59 Zn55 2.086 . S
C60 O56 1.278 . S
C60 O61 1.211 . S
O61 C60 1.211 . S
C62 O54 1.284 . S
C62 O63 1.273 . S
O63 C62 1.273 . S
O64 Zn55 1.977 . S
O64 C57 1.267 . S
C65 O66 1.160 . S
C65 O72 1.185 . S
O66 C65 1.160 . S
O67 Zn68 1.899 . S
O67 C75 1.284 . S
Zn68 O67 1.899 . S
Zn68 O69 2.032 . S
Zn68 O72 2.086 . S
Zn68 O77 1.977 . S
O69 Zn68 2.032 . S
O69 C73 1.278 . S
C70 O71 1.203 . S
C70 O77 1.267 . S
O71 C70 1.203 . S
O72 C65 1.185 . S
O72 Zn68 2.086 . S
C73 O69 1.278 . S
C73 O74 1.211 . S
O74 C73 1.211 . S
C75 O67 1.284 . S
C75 O76 1.273 . S
O76 C75 1.273 . S
O77 Zn68 1.977 . S
O77 C70 1.267 . S
C78 O79 1.160 . S
C78 O85 1.185 . S
O79 C78 1.160 . S
O80 Zn81 1.899 . S
O80 C88 1.284 . S
Zn81 O80 1.899 . S
Zn81 O82 2.032 . S
Zn81 O85 2.086 . S
Zn81 O90 1.977 . S
O82 Zn81 2.032 . S
O82 C86 1.278 . S
C83 O84 1.203 . S
C83 O90 1.267 . S
O84 C83 1.203 . S
O85 C78 1.185 . S
O85 Zn81 2.086 . S
C86 O82 1.278 . S
C86 O87 1.211 . S
O87 C86 1.211 . S
C88 O80 1.284 . S
C88 O89 1.273 . S
O89 C88 1.273 . S
O90 Zn81 1.977 . S
O90 C83 1.267 . S
C91 O92 1.160 . S
C91 O98 1.185 . S
O92 C91 1.160 . S
O93 Zn94 1.899 . S
O93 C101 1.284 . S
Zn94 O93 1.899 . S
Zn94 O95 2.032 . S
Zn94 O98 2.086 . S
Zn94 O103 1.977 . S
O95 Zn94 2.032 . S
O95 C99 1.278 . S
C96 O97 1.203 . S
C96 O103 1.267 . S
O97 C96 1.203 . S
O98 C91 1.185 . S
O98 Zn94 2.086 . S
C99 O95 1.278 . S
C99 O100 1.211 . S
O100 C99 1.211 . S
C101 O93 1.284 . S
C101 O102 1.273 . S
O102 C101 1.273 . S
O103 Zn94 1.977 . S
O103 C96 1.267 . S
C104 O105 1.160 . S
C104 O111 1.185 . S
O105 C104 1.160 . S
O106 Zn107 1.899 . S
O106 C114 1.284 . S
Zn107 O106 1.899 . S
Zn107 O108 2.032 . S
Zn107 O111 2.086 . S
Zn107 O116 1.977 . S
O108 Zn107 2.032 . S
O108 C112 1.278 . S
C109 O110 1.203 . S
C109 O116 1.267 . S
O110 C109 1.203 . S
O111 C104 1.185 . S
O111 Zn107 2.086 . S
C112 O108 1.278 . S
C112 O113 1.211 . S
O113 C112 1.211 . S
C114 O106 1.284 . S
C114 O115 1.273 . S
O115 C114 1.273 . S
O116 Zn107 1.977 . S
O116 C109 1.267 . S
C117 O118 1.160 . S
C117 O124 1.185 . S
O118 C117 1.160 . S
O119 Zn120 1.899 . S
O119 C127 1.284 . S
Zn120 O119 1.899 . S
Zn120 O121 2.032 . S
Zn120 O124 2.086 . S
Zn120 O129 1.977 . S
O121 Zn120 2.032 . S
O121 C125 1.278 . S
C122 O123 1.203 . S
C122 O129 1.267 . S
O123 C122 1.203 . S
O124 C117 1.185 . S
O124 Zn120 2.086 . S
C125 O121 1.278 . S
C125 O126 1.211 . S
O126 C125 1.211 . S
C127 O119 1.284 . S
C127 O128 1.273 . S
O128 C127 1.273 . S
O129 Zn120 1.977 . S
O129 C122 1.267 . S
C130 O131 1.160 . S
C130 O137 1.185 . S
O131 C130 1.160 . S
O132 Zn133 1.899 . S
O132 C140 1.284 . S
Zn133 O132 1.899 . S
Zn133 O134 2.032 . S
Zn133 O137 2.086 . S
Zn133 O142 1.977 . S
O134 Zn133 2.032 . S
O134 C138 1.278 . S
C135 O136 1.203 . S
C135 O142 1.267 . S
O136 C135 1.203 . S
O137 C130 1.185 . S
O137 Zn133 2.086 . S
C138 O134 1.278 . S
C138 O139 1.211 . S
O139 C138 1.211 . S
C140 O132 1.284 . S
C140 O141 1.273 . S
O141 C140 1.273 . S
O142 Zn133 1.977 . S
O142 C135 1.267 . S
C143 O144 1.160 . S
C143 O150 1.185 . S
O144 C143 1.160 . S
O145 Zn146 1.899 . S
O145 C153 1.284 . S
Zn146 O145 1.899 . S
Zn146 O147 2.032 . S
Zn146 O150 2.086 . S
Zn146 O155 1.977 . S
O147 Zn146 2.032 . S
O147 C151 1.278 . S
C148 O149 1.203 . S
C148 O155 1.267 . S
O149 C148 1.203 . S
O150 C143 1.185 . S
O150 Zn146 2.086 . S
C151 O147 1.278 . S
C151 O152 1.211 . S
O152 C151 1.211 . S
C153 O145 1.284 . S
C153 O154 1.273 . S
O154 C153 1.273 . S
O155 Zn146 1.977 . S
O155 C148 1.267 . S
C156 O157 1.160 . S
C156 O163 1.185 . S
O157 C156 1.160 . S
O158 Zn159 1.899 . S
O158 C166 1.284 . S
Zn159 O158 1.899 . S
Zn159 O160 2.032 . S
Zn159 O163 2.086 . S
Zn159 O168 1.977 . S
O160 Zn159 2.032 . S
O160 C164 1.278 . S
C161 O162 1.203 . S
C161 O168 1.267 . S
O162 C161 1.203 . S
O163 C156 1.185 . S
O163 Zn159 2.086 . S
C164 O160 1.278 . S
C164 O165 1.211 . S
O165 C164 1.211 . S
C166 O158 1.284 . S
C166 O167 1.273 . S
O167 C166 1.273 . S
O168 Zn159 1.977 . S
O168 C161 1.267 . S
C169 O170 1.160 . S
C169 O176 1.185 . S
O170 C169 1.160 . S
O171 Zn172 1.899 . S
O171 C179 1.284 . S
Zn172 O171 1.899 . S
Zn172 O173 2.032 . S
Zn172 O176 2.086 . S
Zn172 O181 1.977 . S
O173 Zn172 2.032 . S
O173 C177 1.278 . S
C174 O175 1.203 . S
C174 O181 1.267 . S
O175 C174 1.203 . S
O176 C169 1.185 . S
O176 Zn172 2.086 . S
C177 O173 1.278 . S
C177 O178 1.211 . S
O178 C177 1.211 . S
C179 O171 1.284 . S
C179 O180 1.273 . S
O180 C179 1.273 . S
O181 Zn172 1.977 . S
O181 C174 1.267 . S
C182 O183 1.160 . S
C182 O189 1.185 . S
O183 C182 1.160 . S
O184 Zn185 1.899 . S
O184 C192 1.284 . S
Zn185 O184 1.899 . S
Zn185 O186 2.032 . S
Zn185 O189 2.086 . S
Zn185 O194 1.977 . S
O186 Zn185 2.032 . S
O186 C190 1.278 . S
C187 O188 1.203 . S
C187 O194 1.267 . S
O188 C187 1.203 . S
O189 C182 1.185 . S
O189 Zn185 2.086 . S
C190 O186 1.278 . S
C190 O191 1.211 . S
O191 C190 1.211 . S
C192 O184 1.284 . S
C192 O193 1.273 . S
O193 C192 1.273 . S
O194 Zn185 1.977 . S
O194 C187 1.267 . S
C195 O196 1.160 . S
C195 O202 1.185 . S
O196 C195 1.160 . S
O197 Zn198 1.899 . S
O197 C205 1.284 . S
Zn198 O197 1.899 . S
Zn198 O199 2.032 . S
Zn198 O202 2.086 . S
Zn198 O207 1.977 . S
O199 Zn198 2.032 . S
O199 C203 1.278 . S
C200 O201 1.203 . S
C200 O207 1.267 . S
O201 C200 1.203 . S
O202 C195 1.185 . S
O202 Zn198 2.086 . S
C203 O199 1.278 . S
C203 O204 1.211 . S
O204 C203 1.211 . S
C205 O197 1.284 . S
C205 O206 1.273 . S
O206 C205 1.273 . S
O207 Zn198 1.977 . S
O207 C200 1.267 . S
C208 O209 1.160 . S
C208 O215 1.185 . S
O209 C208 1.160 . S
O210 Zn211 1.899 . S
O210 C218 1.284 . S
Zn211 O210 1.899 . S
Zn211 O212 2.032 . S
Zn211 O215 2.086 . S
Zn211 O220 1.977 . S
O212 Zn211 2.032 . S
O212 C216 1.278 . S
C213 O214 1.203 . S
C213 O220 1.267 . S
O214 C213 1.203 . S
O215 C208 1.185 . S
O215 Zn211 2.086 . S
C216 O212 1.278 . S
C216 O217 1.211 . S
O217 C216 1.211 . S
C218 O210 1.284 . S
C218 O219 1.273 . S
O219 C218 1.273 . S
O220 Zn211 1.977 . S
O220 C213 1.267 . S
C221 O222 1.160 . S
C221 O228 1.185 . S
O222 C221 1.160 . S
O223 Zn224 1.899 . S
O223 C231 1.284 . S
Zn224 O223 1.899 . S
Zn224 O225 2.032 . S
Zn224 O228 2.086 . S
Zn224 O233 1.977 . S
O225 Zn224 2.032 . S
O225 C229 1.278 . S
C226 O227 1.203 . S
C226 O233 1.267 . S
O227 C226 1.203 . S
O228 C221 1.185 . S
O228 Zn224 2.086 . S
C229 O225 1.278 . S
C229 O230 1.211 . S
O230 C229 1.211 . S
C231 O223 1.284 . S
C231 O232 1.273 . S
O232 C231 1.273 . S
O233 Zn224 1.977 . S
O233 C226 1.267 . S
C234 O235 1.160 . S
C234 O241 1.185 . S
O235 C234 1.160 . S
O236 Zn237 1.899 . S
O236 C244 1.284 . S
Zn237 O236 1.899 . S
Zn237 O238 2.032 . S
Zn237 O241 2.086 . S
Zn237 O246 1.977 . S
O238 Zn237 2.032 . S
O238 C242 1.278 . S
C239 O240 1.203 . S
C239 O246 1.267 . S
O240 C239 1.203 . S
O241 C234 1.185 . S
O241 Zn237 2.086 . S
C242 O238 1.278 . S
C242 O243 1.211 . S
O243 C242 1.211 . S
C244 O236 1.284 . S
C244 O245 1.273 . S
O245 C244 1.273 . S
O246 Zn237 1.977 . S
O246 C239 1.267 . S
C247 O248 1.160 . S
C247 O254 1.185 . S
O248 C247 1.160 . S
O249 Zn250 1.899 . S
O249 C257 1.284 . S
Zn250 O249 1.899 . S
Zn250 O251 2.032 . S
Zn250 O254 2.086 . S
Zn250 O259 1.977 . S
O251 Zn250 2.032 . S
O251 C255 1.278 . S
C252 O253 1.203 . S
C252 O259 1.267 . S
O253 C252 1.203 . S
O254 C247 1.185 . S
O254 Zn250 2.086 . S
C255 O251 1.278 . S
C255 O256 1.211 . S
O256 C255 1.211 . S
C257 O249 1.284 . S
C257 O258 1.273 . S
O258 C257 1.273 . S
O259 Zn250 1.977 . S
O259 C252 1.267 . S
C260 O261 1.160 . S
C260 O267 1.185 . S
O261 C260 1.160 . S
O262 Zn263 1.899 . S
O262 C270 1.284 . S
Zn263 O262 1.899 . S
Zn263 O264 2.032 . S
Zn263 O267 2.086 . S
Zn263 O272 1.977 . S
O264 Zn263 2.032 . S
O264 C268 1.278 . S
C265 O266 1.203 . S
C265 O272 1.267 . S
O266 C265 1.203 . S
O267 C260 1.185 . S
O267 Zn263 2.086 . S
C268 O264 1.278 . S
C268 O269 1.211 . S
O269 C268 1.211 . S
C270 O262 1.284 . S
C270 O271 1.273 . S
O271 C270 1.273 . S
O272 Zn263 1.977 . S
O272 C265 1.267 . S
C273 O274 1.160 . S
C273 O280 1.185 . S
O274 C273 1.160 . S
O275 Zn276 1.899 . S
O275 C283 1.284 . S
Zn276 O275 1.899 . S
Zn276 O277 2.032 . S
Zn276 O280 2.086 . S
Zn276 O285 1.977 . S
O277 Zn276 2.032 . S
O277 C281 1.278 . S
C278 O279 1.203 . S
C278 O285 1.267 . S
O279 C278 1.203 . S
O280 C273 1.185 . S
O280 Zn276 2.086 . S
C281 O277 1.278 . S
C281 O282 1.211 . S
O282 C281 1.211 . S
C283 O275 1.284 . S
C283 O284 1.273 . S
O284 C283 1.273 . S
O285 Zn276 1.977 . S
O285 C278 1.267 . S
C286 O287 1.160 . S
C286 O293 1.185 . S
O287 C286 1.160 . S
O288 Zn289 1.899 . S
O288 C296 1.284 . S
Zn289 O288 1.899 . S
Zn289 O290 2.032 . S
Zn289 O293 2.086 . S
Zn289 O298 1.977 . S
O290 Zn289 2.032 . S
O290 C294 1.278 . S
C291 O292 1.203 . S
C291 O298 1.267 . S
O292 C291 1.203 . S
O293 C286 1.185 . S
O293 Zn289 2.086 . S
C294 O290 1.278 . S
C294 O295 1.211 . S
O295 C294 1.211 . S
C296 O288 1.284 . S
C296 O297 1.273 . S
O297 C296 1.273 . S
O298 Zn289 1.977 . S
O298 C291 1.267 . S
C299 O300 1.160 . S
C299 O306 1.185 . S
O300 C299 1.160 . S
O301 Zn302 1.899 . S
O301 C309 1.284 . S
Zn302 O301 1.899 . S
Zn302 O303 2.032 . S
Zn302 O306 2.086 . S
Zn302 O311 1.977 . S
O303 Zn302 2.032 . S
O303 C307 1.278 . S
C304 O305 1.203 . S
C304 O311 1.267 . S
O305 C304 1.203 . S
O306 C299 1.185 . S
O306 Zn302 2.086 . S
C307 O303 1.278 . S
C307 O308 1.211 . S
O308 C307 1.211 . S
C309 O301 1.284 . S
C309 O310 1.273 . S
O310 C309 1.273 . S
O311 Zn302 1.977 . S
O311 C304 1.267 . S
C312 O313 1.160 . S
C312 O319 1.185 . S
O313 C312 1.160 . S
O314 Zn315 1.899 . S
O314 C322 1.284 . S
Zn315 O314 1.899 . S
Zn315 O316 2.032 . S
Zn315 O319 2.086 . S
Zn315 O324 1.977 . S
O316 Zn315 2.032 . S
O316 C320 1.278 . S
C317 O318 1.203 . S
C317 O324 1.267 . S
O318 C317 1.203 . S
O319 C312 1.185 . S
O319 Zn315 2.086 . S
C320 O316 1.278 . S
C320 O321 1.211 . S
O321 C320 1.211 . S
C322 O314 1.284 . S
C322 O323 1.273 . S
O323 C322 1.273 . S
O324 Zn315 1.977 . S
O324 C317 1.267 . S
C325 O326 1.160 . S
C325 O332 1.185 . S
O326 C325 1.160 . S
O327 Zn328 1.899 . S
O327 C335 1.284 . S
Zn328 O327 1.899 . S
Zn328 O329 2.032 . S
Zn328 O332 2.086 . S
Zn328 O337 1.977 . S
O329 Zn328 2.032 . S
O329 C333 1.278 . S
C330 O331 1.203 . S
C330 O337 1.267 . S
O331 C330 1.203 . S
O332 C325 1.185 . S
O332 Zn328 2.086 . S
C333 O329 1.278 . S
C333 O334 1.211 . S
O334 C333 1.211 . S
C335 O327 1.284 . S
C335 O336 1.273 . S
O336 C335 1.273 . S
O337 Zn328 1.977 . S
O337 C330 1.267 . S
C338 O339 1.160 . S
C338 O345 1.185 . S
O339 C338 1.160 . S
O340 Zn341 1.899 . S
O340 C348 1.284 . S
Zn341 O340 1.899 . S
Zn341 O342 2.032 . S
Zn341 O345 2.086 . S
Zn341 O350 1.977 . S
O342 Zn341 2.032 . S
O342 C346 1.278 . S
C343 O344 1.203 . S
C343 O350 1.267 . S
O344 C343 1.203 . S
O345 C338 1.185 . S
O345 Zn341 2.086 . S
C346 O342 1.278 . S
C346 O347 1.211 . S
O347 C346 1.211 . S
C348 O340 1.284 . S
C348 O349 1.273 . S
O349 C348 1.273 . S
O350 Zn341 1.977 . S
O350 C343 1.267 . S
C351 O352 1.160 . S
C351 O358 1.185 . S
O352 C351 1.160 . S
O353 Zn354 1.899 . S
O353 C361 1.284 . S
Zn354 O353 1.899 . S
Zn354 O355 2.032 . S
Zn354 O358 2.086 . S
Zn354 O363 1.977 . S
O355 Zn354 2.032 . S
O355 C359 1.278 . S
C356 O357 1.203 . S
C356 O363 1.267 . S
O357 C356 1.203 . S
O358 C351 1.185 . S
O358 Zn354 2.086 . S
C359 O355 1.278 . S
C359 O360 1.211 . S
O360 C359 1.211 . S
C361 O353 1.284 . S
C361 O362 1.273 . S
O362 C361 1.273 . S
O363 Zn354 1.977 . S
O363 C356 1.267 . S
C364 O365 1.160 . S
C364 O371 1.185 . S
O365 C364 1.160 . S
O366 Zn367 1.899 . S
O366 C374 1.284 . S
Zn367 O366 1.899 . S
Zn367 O368 2.032 . S
Zn367 O371 2.086 . S
Zn367 O376 1.977 . S
O368 Zn367 2.032 . S
O368 C372 1.278 . S
C369 O370 1.203 . S
C369 O376 1.267 . S
O370 C369 1.203 . S
O371 C364 1.185 . S
O371 Zn367 2.086 . S
C372 O368 1.278 . S
C372 O373 1.211 . S
O373 C372 1.211 . S
C374 O366 1.284 . S
C374 O375 1.273 . S
O375 C374 1.273 . S
O376 Zn367 1.977 . S
O376 C369 1.267 . S
C377 O378 1.160 . S
C377 O384 1.185 . S
O378 C377 1.160 . S
O379 Zn380 1.899 . S
O379 C387 1.284 . S
Zn380 O379 1.899 . S
Zn380 O381 2.032 . S
Zn380 O384 2.086 . S
Zn380 O389 1.977 . S
O381 Zn380 2.032 . S
O381 C385 1.278 . S
C382 O383 1.203 . S
C382 O389 1.267 . S
O383 C382 1.203 . S
O384 C377 1.185 . S
O384 Zn380 2.086 . S
C385 O381 1.278 . S
C385 O386 1.211 . S
O386 C385 1.211 . S
C387 O379 1.284 . S
C387 O388 1.273 . S
O388 C387 1.273 . S
O389 Zn380 1.977 . S
O389 C382 1.267 . S
C390 O391 1.160 . S
C390 O397 1.185 . S
O391 C390 1.160 . S
O392 Zn393 1.899 . S
O392 C400 1.284 . S
Zn393 O392 1.899 . S
Zn393 O394 2.032 . S
Zn393 O397 2.086 . S
Zn393 O402 1.977 . S
O394 Zn393 2.032 . S
O394 C398 1.278 . S
C395 O396 1.203 . S
C395 O402 1.267 . S
O396 C395 1.203 . S
O397 C390 1.185 . S
O397 Zn393 2.086 . S
C398 O394 1.278 . S
C398 O399 1.211 . S
O399 C398 1.211 . S
C400 O392 1.284 . S
C400 O401 1.273 . S
O401 C400 1.273 . S
O402 Zn393 1.977 . S
O402 C395 1.267 . S
C403 O404 1.160 . S
C403 O410 1.185 . S
O404 C403 1.160 . S
O405 Zn406 1.899 . S
O405 C413 1.284 . S
Zn406 O405 1.899 . S
Zn406 O407 2.032 . S
Zn406 O410 2.086 . S
Zn406 O415 1.977 . S
O407 Zn406 2.032 . S
O407 C411 1.278 . S
C408 O409 1.203 . S
C408 O415 1.267 . S
O409 C408 1.203 . S
O410 C403 1.185 . S
O410 Zn406 2.086 . S
C411 O407 1.278 . S
C411 O412 1.211 . S
O412 C411 1.211 . S
C413 O405 1.284 . S
C413 O414 1.273 . S
O414 C413 1.273 . S
O415 Zn406 1.977 . S
O415 C408 1.267 . S
H416 C428 0.930 . S
H417 C430 0.930 . S
H418 C431 0.930 . S
H419 C435 0.959 . S
H420 C435 0.959 . S
H421 C435 0.961 . S
H422 C436 0.960 . S
H423 C436 0.961 . S
H424 C436 0.959 . S
H425 C439 0.929 . S
H426 C440 0.931 . S
H427 C442 0.930 . S
C428 H416 0.930 . S
C428 C429 1.399 . S
C428 C433 1.399 . S
C429 C428 1.399 . S
C429 C430 1.376 . S
C430 H417 0.930 . S
C430 C429 1.376 . S
C430 C431 1.388 . S
C431 H418 0.930 . S
C431 C430 1.388 . S
C431 C432 1.390 . S
C432 C431 1.390 . S
C432 C433 1.394 . S
C432 C438 1.465 . S
C433 C428 1.399 . S
C433 C432 1.394 . S
C433 C434 1.516 . S
C434 C433 1.516 . S
C434 C435 1.502 . S
C434 C436 1.561 . S
C434 C437 1.526 . S
C435 H419 0.959 . S
C435 H420 0.959 . S
C435 H421 0.961 . S
C435 C434 1.502 . S
C436 H422 0.960 . S
C436 H423 0.961 . S
C436 H424 0.959 . S
C436 C434 1.561 . S
C437 C434 1.526 . S
C437 C438 1.396 . S
C437 C442 1.390 . S
C438 C432 1.465 . S
C438 C437 1.396 . S
C438 C439 1.399 . S
C439 H425 0.929 . S
C439 C438 1.399 . S
C439 C440 1.385 . S
C440 H426 0.931 . S
C440 C439 1.385 . S
C440 C441 1.389 . S
C441 C440 1.389 . S
C441 C442 1.387 . S
C442 H427 0.930 . S
C442 C437 1.390 . S
C442 C441 1.387 . S
H443 C455 0.930 . S
H444 C457 0.930 . S
H445 C458 0.930 . S
H446 C462 0.959 . S
H447 C462 0.959 . S
H448 C462 0.961 . S
H449 C463 0.960 . S
H450 C463 0.961 . S
H451 C463 0.959 . S
H452 C466 0.929 . S
H453 C467 0.931 . S
H454 C469 0.930 . S
C455 H443 0.930 . S
C455 C456 1.399 . S
C455 C460 1.399 . S
C456 C455 1.399 . S
C456 C457 1.376 . S
C457 H444 0.930 . S
C457 C456 1.376 . S
C457 C458 1.388 . S
C458 H445 0.930 . S
C458 C457 1.388 . S
C458 C459 1.390 . S
C459 C458 1.390 . S
C459 C460 1.394 . S
C459 C465 1.465 1_565 S
C460 C455 1.399 . S
C460 C459 1.394 . S
C460 C461 1.516 1_565 S
C461 C460 1.516 1_545 S
C461 C462 1.502 . S
C461 C463 1.561 . S
C461 C464 1.526 . S
C462 H446 0.959 . S
C462 H447 0.959 . S
C462 H448 0.961 . S
C462 C461 1.502 . S
C463 H449 0.960 . S
C463 H450 0.961 . S
C463 H451 0.959 . S
C463 C461 1.561 . S
C464 C461 1.526 . S
C464 C465 1.396 . S
C464 C469 1.390 . S
C465 C459 1.465 1_545 S
C465 C464 1.396 . S
C465 C466 1.399 . S
C466 H452 0.929 . S
C466 C465 1.399 . S
C466 C467 1.385 . S
C467 H453 0.931 . S
C467 C466 1.385 . S
C467 C468 1.389 . S
C468 C467 1.389 . S
C468 C469 1.387 . S
C469 H454 0.930 . S
C469 C464 1.390 . S
C469 C468 1.387 . S
H470 C482 0.930 . S
H471 C484 0.930 . S
H472 C485 0.930 . S
H473 C489 0.959 . S
H474 C489 0.959 . S
H475 C489 0.961 . S
H476 C490 0.960 . S
H477 C490 0.961 . S
H478 C490 0.959 . S
H479 C493 0.929 . S
H480 C494 0.931 . S
H481 C496 0.930 . S
C482 H470 0.930 . S
C482 C483 1.399 . S
C482 C487 1.399 . S
C483 C482 1.399 . S
C483 C484 1.376 . S
C484 H471 0.930 . S
C484 C483 1.376 . S
C484 C485 1.388 . S
C485 H472 0.930 . S
C485 C484 1.388 . S
C485 C486 1.390 . S
C486 C485 1.390 . S
C486 C487 1.394 . S
C486 C492 1.465 1_554 S
C487 C482 1.399 . S
C487 C486 1.394 . S
C487 C488 1.516 1_554 S
C488 C487 1.516 1_556 S
C488 C489 1.502 1_556 S
C488 C490 1.561 . S
C488 C491 1.526 . S
C489 H473 0.959 . S
C489 H474 0.959 . S
C489 H475 0.961 . S
C489 C488 1.502 1_554 S
C490 H476 0.960 . S
C490 H477 0.961 . S
C490 H478 0.959 . S
C490 C488 1.561 . S
C491 C488 1.526 . S
C491 C492 1.396 . S
C491 C496 1.390 . S
C492 C486 1.465 1_556 S
C492 C491 1.396 . S
C492 C493 1.399 . S
C493 H479 0.929 . S
C493 C492 1.399 . S
C493 C494 1.385 . S
C494 H480 0.931 . S
C494 C493 1.385 . S
C494 C495 1.389 . S
C495 C494 1.389 . S
C495 C496 1.387 . S
C496 H481 0.930 . S
C496 C491 1.390 . S
C496 C495 1.387 . S
H497 C509 0.930 . S
H498 C511 0.930 . S
H499 C512 0.930 . S
H500 C516 0.959 . S
H501 C516 0.959 . S
H502 C516 0.961 . S
H503 C517 0.960 . S
H504 C517 0.961 . S
H505 C517 0.959 . S
H506 C520 0.929 . S
H507 C521 0.931 . S
H508 C523 0.930 . S
C509 H497 0.930 . S
C509 C510 1.399 . S
C509 C514 1.399 . S
C510 C509 1.399 . S
C510 C511 1.376 . S
C511 H498 0.930 . S
C511 C510 1.376 . S
C511 C512 1.388 . S
C512 H499 0.930 . S
C512 C511 1.388 . S
C512 C513 1.390 . S
C513 C512 1.390 . S
C513 C514 1.394 . S
C513 C519 1.465 1_545 S
C514 C509 1.399 . S
C514 C513 1.394 . S
C514 C515 1.516 . S
C515 C514 1.516 . S
C515 C516 1.502 . S
C515 C517 1.561 . S
C515 C518 1.526 1_545 S
C516 H500 0.959 . S
C516 H501 0.959 . S
C516 H502 0.961 . S
C516 C515 1.502 . S
C517 H503 0.960 . S
C517 H504 0.961 . S
C517 H505 0.959 . S
C517 C515 1.561 . S
C518 C515 1.526 1_565 S
C518 C519 1.396 . S
C518 C523 1.390 . S
C519 C513 1.465 1_565 S
C519 C518 1.396 . S
C519 C520 1.399 . S
C520 H506 0.929 . S
C520 C519 1.399 . S
C520 C521 1.385 . S
C521 H507 0.931 . S
C521 C520 1.385 . S
C521 C522 1.389 . S
C522 C521 1.389 . S
C522 C523 1.387 . S
C523 H508 0.930 . S
C523 C518 1.390 . S
C523 C522 1.387 . S
H524 C536 0.930 . S
H525 C538 0.930 . S
H526 C539 0.930 . S
H527 C543 0.959 . S
H528 C543 0.959 . S
H529 C543 0.961 . S
H530 C544 0.960 . S
H531 C544 0.961 . S
H532 C544 0.959 . S
H533 C547 0.929 . S
H534 C548 0.931 . S
H535 C550 0.930 . S
C536 H524 0.930 . S
C536 C537 1.399 . S
C536 C541 1.399 . S
C537 C536 1.399 . S
C537 C538 1.376 . S
C538 H525 0.930 . S
C538 C537 1.376 . S
C538 C539 1.388 . S
C539 H526 0.930 . S
C539 C538 1.388 . S
C539 C540 1.390 . S
C540 C539 1.390 . S
C540 C541 1.394 . S
C540 C546 1.465 . S
C541 C536 1.399 . S
C541 C540 1.394 . S
C541 C542 1.516 . S
C542 C541 1.516 . S
C542 C543 1.502 . S
C542 C544 1.561 . S
C542 C545 1.526 . S
C543 H527 0.959 . S
C543 H528 0.959 . S
C543 H529 0.961 . S
C543 C542 1.502 . S
C544 H530 0.960 . S
C544 H531 0.961 . S
C544 H532 0.959 . S
C544 C542 1.561 . S
C545 C542 1.526 . S
C545 C546 1.396 . S
C545 C550 1.390 . S
C546 C540 1.465 . S
C546 C545 1.396 . S
C546 C547 1.399 . S
C547 H533 0.929 . S
C547 C546 1.399 . S
C547 C548 1.385 . S
C548 H534 0.931 . S
C548 C547 1.385 . S
C548 C549 1.389 . S
C549 C548 1.389 . S
C549 C550 1.387 . S
C550 H535 0.930 . S
C550 C545 1.390 . S
C550 C549 1.387 . S
H551 C563 0.930 . S
H552 C565 0.930 . S
H553 C566 0.930 . S
H554 C570 0.959 . S
H555 C570 0.959 . S
H556 C570 0.961 . S
H557 C571 0.960 . S
H558 C571 0.961 . S
H559 C571 0.959 . S
H560 C574 0.929 . S
H561 C575 0.931 . S
H562 C577 0.930 . S
C563 H551 0.930 . S
C563 C564 1.399 . S
C563 C568 1.399 . S
C564 C563 1.399 . S
C564 C565 1.376 . S
C565 H552 0.930 . S
C565 C564 1.376 . S
C565 C566 1.388 . S
C566 H553 0.930 . S
C566 C565 1.388 . S
C566 C567 1.390 . S
C567 C566 1.390 . S
C567 C568 1.394 . S
C567 C573 1.465 1_545 S
C568 C563 1.399 . S
C568 C567 1.394 . S
C568 C569 1.516 1_545 S
C569 C568 1.516 1_565 S
C569 C570 1.502 . S
C569 C571 1.561 . S
C569 C572 1.526 . S
C570 H554 0.959 . S
C570 H555 0.959 . S
C570 H556 0.961 . S
C570 C569 1.502 . S
C571 H557 0.960 . S
C571 H558 0.961 . S
C571 H559 0.959 . S
C571 C569 1.561 . S
C572 C569 1.526 . S
C572 C573 1.396 . S
C572 C577 1.390 . S
C573 C567 1.465 1_565 S
C573 C572 1.396 . S
C573 C574 1.399 . S
C574 H560 0.929 . S
C574 C573 1.399 . S
C574 C575 1.385 . S
C575 H561 0.931 . S
C575 C574 1.385 . S
C575 C576 1.389 . S
C576 C575 1.389 . S
C576 C577 1.387 . S
C577 H562 0.930 . S
C577 C572 1.390 . S
C577 C576 1.387 . S
H578 C590 0.930 . S
H579 C592 0.930 . S
H580 C593 0.930 . S
H581 C597 0.959 . S
H582 C597 0.959 . S
H583 C597 0.961 . S
H584 C598 0.960 . S
H585 C598 0.961 . S
H586 C598 0.959 . S
H587 C601 0.929 1_556 S
H588 C602 0.931 . S
H589 C604 0.930 . S
C590 H578 0.930 . S
C590 C591 1.399 . S
C590 C595 1.399 . S
C591 C590 1.399 . S
C591 C592 1.376 . S
C592 H579 0.930 . S
C592 C591 1.376 . S
C592 C593 1.388 . S
C593 H580 0.930 . S
C593 C592 1.388 . S
C593 C594 1.390 . S
C594 C593 1.390 . S
C594 C595 1.394 . S
C594 C600 1.466 . S
C595 C590 1.399 . S
C595 C594 1.394 . S
C595 C596 1.516 1_556 S
C596 C595 1.516 1_554 S
C596 C597 1.502 . S
C596 C598 1.561 1_554 S
C596 C599 1.526 . S
C597 H581 0.959 . S
C597 H582 0.959 . S
C597 H583 0.961 . S
C597 C596 1.502 . S
C598 H584 0.960 . S
C598 H585 0.961 . S
C598 H586 0.959 . S
C598 C596 1.561 1_556 S
C599 C596 1.526 . S
C599 C600 1.395 1_554 S
C599 C604 1.390 . S
C600 C594 1.466 . S
C600 C599 1.395 1_556 S
C600 C601 1.399 1_556 S
C601 H587 0.929 1_554 S
C601 C600 1.399 1_554 S
C601 C602 1.385 . S
C602 H588 0.931 . S
C602 C601 1.385 . S
C602 C603 1.389 . S
C603 C602 1.389 . S
C603 C604 1.387 . S
C604 H589 0.930 . S
C604 C599 1.390 . S
C604 C603 1.387 . S
H605 C617 0.930 . S
H606 C619 0.930 . S
H607 C620 0.930 . S
H608 C624 0.959 . S
H609 C624 0.959 . S
H610 C624 0.961 1_565 S
H611 C625 0.960 . S
H612 C625 0.961 . S
H613 C625 0.959 . S
H614 C628 0.929 . S
H615 C629 0.931 . S
H616 C631 0.930 . S
C617 H605 0.930 . S
C617 C618 1.399 . S
C617 C622 1.399 . S
C618 C617 1.399 . S
C618 C619 1.376 . S
C619 H606 0.930 . S
C619 C618 1.376 . S
C619 C620 1.388 . S
C620 H607 0.930 . S
C620 C619 1.388 . S
C620 C621 1.390 . S
C621 C620 1.390 . S
C621 C622 1.394 . S
C621 C627 1.465 1_565 S
C622 C617 1.399 . S
C622 C621 1.394 . S
C622 C623 1.516 1_565 S
C623 C622 1.516 1_545 S
C623 C624 1.502 . S
C623 C625 1.561 . S
C623 C626 1.526 . S
C624 H608 0.959 . S
C624 H609 0.959 . S
C624 H610 0.961 1_545 S
C624 C623 1.502 . S
C625 H611 0.960 . S
C625 H612 0.961 . S
C625 H613 0.959 . S
C625 C623 1.561 . S
C626 C623 1.526 . S
C626 C627 1.396 . S
C626 C631 1.390 . S
C627 C621 1.465 1_545 S
C627 C626 1.396 . S
C627 C628 1.399 . S
C628 H614 0.929 . S
C628 C627 1.399 . S
C628 C629 1.385 . S
C629 H615 0.931 . S
C629 C628 1.385 . S
C629 C630 1.389 . S
C630 C629 1.389 . S
C630 C631 1.387 . S
C631 H616 0.930 . S
C631 C626 1.390 . S
C631 C630 1.387 . S
H632 C644 0.930 . S
H633 C646 0.930 . S
H634 C647 0.930 . S
H635 C651 0.959 . S
H636 C651 0.959 . S
H637 C651 0.961 . S
H638 C652 0.960 . S
H639 C652 0.961 . S
H640 C652 0.959 . S
H641 C655 0.929 1_556 S
H642 C656 0.931 . S
H643 C658 0.930 . S
C644 H632 0.930 . S
C644 C645 1.399 . S
C644 C649 1.399 . S
C645 C644 1.399 . S
C645 C646 1.376 . S
C646 H633 0.930 . S
C646 C645 1.376 . S
C646 C647 1.388 . S
C647 H634 0.930 . S
C647 C646 1.388 . S
C647 C648 1.390 . S
C648 C647 1.390 . S
C648 C649 1.394 . S
C648 C654 1.465 1_556 S
C649 C644 1.399 . S
C649 C648 1.394 . S
C649 C650 1.516 1_556 S
C650 C649 1.516 1_554 S
C650 C651 1.502 . S
C650 C652 1.561 1_554 S
C650 C653 1.526 . S
C651 H635 0.959 . S
C651 H636 0.959 . S
C651 H637 0.961 . S
C651 C650 1.502 . S
C652 H638 0.960 . S
C652 H639 0.961 . S
C652 H640 0.959 . S
C652 C650 1.561 1_556 S
C653 C650 1.526 . S
C653 C654 1.396 . S
C653 C658 1.390 . S
C654 C648 1.465 1_554 S
C654 C653 1.396 . S
C654 C655 1.399 . S
C655 H641 0.929 1_554 S
C655 C654 1.399 . S
C655 C656 1.385 . S
C656 H642 0.931 . S
C656 C655 1.385 . S
C656 C657 1.389 . S
C657 C656 1.389 . S
C657 C658 1.387 . S
C658 H643 0.930 . S
C658 C653 1.390 . S
C658 C657 1.387 . S
H659 C671 0.930 . S
H660 C673 0.930 . S
H661 C674 0.930 . S
H662 C678 0.959 . S
H663 C678 0.959 . S
H664 C678 0.961 . S
H665 C679 0.960 . S
H666 C679 0.961 . S
H667 C679 0.959 . S
H668 C682 0.929 . S
H669 C683 0.931 . S
H670 C685 0.930 . S
C671 H659 0.930 . S
C671 C672 1.399 . S
C671 C676 1.399 . S
C672 C671 1.399 . S
C672 C673 1.376 . S
C673 H660 0.930 . S
C673 C672 1.376 . S
C673 C674 1.388 . S
C674 H661 0.930 . S
C674 C673 1.388 . S
C674 C675 1.390 . S
C675 C674 1.390 . S
C675 C676 1.394 . S
C675 C681 1.465 . S
C676 C671 1.399 . S
C676 C675 1.394 . S
C676 C677 1.516 . S
C677 C676 1.516 . S
C677 C678 1.502 . S
C677 C679 1.561 . S
C677 C680 1.526 . S
C678 H662 0.959 . S
C678 H663 0.959 . S
C678 H664 0.961 . S
C678 C677 1.502 . S
C679 H665 0.960 . S
C679 H666 0.961 . S
C679 H667 0.959 . S
C679 C677 1.561 . S
C680 C677 1.526 . S
C680 C681 1.396 . S
C680 C685 1.390 . S
C681 C675 1.465 . S
C681 C680 1.396 . S
C681 C682 1.399 . S
C682 H668 0.929 . S
C682 C681 1.399 . S
C682 C683 1.385 . S
C683 H669 0.931 . S
C683 C682 1.385 . S
C683 C684 1.389 . S
C684 C683 1.389 . S
C684 C685 1.387 . S
C685 H670 0.930 . S
C685 C680 1.390 . S
C685 C684 1.387 . S
H686 C698 0.930 . S
H687 C700 0.930 . S
H688 C701 0.930 . S
H689 C705 0.959 . S
H690 C705 0.959 . S
H691 C705 0.961 . S
H692 C706 0.960 . S
H693 C706 0.961 . S
H694 C706 0.959 . S
H695 C709 0.929 . S
H696 C710 0.931 . S
H697 C712 0.930 . S
C698 H686 0.930 . S
C698 C699 1.399 . S
C698 C703 1.399 . S
C699 C698 1.399 . S
C699 C700 1.376 . S
C700 H687 0.930 . S
C700 C699 1.376 . S
C700 C701 1.388 . S
C701 H688 0.930 . S
C701 C700 1.388 . S
C701 C702 1.390 . S
C702 C701 1.390 . S
C702 C703 1.394 . S
C702 C708 1.465 . S
C703 C698 1.399 . S
C703 C702 1.394 . S
C703 C704 1.516 . S
C704 C703 1.516 . S
C704 C705 1.502 . S
C704 C706 1.561 . S
C704 C707 1.526 . S
C705 H689 0.959 . S
C705 H690 0.959 . S
C705 H691 0.961 . S
C705 C704 1.502 . S
C706 H692 0.960 . S
C706 H693 0.961 . S
C706 H694 0.959 . S
C706 C704 1.561 . S
C707 C704 1.526 . S
C707 C708 1.396 . S
C707 C712 1.390 . S
C708 C702 1.465 . S
C708 C707 1.396 . S
C708 C709 1.399 . S
C709 H695 0.929 . S
C709 C708 1.399 . S
C709 C710 1.385 . S
C710 H696 0.931 . S
C710 C709 1.385 . S
C710 C711 1.389 . S
C711 C710 1.389 . S
C711 C712 1.387 . S
C712 H697 0.930 . S
C712 C707 1.390 . S
C712 C711 1.387 . S
H713 C725 0.930 . S
H714 C727 0.930 . S
H715 C728 0.930 . S
H716 C732 0.959 . S
H717 C732 0.959 . S
H718 C732 0.961 . S
H719 C733 0.960 . S
H720 C733 0.961 . S
H721 C733 0.959 . S
H722 C736 0.929 . S
H723 C737 0.931 . S
H724 C739 0.930 . S
C725 H713 0.930 . S
C725 C726 1.399 . S
C725 C730 1.399 . S
C726 C725 1.399 . S
C726 C727 1.376 . S
C727 H714 0.930 . S
C727 C726 1.376 . S
C727 C728 1.388 . S
C728 H715 0.930 . S
C728 C727 1.388 . S
C728 C729 1.390 . S
C729 C728 1.390 . S
C729 C730 1.394 . S
C729 C735 1.465 . S
C730 C725 1.399 . S
C730 C729 1.394 . S
C730 C731 1.516 . S
C731 C730 1.516 . S
C731 C732 1.502 . S
C731 C733 1.561 . S
C731 C734 1.526 . S
C732 H716 0.959 . S
C732 H717 0.959 . S
C732 H718 0.961 . S
C732 C731 1.502 . S
C733 H719 0.960 . S
C733 H720 0.961 . S
C733 H721 0.959 . S
C733 C731 1.561 . S
C734 C731 1.526 . S
C734 C735 1.396 . S
C734 C739 1.390 . S
C735 C729 1.465 . S
C735 C734 1.396 . S
C735 C736 1.399 . S
C736 H722 0.929 . S
C736 C735 1.399 . S
C736 C737 1.385 . S
C737 H723 0.931 . S
C737 C736 1.385 . S
C737 C738 1.389 . S
C738 C737 1.389 . S
C738 C739 1.387 . S
C739 H724 0.930 . S
C739 C734 1.390 . S
C739 C738 1.387 . S
H740 C752 0.930 . S
H741 C754 0.930 . S
H742 C755 0.930 . S
H743 C759 0.959 . S
H744 C759 0.959 . S
H745 C759 0.961 . S
H746 C760 0.960 . S
H747 C760 0.961 . S
H748 C760 0.959 . S
H749 C763 0.929 . S
H750 C764 0.931 . S
H751 C766 0.930 . S
C752 H740 0.930 . S
C752 C753 1.399 . S
C752 C757 1.399 . S
C753 C752 1.399 . S
C753 C754 1.376 . S
C754 H741 0.930 . S
C754 C753 1.376 . S
C754 C755 1.388 . S
C755 H742 0.930 . S
C755 C754 1.388 . S
C755 C756 1.390 . S
C756 C755 1.390 . S
C756 C757 1.394 . S
C756 C762 1.465 1_556 S
C757 C752 1.399 . S
C757 C756 1.394 . S
C757 C758 1.516 1_556 S
C758 C757 1.516 1_554 S
C758 C759 1.502 1_554 S
C758 C760 1.561 . S
C758 C761 1.526 . S
C759 H743 0.959 . S
C759 H744 0.959 . S
C759 H745 0.961 . S
C759 C758 1.502 1_556 S
C760 H746 0.960 . S
C760 H747 0.961 . S
C760 H748 0.959 . S
C760 C758 1.561 . S
C761 C758 1.526 . S
C761 C762 1.396 . S
C761 C766 1.390 . S
C762 C756 1.465 1_554 S
C762 C761 1.396 . S
C762 C763 1.399 . S
C763 H749 0.929 . S
C763 C762 1.399 . S
C763 C764 1.385 . S
C764 H750 0.931 . S
C764 C763 1.385 . S
C764 C765 1.389 . S
C765 C764 1.389 . S
C765 C766 1.387 . S
C766 H751 0.930 . S
C766 C761 1.390 . S
C766 C765 1.387 . S
H767 C779 0.930 . S
H768 C781 0.930 . S
H769 C782 0.930 . S
H770 C786 0.959 . S
H771 C786 0.959 . S
H772 C786 0.961 . S
H773 C787 0.960 . S
H774 C787 0.961 . S
H775 C787 0.959 . S
H776 C790 0.929 . S
H777 C791 0.931 . S
H778 C793 0.930 . S
C779 H767 0.930 . S
C779 C780 1.399 . S
C779 C784 1.399 . S
C780 C779 1.399 . S
C780 C781 1.376 . S
C781 H768 0.930 . S
C781 C780 1.376 . S
C781 C782 1.388 . S
C782 H769 0.930 . S
C782 C781 1.388 . S
C782 C783 1.390 . S
C783 C782 1.390 . S
C783 C784 1.394 . S
C783 C789 1.465 . S
C784 C779 1.399 . S
C784 C783 1.394 . S
C784 C785 1.516 . S
C785 C784 1.516 . S
C785 C786 1.502 . S
C785 C787 1.561 . S
C785 C788 1.526 . S
C786 H770 0.959 . S
C786 H771 0.959 . S
C786 H772 0.961 . S
C786 C785 1.502 . S
C787 H773 0.960 . S
C787 H774 0.961 . S
C787 H775 0.959 . S
C787 C785 1.561 . S
C788 C785 1.526 . S
C788 C789 1.396 . S
C788 C793 1.390 . S
C789 C783 1.465 . S
C789 C788 1.396 . S
C789 C790 1.399 . S
C790 H776 0.929 . S
C790 C789 1.399 . S
C790 C791 1.385 . S
C791 H777 0.931 . S
C791 C790 1.385 . S
C791 C792 1.389 . S
C792 C791 1.389 . S
C792 C793 1.387 . S
C793 H778 0.930 . S
C793 C788 1.390 . S
C793 C792 1.387 . S
H794 C806 0.930 . S
H795 C808 0.930 . S
H796 C809 0.930 . S
H797 C813 0.959 . S
H798 C813 0.959 . S
H799 C813 0.961 . S
H800 C814 0.960 . S
H801 C814 0.961 . S
H802 C814 0.959 . S
H803 C817 0.929 . S
H804 C818 0.931 . S
H805 C820 0.930 . S
C806 H794 0.930 . S
C806 C807 1.399 . S
C806 C811 1.399 . S
C807 C806 1.399 . S
C807 C808 1.376 . S
C808 H795 0.930 . S
C808 C807 1.376 . S
C808 C809 1.388 . S
C809 H796 0.930 . S
C809 C808 1.388 . S
C809 C810 1.390 . S
C810 C809 1.390 . S
C810 C811 1.394 . S
C810 C816 1.465 . S
C811 C806 1.399 . S
C811 C810 1.394 . S
C811 C812 1.516 . S
C812 C811 1.516 . S
C812 C813 1.502 . S
C812 C814 1.561 . S
C812 C815 1.526 . S
C813 H797 0.959 . S
C813 H798 0.959 . S
C813 H799 0.961 . S
C813 C812 1.502 . S
C814 H800 0.960 . S
C814 H801 0.961 . S
C814 H802 0.959 . S
C814 C812 1.561 . S
C815 C812 1.526 . S
C815 C816 1.396 . S
C815 C820 1.390 . S
C816 C810 1.465 . S
C816 C815 1.396 . S
C816 C817 1.399 . S
C817 H803 0.929 . S
C817 C816 1.399 . S
C817 C818 1.385 . S
C818 H804 0.931 . S
C818 C817 1.385 . S
C818 C819 1.389 . S
C819 C818 1.389 . S
C819 C820 1.387 . S
C820 H805 0.930 . S
C820 C815 1.390 . S
C820 C819 1.387 . S
H821 C833 0.930 . S
H822 C835 0.930 . S
H823 C836 0.930 . S
H824 C840 0.959 . S
H825 C840 0.959 . S
H826 C840 0.961 . S
H827 C841 0.960 . S
H828 C841 0.961 . S
H829 C841 0.959 . S
H830 C844 0.929 . S
H831 C845 0.931 . S
H832 C847 0.930 . S
C833 H821 0.930 . S
C833 C834 1.399 . S
C833 C838 1.399 . S
C834 C833 1.399 . S
C834 C835 1.376 . S
C835 H822 0.930 . S
C835 C834 1.376 . S
C835 C836 1.388 . S
C836 H823 0.930 . S
C836 C835 1.388 . S
C836 C837 1.390 . S
C837 C836 1.390 . S
C837 C838 1.394 . S
C837 C843 1.465 . S
C838 C833 1.399 . S
C838 C837 1.394 . S
C838 C839 1.516 . S
C839 C838 1.516 . S
C839 C840 1.502 . S
C839 C841 1.561 . S
C839 C842 1.526 . S
C840 H824 0.959 . S
C840 H825 0.959 . S
C840 H826 0.961 . S
C840 C839 1.502 . S
C841 H827 0.960 . S
C841 H828 0.961 . S
C841 H829 0.959 . S
C841 C839 1.561 . S
C842 C839 1.526 . S
C842 C843 1.396 . S
C842 C847 1.390 . S
C843 C837 1.465 . S
C843 C842 1.396 . S
C843 C844 1.399 . S
C844 H830 0.929 . S
C844 C843 1.399 . S
C844 C845 1.385 . S
C845 H831 0.931 . S
C845 C844 1.385 . S
C845 C846 1.389 . S
C846 C845 1.389 . S
C846 C847 1.387 . S
C847 H832 0.930 . S
C847 C842 1.390 . S
C847 C846 1.387 . S
H848 C860 0.930 . S
H849 C862 0.930 . S
H850 C863 0.930 . S
H851 C867 0.959 . S
H852 C867 0.959 . S
H853 C867 0.961 1_556 S
H854 C868 0.960 . S
H855 C868 0.961 . S
H856 C868 0.959 . S
H857 C871 0.929 . S
H858 C872 0.931 . S
H859 C874 0.930 . S
C860 H848 0.930 . S
C860 C861 1.399 . S
C860 C865 1.399 1_556 S
C861 C860 1.399 . S
C861 C862 1.376 1_556 S
C862 H849 0.930 . S
C862 C861 1.376 1_554 S
C862 C863 1.388 . S
C863 H850 0.930 . S
C863 C862 1.388 . S
C863 C864 1.390 . S
C864 C863 1.390 . S
C864 C865 1.394 . S
C864 C870 1.465 . S
C865 C860 1.399 1_554 S
C865 C864 1.394 . S
C865 C866 1.516 . S
C866 C865 1.516 . S
C866 C867 1.502 . S
C866 C868 1.561 . S
C866 C869 1.526 . S
C867 H851 0.959 . S
C867 H852 0.959 . S
C867 H853 0.961 1_554 S
C867 C866 1.502 . S
C868 H854 0.960 . S
C868 H855 0.961 . S
C868 H856 0.959 . S
C868 C866 1.561 . S
C869 C866 1.526 . S
C869 C870 1.396 . S
C869 C874 1.390 . S
C870 C864 1.465 . S
C870 C869 1.396 . S
C870 C871 1.399 . S
C871 H857 0.929 . S
C871 C870 1.399 . S
C871 C872 1.385 . S
C872 H858 0.931 . S
C872 C871 1.385 . S
C872 C873 1.389 . S
C873 C872 1.389 . S
C873 C874 1.387 . S
C874 H859 0.930 . S
C874 C869 1.390 . S
C874 C873 1.387 . S
H875 C887 0.930 . S
H876 C889 0.930 . S
H877 C890 0.930 . S
H878 C894 0.959 . S
H879 C894 0.959 . S
H880 C894 0.961 . S
H881 C895 0.960 . S
H882 C895 0.961 . S
H883 C895 0.959 . S
H884 C898 0.929 . S
H885 C899 0.931 . S
H886 C901 0.930 . S
C887 H875 0.930 . S
C887 C888 1.399 . S
C887 C892 1.399 . S
C888 C887 1.399 . S
C888 C889 1.376 . S
C889 H876 0.930 . S
C889 C888 1.376 . S
C889 C890 1.388 . S
C890 H877 0.930 . S
C890 C889 1.388 . S
C890 C891 1.390 . S
C891 C890 1.390 . S
C891 C892 1.394 . S
C891 C897 1.465 . S
C892 C887 1.399 . S
C892 C891 1.394 . S
C892 C893 1.516 . S
C893 C892 1.516 . S
C893 C894 1.502 . S
C893 C895 1.561 . S
C893 C896 1.526 . S
C894 H878 0.959 . S
C894 H879 0.959 . S
C894 H880 0.961 . S
C894 C893 1.502 . S
C895 H881 0.960 . S
C895 H882 0.961 . S
C895 H883 0.959 . S
C895 C893 1.561 . S
C896 C893 1.526 . S
C896 C897 1.396 . S
C896 C901 1.390 . S
C897 C891 1.465 . S
C897 C896 1.396 . S
C897 C898 1.399 . S
C898 H884 0.929 . S
C898 C897 1.399 . S
C898 C899 1.385 . S
C899 H885 0.931 . S
C899 C898 1.385 . S
C899 C900 1.389 . S
C900 C899 1.389 . S
C900 C901 1.387 . S
C901 H886 0.930 . S
C901 C896 1.390 . S
C901 C900 1.387 . S
H902 C914 0.930 . S
H903 C916 0.930 . S
H904 C917 0.930 . S
H905 C921 0.959 . S
H906 C921 0.959 . S
H907 C921 0.961 . S
H908 C922 0.960 . S
H909 C922 0.961 . S
H910 C922 0.959 . S
H911 C925 0.929 . S
H912 C926 0.931 . S
H913 C928 0.930 . S
C914 H902 0.930 . S
C914 C915 1.399 . S
C914 C919 1.399 . S
C915 C914 1.399 . S
C915 C916 1.376 . S
C916 H903 0.930 . S
C916 C915 1.376 . S
C916 C917 1.388 . S
C917 H904 0.930 . S
C917 C916 1.388 . S
C917 C918 1.390 . S
C918 C917 1.390 . S
C918 C919 1.394 . S
C918 C924 1.465 . S
C919 C914 1.399 . S
C919 C918 1.394 . S
C919 C920 1.516 . S
C920 C919 1.516 . S
C920 C921 1.502 . S
C920 C922 1.561 . S
C920 C923 1.526 . S
C921 H905 0.959 . S
C921 H906 0.959 . S
C921 H907 0.961 . S
C921 C920 1.502 . S
C922 H908 0.960 . S
C922 H909 0.961 . S
C922 H910 0.959 . S
C922 C920 1.561 . S
C923 C920 1.526 . S
C923 C924 1.396 . S
C923 C928 1.390 . S
C924 C918 1.465 . S
C924 C923 1.396 . S
C924 C925 1.399 . S
C925 H911 0.929 . S
C925 C924 1.399 . S
C925 C926 1.385 . S
C926 H912 0.931 . S
C926 C925 1.385 . S
C926 C927 1.389 . S
C927 C926 1.389 . S
C927 C928 1.387 . S
C928 H913 0.930 . S
C928 C923 1.390 . S
C928 C927 1.387 . S
H929 C941 0.930 . S
H930 C943 0.930 . S
H931 C944 0.930 . S
H932 C948 0.959 . S
H933 C948 0.959 . S
H934 C948 0.961 . S
H935 C949 0.960 . S
H936 C949 0.961 . S
H937 C949 0.959 . S
H938 C952 0.929 . S
H939 C953 0.931 . S
H940 C955 0.930 . S
C941 H929 0.930 . S
C941 C942 1.399 . S
C941 C946 1.399 . S
C942 C941 1.399 . S
C942 C943 1.376 . S
C943 H930 0.930 . S
C943 C942 1.376 . S
C943 C944 1.388 . S
C944 H931 0.930 . S
C944 C943 1.388 . S
C944 C945 1.390 . S
C945 C944 1.390 . S
C945 C946 1.394 . S
C945 C951 1.465 . S
C946 C941 1.399 . S
C946 C945 1.394 . S
C946 C947 1.516 . S
C947 C946 1.516 . S
C947 C948 1.502 . S
C947 C949 1.561 . S
C947 C950 1.526 . S
C948 H932 0.959 . S
C948 H933 0.959 . S
C948 H934 0.961 . S
C948 C947 1.502 . S
C949 H935 0.960 . S
C949 H936 0.961 . S
C949 H937 0.959 . S
C949 C947 1.561 . S
C950 C947 1.526 . S
C950 C951 1.396 . S
C950 C955 1.390 . S
C951 C945 1.465 . S
C951 C950 1.396 . S
C951 C952 1.399 . S
C952 H938 0.929 . S
C952 C951 1.399 . S
C952 C953 1.385 1_556 S
C953 H939 0.931 . S
C953 C952 1.385 1_554 S
C953 C954 1.389 . S
C954 C953 1.389 . S
C954 C955 1.387 1_554 S
C955 H940 0.930 . S
C955 C950 1.390 . S
C955 C954 1.387 1_556 S
H956 C968 0.930 . S
H957 C970 0.930 . S
H958 C971 0.930 . S
H959 C975 0.959 . S
H960 C975 0.959 . S
H961 C975 0.961 . S
H962 C976 0.960 . S
H963 C976 0.961 . S
H964 C976 0.959 . S
H965 C979 0.929 . S
H966 C980 0.931 . S
H967 C982 0.930 . S
C968 H956 0.930 . S
C968 C969 1.399 1_556 S
C968 C973 1.399 . S
C969 C968 1.399 1_554 S
C969 C970 1.376 . S
C970 H957 0.930 . S
C970 C969 1.376 . S
C970 C971 1.388 1_554 S
C971 H958 0.930 . S
C971 C970 1.388 1_556 S
C971 C972 1.390 . S
C972 C971 1.390 . S
C972 C973 1.394 . S
C972 C978 1.465 . S
C973 C968 1.399 . S
C973 C972 1.394 . S
C973 C974 1.516 . S
C974 C973 1.516 . S
C974 C975 1.502 . S
C974 C976 1.561 . S
C974 C977 1.526 . S
C975 H959 0.959 . S
C975 H960 0.959 . S
C975 H961 0.961 . S
C975 C974 1.502 . S
C976 H962 0.960 . S
C976 H963 0.961 . S
C976 H964 0.959 . S
C976 C974 1.561 . S
C977 C974 1.526 . S
C977 C978 1.396 . S
C977 C982 1.390 . S
C978 C972 1.465 . S
C978 C977 1.396 . S
C978 C979 1.399 . S
C979 H965 0.929 . S
C979 C978 1.399 . S
C979 C980 1.385 . S
C980 H966 0.931 . S
C980 C979 1.385 . S
C980 C981 1.389 . S
C981 C980 1.389 . S
C981 C982 1.387 . S
C982 H967 0.930 . S
C982 C977 1.390 . S
C982 C981 1.387 . S
H983 C995 0.930 . S
H984 C997 0.930 . S
H985 C998 0.930 . S
H986 C1002 0.959 . S
H987 C1002 0.959 . S
H988 C1002 0.961 . S
H989 C1003 0.960 . S
H990 C1003 0.961 . S
H991 C1003 0.959 . S
H992 C1006 0.929 . S
H993 C1007 0.931 . S
H994 C1009 0.930 . S
C995 H983 0.930 . S
C995 C996 1.399 . S
C995 C1000 1.399 . S
C996 C995 1.399 . S
C996 C997 1.376 . S
C997 H984 0.930 . S
C997 C996 1.376 . S
C997 C998 1.388 . S
C998 H985 0.930 . S
C998 C997 1.388 . S
C998 C999 1.390 . S
C999 C998 1.390 . S
C999 C1000 1.394 . S
C999 C1005 1.465 . S
C1000 C995 1.399 . S
C1000 C999 1.394 . S
C1000 C1001 1.516 . S
C1001 C1000 1.516 . S
C1001 C1002 1.502 . S
C1001 C1003 1.561 . S
C1001 C1004 1.526 . S
C1002 H986 0.959 . S
C1002 H987 0.959 . S
C1002 H988 0.961 . S
C1002 C1001 1.502 . S
C1003 H989 0.960 . S
C1003 H990 0.961 . S
C1003 H991 0.959 . S
C1003 C1001 1.561 . S
C1004 C1001 1.526 . S
C1004 C1005 1.396 . S
C1004 C1009 1.390 . S
C1005 C999 1.465 . S
C1005 C1004 1.396 . S
C1005 C1006 1.399 . S
C1006 H992 0.929 . S
C1006 C1005 1.399 . S
C1006 C1007 1.385 . S
C1007 H993 0.931 . S
C1007 C1006 1.385 . S
C1007 C1008 1.389 . S
C1008 C1007 1.389 . S
C1008 C1009 1.387 . S
C1009 H994 0.930 . S
C1009 C1004 1.390 . S
C1009 C1008 1.387 . S
H1010 C1022 0.930 . S
H1011 C1024 0.930 . S
H1012 C1025 0.930 . S
H1013 C1029 0.959 . S
H1014 C1029 0.959 . S
H1015 C1029 0.961 . S
H1016 C1030 0.960 . S
H1017 C1030 0.961 . S
H1018 C1030 0.959 . S
H1019 C1033 0.929 . S
H1020 C1034 0.931 . S
H1021 C1036 0.930 . S
C1022 H1010 0.930 . S
C1022 C1023 1.399 . S
C1022 C1027 1.399 . S
C1023 C1022 1.399 . S
C1023 C1024 1.376 . S
C1024 H1011 0.930 . S
C1024 C1023 1.376 . S
C1024 C1025 1.388 . S
C1025 H1012 0.930 . S
C1025 C1024 1.388 . S
C1025 C1026 1.390 . S
C1026 C1025 1.390 . S
C1026 C1027 1.394 . S
C1026 C1032 1.465 . S
C1027 C1022 1.399 . S
C1027 C1026 1.394 . S
C1027 C1028 1.516 . S
C1028 C1027 1.516 . S
C1028 C1029 1.502 . S
C1028 C1030 1.561 . S
C1028 C1031 1.526 . S
C1029 H1013 0.959 . S
C1029 H1014 0.959 . S
C1029 H1015 0.961 . S
C1029 C1028 1.502 . S
C1030 H1016 0.960 . S
C1030 H1017 0.961 . S
C1030 H1018 0.959 . S
C1030 C1028 1.561 . S
C1031 C1028 1.526 . S
C1031 C1032 1.396 . S
C1031 C1036 1.390 . S
C1032 C1026 1.465 . S
C1032 C1031 1.396 . S
C1032 C1033 1.399 . S
C1033 H1019 0.929 . S
C1033 C1032 1.399 . S
C1033 C1034 1.385 . S
C1034 H1020 0.931 . S
C1034 C1033 1.385 . S
C1034 C1035 1.389 . S
C1035 C1034 1.389 . S
C1035 C1036 1.387 . S
C1036 H1021 0.930 . S
C1036 C1031 1.390 . S
C1036 C1035 1.387 . S
H1037 C1049 0.922 1_556 S
H1038 C1051 0.930 . S
H1039 C1052 0.930 . S
H1040 C1056 0.959 . S
H1041 C1056 0.959 . S
H1042 C1056 0.961 . S
H1043 C1057 0.960 . S
H1044 C1057 0.961 . S
H1045 C1057 0.959 . S
H1046 C1060 0.929 . S
H1047 C1061 0.931 . S
H1048 C1063 0.930 . S
C1049 H1037 0.922 1_554 S
C1049 C1050 1.395 1_554 S
C1049 C1054 1.411 . S
C1050 C1049 1.395 1_556 S
C1050 C1051 1.376 1_556 S
C1051 H1038 0.930 . S
C1051 C1050 1.376 1_554 S
C1051 C1052 1.388 . S
C1052 H1039 0.930 . S
C1052 C1051 1.388 . S
C1052 C1053 1.390 . S
C1053 C1052 1.390 . S
C1053 C1054 1.394 . S
C1053 C1059 1.465 . S
C1054 C1049 1.411 . S
C1054 C1053 1.394 . S
C1054 C1055 1.516 . S
C1055 C1054 1.516 . S
C1055 C1056 1.502 . S
C1055 C1057 1.561 . S
C1055 C1058 1.526 . S
C1056 H1040 0.959 . S
C1056 H1041 0.959 . S
C1056 H1042 0.961 . S
C1056 C1055 1.502 . S
C1057 H1043 0.960 . S
C1057 H1044 0.961 . S
C1057 H1045 0.959 . S
C1057 C1055 1.561 . S
C1058 C1055 1.526 . S
C1058 C1059 1.396 . S
C1058 C1063 1.390 . S
C1059 C1053 1.465 . S
C1059 C1058 1.396 . S
C1059 C1060 1.399 . S
C1060 H1046 0.929 . S
C1060 C1059 1.399 . S
C1060 C1061 1.385 . S
C1061 H1047 0.931 . S
C1061 C1060 1.385 . S
C1061 C1062 1.389 . S
C1062 C1061 1.389 . S
C1062 C1063 1.387 . S
C1063 H1048 0.930 . S
C1063 C1058 1.390 . S
C1063 C1062 1.387 . S
H1064 C1076 0.930 . S
H1065 C1078 0.930 . S
H1066 C1079 0.930 . S
H1067 C1083 0.959 . S
H1068 C1083 0.959 . S
H1069 C1083 0.961 . S
H1070 C1084 0.960 . S
H1071 C1084 0.961 . S
H1072 C1084 0.959 . S
H1073 C1087 0.929 . S
H1074 C1088 0.931 . S
H1075 C1090 0.930 . S
C1076 H1064 0.930 . S
C1076 C1077 1.399 . S
C1076 C1081 1.399 . S
C1077 C1076 1.399 . S
C1077 C1078 1.376 . S
C1078 H1065 0.930 . S
C1078 C1077 1.376 . S
C1078 C1079 1.388 . S
C1079 H1066 0.930 . S
C1079 C1078 1.388 . S
C1079 C1080 1.390 . S
C1080 C1079 1.390 . S
C1080 C1081 1.394 . S
C1080 C1086 1.465 . S
C1081 C1076 1.399 . S
C1081 C1080 1.394 . S
C1081 C1082 1.516 . S
C1082 C1081 1.516 . S
C1082 C1083 1.502 . S
C1082 C1084 1.561 . S
C1082 C1085 1.526 . S
C1083 H1067 0.959 . S
C1083 H1068 0.959 . S
C1083 H1069 0.961 . S
C1083 C1082 1.502 . S
C1084 H1070 0.960 . S
C1084 H1071 0.961 . S
C1084 H1072 0.959 . S
C1084 C1082 1.561 . S
C1085 C1082 1.526 . S
C1085 C1086 1.396 . S
C1085 C1090 1.390 . S
C1086 C1080 1.465 . S
C1086 C1085 1.396 . S
C1086 C1087 1.399 . S
C1087 H1073 0.929 . S
C1087 C1086 1.399 . S
C1087 C1088 1.385 . S
C1088 H1074 0.931 . S
C1088 C1087 1.385 . S
C1088 C1089 1.389 . S
C1089 C1088 1.389 . S
C1089 C1090 1.387 . S
C1090 H1075 0.930 . S
C1090 C1085 1.390 . S
C1090 C1089 1.387 . S
H1091 C1103 0.930 . S
H1092 C1105 0.930 . S
H1093 C1106 0.930 . S
H1094 C1110 0.959 . S
H1095 C1110 0.959 . S
H1096 C1110 0.961 . S
H1097 C1111 0.960 1_554 S
H1098 C1111 0.961 . S
H1099 C1111 0.959 . S
H1100 C1114 0.929 . S
H1101 C1115 0.931 . S
H1102 C1117 0.930 . S
C1103 H1091 0.930 . S
C1103 C1104 1.399 . S
C1103 C1108 1.399 1_554 S
C1104 C1103 1.399 . S
C1104 C1105 1.376 1_554 S
C1105 H1092 0.930 . S
C1105 C1104 1.376 1_556 S
C1105 C1106 1.388 . S
C1106 H1093 0.930 . S
C1106 C1105 1.388 . S
C1106 C1107 1.390 . S
C1107 C1106 1.390 . S
C1107 C1108 1.394 . S
C1107 C1113 1.465 . S
C1108 C1103 1.399 1_556 S
C1108 C1107 1.394 . S
C1108 C1109 1.516 . S
C1109 C1108 1.516 . S
C1109 C1110 1.502 . S
C1109 C1111 1.561 . S
C1109 C1112 1.526 . S
C1110 H1094 0.959 . S
C1110 H1095 0.959 . S
C1110 H1096 0.961 . S
C1110 C1109 1.502 . S
C1111 H1097 0.960 1_556 S
C1111 H1098 0.961 . S
C1111 H1099 0.959 . S
C1111 C1109 1.561 . S
C1112 C1109 1.526 . S
C1112 C1113 1.396 . S
C1112 C1117 1.390 . S
C1113 C1107 1.465 . S
C1113 C1112 1.396 . S
C1113 C1114 1.399 . S
C1114 H1100 0.929 . S
C1114 C1113 1.399 . S
C1114 C1115 1.385 . S
C1115 H1101 0.931 . S
C1115 C1114 1.385 . S
C1115 C1116 1.389 . S
C1116 C1115 1.389 . S
C1116 C1117 1.387 . S
C1117 H1102 0.930 . S
C1117 C1112 1.390 . S
C1117 C1116 1.387 . S
H1118 C1130 0.930 . S
H1119 C1132 0.930 . S
H1120 C1133 0.930 . S
H1121 C1137 0.959 . S
H1122 C1137 0.959 . S
H1123 C1137 0.961 . S
H1124 C1138 0.960 . S
H1125 C1138 0.961 . S
H1126 C1138 0.959 . S
H1127 C1141 0.929 . S
H1128 C1142 0.931 . S
H1129 C1144 0.930 . S
C1130 H1118 0.930 . S
C1130 C1131 1.399 . S
C1130 C1135 1.399 . S
C1131 C1130 1.399 . S
C1131 C1132 1.376 . S
C1132 H1119 0.930 . S
C1132 C1131 1.376 . S
C1132 C1133 1.388 . S
C1133 H1120 0.930 . S
C1133 C1132 1.388 . S
C1133 C1134 1.390 . S
C1134 C1133 1.390 . S
C1134 C1135 1.394 . S
C1134 C1140 1.465 . S
C1135 C1130 1.399 . S
C1135 C1134 1.394 . S
C1135 C1136 1.516 . S
C1136 C1135 1.516 . S
C1136 C1137 1.502 . S
C1136 C1138 1.561 . S
C1136 C1139 1.526 . S
C1137 H1121 0.959 . S
C1137 H1122 0.959 . S
C1137 H1123 0.961 . S
C1137 C1136 1.502 . S
C1138 H1124 0.960 . S
C1138 H1125 0.961 . S
C1138 H1126 0.959 . S
C1138 C1136 1.561 . S
C1139 C1136 1.526 . S
C1139 C1140 1.396 . S
C1139 C1144 1.390 . S
C1140 C1134 1.465 . S
C1140 C1139 1.396 . S
C1140 C1141 1.399 . S
C1141 H1127 0.929 . S
C1141 C1140 1.399 . S
C1141 C1142 1.385 1_554 S
C1142 H1128 0.931 . S
C1142 C1141 1.385 1_556 S
C1142 C1143 1.389 . S
C1143 C1142 1.389 . S
C1143 C1144 1.387 1_556 S
C1144 H1129 0.930 . S
C1144 C1139 1.390 . S
C1144 C1143 1.387 1_554 S
H1145 C1157 0.930 . S
H1146 C1159 0.930 . S
H1147 C1160 0.930 . S
H1148 C1164 0.959 . S
H1149 C1164 0.959 . S
H1150 C1164 0.961 . S
H1151 C1165 0.960 . S
H1152 C1165 0.961 . S
H1153 C1165 0.959 . S
H1154 C1168 0.929 . S
H1155 C1169 0.931 . S
H1156 C1171 0.930 . S
C1157 H1145 0.930 . S
C1157 C1158 1.399 . S
C1157 C1162 1.399 . S
C1158 C1157 1.399 . S
C1158 C1159 1.376 . S
C1159 H1146 0.930 . S
C1159 C1158 1.376 . S
C1159 C1160 1.388 . S
C1160 H1147 0.930 . S
C1160 C1159 1.388 . S
C1160 C1161 1.390 . S
C1161 C1160 1.390 . S
C1161 C1162 1.394 . S
C1161 C1167 1.465 . S
C1162 C1157 1.399 . S
C1162 C1161 1.394 . S
C1162 C1163 1.516 . S
C1163 C1162 1.516 . S
C1163 C1164 1.502 . S
C1163 C1165 1.561 . S
C1163 C1166 1.526 . S
C1164 H1148 0.959 . S
C1164 H1149 0.959 . S
C1164 H1150 0.961 . S
C1164 C1163 1.502 . S
C1165 H1151 0.960 . S
C1165 H1152 0.961 . S
C1165 H1153 0.959 . S
C1165 C1163 1.561 . S
C1166 C1163 1.526 . S
C1166 C1167 1.396 . S
C1166 C1171 1.390 . S
C1167 C1161 1.465 . S
C1167 C1166 1.396 . S
C1167 C1168 1.399 . S
C1168 H1154 0.929 . S
C1168 C1167 1.399 . S
C1168 C1169 1.385 . S
C1169 H1155 0.931 . S
C1169 C1168 1.385 . S
C1169 C1170 1.389 . S
C1170 C1169 1.389 . S
C1170 C1171 1.387 . S
C1171 H1156 0.930 . S
C1171 C1166 1.390 . S
C1171 C1170 1.387 . S
H1172 C1184 0.930 . S
H1173 C1186 0.930 . S
H1174 C1187 0.930 . S
H1175 C1191 0.959 . S
H1176 C1191 0.959 . S
H1177 C1191 0.961 . S
H1178 C1192 0.960 . S
H1179 C1192 0.961 . S
H1180 C1192 0.959 . S
H1181 C1195 0.929 . S
H1182 C1196 0.931 . S
H1183 C1198 0.930 . S
C1184 H1172 0.930 . S
C1184 C1185 1.399 . S
C1184 C1189 1.399 . S
C1185 C1184 1.399 . S
C1185 C1186 1.376 . S
C1186 H1173 0.930 . S
C1186 C1185 1.376 . S
C1186 C1187 1.388 . S
C1187 H1174 0.930 . S
C1187 C1186 1.388 . S
C1187 C1188 1.390 . S
C1188 C1187 1.390 . S
C1188 C1189 1.394 . S
C1188 C1194 1.465 . S
C1189 C1184 1.399 . S
C1189 C1188 1.394 . S
C1189 C1190 1.516 . S
C1190 C1189 1.516 . S
C1190 C1191 1.502 . S
C1190 C1192 1.561 . S
C1190 C1193 1.526 . S
C1191 H1175 0.959 . S
C1191 H1176 0.959 . S
C1191 H1177 0.961 . S
C1191 C1190 1.502 . S
C1192 H1178 0.960 . S
C1192 H1179 0.961 . S
C1192 H1180 0.959 . S
C1192 C1190 1.561 . S
C1193 C1190 1.526 . S
C1193 C1194 1.396 . S
C1193 C1198 1.390 . S
C1194 C1188 1.465 . S
C1194 C1193 1.396 . S
C1194 C1195 1.399 . S
C1195 H1181 0.929 . S
C1195 C1194 1.399 . S
C1195 C1196 1.385 . S
C1196 H1182 0.931 . S
C1196 C1195 1.385 . S
C1196 C1197 1.389 . S
C1197 C1196 1.389 . S
C1197 C1198 1.387 . S
C1198 H1183 0.930 . S
C1198 C1193 1.390 . S
C1198 C1197 1.387 . S
H1199 C1211 0.930 . S
H1200 C1213 0.930 . S
H1201 C1214 0.930 . S
H1202 C1218 0.959 . S
H1203 C1218 0.959 . S
H1204 C1218 0.961 . S
H1205 C1219 0.960 . S
H1206 C1219 0.961 . S
H1207 C1219 0.959 . S
H1208 C1222 0.929 . S
H1209 C1223 0.931 . S
H1210 C1225 0.930 . S
C1211 H1199 0.930 . S
C1211 C1212 1.399 1_554 S
C1211 C1216 1.399 . S
C1212 C1211 1.399 1_556 S
C1212 C1213 1.376 . S
C1213 H1200 0.930 . S
C1213 C1212 1.376 . S
C1213 C1214 1.388 1_556 S
C1214 H1201 0.930 . S
C1214 C1213 1.388 1_554 S
C1214 C1215 1.390 . S
C1215 C1214 1.390 . S
C1215 C1216 1.394 . S
C1215 C1221 1.465 . S
C1216 C1211 1.399 . S
C1216 C1215 1.394 . S
C1216 C1217 1.516 . S
C1217 C1216 1.516 . S
C1217 C1218 1.502 . S
C1217 C1219 1.561 . S
C1217 C1220 1.526 . S
C1218 H1202 0.959 . S
C1218 H1203 0.959 . S
C1218 H1204 0.961 . S
C1218 C1217 1.502 . S
C1219 H1205 0.960 . S
C1219 H1206 0.961 . S
C1219 H1207 0.959 . S
C1219 C1217 1.561 . S
C1220 C1217 1.526 . S
C1220 C1221 1.396 . S
C1220 C1225 1.390 . S
C1221 C1215 1.465 . S
C1221 C1220 1.396 . S
C1221 C1222 1.399 . S
C1222 H1208 0.929 . S
C1222 C1221 1.399 . S
C1222 C1223 1.385 . S
C1223 H1209 0.931 . S
C1223 C1222 1.385 . S
C1223 C1224 1.389 . S
C1224 C1223 1.389 . S
C1224 C1225 1.387 . S
C1225 H1210 0.930 . S
C1225 C1220 1.390 . S
C1225 C1224 1.387 . S
H1226 C1238 0.930 . S
H1227 C1240 0.930 . S
H1228 C1241 0.930 . S
H1229 C1245 0.959 . S
H1230 C1245 0.959 1_554 S
H1231 C1245 0.961 . S
H1232 C1246 0.960 . S
H1233 C1246 0.961 . S
H1234 C1246 0.959 . S
H1235 C1249 0.929 . S
H1236 C1250 0.931 . S
H1237 C1252 0.930 . S
C1238 H1226 0.930 . S
C1238 C1239 1.399 . S
C1238 C1243 1.399 . S
C1239 C1238 1.399 . S
C1239 C1240 1.376 . S
C1240 H1227 0.930 . S
C1240 C1239 1.376 . S
C1240 C1241 1.388 . S
C1241 H1228 0.930 . S
C1241 C1240 1.388 . S
C1241 C1242 1.390 . S
C1242 C1241 1.390 . S
C1242 C1243 1.394 . S
C1242 C1248 1.465 . S
C1243 C1238 1.399 . S
C1243 C1242 1.394 . S
C1243 C1244 1.516 . S
C1244 C1243 1.516 . S
C1244 C1245 1.502 . S
C1244 C1246 1.561 . S
C1244 C1247 1.526 . S
C1245 H1229 0.959 . S
C1245 H1230 0.959 1_556 S
C1245 H1231 0.961 . S
C1245 C1244 1.502 . S
C1246 H1232 0.960 . S
C1246 H1233 0.961 . S
C1246 H1234 0.959 . S
C1246 C1244 1.561 . S
C1247 C1244 1.526 . S
C1247 C1248 1.396 . S
C1247 C1252 1.390 1_556 S
C1248 C1242 1.465 . S
C1248 C1247 1.396 . S
C1248 C1249 1.399 . S
C1249 H1235 0.929 . S
C1249 C1248 1.399 . S
C1249 C1250 1.385 . S
C1250 H1236 0.931 . S
C1250 C1249 1.385 . S
C1250 C1251 1.389 1_556 S
C1251 C1250 1.389 1_554 S
C1251 C1252 1.387 . S
C1252 H1237 0.930 . S
C1252 C1247 1.390 1_554 S
C1252 C1251 1.387 . S
H1253 C1265 0.930 . S
H1254 C1267 0.930 . S
H1255 C1268 0.930 . S
H1256 C1272 0.959 . S
H1257 C1272 0.959 . S
H1258 C1272 0.961 . S
H1259 C1273 0.960 . S
H1260 C1273 0.961 . S
H1261 C1273 0.959 . S
H1262 C1276 0.929 . S
H1263 C1277 0.931 . S
H1264 C1279 0.930 . S
C1265 H1253 0.930 . S
C1265 C1266 1.399 . S
C1265 C1270 1.399 . S
C1266 C1265 1.399 . S
C1266 C1267 1.376 . S
C1267 H1254 0.930 . S
C1267 C1266 1.376 . S
C1267 C1268 1.388 . S
C1268 H1255 0.930 . S
C1268 C1267 1.388 . S
C1268 C1269 1.390 . S
C1269 C1268 1.390 . S
C1269 C1270 1.394 . S
C1269 C1275 1.465 . S
C1270 C1265 1.399 . S
C1270 C1269 1.394 . S
C1270 C1271 1.516 . S
C1271 C1270 1.516 . S
C1271 C1272 1.502 . S
C1271 C1273 1.561 . S
C1271 C1274 1.526 . S
C1272 H1256 0.959 . S
C1272 H1257 0.959 . S
C1272 H1258 0.961 . S
C1272 C1271 1.502 . S
C1273 H1259 0.960 . S
C1273 H1260 0.961 . S
C1273 H1261 0.959 . S
C1273 C1271 1.561 . S
C1274 C1271 1.526 . S
C1274 C1275 1.396 . S
C1274 C1279 1.390 . S
C1275 C1269 1.465 . S
C1275 C1274 1.396 . S
C1275 C1276 1.399 . S
C1276 H1262 0.929 . S
C1276 C1275 1.399 . S
C1276 C1277 1.385 . S
C1277 H1263 0.931 . S
C1277 C1276 1.385 . S
C1277 C1278 1.389 . S
C1278 C1277 1.389 . S
C1278 C1279 1.387 . S
C1279 H1264 0.930 . S
C1279 C1274 1.390 . S
C1279 C1278 1.387 . S
H1280 C1292 0.930 . S
H1281 C1294 0.930 . S
H1282 C1295 0.930 . S
H1283 C1299 0.959 . S
H1284 C1299 0.959 1_556 S
H1285 C1299 0.961 . S
H1286 C1300 0.960 . S
H1287 C1300 0.961 1_556 S
H1288 C1300 0.959 . S
H1289 C1303 0.929 . S
H1290 C1304 0.931 . S
H1291 C1306 0.930 1_556 S
C1292 H1280 0.930 . S
C1292 C1293 1.399 . S
C1292 C1297 1.399 . S
C1293 C1292 1.399 . S
C1293 C1294 1.376 . S
C1294 H1281 0.930 . S
C1294 C1293 1.376 . S
C1294 C1295 1.388 . S
C1295 H1282 0.930 . S
C1295 C1294 1.388 . S
C1295 C1296 1.390 . S
C1296 C1295 1.390 . S
C1296 C1297 1.394 . S
C1296 C1302 1.465 . S
C1297 C1292 1.399 . S
C1297 C1296 1.394 . S
C1297 C1298 1.516 . S
C1298 C1297 1.516 . S
C1298 C1299 1.502 . S
C1298 C1300 1.561 . S
C1298 C1301 1.526 . S
C1299 H1283 0.959 . S
C1299 H1284 0.959 1_554 S
C1299 H1285 0.961 . S
C1299 C1298 1.502 . S
C1300 H1286 0.960 . S
C1300 H1287 0.961 1_554 S
C1300 H1288 0.959 . S
C1300 C1298 1.561 . S
C1301 C1298 1.526 . S
C1301 C1302 1.396 . S
C1301 C1306 1.390 . S
C1302 C1296 1.465 . S
C1302 C1301 1.396 . S
C1302 C1303 1.399 . S
C1303 H1289 0.929 . S
C1303 C1302 1.399 . S
C1303 C1304 1.385 . S
C1304 H1290 0.931 . S
C1304 C1303 1.385 . S
C1304 C1305 1.389 . S
C1305 C1304 1.389 . S
C1305 C1306 1.387 . S
C1306 H1291 0.930 1_554 S
C1306 C1301 1.390 . S
C1306 C1305 1.387 . S
H1307 C1319 0.930 . S
H1308 C1321 0.930 . S
H1309 C1322 0.889 1_455 S
H1310 C1326 0.959 . S
H1311 C1326 0.959 . S
H1312 C1326 0.961 . S
H1313 C1327 0.960 . S
H1314 C1327 0.961 . S
H1315 C1327 0.959 . S
H1316 C1330 0.929 . S
H1317 C1331 0.931 . S
H1318 C1333 0.930 . S
C1319 H1307 0.930 . S
C1319 C1320 1.399 . S
C1319 C1324 1.399 . S
C1320 C1319 1.399 . S
C1320 C1321 1.376 . S
C1321 H1308 0.930 . S
C1321 C1320 1.376 . S
C1321 C1322 1.388 . S
C1322 H1309 0.889 1_655 S
C1322 C1321 1.388 . S
C1322 C1323 1.390 . S
C1323 C1322 1.390 . S
C1323 C1324 1.394 . S
C1323 C1329 1.465 1_655 S
C1324 C1319 1.399 . S
C1324 C1323 1.394 . S
C1324 C1325 1.516 . S
C1325 C1324 1.516 . S
C1325 C1326 1.502 . S
C1325 C1327 1.561 . S
C1325 C1328 1.526 1_655 S
C1326 H1310 0.959 . S
C1326 H1311 0.959 . S
C1326 H1312 0.961 . S
C1326 C1325 1.502 . S
C1327 H1313 0.960 . S
C1327 H1314 0.961 . S
C1327 H1315 0.959 . S
C1327 C1325 1.561 . S
C1328 C1325 1.526 1_455 S
C1328 C1329 1.396 . S
C1328 C1333 1.390 . S
C1329 C1323 1.465 1_455 S
C1329 C1328 1.396 . S
C1329 C1330 1.399 . S
C1330 H1316 0.929 . S
C1330 C1329 1.399 . S
C1330 C1331 1.385 . S
C1331 H1317 0.931 . S
C1331 C1330 1.385 . S
C1331 C1332 1.389 . S
C1332 C1331 1.389 . S
C1332 C1333 1.387 . S
C1333 H1318 0.930 . S
C1333 C1328 1.390 . S
C1333 C1332 1.387 . S
H1334 C1346 0.930 . S
H1335 C1348 0.930 . S
H1336 C1349 0.930 . S
H1337 C1353 0.959 . S
H1338 C1353 0.959 . S
H1339 C1353 0.961 . S
H1340 C1354 0.960 . S
H1341 C1354 0.961 . S
H1342 C1354 0.959 . S
H1343 C1357 0.929 . S
H1344 C1358 0.931 . S
H1345 C1360 0.930 . S
C1346 H1334 0.930 . S
C1346 C1347 1.399 . S
C1346 C1351 1.399 . S
C1347 C1346 1.399 . S
C1347 C1348 1.376 . S
C1348 H1335 0.930 . S
C1348 C1347 1.376 . S
C1348 C1349 1.388 . S
C1349 H1336 0.930 . S
C1349 C1348 1.388 . S
C1349 C1350 1.390 . S
C1350 C1349 1.390 . S
C1350 C1351 1.394 . S
C1350 C1356 1.465 . S
C1351 C1346 1.399 . S
C1351 C1350 1.394 . S
C1351 C1352 1.516 . S
C1352 C1351 1.516 . S
C1352 C1353 1.502 . S
C1352 C1354 1.561 . S
C1352 C1355 1.526 . S
C1353 H1337 0.959 . S
C1353 H1338 0.959 . S
C1353 H1339 0.961 . S
C1353 C1352 1.502 . S
C1354 H1340 0.960 . S
C1354 H1341 0.961 . S
C1354 H1342 0.959 . S
C1354 C1352 1.561 . S
C1355 C1352 1.526 . S
C1355 C1356 1.396 . S
C1355 C1360 1.390 . S
C1356 C1350 1.465 . S
C1356 C1355 1.396 . S
C1356 C1357 1.399 . S
C1357 H1343 0.929 . S
C1357 C1356 1.399 . S
C1357 C1358 1.385 . S
C1358 H1344 0.931 . S
C1358 C1357 1.385 . S
C1358 C1359 1.389 . S
C1359 C1358 1.389 . S
C1359 C1360 1.387 . S
C1360 H1345 0.930 . S
C1360 C1355 1.390 . S
C1360 C1359 1.387 . S
H1361 C1373 0.930 . S
H1362 C1375 0.930 . S
H1363 C1376 0.930 . S
H1364 C1380 0.959 . S
H1365 C1380 0.959 . S
H1366 C1380 0.961 . S
H1367 C1381 0.960 . S
H1368 C1381 0.961 . S
H1369 C1381 0.959 . S
H1370 C1384 0.929 . S
H1371 C1385 0.931 1_554 S
H1372 C1387 0.930 . S
C1373 H1361 0.930 . S
C1373 C1374 1.399 . S
C1373 C1378 1.399 . S
C1374 C1373 1.399 . S
C1374 C1375 1.376 . S
C1375 H1362 0.930 . S
C1375 C1374 1.376 . S
C1375 C1376 1.388 . S
C1376 H1363 0.930 . S
C1376 C1375 1.388 . S
C1376 C1377 1.390 . S
C1377 C1376 1.390 . S
C1377 C1378 1.394 . S
C1377 C1383 1.465 . S
C1378 C1373 1.399 . S
C1378 C1377 1.394 . S
C1378 C1379 1.516 . S
C1379 C1378 1.516 . S
C1379 C1380 1.502 . S
C1379 C1381 1.561 . S
C1379 C1382 1.526 . S
C1380 H1364 0.959 . S
C1380 H1365 0.959 . S
C1380 H1366 0.961 . S
C1380 C1379 1.502 . S
C1381 H1367 0.960 . S
C1381 H1368 0.961 . S
C1381 H1369 0.959 . S
C1381 C1379 1.561 . S
C1382 C1379 1.526 . S
C1382 C1383 1.396 . S
C1382 C1387 1.390 . S
C1383 C1377 1.465 . S
C1383 C1382 1.396 . S
C1383 C1384 1.399 . S
C1384 H1370 0.929 . S
C1384 C1383 1.399 . S
C1384 C1385 1.385 . S
C1385 H1371 0.931 1_556 S
C1385 C1384 1.385 . S
C1385 C1386 1.389 . S
C1386 C1385 1.389 . S
C1386 C1387 1.387 . S
C1387 H1372 0.930 . S
C1387 C1382 1.390 . S
C1387 C1386 1.387 . S
H1388 C1400 0.930 . S
H1389 C1402 0.930 . S
H1390 C1403 0.930 . S
H1391 C1407 0.959 . S
H1392 C1407 0.959 . S
H1393 C1407 0.961 . S
H1394 C1408 0.960 . S
H1395 C1408 0.961 . S
H1396 C1408 0.959 . S
H1397 C1411 0.929 . S
H1398 C1412 0.931 . S
H1399 C1414 0.930 . S
C1400 H1388 0.930 . S
C1400 C1401 1.399 . S
C1400 C1405 1.399 . S
C1401 C1400 1.399 . S
C1401 C1402 1.376 . S
C1402 H1389 0.930 . S
C1402 C1401 1.376 . S
C1402 C1403 1.388 . S
C1403 H1390 0.930 . S
C1403 C1402 1.388 . S
C1403 C1404 1.390 . S
C1404 C1403 1.390 . S
C1404 C1405 1.394 . S
C1404 C1410 1.465 . S
C1405 C1400 1.399 . S
C1405 C1404 1.394 . S
C1405 C1406 1.516 . S
C1406 C1405 1.516 . S
C1406 C1407 1.502 . S
C1406 C1408 1.561 . S
C1406 C1409 1.526 . S
C1407 H1391 0.959 . S
C1407 H1392 0.959 . S
C1407 H1393 0.961 . S
C1407 C1406 1.502 . S
C1408 H1394 0.960 . S
C1408 H1395 0.961 . S
C1408 H1396 0.959 . S
C1408 C1406 1.561 . S
C1409 C1406 1.526 . S
C1409 C1410 1.396 . S
C1409 C1414 1.390 . S
C1410 C1404 1.465 . S
C1410 C1409 1.396 . S
C1410 C1411 1.399 . S
C1411 H1397 0.929 . S
C1411 C1410 1.399 . S
C1411 C1412 1.385 . S
C1412 H1398 0.931 . S
C1412 C1411 1.385 . S
C1412 C1413 1.389 . S
C1413 C1412 1.389 . S
C1413 C1414 1.387 . S
C1414 H1399 0.930 . S
C1414 C1409 1.390 . S
C1414 C1413 1.387 . S
H1415 C1427 0.930 . S
H1416 C1429 0.930 . S
H1417 C1430 0.930 . S
H1418 C1434 0.959 . S
H1419 C1434 0.959 . S
H1420 C1434 0.961 . S
H1421 C1435 0.960 . S
H1422 C1435 0.961 . S
H1423 C1435 0.959 . S
H1424 C1438 0.929 . S
H1425 C1439 0.931 . S
H1426 C1441 0.930 . S
C1427 H1415 0.930 . S
C1427 C1428 1.399 . S
C1427 C1432 1.399 . S
C1428 C1427 1.399 . S
C1428 C1429 1.376 . S
C1429 H1416 0.930 . S
C1429 C1428 1.376 . S
C1429 C1430 1.388 . S
C1430 H1417 0.930 . S
C1430 C1429 1.388 . S
C1430 C1431 1.390 . S
C1431 C1430 1.390 . S
C1431 C1432 1.394 . S
C1431 C1437 1.465 . S
C1432 C1427 1.399 . S
C1432 C1431 1.394 . S
C1432 C1433 1.516 . S
C1433 C1432 1.516 . S
C1433 C1434 1.502 . S
C1433 C1435 1.561 . S
C1433 C1436 1.526 . S
C1434 H1418 0.959 . S
C1434 H1419 0.959 . S
C1434 H1420 0.961 . S
C1434 C1433 1.502 . S
C1435 H1421 0.960 . S
C1435 H1422 0.961 . S
C1435 H1423 0.959 . S
C1435 C1433 1.561 . S
C1436 C1433 1.526 . S
C1436 C1437 1.396 . S
C1436 C1441 1.390 . S
C1437 C1431 1.465 . S
C1437 C1436 1.396 . S
C1437 C1438 1.399 . S
C1438 H1424 0.929 . S
C1438 C1437 1.399 . S
C1438 C1439 1.385 . S
C1439 H1425 0.931 . S
C1439 C1438 1.385 . S
C1439 C1440 1.389 . S
C1440 C1439 1.389 . S
C1440 C1441 1.387 . S
C1441 H1426 0.930 . S
C1441 C1436 1.390 . S
C1441 C1440 1.387 . S
H1442 C1454 0.930 . S
H1443 C1456 0.930 . S
H1444 C1457 0.930 . S
H1445 C1461 0.959 . S
H1446 C1461 0.959 . S
H1447 C1461 0.961 . S
H1448 C1462 0.960 . S
H1449 C1462 0.961 1_554 S
H1450 C1462 0.959 . S
H1451 C1465 0.929 . S
H1452 C1466 0.931 . S
H1453 C1468 0.930 1_554 S
C1454 H1442 0.930 . S
C1454 C1455 1.399 . S
C1454 C1459 1.399 . S
C1455 C1454 1.399 . S
C1455 C1456 1.376 . S
C1456 H1443 0.930 . S
C1456 C1455 1.376 . S
C1456 C1457 1.388 . S
C1457 H1444 0.930 . S
C1457 C1456 1.388 . S
C1457 C1458 1.390 . S
C1458 C1457 1.390 . S
C1458 C1459 1.394 . S
C1458 C1464 1.465 . S
C1459 C1454 1.399 . S
C1459 C1458 1.394 . S
C1459 C1460 1.516 . S
C1460 C1459 1.516 . S
C1460 C1461 1.502 . S
C1460 C1462 1.561 . S
C1460 C1463 1.526 . S
C1461 H1445 0.959 . S
C1461 H1446 0.959 . S
C1461 H1447 0.961 . S
C1461 C1460 1.502 . S
C1462 H1448 0.960 . S
C1462 H1449 0.961 1_556 S
C1462 H1450 0.959 . S
C1462 C1460 1.561 . S
C1463 C1460 1.526 . S
C1463 C1464 1.396 . S
C1463 C1468 1.390 . S
C1464 C1458 1.465 . S
C1464 C1463 1.396 . S
C1464 C1465 1.399 . S
C1465 H1451 0.929 . S
C1465 C1464 1.399 . S
C1465 C1466 1.385 . S
C1466 H1452 0.931 . S
C1466 C1465 1.385 . S
C1466 C1467 1.389 . S
C1467 C1466 1.389 . S
C1467 C1468 1.387 . S
C1468 H1453 0.930 1_556 S
C1468 C1463 1.390 . S
C1468 C1467 1.387 . S
H1469 C1481 0.930 1_556 S
H1470 C1483 0.930 . S
H1471 C1484 0.930 . S
H1472 C1488 0.959 1_455 S
H1473 C1488 0.959 . S
H1474 C1488 0.961 1_455 S
H1475 C1489 0.960 1_556 S
H1476 C1489 0.961 . S
H1477 C1489 0.959 1_556 S
H1478 C1492 0.929 . S
H1479 C1493 0.931 . S
H1480 C1495 0.930 . S
C1481 H1469 0.930 1_554 S
C1481 C1482 1.399 . S
C1481 C1486 1.399 . S
C1482 C1481 1.399 . S
C1482 C1483 1.376 . S
C1483 H1470 0.930 . S
C1483 C1482 1.376 . S
C1483 C1484 1.388 . S
C1484 H1471 0.930 . S
C1484 C1483 1.388 . S
C1484 C1485 1.390 . S
C1485 C1484 1.390 . S
C1485 C1486 1.394 . S
C1485 C1491 1.465 1_455 S
C1486 C1481 1.399 . S
C1486 C1485 1.394 . S
C1486 C1487 1.516 1_455 S
C1487 C1486 1.516 1_655 S
C1487 C1488 1.502 . S
C1487 C1489 1.561 . S
C1487 C1490 1.526 . S
C1488 H1472 0.959 1_655 S
C1488 H1473 0.959 . S
C1488 H1474 0.961 1_655 S
C1488 C1487 1.502 . S
C1489 H1475 0.960 1_554 S
C1489 H1476 0.961 . S
C1489 H1477 0.959 1_554 S
C1489 C1487 1.561 . S
C1490 C1487 1.526 . S
C1490 C1491 1.396 . S
C1490 C1495 1.390 . S
C1491 C1485 1.465 1_655 S
C1491 C1490 1.396 . S
C1491 C1492 1.399 . S
C1492 H1478 0.929 . S
C1492 C1491 1.399 . S
C1492 C1493 1.385 . S
C1493 H1479 0.931 . S
C1493 C1492 1.385 . S
C1493 C1494 1.389 . S
C1494 C1493 1.389 . S
C1494 C1495 1.387 . S
C1495 H1480 0.930 . S
C1495 C1490 1.390 . S
C1495 C1494 1.387 . S
H1496 C1508 0.930 . S
H1497 C1510 0.930 . S
H1498 C1511 0.930 . S
H1499 C1515 0.959 . S
H1500 C1515 0.959 . S
H1501 C1515 0.961 . S
H1502 C1516 0.960 . S
H1503 C1516 0.961 . S
H1504 C1516 0.959 . S
H1505 C1519 0.929 1_554 S
H1506 C1520 0.931 . S
H1507 C1522 0.930 . S
C1508 H1496 0.930 . S
C1508 C1509 1.399 . S
C1508 C1513 1.399 . S
C1509 C1508 1.399 . S
C1509 C1510 1.376 . S
C1510 H1497 0.930 . S
C1510 C1509 1.376 . S
C1510 C1511 1.388 . S
C1511 H1498 0.930 . S
C1511 C1510 1.388 . S
C1511 C1512 1.390 . S
C1512 C1511 1.390 . S
C1512 C1513 1.394 . S
C1512 C1518 1.465 . S
C1513 C1508 1.399 . S
C1513 C1512 1.394 . S
C1513 C1514 1.516 . S
C1514 C1513 1.516 . S
C1514 C1515 1.502 . S
C1514 C1516 1.561 . S
C1514 C1517 1.526 . S
C1515 H1499 0.959 . S
C1515 H1500 0.959 . S
C1515 H1501 0.961 . S
C1515 C1514 1.502 . S
C1516 H1502 0.960 . S
C1516 H1503 0.961 . S
C1516 H1504 0.959 . S
C1516 C1514 1.561 . S
C1517 C1514 1.526 . S
C1517 C1518 1.396 . S
C1517 C1522 1.390 . S
C1518 C1512 1.465 . S
C1518 C1517 1.396 . S
C1518 C1519 1.399 . S
C1519 H1505 0.929 1_556 S
C1519 C1518 1.399 . S
C1519 C1520 1.385 1_556 S
C1520 H1506 0.931 . S
C1520 C1519 1.385 1_554 S
C1520 C1521 1.389 1_554 S
C1521 C1520 1.389 1_556 S
C1521 C1522 1.387 . S
C1522 H1507 0.930 . S
C1522 C1517 1.390 . S
C1522 C1521 1.387 . S
H1523 C1535 0.930 . S
H1524 C1537 0.930 . S
H1525 C1538 0.930 . S
H1526 C1542 0.959 . S
H1527 C1542 0.959 . S
H1528 C1542 0.961 . S
H1529 C1543 0.960 1_455 S
H1530 C1543 0.961 . S
H1531 C1543 0.959 . S
H1532 C1546 0.929 . S
H1533 C1547 0.931 . S
H1534 C1549 0.930 . S
C1535 H1523 0.930 . S
C1535 C1536 1.399 . S
C1535 C1540 1.399 . S
C1536 C1535 1.399 . S
C1536 C1537 1.376 . S
C1537 H1524 0.930 . S
C1537 C1536 1.376 . S
C1537 C1538 1.388 . S
C1538 H1525 0.930 . S
C1538 C1537 1.388 . S
C1538 C1539 1.390 . S
C1539 C1538 1.390 . S
C1539 C1540 1.394 . S
C1539 C1545 1.465 1_455 S
C1540 C1535 1.399 . S
C1540 C1539 1.394 . S
C1540 C1541 1.516 . S
C1541 C1540 1.516 . S
C1541 C1542 1.502 . S
C1541 C1543 1.561 1_455 S
C1541 C1544 1.526 1_455 S
C1542 H1526 0.959 . S
C1542 H1527 0.959 . S
C1542 H1528 0.961 . S
C1542 C1541 1.502 . S
C1543 H1529 0.960 1_655 S
C1543 H1530 0.961 . S
C1543 H1531 0.959 . S
C1543 C1541 1.561 1_655 S
C1544 C1541 1.526 1_655 S
C1544 C1545 1.396 . S
C1544 C1549 1.390 . S
C1545 C1539 1.465 1_655 S
C1545 C1544 1.396 . S
C1545 C1546 1.399 . S
C1546 H1532 0.929 . S
C1546 C1545 1.399 . S
C1546 C1547 1.385 . S
C1547 H1533 0.931 . S
C1547 C1546 1.385 . S
C1547 C1548 1.389 . S
C1548 C1547 1.389 . S
C1548 C1549 1.387 . S
C1549 H1534 0.930 . S
C1549 C1544 1.390 . S
C1549 C1548 1.387 . S
H1550 C1562 0.930 . S
H1551 C1564 0.930 . S
H1552 C1565 0.930 . S
H1553 C1569 0.959 . S
H1554 C1569 0.959 . S
H1555 C1569 0.961 . S
H1556 C1570 0.960 . S
H1557 C1570 0.961 . S
H1558 C1570 0.959 . S
H1559 C1573 0.929 . S
H1560 C1574 0.931 . S
H1561 C1576 0.930 . S
C1562 H1550 0.930 . S
C1562 C1563 1.399 . S
C1562 C1567 1.399 . S
C1563 C1562 1.399 . S
C1563 C1564 1.376 . S
C1564 H1551 0.930 . S
C1564 C1563 1.376 . S
C1564 C1565 1.388 . S
C1565 H1552 0.930 . S
C1565 C1564 1.388 . S
C1565 C1566 1.390 . S
C1566 C1565 1.390 . S
C1566 C1567 1.394 . S
C1566 C1572 1.465 . S
C1567 C1562 1.399 . S
C1567 C1566 1.394 . S
C1567 C1568 1.516 . S
C1568 C1567 1.516 . S
C1568 C1569 1.502 . S
C1568 C1570 1.561 . S
C1568 C1571 1.526 . S
C1569 H1553 0.959 . S
C1569 H1554 0.959 . S
C1569 H1555 0.961 . S
C1569 C1568 1.502 . S
C1570 H1556 0.960 . S
C1570 H1557 0.961 . S
C1570 H1558 0.959 . S
C1570 C1568 1.561 . S
C1571 C1568 1.526 . S
C1571 C1572 1.396 . S
C1571 C1576 1.390 . S
C1572 C1566 1.465 . S
C1572 C1571 1.396 . S
C1572 C1573 1.399 . S
C1573 H1559 0.929 . S
C1573 C1572 1.399 . S
C1573 C1574 1.385 . S
C1574 H1560 0.931 . S
C1574 C1573 1.385 . S
C1574 C1575 1.389 . S
C1575 C1574 1.389 . S
C1575 C1576 1.387 . S
C1576 H1561 0.930 . S
C1576 C1571 1.390 . S
C1576 C1575 1.387 . S
H1577 C1589 0.930 . S
H1578 C1591 0.930 . S
H1579 C1592 0.930 . S
H1580 C1596 0.959 . S
H1581 C1596 0.959 . S
H1582 C1596 0.961 . S
H1583 C1597 0.960 . S
H1584 C1597 0.961 . S
H1585 C1597 0.959 . S
H1586 C1600 0.929 . S
H1587 C1601 0.931 . S
H1588 C1603 0.930 . S
C1589 H1577 0.930 . S
C1589 C1590 1.399 . S
C1589 C1594 1.399 . S
C1590 C1589 1.399 . S
C1590 C1591 1.376 . S
C1591 H1578 0.930 . S
C1591 C1590 1.376 . S
C1591 C1592 1.388 . S
C1592 H1579 0.930 . S
C1592 C1591 1.388 . S
C1592 C1593 1.390 . S
C1593 C1592 1.390 . S
C1593 C1594 1.394 . S
C1593 C1599 1.465 . S
C1594 C1589 1.399 . S
C1594 C1593 1.394 . S
C1594 C1595 1.516 . S
C1595 C1594 1.516 . S
C1595 C1596 1.502 . S
C1595 C1597 1.561 . S
C1595 C1598 1.526 . S
C1596 H1580 0.959 . S
C1596 H1581 0.959 . S
C1596 H1582 0.961 . S
C1596 C1595 1.502 . S
C1597 H1583 0.960 . S
C1597 H1584 0.961 . S
C1597 H1585 0.959 . S
C1597 C1595 1.561 . S
C1598 C1595 1.526 . S
C1598 C1599 1.396 . S
C1598 C1603 1.390 . S
C1599 C1593 1.465 . S
C1599 C1598 1.396 . S
C1599 C1600 1.399 . S
C1600 H1586 0.929 . S
C1600 C1599 1.399 . S
C1600 C1601 1.385 . S
C1601 H1587 0.931 . S
C1601 C1600 1.385 . S
C1601 C1602 1.389 . S
C1602 C1601 1.389 . S
C1602 C1603 1.387 . S
C1603 H1588 0.930 . S
C1603 C1598 1.390 . S
C1603 C1602 1.387 . S
H1604 C1616 0.930 . S
H1605 C1618 0.930 . S
H1606 C1619 0.930 . S
H1607 C1623 0.959 . S
H1608 C1623 0.959 . S
H1609 C1623 0.961 . S
H1610 C1624 0.960 . S
H1611 C1624 0.961 . S
H1612 C1624 0.959 . S
H1613 C1627 0.929 . S
H1614 C1628 0.931 . S
H1615 C1630 0.930 . S
C1616 H1604 0.930 . S
C1616 C1617 1.399 . S
C1616 C1621 1.399 . S
C1617 C1616 1.399 . S
C1617 C1618 1.376 . S
C1618 H1605 0.930 . S
C1618 C1617 1.376 . S
C1618 C1619 1.388 . S
C1619 H1606 0.930 . S
C1619 C1618 1.388 . S
C1619 C1620 1.390 . S
C1620 C1619 1.390 . S
C1620 C1621 1.394 . S
C1620 C1626 1.465 . S
C1621 C1616 1.399 . S
C1621 C1620 1.394 . S
C1621 C1622 1.516 . S
C1622 C1621 1.516 . S
C1622 C1623 1.502 . S
C1622 C1624 1.561 . S
C1622 C1625 1.526 . S
C1623 H1607 0.959 . S
C1623 H1608 0.959 . S
C1623 H1609 0.961 . S
C1623 C1622 1.502 . S
C1624 H1610 0.960 . S
C1624 H1611 0.961 . S
C1624 H1612 0.959 . S
C1624 C1622 1.561 . S
C1625 C1622 1.526 . S
C1625 C1626 1.396 . S
C1625 C1630 1.390 . S
C1626 C1620 1.465 . S
C1626 C1625 1.396 . S
C1626 C1627 1.399 . S
C1627 H1613 0.929 . S
C1627 C1626 1.399 . S
C1627 C1628 1.385 . S
C1628 H1614 0.931 . S
C1628 C1627 1.385 . S
C1628 C1629 1.389 . S
C1629 C1628 1.389 . S
C1629 C1630 1.387 . S
C1630 H1615 0.930 . S
C1630 C1625 1.390 . S
C1630 C1629 1.387 . S
H1631 C1643 0.930 . S
H1632 C1645 0.930 . S
H1633 C1646 0.930 . S
H1634 C1650 0.959 . S
H1635 C1650 0.959 . S
H1636 C1650 0.961 . S
H1637 C1651 0.960 . S
H1638 C1651 0.961 . S
H1639 C1651 0.959 . S
H1640 C1654 0.929 . S
H1641 C1655 0.931 . S
H1642 C1657 0.930 . S
C1643 H1631 0.930 . S
C1643 C1644 1.399 . S
C1643 C1648 1.399 . S
C1644 C1643 1.399 . S
C1644 C1645 1.376 . S
C1645 H1632 0.930 . S
C1645 C1644 1.376 . S
C1645 C1646 1.388 . S
C1646 H1633 0.930 . S
C1646 C1645 1.388 . S
C1646 C1647 1.390 . S
C1647 C1646 1.390 . S
C1647 C1648 1.394 . S
C1647 C1653 1.465 . S
C1648 C1643 1.399 . S
C1648 C1647 1.394 . S
C1648 C1649 1.516 . S
C1649 C1648 1.516 . S
C1649 C1650 1.502 . S
C1649 C1651 1.561 . S
C1649 C1652 1.526 . S
C1650 H1634 0.959 . S
C1650 H1635 0.959 . S
C1650 H1636 0.961 . S
C1650 C1649 1.502 . S
C1651 H1637 0.960 . S
C1651 H1638 0.961 . S
C1651 H1639 0.959 . S
C1651 C1649 1.561 . S
C1652 C1649 1.526 . S
C1652 C1653 1.396 . S
C1652 C1657 1.390 . S
C1653 C1647 1.465 . S
C1653 C1652 1.396 . S
C1653 C1654 1.399 . S
C1654 H1640 0.929 . S
C1654 C1653 1.399 . S
C1654 C1655 1.385 . S
C1655 H1641 0.931 . S
C1655 C1654 1.385 . S
C1655 C1656 1.389 . S
C1656 C1655 1.389 . S
C1656 C1657 1.387 . S
C1657 H1642 0.930 . S
C1657 C1652 1.390 . S
C1657 C1656 1.387 . S
H1658 C1670 0.930 . S
H1659 C1672 0.930 . S
H1660 C1673 0.930 . S
H1661 C1677 0.959 . S
H1662 C1677 0.959 . S
H1663 C1677 0.961 . S
H1664 C1678 0.960 . S
H1665 C1678 0.961 . S
H1666 C1678 0.959 . S
H1667 C1681 0.929 1_556 S
H1668 C1682 0.931 . S
H1669 C1684 0.930 . S
C1670 H1658 0.930 . S
C1670 C1671 1.399 . S
C1670 C1675 1.399 . S
C1671 C1670 1.399 . S
C1671 C1672 1.376 . S
C1672 H1659 0.930 . S
C1672 C1671 1.376 . S
C1672 C1673 1.388 . S
C1673 H1660 0.930 . S
C1673 C1672 1.388 . S
C1673 C1674 1.390 . S
C1674 C1673 1.390 . S
C1674 C1675 1.394 . S
C1674 C1680 1.465 . S
C1675 C1670 1.399 . S
C1675 C1674 1.394 . S
C1675 C1676 1.516 . S
C1676 C1675 1.516 . S
C1676 C1677 1.502 . S
C1676 C1678 1.561 . S
C1676 C1679 1.526 . S
C1677 H1661 0.959 . S
C1677 H1662 0.959 . S
C1677 H1663 0.961 . S
C1677 C1676 1.502 . S
C1678 H1664 0.960 . S
C1678 H1665 0.961 . S
C1678 H1666 0.959 . S
C1678 C1676 1.561 . S
C1679 C1676 1.526 . S
C1679 C1680 1.396 . S
C1679 C1684 1.390 . S
C1680 C1674 1.465 . S
C1680 C1679 1.396 . S
C1680 C1681 1.399 . S
C1681 H1667 0.929 1_554 S
C1681 C1680 1.399 . S
C1681 C1682 1.385 1_554 S
C1682 H1668 0.931 . S
C1682 C1681 1.385 1_556 S
C1682 C1683 1.389 1_556 S
C1683 C1682 1.389 1_554 S
C1683 C1684 1.387 . S
C1684 H1669 0.930 . S
C1684 C1679 1.390 . S
C1684 C1683 1.387 . S
H1685 C1697 0.930 . S
H1686 C1699 0.930 . S
H1687 C1700 0.930 . S
H1688 C1704 0.959 . S
H1689 C1704 0.959 . S
H1690 C1704 0.961 . S
H1691 C1705 0.984 . S
H1692 C1705 0.927 1_655 S
H1693 C1705 0.980 . S
H1694 C1708 0.929 1_455 S
H1695 C1709 0.931 1_554 S
H1696 C1711 0.930 . S
C1697 H1685 0.930 . S
C1697 C1698 1.399 . S
C1697 C1702 1.399 . S
C1698 C1697 1.399 . S
C1698 C1699 1.376 . S
C1699 H1686 0.930 . S
C1699 C1698 1.376 . S
C1699 C1700 1.388 . S
C1700 H1687 0.930 . S
C1700 C1699 1.388 . S
C1700 C1701 1.390 . S
C1701 C1700 1.390 . S
C1701 C1702 1.394 . S
C1701 C1707 1.465 1_455 S
C1702 C1697 1.399 . S
C1702 C1701 1.394 . S
C1702 C1703 1.516 1_455 S
C1703 C1702 1.516 1_655 S
C1703 C1704 1.502 . S
C1703 C1705 1.553 1_655 S
C1703 C1706 1.526 . S
C1704 H1688 0.959 . S
C1704 H1689 0.959 . S
C1704 H1690 0.961 . S
C1704 C1703 1.502 . S
C1705 H1691 0.984 . S
C1705 H1692 0.927 1_455 S
C1705 H1693 0.980 . S
C1705 C1703 1.553 1_455 S
C1706 C1703 1.526 . S
C1706 C1707 1.396 . S
C1706 C1711 1.390 . S
C1707 C1701 1.465 1_655 S
C1707 C1706 1.396 . S
C1707 C1708 1.399 . S
C1708 H1694 0.929 1_655 S
C1708 C1707 1.399 . S
C1708 C1709 1.385 . S
C1709 H1695 0.931 1_556 S
C1709 C1708 1.385 . S
C1709 C1710 1.389 . S
C1710 C1709 1.389 . S
C1710 C1711 1.387 . S
C1711 H1696 0.930 . S
C1711 C1706 1.390 . S
C1711 C1710 1.387 . S
H1712 C1724 0.930 . S
H1713 C1726 0.930 . S
H1714 C1727 0.930 . S
H1715 C1731 0.959 . S
H1716 C1731 0.959 . S
H1717 C1731 0.961 . S
H1718 C1732 0.960 . S
H1719 C1732 0.961 . S
H1720 C1732 0.959 . S
H1721 C1735 0.929 . S
H1722 C1736 0.931 . S
H1723 C1738 0.930 . S
C1724 H1712 0.930 . S
C1724 C1725 1.399 . S
C1724 C1729 1.399 . S
C1725 C1724 1.399 . S
C1725 C1726 1.376 . S
C1726 H1713 0.930 . S
C1726 C1725 1.376 . S
C1726 C1727 1.388 . S
C1727 H1714 0.930 . S
C1727 C1726 1.388 . S
C1727 C1728 1.390 . S
C1728 C1727 1.390 . S
C1728 C1729 1.394 . S
C1728 C1734 1.465 . S
C1729 C1724 1.399 . S
C1729 C1728 1.394 . S
C1729 C1730 1.516 . S
C1730 C1729 1.516 . S
C1730 C1731 1.502 . S
C1730 C1732 1.561 . S
C1730 C1733 1.526 . S
C1731 H1715 0.959 . S
C1731 H1716 0.959 . S
C1731 H1717 0.961 . S
C1731 C1730 1.502 . S
C1732 H1718 0.960 . S
C1732 H1719 0.961 . S
C1732 H1720 0.959 . S
C1732 C1730 1.561 . S
C1733 C1730 1.526 . S
C1733 C1734 1.396 . S
C1733 C1738 1.390 . S
C1734 C1728 1.465 . S
C1734 C1733 1.396 . S
C1734 C1735 1.399 . S
C1735 H1721 0.929 . S
C1735 C1734 1.399 . S
C1735 C1736 1.385 . S
C1736 H1722 0.931 . S
C1736 C1735 1.385 . S
C1736 C1737 1.389 . S
C1737 C1736 1.389 . S
C1737 C1738 1.387 . S
C1738 H1723 0.930 . S
C1738 C1733 1.390 . S
C1738 C1737 1.387 . S
H1739 C1751 0.930 . S
H1740 C1753 0.930 . S
H1741 C1754 0.930 . S
H1742 C1758 0.959 1_554 S
H1743 C1758 0.959 1_554 S
H1744 C1758 0.961 . S
H1745 C1759 0.960 . S
H1746 C1759 0.961 . S
H1747 C1759 0.959 . S
H1748 C1762 0.929 . S
H1749 C1763 0.931 . S
H1750 C1765 0.930 1_554 S
C1751 H1739 0.930 . S
C1751 C1752 1.399 . S
C1751 C1756 1.399 . S
C1752 C1751 1.399 . S
C1752 C1753 1.376 . S
C1753 H1740 0.930 . S
C1753 C1752 1.376 . S
C1753 C1754 1.388 . S
C1754 H1741 0.930 . S
C1754 C1753 1.388 . S
C1754 C1755 1.390 . S
C1755 C1754 1.390 . S
C1755 C1756 1.394 . S
C1755 C1761 1.465 . S
C1756 C1751 1.399 . S
C1756 C1755 1.394 . S
C1756 C1757 1.516 . S
C1757 C1756 1.516 . S
C1757 C1758 1.502 . S
C1757 C1759 1.561 . S
C1757 C1760 1.526 . S
C1758 H1742 0.959 1_556 S
C1758 H1743 0.959 1_556 S
C1758 H1744 0.961 . S
C1758 C1757 1.502 . S
C1759 H1745 0.960 . S
C1759 H1746 0.961 . S
C1759 H1747 0.959 . S
C1759 C1757 1.561 . S
C1760 C1757 1.526 . S
C1760 C1761 1.396 . S
C1760 C1765 1.390 . S
C1761 C1755 1.465 . S
C1761 C1760 1.396 . S
C1761 C1762 1.399 . S
C1762 H1748 0.929 . S
C1762 C1761 1.399 . S
C1762 C1763 1.385 . S
C1763 H1749 0.931 . S
C1763 C1762 1.385 . S
C1763 C1764 1.389 . S
C1764 C1763 1.389 . S
C1764 C1765 1.387 . S
C1765 H1750 0.930 1_556 S
C1765 C1760 1.390 . S
C1765 C1764 1.387 . S
H1766 C1778 0.930 . S
H1767 C1780 0.930 . S
H1768 C1781 0.930 . S
H1769 C1785 0.959 . S
H1770 C1785 0.959 1_556 S
H1771 C1785 0.961 . S
H1772 C1786 0.960 . S
H1773 C1786 0.961 1_556 S
H1774 C1786 0.959 . S
H1775 C1789 0.929 . S
H1776 C1790 0.931 . S
H1777 C1792 0.930 1_556 S
C1778 H1766 0.930 . S
C1778 C1779 1.399 . S
C1778 C1783 1.399 . S
C1779 C1778 1.399 . S
C1779 C1780 1.376 . S
C1780 H1767 0.930 . S
C1780 C1779 1.376 . S
C1780 C1781 1.388 . S
C1781 H1768 0.930 . S
C1781 C1780 1.388 . S
C1781 C1782 1.390 . S
C1782 C1781 1.390 . S
C1782 C1783 1.394 . S
C1782 C1788 1.465 . S
C1783 C1778 1.399 . S
C1783 C1782 1.394 . S
C1783 C1784 1.516 . S
C1784 C1783 1.516 . S
C1784 C1785 1.502 . S
C1784 C1786 1.561 . S
C1784 C1787 1.526 . S
C1785 H1769 0.959 . S
C1785 H1770 0.959 1_554 S
C1785 H1771 0.961 . S
C1785 C1784 1.502 . S
C1786 H1772 0.960 . S
C1786 H1773 0.961 1_554 S
C1786 H1774 0.959 . S
C1786 C1784 1.561 . S
C1787 C1784 1.526 . S
C1787 C1788 1.396 . S
C1787 C1792 1.390 . S
C1788 C1782 1.465 . S
C1788 C1787 1.396 . S
C1788 C1789 1.399 . S
C1789 H1775 0.929 . S
C1789 C1788 1.399 . S
C1789 C1790 1.385 . S
C1790 H1776 0.931 . S
C1790 C1789 1.385 . S
C1790 C1791 1.389 . S
C1791 C1790 1.389 . S
C1791 C1792 1.387 . S
C1792 H1777 0.930 1_554 S
C1792 C1787 1.390 . S
C1792 C1791 1.387 . S
H1793 C1805 0.930 . S
H1794 C1807 0.930 . S
H1795 C1808 0.930 . S
H1796 C1812 0.959 . S
H1797 C1812 0.959 . S
H1798 C1812 0.961 . S
H1799 C1813 0.960 . S
H1800 C1813 0.961 . S
H1801 C1813 0.959 . S
H1802 C1816 0.929 . S
H1803 C1817 0.931 . S
H1804 C1819 0.930 . S
C1805 H1793 0.930 . S
C1805 C1806 1.399 . S
C1805 C1810 1.399 . S
C1806 C1805 1.399 . S
C1806 C1807 1.376 . S
C1807 H1794 0.930 . S
C1807 C1806 1.376 . S
C1807 C1808 1.388 . S
C1808 H1795 0.930 . S
C1808 C1807 1.388 . S
C1808 C1809 1.390 . S
C1809 C1808 1.390 . S
C1809 C1810 1.394 . S
C1809 C1815 1.465 1_655 S
C1810 C1805 1.399 . S
C1810 C1809 1.394 . S
C1810 C1811 1.516 1_655 S
C1811 C1810 1.516 1_455 S
C1811 C1812 1.502 . S
C1811 C1813 1.561 . S
C1811 C1814 1.526 . S
C1812 H1796 0.959 . S
C1812 H1797 0.959 . S
C1812 H1798 0.961 . S
C1812 C1811 1.502 . S
C1813 H1799 0.960 . S
C1813 H1800 0.961 . S
C1813 H1801 0.959 . S
C1813 C1811 1.561 . S
C1814 C1811 1.526 . S
C1814 C1815 1.396 . S
C1814 C1819 1.390 . S
C1815 C1809 1.465 1_455 S
C1815 C1814 1.396 . S
C1815 C1816 1.399 . S
C1816 H1802 0.929 . S
C1816 C1815 1.399 . S
C1816 C1817 1.385 . S
C1817 H1803 0.931 . S
C1817 C1816 1.385 . S
C1817 C1818 1.389 . S
C1818 C1817 1.389 . S
C1818 C1819 1.387 . S
C1819 H1804 0.930 . S
C1819 C1814 1.390 . S
C1819 C1818 1.387 . S
H1820 C1832 0.930 . S
H1821 C1834 0.930 . S
H1822 C1835 0.930 . S
H1823 C1839 0.959 . S
H1824 C1839 0.959 1_554 S
H1825 C1839 0.961 . S
H1826 C1840 0.960 . S
H1827 C1840 0.961 1_554 S
H1828 C1840 0.959 . S
H1829 C1843 0.929 . S
H1830 C1844 0.931 . S
H1831 C1846 0.930 1_554 S
C1832 H1820 0.930 . S
C1832 C1833 1.399 . S
C1832 C1837 1.399 . S
C1833 C1832 1.399 . S
C1833 C1834 1.376 . S
C1834 H1821 0.930 . S
C1834 C1833 1.376 . S
C1834 C1835 1.388 . S
C1835 H1822 0.930 . S
C1835 C1834 1.388 . S
C1835 C1836 1.390 . S
C1836 C1835 1.390 . S
C1836 C1837 1.394 . S
C1836 C1842 1.465 . S
C1837 C1832 1.399 . S
C1837 C1836 1.394 . S
C1837 C1838 1.516 . S
C1838 C1837 1.516 . S
C1838 C1839 1.502 . S
C1838 C1840 1.561 . S
C1838 C1841 1.526 . S
C1839 H1823 0.959 . S
C1839 H1824 0.959 1_556 S
C1839 H1825 0.961 . S
C1839 C1838 1.502 . S
C1840 H1826 0.960 . S
C1840 H1827 0.961 1_556 S
C1840 H1828 0.959 . S
C1840 C1838 1.561 . S
C1841 C1838 1.526 . S
C1841 C1842 1.396 . S
C1841 C1846 1.390 . S
C1842 C1836 1.465 . S
C1842 C1841 1.396 . S
C1842 C1843 1.399 . S
C1843 H1829 0.929 . S
C1843 C1842 1.399 . S
C1843 C1844 1.385 . S
C1844 H1830 0.931 . S
C1844 C1843 1.385 . S
C1844 C1845 1.389 . S
C1845 C1844 1.389 . S
C1845 C1846 1.387 . S
C1846 H1831 0.930 1_556 S
C1846 C1841 1.390 . S
C1846 C1845 1.387 . S
H1847 C1859 0.930 . S
H1848 C1861 0.930 1_556 S
H1849 C1862 0.930 . S
H1850 C1866 0.959 . S
H1851 C1866 0.959 . S
H1852 C1866 0.961 1_655 S
H1853 C1867 0.960 . S
H1854 C1867 0.961 . S
H1855 C1867 0.959 . S
H1856 C1870 0.929 . S
H1857 C1871 0.931 . S
H1858 C1873 0.930 . S
C1859 H1847 0.930 . S
C1859 C1860 1.399 . S
C1859 C1864 1.399 . S
C1860 C1859 1.399 . S
C1860 C1861 1.376 . S
C1861 H1848 0.930 1_554 S
C1861 C1860 1.376 . S
C1861 C1862 1.388 . S
C1862 H1849 0.930 . S
C1862 C1861 1.388 . S
C1862 C1863 1.390 . S
C1863 C1862 1.390 . S
C1863 C1864 1.394 . S
C1863 C1869 1.465 1_655 S
C1864 C1859 1.399 . S
C1864 C1863 1.394 . S
C1864 C1865 1.506 1_655 S
C1865 C1864 1.506 1_455 S
C1865 C1866 1.509 . S
C1865 C1867 1.552 1_455 S
C1865 C1868 1.538 . S
C1866 H1850 0.959 . S
C1866 H1851 0.959 . S
C1866 H1852 0.961 1_455 S
C1866 C1865 1.509 . S
C1867 H1853 0.960 . S
C1867 H1854 0.961 . S
C1867 H1855 0.959 . S
C1867 C1865 1.552 1_655 S
C1868 C1865 1.538 . S
C1868 C1869 1.396 . S
C1868 C1873 1.390 . S
C1869 C1863 1.465 1_455 S
C1869 C1868 1.396 . S
C1869 C1870 1.399 . S
C1870 H1856 0.929 . S
C1870 C1869 1.399 . S
C1870 C1871 1.385 . S
C1871 H1857 0.931 . S
C1871 C1870 1.385 . S
C1871 C1872 1.389 . S
C1872 C1871 1.389 . S
C1872 C1873 1.387 . S
C1873 H1858 0.930 . S
C1873 C1868 1.390 . S
C1873 C1872 1.387 . S
H1874 C1886 0.930 . S
H1875 C1888 0.930 . S
H1876 C1889 0.930 . S
H1877 C1893 0.959 . S
H1878 C1893 0.959 . S
H1879 C1893 0.961 . S
H1880 C1894 0.960 . S
H1881 C1894 0.961 . S
H1882 C1894 0.959 . S
H1883 C1897 0.929 . S
H1884 C1898 0.931 . S
H1885 C1900 0.930 . S
C1886 H1874 0.930 . S
C1886 C1887 1.399 . S
C1886 C1891 1.399 . S
C1887 C1886 1.399 . S
C1887 C1888 1.376 . S
C1888 H1875 0.930 . S
C1888 C1887 1.376 . S
C1888 C1889 1.388 . S
C1889 H1876 0.930 . S
C1889 C1888 1.388 . S
C1889 C1890 1.390 . S
C1890 C1889 1.390 . S
C1890 C1891 1.394 . S
C1890 C1896 1.465 . S
C1891 C1886 1.399 . S
C1891 C1890 1.394 . S
C1891 C1892 1.516 . S
C1892 C1891 1.516 . S
C1892 C1893 1.502 . S
C1892 C1894 1.561 . S
C1892 C1895 1.526 . S
C1893 H1877 0.959 . S
C1893 H1878 0.959 . S
C1893 H1879 0.961 . S
C1893 C1892 1.502 . S
C1894 H1880 0.960 . S
C1894 H1881 0.961 . S
C1894 H1882 0.959 . S
C1894 C1892 1.561 . S
C1895 C1892 1.526 . S
C1895 C1896 1.396 . S
C1895 C1900 1.390 . S
C1896 C1890 1.465 . S
C1896 C1895 1.396 . S
C1896 C1897 1.399 . S
C1897 H1883 0.929 . S
C1897 C1896 1.399 . S
C1897 C1898 1.385 . S
C1898 H1884 0.931 . S
C1898 C1897 1.385 . S
C1898 C1899 1.389 . S
C1899 C1898 1.389 . S
C1899 C1900 1.387 . S
C1900 H1885 0.930 . S
C1900 C1895 1.390 . S
C1900 C1899 1.387 . S
H1901 C1913 0.930 . S
H1902 C1915 0.930 . S
H1903 C1916 0.930 . S
H1904 C1920 0.959 . S
H1905 C1920 0.959 . S
H1906 C1920 0.961 . S
H1907 C1921 0.960 . S
H1908 C1921 0.961 . S
H1909 C1921 0.959 . S
H1910 C1924 0.929 . S
H1911 C1925 0.931 . S
H1912 C1927 0.930 . S
C1913 H1901 0.930 . S
C1913 C1914 1.399 . S
C1913 C1918 1.399 . S
C1914 C1913 1.399 . S
C1914 C1915 1.376 . S
C1915 H1902 0.930 . S
C1915 C1914 1.376 . S
C1915 C1916 1.388 . S
C1916 H1903 0.930 . S
C1916 C1915 1.388 . S
C1916 C1917 1.390 . S
C1917 C1916 1.390 . S
C1917 C1918 1.394 . S
C1917 C1923 1.465 . S
C1918 C1913 1.399 . S
C1918 C1917 1.394 . S
C1918 C1919 1.516 . S
C1919 C1918 1.516 . S
C1919 C1920 1.502 . S
C1919 C1921 1.561 . S
C1919 C1922 1.526 . S
C1920 H1904 0.959 . S
C1920 H1905 0.959 . S
C1920 H1906 0.961 . S
C1920 C1919 1.502 . S
C1921 H1907 0.960 . S
C1921 H1908 0.961 . S
C1921 H1909 0.959 . S
C1921 C1919 1.561 . S
C1922 C1919 1.526 . S
C1922 C1923 1.396 . S
C1922 C1927 1.390 . S
C1923 C1917 1.465 . S
C1923 C1922 1.396 . S
C1923 C1924 1.399 . S
C1924 H1910 0.929 . S
C1924 C1923 1.399 . S
C1924 C1925 1.385 . S
C1925 H1911 0.931 . S
C1925 C1924 1.385 . S
C1925 C1926 1.389 . S
C1926 C1925 1.389 . S
C1926 C1927 1.387 . S
C1927 H1912 0.930 . S
C1927 C1922 1.390 . S
C1927 C1926 1.387 . S
H1928 C1940 0.930 . S
H1929 C1942 0.930 . S
H1930 C1943 0.930 . S
H1931 C1947 0.959 . S
H1932 C1947 0.959 . S
H1933 C1947 0.961 . S
H1934 C1948 0.960 . S
H1935 C1948 0.961 . S
H1936 C1948 0.959 . S
H1937 C1951 0.929 . S
H1938 C1952 0.931 . S
H1939 C1954 0.930 . S
C1940 H1928 0.930 . S
C1940 C1941 1.399 . S
C1940 C1945 1.399 . S
C1941 C1940 1.399 . S
C1941 C1942 1.376 . S
C1942 H1929 0.930 . S
C1942 C1941 1.376 . S
C1942 C1943 1.388 . S
C1943 H1930 0.930 . S
C1943 C1942 1.388 . S
C1943 C1944 1.390 . S
C1944 C1943 1.390 . S
C1944 C1945 1.394 . S
C1944 C1950 1.465 . S
C1945 C1940 1.399 . S
C1945 C1944 1.394 . S
C1945 C1946 1.516 . S
C1946 C1945 1.516 . S
C1946 C1947 1.502 . S
C1946 C1948 1.561 . S
C1946 C1949 1.526 . S
C1947 H1931 0.959 . S
C1947 H1932 0.959 . S
C1947 H1933 0.961 . S
C1947 C1946 1.502 . S
C1948 H1934 0.960 . S
C1948 H1935 0.961 . S
C1948 H1936 0.959 . S
C1948 C1946 1.561 . S
C1949 C1946 1.526 . S
C1949 C1950 1.396 . S
C1949 C1954 1.390 . S
C1950 C1944 1.465 . S
C1950 C1949 1.396 . S
C1950 C1951 1.399 . S
C1951 H1937 0.929 . S
C1951 C1950 1.399 . S
C1951 C1952 1.385 . S
C1952 H1938 0.931 . S
C1952 C1951 1.385 . S
C1952 C1953 1.389 . S
C1953 C1952 1.389 . S
C1953 C1954 1.387 . S
C1954 H1939 0.930 . S
C1954 C1949 1.390 . S
C1954 C1953 1.387 . S
H1955 C1967 0.930 . S
H1956 C1969 0.930 . S
H1957 C1970 0.930 . S
H1958 C1974 0.959 . S
H1959 C1974 0.959 . S
H1960 C1974 0.961 . S
H1961 C1975 0.960 . S
H1962 C1975 0.961 . S
H1963 C1975 0.959 . S
H1964 C1978 0.929 . S
H1965 C1979 0.931 . S
H1966 C1981 0.930 . S
C1967 H1955 0.930 . S
C1967 C1968 1.399 . S
C1967 C1972 1.399 . S
C1968 C1967 1.399 . S
C1968 C1969 1.376 . S
C1969 H1956 0.930 . S
C1969 C1968 1.376 . S
C1969 C1970 1.388 . S
C1970 H1957 0.930 . S
C1970 C1969 1.388 . S
C1970 C1971 1.390 . S
C1971 C1970 1.390 . S
C1971 C1972 1.394 . S
C1971 C1977 1.465 . S
C1972 C1967 1.399 . S
C1972 C1971 1.394 . S
C1972 C1973 1.516 . S
C1973 C1972 1.516 . S
C1973 C1974 1.502 . S
C1973 C1975 1.561 . S
C1973 C1976 1.526 . S
C1974 H1958 0.959 . S
C1974 H1959 0.959 . S
C1974 H1960 0.961 . S
C1974 C1973 1.502 . S
C1975 H1961 0.960 . S
C1975 H1962 0.961 . S
C1975 H1963 0.959 . S
C1975 C1973 1.561 . S
C1976 C1973 1.526 . S
C1976 C1977 1.396 . S
C1976 C1981 1.390 . S
C1977 C1971 1.465 . S
C1977 C1976 1.396 . S
C1977 C1978 1.399 . S
C1978 H1964 0.929 . S
C1978 C1977 1.399 . S
C1978 C1979 1.385 . S
C1979 H1965 0.931 . S
C1979 C1978 1.385 . S
C1979 C1980 1.389 . S
C1980 C1979 1.389 . S
C1980 C1981 1.387 . S
C1981 H1966 0.930 . S
C1981 C1976 1.390 . S
C1981 C1980 1.387 . S
H1982 C1994 0.930 1_554 S
H1983 C1996 0.930 . S
H1984 C1997 0.930 . S
H1985 C2001 0.959 . S
H1986 C2001 0.959 . S
H1987 C2001 0.961 1_554 S
H1988 C2002 0.960 1_554 S
H1989 C2002 0.961 . S
H1990 C2002 0.959 . S
H1991 C2005 0.929 . S
H1992 C2006 0.931 . S
H1993 C2008 0.930 . S
C1994 H1982 0.930 1_556 S
C1994 C1995 1.399 . S
C1994 C1999 1.399 . S
C1995 C1994 1.399 . S
C1995 C1996 1.376 . S
C1996 H1983 0.930 . S
C1996 C1995 1.376 . S
C1996 C1997 1.388 . S
C1997 H1984 0.930 . S
C1997 C1996 1.388 . S
C1997 C1998 1.390 . S
C1998 C1997 1.390 . S
C1998 C1999 1.394 . S
C1998 C2004 1.465 . S
C1999 C1994 1.399 . S
C1999 C1998 1.394 . S
C1999 C2000 1.516 . S
C2000 C1999 1.516 . S
C2000 C2001 1.502 . S
C2000 C2002 1.561 . S
C2000 C2003 1.526 . S
C2001 H1985 0.959 . S
C2001 H1986 0.959 . S
C2001 H1987 0.961 1_556 S
C2001 C2000 1.502 . S
C2002 H1988 0.960 1_556 S
C2002 H1989 0.961 . S
C2002 H1990 0.959 . S
C2002 C2000 1.561 . S
C2003 C2000 1.526 . S
C2003 C2004 1.396 . S
C2003 C2008 1.390 . S
C2004 C1998 1.465 . S
C2004 C2003 1.396 . S
C2004 C2005 1.399 . S
C2005 H1991 0.929 . S
C2005 C2004 1.399 . S
C2005 C2006 1.385 . S
C2006 H1992 0.931 . S
C2006 C2005 1.385 . S
C2006 C2007 1.389 . S
C2007 C2006 1.389 . S
C2007 C2008 1.387 . S
C2008 H1993 0.930 . S
C2008 C2003 1.390 . S
C2008 C2007 1.387 . S
H2009 C2021 0.930 . S
H2010 C2023 0.930 . S
H2011 C2024 0.930 1_655 S
H2012 C2028 0.959 . S
H2013 C2028 0.959 . S
H2014 C2028 0.961 . S
H2015 C2029 0.960 . S
H2016 C2029 0.961 . S
H2017 C2029 0.959 . S
H2018 C2032 0.929 . S
H2019 C2033 0.931 . S
H2020 C2035 0.930 . S
C2021 H2009 0.930 . S
C2021 C2022 1.399 . S
C2021 C2026 1.399 . S
C2022 C2021 1.399 . S
C2022 C2023 1.376 . S
C2023 H2010 0.930 . S
C2023 C2022 1.376 . S
C2023 C2024 1.388 . S
C2024 H2011 0.930 1_455 S
C2024 C2023 1.388 . S
C2024 C2025 1.391 . S
C2025 C2024 1.391 . S
C2025 C2026 1.402 . S
C2025 C2031 1.456 1_455 S
C2026 C2021 1.399 . S
C2026 C2025 1.402 . S
C2026 C2027 1.516 . S
C2027 C2026 1.516 . S
C2027 C2028 1.502 . S
C2027 C2029 1.561 . S
C2027 C2030 1.526 1_455 S
C2028 H2012 0.959 . S
C2028 H2013 0.959 . S
C2028 H2014 0.961 . S
C2028 C2027 1.502 . S
C2029 H2015 0.960 . S
C2029 H2016 0.961 . S
C2029 H2017 0.959 . S
C2029 C2027 1.561 . S
C2030 C2027 1.526 1_655 S
C2030 C2031 1.396 . S
C2030 C2035 1.390 . S
C2031 C2025 1.456 1_655 S
C2031 C2030 1.396 . S
C2031 C2032 1.399 . S
C2032 H2018 0.929 . S
C2032 C2031 1.399 . S
C2032 C2033 1.385 . S
C2033 H2019 0.931 . S
C2033 C2032 1.385 . S
C2033 C2034 1.389 . S
C2034 C2033 1.389 . S
C2034 C2035 1.387 . S
C2035 H2020 0.930 . S
C2035 C2030 1.390 . S
C2035 C2034 1.387 . S
H2036 C2048 0.930 . S
H2037 C2050 0.930 . S
H2038 C2051 0.930 . S
H2039 C2055 0.959 . S
H2040 C2055 0.959 . S
H2041 C2055 0.961 . S
H2042 C2056 0.960 . S
H2043 C2056 0.961 . S
H2044 C2056 0.959 . S
H2045 C2059 0.929 1_556 S
H2046 C2060 0.931 . S
H2047 C2062 0.930 . S
C2048 H2036 0.930 . S
C2048 C2049 1.399 . S
C2048 C2053 1.399 . S
C2049 C2048 1.399 . S
C2049 C2050 1.376 . S
C2050 H2037 0.930 . S
C2050 C2049 1.376 . S
C2050 C2051 1.388 . S
C2051 H2038 0.930 . S
C2051 C2050 1.388 . S
C2051 C2052 1.390 . S
C2052 C2051 1.390 . S
C2052 C2053 1.394 . S
C2052 C2058 1.465 . S
C2053 C2048 1.399 . S
C2053 C2052 1.394 . S
C2053 C2054 1.516 . S
C2054 C2053 1.516 . S
C2054 C2055 1.502 . S
C2054 C2056 1.561 . S
C2054 C2057 1.526 . S
C2055 H2039 0.959 . S
C2055 H2040 0.959 . S
C2055 H2041 0.961 . S
C2055 C2054 1.502 . S
C2056 H2042 0.960 . S
C2056 H2043 0.961 . S
C2056 H2044 0.959 . S
C2056 C2054 1.561 . S
C2057 C2054 1.526 . S
C2057 C2058 1.396 . S
C2057 C2062 1.390 . S
C2058 C2052 1.465 . S
C2058 C2057 1.396 . S
C2058 C2059 1.399 . S
C2059 H2045 0.929 1_554 S
C2059 C2058 1.399 . S
C2059 C2060 1.385 1_554 S
C2060 H2046 0.931 . S
C2060 C2059 1.385 1_556 S
C2060 C2061 1.389 1_556 S
C2061 C2060 1.389 1_554 S
C2061 C2062 1.387 . S
C2062 H2047 0.930 . S
C2062 C2057 1.390 . S
C2062 C2061 1.387 . S
H2063 C2075 0.930 . S
H2064 C2077 0.930 . S
H2065 C2078 0.930 . S
H2066 C2082 0.959 . S
H2067 C2082 0.959 . S
H2068 C2082 0.961 . S
H2069 C2083 0.960 1_655 S
H2070 C2083 0.961 . S
H2071 C2083 0.959 . S
H2072 C2086 0.929 . S
H2073 C2087 0.931 . S
H2074 C2089 0.930 . S
C2075 H2063 0.930 . S
C2075 C2076 1.399 . S
C2075 C2080 1.399 . S
C2076 C2075 1.399 . S
C2076 C2077 1.376 . S
C2077 H2064 0.930 . S
C2077 C2076 1.376 . S
C2077 C2078 1.388 . S
C2078 H2065 0.930 . S
C2078 C2077 1.388 . S
C2078 C2079 1.390 . S
C2079 C2078 1.390 . S
C2079 C2080 1.394 . S
C2079 C2085 1.465 1_655 S
C2080 C2075 1.399 . S
C2080 C2079 1.394 . S
C2080 C2081 1.516 . S
C2081 C2080 1.516 . S
C2081 C2082 1.502 . S
C2081 C2083 1.561 1_655 S
C2081 C2084 1.526 1_655 S
C2082 H2066 0.959 . S
C2082 H2067 0.959 . S
C2082 H2068 0.961 . S
C2082 C2081 1.502 . S
C2083 H2069 0.960 1_455 S
C2083 H2070 0.961 . S
C2083 H2071 0.959 . S
C2083 C2081 1.561 1_455 S
C2084 C2081 1.526 1_455 S
C2084 C2085 1.396 . S
C2084 C2089 1.390 . S
C2085 C2079 1.465 1_455 S
C2085 C2084 1.396 . S
C2085 C2086 1.399 . S
C2086 H2072 0.929 . S
C2086 C2085 1.399 . S
C2086 C2087 1.385 . S
C2087 H2073 0.931 . S
C2087 C2086 1.385 . S
C2087 C2088 1.389 . S
C2088 C2087 1.389 . S
C2088 C2089 1.387 . S
C2089 H2074 0.930 . S
C2089 C2084 1.390 . S
C2089 C2088 1.387 . S
H2090 C2102 0.930 . S
H2091 C2104 0.930 . S
H2092 C2105 0.930 . S
H2093 C2109 0.959 . S
H2094 C2109 0.959 . S
H2095 C2109 0.961 . S
H2096 C2110 0.960 . S
H2097 C2110 0.961 . S
H2098 C2110 0.959 . S
H2099 C2113 0.929 . S
H2100 C2114 0.931 . S
H2101 C2116 0.930 . S
C2102 H2090 0.930 . S
C2102 C2103 1.399 . S
C2102 C2107 1.399 . S
C2103 C2102 1.399 . S
C2103 C2104 1.376 . S
C2104 H2091 0.930 . S
C2104 C2103 1.376 . S
C2104 C2105 1.388 . S
C2105 H2092 0.930 . S
C2105 C2104 1.388 . S
C2105 C2106 1.390 . S
C2106 C2105 1.390 . S
C2106 C2107 1.394 . S
C2106 C2112 1.465 . S
C2107 C2102 1.399 . S
C2107 C2106 1.394 . S
C2107 C2108 1.516 . S
C2108 C2107 1.516 . S
C2108 C2109 1.502 . S
C2108 C2110 1.561 . S
C2108 C2111 1.526 . S
C2109 H2093 0.959 . S
C2109 H2094 0.959 . S
C2109 H2095 0.961 . S
C2109 C2108 1.502 . S
C2110 H2096 0.960 . S
C2110 H2097 0.961 . S
C2110 H2098 0.959 . S
C2110 C2108 1.561 . S
C2111 C2108 1.526 . S
C2111 C2112 1.396 . S
C2111 C2116 1.390 . S
C2112 C2106 1.465 . S
C2112 C2111 1.396 . S
C2112 C2113 1.399 . S
C2113 H2099 0.929 . S
C2113 C2112 1.399 . S
C2113 C2114 1.385 . S
C2114 H2100 0.931 . S
C2114 C2113 1.385 . S
C2114 C2115 1.389 . S
C2115 C2114 1.389 . S
C2115 C2116 1.387 . S
C2116 H2101 0.930 . S
C2116 C2111 1.390 . S
C2116 C2115 1.387 . S
H2117 C2129 0.930 . S
H2118 C2131 0.930 . S
H2119 C2132 0.930 . S
H2120 C2136 0.959 . S
H2121 C2136 0.959 . S
H2122 C2136 0.961 . S
H2123 C2137 0.960 . S
H2124 C2137 0.961 . S
H2125 C2137 0.959 . S
H2126 C2140 0.929 . S
H2127 C2141 0.931 . S
H2128 C2143 0.930 . S
C2129 H2117 0.930 . S
C2129 C2130 1.399 . S
C2129 C2134 1.399 . S
C2130 C2129 1.399 . S
C2130 C2131 1.376 . S
C2131 H2118 0.930 . S
C2131 C2130 1.376 . S
C2131 C2132 1.388 . S
C2132 H2119 0.930 . S
C2132 C2131 1.388 . S
C2132 C2133 1.390 . S
C2133 C2132 1.390 . S
C2133 C2134 1.394 . S
C2133 C2139 1.465 . S
C2134 C2129 1.399 . S
C2134 C2133 1.394 . S
C2134 C2135 1.516 . S
C2135 C2134 1.516 . S
C2135 C2136 1.502 . S
C2135 C2137 1.561 . S
C2135 C2138 1.526 . S
C2136 H2120 0.959 . S
C2136 H2121 0.959 . S
C2136 H2122 0.961 . S
C2136 C2135 1.502 . S
C2137 H2123 0.960 . S
C2137 H2124 0.961 . S
C2137 H2125 0.959 . S
C2137 C2135 1.561 . S
C2138 C2135 1.526 . S
C2138 C2139 1.396 . S
C2138 C2143 1.390 . S
C2139 C2133 1.465 . S
C2139 C2138 1.396 . S
C2139 C2140 1.399 . S
C2140 H2126 0.929 . S
C2140 C2139 1.399 . S
C2140 C2141 1.385 . S
C2141 H2127 0.931 . S
C2141 C2140 1.385 . S
C2141 C2142 1.389 . S
C2142 C2141 1.389 . S
C2142 C2143 1.387 . S
C2143 H2128 0.930 . S
C2143 C2138 1.390 . S
C2143 C2142 1.387 . S
C429 C88 1.233 . S
C441 C10 1.231 . S
C456 C23 1.240 . S
C468 C101 1.246 . S
C483 C62 1.301 . S
C495 C36 1.302 . S
C510 C49 1.296 . S
C522 C75 1.293 . S
C537 C192 1.249 . S
C549 C114 1.234 . S
C564 C127 1.292 . S
C576 C205 1.275 . S
C591 C166 1.291 . S
C603 C140 1.301 . S
C618 C153 1.303 . S
C630 C179 1.295 . S
C645 C218 1.231 . S
C657 C296 1.229 . S
C672 C309 1.288 . S
C684 C231 1.292 . S
C699 C244 1.228 . S
C711 C270 1.226 . S
C726 C283 1.295 . S
C738 C257 1.291 . S
C753 C400 1.230 . S
C765 C322 1.224 . S
C780 C413 1.236 . S
C792 C335 1.253 . S
C807 C374 1.304 . S
C819 C348 1.302 . S
C834 C361 1.293 . S
C846 C387 1.277 . S
C861 C91 1.371 . S
C873 C0 1.445 . S
C888 C52 1.434 . S
C900 C13 1.364 . S
C915 C65 1.398 . S
C927 C26 1.370 . S
C942 C78 1.416 . S
C954 C39 1.443 . S
C969 C195 1.432 . S
C981 C104 1.406 . S
C996 C156 1.365 . S
C1008 C117 1.450 . S
C1023 C169 1.405 . S
C1035 C130 1.432 . S
C1050 C143 1.381 . S
C1062 C182 1.447 . S
C1077 C299 1.449 . S
C1089 C208 1.378 . S
C1104 C221 1.401 . S
C1116 C260 1.449 . S
C1131 C234 1.439 . S
C1143 C273 1.423 . S
C1158 C286 1.432 . S
C1170 C247 1.431 . S
C1185 C403 1.376 . S
C1197 C312 1.416 . S
C1212 C325 1.437 . S
C1224 C364 1.399 . S
C1239 C338 1.444 . S
C1251 C377 1.363 . S
C1266 C390 1.363 . S
C1278 C351 1.448 . S
C1293 C8 0.964 . S
C1305 C395 1.055 1_554 S
C1320 C200 0.954 . S
C1332 C21 1.087 . S
C1347 C369 1.014 . S
C1359 C34 1.065 . S
C1374 C174 0.901 . S
C1386 C47 1.018 1_556 S
C1401 C343 0.924 . S
C1413 C60 0.994 . S
C1428 C73 1.080 . S
C1440 C148 0.985 . S
C1455 C86 0.989 . S
C1467 C317 1.065 1_556 S
C1482 C99 1.048 1_554 S
C1494 C122 0.888 . S
C1509 C112 1.070 . S
C1521 C291 0.953 1_556 S
C1536 C96 1.039 . S
C1548 C125 1.006 . S
C1563 C265 1.065 . S
C1575 C138 0.955 . S
C1590 C70 0.997 . S
C1602 C151 1.041 1_554 S
C1617 C239 1.056 . S
C1629 C164 0.986 . S
C1644 C44 1.029 . S
C1656 C177 1.015 . S
C1671 C190 1.066 . S
C1683 C213 0.959 1_554 S
C1698 C18 0.962 . S
C1710 C203 1.005 1_556 S
C1725 C187 1.037 . S
C1737 C216 1.047 . S
C1752 C408 0.909 . S
C1764 C229 1.083 1_556 S
C1779 C242 0.962 . S
C1791 C161 1.053 1_554 S
C1806 C255 1.079 . S
C1818 C382 0.899 . S
C1833 C268 0.965 . S
C1845 C135 1.056 1_556 S
C1860 C281 1.011 1_554 S
C1872 C356 1.062 . S
C1887 C294 0.955 . S
C1899 C109 1.040 . S
C1914 C307 1.018 . S
C1926 C330 0.902 . S
C1941 C83 1.067 . S
C1953 C320 0.960 . S
C1968 C304 0.990 . S
C1980 C333 1.046 1_554 S
C1995 C57 1.066 1_556 S
C2007 C346 0.958 . S
C2022 C359 0.970 . S
C2034 C278 1.013 . S
C2049 C372 1.089 . S
C2061 C31 0.902 1_554 S
C2076 C252 1.029 . S
C2088 C385 1.016 1_556 S
C2103 C398 0.993 . S
C2115 C5 0.978 . S
C2130 C411 0.959 . S
C2142 C226 1.065 . S
