# Generated by pormake.
# Topology zfw, (5)-cn, num edge types: 1
# Building blocks:
#     Node 0, Type 0, BuildingBlock: BEQFEK_clean_sbu_0, # of connection points: 5
#     Node 1, Type 0, BuildingBlock: BEQFEK_clean_sbu_0, # of connection points: 5
#     Node 2, Type 0, BuildingBlock: BEQFEK_clean_sbu_0, # of connection points: 5
#     Node 3, Type 0, BuildingBlock: BEQFEK_clean_sbu_0, # of connection points: 5
#     Node 4, Type 0, BuildingBlock: BEQFEK_clean_sbu_0, # of connection points: 5
#     Node 5, Type 0, BuildingBlock: BEQFEK_clean_sbu_0, # of connection points: 5
#     Node 6, Type 0, BuildingBlock: BEQFEK_clean_sbu_0, # of connection points: 5
#     Node 7, Type 0, BuildingBlock: BEQFEK_clean_sbu_0, # of connection points: 5
#     Node 8, Type 0, BuildingBlock: BEQFEK_clean_sbu_0, # of connection points: 5
#     Node 9, Type 0, BuildingBlock: BEQFEK_clean_sbu_0, # of connection points: 5
#     Node 10, Type 0, BuildingBlock: BEQFEK_clean_sbu_0, # of connection points: 5
#     Node 11, Type 0, BuildingBlock: BEQFEK_clean_sbu_0, # of connection points: 5
#     Node 12, Type 0, BuildingBlock: BEQFEK_clean_sbu_0, # of connection points: 5
#     Node 13, Type 0, BuildingBlock: BEQFEK_clean_sbu_0, # of connection points: 5
#     Node 14, Type 0, BuildingBlock: BEQFEK_clean_sbu_0, # of connection points: 5
#     Node 15, Type 0, BuildingBlock: BEQFEK_clean_sbu_0, # of connection points: 5
#     Edge 16, Type (0, 0), BuildingBlock: XIVTED_clean_linker_0, # of connection points: 2
#     Edge 17, Type (0, 0), BuildingBlock: XIVTED_clean_linker_0, # of connection points: 2
#     Edge 18, Type (0, 0), BuildingBlock: XIVTED_clean_linker_0, # of connection points: 2
#     Edge 19, Type (0, 0), BuildingBlock: XIVTED_clean_linker_0, # of connection points: 2
#     Edge 20, Type (0, 0), BuildingBlock: XIVTED_clean_linker_0, # of connection points: 2
#     Edge 21, Type (0, 0), BuildingBlock: XIVTED_clean_linker_0, # of connection points: 2
#     Edge 22, Type (0, 0), BuildingBlock: XIVTED_clean_linker_0, # of connection points: 2
#     Edge 23, Type (0, 0), BuildingBlock: XIVTED_clean_linker_0, # of connection points: 2
#     Edge 24, Type (0, 0), BuildingBlock: XIVTED_clean_linker_0, # of connection points: 2
#     Edge 25, Type (0, 0), BuildingBlock: XIVTED_clean_linker_0, # of connection points: 2
#     Edge 26, Type (0, 0), BuildingBlock: XIVTED_clean_linker_0, # of connection points: 2
#     Edge 27, Type (0, 0), BuildingBlock: XIVTED_clean_linker_0, # of connection points: 2
#     Edge 28, Type (0, 0), BuildingBlock: XIVTED_clean_linker_0, # of connection points: 2
#     Edge 29, Type (0, 0), BuildingBlock: XIVTED_clean_linker_0, # of connection points: 2
#     Edge 30, Type (0, 0), BuildingBlock: XIVTED_clean_linker_0, # of connection points: 2
#     Edge 31, Type (0, 0), BuildingBlock: XIVTED_clean_linker_0, # of connection points: 2
#     Edge 32, Type (0, 0), BuildingBlock: XIVTED_clean_linker_0, # of connection points: 2
#     Edge 33, Type (0, 0), BuildingBlock: XIVTED_clean_linker_0, # of connection points: 2
#     Edge 34, Type (0, 0), BuildingBlock: XIVTED_clean_linker_0, # of connection points: 2
#     Edge 35, Type (0, 0), BuildingBlock: XIVTED_clean_linker_0, # of connection points: 2
#     Edge 36, Type (0, 0), BuildingBlock: XIVTED_clean_linker_0, # of connection points: 2
#     Edge 37, Type (0, 0), BuildingBlock: XIVTED_clean_linker_0, # of connection points: 2
#     Edge 38, Type (0, 0), BuildingBlock: XIVTED_clean_linker_0, # of connection points: 2
#     Edge 39, Type (0, 0), BuildingBlock: XIVTED_clean_linker_0, # of connection points: 2
#     Edge 40, Type (0, 0), BuildingBlock: XIVTED_clean_linker_0, # of connection points: 2
#     Edge 41, Type (0, 0), BuildingBlock: XIVTED_clean_linker_0, # of connection points: 2
#     Edge 42, Type (0, 0), BuildingBlock: XIVTED_clean_linker_0, # of connection points: 2
#     Edge 43, Type (0, 0), BuildingBlock: XIVTED_clean_linker_0, # of connection points: 2
#     Edge 44, Type (0, 0), BuildingBlock: XIVTED_clean_linker_0, # of connection points: 2
#     Edge 45, Type (0, 0), BuildingBlock: XIVTED_clean_linker_0, # of connection points: 2
#     Edge 46, Type (0, 0), BuildingBlock: XIVTED_clean_linker_0, # of connection points: 2
#     Edge 47, Type (0, 0), BuildingBlock: XIVTED_clean_linker_0, # of connection points: 2
#     Edge 48, Type (0, 0), BuildingBlock: XIVTED_clean_linker_0, # of connection points: 2
#     Edge 49, Type (0, 0), BuildingBlock: XIVTED_clean_linker_0, # of connection points: 2
#     Edge 50, Type (0, 0), BuildingBlock: XIVTED_clean_linker_0, # of connection points: 2
#     Edge 51, Type (0, 0), BuildingBlock: XIVTED_clean_linker_0, # of connection points: 2
#     Edge 52, Type (0, 0), BuildingBlock: XIVTED_clean_linker_0, # of connection points: 2
#     Edge 53, Type (0, 0), BuildingBlock: XIVTED_clean_linker_0, # of connection points: 2
#     Edge 54, Type (0, 0), BuildingBlock: XIVTED_clean_linker_0, # of connection points: 2
#     Edge 55, Type (0, 0), BuildingBlock: XIVTED_clean_linker_0, # of connection points: 2
# Relax obj value: 0.383
# Max RMSD: 0.228
# Mean RMSD: 0.228
data_MOF--net-zfw--node1-BEQFEK_clean_sbu_0--edge1-XIVTED_clean_linker_0
_symmetry_space_group_name_H-M    P1
_symmetry_Int_Tables_number       1
_symmetry_cell_setting            triclinic
loop_
_symmetry_equiv_pos_as_xyz
'x, y, z'
_cell_length_a     70.110047
_cell_length_b     70.093595
_cell_length_c     18.073464
_cell_angle_alpha  89.982694
_cell_angle_beta   89.997039
_cell_angle_gamma 90.003073
loop_
_atom_site_label
_atom_site_type_symbol
_atom_site_fract_x
_atom_site_fract_y
_atom_site_fract_z
_atom_type_partial_charge
Co0 Co 0.00572 0.09105 0.31103 0.0
Co1 Co 0.0074 0.11172 0.15902 0.0
C2 C 0.97626 0.11969 0.26738 0.0
O3 O 0.98366 0.10814 0.31314 0.0
O4 O 0.98362 0.12231 0.2038 0.0
C5 C 0.98807 0.07284 0.43245 0.0
O6 O 0.97244 0.0764 0.39482 0.0
C7 C -0.00352 0.11522 0.00545 0.0
C8 C 0.02258 0.1275 0.95638 0.0
C9 C 0.00526 0.11912 0.93838 0.0
N10 N 0.00843 0.12032 0.05998 0.0
N11 N 0.02368 0.12836 0.03053 0.0
C12 C 0.97838 0.10433 0.01802 0.0
H13 H 0.97749 0.09921 0.07602 0.0
H14 H 0.97724 0.0921 0.97934 0.0
H15 H 0.9661 0.11392 0.00719 0.0
C16 C 0.00631 0.05683 0.2154 0.0
N17 N 0.00598 0.07586 0.22529 0.0
N18 N 0.00862 0.08444 0.16129 0.0
C19 C 0.01195 0.071 0.10935 0.0
C20 C 0.01013 0.05319 0.14166 0.0
C21 C 0.00404 0.04255 0.27622 0.0
H22 H 0.01535 0.04484 0.31821 0.0
H23 H 0.99008 0.04478 0.3038 0.0
H24 H 0.0049 0.02772 0.25504 0.0
O25 O 0.02939 0.10666 0.31795 0.0
O26 O 0.02982 0.12201 0.21046 0.0
H27 H 0.02622 0.08853 0.02873 0.0
H28 H 0.02814 0.06337 0.01215 0.0
C29 C 0.01848 0.07481 0.03182 0.0
H30 H 0.00603 0.075 -0.00581 0.0
H31 H 0.03554 0.13284 0.06076 0.0
O32 O 0.00416 0.0759 0.40227 0.0
C33 C 0.03708 0.11851 0.27353 0.0
Co34 Co 0.16128 0.74641 0.56809 0.0
Co35 Co 0.14074 0.74708 0.41572 0.0
C36 C 0.13321 0.71622 0.5256 0.0
O37 O 0.1445 0.72409 0.57111 0.0
O38 O 0.13061 0.7232 0.46137 0.0
C39 C 0.17974 0.72905 0.68934 0.0
O40 O 0.17669 0.71343 0.65091 0.0
C41 C 0.13695 0.73568 0.26243 0.0
C42 C 0.1245 0.76166 0.21309 0.0
C43 C 0.13291 0.74434 0.19524 0.0
N44 N 0.13196 0.74773 0.31681 0.0
N45 N 0.12379 0.76288 0.28721 0.0
C46 C 0.14782 0.71757 0.27517 0.0
H47 H 0.15355 0.71706 0.33237 0.0
H48 H 0.15959 0.71599 0.23463 0.0
H49 H 0.138 0.70532 0.26744 0.0
C50 C 0.19559 0.74733 0.47328 0.0
N51 N 0.17656 0.74678 0.48259 0.0
N52 N 0.16808 0.74886 0.41812 0.0
C53 C 0.18159 0.75198 0.36616 0.0
C54 C 0.19942 0.75067 0.3992 0.0
C55 C 0.20971 0.74562 0.53496 0.0
H56 H 0.20632 0.75627 0.5784 0.0
H57 H 0.20849 0.73124 0.56021 0.0
H58 H 0.22453 0.7479 0.51534 0.0
O59 O 0.14533 0.76979 0.57363 0.0
O60 O 0.12991 0.76946 0.46634 0.0
H61 H 0.16379 0.76429 0.28185 0.0
H62 H 0.18871 0.76657 0.26418 0.0
C63 C 0.17768 0.75696 0.28698 0.0
H64 H 0.17783 0.74384 0.25298 0.0
H65 H 0.11932 0.77479 0.31723 0.0
O66 O 0.17626 0.74514 0.65982 0.0
C67 C 0.13329 0.77705 0.52892 0.0
Co68 Co 0.50294 0.89741 0.81069 0.0
Co69 Co 0.50259 0.87571 0.66083 0.0
C70 C 0.53389 0.86995 0.77037 0.0
O71 O 0.52612 0.88167 0.81465 0.0
O72 O 0.52649 0.86633 0.70761 0.0
C73 C 0.51826 0.91574 0.93613 0.0
O74 O 0.53458 0.9138 0.90115 0.0
C75 C 0.51508 0.86765 0.51062 0.0
C76 C 0.48765 0.86057 0.45734 0.0
C77 C 0.50661 0.86472 0.44198 0.0
N78 N 0.5015 0.86641 0.56276 0.0
N79 N 0.4853 0.86144 0.53098 0.0
C80 C 0.53562 0.87163 0.52748 0.0
H81 H 0.54016 0.86295 0.5756 0.0
H82 H 0.53747 0.88683 0.54283 0.0
H83 H 0.54492 0.86807 0.47974 0.0
C84 C 0.50091 0.93097 0.7124 0.0
N85 N 0.50179 0.91202 0.72382 0.0
N86 N 0.50099 0.90306 0.65993 0.0
C87 C 0.49909 0.91616 0.60558 0.0
C88 C 0.49912 0.93423 0.63709 0.0
C89 C 0.50121 0.94548 0.77304 0.0
H90 H 0.49053 0.94158 0.81575 0.0
H91 H 0.51546 0.9454 0.79974 0.0
H92 H 0.49806 0.96002 0.75197 0.0
O93 O 0.4805 0.88055 0.81949 0.0
O94 O 0.48039 0.86477 0.71325 0.0
H95 H 0.48724 0.90021 0.51565 0.0
H96 H 0.49407 0.92409 0.49069 0.0
C97 C 0.49794 0.91157 0.52481 0.0
H98 H 0.51202 0.90655 0.50561 0.0
H99 H 0.47233 0.86013 0.55888 0.0
O100 O 0.50286 0.91283 0.90096 0.0
C101 C 0.47324 0.86814 0.7766 0.0
Co102 Co 0.35536 0.24471 0.06061 0.0
Co103 Co 0.37643 0.24139 0.90967 0.0
C104 C 0.38417 0.27364 0.01364 0.0
O105 O 0.37235 0.26687 0.05988 0.0
O106 O 0.38704 0.26551 0.95166 0.0
C107 C 0.33767 0.26261 0.1831 0.0
O108 O 0.34173 0.27832 0.14666 0.0
C109 C 0.38013 0.25163 0.75577 0.0
C110 C 0.39176 0.22513 0.70754 0.0
C111 C 0.38382 0.24263 0.68898 0.0
N112 N 0.38498 0.23969 0.81069 0.0
N113 N 0.3926 0.22417 0.78176 0.0
C114 C 0.36959 0.26997 0.7678 0.0
H115 H 0.36452 0.27109 0.82579 0.0
H116 H 0.35735 0.27123 0.72925 0.0
H117 H 0.37939 0.28205 0.75645 0.0
C118 C 0.32139 0.24332 0.96431 0.0
N119 N 0.34039 0.24352 0.9748 0.0
N120 N 0.3491 0.24044 0.91137 0.0
C121 C 0.33572 0.23719 0.8591 0.0
C122 C 0.3179 0.23934 0.89065 0.0
C123 C 0.307 0.24633 0.0242 0.0
H124 H 0.3086 0.23497 0.06649 0.0
H125 H 0.30978 0.2602 0.05176 0.0
H126 H 0.29223 0.24612 0.00209 0.0
O127 O 0.37111 0.22132 0.0709 0.0
O128 O 0.38685 0.21943 0.9646 0.0
H129 H 0.35291 0.22182 0.78049 0.0
H130 H 0.32764 0.22074 0.76343 0.0
C131 C 0.33947 0.23007 0.78238 0.0
H132 H 0.3402 0.24227 0.7436 0.0
H133 H 0.39679 0.21227 0.8124 0.0
O134 O 0.34013 0.2466 0.15158 0.0
C135 C 0.38315 0.21305 0.02897 0.0
Co136 Co 0.00381 0.89623 0.67121 0.0
Co137 Co 0.00878 0.87564 0.82246 0.0
C138 C 0.97695 0.86589 0.71766 0.0
O139 O 0.98207 0.87871 0.67234 0.0
O140 O 0.98605 0.86296 0.77752 0.0
C141 C 0.98541 0.91349 0.54855 0.0
O142 O 0.9698 0.90898 0.58481 0.0
C143 C -0.00178 0.87184 0.97598 0.0
C144 C 0.02494 0.8611 0.02549 0.0
C145 C 0.00717 0.86855 0.04318 0.0
N146 N 0.01043 0.86725 0.92164 0.0
N147 N 0.02609 0.86014 0.95135 0.0
C148 C 0.97961 0.8818 0.96301 0.0
H149 H 0.97828 0.88634 0.90443 0.0
H150 H 0.97811 0.89433 6e-05 0.0
H151 H 0.9678 0.87181 0.97595 0.0
C152 C 0.00379 0.93042 0.76673 0.0
N153 N 0.00433 0.9114 0.75671 0.0
N154 N 0.0081 0.90296 0.82008 0.0
C155 C 0.0113 0.91654 0.8716 0.0
C156 C 0.00824 0.93424 0.83981 0.0
C157 C 0.00024 0.94456 0.70635 0.0
H158 H 0.01158 0.94321 0.66386 0.0
H159 H 0.98642 0.94129 0.67925 0.0
H160 H 3e-05 0.9594 0.72782 0.0
O161 O 0.02795 0.88116 0.66131 0.0
O162 O 0.03158 0.86701 0.77038 0.0
H163 H 0.02733 0.89973 0.94948 0.0
H164 H 0.028 0.92493 0.96663 0.0
C165 C 0.01881 0.913 0.94798 0.0
H166 H 0.00678 0.91201 0.98743 0.0
H167 H 0.03819 0.85625 0.92126 0.0
O168 O 0.00147 0.91132 0.58 0.0
C169 C 0.03734 0.87037 0.70496 0.0
Co170 Co 0.35407 0.73867 0.9201 0.0
Co171 Co 0.37644 0.73975 0.06845 0.0
C172 C 0.38339 0.70931 0.95535 0.0
O173 O 0.37093 0.71635 0.91234 0.0
O174 O 0.38689 0.71682 0.01798 0.0
C175 C 0.33577 0.7234 0.79492 0.0
O176 O 0.33831 0.70704 0.82907 0.0
C177 C 0.38256 0.72642 0.21792 0.0
C178 C 0.39304 0.75254 0.27262 0.0
C179 C 0.3863 0.73427 0.28715 0.0
N180 N 0.38588 0.73981 0.1664 0.0
N181 N 0.39281 0.75515 0.19901 0.0
C182 C 0.37562 0.70677 0.1996 0.0
H183 H 0.38208 0.7019 0.14695 0.0
H184 H 0.35993 0.70696 0.19173 0.0
H185 H 0.3794 0.69651 0.24401 0.0
C186 C 0.32092 0.73888 0.02138 0.0
N187 N 0.33982 0.73851 0.00809 0.0
N188 N 0.34915 0.74 0.071 0.0
C189 C 0.33637 0.74201 0.12627 0.0
C190 C 0.31817 0.74094 0.09688 0.0
C191 C 0.30599 0.73743 0.96257 0.0
H192 H 0.30599 0.75075 0.92939 0.0
H193 H 0.30948 0.72545 0.92484 0.0
H194 H 0.2916 0.73516 0.98656 0.0
O195 O 0.36985 0.76205 0.91312 0.0
O196 O 0.38595 0.76292 0.01872 0.0
H197 H 0.3292 0.75586 0.22937 0.0
H198 H 0.3435 0.73484 0.2379 0.0
C199 C 0.34112 0.74775 0.20393 0.0
H200 H 0.35401 0.75684 0.2047 0.0
H201 H 0.39592 0.7679 0.17169 0.0
O202 O 0.33826 0.73877 0.83078 0.0
C203 C 0.38191 0.76999 0.9558 0.0
Co204 Co 0.51026 0.09285 0.17558 0.0
Co205 Co 0.50916 0.11391 0.3271 0.0
C206 C 0.53976 0.12181 0.21689 0.0
O207 O 0.53225 0.11016 0.17183 0.0
O208 O 0.53266 0.12449 0.28083 0.0
C209 C 0.52773 0.07481 0.05376 0.0
O210 O 0.54337 0.07854 0.0911 0.0
C211 C 0.52069 0.11771 0.47993 0.0
C212 C 0.49478 0.13006 0.53022 0.0
C213 C 0.51219 0.12173 0.54744 0.0
N214 N 0.50851 0.12269 0.42599 0.0
N215 N 0.49338 0.13077 0.45612 0.0
C216 C 0.53877 0.10685 0.4665 0.0
H217 H 0.53956 0.10186 0.40832 0.0
H218 H 0.53997 0.09452 0.50471 0.0
H219 H 0.55107 0.1164 0.47733 0.0
C220 C 0.51002 0.05883 0.27305 0.0
N221 N 0.51031 0.07784 0.26203 0.0
N222 N 0.50832 0.08664 0.32589 0.0
C223 C 0.50577 0.07341 0.37923 0.0
C224 C 0.50733 0.05546 0.34793 0.0
C225 C 0.51227 0.04439 0.21279 0.0
H226 H 0.52486 0.0481 0.1785 0.0
H227 H 0.51407 0.02978 0.23527 0.0
H228 H 0.49952 0.04482 0.17647 0.0
O229 O 0.48658 0.10841 0.16935 0.0
O230 O 0.4865 0.12401 0.27626 0.0
H231 H 0.48908 0.06576 0.47488 0.0
H232 H 0.51072 0.0781 0.49486 0.0
C233 C 0.49859 0.07742 0.45577 0.0
H234 H 0.49048 0.09095 0.45709 0.0
H235 H 0.48139 0.13519 0.42649 0.0
O236 O 0.51165 0.07759 0.08442 0.0
C237 C 0.47905 0.12039 0.21363 0.0
Co238 Co 0.16337 0.24097 0.40856 0.0
Co239 Co 0.14144 0.24087 0.55788 0.0
C240 C 0.13481 0.27114 0.44425 0.0
O241 O 0.14675 0.26342 0.40083 0.0
O242 O 0.13152 0.26418 0.50803 0.0
C243 C 0.18166 0.25636 0.28375 0.0
O244 O 0.17998 0.27256 0.31974 0.0
C245 C 0.13481 0.25415 0.70781 0.0
C246 C 0.12443 0.22784 0.76152 0.0
C247 C 0.13065 0.24625 0.77651 0.0
N248 N 0.13211 0.2407 0.65598 0.0
N249 N 0.12528 0.22522 0.688 0.0
C250 C 0.14128 0.27403 0.69046 0.0
H251 H 0.13424 0.27909 0.6392 0.0
H252 H 0.15687 0.27416 0.68023 0.0
H253 H 0.13778 0.28397 0.73627 0.0
C254 C 0.19679 0.24078 0.50798 0.0
N255 N 0.17786 0.24118 0.49583 0.0
N256 N 0.16876 0.23968 0.55926 0.0
C257 C 0.18174 0.23736 0.6137 0.0
C258 C 0.19984 0.23828 0.58303 0.0
C259 C 0.2115 0.24181 0.44821 0.0
H260 H 0.20898 0.23017 0.40781 0.0
H261 H 0.20999 0.25555 0.41823 0.0
H262 H 0.22617 0.24059 0.47079 0.0
O263 O 0.14737 0.21772 0.40311 0.0
O264 O 0.13104 0.2181 0.50816 0.0
H265 H 0.16436 0.22445 0.69767 0.0
H266 H 0.18906 0.22674 0.72277 0.0
C267 C 0.17709 0.23371 0.69332 0.0
H268 H 0.17428 0.24744 0.7214 0.0
H269 H 0.12252 0.21244 0.66038 0.0
O270 O 0.17887 0.24085 0.31839 0.0
C271 C 0.13496 0.21046 0.44616 0.0
Co272 Co 0.85524 0.2471 0.41273 0.0
Co273 Co 0.87703 0.24641 0.56254 0.0
C274 C 0.88318 0.21622 0.44881 0.0
O275 O 0.87144 0.22428 0.40546 0.0
O276 O 0.88659 0.22299 0.51278 0.0
C277 C 0.83675 0.23202 0.28755 0.0
O278 O 0.8384 0.21576 0.32316 0.0
C279 C 0.8846 0.23309 0.71227 0.0
C280 C 0.89308 0.26001 0.76642 0.0
C281 C 0.88802 0.24123 0.78121 0.0
N282 N 0.88645 0.24674 0.66061 0.0
N283 N 0.89224 0.2626 0.69291 0.0
C284 C 0.87963 0.21281 0.69462 0.0
H285 H 0.88765 0.20815 0.64497 0.0
H286 H 0.86424 0.21163 0.68133 0.0
H287 H 0.88321 0.20318 0.74135 0.0
C288 C 0.82175 0.2484 0.51191 0.0
N289 N 0.84066 0.24733 0.50002 0.0
N290 N 0.84973 0.24794 0.56376 0.0
C291 C 0.83675 0.25003 0.61839 0.0
C292 C 0.81864 0.25022 0.58732 0.0
C293 C 0.80714 0.24858 0.45162 0.0
H294 H 0.81096 0.25962 0.41018 0.0
H295 H 0.80723 0.23456 0.42308 0.0
H296 H 0.79263 0.25149 0.4734 0.0
O297 O 0.87172 0.26995 0.40698 0.0
O298 O 0.88767 0.26912 0.51284 0.0
H299 H 0.85341 0.26182 0.70661 0.0
H300 H 0.82928 0.25644 0.73274 0.0
C301 C 0.84151 0.25164 0.69893 0.0
H302 H 0.84578 0.23748 0.72 0.0
H303 H 0.89416 0.27556 0.66549 0.0
O304 O 0.83982 0.24746 0.3223 0.0
C305 C 0.88409 0.27691 0.4508 0.0
Co306 Co 0.66129 0.74894 0.91491 0.0
Co307 Co 0.63968 0.74864 0.06495 0.0
C308 C 0.63193 0.77836 0.95027 0.0
O309 O 0.64414 0.77104 0.90691 0.0
O310 O 0.62883 0.77128 0.01394 0.0
C311 C 0.6797 0.76488 0.79161 0.0
O312 O 0.67776 0.78085 0.82892 0.0
C313 C 0.6338 0.76263 0.21378 0.0
C314 C 0.6239 0.73662 0.27092 0.0
C315 C 0.63026 0.7551 0.28367 0.0
N316 N 0.63067 0.7489 0.16347 0.0
N317 N 0.6241 0.7336 0.19755 0.0
C318 C 0.64029 0.78233 0.19385 0.0
H319 H 0.63332 0.78697 0.14185 0.0
H320 H 0.6559 0.78235 0.18396 0.0
H321 H 0.63674 0.79266 0.23828 0.0
C322 C 0.69496 0.74959 0.01374 0.0
N323 N 0.676 0.7497 0.00179 0.0
N324 N 0.66697 0.74864 0.06554 0.0
C325 C 0.68004 0.74724 0.12009 0.0
C326 C 0.69808 0.74823 0.08925 0.0
C327 C 0.7096 0.75068 0.95371 0.0
H328 H 0.70835 0.73789 0.91786 0.0
H329 H 0.70677 0.76338 0.91881 0.0
H330 H 0.72427 0.75158 0.97641 0.0
O331 O 0.64576 0.72534 0.91061 0.0
O332 O 0.63014 0.72517 0.01738 0.0
H333 H 0.68791 0.73462 0.22481 0.0
H334 H 0.67328 0.75546 0.23094 0.0
C335 C 0.67574 0.74224 0.19891 0.0
H336 H 0.66302 0.73295 0.20205 0.0
H337 H 0.62118 0.72066 0.17137 0.0
O338 O 0.67664 0.74915 0.82443 0.0
C339 C 0.63393 0.71767 0.95498 0.0
Co340 Co 0.66381 0.24532 0.07085 0.0
Co341 Co 0.64236 0.24726 0.92004 0.0
C342 C 0.63453 0.21624 0.02903 0.0
O343 O 0.64643 0.22341 0.07398 0.0
O344 O 0.63168 0.2237 0.96576 0.0
C345 C 0.68159 0.22772 0.19335 0.0
O346 O 0.6777 0.21204 0.15654 0.0
C347 C 0.63828 0.23636 0.7665 0.0
C348 C 0.62617 0.26262 0.71813 0.0
C349 C 0.63437 0.24525 0.69961 0.0
N350 N 0.6334 0.24831 0.82135 0.0
N351 N 0.62544 0.26365 0.79231 0.0
C352 C 0.64899 0.21812 0.77857 0.0
H353 H 0.65397 0.217 0.83667 0.0
H354 H 0.66129 0.217 0.74022 0.0
H355 H 0.63933 0.20596 0.76683 0.0
C356 C 0.69756 0.24531 0.97174 0.0
N357 N 0.6786 0.24545 0.9838 0.0
N358 N 0.66962 0.24787 0.9205 0.0
C359 C 0.68271 0.25035 0.86666 0.0
C360 C 0.70071 0.2482 0.89683 0.0
C361 C 0.71216 0.2424 0.03099 0.0
H362 H 0.71237 0.25511 0.06759 0.0
H363 H 0.70813 0.22991 0.06529 0.0
H364 H 0.72659 0.24013 0.00744 0.0
O365 O 0.64832 0.26903 0.07875 0.0
O366 O 0.6326 0.26985 0.97211 0.0
H367 H 0.66521 0.26629 0.7906 0.0
H368 H 0.69038 0.26748 0.77227 0.0
C369 C 0.67863 0.258 0.79085 0.0
H370 H 0.67777 0.24611 0.75072 0.0
H371 H 0.62114 0.27554 0.8228 0.0
O372 O 0.67917 0.24375 0.1618 0.0
C373 C 0.63639 0.27692 0.03524 0.0
Co374 Co 0.85565 0.74491 0.55498 0.0
Co375 Co 0.87648 0.74021 0.40405 0.0
C376 C 0.88497 0.77272 0.50724 0.0
O377 O 0.87229 0.76732 0.5526 0.0
O378 O 0.88833 0.7635 0.44802 0.0
C379 C 0.83817 0.76292 0.67816 0.0
O380 O 0.84225 0.77865 0.64196 0.0
C381 C 0.88069 0.7507 0.25046 0.0
C382 C 0.89179 0.72403 0.20182 0.0
C383 C 0.88427 0.74173 0.18351 0.0
N384 N 0.88514 0.73855 0.30517 0.0
N385 N 0.89249 0.72292 0.27602 0.0
C386 C 0.87061 0.76928 0.26278 0.0
H387 H 0.86544 0.77039 0.32065 0.0
H388 H 0.8585 0.77097 0.22383 0.0
H389 H 0.88075 0.78112 0.25222 0.0
C390 C 0.82153 0.74349 0.45954 0.0
N391 N 0.84054 0.74341 0.4695 0.0
N392 N 0.84908 0.73995 0.40607 0.0
C393 C 0.83557 0.73658 0.35435 0.0
C394 C 0.81774 0.73912 0.38624 0.0
C395 C 0.80738 0.74678 0.52018 0.0
H396 H 0.80981 0.73623 0.56497 0.0
H397 H 0.80966 0.7612 0.54396 0.0
H398 H 0.79249 0.74549 0.50007 0.0
O399 O 0.87161 0.72147 0.56632 0.0
O400 O 0.88593 0.71789 0.45761 0.0
H401 H 0.85295 0.72213 0.27395 0.0
H402 H 0.82798 0.72105 0.25498 0.0
C403 C 0.83948 0.73028 0.27659 0.0
H404 H 0.84026 0.7429 0.23992 0.0
H405 H 0.89637 0.71088 0.30645 0.0
O406 O 0.84057 0.74693 0.64636 0.0
C407 C 0.88277 0.71231 0.52342 0.0
Co408 Co 0.51253 0.59038 0.81587 0.0
Co409 Co 0.51232 0.61172 0.66529 0.0
C410 C 0.48139 0.6177 0.77598 0.0
O411 O 0.48937 0.60616 0.82038 0.0
O412 O 0.48852 0.62115 0.71263 0.0
C413 C 0.49722 0.57176 0.94071 0.0
O414 O 0.48099 0.5735 0.905 0.0
C415 C 0.49955 0.61948 0.51512 0.0
C416 C 0.52686 0.62673 0.46126 0.0
C417 C 0.50792 0.62243 0.4463 0.0
N418 N 0.51318 0.62087 0.56699 0.0
N419 N 0.52931 0.62593 0.53485 0.0
C420 C 0.47905 0.6154 0.53241 0.0
H421 H 0.47452 0.6241 0.5805 0.0
H422 H 0.4773 0.60021 0.54804 0.0
H423 H 0.46968 0.61886 0.48477 0.0
C424 C 0.51421 0.55659 0.71848 0.0
N425 N 0.51337 0.57556 0.7294 0.0
N426 N 0.51397 0.5844 0.6652 0.0
C427 C 0.51574 0.57121 0.61118 0.0
C428 C 0.51581 0.5532 0.6432 0.0
C429 C 0.51406 0.54216 0.77946 0.0
H430 H 0.52482 0.54612 0.82173 0.0
H431 H 0.49986 0.54228 0.80661 0.0
H432 H 0.51715 0.5276 0.75859 0.0
O433 O 0.53507 0.60723 0.82318 0.0
O434 O 0.53465 0.62275 0.71633 0.0
H435 H 0.52733 0.58711 0.52053 0.0
H436 H 0.52071 0.56313 0.49641 0.0
C437 C 0.51676 0.57566 0.53024 0.0
H438 H 0.5026 0.5805 0.51113 0.0
H439 H 0.5423 0.62737 0.56249 0.0
O440 O 0.51268 0.57509 0.90648 0.0
C441 C 0.54211 0.61954 0.77925 0.0
Co442 Co 0.0124 0.39689 0.30508 0.0
Co443 Co 0.01015 0.37536 0.15453 0.0
C444 C 0.04132 0.36749 0.26276 0.0
O445 O 0.03427 0.3795 0.30757 0.0
O446 O 0.03375 0.36456 0.19977 0.0
C447 C 0.0301 0.4145 0.42774 0.0
O448 O 0.04577 0.41051 0.39106 0.0
C449 C 0.0208 0.37109 0.00081 0.0
C450 C -0.0056 0.35912 0.95308 0.0
C451 C 0.01182 0.36715 0.93413 0.0
N452 N 0.00887 0.36636 0.05594 0.0
N453 N 0.99344 0.35849 0.0273 0.0
C454 C 0.03913 0.38167 0.01242 0.0
H455 H 0.04032 0.38676 0.07037 0.0
H456 H 0.04033 0.3939 0.97372 0.0
H457 H 0.05121 0.37189 0.00088 0.0
C458 C 0.01199 0.43061 0.20631 0.0
N459 N 0.01207 0.41163 0.21809 0.0
N460 N 0.00966 0.40267 0.15475 0.0
C461 C 0.00705 0.4158 0.10107 0.0
C462 C 0.009 0.4338 0.13153 0.0
C463 C 0.01469 0.44518 0.26578 0.0
H464 H 0.02727 0.44133 0.29983 0.0
H465 H 0.01668 0.45969 0.24245 0.0
H466 H 0.00201 0.44512 0.30256 0.0
O467 O 0.98874 0.38148 0.31377 0.0
O468 O 0.98758 0.36569 0.20737 0.0
H469 H 0.9901 0.42349 0.0062 0.0
H470 H 0.01149 0.41083 0.98532 0.0
C471 C -0.00047 0.41173 0.02509 0.0
H472 H 0.99122 0.39832 0.02467 0.0
H473 H 0.98155 0.35432 0.05806 0.0
O474 O 0.01408 0.41225 0.39595 0.0
C475 C 0.98069 0.36955 0.27074 0.0
Co476 Co 0.50866 0.39747 0.16627 0.0
Co477 Co 0.50859 0.37559 0.31566 0.0
C478 C 0.47921 0.36794 0.19976 0.0
O479 O 0.48673 0.38011 0.15669 0.0
O480 O 0.486 0.3649 0.26396 0.0
C481 C 0.49306 0.41554 0.04165 0.0
O482 O 0.47693 0.41356 0.07788 0.0
C483 C 0.49487 0.36938 0.46503 0.0
C484 C 0.52069 0.35809 0.51949 0.0
C485 C 0.50247 0.36491 0.53397 0.0
N486 N 0.50833 0.36623 0.41364 0.0
N487 N 0.52351 0.35888 0.44607 0.0
C488 C 0.47531 0.3766 0.44698 0.0
H489 H 0.4704 0.37037 0.39392 0.0
H490 H 0.47566 0.39231 0.43983 0.0
H491 H 0.465 0.37283 0.49125 0.0
C492 C 0.50765 0.43095 0.26642 0.0
N493 N 0.50752 0.41202 0.25374 0.0
N494 N 0.50866 0.40285 0.31715 0.0
C495 C 0.51027 0.41575 0.37215 0.0
C496 C 0.50922 0.4339 0.34205 0.0
C497 C 0.50646 0.44574 0.20694 0.0
H498 H 0.52002 0.44584 0.17529 0.0
H499 H 0.49482 0.44202 0.16801 0.0
H500 H 0.50381 0.46015 0.2301 0.0
O501 O 0.53247 0.38219 0.16265 0.0
O502 O 0.53211 0.36622 0.26863 0.0
H503 H 0.52478 0.39819 0.45192 0.0
H504 H 0.52401 0.4231 0.47523 0.0
C505 C 0.51583 0.41118 0.45021 0.0
H506 H 0.50285 0.40902 0.48404 0.0
H507 H 0.53624 0.35571 0.41884 0.0
O508 O 0.50865 0.41296 0.076 0.0
C509 C 0.53996 0.37025 0.20712 0.0
Co510 Co 0.00978 0.591 0.66139 0.0
Co511 Co 0.00845 0.61195 0.81303 0.0
C512 C 0.03936 0.61971 0.70341 0.0
O513 O 0.03186 0.60809 0.65819 0.0
O514 O 0.03215 0.62239 0.76719 0.0
C515 C 0.02726 0.57291 0.53954 0.0
O516 O 0.0429 0.57641 0.5772 0.0
C517 C 0.02004 0.61612 0.96583 0.0
C518 C -0.00594 0.62838 0.01593 0.0
C519 C 0.01155 0.62023 0.03331 0.0
N520 N 0.00777 0.62085 0.91183 0.0
N521 N 0.9926 0.62889 0.94183 0.0
C522 C 0.03823 0.60544 0.95252 0.0
H523 H 0.03875 0.59984 0.89513 0.0
H524 H 0.03991 0.59357 -0.00743 0.0
H525 H 0.05041 0.61534 0.96053 0.0
C526 C 0.00869 0.55694 0.75743 0.0
N527 N 0.00938 0.57595 0.7475 0.0
N528 N 0.00709 0.58459 0.81153 0.0
C529 C 0.00378 0.57122 0.86386 0.0
C530 C 0.00509 0.5533 0.83149 0.0
C531 C 0.01029 0.5427 0.69613 0.0
H532 H -0.0005 0.54597 0.65306 0.0
H533 H 0.02458 0.54394 0.67015 0.0
H534 H 0.00813 0.5279 0.71624 0.0
O535 O 0.98625 0.60664 0.65496 0.0
O536 O 0.98593 0.62234 0.76167 0.0
H537 H 0.991 0.58913 0.94669 0.0
H538 H 0.98928 0.56424 0.96635 0.0
C539 C -0.00138 0.57537 0.94269 0.0
H540 H 0.01171 0.57572 0.97683 0.0
H541 H 0.98056 0.63315 0.91216 0.0
O542 O 0.01119 0.57585 0.56998 0.0
C543 C 0.97863 0.61866 0.6988 0.0
H544 H 0.13779 0.19134 0.31433 0.0
H545 H 0.06084 0.13957 0.18604 0.0
H546 H 0.107 0.19116 0.52139 0.0
H547 H 0.05252 0.12181 0.41257 0.0
H548 H 0.08739 0.1594 0.22526 0.0
H549 H 0.11704 0.16598 0.26929 0.0
C550 C 0.12669 0.18596 0.35042 0.0
C551 C 0.1239 0.19368 0.42126 0.0
C552 C 0.08016 0.1508 0.2663 0.0
C553 C 0.09972 0.16499 0.36915 0.0
C554 C 0.06479 0.13961 0.24399 0.0
C555 C 0.05437 0.12906 0.29616 0.0
C556 C 0.08514 0.15154 0.34151 0.0
C557 C 0.06016 0.12969 0.37047 0.0
C558 C 0.1147 0.17159 0.3243 0.0
C559 C 0.10949 0.18587 0.46596 0.0
N560 N 0.07501 0.14098 0.3911 0.0
N561 N 0.09785 0.17204 0.43892 0.0
H562 H 0.1098 0.79904 0.44304 0.0
H563 H 0.06464 0.85264 0.78779 0.0
H564 H 0.13151 0.79381 0.66578 0.0
H565 H 0.0493 0.86535 0.5617 0.0
H566 H 0.09082 0.8329 0.74316 0.0
H567 H 0.08918 0.82501 0.48387 0.0
C568 C 0.11035 0.80344 0.50045 0.0
C569 C 0.12223 0.79405 0.55131 0.0
C570 C 0.08188 0.84016 0.70322 0.0
C571 C 0.09857 0.82374 0.5984 0.0
C572 C 0.06689 0.85142 0.72867 0.0
C573 C 0.05461 0.86046 0.67834 0.0
C574 C 0.0845 0.8377 0.62683 0.0
C575 C 0.05836 0.85855 0.60244 0.0
C576 C 0.0986 0.81833 0.52365 0.0
C577 C 0.12249 0.80053 0.62475 0.0
N578 N 0.07283 0.84715 0.57894 0.0
N579 N 0.11065 0.81483 0.64627 0.0
H580 H 0.45898 0.86565 0.91731 0.0
H581 H 0.38306 0.78474 0.81556 0.0
H582 H 0.45047 0.84416 0.69578 0.0
H583 H 0.40456 0.7941 0.03656 0.0
H584 H 0.40284 0.81109 0.77139 0.0
H585 H 0.43414 0.84403 0.96164 0.0
C586 C 0.45175 0.85655 0.8778 0.0
C587 C 0.45696 0.85657 0.80278 0.0
C588 C 0.4031 0.80745 0.82962 0.0
C589 C 0.42853 0.83186 0.85329 0.0
C590 C 0.39176 0.79246 0.85499 0.0
C591 C 0.39231 0.78707 0.9298 0.0
C592 C 0.41492 0.81722 0.87947 0.0
C593 C 0.40385 0.79763 0.9783 0.0
C594 C 0.43763 0.84418 0.90326 0.0
C595 C 0.44706 0.84448 0.75419 0.0
N596 N 0.41476 0.81215 0.95222 0.0
N597 N 0.43337 0.83255 0.78036 0.0
H598 H 0.45628 0.14301 0.29939 0.0
H599 H 0.38077 0.19642 0.16601 0.0
H600 H 0.46295 0.1226 0.07546 0.0
H601 H 0.4101 0.19172 0.9566 0.0
H602 H 0.40093 0.17112 0.21542 0.0
H603 H 0.43024 0.16332 0.25861 0.0
C604 C 0.45205 0.14256 0.24176 0.0
C605 C 0.46189 0.13113 0.19071 0.0
C606 C 0.40311 0.17574 0.15893 0.0
C607 C 0.43171 0.15418 0.14358 0.0
C608 C 0.39144 0.19007 0.13036 0.0
C609 C 0.39397 0.19648 0.0574 0.0
C610 C 0.41751 0.16784 0.11437 0.0
C611 C 0.40782 0.18746 0.01349 0.0
C612 C 0.43698 0.15405 0.21857 0.0
C613 C 0.45577 0.13117 0.11675 0.0
N614 N 0.41915 0.17368 0.04284 0.0
N615 N 0.44123 0.14273 0.09522 0.0
H616 H 0.8748 0.80606 0.5741 0.0
H617 H 0.9755 0.82742 0.73653 0.0
H618 H 0.92354 0.77457 0.495 0.0
H619 H 0.94412 0.87474 0.64434 0.0
H620 H 0.95246 0.80537 0.67996 0.0
H621 H 0.89653 0.82988 0.62825 0.0
C622 C 0.89006 0.80436 0.56727 0.0
C623 C 0.89748 0.78854 0.52947 0.0
C624 C 0.95058 0.82061 0.67311 0.0
C625 C 0.92208 0.81495 0.59374 0.0
C626 C 0.96351 0.83315 0.70592 0.0
C627 C 0.96158 0.85285 0.6951 0.0
C628 C 0.93542 0.82792 0.63123 0.0
C629 C 0.94601 0.8596 0.65387 0.0
C630 C 0.90235 0.81783 0.59826 0.0
C631 C 0.91732 0.78675 0.5228 0.0
N632 N 0.93337 0.84712 0.62367 0.0
N633 N 0.929 0.79965 0.55591 0.0
H634 H 0.88538 0.20278 0.30697 0.0
H635 H 0.96014 0.12075 0.40492 0.0
H636 H 0.90595 0.19181 0.52824 0.0
H637 H 0.9548 0.14508 0.1862 0.0
H638 H 0.93526 0.14221 0.44864 0.0
H639 H 0.90583 0.17721 0.26077 0.0
C640 C 0.89402 0.19487 0.34605 0.0
C641 C 0.89407 0.19956 0.42166 0.0
C642 C 0.93945 0.14276 0.391 0.0
C643 C 0.91742 0.17026 0.36884 0.0
C644 C 0.95362 0.13047 0.36575 0.0
C645 C 0.95975 0.13125 0.29175 0.0
C646 C 0.93117 0.15584 0.34194 0.0
C647 C 0.95065 0.1441 0.24376 0.0
C648 C 0.90574 0.18033 0.31945 0.0
C649 C 0.90557 0.18879 0.46952 0.0
N650 N 0.93685 0.15597 0.2698 0.0
N651 N 0.91682 0.17467 0.44225 0.0
H652 H 0.56262 0.14561 0.29895 0.0
H653 H 0.61007 0.19409 0.94694 0.0
H654 H 0.55408 0.12461 0.07669 0.0
H655 H 0.63219 0.20126 0.1683 0.0
H656 H 0.58882 0.16906 -0.00686 0.0
H657 H 0.5877 0.16674 0.25242 0.0
C658 C 0.56611 0.14533 0.24057 0.0
C659 C 0.55614 0.13341 0.19165 0.0
C660 C 0.59848 0.17601 0.03134 0.0
C661 C 0.58462 0.15766 0.13802 0.0
C662 C 0.61058 0.19031 0.00503 0.0
C663 C 0.62284 0.19988 0.05382 0.0
C664 C 0.59847 0.17146 0.10709 0.0
C665 C 0.62294 0.19433 0.12859 0.0
C666 C 0.58044 0.15735 0.21407 0.0
C667 C 0.56132 0.13359 0.1165 0.0
N668 N 0.61079 0.18064 0.15305 0.0
N669 N 0.57505 0.14568 0.09188 0.0
H670 H 0.54965 0.86949 0.90872 0.0
H671 H 0.6292 0.79217 0.80907 0.0
H672 H 0.55695 0.84608 0.68943 0.0
H673 H 0.60787 0.80127 0.03051 0.0
H674 H 0.60747 0.81678 0.76381 0.0
H675 H 0.57573 0.84942 0.95257 0.0
C676 C 0.55685 0.86029 0.86949 0.0
C677 C 0.55095 0.85934 0.79528 0.0
C678 C 0.60766 0.81346 0.82234 0.0
C679 C 0.58086 0.83638 0.84546 0.0
C680 C 0.6201 0.79947 0.84838 0.0
C681 C 0.62022 0.79451 0.92371 0.0
C682 C 0.5954 0.82271 0.87203 0.0
C683 C 0.60813 0.80451 0.97194 0.0
C684 C 0.5717 0.8488 0.89477 0.0
C685 C 0.5609 0.84717 0.74716 0.0
N686 N 0.59616 0.8181 0.94522 0.0
N687 N 0.57534 0.8361 0.77318 0.0
H688 H 0.61187 0.69402 0.04012 0.0
H689 H 0.56493 0.64252 0.6946 0.0
H690 H 0.63181 0.70215 0.81622 0.0
H691 H 0.55658 0.62326 0.91927 0.0
H692 H 0.58991 0.66407 0.73789 0.0
H693 H 0.59196 0.66762 -0.00256 0.0
C694 C 0.61219 0.69015 0.9821 0.0
C695 C 0.62339 0.70043 0.93154 0.0
C696 C 0.58276 0.65497 0.7776 0.0
C697 C 0.60052 0.67035 0.8823 0.0
C698 C 0.56845 0.64271 0.75296 0.0
C699 C 0.55852 0.63119 0.80349 0.0
C700 C 0.587 0.65594 0.85344 0.0
C701 C 0.56381 0.63192 0.87838 0.0
C702 C 0.60086 0.67505 0.95782 0.0
C703 C 0.62335 0.69468 0.85712 0.0
N704 N 0.57753 0.64427 0.90123 0.0
N705 N 0.6119 0.68018 0.83459 0.0
H706 H 0.563 0.34794 0.29361 0.0
H707 H 0.61587 0.30179 0.95028 0.0
H708 H 0.5566 0.36879 0.07009 0.0
H709 H 0.63245 0.29072 0.17635 0.0
H710 H 0.59527 0.32753 -0.0067 0.0
H711 H 0.58958 0.32806 0.25278 0.0
C712 C 0.56729 0.34848 0.23606 0.0
C713 C 0.5574 0.35988 0.18499 0.0
C714 C 0.60358 0.31964 0.03347 0.0
C715 C 0.58773 0.33704 0.13785 0.0
C716 C 0.61531 0.30489 0.00896 0.0
C717 C 0.62572 0.29394 0.05991 0.0
C718 C 0.60201 0.3233 0.10958 0.0
C719 C 0.6246 0.29874 0.13518 0.0
C720 C 0.58251 0.33716 0.21285 0.0
C721 C 0.56373 0.36014 0.11131 0.0
N722 N 0.61272 0.3129 0.15787 0.0
N723 N 0.57833 0.34869 0.08976 0.0
H724 H 0.95568 0.34869 0.18755 0.0
H725 H 0.90783 0.29906 0.53512 0.0
H726 H 0.96693 0.36643 0.41215 0.0
H727 H 0.88629 0.29275 0.31258 0.0
H728 H 0.92892 0.32446 0.49195 0.0
H729 H 0.92955 0.3288 0.23234 0.0
C730 C 0.95256 0.34852 0.24626 0.0
C731 C 0.96363 0.35908 0.29629 0.0
C732 C 0.91942 0.31766 0.45276 0.0
C733 C 0.93383 0.33622 0.34797 0.0
C734 C 0.90741 0.30312 0.47731 0.0
C735 C 0.89542 0.29362 0.42722 0.0
C736 C 0.91963 0.32257 0.37744 0.0
C737 C 0.89536 0.29961 0.35309 0.0
C738 C 0.93759 0.3372 0.27176 0.0
C739 C 0.95881 0.35846 0.37165 0.0
N740 N 0.90747 0.31354 0.33026 0.0
N741 N 0.94442 0.347 0.39534 0.0
H742 H 0.88705 0.70061 0.66737 0.0
H743 H 0.96188 0.6189 0.56179 0.0
H744 H 0.90256 0.68585 0.4433 0.0
H745 H 0.9563 0.64268 0.78123 0.0
H746 H 0.93546 0.63896 0.52066 0.0
H747 H 0.90768 0.67496 0.71252 0.0
C748 C 0.89458 0.69183 0.62764 0.0
C749 C 0.89328 0.69554 0.55149 0.0
C750 C 0.93994 0.63967 0.57794 0.0
C751 C 0.91686 0.66626 0.60274 0.0
C752 C 0.955 0.62819 0.60154 0.0
C753 C 0.9615 0.6293 0.67486 0.0
C754 C 0.93126 0.65228 0.62803 0.0
C755 C 0.95193 0.64153 0.72395 0.0
C756 C 0.9064 0.67725 0.65346 0.0
C757 C 0.90333 0.68368 0.50253 0.0
N758 N 0.93737 0.65264 0.69951 0.0
N759 N 0.91479 0.66965 0.52903 0.0
H760 H 0.41005 0.29398 0.93042 0.0
H761 H 0.45488 0.34554 0.28048 0.0
H762 H 0.38512 0.29102 0.14875 0.0
H763 H 0.46687 0.36381 0.05704 0.0
H764 H 0.42981 0.32466 0.23282 0.0
H765 H 0.43156 0.31908 0.97461 0.0
C766 C 0.40896 0.29871 0.9873 0.0
C767 C 0.39586 0.29025 0.03602 0.0
C768 C 0.43782 0.33337 0.19431 0.0
C769 C 0.42051 0.31872 0.08698 0.0
C770 C 0.45217 0.34524 0.22148 0.0
C771 C 0.46305 0.35635 0.17268 0.0
C772 C 0.43453 0.33238 0.11771 0.0
C773 C 0.45884 0.35547 0.09671 0.0
C774 C 0.42121 0.31304 0.01245 0.0
C775 C 0.39504 0.29702 0.10917 0.0
N776 N 0.44505 0.34352 0.07145 0.0
N777 N 0.40734 0.31067 0.13257 0.0
H778 H 0.38554 0.69479 0.81512 0.0
H779 H 0.46615 0.61859 0.9152 0.0
H780 H 0.40782 0.68686 0.03583 0.0
H781 H 0.45783 0.64106 0.69493 0.0
H782 H 0.44003 0.63857 0.95926 0.0
H783 H 0.40725 0.67011 0.77031 0.0
C784 C 0.39483 0.68771 0.8544 0.0
C785 C 0.395 0.69303 0.92934 0.0
C786 C 0.44384 0.63901 0.90121 0.0
C787 C 0.4198 0.66477 0.87817 0.0
C788 C 0.45871 0.62756 0.87582 0.0
C789 C 0.46434 0.62828 0.80124 0.0
C790 C 0.43438 0.65114 0.85165 0.0
C791 C 0.4541 0.64016 0.75294 0.0
C792 C 0.40726 0.67369 0.8286 0.0
C793 C 0.40734 0.68334 0.97754 0.0
N794 N 0.43964 0.65119 0.77907 0.0
N795 N 0.4193 0.6697 0.95106 0.0
H796 H 0.13129 0.70141 0.66527 0.0
H797 H 0.05424 0.62186 0.56388 0.0
H798 H 0.10939 0.69315 0.44413 0.0
H799 H 0.06172 0.6442 0.78476 0.0
H800 H 0.07907 0.64341 0.51976 0.0
H801 H 0.11048 0.67596 0.7093 0.0
C802 C 0.12225 0.69414 0.62568 0.0
C803 C 0.12197 0.69957 0.5508 0.0
C804 C 0.07535 0.6435 0.57793 0.0
C805 C 0.09815 0.67035 0.60131 0.0
C806 C 0.06123 0.63115 0.60339 0.0
C807 C 0.05574 0.63133 0.67822 0.0
C808 C 0.08424 0.656 0.62763 0.0
C809 C 0.06537 0.64367 0.7266 0.0
C810 C 0.11032 0.67965 0.6511 0.0
C811 C 0.10997 0.68955 0.50233 0.0
N812 N 0.07913 0.65556 0.7004 0.0
N813 N 0.09849 0.67544 0.5285 0.0
H814 H 0.1325 0.28478 0.30278 0.0
H815 H 0.05705 0.36611 0.40096 0.0
H816 H 0.11149 0.29496 0.52398 0.0
H817 H 0.06277 0.34205 0.18201 0.0
H818 H 0.08182 0.34454 0.44506 0.0
H819 H 0.11175 0.31015 0.25696 0.0
C820 C 0.12368 0.29247 0.34193 0.0
C821 C 0.12362 0.28763 0.41741 0.0
C822 C 0.07773 0.34407 0.3873 0.0
C823 C 0.09993 0.3167 0.36501 0.0
C824 C 0.06363 0.35643 0.36183 0.0
C825 C 0.05767 0.35578 0.28762 0.0
C826 C 0.0861 0.33107 0.3382 0.0
C827 C 0.06681 0.34295 0.23972 0.0
C828 C 0.11179 0.30689 0.31554 0.0
C829 C 0.11189 0.29811 0.46535 0.0
N830 N 0.08055 0.33104 0.26592 0.0
N831 N 0.10047 0.31215 0.43829 0.0
H832 H 0.04117 0.03455 0.08741 0.0
H833 H 0.97803 0.95614 0.87783 0.0
H834 H 0.98009 0.0307 0.10729 0.0
H835 H 0.03933 0.9537 0.88908 0.0
H836 H 0.97852 0.98503 0.95436 0.0
H837 H 0.04103 0.00576 0.01004 0.0
C838 C 0.02778 0.02741 0.07598 0.0
C839 C 0.01063 0.03474 0.10338 0.0
C840 C 0.99189 0.97825 0.93991 0.0
C841 C 0.01021 0.00228 0.01457 0.0
C842 C 0.99159 0.96193 0.89586 0.0
C843 C 0.00866 0.95276 0.8777 0.0
C844 C 0.00943 0.98539 0.9655 0.0
C845 C 0.02591 0.96052 0.90238 0.0
C846 C 0.02766 0.0111 0.03175 0.0
C847 C 0.99359 0.02526 0.08719 0.0
N848 N 0.02587 0.97642 0.94532 0.0
N849 N 0.99377 0.00953 0.04334 0.0
H850 H 0.28854 0.76572 0.07598 0.0
H851 H 0.22457 0.72135 0.39778 0.0
H852 H 0.30752 0.71923 0.21358 0.0
H853 H 0.21645 0.77852 0.3159 0.0
H854 H 0.25376 0.71881 0.32379 0.0
H855 H 0.25992 0.76881 0.15369 0.0
C856 C 0.28649 0.75604 0.12207 0.0
C857 C 0.30017 0.74214 0.13858 0.0
C858 C 0.24562 0.73193 0.32214 0.0
C859 C 0.26789 0.74563 0.22749 0.0
C860 C 0.22907 0.7334 0.36452 0.0
C861 C 0.21804 0.75002 0.36153 0.0
C862 C 0.251 0.74716 0.2761 0.0
C863 C 0.22436 0.76527 0.3178 0.0
C864 C 0.27034 0.75791 0.1667 0.0
C865 C 0.29717 0.7301 0.19934 0.0
N866 N 0.24036 0.76342 0.27603 0.0
N867 N 0.2813 0.73207 0.24157 0.0
H868 H 0.52851 0.04541 0.46649 0.0
H869 H 0.47241 0.9481 0.54123 0.0
H870 H 0.48432 0.02456 0.32184 0.0
H871 H 0.52592 0.96212 0.64508 0.0
H872 H 0.47443 0.97758 0.46836 0.0
H873 H 0.52598 0.01624 0.53997 0.0
C874 C 0.51835 0.03455 0.45013 0.0
C875 C 0.50668 0.03719 0.3881 0.0
C876 C 0.48572 0.97421 0.50711 0.0
C877 C 0.50352 0.00398 0.47199 0.0
C878 C 0.48455 0.95747 0.5486 0.0
C879 C 0.49916 0.95271 0.59817 0.0
C880 C 0.50149 0.98633 0.51625 0.0
C881 C 0.51441 0.96537 0.60718 0.0
C882 C 0.51691 0.01794 0.49194 0.0
C883 C 0.49371 0.02284 0.36892 0.0
N884 N 0.51522 0.98162 0.5664 0.0
N885 N 0.49239 0.00681 0.41107 0.0
H886 H 0.29459 0.20887 0.86808 0.0
H887 H 0.22507 0.26728 0.59802 0.0
H888 H 0.30071 0.26879 0.82147 0.0
H889 H 0.21563 0.20862 0.65879 0.0
H890 H 0.25384 0.26766 0.67508 0.0
H891 H 0.26598 0.20805 0.78957 0.0
C892 C 0.28963 0.22188 0.84206 0.0
C893 C 0.29961 0.23897 0.8514 0.0
C894 C 0.24555 0.25466 0.67147 0.0
C895 C 0.26746 0.23818 0.76101 0.0
C896 C 0.22926 0.25444 0.6272 0.0
C897 C 0.21811 0.23794 0.6229 0.0
C898 C 0.25066 0.2382 0.71133 0.0
C899 C 0.22392 0.22164 0.66153 0.0
C900 C 0.27346 0.22143 0.79702 0.0
C901 C 0.29309 0.25543 0.81581 0.0
N902 N 0.2398 0.22218 0.70451 0.0
N903 N 0.2774 0.25464 0.77196 0.0
H904 H 0.73254 0.27012 0.91984 0.0
H905 H 0.79033 0.22383 0.58348 0.0
H906 H 0.70932 0.22647 0.7782 0.0
H907 H 0.80552 0.27784 0.68076 0.0
H908 H 0.76149 0.22313 0.6601 0.0
H909 H 0.76115 0.27131 0.8411 0.0
C910 C 0.73364 0.26066 0.87267 0.0
C911 C 0.71876 0.24814 0.8552 0.0
C912 C 0.77108 0.23519 0.6645 0.0
C913 C 0.75099 0.2495 0.76507 0.0
C914 C 0.78742 0.23561 0.62058 0.0
C915 C 0.80028 0.25079 0.62688 0.0
C916 C 0.76772 0.25 0.71527 0.0
C917 C 0.79601 0.26574 0.67557 0.0
C918 C 0.74979 0.26145 0.82745 0.0
C919 C 0.72058 0.23633 0.7931 0.0
N920 N 0.78016 0.2649 0.71863 0.0
N921 N 0.73642 0.23726 0.75028 0.0
H922 H 0.70929 0.77204 0.19852 0.0
H923 H 0.8001 0.71015 0.31141 0.0
H924 H 0.7274 0.72283 0.07417 0.0
H925 H 0.79337 0.769 0.37512 0.0
H926 H 0.77111 0.71259 0.23594 0.0
H927 H 0.73809 0.76953 0.27467 0.0
C928 C 0.71951 0.76083 0.18701 0.0
C929 C 0.71624 0.74773 0.12995 0.0
C930 C 0.776 0.72496 0.26639 0.0
C931 C 0.74882 0.7445 0.21723 0.0
C932 C 0.79249 0.72358 0.30921 0.0
C933 C 0.7992 0.73953 0.34794 0.0
C934 C 0.76604 0.74233 0.26361 0.0
C935 C 0.78859 0.75643 0.34561 0.0
C936 C 0.73586 0.75937 0.23037 0.0
C937 C 0.72967 0.73333 0.11723 0.0
N938 N 0.77251 0.75743 0.3039 0.0
N939 N 0.74539 0.73199 0.16101 0.0
H940 H 0.48885 0.52547 0.65162 0.0
H941 H 0.53309 0.46426 0.31978 0.0
H942 H 0.54242 0.53914 0.54753 0.0
H943 H 0.48746 0.44411 0.45918 0.0
H944 H 0.53539 0.49313 0.3963 0.0
H945 H 0.48715 0.4962 0.57782 0.0
C946 C 0.50033 0.52214 0.61361 0.0
C947 C 0.51568 0.53468 0.60468 0.0
C948 C 0.52485 0.4824 0.41003 0.0
C949 C 0.51376 0.50158 0.51952 0.0
C950 C 0.52343 0.46609 0.36602 0.0
C951 C 0.51001 0.452 0.38333 0.0
C952 C 0.51266 0.48457 0.47125 0.0
C953 C 0.498 0.45474 0.44436 0.0
C954 C 0.49933 0.50554 0.57129 0.0
C955 C 0.53021 0.52987 0.55484 0.0
N956 N 0.49957 0.47074 0.48612 0.0
N957 N 0.52883 0.51376 0.5135 0.0
H958 H 0.03358 0.52723 0.83572 0.0
H959 H 0.98598 0.46478 0.15466 0.0
H960 H 0.97626 0.53722 0.91254 0.0
H961 H 0.03086 0.44344 0.01437 0.0
H962 H 0.98434 0.49374 0.07779 0.0
H963 H 0.03469 0.49791 0.90963 0.0
C964 C 0.0212 0.52312 0.86791 0.0
C965 C 0.00495 0.5347 0.86949 0.0
C966 C -0.00544 0.48271 0.06405 0.0
C967 C 0.00618 0.50161 0.95479 0.0
C968 C -0.0044 0.46637 0.10816 0.0
C969 C 0.00863 0.45194 0.09058 0.0
C970 C 0.00682 0.48458 0.00289 0.0
C971 C 0.02065 0.45436 0.02939 0.0
C972 C 0.02185 0.50651 0.91021 0.0
C973 C 0.98925 0.52888 0.91181 0.0
N974 N 0.01952 0.47043 0.98781 0.0
N975 N 0.99031 0.5128 0.9536 0.0
H976 H 0.03032 0.09937 0.85472 0.0
H977 H 0.95816 0.08177 0.52362 0.0
H978 H 0.97127 0.1165 0.86297 0.0
H979 H 0.01659 0.06236 0.52654 0.0
H980 H 0.96074 0.08972 0.65483 0.0
H981 H 0.02412 0.08231 0.74022 0.0
C982 C 0.01604 0.09967 0.83182 0.0
C983 C 0.00132 0.10958 0.86748 0.0
C984 C 0.97286 0.08334 0.62714 0.0
C985 C 0.99401 0.08984 0.73659 0.0
C986 C 0.97135 0.07862 0.55234 0.0
C987 C 0.98735 0.07181 0.51382 0.0
C988 C 0.99048 0.08123 0.66312 0.0
C989 C 0.00403 0.06795 0.55385 0.0
C990 C 0.01244 0.08972 0.76689 0.0
C991 C 0.98299 0.10909 0.83667 0.0
N992 N 0.00527 0.07304 0.62601 0.0
N993 N 0.97986 0.09951 0.77234 0.0
H994 H 0.15324 0.76954 0.11446 0.0
H995 H 0.1711 0.69874 0.77899 0.0
H996 H 0.13553 0.71062 0.11788 0.0
H997 H 0.18976 0.75741 0.78482 0.0
H998 H 0.16311 0.70077 0.91036 0.0
H999 H 0.17048 0.76376 0.0001 0.0
C1000 C 0.15284 0.75538 0.09049 0.0
C1001 C 0.14268 0.7406 0.12464 0.0
C1002 C 0.16934 0.71306 0.88326 0.0
C1003 C 0.16262 0.73376 -0.00617 0.0
C1004 C 0.17409 0.71187 0.80838 0.0
C1005 C 0.1807 0.72809 0.77067 0.0
C1006 C 0.17126 0.73058 0.92015 0.0
C1007 C 0.18433 0.74468 0.81151 0.0
C1008 C 0.16289 0.75202 0.02562 0.0
C1009 C 0.14309 0.7224 0.09258 0.0
N1010 N 0.17924 0.7456 0.88375 0.0
N1011 N 0.15277 0.71951 0.02827 0.0
H1012 H 0.48688 0.91105 0.02345 0.0
H1013 H 0.53304 0.89283 0.40638 0.0
H1014 H 0.54837 0.91493 0.03382 0.0
H1015 H 0.49363 0.85261 0.3089 0.0
H1016 H 0.53767 0.9073 0.28532 0.0
H1017 H 0.48668 0.89812 0.14847 0.0
C1018 C 0.50032 0.90965 0.05248 0.0
C1019 C 0.51773 0.91367 0.01737 0.0
C1020 C 0.52836 0.89504 0.29069 0.0
C1021 C 0.51742 0.89895 0.16021 0.0
C1022 C 0.52592 0.88644 0.35965 0.0
C1023 C 0.51315 0.87108 0.36813 0.0
C1024 C 0.51744 0.8887 0.2309 0.0
C1025 C 0.50362 0.86435 0.3051 0.0
C1026 C 0.50015 0.90208 0.12344 0.0
C1027 C 0.53465 0.91177 0.05849 0.0
N1028 N 0.50567 0.87343 0.23938 0.0
N1029 N 0.53412 0.90435 0.12803 0.0
H1030 H 0.34725 0.29191 0.27633 0.0
H1031 H 0.36418 0.218 0.60278 0.0
H1032 H 0.32706 0.23373 0.27543 0.0
H1033 H 0.38195 0.27684 0.61462 0.0
H1034 H 0.34744 0.22482 0.48802 0.0
H1035 H 0.35548 0.28853 0.40701 0.0
C1036 C 0.344 0.27861 0.30411 0.0
C1037 C 0.33687 0.26291 0.26459 0.0
C1038 C 0.35491 0.23631 0.51558 0.0
C1039 C 0.34662 0.25886 0.4133 0.0
C1040 C 0.36469 0.23236 0.58065 0.0
C1041 C 0.37463 0.24685 0.61755 0.0
C1042 C 0.35524 0.25487 0.48643 0.0
C1043 C 0.37445 0.26529 0.58755 0.0
C1044 C 0.34889 0.27664 0.3786 0.0
C1045 C 0.33289 0.24607 0.30348 0.0
N1046 N 0.36501 0.26877 0.52318 0.0
N1047 N 0.33815 0.24438 0.37535 0.0
H1048 H 0.95639 0.90345 0.45472 0.0
H1049 H 0.03099 0.88925 0.12903 0.0
H1050 H 0.01397 0.92526 0.45692 0.0
H1051 H 0.97282 0.86947 0.11664 0.0
H1052 H 0.0235 0.90588 0.2434 0.0
H1053 H 0.96004 0.89571 0.32369 0.0
C1054 C 0.9696 0.90716 0.42717 0.0
C1055 C 0.98509 0.91458 0.46713 0.0
C1056 C 0.01229 0.89799 0.2158 0.0
C1057 C 0.98945 0.90542 0.31803 0.0
C1058 C 0.01663 0.88828 0.15096 0.0
C1059 C 0.00254 0.87778 0.1141 0.0
C1060 C 0.99374 0.89702 0.24478 0.0
C1061 C 0.98407 0.87739 0.14375 0.0
C1062 C 0.97173 0.90256 0.35248 0.0
C1063 C 0.00181 0.91917 0.42852 0.0
N1064 N 0.98022 0.88675 0.20795 0.0
N1065 N 0.00367 0.91419 0.35644 0.0
H1066 H 0.34126 0.75497 0.7092 0.0
H1067 H 0.35654 0.70943 0.32314 0.0
H1068 H 0.33533 0.69368 0.69559 0.0
H1069 H 0.39878 0.74673 0.42062 0.0
H1070 H 0.34211 0.70528 0.44413 0.0
H1071 H 0.35368 0.75525 0.58338 0.0
C1072 C 0.34209 0.7416 0.67931 0.0
C1073 C 0.33763 0.72419 0.71366 0.0
C1074 C 0.35476 0.71405 0.43867 0.0
C1075 C 0.35176 0.7246 0.56992 0.0
C1076 C 0.36335 0.71622 0.36958 0.0
C1077 C 0.37932 0.72824 0.361 0.0
C1078 C 0.36172 0.72449 0.49865 0.0
C1079 C 0.38654 0.73735 0.42422 0.0
C1080 C 0.34937 0.74181 0.60789 0.0
C1081 C 0.33884 0.70738 0.6715 0.0
N1082 N 0.37749 0.73557 0.49012 0.0
N1083 N 0.34597 0.70795 0.60154 0.0
H1084 H 0.54669 0.11863 0.61923 0.0
H1085 H 0.49939 0.06369 0.95989 0.0
H1086 H 0.48732 0.10303 0.63572 0.0
H1087 H 0.55729 0.08463 0.96241 0.0
H1088 H 0.49728 0.07165 0.8289 0.0
H1089 H 0.55288 0.1014 0.73527 0.0
C1090 C 0.53501 0.11156 0.64727 0.0
C1091 C 0.51645 0.11241 0.61861 0.0
C1092 C 0.51057 0.07423 0.85773 0.0
C1093 C 0.52337 0.09258 0.74983 0.0
C1094 C 0.51182 0.06954 0.93239 0.0
C1095 C 0.52837 0.07391 0.97236 0.0
C1096 C 0.52591 0.08355 0.82313 0.0
C1097 C 0.54415 0.08124 0.93381 0.0
C1098 C 0.53853 0.10169 0.71311 0.0
C1099 C 0.50178 0.10305 0.65676 0.0
N1100 N 0.5424 0.08624 0.86151 0.0
N1101 N 0.50555 0.09356 0.72035 0.0
H1102 H 0.11582 0.23524 0.90814 0.0
H1103 H 0.18354 0.28657 0.18672 0.0
H1104 H 0.16071 0.27009 0.81523 0.0
H1105 H 0.17297 0.22586 0.19649 0.0
H1106 H 0.17078 0.28686 0.0598 0.0
H1107 H 0.13058 0.23885 0.02982 0.0
C1108 C 0.12842 0.2441 0.91339 0.0
C1109 C 0.13685 0.25248 0.85097 0.0
C1110 C 0.17158 0.27353 0.08998 0.0
C1111 C 0.15369 0.2566 -0.01033 0.0
C1112 C 0.17895 0.27328 0.16185 0.0
C1113 C 0.17909 0.25622 0.2027 0.0
C1114 C 0.16395 0.25672 0.06034 0.0
C1115 C 0.17298 0.23941 0.16767 0.0
C1116 C 0.13686 0.24601 0.98258 0.0
C1117 C 0.15327 0.26376 0.8613 0.0
N1118 N 0.16525 0.24017 0.09912 0.0
N1119 N 0.16123 0.26546 0.92954 0.0
H1120 H 0.84258 0.26303 0.19913 0.0
H1121 H 0.85909 0.21568 0.81726 0.0
H1122 H 0.83662 0.20168 0.1909 0.0
H1123 H 0.90074 0.25367 0.91422 0.0
H1124 H 0.84448 0.21169 0.93848 0.0
H1125 H 0.85547 0.26251 0.07404 0.0
C1126 C 0.84352 0.24948 0.17056 0.0
C1127 C 0.8389 0.23229 0.20629 0.0
C1128 C 0.85706 0.22054 0.93294 0.0
C1129 C 0.85359 0.23178 0.06332 0.0
C1130 C 0.86573 0.22262 0.86386 0.0
C1131 C 0.88151 0.23484 0.85514 0.0
C1132 C 0.86382 0.23127 -0.00741 0.0
C1133 C 0.88864 0.24412 0.91813 0.0
C1134 C 0.85106 0.24923 0.09955 0.0
C1135 C 0.84024 0.21522 0.16575 0.0
N1136 N 0.87951 0.24244 0.98391 0.0
N1137 N 0.84765 0.21534 0.09615 0.0
H1138 H 0.68187 0.79582 0.6984 0.0
H1139 H 0.66016 0.77991 0.31666 0.0
H1140 H 0.67277 0.73483 0.69979 0.0
H1141 H 0.61743 0.74395 0.41828 0.0
H1142 H 0.67462 0.78482 0.4372 0.0
H1143 H 0.67033 0.79681 0.57002 0.0
C1144 C 0.67793 0.78261 0.67132 0.0
C1145 C 0.67806 0.76525 0.71024 0.0
C1146 C 0.6618 0.77627 0.43291 0.0
C1147 C 0.66448 0.76645 0.56561 0.0
C1148 C 0.65323 0.77363 0.36401 0.0
C1149 C 0.63714 0.76174 0.35678 0.0
C1150 C 0.65456 0.76652 0.49427 0.0
C1151 C 0.62973 0.75325 0.42097 0.0
C1152 C 0.67128 0.78324 0.59846 0.0
C1153 C 0.67277 0.74857 0.67243 0.0
N1154 N 0.63873 0.7555 0.48677 0.0
N1155 N 0.66573 0.74967 0.60281 0.0
H1156 H 0.65381 0.27044 0.61526 0.0
H1157 H 0.67258 0.19798 0.28547 0.0
H1158 H 0.6371 0.21126 0.62394 0.0
H1159 H 0.69111 0.25672 0.28703 0.0
H1160 H 0.66415 0.20077 0.41617 0.0
H1161 H 0.67079 0.26434 0.50049 0.0
C1162 C 0.65358 0.25615 0.59242 0.0
C1163 C 0.64383 0.24137 0.62838 0.0
C1164 C 0.67042 0.21293 0.38827 0.0
C1165 C 0.66349 0.23417 0.49711 0.0
C1166 C 0.67541 0.2113 0.31376 0.0
C1167 C 0.68216 0.2273 0.27491 0.0
C1168 C 0.6722 0.23065 0.42375 0.0
C1169 C 0.6856 0.24414 0.3145 0.0
C1170 C 0.66349 0.25261 0.52731 0.0
C1171 C 0.6444 0.22304 0.59753 0.0
N1172 N 0.68027 0.24547 0.38641 0.0
N1173 N 0.65396 0.21996 0.53307 0.0
H1174 H 0.86408 0.71754 0.0974 0.0
H1175 H 0.84809 0.792 0.7719 0.0
H1176 H 0.88305 0.776 0.10929 0.0
H1177 H 0.82735 0.73401 0.77001 0.0
H1178 H 0.85637 0.78837 0.90246 0.0
H1179 H 0.8474 0.72472 0.98286 0.0
C1180 C 0.86487 0.73189 0.07532 0.0
C1181 C 0.87513 0.74617 0.11217 0.0
C1182 C 0.84965 0.77658 0.87385 0.0
C1183 C 0.85582 0.75461 0.98126 0.0
C1184 C 0.84474 0.77869 0.79944 0.0
C1185 C 0.83743 0.76311 0.75967 0.0
C1186 C 0.84722 0.75878 0.90823 0.0
C1187 C 0.83332 0.74626 0.79826 0.0
C1188 C 0.85513 0.73606 0.01036 0.0
C1189 C 0.87531 0.76461 0.08222 0.0
N1190 N 0.83859 0.74443 0.87006 0.0
N1191 N 0.86589 0.7683 0.01796 0.0
H1192 H 0.48166 0.5941 0.41142 0.0
H1193 H 0.52831 0.57555 0.03014 0.0
H1194 H 0.52068 0.63456 0.31296 0.0
H1195 H 0.46674 0.57256 0.03667 0.0
H1196 H 0.52818 0.58821 0.15561 0.0
H1197 H 0.47717 0.57941 0.2906 0.0
C1198 C 0.48872 0.60048 0.36452 0.0
C1199 C 0.50136 0.61597 0.37264 0.0
C1200 C 0.51476 0.58447 0.12965 0.0
C1201 C 0.49722 0.59814 0.23582 0.0
C1202 C 0.51477 0.57707 0.05843 0.0
C1203 C 0.49745 0.57344 0.02208 0.0
C1204 C 0.49738 0.58781 0.16538 0.0
C1205 C 0.48039 0.57544 0.06229 0.0
C1206 C 0.48636 0.59177 0.29573 0.0
C1207 C 0.5108 0.62272 0.30944 0.0
N1208 N 0.48074 0.58272 0.13205 0.0
N1209 N 0.50883 0.61353 0.24393 0.0
H1210 H 0.98673 0.38643 0.84874 0.0
H1211 H 0.05963 0.40499 0.52003 0.0
H1212 H 0.04584 0.36958 0.85854 0.0
H1213 H 0.00108 0.42409 0.52123 0.0
H1214 H 0.0566 0.39633 0.65043 0.0
H1215 H 0.99299 0.40325 0.73372 0.0
C1216 C 0.00104 0.38613 0.82611 0.0
C1217 C 0.01576 0.37642 0.86254 0.0
C1218 C 0.04455 0.40277 0.62254 0.0
C1219 C 0.02314 0.39591 0.731 0.0
C1220 C 0.0463 0.4079 0.5482 0.0
C1221 C 0.03043 0.41489 0.50931 0.0
C1222 C 0.02681 0.40466 0.6578 0.0
C1223 C 0.01357 0.41841 0.54873 0.0
C1224 C 0.00467 0.39595 0.76085 0.0
C1225 C 0.03412 0.37688 0.83185 0.0
N1226 N 0.01211 0.41294 0.62046 0.0
N1227 N 0.03728 0.38637 0.7673 0.0
H1228 H 0.51308 0.34981 0.66558 0.0
H1229 H 0.4628 0.41783 0.94517 0.0
H1230 H 0.47899 0.3953 0.57285 0.0
H1231 H 0.52342 0.40679 0.95376 0.0
H1232 H 0.46229 0.40526 0.81799 0.0
H1233 H 0.50967 0.36456 0.78729 0.0
C1234 C 0.50444 0.36255 0.67082 0.0
C1235 C 0.49626 0.37117 0.60839 0.0
C1236 C 0.47566 0.40592 0.84796 0.0
C1237 C 0.49233 0.38799 0.7472 0.0
C1238 C 0.47602 0.41318 0.91998 0.0
C1239 C 0.49313 0.41313 0.96055 0.0
C1240 C 0.49238 0.3982 0.81792 0.0
C1241 C 0.50986 0.40696 0.92514 0.0
C1242 C 0.50264 0.37098 0.74006 0.0
C1243 C 0.48521 0.38775 0.61882 0.0
N1244 N 0.50897 0.39932 0.85644 0.0
N1245 N 0.48361 0.39569 0.68711 0.0
H1246 H -0.00093 0.56177 0.44516 0.0
H1247 H 0.04602 0.61757 0.10565 0.0
H1248 H 0.05676 0.58326 0.44874 0.0
H1249 H 0.98681 0.60131 0.12138 0.0
H1250 H 0.05229 0.60042 0.22188 0.0
H1251 H -0.00307 0.56999 0.31442 0.0
C1252 C 0.01145 0.56779 0.41791 0.0
C1253 C 0.02795 0.57221 0.45812 0.0
C1254 C 0.03796 0.60057 0.19952 0.0
C1255 C 0.02545 0.58218 0.30918 0.0
C1256 C 0.03439 0.61039 0.1336 0.0
C1257 C 0.01586 0.61101 0.10465 0.0
C1258 C 0.02288 0.59127 0.236 0.0
C1259 C 0.00125 0.6015 0.14263 0.0
C1260 C 0.01018 0.57264 0.34341 0.0
C1261 C 0.04367 0.57979 0.41992 0.0
N1262 N 0.00507 0.59205 0.20627 0.0
N1263 N 0.0419 0.58494 0.34776 0.0
loop_
_geom_bond_atom_site_label_1
_geom_bond_atom_site_label_2
_geom_bond_distance
_geom_bond_site_symmetry_2
_ccdc_geom_bond_type
Co0 O3 1.970 1_455 S
Co0 N17 1.989 . S
Co0 O25 1.967 . S
Co0 O32 1.920 . S
Co1 O4 1.961 1_455 S
Co1 N10 2.022 . S
Co1 N18 1.993 . S
Co1 O26 1.941 . S
C2 O3 1.258 . S
C2 O4 1.267 . S
O3 Co0 1.970 1_655 S
O3 C2 1.258 . S
O4 Co1 1.961 1_655 S
O4 C2 1.267 . S
C5 O6 1.235 1_455 S
C5 O32 1.289 . S
O6 C5 1.235 1_655 S
C7 C9 1.400 . S
C7 N10 1.351 1_556 S
C7 C12 1.501 1_456 S
C8 C9 1.387 . S
C8 N11 1.341 . S
C9 C7 1.400 . S
C9 C8 1.387 . S
N10 Co1 2.022 . S
N10 C7 1.351 1_554 S
N10 N11 1.365 1_554 S
N11 C8 1.341 . S
N11 N10 1.365 1_556 S
N11 H31 0.862 1_556 S
C12 C7 1.501 1_654 S
C12 H13 0.961 . S
C12 H14 0.961 . S
C12 H15 0.960 . S
H13 C12 0.961 . S
H14 C12 0.961 . S
H15 C12 0.960 . S
C16 N17 1.342 . S
C16 C20 1.401 . S
C16 C21 1.499 . S
N17 Co0 1.989 . S
N17 C16 1.342 . S
N17 N18 1.388 . S
N18 Co1 1.993 . S
N18 N17 1.388 . S
N18 C19 1.346 . S
C19 N18 1.346 . S
C19 C20 1.396 . S
C19 C29 1.510 . S
C20 C16 1.401 . S
C20 C19 1.396 . S
C21 C16 1.499 . S
C21 H22 0.959 . S
C21 H23 0.960 . S
C21 H24 0.961 . S
H22 C21 0.959 . S
H23 C21 0.960 . S
H24 C21 0.961 . S
O25 Co0 1.967 . S
O25 C33 1.258 . S
O26 Co1 1.941 . S
O26 C33 1.266 . S
H27 C29 0.959 . S
H28 C29 0.961 . S
C29 C19 1.510 . S
C29 H27 0.959 . S
C29 H28 0.961 . S
C29 H30 0.960 . S
H30 C29 0.960 . S
H31 N11 0.862 1_554 S
O32 Co0 1.920 . S
O32 C5 1.289 . S
C33 O25 1.258 . S
C33 O26 1.266 . S
Co34 O37 1.970 . S
Co34 N51 1.989 . S
Co34 O59 1.967 . S
Co34 O66 1.920 . S
Co35 O38 1.966 . S
Co35 N44 2.022 . S
Co35 N52 1.993 . S
Co35 O60 1.941 . S
C36 O37 1.258 . S
C36 O38 1.263 . S
O37 Co34 1.970 . S
O37 C36 1.258 . S
O38 Co35 1.966 . S
O38 C36 1.263 . S
C39 O40 1.235 . S
C39 O66 1.289 . S
O40 C39 1.235 . S
C41 C43 1.400 . S
C41 N44 1.351 . S
C41 C46 1.501 . S
C42 C43 1.387 . S
C42 N45 1.341 . S
C43 C41 1.400 . S
C43 C42 1.387 . S
N44 Co35 2.022 . S
N44 C41 1.351 . S
N44 N45 1.365 . S
N45 C42 1.341 . S
N45 N44 1.365 . S
N45 H65 0.862 . S
C46 C41 1.501 . S
C46 H47 0.961 . S
C46 H48 0.961 . S
C46 H49 0.960 . S
H47 C46 0.961 . S
H48 C46 0.961 . S
H49 C46 0.960 . S
C50 N51 1.342 . S
C50 C54 1.401 . S
C50 C55 1.499 . S
N51 Co34 1.989 . S
N51 C50 1.342 . S
N51 N52 1.388 . S
N52 Co35 1.993 . S
N52 N51 1.388 . S
N52 C53 1.346 . S
C53 N52 1.346 . S
C53 C54 1.396 . S
C53 C63 1.510 . S
C54 C50 1.401 . S
C54 C53 1.396 . S
C55 C50 1.499 . S
C55 H56 0.959 . S
C55 H57 0.960 . S
C55 H58 0.961 . S
H56 C55 0.959 . S
H57 C55 0.960 . S
H58 C55 0.961 . S
O59 Co34 1.967 . S
O59 C67 1.258 . S
O60 Co35 1.941 . S
O60 C67 1.266 . S
H61 C63 0.959 . S
H62 C63 0.961 . S
C63 C53 1.510 . S
C63 H61 0.959 . S
C63 H62 0.961 . S
C63 H64 0.960 . S
H64 C63 0.960 . S
H65 N45 0.862 . S
O66 Co34 1.920 . S
O66 C39 1.289 . S
C67 O59 1.258 . S
C67 O60 1.266 . S
Co68 O71 1.970 . S
Co68 N85 1.989 . S
Co68 O93 1.967 . S
Co68 O100 1.920 . S
Co69 O72 1.966 . S
Co69 N78 2.022 . S
Co69 N86 1.993 . S
Co69 O94 1.941 . S
C70 O71 1.258 . S
C70 O72 1.263 . S
O71 Co68 1.970 . S
O71 C70 1.258 . S
O72 Co69 1.966 . S
O72 C70 1.263 . S
C73 O74 1.235 . S
C73 O100 1.289 . S
O74 C73 1.235 . S
C75 C77 1.400 . S
C75 N78 1.351 . S
C75 C80 1.501 . S
C76 C77 1.387 . S
C76 N79 1.341 . S
C77 C75 1.400 . S
C77 C76 1.387 . S
N78 Co69 2.022 . S
N78 C75 1.351 . S
N78 N79 1.365 . S
N79 C76 1.341 . S
N79 N78 1.365 . S
N79 H99 0.862 . S
C80 C75 1.501 . S
C80 H81 0.961 . S
C80 H82 0.961 . S
C80 H83 0.960 . S
H81 C80 0.961 . S
H82 C80 0.961 . S
H83 C80 0.960 . S
C84 N85 1.342 . S
C84 C88 1.401 . S
C84 C89 1.499 . S
N85 Co68 1.989 . S
N85 C84 1.342 . S
N85 N86 1.388 . S
N86 Co69 1.993 . S
N86 N85 1.388 . S
N86 C87 1.346 . S
C87 N86 1.346 . S
C87 C88 1.396 . S
C87 C97 1.510 . S
C88 C84 1.401 . S
C88 C87 1.396 . S
C89 C84 1.499 . S
C89 H90 0.959 . S
C89 H91 0.960 . S
C89 H92 0.961 . S
H90 C89 0.959 . S
H91 C89 0.960 . S
H92 C89 0.961 . S
O93 Co68 1.967 . S
O93 C101 1.258 . S
O94 Co69 1.941 . S
O94 C101 1.266 . S
H95 C97 0.959 . S
H96 C97 0.961 . S
C97 C87 1.510 . S
C97 H95 0.959 . S
C97 H96 0.961 . S
C97 H98 0.960 . S
H98 C97 0.960 . S
H99 N79 0.862 . S
O100 Co68 1.920 . S
O100 C73 1.289 . S
C101 O93 1.258 . S
C101 O94 1.266 . S
Co102 O105 1.970 . S
Co102 N119 1.989 . S
Co102 O127 1.967 . S
Co102 O134 1.920 . S
Co103 O106 1.966 . S
Co103 N112 2.022 . S
Co103 N120 1.993 . S
Co103 O128 1.941 . S
C104 O105 1.258 . S
C104 O106 1.263 1_554 S
O105 Co102 1.970 . S
O105 C104 1.258 . S
O106 Co103 1.966 . S
O106 C104 1.263 1_556 S
C107 O108 1.235 . S
C107 O134 1.289 . S
O108 C107 1.235 . S
C109 C111 1.400 . S
C109 N112 1.351 . S
C109 C114 1.501 . S
C110 C111 1.387 . S
C110 N113 1.341 . S
C111 C109 1.400 . S
C111 C110 1.387 . S
N112 Co103 2.022 . S
N112 C109 1.351 . S
N112 N113 1.365 . S
N113 C110 1.341 . S
N113 N112 1.365 . S
N113 H133 0.862 . S
C114 C109 1.501 . S
C114 H115 0.961 . S
C114 H116 0.961 . S
C114 H117 0.960 . S
H115 C114 0.961 . S
H116 C114 0.961 . S
H117 C114 0.960 . S
C118 N119 1.342 . S
C118 C122 1.401 1_554 S
C118 C123 1.499 . S
N119 Co102 1.989 . S
N119 C118 1.342 . S
N119 N120 1.388 1_554 S
N120 Co103 1.993 . S
N120 N119 1.388 1_556 S
N120 C121 1.346 . S
C121 N120 1.346 . S
C121 C122 1.396 . S
C121 C131 1.510 . S
C122 C118 1.401 1_556 S
C122 C121 1.396 . S
C123 C118 1.499 . S
C123 H124 0.959 . S
C123 H125 0.960 . S
C123 H126 0.961 . S
H124 C123 0.959 . S
H125 C123 0.960 . S
H126 C123 0.961 . S
O127 Co102 1.967 . S
O127 C135 1.258 . S
O128 Co103 1.941 . S
O128 C135 1.266 1_556 S
H129 C131 0.959 . S
H130 C131 0.961 . S
C131 C121 1.510 . S
C131 H129 0.959 . S
C131 H130 0.961 . S
C131 H132 0.960 . S
H132 C131 0.960 . S
H133 N113 0.862 . S
O134 Co102 1.920 . S
O134 C107 1.289 . S
C135 O127 1.258 . S
C135 O128 1.266 1_554 S
Co136 O139 1.970 1_455 S
Co136 N153 1.989 . S
Co136 O161 1.967 . S
Co136 O168 1.920 . S
Co137 O140 1.961 1_455 S
Co137 N146 2.022 . S
Co137 N154 1.993 . S
Co137 O162 1.941 . S
C138 O139 1.258 . S
C138 O140 1.267 . S
O139 Co136 1.970 1_655 S
O139 C138 1.258 . S
O140 Co137 1.961 1_655 S
O140 C138 1.267 . S
C141 O142 1.235 1_455 S
C141 O168 1.289 . S
O142 C141 1.235 1_655 S
C143 C145 1.400 . S
C143 N146 1.351 1_554 S
C143 C148 1.501 1_454 S
C144 C145 1.387 . S
C144 N147 1.341 . S
C145 C143 1.400 . S
C145 C144 1.387 . S
N146 Co137 2.022 . S
N146 C143 1.351 1_556 S
N146 N147 1.365 1_556 S
N147 C144 1.341 . S
N147 N146 1.365 1_554 S
N147 H167 0.862 1_554 S
C148 C143 1.501 1_656 S
C148 H149 0.961 . S
C148 H150 0.961 . S
C148 H151 0.960 . S
H149 C148 0.961 . S
H150 C148 0.961 . S
H151 C148 0.960 . S
C152 N153 1.342 . S
C152 C156 1.401 . S
C152 C157 1.499 . S
N153 Co136 1.989 . S
N153 C152 1.342 . S
N153 N154 1.388 . S
N154 Co137 1.993 . S
N154 N153 1.388 . S
N154 C155 1.346 . S
C155 N154 1.346 . S
C155 C156 1.396 . S
C155 C165 1.510 . S
C156 C152 1.401 . S
C156 C155 1.396 . S
C157 C152 1.499 . S
C157 H158 0.959 . S
C157 H159 0.960 . S
C157 H160 0.961 . S
H158 C157 0.959 . S
H159 C157 0.960 . S
H160 C157 0.961 . S
O161 Co136 1.967 . S
O161 C169 1.258 . S
O162 Co137 1.941 . S
O162 C169 1.266 . S
H163 C165 0.959 . S
H164 C165 0.961 . S
C165 C155 1.510 . S
C165 H163 0.959 . S
C165 H164 0.961 . S
C165 H166 0.960 . S
H166 C165 0.960 . S
H167 N147 0.862 1_556 S
O168 Co136 1.920 . S
O168 C141 1.289 . S
C169 O161 1.258 . S
C169 O162 1.266 . S
Co170 O173 1.970 . S
Co170 N187 1.989 . S
Co170 O195 1.967 . S
Co170 O202 1.920 . S
Co171 O174 1.966 . S
Co171 N180 2.022 . S
Co171 N188 1.993 . S
Co171 O196 1.941 . S
C172 O173 1.258 . S
C172 O174 1.263 1_556 S
O173 Co170 1.970 . S
O173 C172 1.258 . S
O174 Co171 1.966 . S
O174 C172 1.263 1_554 S
C175 O176 1.235 . S
C175 O202 1.289 . S
O176 C175 1.235 . S
C177 C179 1.400 . S
C177 N180 1.351 . S
C177 C182 1.501 . S
C178 C179 1.387 . S
C178 N181 1.341 . S
C179 C177 1.400 . S
C179 C178 1.387 . S
N180 Co171 2.022 . S
N180 C177 1.351 . S
N180 N181 1.365 . S
N181 C178 1.341 . S
N181 N180 1.365 . S
N181 H201 0.862 . S
C182 C177 1.501 . S
C182 H183 0.961 . S
C182 H184 0.961 . S
C182 H185 0.960 . S
H183 C182 0.961 . S
H184 C182 0.961 . S
H185 C182 0.960 . S
C186 N187 1.342 . S
C186 C190 1.401 1_556 S
C186 C191 1.499 . S
N187 Co170 1.989 . S
N187 C186 1.342 . S
N187 N188 1.388 1_556 S
N188 Co171 1.993 . S
N188 N187 1.388 1_554 S
N188 C189 1.346 . S
C189 N188 1.346 . S
C189 C190 1.396 . S
C189 C199 1.510 . S
C190 C186 1.401 1_554 S
C190 C189 1.396 . S
C191 C186 1.499 . S
C191 H192 0.959 . S
C191 H193 0.960 . S
C191 H194 0.961 . S
H192 C191 0.959 . S
H193 C191 0.960 . S
H194 C191 0.961 . S
O195 Co170 1.967 . S
O195 C203 1.258 . S
O196 Co171 1.941 . S
O196 C203 1.266 1_554 S
H197 C199 0.959 . S
H198 C199 0.961 . S
C199 C189 1.510 . S
C199 H197 0.959 . S
C199 H198 0.961 . S
C199 H200 0.960 . S
H200 C199 0.960 . S
H201 N181 0.862 . S
O202 Co170 1.920 . S
O202 C175 1.289 . S
C203 O195 1.258 . S
C203 O196 1.266 1_556 S
Co204 O207 1.970 . S
Co204 N221 1.989 . S
Co204 O229 1.967 . S
Co204 O236 1.920 . S
Co205 O208 1.966 . S
Co205 N214 2.022 . S
Co205 N222 1.993 . S
Co205 O230 1.941 . S
C206 O207 1.258 . S
C206 O208 1.263 . S
O207 Co204 1.970 . S
O207 C206 1.258 . S
O208 Co205 1.966 . S
O208 C206 1.263 . S
C209 O210 1.235 . S
C209 O236 1.289 . S
O210 C209 1.235 . S
C211 C213 1.400 . S
C211 N214 1.351 . S
C211 C216 1.501 . S
C212 C213 1.387 . S
C212 N215 1.341 . S
C213 C211 1.400 . S
C213 C212 1.387 . S
N214 Co205 2.022 . S
N214 C211 1.351 . S
N214 N215 1.365 . S
N215 C212 1.341 . S
N215 N214 1.365 . S
N215 H235 0.862 . S
C216 C211 1.501 . S
C216 H217 0.961 . S
C216 H218 0.961 . S
C216 H219 0.960 . S
H217 C216 0.961 . S
H218 C216 0.961 . S
H219 C216 0.960 . S
C220 N221 1.342 . S
C220 C224 1.401 . S
C220 C225 1.499 . S
N221 Co204 1.989 . S
N221 C220 1.342 . S
N221 N222 1.388 . S
N222 Co205 1.993 . S
N222 N221 1.388 . S
N222 C223 1.346 . S
C223 N222 1.346 . S
C223 C224 1.396 . S
C223 C233 1.510 . S
C224 C220 1.401 . S
C224 C223 1.396 . S
C225 C220 1.499 . S
C225 H226 0.959 . S
C225 H227 0.960 . S
C225 H228 0.961 . S
H226 C225 0.959 . S
H227 C225 0.960 . S
H228 C225 0.961 . S
O229 Co204 1.967 . S
O229 C237 1.258 . S
O230 Co205 1.941 . S
O230 C237 1.266 . S
H231 C233 0.959 . S
H232 C233 0.961 . S
C233 C223 1.510 . S
C233 H231 0.959 . S
C233 H232 0.961 . S
C233 H234 0.960 . S
H234 C233 0.960 . S
H235 N215 0.862 . S
O236 Co204 1.920 . S
O236 C209 1.289 . S
C237 O229 1.258 . S
C237 O230 1.266 . S
Co238 O241 1.970 . S
Co238 N255 1.989 . S
Co238 O263 1.967 . S
Co238 O270 1.920 . S
Co239 O242 1.966 . S
Co239 N248 2.022 . S
Co239 N256 1.993 . S
Co239 O264 1.941 . S
C240 O241 1.258 . S
C240 O242 1.263 . S
O241 Co238 1.970 . S
O241 C240 1.258 . S
O242 Co239 1.966 . S
O242 C240 1.263 . S
C243 O244 1.235 . S
C243 O270 1.289 . S
O244 C243 1.235 . S
C245 C247 1.400 . S
C245 N248 1.351 . S
C245 C250 1.501 . S
C246 C247 1.387 . S
C246 N249 1.341 . S
C247 C245 1.400 . S
C247 C246 1.387 . S
N248 Co239 2.022 . S
N248 C245 1.351 . S
N248 N249 1.365 . S
N249 C246 1.341 . S
N249 N248 1.365 . S
N249 H269 0.862 . S
C250 C245 1.501 . S
C250 H251 0.961 . S
C250 H252 0.961 . S
C250 H253 0.960 . S
H251 C250 0.961 . S
H252 C250 0.961 . S
H253 C250 0.960 . S
C254 N255 1.342 . S
C254 C258 1.401 . S
C254 C259 1.499 . S
N255 Co238 1.989 . S
N255 C254 1.342 . S
N255 N256 1.388 . S
N256 Co239 1.993 . S
N256 N255 1.388 . S
N256 C257 1.346 . S
C257 N256 1.346 . S
C257 C258 1.396 . S
C257 C267 1.510 . S
C258 C254 1.401 . S
C258 C257 1.396 . S
C259 C254 1.499 . S
C259 H260 0.959 . S
C259 H261 0.960 . S
C259 H262 0.961 . S
H260 C259 0.959 . S
H261 C259 0.960 . S
H262 C259 0.961 . S
O263 Co238 1.967 . S
O263 C271 1.258 . S
O264 Co239 1.941 . S
O264 C271 1.266 . S
H265 C267 0.959 . S
H266 C267 0.961 . S
C267 C257 1.510 . S
C267 H265 0.959 . S
C267 H266 0.961 . S
C267 H268 0.960 . S
H268 C267 0.960 . S
H269 N249 0.862 . S
O270 Co238 1.920 . S
O270 C243 1.289 . S
C271 O263 1.258 . S
C271 O264 1.266 . S
Co272 O275 1.970 . S
Co272 N289 1.989 . S
Co272 O297 1.967 . S
Co272 O304 1.920 . S
Co273 O276 1.966 . S
Co273 N282 2.022 . S
Co273 N290 1.993 . S
Co273 O298 1.941 . S
C274 O275 1.258 . S
C274 O276 1.263 . S
O275 Co272 1.970 . S
O275 C274 1.258 . S
O276 Co273 1.966 . S
O276 C274 1.263 . S
C277 O278 1.235 . S
C277 O304 1.289 . S
O278 C277 1.235 . S
C279 C281 1.400 . S
C279 N282 1.351 . S
C279 C284 1.501 . S
C280 C281 1.387 . S
C280 N283 1.341 . S
C281 C279 1.400 . S
C281 C280 1.387 . S
N282 Co273 2.022 . S
N282 C279 1.351 . S
N282 N283 1.365 . S
N283 C280 1.341 . S
N283 N282 1.365 . S
N283 H303 0.862 . S
C284 C279 1.501 . S
C284 H285 0.961 . S
C284 H286 0.961 . S
C284 H287 0.960 . S
H285 C284 0.961 . S
H286 C284 0.961 . S
H287 C284 0.960 . S
C288 N289 1.342 . S
C288 C292 1.401 . S
C288 C293 1.499 . S
N289 Co272 1.989 . S
N289 C288 1.342 . S
N289 N290 1.388 . S
N290 Co273 1.993 . S
N290 N289 1.388 . S
N290 C291 1.346 . S
C291 N290 1.346 . S
C291 C292 1.396 . S
C291 C301 1.510 . S
C292 C288 1.401 . S
C292 C291 1.396 . S
C293 C288 1.499 . S
C293 H294 0.959 . S
C293 H295 0.960 . S
C293 H296 0.961 . S
H294 C293 0.959 . S
H295 C293 0.960 . S
H296 C293 0.961 . S
O297 Co272 1.967 . S
O297 C305 1.258 . S
O298 Co273 1.941 . S
O298 C305 1.266 . S
H299 C301 0.959 . S
H300 C301 0.961 . S
C301 C291 1.510 . S
C301 H299 0.959 . S
C301 H300 0.961 . S
C301 H302 0.960 . S
H302 C301 0.960 . S
H303 N283 0.862 . S
O304 Co272 1.920 . S
O304 C277 1.289 . S
C305 O297 1.258 . S
C305 O298 1.266 . S
Co306 O309 1.970 . S
Co306 N323 1.989 . S
Co306 O331 1.967 . S
Co306 O338 1.920 . S
Co307 O310 1.966 . S
Co307 N316 2.022 . S
Co307 N324 1.993 . S
Co307 O332 1.941 . S
C308 O309 1.258 . S
C308 O310 1.263 1_556 S
O309 Co306 1.970 . S
O309 C308 1.258 . S
O310 Co307 1.966 . S
O310 C308 1.263 1_554 S
C311 O312 1.235 . S
C311 O338 1.289 . S
O312 C311 1.235 . S
C313 C315 1.400 . S
C313 N316 1.351 . S
C313 C318 1.501 . S
C314 C315 1.387 . S
C314 N317 1.341 . S
C315 C313 1.400 . S
C315 C314 1.387 . S
N316 Co307 2.022 . S
N316 C313 1.351 . S
N316 N317 1.365 . S
N317 C314 1.341 . S
N317 N316 1.365 . S
N317 H337 0.862 . S
C318 C313 1.501 . S
C318 H319 0.961 . S
C318 H320 0.961 . S
C318 H321 0.960 . S
H319 C318 0.961 . S
H320 C318 0.961 . S
H321 C318 0.960 . S
C322 N323 1.342 . S
C322 C326 1.401 1_556 S
C322 C327 1.499 . S
N323 Co306 1.989 . S
N323 C322 1.342 . S
N323 N324 1.388 1_556 S
N324 Co307 1.993 . S
N324 N323 1.388 1_554 S
N324 C325 1.346 . S
C325 N324 1.346 . S
C325 C326 1.396 . S
C325 C335 1.510 . S
C326 C322 1.401 1_554 S
C326 C325 1.396 . S
C327 C322 1.499 . S
C327 H328 0.959 . S
C327 H329 0.960 . S
C327 H330 0.961 . S
H328 C327 0.959 . S
H329 C327 0.960 . S
H330 C327 0.961 . S
O331 Co306 1.967 . S
O331 C339 1.258 . S
O332 Co307 1.941 . S
O332 C339 1.266 1_554 S
H333 C335 0.959 . S
H334 C335 0.961 . S
C335 C325 1.510 . S
C335 H333 0.959 . S
C335 H334 0.961 . S
C335 H336 0.960 . S
H336 C335 0.960 . S
H337 N317 0.862 . S
O338 Co306 1.920 . S
O338 C311 1.289 . S
C339 O331 1.258 . S
C339 O332 1.266 1_556 S
Co340 O343 1.970 . S
Co340 N357 1.989 . S
Co340 O365 1.967 . S
Co340 O372 1.920 . S
Co341 O344 1.966 . S
Co341 N350 2.022 . S
Co341 N358 1.993 . S
Co341 O366 1.941 . S
C342 O343 1.258 . S
C342 O344 1.263 1_554 S
O343 Co340 1.970 . S
O343 C342 1.258 . S
O344 Co341 1.966 . S
O344 C342 1.263 1_556 S
C345 O346 1.235 . S
C345 O372 1.289 . S
O346 C345 1.235 . S
C347 C349 1.400 . S
C347 N350 1.351 . S
C347 C352 1.501 . S
C348 C349 1.387 . S
C348 N351 1.341 . S
C349 C347 1.400 . S
C349 C348 1.387 . S
N350 Co341 2.022 . S
N350 C347 1.351 . S
N350 N351 1.365 . S
N351 C348 1.341 . S
N351 N350 1.365 . S
N351 H371 0.862 . S
C352 C347 1.501 . S
C352 H353 0.961 . S
C352 H354 0.961 . S
C352 H355 0.960 . S
H353 C352 0.961 . S
H354 C352 0.961 . S
H355 C352 0.960 . S
C356 N357 1.342 . S
C356 C360 1.401 1_554 S
C356 C361 1.499 . S
N357 Co340 1.989 . S
N357 C356 1.342 . S
N357 N358 1.388 1_554 S
N358 Co341 1.993 . S
N358 N357 1.388 1_556 S
N358 C359 1.346 . S
C359 N358 1.346 . S
C359 C360 1.396 . S
C359 C369 1.510 . S
C360 C356 1.401 1_556 S
C360 C359 1.396 . S
C361 C356 1.499 . S
C361 H362 0.959 . S
C361 H363 0.960 . S
C361 H364 0.961 . S
H362 C361 0.959 . S
H363 C361 0.960 . S
H364 C361 0.961 . S
O365 Co340 1.967 . S
O365 C373 1.258 . S
O366 Co341 1.941 . S
O366 C373 1.266 1_556 S
H367 C369 0.959 . S
H368 C369 0.961 . S
C369 C359 1.510 . S
C369 H367 0.959 . S
C369 H368 0.961 . S
C369 H370 0.960 . S
H370 C369 0.960 . S
H371 N351 0.862 . S
O372 Co340 1.920 . S
O372 C345 1.289 . S
C373 O365 1.258 . S
C373 O366 1.266 1_554 S
Co374 O377 1.970 . S
Co374 N391 1.989 . S
Co374 O399 1.967 . S
Co374 O406 1.920 . S
Co375 O378 1.966 . S
Co375 N384 2.022 . S
Co375 N392 1.993 . S
Co375 O400 1.941 . S
C376 O377 1.258 . S
C376 O378 1.263 . S
O377 Co374 1.970 . S
O377 C376 1.258 . S
O378 Co375 1.966 . S
O378 C376 1.263 . S
C379 O380 1.235 . S
C379 O406 1.289 . S
O380 C379 1.235 . S
C381 C383 1.400 . S
C381 N384 1.351 . S
C381 C386 1.501 . S
C382 C383 1.387 . S
C382 N385 1.341 . S
C383 C381 1.400 . S
C383 C382 1.387 . S
N384 Co375 2.022 . S
N384 C381 1.351 . S
N384 N385 1.365 . S
N385 C382 1.341 . S
N385 N384 1.365 . S
N385 H405 0.862 . S
C386 C381 1.501 . S
C386 H387 0.961 . S
C386 H388 0.961 . S
C386 H389 0.960 . S
H387 C386 0.961 . S
H388 C386 0.961 . S
H389 C386 0.960 . S
C390 N391 1.342 . S
C390 C394 1.401 . S
C390 C395 1.499 . S
N391 Co374 1.989 . S
N391 C390 1.342 . S
N391 N392 1.388 . S
N392 Co375 1.993 . S
N392 N391 1.388 . S
N392 C393 1.346 . S
C393 N392 1.346 . S
C393 C394 1.396 . S
C393 C403 1.510 . S
C394 C390 1.401 . S
C394 C393 1.396 . S
C395 C390 1.499 . S
C395 H396 0.959 . S
C395 H397 0.960 . S
C395 H398 0.961 . S
H396 C395 0.959 . S
H397 C395 0.960 . S
H398 C395 0.961 . S
O399 Co374 1.967 . S
O399 C407 1.258 . S
O400 Co375 1.941 . S
O400 C407 1.266 . S
H401 C403 0.959 . S
H402 C403 0.961 . S
C403 C393 1.510 . S
C403 H401 0.959 . S
C403 H402 0.961 . S
C403 H404 0.960 . S
H404 C403 0.960 . S
H405 N385 0.862 . S
O406 Co374 1.920 . S
O406 C379 1.289 . S
C407 O399 1.258 . S
C407 O400 1.266 . S
Co408 O411 1.970 . S
Co408 N425 1.989 . S
Co408 O433 1.967 . S
Co408 O440 1.920 . S
Co409 O412 1.966 . S
Co409 N418 2.022 . S
Co409 N426 1.993 . S
Co409 O434 1.941 . S
C410 O411 1.258 . S
C410 O412 1.263 . S
O411 Co408 1.970 . S
O411 C410 1.258 . S
O412 Co409 1.966 . S
O412 C410 1.263 . S
C413 O414 1.235 . S
C413 O440 1.289 . S
O414 C413 1.235 . S
C415 C417 1.400 . S
C415 N418 1.351 . S
C415 C420 1.501 . S
C416 C417 1.387 . S
C416 N419 1.341 . S
C417 C415 1.400 . S
C417 C416 1.387 . S
N418 Co409 2.022 . S
N418 C415 1.351 . S
N418 N419 1.365 . S
N419 C416 1.341 . S
N419 N418 1.365 . S
N419 H439 0.862 . S
C420 C415 1.501 . S
C420 H421 0.961 . S
C420 H422 0.961 . S
C420 H423 0.960 . S
H421 C420 0.961 . S
H422 C420 0.961 . S
H423 C420 0.960 . S
C424 N425 1.342 . S
C424 C428 1.401 . S
C424 C429 1.499 . S
N425 Co408 1.989 . S
N425 C424 1.342 . S
N425 N426 1.388 . S
N426 Co409 1.993 . S
N426 N425 1.388 . S
N426 C427 1.346 . S
C427 N426 1.346 . S
C427 C428 1.396 . S
C427 C437 1.510 . S
C428 C424 1.401 . S
C428 C427 1.396 . S
C429 C424 1.499 . S
C429 H430 0.959 . S
C429 H431 0.960 . S
C429 H432 0.961 . S
H430 C429 0.959 . S
H431 C429 0.960 . S
H432 C429 0.961 . S
O433 Co408 1.967 . S
O433 C441 1.258 . S
O434 Co409 1.941 . S
O434 C441 1.266 . S
H435 C437 0.959 . S
H436 C437 0.961 . S
C437 C427 1.510 . S
C437 H435 0.959 . S
C437 H436 0.961 . S
C437 H438 0.960 . S
H438 C437 0.960 . S
H439 N419 0.862 . S
O440 Co408 1.920 . S
O440 C413 1.289 . S
C441 O433 1.258 . S
C441 O434 1.266 . S
Co442 O445 1.970 . S
Co442 N459 1.989 . S
Co442 O467 1.967 1_455 S
Co442 O474 1.920 . S
Co443 O446 1.966 . S
Co443 N452 2.022 . S
Co443 N460 1.993 . S
Co443 O468 1.941 1_455 S
C444 O445 1.258 . S
C444 O446 1.263 . S
O445 Co442 1.970 . S
O445 C444 1.258 . S
O446 Co443 1.966 . S
O446 C444 1.263 . S
C447 O448 1.235 . S
C447 O474 1.289 . S
O448 C447 1.235 . S
C449 C451 1.400 . S
C449 N452 1.351 1_556 S
C449 C454 1.501 1_556 S
C450 C451 1.363 1_655 S
C450 N453 1.348 . S
C451 C449 1.400 . S
C451 C450 1.363 1_455 S
N452 Co443 2.022 . S
N452 C449 1.351 1_554 S
N452 N453 1.365 1_454 S
N453 C450 1.348 . S
N453 N452 1.365 1_656 S
N453 H473 0.862 1_556 S
C454 C449 1.501 1_554 S
C454 H455 0.961 . S
C454 H456 0.961 . S
C454 H457 0.960 . S
H455 C454 0.961 . S
H456 C454 0.961 . S
H457 C454 0.960 . S
C458 N459 1.342 . S
C458 C462 1.401 . S
C458 C463 1.499 . S
N459 Co442 1.989 . S
N459 C458 1.342 . S
N459 N460 1.388 . S
N460 Co443 1.993 . S
N460 N459 1.388 . S
N460 C461 1.346 . S
C461 N460 1.346 . S
C461 C462 1.396 . S
C461 C471 1.510 . S
C462 C458 1.401 . S
C462 C461 1.396 . S
C463 C458 1.499 . S
C463 H464 0.959 . S
C463 H465 0.960 . S
C463 H466 0.961 1_455 S
H464 C463 0.959 . S
H465 C463 0.960 . S
H466 C463 0.961 1_655 S
O467 Co442 1.967 1_655 S
O467 C475 1.258 . S
O468 Co443 1.941 1_655 S
O468 C475 1.266 . S
H469 C471 0.959 1_655 S
H470 C471 0.961 . S
C471 C461 1.510 . S
C471 H469 0.959 1_455 S
C471 H470 0.961 . S
C471 H472 0.960 . S
H472 C471 0.960 . S
H473 N453 0.862 1_554 S
O474 Co442 1.920 . S
O474 C447 1.289 . S
C475 O467 1.258 . S
C475 O468 1.266 . S
Co476 O479 1.970 . S
Co476 N493 1.989 . S
Co476 O501 1.967 . S
Co476 O508 1.920 . S
Co477 O480 1.966 . S
Co477 N486 2.022 . S
Co477 N494 1.993 . S
Co477 O502 1.941 . S
C478 O479 1.258 . S
C478 O480 1.263 . S
O479 Co476 1.970 . S
O479 C478 1.258 . S
O480 Co477 1.966 . S
O480 C478 1.263 . S
C481 O482 1.235 . S
C481 O508 1.289 . S
O482 C481 1.235 . S
C483 C485 1.400 . S
C483 N486 1.351 . S
C483 C488 1.501 . S
C484 C485 1.387 . S
C484 N487 1.341 . S
C485 C483 1.400 . S
C485 C484 1.387 . S
N486 Co477 2.022 . S
N486 C483 1.351 . S
N486 N487 1.365 . S
N487 C484 1.341 . S
N487 N486 1.365 . S
N487 H507 0.862 . S
C488 C483 1.501 . S
C488 H489 0.961 . S
C488 H490 0.961 . S
C488 H491 0.960 . S
H489 C488 0.961 . S
H490 C488 0.961 . S
H491 C488 0.960 . S
C492 N493 1.342 . S
C492 C496 1.401 . S
C492 C497 1.499 . S
N493 Co476 1.989 . S
N493 C492 1.342 . S
N493 N494 1.388 . S
N494 Co477 1.993 . S
N494 N493 1.388 . S
N494 C495 1.346 . S
C495 N494 1.346 . S
C495 C496 1.396 . S
C495 C505 1.510 . S
C496 C492 1.401 . S
C496 C495 1.396 . S
C497 C492 1.499 . S
C497 H498 0.959 . S
C497 H499 0.960 . S
C497 H500 0.961 . S
H498 C497 0.959 . S
H499 C497 0.960 . S
H500 C497 0.961 . S
O501 Co476 1.967 . S
O501 C509 1.258 . S
O502 Co477 1.941 . S
O502 C509 1.266 . S
H503 C505 0.959 . S
H504 C505 0.961 . S
C505 C495 1.510 . S
C505 H503 0.959 . S
C505 H504 0.961 . S
C505 H506 0.960 . S
H506 C505 0.960 . S
H507 N487 0.862 . S
O508 Co476 1.920 . S
O508 C481 1.289 . S
C509 O501 1.258 . S
C509 O502 1.266 . S
Co510 O513 1.970 . S
Co510 N527 1.989 . S
Co510 O535 1.967 1_455 S
Co510 O542 1.920 . S
Co511 O514 1.966 . S
Co511 N520 2.022 . S
Co511 N528 1.993 . S
Co511 O536 1.941 1_455 S
C512 O513 1.258 . S
C512 O514 1.263 . S
O513 Co510 1.970 . S
O513 C512 1.258 . S
O514 Co511 1.966 . S
O514 C512 1.263 . S
C515 O516 1.235 . S
C515 O542 1.289 . S
O516 C515 1.235 . S
C517 C519 1.400 . S
C517 N520 1.351 1_554 S
C517 C522 1.501 1_554 S
C518 C519 1.363 1_655 S
C518 N521 1.348 . S
C519 C517 1.400 . S
C519 C518 1.363 1_455 S
N520 Co511 2.022 . S
N520 C517 1.351 1_556 S
N520 N521 1.365 1_456 S
N521 C518 1.348 . S
N521 N520 1.365 1_654 S
N521 H541 0.862 1_554 S
C522 C517 1.501 1_556 S
C522 H523 0.961 . S
C522 H524 0.961 . S
C522 H525 0.960 . S
H523 C522 0.961 . S
H524 C522 0.961 . S
H525 C522 0.960 . S
C526 N527 1.342 . S
C526 C530 1.401 . S
C526 C531 1.499 . S
N527 Co510 1.989 . S
N527 C526 1.342 . S
N527 N528 1.388 . S
N528 Co511 1.993 . S
N528 N527 1.388 . S
N528 C529 1.346 . S
C529 N528 1.346 . S
C529 C530 1.396 . S
C529 C539 1.510 . S
C530 C526 1.401 . S
C530 C529 1.396 . S
C531 C526 1.499 . S
C531 H532 0.959 . S
C531 H533 0.960 . S
C531 H534 0.961 1_455 S
H532 C531 0.959 . S
H533 C531 0.960 . S
H534 C531 0.961 1_655 S
O535 Co510 1.967 1_655 S
O535 C543 1.258 . S
O536 Co511 1.941 1_655 S
O536 C543 1.266 . S
H537 C539 0.959 1_655 S
H538 C539 0.961 . S
C539 C529 1.510 . S
C539 H537 0.959 1_455 S
C539 H538 0.961 . S
C539 H540 0.960 . S
H540 C539 0.960 . S
H541 N521 0.862 1_556 S
O542 Co510 1.920 . S
O542 C515 1.289 . S
C543 O535 1.258 . S
C543 O536 1.266 . S
H544 C550 0.930 . S
H545 C554 0.930 . S
H546 C559 0.929 . S
H547 C557 0.929 . S
H548 C552 0.929 . S
H549 C558 0.929 . S
C550 H544 0.930 . S
C550 C551 1.367 . S
C550 C558 1.378 . S
C551 C550 1.367 . S
C551 C559 1.433 . S
C552 H548 0.929 . S
C552 C554 1.378 . S
C552 C556 1.350 . S
C553 C556 1.463 . S
C553 C558 1.350 . S
C553 N561 1.427 . S
C554 H545 0.930 . S
C554 C552 1.378 . S
C554 C555 1.367 . S
C555 C554 1.367 . S
C555 C557 1.433 . S
C556 C552 1.350 . S
C556 C553 1.463 . S
C556 N560 1.427 . S
C557 H547 0.929 . S
C557 C555 1.433 . S
C557 N560 1.384 . S
C558 H549 0.929 . S
C558 C550 1.378 . S
C558 C553 1.350 . S
C559 H546 0.929 . S
C559 C551 1.433 . S
C559 N561 1.384 . S
N560 C556 1.427 . S
N560 C557 1.384 . S
N561 C553 1.427 . S
N561 C559 1.384 . S
H562 C568 0.930 . S
H563 C572 0.930 . S
H564 C577 0.929 . S
H565 C575 0.929 . S
H566 C570 0.929 . S
H567 C576 0.929 . S
C568 H562 0.930 . S
C568 C569 1.367 . S
C568 C576 1.378 . S
C569 C568 1.367 . S
C569 C577 1.433 . S
C570 H566 0.929 . S
C570 C572 1.378 . S
C570 C574 1.350 . S
C571 C574 1.463 . S
C571 C576 1.350 . S
C571 N579 1.427 . S
C572 H563 0.930 . S
C572 C570 1.378 . S
C572 C573 1.367 . S
C573 C572 1.367 . S
C573 C575 1.433 . S
C574 C570 1.350 . S
C574 C571 1.463 . S
C574 N578 1.427 . S
C575 H565 0.929 . S
C575 C573 1.433 . S
C575 N578 1.384 . S
C576 H567 0.929 . S
C576 C568 1.378 . S
C576 C571 1.350 . S
C577 H564 0.929 . S
C577 C569 1.433 . S
C577 N579 1.384 . S
N578 C574 1.427 . S
N578 C575 1.384 . S
N579 C571 1.427 . S
N579 C577 1.384 . S
H580 C586 0.930 . S
H581 C590 0.930 . S
H582 C595 0.929 . S
H583 C593 0.929 . S
H584 C588 0.929 . S
H585 C594 0.929 . S
C586 H580 0.930 . S
C586 C587 1.367 . S
C586 C594 1.378 . S
C587 C586 1.367 . S
C587 C595 1.433 . S
C588 H584 0.929 . S
C588 C590 1.378 . S
C588 C592 1.350 . S
C589 C592 1.463 . S
C589 C594 1.350 . S
C589 N597 1.427 . S
C590 H581 0.930 . S
C590 C588 1.378 . S
C590 C591 1.367 . S
C591 C590 1.367 . S
C591 C593 1.433 . S
C592 C588 1.350 . S
C592 C589 1.463 . S
C592 N596 1.427 . S
C593 H583 0.929 . S
C593 C591 1.433 . S
C593 N596 1.384 . S
C594 H585 0.929 . S
C594 C586 1.378 . S
C594 C589 1.350 . S
C595 H582 0.929 . S
C595 C587 1.433 . S
C595 N597 1.384 . S
N596 C592 1.427 . S
N596 C593 1.384 . S
N597 C589 1.427 . S
N597 C595 1.384 . S
H598 C604 0.930 . S
H599 C608 0.930 . S
H600 C613 0.929 . S
H601 C611 0.929 . S
H602 C606 0.929 . S
H603 C612 0.929 . S
C604 H598 0.930 . S
C604 C605 1.367 . S
C604 C612 1.378 . S
C605 C604 1.367 . S
C605 C613 1.433 . S
C606 H602 0.929 . S
C606 C608 1.378 . S
C606 C610 1.350 . S
C607 C610 1.463 . S
C607 C612 1.350 . S
C607 N615 1.427 . S
C608 H599 0.930 . S
C608 C606 1.378 . S
C608 C609 1.367 . S
C609 C608 1.367 . S
C609 C611 1.433 . S
C610 C606 1.350 . S
C610 C607 1.463 . S
C610 N614 1.427 . S
C611 H601 0.929 . S
C611 C609 1.433 . S
C611 N614 1.384 . S
C612 H603 0.929 . S
C612 C604 1.378 . S
C612 C607 1.350 . S
C613 H600 0.929 . S
C613 C605 1.433 . S
C613 N615 1.384 . S
N614 C610 1.427 . S
N614 C611 1.384 . S
N615 C607 1.427 . S
N615 C613 1.384 . S
H616 C622 0.930 . S
H617 C626 0.930 . S
H618 C631 0.929 . S
H619 C629 0.929 . S
H620 C624 0.929 . S
H621 C630 0.929 . S
C622 H616 0.930 . S
C622 C623 1.367 . S
C622 C630 1.378 . S
C623 C622 1.367 . S
C623 C631 1.433 . S
C624 H620 0.929 . S
C624 C626 1.378 . S
C624 C628 1.350 . S
C625 C628 1.463 . S
C625 C630 1.350 . S
C625 N633 1.427 . S
C626 H617 0.930 . S
C626 C624 1.378 . S
C626 C627 1.367 . S
C627 C626 1.367 . S
C627 C629 1.433 . S
C628 C624 1.350 . S
C628 C625 1.463 . S
C628 N632 1.427 . S
C629 H619 0.929 . S
C629 C627 1.433 . S
C629 N632 1.384 . S
C630 H621 0.929 . S
C630 C622 1.378 . S
C630 C625 1.350 . S
C631 H618 0.929 . S
C631 C623 1.433 . S
C631 N633 1.384 . S
N632 C628 1.427 . S
N632 C629 1.384 . S
N633 C625 1.427 . S
N633 C631 1.384 . S
H634 C640 0.930 . S
H635 C644 0.930 . S
H636 C649 0.929 . S
H637 C647 0.929 . S
H638 C642 0.929 . S
H639 C648 0.929 . S
C640 H634 0.930 . S
C640 C641 1.367 . S
C640 C648 1.378 . S
C641 C640 1.367 . S
C641 C649 1.433 . S
C642 H638 0.929 . S
C642 C644 1.378 . S
C642 C646 1.350 . S
C643 C646 1.463 . S
C643 C648 1.350 . S
C643 N651 1.427 . S
C644 H635 0.930 . S
C644 C642 1.378 . S
C644 C645 1.367 . S
C645 C644 1.367 . S
C645 C647 1.433 . S
C646 C642 1.350 . S
C646 C643 1.463 . S
C646 N650 1.427 . S
C647 H637 0.929 . S
C647 C645 1.433 . S
C647 N650 1.384 . S
C648 H639 0.929 . S
C648 C640 1.378 . S
C648 C643 1.350 . S
C649 H636 0.929 . S
C649 C641 1.433 . S
C649 N651 1.384 . S
N650 C646 1.427 . S
N650 C647 1.384 . S
N651 C643 1.427 . S
N651 C649 1.384 . S
H652 C658 0.930 . S
H653 C662 0.930 . S
H654 C667 0.929 . S
H655 C665 0.929 . S
H656 C660 0.924 1_556 S
H657 C666 0.929 . S
C658 H652 0.930 . S
C658 C659 1.367 . S
C658 C666 1.378 . S
C659 C658 1.367 . S
C659 C667 1.433 . S
C660 H656 0.924 1_554 S
C660 C662 1.378 1_554 S
C660 C664 1.350 . S
C661 C664 1.463 . S
C661 C666 1.350 . S
C661 N669 1.427 . S
C662 H653 0.930 . S
C662 C660 1.378 1_556 S
C662 C663 1.367 1_556 S
C663 C662 1.367 1_554 S
C663 C665 1.433 . S
C664 C660 1.350 . S
C664 C661 1.463 . S
C664 N668 1.427 . S
C665 H655 0.929 . S
C665 C663 1.433 . S
C665 N668 1.384 . S
C666 H657 0.929 . S
C666 C658 1.378 . S
C666 C661 1.350 . S
C667 H654 0.929 . S
C667 C659 1.433 . S
C667 N669 1.384 . S
N668 C664 1.427 . S
N668 C665 1.384 . S
N669 C661 1.427 . S
N669 C667 1.384 . S
H670 C676 0.930 . S
H671 C680 0.930 . S
H672 C685 0.929 . S
H673 C683 0.929 1_554 S
H674 C678 0.929 . S
H675 C684 0.929 . S
C676 H670 0.930 . S
C676 C677 1.367 . S
C676 C684 1.378 . S
C677 C676 1.367 . S
C677 C685 1.433 . S
C678 H674 0.929 . S
C678 C680 1.378 . S
C678 C682 1.350 . S
C679 C682 1.463 . S
C679 C684 1.350 . S
C679 N687 1.427 . S
C680 H671 0.930 . S
C680 C678 1.378 . S
C680 C681 1.367 . S
C681 C680 1.367 . S
C681 C683 1.433 . S
C682 C678 1.350 . S
C682 C679 1.463 . S
C682 N686 1.427 . S
C683 H673 0.929 1_556 S
C683 C681 1.433 . S
C683 N686 1.384 . S
C684 H675 0.929 . S
C684 C676 1.378 . S
C684 C679 1.350 . S
C685 H672 0.929 . S
C685 C677 1.433 . S
C685 N687 1.384 . S
N686 C682 1.427 . S
N686 C683 1.384 . S
N687 C679 1.427 . S
N687 C685 1.384 . S
H688 C694 0.930 1_554 S
H689 C698 0.930 . S
H690 C703 0.929 . S
H691 C701 0.929 . S
H692 C696 0.929 . S
H693 C702 0.929 . S
C694 H688 0.930 1_556 S
C694 C695 1.367 . S
C694 C702 1.378 . S
C695 C694 1.367 . S
C695 C703 1.433 . S
C696 H692 0.929 . S
C696 C698 1.378 . S
C696 C700 1.350 . S
C697 C700 1.463 . S
C697 C702 1.350 . S
C697 N705 1.427 . S
C698 H689 0.930 . S
C698 C696 1.378 . S
C698 C699 1.367 . S
C699 C698 1.367 . S
C699 C701 1.433 . S
C700 C696 1.350 . S
C700 C697 1.463 . S
C700 N704 1.427 . S
C701 H691 0.929 . S
C701 C699 1.433 . S
C701 N704 1.384 . S
C702 H693 0.929 . S
C702 C694 1.378 . S
C702 C697 1.350 . S
C703 H690 0.929 . S
C703 C695 1.433 . S
C703 N705 1.384 . S
N704 C700 1.427 . S
N704 C701 1.384 . S
N705 C697 1.427 . S
N705 C703 1.384 . S
H706 C712 0.930 . S
H707 C716 0.930 1_556 S
H708 C721 0.929 . S
H709 C719 0.929 . S
H710 C714 0.929 . S
H711 C720 0.929 . S
C712 H706 0.930 . S
C712 C713 1.367 . S
C712 C720 1.378 . S
C713 C712 1.367 . S
C713 C721 1.433 . S
C714 H710 0.929 . S
C714 C716 1.378 . S
C714 C718 1.350 . S
C715 C718 1.463 . S
C715 C720 1.350 . S
C715 N723 1.427 . S
C716 H707 0.930 1_554 S
C716 C714 1.378 . S
C716 C717 1.367 . S
C717 C716 1.367 . S
C717 C719 1.433 . S
C718 C714 1.350 . S
C718 C715 1.463 . S
C718 N722 1.427 . S
C719 H709 0.929 . S
C719 C717 1.433 . S
C719 N722 1.384 . S
C720 H711 0.929 . S
C720 C712 1.378 . S
C720 C715 1.350 . S
C721 H708 0.929 . S
C721 C713 1.433 . S
C721 N723 1.384 . S
N722 C718 1.427 . S
N722 C719 1.384 . S
N723 C715 1.427 . S
N723 C721 1.384 . S
H724 C730 0.930 . S
H725 C734 0.930 . S
H726 C739 0.929 . S
H727 C737 0.929 . S
H728 C732 0.929 . S
H729 C738 0.929 . S
C730 H724 0.930 . S
C730 C731 1.367 . S
C730 C738 1.378 . S
C731 C730 1.367 . S
C731 C739 1.433 . S
C732 H728 0.929 . S
C732 C734 1.378 . S
C732 C736 1.350 . S
C733 C736 1.463 . S
C733 C738 1.350 . S
C733 N741 1.427 . S
C734 H725 0.930 . S
C734 C732 1.378 . S
C734 C735 1.367 . S
C735 C734 1.367 . S
C735 C737 1.433 . S
C736 C732 1.350 . S
C736 C733 1.463 . S
C736 N740 1.427 . S
C737 H727 0.929 . S
C737 C735 1.433 . S
C737 N740 1.384 . S
C738 H729 0.929 . S
C738 C730 1.378 . S
C738 C733 1.350 . S
C739 H726 0.929 . S
C739 C731 1.433 . S
C739 N741 1.384 . S
N740 C736 1.427 . S
N740 C737 1.384 . S
N741 C733 1.427 . S
N741 C739 1.384 . S
H742 C748 0.930 . S
H743 C752 0.930 . S
H744 C757 0.929 . S
H745 C755 0.929 . S
H746 C750 0.929 . S
H747 C756 0.929 . S
C748 H742 0.930 . S
C748 C749 1.367 . S
C748 C756 1.378 . S
C749 C748 1.367 . S
C749 C757 1.433 . S
C750 H746 0.929 . S
C750 C752 1.378 . S
C750 C754 1.350 . S
C751 C754 1.463 . S
C751 C756 1.350 . S
C751 N759 1.427 . S
C752 H743 0.930 . S
C752 C750 1.378 . S
C752 C753 1.367 . S
C753 C752 1.367 . S
C753 C755 1.433 . S
C754 C750 1.350 . S
C754 C751 1.463 . S
C754 N758 1.427 . S
C755 H745 0.929 . S
C755 C753 1.433 . S
C755 N758 1.384 . S
C756 H747 0.929 . S
C756 C748 1.378 . S
C756 C751 1.350 . S
C757 H744 0.929 . S
C757 C749 1.433 . S
C757 N759 1.384 . S
N758 C754 1.427 . S
N758 C755 1.384 . S
N759 C751 1.427 . S
N759 C757 1.384 . S
H760 C766 0.930 1_556 S
H761 C770 0.930 . S
H762 C775 0.929 . S
H763 C773 0.929 . S
H764 C768 0.929 . S
H765 C774 0.929 . S
C766 H760 0.930 1_554 S
C766 C767 1.367 . S
C766 C774 1.378 . S
C767 C766 1.367 . S
C767 C775 1.433 . S
C768 H764 0.929 . S
C768 C770 1.378 . S
C768 C772 1.350 . S
C769 C772 1.463 . S
C769 C774 1.350 . S
C769 N777 1.427 . S
C770 H761 0.930 . S
C770 C768 1.378 . S
C770 C771 1.367 . S
C771 C770 1.367 . S
C771 C773 1.433 . S
C772 C768 1.350 . S
C772 C769 1.463 . S
C772 N776 1.427 . S
C773 H763 0.929 . S
C773 C771 1.433 . S
C773 N776 1.384 . S
C774 H765 0.929 . S
C774 C766 1.378 . S
C774 C769 1.350 . S
C775 H762 0.929 . S
C775 C767 1.433 . S
C775 N777 1.384 . S
N776 C772 1.427 . S
N776 C773 1.384 . S
N777 C769 1.427 . S
N777 C775 1.384 . S
H778 C784 0.930 . S
H779 C788 0.930 . S
H780 C793 0.929 1_554 S
H781 C791 0.929 . S
H782 C786 0.929 . S
H783 C792 0.929 . S
C784 H778 0.930 . S
C784 C785 1.367 . S
C784 C792 1.378 . S
C785 C784 1.367 . S
C785 C793 1.433 . S
C786 H782 0.929 . S
C786 C788 1.378 . S
C786 C790 1.350 . S
C787 C790 1.463 . S
C787 C792 1.350 . S
C787 N795 1.427 . S
C788 H779 0.930 . S
C788 C786 1.378 . S
C788 C789 1.367 . S
C789 C788 1.367 . S
C789 C791 1.433 . S
C790 C786 1.350 . S
C790 C787 1.463 . S
C790 N794 1.427 . S
C791 H781 0.929 . S
C791 C789 1.433 . S
C791 N794 1.384 . S
C792 H783 0.929 . S
C792 C784 1.378 . S
C792 C787 1.350 . S
C793 H780 0.929 1_556 S
C793 C785 1.433 . S
C793 N795 1.384 . S
N794 C790 1.427 . S
N794 C791 1.384 . S
N795 C787 1.427 . S
N795 C793 1.384 . S
H796 C802 0.930 . S
H797 C806 0.930 . S
H798 C811 0.929 . S
H799 C809 0.929 . S
H800 C804 0.929 . S
H801 C810 0.929 . S
C802 H796 0.930 . S
C802 C803 1.367 . S
C802 C810 1.378 . S
C803 C802 1.367 . S
C803 C811 1.433 . S
C804 H800 0.929 . S
C804 C806 1.378 . S
C804 C808 1.350 . S
C805 C808 1.463 . S
C805 C810 1.350 . S
C805 N813 1.427 . S
C806 H797 0.930 . S
C806 C804 1.378 . S
C806 C807 1.367 . S
C807 C806 1.367 . S
C807 C809 1.433 . S
C808 C804 1.350 . S
C808 C805 1.463 . S
C808 N812 1.427 . S
C809 H799 0.929 . S
C809 C807 1.433 . S
C809 N812 1.384 . S
C810 H801 0.929 . S
C810 C802 1.378 . S
C810 C805 1.350 . S
C811 H798 0.929 . S
C811 C803 1.433 . S
C811 N813 1.384 . S
N812 C808 1.427 . S
N812 C809 1.384 . S
N813 C805 1.427 . S
N813 C811 1.384 . S
H814 C820 0.930 . S
H815 C824 0.930 . S
H816 C829 0.929 . S
H817 C827 0.929 . S
H818 C822 0.929 . S
H819 C828 0.929 . S
C820 H814 0.930 . S
C820 C821 1.367 . S
C820 C828 1.378 . S
C821 C820 1.367 . S
C821 C829 1.433 . S
C822 H818 0.929 . S
C822 C824 1.378 . S
C822 C826 1.350 . S
C823 C826 1.463 . S
C823 C828 1.350 . S
C823 N831 1.427 . S
C824 H815 0.930 . S
C824 C822 1.378 . S
C824 C825 1.367 . S
C825 C824 1.367 . S
C825 C827 1.433 . S
C826 C822 1.350 . S
C826 C823 1.463 . S
C826 N830 1.427 . S
C827 H817 0.929 . S
C827 C825 1.433 . S
C827 N830 1.384 . S
C828 H819 0.929 . S
C828 C820 1.378 . S
C828 C823 1.350 . S
C829 H816 0.929 . S
C829 C821 1.433 . S
C829 N831 1.384 . S
N830 C826 1.427 . S
N830 C827 1.384 . S
N831 C823 1.427 . S
N831 C829 1.384 . S
H832 C838 0.930 . S
H833 C842 0.930 1_655 S
H834 C847 0.929 1_655 S
H835 C845 0.929 . S
H836 C840 0.929 1_655 S
H837 C846 0.929 . S
C838 H832 0.930 . S
C838 C839 1.367 . S
C838 C846 1.378 . S
C839 C838 1.367 . S
C839 C847 1.433 . S
C840 H836 0.929 1_455 S
C840 C842 1.378 . S
C840 C844 1.350 . S
C841 C844 1.463 1_544 S
C841 C846 1.350 . S
C841 N849 1.427 . S
C842 H833 0.930 1_455 S
C842 C840 1.378 . S
C842 C843 1.367 . S
C843 C842 1.367 . S
C843 C845 1.433 . S
C844 C840 1.350 . S
C844 C841 1.463 1_566 S
C844 N848 1.427 . S
C845 H835 0.929 . S
C845 C843 1.433 . S
C845 N848 1.384 . S
C846 H837 0.929 . S
C846 C838 1.378 . S
C846 C841 1.350 . S
C847 H834 0.929 1_455 S
C847 C839 1.433 . S
C847 N849 1.384 . S
N848 C844 1.427 . S
N848 C845 1.384 . S
N849 C841 1.427 . S
N849 C847 1.384 . S
H850 C856 0.930 . S
H851 C860 0.930 . S
H852 C865 0.929 . S
H853 C863 0.929 . S
H854 C858 0.929 . S
H855 C864 0.929 . S
C856 H850 0.930 . S
C856 C857 1.367 . S
C856 C864 1.378 . S
C857 C856 1.367 . S
C857 C865 1.433 . S
C858 H854 0.929 . S
C858 C860 1.378 . S
C858 C862 1.350 . S
C859 C862 1.463 . S
C859 C864 1.350 . S
C859 N867 1.427 . S
C860 H851 0.930 . S
C860 C858 1.378 . S
C860 C861 1.367 . S
C861 C860 1.367 . S
C861 C863 1.433 . S
C862 C858 1.350 . S
C862 C859 1.463 . S
C862 N866 1.427 . S
C863 H853 0.929 . S
C863 C861 1.433 . S
C863 N866 1.384 . S
C864 H855 0.929 . S
C864 C856 1.378 . S
C864 C859 1.350 . S
C865 H852 0.929 . S
C865 C857 1.433 . S
C865 N867 1.384 . S
N866 C862 1.427 . S
N866 C863 1.384 . S
N867 C859 1.427 . S
N867 C865 1.384 . S
H868 C874 0.930 . S
H869 C878 0.930 . S
H870 C883 0.929 . S
H871 C881 0.929 . S
H872 C876 0.929 . S
H873 C882 0.929 . S
C874 H868 0.930 . S
C874 C875 1.367 . S
C874 C882 1.378 . S
C875 C874 1.367 . S
C875 C883 1.433 . S
C876 H872 0.929 . S
C876 C878 1.378 . S
C876 C880 1.350 . S
C877 C880 1.463 1_545 S
C877 C882 1.350 . S
C877 N885 1.427 . S
C878 H869 0.930 . S
C878 C876 1.378 . S
C878 C879 1.367 . S
C879 C878 1.367 . S
C879 C881 1.433 . S
C880 C876 1.350 . S
C880 C877 1.463 1_565 S
C880 N884 1.427 . S
C881 H871 0.929 . S
C881 C879 1.433 . S
C881 N884 1.384 . S
C882 H873 0.929 . S
C882 C874 1.378 . S
C882 C877 1.350 . S
C883 H870 0.929 . S
C883 C875 1.433 . S
C883 N885 1.384 . S
N884 C880 1.427 . S
N884 C881 1.384 . S
N885 C877 1.427 . S
N885 C883 1.384 . S
H886 C892 0.930 . S
H887 C896 0.930 . S
H888 C901 0.929 . S
H889 C899 0.929 . S
H890 C894 0.929 . S
H891 C900 0.929 . S
C892 H886 0.930 . S
C892 C893 1.367 . S
C892 C900 1.378 . S
C893 C892 1.367 . S
C893 C901 1.433 . S
C894 H890 0.929 . S
C894 C896 1.378 . S
C894 C898 1.350 . S
C895 C898 1.463 . S
C895 C900 1.350 . S
C895 N903 1.427 . S
C896 H887 0.930 . S
C896 C894 1.378 . S
C896 C897 1.367 . S
C897 C896 1.367 . S
C897 C899 1.433 . S
C898 C894 1.350 . S
C898 C895 1.463 . S
C898 N902 1.427 . S
C899 H889 0.929 . S
C899 C897 1.433 . S
C899 N902 1.384 . S
C900 H891 0.929 . S
C900 C892 1.378 . S
C900 C895 1.350 . S
C901 H888 0.929 . S
C901 C893 1.433 . S
C901 N903 1.384 . S
N902 C898 1.427 . S
N902 C899 1.384 . S
N903 C895 1.427 . S
N903 C901 1.384 . S
H904 C910 0.930 . S
H905 C914 0.930 . S
H906 C919 0.929 . S
H907 C917 0.929 . S
H908 C912 0.929 . S
H909 C918 0.929 . S
C910 H904 0.930 . S
C910 C911 1.367 . S
C910 C918 1.378 . S
C911 C910 1.367 . S
C911 C919 1.433 . S
C912 H908 0.929 . S
C912 C914 1.378 . S
C912 C916 1.350 . S
C913 C916 1.463 . S
C913 C918 1.350 . S
C913 N921 1.427 . S
C914 H905 0.930 . S
C914 C912 1.378 . S
C914 C915 1.367 . S
C915 C914 1.367 . S
C915 C917 1.433 . S
C916 C912 1.350 . S
C916 C913 1.463 . S
C916 N920 1.427 . S
C917 H907 0.929 . S
C917 C915 1.433 . S
C917 N920 1.384 . S
C918 H909 0.929 . S
C918 C910 1.378 . S
C918 C913 1.350 . S
C919 H906 0.929 . S
C919 C911 1.433 . S
C919 N921 1.384 . S
N920 C916 1.427 . S
N920 C917 1.384 . S
N921 C913 1.427 . S
N921 C919 1.384 . S
H922 C928 0.930 . S
H923 C932 0.930 . S
H924 C937 0.929 . S
H925 C935 0.929 . S
H926 C930 0.929 . S
H927 C936 0.929 . S
C928 H922 0.930 . S
C928 C929 1.367 . S
C928 C936 1.378 . S
C929 C928 1.367 . S
C929 C937 1.433 . S
C930 H926 0.929 . S
C930 C932 1.378 . S
C930 C934 1.350 . S
C931 C934 1.463 . S
C931 C936 1.350 . S
C931 N939 1.427 . S
C932 H923 0.930 . S
C932 C930 1.378 . S
C932 C933 1.367 . S
C933 C932 1.367 . S
C933 C935 1.433 . S
C934 C930 1.350 . S
C934 C931 1.463 . S
C934 N938 1.427 . S
C935 H925 0.929 . S
C935 C933 1.433 . S
C935 N938 1.384 . S
C936 H927 0.929 . S
C936 C928 1.378 . S
C936 C931 1.350 . S
C937 H924 0.929 . S
C937 C929 1.433 . S
C937 N939 1.384 . S
N938 C934 1.427 . S
N938 C935 1.384 . S
N939 C931 1.427 . S
N939 C937 1.384 . S
H940 C946 0.930 . S
H941 C950 0.930 . S
H942 C955 0.929 . S
H943 C953 0.929 . S
H944 C948 0.929 . S
H945 C954 0.929 . S
C946 H940 0.930 . S
C946 C947 1.367 . S
C946 C954 1.378 . S
C947 C946 1.367 . S
C947 C955 1.433 . S
C948 H944 0.929 . S
C948 C950 1.378 . S
C948 C952 1.350 . S
C949 C952 1.463 . S
C949 C954 1.350 . S
C949 N957 1.427 . S
C950 H941 0.930 . S
C950 C948 1.378 . S
C950 C951 1.367 . S
C951 C950 1.367 . S
C951 C953 1.433 . S
C952 C948 1.350 . S
C952 C949 1.463 . S
C952 N956 1.427 . S
C953 H943 0.929 . S
C953 C951 1.433 . S
C953 N956 1.384 . S
C954 H945 0.929 . S
C954 C946 1.378 . S
C954 C949 1.350 . S
C955 H942 0.929 . S
C955 C947 1.433 . S
C955 N957 1.384 . S
N956 C952 1.427 . S
N956 C953 1.384 . S
N957 C949 1.427 . S
N957 C955 1.384 . S
H958 C964 0.930 . S
H959 C968 0.930 . S
H960 C973 0.929 . S
H961 C971 0.929 . S
H962 C966 0.929 . S
H963 C972 0.929 . S
C964 H958 0.930 . S
C964 C965 1.367 . S
C964 C972 1.378 . S
C965 C964 1.367 . S
C965 C973 1.433 1_455 S
C966 H962 0.929 . S
C966 C968 1.378 . S
C966 C970 1.350 1_655 S
C967 C970 1.463 1_556 S
C967 C972 1.350 . S
C967 N975 1.427 1_455 S
C968 H959 0.930 . S
C968 C966 1.378 . S
C968 C969 1.367 1_655 S
C969 C968 1.367 1_455 S
C969 C971 1.433 . S
C970 C966 1.350 1_455 S
C970 C967 1.463 1_554 S
C970 N974 1.427 . S
C971 H961 0.929 . S
C971 C969 1.433 . S
C971 N974 1.384 . S
C972 H963 0.929 . S
C972 C964 1.378 . S
C972 C967 1.350 . S
C973 H960 0.929 . S
C973 C965 1.433 1_655 S
C973 N975 1.384 . S
N974 C970 1.427 . S
N974 C971 1.384 . S
N975 C967 1.427 1_655 S
N975 C973 1.384 . S
H976 C982 0.930 . S
H977 C986 0.930 . S
H978 C991 0.929 . S
H979 C989 0.929 . S
H980 C984 0.929 . S
H981 C990 0.929 . S
C982 H976 0.930 . S
C982 C983 1.367 . S
C982 C990 1.378 . S
C983 C982 1.367 . S
C983 C991 1.433 1_455 S
C984 H980 0.929 . S
C984 C986 1.378 . S
C984 C988 1.350 1_655 S
C985 C988 1.463 . S
C985 C990 1.350 . S
C985 N993 1.427 1_455 S
C986 H977 0.930 . S
C986 C984 1.378 . S
C986 C987 1.367 1_655 S
C987 C986 1.367 1_455 S
C987 C989 1.433 . S
C988 C984 1.350 1_455 S
C988 C985 1.463 . S
C988 N992 1.427 . S
C989 H979 0.929 . S
C989 C987 1.433 . S
C989 N992 1.384 . S
C990 H981 0.929 . S
C990 C982 1.378 . S
C990 C985 1.350 . S
C991 H978 0.929 . S
C991 C983 1.433 1_655 S
C991 N993 1.384 . S
N992 C988 1.427 . S
N992 C989 1.384 . S
N993 C985 1.427 1_655 S
N993 C991 1.384 . S
H994 C1000 0.930 . S
H995 C1004 0.930 . S
H996 C1009 0.929 . S
H997 C1007 0.929 . S
H998 C1002 0.929 . S
H999 C1008 0.929 . S
C1000 H994 0.930 . S
C1000 C1001 1.367 . S
C1000 C1008 1.378 . S
C1001 C1000 1.367 . S
C1001 C1009 1.433 . S
C1002 H998 0.929 . S
C1002 C1004 1.378 . S
C1002 C1006 1.350 . S
C1003 C1006 1.463 . S
C1003 C1008 1.350 1_556 S
C1003 N1011 1.427 1_556 S
C1004 H995 0.930 . S
C1004 C1002 1.378 . S
C1004 C1005 1.367 . S
C1005 C1004 1.367 . S
C1005 C1007 1.433 . S
C1006 C1002 1.350 . S
C1006 C1003 1.463 . S
C1006 N1010 1.427 . S
C1007 H997 0.929 . S
C1007 C1005 1.433 . S
C1007 N1010 1.384 . S
C1008 H999 0.929 . S
C1008 C1000 1.378 . S
C1008 C1003 1.350 1_554 S
C1009 H996 0.929 . S
C1009 C1001 1.433 . S
C1009 N1011 1.384 . S
N1010 C1006 1.427 . S
N1010 C1007 1.384 . S
N1011 C1003 1.427 1_554 S
N1011 C1009 1.384 . S
H1012 C1018 0.930 1_556 S
H1013 C1022 0.930 . S
H1014 C1027 0.929 . S
H1015 C1025 0.929 . S
H1016 C1020 0.929 . S
H1017 C1026 0.929 . S
C1018 H1012 0.930 1_554 S
C1018 C1019 1.367 . S
C1018 C1026 1.378 . S
C1019 C1018 1.367 . S
C1019 C1027 1.433 . S
C1020 H1016 0.929 . S
C1020 C1022 1.378 . S
C1020 C1024 1.350 . S
C1021 C1024 1.463 . S
C1021 C1026 1.350 . S
C1021 N1029 1.427 . S
C1022 H1013 0.930 . S
C1022 C1020 1.378 . S
C1022 C1023 1.367 . S
C1023 C1022 1.367 . S
C1023 C1025 1.433 . S
C1024 C1020 1.350 . S
C1024 C1021 1.463 . S
C1024 N1028 1.427 . S
C1025 H1015 0.929 . S
C1025 C1023 1.433 . S
C1025 N1028 1.384 . S
C1026 H1017 0.929 . S
C1026 C1018 1.378 . S
C1026 C1021 1.350 . S
C1027 H1014 0.929 . S
C1027 C1019 1.433 . S
C1027 N1029 1.384 . S
N1028 C1024 1.427 . S
N1028 C1025 1.384 . S
N1029 C1021 1.427 . S
N1029 C1027 1.384 . S
H1030 C1036 0.930 . S
H1031 C1040 0.930 . S
H1032 C1045 0.929 . S
H1033 C1043 0.929 . S
H1034 C1038 0.929 . S
H1035 C1044 0.929 . S
C1036 H1030 0.930 . S
C1036 C1037 1.367 . S
C1036 C1044 1.378 . S
C1037 C1036 1.367 . S
C1037 C1045 1.433 . S
C1038 H1034 0.929 . S
C1038 C1040 1.378 . S
C1038 C1042 1.350 . S
C1039 C1042 1.463 . S
C1039 C1044 1.350 . S
C1039 N1047 1.427 . S
C1040 H1031 0.930 . S
C1040 C1038 1.378 . S
C1040 C1041 1.367 . S
C1041 C1040 1.367 . S
C1041 C1043 1.433 . S
C1042 C1038 1.350 . S
C1042 C1039 1.463 . S
C1042 N1046 1.427 . S
C1043 H1033 0.929 . S
C1043 C1041 1.433 . S
C1043 N1046 1.384 . S
C1044 H1035 0.929 . S
C1044 C1036 1.378 . S
C1044 C1039 1.350 . S
C1045 H1032 0.929 . S
C1045 C1037 1.433 . S
C1045 N1047 1.384 . S
N1046 C1042 1.427 . S
N1046 C1043 1.384 . S
N1047 C1039 1.427 . S
N1047 C1045 1.384 . S
H1048 C1054 0.930 . S
H1049 C1058 0.930 . S
H1050 C1063 0.929 . S
H1051 C1061 0.929 . S
H1052 C1056 0.929 . S
H1053 C1062 0.929 . S
C1054 H1048 0.930 . S
C1054 C1055 1.367 1_655 S
C1054 C1062 1.378 . S
C1055 C1054 1.367 1_455 S
C1055 C1063 1.433 . S
C1056 H1052 0.929 . S
C1056 C1058 1.378 . S
C1056 C1060 1.350 . S
C1057 C1060 1.463 . S
C1057 C1062 1.350 1_455 S
C1057 N1065 1.427 . S
C1058 H1049 0.930 . S
C1058 C1056 1.378 . S
C1058 C1059 1.367 . S
C1059 C1058 1.367 . S
C1059 C1061 1.433 1_455 S
C1060 C1056 1.350 . S
C1060 C1057 1.463 . S
C1060 N1064 1.427 1_455 S
C1061 H1051 0.929 . S
C1061 C1059 1.433 1_655 S
C1061 N1064 1.384 . S
C1062 H1053 0.929 . S
C1062 C1054 1.378 . S
C1062 C1057 1.350 1_655 S
C1063 H1050 0.929 . S
C1063 C1055 1.433 . S
C1063 N1065 1.384 . S
N1064 C1060 1.427 1_655 S
N1064 C1061 1.384 . S
N1065 C1057 1.427 . S
N1065 C1063 1.384 . S
H1066 C1072 0.930 . S
H1067 C1076 0.930 . S
H1068 C1081 0.929 . S
H1069 C1079 0.929 . S
H1070 C1074 0.929 . S
H1071 C1080 0.929 . S
C1072 H1066 0.930 . S
C1072 C1073 1.367 . S
C1072 C1080 1.378 . S
C1073 C1072 1.367 . S
C1073 C1081 1.433 . S
C1074 H1070 0.929 . S
C1074 C1076 1.378 . S
C1074 C1078 1.350 . S
C1075 C1078 1.463 . S
C1075 C1080 1.350 . S
C1075 N1083 1.427 . S
C1076 H1067 0.930 . S
C1076 C1074 1.378 . S
C1076 C1077 1.367 . S
C1077 C1076 1.367 . S
C1077 C1079 1.433 . S
C1078 C1074 1.350 . S
C1078 C1075 1.463 . S
C1078 N1082 1.427 . S
C1079 H1069 0.929 . S
C1079 C1077 1.433 . S
C1079 N1082 1.384 . S
C1080 H1071 0.929 . S
C1080 C1072 1.378 . S
C1080 C1075 1.350 . S
C1081 H1068 0.929 . S
C1081 C1073 1.433 . S
C1081 N1083 1.384 . S
N1082 C1078 1.427 . S
N1082 C1079 1.384 . S
N1083 C1075 1.427 . S
N1083 C1081 1.384 . S
H1084 C1090 0.930 . S
H1085 C1094 0.930 . S
H1086 C1099 0.929 . S
H1087 C1097 0.929 1_554 S
H1088 C1092 0.929 . S
H1089 C1098 0.929 . S
C1090 H1084 0.930 . S
C1090 C1091 1.367 . S
C1090 C1098 1.378 . S
C1091 C1090 1.367 . S
C1091 C1099 1.433 . S
C1092 H1088 0.929 . S
C1092 C1094 1.378 . S
C1092 C1096 1.350 . S
C1093 C1096 1.463 . S
C1093 C1098 1.350 . S
C1093 N1101 1.427 . S
C1094 H1085 0.930 . S
C1094 C1092 1.378 . S
C1094 C1095 1.367 . S
C1095 C1094 1.367 . S
C1095 C1097 1.433 . S
C1096 C1092 1.350 . S
C1096 C1093 1.463 . S
C1096 N1100 1.427 . S
C1097 H1087 0.929 1_556 S
C1097 C1095 1.433 . S
C1097 N1100 1.384 . S
C1098 H1089 0.929 . S
C1098 C1090 1.378 . S
C1098 C1093 1.350 . S
C1099 H1086 0.929 . S
C1099 C1091 1.433 . S
C1099 N1101 1.384 . S
N1100 C1096 1.427 . S
N1100 C1097 1.384 . S
N1101 C1093 1.427 . S
N1101 C1099 1.384 . S
H1102 C1108 0.930 . S
H1103 C1112 0.930 . S
H1104 C1117 0.929 . S
H1105 C1115 0.929 . S
H1106 C1110 0.929 . S
H1107 C1116 0.929 1_554 S
C1108 H1102 0.930 . S
C1108 C1109 1.367 . S
C1108 C1116 1.378 . S
C1109 C1108 1.367 . S
C1109 C1117 1.433 . S
C1110 H1106 0.929 . S
C1110 C1112 1.378 . S
C1110 C1114 1.350 . S
C1111 C1114 1.463 . S
C1111 C1116 1.350 1_554 S
C1111 N1119 1.427 1_554 S
C1112 H1103 0.930 . S
C1112 C1110 1.378 . S
C1112 C1113 1.367 . S
C1113 C1112 1.367 . S
C1113 C1115 1.433 . S
C1114 C1110 1.350 . S
C1114 C1111 1.463 . S
C1114 N1118 1.427 . S
C1115 H1105 0.929 . S
C1115 C1113 1.433 . S
C1115 N1118 1.384 . S
C1116 H1107 0.929 1_556 S
C1116 C1108 1.378 . S
C1116 C1111 1.350 1_556 S
C1117 H1104 0.929 . S
C1117 C1109 1.433 . S
C1117 N1119 1.384 . S
N1118 C1114 1.427 . S
N1118 C1115 1.384 . S
N1119 C1111 1.427 1_556 S
N1119 C1117 1.384 . S
H1120 C1126 0.930 . S
H1121 C1130 0.930 . S
H1122 C1135 0.929 . S
H1123 C1133 0.929 . S
H1124 C1128 0.929 . S
H1125 C1134 0.929 . S
C1126 H1120 0.930 . S
C1126 C1127 1.367 . S
C1126 C1134 1.378 . S
C1127 C1126 1.367 . S
C1127 C1135 1.433 . S
C1128 H1124 0.929 . S
C1128 C1130 1.378 . S
C1128 C1132 1.350 1_556 S
C1129 C1132 1.463 . S
C1129 C1134 1.350 . S
C1129 N1137 1.427 . S
C1130 H1121 0.930 . S
C1130 C1128 1.378 . S
C1130 C1131 1.367 . S
C1131 C1130 1.367 . S
C1131 C1133 1.433 . S
C1132 C1128 1.350 1_554 S
C1132 C1129 1.463 . S
C1132 N1136 1.427 1_554 S
C1133 H1123 0.929 . S
C1133 C1131 1.433 . S
C1133 N1136 1.384 . S
C1134 H1125 0.929 . S
C1134 C1126 1.378 . S
C1134 C1129 1.350 . S
C1135 H1122 0.929 . S
C1135 C1127 1.433 . S
C1135 N1137 1.384 . S
N1136 C1132 1.427 1_556 S
N1136 C1133 1.384 . S
N1137 C1129 1.427 . S
N1137 C1135 1.384 . S
H1138 C1144 0.930 . S
H1139 C1148 0.930 . S
H1140 C1153 0.929 . S
H1141 C1151 0.929 . S
H1142 C1146 0.929 . S
H1143 C1152 0.929 . S
C1144 H1138 0.930 . S
C1144 C1145 1.367 . S
C1144 C1152 1.378 . S
C1145 C1144 1.367 . S
C1145 C1153 1.433 . S
C1146 H1142 0.929 . S
C1146 C1148 1.378 . S
C1146 C1150 1.350 . S
C1147 C1150 1.463 . S
C1147 C1152 1.350 . S
C1147 N1155 1.427 . S
C1148 H1139 0.930 . S
C1148 C1146 1.378 . S
C1148 C1149 1.367 . S
C1149 C1148 1.367 . S
C1149 C1151 1.433 . S
C1150 C1146 1.350 . S
C1150 C1147 1.463 . S
C1150 N1154 1.427 . S
C1151 H1141 0.929 . S
C1151 C1149 1.433 . S
C1151 N1154 1.384 . S
C1152 H1143 0.929 . S
C1152 C1144 1.378 . S
C1152 C1147 1.350 . S
C1153 H1140 0.929 . S
C1153 C1145 1.433 . S
C1153 N1155 1.384 . S
N1154 C1150 1.427 . S
N1154 C1151 1.384 . S
N1155 C1147 1.427 . S
N1155 C1153 1.384 . S
H1156 C1162 0.930 . S
H1157 C1166 0.930 . S
H1158 C1171 0.929 . S
H1159 C1169 0.929 . S
H1160 C1164 0.929 . S
H1161 C1170 0.929 . S
C1162 H1156 0.930 . S
C1162 C1163 1.367 . S
C1162 C1170 1.378 . S
C1163 C1162 1.367 . S
C1163 C1171 1.433 . S
C1164 H1160 0.929 . S
C1164 C1166 1.378 . S
C1164 C1168 1.350 . S
C1165 C1168 1.463 . S
C1165 C1170 1.350 . S
C1165 N1173 1.427 . S
C1166 H1157 0.930 . S
C1166 C1164 1.378 . S
C1166 C1167 1.367 . S
C1167 C1166 1.367 . S
C1167 C1169 1.433 . S
C1168 C1164 1.350 . S
C1168 C1165 1.463 . S
C1168 N1172 1.427 . S
C1169 H1159 0.929 . S
C1169 C1167 1.433 . S
C1169 N1172 1.384 . S
C1170 H1161 0.929 . S
C1170 C1162 1.378 . S
C1170 C1165 1.350 . S
C1171 H1158 0.929 . S
C1171 C1163 1.433 . S
C1171 N1173 1.384 . S
N1172 C1168 1.427 . S
N1172 C1169 1.384 . S
N1173 C1165 1.427 . S
N1173 C1171 1.384 . S
H1174 C1180 0.930 . S
H1175 C1184 0.930 . S
H1176 C1189 0.929 . S
H1177 C1187 0.929 . S
H1178 C1182 0.929 . S
H1179 C1188 0.929 . S
C1180 H1174 0.930 . S
C1180 C1181 1.367 . S
C1180 C1188 1.378 . S
C1181 C1180 1.367 . S
C1181 C1189 1.433 . S
C1182 H1178 0.929 . S
C1182 C1184 1.378 . S
C1182 C1186 1.350 . S
C1183 C1186 1.463 . S
C1183 C1188 1.350 1_556 S
C1183 N1191 1.427 1_556 S
C1184 H1175 0.930 . S
C1184 C1182 1.378 . S
C1184 C1185 1.367 . S
C1185 C1184 1.367 . S
C1185 C1187 1.433 . S
C1186 C1182 1.350 . S
C1186 C1183 1.463 . S
C1186 N1190 1.427 . S
C1187 H1177 0.929 . S
C1187 C1185 1.433 . S
C1187 N1190 1.384 . S
C1188 H1179 0.929 . S
C1188 C1180 1.378 . S
C1188 C1183 1.350 1_554 S
C1189 H1176 0.929 . S
C1189 C1181 1.433 . S
C1189 N1191 1.384 . S
N1190 C1186 1.427 . S
N1190 C1187 1.384 . S
N1191 C1183 1.427 1_554 S
N1191 C1189 1.384 . S
H1192 C1198 0.930 . S
H1193 C1202 0.930 1_556 S
H1194 C1207 0.929 . S
H1195 C1205 0.929 . S
H1196 C1200 0.929 . S
H1197 C1206 0.929 . S
C1198 H1192 0.930 . S
C1198 C1199 1.367 . S
C1198 C1206 1.378 . S
C1199 C1198 1.367 . S
C1199 C1207 1.433 . S
C1200 H1196 0.929 . S
C1200 C1202 1.378 . S
C1200 C1204 1.350 . S
C1201 C1204 1.463 . S
C1201 C1206 1.350 . S
C1201 N1209 1.427 . S
C1202 H1193 0.930 1_554 S
C1202 C1200 1.378 . S
C1202 C1203 1.367 . S
C1203 C1202 1.367 . S
C1203 C1205 1.433 . S
C1204 C1200 1.350 . S
C1204 C1201 1.463 . S
C1204 N1208 1.427 . S
C1205 H1195 0.929 . S
C1205 C1203 1.433 . S
C1205 N1208 1.384 . S
C1206 H1197 0.929 . S
C1206 C1198 1.378 . S
C1206 C1201 1.350 . S
C1207 H1194 0.929 . S
C1207 C1199 1.433 . S
C1207 N1209 1.384 . S
N1208 C1204 1.427 . S
N1208 C1205 1.384 . S
N1209 C1201 1.427 . S
N1209 C1207 1.384 . S
H1210 C1216 0.930 . S
H1211 C1220 0.930 . S
H1212 C1225 0.929 . S
H1213 C1223 0.929 . S
H1214 C1218 0.929 . S
H1215 C1224 0.929 . S
C1216 H1210 0.930 . S
C1216 C1217 1.367 . S
C1216 C1224 1.378 . S
C1217 C1216 1.367 . S
C1217 C1225 1.433 . S
C1218 H1214 0.929 . S
C1218 C1220 1.378 . S
C1218 C1222 1.350 . S
C1219 C1222 1.463 . S
C1219 C1224 1.350 . S
C1219 N1227 1.427 . S
C1220 H1211 0.930 . S
C1220 C1218 1.378 . S
C1220 C1221 1.367 . S
C1221 C1220 1.367 . S
C1221 C1223 1.433 . S
C1222 C1218 1.350 . S
C1222 C1219 1.463 . S
C1222 N1226 1.427 . S
C1223 H1213 0.929 . S
C1223 C1221 1.433 . S
C1223 N1226 1.384 . S
C1224 H1215 0.929 . S
C1224 C1216 1.378 . S
C1224 C1219 1.350 . S
C1225 H1212 0.929 . S
C1225 C1217 1.433 . S
C1225 N1227 1.384 . S
N1226 C1222 1.427 . S
N1226 C1223 1.384 . S
N1227 C1219 1.427 . S
N1227 C1225 1.384 . S
H1228 C1234 0.930 . S
H1229 C1238 0.930 . S
H1230 C1243 0.929 . S
H1231 C1241 0.929 . S
H1232 C1236 0.929 . S
H1233 C1242 0.929 . S
C1234 H1228 0.930 . S
C1234 C1235 1.367 . S
C1234 C1242 1.378 . S
C1235 C1234 1.367 . S
C1235 C1243 1.433 . S
C1236 H1232 0.929 . S
C1236 C1238 1.378 . S
C1236 C1240 1.350 . S
C1237 C1240 1.463 . S
C1237 C1242 1.350 . S
C1237 N1245 1.427 . S
C1238 H1229 0.930 . S
C1238 C1236 1.378 . S
C1238 C1239 1.367 . S
C1239 C1238 1.367 . S
C1239 C1241 1.433 . S
C1240 C1236 1.350 . S
C1240 C1237 1.463 . S
C1240 N1244 1.427 . S
C1241 H1231 0.929 . S
C1241 C1239 1.433 . S
C1241 N1244 1.384 . S
C1242 H1233 0.929 . S
C1242 C1234 1.378 . S
C1242 C1237 1.350 . S
C1243 H1230 0.929 . S
C1243 C1235 1.433 . S
C1243 N1245 1.384 . S
N1244 C1240 1.427 . S
N1244 C1241 1.384 . S
N1245 C1237 1.427 . S
N1245 C1243 1.384 . S
H1246 C1252 0.930 . S
H1247 C1256 0.930 . S
H1248 C1261 0.929 . S
H1249 C1259 0.929 . S
H1250 C1254 0.929 . S
H1251 C1260 0.929 . S
C1252 H1246 0.930 . S
C1252 C1253 1.367 . S
C1252 C1260 1.378 . S
C1253 C1252 1.367 . S
C1253 C1261 1.433 . S
C1254 H1250 0.929 . S
C1254 C1256 1.378 . S
C1254 C1258 1.350 . S
C1255 C1258 1.463 . S
C1255 C1260 1.350 . S
C1255 N1263 1.427 . S
C1256 H1247 0.930 . S
C1256 C1254 1.378 . S
C1256 C1257 1.367 . S
C1257 C1256 1.367 . S
C1257 C1259 1.433 . S
C1258 C1254 1.350 . S
C1258 C1255 1.463 . S
C1258 N1262 1.427 . S
C1259 H1249 0.929 . S
C1259 C1257 1.433 . S
C1259 N1262 1.384 . S
C1260 H1251 0.929 . S
C1260 C1252 1.378 . S
C1260 C1255 1.350 . S
C1261 H1248 0.929 . S
C1261 C1253 1.433 . S
C1261 N1263 1.384 . S
N1262 C1258 1.427 . S
N1262 C1259 1.384 . S
N1263 C1255 1.427 . S
N1263 C1261 1.384 . S
C551 C271 1.220 . S
C555 C33 1.213 . S
C569 C67 1.215 . S
C573 C169 1.221 . S
C587 C101 1.218 . S
C591 C203 1.212 . S
C605 C237 1.213 . S
C609 C135 1.220 . S
C623 C376 1.662 . S
C627 C138 1.661 . S
C641 C274 1.662 . S
C645 C2 1.662 . S
C659 C206 1.667 . S
C663 C342 1.667 . S
C677 C70 1.660 . S
C681 C308 1.660 . S
C695 C339 1.216 . S
C699 C441 1.221 . S
C713 C509 1.215 . S
C717 C373 1.221 . S
C731 C475 1.216 . S
C735 C305 1.221 . S
C749 C407 1.212 . S
C753 C543 1.216 . S
C767 C104 1.666 . S
C771 C478 1.665 . S
C785 C172 1.661 . S
C789 C410 1.661 . S
C803 C36 1.659 . S
C807 C512 1.659 . S
C821 C240 1.659 . S
C825 C444 1.659 . S
C839 C20 1.678 . S
C843 C156 1.672 . S
C857 C190 1.683 . S
C861 C54 1.679 . S
C875 C224 1.670 . S
C879 C88 1.671 . S
C893 C122 1.679 . S
C897 C258 1.673 . S
C911 C360 1.680 . S
C915 C292 1.675 . S
C929 C326 1.671 . S
C933 C394 1.677 . S
C947 C428 1.676 . S
C951 C496 1.681 . S
C965 C530 1.681 . S
C969 C462 1.682 . S
C983 C9 0.824 . S
C987 C5 0.846 . S
C1001 C43 0.822 . S
C1005 C39 0.849 . S
C1019 C73 0.846 1_554 S
C1023 C77 0.834 . S
C1037 C107 0.846 . S
C1041 C111 0.824 . S
C1055 C141 0.845 . S
C1059 C145 0.825 . S
C1073 C175 0.850 . S
C1077 C179 0.842 . S
C1091 C213 0.857 . S
C1095 C209 0.871 1_556 S
C1109 C247 0.827 . S
C1113 C243 0.857 . S
C1127 C277 0.849 . S
C1131 C281 0.841 . S
C1145 C311 0.846 . S
C1149 C315 0.833 . S
C1163 C349 0.823 . S
C1167 C345 0.847 . S
C1181 C383 0.823 . S
C1185 C379 0.847 . S
C1199 C417 0.841 . S
C1203 C413 0.849 1_554 S
C1217 C451 0.827 . S
C1221 C447 0.845 . S
C1235 C485 0.828 . S
C1239 C481 0.858 1_556 S
C1253 C515 0.872 . S
C1257 C519 0.853 . S
