# Generated by pormake.
# Topology bcg, (8)-cn, num edge types: 1
# Building blocks:
#     Node 0, Type 0, BuildingBlock: LIZSOE_clean_sbu_0, # of connection points: 8
#     Node 1, Type 0, BuildingBlock: LIZSOE_clean_sbu_0, # of connection points: 8
#     Node 2, Type 0, BuildingBlock: LIZSOE_clean_sbu_0, # of connection points: 8
#     Node 3, Type 0, BuildingBlock: LIZSOE_clean_sbu_0, # of connection points: 8
#     Edge 4, Type (0, 0), BuildingBlock: XIVTED_clean_linker_0, # of connection points: 2
#     Edge 5, Type (0, 0), BuildingBlock: XIVTED_clean_linker_0, # of connection points: 2
#     Edge 6, Type (0, 0), BuildingBlock: XIVTED_clean_linker_0, # of connection points: 2
#     Edge 7, Type (0, 0), BuildingBlock: XIVTED_clean_linker_0, # of connection points: 2
#     Edge 8, Type (0, 0), BuildingBlock: XIVTED_clean_linker_0, # of connection points: 2
#     Edge 9, Type (0, 0), BuildingBlock: XIVTED_clean_linker_0, # of connection points: 2
#     Edge 10, Type (0, 0), BuildingBlock: XIVTED_clean_linker_0, # of connection points: 2
#     Edge 11, Type (0, 0), BuildingBlock: XIVTED_clean_linker_0, # of connection points: 2
#     Edge 12, Type (0, 0), BuildingBlock: XIVTED_clean_linker_0, # of connection points: 2
#     Edge 13, Type (0, 0), BuildingBlock: XIVTED_clean_linker_0, # of connection points: 2
#     Edge 14, Type (0, 0), BuildingBlock: XIVTED_clean_linker_0, # of connection points: 2
#     Edge 15, Type (0, 0), BuildingBlock: XIVTED_clean_linker_0, # of connection points: 2
#     Edge 16, Type (0, 0), BuildingBlock: XIVTED_clean_linker_0, # of connection points: 2
#     Edge 17, Type (0, 0), BuildingBlock: XIVTED_clean_linker_0, # of connection points: 2
#     Edge 18, Type (0, 0), BuildingBlock: XIVTED_clean_linker_0, # of connection points: 2
#     Edge 19, Type (0, 0), BuildingBlock: XIVTED_clean_linker_0, # of connection points: 2
# Relax obj value: 0.241
# Max RMSD: 0.310
# Mean RMSD: 0.310
data_MOF--net-bcg--node1-LIZSOE_clean_sbu_0--edge1-XIVTED_clean_linker_0
_symmetry_space_group_name_H-M    P1
_symmetry_Int_Tables_number       1
_symmetry_cell_setting            triclinic
loop_
_symmetry_equiv_pos_as_xyz
'x, y, z'
_cell_length_a     21.279561
_cell_length_b     22.774355
_cell_length_c     22.00699
_cell_angle_alpha  90.101573
_cell_angle_beta   90.628159
_cell_angle_gamma 90.294963
loop_
_atom_site_label
_atom_site_type_symbol
_atom_site_fract_x
_atom_site_fract_y
_atom_site_fract_z
_atom_type_partial_charge
Co0 Co 0.13291 0.32021 0.96445 0.0
N1 N 0.04474 0.31993 0.96852 0.0
C2 C 1.01256 0.34776 1.01257 0.0
N3 N 0.94482 0.28849 0.96737 0.0
C4 C 1.00108 0.28556 0.94023 0.0
C5 C 0.95172 0.32753 1.0128 0.0
Co6 Co 0.3918 0.22218 0.07647 0.0
N7 N 0.47539 0.19732 0.07513 0.0
N8 N 0.56866 0.15405 0.06216 0.0
C9 C 0.57595 0.19789 0.10265 0.0
C10 C 0.51893 0.22414 0.11054 0.0
C11 C 0.50718 0.1541 0.0463 0.0
Co12 Co 0.26563 0.28323 0.02054 0.0
C13 C 0.34744 0.19802 0.11029 0.0
H14 H 0.51011 0.26183 0.13902 0.0
O15 O 0.21416 0.32596 0.95599 0.0
O16 O 0.30982 0.25138 0.94747 0.0
O17 O 0.20446 0.21346 1.01754 0.0
O18 O 0.21974 0.31769 0.09207 0.0
O19 O 0.12916 0.30168 0.04783 0.0
O20 O 0.39352 0.2155 0.99167 0.0
O21 O 0.31507 0.24211 0.08591 0.0
O22 O 0.41592 0.30198 0.06677 0.0
O23 O 0.13333 0.2392 0.94705 0.0
O24 O 0.14225 0.39573 0.98784 0.0
O25 O 0.33185 0.34869 0.02436 0.0
O26 O 0.35898 0.14941 0.08122 0.0
C27 C 0.15847 0.20064 0.98123 0.0
C28 C 0.47852 0.1094 1.00399 0.0
H29 H 0.42669 0.11053 1.003 0.0
H30 H 0.49607 0.1167 0.95746 0.0
H31 H 0.49414 0.06492 1.01784 0.0
C32 C 0.36279 0.22681 0.94425 0.0
C33 C 0.16087 0.30982 0.09555 0.0
H34 H 0.03353 0.37659 0.04632 0.0
H35 H 0.9763 0.25192 0.85232 0.0
H36 H 1.00723 0.19923 0.9029 0.0
H37 H 0.05928 0.25167 0.86714 0.0
C38 C 1.01289 0.24516 0.88771 0.0
C39 C 0.16977 0.36612 0.94522 0.0
C40 C 0.38952 0.34795 0.0446 0.0
H41 H 0.91683 0.33676 0.04692 0.0
H42 H 0.62044 0.21271 0.12169 0.0
Co43 Co 0.6458 0.76799 0.99015 0.0
N44 N 0.59421 0.71789 0.03643 0.0
C45 C 0.61219 0.69937 0.09221 0.0
N46 N 0.51477 0.66871 0.08008 0.0
C47 C 0.53497 0.69696 0.02966 0.0
C48 C 0.56374 0.66992 0.11908 0.0
Co49 Co 0.89497 0.78157 0.06378 0.0
N50 N 0.97988 0.80424 0.06401 0.0
N51 N 0.08471 0.79879 0.07192 0.0
C52 C 0.06547 0.84388 0.10625 0.0
C53 C 1.00153 0.84697 0.1016 0.0
C54 C 0.03227 0.7762 0.04543 0.0
Co55 Co 0.75796 0.78433 1.01036 0.0
C56 C 0.87417 0.72862 0.0813 0.0
H57 H 0.9727 0.87508 0.1292 0.0
O58 O 0.69277 0.81706 0.9444 0.0
O59 O 0.81088 0.7609 0.9394 0.0
O60 O 0.72582 0.69872 1.01353 0.0
O61 O 0.70816 0.80814 0.08552 0.0
O62 O 0.62168 0.83013 0.03973 0.0
O63 O 0.89446 0.80247 0.97963 0.0
O64 O 0.81994 0.75642 0.07246 0.0
O65 O 0.87041 0.85828 0.08379 0.0
O66 O 0.66523 0.70612 0.93646 0.0
O67 O 0.58934 0.78914 0.94175 0.0
O68 O 0.79702 0.8672 1.01085 0.0
O69 O 0.9075 0.70717 0.03776 0.0
C70 C 0.69494 0.673 0.97121 0.0
C71 C 0.03261 0.72666 1.00031 0.0
H72 H 0.99546 0.73277 0.96537 0.0
H73 H 0.07871 0.72401 0.9774 0.0
H74 H 0.02391 0.6845 0.02401 0.0
C75 C 0.86594 0.78165 0.9338 0.0
C76 C 0.65451 0.83244 0.08688 0.0
H77 H 0.65698 0.70911 0.11354 0.0
H78 H 0.47777 0.75387 0.97513 0.0
H79 H 0.45334 0.6781 0.97258 0.0
H80 H 0.5223 0.70066 0.93271 0.0
C81 C 0.49461 0.70784 0.97446 0.0
C82 C 0.63532 0.81915 0.92026 0.0
C83 C 0.83802 0.89006 0.04781 0.0
H84 H 0.56218 0.65623 0.16614 0.0
H85 H 0.09498 0.86917 0.13713 0.0
Co86 Co 0.39137 0.8076 0.56951 0.0
N87 N 0.47935 0.80471 0.56806 0.0
C88 C 0.51411 0.83515 0.52774 0.0
N89 N 0.57882 0.77266 0.57132 0.0
C90 C 0.52105 0.76789 0.59527 0.0
C91 C 0.57471 0.81482 0.5289 0.0
Co92 Co 0.13211 0.71163 0.45639 0.0
N93 N 0.04806 0.68765 0.45681 0.0
N94 N 0.95443 0.64324 0.46612 0.0
C95 C 0.94682 0.69215 0.43274 0.0
C96 C 1.00402 0.71896 0.42688 0.0
C97 C 0.01642 0.64099 0.47987 0.0
Co98 Co 0.25871 0.77314 0.51165 0.0
C99 C 0.17745 0.68651 0.42216 0.0
H100 H 1.0127 0.75977 0.40334 0.0
O101 O 0.3103 0.81644 0.57553 0.0
O102 O 0.21205 0.74444 0.58442 0.0
O103 O 0.31643 0.70191 0.51757 0.0
O104 O 0.30725 0.80515 0.44088 0.0
O105 O 0.39638 0.78712 0.48691 0.0
O106 O 0.12979 0.70429 0.54073 0.0
O107 O 0.20916 0.73099 0.44719 0.0
O108 O 0.10952 0.79159 0.46765 0.0
O109 O 0.38668 0.7276 0.58909 0.0
O110 O 0.38591 0.88267 0.54408 0.0
O111 O 0.1955 0.83998 0.50481 0.0
O112 O 0.16369 0.63847 0.45124 0.0
C113 C 0.35992 0.68875 0.55611 0.0
C114 C 0.04671 0.58905 0.50995 0.0
H115 H 0.09241 0.60031 0.53135 0.0
H116 H 1.01523 0.56947 0.54435 0.0
H117 H 0.05508 0.55505 0.47481 0.0
C118 C 0.15947 0.71872 0.58804 0.0
C119 C 0.36596 0.79652 0.43865 0.0
H120 H 0.49535 0.86641 0.49545 0.0
H121 H 0.5465 0.71633 0.67372 0.0
H122 H 0.49575 0.68059 0.62071 0.0
H123 H 0.4649 0.73674 0.6705 0.0
C124 C 0.50554 0.72328 0.64303 0.0
C125 C 0.3493 0.86145 0.5855 0.0
C126 C 0.13694 0.83828 0.48757 0.0
H127 H 0.61147 0.82636 0.49739 0.0
H128 H 0.90209 0.70954 0.41746 0.0
Co129 Co 0.63788 0.22058 0.50388 0.0
N130 N 0.56252 0.19143 0.53789 0.0
C131 C 0.52838 0.22226 0.57824 0.0
N132 N 0.47887 0.13802 0.56707 0.0
C133 C 0.53068 0.13963 0.53211 0.0
C134 C 0.47772 0.18987 0.59612 0.0
Co135 Co 0.91129 0.29985 0.56406 0.0
N136 N 0.99586 0.283 0.55099 0.0
N137 N 0.08635 0.23492 0.53772 0.0
C138 C 0.08977 0.28591 0.50739 0.0
C139 C 0.0346 0.31566 0.51626 0.0
C140 C 0.02966 0.23403 0.56444 0.0
Co141 Co 0.76788 0.27925 0.52978 0.0
C142 C 0.86411 0.29657 0.63316 0.0
H143 H 0.02303 0.35787 0.49692 0.0
O144 O 0.70375 0.24623 0.46937 0.0
O145 O 0.80707 0.19893 0.53324 0.0
O146 O 0.72193 0.26512 0.60823 0.0
O147 O 0.71581 0.35235 0.52675 0.0
O148 O 0.62444 0.30071 0.5363 0.0
O149 O 0.89912 0.23399 0.51413 0.0
O150 O 0.83387 0.31632 0.58451 0.0
O151 O 0.90614 0.34603 0.49452 0.0
O152 O 0.67673 0.18843 0.57484 0.0
O153 O 0.6607 0.15278 0.47194 0.0
O154 O 0.81951 0.30286 0.45441 0.0
O155 O 0.90389 0.25416 0.62835 0.0
C156 C 0.68897 0.22076 0.61909 0.0
C157 C 1.00752 0.18382 0.60356 0.0
H158 H 0.95863 0.17113 0.5934 0.0
H159 H 0.03598 0.14374 0.59721 0.0
H160 H 1.01072 0.19723 0.65201 0.0
C161 C 0.86164 0.19154 0.51311 0.0
C162 C 0.65575 0.34968 0.53639 0.0
H163 H 0.53877 0.26598 0.59422 0.0
H164 H 0.55514 0.10211 0.446 0.0
H165 H 0.51779 0.05108 0.49676 0.0
H166 H 0.5973 0.07251 0.51079 0.0
C167 C 0.55115 0.08851 0.49406 0.0
C168 C 0.66273 0.2058 0.45031 0.0
C169 C 0.87064 0.33382 0.44897 0.0
H170 H 0.44036 0.20487 0.62527 0.0
H171 H 0.12934 0.30038 0.48065 0.0
H172 H 0.66458 0.09096 0.10768 0.0
H173 H 0.85858 0.27157 0.87847 0.0
H174 H 0.59113 0.16691 0.94291 0.0
H175 H 0.92765 0.20236 0.04801 0.0
H176 H 0.77212 0.19965 0.87996 0.0
H177 H 0.76964 0.09157 0.06374 0.0
C178 C 0.67034 0.10497 0.06105 0.0
C179 C 0.61992 0.12983 0.02914 0.0
C180 C 0.80678 0.19934 0.91637 0.0
C181 C 0.73927 0.13416 0.98004 0.0
C182 C 0.85537 0.24065 0.91563 0.0
C183 C 0.89755 0.24386 0.96455 0.0
C184 C 0.80045 0.16201 0.96692 0.0
C185 C 0.89375 0.2022 1.01096 0.0
C186 C 0.73021 0.10593 0.03608 0.0
C187 C 0.62905 0.14745 0.96893 0.0
N188 N 0.84516 0.16358 1.01168 0.0
N189 N 0.68814 0.15113 0.94692 0.0
H190 H 0.1945 0.85657 0.07115 0.0
H191 H 0.41979 0.59573 0.04624 0.0
H192 H 0.11312 0.68379 0.08911 0.0
H193 H 0.46621 0.74704 0.15561 0.0
H194 H 0.30751 0.62108 0.05387 0.0
H195 H 0.29852 0.8146 0.0898 0.0
C196 C 0.1989 0.8097 0.07811 0.0
C197 C 0.14588 0.7733 0.0766 0.0
C198 C 0.34236 0.64741 0.07784 0.0
C199 C 0.26342 0.72524 0.09848 0.0
C200 C 0.4058 0.63284 0.07372 0.0
C201 C 0.45117 0.67011 0.09966 0.0
C202 C 0.32577 0.6998 0.10714 0.0
C203 C 0.43193 0.71781 0.13484 0.0
C204 C 0.25774 0.78591 0.08933 0.0
C205 C 0.15333 0.71283 0.08692 0.0
N206 N 0.37052 0.73235 0.13627 0.0
N207 N 0.21147 0.69031 0.09674 0.0
H208 H 0.67098 0.75904 0.6549 0.0
H209 H 0.85626 0.5853 0.41638 0.0
H210 H 0.59058 0.68457 0.49192 0.0
H211 H 0.93503 0.64487 0.58643 0.0
H212 H 0.75175 0.58623 0.46106 0.0
H213 H 0.75861 0.68949 0.64827 0.0
C214 C 0.67189 0.7273 0.61822 0.0
C215 C 0.62579 0.72813 0.57264 0.0
C216 C 0.79197 0.59702 0.48962 0.0
C217 C 0.7244 0.64909 0.56428 0.0
C218 C 0.8516 0.59565 0.46417 0.0
C219 C 0.90348 0.61624 0.49758 0.0
C220 C 0.78467 0.62137 0.5479 0.0
C221 C 0.89567 0.62928 0.55924 0.0
C222 C 0.72124 0.68736 0.61453 0.0
C223 C 0.627 0.68577 0.52665 0.0
N224 N 0.8369 0.63381 0.58197 0.0
N225 N 0.67631 0.64856 0.52289 0.0
H226 H 0.13633 0.17843 0.44248 0.0
H227 H 0.41027 0.09008 0.6564 0.0
H228 H 0.14118 0.18988 0.63766 0.0
H229 H 0.42164 0.10624 0.46202 0.0
H230 H 0.29701 0.07402 0.64657 0.0
H231 H 0.22341 0.10802 0.44665 0.0
C232 C 0.15567 0.1654 0.48611 0.0
C233 C 0.13338 0.19038 0.53973 0.0
C234 C 0.32457 0.07859 0.60574 0.0
C235 C 0.23153 0.11048 0.54527 0.0
C236 C 0.38915 0.0873 0.61147 0.0
C237 C 0.42437 0.10144 0.56017 0.0
C238 C 0.29569 0.08651 0.54862 0.0
C239 C 0.39565 0.0965 0.50279 0.0
C240 C 0.20443 0.12481 0.48867 0.0
C241 C 0.15814 0.17171 0.59546 0.0
N242 N 0.33231 0.09151 0.49857 0.0
N243 N 0.20661 0.13345 0.5968 0.0
H244 H 0.70013 0.59814 0.07067 0.0
H245 H 0.38665 0.43347 0.95626 0.0
H246 H 0.62389 0.61224 0.88883 0.0
H247 H 0.48975 0.37898 0.11613 0.0
H248 H 0.46879 0.50696 0.93654 0.0
H249 H 0.62356 0.51969 0.09124 0.0
C250 C 0.66885 0.5836 0.03446 0.0
C251 C 0.66779 0.6129 0.97833 0.0
C252 C 0.47322 0.47908 0.97615 0.0
C253 C 0.57887 0.52448 1.00211 0.0
C254 C 0.42579 0.43778 0.98787 0.0
C255 C 0.43124 0.40001 0.03786 0.0
C256 C 0.52625 0.48295 1.01493 0.0
C257 C 0.48373 0.40703 0.07684 0.0
C258 C 0.6244 0.53943 0.04654 0.0
C259 C 0.62589 0.59183 0.93321 0.0
N260 N 0.52912 0.44746 0.06454 0.0
N261 N 0.58244 0.55002 0.94645 0.0
H262 H 0.66426 0.45455 0.47515 0.0
H263 H 0.37564 0.60535 0.64375 0.0
H264 H 0.56123 0.36712 0.61651 0.0
H265 H 0.42542 0.64829 0.45996 0.0
H266 H 0.45168 0.52441 0.64225 0.0
H267 H 0.58857 0.53601 0.47891 0.0
C268 C 0.62649 0.45305 0.50773 0.0
C269 C 0.61874 0.40392 0.54535 0.0
C270 C 0.44526 0.55096 0.6019 0.0
C271 C 0.53187 0.49613 0.54939 0.0
C272 C 0.40132 0.5965 0.60253 0.0
C273 C 0.39315 0.63227 0.55132 0.0
C274 C 0.48261 0.54233 0.55033 0.0
C275 C 0.42931 0.62061 0.49976 0.0
C276 C 0.58288 0.49904 0.50928 0.0
C277 C 0.56849 0.40385 0.58624 0.0
N278 N 0.47299 0.57708 0.50075 0.0
N279 N 0.52706 0.4491 0.58721 0.0
H280 H 0.12515 0.15157 0.08922 0.0
H281 H 0.86235 0.94136 0.93799 0.0
H282 H 0.10122 0.13065 0.89582 0.0
H283 H 0.88461 0.96775 0.13097 0.0
H284 H 0.94408 0.01565 0.92068 0.0
H285 H 0.03752 0.08336 0.10509 0.0
C286 C 0.1026 0.13124 0.05009 0.0
C287 C 0.12037 0.14689 0.99109 0.0
C288 C 0.93018 0.00611 0.96681 0.0
C289 C 0.0186 0.06993 1.0087 0.0
C290 C 0.8824 0.96461 0.97664 0.0
C291 C 0.86622 0.94857 0.03605 0.0
C292 C 0.96216 0.0315 1.01675 0.0
C293 C 0.89535 0.97902 0.08442 0.0
C294 C 0.05176 0.09307 0.0591 0.0
C295 C 0.08893 0.11971 0.94207 0.0
N296 N 0.94237 0.01824 0.07379 0.0
N297 N 0.03928 0.08303 0.95187 0.0
H298 H 0.82988 0.08094 0.55593 0.0
H299 H 0.16841 0.9557 0.47472 0.0
H300 H 0.95936 0.17151 0.43871 0.0
H301 H 1.0124 0.84007 0.51247 0.0
H302 H 0.09541 0.0393 0.47572 0.0
H303 H 0.89721 0.99325 0.5504 0.0
C304 C 0.87122 0.08184 0.52767 0.0
C305 C 0.88898 0.1336 0.49784 0.0
C306 C 0.07741 0.9955 0.48384 0.0
C307 C 0.96731 0.03504 0.49359 0.0
C308 C 0.11912 0.94799 0.48373 0.0
C309 C 0.0964 0.89085 0.49288 0.0
C310 C 1.01296 0.98583 0.49445 0.0
C311 C 0.03183 0.88336 0.50435 0.0
C312 C 0.91013 0.03223 0.52524 0.0
C313 C 0.94394 0.13263 0.46273 0.0
N314 N 0.9925 0.93018 0.50503 0.0
N315 N 0.98157 0.08473 0.46247 0.0
H316 H 0.59603 0.30399 0.41372 0.0
H317 H 0.38926 0.10829 0.18303 0.0
H318 H 0.63778 0.1267 0.35937 0.0
H319 H 0.3723 0.29689 0.18285 0.0
H320 H 0.46816 0.11568 0.26315 0.0
H321 H 0.50914 0.30546 0.33839 0.0
C322 C 0.58834 0.26607 0.38481 0.0
C323 C 0.62461 0.21509 0.39318 0.0
C324 C 0.44684 0.15564 0.24633 0.0
C325 C 0.52346 0.21562 0.30879 0.0
C326 C 0.40065 0.15142 0.20097 0.0
C327 C 0.37449 0.2021 0.17467 0.0
C328 C 0.46743 0.211 0.26681 0.0
C329 C 0.3913 0.25654 0.20109 0.0
C330 C 0.538 0.26663 0.3425 0.0
C331 C 0.61133 0.16698 0.35494 0.0
N332 N 0.43746 0.25969 0.24499 0.0
N333 N 0.56175 0.16821 0.3154 0.0
H334 H 0.54824 0.89699 0.10198 0.0
H335 H 0.47493 0.74068 0.41741 0.0
H336 H 0.68065 0.79001 0.20127 0.0
H337 H 0.34535 0.86186 0.33343 0.0
H338 H 0.54891 0.7582 0.3366 0.0
H339 H 0.4751 0.88943 0.18652 0.0
C340 C 0.56274 0.87328 0.14237 0.0
C341 C 0.62074 0.84379 0.14432 0.0
C342 C 0.50433 0.7809 0.33527 0.0
C343 C 0.53616 0.83367 0.24066 0.0
C344 C 0.4615 0.77048 0.38125 0.0
C345 C 0.40353 0.79984 0.38234 0.0
C346 C 0.48971 0.82112 0.28925 0.0
C347 C 0.38915 0.8379 0.33414 0.0
C348 C 0.52054 0.86851 0.19034 0.0
C349 C 0.63676 0.81366 0.19771 0.0
N350 N 0.4322 0.84771 0.28956 0.0
N351 N 0.5943 0.80862 0.24326 0.0
H352 H 0.4053 0.96248 0.62717 0.0
H353 H 0.64639 0.78357 0.80396 0.0
H354 H 0.3537 0.78871 0.68633 0.0
H355 H 0.57523 0.924 0.91436 0.0
H356 H 0.56521 0.80505 0.72732 0.0
H357 H 0.48501 0.96725 0.70851 0.0
C358 C 0.40886 0.9262 0.6587 0.0
C359 C 0.37336 0.87448 0.64872 0.0
C360 C 0.56861 0.83205 0.76764 0.0
C361 C 0.46636 0.87907 0.74003 0.0
C362 C 0.61622 0.82122 0.81045 0.0
C363 C 0.6184 0.85263 0.86533 0.0
C364 C 0.52321 0.87486 0.77941 0.0
C365 C 0.57606 0.89951 0.87214 0.0
C366 C 0.45511 0.92877 0.70443 0.0
C367 C 0.38036 0.82904 0.69127 0.0
N368 N 0.52936 0.90869 0.83022 0.0
N369 N 0.42753 0.83155 0.73375 0.0
H370 H 0.4016 0.31836 0.87551 0.0
H371 H 0.62747 0.1252 0.6655 0.0
H372 H 0.40799 0.12977 0.88526 0.0
H373 H 0.65067 0.31169 0.69218 0.0
H374 H 0.54237 0.12525 0.73974 0.0
H375 H 0.48379 0.31641 0.79814 0.0
C376 C 0.4189 0.27637 0.8598 0.0
C377 C 0.39745 0.22406 0.88625 0.0
C378 C 0.5666 0.16604 0.73002 0.0
C379 C 0.49335 0.22146 0.79927 0.0
C380 C 0.61567 0.16595 0.68803 0.0
C381 C 0.64685 0.21843 0.67282 0.0
C382 C 0.54769 0.21914 0.75665 0.0
C383 C 0.62868 0.27006 0.70288 0.0
C384 C 0.46671 0.27531 0.8165 0.0
C385 C 0.42307 0.17102 0.86577 0.0
N386 N 0.57997 0.2692 0.74269 0.0
N387 N 0.46972 0.17102 0.8237 0.0
H388 H 0.13849 0.59724 0.34636 0.0
H389 H 0.88453 0.80042 0.18268 0.0
H390 H 0.14898 0.78622 0.35456 0.0
H391 H 0.9272 0.62606 0.11965 0.0
H392 H 0.96938 0.79198 0.25881 0.0
H393 H 0.05632 0.60459 0.26886 0.0
C394 C 0.12498 0.64045 0.3306 0.0
C395 C 0.15006 0.69121 0.3584 0.0
C396 C 0.95938 0.75529 0.22881 0.0
C397 C 0.0534 0.69982 0.27082 0.0
C398 C 0.90988 0.75952 0.18621 0.0
C399 C 0.8992 0.71433 0.14369 0.0
C400 C 0.99703 0.7047 0.23012 0.0
C401 C 0.93389 0.66229 0.15103 0.0
C402 C 0.07713 0.64456 0.28688 0.0
C403 C 0.13056 0.74585 0.33531 0.0
N404 N 0.98151 0.65919 0.1926 0.0
N405 N 0.08223 0.74878 0.29401 0.0
H406 H 0.95526 0.41806 0.41553 0.0
H407 H 0.06327 0.23916 0.12179 0.0
H408 H 0.86085 0.26271 0.3482 0.0
H409 H 0.1721 0.38245 0.19711 0.0
H410 H 0.98772 0.24967 0.20285 0.0
H411 H 0.02975 0.41148 0.33191 0.0
C412 C 0.94903 0.38347 0.3821 0.0
C413 C 0.90137 0.34091 0.38901 0.0
C414 C 0.02835 0.27849 0.2025 0.0
C415 C 0.98796 0.33231 0.29372 0.0
C416 C 0.07217 0.27207 0.15647 0.0
C417 C 0.12486 0.30942 0.153 0.0
C418 C 0.03627 0.32319 0.24577 0.0
C419 C 0.13292 0.35201 0.19862 0.0
C420 C 0.99223 0.37933 0.33482 0.0
C421 C 0.89608 0.29695 0.34448 0.0
N422 N 0.08875 0.35807 0.24292 0.0
N423 N 0.93919 0.29348 0.29923 0.0
H424 H 0.17618 0.29763 0.84033 0.0
H425 H 0.93105 0.3976 0.61243 0.0
H426 H 0.10108 0.46116 0.90601 0.0
H427 H 0.86666 0.28428 0.75559 0.0
H428 H 0.02037 0.42791 0.67766 0.0
H429 H 0.09655 0.29856 0.7581 0.0
C430 C 0.14522 0.33503 0.83612 0.0
C431 C 0.14467 0.37845 0.88153 0.0
C432 C 0.9854 0.39789 0.69522 0.0
C433 C 0.05282 0.37892 0.78852 0.0
C434 C 0.93337 0.38169 0.65875 0.0
C435 C 0.89046 0.33856 0.67863 0.0
C436 C 0.99419 0.37102 0.75193 0.0
C437 C 0.89765 0.31821 0.73858 0.0
C438 C 0.09921 0.33512 0.7896 0.0
C439 C 0.10255 0.42571 0.87324 0.0
N440 N 0.94915 0.33358 0.77245 0.0
N441 N 0.0571 0.42373 0.82916 0.0
H442 H 0.06011 0.64817 0.61876 0.0
H443 H 0.96338 0.85036 0.89893 0.0
H444 H 0.17534 0.78981 0.68819 0.0
H445 H 0.85541 0.69867 0.8423 0.0
H446 H 0.03907 0.83024 0.8195 0.0
H447 H 0.98602 0.66404 0.70043 0.0
C448 C 0.07069 0.68183 0.65183 0.0
C449 C 0.12432 0.71767 0.64609 0.0
C450 C 0.9987 0.80149 0.82392 0.0
C451 C 0.03814 0.73726 0.73969 0.0
C452 C 0.95496 0.81328 0.86893 0.0
C453 C 0.90283 0.7761 0.87733 0.0
C454 C 0.99057 0.75211 0.78647 0.0
C455 C 0.89454 0.72875 0.83713 0.0
C456 C 0.02786 0.69121 0.6984 0.0
C457 C 0.13508 0.7607 0.69082 0.0
N458 N 0.93824 0.71787 0.79364 0.0
N459 N 0.09201 0.76974 0.73522 0.0
loop_
_geom_bond_atom_site_label_1
_geom_bond_atom_site_label_2
_geom_bond_distance
_geom_bond_site_symmetry_2
_ccdc_geom_bond_type
Co0 N1 2.034 1_455 S
Co0 O15 2.262 1_554 S
Co0 O19 1.958 . S
Co0 O23 1.950 1_554 S
Co0 O24 2.057 1_554 S
N1 Co0 2.034 1_655 S
N1 C2 1.366 . S
N1 C4 1.332 1_554 S
C2 N1 1.366 . S
C2 C5 1.377 . S
C2 H34 0.931 . S
N3 C4 1.343 1_554 S
N3 C5 1.348 . S
C4 N1 1.332 1_556 S
C4 N3 1.343 1_556 S
C4 C38 1.361 . S
C5 C2 1.377 . S
C5 N3 1.348 . S
C5 H41 0.930 . S
Co6 N7 2.034 1_554 S
Co6 O20 1.950 1_554 S
Co6 O21 2.262 . S
Co6 O22 1.958 . S
Co6 O26 2.057 . S
N7 Co6 2.034 1_556 S
N7 C10 1.366 . S
N7 C11 1.332 . S
N8 C9 1.337 . S
N8 C11 1.346 . S
C9 N8 1.337 . S
C9 C10 1.377 . S
C9 H42 0.930 . S
C10 N7 1.366 . S
C10 C9 1.377 . S
C10 H14 0.931 . S
C11 N7 1.332 . S
C11 N8 1.346 . S
C11 C28 1.361 . S
Co12 O15 2.097 1_554 S
Co12 O16 2.065 1_554 S
Co12 O17 2.065 . S
Co12 O18 2.042 . S
Co12 O21 2.097 . S
Co12 O25 2.042 1_554 S
C13 O21 1.253 . S
C13 O26 1.263 . S
H14 C10 0.931 . S
O15 Co0 2.262 1_556 S
O15 Co12 2.097 1_556 S
O15 C39 1.253 . S
O16 Co12 2.065 1_556 S
O16 C32 1.221 . S
O17 Co12 2.065 . S
O17 C27 1.221 . S
O18 Co12 2.042 . S
O18 C33 1.237 . S
O19 Co0 1.958 . S
O19 C33 1.278 . S
O20 Co6 1.950 1_556 S
O20 C32 1.277 . S
O21 Co6 2.262 . S
O21 Co12 2.097 . S
O21 C13 1.253 . S
O22 Co6 1.958 . S
O22 C40 1.278 . S
O23 Co0 1.950 1_556 S
O23 C27 1.277 1_556 S
O24 Co0 2.057 1_556 S
O24 C39 1.263 . S
O25 Co12 2.042 1_556 S
O25 C40 1.237 1_556 S
O26 Co6 2.057 . S
O26 C13 1.263 . S
C27 O17 1.221 . S
C27 O23 1.277 1_554 S
C28 C11 1.361 . S
C28 H29 0.960 . S
C28 H30 0.961 . S
C28 H31 0.961 1_556 S
H29 C28 0.960 . S
H30 C28 0.961 . S
H31 C28 0.961 1_554 S
C32 O16 1.221 . S
C32 O20 1.277 . S
C33 O18 1.237 . S
C33 O19 1.278 . S
H34 C2 0.931 . S
H35 C38 0.961 . S
H36 C38 0.961 . S
H37 C38 0.960 1_455 S
C38 C4 1.361 . S
C38 H35 0.961 . S
C38 H36 0.961 . S
C38 H37 0.960 1_655 S
C39 O15 1.253 . S
C39 O24 1.263 . S
C40 O22 1.278 . S
C40 O25 1.237 1_554 S
H41 C5 0.930 . S
H42 C9 0.930 . S
Co43 N44 2.034 . S
Co43 O58 2.262 1_554 S
Co43 O62 1.958 . S
Co43 O66 1.950 1_554 S
Co43 O67 2.057 1_554 S
N44 Co43 2.034 . S
N44 C45 1.366 . S
N44 C47 1.332 1_554 S
C45 N44 1.366 . S
C45 C48 1.377 . S
C45 H77 0.931 . S
N46 C47 1.343 1_554 S
N46 C48 1.348 . S
C47 N44 1.332 1_556 S
C47 N46 1.343 1_556 S
C47 C81 1.361 . S
C48 C45 1.377 . S
C48 N46 1.348 . S
C48 H84 0.930 . S
Co49 N50 2.034 1_554 S
Co49 O63 1.950 1_554 S
Co49 O64 2.262 . S
Co49 O65 1.958 . S
Co49 O69 2.057 . S
N50 Co49 2.034 1_556 S
N50 C53 1.366 1_655 S
N50 C54 1.332 1_655 S
N51 C52 1.337 . S
N51 C54 1.346 . S
C52 N51 1.337 . S
C52 C53 1.377 . S
C52 H85 0.930 . S
C53 N50 1.366 1_455 S
C53 C52 1.377 . S
C53 H57 0.925 1_455 S
C54 N50 1.332 1_455 S
C54 N51 1.346 . S
C54 C71 1.361 . S
Co55 O58 2.097 1_554 S
Co55 O59 2.065 1_554 S
Co55 O60 2.065 . S
Co55 O61 2.042 . S
Co55 O64 2.097 . S
Co55 O68 2.042 1_554 S
C56 O64 1.253 . S
C56 O69 1.263 . S
H57 C53 0.925 1_655 S
O58 Co43 2.262 1_556 S
O58 Co55 2.097 1_556 S
O58 C82 1.253 . S
O59 Co55 2.065 1_556 S
O59 C75 1.221 . S
O60 Co55 2.065 . S
O60 C70 1.221 . S
O61 Co55 2.042 . S
O61 C76 1.237 . S
O62 Co43 1.958 . S
O62 C76 1.278 . S
O63 Co49 1.950 1_556 S
O63 C75 1.277 . S
O64 Co49 2.262 . S
O64 Co55 2.097 . S
O64 C56 1.253 . S
O65 Co49 1.958 . S
O65 C83 1.278 . S
O66 Co43 1.950 1_556 S
O66 C70 1.277 1_556 S
O67 Co43 2.057 1_556 S
O67 C82 1.263 . S
O68 Co55 2.042 1_556 S
O68 C83 1.237 1_556 S
O69 Co49 2.057 . S
O69 C56 1.263 . S
C70 O60 1.221 . S
C70 O66 1.277 1_554 S
C71 C54 1.361 . S
C71 H72 0.960 1_455 S
C71 H73 0.961 . S
C71 H74 0.961 1_556 S
H72 C71 0.960 1_655 S
H73 C71 0.961 . S
H74 C71 0.961 1_554 S
C75 O59 1.221 . S
C75 O63 1.277 . S
C76 O61 1.237 . S
C76 O62 1.278 . S
H77 C45 0.931 . S
H78 C81 0.961 . S
H79 C81 0.961 . S
H80 C81 0.960 . S
C81 C47 1.361 . S
C81 H78 0.961 . S
C81 H79 0.961 . S
C81 H80 0.960 . S
C82 O58 1.253 . S
C82 O67 1.263 . S
C83 O65 1.278 . S
C83 O68 1.237 1_554 S
H84 C48 0.930 . S
H85 C52 0.930 . S
Co86 N87 2.034 . S
Co86 O101 2.262 . S
Co86 O105 1.958 . S
Co86 O109 1.950 . S
Co86 O110 2.057 . S
N87 Co86 2.034 . S
N87 C88 1.366 . S
N87 C90 1.332 . S
C88 N87 1.366 . S
C88 C91 1.377 . S
C88 H120 0.931 . S
N89 C90 1.346 . S
N89 C91 1.337 . S
C90 N87 1.332 . S
C90 N89 1.346 . S
C90 C124 1.361 . S
C91 C88 1.377 . S
C91 N89 1.337 . S
C91 H127 0.930 . S
Co92 N93 2.034 . S
Co92 O106 1.950 . S
Co92 O107 2.262 . S
Co92 O108 1.958 . S
Co92 O112 2.057 . S
N93 Co92 2.034 . S
N93 C96 1.366 1_455 S
N93 C97 1.332 1_455 S
N94 C95 1.337 . S
N94 C97 1.346 . S
C95 N94 1.337 . S
C95 C96 1.377 . S
C95 H128 0.930 . S
C96 N93 1.366 1_655 S
C96 C95 1.377 . S
C96 H100 0.925 1_655 S
C97 N93 1.332 1_655 S
C97 N94 1.346 . S
C97 C114 1.361 . S
Co98 O101 2.097 . S
Co98 O102 2.065 . S
Co98 O103 2.065 . S
Co98 O104 2.042 . S
Co98 O107 2.097 . S
Co98 O111 2.042 . S
C99 O107 1.253 . S
C99 O112 1.263 . S
H100 C96 0.925 1_455 S
O101 Co86 2.262 . S
O101 Co98 2.097 . S
O101 C125 1.253 . S
O102 Co98 2.065 . S
O102 C118 1.221 . S
O103 Co98 2.065 . S
O103 C113 1.221 . S
O104 Co98 2.042 . S
O104 C119 1.237 . S
O105 Co86 1.958 . S
O105 C119 1.278 . S
O106 Co92 1.950 . S
O106 C118 1.277 . S
O107 Co92 2.262 . S
O107 Co98 2.097 . S
O107 C99 1.253 . S
O108 Co92 1.958 . S
O108 C126 1.278 . S
O109 Co86 1.950 . S
O109 C113 1.277 . S
O110 Co86 2.057 . S
O110 C125 1.263 . S
O111 Co98 2.042 . S
O111 C126 1.237 . S
O112 Co92 2.057 . S
O112 C99 1.263 . S
C113 O103 1.221 . S
C113 O109 1.277 . S
C114 C97 1.361 . S
C114 H115 0.960 1_655 S
C114 H116 0.961 . S
C114 H117 0.961 . S
H115 C114 0.960 1_455 S
H116 C114 0.961 . S
H117 C114 0.961 . S
C118 O102 1.221 . S
C118 O106 1.277 . S
C119 O104 1.237 . S
C119 O105 1.278 . S
H120 C88 0.931 . S
H121 C124 0.961 . S
H122 C124 0.961 . S
H123 C124 0.960 . S
C124 C90 1.361 . S
C124 H121 0.961 . S
C124 H122 0.961 . S
C124 H123 0.960 . S
C125 O101 1.253 . S
C125 O110 1.263 . S
C126 O108 1.278 . S
C126 O111 1.237 . S
H127 C91 0.930 . S
H128 C95 0.930 . S
Co129 N130 2.034 . S
Co129 O144 2.262 . S
Co129 O148 1.958 . S
Co129 O152 1.950 . S
Co129 O153 2.057 . S
N130 Co129 2.034 . S
N130 C131 1.366 . S
N130 C133 1.332 . S
C131 N130 1.366 . S
C131 C134 1.377 . S
C131 H163 0.931 . S
N132 C133 1.346 . S
N132 C134 1.337 . S
C133 N130 1.332 . S
C133 N132 1.346 . S
C133 C167 1.361 . S
C134 C131 1.377 . S
C134 N132 1.337 . S
C134 H170 0.930 . S
Co135 N136 2.034 1_655 S
Co135 O149 1.950 . S
Co135 O150 2.262 . S
Co135 O151 1.958 . S
Co135 O155 2.057 . S
N136 Co135 2.034 1_455 S
N136 C139 1.366 . S
N136 C140 1.332 . S
N137 C138 1.337 . S
N137 C140 1.346 . S
C138 N137 1.337 . S
C138 C139 1.377 . S
C138 H171 0.930 . S
C139 N136 1.366 . S
C139 C138 1.377 . S
C139 H143 0.931 . S
C140 N136 1.332 . S
C140 N137 1.346 . S
C140 C157 1.361 . S
Co141 O144 2.097 . S
Co141 O145 2.065 . S
Co141 O146 2.065 . S
Co141 O147 2.042 . S
Co141 O150 2.097 . S
Co141 O154 2.042 . S
C142 O150 1.253 . S
C142 O155 1.263 . S
H143 C139 0.931 . S
O144 Co129 2.262 . S
O144 Co141 2.097 . S
O144 C168 1.253 . S
O145 Co141 2.065 . S
O145 C161 1.221 . S
O146 Co141 2.065 . S
O146 C156 1.221 . S
O147 Co141 2.042 . S
O147 C162 1.237 . S
O148 Co129 1.958 . S
O148 C162 1.278 . S
O149 Co135 1.950 . S
O149 C161 1.277 . S
O150 Co135 2.262 . S
O150 Co141 2.097 . S
O150 C142 1.253 . S
O151 Co135 1.958 . S
O151 C169 1.278 . S
O152 Co129 1.950 . S
O152 C156 1.277 . S
O153 Co129 2.057 . S
O153 C168 1.263 . S
O154 Co141 2.042 . S
O154 C169 1.237 . S
O155 Co135 2.057 . S
O155 C142 1.263 . S
C156 O146 1.221 . S
C156 O152 1.277 . S
C157 C140 1.361 . S
C157 H158 0.960 1_455 S
C157 H159 0.961 . S
C157 H160 0.961 . S
H158 C157 0.960 1_655 S
H159 C157 0.961 . S
H160 C157 0.961 . S
C161 O145 1.221 . S
C161 O149 1.277 . S
C162 O147 1.237 . S
C162 O148 1.278 . S
H163 C131 0.931 . S
H164 C167 0.961 . S
H165 C167 0.961 . S
H166 C167 0.960 . S
C167 C133 1.361 . S
C167 H164 0.961 . S
C167 H165 0.961 . S
C167 H166 0.960 . S
C168 O144 1.253 . S
C168 O153 1.263 . S
C169 O151 1.278 . S
C169 O154 1.237 . S
H170 C134 0.930 . S
H171 C138 0.930 . S
H172 C178 0.930 . S
H173 C182 0.930 . S
H174 C187 0.929 . S
H175 C185 0.929 . S
H176 C180 0.929 . S
H177 C186 0.929 . S
C178 H172 0.930 . S
C178 C179 1.367 . S
C178 C186 1.378 . S
C179 C178 1.367 . S
C179 C187 1.433 1_554 S
C180 H176 0.929 . S
C180 C182 1.378 . S
C180 C184 1.350 . S
C181 C184 1.463 . S
C181 C186 1.350 1_556 S
C181 N189 1.427 . S
C182 H173 0.930 . S
C182 C180 1.378 . S
C182 C183 1.367 . S
C183 C182 1.367 . S
C183 C185 1.433 1_556 S
C184 C180 1.350 . S
C184 C181 1.463 . S
C184 N188 1.427 1_556 S
C185 H175 0.929 . S
C185 C183 1.433 1_554 S
C185 N188 1.384 . S
C186 H177 0.929 . S
C186 C178 1.378 . S
C186 C181 1.350 1_554 S
C187 H174 0.929 . S
C187 C179 1.433 1_556 S
C187 N189 1.384 . S
N188 C184 1.427 1_554 S
N188 C185 1.384 . S
N189 C181 1.427 . S
N189 C187 1.384 . S
H190 C196 0.930 . S
H191 C200 0.930 . S
H192 C205 0.929 . S
H193 C203 0.929 . S
H194 C198 0.929 . S
H195 C204 0.929 . S
C196 H190 0.930 . S
C196 C197 1.367 1_556 S
C196 C204 1.378 . S
C197 C196 1.367 1_554 S
C197 C205 1.433 . S
C198 H194 0.929 . S
C198 C200 1.378 . S
C198 C202 1.350 1_554 S
C199 C202 1.463 . S
C199 C204 1.350 . S
C199 N207 1.427 1_556 S
C200 H191 0.930 . S
C200 C198 1.378 . S
C200 C201 1.367 1_554 S
C201 C200 1.367 1_556 S
C201 C203 1.433 . S
C202 C198 1.350 1_556 S
C202 C199 1.463 . S
C202 N206 1.427 . S
C203 H193 0.929 . S
C203 C201 1.433 . S
C203 N206 1.384 . S
C204 H195 0.929 . S
C204 C196 1.378 . S
C204 C199 1.350 . S
C205 H192 0.929 . S
C205 C197 1.433 . S
C205 N207 1.384 . S
N206 C202 1.427 . S
N206 C203 1.384 . S
N207 C199 1.427 1_554 S
N207 C205 1.384 . S
H208 C214 0.930 . S
H209 C218 0.930 . S
H210 C223 0.929 . S
H211 C221 0.929 . S
H212 C216 0.929 . S
H213 C222 0.929 . S
C214 H208 0.930 . S
C214 C215 1.367 . S
C214 C222 1.378 . S
C215 C214 1.367 . S
C215 C223 1.433 . S
C216 H212 0.929 . S
C216 C218 1.378 . S
C216 C220 1.350 . S
C217 C220 1.463 . S
C217 C222 1.350 . S
C217 N225 1.427 . S
C218 H209 0.930 . S
C218 C216 1.378 . S
C218 C219 1.367 . S
C219 C218 1.367 . S
C219 C221 1.433 . S
C220 C216 1.350 . S
C220 C217 1.463 . S
C220 N224 1.427 . S
C221 H211 0.929 . S
C221 C219 1.433 . S
C221 N224 1.384 . S
C222 H213 0.929 . S
C222 C214 1.378 . S
C222 C217 1.350 . S
C223 H210 0.929 . S
C223 C215 1.433 . S
C223 N225 1.384 . S
N224 C220 1.427 . S
N224 C221 1.384 . S
N225 C217 1.427 . S
N225 C223 1.384 . S
H226 C232 0.930 . S
H227 C236 0.930 . S
H228 C241 0.929 . S
H229 C239 0.929 . S
H230 C234 0.929 . S
H231 C240 0.929 . S
C232 H226 0.930 . S
C232 C233 1.367 . S
C232 C240 1.378 . S
C233 C232 1.367 . S
C233 C241 1.433 . S
C234 H230 0.929 . S
C234 C236 1.378 . S
C234 C238 1.350 . S
C235 C238 1.463 . S
C235 C240 1.350 . S
C235 N243 1.427 . S
C236 H227 0.930 . S
C236 C234 1.378 . S
C236 C237 1.367 . S
C237 C236 1.367 . S
C237 C239 1.433 . S
C238 C234 1.350 . S
C238 C235 1.463 . S
C238 N242 1.427 . S
C239 H229 0.929 . S
C239 C237 1.433 . S
C239 N242 1.384 . S
C240 H231 0.929 . S
C240 C232 1.378 . S
C240 C235 1.350 . S
C241 H228 0.929 . S
C241 C233 1.433 . S
C241 N243 1.384 . S
N242 C238 1.427 . S
N242 C239 1.384 . S
N243 C235 1.427 . S
N243 C241 1.384 . S
H244 C250 0.930 . S
H245 C254 0.930 . S
H246 C259 0.929 . S
H247 C257 0.929 . S
H248 C252 0.929 . S
H249 C258 0.929 . S
C250 H244 0.930 . S
C250 C251 1.367 . S
C250 C258 1.378 . S
C251 C250 1.367 . S
C251 C259 1.433 1_554 S
C252 H248 0.929 . S
C252 C254 1.378 . S
C252 C256 1.362 . S
C253 C256 1.462 1_554 S
C253 C258 1.350 . S
C253 N261 1.427 1_554 S
C254 H245 0.930 . S
C254 C252 1.378 . S
C254 C255 1.361 1_556 S
C255 C254 1.361 1_554 S
C255 C257 1.439 . S
C256 C252 1.362 . S
C256 C253 1.462 1_556 S
C256 N260 1.415 1_556 S
C257 H247 0.929 . S
C257 C255 1.439 . S
C257 N260 1.384 . S
C258 H249 0.929 . S
C258 C250 1.378 . S
C258 C253 1.350 . S
C259 H246 0.929 . S
C259 C251 1.433 1_556 S
C259 N261 1.384 . S
N260 C256 1.415 1_554 S
N260 C257 1.384 . S
N261 C253 1.427 1_556 S
N261 C259 1.384 . S
H262 C268 0.930 . S
H263 C272 0.930 . S
H264 C277 0.929 . S
H265 C275 0.929 . S
H266 C270 0.929 . S
H267 C276 0.929 . S
C268 H262 0.930 . S
C268 C269 1.367 . S
C268 C276 1.378 . S
C269 C268 1.367 . S
C269 C277 1.433 . S
C270 H266 0.929 . S
C270 C272 1.378 . S
C270 C274 1.350 . S
C271 C274 1.463 . S
C271 C276 1.350 . S
C271 N279 1.427 . S
C272 H263 0.930 . S
C272 C270 1.378 . S
C272 C273 1.367 . S
C273 C272 1.367 . S
C273 C275 1.433 . S
C274 C270 1.350 . S
C274 C271 1.463 . S
C274 N278 1.427 . S
C275 H265 0.929 . S
C275 C273 1.433 . S
C275 N278 1.384 . S
C276 H267 0.929 . S
C276 C268 1.378 . S
C276 C271 1.350 . S
C277 H264 0.929 . S
C277 C269 1.433 . S
C277 N279 1.384 . S
N278 C274 1.427 . S
N278 C275 1.384 . S
N279 C271 1.427 . S
N279 C277 1.384 . S
H280 C286 0.930 . S
H281 C290 0.930 . S
H282 C295 0.929 . S
H283 C293 0.929 . S
H284 C288 0.929 . S
H285 C294 0.929 . S
C286 H280 0.930 . S
C286 C287 1.367 . S
C286 C294 1.378 . S
C287 C286 1.367 . S
C287 C295 1.433 1_554 S
C288 H284 0.929 . S
C288 C290 1.378 . S
C288 C292 1.366 . S
C289 C292 1.461 1_444 S
C289 C294 1.350 . S
C289 N297 1.427 1_554 S
C290 H281 0.930 . S
C290 C288 1.378 . S
C290 C291 1.362 1_556 S
C291 C290 1.362 1_554 S
C291 C293 1.438 . S
C292 C288 1.366 . S
C292 C289 1.461 1_666 S
C292 N296 1.412 1_556 S
C293 H283 0.929 . S
C293 C291 1.438 . S
C293 N296 1.384 . S
C294 H285 0.929 . S
C294 C286 1.378 . S
C294 C289 1.350 . S
C295 H282 0.929 . S
C295 C287 1.433 1_556 S
C295 N297 1.384 . S
N296 C292 1.412 1_554 S
N296 C293 1.384 . S
N297 C289 1.427 1_556 S
N297 C295 1.384 . S
H298 C304 0.930 . S
H299 C308 0.930 . S
H300 C313 0.929 . S
H301 C311 0.929 . S
H302 C306 0.929 . S
H303 C312 0.929 1_565 S
C304 H298 0.930 . S
C304 C305 1.367 . S
C304 C312 1.378 . S
C305 C304 1.367 . S
C305 C313 1.433 . S
C306 H302 0.929 . S
C306 C308 1.378 1_545 S
C306 C310 1.350 1_545 S
C307 C310 1.463 1_645 S
C307 C312 1.350 . S
C307 N315 1.427 . S
C308 H299 0.930 . S
C308 C306 1.378 1_565 S
C308 C309 1.367 . S
C309 C308 1.367 . S
C309 C311 1.433 . S
C310 C306 1.350 1_565 S
C310 C307 1.463 1_465 S
C310 N314 1.427 . S
C311 H301 0.929 . S
C311 C309 1.433 . S
C311 N314 1.384 . S
C312 H303 0.929 1_545 S
C312 C304 1.378 . S
C312 C307 1.350 . S
C313 H300 0.929 . S
C313 C305 1.433 . S
C313 N315 1.384 . S
N314 C310 1.427 . S
N314 C311 1.384 . S
N315 C307 1.427 . S
N315 C313 1.384 . S
H316 C322 0.930 . S
H317 C326 0.930 . S
H318 C331 0.929 . S
H319 C329 0.929 . S
H320 C324 0.929 . S
H321 C330 0.929 . S
C322 H316 0.930 . S
C322 C323 1.367 . S
C322 C330 1.378 . S
C323 C322 1.367 . S
C323 C331 1.433 . S
C324 H320 0.929 . S
C324 C326 1.378 . S
C324 C328 1.350 . S
C325 C328 1.463 . S
C325 C330 1.350 . S
C325 N333 1.427 . S
C326 H317 0.930 . S
C326 C324 1.378 . S
C326 C327 1.367 . S
C327 C326 1.367 . S
C327 C329 1.433 . S
C328 C324 1.350 . S
C328 C325 1.463 . S
C328 N332 1.427 . S
C329 H319 0.929 . S
C329 C327 1.433 . S
C329 N332 1.384 . S
C330 H321 0.929 . S
C330 C322 1.378 . S
C330 C325 1.350 . S
C331 H318 0.929 . S
C331 C323 1.433 . S
C331 N333 1.384 . S
N332 C328 1.427 . S
N332 C329 1.384 . S
N333 C325 1.427 . S
N333 C331 1.384 . S
H334 C340 0.930 . S
H335 C344 0.930 . S
H336 C349 0.929 . S
H337 C347 0.929 . S
H338 C342 0.929 . S
H339 C348 0.929 . S
C340 H334 0.930 . S
C340 C341 1.367 . S
C340 C348 1.378 . S
C341 C340 1.367 . S
C341 C349 1.433 . S
C342 H338 0.929 . S
C342 C344 1.378 . S
C342 C346 1.350 . S
C343 C346 1.463 . S
C343 C348 1.350 . S
C343 N351 1.427 . S
C344 H335 0.930 . S
C344 C342 1.378 . S
C344 C345 1.367 . S
C345 C344 1.367 . S
C345 C347 1.433 . S
C346 C342 1.350 . S
C346 C343 1.463 . S
C346 N350 1.427 . S
C347 H337 0.929 . S
C347 C345 1.433 . S
C347 N350 1.384 . S
C348 H339 0.929 . S
C348 C340 1.378 . S
C348 C343 1.350 . S
C349 H336 0.929 . S
C349 C341 1.433 . S
C349 N351 1.384 . S
N350 C346 1.427 . S
N350 C347 1.384 . S
N351 C343 1.427 . S
N351 C349 1.384 . S
H352 C358 0.930 . S
H353 C362 0.930 . S
H354 C367 0.929 . S
H355 C365 0.929 . S
H356 C360 0.929 . S
H357 C366 0.929 . S
C358 H352 0.930 . S
C358 C359 1.367 . S
C358 C366 1.378 . S
C359 C358 1.367 . S
C359 C367 1.433 . S
C360 H356 0.929 . S
C360 C362 1.378 . S
C360 C364 1.350 . S
C361 C364 1.463 . S
C361 C366 1.350 . S
C361 N369 1.427 . S
C362 H353 0.930 . S
C362 C360 1.378 . S
C362 C363 1.367 . S
C363 C362 1.367 . S
C363 C365 1.433 . S
C364 C360 1.350 . S
C364 C361 1.463 . S
C364 N368 1.427 . S
C365 H355 0.929 . S
C365 C363 1.433 . S
C365 N368 1.384 . S
C366 H357 0.929 . S
C366 C358 1.378 . S
C366 C361 1.350 . S
C367 H354 0.929 . S
C367 C359 1.433 . S
C367 N369 1.384 . S
N368 C364 1.427 . S
N368 C365 1.384 . S
N369 C361 1.427 . S
N369 C367 1.384 . S
H370 C376 0.930 . S
H371 C380 0.930 . S
H372 C385 0.929 . S
H373 C383 0.929 . S
H374 C378 0.929 . S
H375 C384 0.929 . S
C376 H370 0.930 . S
C376 C377 1.367 . S
C376 C384 1.378 . S
C377 C376 1.367 . S
C377 C385 1.433 . S
C378 H374 0.929 . S
C378 C380 1.378 . S
C378 C382 1.350 . S
C379 C382 1.463 . S
C379 C384 1.350 . S
C379 N387 1.427 . S
C380 H371 0.930 . S
C380 C378 1.378 . S
C380 C381 1.367 . S
C381 C380 1.367 . S
C381 C383 1.433 . S
C382 C378 1.350 . S
C382 C379 1.463 . S
C382 N386 1.427 . S
C383 H373 0.929 . S
C383 C381 1.433 . S
C383 N386 1.384 . S
C384 H375 0.929 . S
C384 C376 1.378 . S
C384 C379 1.350 . S
C385 H372 0.929 . S
C385 C377 1.433 . S
C385 N387 1.384 . S
N386 C382 1.427 . S
N386 C383 1.384 . S
N387 C379 1.427 . S
N387 C385 1.384 . S
H388 C394 0.930 . S
H389 C398 0.930 . S
H390 C403 0.929 . S
H391 C401 0.929 . S
H392 C396 0.929 1_455 S
H393 C402 0.929 1_655 S
C394 H388 0.930 . S
C394 C395 1.367 . S
C394 C402 1.378 . S
C395 C394 1.367 . S
C395 C403 1.433 . S
C396 H392 0.929 1_655 S
C396 C398 1.378 . S
C396 C400 1.350 . S
C397 C400 1.463 1_455 S
C397 C402 1.350 . S
C397 N405 1.427 . S
C398 H389 0.930 . S
C398 C396 1.378 . S
C398 C399 1.367 . S
C399 C398 1.367 . S
C399 C401 1.433 . S
C400 C396 1.350 . S
C400 C397 1.463 1_655 S
C400 N404 1.427 . S
C401 H391 0.929 . S
C401 C399 1.433 . S
C401 N404 1.384 . S
C402 H393 0.929 1_455 S
C402 C394 1.378 . S
C402 C397 1.350 . S
C403 H390 0.929 . S
C403 C395 1.433 . S
C403 N405 1.384 . S
N404 C400 1.427 . S
N404 C401 1.384 . S
N405 C397 1.427 . S
N405 C403 1.384 . S
H406 C412 0.930 . S
H407 C416 0.930 . S
H408 C421 0.929 . S
H409 C419 0.929 . S
H410 C414 0.929 . S
H411 C420 0.929 . S
C412 H406 0.930 . S
C412 C413 1.367 . S
C412 C420 1.378 . S
C413 C412 1.367 . S
C413 C421 1.433 . S
C414 H410 0.929 . S
C414 C416 1.378 . S
C414 C418 1.350 . S
C415 C418 1.463 1_655 S
C415 C420 1.350 . S
C415 N423 1.427 . S
C416 H407 0.930 . S
C416 C414 1.378 . S
C416 C417 1.367 . S
C417 C416 1.367 . S
C417 C419 1.433 . S
C418 C414 1.350 . S
C418 C415 1.463 1_455 S
C418 N422 1.427 . S
C419 H409 0.929 . S
C419 C417 1.433 . S
C419 N422 1.384 . S
C420 H411 0.929 . S
C420 C412 1.378 . S
C420 C415 1.350 . S
C421 H408 0.929 . S
C421 C413 1.433 . S
C421 N423 1.384 . S
N422 C418 1.427 . S
N422 C419 1.384 . S
N423 C415 1.427 . S
N423 C421 1.384 . S
H424 C430 0.930 . S
H425 C434 0.930 . S
H426 C439 0.929 . S
H427 C437 0.929 . S
H428 C432 0.929 . S
H429 C438 0.929 . S
C430 H424 0.930 . S
C430 C431 1.367 . S
C430 C438 1.378 . S
C431 C430 1.367 . S
C431 C439 1.433 . S
C432 H428 0.929 . S
C432 C434 1.378 . S
C432 C436 1.350 . S
C433 C436 1.463 1_455 S
C433 C438 1.350 . S
C433 N441 1.427 . S
C434 H425 0.930 . S
C434 C432 1.378 . S
C434 C435 1.367 . S
C435 C434 1.367 . S
C435 C437 1.433 . S
C436 C432 1.350 . S
C436 C433 1.463 1_655 S
C436 N440 1.427 . S
C437 H427 0.929 . S
C437 C435 1.433 . S
C437 N440 1.384 . S
C438 H429 0.929 . S
C438 C430 1.378 . S
C438 C433 1.350 . S
C439 H426 0.929 . S
C439 C431 1.433 . S
C439 N441 1.384 . S
N440 C436 1.427 . S
N440 C437 1.384 . S
N441 C433 1.427 . S
N441 C439 1.384 . S
H442 C448 0.930 . S
H443 C452 0.930 . S
H444 C457 0.929 . S
H445 C455 0.929 . S
H446 C450 0.929 . S
H447 C456 0.929 . S
C448 H442 0.930 . S
C448 C449 1.367 . S
C448 C456 1.378 . S
C449 C448 1.367 . S
C449 C457 1.433 . S
C450 H446 0.929 . S
C450 C452 1.378 . S
C450 C454 1.350 . S
C451 C454 1.463 1_455 S
C451 C456 1.350 . S
C451 N459 1.427 . S
C452 H443 0.930 . S
C452 C450 1.378 . S
C452 C453 1.367 . S
C453 C452 1.367 . S
C453 C455 1.433 . S
C454 C450 1.350 . S
C454 C451 1.463 1_655 S
C454 N458 1.427 . S
C455 H445 0.929 . S
C455 C453 1.433 . S
C455 N458 1.384 . S
C456 H447 0.929 . S
C456 C448 1.378 . S
C456 C451 1.350 . S
C457 H444 0.929 . S
C457 C449 1.433 . S
C457 N459 1.384 . S
N458 C454 1.427 . S
N458 C455 1.384 . S
N459 C451 1.427 . S
N459 C457 1.384 . S
C179 N8 0.296 1_554 S
C183 N3 0.499 1_556 S
C197 N51 0.278 1_554 S
C201 N46 0.502 1_556 S
C215 N89 0.511 . S
C219 N94 0.297 . S
C233 N137 0.486 . S
C237 N132 0.260 . S
C251 C70 1.586 . S
C255 C40 1.585 . S
C269 C162 1.579 . S
C273 C113 1.583 . S
C287 C27 1.591 . S
C291 C83 1.589 . S
C305 C161 1.600 . S
C309 C126 1.596 . S
C323 C168 1.623 . S
C327 C13 1.637 . S
C341 C76 1.454 . S
C345 C119 1.445 . S
C359 C125 1.480 . S
C363 C82 1.466 . S
C377 C32 1.522 . S
C381 C156 1.536 . S
C395 C99 1.628 . S
C399 C56 1.616 . S
C413 C169 1.444 . S
C417 C33 1.432 . S
C431 C39 1.461 . S
C435 C142 1.474 . S
C449 C118 1.535 . S
C453 C75 1.520 . S
