# Generated by pormake.
# Topology wld, (5)-cn, num edge types: 1
# Building blocks:
#     Node 0, Type 0, BuildingBlock: XOMCOT_clean_sbu_1, # of connection points: 5
#     Node 1, Type 0, BuildingBlock: XOMCOT_clean_sbu_1, # of connection points: 5
#     Node 2, Type 0, BuildingBlock: XOMCOT_clean_sbu_1, # of connection points: 5
#     Node 3, Type 0, BuildingBlock: XOMCOT_clean_sbu_1, # of connection points: 5
#     Node 4, Type 0, BuildingBlock: XOMCOT_clean_sbu_1, # of connection points: 5
#     Node 5, Type 0, BuildingBlock: XOMCOT_clean_sbu_1, # of connection points: 5
#     Node 6, Type 0, BuildingBlock: XOMCOT_clean_sbu_1, # of connection points: 5
#     Node 7, Type 0, BuildingBlock: XOMCOT_clean_sbu_1, # of connection points: 5
#     Node 8, Type 0, BuildingBlock: XOMCOT_clean_sbu_1, # of connection points: 5
#     Node 9, Type 0, BuildingBlock: XOMCOT_clean_sbu_1, # of connection points: 5
#     Node 10, Type 0, BuildingBlock: XOMCOT_clean_sbu_1, # of connection points: 5
#     Node 11, Type 0, BuildingBlock: XOMCOT_clean_sbu_1, # of connection points: 5
#     Edge 12, Type (0, 0), BuildingBlock: CIFDUS_clean_linker_0, # of connection points: 2
#     Edge 13, Type (0, 0), BuildingBlock: CIFDUS_clean_linker_0, # of connection points: 2
#     Edge 14, Type (0, 0), BuildingBlock: CIFDUS_clean_linker_0, # of connection points: 2
#     Edge 15, Type (0, 0), BuildingBlock: CIFDUS_clean_linker_0, # of connection points: 2
#     Edge 16, Type (0, 0), BuildingBlock: CIFDUS_clean_linker_0, # of connection points: 2
#     Edge 17, Type (0, 0), BuildingBlock: CIFDUS_clean_linker_0, # of connection points: 2
#     Edge 18, Type (0, 0), BuildingBlock: CIFDUS_clean_linker_0, # of connection points: 2
#     Edge 19, Type (0, 0), BuildingBlock: CIFDUS_clean_linker_0, # of connection points: 2
#     Edge 20, Type (0, 0), BuildingBlock: CIFDUS_clean_linker_0, # of connection points: 2
#     Edge 21, Type (0, 0), BuildingBlock: CIFDUS_clean_linker_0, # of connection points: 2
#     Edge 22, Type (0, 0), BuildingBlock: CIFDUS_clean_linker_0, # of connection points: 2
#     Edge 23, Type (0, 0), BuildingBlock: CIFDUS_clean_linker_0, # of connection points: 2
#     Edge 24, Type (0, 0), BuildingBlock: CIFDUS_clean_linker_0, # of connection points: 2
#     Edge 25, Type (0, 0), BuildingBlock: CIFDUS_clean_linker_0, # of connection points: 2
#     Edge 26, Type (0, 0), BuildingBlock: CIFDUS_clean_linker_0, # of connection points: 2
#     Edge 27, Type (0, 0), BuildingBlock: CIFDUS_clean_linker_0, # of connection points: 2
#     Edge 28, Type (0, 0), BuildingBlock: CIFDUS_clean_linker_0, # of connection points: 2
#     Edge 29, Type (0, 0), BuildingBlock: CIFDUS_clean_linker_0, # of connection points: 2
#     Edge 30, Type (0, 0), BuildingBlock: CIFDUS_clean_linker_0, # of connection points: 2
#     Edge 31, Type (0, 0), BuildingBlock: CIFDUS_clean_linker_0, # of connection points: 2
#     Edge 32, Type (0, 0), BuildingBlock: CIFDUS_clean_linker_0, # of connection points: 2
#     Edge 33, Type (0, 0), BuildingBlock: CIFDUS_clean_linker_0, # of connection points: 2
#     Edge 34, Type (0, 0), BuildingBlock: CIFDUS_clean_linker_0, # of connection points: 2
#     Edge 35, Type (0, 0), BuildingBlock: CIFDUS_clean_linker_0, # of connection points: 2
#     Edge 36, Type (0, 0), BuildingBlock: CIFDUS_clean_linker_0, # of connection points: 2
#     Edge 37, Type (0, 0), BuildingBlock: CIFDUS_clean_linker_0, # of connection points: 2
#     Edge 38, Type (0, 0), BuildingBlock: CIFDUS_clean_linker_0, # of connection points: 2
#     Edge 39, Type (0, 0), BuildingBlock: CIFDUS_clean_linker_0, # of connection points: 2
#     Edge 40, Type (0, 0), BuildingBlock: CIFDUS_clean_linker_0, # of connection points: 2
#     Edge 41, Type (0, 0), BuildingBlock: CIFDUS_clean_linker_0, # of connection points: 2
# Relax obj value: 0.225
# Max RMSD: 0.209
# Mean RMSD: 0.209
data_MOF--net-wld--node1-XOMCOT_clean_sbu_1--edge1-CIFDUS_clean_linker_0
_symmetry_space_group_name_H-M    P1
_symmetry_Int_Tables_number       1
_symmetry_cell_setting            triclinic
loop_
_symmetry_equiv_pos_as_xyz
'x, y, z'
_cell_length_a     33.073579
_cell_length_b     33.089806
_cell_length_c     47.164775
_cell_angle_alpha  90.036895
_cell_angle_beta   89.978388
_cell_angle_gamma 119.97412
loop_
_atom_site_label
_atom_site_type_symbol
_atom_site_fract_x
_atom_site_fract_y
_atom_site_fract_z
_atom_type_partial_charge
C0 C 0.41781 0.20346 0.11498 0.0
C1 C 0.44667 0.18451 0.11377 0.0
N2 N 0.47565 0.20339 0.09145 0.0
N3 N 0.42911 0.23448 0.09372 0.0
C4 C 0.46431 0.2336 0.07982 0.0
H5 H 0.38983 0.19456 0.12997 0.0
Co6 Co 0.40072 0.26813 0.08258 0.0
C7 C 0.47792 0.34994 0.05415 0.0
O8 O 0.45127 0.34613 0.03249 0.0
N9 N 0.37208 0.30226 0.07095 0.0
C10 C 0.35347 0.35786 0.06631 0.0
C11 C 0.3832 0.3457 0.07913 0.0
C12 C 0.33549 0.28884 0.05321 0.0
N13 N 0.32335 0.32201 0.04987 0.0
O14 O 0.39577 0.24363 0.04524 0.0
H15 H 0.4112 0.36722 0.09359 0.0
H16 H 0.3185 0.25555 0.04258 0.0
O17 O 0.46146 0.32098 0.07457 0.0
C18 C 0.35971 0.20331 0.04308 0.0
O19 O 0.32956 0.18782 0.06408 0.0
N20 N 0.40332 0.28861 0.11978 0.0
C21 C 0.39896 0.31415 0.17538 0.0
C22 C 0.44208 0.32601 0.16306 0.0
C23 C 0.44355 0.31296 0.13504 0.0
C24 C 0.36106 0.27519 0.13187 0.0
C25 C 0.35812 0.28827 0.15952 0.0
H26 H 0.47689 0.3219 0.12577 0.0
H27 H 0.32946 0.25458 0.11977 0.0
H28 H 0.48093 0.25442 0.06119 0.0
H29 H 0.44538 0.15784 0.12764 0.0
H30 H 0.3541 0.3906 0.06915 0.0
H31 H 0.47426 0.34562 0.17485 0.0
H32 H 0.32416 0.27776 0.16857 0.0
C33 C 0.83983 0.20304 0.09718 0.0
C34 C 0.86487 0.25112 0.09716 0.0
N35 N 0.83717 0.26668 0.08688 0.0
N36 N 0.79683 0.18867 0.08672 0.0
C37 C 0.79618 0.22826 0.08075 0.0
H38 H 0.85302 0.18002 0.10267 0.0
Co39 Co 0.75482 0.12851 0.07499 0.0
C40 C 0.67598 0.14301 0.05998 0.0
O41 O 0.67938 0.13546 0.03297 0.0
N42 N 0.71313 0.06783 0.06283 0.0
C43 C 0.65288 0.99566 0.05975 0.0
C44 C 0.66834 0.03962 0.07065 0.0
C45 C 0.72408 0.04038 0.04732 0.0
N46 N 0.68818 0.99609 0.04517 0.0
O47 O 0.76763 0.15024 0.03696 0.0
H48 H 0.64885 0.04965 0.08457 0.0
H49 H 0.7583 0.05244 0.03846 0.0
O50 O 0.70405 0.14147 0.07786 0.0
C51 C 0.80497 0.15281 0.0277 0.0
O52 O 0.82556 0.1354 0.04327 0.0
N53 N 0.74551 0.10797 0.11238 0.0
C54 C 0.73079 0.07111 0.16681 0.0
C55 C 0.72102 0.10671 0.1603 0.0
C56 C 0.72914 0.12511 0.13295 0.0
C57 C 0.7575 0.07516 0.11866 0.0
C58 C 0.75008 0.05592 0.14575 0.0
H59 H 0.72249 0.15323 0.12837 0.0
H60 H 0.77212 0.06324 0.10237 0.0
H61 H 0.76771 0.22904 0.06996 0.0
H62 H 0.90109 0.27293 0.10316 0.0
H63 H 0.61896 0.96536 0.06346 0.0
H64 H 0.70741 0.12035 0.17624 0.0
H65 H 0.7583 0.02864 0.14994 0.0
C66 C 0.79807 0.61286 0.1003 0.0
C67 C 0.74993 0.58652 0.09981 0.0
N68 N 0.73811 0.54353 0.09062 0.0
N69 N 0.81605 0.58642 0.09125 0.0
C70 C 0.77852 0.5444 0.08546 0.0
H71 H 0.81865 0.64934 0.10593 0.0
Co72 Co 0.87838 0.60685 0.08292 0.0
C73 C 0.87466 0.52052 0.06228 0.0
O74 O 0.90008 0.5421 0.03996 0.0
N75 N 0.94143 0.62816 0.07406 0.0
C76 C 0.01425 0.64099 0.07453 0.0
C77 C 0.96914 0.61189 0.08358 0.0
C78 C 0.97052 0.66714 0.05947 0.0
N79 N 0.01509 0.676 0.05948 0.0
O80 O 0.86363 0.60779 0.04402 0.0
H81 H 0.95764 0.58176 0.09715 0.0
H82 H 0.95943 0.6892 0.04939 0.0
O83 O 0.86446 0.54274 0.08029 0.0
C84 C 0.86426 0.64556 0.0378 0.0
O85 O 0.88007 0.67925 0.05669 0.0
N86 N 0.89172 0.60821 0.12147 0.0
C87 C 0.91595 0.61649 0.17884 0.0
C88 C 0.87878 0.57475 0.16798 0.0
C89 C 0.86759 0.57116 0.13916 0.0
C90 C 0.92608 0.64968 0.13175 0.0
C91 C 0.93972 0.65416 0.16002 0.0
H92 H 0.83909 0.5388 0.13116 0.0
H93 H 0.94389 0.67933 0.11773 0.0
H94 H 0.78034 0.51544 0.07628 0.0
H95 H 0.72557 0.59798 0.10557 0.0
H96 H 0.04429 0.63754 0.07961 0.0
H97 H 0.85804 0.54502 0.18147 0.0
H98 H 0.96925 0.68692 0.16664 0.0
C99 C 0.22017 0.39871 0.36943 0.0
C100 C 0.19723 0.42225 0.36195 0.0
N101 N 0.20889 0.45711 0.3807 0.0
N102 N 0.24677 0.41932 0.39244 0.0
C103 C 0.23874 0.45441 0.399 0.0
H104 H 0.21797 0.3688 0.35867 0.0
Co105 Co 0.28515 0.40237 0.41157 0.0
C106 C 0.35962 0.49395 0.43471 0.0
O107 O 0.36382 0.4766 0.45883 0.0
N108 N 0.32276 0.38422 0.4309 0.0
C109 C 0.38051 0.37282 0.4448 0.0
C110 C 0.36901 0.40027 0.42859 0.0
C111 C 0.3069 0.34686 0.44816 0.0
N112 N 0.34126 0.33908 0.45709 0.0
O113 O 0.25555 0.40317 0.44615 0.0
H114 H 0.39263 0.42937 0.41546 0.0
H115 H 0.27036 0.32461 0.45311 0.0
O116 O 0.33072 0.46767 0.41597 0.0
C117 C 0.21428 0.36885 0.44893 0.0
O118 O 0.19916 0.3348 0.43028 0.0
N119 N 0.31214 0.4001 0.37714 0.0
C120 C 0.34066 0.38881 0.32363 0.0
C121 C 0.34699 0.4322 0.33208 0.0
C122 C 0.33257 0.43721 0.35901 0.0
C123 C 0.30609 0.35775 0.36937 0.0
C124 C 0.32072 0.35147 0.34279 0.0
H125 H 0.33585 0.47035 0.36469 0.0
H126 H 0.28866 0.32835 0.38361 0.0
H127 H 0.25506 0.47802 0.41663 0.0
H128 H 0.17373 0.41431 0.34418 0.0
H129 H 0.41507 0.37735 0.44718 0.0
H130 H 0.36203 0.46173 0.31775 0.0
H131 H 0.31455 0.31724 0.33679 0.0
C132 C 0.61844 0.81688 0.38187 0.0
C133 C 0.59893 0.76904 0.38256 0.0
N134 N 0.55639 0.7507 0.39455 0.0
N135 N 0.58835 0.82835 0.39359 0.0
C136 C 0.55073 0.78728 0.40085 0.0
H137 H 0.65372 0.84184 0.37554 0.0
Co138 Co 0.60327 0.88667 0.40728 0.0
C139 C 0.50983 0.86783 0.42483 0.0
O140 O 0.52381 0.87791 0.45127 0.0
N141 N 0.61889 0.94532 0.42162 0.0
C142 C 0.62474 0.01406 0.43057 0.0
C143 C 0.60021 0.97257 0.41598 0.0
C144 C 0.65482 0.97105 0.43922 0.0
N145 N 0.65906 0.01285 0.44527 0.0
O146 O 0.5967 0.86228 0.44455 0.0
H147 H 0.57104 0.96318 0.40188 0.0
H148 H 0.67845 0.95994 0.44682 0.0
O149 O 0.53814 0.86975 0.40582 0.0
C150 C 0.63306 0.86192 0.453 0.0
O151 O 0.67096 0.88236 0.43734 0.0
N152 N 0.61249 0.91004 0.37059 0.0
C153 C 0.63335 0.9495 0.31676 0.0
C154 C 0.58867 0.91222 0.32295 0.0
C155 C 0.57903 0.89261 0.35003 0.0
C156 C 0.65649 0.94509 0.36472 0.0
C157 C 0.6676 0.96568 0.33799 0.0
H158 H 0.54498 0.86304 0.35431 0.0
H159 H 0.68303 0.9574 0.38101 0.0
H160 H 0.52188 0.78445 0.41325 0.0
H161 H 0.61564 0.74948 0.3762 0.0
H162 H 0.61762 0.04261 0.43048 0.0
H163 H 0.56164 0.89786 0.30691 0.0
H164 H 0.70251 0.99439 0.33414 0.0
C165 C 0.17964 0.78662 0.38449 0.0
C166 C 0.22784 0.81108 0.38369 0.0
N167 N 0.24367 0.79723 0.40576 0.0
N168 N 0.16523 0.75687 0.40675 0.0
C169 C 0.20533 0.76462 0.41921 0.0
H170 H 0.15719 0.79082 0.36967 0.0
Co171 Co 0.10581 0.71392 0.42158 0.0
C172 C 0.1461 0.65752 0.4012 0.0
O173 O 0.15985 0.68387 0.37841 0.0
N174 N 0.04802 0.67325 0.437 0.0
C175 C 0.98623 0.61642 0.45875 0.0
C176 C 0.03057 0.63061 0.44873 0.0
C177 C 0.0141 0.68416 0.43999 0.0
N178 N 0.97602 0.65038 0.45331 0.0
O179 O 0.13146 0.73166 0.45866 0.0
H180 H 0.04916 0.61158 0.45061 0.0
H181 H 0.0178 0.7168 0.43268 0.0
O182 O 0.1229 0.66461 0.42042 0.0
C183 C 0.13071 0.76793 0.46686 0.0
O184 O 0.10735 0.78252 0.4515 0.0
N185 N 0.07833 0.69895 0.3855 0.0
C186 C 0.03174 0.68504 0.33372 0.0
C187 C 0.04038 0.65072 0.34509 0.0
C188 C 0.06179 0.65751 0.37153 0.0
C189 C 0.06784 0.73135 0.37582 0.0
C190 C 0.04458 0.72516 0.35015 0.0
H191 H 0.06429 0.62901 0.3807 0.0
H192 H 0.0774 0.76223 0.38837 0.0
H193 H 0.20649 0.74569 0.43761 0.0
H194 H 0.24949 0.83744 0.36837 0.0
H195 H 0.96413 0.58444 0.47015 0.0
H196 H 0.03095 0.61869 0.33391 0.0
H197 H 0.03649 0.75164 0.34362 0.0
C198 C 0.63095 0.80801 0.88876 0.0
C199 C 0.61044 0.83546 0.88995 0.0
N200 N 0.56772 0.80995 0.90148 0.0
N201 N 0.6013 0.76574 0.89976 0.0
C202 C 0.56303 0.76796 0.90718 0.0
H203 H 0.66636 0.81915 0.88226 0.0
Co204 Co 0.61625 0.72127 0.91112 0.0
C205 C 0.52537 0.65032 0.93376 0.0
O206 O 0.54329 0.6563 0.95931 0.0
N207 N 0.63122 0.67634 0.92269 0.0
C208 C 0.63097 0.60923 0.92631 0.0
C209 C 0.60902 0.63113 0.91459 0.0
C210 C 0.66696 0.68127 0.93899 0.0
N211 N 0.6675 0.64083 0.94161 0.0
O212 O 0.61548 0.73999 0.94921 0.0
H213 H 0.57914 0.61516 0.9006 0.0
H214 H 0.69204 0.71384 0.94878 0.0
O215 O 0.55069 0.67453 0.91305 0.0
C216 C 0.65234 0.77703 0.95666 0.0
O217 O 0.68944 0.79274 0.94039 0.0
N218 N 0.61994 0.7066 0.87348 0.0
C219 C 0.63544 0.68627 0.8185 0.0
C220 C 0.59008 0.67281 0.82793 0.0
C221 C 0.58316 0.68413 0.85536 0.0
C222 C 0.66427 0.72136 0.86457 0.0
C223 C 0.67288 0.71183 0.83716 0.0
H224 H 0.54829 0.67463 0.86192 0.0
H225 H 0.6931 0.74041 0.87903 0.0
H226 H 0.53395 0.74096 0.9189 0.0
H227 H 0.62637 0.87185 0.88403 0.0
H228 H 0.62144 0.57312 0.92324 0.0
H229 H 0.55992 0.65305 0.81451 0.0
H230 H 0.70866 0.72455 0.83074 0.0
C231 C 0.19713 0.80484 0.90387 0.0
C232 C 0.16916 0.75697 0.90318 0.0
N233 N 0.19438 0.73813 0.91281 0.0
N234 N 0.23946 0.81571 0.91408 0.0
C235 C 0.23668 0.77433 0.91932 0.0
H236 H 0.18681 0.83015 0.89844 0.0
Co237 Co 0.2865 0.87458 0.92438 0.0
C238 C 0.36295 0.85843 0.9417 0.0
O239 O 0.36985 0.88281 0.96501 0.0
N240 N 0.33344 0.93448 0.93484 0.0
C241 C 0.39873 0.0034 0.93497 0.0
C242 C 0.3774 0.95855 0.92463 0.0
C243 C 0.32873 0.96549 0.95107 0.0
N244 N 0.36795 0.00784 0.95151 0.0
O245 O 0.27108 0.8563 0.96303 0.0
H246 H 0.3924 0.9449 0.90967 0.0
H247 H 0.29675 0.95739 0.96187 0.0
O248 O 0.33112 0.85292 0.92432 0.0
C249 C 0.2349 0.8571 0.97146 0.0
O250 O 0.2187 0.8785 0.95559 0.0
N251 N 0.29861 0.89132 0.8863 0.0
C252 C 0.31515 0.92082 0.83016 0.0
C253 C 0.32003 0.88303 0.83901 0.0
C254 C 0.31148 0.86869 0.86727 0.0
C255 C 0.29186 0.92684 0.87783 0.0
C256 C 0.30054 0.9426 0.84989 0.0
H257 H 0.3149 0.83922 0.87374 0.0
H258 H 0.2801 0.94333 0.89297 0.0
H259 H 0.26409 0.77059 0.92927 0.0
H260 H 0.13301 0.73754 0.89656 0.0
H261 H 0.43352 0.03105 0.92971 0.0
H262 H 0.33094 0.86514 0.82431 0.0
H263 H 0.29539 0.97123 0.84369 0.0
C264 C 0.21138 0.39658 0.86212 0.0
C265 C 0.25935 0.42149 0.86002 0.0
N266 N 0.27581 0.45485 0.88017 0.0
N267 N 0.19794 0.41473 0.88324 0.0
C268 C 0.23787 0.44984 0.89394 0.0
H269 H 0.18779 0.36721 0.84914 0.0
Co270 Co 0.13813 0.39524 0.89594 0.0
C271 C 0.14776 0.47948 0.92341 0.0
O272 O 0.12334 0.45536 0.94545 0.0
N273 N 0.07766 0.37486 0.90871 0.0
C274 C 0.0058 0.36305 0.91393 0.0
C275 C 0.0493 0.39211 0.90267 0.0
C276 C 0.05076 0.33542 0.92337 0.0
N277 N 0.00672 0.3272 0.92687 0.0
O278 O 0.15793 0.39108 0.93329 0.0
H279 H 0.05921 0.42301 0.8901 0.0
H280 H 0.06329 0.31288 0.93099 0.0
O281 O 0.15525 0.45928 0.90277 0.0
C282 C 0.16242 0.35593 0.93894 0.0
O283 O 0.14823 0.32212 0.9202 0.0
N284 N 0.11955 0.39834 0.85903 0.0
C285 C 0.087 0.39773 0.80467 0.0
C286 C 0.12408 0.43871 0.81591 0.0
C287 C 0.13987 0.43834 0.84329 0.0
C288 C 0.08495 0.35771 0.8479 0.0
C289 C 0.06756 0.35678 0.82086 0.0
H290 H 0.16863 0.47009 0.85171 0.0
H291 H 0.07028 0.32601 0.86031 0.0
H292 H 0.23901 0.47159 0.91141 0.0
H293 H 0.28045 0.41516 0.8451 0.0
H294 H 0.97558 0.36735 0.91188 0.0
H295 H 0.14018 0.47082 0.80381 0.0
H296 H 0.03949 0.32428 0.81256 0.0
C297 C 0.77879 0.61791 0.58723 0.0
C298 C 0.80614 0.59778 0.59111 0.0
N299 N 0.7782 0.55127 0.59003 0.0
N300 N 0.73405 0.5841 0.58316 0.0
C301 C 0.73493 0.54381 0.58522 0.0
H302 H 0.79143 0.65483 0.58491 0.0
Co303 Co 0.68771 0.59349 0.56739 0.0
C304 C 0.62472 0.49726 0.54828 0.0
O305 O 0.63182 0.51077 0.52167 0.0
N306 N 0.64189 0.60359 0.55141 0.0
C307 C 0.57478 0.59957 0.53992 0.0
C308 C 0.59496 0.57607 0.5518 0.0
C309 C 0.64926 0.64373 0.53946 0.0
N310 N 0.60898 0.64229 0.53222 0.0
O311 O 0.71006 0.58865 0.53099 0.0
H312 H 0.57606 0.54166 0.56102 0.0
H313 H 0.68363 0.67365 0.53653 0.0
O314 O 0.64472 0.52699 0.56808 0.0
C315 C 0.74566 0.62502 0.52153 0.0
O316 O 0.7581 0.66518 0.53386 0.0
N317 N 0.669 0.60096 0.60341 0.0
C318 C 0.64943 0.62249 0.65677 0.0
C319 C 0.61819 0.58024 0.64371 0.0
C320 C 0.62879 0.56988 0.61696 0.0
C321 C 0.69902 0.64273 0.61559 0.0
C322 C 0.69029 0.65395 0.64254 0.0
H323 H 0.60425 0.53721 0.60723 0.0
H324 H 0.72997 0.66753 0.60425 0.0
H325 H 0.70564 0.5097 0.58054 0.0
H326 H 0.84382 0.61577 0.59271 0.0
H327 H 0.5377 0.58665 0.53807 0.0
H328 H 0.5862 0.55533 0.65423 0.0
H329 H 0.71487 0.68713 0.65203 0.0
C330 C 0.39254 0.18226 0.62996 0.0
C331 C 0.41717 0.23024 0.63264 0.0
N332 N 0.44835 0.24768 0.61129 0.0
N333 N 0.40884 0.16997 0.60727 0.0
C334 C 0.44268 0.21047 0.59645 0.0
H335 H 0.36413 0.15801 0.64332 0.0
Co336 Co 0.38863 0.11203 0.59104 0.0
C337 C 0.47675 0.13376 0.56239 0.0
O338 O 0.4564 0.12516 0.53746 0.0
N339 N 0.36826 0.05405 0.57456 0.0
C340 C 0.35976 0.98579 0.56164 0.0
C341 C 0.38899 0.02785 0.57444 0.0
C342 C 0.32648 0.02722 0.56216 0.0
N343 N 0.32012 0.98519 0.55397 0.0
O344 O 0.38618 0.13782 0.55514 0.0
H345 H 0.42273 0.03814 0.58363 0.0
H346 H 0.30085 0.03817 0.56009 0.0
O347 O 0.45314 0.12888 0.5848 0.0
C348 C 0.35288 0.14625 0.55196 0.0
O349 O 0.32013 0.13133 0.57145 0.0
N350 N 0.38872 0.08727 0.62653 0.0
C351 C 0.3805 0.05154 0.68096 0.0
C352 C 0.4237 0.0871 0.671 0.0
C353 C 0.42708 0.10465 0.64366 0.0
C354 C 0.34641 0.05303 0.63594 0.0
C355 C 0.3416 0.03426 0.663 0.0
H356 H 0.46005 0.13338 0.63672 0.0
H357 H 0.31598 0.04088 0.62254 0.0
H358 H 0.46244 0.21264 0.57766 0.0
H359 H 0.4116 0.25071 0.64844 0.0
H360 H 0.36746 0.95799 0.55843 0.0
H361 H 0.45448 0.10158 0.68433 0.0
H362 H 0.30741 0.00759 0.67013 0.0
C363 C 0.81151 0.23668 0.61493 0.0
C364 C 0.76443 0.21301 0.62081 0.0
N365 N 0.74264 0.22509 0.60128 0.0
N366 N 0.81931 0.26397 0.59203 0.0
C367 C 0.77673 0.25605 0.58414 0.0
H368 H 0.83825 0.23356 0.62626 0.0
Co369 Co 0.87564 0.30055 0.57347 0.0
C370 C 0.85896 0.37114 0.5466 0.0
O371 O 0.87199 0.36357 0.52177 0.0
N372 N 0.93229 0.3367 0.55487 0.0
C373 C 1.00179 0.39449 0.54173 0.0
C374 C 0.96132 0.38326 0.55614 0.0
C375 C 0.95587 0.32037 0.53992 0.0
N376 N 0.99836 0.35478 0.53161 0.0
O377 O 0.84614 0.27132 0.53866 0.0
H378 H 0.95415 0.40735 0.56757 0.0
H379 H 0.94287 0.28363 0.53636 0.0
O380 O 0.8592 0.34828 0.56824 0.0
C381 C 0.84003 0.23029 0.5367 0.0
O382 O 0.8581 0.21604 0.55644 0.0
N383 N 0.90433 0.32654 0.60792 0.0
C384 C 0.94597 0.35421 0.66091 0.0
C385 C 0.91102 0.36396 0.65258 0.0
C386 C 0.89057 0.34983 0.62584 0.0
C387 C 0.93809 0.31668 0.61573 0.0
C388 C 0.95983 0.33073 0.64202 0.0
H389 H 0.86255 0.35605 0.62003 0.0
H390 H 0.94743 0.29682 0.60166 0.0
H391 H 0.77086 0.27235 0.56593 0.0
H392 H 0.74741 0.18778 0.6376 0.0
H393 H 0.03149 0.42918 0.53916 0.0
H394 H 0.8992 0.38169 0.66677 0.0
H395 H 0.98594 0.32165 0.64795 0.0
H396 H 0.62179 0.16672 0.02857 0.0
H397 H 0.64611 0.13881 0.11438 0.0
H398 H 0.58569 0.15418 0.13165 0.0
H399 H 0.52645 0.17673 0.12262 0.0
H400 H 0.50278 0.20572 0.03705 0.0
H401 H 0.56208 0.18875 0.01952 0.0
C402 C 0.61378 0.16388 0.05103 0.0
C403 C 0.63874 0.15192 0.07012 0.0
C404 C 0.57901 0.17302 0.06092 0.0
C405 C 0.62795 0.14853 0.0992 0.0
C406 C 0.59319 0.15712 0.10913 0.0
C407 C 0.53404 0.17893 0.10013 0.0
C408 C 0.51018 0.19248 0.08122 0.0
C409 C 0.56859 0.16954 0.09022 0.0
C410 C 0.52089 0.19583 0.05213 0.0
C411 C 0.55474 0.18597 0.04206 0.0
H412 H 0.78912 0.30973 0.09903 0.0
H413 H 0.9145 0.329 0.05907 0.0
H414 H 0.93622 0.40914 0.04614 0.0
H415 H 0.91972 0.4741 0.04693 0.0
H416 H 0.79774 0.45665 0.09104 0.0
H417 H 0.77422 0.37563 0.10152 0.0
C418 C 0.82112 0.33172 0.0875 0.0
C419 C 0.85029 0.31395 0.08 0.0
C420 C 0.8338 0.37794 0.08083 0.0
C421 C 0.89191 0.34244 0.06526 0.0
C422 C 0.90413 0.38804 0.05777 0.0
C423 C 0.88782 0.45237 0.05862 0.0
C424 C 0.86016 0.47113 0.06782 0.0
C425 C 0.87538 0.40623 0.06551 0.0
C426 C 0.81944 0.44295 0.08351 0.0
C427 C 0.806 0.39662 0.08959 0.0
H428 H 0.66943 0.54079 0.05888 0.0
H429 H 0.70517 0.45843 0.11275 0.0
H430 H 0.62729 0.39035 0.10601 0.0
H431 H 0.549 0.35483 0.08517 0.0
H432 H 0.51428 0.43516 0.02844 0.0
H433 H 0.59186 0.50338 0.03546 0.0
C434 C 0.65969 0.50789 0.06919 0.0
C435 C 0.69218 0.50435 0.08665 0.0
C436 C 0.61537 0.46867 0.0645 0.0
C437 C 0.68019 0.46156 0.09944 0.0
C438 C 0.63587 0.42283 0.09555 0.0
C439 C 0.55847 0.38725 0.07428 0.0
C440 C 0.5259 0.39007 0.05646 0.0
C441 C 0.60317 0.42601 0.07816 0.0
C442 C 0.53883 0.43208 0.0422 0.0
C443 C 0.58306 0.47117 0.04634 0.0
H444 H 0.19035 0.49553 0.42569 0.0
H445 H 0.19658 0.49702 0.33438 0.0
H446 H 0.17668 0.55881 0.33286 0.0
H447 H 0.15998 0.61377 0.35734 0.0
H448 H 0.15031 0.61155 0.44856 0.0
H449 H 0.16891 0.54843 0.4504 0.0
C450 C 0.18732 0.50954 0.40554 0.0
C451 C 0.19509 0.492 0.38016 0.0
C452 C 0.17534 0.54479 0.40485 0.0
C453 C 0.19039 0.50976 0.35412 0.0
C454 C 0.17926 0.54521 0.35327 0.0
C455 C 0.16193 0.59953 0.37767 0.0
C456 C 0.15434 0.6176 0.40281 0.0
C457 C 0.17202 0.56317 0.37847 0.0
C458 C 0.1561 0.59819 0.42893 0.0
C459 C 0.16687 0.56227 0.42997 0.0
H460 H 0.46342 0.70147 0.39051 0.0
H461 H 0.58305 0.69445 0.41965 0.0
H462 H 0.53217 0.61496 0.43715 0.0
H463 H 0.4531 0.54662 0.44325 0.0
H464 H 0.33442 0.55169 0.40987 0.0
H465 H 0.38493 0.63269 0.39523 0.0
C466 C 0.47809 0.68229 0.40066 0.0
C467 C 0.52667 0.70336 0.40368 0.0
C468 C 0.44869 0.63642 0.41007 0.0
C469 C 0.5457 0.67842 0.4167 0.0
C470 C 0.51661 0.63319 0.42687 0.0
C471 C 0.43844 0.56582 0.43309 0.0
C472 C 0.39019 0.54371 0.42797 0.0
C473 C 0.46801 0.61177 0.42363 0.0
C474 C 0.3715 0.5683 0.41417 0.0
C475 C 0.40035 0.61449 0.40572 0.0
H476 H 0.43735 0.85076 0.45976 0.0
H477 H 0.4746 0.85924 0.37136 0.0
H478 H 0.39611 0.84037 0.3576 0.0
H479 H 0.31584 0.81959 0.37059 0.0
H480 H 0.27806 0.80924 0.45879 0.0
H481 H 0.35754 0.83087 0.47272 0.0
C482 C 0.42836 0.84857 0.43749 0.0
C483 C 0.46193 0.85626 0.41668 0.0
C484 C 0.38292 0.8374 0.42966 0.0
C485 C 0.44951 0.85317 0.38789 0.0
C486 C 0.40457 0.84252 0.37995 0.0
C487 C 0.32532 0.82264 0.39281 0.0
C488 C 0.29127 0.8128 0.41363 0.0
C489 C 0.37093 0.83441 0.40064 0.0
C490 C 0.30365 0.8162 0.44241 0.0
C491 C 0.34908 0.82865 0.45037 0.0
H492 H 0.4561 0.90109 0.95139 0.0
H493 H 0.34184 0.77895 0.91322 0.0
H494 H 0.39537 0.75243 0.8978 0.0
H495 H 0.47521 0.76483 0.89442 0.0
H496 H 0.59025 0.88989 0.92897 0.0
H497 H 0.53631 0.91488 0.94643 0.0
C498 C 0.443 0.86846 0.93996 0.0
C499 C 0.39514 0.84161 0.93377 0.0
C500 C 0.47424 0.85435 0.93026 0.0
C501 C 0.37857 0.79997 0.91835 0.0
C502 C 0.40914 0.78488 0.90948 0.0
C503 C 0.48819 0.79757 0.9057 0.0
C504 C 0.53635 0.8257 0.91034 0.0
C505 C 0.45707 0.81193 0.91514 0.0
C506 C 0.55325 0.86817 0.92486 0.0
C507 C 0.52243 0.8822 0.93499 0.0
H508 H 0.10232 0.52456 0.9401 0.0
H509 H 0.22954 0.54615 0.9011 0.0
H510 H 0.25619 0.62919 0.89527 0.0
H511 H 0.24227 0.69526 0.90013 0.0
H512 H 0.11243 0.67284 0.9351 0.0
H513 H 0.08735 0.59044 0.94352 0.0
C514 C 0.13604 0.54769 0.93061 0.0
C515 C 0.16427 0.5297 0.92133 0.0
C516 C 0.1503 0.59499 0.92637 0.0
C517 C 0.20742 0.55951 0.90848 0.0
C518 C 0.22259 0.60686 0.9051 0.0
C519 C 0.20857 0.67214 0.90963 0.0
C520 C 0.17914 0.68965 0.91703 0.0
C521 C 0.19418 0.62489 0.91377 0.0
C522 C 0.1353 0.65968 0.92904 0.0
C523 C 0.12117 0.6128 0.93397 0.0
H524 H 0.48698 0.60868 0.88365 0.0
H525 H 0.45479 0.60814 0.97234 0.0
H526 H 0.37431 0.5466 0.9636 0.0
H527 H 0.31326 0.49339 0.93062 0.0
H528 H 0.34598 0.49414 0.84202 0.0
H529 H 0.42652 0.5551 0.85089 0.0
C530 C 0.4623 0.59555 0.90102 0.0
C531 C 0.47668 0.6134 0.92853 0.0
C532 C 0.41637 0.56004 0.89588 0.0
C533 C 0.44452 0.59505 0.95095 0.0
C534 C 0.39853 0.55992 0.94597 0.0
C535 C 0.33794 0.50717 0.91324 0.0
C536 C 0.32363 0.48948 0.88567 0.0
C537 C 0.38408 0.54225 0.9185 0.0
C538 C 0.35626 0.50689 0.86345 0.0
C539 C 0.40219 0.54194 0.86848 0.0
H540 H 0.8289 0.54553 0.54783 0.0
H541 H 0.75622 0.47939 0.62478 0.0
H542 H 0.77524 0.41709 0.61826 0.0
H543 H 0.81129 0.38122 0.59008 0.0
H544 H 0.88006 0.44466 0.51128 0.0
H545 H 0.86341 0.50814 0.51871 0.0
C546 C 0.81796 0.51764 0.56322 0.0
C547 C 0.79219 0.51698 0.58704 0.0
C548 C 0.82781 0.48146 0.55876 0.0
C549 C 0.77671 0.4804 0.60659 0.0
C550 C 0.78738 0.44491 0.60275 0.0
C551 C 0.82275 0.40899 0.57455 0.0
C552 C 0.84709 0.40838 0.55024 0.0
C553 C 0.81269 0.44499 0.57884 0.0
C554 C 0.86112 0.44425 0.53012 0.0
C555 C 0.85183 0.48066 0.53442 0.0
H556 H 0.59611 0.46008 0.60088 0.0
H557 H 0.57677 0.42435 0.5119 0.0
H558 H 0.51936 0.34389 0.52374 0.0
H559 H 0.47465 0.28402 0.55921 0.0
H560 H 0.49289 0.31933 0.64807 0.0
H561 H 0.55008 0.40037 0.63637 0.0
C562 C 0.57931 0.43481 0.58403 0.0
C563 C 0.59073 0.44832 0.55552 0.0
C564 C 0.54596 0.38876 0.59096 0.0
C565 C 0.56868 0.41496 0.53401 0.0
C566 C 0.53578 0.36895 0.54075 0.0
C567 C 0.49144 0.30937 0.57603 0.0
C568 C 0.48004 0.29574 0.60449 0.0
C569 C 0.52422 0.35553 0.56913 0.0
C570 C 0.50104 0.32918 0.62603 0.0
C571 C 0.53389 0.37532 0.61934 0.0
H572 H 0.69408 0.21173 0.55292 0.0
H573 H 0.67981 0.19793 0.64381 0.0
H574 H 0.59584 0.16747 0.63971 0.0
H575 H 0.52693 0.14567 0.61043 0.0
H576 H 0.54055 0.15907 0.51941 0.0
H577 H 0.62445 0.18887 0.52342 0.0
C578 C 0.67263 0.20246 0.57182 0.0
C579 C 0.69318 0.20729 0.59865 0.0
C580 C 0.62433 0.18482 0.56927 0.0
C581 C 0.66477 0.19419 0.62292 0.0
C582 C 0.61681 0.17696 0.62059 0.0
C583 C 0.54812 0.15513 0.59143 0.0
C584 C 0.52736 0.15031 0.56467 0.0
C585 C 0.59626 0.1722 0.59389 0.0
C586 C 0.55551 0.16238 0.54029 0.0
C587 C 0.60355 0.17954 0.54256 0.0
H588 H 0.42863 0.19435 0.01796 0.0
H589 H 0.2796 0.13737 0.0189 0.0
H590 H 0.26904 0.0726 0.98886 0.0
H591 H 0.30153 0.02879 0.96599 0.0
H592 H 0.45011 0.08187 0.96839 0.0
H593 H 0.46161 0.15152 0.99325 0.0
C594 C 0.39404 0.16827 0.01099 0.0
C595 C 0.35495 0.17058 0.02041 0.0
C596 C 0.38812 0.13003 0.99474 0.0
C597 C 0.31016 0.13626 0.01173 0.0
C598 C 0.3041 0.09909 0.99476 0.0
C599 C 0.33642 0.05533 0.97208 0.0
C600 C 0.37479 0.04965 0.9655 0.0
C601 C 0.34271 0.09489 0.98685 0.0
C602 C 0.41989 0.08525 0.973 0.0
C603 C 0.42652 0.12512 0.98734 0.0
H604 H 0.87029 0.14891 -0.00423 0.0
H605 H 0.79934 0.22723 0.00735 0.0
H606 H 0.85482 0.28789 0.97536 0.0
H607 H 0.92861 0.32233 0.94869 0.0
H608 H 0.99839 0.24261 0.937 0.0
H609 H 0.93855 0.17916 0.96481 0.0
C610 C 0.86646 0.17885 0.99083 0.0
C611 C 0.83104 0.18377 0.00392 0.0
C612 C 0.89882 0.21377 0.9729 0.0
C613 C 0.82616 0.22251 -0.0027 0.0
C614 C 0.85818 0.25742 0.97926 0.0
C615 C 0.93043 0.29085 0.95175 0.0
C616 C 0.9688 0.28801 0.94118 0.0
C617 C 0.89546 0.25402 0.96761 0.0
C618 C 0.97029 0.2467 0.94553 0.0
C619 C 0.93575 0.21004 0.96125 0.0
H620 H 0.7811 0.57751 0.01802 0.0
H621 H 0.88688 0.72113 0.00527 0.0
H622 H 0.8355 0.73198 0.97275 0.0
H623 H 0.75799 0.70263 0.95162 0.0
H624 H 0.65039 0.56043 0.96687 0.0
H625 H 0.70472 0.54691 0.99472 0.0
C626 C 0.79329 0.61069 0.00738 0.0
C627 C 0.83778 0.64835 0.0136 0.0
C628 C 0.76285 0.61716 0.98966 0.0
C629 C 0.85284 0.6916 0.00045 0.0
C630 C 0.82336 0.69792 0.98211 0.0
C631 C 0.74647 0.66875 0.96107 0.0
C632 C 0.70015 0.63273 0.95731 0.0
C633 C 0.7778 0.66135 0.97725 0.0
C634 C 0.68595 0.58868 0.96926 0.0
C635 C 0.71697 0.58093 0.98525 0.0
H636 H 0.09191 0.41343 0.53194 0.0
H637 H 0.98349 0.28451 0.49597 0.0
H638 H 0.04163 0.27566 0.46931 0.0
H639 H 0.12236 0.30595 0.45446 0.0
H640 H 0.23107 0.43671 0.48821 0.0
H641 H 0.17358 0.44336 0.51753 0.0
C642 C 0.08088 0.38357 0.51813 0.0
C643 C 0.03317 0.34973 0.51602 0.0
C644 C 0.11456 0.37895 0.5025 0.0
C645 C 0.01984 0.31083 0.49835 0.0
C646 C 0.0531 0.30583 0.48295 0.0
C647 C 0.13371 0.33575 0.46843 0.0
C648 C 0.181 0.37077 0.46913 0.0
C649 C 0.10045 0.3398 0.48472 0.0
C650 C 0.19492 0.40915 0.48732 0.0
C651 C 0.16202 0.41309 0.50397 0.0
H652 H 0.56141 0.77515 0.46327 0.0
H653 H 0.70009 0.87592 0.49096 0.0
H654 H 0.70344 0.81667 0.52023 0.0
H655 H 0.67024 0.73485 0.53376 0.0
H656 H 0.53468 0.63242 0.502 0.0
H657 H 0.52642 0.69373 0.47896 0.0
C658 C 0.59175 0.78433 0.47637 0.0
C659 C 0.63032 0.82971 0.47528 0.0
C660 C 0.59428 0.74959 0.492 0.0
C661 C 0.66993 0.84112 0.49175 0.0
C662 C 0.67199 0.80722 0.50824 0.0
C663 C 0.63901 0.72574 0.52167 0.0
C664 C 0.60342 0.67886 0.51949 0.0
C665 C 0.63502 0.76101 0.50773 0.0
C666 C 0.56262 0.66812 0.50428 0.0
C667 C 0.55791 0.70318 0.49091 0.0
H668 H 0.30051 0.89563 0.5458 0.0
H669 H 0.24697 0.98917 0.53034 0.0
H670 H 0.18067 0.92772 0.50556 0.0
H671 H 0.1407 0.84989 0.48495 0.0
H672 H 0.19623 0.75754 0.49677 0.0
H673 H 0.25884 0.81626 0.52636 0.0
C674 C 0.27471 0.90303 0.53699 0.0
C675 C 0.27965 0.94775 0.54006 0.0
C676 C 0.23677 0.8676 0.52203 0.0
C677 C 0.24471 0.95554 0.52873 0.0
C678 C 0.20655 0.92028 0.51433 0.0
C679 C 0.16609 0.8422 0.49427 0.0
C680 C 0.16382 0.7994 0.48855 0.0
C681 C 0.20263 0.87651 0.51049 0.0
C682 C 0.197 0.79012 0.50091 0.0
C683 C 0.23302 0.82384 0.51766 0.0
H684 H 0.61355 0.91472 0.0279 0.0
H685 H 0.7642 0.98838 0.03224 0.0
H686 H 0.76577 0.92497 0.00739 0.0
H687 H 0.72513 0.8506 0.98206 0.0
H688 H 0.57469 0.77562 0.97813 0.0
H689 H 0.57236 0.83677 0.00599 0.0
C690 C 0.64674 0.91678 0.02381 0.0
C691 C 0.68868 0.95706 0.03165 0.0
C692 C 0.6475 0.87964 0.00975 0.0
C693 C 0.7313 0.95876 0.0259 0.0
C694 C 0.73231 0.92215 0.01188 0.0
C695 C 0.69178 0.84723 0.98773 0.0
C696 C 0.65022 0.80864 0.97805 0.0
C697 C 0.69072 0.88276 0.00338 0.0
C698 C 0.60725 0.80472 0.98558 0.0
C699 C 0.6059 0.83995 0.00127 0.0
H700 H 0.09665 0.68204 0.04333 0.0
H701 H 0.0247 0.76063 0.0478 0.0
H702 H 0.08918 0.82567 0.02358 0.0
H703 H 0.1632 0.85831 -0.00197 0.0
H704 H 0.23614 0.78089 0.99325 0.0
H705 H 0.17496 0.71819 0.02156 0.0
C706 C 0.0953 0.71359 0.03941 0.0
C707 C 0.05515 0.71573 0.04696 0.0
C708 C 0.13293 0.75136 0.02557 0.0
C709 C 0.05426 0.75711 0.04156 0.0
C710 C 0.09144 0.79469 0.02792 0.0
C711 C 0.16618 0.8281 0.00362 0.0
C712 C 0.20409 0.82427 0.99348 0.0
C713 C 0.1305 0.79187 0.01936 0.0
C714 C 0.20753 0.78496 0.00099 0.0
C715 C 0.17226 0.74884 0.01692 0.0
H716 H 0.16458 0.28231 0.96235 0.0
H717 H 0.22386 0.43125 0.97031 0.0
H718 H 0.2781 0.43371 0.00636 0.0
H719 H 0.31255 0.39444 0.03262 0.0
H720 H 0.25103 0.24479 0.02572 0.0
H721 H 0.19434 0.24208 0.99203 0.0
C722 C 0.189 0.31523 0.97223 0.0
C723 C 0.19032 0.35651 0.96358 0.0
C724 C 0.22019 0.31644 0.99284 0.0
C725 C 0.22192 0.39888 0.97671 0.0
C726 C 0.25319 0.40037 -0.00282 0.0
C727 C 0.28649 0.36102 0.02421 0.0
C728 C 0.28719 0.32005 0.0316 0.0
C729 C 0.25323 0.35945 0.00502 0.0
C730 C 0.2527 0.27725 0.02011 0.0
C731 C 0.21978 0.2755 0.00089 0.0
H732 H 0.8901 0.57773 0.46555 0.0
H733 H 0.96973 0.72821 0.46154 0.0
H734 H 0.90296 0.7328 0.47858 0.0
H735 H 0.82431 0.69511 0.49831 0.0
H736 H 0.74497 0.54506 0.50508 0.0
H737 H 0.80901 0.53942 0.4832 0.0
C738 C 0.89291 0.61152 0.46841 0.0
C739 C 0.93526 0.6525 0.4622 0.0
C740 C 0.85429 0.61409 0.47873 0.0
C741 C 0.93774 0.69595 0.46568 0.0
C742 C 0.89951 0.69872 0.47564 0.0
C743 C 0.82061 0.66107 0.49458 0.0
C744 C 0.77988 0.62065 0.50337 0.0
C745 C 0.8579 0.65812 0.48262 0.0
C746 C 0.77576 0.57682 0.49833 0.0
C747 C 0.81257 0.57356 0.48603 0.0
H748 H 0.292 0.17747 0.54402 0.0
H749 H 0.42015 0.1912 0.51127 0.0
H750 H 0.42771 0.25205 0.47861 0.0
H751 H 0.39887 0.30287 0.46039 0.0
H752 H 0.27252 0.29075 0.49528 0.0
H753 H 0.26327 0.22754 0.52585 0.0
C754 C 0.32141 0.19337 0.52956 0.0
C755 C 0.35533 0.17956 0.53006 0.0
C756 C 0.32597 0.22882 0.51125 0.0
C757 C 0.39332 0.20086 0.51124 0.0
C758 C 0.3978 0.23587 0.49265 0.0
C759 C 0.36949 0.28672 0.47479 0.0
C760 C 0.33639 0.30176 0.47531 0.0
C761 C 0.36458 0.25051 0.4927 0.0
C762 C 0.2982 0.27969 0.49396 0.0
C763 C 0.29296 0.24358 0.51163 0.0
H764 H 0.81032 0.13828 0.53428 0.0
H765 H 0.79609 0.24627 0.49219 0.0
H766 H 0.73842 0.18815 0.45972 0.0
H767 H 0.69119 0.10602 0.444 0.0
H768 H 0.70397 0.99911 0.48878 0.0
H769 H 0.76328 0.05765 0.51937 0.0
C770 C 0.79498 0.14937 0.51789 0.0
C771 C 0.8077 0.19659 0.51558 0.0
C772 C 0.76144 0.11587 0.4998 0.0
C773 C 0.78706 0.21012 0.49434 0.0
C774 C 0.75397 0.17688 0.47585 0.0
C775 C 0.70668 0.09551 0.46057 0.0
C776 C 0.69328 0.04808 0.46377 0.0
C777 C 0.7406 0.12952 0.47855 0.0
C778 C 0.71413 0.03527 0.48529 0.0
C779 C 0.74795 0.06875 0.503 0.0
H780 H 0.39123 0.34895 0.30639 0.0
H781 H 0.31313 0.41203 0.27513 0.0
H782 H 0.3255 0.3957 0.22636 0.0
H783 H 0.3556 0.36049 0.19273 0.0
H784 H 0.4359 0.29953 0.22335 0.0
H785 H 0.42596 0.31818 0.27228 0.0
C786 C 0.37717 0.3592 0.28882 0.0
C787 C 0.35124 0.3815 0.29423 0.0
C788 C 0.38474 0.35002 0.26082 0.0
C789 C 0.33351 0.39513 0.27139 0.0
C790 C 0.34035 0.38561 0.24355 0.0
C791 C 0.371 0.35149 0.21018 0.0
C792 C 0.39606 0.32841 0.20466 0.0
C793 C 0.36546 0.36265 0.23805 0.0
C794 C 0.41653 0.31743 0.22724 0.0
C795 C 0.41068 0.32789 0.25515 0.0
H796 H 0.65206 0.04357 0.19751 0.0
H797 H 0.78515 0.04908 0.19956 0.0
H798 H 0.7663 0.01109 0.24595 0.0
H799 H 0.7119 0.97617 0.28571 0.0
H800 H 0.57938 0.97198 0.28403 0.0
H801 H 0.598 0.00939 0.23751 0.0
C802 C 0.67713 0.03691 0.20827 0.0
C803 C 0.71997 0.04922 0.19522 0.0
C804 C 0.66605 0.01507 0.23485 0.0
C805 C 0.75178 0.03958 0.20912 0.0
C806 C 0.7411 0.01803 0.23565 0.0
C807 C 0.68727 0.98383 0.27527 0.0
C808 C 0.64438 0.97142 0.28832 0.0
C809 C 0.69833 0.0056 0.24868 0.0
C810 C 0.61243 0.98073 0.27429 0.0
C811 C 0.62316 0.00238 0.24779 0.0
H812 H 0.95891 0.69568 0.2117 0.0
H813 H 0.90616 0.54687 0.2155 0.0
H814 H 0.93212 0.55456 0.26431 0.0
H815 H 0.97293 0.60348 0.3051 0.0
H816 H 0.04097 0.75375 0.29671 0.0
H817 H 0.00584 0.74496 0.25053 0.0
C818 C 0.95384 0.66474 0.22265 0.0
C819 C 0.9305 0.62074 0.20927 0.0
C820 C 0.97161 0.66957 0.25019 0.0
C821 C 0.92297 0.58127 0.22492 0.0
C822 C 0.93841 0.58561 0.25293 0.0
C823 C 0.98125 0.63465 0.29321 0.0
C824 C 0.00975 0.67929 0.30512 0.0
C825 C 0.96341 0.6297 0.26562 0.0
C826 C 0.01825 0.71871 0.28904 0.0
C827 C 0.99859 0.71385 0.26223 0.0
H828 H 0.69856 0.63292 0.70437 0.0
H829 H 0.57865 0.63694 0.67248 0.0
H830 H 0.56415 0.65835 0.71967 0.0
H831 H 0.58697 0.67747 0.7695 0.0
H832 H 0.70265 0.66544 0.8022 0.0
H833 H 0.71808 0.64674 0.75505 0.0
C834 C 0.66928 0.63847 0.70792 0.0
C835 C 0.63978 0.63376 0.68528 0.0
C836 C 0.66073 0.64975 0.7351 0.0
C837 C 0.60164 0.64045 0.68984 0.0
C838 C 0.59349 0.65275 0.71671 0.0
C839 C 0.61511 0.67003 0.76657 0.0
C840 C 0.64383 0.67353 0.78961 0.0
C841 C 0.6229 0.65758 0.7395 0.0
C842 C 0.68061 0.66443 0.78493 0.0
C843 C 0.68926 0.65318 0.75795 0.0
H844 H 0.36683 0.01011 0.81218 0.0
H845 H 0.28585 0.86869 0.78179 0.0
H846 H 0.30028 0.89655 0.73276 0.0
H847 H 0.33406 0.96143 0.69867 0.0
H848 H 0.41498 0.10282 0.72924 0.0
H849 H 0.40273 0.07469 0.77811 0.0
C850 C 0.35224 0.98548 0.79478 0.0
C851 C 0.32509 0.93752 0.8005 0.0
C852 C 0.36077 0.00172 0.76675 0.0
C853 C 0.30705 0.90579 0.77784 0.0
C854 C 0.31513 0.9217 0.74985 0.0
C855 C 0.34895 0.98601 0.71607 0.0
C856 C 0.37526 0.03409 0.71041 0.0
C857 C 0.34165 0.96961 0.74408 0.0
C858 C 0.39497 0.0656 0.73307 0.0
C859 C 0.38772 0.04958 0.76101 0.0
H860 H 0.99718 0.3666 0.79031 0.0
H861 H 0.13595 0.42835 0.7554 0.0
H862 H 0.10474 0.42303 0.70759 0.0
H863 H 0.03732 0.39655 0.67566 0.0
H864 H 0.89868 0.33576 0.7108 0.0
H865 H 0.93045 0.34553 0.75872 0.0
C866 C 0.02046 0.37895 0.77217 0.0
C867 C 0.06859 0.39735 0.77612 0.0
C868 C 0.00232 0.37606 0.74492 0.0
C869 C 0.09873 0.41406 0.75269 0.0
C870 C 0.08091 0.4109 0.72543 0.0
C871 C 0.01422 0.38579 0.69388 0.0
C872 C 0.96582 0.36527 0.68982 0.0
C873 C 0.0327 0.39136 0.72128 0.0
C874 C 0.93612 0.35195 0.71349 0.0
C875 C 0.95421 0.3572 0.74084 0.0
loop_
_geom_bond_atom_site_label_1
_geom_bond_atom_site_label_2
_geom_bond_distance
_geom_bond_site_symmetry_2
_ccdc_geom_bond_type
C0 C1 1.351 . S
C0 N3 1.368 . S
C0 H5 0.931 . S
C1 C0 1.351 . S
C1 N2 1.373 . S
C1 H29 0.930 . S
N2 C1 1.373 . S
N2 C4 1.340 . S
N3 C0 1.368 . S
N3 C4 1.321 . S
N3 Co6 2.135 . S
C4 N2 1.340 . S
C4 N3 1.321 . S
C4 H28 0.930 . S
H5 C0 0.931 . S
Co6 N3 2.135 . S
Co6 N9 2.121 . S
Co6 O14 2.055 . S
Co6 O17 2.039 . S
Co6 N20 2.140 . S
C7 O8 1.227 . S
C7 O17 1.265 . S
O8 C7 1.227 . S
N9 Co6 2.121 . S
N9 C11 1.375 . S
N9 C12 1.313 . S
C10 C11 1.338 . S
C10 N13 1.377 . S
C10 H30 0.930 . S
C11 N9 1.375 . S
C11 C10 1.338 . S
C11 H15 0.931 . S
C12 N9 1.313 . S
C12 N13 1.344 . S
C12 H16 0.930 . S
N13 C10 1.377 . S
N13 C12 1.344 . S
O14 Co6 2.055 . S
O14 C18 1.253 . S
H15 C11 0.931 . S
H16 C12 0.930 . S
O17 Co6 2.039 . S
O17 C7 1.265 . S
C18 O14 1.253 . S
C18 O19 1.227 . S
O19 C18 1.227 . S
N20 Co6 2.140 . S
N20 C23 1.346 . S
N20 C24 1.345 . S
C21 C22 1.387 . S
C21 C25 1.391 . S
C22 C21 1.387 . S
C22 C23 1.369 . S
C22 H31 0.929 . S
C23 N20 1.346 . S
C23 C22 1.369 . S
C23 H26 0.928 . S
C24 N20 1.345 . S
C24 C25 1.371 . S
C24 H27 0.931 . S
C25 C21 1.391 . S
C25 C24 1.371 . S
C25 H32 0.930 . S
H26 C23 0.928 . S
H27 C24 0.931 . S
H28 C4 0.930 . S
H29 C1 0.930 . S
H30 C10 0.930 . S
H31 C22 0.929 . S
H32 C25 0.930 . S
C33 C34 1.351 . S
C33 N36 1.368 . S
C33 H38 0.931 . S
C34 C33 1.351 . S
C34 N35 1.373 . S
C34 H62 0.930 . S
N35 C34 1.373 . S
N35 C37 1.340 . S
N36 C33 1.368 . S
N36 C37 1.321 . S
N36 Co39 2.135 . S
C37 N35 1.340 . S
C37 N36 1.321 . S
C37 H61 0.930 . S
H38 C33 0.931 . S
Co39 N36 2.135 . S
Co39 N42 2.121 . S
Co39 O47 2.055 . S
Co39 O50 2.039 . S
Co39 N53 2.140 . S
C40 O41 1.227 . S
C40 O50 1.265 . S
O41 C40 1.227 . S
N42 Co39 2.121 . S
N42 C44 1.375 . S
N42 C45 1.313 . S
C43 C44 1.338 . S
C43 N46 1.377 . S
C43 H63 0.930 1_545 S
C44 N42 1.375 . S
C44 C43 1.338 . S
C44 H48 0.931 . S
C45 N42 1.313 . S
C45 N46 1.344 . S
C45 H49 0.930 . S
N46 C43 1.377 . S
N46 C45 1.344 . S
O47 Co39 2.055 . S
O47 C51 1.253 . S
H48 C44 0.931 . S
H49 C45 0.930 . S
O50 Co39 2.039 . S
O50 C40 1.265 . S
C51 O47 1.253 . S
C51 O52 1.227 . S
O52 C51 1.227 . S
N53 Co39 2.140 . S
N53 C56 1.346 . S
N53 C57 1.345 . S
C54 C55 1.387 . S
C54 C58 1.391 . S
C55 C54 1.387 . S
C55 C56 1.369 . S
C55 H64 0.929 . S
C56 N53 1.346 . S
C56 C55 1.369 . S
C56 H59 0.928 . S
C57 N53 1.345 . S
C57 C58 1.371 . S
C57 H60 0.931 . S
C58 C54 1.391 . S
C58 C57 1.371 . S
C58 H65 0.930 . S
H59 C56 0.928 . S
H60 C57 0.931 . S
H61 C37 0.930 . S
H62 C34 0.930 . S
H63 C43 0.930 1_565 S
H64 C55 0.929 . S
H65 C58 0.930 . S
C66 C67 1.351 . S
C66 N69 1.368 . S
C66 H71 0.931 . S
C67 C66 1.351 . S
C67 N68 1.373 . S
C67 H95 0.930 . S
N68 C67 1.373 . S
N68 C70 1.340 . S
N69 C66 1.368 . S
N69 C70 1.321 . S
N69 Co72 2.135 . S
C70 N68 1.340 . S
C70 N69 1.321 . S
C70 H94 0.930 . S
H71 C66 0.931 . S
Co72 N69 2.135 . S
Co72 N75 2.121 . S
Co72 O80 2.055 . S
Co72 O83 2.039 . S
Co72 N86 2.140 . S
C73 O74 1.227 . S
C73 O83 1.265 . S
O74 C73 1.227 . S
N75 Co72 2.121 . S
N75 C77 1.375 . S
N75 C78 1.313 . S
C76 C77 1.338 . S
C76 N79 1.377 . S
C76 H96 0.930 1_655 S
C77 N75 1.375 . S
C77 C76 1.338 . S
C77 H81 0.931 . S
C78 N75 1.313 . S
C78 N79 1.344 . S
C78 H82 0.930 . S
N79 C76 1.377 . S
N79 C78 1.344 . S
O80 Co72 2.055 . S
O80 C84 1.253 . S
H81 C77 0.931 . S
H82 C78 0.930 . S
O83 Co72 2.039 . S
O83 C73 1.265 . S
C84 O80 1.253 . S
C84 O85 1.227 . S
O85 C84 1.227 . S
N86 Co72 2.140 . S
N86 C89 1.346 . S
N86 C90 1.345 . S
C87 C88 1.387 . S
C87 C91 1.391 . S
C88 C87 1.387 . S
C88 C89 1.369 . S
C88 H97 0.929 . S
C89 N86 1.346 . S
C89 C88 1.369 . S
C89 H92 0.928 . S
C90 N86 1.345 . S
C90 C91 1.371 . S
C90 H93 0.931 . S
C91 C87 1.391 . S
C91 C90 1.371 . S
C91 H98 0.930 . S
H92 C89 0.928 . S
H93 C90 0.931 . S
H94 C70 0.930 . S
H95 C67 0.930 . S
H96 C76 0.930 1_455 S
H97 C88 0.929 . S
H98 C91 0.930 . S
C99 C100 1.351 . S
C99 N102 1.368 . S
C99 H104 0.931 . S
C100 C99 1.351 . S
C100 N101 1.373 . S
C100 H128 0.930 . S
N101 C100 1.373 . S
N101 C103 1.340 . S
N102 C99 1.368 . S
N102 C103 1.321 . S
N102 Co105 2.135 . S
C103 N101 1.340 . S
C103 N102 1.321 . S
C103 H127 0.930 . S
H104 C99 0.931 . S
Co105 N102 2.135 . S
Co105 N108 2.121 . S
Co105 O113 2.055 . S
Co105 O116 2.039 . S
Co105 N119 2.140 . S
C106 O107 1.227 . S
C106 O116 1.265 . S
O107 C106 1.227 . S
N108 Co105 2.121 . S
N108 C110 1.375 . S
N108 C111 1.313 . S
C109 C110 1.338 . S
C109 N112 1.377 . S
C109 H129 0.930 . S
C110 N108 1.375 . S
C110 C109 1.338 . S
C110 H114 0.931 . S
C111 N108 1.313 . S
C111 N112 1.344 . S
C111 H115 0.930 . S
N112 C109 1.377 . S
N112 C111 1.344 . S
O113 Co105 2.055 . S
O113 C117 1.253 . S
H114 C110 0.931 . S
H115 C111 0.930 . S
O116 Co105 2.039 . S
O116 C106 1.265 . S
C117 O113 1.253 . S
C117 O118 1.227 . S
O118 C117 1.227 . S
N119 Co105 2.140 . S
N119 C122 1.346 . S
N119 C123 1.345 . S
C120 C121 1.387 . S
C120 C124 1.391 . S
C121 C120 1.387 . S
C121 C122 1.369 . S
C121 H130 0.929 . S
C122 N119 1.346 . S
C122 C121 1.369 . S
C122 H125 0.928 . S
C123 N119 1.345 . S
C123 C124 1.371 . S
C123 H126 0.931 . S
C124 C120 1.391 . S
C124 C123 1.371 . S
C124 H131 0.930 . S
H125 C122 0.928 . S
H126 C123 0.931 . S
H127 C103 0.930 . S
H128 C100 0.930 . S
H129 C109 0.930 . S
H130 C121 0.929 . S
H131 C124 0.930 . S
C132 C133 1.351 . S
C132 N135 1.368 . S
C132 H137 0.931 . S
C133 C132 1.351 . S
C133 N134 1.373 . S
C133 H161 0.930 . S
N134 C133 1.373 . S
N134 C136 1.340 . S
N135 C132 1.368 . S
N135 C136 1.321 . S
N135 Co138 2.135 . S
C136 N134 1.340 . S
C136 N135 1.321 . S
C136 H160 0.930 . S
H137 C132 0.931 . S
Co138 N135 2.135 . S
Co138 N141 2.121 . S
Co138 O146 2.055 . S
Co138 O149 2.039 . S
Co138 N152 2.140 . S
C139 O140 1.227 . S
C139 O149 1.265 . S
O140 C139 1.227 . S
N141 Co138 2.121 . S
N141 C143 1.375 . S
N141 C144 1.313 . S
C142 C143 1.338 . S
C142 N145 1.377 . S
C142 H162 0.930 1_565 S
C143 N141 1.375 . S
C143 C142 1.338 . S
C143 H147 0.931 . S
C144 N141 1.313 . S
C144 N145 1.344 . S
C144 H148 0.930 . S
N145 C142 1.377 . S
N145 C144 1.344 . S
O146 Co138 2.055 . S
O146 C150 1.253 . S
H147 C143 0.931 . S
H148 C144 0.930 . S
O149 Co138 2.039 . S
O149 C139 1.265 . S
C150 O146 1.253 . S
C150 O151 1.227 . S
O151 C150 1.227 . S
N152 Co138 2.140 . S
N152 C155 1.346 . S
N152 C156 1.345 . S
C153 C154 1.387 . S
C153 C157 1.391 . S
C154 C153 1.387 . S
C154 C155 1.369 . S
C154 H163 0.929 . S
C155 N152 1.346 . S
C155 C154 1.369 . S
C155 H158 0.928 . S
C156 N152 1.345 . S
C156 C157 1.371 . S
C156 H159 0.931 . S
C157 C153 1.391 . S
C157 C156 1.371 . S
C157 H164 0.930 . S
H158 C155 0.928 . S
H159 C156 0.931 . S
H160 C136 0.930 . S
H161 C133 0.930 . S
H162 C142 0.930 1_545 S
H163 C154 0.929 . S
H164 C157 0.930 . S
C165 C166 1.351 . S
C165 N168 1.368 . S
C165 H170 0.931 . S
C166 C165 1.351 . S
C166 N167 1.373 . S
C166 H194 0.930 . S
N167 C166 1.373 . S
N167 C169 1.340 . S
N168 C165 1.368 . S
N168 C169 1.321 . S
N168 Co171 2.135 . S
C169 N167 1.340 . S
C169 N168 1.321 . S
C169 H193 0.930 . S
H170 C165 0.931 . S
Co171 N168 2.135 . S
Co171 N174 2.121 . S
Co171 O179 2.055 . S
Co171 O182 2.039 . S
Co171 N185 2.140 . S
C172 O173 1.227 . S
C172 O182 1.265 . S
O173 C172 1.227 . S
N174 Co171 2.121 . S
N174 C176 1.375 . S
N174 C177 1.313 . S
C175 C176 1.338 . S
C175 N178 1.377 . S
C175 H195 0.930 1_455 S
C176 N174 1.375 . S
C176 C175 1.338 . S
C176 H180 0.931 . S
C177 N174 1.313 . S
C177 N178 1.344 . S
C177 H181 0.930 . S
N178 C175 1.377 . S
N178 C177 1.344 . S
O179 Co171 2.055 . S
O179 C183 1.253 . S
H180 C176 0.931 . S
H181 C177 0.930 . S
O182 Co171 2.039 . S
O182 C172 1.265 . S
C183 O179 1.253 . S
C183 O184 1.227 . S
O184 C183 1.227 . S
N185 Co171 2.140 . S
N185 C188 1.346 . S
N185 C189 1.345 . S
C186 C187 1.387 . S
C186 C190 1.391 . S
C187 C186 1.387 . S
C187 C188 1.369 . S
C187 H196 0.929 . S
C188 N185 1.346 . S
C188 C187 1.369 . S
C188 H191 0.928 . S
C189 N185 1.345 . S
C189 C190 1.371 . S
C189 H192 0.931 . S
C190 C186 1.391 . S
C190 C189 1.371 . S
C190 H197 0.930 . S
H191 C188 0.928 . S
H192 C189 0.931 . S
H193 C169 0.930 . S
H194 C166 0.930 . S
H195 C175 0.930 1_655 S
H196 C187 0.929 . S
H197 C190 0.930 . S
C198 C199 1.351 . S
C198 N201 1.368 . S
C198 H203 0.931 . S
C199 C198 1.351 . S
C199 N200 1.373 . S
C199 H227 0.930 . S
N200 C199 1.373 . S
N200 C202 1.340 . S
N201 C198 1.368 . S
N201 C202 1.321 . S
N201 Co204 2.135 . S
C202 N200 1.340 . S
C202 N201 1.321 . S
C202 H226 0.930 . S
H203 C198 0.931 . S
Co204 N201 2.135 . S
Co204 N207 2.121 . S
Co204 O212 2.055 . S
Co204 O215 2.039 . S
Co204 N218 2.140 . S
C205 O206 1.227 . S
C205 O215 1.265 . S
O206 C205 1.227 . S
N207 Co204 2.121 . S
N207 C209 1.375 . S
N207 C210 1.313 . S
C208 C209 1.338 . S
C208 N211 1.377 . S
C208 H228 0.930 . S
C209 N207 1.375 . S
C209 C208 1.338 . S
C209 H213 0.931 . S
C210 N207 1.313 . S
C210 N211 1.344 . S
C210 H214 0.930 . S
N211 C208 1.377 . S
N211 C210 1.344 . S
O212 Co204 2.055 . S
O212 C216 1.253 . S
H213 C209 0.931 . S
H214 C210 0.930 . S
O215 Co204 2.039 . S
O215 C205 1.265 . S
C216 O212 1.253 . S
C216 O217 1.227 . S
O217 C216 1.227 . S
N218 Co204 2.140 . S
N218 C221 1.346 . S
N218 C222 1.345 . S
C219 C220 1.387 . S
C219 C223 1.391 . S
C220 C219 1.387 . S
C220 C221 1.369 . S
C220 H229 0.929 . S
C221 N218 1.346 . S
C221 C220 1.369 . S
C221 H224 0.928 . S
C222 N218 1.345 . S
C222 C223 1.371 . S
C222 H225 0.931 . S
C223 C219 1.391 . S
C223 C222 1.371 . S
C223 H230 0.930 . S
H224 C221 0.928 . S
H225 C222 0.931 . S
H226 C202 0.930 . S
H227 C199 0.930 . S
H228 C208 0.930 . S
H229 C220 0.929 . S
H230 C223 0.930 . S
C231 C232 1.351 . S
C231 N234 1.368 . S
C231 H236 0.931 . S
C232 C231 1.351 . S
C232 N233 1.373 . S
C232 H260 0.930 . S
N233 C232 1.373 . S
N233 C235 1.340 . S
N234 C231 1.368 . S
N234 C235 1.321 . S
N234 Co237 2.135 . S
C235 N233 1.340 . S
C235 N234 1.321 . S
C235 H259 0.930 . S
H236 C231 0.931 . S
Co237 N234 2.135 . S
Co237 N240 2.121 . S
Co237 O245 2.055 . S
Co237 O248 2.039 . S
Co237 N251 2.140 . S
C238 O239 1.227 . S
C238 O248 1.265 . S
O239 C238 1.227 . S
N240 Co237 2.121 . S
N240 C242 1.375 . S
N240 C243 1.313 . S
C241 C242 1.338 . S
C241 N244 1.377 . S
C241 H261 0.930 1_565 S
C242 N240 1.375 . S
C242 C241 1.338 . S
C242 H246 0.931 . S
C243 N240 1.313 . S
C243 N244 1.344 . S
C243 H247 0.930 . S
N244 C241 1.377 . S
N244 C243 1.344 . S
O245 Co237 2.055 . S
O245 C249 1.253 . S
H246 C242 0.931 . S
H247 C243 0.930 . S
O248 Co237 2.039 . S
O248 C238 1.265 . S
C249 O245 1.253 . S
C249 O250 1.227 . S
O250 C249 1.227 . S
N251 Co237 2.140 . S
N251 C254 1.346 . S
N251 C255 1.345 . S
C252 C253 1.387 . S
C252 C256 1.391 . S
C253 C252 1.387 . S
C253 C254 1.369 . S
C253 H262 0.929 . S
C254 N251 1.346 . S
C254 C253 1.369 . S
C254 H257 0.928 . S
C255 N251 1.345 . S
C255 C256 1.371 . S
C255 H258 0.931 . S
C256 C252 1.391 . S
C256 C255 1.371 . S
C256 H263 0.930 . S
H257 C254 0.928 . S
H258 C255 0.931 . S
H259 C235 0.930 . S
H260 C232 0.930 . S
H261 C241 0.930 1_545 S
H262 C253 0.929 . S
H263 C256 0.930 . S
C264 C265 1.351 . S
C264 N267 1.368 . S
C264 H269 0.931 . S
C265 C264 1.351 . S
C265 N266 1.373 . S
C265 H293 0.930 . S
N266 C265 1.373 . S
N266 C268 1.340 . S
N267 C264 1.368 . S
N267 C268 1.321 . S
N267 Co270 2.135 . S
C268 N266 1.340 . S
C268 N267 1.321 . S
C268 H292 0.930 . S
H269 C264 0.931 . S
Co270 N267 2.135 . S
Co270 N273 2.121 . S
Co270 O278 2.055 . S
Co270 O281 2.039 . S
Co270 N284 2.140 . S
C271 O272 1.227 . S
C271 O281 1.265 . S
O272 C271 1.227 . S
N273 Co270 2.121 . S
N273 C275 1.375 . S
N273 C276 1.313 . S
C274 C275 1.338 . S
C274 N277 1.377 . S
C274 H294 0.930 1_455 S
C275 N273 1.375 . S
C275 C274 1.338 . S
C275 H279 0.931 . S
C276 N273 1.313 . S
C276 N277 1.344 . S
C276 H280 0.930 . S
N277 C274 1.377 . S
N277 C276 1.344 . S
O278 Co270 2.055 . S
O278 C282 1.253 . S
H279 C275 0.931 . S
H280 C276 0.930 . S
O281 Co270 2.039 . S
O281 C271 1.265 . S
C282 O278 1.253 . S
C282 O283 1.227 . S
O283 C282 1.227 . S
N284 Co270 2.140 . S
N284 C287 1.346 . S
N284 C288 1.345 . S
C285 C286 1.387 . S
C285 C289 1.391 . S
C286 C285 1.387 . S
C286 C287 1.369 . S
C286 H295 0.929 . S
C287 N284 1.346 . S
C287 C286 1.369 . S
C287 H290 0.928 . S
C288 N284 1.345 . S
C288 C289 1.371 . S
C288 H291 0.931 . S
C289 C285 1.391 . S
C289 C288 1.371 . S
C289 H296 0.930 . S
H290 C287 0.928 . S
H291 C288 0.931 . S
H292 C268 0.930 . S
H293 C265 0.930 . S
H294 C274 0.930 1_655 S
H295 C286 0.929 . S
H296 C289 0.930 . S
C297 C298 1.351 . S
C297 N300 1.368 . S
C297 H302 0.931 . S
C298 C297 1.351 . S
C298 N299 1.373 . S
C298 H326 0.930 . S
N299 C298 1.373 . S
N299 C301 1.340 . S
N300 C297 1.368 . S
N300 C301 1.321 . S
N300 Co303 2.135 . S
C301 N299 1.340 . S
C301 N300 1.321 . S
C301 H325 0.930 . S
H302 C297 0.931 . S
Co303 N300 2.135 . S
Co303 N306 2.121 . S
Co303 O311 2.055 . S
Co303 O314 2.039 . S
Co303 N317 2.140 . S
C304 O305 1.227 . S
C304 O314 1.265 . S
O305 C304 1.227 . S
N306 Co303 2.121 . S
N306 C308 1.375 . S
N306 C309 1.313 . S
C307 C308 1.338 . S
C307 N310 1.377 . S
C307 H327 0.930 . S
C308 N306 1.375 . S
C308 C307 1.338 . S
C308 H312 0.931 . S
C309 N306 1.313 . S
C309 N310 1.344 . S
C309 H313 0.930 . S
N310 C307 1.377 . S
N310 C309 1.344 . S
O311 Co303 2.055 . S
O311 C315 1.253 . S
H312 C308 0.931 . S
H313 C309 0.930 . S
O314 Co303 2.039 . S
O314 C304 1.265 . S
C315 O311 1.253 . S
C315 O316 1.227 . S
O316 C315 1.227 . S
N317 Co303 2.140 . S
N317 C320 1.346 . S
N317 C321 1.345 . S
C318 C319 1.387 . S
C318 C322 1.391 . S
C319 C318 1.387 . S
C319 C320 1.369 . S
C319 H328 0.929 . S
C320 N317 1.346 . S
C320 C319 1.369 . S
C320 H323 0.928 . S
C321 N317 1.345 . S
C321 C322 1.371 . S
C321 H324 0.931 . S
C322 C318 1.391 . S
C322 C321 1.371 . S
C322 H329 0.930 . S
H323 C320 0.928 . S
H324 C321 0.931 . S
H325 C301 0.930 . S
H326 C298 0.930 . S
H327 C307 0.930 . S
H328 C319 0.929 . S
H329 C322 0.930 . S
C330 C331 1.351 . S
C330 N333 1.368 . S
C330 H335 0.931 . S
C331 C330 1.351 . S
C331 N332 1.373 . S
C331 H359 0.930 . S
N332 C331 1.373 . S
N332 C334 1.340 . S
N333 C330 1.368 . S
N333 C334 1.321 . S
N333 Co336 2.135 . S
C334 N332 1.340 . S
C334 N333 1.321 . S
C334 H358 0.930 . S
H335 C330 0.931 . S
Co336 N333 2.135 . S
Co336 N339 2.121 . S
Co336 O344 2.055 . S
Co336 O347 2.039 . S
Co336 N350 2.140 . S
C337 O338 1.227 . S
C337 O347 1.265 . S
O338 C337 1.227 . S
N339 Co336 2.121 . S
N339 C341 1.375 . S
N339 C342 1.313 . S
C340 C341 1.338 . S
C340 N343 1.377 . S
C340 H360 0.930 1_545 S
C341 N339 1.375 . S
C341 C340 1.338 . S
C341 H345 0.931 . S
C342 N339 1.313 . S
C342 N343 1.344 . S
C342 H346 0.930 . S
N343 C340 1.377 . S
N343 C342 1.344 . S
O344 Co336 2.055 . S
O344 C348 1.253 . S
H345 C341 0.931 . S
H346 C342 0.930 . S
O347 Co336 2.039 . S
O347 C337 1.265 . S
C348 O344 1.253 . S
C348 O349 1.227 . S
O349 C348 1.227 . S
N350 Co336 2.140 . S
N350 C353 1.346 . S
N350 C354 1.345 . S
C351 C352 1.387 . S
C351 C355 1.391 . S
C352 C351 1.387 . S
C352 C353 1.369 . S
C352 H361 0.929 . S
C353 N350 1.346 . S
C353 C352 1.369 . S
C353 H356 0.928 . S
C354 N350 1.345 . S
C354 C355 1.371 . S
C354 H357 0.931 . S
C355 C351 1.391 . S
C355 C354 1.371 . S
C355 H362 0.930 . S
H356 C353 0.928 . S
H357 C354 0.931 . S
H358 C334 0.930 . S
H359 C331 0.930 . S
H360 C340 0.930 1_565 S
H361 C352 0.929 . S
H362 C355 0.930 . S
C363 C364 1.351 . S
C363 N366 1.368 . S
C363 H368 0.931 . S
C364 C363 1.351 . S
C364 N365 1.373 . S
C364 H392 0.930 . S
N365 C364 1.373 . S
N365 C367 1.340 . S
N366 C363 1.368 . S
N366 C367 1.321 . S
N366 Co369 2.135 . S
C367 N365 1.340 . S
C367 N366 1.321 . S
C367 H391 0.930 . S
H368 C363 0.931 . S
Co369 N366 2.135 . S
Co369 N372 2.121 . S
Co369 O377 2.055 . S
Co369 O380 2.039 . S
Co369 N383 2.140 . S
C370 O371 1.227 . S
C370 O380 1.265 . S
O371 C370 1.227 . S
N372 Co369 2.121 . S
N372 C374 1.375 . S
N372 C375 1.313 . S
C373 C374 1.338 . S
C373 N376 1.377 . S
C373 H393 0.930 1_655 S
C374 N372 1.375 . S
C374 C373 1.338 . S
C374 H378 0.931 . S
C375 N372 1.313 . S
C375 N376 1.344 . S
C375 H379 0.930 . S
N376 C373 1.377 . S
N376 C375 1.344 . S
O377 Co369 2.055 . S
O377 C381 1.253 . S
H378 C374 0.931 . S
H379 C375 0.930 . S
O380 Co369 2.039 . S
O380 C370 1.265 . S
C381 O377 1.253 . S
C381 O382 1.227 . S
O382 C381 1.227 . S
N383 Co369 2.140 . S
N383 C386 1.346 . S
N383 C387 1.345 . S
C384 C385 1.387 . S
C384 C388 1.391 . S
C385 C384 1.387 . S
C385 C386 1.369 . S
C385 H394 0.929 . S
C386 N383 1.346 . S
C386 C385 1.369 . S
C386 H389 0.928 . S
C387 N383 1.345 . S
C387 C388 1.371 . S
C387 H390 0.931 . S
C388 C384 1.391 . S
C388 C387 1.371 . S
C388 H395 0.930 . S
H389 C386 0.928 . S
H390 C387 0.931 . S
H391 C367 0.930 . S
H392 C364 0.930 . S
H393 C373 0.930 1_455 S
H394 C385 0.929 . S
H395 C388 0.930 . S
H396 C402 0.930 . S
H397 C405 0.930 . S
H398 C406 0.930 . S
H399 C407 0.930 . S
H400 C410 0.930 . S
H401 C411 0.930 . S
C402 H396 0.930 . S
C402 C403 1.355 . S
C402 C404 1.415 . S
C403 C402 1.355 . S
C403 C405 1.419 . S
C404 C402 1.415 . S
C404 C409 1.425 . S
C404 C411 1.409 . S
C405 H397 0.930 . S
C405 C403 1.419 . S
C405 C406 1.362 . S
C406 H398 0.930 . S
C406 C405 1.362 . S
C406 C409 1.409 . S
C407 H399 0.930 . S
C407 C408 1.355 . S
C407 C409 1.415 . S
C408 C407 1.355 . S
C408 C410 1.419 . S
C409 C404 1.425 . S
C409 C406 1.409 . S
C409 C407 1.415 . S
C410 H400 0.930 . S
C410 C408 1.419 . S
C410 C411 1.362 . S
C411 H401 0.930 . S
C411 C404 1.409 . S
C411 C410 1.362 . S
H412 C418 0.930 . S
H413 C421 0.930 . S
H414 C422 0.930 . S
H415 C423 0.930 . S
H416 C426 0.930 . S
H417 C427 0.930 . S
C418 H412 0.930 . S
C418 C419 1.355 . S
C418 C420 1.415 . S
C419 C418 1.355 . S
C419 C421 1.419 . S
C420 C418 1.415 . S
C420 C425 1.425 . S
C420 C427 1.409 . S
C421 H413 0.930 . S
C421 C419 1.419 . S
C421 C422 1.362 . S
C422 H414 0.930 . S
C422 C421 1.362 . S
C422 C425 1.409 . S
C423 H415 0.930 . S
C423 C424 1.355 . S
C423 C425 1.415 . S
C424 C423 1.355 . S
C424 C426 1.419 . S
C425 C420 1.425 . S
C425 C422 1.409 . S
C425 C423 1.415 . S
C426 H416 0.930 . S
C426 C424 1.419 . S
C426 C427 1.362 . S
C427 H417 0.930 . S
C427 C420 1.409 . S
C427 C426 1.362 . S
H428 C434 0.930 . S
H429 C437 0.930 . S
H430 C438 0.930 . S
H431 C439 0.930 . S
H432 C442 0.930 . S
H433 C443 0.930 . S
C434 H428 0.930 . S
C434 C435 1.355 . S
C434 C436 1.415 . S
C435 C434 1.355 . S
C435 C437 1.419 . S
C436 C434 1.415 . S
C436 C441 1.425 . S
C436 C443 1.409 . S
C437 H429 0.930 . S
C437 C435 1.419 . S
C437 C438 1.362 . S
C438 H430 0.930 . S
C438 C437 1.362 . S
C438 C441 1.409 . S
C439 H431 0.930 . S
C439 C440 1.355 . S
C439 C441 1.415 . S
C440 C439 1.355 . S
C440 C442 1.419 . S
C441 C436 1.425 . S
C441 C438 1.409 . S
C441 C439 1.415 . S
C442 H432 0.930 . S
C442 C440 1.419 . S
C442 C443 1.362 . S
C443 H433 0.930 . S
C443 C436 1.409 . S
C443 C442 1.362 . S
H444 C450 0.930 . S
H445 C453 0.930 . S
H446 C454 0.930 . S
H447 C455 0.930 . S
H448 C458 0.930 . S
H449 C459 0.930 . S
C450 H444 0.930 . S
C450 C451 1.355 . S
C450 C452 1.415 . S
C451 C450 1.355 . S
C451 C453 1.419 . S
C452 C450 1.415 . S
C452 C457 1.425 . S
C452 C459 1.409 . S
C453 H445 0.930 . S
C453 C451 1.419 . S
C453 C454 1.362 . S
C454 H446 0.930 . S
C454 C453 1.362 . S
C454 C457 1.409 . S
C455 H447 0.930 . S
C455 C456 1.355 . S
C455 C457 1.415 . S
C456 C455 1.355 . S
C456 C458 1.419 . S
C457 C452 1.425 . S
C457 C454 1.409 . S
C457 C455 1.415 . S
C458 H448 0.930 . S
C458 C456 1.419 . S
C458 C459 1.362 . S
C459 H449 0.930 . S
C459 C452 1.409 . S
C459 C458 1.362 . S
H460 C466 0.930 . S
H461 C469 0.930 . S
H462 C470 0.930 . S
H463 C471 0.930 . S
H464 C474 0.930 . S
H465 C475 0.930 . S
C466 H460 0.930 . S
C466 C467 1.355 . S
C466 C468 1.415 . S
C467 C466 1.355 . S
C467 C469 1.419 . S
C468 C466 1.415 . S
C468 C473 1.425 . S
C468 C475 1.409 . S
C469 H461 0.930 . S
C469 C467 1.419 . S
C469 C470 1.362 . S
C470 H462 0.930 . S
C470 C469 1.362 . S
C470 C473 1.409 . S
C471 H463 0.930 . S
C471 C472 1.355 . S
C471 C473 1.415 . S
C472 C471 1.355 . S
C472 C474 1.419 . S
C473 C468 1.425 . S
C473 C470 1.409 . S
C473 C471 1.415 . S
C474 H464 0.930 . S
C474 C472 1.419 . S
C474 C475 1.362 . S
C475 H465 0.930 . S
C475 C468 1.409 . S
C475 C474 1.362 . S
H476 C482 0.930 . S
H477 C485 0.930 . S
H478 C486 0.930 . S
H479 C487 0.930 . S
H480 C490 0.930 . S
H481 C491 0.930 . S
C482 H476 0.930 . S
C482 C483 1.355 . S
C482 C484 1.415 . S
C483 C482 1.355 . S
C483 C485 1.419 . S
C484 C482 1.415 . S
C484 C489 1.425 . S
C484 C491 1.409 . S
C485 H477 0.930 . S
C485 C483 1.419 . S
C485 C486 1.362 . S
C486 H478 0.930 . S
C486 C485 1.362 . S
C486 C489 1.409 . S
C487 H479 0.930 . S
C487 C488 1.355 . S
C487 C489 1.415 . S
C488 C487 1.355 . S
C488 C490 1.419 . S
C489 C484 1.425 . S
C489 C486 1.409 . S
C489 C487 1.415 . S
C490 H480 0.930 . S
C490 C488 1.419 . S
C490 C491 1.362 . S
C491 H481 0.930 . S
C491 C484 1.409 . S
C491 C490 1.362 . S
H492 C498 0.930 . S
H493 C501 0.930 . S
H494 C502 0.930 . S
H495 C503 0.930 . S
H496 C506 0.930 . S
H497 C507 0.930 . S
C498 H492 0.930 . S
C498 C499 1.355 . S
C498 C500 1.415 . S
C499 C498 1.355 . S
C499 C501 1.419 . S
C500 C498 1.415 . S
C500 C505 1.425 . S
C500 C507 1.409 . S
C501 H493 0.930 . S
C501 C499 1.419 . S
C501 C502 1.362 . S
C502 H494 0.930 . S
C502 C501 1.362 . S
C502 C505 1.409 . S
C503 H495 0.930 . S
C503 C504 1.355 . S
C503 C505 1.415 . S
C504 C503 1.355 . S
C504 C506 1.419 . S
C505 C500 1.425 . S
C505 C502 1.409 . S
C505 C503 1.415 . S
C506 H496 0.930 . S
C506 C504 1.419 . S
C506 C507 1.362 . S
C507 H497 0.930 . S
C507 C500 1.409 . S
C507 C506 1.362 . S
H508 C514 0.930 . S
H509 C517 0.930 . S
H510 C518 0.930 . S
H511 C519 0.930 . S
H512 C522 0.930 . S
H513 C523 0.930 . S
C514 H508 0.930 . S
C514 C515 1.355 . S
C514 C516 1.415 . S
C515 C514 1.355 . S
C515 C517 1.419 . S
C516 C514 1.415 . S
C516 C521 1.425 . S
C516 C523 1.409 . S
C517 H509 0.930 . S
C517 C515 1.419 . S
C517 C518 1.362 . S
C518 H510 0.930 . S
C518 C517 1.362 . S
C518 C521 1.409 . S
C519 H511 0.930 . S
C519 C520 1.355 . S
C519 C521 1.415 . S
C520 C519 1.355 . S
C520 C522 1.419 . S
C521 C516 1.425 . S
C521 C518 1.409 . S
C521 C519 1.415 . S
C522 H512 0.930 . S
C522 C520 1.419 . S
C522 C523 1.362 . S
C523 H513 0.930 . S
C523 C516 1.409 . S
C523 C522 1.362 . S
H524 C530 0.930 . S
H525 C533 0.930 . S
H526 C534 0.930 . S
H527 C535 0.930 . S
H528 C538 0.930 . S
H529 C539 0.930 . S
C530 H524 0.930 . S
C530 C531 1.355 . S
C530 C532 1.415 . S
C531 C530 1.355 . S
C531 C533 1.419 . S
C532 C530 1.415 . S
C532 C537 1.425 . S
C532 C539 1.409 . S
C533 H525 0.930 . S
C533 C531 1.419 . S
C533 C534 1.362 . S
C534 H526 0.930 . S
C534 C533 1.362 . S
C534 C537 1.409 . S
C535 H527 0.930 . S
C535 C536 1.355 . S
C535 C537 1.415 . S
C536 C535 1.355 . S
C536 C538 1.419 . S
C537 C532 1.425 . S
C537 C534 1.409 . S
C537 C535 1.415 . S
C538 H528 0.930 . S
C538 C536 1.419 . S
C538 C539 1.362 . S
C539 H529 0.930 . S
C539 C532 1.409 . S
C539 C538 1.362 . S
H540 C546 0.930 . S
H541 C549 0.930 . S
H542 C550 0.930 . S
H543 C551 0.930 . S
H544 C554 0.930 . S
H545 C555 0.930 . S
C546 H540 0.930 . S
C546 C547 1.355 . S
C546 C548 1.415 . S
C547 C546 1.355 . S
C547 C549 1.419 . S
C548 C546 1.415 . S
C548 C553 1.425 . S
C548 C555 1.409 . S
C549 H541 0.930 . S
C549 C547 1.419 . S
C549 C550 1.362 . S
C550 H542 0.930 . S
C550 C549 1.362 . S
C550 C553 1.409 . S
C551 H543 0.930 . S
C551 C552 1.355 . S
C551 C553 1.415 . S
C552 C551 1.355 . S
C552 C554 1.419 . S
C553 C548 1.425 . S
C553 C550 1.409 . S
C553 C551 1.415 . S
C554 H544 0.930 . S
C554 C552 1.419 . S
C554 C555 1.362 . S
C555 H545 0.930 . S
C555 C548 1.409 . S
C555 C554 1.362 . S
H556 C562 0.930 . S
H557 C565 0.930 . S
H558 C566 0.930 . S
H559 C567 0.930 . S
H560 C570 0.930 . S
H561 C571 0.930 . S
C562 H556 0.930 . S
C562 C563 1.355 . S
C562 C564 1.415 . S
C563 C562 1.355 . S
C563 C565 1.419 . S
C564 C562 1.415 . S
C564 C569 1.425 . S
C564 C571 1.409 . S
C565 H557 0.930 . S
C565 C563 1.419 . S
C565 C566 1.362 . S
C566 H558 0.930 . S
C566 C565 1.362 . S
C566 C569 1.409 . S
C567 H559 0.930 . S
C567 C568 1.355 . S
C567 C569 1.415 . S
C568 C567 1.355 . S
C568 C570 1.419 . S
C569 C564 1.425 . S
C569 C566 1.409 . S
C569 C567 1.415 . S
C570 H560 0.930 . S
C570 C568 1.419 . S
C570 C571 1.362 . S
C571 H561 0.930 . S
C571 C564 1.409 . S
C571 C570 1.362 . S
H572 C578 0.930 . S
H573 C581 0.930 . S
H574 C582 0.930 . S
H575 C583 0.930 . S
H576 C586 0.930 . S
H577 C587 0.930 . S
C578 H572 0.930 . S
C578 C579 1.355 . S
C578 C580 1.415 . S
C579 C578 1.355 . S
C579 C581 1.419 . S
C580 C578 1.415 . S
C580 C585 1.425 . S
C580 C587 1.409 . S
C581 H573 0.930 . S
C581 C579 1.419 . S
C581 C582 1.362 . S
C582 H574 0.930 . S
C582 C581 1.362 . S
C582 C585 1.409 . S
C583 H575 0.930 . S
C583 C584 1.355 . S
C583 C585 1.415 . S
C584 C583 1.355 . S
C584 C586 1.419 . S
C585 C580 1.425 . S
C585 C582 1.409 . S
C585 C583 1.415 . S
C586 H576 0.930 . S
C586 C584 1.419 . S
C586 C587 1.362 . S
C587 H577 0.930 . S
C587 C580 1.409 . S
C587 C586 1.362 . S
H588 C594 0.930 . S
H589 C597 0.930 . S
H590 C598 0.930 1_565 S
H591 C599 0.930 . S
H592 C602 0.930 . S
H593 C603 0.930 . S
C594 H588 0.930 . S
C594 C595 1.355 . S
C594 C596 1.417 . S
C595 C594 1.355 . S
C595 C597 1.419 . S
C596 C594 1.417 . S
C596 C601 1.426 . S
C596 C603 1.406 1_554 S
C597 H589 0.930 . S
C597 C595 1.419 . S
C597 C598 1.362 . S
C598 H590 0.930 1_545 S
C598 C597 1.362 . S
C598 C601 1.409 . S
C599 H591 0.930 . S
C599 C600 1.355 1_565 S
C599 C601 1.415 1_566 S
C600 C599 1.355 1_545 S
C600 C602 1.419 . S
C601 C596 1.426 . S
C601 C598 1.409 . S
C601 C599 1.415 1_544 S
C602 H592 0.930 . S
C602 C600 1.419 . S
C602 C603 1.362 . S
C603 H593 0.930 . S
C603 C596 1.406 1_556 S
C603 C602 1.362 . S
H604 C610 0.930 . S
H605 C613 0.930 . S
H606 C614 0.930 . S
H607 C615 0.930 . S
H608 C618 0.930 . S
H609 C619 0.932 . S
C610 H604 0.930 . S
C610 C611 1.355 . S
C610 C612 1.415 . S
C611 C610 1.355 . S
C611 C613 1.419 . S
C612 C610 1.415 . S
C612 C617 1.425 1_554 S
C612 C619 1.406 1_655 S
C613 H605 0.930 . S
C613 C611 1.419 . S
C613 C614 1.362 1_554 S
C614 H606 0.930 . S
C614 C613 1.362 1_556 S
C614 C617 1.409 . S
C615 H607 0.930 . S
C615 C616 1.355 1_655 S
C615 C617 1.415 . S
C616 C615 1.355 1_455 S
C616 C618 1.419 . S
C617 C612 1.425 1_556 S
C617 C614 1.409 . S
C617 C615 1.415 . S
C618 H608 0.930 . S
C618 C616 1.419 . S
C618 C619 1.363 1_556 S
C619 H609 0.932 . S
C619 C612 1.406 1_455 S
C619 C618 1.363 1_554 S
H620 C626 0.930 . S
H621 C629 0.930 . S
H622 C630 0.930 . S
H623 C631 0.930 . S
H624 C634 0.930 . S
H625 C635 0.930 . S
C626 H620 0.930 . S
C626 C627 1.355 . S
C626 C628 1.415 1_554 S
C627 C626 1.355 . S
C627 C629 1.419 . S
C628 C626 1.415 1_556 S
C628 C633 1.425 1_556 S
C628 C635 1.409 . S
C629 H621 0.930 . S
C629 C627 1.419 . S
C629 C630 1.362 . S
C630 H622 0.930 . S
C630 C629 1.362 . S
C630 C633 1.409 . S
C631 H623 0.930 . S
C631 C632 1.355 . S
C631 C633 1.415 1_556 S
C632 C631 1.355 . S
C632 C634 1.419 . S
C633 C628 1.425 1_554 S
C633 C630 1.409 . S
C633 C631 1.415 1_554 S
C634 H624 0.930 . S
C634 C632 1.419 . S
C634 C635 1.362 . S
C635 H625 0.930 . S
C635 C628 1.409 . S
C635 C634 1.362 . S
H636 C642 0.930 . S
H637 C645 0.930 . S
H638 C646 0.930 . S
H639 C647 0.930 . S
H640 C650 0.930 . S
H641 C651 0.930 . S
C642 H636 0.930 . S
C642 C643 1.355 1_455 S
C642 C644 1.415 . S
C643 C642 1.355 1_655 S
C643 C645 1.419 . S
C644 C642 1.415 . S
C644 C649 1.425 . S
C644 C651 1.409 . S
C645 H637 0.930 . S
C645 C643 1.419 . S
C645 C646 1.362 . S
C646 H638 0.930 . S
C646 C645 1.362 . S
C646 C649 1.409 1_655 S
C647 H639 0.930 . S
C647 C648 1.355 . S
C647 C649 1.415 . S
C648 C647 1.355 . S
C648 C650 1.419 . S
C649 C644 1.425 . S
C649 C646 1.409 1_455 S
C649 C647 1.415 . S
C650 H640 0.930 . S
C650 C648 1.419 . S
C650 C651 1.362 . S
C651 H641 0.930 . S
C651 C644 1.409 . S
C651 C650 1.362 . S
H652 C658 0.930 . S
H653 C661 0.930 . S
H654 C662 0.930 . S
H655 C663 0.930 . S
H656 C666 0.930 . S
H657 C667 0.930 . S
C658 H652 0.930 . S
C658 C659 1.355 . S
C658 C660 1.415 . S
C659 C658 1.355 . S
C659 C661 1.419 . S
C660 C658 1.415 . S
C660 C665 1.425 . S
C660 C667 1.409 . S
C661 H653 0.930 . S
C661 C659 1.419 . S
C661 C662 1.362 . S
C662 H654 0.930 . S
C662 C661 1.362 . S
C662 C665 1.409 . S
C663 H655 0.930 . S
C663 C664 1.355 . S
C663 C665 1.415 . S
C664 C663 1.355 . S
C664 C666 1.419 . S
C665 C660 1.425 . S
C665 C662 1.409 . S
C665 C663 1.415 . S
C666 H656 0.930 . S
C666 C664 1.419 . S
C666 C667 1.362 . S
C667 H657 0.930 . S
C667 C660 1.409 . S
C667 C666 1.362 . S
H668 C674 0.928 . S
H669 C677 0.930 . S
H670 C678 0.930 . S
H671 C679 0.930 . S
H672 C682 0.930 . S
H673 C683 0.930 . S
C674 H668 0.928 . S
C674 C675 1.355 . S
C674 C676 1.415 . S
C675 C674 1.355 . S
C675 C677 1.419 . S
C676 C674 1.415 . S
C676 C681 1.425 . S
C676 C683 1.409 . S
C677 H669 0.930 . S
C677 C675 1.419 . S
C677 C678 1.362 . S
C678 H670 0.930 . S
C678 C677 1.362 . S
C678 C681 1.409 . S
C679 H671 0.930 . S
C679 C680 1.355 . S
C679 C681 1.415 . S
C680 C679 1.355 . S
C680 C682 1.419 . S
C681 C676 1.425 . S
C681 C678 1.409 . S
C681 C679 1.415 . S
C682 H672 0.930 . S
C682 C680 1.419 . S
C682 C683 1.362 . S
C683 H673 0.930 . S
C683 C676 1.409 . S
C683 C682 1.362 . S
H684 C690 0.930 . S
H685 C693 0.930 . S
H686 C694 0.930 . S
H687 C695 0.930 . S
H688 C698 0.930 . S
H689 C699 0.930 . S
C690 H684 0.930 . S
C690 C691 1.355 1_565 S
C690 C692 1.415 . S
C691 C690 1.355 1_545 S
C691 C693 1.419 . S
C692 C690 1.415 . S
C692 C697 1.425 1_554 S
C692 C699 1.409 . S
C693 H685 0.930 . S
C693 C691 1.419 . S
C693 C694 1.362 1_554 S
C694 H686 0.930 . S
C694 C693 1.362 1_556 S
C694 C697 1.409 1_545 S
C695 H687 0.930 . S
C695 C696 1.355 . S
C695 C697 1.415 . S
C696 C695 1.355 . S
C696 C698 1.419 . S
C697 C692 1.425 1_556 S
C697 C694 1.409 1_565 S
C697 C695 1.415 . S
C698 H688 0.930 . S
C698 C696 1.419 . S
C698 C699 1.362 1_556 S
C699 H689 0.930 . S
C699 C692 1.409 . S
C699 C698 1.362 1_554 S
H700 C706 0.930 . S
H701 C709 0.930 . S
H702 C710 0.930 1_655 S
H703 C711 0.930 . S
H704 C714 0.930 . S
H705 C715 0.930 . S
C706 H700 0.930 . S
C706 C707 1.355 1_455 S
C706 C708 1.415 . S
C707 C706 1.355 1_655 S
C707 C709 1.419 . S
C708 C706 1.415 . S
C708 C713 1.425 1_554 S
C708 C715 1.409 . S
C709 H701 0.930 . S
C709 C707 1.419 . S
C709 C710 1.362 1_654 S
C710 H702 0.930 1_455 S
C710 C709 1.362 1_456 S
C710 C713 1.409 . S
C711 H703 0.930 . S
C711 C712 1.355 . S
C711 C713 1.415 . S
C712 C711 1.355 . S
C712 C714 1.419 . S
C713 C708 1.425 1_556 S
C713 C710 1.409 . S
C713 C711 1.415 . S
C714 H704 0.930 . S
C714 C712 1.419 . S
C714 C715 1.362 1_556 S
C715 H705 0.930 . S
C715 C708 1.409 . S
C715 C714 1.362 1_554 S
H716 C722 0.930 . S
H717 C725 0.930 . S
H718 C726 0.923 1_554 S
H719 C727 0.930 . S
H720 C730 0.930 . S
H721 C731 0.930 . S
C722 H716 0.930 . S
C722 C723 1.355 . S
C722 C724 1.415 . S
C723 C722 1.355 . S
C723 C725 1.419 . S
C724 C722 1.415 . S
C724 C729 1.425 1_556 S
C724 C731 1.409 . S
C725 H717 0.930 . S
C725 C723 1.419 . S
C725 C726 1.362 . S
C726 H718 0.923 1_556 S
C726 C725 1.362 . S
C726 C729 1.409 1_556 S
C727 H719 0.930 . S
C727 C728 1.355 . S
C727 C729 1.415 . S
C728 C727 1.355 . S
C728 C730 1.419 . S
C729 C724 1.425 1_554 S
C729 C726 1.409 1_554 S
C729 C727 1.415 . S
C730 H720 0.930 . S
C730 C728 1.419 . S
C730 C731 1.362 1_554 S
C731 H721 0.930 . S
C731 C724 1.409 . S
C731 C730 1.362 1_556 S
H732 C738 0.930 . S
H733 C741 0.930 . S
H734 C742 0.930 . S
H735 C743 0.930 . S
H736 C746 0.930 . S
H737 C747 0.930 . S
C738 H732 0.930 . S
C738 C739 1.355 1_655 S
C738 C740 1.415 . S
C739 C738 1.355 1_455 S
C739 C741 1.419 . S
C740 C738 1.415 . S
C740 C745 1.425 . S
C740 C747 1.409 . S
C741 H733 0.930 . S
C741 C739 1.419 . S
C741 C742 1.362 . S
C742 H734 0.930 . S
C742 C741 1.362 . S
C742 C745 1.409 1_455 S
C743 H735 0.930 . S
C743 C744 1.355 . S
C743 C745 1.415 . S
C744 C743 1.355 . S
C744 C746 1.419 . S
C745 C740 1.425 . S
C745 C742 1.409 1_655 S
C745 C743 1.415 . S
C746 H736 0.930 . S
C746 C744 1.419 . S
C746 C747 1.362 . S
C747 H737 0.930 . S
C747 C740 1.409 . S
C747 C746 1.362 . S
H748 C754 0.930 . S
H749 C757 0.930 . S
H750 C758 0.930 . S
H751 C759 0.930 . S
H752 C762 0.930 . S
H753 C763 0.930 . S
C754 H748 0.930 . S
C754 C755 1.355 . S
C754 C756 1.415 . S
C755 C754 1.355 . S
C755 C757 1.419 . S
C756 C754 1.415 . S
C756 C761 1.425 . S
C756 C763 1.409 . S
C757 H749 0.930 . S
C757 C755 1.419 . S
C757 C758 1.362 . S
C758 H750 0.930 . S
C758 C757 1.362 . S
C758 C761 1.409 . S
C759 H751 0.930 . S
C759 C760 1.355 . S
C759 C761 1.415 . S
C760 C759 1.355 . S
C760 C762 1.419 . S
C761 C756 1.425 . S
C761 C758 1.409 . S
C761 C759 1.415 . S
C762 H752 0.930 . S
C762 C760 1.419 . S
C762 C763 1.362 . S
C763 H753 0.930 . S
C763 C756 1.409 . S
C763 C762 1.362 . S
H764 C770 0.930 . S
H765 C773 0.930 . S
H766 C774 0.930 . S
H767 C775 0.930 . S
H768 C778 0.930 . S
H769 C779 0.930 . S
C770 H764 0.930 . S
C770 C771 1.355 . S
C770 C772 1.415 . S
C771 C770 1.355 . S
C771 C773 1.419 . S
C772 C770 1.415 . S
C772 C777 1.425 . S
C772 C779 1.409 . S
C773 H765 0.930 . S
C773 C771 1.419 . S
C773 C774 1.362 . S
C774 H766 0.930 . S
C774 C773 1.362 . S
C774 C777 1.409 . S
C775 H767 0.930 . S
C775 C776 1.355 . S
C775 C777 1.415 . S
C776 C775 1.355 . S
C776 C778 1.419 . S
C777 C772 1.425 . S
C777 C774 1.409 . S
C777 C775 1.415 . S
C778 H768 0.930 . S
C778 C776 1.419 . S
C778 C779 1.362 . S
C779 H769 0.930 . S
C779 C772 1.409 . S
C779 C778 1.362 . S
H780 C786 0.930 . S
H781 C789 0.930 . S
H782 C790 0.930 . S
H783 C791 0.930 . S
H784 C794 0.930 . S
H785 C795 0.930 . S
C786 H780 0.930 . S
C786 C787 1.355 . S
C786 C788 1.415 . S
C787 C786 1.355 . S
C787 C789 1.419 . S
C788 C786 1.415 . S
C788 C793 1.425 . S
C788 C795 1.409 . S
C789 H781 0.930 . S
C789 C787 1.419 . S
C789 C790 1.362 . S
C790 H782 0.930 . S
C790 C789 1.362 . S
C790 C793 1.409 . S
C791 H783 0.930 . S
C791 C792 1.355 . S
C791 C793 1.415 . S
C792 C791 1.355 . S
C792 C794 1.419 . S
C793 C788 1.425 . S
C793 C790 1.409 . S
C793 C791 1.415 . S
C794 H784 0.930 . S
C794 C792 1.419 . S
C794 C795 1.362 . S
C795 H785 0.930 . S
C795 C788 1.409 . S
C795 C794 1.362 . S
H796 C802 0.930 . S
H797 C805 0.930 . S
H798 C806 0.947 . S
H799 C807 0.930 . S
H800 C810 0.930 . S
H801 C811 0.947 . S
C802 H796 0.930 . S
C802 C803 1.355 . S
C802 C804 1.415 . S
C803 C802 1.355 . S
C803 C805 1.419 . S
C804 C802 1.415 . S
C804 C809 1.425 1_545 S
C804 C811 1.409 1_545 S
C805 H797 0.930 . S
C805 C803 1.419 . S
C805 C806 1.362 . S
C806 H798 0.947 . S
C806 C805 1.362 . S
C806 C809 1.409 1_545 S
C807 H799 0.930 . S
C807 C808 1.355 . S
C807 C809 1.415 . S
C808 C807 1.355 . S
C808 C810 1.419 . S
C809 C804 1.425 1_565 S
C809 C806 1.409 1_565 S
C809 C807 1.415 . S
C810 H800 0.930 . S
C810 C808 1.419 . S
C810 C811 1.362 . S
C811 H801 0.947 . S
C811 C804 1.409 1_565 S
C811 C810 1.362 . S
H812 C818 0.930 . S
H813 C821 0.930 . S
H814 C822 0.930 . S
H815 C823 0.930 . S
H816 C826 0.930 . S
H817 C827 0.930 . S
C818 H812 0.930 . S
C818 C819 1.355 . S
C818 C820 1.415 . S
C819 C818 1.355 . S
C819 C821 1.419 . S
C820 C818 1.415 . S
C820 C825 1.425 1_655 S
C820 C827 1.409 . S
C821 H813 0.930 . S
C821 C819 1.419 . S
C821 C822 1.362 1_655 S
C822 H814 0.930 . S
C822 C821 1.362 1_455 S
C822 C825 1.409 . S
C823 H815 0.930 . S
C823 C824 1.355 . S
C823 C825 1.415 . S
C824 C823 1.355 . S
C824 C826 1.419 . S
C825 C820 1.425 1_455 S
C825 C822 1.409 . S
C825 C823 1.415 . S
C826 H816 0.930 . S
C826 C824 1.419 . S
C826 C827 1.362 1_455 S
C827 H817 0.930 . S
C827 C820 1.409 . S
C827 C826 1.362 1_655 S
H828 C834 0.930 . S
H829 C837 0.930 . S
H830 C838 0.930 . S
H831 C839 0.930 . S
H832 C842 0.930 . S
H833 C843 0.930 . S
C834 H828 0.930 . S
C834 C835 1.355 . S
C834 C836 1.415 . S
C835 C834 1.355 . S
C835 C837 1.419 . S
C836 C834 1.415 . S
C836 C841 1.425 . S
C836 C843 1.409 . S
C837 H829 0.930 . S
C837 C835 1.419 . S
C837 C838 1.362 . S
C838 H830 0.930 . S
C838 C837 1.362 . S
C838 C841 1.409 . S
C839 H831 0.930 . S
C839 C840 1.355 . S
C839 C841 1.415 . S
C840 C839 1.355 . S
C840 C842 1.419 . S
C841 C836 1.425 . S
C841 C838 1.409 . S
C841 C839 1.415 . S
C842 H832 0.930 . S
C842 C840 1.419 . S
C842 C843 1.362 . S
C843 H833 0.930 . S
C843 C836 1.409 . S
C843 C842 1.362 . S
H844 C850 0.930 . S
H845 C853 0.930 . S
H846 C854 0.930 . S
H847 C855 0.930 . S
H848 C858 0.930 . S
H849 C859 0.930 . S
C850 H844 0.930 . S
C850 C851 1.355 . S
C850 C852 1.415 1_565 S
C851 C850 1.355 . S
C851 C853 1.419 . S
C852 C850 1.415 1_545 S
C852 C857 1.425 1_545 S
C852 C859 1.409 . S
C853 H845 0.930 . S
C853 C851 1.419 . S
C853 C854 1.362 . S
C854 H846 0.930 . S
C854 C853 1.362 . S
C854 C857 1.409 . S
C855 H847 0.930 . S
C855 C856 1.355 . S
C855 C857 1.415 1_545 S
C856 C855 1.355 . S
C856 C858 1.419 . S
C857 C852 1.425 1_565 S
C857 C854 1.409 . S
C857 C855 1.415 1_565 S
C858 H848 0.930 . S
C858 C856 1.419 . S
C858 C859 1.362 . S
C859 H849 0.930 . S
C859 C852 1.409 . S
C859 C858 1.362 . S
H860 C866 0.930 . S
H861 C869 0.930 . S
H862 C870 0.930 . S
H863 C871 0.930 . S
H864 C874 0.930 . S
H865 C875 0.930 . S
C866 H860 0.930 . S
C866 C867 1.355 . S
C866 C868 1.415 1_455 S
C867 C866 1.355 . S
C867 C869 1.419 . S
C868 C866 1.415 1_655 S
C868 C873 1.425 1_655 S
C868 C875 1.409 . S
C869 H861 0.930 . S
C869 C867 1.419 . S
C869 C870 1.362 . S
C870 H862 0.930 . S
C870 C869 1.362 . S
C870 C873 1.409 . S
C871 H863 0.930 . S
C871 C872 1.355 . S
C871 C873 1.415 1_655 S
C872 C871 1.355 . S
C872 C874 1.419 . S
C873 C868 1.425 1_455 S
C873 C870 1.409 . S
C873 C871 1.415 1_455 S
C874 H864 0.930 . S
C874 C872 1.419 . S
C874 C875 1.362 . S
C875 H865 0.930 . S
C875 C868 1.409 . S
C875 C874 1.362 . S
C403 C40 1.607 . S
C408 N2 1.504 . S
C419 N35 1.438 . S
C424 C73 1.557 . S
C435 N68 1.527 . S
C440 C7 1.618 . S
C451 N101 1.486 . S
C456 C172 1.588 . S
C467 N134 1.450 . S
C472 C106 1.567 . S
C483 C139 1.563 . S
C488 N167 1.444 . S
C499 C238 1.558 . S
C504 N200 1.438 . S
C515 C271 1.579 . S
C520 N233 1.466 . S
C531 C205 1.594 . S
C536 N266 1.487 . S
C547 N299 1.499 . S
C552 C370 1.598 . S
C563 C304 1.620 . S
C568 N332 1.530 . S
C579 N365 1.438 . S
C584 C337 1.557 . S
C595 C18 1.374 . S
C600 N244 1.327 1_545 S
C611 C51 1.338 . S
C616 N277 1.350 . S
C627 C84 1.373 . S
C632 N211 1.331 . S
C643 N376 1.319 . S
C648 C117 1.344 . S
C659 C150 1.373 . S
C664 N310 1.310 . S
C675 N343 1.364 1_565 S
C680 C183 1.344 . S
C691 N46 1.347 . S
C696 C216 1.338 . S
C707 N79 1.320 . S
C712 C249 1.344 . S
C723 C282 1.338 . S
C728 N13 1.347 . S
C739 N178 1.325 . S
C744 C315 1.341 . S
C755 C348 1.338 . S
C760 N112 1.344 . S
C771 C381 1.371 . S
C776 N145 1.305 1_545 S
C787 C120 1.410 . S
C792 C21 1.441 . S
C803 C54 1.434 . S
C808 C153 1.397 . S
C819 C87 1.379 . S
C824 C186 1.399 . S
C835 C318 1.381 . S
C840 C219 1.411 . S
C851 C252 1.435 . S
C856 C351 1.438 . S
C867 C285 1.436 . S
C872 C384 1.400 . S
