# Generated by pormake.
# Topology som, (6)-cn, num edge types: 1
# Building blocks:
#     Node 0, Type 0, BuildingBlock: GEDQOX_clean_sbu_0, # of connection points: 6
#     Node 1, Type 0, BuildingBlock: GEDQOX_clean_sbu_0, # of connection points: 6
#     Node 2, Type 0, BuildingBlock: GEDQOX_clean_sbu_0, # of connection points: 6
#     Node 3, Type 0, BuildingBlock: GEDQOX_clean_sbu_0, # of connection points: 6
#     Node 4, Type 0, BuildingBlock: GEDQOX_clean_sbu_0, # of connection points: 6
#     Node 5, Type 0, BuildingBlock: GEDQOX_clean_sbu_0, # of connection points: 6
#     Node 6, Type 0, BuildingBlock: GEDQOX_clean_sbu_0, # of connection points: 6
#     Node 7, Type 0, BuildingBlock: GEDQOX_clean_sbu_0, # of connection points: 6
#     Node 8, Type 0, BuildingBlock: GEDQOX_clean_sbu_0, # of connection points: 6
#     Node 9, Type 0, BuildingBlock: GEDQOX_clean_sbu_0, # of connection points: 6
#     Node 10, Type 0, BuildingBlock: GEDQOX_clean_sbu_0, # of connection points: 6
#     Node 11, Type 0, BuildingBlock: GEDQOX_clean_sbu_0, # of connection points: 6
#     Node 12, Type 0, BuildingBlock: GEDQOX_clean_sbu_0, # of connection points: 6
#     Node 13, Type 0, BuildingBlock: GEDQOX_clean_sbu_0, # of connection points: 6
#     Node 14, Type 0, BuildingBlock: GEDQOX_clean_sbu_0, # of connection points: 6
#     Node 15, Type 0, BuildingBlock: GEDQOX_clean_sbu_0, # of connection points: 6
#     Node 16, Type 0, BuildingBlock: GEDQOX_clean_sbu_0, # of connection points: 6
#     Node 17, Type 0, BuildingBlock: GEDQOX_clean_sbu_0, # of connection points: 6
#     Node 18, Type 0, BuildingBlock: GEDQOX_clean_sbu_0, # of connection points: 6
#     Node 19, Type 0, BuildingBlock: GEDQOX_clean_sbu_0, # of connection points: 6
#     Node 20, Type 0, BuildingBlock: GEDQOX_clean_sbu_0, # of connection points: 6
#     Node 21, Type 0, BuildingBlock: GEDQOX_clean_sbu_0, # of connection points: 6
#     Node 22, Type 0, BuildingBlock: GEDQOX_clean_sbu_0, # of connection points: 6
#     Node 23, Type 0, BuildingBlock: GEDQOX_clean_sbu_0, # of connection points: 6
#     Node 24, Type 0, BuildingBlock: GEDQOX_clean_sbu_0, # of connection points: 6
#     Node 25, Type 0, BuildingBlock: GEDQOX_clean_sbu_0, # of connection points: 6
#     Node 26, Type 0, BuildingBlock: GEDQOX_clean_sbu_0, # of connection points: 6
#     Node 27, Type 0, BuildingBlock: GEDQOX_clean_sbu_0, # of connection points: 6
#     Node 28, Type 0, BuildingBlock: GEDQOX_clean_sbu_0, # of connection points: 6
#     Node 29, Type 0, BuildingBlock: GEDQOX_clean_sbu_0, # of connection points: 6
#     Node 30, Type 0, BuildingBlock: GEDQOX_clean_sbu_0, # of connection points: 6
#     Node 31, Type 0, BuildingBlock: GEDQOX_clean_sbu_0, # of connection points: 6
#     Edge 32, Type (0, 0), BuildingBlock: ZUJKAS_clean_linker_0, # of connection points: 2
#     Edge 33, Type (0, 0), BuildingBlock: ZUJKAS_clean_linker_0, # of connection points: 2
#     Edge 34, Type (0, 0), BuildingBlock: ZUJKAS_clean_linker_0, # of connection points: 2
#     Edge 35, Type (0, 0), BuildingBlock: ZUJKAS_clean_linker_0, # of connection points: 2
#     Edge 36, Type (0, 0), BuildingBlock: ZUJKAS_clean_linker_0, # of connection points: 2
#     Edge 37, Type (0, 0), BuildingBlock: ZUJKAS_clean_linker_0, # of connection points: 2
#     Edge 38, Type (0, 0), BuildingBlock: ZUJKAS_clean_linker_0, # of connection points: 2
#     Edge 39, Type (0, 0), BuildingBlock: ZUJKAS_clean_linker_0, # of connection points: 2
#     Edge 40, Type (0, 0), BuildingBlock: ZUJKAS_clean_linker_0, # of connection points: 2
#     Edge 41, Type (0, 0), BuildingBlock: ZUJKAS_clean_linker_0, # of connection points: 2
#     Edge 42, Type (0, 0), BuildingBlock: ZUJKAS_clean_linker_0, # of connection points: 2
#     Edge 43, Type (0, 0), BuildingBlock: ZUJKAS_clean_linker_0, # of connection points: 2
#     Edge 44, Type (0, 0), BuildingBlock: ZUJKAS_clean_linker_0, # of connection points: 2
#     Edge 45, Type (0, 0), BuildingBlock: ZUJKAS_clean_linker_0, # of connection points: 2
#     Edge 46, Type (0, 0), BuildingBlock: ZUJKAS_clean_linker_0, # of connection points: 2
#     Edge 47, Type (0, 0), BuildingBlock: ZUJKAS_clean_linker_0, # of connection points: 2
#     Edge 48, Type (0, 0), BuildingBlock: ZUJKAS_clean_linker_0, # of connection points: 2
#     Edge 49, Type (0, 0), BuildingBlock: ZUJKAS_clean_linker_0, # of connection points: 2
#     Edge 50, Type (0, 0), BuildingBlock: ZUJKAS_clean_linker_0, # of connection points: 2
#     Edge 51, Type (0, 0), BuildingBlock: ZUJKAS_clean_linker_0, # of connection points: 2
#     Edge 52, Type (0, 0), BuildingBlock: ZUJKAS_clean_linker_0, # of connection points: 2
#     Edge 53, Type (0, 0), BuildingBlock: ZUJKAS_clean_linker_0, # of connection points: 2
#     Edge 54, Type (0, 0), BuildingBlock: ZUJKAS_clean_linker_0, # of connection points: 2
#     Edge 55, Type (0, 0), BuildingBlock: ZUJKAS_clean_linker_0, # of connection points: 2
#     Edge 56, Type (0, 0), BuildingBlock: ZUJKAS_clean_linker_0, # of connection points: 2
#     Edge 57, Type (0, 0), BuildingBlock: ZUJKAS_clean_linker_0, # of connection points: 2
#     Edge 58, Type (0, 0), BuildingBlock: ZUJKAS_clean_linker_0, # of connection points: 2
#     Edge 59, Type (0, 0), BuildingBlock: ZUJKAS_clean_linker_0, # of connection points: 2
#     Edge 60, Type (0, 0), BuildingBlock: ZUJKAS_clean_linker_0, # of connection points: 2
#     Edge 61, Type (0, 0), BuildingBlock: ZUJKAS_clean_linker_0, # of connection points: 2
#     Edge 62, Type (0, 0), BuildingBlock: ZUJKAS_clean_linker_0, # of connection points: 2
#     Edge 63, Type (0, 0), BuildingBlock: ZUJKAS_clean_linker_0, # of connection points: 2
#     Edge 64, Type (0, 0), BuildingBlock: ZUJKAS_clean_linker_0, # of connection points: 2
#     Edge 65, Type (0, 0), BuildingBlock: ZUJKAS_clean_linker_0, # of connection points: 2
#     Edge 66, Type (0, 0), BuildingBlock: ZUJKAS_clean_linker_0, # of connection points: 2
#     Edge 67, Type (0, 0), BuildingBlock: ZUJKAS_clean_linker_0, # of connection points: 2
#     Edge 68, Type (0, 0), BuildingBlock: ZUJKAS_clean_linker_0, # of connection points: 2
#     Edge 69, Type (0, 0), BuildingBlock: ZUJKAS_clean_linker_0, # of connection points: 2
#     Edge 70, Type (0, 0), BuildingBlock: ZUJKAS_clean_linker_0, # of connection points: 2
#     Edge 71, Type (0, 0), BuildingBlock: ZUJKAS_clean_linker_0, # of connection points: 2
#     Edge 72, Type (0, 0), BuildingBlock: ZUJKAS_clean_linker_0, # of connection points: 2
#     Edge 73, Type (0, 0), BuildingBlock: ZUJKAS_clean_linker_0, # of connection points: 2
#     Edge 74, Type (0, 0), BuildingBlock: ZUJKAS_clean_linker_0, # of connection points: 2
#     Edge 75, Type (0, 0), BuildingBlock: ZUJKAS_clean_linker_0, # of connection points: 2
#     Edge 76, Type (0, 0), BuildingBlock: ZUJKAS_clean_linker_0, # of connection points: 2
#     Edge 77, Type (0, 0), BuildingBlock: ZUJKAS_clean_linker_0, # of connection points: 2
#     Edge 78, Type (0, 0), BuildingBlock: ZUJKAS_clean_linker_0, # of connection points: 2
#     Edge 79, Type (0, 0), BuildingBlock: ZUJKAS_clean_linker_0, # of connection points: 2
#     Edge 80, Type (0, 0), BuildingBlock: ZUJKAS_clean_linker_0, # of connection points: 2
#     Edge 81, Type (0, 0), BuildingBlock: ZUJKAS_clean_linker_0, # of connection points: 2
#     Edge 82, Type (0, 0), BuildingBlock: ZUJKAS_clean_linker_0, # of connection points: 2
#     Edge 83, Type (0, 0), BuildingBlock: ZUJKAS_clean_linker_0, # of connection points: 2
#     Edge 84, Type (0, 0), BuildingBlock: ZUJKAS_clean_linker_0, # of connection points: 2
#     Edge 85, Type (0, 0), BuildingBlock: ZUJKAS_clean_linker_0, # of connection points: 2
#     Edge 86, Type (0, 0), BuildingBlock: ZUJKAS_clean_linker_0, # of connection points: 2
#     Edge 87, Type (0, 0), BuildingBlock: ZUJKAS_clean_linker_0, # of connection points: 2
#     Edge 88, Type (0, 0), BuildingBlock: ZUJKAS_clean_linker_0, # of connection points: 2
#     Edge 89, Type (0, 0), BuildingBlock: ZUJKAS_clean_linker_0, # of connection points: 2
#     Edge 90, Type (0, 0), BuildingBlock: ZUJKAS_clean_linker_0, # of connection points: 2
#     Edge 91, Type (0, 0), BuildingBlock: ZUJKAS_clean_linker_0, # of connection points: 2
#     Edge 92, Type (0, 0), BuildingBlock: ZUJKAS_clean_linker_0, # of connection points: 2
#     Edge 93, Type (0, 0), BuildingBlock: ZUJKAS_clean_linker_0, # of connection points: 2
#     Edge 94, Type (0, 0), BuildingBlock: ZUJKAS_clean_linker_0, # of connection points: 2
#     Edge 95, Type (0, 0), BuildingBlock: ZUJKAS_clean_linker_0, # of connection points: 2
#     Edge 96, Type (0, 0), BuildingBlock: ZUJKAS_clean_linker_0, # of connection points: 2
#     Edge 97, Type (0, 0), BuildingBlock: ZUJKAS_clean_linker_0, # of connection points: 2
#     Edge 98, Type (0, 0), BuildingBlock: ZUJKAS_clean_linker_0, # of connection points: 2
#     Edge 99, Type (0, 0), BuildingBlock: ZUJKAS_clean_linker_0, # of connection points: 2
#     Edge 100, Type (0, 0), BuildingBlock: ZUJKAS_clean_linker_0, # of connection points: 2
#     Edge 101, Type (0, 0), BuildingBlock: ZUJKAS_clean_linker_0, # of connection points: 2
#     Edge 102, Type (0, 0), BuildingBlock: ZUJKAS_clean_linker_0, # of connection points: 2
#     Edge 103, Type (0, 0), BuildingBlock: ZUJKAS_clean_linker_0, # of connection points: 2
#     Edge 104, Type (0, 0), BuildingBlock: ZUJKAS_clean_linker_0, # of connection points: 2
#     Edge 105, Type (0, 0), BuildingBlock: ZUJKAS_clean_linker_0, # of connection points: 2
#     Edge 106, Type (0, 0), BuildingBlock: ZUJKAS_clean_linker_0, # of connection points: 2
#     Edge 107, Type (0, 0), BuildingBlock: ZUJKAS_clean_linker_0, # of connection points: 2
#     Edge 108, Type (0, 0), BuildingBlock: ZUJKAS_clean_linker_0, # of connection points: 2
#     Edge 109, Type (0, 0), BuildingBlock: ZUJKAS_clean_linker_0, # of connection points: 2
#     Edge 110, Type (0, 0), BuildingBlock: ZUJKAS_clean_linker_0, # of connection points: 2
#     Edge 111, Type (0, 0), BuildingBlock: ZUJKAS_clean_linker_0, # of connection points: 2
#     Edge 112, Type (0, 0), BuildingBlock: ZUJKAS_clean_linker_0, # of connection points: 2
#     Edge 113, Type (0, 0), BuildingBlock: ZUJKAS_clean_linker_0, # of connection points: 2
#     Edge 114, Type (0, 0), BuildingBlock: ZUJKAS_clean_linker_0, # of connection points: 2
#     Edge 115, Type (0, 0), BuildingBlock: ZUJKAS_clean_linker_0, # of connection points: 2
#     Edge 116, Type (0, 0), BuildingBlock: ZUJKAS_clean_linker_0, # of connection points: 2
#     Edge 117, Type (0, 0), BuildingBlock: ZUJKAS_clean_linker_0, # of connection points: 2
#     Edge 118, Type (0, 0), BuildingBlock: ZUJKAS_clean_linker_0, # of connection points: 2
#     Edge 119, Type (0, 0), BuildingBlock: ZUJKAS_clean_linker_0, # of connection points: 2
#     Edge 120, Type (0, 0), BuildingBlock: ZUJKAS_clean_linker_0, # of connection points: 2
#     Edge 121, Type (0, 0), BuildingBlock: ZUJKAS_clean_linker_0, # of connection points: 2
#     Edge 122, Type (0, 0), BuildingBlock: ZUJKAS_clean_linker_0, # of connection points: 2
#     Edge 123, Type (0, 0), BuildingBlock: ZUJKAS_clean_linker_0, # of connection points: 2
#     Edge 124, Type (0, 0), BuildingBlock: ZUJKAS_clean_linker_0, # of connection points: 2
#     Edge 125, Type (0, 0), BuildingBlock: ZUJKAS_clean_linker_0, # of connection points: 2
#     Edge 126, Type (0, 0), BuildingBlock: ZUJKAS_clean_linker_0, # of connection points: 2
#     Edge 127, Type (0, 0), BuildingBlock: ZUJKAS_clean_linker_0, # of connection points: 2
# Relax obj value: 0.180
# Max RMSD: 0.198
# Mean RMSD: 0.198
data_MOF--net-som--node1-GEDQOX_clean_sbu_0--edge1-ZUJKAS_clean_linker_0
_symmetry_space_group_name_H-M    P1
_symmetry_Int_Tables_number       1
_symmetry_cell_setting            triclinic
loop_
_symmetry_equiv_pos_as_xyz
'x, y, z'
_cell_length_a     20.12215
_cell_length_b     121.2807
_cell_length_c     151.66254
_cell_angle_alpha  90.050179
_cell_angle_beta   90.027132
_cell_angle_gamma 90.000994
loop_
_atom_site_label
_atom_site_type_symbol
_atom_site_fract_x
_atom_site_fract_y
_atom_site_fract_z
_atom_type_partial_charge
Nd0 Nd 0.09071 0.4992 0.0664 0.0
Nd1 Nd 0.08049 0.52302 0.07066 0.0
C2 C 0.08117 0.47861 0.06042 0.0
C3 C 0.05261 0.4675 0.06218 0.0
C4 C 0.99754 0.46371 0.05733 0.0
C5 C 0.97534 0.4528 0.05816 0.0
C6 C 1.00807 0.44535 0.0638 0.0
C7 C 0.06215 0.44923 0.06881 0.0
C8 C 0.08418 0.46014 0.068 0.0
C9 C 0.11192 0.50376 0.08406 0.0
C10 C 0.94439 0.50969 0.07094 0.0
C11 C 0.08882 0.54355 0.07677 0.0
C12 C 0.11112 0.55497 0.07491 0.0
C13 C 0.15231 0.56036 0.08101 0.0
C14 C 0.16683 0.5716 0.0801 0.0
C15 C 0.14016 0.57775 0.07306 0.0
C16 C 0.10086 0.57223 0.06677 0.0
C17 C 0.08643 0.56098 0.06768 0.0
C18 C 0.06302 0.51853 0.05289 0.0
C19 C 0.22699 0.51243 0.06638 0.0
O20 O 0.04133 0.48655 0.05795 0.0
O21 O 0.12876 0.4821 0.06557 0.0
O22 O 0.14344 0.49633 0.07961 0.0
O23 O 0.06715 0.50813 0.07939 0.0
O24 O 0.9772 0.50229 0.06626 0.0
O25 O 0.97671 0.51761 0.07506 0.0
O26 O 0.13363 0.53601 0.07839 0.0
O27 O 1.03826 0.53973 0.07231 0.0
O28 O 1.03098 0.52603 0.0572 0.0
O29 O 0.10614 0.5141 0.05777 0.0
O30 O 0.19389 0.51977 0.07109 0.0
O31 O 0.19483 0.50459 0.06211 0.0
H32 H 0.97271 0.4691 0.05269 0.0
H33 H 0.93402 0.45009 0.05413 0.0
H34 H 0.08801 0.44379 0.07331 0.0
H35 H 0.12709 0.4627 0.0718 0.0
H36 H 0.17175 0.55595 0.08666 0.0
H37 H 0.19823 0.5755 0.08499 0.0
H38 H 0.07895 0.57669 0.06131 0.0
H39 H 0.05423 0.55709 0.06287 0.0
Nd40 Nd 0.24594 0.77727 0.06718 0.0
Nd41 Nd 0.2481 0.75136 0.07184 0.0
C42 C 0.25218 0.7966 0.05911 0.0
C43 C 0.27788 0.80794 0.0603 0.0
C44 C 0.29419 0.81422 0.05285 0.0
C45 C 0.31483 0.82519 0.05373 0.0
C46 C 0.31962 0.83016 0.06211 0.0
C47 C 0.30415 0.82377 0.06959 0.0
C48 C 0.2836 0.81276 0.06869 0.0
C49 C 0.24398 0.77398 0.08542 0.0
C50 C 0.38675 0.76484 0.07174 0.0
C51 C 0.23054 0.73139 0.07864 0.0
C52 C 0.2239 0.71946 0.07684 0.0
C53 C 0.17638 0.71347 0.0816 0.0
C54 C 0.17021 0.70208 0.08049 0.0
C55 C 0.21161 0.69635 0.07458 0.0
C56 C 0.25841 0.70241 0.06965 0.0
C57 C 0.26464 0.71387 0.07078 0.0
C58 C 0.26708 0.75651 0.05426 0.0
C59 C 0.10516 0.76445 0.06941 0.0
O60 O 0.29578 0.78872 0.05782 0.0
O61 O 0.20269 0.7936 0.06418 0.0
O62 O 0.24329 0.78366 0.08176 0.0
O63 O 0.24767 0.76697 0.07937 0.0
O64 O 0.3566 0.7725 0.06697 0.0
O65 O 0.35321 0.75693 0.0758 0.0
O66 O 0.18173 0.73777 0.07613 0.0
O67 O 0.28893 0.73603 0.07777 0.0
O68 O 0.29087 0.74775 0.05803 0.0
O69 O 0.22855 0.76146 0.0595 0.0
O70 O 0.13794 0.75631 0.07326 0.0
O71 O 0.13607 0.77268 0.06541 0.0
H72 H 0.28982 0.81068 0.04631 0.0
H73 H 0.3254 0.82986 0.04782 0.0
H74 H 0.3081 0.82725 0.07614 0.0
H75 H 0.2715 0.80806 0.07455 0.0
H76 H 0.14427 0.71762 0.08629 0.0
H77 H 0.13277 0.69776 0.08428 0.0
H78 H 0.29133 0.69826 0.06507 0.0
H79 H 0.30166 0.71831 0.06701 0.0
Nd80 Nd 0.08027 0.77789 0.19563 0.0
Nd81 Nd 0.07972 0.75101 0.19055 0.0
C82 C 0.07591 0.79715 0.20388 0.0
C83 C 0.05358 0.80866 0.20262 0.0
C84 C 1.0383 0.81509 0.21003 0.0
C85 C 1.0189 0.82611 0.20909 0.0
C86 C 1.01427 0.83099 0.20068 0.0
C87 C 1.02922 0.82446 0.19324 0.0
C88 C 0.04856 0.8134 0.1942 0.0
C89 C 0.08428 0.7741 0.17749 0.0
C90 C 0.93896 0.76505 0.19176 0.0
C91 C 0.08173 0.73177 0.18226 0.0
C92 C 0.09429 0.71993 0.18378 0.0
C93 C 0.10656 0.71305 0.17653 0.0
C94 C 0.11633 0.70172 0.17771 0.0
C95 C 0.11412 0.69699 0.18619 0.0
C96 C 0.10222 0.70397 0.19346 0.0
C97 C 0.09249 0.71533 0.19227 0.0
C98 C 0.07824 0.75473 0.2087 0.0
C99 C 0.22061 0.76408 0.19404 0.0
O100 O 1.02962 0.78961 0.20469 0.0
O101 O 0.12685 0.79383 0.19918 0.0
O102 O 0.08358 0.78389 0.18099 0.0
O103 O 0.08047 0.76723 0.18366 0.0
O104 O 0.96942 0.77345 0.19564 0.0
O105 O 0.97129 0.75655 0.18826 0.0
O106 O 0.13307 0.73841 0.18259 0.0
O107 O 1.02827 0.73596 0.18588 0.0
O108 O 0.07831 0.74494 0.20519 0.0
O109 O 0.08009 0.76163 0.20254 0.0
O110 O 0.18981 0.75594 0.18985 0.0
O111 O 0.18838 0.77227 0.19799 0.0
H112 H 0.04206 0.8116 0.21659 0.0
H113 H 1.00879 0.83088 0.21498 0.0
H114 H 1.02545 0.82787 0.18666 0.0
H115 H 0.05982 0.80858 0.18838 0.0
H116 H 0.10783 0.71642 0.16992 0.0
H117 H 0.12429 0.69663 0.17194 0.0
H118 H 0.10093 0.70066 0.20009 0.0
H119 H 0.08322 0.72051 0.19796 0.0
Nd120 Nd 0.23681 0.50016 0.19586 0.0
Nd121 Nd 0.24648 0.52394 0.19144 0.0
C122 C 0.24683 0.47963 0.20193 0.0
C123 C 0.27575 0.46854 0.20018 0.0
C124 C 0.32651 0.46443 0.20564 0.0
C125 C 0.34883 0.45353 0.20477 0.0
C126 C 0.32051 0.44641 0.19846 0.0
C127 C 0.27085 0.45062 0.19286 0.0
C128 C 0.24873 0.46153 0.19371 0.0
C129 C 0.21622 0.50449 0.17816 0.0
C130 C 0.383 0.51068 0.19138 0.0
C131 C 0.23959 0.54427 0.18494 0.0
C132 C 0.21563 0.55571 0.18611 0.0
C133 C 0.2028 0.56207 0.17858 0.0
C134 C 0.1889 0.57333 0.17931 0.0
C135 C 0.18746 0.57852 0.18762 0.0
C136 C 0.19764 0.57202 0.1952 0.0
C137 C 0.21187 0.56072 0.19445 0.0
C138 C 0.26375 0.51967 0.20926 0.0
C139 C 0.10018 0.51339 0.19593 0.0
O140 O 0.28655 0.48761 0.20436 0.0
O141 O 0.19907 0.48305 0.19678 0.0
O142 O 0.18461 0.4971 0.18264 0.0
O143 O 0.2607 0.50894 0.18284 0.0
O144 O 0.35022 0.50331 0.19607 0.0
O145 O 0.35067 0.51855 0.18721 0.0
O146 O 0.19676 0.53655 0.18295 0.0
O147 O 0.28646 0.54085 0.19022 0.0
O148 O 0.29576 0.52714 0.20492 0.0
O149 O 0.22086 0.51517 0.20438 0.0
O150 O 0.13294 0.5208 0.19125 0.0
O151 O 0.13257 0.50552 0.20012 0.0
H152 H 0.34769 0.46956 0.21078 0.0
H153 H 0.38661 0.45056 0.20927 0.0
H154 H 0.24853 0.44544 0.18784 0.0
H155 H 0.20929 0.46436 0.18941 0.0
H156 H 0.20561 0.55838 0.17208 0.0
H157 H 0.18019 0.57802 0.17335 0.0
H158 H 0.19722 0.57575 0.20169 0.0
H159 H 0.22191 0.556 0.20036 0.0
Nd160 Nd 1.00086 0.50453 0.94012 0.0
Nd161 Nd 0.99176 0.52845 0.94478 0.0
C162 C 0.99247 0.4843 0.93348 0.0
C163 C 0.96941 0.47287 0.93505 0.0
C164 C 0.93558 0.46728 0.9283 0.0
C165 C 0.92079 0.45605 0.9291 0.0
C166 C 0.93983 0.45012 0.93666 0.0
C167 C 0.97172 0.45584 0.94356 0.0
C168 C 0.98631 0.46709 0.94277 0.0
C169 C 1.01621 0.50859 0.95798 0.0
C170 C 0.85465 0.51533 0.94423 0.0
C171 C 1.00074 0.54866 0.95147 0.0
C172 C 1.03229 0.55963 0.95056 0.0
C173 C 0.0498 0.56545 0.95821 0.0
C174 C 0.07236 0.57635 0.95769 0.0
C175 C 0.07785 0.58171 0.94949 0.0
C176 C 0.06256 0.57571 0.94179 0.0
C177 C 1.03987 0.56478 0.94232 0.0
C178 C 0.97301 0.52426 0.92702 0.0
C179 C 0.1377 0.51785 0.94025 0.0
O180 O 0.94811 0.49194 0.93195 0.0
O181 O 0.04255 0.48786 0.93816 0.0
O182 O 0.04767 0.501 0.95369 0.0
O183 O 0.97449 0.51326 0.95304 0.0
O184 O 0.88782 0.50795 0.93957 0.0
O185 O 0.8865 0.52314 0.94858 0.0
O186 O 1.03719 0.54042 0.95422 0.0
O187 O 0.95754 0.54576 0.94548 0.0
O188 O 0.94245 0.53189 0.9314 0.0
O189 O 1.01623 0.51967 0.93181 0.0
O190 O 0.10504 0.52528 0.9449 0.0
O191 O 0.10541 0.50996 0.93607 0.0
H192 H 0.92258 0.47153 0.92226 0.0
H193 H 0.89685 0.45191 0.92362 0.0
H194 H 0.98621 0.45157 0.94953 0.0
H195 H 1.01236 0.47119 0.94809 0.0
H196 H 0.04433 0.56166 0.96464 0.0
H197 H 0.08485 0.58062 0.96374 0.0
H198 H 0.0658 0.57957 0.93537 0.0
H199 H 1.02657 0.56048 0.93632 0.0
Nd200 Nd 0.83283 0.27498 0.94205 0.0
Nd201 Nd 0.83569 0.24903 0.94484 0.0
C202 C 0.8501 0.29621 0.93921 0.0
C203 C 0.86144 0.30821 0.93799 0.0
C204 C 0.83521 0.31387 0.93069 0.0
C205 C 0.84272 0.32534 0.92995 0.0
C206 C 0.87666 0.33139 0.93648 0.0
C207 C 0.9035 0.32565 0.94371 0.0
C208 C 0.89603 0.31423 0.94445 0.0
C209 C 0.8037 0.26751 0.95878 0.0
C210 C 0.97587 0.26203 0.94352 0.0
C211 C 0.82928 0.22921 0.95212 0.0
C212 C 0.80315 0.21794 0.95077 0.0
C213 C 0.78802 0.21149 0.95816 0.0
C214 C 0.76675 0.20057 0.95716 0.0
C215 C 0.76008 0.19584 0.94873 0.0
C216 C 0.77445 0.20241 0.9413 0.0
C217 C 0.7957 0.21337 0.94232 0.0
C218 C 0.84433 0.25366 0.92696 0.0
C219 C 0.69349 0.26191 0.94068 0.0
O220 O 0.81686 0.28999 0.93365 0.0
O221 O 0.87492 0.29101 0.94602 0.0
O222 O 0.77356 0.27565 0.95497 0.0
O223 O 0.84875 0.26371 0.95384 0.0
O224 O 0.94289 0.27039 0.94002 0.0
O225 O 0.94493 0.25355 0.94716 0.0
O226 O 0.78616 0.23704 0.95378 0.0
O227 O 0.87795 0.23241 0.94698 0.0
O228 O 0.8428 0.24374 0.93015 0.0
O229 O 0.83916 0.26043 0.93321 0.0
O230 O 0.72391 0.25333 0.9443 0.0
O231 O 0.7262 0.27077 0.93801 0.0
H232 H 0.80821 0.30946 0.92561 0.0
H233 H 0.82204 0.32945 0.92424 0.0
H234 H 0.92896 0.33002 0.94895 0.0
H235 H 0.91648 0.31016 0.95019 0.0
H236 H 0.79376 0.21484 0.96474 0.0
H237 H 0.75716 0.19576 0.96304 0.0
H238 H 0.76909 0.19911 0.93471 0.0
H239 H 0.8069 0.21821 0.93651 0.0
Nd240 Nd 1.01238 0.27515 0.82139 0.0
Nd241 Nd 1.00301 0.25111 0.8172 0.0
C242 C 1.00514 0.29561 0.82765 0.0
C243 C 0.98186 0.307 0.82603 0.0
C244 C 0.96532 0.31365 0.83327 0.0
C245 C 0.95087 0.32485 0.83213 0.0
C246 C 0.95258 0.32969 0.8237 0.0
C247 C 0.96732 0.3229 0.8164 0.0
C248 C 0.98187 0.31168 0.81756 0.0
C249 C 1.02788 0.27052 0.80363 0.0
C250 C 0.86623 0.26431 0.81727 0.0
C251 C 1.01232 0.23051 0.81125 0.0
C252 C 0.04105 0.21937 0.8129 0.0
C253 C 0.09774 0.21581 0.80828 0.0
C254 C 0.11994 0.20487 0.80896 0.0
C255 C 0.08562 0.19718 0.81422 0.0
C256 C 1.02997 0.20084 0.81901 0.0
C257 C 1.00791 0.21177 0.81835 0.0
C258 C 0.98381 0.25591 0.83484 0.0
C259 C 0.14905 0.26186 0.82145 0.0
O260 O 0.96124 0.28801 0.82949 0.0
O261 O 0.05362 0.29196 0.82273 0.0
O262 O 0.05955 0.2782 0.80779 0.0
O263 O 0.98604 0.26602 0.80865 0.0
O264 O 0.89913 0.27178 0.82188 0.0
O265 O 0.89848 0.25644 0.81305 0.0
O266 O 0.05168 0.23847 0.80868 0.0
O267 O 0.96542 0.23397 0.81652 0.0
O268 O 0.95233 0.2483 0.83058 0.0
O269 O 1.02765 0.26024 0.83001 0.0
O270 O 0.11627 0.25438 0.81686 0.0
O271 O 0.11676 0.26978 0.82558 0.0
H272 H 0.96567 0.31025 0.83988 0.0
H273 H 0.94075 0.32979 0.83793 0.0
H274 H 0.96818 0.32628 0.8098 0.0
H275 H 0.99456 0.30671 0.81186 0.0
H276 H 0.12386 0.22138 0.80391 0.0
H277 H 0.16253 0.20234 0.8051 0.0
H278 H 1.00283 0.19522 0.82323 0.0
H279 H 0.96372 0.21416 0.82195 0.0
Nd280 Nd 0.82797 0.50292 0.82033 0.0
Nd281 Nd 0.83709 0.52687 0.81571 0.0
C282 C 0.83468 0.48267 0.827 0.0
C283 C 0.8569 0.47116 0.82569 0.0
C284 C 0.8699 0.46466 0.83313 0.0
C285 C 0.88242 0.45337 0.83227 0.0
C286 C 0.88228 0.44829 0.82392 0.0
C287 C 0.87182 0.45492 0.81642 0.0
C288 C 0.85899 0.46625 0.8173 0.0
C289 C 0.81312 0.50702 0.80246 0.0
C290 C 0.9742 0.51369 0.81623 0.0
C291 C 0.82848 0.54712 0.80907 0.0
C292 C 0.79783 0.55814 0.81012 0.0
C293 C 0.78753 0.56464 0.8026 0.0
C294 C 0.76576 0.57556 0.80339 0.0
C295 C 0.75377 0.58026 0.81172 0.0
C296 C 0.7619 0.57359 0.81925 0.0
C297 C 0.78388 0.56264 0.81846 0.0
C298 C 0.85589 0.52272 0.83346 0.0
C299 C 0.69118 0.51627 0.82019 0.0
O300 O 0.87919 0.49026 0.82862 0.0
O301 O 0.7862 0.4862 0.82203 0.0
O302 O 0.78161 0.49942 0.80672 0.0
O303 O 0.85459 0.51169 0.80745 0.0
O304 O 0.94108 0.50628 0.82086 0.0
O305 O 0.94232 0.52151 0.81191 0.0
O306 O 0.79102 0.53895 0.80642 0.0
O307 O 0.8722 0.54413 0.81497 0.0
O308 O 0.88629 0.53034 0.82907 0.0
O309 O 0.81265 0.51808 0.82869 0.0
O310 O 0.72385 0.5237 0.81554 0.0
O311 O 0.72342 0.50839 0.82437 0.0
H312 H 0.86838 0.46827 0.83967 0.0
H313 H 0.8914 0.44857 0.83817 0.0
H314 H 0.87101 0.45128 0.8099 0.0
H315 H 0.84877 0.4711 0.81146 0.0
H316 H 0.79799 0.56135 0.79611 0.0
H317 H 0.75891 0.58036 0.79744 0.0
H318 H 0.75353 0.57693 0.82578 0.0
H319 H 0.79164 0.55779 0.82437 0.0
Nd320 Nd 0.08544 0.99987 0.56697 0.0
Nd321 Nd 0.08558 0.02568 0.57149 0.0
C322 C 0.07742 0.98046 0.55903 0.0
C323 C 0.05234 0.96906 0.56035 0.0
C324 C 1.00712 0.96456 0.55428 0.0
C325 C 0.98673 0.95355 0.55497 0.0
C326 C 1.01143 0.94671 0.56173 0.0
C327 C 0.05573 0.95132 0.56791 0.0
C328 C 0.07592 0.96235 0.56724 0.0
C329 C 0.08984 1.00312 0.58519 0.0
C330 C 0.94464 1.01282 0.57128 0.0
C331 C 0.11144 0.04564 0.57775 0.0
C332 C 0.1079 0.05768 0.57657 0.0
C333 C 0.14218 0.06437 0.58257 0.0
C334 C 0.14597 0.07575 0.58131 0.0
C335 C 0.11551 0.08074 0.57397 0.0
C336 C 0.07967 0.07403 0.56805 0.0
C337 C 0.07619 0.06256 0.56931 0.0
C338 C 0.06311 0.02039 0.554 0.0
C339 C 0.22637 1.01213 0.56943 0.0
O340 O 1.03344 0.98832 0.55787 0.0
O341 O 0.12868 0.98361 0.56374 0.0
O342 O 0.08902 0.99346 0.58151 0.0
O343 O 0.08664 1.01019 0.57918 0.0
O344 O 0.97481 1.00478 0.56691 0.0
O345 O 0.97792 0.02108 0.57494 0.0
O346 O 0.15089 0.04027 0.57242 0.0
O347 O 0.05719 0.04019 0.57972 0.0
O348 O 1.0383 0.02899 0.5579 0.0
O349 O 0.10303 0.01552 0.55911 0.0
O350 O 0.19345 0.0199 0.57372 0.0
O351 O 0.19518 1.00433 0.56497 0.0
H352 H 0.98825 0.96953 0.5489 0.0
H353 H 0.95169 0.95039 0.55017 0.0
H354 H 0.07647 0.94631 0.57314 0.0
H355 H 0.11102 0.96553 0.57202 0.0
H356 H 0.16725 0.06074 0.5882 0.0
H357 H 0.17288 0.08065 0.58609 0.0
H358 H 0.0559 0.07759 0.56231 0.0
H359 H 0.05002 0.0575 0.56455 0.0
Nd360 Nd 0.24092 0.27755 0.56667 0.0
Nd361 Nd 0.25071 0.25368 0.57126 0.0
C362 C 0.24992 0.29784 0.56014 0.0
C363 C 0.28272 0.30872 0.56102 0.0
C364 C 0.30033 0.31451 0.55337 0.0
C365 C 0.32385 0.32535 0.55389 0.0
C366 C 0.33021 0.3307 0.56209 0.0
C367 C 0.31486 0.32473 0.56979 0.0
C368 C 0.29125 0.31385 0.56926 0.0
C369 C 0.22029 0.27331 0.58434 0.0
C370 C 0.38709 0.26708 0.57141 0.0
C371 C 0.24253 0.2333 0.57762 0.0
C372 C 0.22004 0.22189 0.57581 0.0
C373 C 0.18495 0.21616 0.58236 0.0
C374 C 0.1705 0.20494 0.58136 0.0
C375 C 0.19108 0.19914 0.57379 0.0
C376 C 0.22412 0.205 0.56708 0.0
C377 C 0.23851 0.21625 0.56808 0.0
C378 C 0.26644 0.2579 0.55344 0.0
C379 C 0.1041 0.26438 0.5671 0.0
O380 O 0.28484 0.28954 0.55714 0.0
O381 O 0.20802 0.29494 0.56628 0.0
O382 O 0.18876 0.28072 0.57986 0.0
O383 O 0.26474 0.26882 0.57969 0.0
O384 O 0.35445 0.2745 0.56674 0.0
O385 O 0.35477 0.25916 0.57552 0.0
O386 O 0.19774 0.24087 0.57917 0.0
O387 O 0.293 0.23702 0.5731 0.0
O388 O 0.29865 0.25039 0.55771 0.0
O389 O 0.22414 0.26239 0.55839 0.0
O390 O 0.13743 0.25703 0.57178 0.0
O391 O 0.1359 0.27219 0.56276 0.0
H392 H 0.29414 0.31073 0.54695 0.0
H393 H 0.33633 0.3296 0.54783 0.0
H394 H 0.31871 0.32858 0.57621 0.0
H395 H 0.27791 0.30959 0.57528 0.0
H396 H 0.17031 0.22031 0.58838 0.0
H397 H 0.14389 0.20077 0.58659 0.0
H398 H 0.24116 0.20081 0.5612 0.0
H399 H 0.26584 0.22043 0.56292 0.0
Nd400 Nd 0.08812 0.27749 0.69571 0.0
Nd401 Nd 0.07886 0.25359 0.69119 0.0
C402 C 0.07873 0.29785 0.70214 0.0
C403 C 0.046 0.30874 0.70119 0.0
C404 C 1.02708 0.3145 0.70881 0.0
C405 C 1.00377 0.32536 0.70826 0.0
C406 C 0.99894 0.33075 0.70007 0.0
C407 C 1.01557 0.3248 0.69239 0.0
C408 C 1.03897 0.31391 0.69295 0.0
C409 C 0.10956 0.27314 0.67808 0.0
C410 C 0.94229 0.26691 0.69095 0.0
C411 C 0.08757 0.23315 0.68492 0.0
C412 C 0.1097 0.22168 0.68671 0.0
C413 C 0.15627 0.21669 0.68108 0.0
C414 C 0.17125 0.20546 0.68186 0.0
C415 C 0.13965 0.19888 0.68826 0.0
C416 C 0.09466 0.20397 0.69409 0.0
C417 C 0.0798 0.21523 0.69332 0.0
C418 C 0.06282 0.25792 0.709 0.0
C419 C 0.22513 0.26441 0.69534 0.0
O420 O 0.04377 0.28958 0.70516 0.0
O421 O 0.12086 0.2949 0.69603 0.0
O422 O 0.14094 0.28056 0.68257 0.0
O423 O 0.06489 0.26866 0.6827 0.0
O424 O 0.97469 0.27437 0.69563 0.0
O425 O 0.97485 0.25899 0.68686 0.0
O426 O 0.13249 0.24071 0.68342 0.0
O427 O 1.03663 0.23691 0.68932 0.0
O428 O 1.03078 0.25038 0.70474 0.0
O429 O 0.1051 0.2624 0.70405 0.0
O430 O 0.19202 0.25703 0.69065 0.0
O431 O 0.19309 0.27219 0.69969 0.0
H432 H 1.03211 0.3107 0.71524 0.0
H433 H 0.99027 0.32958 0.71429 0.0
H434 H 1.01294 0.32868 0.68597 0.0
H435 H 0.05335 0.30967 0.68696 0.0
H436 H 0.17977 0.22143 0.6759 0.0
H437 H 0.20702 0.20189 0.67735 0.0
H438 H 0.06881 0.19919 0.69904 0.0
H439 H 0.04329 0.21877 0.69774 0.0
Nd440 Nd 0.24609 0.99903 0.69585 0.0
Nd441 Nd 0.24696 0.0259 0.69096 0.0
C442 C 0.25176 0.97962 0.70381 0.0
C443 C 0.27438 0.96808 0.7024 0.0
C444 C 0.32253 0.96356 0.70804 0.0
C445 C 0.34187 0.95251 0.70722 0.0
C446 C 0.31321 0.94564 0.70077 0.0
C447 C 0.26564 0.95024 0.69503 0.0
C448 C 0.24643 0.96131 0.69583 0.0
C449 C 0.24146 1.00294 0.67772 0.0
C450 C 0.38761 1.01187 0.69204 0.0
C451 C 0.24366 0.04523 0.68285 0.0
C452 C 0.23151 0.05712 0.68443 0.0
C453 C 0.19229 0.06304 0.67843 0.0
C454 C 0.18332 0.07443 0.67939 0.0
C455 C 0.21365 0.0802 0.68638 0.0
C456 C 0.25186 0.07419 0.6925 0.0
C457 C 0.26068 0.06278 0.69154 0.0
C458 C 0.24892 0.02212 0.70911 0.0
C459 C 0.10595 1.01283 0.69436 0.0
O460 O 0.29772 0.98721 0.70471 0.0
O461 O 0.19977 0.98306 0.69937 0.0
O462 O 0.24199 0.99313 0.68118 0.0
O463 O 0.2457 1.00977 0.68392 0.0
O464 O 0.35696 1.00345 0.69585 0.0
O465 O 0.35545 0.02043 0.68863 0.0
O466 O 0.19233 0.03859 0.68324 0.0
O467 O 0.29793 0.04092 0.68618 0.0
O468 O 0.24887 0.03191 0.70561 0.0
O469 O 0.24684 0.01522 0.70293 0.0
O470 O 0.13692 0.02096 0.6902 0.0
O471 O 0.13804 1.00461 0.69829 0.0
H472 H 0.34482 0.96856 0.71318 0.0
H473 H 0.37944 0.94936 0.71167 0.0
H474 H 0.24186 0.94521 0.69004 0.0
H475 H 0.20897 0.96451 0.69139 0.0
H476 H 0.16917 0.05887 0.6729 0.0
H477 H 0.15256 0.07871 0.67464 0.0
H478 H 0.27649 0.07834 0.69792 0.0
H479 H 0.29119 0.05842 0.69628 0.0
Nd480 Nd 1.00289 1.00305 0.44134 0.0
Nd481 Nd 0.99258 0.02703 0.44515 0.0
C482 C 0.99678 0.98246 0.43533 0.0
C483 C 0.97313 0.97104 0.43673 0.0
C484 C 0.95915 0.96447 0.42935 0.0
C485 C 0.94482 0.95325 0.43031 0.0
C486 C 0.94399 0.94829 0.4387 0.0
C487 C 0.95611 0.955 0.44613 0.0
C488 C 0.97063 0.96626 0.44516 0.0
C489 C 1.01918 1.00801 0.45908 0.0
C490 C 0.85619 0.01372 0.44543 0.0
C491 C 1.00124 0.04779 0.45078 0.0
C492 C 1.03127 0.05885 0.44919 0.0
C493 C 0.08522 0.0625 0.45432 0.0
C494 C 0.10825 0.07339 0.45366 0.0
C495 C 0.07765 0.08096 0.4479 0.0
C496 C 1.02473 0.0772 0.44262 0.0
C497 C 1.00176 0.06632 0.44327 0.0
C498 C 0.97263 0.0219 0.42755 0.0
C499 C 0.13914 0.01644 0.44098 0.0
O500 O 0.95381 0.99006 0.43313 0.0
O501 O 0.04337 0.98613 0.44055 0.0
O502 O 0.05141 1.00039 0.45492 0.0
O503 O 0.97665 1.01236 0.45405 0.0
O504 O 0.88929 1.00613 0.44098 0.0
O505 O 0.88821 0.0218 0.44943 0.0
O506 O 1.03903 0.03983 0.45374 0.0
O507 O 0.95622 0.04428 0.44525 0.0
O508 O 0.94043 0.02941 0.43183 0.0
O509 O 1.01721 0.01771 0.43238 0.0
O510 O 0.10612 0.02403 0.44542 0.0
O511 O 0.1071 1.00835 0.43704 0.0
H512 H 0.96154 0.96796 0.42278 0.0
H513 H 0.93683 0.94838 0.42442 0.0
H514 H 0.95496 0.95153 0.45271 0.0
H515 H 0.98137 0.97115 0.45097 0.0
H516 H 0.10866 0.05702 0.45902 0.0
H517 H 0.1497 0.0759 0.45775 0.0
H518 H 0.99919 0.08278 0.4382 0.0
H519 H 0.95944 0.06388 0.43931 0.0
Nd520 Nd 0.82381 0.7747 0.44005 0.0
Nd521 Nd 0.8335 0.75067 0.44416 0.0
C522 C 0.83047 0.7952 0.43389 0.0
C523 C 0.85286 0.80668 0.43537 0.0
C524 C 0.86922 0.81317 0.42804 0.0
C525 C 0.88163 0.82447 0.42899 0.0
C526 C 0.878 0.82955 0.43733 0.0
C527 C 0.86425 0.82293 0.44473 0.0
C528 C 0.85155 0.8116 0.44376 0.0
C529 C 0.80698 0.76999 0.45779 0.0
C530 C 0.97029 0.76391 0.44417 0.0
C531 C 0.82514 0.73012 0.45023 0.0
C532 C 0.79313 0.71919 0.44921 0.0
C533 C 0.77765 0.71308 0.45679 0.0
C534 C 0.75447 0.70222 0.45611 0.0
C535 C 0.74621 0.69716 0.44782 0.0
C536 C 0.76012 0.70342 0.44021 0.0
C537 C 0.78333 0.71431 0.44089 0.0
C538 C 0.85411 0.75552 0.42656 0.0
C539 C 0.68739 0.76128 0.43968 0.0
O540 O 0.87462 0.78765 0.43201 0.0
O541 O 0.78239 0.79151 0.43885 0.0
O542 O 0.77512 0.7776 0.45358 0.0
O543 O 0.84956 0.76556 0.45282 0.0
O544 O 0.93724 0.77147 0.43968 0.0
O545 O 0.9383 0.75591 0.44825 0.0
O546 O 0.78996 0.73828 0.45341 0.0
O547 O 0.86655 0.73326 0.4441 0.0
O548 O 0.88583 0.748 0.4309 0.0
O549 O 0.80955 0.75983 0.43132 0.0
O550 O 0.71998 0.75371 0.4442 0.0
O551 O 0.71978 0.76931 0.43571 0.0
H552 H 0.87033 0.80957 0.4215 0.0
H553 H 0.89319 0.82926 0.42317 0.0
H554 H 0.8607 0.82656 0.45124 0.0
H555 H 0.83872 0.80677 0.44952 0.0
H556 H 0.78541 0.71661 0.46327 0.0
H557 H 0.74527 0.69767 0.46213 0.0
H558 H 0.75347 0.69989 0.43371 0.0
H559 H 0.79489 0.71883 0.43493 0.0
Nd560 Nd 0.99425 0.77571 0.32071 0.0
Nd561 Nd 0.99342 0.74886 0.31554 0.0
C562 C 0.99063 0.79481 0.32914 0.0
C563 C 0.97647 0.80664 0.32778 0.0
C564 C 0.94208 0.81248 0.33432 0.0
C565 C 0.93147 0.82384 0.3335 0.0
C566 C 0.95531 0.82964 0.32611 0.0
C567 C 0.98854 0.8237 0.31946 0.0
C568 C 0.99898 0.81231 0.32027 0.0
C569 C 0.99652 0.7721 0.30255 0.0
C570 C 0.85324 0.76272 0.31692 0.0
C571 C 0.99982 0.72962 0.30734 0.0
C572 C 1.02316 0.71817 0.30872 0.0
C573 C 0.06045 0.71298 0.3021 0.0
C574 C 0.08109 0.70202 0.30305 0.0
C575 C 0.06467 0.69595 0.31065 0.0
C576 C 1.02774 0.70121 0.31733 0.0
C577 C 1.00736 0.71221 0.31639 0.0
C578 C 0.98771 0.75268 0.33368 0.0
C579 C 0.13491 0.76165 0.31962 0.0
O580 O 0.94006 0.788 0.32888 0.0
O581 O 0.04448 0.79079 0.32548 0.0
O582 O 0.99662 0.78188 0.3061 0.0
O583 O 0.99408 0.76516 0.30868 0.0
O584 O 0.88391 0.77085 0.32115 0.0
O585 O 0.88555 0.75449 0.31303 0.0
O586 O 0.04551 0.73727 0.30654 0.0
O587 O 0.94778 0.73291 0.31185 0.0
O588 O 0.98744 0.74286 0.3302 0.0
O589 O 0.99322 0.75947 0.32749 0.0
O590 O 0.10442 0.75324 0.31574 0.0
O591 O 0.10264 0.77019 0.32304 0.0
H592 H 0.92409 0.80827 0.34015 0.0
H593 H 0.9046 0.82807 0.33868 0.0
H594 H 1.0081 0.82789 0.31371 0.0
H595 H 1.02558 0.80799 0.31511 0.0
H596 H 0.073 0.71738 0.29611 0.0
H597 H 0.10868 0.69822 0.29772 0.0
H598 H 1.0149 0.69684 0.32332 0.0
H599 H 0.97896 0.71601 0.32164 0.0
Nd600 Nd 0.83754 1.00218 0.32124 0.0
Nd601 Nd 0.83935 0.02903 0.31638 0.0
C602 C 0.84081 0.9829 0.32939 0.0
C603 C 0.85451 0.97105 0.32784 0.0
C604 C 0.90331 0.96574 0.33291 0.0
C605 C 0.91432 0.9544 0.33203 0.0
C606 C 0.8764 0.94805 0.3261 0.0
C607 C 0.82829 0.95342 0.32091 0.0
C608 C 0.81746 0.96479 0.32176 0.0
C609 C 0.83443 1.00599 0.3031 0.0
C610 C 0.97905 0.01504 0.31759 0.0
C611 C 0.83425 0.04847 0.30847 0.0
C612 C 0.81309 0.06006 0.31007 0.0
C613 C 0.74908 0.06363 0.30766 0.0
C614 C 0.73061 0.07471 0.3086 0.0
C615 C 0.77582 0.08254 0.31192 0.0
C616 C 0.83962 0.07894 0.31441 0.0
C617 C 0.85806 0.06786 0.31348 0.0
C618 C 0.8455 0.02504 0.3345 0.0
C619 C 0.69741 0.01636 0.3203 0.0
O620 O 0.89157 0.98968 0.3292 0.0
O621 O 0.78675 0.9871 0.3259 0.0
O622 O 0.83415 0.99619 0.30659 0.0
O623 O 0.83759 1.01287 0.30929 0.0
O624 O 0.94811 1.0069 0.32174 0.0
O625 O 0.94693 0.02333 0.31376 0.0
O626 O 0.78764 0.04096 0.30768 0.0
O627 O 0.88677 0.04487 0.31272 0.0
O628 O 0.84578 0.03487 0.33108 0.0
O629 O 0.83978 0.01829 0.32827 0.0
O630 O 0.72819 0.02475 0.31646 0.0
O631 O 0.72946 1.00779 0.3237 0.0
H632 H 0.93249 0.97035 0.33765 0.0
H633 H 0.95258 0.9506 0.33604 0.0
H634 H 0.79765 0.94881 0.31634 0.0
H635 H 0.7793 0.96863 0.31777 0.0
H636 H 0.71345 0.0579 0.30488 0.0
H637 H 0.68141 0.07719 0.30649 0.0
H638 H 0.87551 0.08469 0.31709 0.0
H639 H 0.90798 0.06545 0.31533 0.0
Nd640 Nd 0.59253 0.49874 0.56633 0.0
Nd641 Nd 0.59389 0.52466 0.57096 0.0
C642 C 0.58403 0.47947 0.55816 0.0
C643 C 0.55756 0.4682 0.55932 0.0
C644 C 0.54623 0.46162 0.55186 0.0
C645 C 0.52476 0.4507 0.55276 0.0
C646 C 0.51407 0.44608 0.56115 0.0
C647 C 0.52462 0.45277 0.56863 0.0
C648 C 0.54607 0.46373 0.56772 0.0
C649 C 0.59825 0.50199 0.58451 0.0
C650 C 0.45195 0.51208 0.57055 0.0
C651 C 0.62043 0.54472 0.5769 0.0
C652 C 0.60937 0.55673 0.57636 0.0
C653 C 0.62608 0.56325 0.58367 0.0
C654 C 0.62598 0.57475 0.58306 0.0
C655 C 0.60897 0.58002 0.57511 0.0
C656 C 0.58937 0.57347 0.56788 0.0
C657 C 0.58994 0.56191 0.56848 0.0
C658 C 0.56923 0.51927 0.55357 0.0
C659 C 0.73395 0.51087 0.56882 0.0
O660 O 0.5409 0.48745 0.557 0.0
O661 O 0.63409 0.48232 0.5632 0.0
O662 O 0.59649 0.49231 0.58085 0.0
O663 O 0.59489 0.50906 0.5785 0.0
O664 O 0.482 0.50378 0.56647 0.0
O665 O 0.48511 0.52049 0.57401 0.0
O666 O 0.65189 0.54006 0.57032 0.0
O667 O 0.5743 0.53844 0.58038 0.0
O668 O 0.5439 0.52779 0.55753 0.0
O669 O 0.61008 0.51444 0.55859 0.0
O670 O 0.7015 0.51872 0.57308 0.0
O671 O 0.70243 0.5031 0.56435 0.0
H672 H 0.55511 0.46489 0.54532 0.0
H673 H 0.51815 0.4458 0.54685 0.0
H674 H 0.5161 0.44956 0.57519 0.0
H675 H 0.55433 0.46866 0.57358 0.0
H676 H 0.64152 0.55942 0.58979 0.0
H677 H 0.64025 0.57953 0.58879 0.0
H678 H 0.57625 0.57726 0.56166 0.0
H679 H 0.5773 0.55703 0.56274 0.0
Nd680 Nd 0.73983 0.77791 0.56585 0.0
Nd681 Nd 0.7444 0.75218 0.57028 0.0
C682 C 0.75175 0.79818 0.55939 0.0
C683 C 0.78215 0.80918 0.56093 0.0
C684 C 0.82914 0.81329 0.55492 0.0
C685 C 0.85288 0.82412 0.55565 0.0
C686 C 0.82988 0.83116 0.56238 0.0
C687 C 0.78416 0.82693 0.56853 0.0
C688 C 0.76052 0.81609 0.56782 0.0
C689 C 0.71544 0.77247 0.58321 0.0
C690 C 0.88525 0.76603 0.56971 0.0
C691 C 0.74049 0.73275 0.57822 0.0
C692 C 0.72061 0.72112 0.57679 0.0
C693 C 0.6855 0.71556 0.58342 0.0
C694 C 0.67102 0.70431 0.5826 0.0
C695 C 0.69167 0.69831 0.57513 0.0
C696 C 0.72543 0.70399 0.56838 0.0
C697 C 0.73968 0.71526 0.56919 0.0
C698 C 0.7428 0.75532 0.55207 0.0
C699 C 0.60308 0.76423 0.56567 0.0
O700 O 0.79069 0.79002 0.55709 0.0
O701 O 0.70352 0.79507 0.56461 0.0
O702 O 0.68952 0.78087 0.57921 0.0
O703 O 0.75792 0.76781 0.57831 0.0
O704 O 0.85258 0.77496 0.56718 0.0
O705 O 0.85468 0.75675 0.57188 0.0
O706 O 0.69317 0.74012 0.57902 0.0
O707 O 0.79198 0.73637 0.5738 0.0
O708 O 0.74429 0.74568 0.55576 0.0
O709 O 0.74125 0.76246 0.55805 0.0
O710 O 0.63337 0.75681 0.57065 0.0
O711 O 0.63685 0.77193 0.5614 0.0
H712 H 0.84643 0.8082 0.54952 0.0
H713 H 0.88888 0.82699 0.55087 0.0
H714 H 0.76468 0.83211 0.57374 0.0
H715 H 0.72394 0.81325 0.57253 0.0
H716 H 0.67022 0.71988 0.58934 0.0
H717 H 0.64384 0.7003 0.58786 0.0
H718 H 0.74272 0.69967 0.56257 0.0
H719 H 0.76687 0.71933 0.56396 0.0
Nd720 Nd 0.58653 0.77659 0.69471 0.0
Nd721 Nd 0.57664 0.75268 0.69062 0.0
C722 C 0.57663 0.7972 0.70062 0.0
C723 C 0.54384 0.80808 0.69934 0.0
C724 C 0.49947 0.81208 0.70574 0.0
C725 C 0.47469 0.82287 0.70525 0.0
C726 C 0.49398 0.82999 0.69838 0.0
C727 C 0.5369 0.82586 0.69183 0.0
C728 C 0.56159 0.81506 0.69231 0.0
C729 C 0.60771 0.77177 0.6771 0.0
C730 C 0.44027 0.76603 0.69021 0.0
C731 C 0.58332 0.73218 0.68443 0.0
C732 C 0.60733 0.72079 0.68574 0.0
C733 C 0.61842 0.71417 0.6783 0.0
C734 C 0.63222 0.70293 0.67921 0.0
C735 C 0.63533 0.69802 0.6876 0.0
C736 C 0.62695 0.70477 0.69508 0.0
C737 C 0.61278 0.71605 0.69416 0.0
C738 C 0.55931 0.75742 0.70835 0.0
C739 C 0.72326 0.76336 0.69491 0.0
O740 O 0.54144 0.78903 0.70376 0.0
O741 O 0.62002 0.79399 0.69476 0.0
O742 O 0.63973 0.7792 0.68151 0.0
O743 O 0.56284 0.76748 0.68182 0.0
O744 O 0.47297 0.77358 0.69474 0.0
O745 O 0.47259 0.75798 0.68625 0.0
O746 O 0.62602 0.73985 0.68229 0.0
O747 O 0.53674 0.73573 0.6897 0.0
O748 O 0.52695 0.7499 0.7041 0.0
O749 O 0.60243 0.76178 0.70342 0.0
O750 O 0.69028 0.75577 0.69043 0.0
O751 O 0.69118 0.77142 0.69892 0.0
H752 H 0.48525 0.80696 0.71127 0.0
H753 H 0.44094 0.82567 0.71034 0.0
H754 H 0.55359 0.8311 0.6865 0.0
H755 H 0.5962 0.81232 0.6873 0.0
H756 H 0.61429 0.71764 0.67174 0.0
H757 H 0.63952 0.69803 0.67331 0.0
H758 H 0.6287 0.70125 0.70164 0.0
H759 H 0.6041 0.72098 0.70001 0.0
Nd760 Nd 0.74983 0.49926 0.69508 0.0
Nd761 Nd 0.75425 0.52512 0.69017 0.0
C762 C 0.75386 0.48004 0.70337 0.0
C763 C 0.77928 0.46868 0.70233 0.0
C764 C 0.78805 0.46209 0.70983 0.0
C765 C 0.80848 0.4511 0.70902 0.0
C766 C 0.82064 0.44641 0.70067 0.0
C767 C 0.8126 0.45312 0.69316 0.0
C768 C 0.79221 0.46414 0.69398 0.0
C769 C 0.75139 0.50224 0.67684 0.0
C770 C 0.89112 0.51122 0.69046 0.0
C771 C 0.74526 0.54506 0.68302 0.0
C772 C 0.72963 0.55675 0.68481 0.0
C773 C 0.71087 0.56353 0.67776 0.0
C774 C 0.69983 0.57481 0.67906 0.0
C775 C 0.70719 0.57958 0.68747 0.0
C776 C 0.72516 0.57269 0.69457 0.0
C777 C 0.73627 0.56138 0.69325 0.0
C778 C 0.77063 0.52015 0.70783 0.0
C779 C 0.60914 0.51278 0.69324 0.0
O780 O 0.79762 0.48789 0.7047 0.0
O781 O 0.70539 0.48302 0.69811 0.0
O782 O 0.74976 0.49262 0.68058 0.0
O783 O 0.75402 0.50938 0.68281 0.0
O784 O 0.86073 0.50388 0.6955 0.0
O785 O 0.85757 0.51885 0.68608 0.0
O786 O 0.69617 0.53799 0.68307 0.0
O787 O 0.79975 0.54109 0.68648 0.0
O788 O 0.79541 0.52882 0.70406 0.0
O789 O 0.73256 0.51521 0.70253 0.0
O790 O 0.64188 0.52133 0.68996 0.0
O791 O 0.63975 0.50402 0.69652 0.0
H792 H 0.778 0.4654 0.71633 0.0
H793 H 0.81316 0.44619 0.71495 0.0
H794 H 0.82231 0.44986 0.68663 0.0
H795 H 0.78592 0.46909 0.68809 0.0
H796 H 0.70596 0.56014 0.67118 0.0
H797 H 0.6872 0.57982 0.6734 0.0
H798 H 0.73053 0.57603 0.70116 0.0
H799 H 0.7507 0.55628 0.6988 0.0
Nd800 Nd 0.50252 0.50349 0.44101 0.0
Nd801 Nd 0.49444 0.5275 0.44554 0.0
C802 C 0.49311 0.48307 0.43468 0.0
C803 C 0.47375 0.47151 0.4366 0.0
C804 C 0.43039 0.46601 0.43083 0.0
C805 C 0.41825 0.4547 0.43174 0.0
C806 C 0.4495 0.44855 0.43844 0.0
C807 C 0.49107 0.45416 0.44443 0.0
C808 C 0.50311 0.4655 0.44351 0.0
C809 C 0.5186 0.5077 0.45886 0.0
C810 C 0.35699 0.51452 0.44502 0.0
C811 C 0.50423 0.5478 0.45208 0.0
C812 C 0.53475 0.55883 0.45096 0.0
C813 C 0.55144 0.56497 0.45848 0.0
C814 C 0.573 0.57591 0.45774 0.0
C815 C 0.57834 0.58101 0.44943 0.0
C816 C 0.56378 0.5747 0.44186 0.0
C817 C 0.54207 0.56373 0.44261 0.0
C818 C 0.474 0.52325 0.42784 0.0
C819 C 0.63976 0.51673 0.4409 0.0
O820 O 0.4464 0.49047 0.43369 0.0
O821 O 0.5458 0.487 0.43861 0.0
O822 O 0.54936 0.50002 0.45459 0.0
O823 O 0.47705 0.5124 0.4539 0.0
O824 O 0.38985 0.50719 0.44027 0.0
O825 O 0.38927 0.52221 0.44945 0.0
O826 O 0.54192 0.53964 0.45468 0.0
O827 O 0.45957 0.54477 0.44632 0.0
O828 O 0.44448 0.53095 0.43225 0.0
O829 O 0.51744 0.51856 0.43255 0.0
O830 O 0.60758 0.52422 0.44556 0.0
O831 O 0.607 0.50882 0.4368 0.0
H832 H 0.40732 0.47042 0.42542 0.0
H833 H 0.38498 0.45073 0.4271 0.0
H834 H 0.5165 0.44973 0.44962 0.0
H835 H 0.53708 0.46947 0.44806 0.0
H836 H 0.54613 0.56138 0.46498 0.0
H837 H 0.58489 0.58041 0.4637 0.0
H838 H 0.56687 0.57835 0.43536 0.0
H839 H 0.52933 0.55919 0.4367 0.0
Nd840 Nd 0.32703 0.27468 0.44113 0.0
Nd841 Nd 0.33685 0.25065 0.44548 0.0
C842 C 0.33532 0.29518 0.43495 0.0
C843 C 0.35546 0.30672 0.43687 0.0
C844 C 0.39962 0.3121 0.43115 0.0
C845 C 0.41251 0.3234 0.43206 0.0
C846 C 0.3812 0.32964 0.4387 0.0
C847 C 0.33873 0.32414 0.44463 0.0
C848 C 0.32594 0.31283 0.44372 0.0
C849 C 0.31084 0.2702 0.4589 0.0
C850 C 0.47333 0.26387 0.44524 0.0
C851 C 0.32729 0.23015 0.45161 0.0
C852 C 0.2964 0.21915 0.4502 0.0
C853 C 0.25691 0.21451 0.45687 0.0
C854 C 0.23403 0.20362 0.4562 0.0
C855 C 0.25041 0.19704 0.44885 0.0
C856 C 0.28833 0.20182 0.44205 0.0
C857 C 0.31108 0.21272 0.44271 0.0
C858 C 0.35791 0.25524 0.42788 0.0
C859 C 0.19074 0.26126 0.4409 0.0
O860 O 0.38153 0.28777 0.43368 0.0
O861 O 0.28359 0.29124 0.43908 0.0
O862 O 0.27945 0.27788 0.4547 0.0
O863 O 0.35292 0.26569 0.45392 0.0
O864 O 0.44014 0.27122 0.44054 0.0
O865 O 0.44138 0.25607 0.44957 0.0
O866 O 0.28985 0.23825 0.4544 0.0
O867 O 0.37252 0.2334 0.44601 0.0
O868 O 0.38902 0.24771 0.43227 0.0
O869 O 0.31325 0.25965 0.43256 0.0
O870 O 0.22345 0.25378 0.44551 0.0
O871 O 0.22297 0.26923 0.43684 0.0
H872 H 0.4228 0.30762 0.42578 0.0
H873 H 0.44644 0.32727 0.42747 0.0
H874 H 0.31321 0.32866 0.44978 0.0
H875 H 0.29131 0.30896 0.44823 0.0
H876 H 0.2451 0.21922 0.46273 0.0
H877 H 0.20403 0.20032 0.4615 0.0
H878 H 0.30263 0.19702 0.43633 0.0
H879 H 0.34178 0.216 0.43747 0.0
Nd880 Nd 0.49889 0.27425 0.32116 0.0
Nd881 Nd 0.48945 0.25038 0.31655 0.0
C882 C 0.4897 0.29459 0.32757 0.0
C883 C 0.46787 0.306 0.32562 0.0
C884 C 0.42736 0.31153 0.33171 0.0
C885 C 0.41293 0.32274 0.33066 0.0
C886 C 0.43904 0.32872 0.3235 0.0
C887 C 0.47764 0.32305 0.31722 0.0
C888 C 0.49194 0.31182 0.31827 0.0
C889 C 0.51533 0.27009 0.30335 0.0
C890 C 0.35272 0.2635 0.31684 0.0
C891 C 0.50001 0.23001 0.3102 0.0
C892 C 0.53207 0.21915 0.31169 0.0
C893 C 0.57193 0.21453 0.30505 0.0
C894 C 0.59681 0.20379 0.30588 0.0
C895 C 0.58199 0.19737 0.31335 0.0
C896 C 0.54347 0.20212 0.32011 0.0
C897 C 0.51885 0.21288 0.3193 0.0
C898 C 0.46812 0.25466 0.33419 0.0
C899 C 0.63544 0.26093 0.32129 0.0
O900 O 0.44432 0.28706 0.32888 0.0
O901 O 0.54141 0.29083 0.32333 0.0
O902 O 0.54682 0.27767 0.30764 0.0
O903 O 0.47317 0.2655 0.30825 0.0
O904 O 0.38569 0.27079 0.32162 0.0
O905 O 0.38492 0.25576 0.31245 0.0
O906 O 0.53713 0.2382 0.3075 0.0
O907 O 0.45412 0.23313 0.31575 0.0
O908 O 0.43688 0.24722 0.32971 0.0
O909 O 0.51287 0.25913 0.32958 0.0
O910 O 0.60289 0.25353 0.31658 0.0
O911 O 0.60299 0.26882 0.32543 0.0
H912 H 0.40834 0.30725 0.33745 0.0
H913 H 0.38203 0.32677 0.33554 0.0
H914 H 0.49908 0.32738 0.31167 0.0
H915 H 0.52351 0.3078 0.31346 0.0
H916 H 0.58233 0.21912 0.29908 0.0
H917 H 0.62568 0.20038 0.3005 0.0
H918 H 0.53187 0.19748 0.326 0.0
H919 H 0.48829 0.21618 0.32455 0.0
Nd920 Nd 0.3326 0.50207 0.32147 0.0
Nd921 Nd 0.3334 0.52793 0.31683 0.0
C922 C 0.35214 0.4822 0.32831 0.0
C923 C 0.35742 0.47025 0.3266 0.0
C924 C 0.40518 0.46423 0.3313 0.0
C925 C 0.41087 0.45284 0.33018 0.0
C926 C 0.36873 0.44715 0.32434 0.0
C927 C 0.32159 0.45324 0.31948 0.0
C928 C 0.31587 0.4647 0.32061 0.0
C929 C 0.31255 0.50708 0.30391 0.0
C930 C 0.47475 0.51533 0.31903 0.0
C931 C 0.32674 0.5474 0.30899 0.0
C932 C 0.30224 0.55885 0.31039 0.0
C933 C 0.23691 0.56188 0.30812 0.0
C934 C 0.21598 0.57288 0.30883 0.0
C935 C 0.25994 0.58114 0.31177 0.0
C936 C 0.32491 0.57805 0.31415 0.0
C937 C 0.34581 0.56708 0.31344 0.0
C938 C 0.33535 0.5246 0.33505 0.0
C939 C 0.19314 0.51533 0.32129 0.0
O940 O 0.4 0.48843 0.32532 0.0
O941 O 0.29365 0.4869 0.32786 0.0
O942 O 0.28931 0.49833 0.30774 0.0
O943 O 0.35115 0.51216 0.30907 0.0
O944 O 0.44235 0.50721 0.32297 0.0
O945 O 0.44337 0.52347 0.31499 0.0
O946 O 0.28283 0.53954 0.30771 0.0
O947 O 0.37761 0.54418 0.31374 0.0
O948 O 0.33489 0.5343 0.33144 0.0
O949 O 0.33285 0.51762 0.32899 0.0
O950 O 0.22301 0.52301 0.31652 0.0
O951 O 0.22696 0.50744 0.32534 0.0
H952 H 0.43798 0.46835 0.33591 0.0
H953 H 0.44859 0.44849 0.3339 0.0
H954 H 0.28814 0.44912 0.31495 0.0
H955 H 0.27875 0.46919 0.31689 0.0
H956 H 0.20221 0.5558 0.30564 0.0
H957 H 0.16586 0.57495 0.30683 0.0
H958 H 0.35992 0.58414 0.31655 0.0
H959 H 0.39664 0.56508 0.31517 0.0
Nd960 Nd 0.58649 0.99891 0.06686 0.0
Nd961 Nd 0.5818 0.02474 0.07105 0.0
C962 C 0.57662 0.97873 0.06017 0.0
C963 C 0.54601 0.9677 0.06116 0.0
C964 C 0.53293 0.96147 0.05357 0.0
C965 C 0.51063 0.95057 0.05423 0.0
C966 C 0.50086 0.94562 0.06252 0.0
C967 C 0.51184 0.95203 0.07014 0.0
C968 C 0.53437 0.96296 0.06947 0.0
C969 C 0.60924 1.00456 0.08427 0.0
C970 C 0.44109 1.01077 0.07057 0.0
C971 C 0.5843 0.04441 0.07868 0.0
C972 C 0.59871 0.0562 0.07684 0.0
C973 C 0.64755 0.06172 0.08177 0.0
C974 C 0.65793 0.07307 0.0807 0.0
C975 C 0.61925 0.0792 0.07472 0.0
C976 C 0.57129 0.07361 0.06965 0.0
C977 C 0.56119 0.06225 0.07068 0.0
C978 C 0.5834 0.02132 0.05285 0.0
C979 C 0.72334 1.01255 0.06703 0.0
O980 O 0.53877 0.98692 0.05767 0.0
O981 O 0.62136 0.98164 0.06598 0.0
O982 O 0.63416 0.99595 0.08042 0.0
O983 O 0.56804 1.00927 0.07921 0.0
O984 O 0.47379 1.00178 0.06817 0.0
O985 O 0.47154 0.02012 0.0726 0.0
O986 O 0.6345 0.03753 0.07897 0.0
O987 O 0.53118 0.04013 0.07503 0.0
O988 O 0.58152 0.031 0.05648 0.0
O989 O 0.5852 0.01426 0.0589 0.0
O990 O 0.69241 0.01999 0.07193 0.0
O991 O 0.69014 1.00483 0.0627 0.0
H992 H 0.54153 0.96495 0.04709 0.0
H993 H 0.50157 0.94598 0.04822 0.0
H994 H 0.50521 0.94848 0.07663 0.0
H995 H 0.54424 0.9676 0.07544 0.0
H996 H 0.67676 0.0573 0.08662 0.0
H997 H 0.69481 0.07712 0.08478 0.0
H998 H 0.54125 0.07802 0.06489 0.0
H999 H 0.52315 0.05827 0.06675 0.0
Nd1000 Nd 0.74012 0.27622 0.0664 0.0
Nd1001 Nd 0.74905 0.25252 0.0712 0.0
C1002 C 0.75071 0.29658 0.05999 0.0
C1003 C 0.77821 0.30776 0.06178 0.0
C1004 C 0.83215 0.31174 0.05683 0.0
C1005 C 0.85375 0.32268 0.05775 0.0
C1006 C 0.82151 0.32996 0.06359 0.0
C1007 C 0.76853 0.32588 0.06869 0.0
C1008 C 0.74712 0.31494 0.0678 0.0
C1009 C 0.71957 0.27237 0.08415 0.0
C1010 C 0.88581 0.26566 0.07105 0.0
C1011 C 0.73928 0.2322 0.07768 0.0
C1012 C 0.72167 0.22061 0.07556 0.0
C1013 C 0.67359 0.21516 0.08066 0.0
C1014 C 0.66167 0.20387 0.07953 0.0
C1015 C 0.69797 0.19771 0.07331 0.0
C1016 C 0.74481 0.20325 0.06803 0.0
C1017 C 0.7565 0.21456 0.06913 0.0
C1018 C 0.76572 0.25631 0.05332 0.0
C1019 C 0.6034 0.2633 0.06697 0.0
O1020 O 0.7919 0.28862 0.05797 0.0
O1021 O 0.70119 0.29319 0.06484 0.0
O1022 O 0.68887 0.2798 0.0796 0.0
O1023 O 0.76355 0.26772 0.07953 0.0
O1024 O 0.85326 0.27285 0.06616 0.0
O1025 O 0.85318 0.258 0.07543 0.0
O1026 O 0.69152 0.23947 0.07824 0.0
O1027 O 0.79327 0.23624 0.07418 0.0
O1028 O 0.79716 0.24884 0.05773 0.0
O1029 O 0.72342 0.26099 0.05816 0.0
O1030 O 0.63637 0.25629 0.072 0.0
O1031 O 0.63584 0.27071 0.06229 0.0
H1032 H 0.85658 0.30648 0.05205 0.0
H1033 H 0.89421 0.32554 0.05364 0.0
H1034 H 0.7431 0.33119 0.07334 0.0
H1035 H 0.70516 0.31221 0.0717 0.0
H1036 H 0.64656 0.21959 0.08573 0.0
H1037 H 0.62576 0.19988 0.08378 0.0
H1038 H 0.77299 0.19881 0.06309 0.0
H1039 H 0.79395 0.21849 0.06508 0.0
Nd1040 Nd 0.58889 0.27717 0.19549 0.0
Nd1041 Nd 0.57865 0.25329 0.19104 0.0
C1042 C 0.57962 0.2977 0.20161 0.0
C1043 C 0.55198 0.30887 0.19981 0.0
C1044 C 0.49375 0.31248 0.20405 0.0
C1045 C 0.47197 0.32342 0.20317 0.0
C1046 C 0.50824 0.33106 0.19811 0.0
C1047 C 0.56559 0.32736 0.1937 0.0
C1048 C 0.58723 0.31643 0.19455 0.0
C1049 C 0.60959 0.27277 0.17784 0.0
C1050 C 0.44259 0.26666 0.19097 0.0
C1051 C 0.58655 0.23284 0.18475 0.0
C1052 C 0.60813 0.22133 0.18651 0.0
C1053 C 0.65369 0.21626 0.18079 0.0
C1054 C 0.66798 0.205 0.18153 0.0
C1055 C 0.63667 0.19847 0.18799 0.0
C1056 C 0.59275 0.20366 0.19392 0.0
C1057 C 0.57859 0.21494 0.19318 0.0
C1058 C 0.56219 0.25768 0.20884 0.0
C1059 C 0.72509 0.2639 0.19531 0.0
O1060 O 0.53897 0.28979 0.20391 0.0
O1061 O 0.62791 0.29419 0.19659 0.0
O1062 O 0.64089 0.28023 0.18228 0.0
O1063 O 0.56507 0.26833 0.18251 0.0
O1064 O 0.4755 0.27401 0.19569 0.0
O1065 O 0.47476 0.2588 0.18676 0.0
O1066 O 0.63179 0.24035 0.18327 0.0
O1067 O 0.53581 0.23665 0.18917 0.0
O1068 O 0.53027 0.25012 0.20457 0.0
O1069 O 0.60477 0.26212 0.20391 0.0
O1070 O 0.69193 0.25662 0.19055 0.0
O1071 O 0.69303 0.27166 0.19969 0.0
H1072 H 0.46593 0.30694 0.20825 0.0
H1073 H 0.428 0.32599 0.20674 0.0
H1074 H 0.59429 0.33294 0.18964 0.0
H1075 H 0.63263 0.314 0.19124 0.0
H1076 H 0.67689 0.22096 0.17555 0.0
H1077 H 0.70296 0.20137 0.17695 0.0
H1078 H 0.56715 0.19892 0.19892 0.0
H1079 H 0.54285 0.21855 0.19767 0.0
Nd1080 Nd 0.74571 0.99963 0.19527 0.0
Nd1081 Nd 0.75029 0.02544 0.19089 0.0
C1082 C 0.75578 0.97953 0.20209 0.0
C1083 C 0.78632 0.96849 0.20112 0.0
C1084 C 0.79968 0.96231 0.20872 0.0
C1085 C 0.82201 0.95141 0.20809 0.0
C1086 C 0.83152 0.9464 0.19981 0.0
C1087 C 0.82021 0.95275 0.19217 0.0
C1088 C 0.79765 0.96368 0.19282 0.0
C1089 C 0.72343 1.00505 0.17781 0.0
C1090 C 0.89105 1.01149 0.19152 0.0
C1091 C 0.7477 0.04496 0.18306 0.0
C1092 C 0.73105 0.05671 0.18465 0.0
C1093 C 0.69131 0.06237 0.17854 0.0
C1094 C 0.67981 0.0737 0.17943 0.0
C1095 C 0.70815 0.07971 0.18645 0.0
C1096 C 0.74659 0.07395 0.1927 0.0
C1097 C 0.75787 0.06259 0.19182 0.0
C1098 C 0.74824 0.02223 0.20911 0.0
C1099 C 0.60875 1.01329 0.19504 0.0
O1100 O 0.79381 0.98774 0.2045 0.0
O1101 O 0.71069 0.98239 0.19631 0.0
O1102 O 0.69859 0.99647 0.18171 0.0
O1103 O 0.76441 1.00984 0.18287 0.0
O1104 O 0.85839 1.00254 0.19403 0.0
O1105 O 0.86055 0.02078 0.18936 0.0
O1106 O 0.69857 0.03789 0.18253 0.0
O1107 O 0.79995 0.04098 0.18711 0.0
O1108 O 0.75014 0.03187 0.20542 0.0
O1109 O 0.74658 0.01511 0.20309 0.0
O1110 O 0.6396 0.02072 0.19013 0.0
O1111 O 0.64198 1.00559 0.19939 0.0
H1112 H 0.79132 0.96584 0.21519 0.0
H1113 H 0.83133 0.94687 0.21411 0.0
H1114 H 0.82662 0.94915 0.18569 0.0
H1115 H 0.78756 0.96827 0.18684 0.0
H1116 H 0.67009 0.05804 0.17296 0.0
H1117 H 0.64894 0.07778 0.17458 0.0
H1118 H 0.76983 0.07827 0.19814 0.0
H1119 H 0.78882 0.05848 0.19665 0.0
Nd1120 Nd 0.49822 1.00156 0.94067 0.0
Nd1121 Nd 0.49307 0.02729 0.94497 0.0
C1122 C 0.49605 0.98207 0.93277 0.0
C1123 C 0.47878 0.97039 0.93436 0.0
C1124 C 0.45685 0.96389 0.92729 0.0
C1125 C 0.44551 0.95259 0.92841 0.0
C1126 C 0.45605 0.94752 0.93664 0.0
C1127 C 0.4766 0.95414 0.94378 0.0
C1128 C 0.48773 0.96547 0.94265 0.0
C1129 C 0.49684 1.0048 0.95889 0.0
C1130 C 0.35649 1.01357 0.94505 0.0
C1131 C 0.50272 0.04753 0.95154 0.0
C1132 C 0.53353 0.05851 0.95041 0.0
C1133 C 0.54864 0.06475 0.95793 0.0
C1134 C 0.57106 0.07563 0.95715 0.0
C1135 C 0.57885 0.08054 0.94881 0.0
C1136 C 0.56588 0.07412 0.94125 0.0
C1137 C 0.54329 0.06321 0.94204 0.0
C1138 C 0.46958 0.02162 0.92758 0.0
C1139 C 0.63875 0.01555 0.94116 0.0
O1140 O 0.44717 0.98918 0.93218 0.0
O1141 O 0.54766 0.98595 0.93703 0.0
O1142 O 0.4987 0.99515 0.9552 0.0
O1143 O 0.49479 1.01192 0.95289 0.0
O1144 O 0.38708 1.00611 0.94012 0.0
O1145 O 0.39 0.0213 0.94932 0.0
O1146 O 0.54053 0.03936 0.95412 0.0
O1147 O 0.45788 0.04454 0.94577 0.0
O1148 O 0.44311 0.03004 0.93151 0.0
O1149 O 0.51185 0.01709 0.93258 0.0
O1150 O 0.60595 0.02451 0.94364 0.0
O1151 O 0.60832 1.00623 0.93907 0.0
H1152 H 0.44998 0.9675 0.92082 0.0
H1153 H 0.43049 0.94775 0.92274 0.0
H1154 H 0.48431 0.95056 0.95024 0.0
H1155 H 0.50441 0.97033 0.94823 0.0
H1156 H 0.54151 0.06129 0.96445 0.0
H1157 H 0.58171 0.08023 0.96311 0.0
H1158 H 0.57095 0.07764 0.93473 0.0
H1159 H 0.53187 0.05856 0.93613 0.0
Nd1160 Nd 0.33332 0.77427 0.94186 0.0
Nd1161 Nd 0.34366 0.75048 0.94625 0.0
C1162 C 0.34099 0.79466 0.93551 0.0
C1163 C 0.36306 0.80611 0.93724 0.0
C1164 C 0.39492 0.81199 0.9305 0.0
C1165 C 0.40886 0.82323 0.93148 0.0
C1166 C 0.39099 0.82888 0.93923 0.0
C1167 C 0.36094 0.82288 0.94611 0.0
C1168 C 0.34715 0.81161 0.94513 0.0
C1169 C 0.31694 0.77002 0.95969 0.0
C1170 C 0.48005 0.7637 0.94606 0.0
C1171 C 0.33526 0.73005 0.95251 0.0
C1172 C 0.30285 0.71919 0.95135 0.0
C1173 C 0.28898 0.71281 0.95883 0.0
C1174 C 0.26484 0.70204 0.95797 0.0
C1175 C 0.25401 0.69737 0.94959 0.0
C1176 C 0.26635 0.70391 0.94209 0.0
C1177 C 0.29049 0.71472 0.94296 0.0
C1178 C 0.36449 0.75491 0.92859 0.0
C1179 C 0.1972 0.76085 0.94164 0.0
O1180 O 0.38598 0.78713 0.93396 0.0
O1181 O 0.29082 0.79093 0.94007 0.0
O1182 O 0.28495 0.77752 0.95537 0.0
O1183 O 0.35946 0.76549 0.95477 0.0
O1184 O 0.44672 0.77105 0.9414 0.0
O1185 O 0.44823 0.75584 0.95033 0.0
O1186 O 0.29954 0.73822 0.95554 0.0
O1187 O 0.37761 0.73313 0.94648 0.0
O1188 O 0.39667 0.74759 0.93307 0.0
O1189 O 0.31952 0.75928 0.93325 0.0
O1190 O 0.23007 0.75342 0.94627 0.0
O1191 O 0.22934 0.76882 0.93757 0.0
H1192 H 0.40707 0.80796 0.92432 0.0
H1193 H 0.4313 0.82758 0.926 0.0
H1194 H 0.34738 0.82692 0.95222 0.0
H1195 H 0.32258 0.80728 0.95045 0.0
H1196 H 0.29864 0.71605 0.96536 0.0
H1197 H 0.25689 0.69724 0.96389 0.0
H1198 H 0.25774 0.70066 0.93553 0.0
H1199 H 0.30072 0.71948 0.93707 0.0
Nd1200 Nd 0.49799 0.77322 0.82097 0.0
Nd1201 Nd 0.48762 0.74932 0.8168 0.0
C1202 C 0.49005 0.79376 0.82707 0.0
C1203 C 0.46729 0.80519 0.82533 0.0
C1204 C 0.42577 0.81044 0.83148 0.0
C1205 C 0.4111 0.82168 0.83071 0.0
C1206 C 0.43797 0.82801 0.82379 0.0
C1207 C 0.47756 0.82264 0.81744 0.0
C1208 C 0.49212 0.81137 0.81821 0.0
C1209 C 0.51493 0.76863 0.8032 0.0
C1210 C 0.35127 0.76258 0.81678 0.0
C1211 C 0.49624 0.72877 0.81075 0.0
C1212 C 0.52837 0.71787 0.81193 0.0
C1213 C 0.54897 0.71197 0.80445 0.0
C1214 C 0.57238 0.70114 0.80521 0.0
C1215 C 0.57564 0.6959 0.81348 0.0
C1216 C 0.55673 0.70195 0.82101 0.0
C1217 C 0.53338 0.71281 0.82025 0.0
C1218 C 0.46621 0.7541 0.8344 0.0
C1219 C 0.63406 0.7598 0.82136 0.0
O1220 O 0.44573 0.78619 0.82883 0.0
O1221 O 0.53987 0.78998 0.82246 0.0
O1222 O 0.54704 0.77617 0.80747 0.0
O1223 O 0.47213 0.76421 0.80814 0.0
O1224 O 0.38453 0.77004 0.82136 0.0
O1225 O 0.38311 0.75462 0.81263 0.0
O1226 O 0.53183 0.7369 0.80763 0.0
O1227 O 0.45389 0.73196 0.81675 0.0
O1228 O 0.43407 0.74671 0.82997 0.0
O1229 O 0.51143 0.75836 0.82972 0.0
O1230 O 0.60122 0.75228 0.81681 0.0
O1231 O 0.6019 0.76785 0.82534 0.0
H1232 H 0.40623 0.8059 0.83705 0.0
H1233 H 0.37947 0.82546 0.83563 0.0
H1234 H 0.49965 0.82723 0.81207 0.0
H1235 H 0.52462 0.80761 0.81338 0.0
H1236 H 0.54502 0.71564 0.79796 0.0
H1237 H 0.58562 0.69674 0.79925 0.0
H1238 H 0.55949 0.69827 0.8275 0.0
H1239 H 0.51791 0.71716 0.82614 0.0
Nd1240 Nd 0.33275 1.0011 0.82121 0.0
Nd1241 Nd 0.33336 0.02805 0.81656 0.0
C1242 C 0.33634 0.98169 0.82918 0.0
C1243 C 0.34864 0.9698 0.82755 0.0
C1244 C 0.39323 0.96411 0.83301 0.0
C1245 C 0.40251 0.95273 0.83206 0.0
C1246 C 0.36708 0.94672 0.82564 0.0
C1247 C 0.32337 0.95251 0.82004 0.0
C1248 C 0.31424 0.96391 0.82098 0.0
C1249 C 0.3301 1.00511 0.8031 0.0
C1250 C 0.47355 0.01424 0.81778 0.0
C1251 C 0.32736 0.04758 0.80878 0.0
C1252 C 0.30584 0.05916 0.81035 0.0
C1253 C 0.25547 0.06374 0.80509 0.0
C1254 C 0.23699 0.07482 0.80605 0.0
C1255 C 0.26877 0.08164 0.81227 0.0
C1256 C 0.31881 0.07701 0.8176 0.0
C1257 C 0.33709 0.06591 0.81666 0.0
C1258 C 0.33936 0.02382 0.83465 0.0
C1259 C 0.19199 0.01512 0.82029 0.0
O1260 O 0.38758 0.98836 0.82884 0.0
O1261 O 0.28196 0.98603 0.82591 0.0
O1262 O 0.33034 0.99528 0.80653 0.0
O1263 O 0.33242 1.01195 0.80932 0.0
O1264 O 0.44284 1.00607 0.82192 0.0
O1265 O 0.44116 0.02248 0.81393 0.0
O1266 O 0.28075 0.04009 0.80799 0.0
O1267 O 0.37996 0.04399 0.81302 0.0
O1268 O 0.33918 0.0337 0.83131 0.0
O1269 O 0.33418 0.01714 0.82837 0.0
O1270 O 0.22249 0.02359 0.81653 0.0
O1271 O 0.22432 1.00653 0.82364 0.0
H1272 H 0.42035 0.96845 0.83811 0.0
H1273 H 0.43749 0.94863 0.83638 0.0
H1274 H 0.29475 0.94818 0.81508 0.0
H1275 H 0.27943 0.96807 0.81667 0.0
H1276 H 0.23099 0.05879 0.8001 0.0
H1277 H 0.19892 0.07811 0.80174 0.0
H1278 H 0.34383 0.08197 0.82253 0.0
H1279 H 0.37617 0.06266 0.82083 0.0
H1280 H 0.08843 0.42709 0.06449 0.0
H1281 H 0.0556 0.40768 0.06473 0.0
H1282 H 0.84924 0.41722 0.06427 0.0
H1283 H 0.88169 0.43667 0.06399 0.0
H1284 H 0.98209 0.39583 0.07652 0.0
H1285 H 0.85704 0.39563 0.04393 0.0
H1286 H 0.90891 0.40689 0.04754 0.0
H1287 H 0.82463 0.40577 0.05139 0.0
C1288 C 1.03598 0.42508 0.06451 0.0
C1289 C 0.98774 0.43349 0.06419 0.0
C1290 C 1.01729 0.41396 0.06461 0.0
C1291 C 0.94993 0.41094 0.06436 0.0
C1292 C 0.90156 0.4193 0.06422 0.0
H1293 H 0.7403 0.34807 0.0647 0.0
H1294 H 0.77217 0.36753 0.06527 0.0
C1295 C 0.92022 0.43044 0.06409 0.0
C1296 C 0.9306 0.39905 0.06434 0.0
H1297 H 0.84513 0.37951 0.05264 0.0
C1298 C 0.95236 0.39226 0.07128 0.0
C1299 C 0.89186 0.39434 0.0575 0.0
C1300 C 0.86973 0.401 0.04962 0.0
C1301 C 0.93557 0.381 0.07163 0.0
C1302 C 0.89665 0.37632 0.06481 0.0
C1303 C 0.87481 0.3831 0.05789 0.0
C1304 C 0.87792 0.36442 0.06472 0.0
C1305 C 0.9585 0.37424 0.07941 0.0
C1306 C 0.9267 0.35616 0.06418 0.0
C1307 C 0.90862 0.34499 0.06387 0.0
C1308 C 0.84128 0.34183 0.06411 0.0
C1309 C 0.79262 0.35016 0.06465 0.0
C1310 C 0.81074 0.36131 0.06491 0.0
H1311 H 0.97341 0.37953 0.08506 0.0
H1312 H 0.91883 0.36852 0.08163 0.0
H1313 H 1.00223 0.36924 0.07744 0.0
H1314 H 0.97882 0.35834 0.06387 0.0
H1315 H 0.94745 0.33883 0.0635 0.0
H1316 H 0.41143 0.93588 0.07385 0.0
H1317 H 0.3812 0.9163 0.07479 0.0
H1318 H 0.51556 0.90894 0.05345 0.0
H1319 H 0.54708 0.92835 0.05261 0.0
H1320 H 0.32574 0.90259 0.06154 0.0
H1321 H 0.57063 0.88675 0.0725 0.0
H1322 H 0.5488 0.90117 0.07306 0.0
H1323 H 0.57459 0.89515 0.06277 0.0
C1324 C 0.43506 0.93007 0.06942 0.0
C1325 C 0.48174 0.93373 0.06315 0.0
C1326 C 0.41746 0.91889 0.06993 0.0
C1327 C 0.44675 0.91111 0.06427 0.0
C1328 C 0.49307 0.91474 0.05799 0.0
H1329 H 0.4151 0.84143 0.05281 0.0
H1330 H 0.44335 0.86101 0.05371 0.0
C1331 C 0.51046 0.92589 0.05745 0.0
C1332 C 0.42794 0.89923 0.06473 0.0
H1333 H 0.49197 0.87337 0.06767 0.0
C1334 C 0.36189 0.8962 0.06297 0.0
C1335 C 0.47514 0.89088 0.06658 0.0
C1336 C 0.54613 0.89363 0.06892 0.0
C1337 C 0.34231 0.88505 0.0627 0.0
C1338 C 0.38978 0.87669 0.06442 0.0
C1339 C 0.45559 0.87975 0.06633 0.0
C1340 C 0.37267 0.86473 0.06404 0.0
C1341 C 0.27148 0.88232 0.06027 0.0
C1342 C 0.32426 0.8602 0.06964 0.0
C1343 C 0.30764 0.84899 0.0691 0.0
C1344 C 0.33928 0.84202 0.06297 0.0
C1345 C 0.38883 0.84655 0.0575 0.0
C1346 C 0.40541 0.85775 0.05805 0.0
H1347 H 0.24618 0.88938 0.05702 0.0
H1348 H 0.26942 0.87508 0.05578 0.0
H1349 H 0.24334 0.88026 0.06634 0.0
H1350 H 0.29918 0.86535 0.07444 0.0
H1351 H 0.26899 0.84584 0.07338 0.0
H1352 H 0.92052 0.93659 0.18843 0.0
H1353 H 0.95106 0.91703 0.18754 0.0
H1354 H 0.81797 0.90977 0.20903 0.0
H1355 H 0.78613 0.92918 0.20982 0.0
H1356 H 1.00755 0.90345 0.20076 0.0
H1357 H 0.76229 0.88737 0.19016 0.0
H1358 H 0.78373 0.90181 0.18952 0.0
H1359 H 0.75875 0.89585 0.19986 0.0
C1360 C 0.89722 0.93082 0.1929 0.0
C1361 C 0.85081 0.9345 0.1992 0.0
C1362 C 0.91501 0.91964 0.19242 0.0
C1363 C 0.88617 0.91188 0.19814 0.0
C1364 C 0.84012 0.91555 0.20444 0.0
H1365 H 0.91919 0.84238 0.20996 0.0
H1366 H 0.89083 0.86194 0.20893 0.0
C1367 C 0.82254 0.9267 0.20496 0.0
C1368 C 0.9052 0.90001 0.1977 0.0
H1369 H 0.84148 0.87408 0.19497 0.0
C1370 C 0.97142 0.89703 0.1994 0.0
C1371 C 0.85805 0.89162 0.19595 0.0
C1372 C 0.78685 0.8943 0.19368 0.0
C1373 C 0.99125 0.88589 0.1997 0.0
C1374 C 0.94383 0.87749 0.19808 0.0
C1375 C 0.87784 0.88049 0.19624 0.0
C1376 C 0.96112 0.86553 0.19854 0.0
C1377 C 0.06228 0.88322 0.20207 0.0
C1378 C 1.00938 0.86094 0.19294 0.0
C1379 C 1.0261 0.84973 0.19355 0.0
C1380 C 0.99472 0.84284 0.19975 0.0
C1381 C 0.94532 0.84744 0.20521 0.0
C1382 C 0.92866 0.85863 0.20459 0.0
H1383 H 0.08768 0.89033 0.20524 0.0
H1384 H 0.06476 0.87605 0.2066 0.0
H1385 H 0.09005 0.88111 0.19598 0.0
H1386 H 1.03424 0.86602 0.18809 0.0
H1387 H 0.06457 0.84653 0.18926 0.0
H1388 H 0.24069 0.4283 0.19607 0.0
H1389 H 0.27304 0.40886 0.19576 0.0
H1390 H 0.4781 0.41812 0.19939 0.0
H1391 H 0.44611 0.43759 0.19974 0.0
H1392 H 0.35546 0.39731 0.18482 0.0
H1393 H 0.45323 0.39587 0.21899 0.0
H1394 H 0.40485 0.40731 0.21492 0.0
H1395 H 0.4918 0.40623 0.21229 0.0
C1396 C 0.2928 0.42623 0.19674 0.0
C1397 C 0.34073 0.43455 0.19797 0.0
C1398 C 0.31119 0.41508 0.1966 0.0
C1399 C 0.37789 0.41197 0.19772 0.0
C1400 C 0.42609 0.42026 0.19875 0.0
H1401 H 0.58847 0.34933 0.19877 0.0
H1402 H 0.5559 0.36874 0.1983 0.0
C1403 C 0.40771 0.43141 0.19893 0.0
C1404 C 0.39685 0.40006 0.19773 0.0
H1405 H 0.47264 0.38009 0.21008 0.0
C1406 C 0.38081 0.39353 0.19036 0.0
C1407 C 0.42984 0.39509 0.20497 0.0
C1408 C 0.44541 0.40145 0.21328 0.0
C1409 C 0.39796 0.38229 0.18997 0.0
C1410 C 0.4313 0.37736 0.19718 0.0
C1411 C 0.44725 0.38387 0.20454 0.0
C1412 C 0.45056 0.36548 0.1972 0.0
C1413 C 0.38156 0.37583 0.18174 0.0
C1414 C 0.4022 0.35713 0.1968 0.0
C1415 C 0.4207 0.34598 0.19704 0.0
C1416 C 0.48806 0.34293 0.19769 0.0
C1417 C 0.53627 0.35133 0.19811 0.0
C1418 C 0.5177 0.36246 0.19791 0.0
H1419 H 0.371 0.38133 0.17606 0.0
H1420 H 0.423 0.37021 0.17994 0.0
H1421 H 0.33672 0.37073 0.18296 0.0
H1422 H 0.34998 0.35924 0.19641 0.0
H1423 H 0.38224 0.33975 0.19666 0.0
H1424 H 0.15998 0.59204 0.93752 0.0
H1425 H 0.19079 0.6116 0.93699 0.0
H1426 H 0.06875 0.61791 0.9598 0.0
H1427 H 1.03772 0.59847 0.96037 0.0
H1428 H 0.11304 0.63041 0.93518 0.0
H1429 H 0.24556 0.63119 0.96721 0.0
H1430 H 0.22294 0.6185 0.96176 0.0
H1431 H 0.16223 0.62603 0.96805 0.0
C1432 C 0.13955 0.59759 0.94241 0.0
C1433 C 0.09695 0.59361 0.94905 0.0
C1434 C 0.15738 0.60878 0.94212 0.0
C1435 C 0.13319 0.61621 0.94846 0.0
C1436 C 0.08959 0.6123 0.95497 0.0
H1437 H 0.16381 0.68607 0.95976 0.0
H1438 H 0.13463 0.66652 0.95899 0.0
C1439 C 0.07191 0.60115 0.95529 0.0
C1440 C 0.15253 0.62808 0.94824 0.0
H1441 H 0.22171 0.6486 0.9607 0.0
C1442 C 0.1373 0.63437 0.94073 0.0
C1443 C 0.1843 0.63327 0.95548 0.0
C1444 C 0.20535 0.62688 0.96355 0.0
C1445 C 0.15109 0.64575 0.94037 0.0
C1446 C 0.18178 0.65096 0.94767 0.0
C1447 C 0.19777 0.64463 0.95513 0.0
C1448 C 0.19746 0.66297 0.94778 0.0
C1449 C 0.13098 0.65216 0.93228 0.0
C1450 C 0.24258 0.66753 0.94173 0.0
C1451 C 0.25973 0.67872 0.94218 0.0
C1452 C 0.23242 0.68561 0.94873 0.0
C1453 C 0.18656 0.68102 0.9547 0.0
C1454 C 0.16954 0.66984 0.95425 0.0
H1455 H 0.09396 0.64761 0.92824 0.0
H1456 H 0.10973 0.66029 0.93413 0.0
H1457 H 0.1755 0.65364 0.92813 0.0
H1458 H 0.26588 0.66236 0.93679 0.0
H1459 H 0.29605 0.68188 0.93756 0.0
H1460 H 0.66596 0.1845 0.95819 0.0
H1461 H 0.63741 0.16495 0.95721 0.0
H1462 H 0.77699 0.16089 0.9359 0.0
H1463 H 0.80764 0.18037 0.93704 0.0
H1464 H 0.58591 0.15272 0.94342 0.0
H1465 H 0.83451 0.13677 0.95296 0.0
H1466 H 0.81134 0.15104 0.95435 0.0
H1467 H 0.83479 0.14593 0.94366 0.0
C1468 C 0.69115 0.17945 0.95334 0.0
C1469 C 0.73967 0.18404 0.94775 0.0
C1470 C 0.67439 0.16827 0.95275 0.0
C1471 C 0.70584 0.16138 0.94659 0.0
C1472 C 0.75298 0.16597 0.94084 0.0
H1473 H 0.66532 0.09021 0.93705 0.0
H1474 H 0.69512 0.10978 0.9359 0.0
C1475 C 0.76985 0.17717 0.94142 0.0
C1476 C 0.6889 0.14942 0.94622 0.0
H1477 H 0.7539 0.12355 0.94883 0.0
C1478 C 0.62269 0.14635 0.9446 0.0
C1479 C 0.73689 0.14108 0.94773 0.0
C1480 C 0.80826 0.14383 0.94985 0.0
C1481 C 0.60319 0.13521 0.94445 0.0
C1482 C 0.65093 0.12689 0.94609 0.0
C1483 C 0.71736 0.12993 0.94755 0.0
C1484 C 0.63234 0.11502 0.94669 0.0
C1485 C 0.53165 0.13244 0.94244 0.0
C1486 C 0.58777 0.11143 0.9532 0.0
C1487 C 0.57061 0.10028 0.95386 0.0
C1488 C 0.59786 0.09242 0.94806 0.0
C1489 C 0.64284 0.09603 0.94156 0.0
C1490 C 0.6602 0.10721 0.94092 0.0
H1491 H 0.50623 0.1393 0.93895 0.0
H1492 H 0.52797 0.12488 0.93834 0.0
H1493 H 0.5048 0.13095 0.94871 0.0
H1494 H 0.56646 0.11725 0.95782 0.0
H1495 H 0.53529 0.09784 0.95888 0.0
H1496 H 0.21193 0.18844 0.8148 0.0
H1497 H 0.24407 0.16893 0.81463 0.0
H1498 H 1.03758 0.15952 0.81406 0.0
H1499 H 1.00507 0.17893 0.81401 0.0
H1500 H 0.21038 0.15174 0.82668 0.0
H1501 H 0.11732 0.14276 0.79297 0.0
H1502 H 0.12982 0.15664 0.79696 0.0
H1503 H 0.05719 0.149 0.80016 0.0
C1504 C 0.17333 0.18222 0.81457 0.0
C1505 C 0.10584 0.18531 0.8144 0.0
C1506 C 0.1918 0.17107 0.81452 0.0
C1507 C 0.1433 0.16274 0.81421 0.0
C1508 C 0.07597 0.16578 0.81416 0.0
H1509 H 0.14452 0.09104 0.81164 0.0
H1510 H 0.1156 0.11061 0.81242 0.0
C1511 C 0.05745 0.17691 0.81424 0.0
C1512 C 0.16287 0.15088 0.81398 0.0
H1513 H 0.15149 0.12743 0.80154 0.0
C1514 C 0.19786 0.14643 0.82116 0.0
C1515 C 0.14636 0.14394 0.8068 0.0
C1516 C 0.11112 0.14832 0.79874 0.0
C1517 C 0.21539 0.13519 0.82144 0.0
C1518 C 0.19882 0.12823 0.81425 0.0
C1519 C 0.16411 0.13272 0.80706 0.0
C1520 C 0.21684 0.11628 0.81404 0.0
C1521 C 0.24984 0.13081 0.82956 0.0
C1522 C 0.28347 0.11289 0.81462 0.0
C1523 C 0.30019 0.10168 0.81417 0.0
C1524 C 0.25072 0.09358 0.81304 0.0
C1525 C 0.18403 0.09702 0.81243 0.0
C1526 C 0.16735 0.10823 0.81291 0.0
H1527 H 0.24192 0.13627 0.83535 0.0
H1528 H 0.23198 0.1224 0.83122 0.0
H1529 H 0.30409 0.13037 0.8283 0.0
H1530 H 0.32283 0.11892 0.81525 0.0
H1531 H 0.35213 0.09937 0.8145 0.0
H1532 H 0.67443 0.68512 0.80436 0.0
H1533 H 0.70288 0.66552 0.80482 0.0
H1534 H 0.55373 0.66023 0.82476 0.0
H1535 H 0.52334 0.67974 0.82413 0.0
H1536 H 0.74798 0.65239 0.81851 0.0
H1537 H 0.50435 0.63715 0.80637 0.0
H1538 H 0.52817 0.65147 0.80572 0.0
H1539 H 0.49933 0.64578 0.81597 0.0
C1540 C 0.6472 0.67979 0.8088 0.0
C1541 C 0.59613 0.68405 0.81416 0.0
C1542 C 0.66386 0.66857 0.80909 0.0
C1543 C 0.6297 0.66132 0.81471 0.0
C1544 C 0.57994 0.66559 0.82024 0.0
H1545 H 0.66195 0.58984 0.82283 0.0
H1546 H 0.63296 0.60944 0.82407 0.0
C1547 C 0.56321 0.67681 0.81995 0.0
C1548 C 0.64643 0.64933 0.81477 0.0
H1549 H 0.58198 0.62365 0.81094 0.0
C1550 C 0.71166 0.64611 0.81684 0.0
C1551 C 0.59907 0.6411 0.81262 0.0
C1552 C 0.52895 0.64402 0.80997 0.0
C1553 C 0.73067 0.63494 0.81688 0.0
C1554 C 0.68353 0.62673 0.81464 0.0
C1555 C 0.61809 0.62993 0.81267 0.0
C1556 C 0.70173 0.61484 0.814 0.0
C1557 C 0.80097 0.63201 0.81943 0.0
C1558 C 0.74947 0.61131 0.80787 0.0
C1559 C 0.76618 0.60014 0.80715 0.0
C1560 C 0.73533 0.59218 0.81253 0.0
C1561 C 0.68724 0.59573 0.81865 0.0
C1562 C 0.67034 0.60693 0.81933 0.0
H1563 H 0.82498 0.63873 0.82327 0.0
H1564 H 0.80231 0.62433 0.8234 0.0
H1565 H 0.83072 0.63066 0.81337 0.0
H1566 H 0.77361 0.61721 0.80357 0.0
H1567 H 0.80393 0.59776 0.80243 0.0
H1568 H 0.98682 0.934 0.57643 0.0
H1569 H 0.95993 0.91433 0.57702 0.0
H1570 H 0.96378 0.91276 0.54863 0.0
H1571 H 0.99338 0.93225 0.54797 0.0
H1572 H 0.85363 0.90288 0.57037 0.0
H1573 H 0.0859 0.88753 0.5551 0.0
H1574 H 0.07689 0.90153 0.55895 0.0
H1575 H 0.04369 0.8975 0.5484 0.0
C1576 C 0.98283 0.92945 0.5703 0.0
C1577 C 0.99272 0.93477 0.56215 0.0
C1578 C 0.96696 0.9182 0.57066 0.0
C1579 C 0.96097 0.91198 0.56288 0.0
C1580 C 0.96955 0.9173 0.55474 0.0
H1581 H 0.85042 0.84539 0.54856 0.0
H1582 H 0.88304 0.86478 0.54914 0.0
C1583 C 0.98557 0.92852 0.55437 0.0
C1584 C 0.94452 0.89999 0.56326 0.0
H1585 H 0.99763 0.87454 0.55653 0.0
C1586 C 0.88541 0.89668 0.56741 0.0
C1587 C 0.98602 0.89186 0.55942 0.0
C1588 C 0.05199 0.89476 0.55529 0.0
C1589 C 0.8657 0.88554 0.56759 0.0
C1590 C 0.90662 0.87745 0.5636 0.0
C1591 C 0.96613 0.88074 0.55955 0.0
C1592 C 0.88786 0.86556 0.56337 0.0
C1593 C 0.80023 0.88256 0.57181 0.0
C1594 C 0.88072 0.85946 0.57118 0.0
C1595 C 0.86254 0.8483 0.57088 0.0
C1596 C 0.85136 0.84297 0.56275 0.0
C1597 C 0.8595 0.84912 0.55494 0.0
C1598 C 0.87776 0.86025 0.55525 0.0
H1599 H 0.76792 0.8899 0.57274 0.0
H1600 H 0.77308 0.8764 0.56776 0.0
H1601 H 0.80967 0.87887 0.57838 0.0
H1602 H 0.88962 0.8633 0.57752 0.0
H1603 H 0.85788 0.84382 0.57702 0.0
H1604 H 0.41336 0.34089 0.57404 0.0
H1605 H 0.44333 0.36047 0.57481 0.0
H1606 H 0.32325 0.36695 0.55185 0.0
H1607 H 0.29168 0.34754 0.55117 0.0
H1608 H 0.50726 0.3737 0.56214 0.0
H1609 H 0.25567 0.38986 0.56951 0.0
H1610 H 0.27672 0.37545 0.57061 0.0
H1611 H 0.25862 0.38117 0.55993 0.0
C1612 C 0.39277 0.3465 0.56921 0.0
C1613 C 0.34998 0.34259 0.56255 0.0
C1614 C 0.41026 0.35769 0.56963 0.0
C1615 C 0.38478 0.36524 0.56347 0.0
C1616 C 0.34264 0.36135 0.55678 0.0
H1617 H 0.42527 0.43448 0.55096 0.0
H1618 H 0.39617 0.41495 0.55193 0.0
C1619 C 0.3253 0.35018 0.55633 0.0
C1620 C 0.40321 0.37714 0.56389 0.0
H1621 H 0.33751 0.40308 0.56541 0.0
C1622 C 0.47027 0.38012 0.56294 0.0
C1623 C 0.35492 0.38554 0.56493 0.0
C1624 C 0.28252 0.38287 0.56639 0.0
C1625 C 0.49004 0.39126 0.56271 0.0
C1626 C 0.4416 0.39966 0.56361 0.0
C1627 C 0.37467 0.39666 0.5647 0.0
C1628 C 0.45899 0.41161 0.5632 0.0
C1629 C 0.56237 0.39392 0.56117 0.0
C1630 C 0.50316 0.41635 0.5693 0.0
C1631 C 0.52033 0.42753 0.56873 0.0
C1632 C 0.49345 0.43427 0.56205 0.0
C1633 C 0.44794 0.42954 0.55609 0.0
C1634 C 0.43084 0.41837 0.55667 0.0
H1635 H 0.58991 0.38676 0.55842 0.0
H1636 H 0.56787 0.401 0.55659 0.0
H1637 H 0.58584 0.39618 0.56754 0.0
H1638 H 0.52455 0.41138 0.57451 0.0
H1639 H 0.55578 0.43084 0.57341 0.0
H1640 H 0.91836 0.34105 0.68788 0.0
H1641 H 0.88914 0.36066 0.68708 0.0
H1642 H 1.00477 0.36696 0.71047 0.0
H1643 H 1.03563 0.34752 0.71119 0.0
H1644 H 0.82316 0.37396 0.69952 0.0
H1645 H 0.0769 0.38982 0.69315 0.0
H1646 H 0.05549 0.37544 0.69194 0.0
H1647 H 0.07162 0.38112 0.70269 0.0
C1648 C 0.93812 0.34662 0.69281 0.0
C1649 C 0.97949 0.34265 0.6996 0.0
C1650 C 0.92105 0.35783 0.69236 0.0
C1651 C 0.94553 0.36534 0.69864 0.0
C1652 C 0.98619 0.36139 0.70546 0.0
H1653 H 0.90592 0.43461 0.71122 0.0
H1654 H 0.93384 0.41502 0.71032 0.0
C1655 C 1.00311 0.35021 0.70592 0.0
C1656 C 0.92771 0.37727 0.69819 0.0
H1657 H 0.99488 0.40313 0.69701 0.0
C1658 C 0.86061 0.38034 0.69889 0.0
C1659 C 0.97656 0.38561 0.69736 0.0
C1660 C 0.04912 0.38286 0.69616 0.0
C1661 C 0.84129 0.3915 0.69909 0.0
C1662 C 0.89029 0.39985 0.69841 0.0
C1663 C 0.95729 0.39676 0.69756 0.0
C1664 C 0.8734 0.41182 0.6988 0.0
C1665 C 0.76878 0.39425 0.70035 0.0
C1666 C 0.83093 0.41665 0.69254 0.0
C1667 C 0.81445 0.42787 0.69307 0.0
C1668 C 0.84033 0.43455 0.69986 0.0
C1669 C 0.88406 0.42972 0.706 0.0
C1670 C 0.90048 0.41851 0.70546 0.0
H1671 H 0.74029 0.38711 0.70296 0.0
H1672 H 0.7626 0.40131 0.70494 0.0
H1673 H 0.74687 0.39657 0.6939 0.0
H1674 H 0.8104 0.41173 0.68723 0.0
H1675 H 0.78036 0.43125 0.68825 0.0
H1676 H 0.47993 0.84412 0.71242 0.0
H1677 H 0.44674 0.86349 0.71225 0.0
H1678 H 0.42862 0.8623 0.68394 0.0
H1679 H 0.4593 0.84278 0.68407 0.0
H1680 H 0.50875 0.88091 0.70429 0.0
H1681 H 0.25351 0.87644 0.69088 0.0
H1682 H 0.30068 0.86486 0.69496 0.0
H1683 H 0.31687 0.87031 0.68415 0.0
C1684 C 0.46761 0.84788 0.70616 0.0
C1685 C 0.4719 0.84179 0.69827 0.0
C1686 C 0.44917 0.85902 0.70607 0.0
C1687 C 0.43423 0.86437 0.6981 0.0
C1688 C 0.43857 0.85834 0.6902 0.0
H1689 H 0.32935 0.93284 0.68588 0.0
H1690 H 0.35941 0.91329 0.68504 0.0
C1691 C 0.45695 0.84718 0.69028 0.0
C1692 C 0.41654 0.87632 0.69808 0.0
H1693 H 0.29472 0.89468 0.69237 0.0
C1694 C 0.46184 0.8839 0.7017 0.0
C1695 C 0.35546 0.88028 0.69467 0.0
C1696 C 0.3035 0.87256 0.69101 0.0
C1697 C 0.44803 0.89527 0.70196 0.0
C1698 C 0.38672 0.89921 0.69863 0.0
C1699 C 0.34171 0.89167 0.69491 0.0
C1700 C 0.36787 0.91109 0.69915 0.0
C1701 C 0.49973 0.903 0.70568 0.0
C1702 C 0.36152 0.91634 0.70735 0.0
C1703 C 0.34389 0.9275 0.70786 0.0
C1704 C 0.33193 0.9337 0.70017 0.0
C1705 C 0.33755 0.92835 0.69195 0.0
C1706 C 0.35507 0.91717 0.69145 0.0
H1707 H 0.54991 0.89917 0.70573 0.0
H1708 H 0.50198 0.91077 0.70182 0.0
H1709 H 0.48648 0.9051 0.71258 0.0
H1710 H 0.36958 0.91178 0.7134 0.0
H1711 H 0.33861 0.93121 0.71432 0.0
H1712 H 0.08683 0.0948 0.43354 0.0
H1713 H 0.1171 0.11435 0.43336 0.0
H1714 H 0.14619 0.11362 0.4615 0.0
H1715 H 0.11527 0.09415 0.46178 0.0
H1716 H 0.05661 0.13204 0.44213 0.0
H1717 H 0.31893 0.12757 0.45275 0.0
H1718 H 0.26999 0.11605 0.44889 0.0
H1719 H 0.26027 0.12105 0.45998 0.0
C1720 C 0.09951 0.09878 0.43971 0.0
C1721 C 0.09884 0.0928 0.44767 0.0
C1722 C 0.11709 0.10997 0.43958 0.0
C1723 C 0.13492 0.11545 0.4474 0.0
C1724 C 0.1342 0.10954 0.45535 0.0
H1725 H 0.24698 0.182 0.46239 0.0
H1726 H 0.21646 0.16252 0.46176 0.0
C1727 C 0.11657 0.09836 0.45549 0.0
C1728 C 0.15228 0.12742 0.44728 0.0
H1729 H 0.27519 0.14576 0.45255 0.0
C1730 C 0.10458 0.13504 0.44434 0.0
C1731 C 0.21482 0.13136 0.45019 0.0
C1732 C 0.26924 0.12359 0.45306 0.0
C1733 C 0.11699 0.14647 0.44446 0.0
C1734 C 0.1794 0.15042 0.44743 0.0
C1735 C 0.22729 0.14278 0.45029 0.0
C1736 C 0.19587 0.16243 0.44776 0.0
C1737 C 0.06233 0.15423 0.44166 0.0
C1738 C 0.19486 0.16893 0.44009 0.0
C1739 C 0.21167 0.18015 0.44044 0.0
C1740 C 0.23039 0.18514 0.44846 0.0
C1741 C 0.23162 0.17856 0.45612 0.0
C1742 C 0.21473 0.16736 0.45576 0.0
H1743 H 1.01279 0.15019 0.44188 0.0
H1744 H 0.06107 0.16168 0.44592 0.0
H1745 H 0.07142 0.15692 0.43477 0.0
H1746 H 0.18182 0.16531 0.4338 0.0
H1747 H 0.20973 0.18493 0.43442 0.0
H1748 H 0.79145 0.68128 0.43632 0.0
H1749 H 0.76083 0.66177 0.4357 0.0
H1750 H 0.62654 0.66646 0.45752 0.0
H1751 H 0.65486 0.68603 0.45797 0.0
H1752 H 0.7764 0.64588 0.4483 0.0
H1753 H 0.50913 0.6501 0.44026 0.0
H1754 H 0.56674 0.66145 0.43933 0.0
H1755 H 0.53281 0.65774 0.4499 0.0
C1756 C 0.75435 0.67823 0.44088 0.0
C1757 C 0.72549 0.68532 0.44718 0.0
C1758 C 0.73731 0.66703 0.44056 0.0
C1759 C 0.69064 0.66262 0.44648 0.0
C1760 C 0.66164 0.66966 0.45275 0.0
H1761 H 0.53742 0.5981 0.45997 0.0
H1762 H 0.56699 0.6176 0.45894 0.0
C1763 C 0.67858 0.68086 0.45308 0.0
C1764 C 0.67433 0.6506 0.44633 0.0
H1765 H 0.54523 0.63231 0.44496 0.0
C1766 C 0.72592 0.64291 0.44748 0.0
C1767 C 0.60846 0.64668 0.44527 0.0
C1768 C 0.55119 0.65441 0.44353 0.0
C1769 C 0.71326 0.6315 0.44787 0.0
C1770 C 0.64726 0.62761 0.44695 0.0
C1771 C 0.59579 0.63528 0.44569 0.0
C1772 C 0.63024 0.61565 0.44752 0.0
C1773 C 0.77041 0.62372 0.44953 0.0
C1774 C 0.65541 0.60801 0.4414 0.0
C1775 C 0.6388 0.59679 0.44199 0.0
C1776 C 0.59659 0.59295 0.44873 0.0
C1777 C 0.57104 0.60067 0.4548 0.0
C1778 C 0.58748 0.61187 0.45418 0.0
H1779 H 0.81484 0.6281 0.45211 0.0
H1780 H 0.75606 0.6172 0.4543 0.0
H1781 H 0.78447 0.61965 0.44324 0.0
H1782 H 0.68759 0.61074 0.43611 0.0
H1783 H 0.65961 0.59111 0.43722 0.0
H1784 H 0.13985 0.58978 0.31707 0.0
H1785 H 0.10547 0.60917 0.31714 0.0
H1786 H 0.29855 0.6187 0.30749 0.0
H1787 H 0.33263 0.59938 0.30714 0.0
H1788 H 0.16077 0.62739 0.32614 0.0
H1789 H 0.17219 0.63337 0.28992 0.0
H1790 H 0.17282 0.61988 0.29495 0.0
H1791 H 0.24744 0.62803 0.29463 0.0
C1792 C 0.17482 0.59599 0.31488 0.0
C1793 C 0.23901 0.59297 0.31206 0.0
C1794 C 0.15521 0.60708 0.31498 0.0
C1795 C 0.19906 0.61539 0.3122 0.0
C1796 C 0.26341 0.61243 0.30953 0.0
H1797 H 0.18385 0.68652 0.30611 0.0
H1798 H 0.21539 0.66707 0.30692 0.0
C1799 C 0.28309 0.60136 0.30943 0.0
C1800 C 0.17788 0.62716 0.31214 0.0
H1801 H 0.15776 0.64946 0.29862 0.0
C1802 C 0.1597 0.63221 0.32012 0.0
C1803 C 0.17655 0.63345 0.30428 0.0
C1804 C 0.19268 0.6284 0.29544 0.0
C1805 C 0.14191 0.64343 0.3205 0.0
C1806 C 0.141 0.64974 0.31264 0.0
C1807 C 0.15869 0.64465 0.30465 0.0
C1808 C 0.12214 0.66163 0.31252 0.0
C1809 C 0.12609 0.64849 0.32934 0.0
C1810 C 0.05906 0.66509 0.31537 0.0
C1811 C 0.04083 0.67623 0.31491 0.0
C1812 C 0.08504 0.68415 0.31151 0.0
C1813 C 0.14825 0.68065 0.30868 0.0
C1814 C 0.16649 0.66953 0.30917 0.0
H1815 H 0.14651 0.6435 0.33486 0.0
H1816 H 0.14622 0.65699 0.32984 0.0
H1817 H 0.07136 0.6489 0.33017 0.0
H1818 H 1.02329 0.65914 0.31777 0.0
H1819 H 0.99139 0.67859 0.31701 0.0
H1820 H 0.65679 0.09152 0.31721 0.0
H1821 H 0.62561 0.11104 0.31771 0.0
H1822 H 0.82159 0.12007 0.30882 0.0
H1823 H 0.8526 0.1006 0.30804 0.0
H1824 H 0.68288 0.12859 0.32735 0.0
H1825 H 0.69963 0.13597 0.2913 0.0
H1826 H 0.69735 0.1223 0.29597 0.0
H1827 H 0.77318 0.13013 0.29611 0.0
C1828 C 0.69312 0.09764 0.31528 0.0
C1829 C 0.75717 0.09445 0.31254 0.0
C1830 C 0.67532 0.10881 0.31563 0.0
C1831 C 0.72091 0.11702 0.31318 0.0
C1832 C 0.78518 0.11388 0.3106 0.0
H1833 H 0.70286 0.18861 0.30864 0.0
H1834 H 0.73719 0.16924 0.30902 0.0
C1835 C 0.80307 0.10273 0.31026 0.0
C1836 C 0.70141 0.12886 0.31338 0.0
H1837 H 0.68317 0.15166 0.30035 0.0
C1838 C 0.68269 0.13363 0.32144 0.0
C1839 C 0.70133 0.13545 0.30567 0.0
C1840 C 0.71836 0.13071 0.29675 0.0
C1841 C 0.66507 0.14484 0.32205 0.0
C1842 C 0.6648 0.15142 0.31433 0.0
C1843 C 0.68355 0.14664 0.30627 0.0
C1844 C 0.64451 0.16325 0.31443 0.0
C1845 C 0.64842 0.14957 0.33098 0.0
C1846 C 0.58081 0.16636 0.31729 0.0
C1847 C 0.56107 0.17743 0.31708 0.0
C1848 C 0.60433 0.18565 0.31392 0.0
C1849 C 0.66808 0.1825 0.31105 0.0
C1850 C 0.68787 0.17143 0.31129 0.0
H1851 H 0.66939 0.14448 0.3364 0.0
H1852 H 0.66743 0.15813 0.33166 0.0
H1853 H 0.59363 0.14975 0.33179 0.0
H1854 H 0.54573 0.16019 0.31952 0.0
H1855 H 0.51117 0.1795 0.31918 0.0
H1856 H 1.03456 0.51532 0.09595 0.0
H1857 H 0.05311 0.51718 0.11193 0.0
H1858 H 0.23517 0.49863 0.10955 0.0
H1859 H 0.2158 0.49649 0.09377 0.0
H1860 H 0.16356 0.49079 0.12252 0.0
H1861 H 0.1767 0.53619 0.12632 0.0
H1862 H 0.10133 0.53153 0.1212 0.0
H1863 H 0.17955 0.52951 0.11569 0.0
C1864 C 0.07872 0.51173 0.09885 0.0
C1865 C 0.12346 0.5057 0.09361 0.0
C1866 C 0.08964 0.51287 0.10798 0.0
C1867 C 0.14606 0.50815 0.11199 0.0
C1868 C 0.19127 0.50235 0.10667 0.0
H1869 H 0.29273 0.51635 0.16638 0.0
H1870 H 0.27635 0.51779 0.1503 0.0
C1871 C 0.18008 0.50112 0.09763 0.0
C1872 C 0.15651 0.50849 0.12176 0.0
H1873 H 0.17219 0.52566 0.13959 0.0
C1874 C 0.16564 0.49845 0.12622 0.0
C1875 C 0.16024 0.51845 0.12664 0.0
C1876 C 0.15461 0.52954 0.12222 0.0
C1877 C 0.17762 0.49806 0.13534 0.0
C1878 C 0.17878 0.50797 0.14029 0.0
C1879 C 0.17072 0.51805 0.13584 0.0
C1880 C 0.1868 0.50789 0.15008 0.0
C1881 C 0.19011 0.48698 0.13957 0.0
C1882 C 0.14115 0.50213 0.15534 0.0
C1883 C 0.15079 0.50122 0.16444 0.0
C1884 C 0.20586 0.50617 0.16855 0.0
C1885 C 0.25014 0.51237 0.16338 0.0
C1886 C 0.24068 0.51322 0.15421 0.0
H1887 H 0.20728 0.48079 0.13467 0.0
H1888 H 0.22788 0.4876 0.14489 0.0
H1889 H 0.14314 0.48389 0.1425 0.0
H1890 H 0.0983 0.49819 0.15238 0.0
H1891 H 0.11514 0.49652 0.16825 0.0
H1892 H 0.22582 0.78923 0.09827 0.0
H1893 H 0.19672 0.78623 0.11372 0.0
H1894 H 0.2025 0.75107 0.10962 0.0
H1895 H 0.23172 0.75404 0.09402 0.0
H1896 H 0.08019 0.77405 0.11968 0.0
H1897 H 0.31744 0.75656 0.13244 0.0
H1898 H 0.3141 0.76458 0.12241 0.0
H1899 H 0.28279 0.75075 0.12252 0.0
C1900 C 0.22156 0.78084 0.10066 0.0
C1901 C 0.23118 0.77187 0.09492 0.0
C1902 C 0.20478 0.77914 0.1095 0.0
C1903 C 0.19772 0.76843 0.11287 0.0
C1904 C 0.20841 0.75941 0.10721 0.0
H1905 H 0.10403 0.75413 0.16906 0.0
H1906 H 0.12715 0.75117 0.15325 0.0
C1907 C 0.22498 0.76111 0.09829 0.0
C1908 C 0.17625 0.76693 0.12222 0.0
H1909 H 0.23201 0.75967 0.14274 0.0
C1910 C 0.11317 0.77079 0.1247 0.0
C1911 C 0.21888 0.76258 0.12878 0.0
C1912 C 0.2873 0.75841 0.12648 0.0
C1913 C 0.09237 0.77073 0.13356 0.0
C1914 C 0.13635 0.76695 0.1402 0.0
C1915 C 0.19832 0.7626 0.13768 0.0
C1916 C 0.1212 0.76845 0.14977 0.0
C1917 C 1.0235 0.77483 0.13572 0.0
C1918 C 0.1108 0.77911 0.15311 0.0
C1919 C 0.09769 0.78079 0.16207 0.0
C1920 C 0.09493 0.77187 0.16796 0.0
C1921 C 0.10539 0.76116 0.16467 0.0
C1922 C 0.11882 0.75947 0.15565 0.0
H1923 H 0.98942 0.77391 0.13 0.0
H1924 H 1.00213 0.77034 0.14143 0.0
H1925 H 1.02602 0.78373 0.1374 0.0
H1926 H 0.11376 0.78621 0.1488 0.0
H1927 H 0.09042 0.78915 0.16439 0.0
H1928 H 0.80421 0.50639 0.84412 0.0
H1929 H 0.82409 0.50379 0.86 0.0
H1930 H 0.94861 0.53275 0.86028 0.0
H1931 H 0.93074 0.53513 0.84452 0.0
H1932 H 1.0053 0.51671 0.86945 0.0
H1933 H 0.74223 0.52063 0.88009 0.0
H1934 H 0.75774 0.50968 0.87238 0.0
H1935 H 0.76865 0.52378 0.86902 0.0
C1936 C 0.83554 0.5122 0.84761 0.0
C1937 C 0.86545 0.52101 0.84308 0.0
C1938 C 0.84668 0.51075 0.8567 0.0
C1939 C 0.88716 0.51817 0.86143 0.0
C1940 C 0.91721 0.5269 0.85684 0.0
H1941 H 0.8987 0.53651 0.91578 0.0
H1942 H 0.87993 0.53362 0.90006 0.0
C1943 C 0.90668 0.52828 0.8478 0.0
C1944 C 0.89909 0.51703 0.87113 0.0
H1945 H 0.82161 0.51748 0.8912 0.0
C1946 C 0.96505 0.5168 0.87421 0.0
C1947 C 0.84674 0.51721 0.87737 0.0
C1948 C 0.77486 0.51793 0.87458 0.0
C1949 C 0.98018 0.51713 0.88327 0.0
C1950 C 0.92784 0.51739 0.88952 0.0
C1951 C 0.86184 0.51724 0.88644 0.0
C1952 C 0.94001 0.51885 0.89918 0.0
C1953 C 0.05216 0.51776 0.88603 0.0
C1954 C 0.97995 0.5115 0.90405 0.0
C1955 C 0.99165 0.51325 0.91309 0.0
C1956 C 0.96278 0.52229 0.91745 0.0
C1957 C 0.92196 0.52949 0.91261 0.0
C1958 C 0.91092 0.52781 0.90361 0.0
H1959 H 0.08495 0.52018 0.88047 0.0
H1960 H 0.05903 0.52378 0.89148 0.0
H1961 H 0.06856 0.50954 0.88839 0.0
H1962 H 1.00173 0.50436 0.90088 0.0
H1963 H 1.02259 0.50748 0.91667 0.0
H1964 H 0.88379 0.24818 0.84504 0.0
H1965 H 0.86449 0.25137 0.86072 0.0
H1966 H 1.03813 0.27215 0.8619 0.0
H1967 H 0.05774 0.26899 0.84605 0.0
H1968 H 1.03156 0.25571 0.87534 0.0
H1969 H 0.79623 0.27921 0.87343 0.0
H1970 H 0.79486 0.2668 0.86696 0.0
H1971 H 0.85165 0.27769 0.86414 0.0
C1972 C 0.91774 0.2535 0.84861 0.0
C1973 C 0.97241 0.25831 0.84431 0.0
C1974 C 0.90629 0.25538 0.85757 0.0
C1975 C 0.9492 0.26213 0.86248 0.0
C1976 C 1.00401 0.26698 0.85822 0.0
H1977 H 0.85781 0.27402 0.91903 0.0
H1978 H 0.88728 0.2777 0.90352 0.0
C1979 C 1.01521 0.26517 0.84918 0.0
C1980 C 0.93835 0.26344 0.87214 0.0
H1981 H 0.81996 0.27045 0.88733 0.0
C1982 C 0.98584 0.25912 0.87797 0.0
C1983 C 0.87902 0.268 0.87561 0.0
C1984 C 0.82777 0.27329 0.86972 0.0
C1985 C 0.97379 0.25862 0.8871 0.0
C1986 C 0.91243 0.26245 0.89049 0.0
C1987 C 0.86669 0.2674 0.88473 0.0
C1988 C 0.89284 0.26048 0.89982 0.0
C1989 C 1.02624 0.25373 0.89303 0.0
C1990 C 0.88456 0.24963 0.90282 0.0
C1991 C 0.86737 0.24754 0.91158 0.0
C1992 C 0.85795 0.25624 0.91758 0.0
C1993 C 0.86474 0.26715 0.91456 0.0
C1994 C 0.88169 0.26925 0.90572 0.0
H1995 H 0.07627 0.25408 0.88995 0.0
H1996 H 1.028 0.25809 0.89947 0.0
H1997 H 1.01419 0.24494 0.8943 0.0
H1998 H 0.89166 0.24274 0.89837 0.0
H1999 H 0.86231 0.23905 0.91369 0.0
H2000 H 0.10274 0.02297 0.59397 0.0
H2001 H 0.13073 0.02575 0.60966 0.0
H2002 H 0.13298 0.99055 0.61352 0.0
H2003 H 0.1051 0.98775 0.598 0.0
H2004 H 0.06353 0.01732 0.62596 0.0
H2005 H 0.32006 1.0015 0.6218 0.0
H2006 H 0.27018 1.0062 0.61264 0.0
H2007 H 0.25697 0.99271 0.61722 0.0
C2008 C 0.10874 0.01585 0.5982 0.0
C2009 C 0.10204 1.00513 0.59474 0.0
C2010 C 0.12472 0.01744 0.60716 0.0
C2011 C 0.13491 1.00835 0.61276 0.0
C2012 C 0.12636 0.99769 0.60932 0.0
H2013 H 0.23374 0.98791 0.66458 0.0
H2014 H 0.2098 0.99089 0.64901 0.0
C2015 C 0.11016 0.9961 0.60044 0.0
C2016 C 0.15588 1.00978 0.62214 0.0
H2017 H 0.27951 1.0027 0.63654 0.0
C2018 C 0.11116 0.0143 0.62827 0.0
C2019 C 0.21814 1.00588 0.62517 0.0
C2020 C 0.26947 1.00139 0.61887 0.0
C2021 C 0.12556 0.01443 0.63739 0.0
C2022 C 0.18678 1.01007 0.64045 0.0
C2023 C 0.23251 1.00601 0.63425 0.0
C2024 C 0.20201 1.00863 0.65004 0.0
C2025 C 0.07373 0.01868 0.64372 0.0
C2026 C 0.20666 0.01763 0.6559 0.0
C2027 C 0.22062 0.01593 0.66491 0.0
C2028 C 0.23026 1.0052 0.66819 0.0
C2029 C 0.22657 0.99628 0.66228 0.0
C2030 C 0.21285 0.99797 0.65335 0.0
H2031 H 1.0247 0.01984 0.64047 0.0
H2032 H 0.06757 1.01293 0.64935 0.0
H2033 H 0.09 0.02677 0.64639 0.0
H2034 H 0.19975 0.02596 0.65351 0.0
H2035 H 0.22325 0.02296 0.6693 0.0
H2036 H 0.11901 0.28128 0.5942 0.0
H2037 H 0.10108 0.27933 0.61002 0.0
H2038 H 0.27773 0.25937 0.61206 0.0
H2039 H 0.29525 0.2611 0.59604 0.0
H2040 H 0.17126 0.25152 0.62254 0.0
H2041 H 0.21209 0.29618 0.62797 0.0
H2042 H 0.14823 0.2934 0.62002 0.0
H2043 H 0.23268 0.28944 0.61772 0.0
C2044 C 0.15409 0.27644 0.59799 0.0
C2045 C 0.20915 0.27148 0.59389 0.0
C2046 C 0.14381 0.27536 0.60706 0.0
C2047 C 0.18879 0.26941 0.61229 0.0
C2048 C 0.2426 0.26407 0.60817 0.0
H2049 H 0.21586 0.27993 0.66865 0.0
H2050 H 0.23657 0.27778 0.65291 0.0
C2051 C 0.25271 0.26509 0.59904 0.0
C2052 C 0.18035 0.26919 0.62206 0.0
H2053 H 0.16669 0.28612 0.63997 0.0
C2054 C 0.17068 0.25906 0.62637 0.0
C2055 C 0.18038 0.27902 0.62709 0.0
C2056 C 0.19456 0.29012 0.62299 0.0
C2057 C 0.15973 0.25855 0.63555 0.0
C2058 C 0.15719 0.26845 0.64052 0.0
C2059 C 0.16792 0.27853 0.63619 0.0
C2060 C 0.14618 0.26868 0.65027 0.0
C2061 C 0.15229 0.24741 0.63985 0.0
C2062 C 0.08867 0.26416 0.65414 0.0
C2063 C 0.077 0.26529 0.66324 0.0
C2064 C 0.12208 0.27113 0.66858 0.0
C2065 C 0.17987 0.27546 0.66471 0.0
C2066 C 0.19184 0.27423 0.65569 0.0
H2067 H 0.17372 0.24075 0.6357 0.0
H2068 H 0.1768 0.24724 0.64641 0.0
H2069 H 0.09869 0.24561 0.64079 0.0
H2070 H 0.05186 0.26005 0.6501 0.0
H2071 H 1.03197 0.26189 0.66605 0.0
H2072 H 0.87335 0.02979 0.41726 0.0
H2073 H 0.85625 0.02723 0.40147 0.0
H2074 H 1.03135 1.00682 0.40016 0.0
H2075 H 0.04888 1.00939 0.41613 0.0
H2076 H 1.026 0.02322 0.38693 0.0
H2077 H 0.78923 1.00009 0.38802 0.0
H2078 H 0.78698 1.01245 0.39454 0.0
H2079 H 0.84292 1.00149 0.39751 0.0
C2080 C 0.90812 0.02469 0.41365 0.0
C2081 C 0.96256 0.0198 0.41797 0.0
C2082 C 0.89793 0.02316 0.4046 0.0
C2083 C 0.9418 0.01669 0.3996 0.0
C2084 C 0.99645 1.01178 0.40388 0.0
H2085 H 0.85298 1.00484 0.34289 0.0
H2086 H 0.88034 1.00141 0.35852 0.0
C2087 C 1.00645 1.01324 0.413 0.0
C2088 C 0.93183 0.01565 0.38986 0.0
H2089 H 0.81537 1.00897 0.37426 0.0
C2090 C 0.98038 0.01994 0.38416 0.0
C2091 C 0.8727 1.01126 0.38618 0.0
C2092 C 0.82024 1.00596 0.39187 0.0
C2093 C 0.96984 0.02051 0.37499 0.0
C2094 C 0.90881 0.0168 0.37137 0.0
C2095 C 0.86184 1.01193 0.37701 0.0
C2096 C 0.89121 0.01866 0.36191 0.0
C2097 C 1.02392 0.02524 0.36924 0.0
C2098 C 0.88663 0.02946 0.35864 0.0
C2099 C 0.87075 0.03141 0.3498 0.0
C2100 C 0.85885 0.02262 0.34396 0.0
C2101 C 0.86208 1.01178 0.34723 0.0
C2102 C 0.87775 1.00982 0.35615 0.0
H2103 H 0.07339 0.02462 0.37246 0.0
H2104 H 1.026 0.02097 0.36277 0.0
H2105 H 1.01354 0.0341 0.36804 0.0
H2106 H 0.8953 0.03643 0.36296 0.0
H2107 H 0.86838 0.03986 0.34752 0.0
H2108 H 0.97905 0.77285 0.34207 0.0
H2109 H 0.95193 0.77625 0.35769 0.0
H2110 H 0.93915 0.7412 0.36212 0.0
H2111 H 0.96559 0.7378 0.34665 0.0
H2112 H 0.83056 0.75316 0.36909 0.0
H2113 H 0.07301 0.77109 0.37942 0.0
H2114 H 1.03275 0.77731 0.37007 0.0
H2115 H 0.06344 0.76345 0.36928 0.0
C2116 C 0.97078 0.76589 0.34641 0.0
C2117 C 0.97457 0.75506 0.34313 0.0
C2118 C 0.95548 0.76783 0.35534 0.0
C2119 C 0.94379 0.75897 0.36112 0.0
C2120 C 0.94782 0.74818 0.35782 0.0
H2121 H 0.9516 0.74702 0.41628 0.0
H2122 H 0.96914 0.74949 0.40048 0.0
C2123 C 0.96321 0.74625 0.34896 0.0
C2124 C 0.92662 0.76072 0.3706 0.0
H2125 H 0.99178 0.76883 0.39042 0.0
C2126 C 0.86543 0.75672 0.37374 0.0
C2127 C 0.97226 0.76531 0.37669 0.0
C2128 C 1.0393 0.76949 0.37376 0.0
C2129 C 0.84947 0.7569 0.38278 0.0
C2130 C 0.89568 0.76128 0.3889 0.0
C2131 C 0.95613 0.76555 0.38574 0.0
C2132 C 0.88532 0.7604 0.39863 0.0
C2133 C 0.7846 0.75192 0.38577 0.0
C2134 C 0.83269 0.76584 0.40294 0.0
C2135 C 0.82249 0.76444 0.41205 0.0
C2136 C 0.86463 0.75754 0.41699 0.0
C2137 C 0.91788 0.75232 0.41267 0.0
C2138 C 0.9282 0.75376 0.40363 0.0
H2139 H 0.75944 0.74727 0.38041 0.0
H2140 H 0.79285 0.74627 0.39143 0.0
H2141 H 0.75076 0.75859 0.388 0.0
H2142 H 0.79942 0.77113 0.39926 0.0
H2143 H 0.78133 0.76863 0.41521 0.0
H2144 H 0.61306 0.48663 0.59732 0.0
H2145 H 0.64191 0.48945 0.61281 0.0
H2146 H 0.64322 0.52464 0.60878 0.0
H2147 H 0.61425 0.52183 0.59314 0.0
H2148 H 0.75997 0.50092 0.61898 0.0
H2149 H 0.52548 0.51982 0.63134 0.0
H2150 H 0.52824 0.51185 0.62127 0.0
H2151 H 0.56229 0.5255 0.62152 0.0
C2152 C 0.61885 0.49499 0.59973 0.0
C2153 C 0.6112 0.50401 0.59401 0.0
C2154 C 0.63549 0.49659 0.60859 0.0
C2155 C 0.64439 0.50725 0.61199 0.0
C2156 C 0.63581 0.51633 0.60634 0.0
H2157 H 0.73555 0.52197 0.66806 0.0
H2158 H 0.71452 0.52459 0.65218 0.0
C2159 C 0.61938 0.51473 0.59741 0.0
C2160 C 0.66536 0.50864 0.62136 0.0
H2161 H 0.60975 0.51643 0.64176 0.0
C2162 C 0.72734 0.50441 0.62395 0.0
C2163 C 0.62317 0.51329 0.62784 0.0
C2164 C 0.55585 0.51784 0.62543 0.0
C2165 C 0.74752 0.50444 0.63283 0.0
C2166 C 0.70393 0.50856 0.63938 0.0
C2167 C 0.64309 0.51323 0.63676 0.0
C2168 C 0.71835 0.5072 0.64898 0.0
C2169 C 0.81535 0.49997 0.6351 0.0
C2170 C 0.72695 0.49659 0.6525 0.0
C2171 C 0.73896 0.4951 0.6615 0.0
C2172 C 0.74232 0.50417 0.66725 0.0
C2173 C 0.73373 0.51483 0.66377 0.0
C2174 C 0.72148 0.51632 0.65471 0.0
H2175 H 0.84994 0.5006 0.62942 0.0
H2176 H 0.83735 0.50442 0.6408 0.0
H2177 H 0.81084 0.49112 0.63686 0.0
H2178 H 0.72331 0.4894 0.64828 0.0
H2179 H 0.74478 0.48678 0.66398 0.0
H2180 H 0.78858 0.75977 0.59485 0.0
H2181 H 0.76893 0.75762 0.61078 0.0
H2182 H 0.59051 0.77715 0.60856 0.0
H2183 H 0.61118 0.7796 0.59285 0.0
H2184 H 0.66345 0.78461 0.62146 0.0
H2185 H 0.64327 0.7393 0.62534 0.0
H2186 H 0.71931 0.74361 0.62021 0.0
H2187 H 0.64142 0.74593 0.61469 0.0
C2188 C 0.74481 0.76347 0.59777 0.0
C2189 C 0.70171 0.76993 0.59261 0.0
C2190 C 0.73328 0.76218 0.60688 0.0
C2191 C 0.67779 0.76716 0.61093 0.0
C2192 C 0.63374 0.77325 0.60566 0.0
H2193 H 0.53003 0.76 0.66535 0.0
H2194 H 0.5467 0.75826 0.6493 0.0
C2195 C 0.64564 0.77465 0.59665 0.0
C2196 C 0.66762 0.76688 0.62072 0.0
H2197 H 0.64965 0.74988 0.6386 0.0
C2198 C 0.66022 0.77698 0.62517 0.0
C2199 C 0.6625 0.75697 0.62562 0.0
C2200 C 0.66637 0.74583 0.62122 0.0
C2201 C 0.64844 0.77747 0.63429 0.0
C2202 C 0.6458 0.7676 0.63926 0.0
C2203 C 0.65225 0.75746 0.63483 0.0
C2204 C 0.63774 0.76778 0.64906 0.0
C2205 C 0.6377 0.78863 0.63849 0.0
C2206 C 0.68409 0.77341 0.65432 0.0
C2207 C 0.67427 0.77451 0.6634 0.0
C2208 C 0.61832 0.76985 0.66752 0.0
C2209 C 0.57334 0.76375 0.66236 0.0
C2210 C 0.58296 0.76273 0.65319 0.0
H2211 H 0.62145 0.79486 0.63357 0.0
H2212 H 0.59987 0.7882 0.64381 0.0
H2213 H 0.68514 0.79153 0.64141 0.0
H2214 H 0.72759 0.77715 0.65136 0.0
H2215 H 0.71046 0.77911 0.6672 0.0
H2216 H 0.36361 0.50488 0.34318 0.0
H2217 H 0.38832 0.50187 0.35893 0.0
H2218 H 0.35603 0.5364 0.36407 0.0
H2219 H 0.33219 0.53948 0.34843 0.0
H2220 H 0.49562 0.51815 0.36983 0.0
H2221 H 0.23501 0.5144 0.38172 0.0
H2222 H 0.25967 0.51007 0.37079 0.0
H2223 H 0.25294 0.52447 0.37331 0.0
C2224 C 0.36133 0.5118 0.3477 0.0
C2225 C 0.34586 0.52242 0.34458 0.0
C2226 C 0.37569 0.51007 0.35667 0.0
C2227 C 0.37405 0.51892 0.36266 0.0
C2228 C 0.35756 0.52947 0.35956 0.0
H2229 H 0.39663 0.53548 0.41698 0.0
H2230 H 0.37614 0.53298 0.40128 0.0
C2231 C 0.34383 0.53121 0.35062 0.0
C2232 C 0.39038 0.51735 0.37214 0.0
H2233 H 0.31869 0.51635 0.39253 0.0
C2234 C 0.45717 0.51758 0.37481 0.0
C2235 C 0.34007 0.51668 0.37861 0.0
C2236 C 0.26772 0.51633 0.37603 0.0
C2237 C 0.47487 0.51764 0.38381 0.0
C2238 C 0.42433 0.51726 0.39032 0.0
C2239 C 0.35758 0.51663 0.38759 0.0
C2240 C 0.43867 0.51856 0.39995 0.0
C2241 C 0.54728 0.51871 0.38626 0.0
C2242 C 0.48074 0.51127 0.40456 0.0
C2243 C 0.49323 0.51276 0.41362 0.0
C2244 C 0.46327 0.52151 0.41824 0.0
C2245 C 0.42075 0.52868 0.41363 0.0
C2246 C 0.40875 0.52723 0.40463 0.0
H2247 H 0.57809 0.52138 0.38057 0.0
H2248 H 0.55401 0.52472 0.39171 0.0
H2249 H 0.5661 0.51059 0.38851 0.0
H2250 H 0.50335 0.50435 0.40118 0.0
H2251 H 0.52561 0.50703 0.41701 0.0
H2252 H 0.28146 0.26717 0.41615 0.0
H2253 H 0.29861 0.26883 0.40011 0.0
H2254 H 0.47799 0.24956 0.40224 0.0
H2255 H 0.46046 0.24769 0.41808 0.0
H2256 H 0.4043 0.2769 0.3895 0.0
H2257 H 0.36811 0.23204 0.38454 0.0
H2258 H 0.34689 0.23888 0.39472 0.0
H2259 H 0.43173 0.23513 0.39246 0.0
C2260 C 0.32456 0.26333 0.41317 0.0
C2261 C 0.36898 0.25714 0.41834 0.0
C2262 C 0.33444 0.2643 0.40403 0.0
C2263 C 0.3889 0.25912 0.39994 0.0
C2264 C 0.43478 0.25341 0.40519 0.0
H2265 H 0.54474 0.26621 0.34613 0.0
H2266 H 0.52461 0.26822 0.36206 0.0
C2267 C 0.42472 0.25236 0.41426 0.0
C2268 C 0.39704 0.25921 0.39017 0.0
H2269 H 0.41229 0.24203 0.37243 0.0
C2270 C 0.40561 0.26929 0.38574 0.0
C2271 C 0.39796 0.2493 0.38523 0.0
C2272 C 0.38502 0.23823 0.38946 0.0
C2273 C 0.41644 0.26969 0.37656 0.0
C2274 C 0.41997 0.25972 0.37169 0.0
C2275 C 0.41029 0.24968 0.37613 0.0
C2276 C 0.43108 0.25936 0.36196 0.0
C2277 C 0.42273 0.28077 0.37214 0.0
C2278 C 0.38598 0.25361 0.35659 0.0
C2279 C 0.3981 0.25228 0.34758 0.0
C2280 C 0.45549 0.25671 0.34368 0.0
C2281 C 0.50003 0.26273 0.34897 0.0
C2282 C 0.48821 0.26396 0.35805 0.0
H2283 H 0.40062 0.28745 0.37622 0.0
H2284 H 0.47614 0.28271 0.37119 0.0
H2285 H 0.39821 0.28077 0.36558 0.0
H2286 H 0.34157 0.24999 0.3594 0.0
H2287 H 0.36254 0.24768 0.34368 0.0
H2288 H 0.64907 0.99317 0.16633 0.0
H2289 H 0.63112 0.99628 0.15066 0.0
H2290 H 0.75128 0.02569 0.15193 0.0
H2291 H 0.7711 0.02239 0.16775 0.0
H2292 H 0.57311 1.01248 0.14168 0.0
H2293 H 0.83806 1.0099 0.13159 0.0
H2294 H 0.81059 1.00618 0.14251 0.0
H2295 H 0.81963 0.02045 0.13954 0.0
C2296 C 0.67201 1.0003 0.1633 0.0
C2297 C 0.71216 1.00747 0.1683 0.0
C2298 C 0.66142 1.0021 0.1543 0.0
C2299 C 0.69045 1.01114 0.14999 0.0
C2300 C 0.72946 0.0185 0.155 0.0
H2301 H 0.56014 0.02184 0.0943 0.0
H2302 H 0.57989 0.02531 0.1101 0.0
C2303 C 0.74051 0.01665 0.16406 0.0
C2304 C 0.67952 1.01258 0.14027 0.0
H2305 H 0.75956 1.01277 0.12035 0.0
C2306 C 0.61396 1.01265 0.13702 0.0
C2307 C 0.73263 1.01273 0.13413 0.0
C2308 C 0.80421 1.01222 0.13708 0.0
C2309 C 0.60005 1.01247 0.12791 0.0
C2310 C 0.65316 1.01248 0.12177 0.0
C2311 C 0.7187 1.01281 0.12501 0.0
C2312 C 0.64239 1.01096 0.11205 0.0
C2313 C 0.52857 1.01167 0.12496 0.0
C2314 C 0.67237 1.00199 0.10776 0.0
C2315 C 0.66177 1.00009 0.09877 0.0
C2316 C 0.62068 1.0071 0.09377 0.0
C2317 C 0.59146 0.01623 0.09798 0.0
C2318 C 0.60248 0.01817 0.10703 0.0
H2319 H 0.49503 1.00926 0.13045 0.0
H2320 H 0.51204 0.01982 0.12247 0.0
H2321 H 0.52302 1.00557 0.11955 0.0
H2322 H 0.70339 0.99629 0.11141 0.0
H2323 H 0.6854 0.99301 0.09575 0.0
H2324 H 0.61919 0.28071 0.09397 0.0
H2325 H 0.60102 0.27889 0.1098 0.0
H2326 H 0.77577 0.25848 0.11191 0.0
H2327 H 0.79344 0.26008 0.09588 0.0
H2328 H 0.66911 0.25091 0.12235 0.0
H2329 H 0.71289 0.2955 0.12774 0.0
H2330 H 0.64873 0.29285 0.11981 0.0
H2331 H 0.73286 0.28873 0.11749 0.0
C2332 C 0.6538 0.27581 0.09778 0.0
C2333 C 0.70836 0.27068 0.09371 0.0
C2334 C 0.64339 0.2748 0.10685 0.0
C2335 C 0.68779 0.26875 0.1121 0.0
C2336 C 0.74111 0.26326 0.10801 0.0
H2337 H 0.71617 0.27934 0.16839 0.0
H2338 H 0.73654 0.2771 0.15265 0.0
C2339 C 0.75131 0.2642 0.09887 0.0
C2340 C 0.67927 0.26857 0.12186 0.0
H2341 H 0.66684 0.28555 0.13975 0.0
C2342 C 0.66902 0.25847 0.12618 0.0
C2343 C 0.67997 0.27841 0.12688 0.0
C2344 C 0.69487 0.28948 0.12277 0.0
C2345 C 0.65818 0.25799 0.13536 0.0
C2346 C 0.65632 0.26789 0.14032 0.0
C2347 C 0.66756 0.27795 0.13598 0.0
C2348 C 0.64552 0.26815 0.15006 0.0
C2349 C 0.65016 0.24686 0.13967 0.0
C2350 C 0.58781 0.26374 0.15395 0.0
C2351 C 0.57636 0.26491 0.16305 0.0
C2352 C 0.62187 0.27069 0.16836 0.0
C2353 C 0.67987 0.27492 0.16447 0.0
C2354 C 0.69163 0.27364 0.15545 0.0
H2355 H 0.67113 0.24016 0.13552 0.0
H2356 H 0.67476 0.24666 0.14622 0.0
H2357 H 0.59647 0.24515 0.14062 0.0
H2358 H 0.55068 0.25968 0.14993 0.0
H2359 H 0.53117 0.26159 0.16588 0.0
H2360 H 0.34761 1.00353 0.84291 0.0
H2361 H 0.3734 0.99998 0.85856 0.0
H2362 H 0.38654 0.03497 0.86326 0.0
H2363 H 0.36111 0.03852 0.84778 0.0
H2364 H 0.49511 0.02261 0.87027 0.0
H2365 H 0.25007 1.00535 0.88023 0.0
H2366 H 0.2902 0.99926 0.87081 0.0
H2367 H 0.26071 1.0132 0.87022 0.0
C2368 C 0.35563 1.01044 0.84731 0.0
C2369 C 0.35212 0.02131 0.84411 0.0
C2370 C 0.37023 1.00841 0.85626 0.0
C2371 C 0.38166 0.01722 0.86213 0.0
C2372 C 0.37805 0.02803 0.85889 0.0
H2373 H 0.37348 0.03014 0.9171 0.0
H2374 H 0.35578 0.02726 0.90134 0.0
C2375 C 0.36325 0.03005 0.85002 0.0
C2376 C 0.39804 0.01539 0.87164 0.0
H2377 H 0.33019 1.00762 0.89138 0.0
C2378 C 0.45946 0.01917 0.87487 0.0
C2379 C 0.35138 1.01098 0.87767 0.0
C2380 C 0.28413 1.00701 0.87463 0.0
C2381 C 0.47468 0.01896 0.88395 0.0
C2382 C 0.42741 0.0148 0.89 0.0
C2383 C 0.36668 1.01073 0.88675 0.0
C2384 C 0.43701 0.01576 0.89976 0.0
C2385 C 0.53996 0.02371 0.88704 0.0
C2386 C 0.48801 1.0101 0.90423 0.0
C2387 C 0.49817 1.0117 0.91334 0.0
C2388 C 0.45774 0.01907 0.9181 0.0
C2389 C 0.40586 0.02447 0.91363 0.0
C2390 C 0.39547 0.02281 0.9046 0.0
H2391 H 0.56673 0.0281 0.88168 0.0
H2392 H 0.53181 0.02955 0.89258 0.0
H2393 H 0.57225 0.01695 0.88947 0.0
H2394 H 0.52027 1.00451 0.90067 0.0
H2395 H 0.53833 1.00738 0.9166 0.0
H2396 H 0.36176 0.74711 0.84413 0.0
H2397 H 0.34294 0.74926 0.85991 0.0
H2398 H 0.52667 0.76735 0.86227 0.0
H2399 H 0.54472 0.76548 0.84628 0.0
H2400 H 0.41429 0.7412 0.87287 0.0
H2401 H 0.40513 0.78662 0.87675 0.0
H2402 H 0.40135 0.77998 0.86611 0.0
H2403 H 0.47991 0.78179 0.87159 0.0
C2404 C 0.39797 0.75165 0.84798 0.0
C2405 C 0.45491 0.75609 0.84395 0.0
C2406 C 0.38709 0.75288 0.85703 0.0
C2407 C 0.43294 0.75855 0.86235 0.0
C2408 C 0.48967 0.76314 0.85832 0.0
H2409 H 0.46501 0.74684 0.91862 0.0
H2410 H 0.48138 0.74848 0.90274 0.0
C2411 C 0.50029 0.762 0.84919 0.0
C2412 C 0.42277 0.75888 0.87213 0.0
H2413 H 0.40899 0.77604 0.89 0.0
C2414 C 0.41295 0.74885 0.87658 0.0
C2415 C 0.42003 0.76884 0.87703 0.0
C2416 C 0.4265 0.77993 0.87263 0.0
C2417 C 0.40125 0.74846 0.88571 0.0
C2418 C 0.401 0.75836 0.89067 0.0
C2419 C 0.40976 0.76844 0.88623 0.0
C2420 C 0.3932 0.75828 0.90047 0.0
C2421 C 0.38811 0.7374 0.88993 0.0
C2422 C 0.33959 0.76365 0.90462 0.0
C2423 C 0.33035 0.7628 0.9138 0.0
C2424 C 0.37461 0.75657 0.91897 0.0
C2425 C 0.4294 0.75157 0.91482 0.0
C2426 C 0.43877 0.75247 0.90572 0.0
H2427 H 0.3706 0.73125 0.88502 0.0
H2428 H 0.43488 0.73424 0.89287 0.0
H2429 H 0.35036 0.73808 0.89524 0.0
H2430 H 0.30397 0.76825 0.90073 0.0
H2431 H 0.28796 0.76681 0.91681 0.0
H2432 H 0.21762 0.68357 0.05956 0.0
H2433 H 0.20527 0.66348 0.05841 0.0
H2434 H 0.182 0.66134 0.0866 0.0
H2435 H 0.19454 0.6813 0.08782 0.0
H2436 H 0.27906 0.64636 0.06598 0.0
H2437 H 1.01834 0.64499 0.07764 0.0
H2438 H 0.05819 0.65763 0.07427 0.0
H2439 H 0.0729 0.65207 0.0851 0.0
C2440 C 0.21026 0.67882 0.06552 0.0
C2441 C 0.20631 0.6841 0.07378 0.0
C2442 C 0.20291 0.66733 0.06484 0.0
C2443 C 0.19126 0.66091 0.0724 0.0
C2444 C 0.18906 0.66613 0.08065 0.0
H2445 H 0.1403 0.59268 0.08665 0.0
H2446 H 0.15476 0.61264 0.0859 0.0
C2447 C 0.19627 0.67757 0.08134 0.0
C2448 C 0.18237 0.64874 0.07173 0.0
H2449 H 0.07588 0.62782 0.07706 0.0
C2450 C 0.23439 0.6423 0.06831 0.0
C2451 C 0.12399 0.64344 0.07476 0.0
C2452 C 0.06489 0.64989 0.07807 0.0
C2453 C 0.23064 0.63071 0.06816 0.0
C2454 C 0.17286 0.6254 0.07139 0.0
C2455 C 0.12033 0.63186 0.07463 0.0
C2456 C 0.16645 0.61317 0.07173 0.0
C2457 C 0.28951 0.62422 0.06484 0.0
C2458 C 0.16794 0.60677 0.06401 0.0
C2459 C 0.1602 0.59528 0.06442 0.0
C2460 C 0.15056 0.58995 0.07257 0.0
C2461 C 0.14893 0.59643 0.08028 0.0
C2462 C 0.15662 0.60788 0.07986 0.0
H2463 H 0.33529 0.62933 0.06457 0.0
H2464 H 0.2991 0.61695 0.06909 0.0
H2465 H 0.27887 0.62121 0.05807 0.0
H2466 H 0.17425 0.61066 0.05764 0.0
H2467 H 0.16202 0.59059 0.05835 0.0
H2468 H 0.04742 0.68301 0.1974 0.0
H2469 H 0.06075 0.66303 0.19893 0.0
H2470 H 0.21251 0.66336 0.17887 0.0
H2471 H 0.20134 0.68333 0.17754 0.0
H2472 H 0.04141 0.64687 0.18658 0.0
H2473 H 0.30239 0.64571 0.19809 0.0
H2474 H 0.25408 0.65825 0.19796 0.0
H2475 H 0.29279 0.65329 0.18802 0.0
C2476 C 0.08453 0.67887 0.19343 0.0
C2477 C 0.12341 0.68484 0.18736 0.0
C2478 C 0.09173 0.66742 0.19426 0.0
C2479 C 0.13832 0.66167 0.18911 0.0
C2480 C 0.17718 0.6676 0.18306 0.0
H2481 H 0.24382 0.59447 0.1773 0.0
H2482 H 0.22914 0.61445 0.1782 0.0
C2483 C 0.17008 0.67904 0.18222 0.0
C2484 C 0.14452 0.64944 0.18978 0.0
H2485 H 0.25676 0.62864 0.19298 0.0
C2486 C 0.08832 0.64289 0.18809 0.0
C2487 C 0.20569 0.64421 0.19176 0.0
C2488 C 0.267 0.65073 0.19415 0.0
C2489 C 0.0922 0.63129 0.188 0.0
C2490 C 0.15376 0.6261 0.18975 0.0
C2491 C 0.20963 0.63263 0.19161 0.0
C2492 C 0.16192 0.6139 0.18931 0.0
C2493 C 1.03097 0.62469 0.18574 0.0
C2494 C 0.12948 0.60692 0.19532 0.0
C2495 C 0.13774 0.59544 0.19482 0.0
C2496 C 0.17839 0.59072 0.18827 0.0
C2497 C 0.21119 0.59778 0.18232 0.0
C2498 C 0.20325 0.60923 0.18287 0.0
H2499 H 0.99093 0.62993 0.18293 0.0
H2500 H 0.04312 0.61808 0.18094 0.0
H2501 H 1.01161 0.62072 0.19181 0.0
H2502 H 0.09804 0.61035 0.20042 0.0
H2503 H 0.11166 0.59026 0.19948 0.0
H2504 H 0.7833 0.34645 0.93097 0.0
H2505 H 0.79287 0.36657 0.93064 0.0
H2506 H 0.9923 0.36428 0.94087 0.0
H2507 H 0.9842 0.3442 0.9409 0.0
H2508 H 0.81463 0.38088 0.94444 0.0
H2509 H 1.01808 0.38465 0.92001 0.0
H2510 H 0.97277 0.37197 0.92165 0.0
H2511 H 1.03853 0.3758 0.92909 0.0
C2512 C 0.8297 0.3502 0.93299 0.0
C2513 C 0.88305 0.34365 0.93593 0.0
C2514 C 0.83487 0.36173 0.93286 0.0
C2515 C 0.89361 0.36696 0.93562 0.0
C2516 C 0.94692 0.36045 0.93855 0.0
H2517 H 1.0261 0.43446 0.94287 0.0
H2518 H 1.01191 0.41442 0.94293 0.0
C2519 C 0.94187 0.34895 0.93866 0.0
C2520 C 0.89845 0.37922 0.93572 0.0
H2521 H 0.99066 0.40087 0.92808 0.0
C2522 C 0.8528 0.38525 0.94081 0.0
C2523 C 0.94833 0.38495 0.93099 0.0
C2524 C 0.99683 0.37903 0.92506 0.0
C2525 C 0.85665 0.39681 0.94146 0.0
C2526 C 0.90695 0.40251 0.93681 0.0
C2527 C 0.95231 0.39649 0.93168 0.0
C2528 C 0.9136 0.41473 0.93716 0.0
C2529 C 0.8079 0.4028 0.94731 0.0
C2530 C 0.86302 0.42159 0.93391 0.0
C2531 C 0.87085 0.43307 0.9339 0.0
C2532 C 0.92955 0.43794 0.93713 0.0
C2533 C 0.97983 0.43102 0.94046 0.0
C2534 C 0.97204 0.41955 0.94044 0.0
H2535 H 0.7833 0.39713 0.95205 0.0
H2536 H 0.83298 0.40947 0.95107 0.0
H2537 H 0.76877 0.40662 0.94316 0.0
H2538 H 0.81791 0.41806 0.93122 0.0
H2539 H 0.83098 0.43813 0.93133 0.0
H2540 H 0.82612 0.43231 0.83424 0.0
H2541 H 0.83907 0.41231 0.83313 0.0
H2542 H 0.96711 0.41645 0.8106 0.0
H2543 H 0.95526 0.43654 0.81175 0.0
H2544 H 0.80832 0.39833 0.81829 0.0
H2545 H 0.0754 0.39645 0.82765 0.0
H2546 H 1.02427 0.40837 0.82987 0.0
H2547 H 0.05419 0.40583 0.81891 0.0
C2548 C 0.85771 0.42899 0.82911 0.0
C2549 C 0.89017 0.43607 0.82314 0.0
C2550 C 0.86464 0.41754 0.82844 0.0
C2551 C 0.90463 0.41287 0.82185 0.0
C2552 C 0.9367 0.41987 0.81582 0.0
H2553 H 1.01755 0.34404 0.81262 0.0
H2554 H 1.00329 0.36402 0.81142 0.0
C2555 C 0.92945 0.43135 0.81644 0.0
C2556 C 0.91191 0.40067 0.82128 0.0
H2557 H 1.02361 0.37967 0.82386 0.0
C2558 C 0.85541 0.39425 0.81949 0.0
C2559 C 0.97342 0.39534 0.8228 0.0
C2560 C 1.03536 0.4018 0.82498 0.0
C2561 C 0.85873 0.38266 0.81916 0.0
C2562 C 0.91992 0.3773 0.82089 0.0
C2563 C 0.97667 0.38375 0.82254 0.0
C2564 C 0.92587 0.36504 0.82128 0.0
C2565 C 0.79673 0.3763 0.81682 0.0
C2566 C 0.88719 0.3589 0.82722 0.0
C2567 C 0.89467 0.34744 0.82785 0.0
C2568 C 0.94162 0.34183 0.82262 0.0
C2569 C 0.98012 0.34801 0.81665 0.0
C2570 C 0.97244 0.35947 0.816 0.0
H2571 H 0.76118 0.38146 0.81302 0.0
H2572 H 0.80869 0.36884 0.81288 0.0
H2573 H 0.77153 0.37366 0.82297 0.0
H2574 H 0.85192 0.36299 0.83151 0.0
H2575 H 0.86371 0.34299 0.83247 0.0
H2576 H 0.22632 0.09356 0.5762 0.0
H2577 H 0.23522 0.11361 0.57518 0.0
H2578 H 1.02974 0.11555 0.56727 0.0
H2579 H 1.0198 0.09546 0.56854 0.0
H2580 H 0.21586 0.12827 0.5615 0.0
H2581 H 1.03654 0.13608 0.58861 0.0
H2582 H 0.07067 0.12259 0.58643 0.0
H2583 H 1.00425 0.12788 0.57972 0.0
C2584 C 0.18279 0.09824 0.5743 0.0
C2585 C 0.12198 0.09289 0.5726 0.0
C2586 C 0.18815 0.10971 0.57365 0.0
C2587 C 0.13287 0.11613 0.57131 0.0
C2588 C 0.07276 0.1108 0.56926 0.0
H2589 H 0.1552 0.18695 0.55921 0.0
H2590 H 0.14039 0.16694 0.55818 0.0
C2591 C 0.06732 0.0993 0.5699 0.0
C2592 C 0.13817 0.12838 0.57125 0.0
H2593 H 0.07828 0.15169 0.58114 0.0
C2594 C 0.18558 0.1334 0.56576 0.0
C2595 C 0.09944 0.13507 0.57692 0.0
C2596 C 0.05027 0.13016 0.58332 0.0
C2597 C 0.19517 0.1449 0.56578 0.0
C2598 C 0.15552 0.1516 0.57133 0.0
C2599 C 0.1082 0.14657 0.57682 0.0
C2600 C 0.16427 0.16379 0.57186 0.0
C2601 C 0.2491 0.14973 0.56005 0.0
C2602 C 0.18117 0.16873 0.57992 0.0
C2603 C 0.18949 0.18016 0.58054 0.0
C2604 C 0.18075 0.18696 0.57311 0.0
C2605 C 0.16325 0.18198 0.56504 0.0
C2606 C 0.15485 0.17053 0.56443 0.0
H2607 H 0.28534 0.14337 0.55789 0.0
H2608 H 0.22629 0.15339 0.55407 0.0
H2609 H 0.27637 0.15635 0.5636 0.0
H2610 H 0.18875 0.16372 0.58575 0.0
H2611 H 0.20399 0.18365 0.58683 0.0
H2612 H 0.14953 0.1854 0.70284 0.0
H2613 H 0.16483 0.16536 0.70317 0.0
H2614 H 0.1706 0.16466 0.67477 0.0
H2615 H 0.15446 0.18459 0.67435 0.0
H2616 H 0.08454 0.14878 0.69566 0.0
H2617 H 0.33873 0.14764 0.6816 0.0
H2618 H 0.30183 0.16013 0.68585 0.0
H2619 H 0.28029 0.15522 0.67503 0.0
C2620 C 0.1539 0.18099 0.69665 0.0
C2621 C 0.15123 0.18669 0.68857 0.0
C2622 C 0.16292 0.16953 0.69686 0.0
C2623 C 0.16996 0.16351 0.68901 0.0
C2624 C 0.16694 0.16914 0.68093 0.0
H2625 H 0.21363 0.09548 0.67304 0.0
H2626 H 0.20154 0.11547 0.67416 0.0
C2627 C 0.15783 0.18058 0.68071 0.0
C2628 C 0.17848 0.1513 0.68919 0.0
H2629 H 0.28163 0.1305 0.68254 0.0
C2630 C 0.12789 0.14478 0.69287 0.0
C2631 C 0.23502 0.14607 0.68554 0.0
C2632 C 0.2924 0.15261 0.68186 0.0
C2633 C 0.13127 0.13318 0.69272 0.0
C2634 C 0.18743 0.12795 0.68895 0.0
C2635 C 0.23848 0.13449 0.68541 0.0
C2636 C 0.19358 0.11571 0.68838 0.0
C2637 C 0.07357 0.12665 0.69633 0.0
C2638 C 0.19371 0.10913 0.69601 0.0
C2639 C 0.19997 0.09764 0.69538 0.0
C2640 C 0.20666 0.09246 0.68711 0.0
C2641 C 0.20727 0.09911 0.67951 0.0
C2642 C 0.20092 0.11058 0.68014 0.0
H2643 H 1.02787 0.13175 0.69687 0.0
H2644 H 0.06264 0.1194 0.69209 0.0
H2645 H 0.0863 0.12362 0.70302 0.0
H2646 H 0.18946 0.11289 0.70246 0.0
H2647 H 0.19894 0.09281 0.70138 0.0
H2648 H 0.82674 0.84555 0.42656 0.0
H2649 H 0.83875 0.86555 0.42783 0.0
H2650 H 0.95619 0.8614 0.45136 0.0
H2651 H 0.9453 0.84131 0.45007 0.0
H2652 H 0.80059 0.8794 0.44243 0.0
H2653 H 0.07143 0.88165 0.43534 0.0
H2654 H 1.02195 0.86969 0.43264 0.0
H2655 H 0.04657 0.87218 0.44385 0.0
C2656 C 0.85586 0.84886 0.43196 0.0
C2657 C 0.88558 0.84178 0.43817 0.0
C2658 C 0.86225 0.86031 0.4327 0.0
C2659 C 0.89896 0.86499 0.43963 0.0
C2660 C 0.92835 0.85798 0.44589 0.0
H2661 H 1.00511 0.93385 0.45012 0.0
H2662 H 0.99124 0.91385 0.45106 0.0
C2663 C 0.92163 0.8465 0.44518 0.0
C2664 C 0.90547 0.8772 0.4403 0.0
H2665 H 1.01729 0.89834 0.43879 0.0
C2666 C 0.84798 0.88355 0.44165 0.0
C2667 C 0.96734 0.88261 0.43933 0.0
C2668 C 1.03045 0.87623 0.43765 0.0
C2669 C 0.85066 0.89513 0.44209 0.0
C2670 C 0.91232 0.90058 0.4409 0.0
C2671 C 0.96999 0.89421 0.43969 0.0
C2672 C 0.91795 0.91286 0.44064 0.0
C2673 C 0.78742 0.90139 0.44396 0.0
C2674 C 0.88147 0.91904 0.43448 0.0
C2675 C 0.88862 0.93051 0.43401 0.0
C2676 C 0.93316 0.93611 0.43961 0.0
C2677 C 0.9695 0.9299 0.4458 0.0
C2678 C 0.96208 0.91841 0.44629 0.0
H2679 H 0.75053 0.89616 0.44745 0.0
H2680 H 0.79722 0.90885 0.44801 0.0
H2681 H 0.76482 0.90404 0.43763 0.0
H2682 H 0.84817 0.91496 0.42991 0.0
H2683 H 0.85931 0.93498 0.42921 0.0
H2684 H 0.96641 0.8449 0.33938 0.0
H2685 H 0.95207 0.86486 0.33848 0.0
H2686 H 0.91468 0.86222 0.31056 0.0
H2687 H 0.92638 0.84216 0.31146 0.0
H2688 H 1.02334 0.87995 0.32885 0.0
H2689 H 0.75792 0.88076 0.31879 0.0
H2690 H 0.79761 0.86848 0.32298 0.0
H2691 H 0.81083 0.87271 0.31176 0.0
C2692 C 0.95401 0.84851 0.33306 0.0
C2693 C 0.94694 0.84186 0.32551 0.0
C2694 C 0.94638 0.85996 0.33255 0.0
C2695 C 0.93132 0.86505 0.32448 0.0
C2696 C 0.92498 0.85848 0.3169 0.0
H2697 H 0.87333 0.9348 0.31134 0.0
H2698 H 0.88802 0.91477 0.31057 0.0
C2699 C 0.9325 0.847 0.3174 0.0
C2700 C 0.92395 0.87725 0.32405 0.0
H2701 H 0.81402 0.8979 0.31923 0.0
C2702 C 0.97754 0.88387 0.32675 0.0
C2703 C 0.86428 0.88238 0.32127 0.0
C2704 C 0.80411 0.87574 0.3186 0.0
C2705 C 0.97313 0.89543 0.32676 0.0
C2706 C 0.91316 0.90055 0.32411 0.0
C2707 C 0.85995 0.89396 0.32125 0.0
C2708 C 0.90403 0.91271 0.32457 0.0
C2709 C 1.03297 0.90209 0.32953 0.0
C2710 C 0.9071 0.91819 0.33271 0.0
C2711 C 0.89825 0.92961 0.33319 0.0
C2712 C 0.88594 0.93584 0.32553 0.0
C2713 C 0.88217 0.93029 0.31738 0.0
C2714 C 0.89086 0.91884 0.31692 0.0
H2715 H 0.07954 0.8972 0.32906 0.0
H2716 H 1.03825 0.9096 0.3254 0.0
H2717 H 1.0268 0.90472 0.33649 0.0
H2718 H 0.91568 0.9136 0.33873 0.0
H2719 H 0.89997 0.93353 0.3396 0.0
H2720 H 0.70997 0.59316 0.581 0.0
H2721 H 0.71912 0.61324 0.5801 0.0
H2722 H 0.53159 0.61471 0.56641 0.0
H2723 H 0.52168 0.59455 0.56735 0.0
H2724 H 0.71685 0.62717 0.56446 0.0
H2725 H 0.51178 0.63614 0.58801 0.0
H2726 H 0.55153 0.62281 0.58739 0.0
H2727 H 0.49297 0.62686 0.57908 0.0
C2728 C 0.67034 0.59775 0.57785 0.0
C2729 C 0.6147 0.59225 0.57433 0.0
C2730 C 0.67592 0.60922 0.57729 0.0
C2731 C 0.62578 0.61549 0.57327 0.0
C2732 C 0.57055 0.61005 0.56963 0.0
H2733 H 0.65806 0.68599 0.5605 0.0
H2734 H 0.6412 0.66602 0.55959 0.0
C2735 C 0.56516 0.59853 0.57012 0.0
C2736 C 0.63155 0.62771 0.573 0.0
H2737 H 0.56557 0.65139 0.58156 0.0
C2738 C 0.68353 0.63248 0.56814 0.0
C2739 C 0.58849 0.63462 0.57789 0.0
C2740 C 0.53323 0.6299 0.58345 0.0
C2741 C 0.69367 0.64396 0.56806 0.0
C2742 C 0.65044 0.65087 0.57294 0.0
C2743 C 0.59839 0.6461 0.57778 0.0
C2744 C 0.66022 0.66303 0.57342 0.0
C2745 C 0.75172 0.64859 0.56298 0.0
C2746 C 0.67547 0.66803 0.58152 0.0
C2747 C 0.68547 0.67943 0.58206 0.0
C2748 C 0.67987 0.68615 0.57452 0.0
C2749 C 0.66384 0.6811 0.56642 0.0
C2750 C 0.65405 0.66967 0.56588 0.0
H2751 H 0.78788 0.64208 0.56109 0.0
H2752 H 0.73321 0.65255 0.55686 0.0
H2753 H 0.778 0.65498 0.56691 0.0
H2754 H 0.68058 0.66307 0.58742 0.0
H2755 H 0.69879 0.68295 0.58838 0.0
H2756 H 0.77933 0.59381 0.69791 0.0
H2757 H 0.76624 0.6138 0.69937 0.0
H2758 H 0.60306 0.61298 0.68095 0.0
H2759 H 0.61384 0.593 0.67975 0.0
H2760 H 0.77891 0.62958 0.68686 0.0
H2761 H 0.52408 0.63127 0.70047 0.0
H2762 H 0.57149 0.61865 0.70003 0.0
H2763 H 0.52795 0.62351 0.69041 0.0
C2764 C 0.7397 0.59783 0.69431 0.0
C2765 C 0.69756 0.59172 0.68872 0.0
C2766 C 0.73264 0.6093 0.6951 0.0
C2767 C 0.68304 0.61492 0.69037 0.0
C2768 C 0.64079 0.60884 0.68482 0.0
H2769 H 0.57583 0.68179 0.67787 0.0
H2770 H 0.59025 0.66183 0.67911 0.0
C2771 C 0.64766 0.5974 0.68405 0.0
C2772 C 0.67735 0.62717 0.6909 0.0
H2773 H 0.56711 0.64815 0.69458 0.0
C2774 C 0.73283 0.63364 0.68866 0.0
C2775 C 0.61729 0.63251 0.69326 0.0
C2776 C 0.55705 0.62613 0.69627 0.0
C2777 C 0.72913 0.64523 0.6884 0.0
C2778 C 0.66853 0.65052 0.69051 0.0
C2779 C 0.61348 0.64409 0.69292 0.0
C2780 C 0.66042 0.66269 0.68988 0.0
C2781 C 0.78939 0.65173 0.68558 0.0
C2782 C 0.69465 0.66984 0.69559 0.0
C2783 C 0.6865 0.68131 0.69491 0.0
C2784 C 0.64422 0.68584 0.68846 0.0
C2785 C 0.60968 0.67861 0.68281 0.0
C2786 C 0.61748 0.66718 0.68354 0.0
H2787 H 0.8285 0.64637 0.68268 0.0
H2788 H 0.77536 0.6581 0.68066 0.0
H2789 H 0.81075 0.65601 0.69139 0.0
H2790 H 0.72745 0.66656 0.70061 0.0
H2791 H 0.71394 0.68662 0.69935 0.0
H2792 H 0.4378 0.4354 0.45319 0.0
H2793 H 0.42915 0.41526 0.45382 0.0
H2794 H 0.43193 0.41378 0.42542 0.0
H2795 H 0.44292 0.43379 0.42473 0.0
H2796 H 0.33334 0.40108 0.44702 0.0
H2797 H 0.57848 0.3922 0.43198 0.0
H2798 H 0.55601 0.40573 0.43595 0.0
H2799 H 0.52744 0.40105 0.42535 0.0
C2800 C 0.43724 0.43079 0.44707 0.0
C2801 C 0.44133 0.43629 0.43891 0.0
C2802 C 0.43187 0.41927 0.44745 0.0
C2803 C 0.43103 0.41296 0.43967 0.0
C2804 C 0.43382 0.41842 0.43152 0.0
H2805 H 0.39036 0.34436 0.42501 0.0
H2806 H 0.40311 0.36437 0.42574 0.0
C2807 C 0.43919 0.42992 0.43114 0.0
C2808 C 0.42643 0.40068 0.44005 0.0
H2809 H 0.50414 0.37702 0.43337 0.0
C2810 C 0.37096 0.39582 0.44411 0.0
C2811 C 0.47557 0.39379 0.43626 0.0
C2812 C 0.53806 0.39844 0.43221 0.0
C2813 C 0.36225 0.38429 0.44422 0.0
C2814 C 0.41084 0.37741 0.4403 0.0
C2815 C 0.46675 0.38228 0.43635 0.0
C2816 C 0.40386 0.36517 0.43998 0.0
C2817 C 0.3 0.3796 0.4483 0.0
C2818 C 0.40106 0.35888 0.44775 0.0
C2819 C 0.39424 0.34738 0.44736 0.0
C2820 C 0.39045 0.34188 0.43919 0.0
C2821 C 0.39413 0.34823 0.43143 0.0
C2822 C 0.40099 0.35971 0.43183 0.0
H2823 H 0.26081 0.38597 0.44912 0.0
H2824 H 0.27979 0.37277 0.44421 0.0
H2825 H 0.31202 0.37623 0.45491 0.0
H2826 H 0.40465 0.36287 0.45413 0.0
H2827 H 0.39265 0.34278 0.45348 0.0
H2828 H 0.44076 0.34391 0.33688 0.0
H2829 H 0.42661 0.36386 0.33588 0.0
H2830 H 0.40398 0.36129 0.30769 0.0
H2831 H 0.41581 0.34122 0.30865 0.0
H2832 H 0.505 0.37875 0.32665 0.0
H2833 H 0.24396 0.38016 0.31471 0.0
H2834 H 0.28044 0.36786 0.31933 0.0
H2835 H 0.29954 0.37188 0.30822 0.0
C2836 C 0.43149 0.34753 0.33047 0.0
C2837 C 0.42884 0.3409 0.32285 0.0
C2838 C 0.42399 0.35897 0.32991 0.0
C2839 C 0.41339 0.36408 0.32173 0.0
C2840 C 0.41091 0.35753 0.31409 0.0
H2841 H 0.3616 0.43442 0.30931 0.0
H2842 H 0.37399 0.41433 0.30812 0.0
C2843 C 0.41841 0.34605 0.31465 0.0
C2844 C 0.4072 0.3763 0.32124 0.0
H2845 H 0.30036 0.39719 0.31591 0.0
C2846 C 0.46027 0.38278 0.32429 0.0
C2847 C 0.34903 0.38156 0.31809 0.0
C2848 C 0.28968 0.37504 0.31496 0.0
C2849 C 0.45665 0.39435 0.32435 0.0
C2850 C 0.39784 0.39961 0.32142 0.0
C2851 C 0.34535 0.39315 0.31816 0.0
C2852 C 0.38888 0.41176 0.3221 0.0
C2853 C 0.51614 0.40084 0.32749 0.0
C2854 C 0.39154 0.41696 0.33036 0.0
C2855 C 0.38426 0.42839 0.33106 0.0
C2856 C 0.37375 0.43492 0.32351 0.0
C2857 C 0.36932 0.42965 0.31525 0.0
C2858 C 0.3767 0.41818 0.31456 0.0
H2859 H 0.56265 0.39593 0.32699 0.0
H2860 H 0.5223 0.40855 0.32363 0.0
H2861 H 0.50902 0.4031 0.33452 0.0
H2862 H 0.39906 0.41216 0.33629 0.0
H2863 H 0.38638 0.4321 0.33755 0.0
H2864 H 0.73501 0.09123 0.0744 0.0
H2865 H 0.7473 0.11133 0.07374 0.0
H2866 H 0.53436 0.11491 0.07262 0.0
H2867 H 0.52155 0.09487 0.07343 0.0
H2868 H 0.69897 0.12652 0.06046 0.0
H2869 H 0.59148 0.13483 0.09355 0.0
H2870 H 0.62 0.12132 0.09025 0.0
H2871 H 0.54131 0.12641 0.08641 0.0
C2872 C 0.69077 0.09629 0.07407 0.0
C2873 C 0.62727 0.09141 0.074 0.0
C2874 C 0.6979 0.10778 0.07364 0.0
C2875 C 0.64174 0.11463 0.07324 0.0
C2876 C 0.57838 0.10979 0.07304 0.0
H2877 H 0.58166 0.18584 0.0738 0.0
H2878 H 0.56813 0.16578 0.07333 0.0
C2879 C 0.57119 0.09832 0.07342 0.0
C2880 C 0.64935 0.12684 0.07302 0.0
H2881 H 0.61526 0.15032 0.08464 0.0
C2882 C 0.68089 0.13173 0.06576 0.0
C2883 C 0.62547 0.13363 0.07992 0.0
C2884 C 0.59312 0.12882 0.08802 0.0
C2885 C 0.68821 0.14325 0.06513 0.0
C2886 C 0.66476 0.15006 0.07206 0.0
C2887 C 0.63314 0.14514 0.07932 0.0
C2888 C 0.67311 0.16228 0.07199 0.0
C2889 C 0.71955 0.14802 0.05694 0.0
C2890 C 0.73662 0.16705 0.07146 0.0
C2891 C 0.74448 0.17852 0.07171 0.0
C2892 C 0.68905 0.18551 0.07261 0.0
C2893 C 0.62547 0.18072 0.07317 0.0
C2894 C 0.61764 0.16924 0.07287 0.0
H2895 H 0.71642 0.1422 0.05129 0.0
H2896 H 0.69541 0.15589 0.05503 0.0
H2897 H 0.77291 0.14967 0.05823 0.0
H2898 H 0.78039 0.16188 0.07103 0.0
H2899 H 0.79427 0.18189 0.07145 0.0
H2900 H 0.64725 0.18497 0.20254 0.0
H2901 H 0.66115 0.16489 0.20284 0.0
H2902 H 0.66368 0.16421 0.17443 0.0
H2903 H 0.64888 0.18418 0.17405 0.0
H2904 H 0.57865 0.14847 0.19542 0.0
H2905 H 0.83159 0.14689 0.18097 0.0
H2906 H 0.79594 0.15943 0.18532 0.0
H2907 H 0.77295 0.15461 0.17452 0.0
C2908 C 0.6506 0.18056 0.19635 0.0
C2909 C 0.64741 0.18627 0.18827 0.0
C2910 C 0.65881 0.16907 0.19653 0.0
C2911 C 0.66452 0.16305 0.18866 0.0
C2912 C 0.661 0.16869 0.1806 0.0
H2913 H 0.7068 0.0948 0.17296 0.0
H2914 H 0.69398 0.11479 0.17392 0.0
C2915 C 0.65268 0.18015 0.1804 0.0
C2916 C 0.67225 0.15083 0.18883 0.0
H2917 H 0.77379 0.12985 0.18209 0.0
C2918 C 0.62155 0.14439 0.19257 0.0
C2919 C 0.72819 0.1455 0.1851 0.0
C2920 C 0.78561 0.15195 0.18132 0.0
C2921 C 0.62427 0.13279 0.19244 0.0
C2922 C 0.67991 0.12746 0.18862 0.0
C2923 C 0.73102 0.13391 0.18499 0.0
C2924 C 0.68567 0.11521 0.18814 0.0
C2925 C 0.56644 0.12636 0.19613 0.0
C2926 C 0.68564 0.10872 0.19581 0.0
C2927 C 0.69219 0.09723 0.19528 0.0
C2928 C 0.69949 0.09195 0.18706 0.0
C2929 C 0.69997 0.0985 0.1794 0.0
C2930 C 0.69324 0.10997 0.17994 0.0
H2931 H 0.5209 0.13151 0.19662 0.0
H2932 H 0.55524 0.11904 0.19199 0.0
H2933 H 0.57913 0.12346 0.20286 0.0
H2934 H 0.68125 0.11256 0.20224 0.0
H2935 H 0.69118 0.09249 0.20133 0.0
H2936 H 0.49775 0.84118 0.93366 0.0
H2937 H 0.51036 0.86124 0.934 0.0
H2938 H 0.31916 0.8643 0.94658 0.0
H2939 H 0.30602 0.84426 0.94624 0.0
H2940 H 0.43188 0.87678 0.92607 0.0
H2941 H 0.4353 0.8836 0.96222 0.0
H2942 H 0.44599 0.87013 0.95734 0.0
H2943 H 0.36426 0.87597 0.95846 0.0
C2944 C 0.4584 0.84611 0.93652 0.0
C2945 C 0.40092 0.84106 0.93995 0.0
C2946 C 0.46581 0.85759 0.93674 0.0
C2947 C 0.41614 0.8643 0.94042 0.0
C2948 C 0.35892 0.8593 0.9439 0.0
H2949 H 0.35845 0.93426 0.92971 0.0
H2950 H 0.34878 0.91419 0.93073 0.0
C2951 C 0.3515 0.84782 0.9437 0.0
C2952 C 0.42279 0.87654 0.94021 0.0
H2953 H 0.42436 0.89959 0.95322 0.0
C2954 C 0.43049 0.88176 0.93202 0.0
C2955 C 0.42171 0.88305 0.94797 0.0
C2956 C 0.41702 0.87791 0.95701 0.0
C2957 C 0.43604 0.89329 0.93134 0.0
C2958 C 0.43263 0.89983 0.93907 0.0
C2959 C 0.42617 0.8946 0.94729 0.0
C2960 C 0.43681 0.91209 0.93875 0.0
C2961 C 0.44666 0.89834 0.92236 0.0
C2962 C 0.48819 0.91765 0.94317 0.0
C2963 C 0.49375 0.92915 0.94262 0.0
C2964 C 0.44786 0.93535 0.93766 0.0
C2965 C 0.3954 0.92975 0.93344 0.0
C2966 C 0.38981 0.91826 0.93401 0.0
H2967 H 0.46573 0.8922 0.91755 0.0
H2968 H 0.39858 0.90151 0.91984 0.0
H2969 H 0.48221 0.90533 0.92271 0.0
H2970 H 0.52493 0.91308 0.94689 0.0
H2971 H 0.53513 0.93314 0.94589 0.0
H2972 H 0.4367 0.84262 0.8376 0.0
H2973 H 0.42249 0.8626 0.83712 0.0
H2974 H 0.40543 0.86128 0.80881 0.0
H2975 H 0.41721 0.84119 0.80924 0.0
H2976 H 0.50168 0.87794 0.82886 0.0
H2977 H 0.24487 0.87994 0.81553 0.0
H2978 H 0.28026 0.86738 0.81987 0.0
H2979 H 0.30185 0.87201 0.80898 0.0
C2980 C 0.42859 0.84652 0.83127 0.0
C2981 C 0.42754 0.84022 0.82346 0.0
C2982 C 0.42106 0.85798 0.83101 0.0
C2983 C 0.412 0.86347 0.82295 0.0
C2984 C 0.41107 0.85724 0.81513 0.0
H2985 H 0.37031 0.93382 0.81067 0.0
H2986 H 0.38236 0.91374 0.80971 0.0
C2987 C 0.41859 0.84575 0.81538 0.0
C2988 C 0.40594 0.87572 0.82277 0.0
H2989 H 0.30213 0.89689 0.81707 0.0
C2990 C 0.45798 0.88207 0.82629 0.0
C2991 C 0.34909 0.88114 0.81937 0.0
C2992 C 0.29051 0.87479 0.81579 0.0
C2993 C 0.45483 0.89365 0.8265 0.0
C2994 C 0.39759 0.89907 0.82323 0.0
C2995 C 0.34598 0.89274 0.81957 0.0
C2996 C 0.38965 0.91126 0.8238 0.0
C2997 C 0.51327 0.9 0.83012 0.0
C2998 C 0.3886 0.91654 0.83203 0.0
C2999 C 0.38131 0.928 0.83261 0.0
C3000 C 0.37464 0.93448 0.82496 0.0
C3001 C 0.37478 0.92912 0.81671 0.0
C3002 C 0.38197 0.91764 0.81614 0.0
H3003 H 0.55944 0.89497 0.83008 0.0
H3004 H 0.52212 0.90764 0.82628 0.0
H3005 H 0.50275 0.90238 0.83705 0.0
H3006 H 0.39282 0.91178 0.83805 0.0
H3007 H 0.37986 0.93175 0.83909 0.0
H3008 H 0.85959 0.52415 0.07915 0.0
H3009 H 0.73802 0.52441 0.07855 0.0
H3010 H 0.73982 0.49521 0.06232 0.0
H3011 H 0.86117 0.49479 0.06297 0.0
H3012 H 0.65803 0.52633 0.06374 0.0
H3013 H 0.60399 0.48715 0.08115 0.0
H3014 H 0.68455 0.49368 0.08153 0.0
H3015 H 0.66054 0.48566 0.07207 0.0
C3016 C 0.83419 0.51769 0.07555 0.0
C3017 C 0.87041 0.50941 0.07115 0.0
C3018 C 0.76458 0.51787 0.07519 0.0
C3019 C 0.72953 0.50976 0.07048 0.0
C3020 C 0.7655 0.50144 0.06615 0.0
H3021 H 0.31223 0.49803 0.05818 0.0
H3022 H 0.43377 0.49776 0.0589 0.0
C3023 C 0.83508 0.50124 0.0665 0.0
C3024 C 0.65565 0.51028 0.06978 0.0
H3025 H 0.51322 0.49577 0.07387 0.0
C3026 C 0.62635 0.51967 0.066 0.0
C3027 C 0.61419 0.50158 0.0727 0.0
C3028 C 0.64224 0.49149 0.07717 0.0
C3029 C 0.55706 0.52052 0.06492 0.0
C3030 C 0.51563 0.51182 0.06783 0.0
C3031 C 0.54491 0.50243 0.07161 0.0
C3032 C 0.44178 0.51232 0.06709 0.0
C3033 C 0.52896 0.53062 0.06047 0.0
C3034 C 0.40557 0.52059 0.07145 0.0
C3035 C 0.33602 0.52078 0.07104 0.0
C3036 C 0.30097 0.51267 0.06629 0.0
C3037 C 0.33742 0.50445 0.06186 0.0
C3038 C 0.40701 0.50425 0.06229 0.0
H3039 H 0.56727 0.53502 0.05654 0.0
H3040 H 0.48694 0.52842 0.05606 0.0
H3041 H 0.51017 0.53639 0.06557 0.0
H3042 H 0.43105 0.52677 0.07534 0.0
H3043 H 0.30972 0.52719 0.07458 0.0
H3044 H 0.47147 0.7805 0.06521 0.0
H3045 H 0.59268 0.78024 0.06508 0.0
H3046 H 0.59193 0.74916 0.07885 0.0
H3047 H 0.47013 0.74942 0.07915 0.0
H3048 H 0.68561 0.76382 0.08545 0.0
H3049 H 0.70646 0.7611 0.04907 0.0
H3050 H 0.65792 0.77262 0.05276 0.0
H3051 H 0.62913 0.75882 0.05481 0.0
C3052 C 0.49683 0.77359 0.06824 0.0
C3053 C 0.4607 0.76493 0.07214 0.0
C3054 C 0.56635 0.77343 0.0681 0.0
C3055 C 0.60155 0.76456 0.07177 0.0
C3056 C 0.56586 0.75605 0.0759 0.0
H3057 H 1.02373 0.74861 0.07645 0.0
H3058 H 0.90246 0.74851 0.07708 0.0
C3059 C 0.49615 0.75622 0.07607 0.0
C3060 C 0.67552 0.76423 0.07133 0.0
H3061 H 0.80639 0.76463 0.05695 0.0
C3062 C 0.71203 0.76393 0.07922 0.0
C3063 C 0.7101 0.76437 0.06319 0.0
C3064 C 0.67397 0.76414 0.05447 0.0
C3065 C 0.78198 0.76403 0.07921 0.0
C3066 C 0.8165 0.76427 0.07107 0.0
C3067 C 0.77999 0.7645 0.06318 0.0
C3068 C 0.89046 0.76427 0.07059 0.0
C3069 C 0.81827 0.76419 0.08791 0.0
C3070 C 0.92433 0.773 0.06649 0.0
C3071 C 0.99391 0.77305 0.06606 0.0
C3072 C 1.03118 0.76434 0.06968 0.0
C3073 C 0.99693 0.75551 0.07365 0.0
C3074 C 0.92741 0.75547 0.07407 0.0
H3075 H 0.78548 0.76691 0.09339 0.0
H3076 H 0.83598 0.75574 0.08945 0.0
H3077 H 0.86214 0.76973 0.08764 0.0
H3078 H 0.89688 0.77984 0.06371 0.0
H3079 H 1.0184 0.77997 0.06293 0.0
H3080 H 0.85422 0.78084 0.19819 0.0
H3081 H 0.73293 0.78046 0.19854 0.0
H3082 H 0.7337 0.74909 0.18515 0.0
H3083 H 0.85526 0.7493 0.18486 0.0
H3084 H 0.64087 0.77941 0.18496 0.0
H3085 H 0.61842 0.74283 0.20671 0.0
H3086 H 0.69582 0.7501 0.2052 0.0
H3087 H 0.66721 0.74054 0.19697 0.0
C3088 C 0.82884 0.77384 0.1953 0.0
C3089 C 0.86492 0.76507 0.19154 0.0
C3090 C 0.7593 0.77365 0.19551 0.0
C3091 C 0.7241 0.76466 0.19201 0.0
C3092 C 0.75975 0.75601 0.18807 0.0
H3093 H 0.30488 0.74851 0.18717 0.0
H3094 H 0.42618 0.74889 0.18671 0.0
C3095 C 0.82939 0.75618 0.18786 0.0
C3096 C 0.65015 0.76443 0.19245 0.0
H3097 H 0.51854 0.74974 0.20052 0.0
C3098 C 0.61412 0.77295 0.18839 0.0
C3099 C 0.6152 0.756 0.19694 0.0
C3100 C 0.65102 0.7469 0.20178 0.0
C3101 C 0.54423 0.77316 0.18855 0.0
C3102 C 0.50931 0.76472 0.19303 0.0
C3103 C 0.54531 0.7562 0.19709 0.0
C3104 C 0.4354 0.76451 0.19349 0.0
C3105 C 0.50832 0.78228 0.18375 0.0
C3106 C 0.40002 0.77308 0.1976 0.0
C3107 C 0.3304 0.77289 0.19789 0.0
C3108 C 0.29464 0.76411 0.1941 0.0
C3109 C 0.33046 0.75544 0.19014 0.0
C3110 C 0.39999 0.75563 0.18987 0.0
H3111 H 0.54098 0.78643 0.17887 0.0
H3112 H 0.46379 0.77906 0.18027 0.0
H3113 H 0.49162 0.78856 0.18859 0.0
H3114 H 0.42629 0.77991 0.2006 0.0
H3115 H 0.30471 0.77969 0.20103 0.0
H3116 H 1.01672 0.52837 0.18814 0.0
H3117 H 0.89523 0.52796 0.18757 0.0
H3118 H 0.89444 0.49826 0.20317 0.0
H3119 H 1.01577 0.4987 0.2039 0.0
H3120 H 0.81494 0.51181 0.1805 0.0
H3121 H 0.75876 0.5171 0.21605 0.0
H3122 H 0.83999 0.5198 0.21149 0.0
H3123 H 0.8143 0.50588 0.21376 0.0
C3124 C 0.99077 0.52182 0.19155 0.0
C3125 C 1.02624 0.5136 0.19611 0.0
C3126 C 0.9212 0.52158 0.19119 0.0
C3127 C 0.88544 0.51316 0.19542 0.0
C3128 C 0.92067 0.50498 0.20002 0.0
H3129 H 0.46639 0.49566 0.19915 0.0
H3130 H 0.5879 0.49604 0.1997 0.0
C3131 C 0.99023 0.50523 0.2004 0.0
C3132 C 0.8116 0.51267 0.19468 0.0
H3133 H 0.66829 0.51219 0.20678 0.0
C3134 C 0.78286 0.51195 0.18625 0.0
C3135 C 0.76963 0.51281 0.20217 0.0
C3136 C 0.79708 0.51404 0.21138 0.0
C3137 C 0.7136 0.51118 0.18511 0.0
C3138 C 0.67162 0.51132 0.1926 0.0
C3139 C 0.70037 0.51204 0.20103 0.0
C3140 C 0.59778 0.51084 0.19186 0.0
C3141 C 0.68616 0.50995 0.1759 0.0
C3142 C 0.56259 0.51903 0.18727 0.0
C3143 C 0.49302 0.51881 0.1869 0.0
C3144 C 0.45695 0.51044 0.19119 0.0
C3145 C 0.49238 0.5022 0.19574 0.0
C3146 C 0.56196 0.50243 0.19609 0.0
H3147 H 0.72446 0.50689 0.17123 0.0
H3148 H 0.64321 0.5042 0.17579 0.0
H3149 H 0.66897 0.51812 0.17352 0.0
H3150 H 0.58886 0.52575 0.18411 0.0
H3151 H 0.46751 0.52535 0.18341 0.0
H3152 H 0.77222 0.50029 0.93631 0.0
H3153 H 0.65083 0.50063 0.93558 0.0
H3154 H 0.64801 0.5303 0.95125 0.0
H3155 H 0.7694 0.52995 0.95214 0.0
H3156 H 0.55336 0.51509 0.95652 0.0
H3157 H 0.54112 0.52142 0.92032 0.0
H3158 H 0.58816 0.50953 0.92359 0.0
H3159 H 0.61707 0.52308 0.92652 0.0
C3160 C 0.74588 0.50688 0.93964 0.0
C3161 C 0.78077 0.51512 0.94425 0.0
C3162 C 0.67639 0.5071 0.93915 0.0
C3163 C 0.64028 0.51562 0.9432 0.0
C3164 C 0.67481 0.52369 0.94801 0.0
H3165 H 0.2209 0.53299 0.9479 0.0
H3166 H 0.34231 0.53259 0.9485 0.0
C3167 C 0.7443 0.52346 0.94852 0.0
C3168 C 0.56654 0.51611 0.94246 0.0
H3169 H 0.43899 0.51799 0.92763 0.0
C3170 C 0.52836 0.51577 0.9502 0.0
C3171 C 0.53387 0.51699 0.93422 0.0
C3172 C 0.57207 0.51788 0.92569 0.0
C3173 C 0.45852 0.51608 0.94993 0.0
C3174 C 0.42585 0.51698 0.94168 0.0
C3175 C 0.46401 0.5173 0.93394 0.0
C3176 C 0.35213 0.51752 0.94096 0.0
C3177 C 0.42032 0.5152 0.95846 0.0
C3178 C 0.31718 0.50943 0.93623 0.0
C3179 C 0.24765 0.50969 0.9358 0.0
C3180 C 0.21157 0.51808 0.94007 0.0
C3181 C 0.24691 0.52636 0.94458 0.0
C3182 C 0.31641 0.52611 0.94499 0.0
H3183 H 0.45125 0.51166 0.96382 0.0
H3184 H 0.40421 0.52355 0.96055 0.0
H3185 H 0.37531 0.51 0.95762 0.0
H3186 H 0.34367 0.50277 0.93301 0.0
H3187 H 0.22221 0.50317 0.93226 0.0
H3188 H 0.60875 0.24529 0.94552 0.0
H3189 H 0.48741 0.24547 0.94549 0.0
H3190 H 0.48866 0.27842 0.93484 0.0
H3191 H 0.61026 0.27829 0.93475 0.0
H3192 H 0.40492 0.25992 0.95461 0.0
H3193 H 0.3578 0.26249 0.9186 0.0
H3194 H 0.43776 0.25873 0.92308 0.0
H3195 H 0.41247 0.27294 0.92283 0.0
C3196 C 0.58344 0.25256 0.94307 0.0
C3197 C 0.61962 0.26178 0.94011 0.0
C3198 C 0.5139 0.25264 0.94308 0.0
C3199 C 0.47878 0.2619 0.94008 0.0
C3200 C 0.51457 0.27109 0.93703 0.0
H3201 H 0.05772 0.27839 0.93737 0.0
H3202 H 0.17914 0.27844 0.93678 0.0
C3203 C 0.58424 0.27102 0.93702 0.0
C3204 C 0.40487 0.2621 0.94052 0.0
H3205 H 0.2644 0.26451 0.92798 0.0
C3206 C 0.37417 0.26087 0.94878 0.0
C3207 C 0.36475 0.26341 0.93293 0.0
C3208 C 0.39468 0.26437 0.92384 0.0
C3209 C 0.30463 0.26107 0.94967 0.0
C3210 C 0.26444 0.26229 0.94207 0.0
C3211 C 0.29515 0.26357 0.93381 0.0
C3212 C 0.1905 0.26223 0.94253 0.0
C3213 C 0.27495 0.26021 0.95878 0.0
C3214 C 0.15621 0.25306 0.94589 0.0
C3215 C 0.08667 0.25302 0.94628 0.0
C3216 C 0.04978 0.26212 0.94324 0.0
C3217 C 0.08432 0.27125 0.9398 0.0
C3218 C 0.15386 0.27129 0.93943 0.0
H3219 H 0.31154 0.26245 0.96397 0.0
H3220 H 0.23079 0.26564 0.95946 0.0
H3221 H 0.25906 0.25158 0.95997 0.0
H3222 H 0.18323 0.24587 0.94813 0.0
H3223 H 0.0619 0.2458 0.9489 0.0
H3224 H 0.78286 0.27902 0.82541 0.0
H3225 H 0.66142 0.27842 0.82616 0.0
H3226 H 0.66034 0.2494 0.80973 0.0
H3227 H 0.78175 0.24985 0.80901 0.0
H3228 H 0.56527 0.27909 0.81277 0.0
H3229 H 0.55218 0.23966 0.83124 0.0
H3230 H 0.62822 0.24744 0.83013 0.0
H3231 H 0.59923 0.23896 0.8212 0.0
C3232 C 0.75689 0.27253 0.82192 0.0
C3233 C 0.7923 0.26445 0.81719 0.0
C3234 C 0.68738 0.2722 0.82236 0.0
C3235 C 0.65175 0.26375 0.81814 0.0
C3236 C 0.68678 0.25586 0.8132 0.0
H3237 H 0.23255 0.24704 0.81345 0.0
H3238 H 0.35401 0.24761 0.81276 0.0
C3239 C 0.75628 0.25618 0.81275 0.0
C3240 C 0.57801 0.26323 0.81888 0.0
H3241 H 0.45008 0.247 0.82609 0.0
C3242 C 0.54008 0.2721 0.81572 0.0
C3243 C 0.54511 0.2541 0.82273 0.0
C3244 C 0.58316 0.24453 0.8266 0.0
C3245 C 0.47023 0.272 0.81613 0.0
C3246 C 0.43733 0.26287 0.81998 0.0
C3247 C 0.47526 0.254 0.82314 0.0
C3248 C 0.36357 0.26234 0.82071 0.0
C3249 C 0.43222 0.28156 0.81225 0.0
C3250 C 0.32845 0.27027 0.8256 0.0
C3251 C 0.25893 0.26997 0.82602 0.0
C3252 C 0.22297 0.26168 0.8216 0.0
C3253 C 0.25847 0.25355 0.81693 0.0
C3254 C 0.328 0.25387 0.81652 0.0
H3255 H 0.46319 0.2864 0.80758 0.0
H3256 H 0.38708 0.27866 0.80873 0.0
H3257 H 0.41631 0.28716 0.81764 0.0
H3258 H 0.35483 0.27675 0.82905 0.0
H3259 H 0.2334 0.27634 0.8297 0.0
H3260 H 0.0568 0.49864 0.8241 0.0
H3261 H 0.17819 0.49902 0.82483 0.0
H3262 H 0.18068 0.52874 0.80926 0.0
H3263 H 0.05931 0.52834 0.80837 0.0
H3264 H 0.27547 0.51357 0.80394 0.0
H3265 H 0.28775 0.51979 0.84015 0.0
H3266 H 0.24082 0.5079 0.83685 0.0
H3267 H 0.21177 0.52145 0.83397 0.0
C3268 C 0.08307 0.50525 0.8208 0.0
C3269 C 0.04808 0.5135 0.81621 0.0
C3270 C 0.15255 0.50549 0.82128 0.0
C3271 C 0.18858 0.51404 0.81726 0.0
C3272 C 0.15396 0.52211 0.81247 0.0
H3273 H 0.60801 0.53144 0.81259 0.0
H3274 H 0.48659 0.53107 0.812 0.0
C3275 C 0.08448 0.52186 0.81196 0.0
C3276 C 0.26232 0.51454 0.818 0.0
H3277 H 0.38989 0.51639 0.83283 0.0
C3278 C 0.30048 0.51424 0.81025 0.0
C3279 C 0.29501 0.5154 0.82624 0.0
C3280 C 0.25683 0.51626 0.83478 0.0
C3281 C 0.37032 0.51457 0.81053 0.0
C3282 C 0.40301 0.51543 0.81877 0.0
C3283 C 0.36486 0.51573 0.82652 0.0
C3284 C 0.47674 0.51598 0.81949 0.0
C3285 C 0.4085 0.51372 0.80199 0.0
C3286 C 0.51167 0.50787 0.8242 0.0
C3287 C 0.5812 0.50811 0.82462 0.0
C3288 C 0.6173 0.51651 0.82037 0.0
C3289 C 0.58198 0.52481 0.8159 0.0
C3290 C 0.51247 0.52457 0.81549 0.0
H3291 H 0.37756 0.5102 0.79661 0.0
H3292 H 0.42459 0.52208 0.79993 0.0
H3293 H 0.45352 0.50852 0.8028 0.0
H3294 H 0.48517 0.5012 0.82739 0.0
H3295 H 0.60663 0.50158 0.82813 0.0
H3296 H 0.30736 0.02762 0.57704 0.0
H3297 H 0.42862 0.02784 0.57759 0.0
H3298 H 0.43508 0.99733 0.56301 0.0
H3299 H 0.3134 0.99696 0.56249 0.0
H3300 H 0.51867 0.99755 0.57784 0.0
H3301 H 0.55715 0.03501 0.55749 0.0
H3302 H 0.50174 0.03694 0.56664 0.0
H3303 H 0.47885 0.02776 0.55784 0.0
C3304 C 0.33436 0.02094 0.57392 0.0
C3305 C 0.30033 1.01227 0.5697 0.0
C3306 C 0.40389 0.02114 0.57419 0.0
C3307 C 0.44111 1.0127 0.57023 0.0
C3308 C 0.40742 1.00397 0.56608 0.0
H3309 H 0.86011 0.99719 0.56463 0.0
H3310 H 0.73898 0.99716 0.5648 0.0
C3311 C 0.33778 1.00378 0.56577 0.0
C3312 C 0.51507 1.01282 0.57064 0.0
H3313 H 0.65209 0.02777 0.56473 0.0
C3314 C 0.54786 1.00413 0.57494 0.0
C3315 C 0.5532 0.02144 0.5669 0.0
C3316 C 0.52112 0.03077 0.56188 0.0
C3317 C 0.61753 1.0039 0.57571 0.0
C3318 C 0.6557 1.01249 0.57193 0.0
C3319 C 0.62289 0.02121 0.56766 0.0
C3320 C 0.72975 1.01242 0.57208 0.0
C3321 C 0.64954 0.99455 0.5807 0.0
C3322 C 0.76532 0.02113 0.57598 0.0
C3323 C 0.83505 0.02122 0.57587 0.0
C3324 C 0.87067 1.01263 0.57177 0.0
C3325 C 0.83469 1.00393 0.56789 0.0
C3326 C 0.76516 1.00385 0.56802 0.0
H3327 H 0.61382 0.99049 0.58525 0.0
H3328 H 0.66729 0.98825 0.57595 0.0
H3329 H 0.69285 0.99749 0.58459 0.0
H3330 H 0.73907 0.02787 0.57912 0.0
H3331 H 0.86091 0.02807 0.5789 0.0
H3332 H 0.47151 0.25264 0.57969 0.0
H3333 H 0.59307 0.25238 0.57919 0.0
H3334 H 0.59193 0.28155 0.56298 0.0
H3335 H 0.47056 0.28197 0.56352 0.0
H3336 H 0.67337 0.25045 0.56439 0.0
H3337 H 0.72707 0.28958 0.58195 0.0
H3338 H 0.6465 0.28305 0.58227 0.0
H3339 H 0.67071 0.29109 0.57285 0.0
C3340 C 0.49704 0.2591 0.57611 0.0
C3341 C 0.46102 0.26736 0.57168 0.0
C3342 C 0.56664 0.25891 0.57581 0.0
C3343 C 0.60184 0.26701 0.57113 0.0
C3344 C 0.56608 0.27533 0.56678 0.0
H3345 H 1.01863 0.27873 0.55892 0.0
H3346 H 0.89714 0.27897 0.55966 0.0
C3347 C 0.4965 0.27553 0.56707 0.0
C3348 C 0.67569 0.26648 0.57049 0.0
H3349 H 0.81801 0.28097 0.5747 0.0
C3350 C 0.70502 0.25709 0.5667 0.0
C3351 C 0.71706 0.27516 0.57346 0.0
C3352 C 0.68891 0.28525 0.57794 0.0
C3353 C 0.77431 0.25624 0.56565 0.0
C3354 C 0.81566 0.26494 0.56861 0.0
C3355 C 0.78635 0.27432 0.57241 0.0
C3356 C 0.88945 0.26445 0.56788 0.0
C3357 C 0.80253 0.24615 0.56119 0.0
C3358 C 0.92576 0.25622 0.57225 0.0
C3359 C 0.99531 0.25604 0.57183 0.0
C3360 C 1.03016 0.26413 0.56705 0.0
C3361 C 0.99357 0.27233 0.56262 0.0
C3362 C 0.92403 0.2725 0.56306 0.0
H3363 H 0.76425 0.24172 0.55727 0.0
H3364 H 0.84442 0.24838 0.55677 0.0
H3365 H 0.82158 0.2404 0.56628 0.0
H3366 H 0.90038 0.25004 0.57615 0.0
H3367 H 1.02173 0.24965 0.57538 0.0
H3368 H 0.85832 0.28175 0.69884 0.0
H3369 H 0.73688 0.28114 0.69947 0.0
H3370 H 0.73688 0.25199 0.68318 0.0
H3371 H 0.85835 0.25244 0.6826 0.0
H3372 H 0.64089 0.28171 0.68616 0.0
H3373 H 0.62853 0.24226 0.70462 0.0
H3374 H 0.70451 0.25004 0.70348 0.0
H3375 H 0.6753 0.24156 0.69456 0.0
C3376 C 0.8326 0.27523 0.69535 0.0
C3377 C 0.86835 0.26711 0.69071 0.0
C3378 C 0.76306 0.2749 0.69572 0.0
C3379 C 0.72771 0.2664 0.69152 0.0
C3380 C 0.76307 0.25848 0.68665 0.0
H3381 H 0.30797 0.24973 0.68706 0.0
H3382 H 0.42937 0.25031 0.6862 0.0
C3383 C 0.83262 0.25881 0.68627 0.0
C3384 C 0.65394 0.26584 0.69225 0.0
H3385 H 0.52629 0.24959 0.69952 0.0
C3386 C 0.61584 0.2747 0.68911 0.0
C3387 C 0.6212 0.25669 0.69611 0.0
C3388 C 0.65937 0.24713 0.69996 0.0
C3389 C 0.54601 0.2746 0.68957 0.0
C3390 C 0.51328 0.26546 0.69343 0.0
C3391 C 0.55135 0.25658 0.69656 0.0
C3392 C 0.43958 0.26495 0.69425 0.0
C3393 C 0.50778 0.28416 0.68574 0.0
C3394 C 0.40487 0.27282 0.69924 0.0
C3395 C 0.33538 0.2725 0.69977 0.0
C3396 C 0.29907 0.26426 0.69534 0.0
C3397 C 0.33417 0.2562 0.69055 0.0
C3398 C 0.40366 0.25653 0.69003 0.0
H3399 H 0.53856 0.28905 0.68108 0.0
H3400 H 0.4626 0.28126 0.68223 0.0
H3401 H 0.49188 0.28972 0.69116 0.0
H3402 H 0.43153 0.27926 0.70271 0.0
H3403 H 0.31016 0.27882 0.70355 0.0
H3404 H 1.02126 0.99703 0.70093 0.0
H3405 H 0.89965 0.99684 0.70031 0.0
H3406 H 0.90113 0.0285 0.6874 0.0
H3407 H 1.02232 0.02871 0.68786 0.0
H3408 H 0.80715 1.01138 0.70727 0.0
H3409 H 0.7864 1.01026 0.67082 0.0
H3410 H 0.86354 1.0076 0.67651 0.0
H3411 H 0.83537 0.02153 0.6749 0.0
C3412 C 0.99582 1.00396 0.69795 0.0
C3413 C 1.03193 1.01285 0.69439 0.0
C3414 C 0.9262 1.00384 0.6976 0.0
C3415 C 0.89118 1.01255 0.69365 0.0
C3416 C 0.92698 0.02154 0.69028 0.0
H3417 H 0.472 0.02782 0.68563 0.0
H3418 H 0.59367 0.02796 0.68609 0.0
C3419 C 0.99648 0.02167 0.69061 0.0
C3420 C 0.81725 1.01234 0.69317 0.0
H3421 H 0.68636 1.01324 0.67879 0.0
C3422 C 0.78076 1.01172 0.70104 0.0
C3423 C 0.78271 1.01282 0.68503 0.0
C3424 C 0.81892 1.01299 0.67632 0.0
C3425 C 0.71085 1.01178 0.70102 0.0
C3426 C 0.67634 1.01227 0.69289 0.0
C3427 C 0.7128 1.01289 0.68501 0.0
C3428 C 0.60243 1.01204 0.69242 0.0
C3429 C 0.67456 1.01156 0.70972 0.0
C3430 C 0.56682 1.00295 0.69564 0.0
C3431 C 0.49731 1.00284 0.69539 0.0
C3432 C 0.46163 1.0118 0.69185 0.0
C3433 C 0.49758 0.02079 0.68842 0.0
C3434 C 0.56723 0.02088 0.68868 0.0
H3435 H 0.70718 0.01415 0.71526 0.0
H3436 H 0.63033 0.01703 0.70957 0.0
H3437 H 0.65741 1.00303 0.71107 0.0
H3438 H 0.59285 0.99592 0.69837 0.0
H3439 H 0.47163 0.99573 0.69804 0.0
H3440 H 0.7713 0.02842 0.45333 0.0
H3441 H 0.6498 0.02869 0.45266 0.0
H3442 H 0.65182 0.99906 0.43694 0.0
H3443 H 0.7732 0.99864 0.43764 0.0
H3444 H 0.57027 0.03015 0.43768 0.0
H3445 H 0.51589 0.99161 0.45599 0.0
H3446 H 0.59634 0.99819 0.45629 0.0
H3447 H 0.57278 0.98987 0.44698 0.0
C3448 C 0.74598 0.02187 0.44981 0.0
C3449 C 0.78224 1.01347 0.44558 0.0
C3450 C 0.67642 0.02206 0.44942 0.0
C3451 C 0.64148 0.01383 0.44483 0.0
C3452 C 0.67747 1.00539 0.44066 0.0
H3453 H 0.22397 1.00173 0.43309 0.0
H3454 H 0.34548 1.00149 0.43371 0.0
C3455 C 0.74704 1.00519 0.44105 0.0
C3456 C 0.56767 0.01434 0.44412 0.0
H3457 H 0.42513 1.00008 0.44863 0.0
C3458 C 0.5385 0.0236 0.44011 0.0
C3459 C 0.52617 1.00578 0.44726 0.0
C3460 C 0.55419 0.99584 0.45194 0.0
C3461 C 0.46922 0.02445 0.43904 0.0
C3462 C 0.42771 0.01589 0.44219 0.0
C3463 C 0.45689 1.00663 0.44619 0.0
C3464 C 0.35388 0.0164 0.44147 0.0
C3465 C 0.44122 0.03438 0.43435 0.0
C3466 C 0.31792 0.02486 0.44563 0.0
C3467 C 0.24834 0.02504 0.44527 0.0
C3468 C 0.21308 0.01672 0.44079 0.0
C3469 C 0.24932 1.00831 0.43657 0.0
C3470 C 0.3189 1.00813 0.43694 0.0
H3471 H 0.4795 0.03859 0.43028 0.0
H3472 H 0.39896 0.03204 0.43003 0.0
H3473 H 0.42282 0.04038 0.43931 0.0
H3474 H 0.34359 0.03121 0.44932 0.0
H3475 H 0.2222 0.0316 0.44865 0.0
H3476 H 0.60334 0.77597 0.43162 0.0
H3477 H 0.48192 0.77644 0.43228 0.0
H3478 H 0.48208 0.74689 0.44805 0.0
H3479 H 0.60353 0.74626 0.44735 0.0
H3480 H 0.38567 0.74673 0.43474 0.0
H3481 H 0.37435 0.78563 0.45398 0.0
H3482 H 0.42108 0.78659 0.44393 0.0
H3483 H 0.45014 0.77783 0.45268 0.0
C3484 C 0.57767 0.76952 0.43519 0.0
C3485 C 0.61345 0.7611 0.43947 0.0
C3486 C 0.50815 0.76985 0.43562 0.0
C3487 C 0.47285 0.76183 0.44037 0.0
C3488 C 0.50823 0.75322 0.44441 0.0
H3489 H 0.05505 0.74926 0.45213 0.0
H3490 H 0.17641 0.74881 0.45131 0.0
C3491 C 0.57776 0.75287 0.44399 0.0
C3492 C 0.39912 0.7624 0.44115 0.0
H3493 H 0.2719 0.77852 0.44875 0.0
C3494 C 0.3608 0.75365 0.43783 0.0
C3495 C 0.36661 0.77145 0.44519 0.0
C3496 C 0.40504 0.78087 0.44922 0.0
C3497 C 0.29096 0.7538 0.4383 0.0
C3498 C 0.25847 0.76284 0.44234 0.0
C3499 C 0.29677 0.7716 0.44565 0.0
C3500 C 0.18477 0.76338 0.44317 0.0
C3501 C 0.25251 0.74437 0.43427 0.0
C3502 C 0.14903 0.77195 0.43914 0.0
C3503 C 0.07952 0.77228 0.43964 0.0
C3504 C 0.04424 0.76408 0.44424 0.0
C3505 C 0.0804 0.75569 0.4485 0.0
C3506 C 0.14988 0.75537 0.44798 0.0
H3507 H 0.28315 0.73962 0.4295 0.0
H3508 H 0.23657 0.73865 0.43957 0.0
H3509 H 0.20735 0.74741 0.43083 0.0
H3510 H 0.17487 0.77827 0.43544 0.0
H3511 H 0.05345 0.77887 0.43628 0.0
H3512 H 0.21943 0.74555 0.31362 0.0
H3513 H 0.34075 0.74579 0.31341 0.0
H3514 H 0.34038 0.77786 0.32567 0.0
H3515 H 0.21884 0.77767 0.32603 0.0
H3516 H 0.42371 0.76067 0.305 0.0
H3517 H 0.4712 0.76082 0.34104 0.0
H3518 H 0.391 0.75749 0.33642 0.0
H3519 H 0.41695 0.77163 0.33734 0.0
C3520 C 0.24491 0.75264 0.31636 0.0
C3521 C 0.20895 0.76158 0.31988 0.0
C3522 C 0.31447 0.75276 0.31621 0.0
C3523 C 0.34987 0.76178 0.31962 0.0
C3524 C 0.3143 0.77071 0.32316 0.0
H3525 H 0.769 0.77861 0.32331 0.0
H3526 H 0.6477 0.77837 0.32359 0.0
C3527 C 0.24463 0.7706 0.32333 0.0
C3528 C 0.42383 0.76197 0.31915 0.0
H3529 H 0.5644 0.76367 0.33175 0.0
C3530 C 0.4545 0.76127 0.31085 0.0
C3531 C 0.46405 0.76279 0.32679 0.0
C3532 C 0.4343 0.76313 0.33591 0.0
C3533 C 0.52407 0.76157 0.30996 0.0
C3534 C 0.56432 0.76237 0.31759 0.0
C3535 C 0.53363 0.76307 0.3259 0.0
C3536 C 0.63831 0.76254 0.31713 0.0
C3537 C 0.55372 0.76129 0.30082 0.0
C3538 C 0.67377 0.7537 0.31343 0.0
C3539 C 0.74342 0.75382 0.31321 0.0
C3540 C 0.77921 0.76275 0.31677 0.0
C3541 C 0.7434 0.77159 0.32048 0.0
C3542 C 0.67385 0.77147 0.32067 0.0
H3543 H 0.5169 0.76373 0.29572 0.0
H3544 H 0.5974 0.76686 0.30035 0.0
H3545 H 0.5704 0.75278 0.29932 0.0
H3546 H 0.64762 0.7466 0.31083 0.0
H3547 H 0.76913 0.74682 0.31037 0.0
H3548 H 0.0636 0.03071 0.31079 0.0
H3549 H 0.18528 0.03079 0.31117 0.0
H3550 H 0.18417 0.99954 0.32469 0.0
H3551 H 0.06294 0.9993 0.32427 0.0
H3552 H 0.26863 0.03024 0.32601 0.0
H3553 H 0.31441 0.99403 0.30448 0.0
H3554 H 0.23485 1.00088 0.305 0.0
H3555 H 0.25899 0.99136 0.3135 0.0
C3556 C 0.08913 0.02379 0.31377 0.0
C3557 C 0.05311 0.01497 0.31746 0.0
C3558 C 0.15879 0.02387 0.31401 0.0
C3559 C 0.19401 0.0151 0.31785 0.0
C3560 C 0.15827 1.0063 0.32153 0.0
H3561 H 0.61304 1.00057 0.32695 0.0
H3562 H 0.49138 1.00053 0.32669 0.0
C3563 C 0.08872 1.00621 0.32131 0.0
C3564 C 0.26796 0.01534 0.3183 0.0
H3565 H 0.40766 1.00124 0.31215 0.0
C3566 C 0.29907 0.02394 0.32294 0.0
C3567 C 0.30771 1.00707 0.31434 0.0
C3568 C 0.27747 0.99786 0.30898 0.0
C3569 C 0.36861 0.02441 0.32384 0.0
C3570 C 0.40839 0.01615 0.31986 0.0
C3571 C 0.37726 1.00755 0.31523 0.0
C3572 C 0.48239 0.01639 0.32029 0.0
C3573 C 0.39875 0.0336 0.32923 0.0
C3574 C 0.51803 0.02529 0.31674 0.0
C3575 C 0.5876 0.02536 0.31689 0.0
C3576 C 0.62335 0.01648 0.32055 0.0
C3577 C 0.58743 1.00758 0.32412 0.0
C3578 C 0.51775 1.00752 0.32396 0.0
H3579 H 0.3619 0.03731 0.33381 0.0
H3580 H 0.44182 0.0306 0.33314 0.0
H3581 H 0.41646 0.04019 0.32474 0.0
H3582 H 0.49205 0.03212 0.3137 0.0
H3583 H 0.61327 0.03234 0.31403 0.0
H3584 H 0.36722 0.49652 0.56385 0.0
H3585 H 0.24606 0.49663 0.56389 0.0
H3586 H 0.24676 0.52738 0.57818 0.0
H3587 H 0.3685 0.52745 0.57806 0.0
H3588 H 0.15738 0.49664 0.57769 0.0
H3589 H 0.12566 0.53434 0.55738 0.0
H3590 H 0.20439 0.52733 0.5584 0.0
H3591 H 0.17571 0.53626 0.56707 0.0
C3592 C 0.3419 0.50334 0.56701 0.0
C3593 C 0.378 0.51202 0.57091 0.0
C3594 C 0.2724 0.50337 0.56703 0.0
C3595 C 0.23714 0.51209 0.57091 0.0
C3596 C 0.27281 0.52067 0.57497 0.0
H3597 H 0.8154 0.52596 0.5768 0.0
H3598 H 0.93665 0.52599 0.57745 0.0
C3599 C 0.34252 0.52066 0.57495 0.0
C3600 C 0.16312 0.51208 0.57074 0.0
H3601 H 1.02798 0.52654 0.56345 0.0
C3602 C 0.1291 0.50317 0.57456 0.0
C3603 C 0.12614 0.52059 0.56664 0.0
C3604 C 0.1597 0.53013 0.56206 0.0
C3605 C 0.05928 0.5026 0.5745 0.0
C3606 C 1.02238 0.5111 0.57039 0.0
C3607 C 0.05632 0.52004 0.5666 0.0
C3608 C 0.94849 0.51092 0.56999 0.0
C3609 C 1.02556 0.49302 0.57899 0.0
C3610 C 0.91461 0.50248 0.5655 0.0
C3611 C 0.845 0.50242 0.56511 0.0
C3612 C 0.80785 0.51084 0.56918 0.0
C3613 C 0.84214 0.51932 0.57361 0.0
C3614 C 0.91161 0.51937 0.57398 0.0
H3615 H 0.05945 0.48874 0.58365 0.0
H3616 H 0.98082 0.4958 0.58265 0.0
H3617 H 1.00948 0.48697 0.57393 0.0
H3618 H 0.94205 0.49597 0.56223 0.0
H3619 H 0.82041 0.49579 0.5616 0.0
H3620 H 0.51768 0.7486 0.5721 0.0
H3621 H 0.39637 0.74917 0.57246 0.0
H3622 H 0.39909 0.78068 0.55932 0.0
H3623 H 0.52053 0.78006 0.55873 0.0
H3624 H 0.31647 0.76379 0.58063 0.0
H3625 H 0.26274 0.76451 0.54478 0.0
H3626 H 0.34397 0.76124 0.5491 0.0
H3627 H 0.31731 0.77536 0.54827 0.0
C3628 C 0.49259 0.75561 0.56918 0.0
C3629 C 0.52912 0.76426 0.56534 0.0
C3630 C 0.42306 0.75593 0.56941 0.0
C3631 C 0.38821 0.7649 0.56582 0.0
C3632 C 0.42451 0.77354 0.56195 0.0
H3633 H 0.96786 0.7828 0.56441 0.0
H3634 H 0.08939 0.78275 0.56382 0.0
C3635 C 0.49414 0.77319 0.56165 0.0
C3636 C 0.31426 0.76539 0.56649 0.0
H3637 H 0.17157 0.76786 0.55438 0.0
C3638 C 0.28485 0.76463 0.57488 0.0
C3639 C 0.27273 0.76652 0.559 0.0
C3640 C 0.30066 0.76685 0.54977 0.0
C3641 C 0.21548 0.76507 0.57599 0.0
C3642 C 0.17406 0.7662 0.5685 0.0
C3643 C 0.20334 0.76704 0.56012 0.0
C3644 C 0.1002 0.76634 0.5692 0.0
C3645 C 0.18714 0.76453 0.58518 0.0
C3646 C 0.06563 0.75712 0.57241 0.0
C3647 C 0.99604 0.75711 0.57276 0.0
C3648 C 0.95932 0.76631 0.56988 0.0
C3649 C 0.99424 0.77558 0.56673 0.0
C3650 C 0.06385 0.77556 0.56636 0.0
H3651 H 0.22512 0.76651 0.59026 0.0
H3652 H 0.1447 0.7703 0.58594 0.0
H3653 H 0.16876 0.75605 0.58645 0.0
H3654 H 0.09246 0.74984 0.5745 0.0
H3655 H 0.9711 0.7498 0.57517 0.0
H3656 H 0.80645 0.74813 0.68735 0.0
H3657 H 0.92796 0.74852 0.68674 0.0
H3658 H 0.92925 0.77867 0.70182 0.0
H3659 H 0.80796 0.77827 0.70259 0.0
H3660 H 1.00811 0.76448 0.67936 0.0
H3661 H 0.0652 0.76019 0.71497 0.0
H3662 H 0.98386 0.75736 0.71048 0.0
H3663 H 1.00955 0.77134 0.71252 0.0
C3664 C 0.83252 0.75478 0.69064 0.0
C3665 C 0.79721 0.76314 0.69507 0.0
C3666 C 0.90209 0.755 0.69026 0.0
C3667 C 0.93799 0.76355 0.69432 0.0
C3668 C 0.90291 0.77186 0.69879 0.0
H3669 H 0.35679 0.78129 0.69765 0.0
H3670 H 0.23528 0.78089 0.69821 0.0
C3671 C 0.83336 0.77164 0.69919 0.0
C3672 C 1.01181 0.76401 0.69355 0.0
H3673 H 0.1554 0.76489 0.70559 0.0
C3674 C 1.04034 0.7645 0.6851 0.0
C3675 C 0.05396 0.76409 0.70103 0.0
C3676 C 1.02675 0.76311 0.71026 0.0
C3677 C 0.10956 0.76527 0.68393 0.0
C3678 C 0.15171 0.76536 0.69141 0.0
C3679 C 0.12318 0.76486 0.69986 0.0
C3680 C 0.22552 0.76585 0.69064 0.0
C3681 C 0.13679 0.76624 0.6747 0.0
C3682 C 0.26076 0.75754 0.68619 0.0
C3683 C 0.33033 0.75776 0.68583 0.0
C3684 C 0.36633 0.76627 0.68997 0.0
C3685 C 0.33084 0.77464 0.69436 0.0
C3686 C 0.26127 0.77441 0.69471 0.0
H3687 H 0.09831 0.76914 0.66998 0.0
H3688 H 0.17959 0.77201 0.67447 0.0
H3689 H 0.15414 0.75802 0.67245 0.0
H3690 H 0.23453 0.75071 0.68317 0.0
H3691 H 0.35587 0.75112 0.68246 0.0
H3692 H 0.97377 0.52628 0.68252 0.0
H3693 H 0.09553 0.52655 0.6826 0.0
H3694 H 0.09783 0.49644 0.69768 0.0
H3695 H 0.97647 0.49605 0.6976 0.0
H3696 H 0.18011 0.52713 0.6976 0.0
H3697 H 0.22657 0.48984 0.67729 0.0
H3698 H 0.14698 0.49671 0.67756 0.0
H3699 H 0.17106 0.4877 0.6864 0.0
C3700 C 1.00009 0.51964 0.68578 0.0
C3701 C 0.96505 0.51112 0.69003 0.0
C3702 C 0.06976 0.51983 0.68584 0.0
C3703 C 0.10591 0.51145 0.69006 0.0
C3704 C 0.07113 0.5029 0.69425 0.0
H3705 H 0.52288 0.49724 0.69976 0.0
H3706 H 0.40146 0.49734 0.69914 0.0
C3707 C 1.00156 0.50272 0.69423 0.0
C3708 C 0.17984 0.51184 0.69038 0.0
H3709 H 0.31981 0.49759 0.68462 0.0
C3710 C 0.21073 0.52071 0.69471 0.0
C3711 C 0.21975 0.50344 0.68665 0.0
C3712 C 0.1896 0.49392 0.68164 0.0
C3713 C 0.28028 0.52128 0.69559 0.0
C3714 C 0.32026 0.51286 0.69187 0.0
C3715 C 0.28929 0.50403 0.6875 0.0
C3716 C 0.39423 0.51304 0.69244 0.0
C3717 C 0.31014 0.53073 0.70072 0.0
C3718 C 0.4309 0.5218 0.68884 0.0
C3719 C 0.50048 0.5218 0.68922 0.0
C3720 C 0.5351 0.51298 0.69314 0.0
C3721 C 0.49815 0.5042 0.69671 0.0
C3722 C 0.42857 0.50422 0.69635 0.0
H3723 H 0.27308 0.53466 0.70515 0.0
H3724 H 0.35302 0.52793 0.70475 0.0
H3725 H 0.32805 0.5371 0.69604 0.0
H3726 H 0.40576 0.52858 0.68561 0.0
H3727 H 0.52706 0.52866 0.68632 0.0
H3728 H 0.7236 0.53179 0.44852 0.0
H3729 H 0.84507 0.53143 0.44893 0.0
H3730 H 0.84523 0.50164 0.4334 0.0
H3731 H 0.72376 0.502 0.43285 0.0
H3732 H 0.92574 0.51515 0.45594 0.0
H3733 H 0.97979 0.52068 0.42035 0.0
H3734 H 0.89893 0.5234 0.42502 0.0
H3735 H 0.92426 0.50948 0.42271 0.0
C3736 C 0.74936 0.52522 0.44509 0.0
C3737 C 0.71367 0.51695 0.44061 0.0
C3738 C 0.81893 0.52502 0.44536 0.0
C3739 C 0.85449 0.51658 0.44111 0.0
C3740 C 0.81908 0.50836 0.43657 0.0
H3741 H 0.27406 0.49966 0.43697 0.0
H3742 H 0.15259 0.49997 0.4364 0.0
C3743 C 0.74947 0.50856 0.4363 0.0
C3744 C 0.92833 0.51614 0.44178 0.0
H3745 H 0.07101 0.51601 0.42954 0.0
C3746 C 0.95752 0.51539 0.45017 0.0
C3747 C 0.96987 0.51641 0.43425 0.0
C3748 C 0.9418 0.51764 0.42507 0.0
C3749 C 1.02687 0.51473 0.45124 0.0
C3750 C 0.06843 0.51503 0.44371 0.0
C3751 C 1.03923 0.51576 0.43532 0.0
C3752 C 0.1423 0.51466 0.44439 0.0
C3753 C 0.05483 0.51345 0.46042 0.0
C3754 C 0.17724 0.52282 0.44906 0.0
C3755 C 0.24681 0.52264 0.44944 0.0
C3756 C 0.28307 0.51434 0.44509 0.0
C3757 C 0.2479 0.50616 0.44043 0.0
C3758 C 0.17835 0.50633 0.44008 0.0
H3759 H 1.01695 0.51026 0.46509 0.0
H3760 H 0.09814 0.50777 0.46045 0.0
H3761 H 0.07159 0.52161 0.46286 0.0
H3762 H 0.15076 0.52947 0.45228 0.0
H3763 H 0.27213 0.52914 0.45301 0.0
H3764 H 0.10587 0.27596 0.43299 0.0
H3765 H 0.98439 0.27634 0.43378 0.0
H3766 H 0.98628 0.24643 0.44911 0.0
H3767 H 0.10766 0.24604 0.44846 0.0
H3768 H 0.88855 0.26116 0.42838 0.0
H3769 H 0.87794 0.26726 0.46461 0.0
H3770 H 0.95359 0.26897 0.45837 0.0
H3771 H 0.92485 0.2554 0.46124 0.0
C3772 C 0.08054 0.26942 0.43649 0.0
C3773 C 0.11679 0.26101 0.44071 0.0
C3774 C 1.01098 0.26966 0.43695 0.0
C3775 C 0.97615 0.26154 0.44165 0.0
C3776 C 1.01204 0.25293 0.44561 0.0
H3777 H 0.55875 0.24925 0.45312 0.0
H3778 H 0.68013 0.24883 0.45215 0.0
C3779 C 0.08156 0.25268 0.44518 0.0
C3780 C 0.90238 0.26209 0.44243 0.0
H3781 H 0.7755 0.2639 0.45736 0.0
C3782 C 0.86383 0.26181 0.43471 0.0
C3783 C 0.87005 0.26293 0.45069 0.0
C3784 C 0.90863 0.26376 0.4592 0.0
C3785 C 0.79396 0.26212 0.43504 0.0
C3786 C 0.76161 0.26296 0.44331 0.0
C3787 C 0.80019 0.26325 0.45102 0.0
C3788 C 0.68783 0.26348 0.4441 0.0
C3789 C 0.7554 0.26127 0.42653 0.0
C3790 C 0.65164 0.27201 0.44007 0.0
C3791 C 0.58216 0.27227 0.4406 0.0
C3792 C 0.54727 0.26405 0.44524 0.0
C3793 C 0.58382 0.25571 0.44949 0.0
C3794 C 0.65332 0.25545 0.44894 0.0
H3795 H 0.78604 0.25771 0.42114 0.0
H3796 H 0.71028 0.2561 0.42737 0.0
H3797 H 0.73947 0.26963 0.42445 0.0
H3798 H 0.67714 0.27846 0.43649 0.0
H3799 H 0.55581 0.27886 0.43729 0.0
H3800 H 0.26786 0.24896 0.30874 0.0
H3801 H 0.14654 0.24855 0.30951 0.0
H3802 H 0.14822 0.27791 0.32555 0.0
H3803 H 0.2697 0.27829 0.32495 0.0
H3804 H 0.06735 0.26177 0.33237 0.0
H3805 H 1.01145 0.26771 0.29689 0.0
H3806 H 0.06652 0.25639 0.29903 0.0
H3807 H 0.0928 0.27023 0.30149 0.0
C3808 C 0.24252 0.25542 0.31235 0.0
C3809 C 0.27877 0.26369 0.31675 0.0
C3810 C 0.17296 0.25519 0.31275 0.0
C3811 C 0.13798 0.26329 0.31748 0.0
C3812 C 0.17399 0.2716 0.32183 0.0
H3813 H 0.7198 0.27553 0.32943 0.0
H3814 H 0.8412 0.27592 0.3288 0.0
C3815 C 0.24356 0.27182 0.32145 0.0
C3816 C 0.06411 0.26285 0.31821 0.0
H3817 H 0.92084 0.26265 0.30608 0.0
C3818 C 1.03531 0.26202 0.32662 0.0
C3819 C 1.02217 0.26315 0.31071 0.0
C3820 C 0.04965 0.26452 0.30152 0.0
C3821 C 0.96601 0.26129 0.32773 0.0
C3822 C 0.92409 0.26156 0.32024 0.0
C3823 C 0.95289 0.2624 0.31182 0.0
C3824 C 0.85024 0.26108 0.32095 0.0
C3825 C 0.93845 0.25995 0.33692 0.0
C3826 C 0.81451 0.2527 0.31666 0.0
C3827 C 0.74493 0.25248 0.31697 0.0
C3828 C 0.70939 0.26068 0.32154 0.0
C3829 C 0.74538 0.26902 0.32591 0.0
C3830 C 0.81497 0.26923 0.32559 0.0
H3831 H 0.97672 0.25686 0.34159 0.0
H3832 H 0.92107 0.26808 0.33936 0.0
H3833 H 0.89559 0.25419 0.33697 0.0
H3834 H 0.84052 0.24634 0.31301 0.0
H3835 H 0.71902 0.24596 0.3135 0.0
H3836 H 0.10805 0.53095 0.31478 0.0
H3837 H 0.9868 0.53077 0.31487 0.0
H3838 H 0.98849 0.49968 0.32862 0.0
H3839 H 0.11019 0.49986 0.3287 0.0
H3840 H 0.90329 0.51569 0.3073 0.0
H3841 H 0.85851 0.51745 0.34337 0.0
H3842 H 0.93869 0.52033 0.33857 0.0
H3843 H 0.91147 0.50632 0.33997 0.0
C3844 C 0.08287 0.5241 0.31791 0.0
C3845 C 0.11921 0.51542 0.32176 0.0
C3846 C 1.01334 0.52401 0.31793 0.0
C3847 C 0.97827 0.51528 0.32184 0.0
C3848 C 1.01427 0.50662 0.32573 0.0
H3849 H 0.55689 0.49954 0.32601 0.0
H3850 H 0.67829 0.49944 0.32643 0.0
C3851 C 0.08399 0.50672 0.32574 0.0
C3852 C 0.90423 0.51509 0.32148 0.0
H3853 H 0.76442 0.51431 0.33428 0.0
C3854 C 0.87294 0.51543 0.3132 0.0
C3855 C 0.8645 0.51471 0.32918 0.0
C3856 C 0.89485 0.51478 0.33828 0.0
C3857 C 0.80331 0.51528 0.3124 0.0
C3858 C 0.76359 0.51496 0.3201 0.0
C3859 C 0.79482 0.51455 0.32838 0.0
C3860 C 0.68959 0.51505 0.31971 0.0
C3861 C 0.77296 0.51522 0.3033 0.0
C3862 C 0.65523 0.52391 0.31586 0.0
C3863 C 0.58561 0.52399 0.31558 0.0
C3864 C 0.54874 0.51524 0.31922 0.0
C3865 C 0.58341 0.50642 0.32313 0.0
C3866 C 0.65297 0.50635 0.32339 0.0
H3867 H 0.80916 0.51248 0.29822 0.0
H3868 H 0.72882 0.50973 0.30303 0.0
H3869 H 0.75678 0.5237 0.30159 0.0
H3870 H 0.68226 0.53084 0.31314 0.0
H3871 H 0.56076 0.53096 0.31257 0.0
H3872 H 0.80659 0.99671 0.06026 0.0
H3873 H 0.92809 0.99612 0.06104 0.0
H3874 H 0.92921 0.02773 0.07407 0.0
H3875 H 0.80798 0.02828 0.07351 0.0
H3876 H 1.02409 1.00957 0.05447 0.0
H3877 H 1.03876 1.00958 0.09095 0.0
H3878 H 0.96177 1.00738 0.08511 0.0
H3879 H 0.99348 0.02113 0.08666 0.0
C3880 C 0.83264 1.00356 0.06327 0.0
C3881 C 0.79728 1.0125 0.06688 0.0
C3882 C 0.9022 1.0032 0.06373 0.0
C3883 C 0.93792 1.01176 0.0678 0.0
C3884 C 0.90284 0.02087 0.07113 0.0
H3885 H 0.35513 0.02708 0.07586 0.0
H3886 H 0.23367 0.02698 0.07517 0.0
C3887 C 0.83337 0.02121 0.07073 0.0
C3888 C 1.01177 1.01122 0.06851 0.0
H3889 H 0.1405 1.01226 0.08324 0.0
C3890 C 0.04948 1.01008 0.06077 0.0
C3891 C 0.04511 1.01186 0.07673 0.0
C3892 C 1.00773 1.01244 0.08534 0.0
C3893 C 0.11938 1.00984 0.061 0.0
C3894 C 0.1526 1.01062 0.0692 0.0
C3895 C 0.115 1.01169 0.07695 0.0
C3896 C 0.2264 1.01046 0.06987 0.0
C3897 C 0.15721 1.00901 0.05244 0.0
C3898 C 0.26275 1.00111 0.06731 0.0
C3899 C 0.33231 1.00111 0.06773 0.0
C3900 C 0.36709 1.01047 0.07073 0.0
C3901 C 0.33028 0.01973 0.07349 0.0
C3902 C 0.26072 0.01969 0.0731 0.0
H3903 H 0.12539 1.011 0.04666 0.0
H3904 H 0.20067 0.01466 0.05245 0.0
H3905 H 0.1759 1.00047 0.05162 0.0
H3906 H 0.23729 0.99381 0.06496 0.0
H3907 H 0.35876 0.99382 0.06557 0.0
H3908 H 0.96945 0.28007 0.06265 0.0
H3909 H 0.09088 0.2795 0.06202 0.0
H3910 H 0.09163 0.2512 0.0792 0.0
H3911 H 0.97012 0.2516 0.07978 0.0
H3912 H 0.18655 0.28089 0.07526 0.0
H3913 H 0.20104 0.24047 0.05818 0.0
H3914 H 0.12464 0.24819 0.05906 0.0
H3915 H 0.15423 0.24024 0.06826 0.0
C3916 C 0.99532 0.27374 0.06633 0.0
C3917 C 0.95977 0.26584 0.07122 0.0
C3918 C 0.06487 0.27343 0.06595 0.0
C3919 C 0.10046 0.26518 0.07042 0.0
C3920 C 0.06528 0.25749 0.07553 0.0
H3921 H 0.52031 0.24915 0.07574 0.0
H3922 H 0.39889 0.24974 0.0765 0.0
C3923 C 0.99571 0.25779 0.07591 0.0
C3924 C 0.1743 0.26466 0.06973 0.0
H3925 H 0.30285 0.24816 0.06311 0.0
C3926 C 0.21196 0.27375 0.07257 0.0
C3927 C 0.20755 0.25535 0.06621 0.0
C3928 C 0.1699 0.24554 0.06267 0.0
C3929 C 0.28183 0.2737 0.07214 0.0
C3930 C 0.31505 0.26438 0.06864 0.0
C3931 C 0.27742 0.2553 0.0658 0.0
C3932 C 0.38885 0.26388 0.06791 0.0
C3933 C 0.31955 0.28352 0.07565 0.0
C3934 C 0.42371 0.27148 0.06268 0.0
C3935 C 0.49324 0.27115 0.06221 0.0
C3936 C 0.52945 0.26319 0.06695 0.0
C3937 C 0.49421 0.25541 0.07202 0.0
C3938 C 0.42469 0.25574 0.07246 0.0
H3939 H 0.28838 0.28866 0.08009 0.0
H3940 H 0.36463 0.28088 0.0793 0.0
H3941 H 0.33558 0.28876 0.07004 0.0
H3942 H 0.39712 0.27769 0.05896 0.0
H3943 H 0.51859 0.27724 0.05822 0.0
H3944 H 0.8104 0.2784 0.20339 0.0
H3945 H 0.93179 0.27883 0.20246 0.0
H3946 H 0.92904 0.24944 0.18646 0.0
H3947 H 0.80769 0.24902 0.18724 0.0
H3948 H 1.02734 0.26368 0.2075 0.0
H3949 H 1.03776 0.27047 0.17135 0.0
H3950 H 0.96201 0.27196 0.1776 0.0
H3951 H 0.99127 0.25848 0.17453 0.0
C3952 C 0.83553 0.27199 0.1997 0.0
C3953 C 0.79904 0.26371 0.19535 0.0
C3954 C 0.90504 0.27226 0.19917 0.0
C3955 C 0.93963 0.2643 0.19424 0.0
C3956 C 0.90349 0.25583 0.19012 0.0
H3957 H 0.35759 0.25212 0.18288 0.0
H3958 H 0.23613 0.25171 0.18371 0.0
C3959 C 0.834 0.25556 0.19063 0.0
C3960 C 1.01341 0.26485 0.19346 0.0
H3961 H 0.14031 0.26693 0.17854 0.0
C3962 C 0.05202 0.26445 0.20117 0.0
C3963 C 0.04574 0.26584 0.1852 0.0
C3964 C 1.00715 0.26682 0.1767 0.0
C3965 C 0.12188 0.26479 0.20084 0.0
C3966 C 0.1542 0.26577 0.19258 0.0
C3967 C 0.11561 0.26617 0.18487 0.0
C3968 C 0.22798 0.26634 0.19181 0.0
C3969 C 0.16048 0.26382 0.20934 0.0
C3970 C 0.26394 0.27486 0.19589 0.0
C3971 C 0.33346 0.27512 0.19544 0.0
C3972 C 0.36863 0.2669 0.19082 0.0
C3973 C 0.33231 0.25858 0.1865 0.0
C3974 C 0.26276 0.25832 0.18697 0.0
H3975 H 0.12983 0.26021 0.2147 0.0
H3976 H 0.2055 0.25864 0.20844 0.0
H3977 H 0.17657 0.27215 0.21148 0.0
H3978 H 0.23823 0.28129 0.19949 0.0
H3979 H 0.35962 0.28169 0.19881 0.0
H3980 H 0.52553 0.99756 0.20196 0.0
H3981 H 0.40401 0.99697 0.2012 0.0
H3982 H 0.40285 0.02839 0.18793 0.0
H3983 H 0.52408 0.02894 0.18848 0.0
H3984 H 0.30801 1.01058 0.20768 0.0
H3985 H 0.29336 1.00993 0.1712 0.0
H3986 H 0.37031 1.0078 0.17707 0.0
H3987 H 0.33881 0.02153 0.17539 0.0
C3988 C 0.49948 1.00436 0.1989 0.0
C3989 C 0.53482 1.01325 0.19522 0.0
C3990 C 0.42991 1.00401 0.19846 0.0
C3991 C 0.39418 1.01251 0.19433 0.0
C3992 C 0.42923 0.02157 0.19093 0.0
H3993 H 0.97703 0.0277 0.18607 0.0
H3994 H 0.09849 0.02761 0.18678 0.0
C3995 C 0.49871 0.02191 0.19131 0.0
C3996 C 0.32033 1.01196 0.19363 0.0
H3997 H 0.19163 1.01274 0.17889 0.0
C3998 C 0.28262 1.01098 0.20138 0.0
C3999 C 0.28701 1.01245 0.1854 0.0
C4000 C 0.32442 1.01287 0.17678 0.0
C4001 C 0.21272 1.01074 0.20115 0.0
C4002 C 0.17952 1.01138 0.19294 0.0
C4003 C 0.21713 1.01229 0.18518 0.0
C4004 C 0.10572 1.0112 0.19227 0.0
C4005 C 0.17488 1.01009 0.20972 0.0
C4006 C 0.06935 1.00191 0.19493 0.0
C4007 C 0.9998 1.0019 0.1945 0.0
C4008 C 0.96505 1.0112 0.19139 0.0
C4009 C 1.00187 0.0204 0.18852 0.0
C4010 C 0.07143 0.02037 0.18893 0.0
H4011 H 0.2067 1.01219 0.21547 0.0
H4012 H 0.13142 0.01573 0.20964 0.0
H4013 H 0.1562 1.00156 0.21064 0.0
H4014 H 0.09479 0.99466 0.19738 0.0
H4015 H 0.97334 0.99465 0.19675 0.0
H4016 H 0.72147 0.03235 0.94643 0.0
H4017 H 0.84307 0.0323 0.94696 0.0
H4018 H 0.84572 0.99938 0.93626 0.0
H4019 H 0.72437 0.99934 0.93565 0.0
H4020 H 0.9254 0.01733 0.95636 0.0
H4021 H 0.97795 0.01607 0.92045 0.0
H4022 H 0.89774 0.01991 0.92482 0.0
H4023 H 0.92143 1.00564 0.92425 0.0
C4024 C 0.74779 0.02513 0.94409 0.0
C4025 C 0.71278 0.01586 0.94096 0.0
C4026 C 0.81741 0.02511 0.94443 0.0
C4027 C 0.85364 0.01589 0.94156 0.0
C4028 C 0.81897 1.00667 0.93836 0.0
H4029 H 0.27099 0.99799 0.93851 0.0
H4030 H 0.14963 0.99859 0.93813 0.0
C4031 C 0.74939 1.00665 0.93805 0.0
C4032 C 0.9275 0.01572 0.94223 0.0
H4033 H 0.06951 1.01326 0.93004 0.0
C4034 C 0.957 0.0165 0.95061 0.0
C4035 C 0.96868 0.0146 0.93473 0.0
C4036 C 0.94006 0.0141 0.92554 0.0
C4037 C 1.02639 0.01593 0.9517 0.0
C4038 C 0.06769 0.0148 0.94419 0.0
C4039 C 1.03806 0.01409 0.93581 0.0
C4040 C 0.14164 0.01429 0.94484 0.0
C4041 C 0.05454 0.0162 0.96092 0.0
C4042 C 0.17801 0.02291 0.94874 0.0
C4043 C 0.24761 0.02254 0.94903 0.0
C4044 C 0.28253 1.01361 0.94533 0.0
C4045 C 0.24594 1.00499 0.94145 0.0
C4046 C 0.17639 1.00533 0.9412 0.0
H4047 H 1.01673 0.01383 0.96591 0.0
H4048 H 0.09782 1.01058 0.96156 0.0
H4049 H 0.07129 0.0247 0.96246 0.0
H4050 H 0.15266 0.03005 0.95139 0.0
H4051 H 0.27403 0.0294 0.95199 0.0
H4052 H 0.11241 0.77553 0.93371 0.0
H4053 H 0.99098 0.77595 0.93453 0.0
H4054 H 0.99271 0.74607 0.9499 0.0
H4055 H 0.11411 0.74565 0.94923 0.0
H4056 H 0.8949 0.76085 0.92917 0.0
H4057 H 0.88495 0.76696 0.96541 0.0
H4058 H 0.96058 0.76859 0.95915 0.0
H4059 H 0.93144 0.75505 0.96203 0.0
C4060 C 0.08706 0.769 0.93723 0.0
C4061 C 0.12327 0.76059 0.94145 0.0
C4062 C 1.01753 0.76926 0.9377 0.0
C4063 C 0.98267 0.76117 0.94243 0.0
C4064 C 1.01851 0.75256 0.94639 0.0
H4065 H 0.56541 0.74907 0.95394 0.0
H4066 H 0.68674 0.74864 0.95297 0.0
C4067 C 0.08802 0.75229 0.94594 0.0
C4068 C 0.90894 0.76176 0.94322 0.0
H4069 H 0.78232 0.76368 0.95818 0.0
C4070 C 0.87028 0.76152 0.93551 0.0
C4071 C 0.87675 0.76263 0.95149 0.0
C4072 C 0.91546 0.76343 0.96 0.0
C4073 C 0.80043 0.7619 0.93585 0.0
C4074 C 0.76824 0.76277 0.94413 0.0
C4075 C 0.80691 0.76302 0.95184 0.0
C4076 C 0.6945 0.76332 0.94494 0.0
C4077 C 0.76172 0.76109 0.92735 0.0
C4078 C 0.65835 0.77187 0.94094 0.0
C4079 C 0.58887 0.77214 0.94147 0.0
C4080 C 0.55397 0.76391 0.94609 0.0
C4081 C 0.59049 0.75555 0.95032 0.0
C4082 C 0.65997 0.75528 0.94977 0.0
H4083 H 0.79221 0.75753 0.92195 0.0
H4084 H 0.71654 0.75595 0.9282 0.0
H4085 H 0.74589 0.76947 0.9253 0.0
H4086 H 0.68389 0.77833 0.93736 0.0
H4087 H 0.56252 0.77874 0.93816 0.0
H4088 H 0.26883 0.77781 0.82448 0.0
H4089 H 0.14748 0.77743 0.82529 0.0
H4090 H 0.14447 0.74741 0.81004 0.0
H4091 H 0.26583 0.74781 0.80907 0.0
H4092 H 0.04874 0.76236 0.80467 0.0
H4093 H 1.03941 0.75694 0.84098 0.0
H4094 H 0.08571 0.76881 0.83747 0.0
H4095 H 0.11498 0.75522 0.83472 0.0
C4096 C 0.24246 0.77114 0.82125 0.0
C4097 C 0.27733 0.76281 0.81674 0.0
C4098 C 0.17298 0.77089 0.82179 0.0
C4099 C 0.13679 0.76226 0.8179 0.0
C4100 C 0.17128 0.75411 0.81316 0.0
H4101 H 0.71716 0.74448 0.81391 0.0
H4102 H 0.83855 0.74491 0.8132 0.0
C4103 C 0.24077 0.75436 0.8126 0.0
C4104 C 0.06305 0.76172 0.81873 0.0
H4105 H 0.93662 0.76011 0.83375 0.0
C4106 C 1.02424 0.76182 0.81103 0.0
C4107 C 1.03098 0.76103 0.82702 0.0
C4108 C 0.06982 0.76039 0.83552 0.0
C4109 C 0.95441 0.76145 0.8114 0.0
C4110 C 0.92234 0.76074 0.81969 0.0
C4111 C 0.96113 0.76065 0.82739 0.0
C4112 C 0.84861 0.76015 0.82051 0.0
C4113 C 0.91555 0.76208 0.8029 0.0
C4114 C 0.81376 0.76833 0.82517 0.0
C4115 C 0.74423 0.76805 0.82566 0.0
C4116 C 0.70801 0.75956 0.82154 0.0
C4117 C 0.74326 0.75118 0.81713 0.0
C4118 C 0.81276 0.75146 0.81665 0.0
H4119 H 0.94597 0.76551 0.79744 0.0
H4120 H 0.8996 0.75366 0.80096 0.0
H4121 H 0.87042 0.76725 0.8037 0.0
H4122 H 0.84031 0.77507 0.82826 0.0
H4123 H 0.71889 0.77464 0.82912 0.0
H4124 H 0.55788 0.99857 0.82446 0.0
H4125 H 0.67916 0.99895 0.82493 0.0
H4126 H 0.67921 0.03017 0.81137 0.0
H4127 H 0.55761 0.02995 0.81094 0.0
H4128 H 0.77162 0.99998 0.81118 0.0
H4129 H 0.79378 0.0364 0.83319 0.0
H4130 H 0.7166 0.02905 0.83169 0.0
H4131 H 0.74458 0.03865 0.82347 0.0
C4132 C 0.58343 1.00554 0.82157 0.0
C4133 C 0.54758 0.01427 0.8177 0.0
C4134 C 0.65296 1.00573 0.82184 0.0
C4135 C 0.68836 0.01467 0.81832 0.0
C4136 C 0.65296 0.02329 0.8143 0.0
H4137 H 0.1074 0.03103 0.81403 0.0
H4138 H 0.98613 0.03067 0.81362 0.0
C4139 C 0.58333 0.02311 0.814 0.0
C4140 C 0.76228 0.01487 0.81881 0.0
H4141 H 0.89375 0.02943 0.8271 0.0
C4142 C 0.79834 1.0064 0.81468 0.0
C4143 C 0.79716 0.02324 0.82339 0.0
C4144 C 0.7612 0.03231 0.82826 0.0
C4145 C 0.86824 1.00618 0.81487 0.0
C4146 C 0.90314 0.01455 0.81947 0.0
C4147 C 0.86705 0.02302 0.82359 0.0
C4148 C 0.9771 0.01476 0.81995 0.0
C4149 C 0.9041 0.99714 0.80996 0.0
C4150 C 1.01266 1.00603 0.8238 0.0
C4151 C 0.0823 1.0062 0.82404 0.0
C4152 C 0.11795 0.01514 0.82048 0.0
C4153 C 0.08195 0.02398 0.81682 0.0
C4154 C 1.01241 0.0238 0.81658 0.0
H4155 H 0.87161 0.99316 0.80496 0.0
H4156 H 0.94905 1.00038 0.8066 0.0
H4157 H 0.92005 0.99071 0.81471 0.0
H4158 H 0.98653 0.99907 0.82662 0.0
H4159 H 0.10811 0.99926 0.82696 0.0
H4160 H 0.97879 0.52904 0.04165 0.0
H4161 H 0.97095 0.52715 0.02563 0.0
H4162 H 0.12903 0.50315 0.02604 0.0
H4163 H 0.13648 0.50492 0.04215 0.0
H4164 H 0.06573 0.53124 0.01293 0.0
H4165 H 0.98697 0.48742 0.01157 0.0
H4166 H 0.98515 0.49538 0.02164 0.0
H4167 H 0.06223 0.48976 0.01766 0.0
C4168 C 1.01173 0.52331 0.03834 0.0
C4169 C 0.05824 0.51712 0.04318 0.0
C4170 C 1.00724 0.52225 0.02917 0.0
C4171 C 0.04881 0.51492 0.02459 0.0
C4172 C 0.09548 0.50871 0.02941 0.0
H4173 H 0.09921 0.49791 0.96927 0.0
H4174 H 0.10696 0.49985 0.98529 0.0
C4175 C 0.1 0.50977 0.03862 0.0
C4176 C 0.04404 0.51402 0.01479 0.0
H4177 H 1.01301 0.49595 0.99795 0.0
C4178 C 0.05396 0.52353 0.00966 0.0
C4179 C 1.02863 0.50396 0.01049 0.0
C4180 C 1.0145 0.49356 0.01561 0.0
C4181 C 0.05018 0.52322 1.00039 0.0
C4182 C 1.03475 0.51317 0.99609 0.0
C4183 C 1.02479 0.50366 1.00122 0.0
C4184 C 1.03008 0.51226 0.98628 0.0
C4185 C 0.06447 0.53362 0.99527 0.0
C4186 C 0.98397 0.51854 0.98143 0.0
C4187 C 0.97957 0.51747 0.97223 0.0
C4188 C 1.02079 0.51001 0.9677 0.0
C4189 C 0.06668 0.50372 0.97256 0.0
C4190 C 0.07112 0.50481 0.98173 0.0
H4191 H 0.09236 0.53973 0.9993 0.0
H4192 H 0.09355 0.5318 0.98922 0.0
H4193 H 1.0168 0.53747 0.99326 0.0
H4194 H 0.95077 0.52419 0.98478 0.0
H4195 H 0.94357 0.5224 0.96867 0.0
H4196 H 0.38719 0.75586 0.97036 0.0
H4197 H 0.37836 0.75386 0.98646 0.0
H4198 H 0.22811 0.7792 0.98703 0.0
H4199 H 0.23595 0.78109 0.97102 0.0
H4200 H 0.39986 0.76914 0.99973 0.0
H4201 H 0.13844 0.75483 1.00085 0.0
H4202 H 0.18583 0.7552 0.99076 0.0
H4203 H 0.14877 0.76759 0.99504 0.0
C4204 C 0.35208 0.76095 0.97393 0.0
C4205 C 0.31215 0.76861 0.96941 0.0
C4206 C 0.34709 0.75982 0.98313 0.0
C4207 C 0.30175 0.76625 0.98798 0.0
C4208 C 0.26234 0.77395 0.98346 0.0
H4209 H 0.20362 0.77229 0.04427 0.0
H4210 H 0.21351 0.77522 0.02825 0.0
C4211 C 0.26722 0.77507 0.97429 0.0
C4212 C 0.29668 0.76514 0.99778 0.0
H4213 H 0.18759 0.75975 0.01456 0.0
C4214 C 0.3535 0.76703 1.00296 0.0
C4215 C 0.23613 0.76244 1.00205 0.0
C4216 C 0.17395 0.75979 0.9969 0.0
C4217 C 0.35125 0.76645 0.01223 0.0
C4218 C 0.29075 0.76375 0.01649 0.0
C4219 C 0.23386 0.7619 0.01132 0.0
C4220 C 0.28617 0.7623 0.02625 0.0
C4221 C 0.41352 0.76893 0.01741 0.0
C4222 C 0.32331 0.75404 0.03047 0.0
C4223 C 0.31756 0.75234 0.03956 0.0
C4224 C 0.27432 0.75883 0.04469 0.0
C4225 C 0.2374 0.76717 0.0405 0.0
C4226 C 0.24296 0.76883 0.03135 0.0
H4227 H 0.4497 0.77378 0.01347 0.0
H4228 H 0.40183 0.77357 0.02353 0.0
H4229 H 0.43774 0.76106 0.01931 0.0
H4230 H 0.35602 0.74875 0.02669 0.0
H4231 H 0.34659 0.74583 0.04257 0.0
H4232 H 1.00311 0.78724 0.28944 0.0
H4233 H 1.01608 0.78414 0.27362 0.0
H4234 H 1.01892 0.74901 0.27801 0.0
H4235 H 1.00447 0.75212 0.29393 0.0
H4236 H 0.11703 0.7743 0.26466 0.0
H4237 H 0.88207 0.75164 0.25847 0.0
H4238 H 0.89757 0.759 0.26861 0.0
H4239 H 0.93345 0.7456 0.26685 0.0
C4240 C 1.00599 0.77884 0.28704 0.0
C4241 C 1.00258 0.76991 0.29294 0.0
C4242 C 1.0136 0.77708 0.27798 0.0
C4243 C 1.01776 0.76634 0.27455 0.0
C4244 C 1.0145 0.75738 0.28044 0.0
H4245 H 0.07247 0.73965 0.22186 0.0
H4246 H 0.05967 0.74282 0.23768 0.0
C4247 C 1.00668 0.75915 0.28955 0.0
C4248 C 1.02716 0.76467 0.26486 0.0
H4249 H 0.95822 0.75268 0.24658 0.0
C4250 C 0.08214 0.7696 0.2607 0.0
C4251 C 0.98169 0.75856 0.25966 0.0
C4252 C 0.92003 0.75348 0.26359 0.0
C4253 C 0.09353 0.76843 0.25158 0.0
C4254 C 0.04809 0.76231 0.24639 0.0
C4255 C 0.9931 0.75738 0.25054 0.0
C4256 C 0.05756 0.7606 0.2367 0.0
C4257 C 0.15514 0.77352 0.24765 0.0
C4258 C 0.06057 0.76955 0.23078 0.0
C4259 C 0.06827 0.76775 0.22168 0.0
C4260 C 0.07252 0.75697 0.21831 0.0
C4261 C 0.06946 0.74807 0.22423 0.0
C4262 C 0.06195 0.74986 0.2333 0.0
H4263 H 0.19302 0.7754 0.25276 0.0
H4264 H 0.17773 0.76797 0.24265 0.0
H4265 H 0.14161 0.78136 0.24435 0.0
H4266 H 0.05601 0.77792 0.23319 0.0
H4267 H 0.07021 0.77476 0.21728 0.0
H4268 H 0.19368 0.50552 0.21993 0.0
H4269 H 0.20087 0.50383 0.23607 0.0
H4270 H 0.35177 0.52906 0.23661 0.0
H4271 H 0.34449 0.53083 0.22058 0.0
H4272 H 0.31173 0.49853 0.24669 0.0
H4273 H 0.21739 0.54031 0.2548 0.0
H4274 H 0.2076 0.5342 0.24402 0.0
H4275 H 0.28577 0.54018 0.2472 0.0
C4276 C 0.22816 0.51073 0.22351 0.0
C4277 C 0.26808 0.51838 0.21899 0.0
C4278 C 0.23229 0.50976 0.23273 0.0
C4279 C 0.27599 0.51647 0.2376 0.0
C4280 C 0.31658 0.52397 0.23305 0.0
H4281 H 0.37601 0.52267 0.29373 0.0
H4282 H 0.36813 0.52501 0.27764 0.0
C4283 C 0.31262 0.52493 0.22387 0.0
C4284 C 0.2805 0.51547 0.24739 0.0
H4285 H 0.26231 0.52991 0.26664 0.0
C4286 C 0.30055 0.50537 0.25105 0.0
C4287 C 0.26649 0.52442 0.2531 0.0
C4288 C 0.24254 0.53537 0.24961 0.0
C4289 C 0.30793 0.50403 0.26022 0.0
C4290 C 0.29338 0.51296 0.26595 0.0
C4291 C 0.27358 0.52307 0.26228 0.0
C4292 C 0.29684 0.51185 0.27575 0.0
C4293 C 0.33284 0.49311 0.26366 0.0
C4294 C 0.25818 0.50389 0.2801 0.0
C4295 C 0.26284 0.50253 0.28924 0.0
C4296 C 0.30578 0.50915 0.29429 0.0
C4297 C 0.34281 0.5174 0.29001 0.0
C4298 C 0.3383 0.51874 0.28082 0.0
H4299 H 0.36023 0.48844 0.25851 0.0
H4300 H 0.3661 0.49427 0.26943 0.0
H4301 H 0.28984 0.48802 0.26575 0.0
H4302 H 0.2244 0.49869 0.27641 0.0
H4303 H 0.23302 0.49619 0.29235 0.0
H4304 H 0.71356 0.27628 0.9701 0.0
H4305 H 0.70677 0.27382 0.98606 0.0
H4306 H 0.87107 0.25103 0.98511 0.0
H4307 H 0.87777 0.25339 0.96902 0.0
H4308 H 0.76425 0.24426 0.99626 0.0
H4309 H 0.84099 0.2873 1.0034 0.0
H4310 H 0.77154 0.28617 0.99602 0.0
H4311 H 0.8515 0.28104 0.99269 0.0
C4312 C 0.7481 0.2707 0.97327 0.0
C4313 C 0.79668 0.26512 0.96831 0.0
C4314 C 0.74439 0.26935 0.98241 0.0
C4315 C 0.78935 0.26244 0.98681 0.0
C4316 C 0.83627 0.25649 0.98185 0.0
H4317 H 0.84875 0.24542 0.04215 0.0
H4318 H 0.85436 0.24678 0.02608 0.0
C4319 C 0.84003 0.25784 0.97267 0.0
C4320 C 0.78748 0.26157 0.9966 0.0
H4321 H 0.80162 0.27678 0.01551 0.0
C4322 C 0.77283 0.25135 1.00047 0.0
C4323 C 0.79846 0.27084 1.00211 0.0
C4324 C 0.8171 0.28194 0.99837 0.0
C4325 C 0.76736 0.2502 0.00968 0.0
C4326 C 0.77814 0.25948 0.01519 0.0
C4327 C 0.79308 0.26968 0.0113 0.0
C4328 C 0.77501 0.25875 0.02498 0.0
C4329 C 0.74837 0.23911 0.01341 0.0
C4330 C 0.73005 0.2653 0.02978 0.0
C4331 C 0.72711 0.2646 0.03901 0.0
C4332 C 0.76931 0.25737 0.0436 0.0
C4333 C 0.81511 0.25099 0.0388 0.0
C4334 C 0.81808 0.2517 0.0296 0.0
H4335 H 0.72401 0.23381 0.00838 0.0
H4336 H 0.79385 0.2348 0.01571 0.0
H4337 H 0.71426 0.24003 0.01912 0.0
H4338 H 0.69674 0.27087 0.02638 0.0
H4339 H 0.69159 0.26966 0.04253 0.0
H4340 H 0.10927 0.28105 0.79206 0.0
H4341 H 0.11447 0.27888 0.77604 0.0
H4342 H 0.95993 0.2543 0.7772 0.0
H4343 H 0.95508 0.25634 0.79332 0.0
H4344 H 0.06609 0.24831 0.76629 0.0
H4345 H 0.97992 0.29054 0.75823 0.0
H4346 H 0.05001 0.29021 0.76555 0.0
H4347 H 0.97157 0.28468 0.76911 0.0
C4348 C 0.07623 0.27519 0.78891 0.0
C4349 C 1.03132 0.26894 0.79394 0.0
C4350 C 0.079 0.27401 0.77974 0.0
C4351 C 1.03665 0.26659 0.77537 0.0
C4352 C 0.99268 0.26015 0.78041 0.0
H4353 H 0.98077 0.24731 0.72046 0.0
H4354 H 0.97471 0.24938 0.73648 0.0
C4355 C 0.98989 0.26133 0.78961 0.0
C4356 C 1.03929 0.26546 0.76559 0.0
H4357 H 1.02255 0.2799 0.74635 0.0
C4358 C 0.05615 0.25519 0.76193 0.0
C4359 C 1.02659 0.27446 0.75988 0.0
C4360 C 1.0054 0.28557 0.76337 0.0
C4361 C 0.06197 0.25374 0.75275 0.0
C4362 C 0.04941 0.26275 0.74705 0.0
C4363 C 1.03244 0.27301 0.75071 0.0
C4364 C 0.05258 0.26165 0.73727 0.0
C4365 C 0.08311 0.24263 0.74926 0.0
C4366 C 0.09691 0.26811 0.7323 0.0
C4367 C 0.10021 0.26698 0.7231 0.0
C4368 C 0.05893 0.25941 0.7187 0.0
C4369 C 1.01369 0.25313 0.72366 0.0
C4370 C 1.01044 0.25426 0.73284 0.0
H4371 H 0.1082 0.23762 0.75441 0.0
H4372 H 1.03852 0.23802 0.74703 0.0
H4373 H 0.11727 0.24353 0.74356 0.0
H4374 H 0.12953 0.27393 0.73556 0.0
H4375 H 0.13525 0.27198 0.71944 0.0
H4376 H 0.73519 0.49565 0.79093 0.0
H4377 H 0.72984 0.49746 0.77489 0.0
H4378 H 0.87566 0.52349 0.77591 0.0
H4379 H 0.88204 0.52157 0.79201 0.0
H4380 H 0.6944 0.51486 0.76456 0.0
H4381 H 0.9554 0.50315 0.75748 0.0
H4382 H 0.91765 0.50105 0.76814 0.0
H4383 H 0.94754 0.51447 0.76504 0.0
C4384 C 0.76637 0.50174 0.78774 0.0
C4385 C 0.80952 0.5084 0.79274 0.0
C4386 C 0.76317 0.50277 0.77856 0.0
C4387 C 0.80316 0.51047 0.77413 0.0
C4388 C 0.84547 0.5173 0.77913 0.0
H4389 H 0.84658 0.53116 0.71974 0.0
H4390 H 0.85315 0.52836 0.73568 0.0
C4391 C 0.8488 0.51624 0.78834 0.0
C4392 C 0.79937 0.51144 0.76431 0.0
H4393 H 0.89212 0.50998 0.74544 0.0
C4394 C 0.7376 0.51373 0.76038 0.0
C4395 C 0.85562 0.50994 0.75883 0.0
C4396 C 0.92269 0.50691 0.76256 0.0
C4397 C 0.73085 0.51481 0.75118 0.0
C4398 C 0.78719 0.51339 0.7457 0.0
C4399 C 0.84889 0.51105 0.74962 0.0
C4400 C 0.78375 0.51474 0.73592 0.0
C4401 C 0.66377 0.51777 0.74741 0.0
C4402 C 0.74342 0.50789 0.73067 0.0
C4403 C 0.7396 0.50947 0.72151 0.0
C4404 C 0.77613 0.51794 0.71743 0.0
C4405 C 0.81752 0.5246 0.72268 0.0
C4406 C 0.82142 0.523 0.7318 0.0
H4407 H 0.62967 0.52105 0.75254 0.0
H4408 H 0.66875 0.524 0.7421 0.0
H4409 H 0.64064 0.51028 0.74453 0.0
H4410 H 0.71488 0.50131 0.73366 0.0
H4411 H 0.70766 0.50416 0.71763 0.0
H4412 H 0.98293 0.03116 0.54241 0.0
H4413 H 0.97429 0.02861 0.52646 0.0
H4414 H 0.12085 1.00271 0.52769 0.0
H4415 H 0.12859 1.0051 0.54375 0.0
H4416 H 0.0674 0.03131 0.5139 0.0
H4417 H 0.97861 0.98805 0.51303 0.0
H4418 H 0.97974 0.9961 0.52304 0.0
H4419 H 0.05483 0.98982 0.51901 0.0
C4420 C 1.01293 0.02484 0.53931 0.0
C4421 C 0.05639 0.01832 0.54436 0.0
C4422 C 1.00804 0.02341 0.53016 0.0
C4423 C 0.04628 0.01539 0.52581 0.0
C4424 C 0.08965 1.00881 0.53086 0.0
H4425 H 0.10027 0.99734 0.47065 0.0
H4426 H 0.10629 0.99943 0.48667 0.0
C4427 C 0.09438 1.01021 0.54005 0.0
C4428 C 0.04211 0.01426 0.51599 0.0
H4429 H 1.00912 0.996 0.49931 0.0
C4430 C 0.05432 0.02359 0.51072 0.0
C4431 C 1.02507 1.0042 0.51178 0.0
C4432 C 1.00817 0.99399 0.517 0.0
C4433 C 0.05109 0.02311 0.50145 0.0
C4434 C 1.03415 1.01306 0.49725 0.0
C4435 C 1.02204 1.00372 0.5025 0.0
C4436 C 1.03016 1.01198 0.48743 0.0
C4437 C 0.06752 0.03333 0.49621 0.0
C4438 C 0.98502 0.0183 0.48244 0.0
C4439 C 0.98148 0.01711 0.47322 0.0
C4440 C 1.02277 1.00955 0.46882 0.0
C4441 C 0.06772 1.00324 0.47383 0.0
C4442 C 0.07117 1.00441 0.48301 0.0
H4443 H 0.09555 0.03944 0.50021 0.0
H4444 H 0.0973 0.03124 0.49028 0.0
H4445 H 1.02069 0.03728 0.49399 0.0
H4446 H 0.95194 0.02405 0.48568 0.0
H4447 H 0.94618 0.02206 0.46956 0.0
H4448 H 0.22937 0.28086 0.4704 0.0
H4449 H 0.22306 0.27867 0.48641 0.0
H4450 H 0.37451 0.25355 0.48529 0.0
H4451 H 0.38165 0.25582 0.46923 0.0
H4452 H 0.19174 0.26033 0.49643 0.0
H4453 H 0.4476 0.27466 0.50394 0.0
H4454 H 0.4091 0.27674 0.49332 0.0
H4455 H 0.44335 0.26352 0.49616 0.0
C4456 C 0.26151 0.27489 0.47357 0.0
C4457 C 0.30646 0.26858 0.46857 0.0
C4458 C 0.25776 0.27363 0.48272 0.0
C4459 C 0.29904 0.26608 0.4871 0.0
C4460 C 0.34317 0.25961 0.4821 0.0
H4461 H 0.34804 0.24717 0.54199 0.0
H4462 H 0.35426 0.24923 0.52596 0.0
C4463 C 0.34697 0.26087 0.47292 0.0
C4464 C 0.29499 0.26493 0.49687 0.0
H4465 H 0.38533 0.26746 0.51587 0.0
C4466 C 0.23402 0.26192 0.50068 0.0
C4467 C 0.35012 0.26703 0.50243 0.0
C4468 C 0.41613 0.27076 0.49879 0.0
C4469 C 0.22696 0.26075 0.50987 0.0
C4470 C 0.28207 0.26285 0.51543 0.0
C4471 C 0.34306 0.26586 0.51162 0.0
C4472 C 0.27795 0.26176 0.52521 0.0
C4473 C 0.16096 0.25701 0.51351 0.0
C4474 C 0.23363 0.26823 0.53017 0.0
C4475 C 0.22987 0.26705 0.53936 0.0
C4476 C 0.27062 0.25941 0.54375 0.0
C4477 C 0.31572 0.25309 0.53879 0.0
C4478 C 0.31942 0.25427 0.52963 0.0
H4479 H 0.12965 0.25306 0.50836 0.0
H4480 H 0.16798 0.25107 0.51901 0.0
H4481 H 0.13355 0.26426 0.5161 0.0
H4482 H 0.20216 0.27425 0.52695 0.0
H4483 H 0.19509 0.27211 0.54302 0.0
H4484 H 0.32591 0.9901 0.78988 0.0
H4485 H 0.31284 0.99325 0.77408 0.0
H4486 H 0.30522 0.02832 0.77866 0.0
H4487 H 0.31963 0.02518 0.79458 0.0
H4488 H 0.2108 1.0027 0.76512 0.0
H4489 H 0.44246 0.02633 0.7591 0.0
H4490 H 0.42796 0.01886 0.7692 0.0
H4491 H 0.38989 0.0321 0.76748 0.0
C4492 C 0.32196 0.9985 0.78754 0.0
C4493 C 0.32406 1.0074 0.7935 0.0
C4494 C 0.31429 1.00029 0.77848 0.0
C4495 C 0.30873 1.01102 0.7751 0.0
C4496 C 0.31071 0.01996 0.78104 0.0
H4497 H 0.25312 0.03726 0.72225 0.0
H4498 H 0.2658 0.03423 0.73808 0.0
C4499 C 0.31858 0.01817 0.79015 0.0
C4500 C 0.29924 1.01269 0.76539 0.0
H4501 H 0.36728 0.02483 0.74714 0.0
C4502 C 0.24517 1.00752 0.76119 0.0
C4503 C 0.34401 0.01895 0.76021 0.0
C4504 C 0.40471 0.0243 0.76419 0.0
C4505 C 0.23403 1.00859 0.75205 0.0
C4506 C 0.27885 0.01484 0.74687 0.0
C4507 C 0.33288 0.02001 0.75107 0.0
C4508 C 0.26958 0.01644 0.73715 0.0
C4509 C 0.17331 1.00324 0.74808 0.0
C4510 C 0.26754 1.00746 0.73125 0.0
C4511 C 0.25988 1.00918 0.72213 0.0
C4512 C 0.25469 0.01993 0.71873 0.0
C4513 C 0.25685 0.02887 0.72464 0.0
C4514 C 0.2643 0.02715 0.73372 0.0
H4515 H 0.13541 1.00128 0.75317 0.0
H4516 H 0.15026 1.00865 0.74303 0.0
H4517 H 0.18802 0.9954 0.74484 0.0
H4518 H 0.27284 0.99911 0.73368 0.0
H4519 H 0.25874 1.00214 0.71775 0.0
H4520 H 0.71915 0.77967 0.469 0.0
H4521 H 0.70983 0.77739 0.48496 0.0
H4522 H 0.87204 0.75417 0.48455 0.0
H4523 H 0.88185 0.75648 0.46849 0.0
H4524 H 0.68398 0.75833 0.49469 0.0
H4525 H 0.92837 0.77634 0.5038 0.0
H4526 H 0.89177 0.77815 0.49303 0.0
H4527 H 0.9317 0.76538 0.49583 0.0
C4528 C 0.75305 0.7741 0.47229 0.0
C4529 C 0.80157 0.76831 0.46748 0.0
C4530 C 0.74757 0.77279 0.48144 0.0
C4531 C 0.79078 0.76573 0.48601 0.0
C4532 C 0.83892 0.75983 0.48121 0.0
H4533 H 0.74048 0.73995 0.53905 0.0
H4534 H 0.75099 0.74276 0.52314 0.0
C4535 C 0.84426 0.7611 0.47202 0.0
C4536 C 0.78407 0.76445 0.49577 0.0
H4537 H 0.86535 0.76836 0.51537 0.0
C4538 C 0.72369 0.76053 0.4992 0.0
C4539 C 0.83545 0.76746 0.50169 0.0
C4540 C 0.90035 0.77216 0.49844 0.0
C4541 C 0.71373 0.75935 0.50834 0.0
C4542 C 0.76564 0.7621 0.51425 0.0
C4543 C 0.82565 0.7662 0.51084 0.0
C4544 C 0.75891 0.76051 0.52397 0.0
C4545 C 0.64732 0.75529 0.51162 0.0
C4546 C 0.76064 0.76955 0.52979 0.0
C4547 C 0.7543 0.76796 0.53893 0.0
C4548 C 0.74699 0.75729 0.54242 0.0
C4549 C 0.7457 0.74828 0.53658 0.0
C4550 C 0.75154 0.74987 0.52747 0.0
H4551 H 0.60803 0.75609 0.50651 0.0
H4552 H 0.65155 0.74645 0.51341 0.0
H4553 H 0.63161 0.75992 0.51759 0.0
H4554 H 0.76651 0.77784 0.52725 0.0
H4555 H 0.75575 0.77505 0.54327 0.0
H4556 H 0.75548 0.03767 0.22204 0.0
H4557 H 0.7702 0.0349 0.23789 0.0
H4558 H 0.76805 0.99968 0.23399 0.0
H4559 H 0.75398 1.00244 0.21803 0.0
H4560 H 0.69261 0.02445 0.25018 0.0
H4561 H 0.93873 1.004 0.24804 0.0
H4562 H 0.90164 1.01108 0.2388 0.0
H4563 H 0.87469 0.99741 0.24169 0.0
C4564 C 0.75808 0.02932 0.22455 0.0
C4565 C 0.75398 0.02027 0.21876 0.0
C4566 C 0.76647 0.02775 0.23363 0.0
C4567 C 0.7714 0.01709 0.23718 0.0
C4568 C 0.76589 1.008 0.23143 0.0
H4569 H 0.82535 0.99091 0.28996 0.0
H4570 H 0.81002 0.99405 0.27418 0.0
C4571 C 0.7574 1.00958 0.22231 0.0
C4572 C 0.78195 0.0156 0.24688 0.0
H4573 H 0.88857 1.00469 0.26215 0.0
C4574 C 0.7356 0.02015 0.25279 0.0
C4575 C 0.83817 1.01005 0.25034 0.0
C4576 C 0.89155 1.00544 0.24441 0.0
C4577 C 0.74307 0.01911 0.262 0.0
C4578 C 0.79917 1.01352 0.26546 0.0
C4579 C 0.84562 1.009 0.25954 0.0
C4580 C 0.80926 1.01184 0.27515 0.0
C4581 C 0.68977 0.02372 0.26794 0.0
C4582 C 0.81499 0.0208 0.28103 0.0
C4583 C 0.82384 0.01901 0.29013 0.0
C4584 C 0.82738 1.00823 0.2935 0.0
C4585 C 0.82271 0.99932 0.28759 0.0
C4586 C 0.81397 1.0011 0.27854 0.0
H4587 H 0.64281 0.0253 0.2643 0.0
H4588 H 0.67913 0.01801 0.27348 0.0
H4589 H 0.70707 0.03167 0.27076 0.0
H4590 H 0.81296 0.02918 0.27859 0.0
H4591 H 0.8277 0.02603 0.29451 0.0
H4592 H 0.63163 0.50365 0.54333 0.0
H4593 H 0.62186 0.50115 0.52729 0.0
H4594 H 0.4797 0.52771 0.52615 0.0
H4595 H 0.48868 0.53015 0.54211 0.0
H4596 H 0.44196 0.50972 0.516 0.0
H4597 H 0.70268 0.52163 0.50873 0.0
H4598 H 0.69396 0.51052 0.51647 0.0
H4599 H 0.66455 0.52405 0.51933 0.0
C4600 C 0.59819 0.50892 0.53965 0.0
C4601 C 0.56138 0.51716 0.54398 0.0
C4602 C 0.59293 0.50754 0.53048 0.0
C4603 C 0.55092 0.51438 0.52546 0.0
C4604 C 0.51273 0.52238 0.52984 0.0
H4605 H 0.4494 0.5221 0.46945 0.0
H4606 H 0.45605 0.52385 0.48558 0.0
C4607 C 0.51801 0.52377 0.53898 0.0
C4608 C 0.54666 0.51333 0.51566 0.0
H4609 H 0.63794 0.51538 0.49671 0.0
C4610 C 0.48481 0.51097 0.51178 0.0
C4611 C 0.60245 0.515 0.51013 0.0
C4612 C 0.66959 0.51804 0.51384 0.0
C4613 C 0.47748 0.51006 0.50257 0.0
C4614 C 0.53326 0.51175 0.49703 0.0
C4615 C 0.59511 0.51409 0.50092 0.0
C4616 C 0.52906 0.51088 0.48722 0.0
C4617 C 0.41034 0.50701 0.49886 0.0
C4618 C 0.56915 0.50327 0.48271 0.0
C4619 C 0.56577 0.50232 0.47352 0.0
C4620 C 0.52234 0.509 0.46859 0.0
C4621 C 0.4829 0.51677 0.47307 0.0
C4622 C 0.48638 0.51772 0.48229 0.0
H4623 H 0.37792 0.50318 0.50394 0.0
H4624 H 0.38521 0.51456 0.49645 0.0
H4625 H 0.41536 0.50119 0.49324 0.0
H4626 H 0.60275 0.49794 0.48632 0.0
H4627 H 0.59708 0.4963 0.47027 0.0
H4628 H 0.44077 0.75503 0.7925 0.0
H4629 H 0.44915 0.75298 0.7764 0.0
H4630 H 0.60773 0.77688 0.77593 0.0
H4631 H 0.60007 0.77886 0.79194 0.0
H4632 H 0.4335 0.76903 0.76324 0.0
H4633 H 0.68756 0.75142 0.76195 0.0
H4634 H 0.63986 0.75207 0.77202 0.0
H4635 H 0.68236 0.76411 0.76801 0.0
C4636 C 0.47762 0.75979 0.78896 0.0
C4637 C 0.51982 0.76709 0.7935 0.0
C4638 C 0.48234 0.75863 0.77975 0.0
C4639 C 0.52977 0.76466 0.77493 0.0
C4640 C 0.57171 0.77196 0.77949 0.0
H4641 H 0.6338 0.771 0.71903 0.0
H4642 H 0.62546 0.7731 0.73513 0.0
C4643 C 0.56696 0.77314 0.78865 0.0
C4644 C 0.5343 0.7636 0.76513 0.0
H4645 H 0.64084 0.75716 0.74831 0.0
C4646 C 0.4787 0.76636 0.75998 0.0
C4647 C 0.59342 0.76019 0.76084 0.0
C4648 C 0.65404 0.75668 0.76598 0.0
C4649 C 0.48092 0.766 0.7507 0.0
C4650 C 0.54002 0.76258 0.74641 0.0
C4651 C 0.59564 0.75983 0.75156 0.0
C4652 C 0.5445 0.7615 0.73661 0.0
C4653 C 0.42032 0.76953 0.74557 0.0
C4654 C 0.50237 0.75421 0.73207 0.0
C4655 C 0.50709 0.75301 0.72291 0.0
C4656 C 0.55439 0.759 0.71805 0.0
C4657 C 0.5968 0.76628 0.72258 0.0
C4658 C 0.5921 0.76747 0.73178 0.0
H4659 H 0.38697 0.77482 0.74959 0.0
H4660 H 0.43452 0.77411 0.73952 0.0
H4661 H 0.39181 0.76211 0.74356 0.0
H4662 H 0.46622 0.74932 0.73563 0.0
H4663 H 0.47383 0.7473 0.71963 0.0
H4664 H 0.59703 0.28087 0.29194 0.0
H4665 H 0.60392 0.27876 0.27592 0.0
H4666 H 0.45265 0.2536 0.27683 0.0
H4667 H 0.44497 0.25578 0.2929 0.0
H4668 H 0.63566 0.2604 0.26585 0.0
H4669 H 0.38019 0.27481 0.25823 0.0
H4670 H 0.41838 0.27686 0.26887 0.0
H4671 H 0.38401 0.26366 0.266 0.0
C4672 C 0.56505 0.27491 0.28873 0.0
C4673 C 0.52 0.26856 0.29367 0.0
C4674 C 0.56913 0.2737 0.27957 0.0
C4675 C 0.52807 0.26616 0.27513 0.0
C4676 C 0.48382 0.25965 0.28007 0.0
H4677 H 0.48016 0.24705 0.22028 0.0
H4678 H 0.47363 0.24921 0.2363 0.0
C4679 C 0.47971 0.26086 0.28926 0.0
C4680 C 0.53247 0.26504 0.26536 0.0
H4681 H 0.4426 0.26752 0.24633 0.0
C4682 C 0.59351 0.262 0.26158 0.0
C4683 C 0.4775 0.26713 0.25978 0.0
C4684 C 0.41144 0.27089 0.26339 0.0
C4685 C 0.60077 0.26079 0.2524 0.0
C4686 C 0.54579 0.26288 0.24681 0.0
C4687 C 0.48476 0.26593 0.2506 0.0
C4688 C 0.55008 0.26172 0.23705 0.0
C4689 C 0.66681 0.25701 0.24879 0.0
C4690 C 0.59456 0.26816 0.23208 0.0
C4691 C 0.5985 0.26691 0.2229 0.0
C4692 C 0.55776 0.25925 0.21851 0.0
C4693 C 0.51248 0.25298 0.22347 0.0
C4694 C 0.50861 0.25422 0.23263 0.0
H4695 H 0.69798 0.25308 0.25396 0.0
H4696 H 0.65984 0.25105 0.2433 0.0
H4697 H 0.69434 0.26424 0.2462 0.0
H4698 H 0.62604 0.27418 0.2353 0.0
H4699 H 0.63342 0.27193 0.21924 0.0
H4700 H 0.57555 1.00144 0.04404 0.0
H4701 H 0.56205 0.99854 0.02806 0.0
H4702 H 0.56369 0.03372 0.02399 0.0
H4703 H 0.57759 0.03662 0.03983 0.0
H4704 H 0.45989 1.00585 0.0169 0.0
H4705 H 0.70077 0.02336 0.00609 0.0
H4706 H 0.68431 0.01972 0.01742 0.0
H4707 H 0.65366 0.0325 0.01299 0.0
C4708 C 0.57355 1.00853 0.03971 0.0
C4709 C 0.57795 0.01926 0.0432 0.0
C4710 C 0.56572 1.00688 0.03058 0.0
C4711 C 0.56285 0.01591 0.02476 0.0
C4712 C 0.56722 0.0266 0.02827 0.0
H4713 H 0.5047 0.02461 0.96778 0.0
H4714 H 0.51826 0.02741 0.98377 0.0
C4715 C 0.57484 0.02825 0.03736 0.0
C4716 C 0.55303 0.01426 0.01506 0.0
H4717 H 0.62059 0.02004 0.99486 0.0
C4718 C 0.49531 1.00888 0.01209 0.0
C4719 C 0.59887 0.01827 0.00873 0.0
C4720 C 0.66319 0.0237 0.01145 0.0
C4721 C 0.48163 1.00761 1.00303 0.0
C4722 C 0.52745 1.01164 0.9967 0.0
C4723 C 0.58519 0.017 0.99967 0.0
C4724 C 0.51751 1.01003 0.987 0.0
C4725 C 0.41731 1.00219 1.00031 0.0
C4726 C 0.51312 0.99936 0.98345 0.0
C4727 C 0.50547 0.99776 0.97436 0.0
C4728 C 0.50232 1.00679 0.96855 0.0
C4729 C 0.50671 0.01749 0.97208 0.0
C4730 C 0.51459 0.01909 0.98121 0.0
H4731 H 0.37979 1.00249 1.00568 0.0
H4732 H 0.3961 1.00619 0.99436 0.0
H4733 H 0.42688 0.9934 0.99874 0.0
H4734 H 0.51667 0.99221 0.9877 0.0
H4735 H 0.50271 0.9894 0.97186 0.0
loop_
_geom_bond_atom_site_label_1
_geom_bond_atom_site_label_2
_geom_bond_distance
_geom_bond_site_symmetry_2
_ccdc_geom_bond_type
Nd0 C2 2.836 1_455 S
Nd0 O20 2.500 1_455 S
Nd0 O21 2.492 . S
Nd0 O22 2.487 . S
Nd0 O23 2.682 . S
Nd0 O24 2.410 1_455 S
Nd0 O29 2.414 . S
Nd0 O31 2.424 . S
Nd1 C11 2.836 . S
Nd1 O23 2.414 . S
Nd1 O25 2.424 1_455 S
Nd1 O26 2.500 . S
Nd1 O27 2.492 . S
Nd1 O28 2.487 . S
Nd1 O29 2.682 . S
Nd1 O30 2.410 . S
C2 Nd0 2.836 1_655 S
C2 C3 1.498 . S
C2 O20 1.258 . S
C2 O21 1.239 1_655 S
C3 C2 1.498 . S
C3 C4 1.366 . S
C3 C8 1.407 . S
C4 C3 1.366 . S
C4 C5 1.392 . S
C4 H32 0.930 . S
C5 C4 1.392 . S
C5 C6 1.398 . S
C5 H33 0.929 . S
C6 C5 1.398 . S
C6 C7 1.352 . S
C7 C6 1.352 . S
C7 C8 1.384 . S
C7 H34 0.930 . S
C8 C3 1.407 . S
C8 C7 1.384 . S
C8 H35 0.929 . S
C9 O22 1.241 . S
C9 O23 1.273 . S
C10 O24 1.251 . S
C10 O25 1.268 . S
C11 Nd1 2.836 . S
C11 C12 1.498 . S
C11 O26 1.258 . S
C11 O27 1.239 . S
C12 C11 1.498 . S
C12 C13 1.366 . S
C12 C17 1.407 . S
C13 C12 1.366 . S
C13 C14 1.392 . S
C13 H36 0.930 . S
C14 C13 1.392 . S
C14 C15 1.398 . S
C14 H37 0.929 . S
C15 C14 1.398 . S
C15 C16 1.352 . S
C16 C15 1.352 . S
C16 C17 1.384 . S
C16 H38 0.930 . S
C17 C12 1.407 . S
C17 C16 1.384 . S
C17 H39 0.929 . S
C18 O28 1.241 . S
C18 O29 1.273 . S
C19 O30 1.251 . S
C19 O31 1.268 . S
O20 Nd0 2.500 1_655 S
O20 C2 1.258 . S
O21 Nd0 2.492 . S
O21 C2 1.239 1_455 S
O22 Nd0 2.487 . S
O22 C9 1.241 . S
O23 Nd0 2.682 . S
O23 Nd1 2.414 . S
O23 C9 1.273 . S
O24 Nd0 2.410 1_655 S
O24 C10 1.251 . S
O25 Nd1 2.424 1_655 S
O25 C10 1.268 . S
O26 Nd1 2.500 . S
O26 C11 1.258 . S
O27 Nd1 2.492 . S
O27 C11 1.239 . S
O28 Nd1 2.487 . S
O28 C18 1.241 . S
O29 Nd0 2.414 . S
O29 Nd1 2.682 . S
O29 C18 1.273 . S
O30 Nd1 2.410 . S
O30 C19 1.251 . S
O31 Nd0 2.424 . S
O31 C19 1.268 . S
H32 C4 0.930 . S
H33 C5 0.929 . S
H34 C7 0.930 . S
H35 C8 0.929 . S
H36 C13 0.930 . S
H37 C14 0.929 . S
H38 C16 0.930 . S
H39 C17 0.929 . S
Nd40 C42 2.836 . S
Nd40 O60 2.500 . S
Nd40 O61 2.492 . S
Nd40 O62 2.487 . S
Nd40 O63 2.682 . S
Nd40 O64 2.410 . S
Nd40 O69 2.414 . S
Nd40 O71 2.424 . S
Nd41 C51 2.836 . S
Nd41 O63 2.414 . S
Nd41 O65 2.424 . S
Nd41 O66 2.500 . S
Nd41 O67 2.492 . S
Nd41 O68 2.487 . S
Nd41 O69 2.682 . S
Nd41 O70 2.410 . S
C42 Nd40 2.836 . S
C42 C43 1.498 . S
C42 O60 1.258 . S
C42 O61 1.239 . S
C43 C42 1.498 . S
C43 C44 1.366 . S
C43 C48 1.407 . S
C44 C43 1.366 . S
C44 C45 1.392 . S
C44 H72 0.930 . S
C45 C44 1.392 . S
C45 C46 1.398 . S
C45 H73 0.929 . S
C46 C45 1.398 . S
C46 C47 1.352 . S
C47 C46 1.352 . S
C47 C48 1.384 . S
C47 H74 0.930 . S
C48 C43 1.407 . S
C48 C47 1.384 . S
C48 H75 0.929 . S
C49 O62 1.241 . S
C49 O63 1.273 . S
C50 O64 1.251 . S
C50 O65 1.268 . S
C51 Nd41 2.836 . S
C51 C52 1.498 . S
C51 O66 1.258 . S
C51 O67 1.239 . S
C52 C51 1.498 . S
C52 C53 1.366 . S
C52 C57 1.407 . S
C53 C52 1.366 . S
C53 C54 1.392 . S
C53 H76 0.930 . S
C54 C53 1.392 . S
C54 C55 1.398 . S
C54 H77 0.929 . S
C55 C54 1.398 . S
C55 C56 1.352 . S
C56 C55 1.352 . S
C56 C57 1.384 . S
C56 H78 0.930 . S
C57 C52 1.407 . S
C57 C56 1.384 . S
C57 H79 0.929 . S
C58 O68 1.241 . S
C58 O69 1.273 . S
C59 O70 1.251 . S
C59 O71 1.268 . S
O60 Nd40 2.500 . S
O60 C42 1.258 . S
O61 Nd40 2.492 . S
O61 C42 1.239 . S
O62 Nd40 2.487 . S
O62 C49 1.241 . S
O63 Nd40 2.682 . S
O63 Nd41 2.414 . S
O63 C49 1.273 . S
O64 Nd40 2.410 . S
O64 C50 1.251 . S
O65 Nd41 2.424 . S
O65 C50 1.268 . S
O66 Nd41 2.500 . S
O66 C51 1.258 . S
O67 Nd41 2.492 . S
O67 C51 1.239 . S
O68 Nd41 2.487 . S
O68 C58 1.241 . S
O69 Nd40 2.414 . S
O69 Nd41 2.682 . S
O69 C58 1.273 . S
O70 Nd41 2.410 . S
O70 C59 1.251 . S
O71 Nd40 2.424 . S
O71 C59 1.268 . S
H72 C44 0.930 . S
H73 C45 0.929 . S
H74 C47 0.930 . S
H75 C48 0.929 . S
H76 C53 0.930 . S
H77 C54 0.929 . S
H78 C56 0.930 . S
H79 C57 0.929 . S
Nd80 C82 2.836 1_455 S
Nd80 O100 2.500 1_455 S
Nd80 O101 2.492 . S
Nd80 O102 2.487 . S
Nd80 O103 2.682 . S
Nd80 O104 2.410 1_455 S
Nd80 O109 2.414 . S
Nd80 O111 2.424 . S
Nd81 C91 2.836 . S
Nd81 O103 2.414 . S
Nd81 O105 2.424 1_455 S
Nd81 O106 2.500 . S
Nd81 O107 2.492 . S
Nd81 O108 2.487 . S
Nd81 O109 2.682 . S
Nd81 O110 2.410 . S
C82 Nd80 2.836 1_655 S
C82 C83 1.498 . S
C82 O100 1.258 . S
C82 O101 1.239 1_655 S
C83 C82 1.498 . S
C83 C84 1.366 . S
C83 C88 1.407 . S
C84 C83 1.366 . S
C84 C85 1.392 . S
C84 H112 0.930 . S
C85 C84 1.392 . S
C85 C86 1.398 . S
C85 H113 0.929 . S
C86 C85 1.398 . S
C86 C87 1.352 . S
C87 C86 1.352 . S
C87 C88 1.384 . S
C87 H114 0.930 . S
C88 C83 1.407 . S
C88 C87 1.384 . S
C88 H115 0.929 . S
C89 O102 1.241 . S
C89 O103 1.273 . S
C90 O104 1.251 . S
C90 O105 1.268 . S
C91 Nd81 2.836 . S
C91 C92 1.498 . S
C91 O106 1.258 . S
C91 O107 1.239 . S
C92 C91 1.498 . S
C92 C93 1.366 . S
C92 C97 1.407 . S
C93 C92 1.366 . S
C93 C94 1.392 . S
C93 H116 0.930 . S
C94 C93 1.392 . S
C94 C95 1.398 . S
C94 H117 0.929 . S
C95 C94 1.398 . S
C95 C96 1.352 . S
C96 C95 1.352 . S
C96 C97 1.384 . S
C96 H118 0.930 . S
C97 C92 1.407 . S
C97 C96 1.384 . S
C97 H119 0.929 . S
C98 O108 1.241 . S
C98 O109 1.273 . S
C99 O110 1.251 . S
C99 O111 1.268 . S
O100 Nd80 2.500 1_655 S
O100 C82 1.258 . S
O101 Nd80 2.492 . S
O101 C82 1.239 1_455 S
O102 Nd80 2.487 . S
O102 C89 1.241 . S
O103 Nd80 2.682 . S
O103 Nd81 2.414 . S
O103 C89 1.273 . S
O104 Nd80 2.410 1_655 S
O104 C90 1.251 . S
O105 Nd81 2.424 1_655 S
O105 C90 1.268 . S
O106 Nd81 2.500 . S
O106 C91 1.258 . S
O107 Nd81 2.492 . S
O107 C91 1.239 . S
O108 Nd81 2.487 . S
O108 C98 1.241 . S
O109 Nd80 2.414 . S
O109 Nd81 2.682 . S
O109 C98 1.273 . S
O110 Nd81 2.410 . S
O110 C99 1.251 . S
O111 Nd80 2.424 . S
O111 C99 1.268 . S
H112 C84 0.930 . S
H113 C85 0.929 . S
H114 C87 0.930 . S
H115 C88 0.929 . S
H116 C93 0.930 . S
H117 C94 0.929 . S
H118 C96 0.930 . S
H119 C97 0.929 . S
Nd120 C122 2.836 . S
Nd120 O140 2.500 . S
Nd120 O141 2.492 . S
Nd120 O142 2.487 . S
Nd120 O143 2.682 . S
Nd120 O144 2.410 . S
Nd120 O149 2.414 . S
Nd120 O151 2.424 . S
Nd121 C131 2.836 . S
Nd121 O143 2.414 . S
Nd121 O145 2.424 . S
Nd121 O146 2.500 . S
Nd121 O147 2.492 . S
Nd121 O148 2.487 . S
Nd121 O149 2.682 . S
Nd121 O150 2.410 . S
C122 Nd120 2.836 . S
C122 C123 1.498 . S
C122 O140 1.258 . S
C122 O141 1.239 . S
C123 C122 1.498 . S
C123 C124 1.366 . S
C123 C128 1.407 . S
C124 C123 1.366 . S
C124 C125 1.392 . S
C124 H152 0.930 . S
C125 C124 1.392 . S
C125 C126 1.398 . S
C125 H153 0.929 . S
C126 C125 1.398 . S
C126 C127 1.352 . S
C127 C126 1.352 . S
C127 C128 1.384 . S
C127 H154 0.930 . S
C128 C123 1.407 . S
C128 C127 1.384 . S
C128 H155 0.929 . S
C129 O142 1.241 . S
C129 O143 1.273 . S
C130 O144 1.251 . S
C130 O145 1.268 . S
C131 Nd121 2.836 . S
C131 C132 1.498 . S
C131 O146 1.258 . S
C131 O147 1.239 . S
C132 C131 1.498 . S
C132 C133 1.366 . S
C132 C137 1.407 . S
C133 C132 1.366 . S
C133 C134 1.392 . S
C133 H156 0.930 . S
C134 C133 1.392 . S
C134 C135 1.398 . S
C134 H157 0.929 . S
C135 C134 1.398 . S
C135 C136 1.352 . S
C136 C135 1.352 . S
C136 C137 1.384 . S
C136 H158 0.930 . S
C137 C132 1.407 . S
C137 C136 1.384 . S
C137 H159 0.929 . S
C138 O148 1.241 . S
C138 O149 1.273 . S
C139 O150 1.251 . S
C139 O151 1.268 . S
O140 Nd120 2.500 . S
O140 C122 1.258 . S
O141 Nd120 2.492 . S
O141 C122 1.239 . S
O142 Nd120 2.487 . S
O142 C129 1.241 . S
O143 Nd120 2.682 . S
O143 Nd121 2.414 . S
O143 C129 1.273 . S
O144 Nd120 2.410 . S
O144 C130 1.251 . S
O145 Nd121 2.424 . S
O145 C130 1.268 . S
O146 Nd121 2.500 . S
O146 C131 1.258 . S
O147 Nd121 2.492 . S
O147 C131 1.239 . S
O148 Nd121 2.487 . S
O148 C138 1.241 . S
O149 Nd120 2.414 . S
O149 Nd121 2.682 . S
O149 C138 1.273 . S
O150 Nd121 2.410 . S
O150 C139 1.251 . S
O151 Nd120 2.424 . S
O151 C139 1.268 . S
H152 C124 0.930 . S
H153 C125 0.929 . S
H154 C127 0.930 . S
H155 C128 0.929 . S
H156 C133 0.930 . S
H157 C134 0.929 . S
H158 C136 0.930 . S
H159 C137 0.929 . S
Nd160 C162 2.836 . S
Nd160 O180 2.500 . S
Nd160 O181 2.492 . S
Nd160 O182 2.487 . S
Nd160 O183 2.682 . S
Nd160 O184 2.410 . S
Nd160 O189 2.414 . S
Nd160 O191 2.424 1_655 S
Nd161 C171 2.836 1_655 S
Nd161 O183 2.414 . S
Nd161 O185 2.424 . S
Nd161 O186 2.500 1_655 S
Nd161 O187 2.492 . S
Nd161 O188 2.487 . S
Nd161 O189 2.682 . S
Nd161 O190 2.410 1_655 S
C162 Nd160 2.836 . S
C162 C163 1.498 . S
C162 O180 1.258 . S
C162 O181 1.239 . S
C163 C162 1.498 . S
C163 C164 1.366 . S
C163 C168 1.407 . S
C164 C163 1.366 . S
C164 C165 1.392 . S
C164 H192 0.930 . S
C165 C164 1.392 . S
C165 C166 1.398 . S
C165 H193 0.929 . S
C166 C165 1.398 . S
C166 C167 1.352 . S
C167 C166 1.352 . S
C167 C168 1.384 . S
C167 H194 0.930 . S
C168 C163 1.407 . S
C168 C167 1.384 . S
C168 H195 0.929 . S
C169 O182 1.241 . S
C169 O183 1.273 . S
C170 O184 1.251 . S
C170 O185 1.268 . S
C171 Nd161 2.836 1_455 S
C171 C172 1.498 . S
C171 O186 1.258 . S
C171 O187 1.239 1_455 S
C172 C171 1.498 . S
C172 C173 1.366 . S
C172 C177 1.407 . S
C173 C172 1.366 . S
C173 C174 1.392 . S
C173 H196 0.930 . S
C174 C173 1.392 . S
C174 C175 1.398 . S
C174 H197 0.929 . S
C175 C174 1.398 . S
C175 C176 1.352 . S
C176 C175 1.352 . S
C176 C177 1.384 . S
C176 H198 0.930 . S
C177 C172 1.407 . S
C177 C176 1.384 . S
C177 H199 0.929 . S
C178 O188 1.241 . S
C178 O189 1.273 . S
C179 O190 1.251 . S
C179 O191 1.268 . S
O180 Nd160 2.500 . S
O180 C162 1.258 . S
O181 Nd160 2.492 . S
O181 C162 1.239 . S
O182 Nd160 2.487 . S
O182 C169 1.241 . S
O183 Nd160 2.682 . S
O183 Nd161 2.414 . S
O183 C169 1.273 . S
O184 Nd160 2.410 . S
O184 C170 1.251 . S
O185 Nd161 2.424 . S
O185 C170 1.268 . S
O186 Nd161 2.500 1_455 S
O186 C171 1.258 . S
O187 Nd161 2.492 . S
O187 C171 1.239 1_655 S
O188 Nd161 2.487 . S
O188 C178 1.241 . S
O189 Nd160 2.414 . S
O189 Nd161 2.682 . S
O189 C178 1.273 . S
O190 Nd161 2.410 1_455 S
O190 C179 1.251 . S
O191 Nd160 2.424 1_455 S
O191 C179 1.268 . S
H192 C164 0.930 . S
H193 C165 0.929 . S
H194 C167 0.930 . S
H195 C168 0.929 . S
H196 C173 0.930 . S
H197 C174 0.929 . S
H198 C176 0.930 . S
H199 C177 0.929 . S
Nd200 C202 2.836 . S
Nd200 O220 2.500 . S
Nd200 O221 2.492 . S
Nd200 O222 2.487 . S
Nd200 O223 2.682 . S
Nd200 O224 2.410 . S
Nd200 O229 2.414 . S
Nd200 O231 2.424 . S
Nd201 C211 2.836 . S
Nd201 O223 2.414 . S
Nd201 O225 2.424 . S
Nd201 O226 2.500 . S
Nd201 O227 2.492 . S
Nd201 O228 2.487 . S
Nd201 O229 2.682 . S
Nd201 O230 2.410 . S
C202 Nd200 2.836 . S
C202 C203 1.498 . S
C202 O220 1.258 . S
C202 O221 1.239 . S
C203 C202 1.498 . S
C203 C204 1.366 . S
C203 C208 1.407 . S
C204 C203 1.366 . S
C204 C205 1.392 . S
C204 H232 0.930 . S
C205 C204 1.392 . S
C205 C206 1.398 . S
C205 H233 0.929 . S
C206 C205 1.398 . S
C206 C207 1.352 . S
C207 C206 1.352 . S
C207 C208 1.384 . S
C207 H234 0.930 . S
C208 C203 1.407 . S
C208 C207 1.384 . S
C208 H235 0.929 . S
C209 O222 1.241 . S
C209 O223 1.273 . S
C210 O224 1.251 . S
C210 O225 1.268 . S
C211 Nd201 2.836 . S
C211 C212 1.498 . S
C211 O226 1.258 . S
C211 O227 1.239 . S
C212 C211 1.498 . S
C212 C213 1.366 . S
C212 C217 1.407 . S
C213 C212 1.366 . S
C213 C214 1.392 . S
C213 H236 0.930 . S
C214 C213 1.392 . S
C214 C215 1.398 . S
C214 H237 0.929 . S
C215 C214 1.398 . S
C215 C216 1.352 . S
C216 C215 1.352 . S
C216 C217 1.384 . S
C216 H238 0.930 . S
C217 C212 1.407 . S
C217 C216 1.384 . S
C217 H239 0.929 . S
C218 O228 1.241 . S
C218 O229 1.273 . S
C219 O230 1.251 . S
C219 O231 1.268 . S
O220 Nd200 2.500 . S
O220 C202 1.258 . S
O221 Nd200 2.492 . S
O221 C202 1.239 . S
O222 Nd200 2.487 . S
O222 C209 1.241 . S
O223 Nd200 2.682 . S
O223 Nd201 2.414 . S
O223 C209 1.273 . S
O224 Nd200 2.410 . S
O224 C210 1.251 . S
O225 Nd201 2.424 . S
O225 C210 1.268 . S
O226 Nd201 2.500 . S
O226 C211 1.258 . S
O227 Nd201 2.492 . S
O227 C211 1.239 . S
O228 Nd201 2.487 . S
O228 C218 1.241 . S
O229 Nd200 2.414 . S
O229 Nd201 2.682 . S
O229 C218 1.273 . S
O230 Nd201 2.410 . S
O230 C219 1.251 . S
O231 Nd200 2.424 . S
O231 C219 1.268 . S
H232 C204 0.930 . S
H233 C205 0.929 . S
H234 C207 0.930 . S
H235 C208 0.929 . S
H236 C213 0.930 . S
H237 C214 0.929 . S
H238 C216 0.930 . S
H239 C217 0.929 . S
Nd240 C242 2.836 . S
Nd240 O260 2.500 . S
Nd240 O261 2.492 . S
Nd240 O262 2.487 . S
Nd240 O263 2.682 . S
Nd240 O264 2.410 . S
Nd240 O269 2.414 . S
Nd240 O271 2.424 1_655 S
Nd241 C251 2.836 1_655 S
Nd241 O263 2.414 . S
Nd241 O265 2.424 . S
Nd241 O266 2.500 1_655 S
Nd241 O267 2.492 . S
Nd241 O268 2.487 . S
Nd241 O269 2.682 . S
Nd241 O270 2.410 1_655 S
C242 Nd240 2.836 . S
C242 C243 1.498 . S
C242 O260 1.258 . S
C242 O261 1.239 . S
C243 C242 1.498 . S
C243 C244 1.366 . S
C243 C248 1.407 . S
C244 C243 1.366 . S
C244 C245 1.392 . S
C244 H272 0.930 . S
C245 C244 1.392 . S
C245 C246 1.398 . S
C245 H273 0.929 . S
C246 C245 1.398 . S
C246 C247 1.352 . S
C247 C246 1.352 . S
C247 C248 1.384 . S
C247 H274 0.930 . S
C248 C243 1.407 . S
C248 C247 1.384 . S
C248 H275 0.929 . S
C249 O262 1.241 . S
C249 O263 1.273 . S
C250 O264 1.251 . S
C250 O265 1.268 . S
C251 Nd241 2.836 1_455 S
C251 C252 1.498 . S
C251 O266 1.258 . S
C251 O267 1.239 1_455 S
C252 C251 1.498 . S
C252 C253 1.366 . S
C252 C257 1.407 . S
C253 C252 1.366 . S
C253 C254 1.392 . S
C253 H276 0.930 . S
C254 C253 1.392 . S
C254 C255 1.398 . S
C254 H277 0.929 . S
C255 C254 1.398 . S
C255 C256 1.352 . S
C256 C255 1.352 . S
C256 C257 1.384 . S
C256 H278 0.930 . S
C257 C252 1.407 . S
C257 C256 1.384 . S
C257 H279 0.929 . S
C258 O268 1.241 . S
C258 O269 1.273 . S
C259 O270 1.251 . S
C259 O271 1.268 . S
O260 Nd240 2.500 . S
O260 C242 1.258 . S
O261 Nd240 2.492 . S
O261 C242 1.239 . S
O262 Nd240 2.487 . S
O262 C249 1.241 . S
O263 Nd240 2.682 . S
O263 Nd241 2.414 . S
O263 C249 1.273 . S
O264 Nd240 2.410 . S
O264 C250 1.251 . S
O265 Nd241 2.424 . S
O265 C250 1.268 . S
O266 Nd241 2.500 1_455 S
O266 C251 1.258 . S
O267 Nd241 2.492 . S
O267 C251 1.239 1_655 S
O268 Nd241 2.487 . S
O268 C258 1.241 . S
O269 Nd240 2.414 . S
O269 Nd241 2.682 . S
O269 C258 1.273 . S
O270 Nd241 2.410 1_455 S
O270 C259 1.251 . S
O271 Nd240 2.424 1_455 S
O271 C259 1.268 . S
H272 C244 0.930 . S
H273 C245 0.929 . S
H274 C247 0.930 . S
H275 C248 0.929 . S
H276 C253 0.930 . S
H277 C254 0.929 . S
H278 C256 0.930 . S
H279 C257 0.929 . S
Nd280 C282 2.836 . S
Nd280 O300 2.500 . S
Nd280 O301 2.492 . S
Nd280 O302 2.487 . S
Nd280 O303 2.682 . S
Nd280 O304 2.410 . S
Nd280 O309 2.414 . S
Nd280 O311 2.424 . S
Nd281 C291 2.836 . S
Nd281 O303 2.414 . S
Nd281 O305 2.424 . S
Nd281 O306 2.500 . S
Nd281 O307 2.492 . S
Nd281 O308 2.487 . S
Nd281 O309 2.682 . S
Nd281 O310 2.410 . S
C282 Nd280 2.836 . S
C282 C283 1.498 . S
C282 O300 1.258 . S
C282 O301 1.239 . S
C283 C282 1.498 . S
C283 C284 1.366 . S
C283 C288 1.407 . S
C284 C283 1.366 . S
C284 C285 1.392 . S
C284 H312 0.930 . S
C285 C284 1.392 . S
C285 C286 1.398 . S
C285 H313 0.929 . S
C286 C285 1.398 . S
C286 C287 1.352 . S
C287 C286 1.352 . S
C287 C288 1.384 . S
C287 H314 0.930 . S
C288 C283 1.407 . S
C288 C287 1.384 . S
C288 H315 0.929 . S
C289 O302 1.241 . S
C289 O303 1.273 . S
C290 O304 1.251 . S
C290 O305 1.268 . S
C291 Nd281 2.836 . S
C291 C292 1.498 . S
C291 O306 1.258 . S
C291 O307 1.239 . S
C292 C291 1.498 . S
C292 C293 1.366 . S
C292 C297 1.407 . S
C293 C292 1.366 . S
C293 C294 1.392 . S
C293 H316 0.930 . S
C294 C293 1.392 . S
C294 C295 1.398 . S
C294 H317 0.929 . S
C295 C294 1.398 . S
C295 C296 1.352 . S
C296 C295 1.352 . S
C296 C297 1.384 . S
C296 H318 0.930 . S
C297 C292 1.407 . S
C297 C296 1.384 . S
C297 H319 0.929 . S
C298 O308 1.241 . S
C298 O309 1.273 . S
C299 O310 1.251 . S
C299 O311 1.268 . S
O300 Nd280 2.500 . S
O300 C282 1.258 . S
O301 Nd280 2.492 . S
O301 C282 1.239 . S
O302 Nd280 2.487 . S
O302 C289 1.241 . S
O303 Nd280 2.682 . S
O303 Nd281 2.414 . S
O303 C289 1.273 . S
O304 Nd280 2.410 . S
O304 C290 1.251 . S
O305 Nd281 2.424 . S
O305 C290 1.268 . S
O306 Nd281 2.500 . S
O306 C291 1.258 . S
O307 Nd281 2.492 . S
O307 C291 1.239 . S
O308 Nd281 2.487 . S
O308 C298 1.241 . S
O309 Nd280 2.414 . S
O309 Nd281 2.682 . S
O309 C298 1.273 . S
O310 Nd281 2.410 . S
O310 C299 1.251 . S
O311 Nd280 2.424 . S
O311 C299 1.268 . S
H312 C284 0.930 . S
H313 C285 0.929 . S
H314 C287 0.930 . S
H315 C288 0.929 . S
H316 C293 0.930 . S
H317 C294 0.929 . S
H318 C296 0.930 . S
H319 C297 0.929 . S
Nd320 C322 2.836 1_455 S
Nd320 O340 2.500 1_455 S
Nd320 O341 2.492 . S
Nd320 O342 2.487 . S
Nd320 O343 2.682 1_565 S
Nd320 O344 2.410 1_455 S
Nd320 O349 2.414 . S
Nd320 O351 2.424 . S
Nd321 C331 2.836 . S
Nd321 O343 2.414 . S
Nd321 O345 2.424 1_455 S
Nd321 O346 2.500 . S
Nd321 O347 2.492 . S
Nd321 O348 2.487 . S
Nd321 O349 2.682 1_545 S
Nd321 O350 2.410 . S
C322 Nd320 2.836 1_655 S
C322 C323 1.498 . S
C322 O340 1.258 . S
C322 O341 1.239 1_655 S
C323 C322 1.498 . S
C323 C324 1.366 . S
C323 C328 1.407 . S
C324 C323 1.366 . S
C324 C325 1.392 . S
C324 H352 0.930 . S
C325 C324 1.392 . S
C325 C326 1.398 . S
C325 H353 0.929 . S
C326 C325 1.398 . S
C326 C327 1.352 . S
C327 C326 1.352 . S
C327 C328 1.384 . S
C327 H354 0.930 . S
C328 C323 1.407 . S
C328 C327 1.384 . S
C328 H355 0.929 . S
C329 O342 1.241 . S
C329 O343 1.273 1_565 S
C330 O344 1.251 . S
C330 O345 1.268 1_565 S
C331 Nd321 2.836 . S
C331 C332 1.498 . S
C331 O346 1.258 . S
C331 O347 1.239 . S
C332 C331 1.498 . S
C332 C333 1.366 . S
C332 C337 1.407 . S
C333 C332 1.366 . S
C333 C334 1.392 . S
C333 H356 0.930 . S
C334 C333 1.392 . S
C334 C335 1.398 . S
C334 H357 0.929 . S
C335 C334 1.398 . S
C335 C336 1.352 . S
C336 C335 1.352 . S
C336 C337 1.384 . S
C336 H358 0.930 . S
C337 C332 1.407 . S
C337 C336 1.384 . S
C337 H359 0.929 . S
C338 O348 1.241 . S
C338 O349 1.273 1_545 S
C339 O350 1.251 . S
C339 O351 1.268 1_545 S
O340 Nd320 2.500 1_655 S
O340 C322 1.258 . S
O341 Nd320 2.492 . S
O341 C322 1.239 1_455 S
O342 Nd320 2.487 . S
O342 C329 1.241 . S
O343 Nd320 2.682 1_545 S
O343 Nd321 2.414 . S
O343 C329 1.273 1_545 S
O344 Nd320 2.410 1_655 S
O344 C330 1.251 . S
O345 Nd321 2.424 1_655 S
O345 C330 1.268 1_545 S
O346 Nd321 2.500 . S
O346 C331 1.258 . S
O347 Nd321 2.492 . S
O347 C331 1.239 . S
O348 Nd321 2.487 . S
O348 C338 1.241 . S
O349 Nd320 2.414 . S
O349 Nd321 2.682 1_565 S
O349 C338 1.273 1_565 S
O350 Nd321 2.410 . S
O350 C339 1.251 . S
O351 Nd320 2.424 . S
O351 C339 1.268 1_565 S
H352 C324 0.930 . S
H353 C325 0.929 . S
H354 C327 0.930 . S
H355 C328 0.929 . S
H356 C333 0.930 . S
H357 C334 0.929 . S
H358 C336 0.930 . S
H359 C337 0.929 . S
Nd360 C362 2.836 . S
Nd360 O380 2.500 . S
Nd360 O381 2.492 . S
Nd360 O382 2.487 . S
Nd360 O383 2.682 . S
Nd360 O384 2.410 . S
Nd360 O389 2.414 . S
Nd360 O391 2.424 . S
Nd361 C371 2.836 . S
Nd361 O383 2.414 . S
Nd361 O385 2.424 . S
Nd361 O386 2.500 . S
Nd361 O387 2.492 . S
Nd361 O388 2.487 . S
Nd361 O389 2.682 . S
Nd361 O390 2.410 . S
C362 Nd360 2.836 . S
C362 C363 1.498 . S
C362 O380 1.258 . S
C362 O381 1.239 . S
C363 C362 1.498 . S
C363 C364 1.366 . S
C363 C368 1.407 . S
C364 C363 1.366 . S
C364 C365 1.392 . S
C364 H392 0.930 . S
C365 C364 1.392 . S
C365 C366 1.398 . S
C365 H393 0.929 . S
C366 C365 1.398 . S
C366 C367 1.352 . S
C367 C366 1.352 . S
C367 C368 1.384 . S
C367 H394 0.930 . S
C368 C363 1.407 . S
C368 C367 1.384 . S
C368 H395 0.929 . S
C369 O382 1.241 . S
C369 O383 1.273 . S
C370 O384 1.251 . S
C370 O385 1.268 . S
C371 Nd361 2.836 . S
C371 C372 1.498 . S
C371 O386 1.258 . S
C371 O387 1.239 . S
C372 C371 1.498 . S
C372 C373 1.366 . S
C372 C377 1.407 . S
C373 C372 1.366 . S
C373 C374 1.392 . S
C373 H396 0.930 . S
C374 C373 1.392 . S
C374 C375 1.398 . S
C374 H397 0.929 . S
C375 C374 1.398 . S
C375 C376 1.352 . S
C376 C375 1.352 . S
C376 C377 1.384 . S
C376 H398 0.930 . S
C377 C372 1.407 . S
C377 C376 1.384 . S
C377 H399 0.929 . S
C378 O388 1.241 . S
C378 O389 1.273 . S
C379 O390 1.251 . S
C379 O391 1.268 . S
O380 Nd360 2.500 . S
O380 C362 1.258 . S
O381 Nd360 2.492 . S
O381 C362 1.239 . S
O382 Nd360 2.487 . S
O382 C369 1.241 . S
O383 Nd360 2.682 . S
O383 Nd361 2.414 . S
O383 C369 1.273 . S
O384 Nd360 2.410 . S
O384 C370 1.251 . S
O385 Nd361 2.424 . S
O385 C370 1.268 . S
O386 Nd361 2.500 . S
O386 C371 1.258 . S
O387 Nd361 2.492 . S
O387 C371 1.239 . S
O388 Nd361 2.487 . S
O388 C378 1.241 . S
O389 Nd360 2.414 . S
O389 Nd361 2.682 . S
O389 C378 1.273 . S
O390 Nd361 2.410 . S
O390 C379 1.251 . S
O391 Nd360 2.424 . S
O391 C379 1.268 . S
H392 C364 0.930 . S
H393 C365 0.929 . S
H394 C367 0.930 . S
H395 C368 0.929 . S
H396 C373 0.930 . S
H397 C374 0.929 . S
H398 C376 0.930 . S
H399 C377 0.929 . S
Nd400 C402 2.836 1_455 S
Nd400 O420 2.500 1_455 S
Nd400 O421 2.492 . S
Nd400 O422 2.487 . S
Nd400 O423 2.682 . S
Nd400 O424 2.410 1_455 S
Nd400 O429 2.414 . S
Nd400 O431 2.424 . S
Nd401 C411 2.836 . S
Nd401 O423 2.414 . S
Nd401 O425 2.424 1_455 S
Nd401 O426 2.500 . S
Nd401 O427 2.492 . S
Nd401 O428 2.487 . S
Nd401 O429 2.682 . S
Nd401 O430 2.410 . S
C402 Nd400 2.836 1_655 S
C402 C403 1.498 . S
C402 O420 1.258 . S
C402 O421 1.239 1_655 S
C403 C402 1.498 . S
C403 C404 1.366 . S
C403 C408 1.407 . S
C404 C403 1.366 . S
C404 C405 1.392 . S
C404 H432 0.930 . S
C405 C404 1.392 . S
C405 C406 1.398 . S
C405 H433 0.929 . S
C406 C405 1.398 . S
C406 C407 1.352 . S
C407 C406 1.352 . S
C407 C408 1.384 . S
C407 H434 0.930 . S
C408 C403 1.407 . S
C408 C407 1.384 . S
C408 H435 0.929 . S
C409 O422 1.241 . S
C409 O423 1.273 . S
C410 O424 1.251 . S
C410 O425 1.268 . S
C411 Nd401 2.836 . S
C411 C412 1.498 . S
C411 O426 1.258 . S
C411 O427 1.239 . S
C412 C411 1.498 . S
C412 C413 1.366 . S
C412 C417 1.407 . S
C413 C412 1.366 . S
C413 C414 1.392 . S
C413 H436 0.930 . S
C414 C413 1.392 . S
C414 C415 1.398 . S
C414 H437 0.929 . S
C415 C414 1.398 . S
C415 C416 1.352 . S
C416 C415 1.352 . S
C416 C417 1.384 . S
C416 H438 0.930 . S
C417 C412 1.407 . S
C417 C416 1.384 . S
C417 H439 0.929 . S
C418 O428 1.241 . S
C418 O429 1.273 . S
C419 O430 1.251 . S
C419 O431 1.268 . S
O420 Nd400 2.500 1_655 S
O420 C402 1.258 . S
O421 Nd400 2.492 . S
O421 C402 1.239 1_455 S
O422 Nd400 2.487 . S
O422 C409 1.241 . S
O423 Nd400 2.682 . S
O423 Nd401 2.414 . S
O423 C409 1.273 . S
O424 Nd400 2.410 1_655 S
O424 C410 1.251 . S
O425 Nd401 2.424 1_655 S
O425 C410 1.268 . S
O426 Nd401 2.500 . S
O426 C411 1.258 . S
O427 Nd401 2.492 . S
O427 C411 1.239 . S
O428 Nd401 2.487 . S
O428 C418 1.241 . S
O429 Nd400 2.414 . S
O429 Nd401 2.682 . S
O429 C418 1.273 . S
O430 Nd401 2.410 . S
O430 C419 1.251 . S
O431 Nd400 2.424 . S
O431 C419 1.268 . S
H432 C404 0.930 . S
H433 C405 0.929 . S
H434 C407 0.930 . S
H435 C408 0.929 . S
H436 C413 0.930 . S
H437 C414 0.929 . S
H438 C416 0.930 . S
H439 C417 0.929 . S
Nd440 C442 2.836 . S
Nd440 O460 2.500 . S
Nd440 O461 2.492 . S
Nd440 O462 2.487 . S
Nd440 O463 2.682 1_565 S
Nd440 O464 2.410 . S
Nd440 O469 2.414 . S
Nd440 O471 2.424 . S
Nd441 C451 2.836 . S
Nd441 O463 2.414 . S
Nd441 O465 2.424 . S
Nd441 O466 2.500 . S
Nd441 O467 2.492 . S
Nd441 O468 2.487 . S
Nd441 O469 2.682 1_545 S
Nd441 O470 2.410 . S
C442 Nd440 2.836 . S
C442 C443 1.498 . S
C442 O460 1.258 . S
C442 O461 1.239 . S
C443 C442 1.498 . S
C443 C444 1.366 . S
C443 C448 1.407 . S
C444 C443 1.366 . S
C444 C445 1.392 . S
C444 H472 0.930 . S
C445 C444 1.392 . S
C445 C446 1.398 . S
C445 H473 0.929 . S
C446 C445 1.398 . S
C446 C447 1.352 . S
C447 C446 1.352 . S
C447 C448 1.384 . S
C447 H474 0.930 . S
C448 C443 1.407 . S
C448 C447 1.384 . S
C448 H475 0.929 . S
C449 O462 1.241 . S
C449 O463 1.273 1_565 S
C450 O464 1.251 . S
C450 O465 1.268 1_565 S
C451 Nd441 2.836 . S
C451 C452 1.498 . S
C451 O466 1.258 . S
C451 O467 1.239 . S
C452 C451 1.498 . S
C452 C453 1.366 . S
C452 C457 1.407 . S
C453 C452 1.366 . S
C453 C454 1.392 . S
C453 H476 0.930 . S
C454 C453 1.392 . S
C454 C455 1.398 . S
C454 H477 0.929 . S
C455 C454 1.398 . S
C455 C456 1.352 . S
C456 C455 1.352 . S
C456 C457 1.384 . S
C456 H478 0.930 . S
C457 C452 1.407 . S
C457 C456 1.384 . S
C457 H479 0.929 . S
C458 O468 1.241 . S
C458 O469 1.273 1_545 S
C459 O470 1.251 . S
C459 O471 1.268 1_545 S
O460 Nd440 2.500 . S
O460 C442 1.258 . S
O461 Nd440 2.492 . S
O461 C442 1.239 . S
O462 Nd440 2.487 . S
O462 C449 1.241 . S
O463 Nd440 2.682 1_545 S
O463 Nd441 2.414 . S
O463 C449 1.273 1_545 S
O464 Nd440 2.410 . S
O464 C450 1.251 . S
O465 Nd441 2.424 . S
O465 C450 1.268 1_545 S
O466 Nd441 2.500 . S
O466 C451 1.258 . S
O467 Nd441 2.492 . S
O467 C451 1.239 . S
O468 Nd441 2.487 . S
O468 C458 1.241 . S
O469 Nd440 2.414 . S
O469 Nd441 2.682 1_565 S
O469 C458 1.273 1_565 S
O470 Nd441 2.410 . S
O470 C459 1.251 . S
O471 Nd440 2.424 . S
O471 C459 1.268 1_565 S
H472 C444 0.930 . S
H473 C445 0.929 . S
H474 C447 0.930 . S
H475 C448 0.929 . S
H476 C453 0.930 . S
H477 C454 0.929 . S
H478 C456 0.930 . S
H479 C457 0.929 . S
Nd480 C482 2.836 . S
Nd480 O500 2.500 . S
Nd480 O501 2.492 . S
Nd480 O502 2.487 . S
Nd480 O503 2.682 1_565 S
Nd480 O504 2.410 . S
Nd480 O509 2.414 . S
Nd480 O511 2.424 1_655 S
Nd481 C491 2.836 1_655 S
Nd481 O503 2.414 . S
Nd481 O505 2.424 . S
Nd481 O506 2.500 1_655 S
Nd481 O507 2.492 . S
Nd481 O508 2.487 . S
Nd481 O509 2.682 1_545 S
Nd481 O510 2.410 1_655 S
C482 Nd480 2.836 . S
C482 C483 1.498 . S
C482 O500 1.258 . S
C482 O501 1.239 . S
C483 C482 1.498 . S
C483 C484 1.366 . S
C483 C488 1.407 . S
C484 C483 1.366 . S
C484 C485 1.392 . S
C484 H512 0.930 . S
C485 C484 1.392 . S
C485 C486 1.398 . S
C485 H513 0.929 . S
C486 C485 1.398 . S
C486 C487 1.352 . S
C487 C486 1.352 . S
C487 C488 1.384 . S
C487 H514 0.930 . S
C488 C483 1.407 . S
C488 C487 1.384 . S
C488 H515 0.929 . S
C489 O502 1.241 . S
C489 O503 1.273 1_565 S
C490 O504 1.251 . S
C490 O505 1.268 1_565 S
C491 Nd481 2.836 1_455 S
C491 C492 1.498 . S
C491 O506 1.258 . S
C491 O507 1.239 1_455 S
C492 C491 1.498 . S
C492 C493 1.366 . S
C492 C497 1.407 . S
C493 C492 1.366 . S
C493 C494 1.392 . S
C493 H516 0.930 . S
C494 C493 1.392 . S
C494 C495 1.398 . S
C494 H517 0.929 . S
C495 C494 1.398 . S
C495 C496 1.352 . S
C496 C495 1.352 . S
C496 C497 1.384 . S
C496 H518 0.930 . S
C497 C492 1.407 . S
C497 C496 1.384 . S
C497 H519 0.929 . S
C498 O508 1.241 . S
C498 O509 1.273 1_545 S
C499 O510 1.251 . S
C499 O511 1.268 1_545 S
O500 Nd480 2.500 . S
O500 C482 1.258 . S
O501 Nd480 2.492 . S
O501 C482 1.239 . S
O502 Nd480 2.487 . S
O502 C489 1.241 . S
O503 Nd480 2.682 1_545 S
O503 Nd481 2.414 . S
O503 C489 1.273 1_545 S
O504 Nd480 2.410 . S
O504 C490 1.251 . S
O505 Nd481 2.424 . S
O505 C490 1.268 1_545 S
O506 Nd481 2.500 1_455 S
O506 C491 1.258 . S
O507 Nd481 2.492 . S
O507 C491 1.239 1_655 S
O508 Nd481 2.487 . S
O508 C498 1.241 . S
O509 Nd480 2.414 . S
O509 Nd481 2.682 1_565 S
O509 C498 1.273 1_565 S
O510 Nd481 2.410 1_455 S
O510 C499 1.251 . S
O511 Nd480 2.424 1_455 S
O511 C499 1.268 1_565 S
H512 C484 0.930 . S
H513 C485 0.929 . S
H514 C487 0.930 . S
H515 C488 0.929 . S
H516 C493 0.930 . S
H517 C494 0.929 . S
H518 C496 0.930 . S
H519 C497 0.929 . S
Nd520 C522 2.836 . S
Nd520 O540 2.500 . S
Nd520 O541 2.492 . S
Nd520 O542 2.487 . S
Nd520 O543 2.682 . S
Nd520 O544 2.410 . S
Nd520 O549 2.414 . S
Nd520 O551 2.424 . S
Nd521 C531 2.836 . S
Nd521 O543 2.414 . S
Nd521 O545 2.424 . S
Nd521 O546 2.500 . S
Nd521 O547 2.492 . S
Nd521 O548 2.487 . S
Nd521 O549 2.682 . S
Nd521 O550 2.410 . S
C522 Nd520 2.836 . S
C522 C523 1.498 . S
C522 O540 1.258 . S
C522 O541 1.239 . S
C523 C522 1.498 . S
C523 C524 1.366 . S
C523 C528 1.407 . S
C524 C523 1.366 . S
C524 C525 1.392 . S
C524 H552 0.930 . S
C525 C524 1.392 . S
C525 C526 1.398 . S
C525 H553 0.929 . S
C526 C525 1.398 . S
C526 C527 1.352 . S
C527 C526 1.352 . S
C527 C528 1.384 . S
C527 H554 0.930 . S
C528 C523 1.407 . S
C528 C527 1.384 . S
C528 H555 0.929 . S
C529 O542 1.241 . S
C529 O543 1.273 . S
C530 O544 1.251 . S
C530 O545 1.268 . S
C531 Nd521 2.836 . S
C531 C532 1.498 . S
C531 O546 1.258 . S
C531 O547 1.239 . S
C532 C531 1.498 . S
C532 C533 1.366 . S
C532 C537 1.407 . S
C533 C532 1.366 . S
C533 C534 1.392 . S
C533 H556 0.930 . S
C534 C533 1.392 . S
C534 C535 1.398 . S
C534 H557 0.929 . S
C535 C534 1.398 . S
C535 C536 1.352 . S
C536 C535 1.352 . S
C536 C537 1.384 . S
C536 H558 0.930 . S
C537 C532 1.407 . S
C537 C536 1.384 . S
C537 H559 0.929 . S
C538 O548 1.241 . S
C538 O549 1.273 . S
C539 O550 1.251 . S
C539 O551 1.268 . S
O540 Nd520 2.500 . S
O540 C522 1.258 . S
O541 Nd520 2.492 . S
O541 C522 1.239 . S
O542 Nd520 2.487 . S
O542 C529 1.241 . S
O543 Nd520 2.682 . S
O543 Nd521 2.414 . S
O543 C529 1.273 . S
O544 Nd520 2.410 . S
O544 C530 1.251 . S
O545 Nd521 2.424 . S
O545 C530 1.268 . S
O546 Nd521 2.500 . S
O546 C531 1.258 . S
O547 Nd521 2.492 . S
O547 C531 1.239 . S
O548 Nd521 2.487 . S
O548 C538 1.241 . S
O549 Nd520 2.414 . S
O549 Nd521 2.682 . S
O549 C538 1.273 . S
O550 Nd521 2.410 . S
O550 C539 1.251 . S
O551 Nd520 2.424 . S
O551 C539 1.268 . S
H552 C524 0.930 . S
H553 C525 0.929 . S
H554 C527 0.930 . S
H555 C528 0.929 . S
H556 C533 0.930 . S
H557 C534 0.929 . S
H558 C536 0.930 . S
H559 C537 0.929 . S
Nd560 C562 2.836 . S
Nd560 O580 2.500 . S
Nd560 O581 2.492 . S
Nd560 O582 2.487 . S
Nd560 O583 2.682 . S
Nd560 O584 2.410 . S
Nd560 O589 2.414 . S
Nd560 O591 2.424 1_655 S
Nd561 C571 2.836 1_655 S
Nd561 O583 2.414 . S
Nd561 O585 2.424 . S
Nd561 O586 2.500 1_655 S
Nd561 O587 2.492 . S
Nd561 O588 2.487 . S
Nd561 O589 2.682 . S
Nd561 O590 2.410 1_655 S
C562 Nd560 2.836 . S
C562 C563 1.498 . S
C562 O580 1.258 . S
C562 O581 1.239 . S
C563 C562 1.498 . S
C563 C564 1.366 . S
C563 C568 1.407 . S
C564 C563 1.366 . S
C564 C565 1.392 . S
C564 H592 0.930 . S
C565 C564 1.392 . S
C565 C566 1.398 . S
C565 H593 0.929 . S
C566 C565 1.398 . S
C566 C567 1.352 . S
C567 C566 1.352 . S
C567 C568 1.384 . S
C567 H594 0.930 . S
C568 C563 1.407 . S
C568 C567 1.384 . S
C568 H595 0.929 . S
C569 O582 1.241 . S
C569 O583 1.273 . S
C570 O584 1.251 . S
C570 O585 1.268 . S
C571 Nd561 2.836 1_455 S
C571 C572 1.498 . S
C571 O586 1.258 . S
C571 O587 1.239 1_455 S
C572 C571 1.498 . S
C572 C573 1.366 . S
C572 C577 1.407 . S
C573 C572 1.366 . S
C573 C574 1.392 . S
C573 H596 0.930 . S
C574 C573 1.392 . S
C574 C575 1.398 . S
C574 H597 0.929 . S
C575 C574 1.398 . S
C575 C576 1.352 . S
C576 C575 1.352 . S
C576 C577 1.384 . S
C576 H598 0.930 . S
C577 C572 1.407 . S
C577 C576 1.384 . S
C577 H599 0.929 . S
C578 O588 1.241 . S
C578 O589 1.273 . S
C579 O590 1.251 . S
C579 O591 1.268 . S
O580 Nd560 2.500 . S
O580 C562 1.258 . S
O581 Nd560 2.492 . S
O581 C562 1.239 . S
O582 Nd560 2.487 . S
O582 C569 1.241 . S
O583 Nd560 2.682 . S
O583 Nd561 2.414 . S
O583 C569 1.273 . S
O584 Nd560 2.410 . S
O584 C570 1.251 . S
O585 Nd561 2.424 . S
O585 C570 1.268 . S
O586 Nd561 2.500 1_455 S
O586 C571 1.258 . S
O587 Nd561 2.492 . S
O587 C571 1.239 1_655 S
O588 Nd561 2.487 . S
O588 C578 1.241 . S
O589 Nd560 2.414 . S
O589 Nd561 2.682 . S
O589 C578 1.273 . S
O590 Nd561 2.410 1_455 S
O590 C579 1.251 . S
O591 Nd560 2.424 1_455 S
O591 C579 1.268 . S
H592 C564 0.930 . S
H593 C565 0.929 . S
H594 C567 0.930 . S
H595 C568 0.929 . S
H596 C573 0.930 . S
H597 C574 0.929 . S
H598 C576 0.930 . S
H599 C577 0.929 . S
Nd600 C602 2.836 . S
Nd600 O620 2.500 . S
Nd600 O621 2.492 . S
Nd600 O622 2.487 . S
Nd600 O623 2.682 1_565 S
Nd600 O624 2.410 . S
Nd600 O629 2.414 . S
Nd600 O631 2.424 . S
Nd601 C611 2.836 . S
Nd601 O623 2.414 . S
Nd601 O625 2.424 . S
Nd601 O626 2.500 . S
Nd601 O627 2.492 . S
Nd601 O628 2.487 . S
Nd601 O629 2.682 1_545 S
Nd601 O630 2.410 . S
C602 Nd600 2.836 . S
C602 C603 1.498 . S
C602 O620 1.258 . S
C602 O621 1.239 . S
C603 C602 1.498 . S
C603 C604 1.366 . S
C603 C608 1.407 . S
C604 C603 1.366 . S
C604 C605 1.392 . S
C604 H632 0.930 . S
C605 C604 1.392 . S
C605 C606 1.398 . S
C605 H633 0.929 . S
C606 C605 1.398 . S
C606 C607 1.352 . S
C607 C606 1.352 . S
C607 C608 1.384 . S
C607 H634 0.930 . S
C608 C603 1.407 . S
C608 C607 1.384 . S
C608 H635 0.929 . S
C609 O622 1.241 . S
C609 O623 1.273 1_565 S
C610 O624 1.251 . S
C610 O625 1.268 1_565 S
C611 Nd601 2.836 . S
C611 C612 1.498 . S
C611 O626 1.258 . S
C611 O627 1.239 . S
C612 C611 1.498 . S
C612 C613 1.366 . S
C612 C617 1.407 . S
C613 C612 1.366 . S
C613 C614 1.392 . S
C613 H636 0.930 . S
C614 C613 1.392 . S
C614 C615 1.398 . S
C614 H637 0.929 . S
C615 C614 1.398 . S
C615 C616 1.352 . S
C616 C615 1.352 . S
C616 C617 1.384 . S
C616 H638 0.930 . S
C617 C612 1.407 . S
C617 C616 1.384 . S
C617 H639 0.929 . S
C618 O628 1.241 . S
C618 O629 1.273 1_545 S
C619 O630 1.251 . S
C619 O631 1.268 1_545 S
O620 Nd600 2.500 . S
O620 C602 1.258 . S
O621 Nd600 2.492 . S
O621 C602 1.239 . S
O622 Nd600 2.487 . S
O622 C609 1.241 . S
O623 Nd600 2.682 1_545 S
O623 Nd601 2.414 . S
O623 C609 1.273 1_545 S
O624 Nd600 2.410 . S
O624 C610 1.251 . S
O625 Nd601 2.424 . S
O625 C610 1.268 1_545 S
O626 Nd601 2.500 . S
O626 C611 1.258 . S
O627 Nd601 2.492 . S
O627 C611 1.239 . S
O628 Nd601 2.487 . S
O628 C618 1.241 . S
O629 Nd600 2.414 . S
O629 Nd601 2.682 1_565 S
O629 C618 1.273 1_565 S
O630 Nd601 2.410 . S
O630 C619 1.251 . S
O631 Nd600 2.424 . S
O631 C619 1.268 1_565 S
H632 C604 0.930 . S
H633 C605 0.929 . S
H634 C607 0.930 . S
H635 C608 0.929 . S
H636 C613 0.930 . S
H637 C614 0.929 . S
H638 C616 0.930 . S
H639 C617 0.929 . S
Nd640 C642 2.836 . S
Nd640 O660 2.500 . S
Nd640 O661 2.492 . S
Nd640 O662 2.487 . S
Nd640 O663 2.682 . S
Nd640 O664 2.410 . S
Nd640 O669 2.414 . S
Nd640 O671 2.424 . S
Nd641 C651 2.836 . S
Nd641 O663 2.414 . S
Nd641 O665 2.424 . S
Nd641 O666 2.500 . S
Nd641 O667 2.492 . S
Nd641 O668 2.487 . S
Nd641 O669 2.682 . S
Nd641 O670 2.410 . S
C642 Nd640 2.836 . S
C642 C643 1.498 . S
C642 O660 1.258 . S
C642 O661 1.239 . S
C643 C642 1.498 . S
C643 C644 1.366 . S
C643 C648 1.407 . S
C644 C643 1.366 . S
C644 C645 1.392 . S
C644 H672 0.930 . S
C645 C644 1.392 . S
C645 C646 1.398 . S
C645 H673 0.929 . S
C646 C645 1.398 . S
C646 C647 1.352 . S
C647 C646 1.352 . S
C647 C648 1.384 . S
C647 H674 0.930 . S
C648 C643 1.407 . S
C648 C647 1.384 . S
C648 H675 0.929 . S
C649 O662 1.241 . S
C649 O663 1.273 . S
C650 O664 1.251 . S
C650 O665 1.268 . S
C651 Nd641 2.836 . S
C651 C652 1.498 . S
C651 O666 1.258 . S
C651 O667 1.239 . S
C652 C651 1.498 . S
C652 C653 1.366 . S
C652 C657 1.407 . S
C653 C652 1.366 . S
C653 C654 1.392 . S
C653 H676 0.930 . S
C654 C653 1.392 . S
C654 C655 1.398 . S
C654 H677 0.929 . S
C655 C654 1.398 . S
C655 C656 1.352 . S
C656 C655 1.352 . S
C656 C657 1.384 . S
C656 H678 0.930 . S
C657 C652 1.407 . S
C657 C656 1.384 . S
C657 H679 0.929 . S
C658 O668 1.241 . S
C658 O669 1.273 . S
C659 O670 1.251 . S
C659 O671 1.268 . S
O660 Nd640 2.500 . S
O660 C642 1.258 . S
O661 Nd640 2.492 . S
O661 C642 1.239 . S
O662 Nd640 2.487 . S
O662 C649 1.241 . S
O663 Nd640 2.682 . S
O663 Nd641 2.414 . S
O663 C649 1.273 . S
O664 Nd640 2.410 . S
O664 C650 1.251 . S
O665 Nd641 2.424 . S
O665 C650 1.268 . S
O666 Nd641 2.500 . S
O666 C651 1.258 . S
O667 Nd641 2.492 . S
O667 C651 1.239 . S
O668 Nd641 2.487 . S
O668 C658 1.241 . S
O669 Nd640 2.414 . S
O669 Nd641 2.682 . S
O669 C658 1.273 . S
O670 Nd641 2.410 . S
O670 C659 1.251 . S
O671 Nd640 2.424 . S
O671 C659 1.268 . S
H672 C644 0.930 . S
H673 C645 0.929 . S
H674 C647 0.930 . S
H675 C648 0.929 . S
H676 C653 0.930 . S
H677 C654 0.929 . S
H678 C656 0.930 . S
H679 C657 0.929 . S
Nd680 C682 2.836 . S
Nd680 O700 2.500 . S
Nd680 O701 2.492 . S
Nd680 O702 2.487 . S
Nd680 O703 2.682 . S
Nd680 O704 2.410 . S
Nd680 O709 2.414 . S
Nd680 O711 2.424 . S
Nd681 C691 2.836 . S
Nd681 O703 2.414 . S
Nd681 O705 2.424 . S
Nd681 O706 2.500 . S
Nd681 O707 2.492 . S
Nd681 O708 2.487 . S
Nd681 O709 2.682 . S
Nd681 O710 2.410 . S
C682 Nd680 2.836 . S
C682 C683 1.498 . S
C682 O700 1.258 . S
C682 O701 1.239 . S
C683 C682 1.498 . S
C683 C684 1.366 . S
C683 C688 1.407 . S
C684 C683 1.366 . S
C684 C685 1.392 . S
C684 H712 0.930 . S
C685 C684 1.392 . S
C685 C686 1.398 . S
C685 H713 0.929 . S
C686 C685 1.398 . S
C686 C687 1.352 . S
C687 C686 1.352 . S
C687 C688 1.384 . S
C687 H714 0.930 . S
C688 C683 1.407 . S
C688 C687 1.384 . S
C688 H715 0.929 . S
C689 O702 1.241 . S
C689 O703 1.273 . S
C690 O704 1.251 . S
C690 O705 1.268 . S
C691 Nd681 2.836 . S
C691 C692 1.498 . S
C691 O706 1.258 . S
C691 O707 1.239 . S
C692 C691 1.498 . S
C692 C693 1.366 . S
C692 C697 1.407 . S
C693 C692 1.366 . S
C693 C694 1.392 . S
C693 H716 0.930 . S
C694 C693 1.392 . S
C694 C695 1.398 . S
C694 H717 0.929 . S
C695 C694 1.398 . S
C695 C696 1.352 . S
C696 C695 1.352 . S
C696 C697 1.384 . S
C696 H718 0.930 . S
C697 C692 1.407 . S
C697 C696 1.384 . S
C697 H719 0.929 . S
C698 O708 1.241 . S
C698 O709 1.273 . S
C699 O710 1.251 . S
C699 O711 1.268 . S
O700 Nd680 2.500 . S
O700 C682 1.258 . S
O701 Nd680 2.492 . S
O701 C682 1.239 . S
O702 Nd680 2.487 . S
O702 C689 1.241 . S
O703 Nd680 2.682 . S
O703 Nd681 2.414 . S
O703 C689 1.273 . S
O704 Nd680 2.410 . S
O704 C690 1.251 . S
O705 Nd681 2.424 . S
O705 C690 1.268 . S
O706 Nd681 2.500 . S
O706 C691 1.258 . S
O707 Nd681 2.492 . S
O707 C691 1.239 . S
O708 Nd681 2.487 . S
O708 C698 1.241 . S
O709 Nd680 2.414 . S
O709 Nd681 2.682 . S
O709 C698 1.273 . S
O710 Nd681 2.410 . S
O710 C699 1.251 . S
O711 Nd680 2.424 . S
O711 C699 1.268 . S
H712 C684 0.930 . S
H713 C685 0.929 . S
H714 C687 0.930 . S
H715 C688 0.929 . S
H716 C693 0.930 . S
H717 C694 0.929 . S
H718 C696 0.930 . S
H719 C697 0.929 . S
Nd720 C722 2.836 . S
Nd720 O740 2.500 . S
Nd720 O741 2.492 . S
Nd720 O742 2.487 . S
Nd720 O743 2.682 . S
Nd720 O744 2.410 . S
Nd720 O749 2.414 . S
Nd720 O751 2.424 . S
Nd721 C731 2.836 . S
Nd721 O743 2.414 . S
Nd721 O745 2.424 . S
Nd721 O746 2.500 . S
Nd721 O747 2.492 . S
Nd721 O748 2.487 . S
Nd721 O749 2.682 . S
Nd721 O750 2.410 . S
C722 Nd720 2.836 . S
C722 C723 1.498 . S
C722 O740 1.258 . S
C722 O741 1.239 . S
C723 C722 1.498 . S
C723 C724 1.366 . S
C723 C728 1.407 . S
C724 C723 1.366 . S
C724 C725 1.392 . S
C724 H752 0.930 . S
C725 C724 1.392 . S
C725 C726 1.398 . S
C725 H753 0.929 . S
C726 C725 1.398 . S
C726 C727 1.352 . S
C727 C726 1.352 . S
C727 C728 1.384 . S
C727 H754 0.930 . S
C728 C723 1.407 . S
C728 C727 1.384 . S
C728 H755 0.929 . S
C729 O742 1.241 . S
C729 O743 1.273 . S
C730 O744 1.251 . S
C730 O745 1.268 . S
C731 Nd721 2.836 . S
C731 C732 1.498 . S
C731 O746 1.258 . S
C731 O747 1.239 . S
C732 C731 1.498 . S
C732 C733 1.366 . S
C732 C737 1.407 . S
C733 C732 1.366 . S
C733 C734 1.392 . S
C733 H756 0.930 . S
C734 C733 1.392 . S
C734 C735 1.398 . S
C734 H757 0.929 . S
C735 C734 1.398 . S
C735 C736 1.352 . S
C736 C735 1.352 . S
C736 C737 1.384 . S
C736 H758 0.930 . S
C737 C732 1.407 . S
C737 C736 1.384 . S
C737 H759 0.929 . S
C738 O748 1.241 . S
C738 O749 1.273 . S
C739 O750 1.251 . S
C739 O751 1.268 . S
O740 Nd720 2.500 . S
O740 C722 1.258 . S
O741 Nd720 2.492 . S
O741 C722 1.239 . S
O742 Nd720 2.487 . S
O742 C729 1.241 . S
O743 Nd720 2.682 . S
O743 Nd721 2.414 . S
O743 C729 1.273 . S
O744 Nd720 2.410 . S
O744 C730 1.251 . S
O745 Nd721 2.424 . S
O745 C730 1.268 . S
O746 Nd721 2.500 . S
O746 C731 1.258 . S
O747 Nd721 2.492 . S
O747 C731 1.239 . S
O748 Nd721 2.487 . S
O748 C738 1.241 . S
O749 Nd720 2.414 . S
O749 Nd721 2.682 . S
O749 C738 1.273 . S
O750 Nd721 2.410 . S
O750 C739 1.251 . S
O751 Nd720 2.424 . S
O751 C739 1.268 . S
H752 C724 0.930 . S
H753 C725 0.929 . S
H754 C727 0.930 . S
H755 C728 0.929 . S
H756 C733 0.930 . S
H757 C734 0.929 . S
H758 C736 0.930 . S
H759 C737 0.929 . S
Nd760 C762 2.836 . S
Nd760 O780 2.500 . S
Nd760 O781 2.492 . S
Nd760 O782 2.487 . S
Nd760 O783 2.682 . S
Nd760 O784 2.410 . S
Nd760 O789 2.414 . S
Nd760 O791 2.424 . S
Nd761 C771 2.836 . S
Nd761 O783 2.414 . S
Nd761 O785 2.424 . S
Nd761 O786 2.500 . S
Nd761 O787 2.492 . S
Nd761 O788 2.487 . S
Nd761 O789 2.682 . S
Nd761 O790 2.410 . S
C762 Nd760 2.836 . S
C762 C763 1.498 . S
C762 O780 1.258 . S
C762 O781 1.239 . S
C763 C762 1.498 . S
C763 C764 1.366 . S
C763 C768 1.407 . S
C764 C763 1.366 . S
C764 C765 1.392 . S
C764 H792 0.930 . S
C765 C764 1.392 . S
C765 C766 1.398 . S
C765 H793 0.929 . S
C766 C765 1.398 . S
C766 C767 1.352 . S
C767 C766 1.352 . S
C767 C768 1.384 . S
C767 H794 0.930 . S
C768 C763 1.407 . S
C768 C767 1.384 . S
C768 H795 0.929 . S
C769 O782 1.241 . S
C769 O783 1.273 . S
C770 O784 1.251 . S
C770 O785 1.268 . S
C771 Nd761 2.836 . S
C771 C772 1.498 . S
C771 O786 1.258 . S
C771 O787 1.239 . S
C772 C771 1.498 . S
C772 C773 1.366 . S
C772 C777 1.407 . S
C773 C772 1.366 . S
C773 C774 1.392 . S
C773 H796 0.930 . S
C774 C773 1.392 . S
C774 C775 1.398 . S
C774 H797 0.929 . S
C775 C774 1.398 . S
C775 C776 1.352 . S
C776 C775 1.352 . S
C776 C777 1.384 . S
C776 H798 0.930 . S
C777 C772 1.407 . S
C777 C776 1.384 . S
C777 H799 0.929 . S
C778 O788 1.241 . S
C778 O789 1.273 . S
C779 O790 1.251 . S
C779 O791 1.268 . S
O780 Nd760 2.500 . S
O780 C762 1.258 . S
O781 Nd760 2.492 . S
O781 C762 1.239 . S
O782 Nd760 2.487 . S
O782 C769 1.241 . S
O783 Nd760 2.682 . S
O783 Nd761 2.414 . S
O783 C769 1.273 . S
O784 Nd760 2.410 . S
O784 C770 1.251 . S
O785 Nd761 2.424 . S
O785 C770 1.268 . S
O786 Nd761 2.500 . S
O786 C771 1.258 . S
O787 Nd761 2.492 . S
O787 C771 1.239 . S
O788 Nd761 2.487 . S
O788 C778 1.241 . S
O789 Nd760 2.414 . S
O789 Nd761 2.682 . S
O789 C778 1.273 . S
O790 Nd761 2.410 . S
O790 C779 1.251 . S
O791 Nd760 2.424 . S
O791 C779 1.268 . S
H792 C764 0.930 . S
H793 C765 0.929 . S
H794 C767 0.930 . S
H795 C768 0.929 . S
H796 C773 0.930 . S
H797 C774 0.929 . S
H798 C776 0.930 . S
H799 C777 0.929 . S
Nd800 C802 2.836 . S
Nd800 O820 2.500 . S
Nd800 O821 2.492 . S
Nd800 O822 2.487 . S
Nd800 O823 2.682 . S
Nd800 O824 2.410 . S
Nd800 O829 2.414 . S
Nd800 O831 2.424 . S
Nd801 C811 2.836 . S
Nd801 O823 2.414 . S
Nd801 O825 2.424 . S
Nd801 O826 2.500 . S
Nd801 O827 2.492 . S
Nd801 O828 2.487 . S
Nd801 O829 2.682 . S
Nd801 O830 2.410 . S
C802 Nd800 2.836 . S
C802 C803 1.498 . S
C802 O820 1.258 . S
C802 O821 1.239 . S
C803 C802 1.498 . S
C803 C804 1.366 . S
C803 C808 1.407 . S
C804 C803 1.366 . S
C804 C805 1.392 . S
C804 H832 0.930 . S
C805 C804 1.392 . S
C805 C806 1.398 . S
C805 H833 0.929 . S
C806 C805 1.398 . S
C806 C807 1.352 . S
C807 C806 1.352 . S
C807 C808 1.384 . S
C807 H834 0.930 . S
C808 C803 1.407 . S
C808 C807 1.384 . S
C808 H835 0.929 . S
C809 O822 1.241 . S
C809 O823 1.273 . S
C810 O824 1.251 . S
C810 O825 1.268 . S
C811 Nd801 2.836 . S
C811 C812 1.498 . S
C811 O826 1.258 . S
C811 O827 1.239 . S
C812 C811 1.498 . S
C812 C813 1.366 . S
C812 C817 1.407 . S
C813 C812 1.366 . S
C813 C814 1.392 . S
C813 H836 0.930 . S
C814 C813 1.392 . S
C814 C815 1.398 . S
C814 H837 0.929 . S
C815 C814 1.398 . S
C815 C816 1.352 . S
C816 C815 1.352 . S
C816 C817 1.384 . S
C816 H838 0.930 . S
C817 C812 1.407 . S
C817 C816 1.384 . S
C817 H839 0.929 . S
C818 O828 1.241 . S
C818 O829 1.273 . S
C819 O830 1.251 . S
C819 O831 1.268 . S
O820 Nd800 2.500 . S
O820 C802 1.258 . S
O821 Nd800 2.492 . S
O821 C802 1.239 . S
O822 Nd800 2.487 . S
O822 C809 1.241 . S
O823 Nd800 2.682 . S
O823 Nd801 2.414 . S
O823 C809 1.273 . S
O824 Nd800 2.410 . S
O824 C810 1.251 . S
O825 Nd801 2.424 . S
O825 C810 1.268 . S
O826 Nd801 2.500 . S
O826 C811 1.258 . S
O827 Nd801 2.492 . S
O827 C811 1.239 . S
O828 Nd801 2.487 . S
O828 C818 1.241 . S
O829 Nd800 2.414 . S
O829 Nd801 2.682 . S
O829 C818 1.273 . S
O830 Nd801 2.410 . S
O830 C819 1.251 . S
O831 Nd800 2.424 . S
O831 C819 1.268 . S
H832 C804 0.930 . S
H833 C805 0.929 . S
H834 C807 0.930 . S
H835 C808 0.929 . S
H836 C813 0.930 . S
H837 C814 0.929 . S
H838 C816 0.930 . S
H839 C817 0.929 . S
Nd840 C842 2.836 . S
Nd840 O860 2.500 . S
Nd840 O861 2.492 . S
Nd840 O862 2.487 . S
Nd840 O863 2.682 . S
Nd840 O864 2.410 . S
Nd840 O869 2.414 . S
Nd840 O871 2.424 . S
Nd841 C851 2.836 . S
Nd841 O863 2.414 . S
Nd841 O865 2.424 . S
Nd841 O866 2.500 . S
Nd841 O867 2.492 . S
Nd841 O868 2.487 . S
Nd841 O869 2.682 . S
Nd841 O870 2.410 . S
C842 Nd840 2.836 . S
C842 C843 1.498 . S
C842 O860 1.258 . S
C842 O861 1.239 . S
C843 C842 1.498 . S
C843 C844 1.366 . S
C843 C848 1.407 . S
C844 C843 1.366 . S
C844 C845 1.392 . S
C844 H872 0.930 . S
C845 C844 1.392 . S
C845 C846 1.398 . S
C845 H873 0.929 . S
C846 C845 1.398 . S
C846 C847 1.352 . S
C847 C846 1.352 . S
C847 C848 1.384 . S
C847 H874 0.930 . S
C848 C843 1.407 . S
C848 C847 1.384 . S
C848 H875 0.929 . S
C849 O862 1.241 . S
C849 O863 1.273 . S
C850 O864 1.251 . S
C850 O865 1.268 . S
C851 Nd841 2.836 . S
C851 C852 1.498 . S
C851 O866 1.258 . S
C851 O867 1.239 . S
C852 C851 1.498 . S
C852 C853 1.366 . S
C852 C857 1.407 . S
C853 C852 1.366 . S
C853 C854 1.392 . S
C853 H876 0.930 . S
C854 C853 1.392 . S
C854 C855 1.398 . S
C854 H877 0.929 . S
C855 C854 1.398 . S
C855 C856 1.352 . S
C856 C855 1.352 . S
C856 C857 1.384 . S
C856 H878 0.930 . S
C857 C852 1.407 . S
C857 C856 1.384 . S
C857 H879 0.929 . S
C858 O868 1.241 . S
C858 O869 1.273 . S
C859 O870 1.251 . S
C859 O871 1.268 . S
O860 Nd840 2.500 . S
O860 C842 1.258 . S
O861 Nd840 2.492 . S
O861 C842 1.239 . S
O862 Nd840 2.487 . S
O862 C849 1.241 . S
O863 Nd840 2.682 . S
O863 Nd841 2.414 . S
O863 C849 1.273 . S
O864 Nd840 2.410 . S
O864 C850 1.251 . S
O865 Nd841 2.424 . S
O865 C850 1.268 . S
O866 Nd841 2.500 . S
O866 C851 1.258 . S
O867 Nd841 2.492 . S
O867 C851 1.239 . S
O868 Nd841 2.487 . S
O868 C858 1.241 . S
O869 Nd840 2.414 . S
O869 Nd841 2.682 . S
O869 C858 1.273 . S
O870 Nd841 2.410 . S
O870 C859 1.251 . S
O871 Nd840 2.424 . S
O871 C859 1.268 . S
H872 C844 0.930 . S
H873 C845 0.929 . S
H874 C847 0.930 . S
H875 C848 0.929 . S
H876 C853 0.930 . S
H877 C854 0.929 . S
H878 C856 0.930 . S
H879 C857 0.929 . S
Nd880 C882 2.836 . S
Nd880 O900 2.500 . S
Nd880 O901 2.492 . S
Nd880 O902 2.487 . S
Nd880 O903 2.682 . S
Nd880 O904 2.410 . S
Nd880 O909 2.414 . S
Nd880 O911 2.424 . S
Nd881 C891 2.836 . S
Nd881 O903 2.414 . S
Nd881 O905 2.424 . S
Nd881 O906 2.500 . S
Nd881 O907 2.492 . S
Nd881 O908 2.487 . S
Nd881 O909 2.682 . S
Nd881 O910 2.410 . S
C882 Nd880 2.836 . S
C882 C883 1.498 . S
C882 O900 1.258 . S
C882 O901 1.239 . S
C883 C882 1.498 . S
C883 C884 1.366 . S
C883 C888 1.407 . S
C884 C883 1.366 . S
C884 C885 1.392 . S
C884 H912 0.930 . S
C885 C884 1.392 . S
C885 C886 1.398 . S
C885 H913 0.929 . S
C886 C885 1.398 . S
C886 C887 1.352 . S
C887 C886 1.352 . S
C887 C888 1.384 . S
C887 H914 0.930 . S
C888 C883 1.407 . S
C888 C887 1.384 . S
C888 H915 0.929 . S
C889 O902 1.241 . S
C889 O903 1.273 . S
C890 O904 1.251 . S
C890 O905 1.268 . S
C891 Nd881 2.836 . S
C891 C892 1.498 . S
C891 O906 1.258 . S
C891 O907 1.239 . S
C892 C891 1.498 . S
C892 C893 1.366 . S
C892 C897 1.407 . S
C893 C892 1.366 . S
C893 C894 1.392 . S
C893 H916 0.930 . S
C894 C893 1.392 . S
C894 C895 1.398 . S
C894 H917 0.929 . S
C895 C894 1.398 . S
C895 C896 1.352 . S
C896 C895 1.352 . S
C896 C897 1.384 . S
C896 H918 0.930 . S
C897 C892 1.407 . S
C897 C896 1.384 . S
C897 H919 0.929 . S
C898 O908 1.241 . S
C898 O909 1.273 . S
C899 O910 1.251 . S
C899 O911 1.268 . S
O900 Nd880 2.500 . S
O900 C882 1.258 . S
O901 Nd880 2.492 . S
O901 C882 1.239 . S
O902 Nd880 2.487 . S
O902 C889 1.241 . S
O903 Nd880 2.682 . S
O903 Nd881 2.414 . S
O903 C889 1.273 . S
O904 Nd880 2.410 . S
O904 C890 1.251 . S
O905 Nd881 2.424 . S
O905 C890 1.268 . S
O906 Nd881 2.500 . S
O906 C891 1.258 . S
O907 Nd881 2.492 . S
O907 C891 1.239 . S
O908 Nd881 2.487 . S
O908 C898 1.241 . S
O909 Nd880 2.414 . S
O909 Nd881 2.682 . S
O909 C898 1.273 . S
O910 Nd881 2.410 . S
O910 C899 1.251 . S
O911 Nd880 2.424 . S
O911 C899 1.268 . S
H912 C884 0.930 . S
H913 C885 0.929 . S
H914 C887 0.930 . S
H915 C888 0.929 . S
H916 C893 0.930 . S
H917 C894 0.929 . S
H918 C896 0.930 . S
H919 C897 0.929 . S
Nd920 C922 2.836 . S
Nd920 O940 2.500 . S
Nd920 O941 2.492 . S
Nd920 O942 2.487 . S
Nd920 O943 2.682 . S
Nd920 O944 2.410 . S
Nd920 O949 2.414 . S
Nd920 O951 2.424 . S
Nd921 C931 2.836 . S
Nd921 O943 2.414 . S
Nd921 O945 2.424 . S
Nd921 O946 2.500 . S
Nd921 O947 2.492 . S
Nd921 O948 2.487 . S
Nd921 O949 2.682 . S
Nd921 O950 2.410 . S
C922 Nd920 2.836 . S
C922 C923 1.498 . S
C922 O940 1.258 . S
C922 O941 1.239 . S
C923 C922 1.498 . S
C923 C924 1.366 . S
C923 C928 1.407 . S
C924 C923 1.366 . S
C924 C925 1.392 . S
C924 H952 0.930 . S
C925 C924 1.392 . S
C925 C926 1.398 . S
C925 H953 0.929 . S
C926 C925 1.398 . S
C926 C927 1.352 . S
C927 C926 1.352 . S
C927 C928 1.384 . S
C927 H954 0.930 . S
C928 C923 1.407 . S
C928 C927 1.384 . S
C928 H955 0.929 . S
C929 O942 1.241 . S
C929 O943 1.273 . S
C930 O944 1.251 . S
C930 O945 1.268 . S
C931 Nd921 2.836 . S
C931 C932 1.498 . S
C931 O946 1.258 . S
C931 O947 1.239 . S
C932 C931 1.498 . S
C932 C933 1.366 . S
C932 C937 1.407 . S
C933 C932 1.366 . S
C933 C934 1.392 . S
C933 H956 0.930 . S
C934 C933 1.392 . S
C934 C935 1.398 . S
C934 H957 0.929 . S
C935 C934 1.398 . S
C935 C936 1.352 . S
C936 C935 1.352 . S
C936 C937 1.384 . S
C936 H958 0.930 . S
C937 C932 1.407 . S
C937 C936 1.384 . S
C937 H959 0.929 . S
C938 O948 1.241 . S
C938 O949 1.273 . S
C939 O950 1.251 . S
C939 O951 1.268 . S
O940 Nd920 2.500 . S
O940 C922 1.258 . S
O941 Nd920 2.492 . S
O941 C922 1.239 . S
O942 Nd920 2.487 . S
O942 C929 1.241 . S
O943 Nd920 2.682 . S
O943 Nd921 2.414 . S
O943 C929 1.273 . S
O944 Nd920 2.410 . S
O944 C930 1.251 . S
O945 Nd921 2.424 . S
O945 C930 1.268 . S
O946 Nd921 2.500 . S
O946 C931 1.258 . S
O947 Nd921 2.492 . S
O947 C931 1.239 . S
O948 Nd921 2.487 . S
O948 C938 1.241 . S
O949 Nd920 2.414 . S
O949 Nd921 2.682 . S
O949 C938 1.273 . S
O950 Nd921 2.410 . S
O950 C939 1.251 . S
O951 Nd920 2.424 . S
O951 C939 1.268 . S
H952 C924 0.930 . S
H953 C925 0.929 . S
H954 C927 0.930 . S
H955 C928 0.929 . S
H956 C933 0.930 . S
H957 C934 0.929 . S
H958 C936 0.930 . S
H959 C937 0.929 . S
Nd960 C962 2.836 . S
Nd960 O980 2.500 . S
Nd960 O981 2.492 . S
Nd960 O982 2.487 . S
Nd960 O983 2.682 1_565 S
Nd960 O984 2.410 . S
Nd960 O989 2.414 . S
Nd960 O991 2.424 . S
Nd961 C971 2.836 . S
Nd961 O983 2.414 . S
Nd961 O985 2.424 . S
Nd961 O986 2.500 . S
Nd961 O987 2.492 . S
Nd961 O988 2.487 . S
Nd961 O989 2.682 1_545 S
Nd961 O990 2.410 . S
C962 Nd960 2.836 . S
C962 C963 1.498 . S
C962 O980 1.258 . S
C962 O981 1.239 . S
C963 C962 1.498 . S
C963 C964 1.366 . S
C963 C968 1.407 . S
C964 C963 1.366 . S
C964 C965 1.392 . S
C964 H992 0.930 . S
C965 C964 1.392 . S
C965 C966 1.398 . S
C965 H993 0.929 . S
C966 C965 1.398 . S
C966 C967 1.352 . S
C967 C966 1.352 . S
C967 C968 1.384 . S
C967 H994 0.930 . S
C968 C963 1.407 . S
C968 C967 1.384 . S
C968 H995 0.929 . S
C969 O982 1.241 . S
C969 O983 1.273 1_565 S
C970 O984 1.251 . S
C970 O985 1.268 1_565 S
C971 Nd961 2.836 . S
C971 C972 1.498 . S
C971 O986 1.258 . S
C971 O987 1.239 . S
C972 C971 1.498 . S
C972 C973 1.366 . S
C972 C977 1.407 . S
C973 C972 1.366 . S
C973 C974 1.392 . S
C973 H996 0.930 . S
C974 C973 1.392 . S
C974 C975 1.398 . S
C974 H997 0.929 . S
C975 C974 1.398 . S
C975 C976 1.352 . S
C976 C975 1.352 . S
C976 C977 1.384 . S
C976 H998 0.930 . S
C977 C972 1.407 . S
C977 C976 1.384 . S
C977 H999 0.929 . S
C978 O988 1.241 . S
C978 O989 1.273 1_545 S
C979 O990 1.251 . S
C979 O991 1.268 1_545 S
O980 Nd960 2.500 . S
O980 C962 1.258 . S
O981 Nd960 2.492 . S
O981 C962 1.239 . S
O982 Nd960 2.487 . S
O982 C969 1.241 . S
O983 Nd960 2.682 1_545 S
O983 Nd961 2.414 . S
O983 C969 1.273 1_545 S
O984 Nd960 2.410 . S
O984 C970 1.251 . S
O985 Nd961 2.424 . S
O985 C970 1.268 1_545 S
O986 Nd961 2.500 . S
O986 C971 1.258 . S
O987 Nd961 2.492 . S
O987 C971 1.239 . S
O988 Nd961 2.487 . S
O988 C978 1.241 . S
O989 Nd960 2.414 . S
O989 Nd961 2.682 1_565 S
O989 C978 1.273 1_565 S
O990 Nd961 2.410 . S
O990 C979 1.251 . S
O991 Nd960 2.424 . S
O991 C979 1.268 1_565 S
H992 C964 0.930 . S
H993 C965 0.929 . S
H994 C967 0.930 . S
H995 C968 0.929 . S
H996 C973 0.930 . S
H997 C974 0.929 . S
H998 C976 0.930 . S
H999 C977 0.929 . S
Nd1000 C1002 2.836 . S
Nd1000 O1020 2.500 . S
Nd1000 O1021 2.492 . S
Nd1000 O1022 2.487 . S
Nd1000 O1023 2.682 . S
Nd1000 O1024 2.410 . S
Nd1000 O1029 2.414 . S
Nd1000 O1031 2.424 . S
Nd1001 C1011 2.836 . S
Nd1001 O1023 2.414 . S
Nd1001 O1025 2.424 . S
Nd1001 O1026 2.500 . S
Nd1001 O1027 2.492 . S
Nd1001 O1028 2.487 . S
Nd1001 O1029 2.682 . S
Nd1001 O1030 2.410 . S
C1002 Nd1000 2.836 . S
C1002 C1003 1.498 . S
C1002 O1020 1.258 . S
C1002 O1021 1.239 . S
C1003 C1002 1.498 . S
C1003 C1004 1.366 . S
C1003 C1008 1.407 . S
C1004 C1003 1.366 . S
C1004 C1005 1.392 . S
C1004 H1032 0.930 . S
C1005 C1004 1.392 . S
C1005 C1006 1.398 . S
C1005 H1033 0.929 . S
C1006 C1005 1.398 . S
C1006 C1007 1.352 . S
C1007 C1006 1.352 . S
C1007 C1008 1.384 . S
C1007 H1034 0.930 . S
C1008 C1003 1.407 . S
C1008 C1007 1.384 . S
C1008 H1035 0.929 . S
C1009 O1022 1.241 . S
C1009 O1023 1.273 . S
C1010 O1024 1.251 . S
C1010 O1025 1.268 . S
C1011 Nd1001 2.836 . S
C1011 C1012 1.498 . S
C1011 O1026 1.258 . S
C1011 O1027 1.239 . S
C1012 C1011 1.498 . S
C1012 C1013 1.366 . S
C1012 C1017 1.407 . S
C1013 C1012 1.366 . S
C1013 C1014 1.392 . S
C1013 H1036 0.930 . S
C1014 C1013 1.392 . S
C1014 C1015 1.398 . S
C1014 H1037 0.929 . S
C1015 C1014 1.398 . S
C1015 C1016 1.352 . S
C1016 C1015 1.352 . S
C1016 C1017 1.384 . S
C1016 H1038 0.930 . S
C1017 C1012 1.407 . S
C1017 C1016 1.384 . S
C1017 H1039 0.929 . S
C1018 O1028 1.241 . S
C1018 O1029 1.273 . S
C1019 O1030 1.251 . S
C1019 O1031 1.268 . S
O1020 Nd1000 2.500 . S
O1020 C1002 1.258 . S
O1021 Nd1000 2.492 . S
O1021 C1002 1.239 . S
O1022 Nd1000 2.487 . S
O1022 C1009 1.241 . S
O1023 Nd1000 2.682 . S
O1023 Nd1001 2.414 . S
O1023 C1009 1.273 . S
O1024 Nd1000 2.410 . S
O1024 C1010 1.251 . S
O1025 Nd1001 2.424 . S
O1025 C1010 1.268 . S
O1026 Nd1001 2.500 . S
O1026 C1011 1.258 . S
O1027 Nd1001 2.492 . S
O1027 C1011 1.239 . S
O1028 Nd1001 2.487 . S
O1028 C1018 1.241 . S
O1029 Nd1000 2.414 . S
O1029 Nd1001 2.682 . S
O1029 C1018 1.273 . S
O1030 Nd1001 2.410 . S
O1030 C1019 1.251 . S
O1031 Nd1000 2.424 . S
O1031 C1019 1.268 . S
H1032 C1004 0.930 . S
H1033 C1005 0.929 . S
H1034 C1007 0.930 . S
H1035 C1008 0.929 . S
H1036 C1013 0.930 . S
H1037 C1014 0.929 . S
H1038 C1016 0.930 . S
H1039 C1017 0.929 . S
Nd1040 C1042 2.836 . S
Nd1040 O1060 2.500 . S
Nd1040 O1061 2.492 . S
Nd1040 O1062 2.487 . S
Nd1040 O1063 2.682 . S
Nd1040 O1064 2.410 . S
Nd1040 O1069 2.414 . S
Nd1040 O1071 2.424 . S
Nd1041 C1051 2.836 . S
Nd1041 O1063 2.414 . S
Nd1041 O1065 2.424 . S
Nd1041 O1066 2.500 . S
Nd1041 O1067 2.492 . S
Nd1041 O1068 2.487 . S
Nd1041 O1069 2.682 . S
Nd1041 O1070 2.410 . S
C1042 Nd1040 2.836 . S
C1042 C1043 1.498 . S
C1042 O1060 1.258 . S
C1042 O1061 1.239 . S
C1043 C1042 1.498 . S
C1043 C1044 1.366 . S
C1043 C1048 1.407 . S
C1044 C1043 1.366 . S
C1044 C1045 1.392 . S
C1044 H1072 0.930 . S
C1045 C1044 1.392 . S
C1045 C1046 1.398 . S
C1045 H1073 0.929 . S
C1046 C1045 1.398 . S
C1046 C1047 1.352 . S
C1047 C1046 1.352 . S
C1047 C1048 1.384 . S
C1047 H1074 0.930 . S
C1048 C1043 1.407 . S
C1048 C1047 1.384 . S
C1048 H1075 0.929 . S
C1049 O1062 1.241 . S
C1049 O1063 1.273 . S
C1050 O1064 1.251 . S
C1050 O1065 1.268 . S
C1051 Nd1041 2.836 . S
C1051 C1052 1.498 . S
C1051 O1066 1.258 . S
C1051 O1067 1.239 . S
C1052 C1051 1.498 . S
C1052 C1053 1.366 . S
C1052 C1057 1.407 . S
C1053 C1052 1.366 . S
C1053 C1054 1.392 . S
C1053 H1076 0.930 . S
C1054 C1053 1.392 . S
C1054 C1055 1.398 . S
C1054 H1077 0.929 . S
C1055 C1054 1.398 . S
C1055 C1056 1.352 . S
C1056 C1055 1.352 . S
C1056 C1057 1.384 . S
C1056 H1078 0.930 . S
C1057 C1052 1.407 . S
C1057 C1056 1.384 . S
C1057 H1079 0.929 . S
C1058 O1068 1.241 . S
C1058 O1069 1.273 . S
C1059 O1070 1.251 . S
C1059 O1071 1.268 . S
O1060 Nd1040 2.500 . S
O1060 C1042 1.258 . S
O1061 Nd1040 2.492 . S
O1061 C1042 1.239 . S
O1062 Nd1040 2.487 . S
O1062 C1049 1.241 . S
O1063 Nd1040 2.682 . S
O1063 Nd1041 2.414 . S
O1063 C1049 1.273 . S
O1064 Nd1040 2.410 . S
O1064 C1050 1.251 . S
O1065 Nd1041 2.424 . S
O1065 C1050 1.268 . S
O1066 Nd1041 2.500 . S
O1066 C1051 1.258 . S
O1067 Nd1041 2.492 . S
O1067 C1051 1.239 . S
O1068 Nd1041 2.487 . S
O1068 C1058 1.241 . S
O1069 Nd1040 2.414 . S
O1069 Nd1041 2.682 . S
O1069 C1058 1.273 . S
O1070 Nd1041 2.410 . S
O1070 C1059 1.251 . S
O1071 Nd1040 2.424 . S
O1071 C1059 1.268 . S
H1072 C1044 0.930 . S
H1073 C1045 0.929 . S
H1074 C1047 0.930 . S
H1075 C1048 0.929 . S
H1076 C1053 0.930 . S
H1077 C1054 0.929 . S
H1078 C1056 0.930 . S
H1079 C1057 0.929 . S
Nd1080 C1082 2.836 . S
Nd1080 O1100 2.500 . S
Nd1080 O1101 2.492 . S
Nd1080 O1102 2.487 . S
Nd1080 O1103 2.682 1_565 S
Nd1080 O1104 2.410 . S
Nd1080 O1109 2.414 . S
Nd1080 O1111 2.424 . S
Nd1081 C1091 2.836 . S
Nd1081 O1103 2.414 . S
Nd1081 O1105 2.424 . S
Nd1081 O1106 2.500 . S
Nd1081 O1107 2.492 . S
Nd1081 O1108 2.487 . S
Nd1081 O1109 2.682 1_545 S
Nd1081 O1110 2.410 . S
C1082 Nd1080 2.836 . S
C1082 C1083 1.498 . S
C1082 O1100 1.258 . S
C1082 O1101 1.239 . S
C1083 C1082 1.498 . S
C1083 C1084 1.366 . S
C1083 C1088 1.407 . S
C1084 C1083 1.366 . S
C1084 C1085 1.392 . S
C1084 H1112 0.930 . S
C1085 C1084 1.392 . S
C1085 C1086 1.398 . S
C1085 H1113 0.929 . S
C1086 C1085 1.398 . S
C1086 C1087 1.352 . S
C1087 C1086 1.352 . S
C1087 C1088 1.384 . S
C1087 H1114 0.930 . S
C1088 C1083 1.407 . S
C1088 C1087 1.384 . S
C1088 H1115 0.929 . S
C1089 O1102 1.241 . S
C1089 O1103 1.273 1_565 S
C1090 O1104 1.251 . S
C1090 O1105 1.268 1_565 S
C1091 Nd1081 2.836 . S
C1091 C1092 1.498 . S
C1091 O1106 1.258 . S
C1091 O1107 1.239 . S
C1092 C1091 1.498 . S
C1092 C1093 1.366 . S
C1092 C1097 1.407 . S
C1093 C1092 1.366 . S
C1093 C1094 1.392 . S
C1093 H1116 0.930 . S
C1094 C1093 1.392 . S
C1094 C1095 1.398 . S
C1094 H1117 0.929 . S
C1095 C1094 1.398 . S
C1095 C1096 1.352 . S
C1096 C1095 1.352 . S
C1096 C1097 1.384 . S
C1096 H1118 0.930 . S
C1097 C1092 1.407 . S
C1097 C1096 1.384 . S
C1097 H1119 0.929 . S
C1098 O1108 1.241 . S
C1098 O1109 1.273 1_545 S
C1099 O1110 1.251 . S
C1099 O1111 1.268 1_545 S
O1100 Nd1080 2.500 . S
O1100 C1082 1.258 . S
O1101 Nd1080 2.492 . S
O1101 C1082 1.239 . S
O1102 Nd1080 2.487 . S
O1102 C1089 1.241 . S
O1103 Nd1080 2.682 1_545 S
O1103 Nd1081 2.414 . S
O1103 C1089 1.273 1_545 S
O1104 Nd1080 2.410 . S
O1104 C1090 1.251 . S
O1105 Nd1081 2.424 . S
O1105 C1090 1.268 1_545 S
O1106 Nd1081 2.500 . S
O1106 C1091 1.258 . S
O1107 Nd1081 2.492 . S
O1107 C1091 1.239 . S
O1108 Nd1081 2.487 . S
O1108 C1098 1.241 . S
O1109 Nd1080 2.414 . S
O1109 Nd1081 2.682 1_565 S
O1109 C1098 1.273 1_565 S
O1110 Nd1081 2.410 . S
O1110 C1099 1.251 . S
O1111 Nd1080 2.424 . S
O1111 C1099 1.268 1_565 S
H1112 C1084 0.930 . S
H1113 C1085 0.929 . S
H1114 C1087 0.930 . S
H1115 C1088 0.929 . S
H1116 C1093 0.930 . S
H1117 C1094 0.929 . S
H1118 C1096 0.930 . S
H1119 C1097 0.929 . S
Nd1120 C1122 2.836 . S
Nd1120 O1140 2.500 . S
Nd1120 O1141 2.492 . S
Nd1120 O1142 2.487 . S
Nd1120 O1143 2.682 1_565 S
Nd1120 O1144 2.410 . S
Nd1120 O1149 2.414 . S
Nd1120 O1151 2.424 . S
Nd1121 C1131 2.836 . S
Nd1121 O1143 2.414 . S
Nd1121 O1145 2.424 . S
Nd1121 O1146 2.500 . S
Nd1121 O1147 2.492 . S
Nd1121 O1148 2.487 . S
Nd1121 O1149 2.682 1_545 S
Nd1121 O1150 2.410 . S
C1122 Nd1120 2.836 . S
C1122 C1123 1.498 . S
C1122 O1140 1.258 . S
C1122 O1141 1.239 . S
C1123 C1122 1.498 . S
C1123 C1124 1.366 . S
C1123 C1128 1.407 . S
C1124 C1123 1.366 . S
C1124 C1125 1.392 . S
C1124 H1152 0.930 . S
C1125 C1124 1.392 . S
C1125 C1126 1.398 . S
C1125 H1153 0.929 . S
C1126 C1125 1.398 . S
C1126 C1127 1.352 . S
C1127 C1126 1.352 . S
C1127 C1128 1.384 . S
C1127 H1154 0.930 . S
C1128 C1123 1.407 . S
C1128 C1127 1.384 . S
C1128 H1155 0.929 . S
C1129 O1142 1.241 . S
C1129 O1143 1.273 1_565 S
C1130 O1144 1.251 . S
C1130 O1145 1.268 1_565 S
C1131 Nd1121 2.836 . S
C1131 C1132 1.498 . S
C1131 O1146 1.258 . S
C1131 O1147 1.239 . S
C1132 C1131 1.498 . S
C1132 C1133 1.366 . S
C1132 C1137 1.407 . S
C1133 C1132 1.366 . S
C1133 C1134 1.392 . S
C1133 H1156 0.930 . S
C1134 C1133 1.392 . S
C1134 C1135 1.398 . S
C1134 H1157 0.929 . S
C1135 C1134 1.398 . S
C1135 C1136 1.352 . S
C1136 C1135 1.352 . S
C1136 C1137 1.384 . S
C1136 H1158 0.930 . S
C1137 C1132 1.407 . S
C1137 C1136 1.384 . S
C1137 H1159 0.929 . S
C1138 O1148 1.241 . S
C1138 O1149 1.273 1_545 S
C1139 O1150 1.251 . S
C1139 O1151 1.268 1_545 S
O1140 Nd1120 2.500 . S
O1140 C1122 1.258 . S
O1141 Nd1120 2.492 . S
O1141 C1122 1.239 . S
O1142 Nd1120 2.487 . S
O1142 C1129 1.241 . S
O1143 Nd1120 2.682 1_545 S
O1143 Nd1121 2.414 . S
O1143 C1129 1.273 1_545 S
O1144 Nd1120 2.410 . S
O1144 C1130 1.251 . S
O1145 Nd1121 2.424 . S
O1145 C1130 1.268 1_545 S
O1146 Nd1121 2.500 . S
O1146 C1131 1.258 . S
O1147 Nd1121 2.492 . S
O1147 C1131 1.239 . S
O1148 Nd1121 2.487 . S
O1148 C1138 1.241 . S
O1149 Nd1120 2.414 . S
O1149 Nd1121 2.682 1_565 S
O1149 C1138 1.273 1_565 S
O1150 Nd1121 2.410 . S
O1150 C1139 1.251 . S
O1151 Nd1120 2.424 . S
O1151 C1139 1.268 1_565 S
H1152 C1124 0.930 . S
H1153 C1125 0.929 . S
H1154 C1127 0.930 . S
H1155 C1128 0.929 . S
H1156 C1133 0.930 . S
H1157 C1134 0.929 . S
H1158 C1136 0.930 . S
H1159 C1137 0.929 . S
Nd1160 C1162 2.836 . S
Nd1160 O1180 2.500 . S
Nd1160 O1181 2.492 . S
Nd1160 O1182 2.487 . S
Nd1160 O1183 2.682 . S
Nd1160 O1184 2.410 . S
Nd1160 O1189 2.414 . S
Nd1160 O1191 2.424 . S
Nd1161 C1171 2.836 . S
Nd1161 O1183 2.414 . S
Nd1161 O1185 2.424 . S
Nd1161 O1186 2.500 . S
Nd1161 O1187 2.492 . S
Nd1161 O1188 2.487 . S
Nd1161 O1189 2.682 . S
Nd1161 O1190 2.410 . S
C1162 Nd1160 2.836 . S
C1162 C1163 1.498 . S
C1162 O1180 1.258 . S
C1162 O1181 1.239 . S
C1163 C1162 1.498 . S
C1163 C1164 1.366 . S
C1163 C1168 1.407 . S
C1164 C1163 1.366 . S
C1164 C1165 1.392 . S
C1164 H1192 0.930 . S
C1165 C1164 1.392 . S
C1165 C1166 1.398 . S
C1165 H1193 0.929 . S
C1166 C1165 1.398 . S
C1166 C1167 1.352 . S
C1167 C1166 1.352 . S
C1167 C1168 1.384 . S
C1167 H1194 0.930 . S
C1168 C1163 1.407 . S
C1168 C1167 1.384 . S
C1168 H1195 0.929 . S
C1169 O1182 1.241 . S
C1169 O1183 1.273 . S
C1170 O1184 1.251 . S
C1170 O1185 1.268 . S
C1171 Nd1161 2.836 . S
C1171 C1172 1.498 . S
C1171 O1186 1.258 . S
C1171 O1187 1.239 . S
C1172 C1171 1.498 . S
C1172 C1173 1.366 . S
C1172 C1177 1.407 . S
C1173 C1172 1.366 . S
C1173 C1174 1.392 . S
C1173 H1196 0.930 . S
C1174 C1173 1.392 . S
C1174 C1175 1.398 . S
C1174 H1197 0.929 . S
C1175 C1174 1.398 . S
C1175 C1176 1.352 . S
C1176 C1175 1.352 . S
C1176 C1177 1.384 . S
C1176 H1198 0.930 . S
C1177 C1172 1.407 . S
C1177 C1176 1.384 . S
C1177 H1199 0.929 . S
C1178 O1188 1.241 . S
C1178 O1189 1.273 . S
C1179 O1190 1.251 . S
C1179 O1191 1.268 . S
O1180 Nd1160 2.500 . S
O1180 C1162 1.258 . S
O1181 Nd1160 2.492 . S
O1181 C1162 1.239 . S
O1182 Nd1160 2.487 . S
O1182 C1169 1.241 . S
O1183 Nd1160 2.682 . S
O1183 Nd1161 2.414 . S
O1183 C1169 1.273 . S
O1184 Nd1160 2.410 . S
O1184 C1170 1.251 . S
O1185 Nd1161 2.424 . S
O1185 C1170 1.268 . S
O1186 Nd1161 2.500 . S
O1186 C1171 1.258 . S
O1187 Nd1161 2.492 . S
O1187 C1171 1.239 . S
O1188 Nd1161 2.487 . S
O1188 C1178 1.241 . S
O1189 Nd1160 2.414 . S
O1189 Nd1161 2.682 . S
O1189 C1178 1.273 . S
O1190 Nd1161 2.410 . S
O1190 C1179 1.251 . S
O1191 Nd1160 2.424 . S
O1191 C1179 1.268 . S
H1192 C1164 0.930 . S
H1193 C1165 0.929 . S
H1194 C1167 0.930 . S
H1195 C1168 0.929 . S
H1196 C1173 0.930 . S
H1197 C1174 0.929 . S
H1198 C1176 0.930 . S
H1199 C1177 0.929 . S
Nd1200 C1202 2.836 . S
Nd1200 O1220 2.500 . S
Nd1200 O1221 2.492 . S
Nd1200 O1222 2.487 . S
Nd1200 O1223 2.682 . S
Nd1200 O1224 2.410 . S
Nd1200 O1229 2.414 . S
Nd1200 O1231 2.424 . S
Nd1201 C1211 2.836 . S
Nd1201 O1223 2.414 . S
Nd1201 O1225 2.424 . S
Nd1201 O1226 2.500 . S
Nd1201 O1227 2.492 . S
Nd1201 O1228 2.487 . S
Nd1201 O1229 2.682 . S
Nd1201 O1230 2.410 . S
C1202 Nd1200 2.836 . S
C1202 C1203 1.498 . S
C1202 O1220 1.258 . S
C1202 O1221 1.239 . S
C1203 C1202 1.498 . S
C1203 C1204 1.366 . S
C1203 C1208 1.407 . S
C1204 C1203 1.366 . S
C1204 C1205 1.392 . S
C1204 H1232 0.930 . S
C1205 C1204 1.392 . S
C1205 C1206 1.398 . S
C1205 H1233 0.929 . S
C1206 C1205 1.398 . S
C1206 C1207 1.352 . S
C1207 C1206 1.352 . S
C1207 C1208 1.384 . S
C1207 H1234 0.930 . S
C1208 C1203 1.407 . S
C1208 C1207 1.384 . S
C1208 H1235 0.929 . S
C1209 O1222 1.241 . S
C1209 O1223 1.273 . S
C1210 O1224 1.251 . S
C1210 O1225 1.268 . S
C1211 Nd1201 2.836 . S
C1211 C1212 1.498 . S
C1211 O1226 1.258 . S
C1211 O1227 1.239 . S
C1212 C1211 1.498 . S
C1212 C1213 1.366 . S
C1212 C1217 1.407 . S
C1213 C1212 1.366 . S
C1213 C1214 1.392 . S
C1213 H1236 0.930 . S
C1214 C1213 1.392 . S
C1214 C1215 1.398 . S
C1214 H1237 0.929 . S
C1215 C1214 1.398 . S
C1215 C1216 1.352 . S
C1216 C1215 1.352 . S
C1216 C1217 1.384 . S
C1216 H1238 0.930 . S
C1217 C1212 1.407 . S
C1217 C1216 1.384 . S
C1217 H1239 0.929 . S
C1218 O1228 1.241 . S
C1218 O1229 1.273 . S
C1219 O1230 1.251 . S
C1219 O1231 1.268 . S
O1220 Nd1200 2.500 . S
O1220 C1202 1.258 . S
O1221 Nd1200 2.492 . S
O1221 C1202 1.239 . S
O1222 Nd1200 2.487 . S
O1222 C1209 1.241 . S
O1223 Nd1200 2.682 . S
O1223 Nd1201 2.414 . S
O1223 C1209 1.273 . S
O1224 Nd1200 2.410 . S
O1224 C1210 1.251 . S
O1225 Nd1201 2.424 . S
O1225 C1210 1.268 . S
O1226 Nd1201 2.500 . S
O1226 C1211 1.258 . S
O1227 Nd1201 2.492 . S
O1227 C1211 1.239 . S
O1228 Nd1201 2.487 . S
O1228 C1218 1.241 . S
O1229 Nd1200 2.414 . S
O1229 Nd1201 2.682 . S
O1229 C1218 1.273 . S
O1230 Nd1201 2.410 . S
O1230 C1219 1.251 . S
O1231 Nd1200 2.424 . S
O1231 C1219 1.268 . S
H1232 C1204 0.930 . S
H1233 C1205 0.929 . S
H1234 C1207 0.930 . S
H1235 C1208 0.929 . S
H1236 C1213 0.930 . S
H1237 C1214 0.929 . S
H1238 C1216 0.930 . S
H1239 C1217 0.929 . S
Nd1240 C1242 2.836 . S
Nd1240 O1260 2.500 . S
Nd1240 O1261 2.492 . S
Nd1240 O1262 2.487 . S
Nd1240 O1263 2.682 1_565 S
Nd1240 O1264 2.410 . S
Nd1240 O1269 2.414 . S
Nd1240 O1271 2.424 . S
Nd1241 C1251 2.836 . S
Nd1241 O1263 2.414 . S
Nd1241 O1265 2.424 . S
Nd1241 O1266 2.500 . S
Nd1241 O1267 2.492 . S
Nd1241 O1268 2.487 . S
Nd1241 O1269 2.682 1_545 S
Nd1241 O1270 2.410 . S
C1242 Nd1240 2.836 . S
C1242 C1243 1.498 . S
C1242 O1260 1.258 . S
C1242 O1261 1.239 . S
C1243 C1242 1.498 . S
C1243 C1244 1.366 . S
C1243 C1248 1.407 . S
C1244 C1243 1.366 . S
C1244 C1245 1.392 . S
C1244 H1272 0.930 . S
C1245 C1244 1.392 . S
C1245 C1246 1.398 . S
C1245 H1273 0.929 . S
C1246 C1245 1.398 . S
C1246 C1247 1.352 . S
C1247 C1246 1.352 . S
C1247 C1248 1.384 . S
C1247 H1274 0.930 . S
C1248 C1243 1.407 . S
C1248 C1247 1.384 . S
C1248 H1275 0.929 . S
C1249 O1262 1.241 . S
C1249 O1263 1.273 1_565 S
C1250 O1264 1.251 . S
C1250 O1265 1.268 1_565 S
C1251 Nd1241 2.836 . S
C1251 C1252 1.498 . S
C1251 O1266 1.258 . S
C1251 O1267 1.239 . S
C1252 C1251 1.498 . S
C1252 C1253 1.366 . S
C1252 C1257 1.407 . S
C1253 C1252 1.366 . S
C1253 C1254 1.392 . S
C1253 H1276 0.930 . S
C1254 C1253 1.392 . S
C1254 C1255 1.398 . S
C1254 H1277 0.929 . S
C1255 C1254 1.398 . S
C1255 C1256 1.352 . S
C1256 C1255 1.352 . S
C1256 C1257 1.384 . S
C1256 H1278 0.930 . S
C1257 C1252 1.407 . S
C1257 C1256 1.384 . S
C1257 H1279 0.929 . S
C1258 O1268 1.241 . S
C1258 O1269 1.273 1_545 S
C1259 O1270 1.251 . S
C1259 O1271 1.268 1_545 S
O1260 Nd1240 2.500 . S
O1260 C1242 1.258 . S
O1261 Nd1240 2.492 . S
O1261 C1242 1.239 . S
O1262 Nd1240 2.487 . S
O1262 C1249 1.241 . S
O1263 Nd1240 2.682 1_545 S
O1263 Nd1241 2.414 . S
O1263 C1249 1.273 1_545 S
O1264 Nd1240 2.410 . S
O1264 C1250 1.251 . S
O1265 Nd1241 2.424 . S
O1265 C1250 1.268 1_545 S
O1266 Nd1241 2.500 . S
O1266 C1251 1.258 . S
O1267 Nd1241 2.492 . S
O1267 C1251 1.239 . S
O1268 Nd1241 2.487 . S
O1268 C1258 1.241 . S
O1269 Nd1240 2.414 . S
O1269 Nd1241 2.682 1_565 S
O1269 C1258 1.273 1_565 S
O1270 Nd1241 2.410 . S
O1270 C1259 1.251 . S
O1271 Nd1240 2.424 . S
O1271 C1259 1.268 1_565 S
H1272 C1244 0.930 . S
H1273 C1245 0.929 . S
H1274 C1247 0.930 . S
H1275 C1248 0.929 . S
H1276 C1253 0.930 . S
H1277 C1254 0.929 . S
H1278 C1256 0.930 . S
H1279 C1257 0.929 . S
H1280 C1288 0.929 . S
H1281 C1290 0.930 . S
H1282 C1292 0.930 . S
H1283 C1295 0.929 . S
H1284 C1298 0.930 . S
H1285 C1300 0.960 . S
H1286 C1300 0.960 . S
H1287 C1300 0.960 . S
C1288 H1280 0.929 . S
C1288 C1289 1.377 . S
C1288 C1290 1.384 . S
C1289 C1288 1.377 . S
C1289 C1295 1.390 . S
C1290 H1281 0.930 . S
C1290 C1288 1.384 . S
C1290 C1291 1.372 . S
C1291 C1290 1.372 . S
C1291 C1292 1.400 . S
C1291 C1296 1.490 . S
C1292 H1282 0.930 . S
C1292 C1291 1.400 . S
C1292 C1295 1.386 . S
H1293 C1309 0.930 . S
H1294 C1310 0.931 . S
C1295 H1283 0.929 . S
C1295 C1289 1.390 . S
C1295 C1292 1.386 . S
C1296 C1291 1.490 . S
C1296 C1298 1.395 . S
C1296 C1299 1.403 . S
H1297 C1303 0.930 . S
C1298 H1284 0.930 . S
C1298 C1296 1.395 . S
C1298 C1301 1.403 . S
C1299 C1296 1.403 . S
C1299 C1300 1.524 . S
C1299 C1303 1.400 . S
C1300 H1285 0.960 . S
C1300 H1286 0.960 . S
C1300 H1287 0.960 . S
C1300 C1299 1.524 . S
C1301 C1298 1.403 . S
C1301 C1302 1.392 . S
C1301 C1305 1.495 . S
C1302 C1301 1.392 . S
C1302 C1303 1.385 . S
C1302 C1304 1.478 . S
C1303 H1297 0.930 . S
C1303 C1299 1.400 . S
C1303 C1302 1.385 . S
C1304 C1302 1.478 . S
C1304 C1306 1.381 . S
C1304 C1310 1.383 . S
C1305 C1301 1.495 . S
C1305 H1311 0.959 . S
C1305 H1312 0.961 . S
C1305 H1313 0.960 . S
C1306 C1304 1.381 . S
C1306 C1307 1.394 . S
C1306 H1314 0.930 . S
C1307 C1306 1.394 . S
C1307 C1308 1.383 . S
C1307 H1315 0.929 . S
C1308 C1307 1.383 . S
C1308 C1309 1.377 . S
C1309 H1293 0.930 . S
C1309 C1308 1.377 . S
C1309 C1310 1.379 . S
C1310 H1294 0.931 . S
C1310 C1304 1.383 . S
C1310 C1309 1.379 . S
H1311 C1305 0.959 . S
H1312 C1305 0.961 . S
H1313 C1305 0.960 . S
H1314 C1306 0.930 . S
H1315 C1307 0.929 . S
H1316 C1324 0.929 . S
H1317 C1326 0.930 . S
H1318 C1328 0.930 . S
H1319 C1331 0.929 . S
H1320 C1334 0.930 . S
H1321 C1336 0.960 . S
H1322 C1336 0.960 . S
H1323 C1336 0.960 . S
C1324 H1316 0.929 . S
C1324 C1325 1.377 . S
C1324 C1326 1.384 . S
C1325 C1324 1.377 . S
C1325 C1331 1.390 . S
C1326 H1317 0.930 . S
C1326 C1324 1.384 . S
C1326 C1327 1.372 . S
C1327 C1326 1.372 . S
C1327 C1328 1.400 . S
C1327 C1332 1.490 . S
C1328 H1318 0.930 . S
C1328 C1327 1.400 . S
C1328 C1331 1.386 . S
H1329 C1345 0.930 . S
H1330 C1346 0.931 . S
C1331 H1319 0.929 . S
C1331 C1325 1.390 . S
C1331 C1328 1.386 . S
C1332 C1327 1.490 . S
C1332 C1334 1.395 . S
C1332 C1335 1.403 . S
H1333 C1339 0.930 . S
C1334 H1320 0.930 . S
C1334 C1332 1.395 . S
C1334 C1337 1.403 . S
C1335 C1332 1.403 . S
C1335 C1336 1.524 . S
C1335 C1339 1.400 . S
C1336 H1321 0.960 . S
C1336 H1322 0.960 . S
C1336 H1323 0.960 . S
C1336 C1335 1.524 . S
C1337 C1334 1.403 . S
C1337 C1338 1.392 . S
C1337 C1341 1.495 . S
C1338 C1337 1.392 . S
C1338 C1339 1.385 . S
C1338 C1340 1.478 . S
C1339 H1333 0.930 . S
C1339 C1335 1.400 . S
C1339 C1338 1.385 . S
C1340 C1338 1.478 . S
C1340 C1342 1.381 . S
C1340 C1346 1.383 . S
C1341 C1337 1.495 . S
C1341 H1347 0.959 . S
C1341 H1348 0.961 . S
C1341 H1349 0.960 . S
C1342 C1340 1.381 . S
C1342 C1343 1.394 . S
C1342 H1350 0.930 . S
C1343 C1342 1.394 . S
C1343 C1344 1.383 . S
C1343 H1351 0.929 . S
C1344 C1343 1.383 . S
C1344 C1345 1.377 . S
C1345 H1329 0.930 . S
C1345 C1344 1.377 . S
C1345 C1346 1.379 . S
C1346 H1330 0.931 . S
C1346 C1340 1.383 . S
C1346 C1345 1.379 . S
H1347 C1341 0.959 . S
H1348 C1341 0.961 . S
H1349 C1341 0.960 . S
H1350 C1342 0.930 . S
H1351 C1343 0.929 . S
H1352 C1360 0.929 . S
H1353 C1362 0.930 . S
H1354 C1364 0.930 . S
H1355 C1367 0.929 . S
H1356 C1370 0.930 . S
H1357 C1372 0.960 . S
H1358 C1372 0.960 . S
H1359 C1372 0.960 . S
C1360 H1352 0.929 . S
C1360 C1361 1.377 . S
C1360 C1362 1.384 . S
C1361 C1360 1.377 . S
C1361 C1367 1.390 . S
C1362 H1353 0.930 . S
C1362 C1360 1.384 . S
C1362 C1363 1.372 . S
C1363 C1362 1.372 . S
C1363 C1364 1.400 . S
C1363 C1368 1.490 . S
C1364 H1354 0.930 . S
C1364 C1363 1.400 . S
C1364 C1367 1.386 . S
H1365 C1381 0.930 . S
H1366 C1382 0.931 . S
C1367 H1355 0.929 . S
C1367 C1361 1.390 . S
C1367 C1364 1.386 . S
C1368 C1363 1.490 . S
C1368 C1370 1.395 . S
C1368 C1371 1.403 . S
H1369 C1375 0.930 . S
C1370 H1356 0.930 . S
C1370 C1368 1.395 . S
C1370 C1373 1.403 . S
C1371 C1368 1.403 . S
C1371 C1372 1.524 . S
C1371 C1375 1.400 . S
C1372 H1357 0.960 . S
C1372 H1358 0.960 . S
C1372 H1359 0.960 . S
C1372 C1371 1.524 . S
C1373 C1370 1.403 . S
C1373 C1374 1.392 . S
C1373 C1377 1.495 . S
C1374 C1373 1.392 . S
C1374 C1375 1.385 . S
C1374 C1376 1.478 . S
C1375 H1369 0.930 . S
C1375 C1371 1.400 . S
C1375 C1374 1.385 . S
C1376 C1374 1.478 . S
C1376 C1378 1.381 . S
C1376 C1382 1.383 . S
C1377 C1373 1.495 . S
C1377 H1383 0.959 1_655 S
C1377 H1384 0.961 . S
C1377 H1385 0.960 1_655 S
C1378 C1376 1.381 . S
C1378 C1379 1.394 . S
C1378 H1386 0.930 . S
C1379 C1378 1.394 . S
C1379 C1380 1.383 . S
C1379 H1387 0.929 . S
C1380 C1379 1.383 . S
C1380 C1381 1.377 . S
C1381 H1365 0.930 . S
C1381 C1380 1.377 . S
C1381 C1382 1.379 . S
C1382 H1366 0.931 . S
C1382 C1376 1.383 . S
C1382 C1381 1.379 . S
H1383 C1377 0.959 1_455 S
H1384 C1377 0.961 . S
H1385 C1377 0.960 1_455 S
H1386 C1378 0.930 . S
H1387 C1379 0.929 . S
H1388 C1396 0.929 . S
H1389 C1398 0.930 . S
H1390 C1400 0.930 . S
H1391 C1403 0.929 . S
H1392 C1406 0.930 . S
H1393 C1408 0.960 . S
H1394 C1408 0.960 . S
H1395 C1408 0.960 . S
C1396 H1388 0.929 . S
C1396 C1397 1.377 . S
C1396 C1398 1.384 . S
C1397 C1396 1.377 . S
C1397 C1403 1.390 . S
C1398 H1389 0.930 . S
C1398 C1396 1.384 . S
C1398 C1399 1.372 . S
C1399 C1398 1.372 . S
C1399 C1400 1.400 . S
C1399 C1404 1.490 . S
C1400 H1390 0.930 . S
C1400 C1399 1.400 . S
C1400 C1403 1.386 . S
H1401 C1417 0.930 . S
H1402 C1418 0.931 . S
C1403 H1391 0.929 . S
C1403 C1397 1.390 . S
C1403 C1400 1.386 . S
C1404 C1399 1.490 . S
C1404 C1406 1.395 . S
C1404 C1407 1.403 . S
H1405 C1411 0.930 . S
C1406 H1392 0.930 . S
C1406 C1404 1.395 . S
C1406 C1409 1.403 . S
C1407 C1404 1.403 . S
C1407 C1408 1.524 . S
C1407 C1411 1.400 . S
C1408 H1393 0.960 . S
C1408 H1394 0.960 . S
C1408 H1395 0.960 . S
C1408 C1407 1.524 . S
C1409 C1406 1.403 . S
C1409 C1410 1.392 . S
C1409 C1413 1.495 . S
C1410 C1409 1.392 . S
C1410 C1411 1.385 . S
C1410 C1412 1.478 . S
C1411 H1405 0.930 . S
C1411 C1407 1.400 . S
C1411 C1410 1.385 . S
C1412 C1410 1.478 . S
C1412 C1414 1.381 . S
C1412 C1418 1.383 . S
C1413 C1409 1.495 . S
C1413 H1419 0.959 . S
C1413 H1420 0.961 . S
C1413 H1421 0.960 . S
C1414 C1412 1.381 . S
C1414 C1415 1.394 . S
C1414 H1422 0.930 . S
C1415 C1414 1.394 . S
C1415 C1416 1.383 . S
C1415 H1423 0.929 . S
C1416 C1415 1.383 . S
C1416 C1417 1.377 . S
C1417 H1401 0.930 . S
C1417 C1416 1.377 . S
C1417 C1418 1.379 . S
C1418 H1402 0.931 . S
C1418 C1412 1.383 . S
C1418 C1417 1.379 . S
H1419 C1413 0.959 . S
H1420 C1413 0.961 . S
H1421 C1413 0.960 . S
H1422 C1414 0.930 . S
H1423 C1415 0.929 . S
H1424 C1432 0.929 . S
H1425 C1434 0.930 . S
H1426 C1436 0.930 . S
H1427 C1439 0.929 . S
H1428 C1442 0.930 . S
H1429 C1444 0.960 . S
H1430 C1444 0.960 . S
H1431 C1444 0.960 . S
C1432 H1424 0.929 . S
C1432 C1433 1.377 . S
C1432 C1434 1.384 . S
C1433 C1432 1.377 . S
C1433 C1439 1.390 . S
C1434 H1425 0.930 . S
C1434 C1432 1.384 . S
C1434 C1435 1.372 . S
C1435 C1434 1.372 . S
C1435 C1436 1.400 . S
C1435 C1440 1.490 . S
C1436 H1426 0.930 . S
C1436 C1435 1.400 . S
C1436 C1439 1.386 . S
H1437 C1453 0.930 . S
H1438 C1454 0.931 . S
C1439 H1427 0.929 . S
C1439 C1433 1.390 . S
C1439 C1436 1.386 . S
C1440 C1435 1.490 . S
C1440 C1442 1.395 . S
C1440 C1443 1.403 . S
H1441 C1447 0.930 . S
C1442 H1428 0.930 . S
C1442 C1440 1.395 . S
C1442 C1445 1.403 . S
C1443 C1440 1.403 . S
C1443 C1444 1.524 . S
C1443 C1447 1.400 . S
C1444 H1429 0.960 . S
C1444 H1430 0.960 . S
C1444 H1431 0.960 . S
C1444 C1443 1.524 . S
C1445 C1442 1.403 . S
C1445 C1446 1.392 . S
C1445 C1449 1.495 . S
C1446 C1445 1.392 . S
C1446 C1447 1.385 . S
C1446 C1448 1.478 . S
C1447 H1441 0.930 . S
C1447 C1443 1.400 . S
C1447 C1446 1.385 . S
C1448 C1446 1.478 . S
C1448 C1450 1.381 . S
C1448 C1454 1.383 . S
C1449 C1445 1.495 . S
C1449 H1455 0.959 . S
C1449 H1456 0.961 . S
C1449 H1457 0.960 . S
C1450 C1448 1.381 . S
C1450 C1451 1.394 . S
C1450 H1458 0.930 . S
C1451 C1450 1.394 . S
C1451 C1452 1.383 . S
C1451 H1459 0.929 . S
C1452 C1451 1.383 . S
C1452 C1453 1.377 . S
C1453 H1437 0.930 . S
C1453 C1452 1.377 . S
C1453 C1454 1.379 . S
C1454 H1438 0.931 . S
C1454 C1448 1.383 . S
C1454 C1453 1.379 . S
H1455 C1449 0.959 . S
H1456 C1449 0.961 . S
H1457 C1449 0.960 . S
H1458 C1450 0.930 . S
H1459 C1451 0.929 . S
H1460 C1468 0.929 . S
H1461 C1470 0.930 . S
H1462 C1472 0.930 . S
H1463 C1475 0.929 . S
H1464 C1478 0.930 . S
H1465 C1480 0.960 . S
H1466 C1480 0.960 . S
H1467 C1480 0.960 . S
C1468 H1460 0.929 . S
C1468 C1469 1.377 . S
C1468 C1470 1.384 . S
C1469 C1468 1.377 . S
C1469 C1475 1.390 . S
C1470 H1461 0.930 . S
C1470 C1468 1.384 . S
C1470 C1471 1.372 . S
C1471 C1470 1.372 . S
C1471 C1472 1.400 . S
C1471 C1476 1.490 . S
C1472 H1462 0.930 . S
C1472 C1471 1.400 . S
C1472 C1475 1.386 . S
H1473 C1489 0.930 . S
H1474 C1490 0.931 . S
C1475 H1463 0.929 . S
C1475 C1469 1.390 . S
C1475 C1472 1.386 . S
C1476 C1471 1.490 . S
C1476 C1478 1.395 . S
C1476 C1479 1.403 . S
H1477 C1483 0.930 . S
C1478 H1464 0.930 . S
C1478 C1476 1.395 . S
C1478 C1481 1.403 . S
C1479 C1476 1.403 . S
C1479 C1480 1.524 . S
C1479 C1483 1.400 . S
C1480 H1465 0.960 . S
C1480 H1466 0.960 . S
C1480 H1467 0.960 . S
C1480 C1479 1.524 . S
C1481 C1478 1.403 . S
C1481 C1482 1.392 . S
C1481 C1485 1.495 . S
C1482 C1481 1.392 . S
C1482 C1483 1.385 . S
C1482 C1484 1.478 . S
C1483 H1477 0.930 . S
C1483 C1479 1.400 . S
C1483 C1482 1.385 . S
C1484 C1482 1.478 . S
C1484 C1486 1.381 . S
C1484 C1490 1.383 . S
C1485 C1481 1.495 . S
C1485 H1491 0.959 . S
C1485 H1492 0.961 . S
C1485 H1493 0.960 . S
C1486 C1484 1.381 . S
C1486 C1487 1.394 . S
C1486 H1494 0.930 . S
C1487 C1486 1.394 . S
C1487 C1488 1.383 . S
C1487 H1495 0.929 . S
C1488 C1487 1.383 . S
C1488 C1489 1.377 . S
C1489 H1473 0.930 . S
C1489 C1488 1.377 . S
C1489 C1490 1.379 . S
C1490 H1474 0.931 . S
C1490 C1484 1.383 . S
C1490 C1489 1.379 . S
H1491 C1485 0.959 . S
H1492 C1485 0.961 . S
H1493 C1485 0.960 . S
H1494 C1486 0.930 . S
H1495 C1487 0.929 . S
H1496 C1504 0.929 . S
H1497 C1506 0.930 . S
H1498 C1508 0.930 . S
H1499 C1511 0.929 . S
H1500 C1514 0.930 . S
H1501 C1516 0.960 . S
H1502 C1516 0.960 . S
H1503 C1516 0.960 . S
C1504 H1496 0.929 . S
C1504 C1505 1.377 . S
C1504 C1506 1.384 . S
C1505 C1504 1.377 . S
C1505 C1511 1.390 . S
C1506 H1497 0.930 . S
C1506 C1504 1.384 . S
C1506 C1507 1.372 . S
C1507 C1506 1.372 . S
C1507 C1508 1.400 . S
C1507 C1512 1.490 . S
C1508 H1498 0.930 . S
C1508 C1507 1.400 . S
C1508 C1511 1.386 . S
H1509 C1525 0.930 . S
H1510 C1526 0.931 . S
C1511 H1499 0.929 . S
C1511 C1505 1.390 . S
C1511 C1508 1.386 . S
C1512 C1507 1.490 . S
C1512 C1514 1.395 . S
C1512 C1515 1.403 . S
H1513 C1519 0.930 . S
C1514 H1500 0.930 . S
C1514 C1512 1.395 . S
C1514 C1517 1.403 . S
C1515 C1512 1.403 . S
C1515 C1516 1.524 . S
C1515 C1519 1.400 . S
C1516 H1501 0.960 . S
C1516 H1502 0.960 . S
C1516 H1503 0.960 . S
C1516 C1515 1.524 . S
C1517 C1514 1.403 . S
C1517 C1518 1.392 . S
C1517 C1521 1.495 . S
C1518 C1517 1.392 . S
C1518 C1519 1.385 . S
C1518 C1520 1.478 . S
C1519 H1513 0.930 . S
C1519 C1515 1.400 . S
C1519 C1518 1.385 . S
C1520 C1518 1.478 . S
C1520 C1522 1.381 . S
C1520 C1526 1.383 . S
C1521 C1517 1.495 . S
C1521 H1527 0.959 . S
C1521 H1528 0.961 . S
C1521 H1529 0.960 . S
C1522 C1520 1.381 . S
C1522 C1523 1.394 . S
C1522 H1530 0.930 . S
C1523 C1522 1.394 . S
C1523 C1524 1.383 . S
C1523 H1531 0.929 . S
C1524 C1523 1.383 . S
C1524 C1525 1.377 . S
C1525 H1509 0.930 . S
C1525 C1524 1.377 . S
C1525 C1526 1.379 . S
C1526 H1510 0.931 . S
C1526 C1520 1.383 . S
C1526 C1525 1.379 . S
H1527 C1521 0.959 . S
H1528 C1521 0.961 . S
H1529 C1521 0.960 . S
H1530 C1522 0.930 . S
H1531 C1523 0.929 . S
H1532 C1540 0.929 . S
H1533 C1542 0.930 . S
H1534 C1544 0.930 . S
H1535 C1547 0.929 . S
H1536 C1550 0.930 . S
H1537 C1552 0.960 . S
H1538 C1552 0.960 . S
H1539 C1552 0.960 . S
C1540 H1532 0.929 . S
C1540 C1541 1.377 . S
C1540 C1542 1.384 . S
C1541 C1540 1.377 . S
C1541 C1547 1.390 . S
C1542 H1533 0.930 . S
C1542 C1540 1.384 . S
C1542 C1543 1.372 . S
C1543 C1542 1.372 . S
C1543 C1544 1.400 . S
C1543 C1548 1.490 . S
C1544 H1534 0.930 . S
C1544 C1543 1.400 . S
C1544 C1547 1.386 . S
H1545 C1561 0.930 . S
H1546 C1562 0.931 . S
C1547 H1535 0.929 . S
C1547 C1541 1.390 . S
C1547 C1544 1.386 . S
C1548 C1543 1.490 . S
C1548 C1550 1.395 . S
C1548 C1551 1.403 . S
H1549 C1555 0.930 . S
C1550 H1536 0.930 . S
C1550 C1548 1.395 . S
C1550 C1553 1.403 . S
C1551 C1548 1.403 . S
C1551 C1552 1.524 . S
C1551 C1555 1.400 . S
C1552 H1537 0.960 . S
C1552 H1538 0.960 . S
C1552 H1539 0.960 . S
C1552 C1551 1.524 . S
C1553 C1550 1.403 . S
C1553 C1554 1.392 . S
C1553 C1557 1.495 . S
C1554 C1553 1.392 . S
C1554 C1555 1.385 . S
C1554 C1556 1.478 . S
C1555 H1549 0.930 . S
C1555 C1551 1.400 . S
C1555 C1554 1.385 . S
C1556 C1554 1.478 . S
C1556 C1558 1.381 . S
C1556 C1562 1.383 . S
C1557 C1553 1.495 . S
C1557 H1563 0.959 . S
C1557 H1564 0.961 . S
C1557 H1565 0.960 . S
C1558 C1556 1.381 . S
C1558 C1559 1.394 . S
C1558 H1566 0.930 . S
C1559 C1558 1.394 . S
C1559 C1560 1.383 . S
C1559 H1567 0.929 . S
C1560 C1559 1.383 . S
C1560 C1561 1.377 . S
C1561 H1545 0.930 . S
C1561 C1560 1.377 . S
C1561 C1562 1.379 . S
C1562 H1546 0.931 . S
C1562 C1556 1.383 . S
C1562 C1561 1.379 . S
H1563 C1557 0.959 . S
H1564 C1557 0.961 . S
H1565 C1557 0.960 . S
H1566 C1558 0.930 . S
H1567 C1559 0.929 . S
H1568 C1576 0.929 . S
H1569 C1578 0.930 . S
H1570 C1580 0.930 . S
H1571 C1583 0.929 . S
H1572 C1586 0.930 . S
H1573 C1588 0.960 1_455 S
H1574 C1588 0.960 . S
H1575 C1588 0.960 . S
C1576 H1568 0.929 . S
C1576 C1577 1.377 . S
C1576 C1578 1.384 . S
C1577 C1576 1.377 . S
C1577 C1583 1.390 . S
C1578 H1569 0.930 . S
C1578 C1576 1.384 . S
C1578 C1579 1.372 . S
C1579 C1578 1.372 . S
C1579 C1580 1.400 . S
C1579 C1584 1.490 . S
C1580 H1570 0.930 . S
C1580 C1579 1.400 . S
C1580 C1583 1.386 . S
H1581 C1597 0.930 . S
H1582 C1598 0.931 . S
C1583 H1571 0.929 . S
C1583 C1577 1.390 . S
C1583 C1580 1.386 . S
C1584 C1579 1.490 . S
C1584 C1586 1.395 . S
C1584 C1587 1.403 . S
H1585 C1591 0.930 . S
C1586 H1572 0.930 . S
C1586 C1584 1.395 . S
C1586 C1589 1.403 . S
C1587 C1584 1.403 . S
C1587 C1588 1.524 . S
C1587 C1591 1.400 . S
C1588 H1573 0.960 1_655 S
C1588 H1574 0.960 . S
C1588 H1575 0.960 . S
C1588 C1587 1.524 . S
C1589 C1586 1.403 . S
C1589 C1590 1.392 . S
C1589 C1593 1.495 . S
C1590 C1589 1.392 . S
C1590 C1591 1.385 . S
C1590 C1592 1.478 . S
C1591 H1585 0.930 . S
C1591 C1587 1.400 . S
C1591 C1590 1.385 . S
C1592 C1590 1.478 . S
C1592 C1594 1.381 . S
C1592 C1598 1.383 . S
C1593 C1589 1.495 . S
C1593 H1599 0.959 . S
C1593 H1600 0.961 . S
C1593 H1601 0.960 . S
C1594 C1592 1.381 . S
C1594 C1595 1.394 . S
C1594 H1602 0.930 . S
C1595 C1594 1.394 . S
C1595 C1596 1.383 . S
C1595 H1603 0.929 . S
C1596 C1595 1.383 . S
C1596 C1597 1.377 . S
C1597 H1581 0.930 . S
C1597 C1596 1.377 . S
C1597 C1598 1.379 . S
C1598 H1582 0.931 . S
C1598 C1592 1.383 . S
C1598 C1597 1.379 . S
H1599 C1593 0.959 . S
H1600 C1593 0.961 . S
H1601 C1593 0.960 . S
H1602 C1594 0.930 . S
H1603 C1595 0.929 . S
H1604 C1612 0.929 . S
H1605 C1614 0.930 . S
H1606 C1616 0.930 . S
H1607 C1619 0.929 . S
H1608 C1622 0.930 . S
H1609 C1624 0.960 . S
H1610 C1624 0.960 . S
H1611 C1624 0.960 . S
C1612 H1604 0.929 . S
C1612 C1613 1.377 . S
C1612 C1614 1.384 . S
C1613 C1612 1.377 . S
C1613 C1619 1.390 . S
C1614 H1605 0.930 . S
C1614 C1612 1.384 . S
C1614 C1615 1.372 . S
C1615 C1614 1.372 . S
C1615 C1616 1.400 . S
C1615 C1620 1.490 . S
C1616 H1606 0.930 . S
C1616 C1615 1.400 . S
C1616 C1619 1.386 . S
H1617 C1633 0.930 . S
H1618 C1634 0.931 . S
C1619 H1607 0.929 . S
C1619 C1613 1.390 . S
C1619 C1616 1.386 . S
C1620 C1615 1.490 . S
C1620 C1622 1.395 . S
C1620 C1623 1.403 . S
H1621 C1627 0.930 . S
C1622 H1608 0.930 . S
C1622 C1620 1.395 . S
C1622 C1625 1.403 . S
C1623 C1620 1.403 . S
C1623 C1624 1.524 . S
C1623 C1627 1.400 . S
C1624 H1609 0.960 . S
C1624 H1610 0.960 . S
C1624 H1611 0.960 . S
C1624 C1623 1.524 . S
C1625 C1622 1.403 . S
C1625 C1626 1.392 . S
C1625 C1629 1.495 . S
C1626 C1625 1.392 . S
C1626 C1627 1.385 . S
C1626 C1628 1.478 . S
C1627 H1621 0.930 . S
C1627 C1623 1.400 . S
C1627 C1626 1.385 . S
C1628 C1626 1.478 . S
C1628 C1630 1.381 . S
C1628 C1634 1.383 . S
C1629 C1625 1.495 . S
C1629 H1635 0.959 . S
C1629 H1636 0.961 . S
C1629 H1637 0.960 . S
C1630 C1628 1.381 . S
C1630 C1631 1.394 . S
C1630 H1638 0.930 . S
C1631 C1630 1.394 . S
C1631 C1632 1.383 . S
C1631 H1639 0.929 . S
C1632 C1631 1.383 . S
C1632 C1633 1.377 . S
C1633 H1617 0.930 . S
C1633 C1632 1.377 . S
C1633 C1634 1.379 . S
C1634 H1618 0.931 . S
C1634 C1628 1.383 . S
C1634 C1633 1.379 . S
H1635 C1629 0.959 . S
H1636 C1629 0.961 . S
H1637 C1629 0.960 . S
H1638 C1630 0.930 . S
H1639 C1631 0.929 . S
H1640 C1648 0.929 . S
H1641 C1650 0.930 . S
H1642 C1652 0.930 . S
H1643 C1655 0.929 . S
H1644 C1658 0.930 . S
H1645 C1660 0.960 1_455 S
H1646 C1660 0.960 . S
H1647 C1660 0.960 . S
C1648 H1640 0.929 . S
C1648 C1649 1.377 . S
C1648 C1650 1.384 . S
C1649 C1648 1.377 . S
C1649 C1655 1.390 . S
C1650 H1641 0.930 . S
C1650 C1648 1.384 . S
C1650 C1651 1.372 . S
C1651 C1650 1.372 . S
C1651 C1652 1.400 . S
C1651 C1656 1.490 . S
C1652 H1642 0.930 . S
C1652 C1651 1.400 . S
C1652 C1655 1.386 . S
H1653 C1669 0.930 . S
H1654 C1670 0.931 . S
C1655 H1643 0.929 . S
C1655 C1649 1.390 . S
C1655 C1652 1.386 . S
C1656 C1651 1.490 . S
C1656 C1658 1.395 . S
C1656 C1659 1.403 . S
H1657 C1663 0.930 . S
C1658 H1644 0.930 . S
C1658 C1656 1.395 . S
C1658 C1661 1.403 . S
C1659 C1656 1.403 . S
C1659 C1660 1.524 . S
C1659 C1663 1.400 . S
C1660 H1645 0.960 1_655 S
C1660 H1646 0.960 . S
C1660 H1647 0.960 . S
C1660 C1659 1.524 . S
C1661 C1658 1.403 . S
C1661 C1662 1.392 . S
C1661 C1665 1.495 . S
C1662 C1661 1.392 . S
C1662 C1663 1.385 . S
C1662 C1664 1.478 . S
C1663 H1657 0.930 . S
C1663 C1659 1.400 . S
C1663 C1662 1.385 . S
C1664 C1662 1.478 . S
C1664 C1666 1.381 . S
C1664 C1670 1.383 . S
C1665 C1661 1.495 . S
C1665 H1671 0.959 . S
C1665 H1672 0.961 . S
C1665 H1673 0.960 . S
C1666 C1664 1.381 . S
C1666 C1667 1.394 . S
C1666 H1674 0.930 . S
C1667 C1666 1.394 . S
C1667 C1668 1.383 . S
C1667 H1675 0.929 . S
C1668 C1667 1.383 . S
C1668 C1669 1.377 . S
C1669 H1653 0.930 . S
C1669 C1668 1.377 . S
C1669 C1670 1.379 . S
C1670 H1654 0.931 . S
C1670 C1664 1.383 . S
C1670 C1669 1.379 . S
H1671 C1665 0.959 . S
H1672 C1665 0.961 . S
H1673 C1665 0.960 . S
H1674 C1666 0.930 . S
H1675 C1667 0.929 . S
H1676 C1684 0.929 . S
H1677 C1686 0.930 . S
H1678 C1688 0.930 . S
H1679 C1691 0.929 . S
H1680 C1694 0.930 . S
H1681 C1696 0.960 . S
H1682 C1696 0.960 . S
H1683 C1696 0.960 . S
C1684 H1676 0.929 . S
C1684 C1685 1.377 . S
C1684 C1686 1.384 . S
C1685 C1684 1.377 . S
C1685 C1691 1.390 . S
C1686 H1677 0.930 . S
C1686 C1684 1.384 . S
C1686 C1687 1.372 . S
C1687 C1686 1.372 . S
C1687 C1688 1.400 . S
C1687 C1692 1.490 . S
C1688 H1678 0.930 . S
C1688 C1687 1.400 . S
C1688 C1691 1.386 . S
H1689 C1705 0.930 . S
H1690 C1706 0.931 . S
C1691 H1679 0.929 . S
C1691 C1685 1.390 . S
C1691 C1688 1.386 . S
C1692 C1687 1.490 . S
C1692 C1694 1.395 . S
C1692 C1695 1.403 . S
H1693 C1699 0.930 . S
C1694 H1680 0.930 . S
C1694 C1692 1.395 . S
C1694 C1697 1.403 . S
C1695 C1692 1.403 . S
C1695 C1696 1.524 . S
C1695 C1699 1.400 . S
C1696 H1681 0.960 . S
C1696 H1682 0.960 . S
C1696 H1683 0.960 . S
C1696 C1695 1.524 . S
C1697 C1694 1.403 . S
C1697 C1698 1.392 . S
C1697 C1701 1.495 . S
C1698 C1697 1.392 . S
C1698 C1699 1.385 . S
C1698 C1700 1.478 . S
C1699 H1693 0.930 . S
C1699 C1695 1.400 . S
C1699 C1698 1.385 . S
C1700 C1698 1.478 . S
C1700 C1702 1.381 . S
C1700 C1706 1.383 . S
C1701 C1697 1.495 . S
C1701 H1707 0.959 . S
C1701 H1708 0.961 . S
C1701 H1709 0.960 . S
C1702 C1700 1.381 . S
C1702 C1703 1.394 . S
C1702 H1710 0.930 . S
C1703 C1702 1.394 . S
C1703 C1704 1.383 . S
C1703 H1711 0.929 . S
C1704 C1703 1.383 . S
C1704 C1705 1.377 . S
C1705 H1689 0.930 . S
C1705 C1704 1.377 . S
C1705 C1706 1.379 . S
C1706 H1690 0.931 . S
C1706 C1700 1.383 . S
C1706 C1705 1.379 . S
H1707 C1701 0.959 . S
H1708 C1701 0.961 . S
H1709 C1701 0.960 . S
H1710 C1702 0.930 . S
H1711 C1703 0.929 . S
H1712 C1720 0.929 . S
H1713 C1722 0.930 . S
H1714 C1724 0.930 . S
H1715 C1727 0.929 . S
H1716 C1730 0.930 . S
H1717 C1732 0.960 . S
H1718 C1732 0.960 . S
H1719 C1732 0.960 . S
C1720 H1712 0.929 . S
C1720 C1721 1.377 . S
C1720 C1722 1.384 . S
C1721 C1720 1.377 . S
C1721 C1727 1.390 . S
C1722 H1713 0.930 . S
C1722 C1720 1.384 . S
C1722 C1723 1.372 . S
C1723 C1722 1.372 . S
C1723 C1724 1.400 . S
C1723 C1728 1.490 . S
C1724 H1714 0.930 . S
C1724 C1723 1.400 . S
C1724 C1727 1.386 . S
H1725 C1741 0.930 . S
H1726 C1742 0.931 . S
C1727 H1715 0.929 . S
C1727 C1721 1.390 . S
C1727 C1724 1.386 . S
C1728 C1723 1.490 . S
C1728 C1730 1.395 . S
C1728 C1731 1.403 . S
H1729 C1735 0.930 . S
C1730 H1716 0.930 . S
C1730 C1728 1.395 . S
C1730 C1733 1.403 . S
C1731 C1728 1.403 . S
C1731 C1732 1.524 . S
C1731 C1735 1.400 . S
C1732 H1717 0.960 . S
C1732 H1718 0.960 . S
C1732 H1719 0.960 . S
C1732 C1731 1.524 . S
C1733 C1730 1.403 . S
C1733 C1734 1.392 . S
C1733 C1737 1.495 1_455 S
C1734 C1733 1.392 . S
C1734 C1735 1.385 . S
C1734 C1736 1.478 . S
C1735 H1729 0.930 . S
C1735 C1731 1.400 . S
C1735 C1734 1.385 . S
C1736 C1734 1.478 . S
C1736 C1738 1.381 . S
C1736 C1742 1.383 . S
C1737 C1733 1.495 1_655 S
C1737 H1743 0.959 . S
C1737 H1744 0.961 . S
C1737 H1745 0.961 . S
C1738 C1736 1.381 . S
C1738 C1739 1.394 . S
C1738 H1746 0.930 . S
C1739 C1738 1.394 . S
C1739 C1740 1.383 . S
C1739 H1747 0.929 . S
C1740 C1739 1.383 . S
C1740 C1741 1.377 . S
C1741 H1725 0.930 . S
C1741 C1740 1.377 . S
C1741 C1742 1.379 . S
C1742 H1726 0.931 . S
C1742 C1736 1.383 . S
C1742 C1741 1.379 . S
H1743 C1737 0.959 . S
H1744 C1737 0.961 . S
H1745 C1737 0.961 . S
H1746 C1738 0.930 . S
H1747 C1739 0.929 . S
H1748 C1756 0.929 . S
H1749 C1758 0.930 . S
H1750 C1760 0.930 . S
H1751 C1763 0.929 . S
H1752 C1766 0.930 . S
H1753 C1768 0.960 . S
H1754 C1768 0.960 . S
H1755 C1768 0.960 . S
C1756 H1748 0.929 . S
C1756 C1757 1.377 . S
C1756 C1758 1.384 . S
C1757 C1756 1.377 . S
C1757 C1763 1.390 . S
C1758 H1749 0.930 . S
C1758 C1756 1.384 . S
C1758 C1759 1.372 . S
C1759 C1758 1.372 . S
C1759 C1760 1.400 . S
C1759 C1764 1.490 . S
C1760 H1750 0.930 . S
C1760 C1759 1.400 . S
C1760 C1763 1.386 . S
H1761 C1777 0.930 . S
H1762 C1778 0.931 . S
C1763 H1751 0.929 . S
C1763 C1757 1.390 . S
C1763 C1760 1.386 . S
C1764 C1759 1.490 . S
C1764 C1766 1.395 . S
C1764 C1767 1.403 . S
H1765 C1771 0.930 . S
C1766 H1752 0.930 . S
C1766 C1764 1.395 . S
C1766 C1769 1.403 . S
C1767 C1764 1.403 . S
C1767 C1768 1.524 . S
C1767 C1771 1.400 . S
C1768 H1753 0.960 . S
C1768 H1754 0.960 . S
C1768 H1755 0.960 . S
C1768 C1767 1.524 . S
C1769 C1766 1.403 . S
C1769 C1770 1.392 . S
C1769 C1773 1.495 . S
C1770 C1769 1.392 . S
C1770 C1771 1.385 . S
C1770 C1772 1.478 . S
C1771 H1765 0.930 . S
C1771 C1767 1.400 . S
C1771 C1770 1.385 . S
C1772 C1770 1.478 . S
C1772 C1774 1.381 . S
C1772 C1778 1.383 . S
C1773 C1769 1.495 . S
C1773 H1779 0.959 . S
C1773 H1780 0.961 . S
C1773 H1781 0.960 . S
C1774 C1772 1.381 . S
C1774 C1775 1.394 . S
C1774 H1782 0.930 . S
C1775 C1774 1.394 . S
C1775 C1776 1.383 . S
C1775 H1783 0.929 . S
C1776 C1775 1.383 . S
C1776 C1777 1.377 . S
C1777 H1761 0.930 . S
C1777 C1776 1.377 . S
C1777 C1778 1.379 . S
C1778 H1762 0.931 . S
C1778 C1772 1.383 . S
C1778 C1777 1.379 . S
H1779 C1773 0.959 . S
H1780 C1773 0.961 . S
H1781 C1773 0.960 . S
H1782 C1774 0.930 . S
H1783 C1775 0.929 . S
H1784 C1792 0.929 . S
H1785 C1794 0.930 . S
H1786 C1796 0.930 . S
H1787 C1799 0.929 . S
H1788 C1802 0.930 . S
H1789 C1804 0.960 . S
H1790 C1804 0.960 . S
H1791 C1804 0.960 . S
C1792 H1784 0.929 . S
C1792 C1793 1.377 . S
C1792 C1794 1.384 . S
C1793 C1792 1.377 . S
C1793 C1799 1.390 . S
C1794 H1785 0.930 . S
C1794 C1792 1.384 . S
C1794 C1795 1.372 . S
C1795 C1794 1.372 . S
C1795 C1796 1.400 . S
C1795 C1800 1.490 . S
C1796 H1786 0.930 . S
C1796 C1795 1.400 . S
C1796 C1799 1.386 . S
H1797 C1813 0.930 . S
H1798 C1814 0.931 . S
C1799 H1787 0.929 . S
C1799 C1793 1.390 . S
C1799 C1796 1.386 . S
C1800 C1795 1.490 . S
C1800 C1802 1.395 . S
C1800 C1803 1.403 . S
H1801 C1807 0.930 . S
C1802 H1788 0.930 . S
C1802 C1800 1.395 . S
C1802 C1805 1.403 . S
C1803 C1800 1.403 . S
C1803 C1804 1.524 . S
C1803 C1807 1.400 . S
C1804 H1789 0.960 . S
C1804 H1790 0.960 . S
C1804 H1791 0.960 . S
C1804 C1803 1.524 . S
C1805 C1802 1.403 . S
C1805 C1806 1.392 . S
C1805 C1809 1.495 . S
C1806 C1805 1.392 . S
C1806 C1807 1.385 . S
C1806 C1808 1.478 . S
C1807 H1801 0.930 . S
C1807 C1803 1.400 . S
C1807 C1806 1.385 . S
C1808 C1806 1.478 . S
C1808 C1810 1.381 . S
C1808 C1814 1.383 . S
C1809 C1805 1.495 . S
C1809 H1815 0.959 . S
C1809 H1816 0.961 . S
C1809 H1817 0.960 . S
C1810 C1808 1.381 . S
C1810 C1811 1.394 . S
C1810 H1818 0.930 . S
C1811 C1810 1.394 . S
C1811 C1812 1.383 . S
C1811 H1819 0.929 . S
C1812 C1811 1.383 . S
C1812 C1813 1.377 . S
C1813 H1797 0.930 . S
C1813 C1812 1.377 . S
C1813 C1814 1.379 . S
C1814 H1798 0.931 . S
C1814 C1808 1.383 . S
C1814 C1813 1.379 . S
H1815 C1809 0.959 . S
H1816 C1809 0.961 . S
H1817 C1809 0.960 . S
H1818 C1810 0.930 . S
H1819 C1811 0.929 . S
H1820 C1828 0.929 . S
H1821 C1830 0.930 . S
H1822 C1832 0.930 . S
H1823 C1835 0.929 . S
H1824 C1838 0.930 . S
H1825 C1840 0.960 . S
H1826 C1840 0.960 . S
H1827 C1840 0.960 . S
C1828 H1820 0.929 . S
C1828 C1829 1.377 . S
C1828 C1830 1.384 . S
C1829 C1828 1.377 . S
C1829 C1835 1.390 . S
C1830 H1821 0.930 . S
C1830 C1828 1.384 . S
C1830 C1831 1.372 . S
C1831 C1830 1.372 . S
C1831 C1832 1.400 . S
C1831 C1836 1.490 . S
C1832 H1822 0.930 . S
C1832 C1831 1.400 . S
C1832 C1835 1.386 . S
H1833 C1849 0.930 . S
H1834 C1850 0.931 . S
C1835 H1823 0.929 . S
C1835 C1829 1.390 . S
C1835 C1832 1.386 . S
C1836 C1831 1.490 . S
C1836 C1838 1.395 . S
C1836 C1839 1.403 . S
H1837 C1843 0.930 . S
C1838 H1824 0.930 . S
C1838 C1836 1.395 . S
C1838 C1841 1.403 . S
C1839 C1836 1.403 . S
C1839 C1840 1.524 . S
C1839 C1843 1.400 . S
C1840 H1825 0.960 . S
C1840 H1826 0.960 . S
C1840 H1827 0.960 . S
C1840 C1839 1.524 . S
C1841 C1838 1.403 . S
C1841 C1842 1.392 . S
C1841 C1845 1.495 . S
C1842 C1841 1.392 . S
C1842 C1843 1.385 . S
C1842 C1844 1.478 . S
C1843 H1837 0.930 . S
C1843 C1839 1.400 . S
C1843 C1842 1.385 . S
C1844 C1842 1.478 . S
C1844 C1846 1.381 . S
C1844 C1850 1.383 . S
C1845 C1841 1.495 . S
C1845 H1851 0.959 . S
C1845 H1852 0.961 . S
C1845 H1853 0.960 . S
C1846 C1844 1.381 . S
C1846 C1847 1.394 . S
C1846 H1854 0.930 . S
C1847 C1846 1.394 . S
C1847 C1848 1.383 . S
C1847 H1855 0.929 . S
C1848 C1847 1.383 . S
C1848 C1849 1.377 . S
C1849 H1833 0.930 . S
C1849 C1848 1.377 . S
C1849 C1850 1.379 . S
C1850 H1834 0.931 . S
C1850 C1844 1.383 . S
C1850 C1849 1.379 . S
H1851 C1845 0.959 . S
H1852 C1845 0.961 . S
H1853 C1845 0.960 . S
H1854 C1846 0.930 . S
H1855 C1847 0.929 . S
H1856 C1864 0.929 1_655 S
H1857 C1866 0.930 1_655 S
H1858 C1868 0.930 . S
H1859 C1871 0.929 . S
H1860 C1874 0.930 . S
H1861 C1876 0.960 . S
H1862 C1876 0.960 . S
H1863 C1876 0.960 . S
C1864 H1856 0.929 1_455 S
C1864 C1865 1.377 . S
C1864 C1866 1.384 . S
C1865 C1864 1.377 . S
C1865 C1871 1.390 . S
C1866 H1857 0.930 1_455 S
C1866 C1864 1.384 . S
C1866 C1867 1.372 . S
C1867 C1866 1.372 . S
C1867 C1868 1.400 . S
C1867 C1872 1.490 . S
C1868 H1858 0.930 . S
C1868 C1867 1.400 . S
C1868 C1871 1.386 . S
H1869 C1885 0.930 . S
H1870 C1886 0.931 . S
C1871 H1859 0.929 . S
C1871 C1865 1.390 . S
C1871 C1868 1.386 . S
C1872 C1867 1.490 . S
C1872 C1874 1.395 . S
C1872 C1875 1.403 . S
H1873 C1879 0.930 . S
C1874 H1860 0.930 . S
C1874 C1872 1.395 . S
C1874 C1877 1.403 . S
C1875 C1872 1.403 . S
C1875 C1876 1.524 . S
C1875 C1879 1.400 . S
C1876 H1861 0.960 . S
C1876 H1862 0.960 . S
C1876 H1863 0.960 . S
C1876 C1875 1.524 . S
C1877 C1874 1.403 . S
C1877 C1878 1.392 . S
C1877 C1881 1.495 . S
C1878 C1877 1.392 . S
C1878 C1879 1.385 . S
C1878 C1880 1.478 . S
C1879 H1873 0.930 . S
C1879 C1875 1.400 . S
C1879 C1878 1.385 . S
C1880 C1878 1.478 . S
C1880 C1882 1.381 . S
C1880 C1886 1.383 . S
C1881 C1877 1.495 . S
C1881 H1887 0.959 . S
C1881 H1888 0.961 . S
C1881 H1889 0.960 . S
C1882 C1880 1.381 . S
C1882 C1883 1.394 . S
C1882 H1890 0.930 . S
C1883 C1882 1.394 . S
C1883 C1884 1.383 . S
C1883 H1891 0.929 . S
C1884 C1883 1.383 . S
C1884 C1885 1.377 . S
C1885 H1869 0.930 . S
C1885 C1884 1.377 . S
C1885 C1886 1.379 . S
C1886 H1870 0.931 . S
C1886 C1880 1.383 . S
C1886 C1885 1.379 . S
H1887 C1881 0.959 . S
H1888 C1881 0.961 . S
H1889 C1881 0.960 . S
H1890 C1882 0.930 . S
H1891 C1883 0.929 . S
H1892 C1900 0.929 . S
H1893 C1902 0.930 . S
H1894 C1904 0.930 . S
H1895 C1907 0.929 . S
H1896 C1910 0.930 . S
H1897 C1912 0.960 . S
H1898 C1912 0.960 . S
H1899 C1912 0.960 . S
C1900 H1892 0.929 . S
C1900 C1901 1.377 . S
C1900 C1902 1.384 . S
C1901 C1900 1.377 . S
C1901 C1907 1.390 . S
C1902 H1893 0.930 . S
C1902 C1900 1.384 . S
C1902 C1903 1.372 . S
C1903 C1902 1.372 . S
C1903 C1904 1.400 . S
C1903 C1908 1.490 . S
C1904 H1894 0.930 . S
C1904 C1903 1.400 . S
C1904 C1907 1.386 . S
H1905 C1921 0.930 . S
H1906 C1922 0.931 . S
C1907 H1895 0.929 . S
C1907 C1901 1.390 . S
C1907 C1904 1.386 . S
C1908 C1903 1.490 . S
C1908 C1910 1.395 . S
C1908 C1911 1.403 . S
H1909 C1915 0.930 . S
C1910 H1896 0.930 . S
C1910 C1908 1.395 . S
C1910 C1913 1.403 . S
C1911 C1908 1.403 . S
C1911 C1912 1.524 . S
C1911 C1915 1.400 . S
C1912 H1897 0.960 . S
C1912 H1898 0.960 . S
C1912 H1899 0.960 . S
C1912 C1911 1.524 . S
C1913 C1910 1.403 . S
C1913 C1914 1.392 . S
C1913 C1917 1.495 1_455 S
C1914 C1913 1.392 . S
C1914 C1915 1.385 . S
C1914 C1916 1.478 . S
C1915 H1909 0.930 . S
C1915 C1911 1.400 . S
C1915 C1914 1.385 . S
C1916 C1914 1.478 . S
C1916 C1918 1.381 . S
C1916 C1922 1.383 . S
C1917 C1913 1.495 1_655 S
C1917 H1923 0.959 . S
C1917 H1924 0.961 . S
C1917 H1925 0.960 1_655 S
C1918 C1916 1.381 . S
C1918 C1919 1.394 . S
C1918 H1926 0.930 . S
C1919 C1918 1.394 . S
C1919 C1920 1.383 . S
C1919 H1927 0.929 . S
C1920 C1919 1.383 . S
C1920 C1921 1.377 . S
C1921 H1905 0.930 . S
C1921 C1920 1.377 . S
C1921 C1922 1.379 . S
C1922 H1906 0.931 . S
C1922 C1916 1.383 . S
C1922 C1921 1.379 . S
H1923 C1917 0.959 . S
H1924 C1917 0.961 . S
H1925 C1917 0.960 1_455 S
H1926 C1918 0.930 . S
H1927 C1919 0.929 . S
H1928 C1936 0.929 . S
H1929 C1938 0.930 . S
H1930 C1940 0.930 . S
H1931 C1943 0.929 . S
H1932 C1946 0.930 . S
H1933 C1948 0.960 . S
H1934 C1948 0.960 . S
H1935 C1948 0.960 . S
C1936 H1928 0.929 . S
C1936 C1937 1.377 . S
C1936 C1938 1.384 . S
C1937 C1936 1.377 . S
C1937 C1943 1.390 . S
C1938 H1929 0.930 . S
C1938 C1936 1.384 . S
C1938 C1939 1.372 . S
C1939 C1938 1.372 . S
C1939 C1940 1.400 . S
C1939 C1944 1.490 . S
C1940 H1930 0.930 . S
C1940 C1939 1.400 . S
C1940 C1943 1.386 . S
H1941 C1957 0.930 . S
H1942 C1958 0.931 . S
C1943 H1931 0.929 . S
C1943 C1937 1.390 . S
C1943 C1940 1.386 . S
C1944 C1939 1.490 . S
C1944 C1946 1.395 . S
C1944 C1947 1.403 . S
H1945 C1951 0.930 . S
C1946 H1932 0.930 . S
C1946 C1944 1.395 . S
C1946 C1949 1.403 . S
C1947 C1944 1.403 . S
C1947 C1948 1.524 . S
C1947 C1951 1.400 . S
C1948 H1933 0.960 . S
C1948 H1934 0.960 . S
C1948 H1935 0.960 . S
C1948 C1947 1.524 . S
C1949 C1946 1.403 . S
C1949 C1950 1.392 . S
C1949 C1953 1.495 . S
C1950 C1949 1.392 . S
C1950 C1951 1.385 . S
C1950 C1952 1.478 . S
C1951 H1945 0.930 . S
C1951 C1947 1.400 . S
C1951 C1950 1.385 . S
C1952 C1950 1.478 . S
C1952 C1954 1.381 . S
C1952 C1958 1.383 . S
C1953 C1949 1.495 . S
C1953 H1959 0.959 . S
C1953 H1960 0.961 . S
C1953 H1961 0.960 . S
C1954 C1952 1.381 . S
C1954 C1955 1.394 . S
C1954 H1962 0.930 . S
C1955 C1954 1.394 . S
C1955 C1956 1.383 . S
C1955 H1963 0.929 . S
C1956 C1955 1.383 . S
C1956 C1957 1.377 . S
C1957 H1941 0.930 . S
C1957 C1956 1.377 . S
C1957 C1958 1.379 . S
C1958 H1942 0.931 . S
C1958 C1952 1.383 . S
C1958 C1957 1.379 . S
H1959 C1953 0.959 . S
H1960 C1953 0.961 . S
H1961 C1953 0.960 . S
H1962 C1954 0.930 . S
H1963 C1955 0.929 . S
H1964 C1972 0.929 . S
H1965 C1974 0.930 . S
H1966 C1976 0.930 . S
H1967 C1979 0.929 1_455 S
H1968 C1982 0.930 . S
H1969 C1984 0.960 . S
H1970 C1984 0.960 . S
H1971 C1984 0.960 . S
C1972 H1964 0.929 . S
C1972 C1973 1.377 . S
C1972 C1974 1.384 . S
C1973 C1972 1.377 . S
C1973 C1979 1.390 . S
C1974 H1965 0.930 . S
C1974 C1972 1.384 . S
C1974 C1975 1.372 . S
C1975 C1974 1.372 . S
C1975 C1976 1.400 . S
C1975 C1980 1.490 . S
C1976 H1966 0.930 . S
C1976 C1975 1.400 . S
C1976 C1979 1.386 . S
H1977 C1993 0.930 . S
H1978 C1994 0.931 . S
C1979 H1967 0.929 1_655 S
C1979 C1973 1.390 . S
C1979 C1976 1.386 . S
C1980 C1975 1.490 . S
C1980 C1982 1.395 . S
C1980 C1983 1.403 . S
H1981 C1987 0.930 . S
C1982 H1968 0.930 . S
C1982 C1980 1.395 . S
C1982 C1985 1.403 . S
C1983 C1980 1.403 . S
C1983 C1984 1.524 . S
C1983 C1987 1.400 . S
C1984 H1969 0.960 . S
C1984 H1970 0.960 . S
C1984 H1971 0.960 . S
C1984 C1983 1.524 . S
C1985 C1982 1.403 . S
C1985 C1986 1.392 . S
C1985 C1989 1.495 . S
C1986 C1985 1.392 . S
C1986 C1987 1.385 . S
C1986 C1988 1.478 . S
C1987 H1981 0.930 . S
C1987 C1983 1.400 . S
C1987 C1986 1.385 . S
C1988 C1986 1.478 . S
C1988 C1990 1.381 . S
C1988 C1994 1.383 . S
C1989 C1985 1.495 . S
C1989 H1995 0.959 . S
C1989 H1996 0.961 . S
C1989 H1997 0.960 . S
C1990 C1988 1.381 . S
C1990 C1991 1.394 . S
C1990 H1998 0.930 . S
C1991 C1990 1.394 . S
C1991 C1992 1.383 . S
C1991 H1999 0.929 . S
C1992 C1991 1.383 . S
C1992 C1993 1.377 . S
C1993 H1977 0.930 . S
C1993 C1992 1.377 . S
C1993 C1994 1.379 . S
C1994 H1978 0.931 . S
C1994 C1988 1.383 . S
C1994 C1993 1.379 . S
H1995 C1989 0.959 . S
H1996 C1989 0.961 . S
H1997 C1989 0.960 . S
H1998 C1990 0.930 . S
H1999 C1991 0.929 . S
H2000 C2008 0.929 . S
H2001 C2010 0.930 . S
H2002 C2012 0.930 . S
H2003 C2015 0.929 . S
H2004 C2018 0.930 . S
H2005 C2020 0.960 . S
H2006 C2020 0.960 1_545 S
H2007 C2020 0.960 . S
C2008 H2000 0.929 . S
C2008 C2009 1.437 . S
C2008 C2010 1.384 . S
C2009 C2008 1.437 . S
C2009 C2015 1.332 1_545 S
C2010 H2001 0.930 . S
C2010 C2008 1.384 . S
C2010 C2011 1.372 . S
C2011 C2010 1.372 . S
C2011 C2012 1.400 1_545 S
C2011 C2016 1.490 . S
C2012 H2002 0.930 . S
C2012 C2011 1.400 1_565 S
C2012 C2015 1.386 . S
H2013 C2029 0.930 . S
H2014 C2030 0.931 . S
C2015 H2003 0.929 . S
C2015 C2009 1.332 1_565 S
C2015 C2012 1.386 . S
C2016 C2011 1.490 . S
C2016 C2018 1.395 . S
C2016 C2019 1.403 1_545 S
H2017 C2023 0.930 . S
C2018 H2004 0.930 . S
C2018 C2016 1.395 . S
C2018 C2021 1.403 . S
C2019 C2016 1.403 1_565 S
C2019 C2020 1.524 . S
C2019 C2023 1.400 . S
C2020 H2005 0.960 . S
C2020 H2006 0.960 1_565 S
C2020 H2007 0.960 . S
C2020 C2019 1.524 . S
C2021 C2018 1.403 . S
C2021 C2022 1.392 . S
C2021 C2025 1.495 . S
C2022 C2021 1.392 . S
C2022 C2023 1.385 1_545 S
C2022 C2024 1.478 . S
C2023 H2017 0.930 . S
C2023 C2019 1.400 . S
C2023 C2022 1.385 1_565 S
C2024 C2022 1.478 . S
C2024 C2026 1.381 . S
C2024 C2030 1.383 1_545 S
C2025 C2021 1.495 . S
C2025 H2031 0.959 1_455 S
C2025 H2032 0.961 . S
C2025 H2033 0.960 . S
C2026 C2024 1.381 . S
C2026 C2027 1.394 . S
C2026 H2034 0.930 . S
C2027 C2026 1.394 . S
C2027 C2028 1.451 . S
C2027 H2035 0.929 . S
C2028 C2027 1.451 . S
C2028 C2029 1.313 1_545 S
C2029 H2013 0.930 . S
C2029 C2028 1.313 1_565 S
C2029 C2030 1.379 . S
C2030 H2014 0.931 . S
C2030 C2024 1.383 1_565 S
C2030 C2029 1.379 . S
H2031 C2025 0.959 1_655 S
H2032 C2025 0.961 . S
H2033 C2025 0.960 . S
H2034 C2026 0.930 . S
H2035 C2027 0.929 . S
H2036 C2044 0.929 . S
H2037 C2046 0.930 . S
H2038 C2048 0.930 . S
H2039 C2051 0.929 . S
H2040 C2054 0.930 . S
H2041 C2056 0.960 . S
H2042 C2056 0.960 . S
H2043 C2056 0.960 . S
C2044 H2036 0.929 . S
C2044 C2045 1.377 . S
C2044 C2046 1.384 . S
C2045 C2044 1.377 . S
C2045 C2051 1.390 . S
C2046 H2037 0.930 . S
C2046 C2044 1.384 . S
C2046 C2047 1.372 . S
C2047 C2046 1.372 . S
C2047 C2048 1.400 . S
C2047 C2052 1.490 . S
C2048 H2038 0.930 . S
C2048 C2047 1.400 . S
C2048 C2051 1.386 . S
H2049 C2065 0.930 . S
H2050 C2066 0.931 . S
C2051 H2039 0.929 . S
C2051 C2045 1.390 . S
C2051 C2048 1.386 . S
C2052 C2047 1.490 . S
C2052 C2054 1.395 . S
C2052 C2055 1.403 . S
H2053 C2059 0.930 . S
C2054 H2040 0.930 . S
C2054 C2052 1.395 . S
C2054 C2057 1.403 . S
C2055 C2052 1.403 . S
C2055 C2056 1.524 . S
C2055 C2059 1.400 . S
C2056 H2041 0.960 . S
C2056 H2042 0.960 . S
C2056 H2043 0.960 . S
C2056 C2055 1.524 . S
C2057 C2054 1.403 . S
C2057 C2058 1.392 . S
C2057 C2061 1.495 . S
C2058 C2057 1.392 . S
C2058 C2059 1.385 . S
C2058 C2060 1.478 . S
C2059 H2053 0.930 . S
C2059 C2055 1.400 . S
C2059 C2058 1.385 . S
C2060 C2058 1.478 . S
C2060 C2062 1.381 . S
C2060 C2066 1.383 . S
C2061 C2057 1.495 . S
C2061 H2067 0.959 . S
C2061 H2068 0.961 . S
C2061 H2069 0.960 1_455 S
C2062 C2060 1.381 . S
C2062 C2063 1.394 . S
C2062 H2070 0.930 1_455 S
C2063 C2062 1.394 . S
C2063 C2064 1.383 . S
C2063 H2071 0.929 1_455 S
C2064 C2063 1.383 . S
C2064 C2065 1.377 . S
C2065 H2049 0.930 . S
C2065 C2064 1.377 . S
C2065 C2066 1.379 . S
C2066 H2050 0.931 . S
C2066 C2060 1.383 . S
C2066 C2065 1.379 . S
H2067 C2061 0.959 . S
H2068 C2061 0.961 . S
H2069 C2061 0.960 1_655 S
H2070 C2062 0.930 1_655 S
H2071 C2063 0.929 1_655 S
H2072 C2080 0.929 . S
H2073 C2082 0.930 . S
H2074 C2084 0.930 . S
H2075 C2087 0.929 1_455 S
H2076 C2090 0.930 . S
H2077 C2092 0.960 . S
H2078 C2092 0.960 . S
H2079 C2092 0.960 . S
C2080 H2072 0.929 . S
C2080 C2081 1.348 1_545 S
C2080 C2082 1.384 . S
C2081 C2080 1.348 1_565 S
C2081 C2087 1.421 . S
C2082 H2073 0.930 . S
C2082 C2080 1.384 . S
C2082 C2083 1.361 1_545 S
C2083 C2082 1.361 1_565 S
C2083 C2084 1.411 . S
C2083 C2088 1.489 1_565 S
C2084 H2074 0.930 . S
C2084 C2083 1.411 . S
C2084 C2087 1.386 . S
H2085 C2101 0.930 . S
H2086 C2102 0.931 . S
C2087 H2075 0.929 1_655 S
C2087 C2081 1.421 . S
C2087 C2084 1.386 . S
C2088 C2083 1.489 1_545 S
C2088 C2090 1.397 . S
C2088 C2091 1.400 1_545 S
H2089 C2095 0.930 . S
C2090 H2076 0.930 . S
C2090 C2088 1.397 . S
C2090 C2093 1.403 . S
C2091 C2088 1.400 1_565 S
C2091 C2092 1.524 . S
C2091 C2095 1.400 . S
C2092 H2077 0.960 . S
C2092 H2078 0.960 . S
C2092 H2079 0.960 . S
C2092 C2091 1.524 . S
C2093 C2090 1.403 . S
C2093 C2094 1.392 . S
C2093 C2097 1.495 . S
C2094 C2093 1.392 . S
C2094 C2095 1.385 1_545 S
C2094 C2096 1.478 . S
C2095 H2089 0.930 . S
C2095 C2091 1.400 . S
C2095 C2094 1.385 1_565 S
C2096 C2094 1.478 . S
C2096 C2098 1.381 . S
C2096 C2102 1.383 1_545 S
C2097 C2093 1.495 . S
C2097 H2103 0.959 . S
C2097 H2104 0.961 . S
C2097 H2105 0.960 . S
C2098 C2096 1.381 . S
C2098 C2099 1.394 . S
C2098 H2106 0.930 . S
C2099 C2098 1.394 . S
C2099 C2100 1.392 . S
C2099 H2107 0.929 . S
C2100 C2099 1.392 . S
C2100 C2101 1.369 1_545 S
C2101 H2085 0.930 . S
C2101 C2100 1.369 1_565 S
C2101 C2102 1.379 . S
C2102 H2086 0.931 . S
C2102 C2096 1.383 1_565 S
C2102 C2101 1.379 . S
H2103 C2097 0.959 . S
H2104 C2097 0.961 . S
H2105 C2097 0.960 . S
H2106 C2098 0.930 . S
H2107 C2099 0.929 . S
H2108 C2116 0.929 . S
H2109 C2118 0.930 . S
H2110 C2120 0.930 . S
H2111 C2123 0.929 1_455 S
H2112 C2126 0.930 . S
H2113 C2128 0.960 1_455 S
H2114 C2128 0.960 . S
H2115 C2128 0.960 1_455 S
C2116 H2108 0.929 . S
C2116 C2117 1.377 . S
C2116 C2118 1.384 . S
C2117 C2116 1.377 . S
C2117 C2123 1.390 . S
C2118 H2109 0.930 . S
C2118 C2116 1.384 . S
C2118 C2119 1.372 . S
C2119 C2118 1.372 . S
C2119 C2120 1.400 . S
C2119 C2124 1.490 . S
C2120 H2110 0.930 . S
C2120 C2119 1.400 . S
C2120 C2123 1.386 . S
H2121 C2137 0.930 . S
H2122 C2138 0.931 . S
C2123 H2111 0.929 1_655 S
C2123 C2117 1.390 . S
C2123 C2120 1.386 . S
C2124 C2119 1.490 . S
C2124 C2126 1.395 . S
C2124 C2127 1.403 . S
H2125 C2131 0.930 . S
C2126 H2112 0.930 . S
C2126 C2124 1.395 . S
C2126 C2129 1.403 . S
C2127 C2124 1.403 . S
C2127 C2128 1.524 . S
C2127 C2131 1.400 . S
C2128 H2113 0.960 1_655 S
C2128 H2114 0.960 . S
C2128 H2115 0.960 1_655 S
C2128 C2127 1.524 . S
C2129 C2126 1.403 . S
C2129 C2130 1.392 . S
C2129 C2133 1.495 . S
C2130 C2129 1.392 . S
C2130 C2131 1.385 . S
C2130 C2132 1.478 . S
C2131 H2125 0.930 . S
C2131 C2127 1.400 . S
C2131 C2130 1.385 . S
C2132 C2130 1.478 . S
C2132 C2134 1.381 . S
C2132 C2138 1.383 . S
C2133 C2129 1.495 . S
C2133 H2139 0.959 . S
C2133 H2140 0.961 . S
C2133 H2141 0.960 . S
C2134 C2132 1.381 . S
C2134 C2135 1.394 . S
C2134 H2142 0.930 . S
C2135 C2134 1.394 . S
C2135 C2136 1.383 . S
C2135 H2143 0.929 . S
C2136 C2135 1.383 . S
C2136 C2137 1.377 . S
C2137 H2121 0.930 . S
C2137 C2136 1.377 . S
C2137 C2138 1.379 . S
C2138 H2122 0.931 . S
C2138 C2132 1.383 . S
C2138 C2137 1.379 . S
H2139 C2133 0.959 . S
H2140 C2133 0.961 . S
H2141 C2133 0.960 . S
H2142 C2134 0.930 . S
H2143 C2135 0.929 . S
H2144 C2152 0.929 . S
H2145 C2154 0.930 . S
H2146 C2156 0.930 . S
H2147 C2159 0.929 . S
H2148 C2162 0.930 . S
H2149 C2164 0.960 . S
H2150 C2164 0.960 . S
H2151 C2164 0.960 . S
C2152 H2144 0.929 . S
C2152 C2153 1.377 . S
C2152 C2154 1.384 . S
C2153 C2152 1.377 . S
C2153 C2159 1.390 . S
C2154 H2145 0.930 . S
C2154 C2152 1.384 . S
C2154 C2155 1.372 . S
C2155 C2154 1.372 . S
C2155 C2156 1.400 . S
C2155 C2160 1.490 . S
C2156 H2146 0.930 . S
C2156 C2155 1.400 . S
C2156 C2159 1.386 . S
H2157 C2173 0.930 . S
H2158 C2174 0.931 . S
C2159 H2147 0.929 . S
C2159 C2153 1.390 . S
C2159 C2156 1.386 . S
C2160 C2155 1.490 . S
C2160 C2162 1.395 . S
C2160 C2163 1.403 . S
H2161 C2167 0.930 . S
C2162 H2148 0.930 . S
C2162 C2160 1.395 . S
C2162 C2165 1.403 . S
C2163 C2160 1.403 . S
C2163 C2164 1.524 . S
C2163 C2167 1.400 . S
C2164 H2149 0.960 . S
C2164 H2150 0.960 . S
C2164 H2151 0.960 . S
C2164 C2163 1.524 . S
C2165 C2162 1.403 . S
C2165 C2166 1.392 . S
C2165 C2169 1.495 . S
C2166 C2165 1.392 . S
C2166 C2167 1.385 . S
C2166 C2168 1.478 . S
C2167 H2161 0.930 . S
C2167 C2163 1.400 . S
C2167 C2166 1.385 . S
C2168 C2166 1.478 . S
C2168 C2170 1.381 . S
C2168 C2174 1.383 . S
C2169 C2165 1.495 . S
C2169 H2175 0.959 . S
C2169 H2176 0.961 . S
C2169 H2177 0.960 . S
C2170 C2168 1.381 . S
C2170 C2171 1.394 . S
C2170 H2178 0.930 . S
C2171 C2170 1.394 . S
C2171 C2172 1.383 . S
C2171 H2179 0.929 . S
C2172 C2171 1.383 . S
C2172 C2173 1.377 . S
C2173 H2157 0.930 . S
C2173 C2172 1.377 . S
C2173 C2174 1.379 . S
C2174 H2158 0.931 . S
C2174 C2168 1.383 . S
C2174 C2173 1.379 . S
H2175 C2169 0.959 . S
H2176 C2169 0.961 . S
H2177 C2169 0.960 . S
H2178 C2170 0.930 . S
H2179 C2171 0.929 . S
H2180 C2188 0.929 . S
H2181 C2190 0.930 . S
H2182 C2192 0.930 . S
H2183 C2195 0.929 . S
H2184 C2198 0.930 . S
H2185 C2200 0.960 . S
H2186 C2200 0.960 . S
H2187 C2200 0.960 . S
C2188 H2180 0.929 . S
C2188 C2189 1.377 . S
C2188 C2190 1.384 . S
C2189 C2188 1.377 . S
C2189 C2195 1.390 . S
C2190 H2181 0.930 . S
C2190 C2188 1.384 . S
C2190 C2191 1.372 . S
C2191 C2190 1.372 . S
C2191 C2192 1.400 . S
C2191 C2196 1.490 . S
C2192 H2182 0.930 . S
C2192 C2191 1.400 . S
C2192 C2195 1.386 . S
H2193 C2209 0.930 . S
H2194 C2210 0.931 . S
C2195 H2183 0.929 . S
C2195 C2189 1.390 . S
C2195 C2192 1.386 . S
C2196 C2191 1.490 . S
C2196 C2198 1.395 . S
C2196 C2199 1.403 . S
H2197 C2203 0.930 . S
C2198 H2184 0.930 . S
C2198 C2196 1.395 . S
C2198 C2201 1.403 . S
C2199 C2196 1.403 . S
C2199 C2200 1.524 . S
C2199 C2203 1.400 . S
C2200 H2185 0.960 . S
C2200 H2186 0.960 . S
C2200 H2187 0.960 . S
C2200 C2199 1.524 . S
C2201 C2198 1.403 . S
C2201 C2202 1.392 . S
C2201 C2205 1.495 . S
C2202 C2201 1.392 . S
C2202 C2203 1.385 . S
C2202 C2204 1.478 . S
C2203 H2197 0.930 . S
C2203 C2199 1.400 . S
C2203 C2202 1.385 . S
C2204 C2202 1.478 . S
C2204 C2206 1.381 . S
C2204 C2210 1.383 . S
C2205 C2201 1.495 . S
C2205 H2211 0.959 . S
C2205 H2212 0.961 . S
C2205 H2213 0.960 . S
C2206 C2204 1.381 . S
C2206 C2207 1.394 . S
C2206 H2214 0.930 . S
C2207 C2206 1.394 . S
C2207 C2208 1.383 . S
C2207 H2215 0.929 . S
C2208 C2207 1.383 . S
C2208 C2209 1.377 . S
C2209 H2193 0.930 . S
C2209 C2208 1.377 . S
C2209 C2210 1.379 . S
C2210 H2194 0.931 . S
C2210 C2204 1.383 . S
C2210 C2209 1.379 . S
H2211 C2205 0.959 . S
H2212 C2205 0.961 . S
H2213 C2205 0.960 . S
H2214 C2206 0.930 . S
H2215 C2207 0.929 . S
H2216 C2224 0.929 . S
H2217 C2226 0.930 . S
H2218 C2228 0.930 . S
H2219 C2231 0.929 . S
H2220 C2234 0.930 . S
H2221 C2236 0.960 . S
H2222 C2236 0.960 . S
H2223 C2236 0.960 . S
C2224 H2216 0.929 . S
C2224 C2225 1.377 . S
C2224 C2226 1.384 . S
C2225 C2224 1.377 . S
C2225 C2231 1.390 . S
C2226 H2217 0.930 . S
C2226 C2224 1.384 . S
C2226 C2227 1.372 . S
C2227 C2226 1.372 . S
C2227 C2228 1.400 . S
C2227 C2232 1.490 . S
C2228 H2218 0.930 . S
C2228 C2227 1.400 . S
C2228 C2231 1.386 . S
H2229 C2245 0.930 . S
H2230 C2246 0.931 . S
C2231 H2219 0.929 . S
C2231 C2225 1.390 . S
C2231 C2228 1.386 . S
C2232 C2227 1.490 . S
C2232 C2234 1.395 . S
C2232 C2235 1.403 . S
H2233 C2239 0.930 . S
C2234 H2220 0.930 . S
C2234 C2232 1.395 . S
C2234 C2237 1.403 . S
C2235 C2232 1.403 . S
C2235 C2236 1.524 . S
C2235 C2239 1.400 . S
C2236 H2221 0.960 . S
C2236 H2222 0.960 . S
C2236 H2223 0.960 . S
C2236 C2235 1.524 . S
C2237 C2234 1.403 . S
C2237 C2238 1.392 . S
C2237 C2241 1.495 . S
C2238 C2237 1.392 . S
C2238 C2239 1.385 . S
C2238 C2240 1.478 . S
C2239 H2233 0.930 . S
C2239 C2235 1.400 . S
C2239 C2238 1.385 . S
C2240 C2238 1.478 . S
C2240 C2242 1.381 . S
C2240 C2246 1.383 . S
C2241 C2237 1.495 . S
C2241 H2247 0.959 . S
C2241 H2248 0.961 . S
C2241 H2249 0.960 . S
C2242 C2240 1.381 . S
C2242 C2243 1.394 . S
C2242 H2250 0.930 . S
C2243 C2242 1.394 . S
C2243 C2244 1.383 . S
C2243 H2251 0.929 . S
C2244 C2243 1.383 . S
C2244 C2245 1.377 . S
C2245 H2229 0.930 . S
C2245 C2244 1.377 . S
C2245 C2246 1.379 . S
C2246 H2230 0.931 . S
C2246 C2240 1.383 . S
C2246 C2245 1.379 . S
H2247 C2241 0.959 . S
H2248 C2241 0.961 . S
H2249 C2241 0.960 . S
H2250 C2242 0.930 . S
H2251 C2243 0.929 . S
H2252 C2260 0.929 . S
H2253 C2262 0.930 . S
H2254 C2264 0.930 . S
H2255 C2267 0.929 . S
H2256 C2270 0.930 . S
H2257 C2272 0.960 . S
H2258 C2272 0.960 . S
H2259 C2272 0.960 . S
C2260 H2252 0.929 . S
C2260 C2261 1.377 . S
C2260 C2262 1.384 . S
C2261 C2260 1.377 . S
C2261 C2267 1.390 . S
C2262 H2253 0.930 . S
C2262 C2260 1.384 . S
C2262 C2263 1.372 . S
C2263 C2262 1.372 . S
C2263 C2264 1.400 . S
C2263 C2268 1.490 . S
C2264 H2254 0.930 . S
C2264 C2263 1.400 . S
C2264 C2267 1.386 . S
H2265 C2281 0.930 . S
H2266 C2282 0.931 . S
C2267 H2255 0.929 . S
C2267 C2261 1.390 . S
C2267 C2264 1.386 . S
C2268 C2263 1.490 . S
C2268 C2270 1.395 . S
C2268 C2271 1.403 . S
H2269 C2275 0.930 . S
C2270 H2256 0.930 . S
C2270 C2268 1.395 . S
C2270 C2273 1.403 . S
C2271 C2268 1.403 . S
C2271 C2272 1.524 . S
C2271 C2275 1.400 . S
C2272 H2257 0.960 . S
C2272 H2258 0.960 . S
C2272 H2259 0.960 . S
C2272 C2271 1.524 . S
C2273 C2270 1.403 . S
C2273 C2274 1.392 . S
C2273 C2277 1.495 . S
C2274 C2273 1.392 . S
C2274 C2275 1.385 . S
C2274 C2276 1.478 . S
C2275 H2269 0.930 . S
C2275 C2271 1.400 . S
C2275 C2274 1.385 . S
C2276 C2274 1.478 . S
C2276 C2278 1.381 . S
C2276 C2282 1.383 . S
C2277 C2273 1.495 . S
C2277 H2283 0.959 . S
C2277 H2284 0.961 . S
C2277 H2285 0.960 . S
C2278 C2276 1.381 . S
C2278 C2279 1.394 . S
C2278 H2286 0.930 . S
C2279 C2278 1.394 . S
C2279 C2280 1.383 . S
C2279 H2287 0.929 . S
C2280 C2279 1.383 . S
C2280 C2281 1.377 . S
C2281 H2265 0.930 . S
C2281 C2280 1.377 . S
C2281 C2282 1.379 . S
C2282 H2266 0.931 . S
C2282 C2276 1.383 . S
C2282 C2281 1.379 . S
H2283 C2277 0.959 . S
H2284 C2277 0.961 . S
H2285 C2277 0.960 . S
H2286 C2278 0.930 . S
H2287 C2279 0.929 . S
H2288 C2296 0.929 . S
H2289 C2298 0.930 . S
H2290 C2300 0.930 . S
H2291 C2303 0.929 . S
H2292 C2306 0.930 . S
H2293 C2308 0.960 . S
H2294 C2308 0.960 . S
H2295 C2308 0.960 . S
C2296 H2288 0.929 . S
C2296 C2297 1.341 1_565 S
C2296 C2298 1.384 . S
C2297 C2296 1.341 1_545 S
C2297 C2303 1.427 . S
C2298 H2289 0.930 . S
C2298 C2296 1.384 . S
C2298 C2299 1.369 1_565 S
C2299 C2298 1.369 1_545 S
C2299 C2300 1.403 . S
C2299 C2304 1.489 1_545 S
C2300 H2290 0.930 . S
C2300 C2299 1.403 . S
C2300 C2303 1.386 . S
H2301 C2317 0.930 . S
H2302 C2318 0.931 . S
C2303 H2291 0.929 . S
C2303 C2297 1.427 . S
C2303 C2300 1.386 . S
C2304 C2299 1.489 1_565 S
C2304 C2306 1.408 . S
C2304 C2307 1.390 1_565 S
H2305 C2311 0.930 . S
C2306 H2292 0.930 . S
C2306 C2304 1.408 . S
C2306 C2309 1.403 . S
C2307 C2304 1.390 1_545 S
C2307 C2308 1.524 . S
C2307 C2311 1.400 . S
C2308 H2293 0.960 . S
C2308 H2294 0.960 . S
C2308 H2295 0.960 . S
C2308 C2307 1.524 . S
C2309 C2306 1.403 . S
C2309 C2310 1.392 . S
C2309 C2313 1.495 . S
C2310 C2309 1.392 . S
C2310 C2311 1.385 1_565 S
C2310 C2312 1.478 . S
C2311 H2305 0.930 . S
C2311 C2307 1.400 . S
C2311 C2310 1.385 1_545 S
C2312 C2310 1.478 . S
C2312 C2314 1.381 . S
C2312 C2318 1.383 1_565 S
C2313 C2309 1.495 . S
C2313 H2319 0.959 . S
C2313 H2320 0.961 . S
C2313 H2321 0.960 . S
C2314 C2312 1.381 . S
C2314 C2315 1.394 . S
C2314 H2322 0.930 . S
C2315 C2314 1.394 . S
C2315 C2316 1.390 . S
C2315 H2323 0.929 . S
C2316 C2315 1.390 . S
C2316 C2317 1.371 1_565 S
C2317 H2301 0.930 . S
C2317 C2316 1.371 1_545 S
C2317 C2318 1.379 . S
C2318 H2302 0.931 . S
C2318 C2312 1.383 1_545 S
C2318 C2317 1.379 . S
H2319 C2313 0.959 . S
H2320 C2313 0.961 . S
H2321 C2313 0.960 . S
H2322 C2314 0.930 . S
H2323 C2315 0.929 . S
H2324 C2332 0.929 . S
H2325 C2334 0.930 . S
H2326 C2336 0.930 . S
H2327 C2339 0.929 . S
H2328 C2342 0.930 . S
H2329 C2344 0.960 . S
H2330 C2344 0.960 . S
H2331 C2344 0.960 . S
C2332 H2324 0.929 . S
C2332 C2333 1.377 . S
C2332 C2334 1.384 . S
C2333 C2332 1.377 . S
C2333 C2339 1.390 . S
C2334 H2325 0.930 . S
C2334 C2332 1.384 . S
C2334 C2335 1.372 . S
C2335 C2334 1.372 . S
C2335 C2336 1.400 . S
C2335 C2340 1.490 . S
C2336 H2326 0.930 . S
C2336 C2335 1.400 . S
C2336 C2339 1.386 . S
H2337 C2353 0.930 . S
H2338 C2354 0.931 . S
C2339 H2327 0.929 . S
C2339 C2333 1.390 . S
C2339 C2336 1.386 . S
C2340 C2335 1.490 . S
C2340 C2342 1.395 . S
C2340 C2343 1.403 . S
H2341 C2347 0.930 . S
C2342 H2328 0.930 . S
C2342 C2340 1.395 . S
C2342 C2345 1.403 . S
C2343 C2340 1.403 . S
C2343 C2344 1.524 . S
C2343 C2347 1.400 . S
C2344 H2329 0.960 . S
C2344 H2330 0.960 . S
C2344 H2331 0.960 . S
C2344 C2343 1.524 . S
C2345 C2342 1.403 . S
C2345 C2346 1.392 . S
C2345 C2349 1.495 . S
C2346 C2345 1.392 . S
C2346 C2347 1.385 . S
C2346 C2348 1.478 . S
C2347 H2341 0.930 . S
C2347 C2343 1.400 . S
C2347 C2346 1.385 . S
C2348 C2346 1.478 . S
C2348 C2350 1.381 . S
C2348 C2354 1.383 . S
C2349 C2345 1.495 . S
C2349 H2355 0.959 . S
C2349 H2356 0.961 . S
C2349 H2357 0.960 . S
C2350 C2348 1.381 . S
C2350 C2351 1.394 . S
C2350 H2358 0.930 . S
C2351 C2350 1.394 . S
C2351 C2352 1.383 . S
C2351 H2359 0.929 . S
C2352 C2351 1.383 . S
C2352 C2353 1.377 . S
C2353 H2337 0.930 . S
C2353 C2352 1.377 . S
C2353 C2354 1.379 . S
C2354 H2338 0.931 . S
C2354 C2348 1.383 . S
C2354 C2353 1.379 . S
H2355 C2349 0.959 . S
H2356 C2349 0.961 . S
H2357 C2349 0.960 . S
H2358 C2350 0.930 . S
H2359 C2351 0.929 . S
H2360 C2368 0.929 . S
H2361 C2370 0.930 . S
H2362 C2372 0.930 . S
H2363 C2375 0.929 . S
H2364 C2378 0.930 . S
H2365 C2380 0.960 . S
H2366 C2380 0.960 . S
H2367 C2380 0.960 . S
C2368 H2360 0.929 . S
C2368 C2369 1.419 . S
C2368 C2370 1.384 . S
C2369 C2368 1.419 . S
C2369 C2375 1.352 1_565 S
C2370 H2361 0.930 . S
C2370 C2368 1.384 . S
C2370 C2371 1.432 . S
C2371 C2370 1.432 . S
C2371 C2372 1.346 1_565 S
C2371 C2376 1.490 . S
C2372 H2362 0.930 . S
C2372 C2371 1.346 1_545 S
C2372 C2375 1.386 . S
H2373 C2389 0.930 . S
H2374 C2390 0.931 . S
C2375 H2363 0.929 . S
C2375 C2369 1.352 1_545 S
C2375 C2372 1.386 . S
C2376 C2371 1.490 . S
C2376 C2378 1.366 1_565 S
C2376 C2379 1.435 . S
H2377 C2383 0.930 . S
C2378 H2364 0.930 . S
C2378 C2376 1.366 1_545 S
C2378 C2381 1.403 . S
C2379 C2376 1.435 . S
C2379 C2380 1.524 . S
C2379 C2383 1.400 . S
C2380 H2365 0.960 . S
C2380 H2366 0.960 . S
C2380 H2367 0.960 . S
C2380 C2379 1.524 . S
C2381 C2378 1.403 . S
C2381 C2382 1.389 . S
C2381 C2385 1.495 . S
C2382 C2381 1.389 . S
C2382 C2383 1.389 1_545 S
C2382 C2384 1.477 . S
C2383 H2377 0.930 . S
C2383 C2379 1.400 . S
C2383 C2382 1.389 1_565 S
C2384 C2382 1.477 . S
C2384 C2386 1.366 1_545 S
C2384 C2390 1.397 . S
C2385 C2381 1.495 . S
C2385 H2391 0.959 . S
C2385 H2392 0.961 . S
C2385 H2393 0.960 . S
C2386 C2384 1.366 1_565 S
C2386 C2387 1.394 . S
C2386 H2394 0.930 . S
C2387 C2386 1.394 . S
C2387 C2388 1.387 . S
C2387 H2395 0.929 . S
C2388 C2387 1.387 . S
C2388 C2389 1.373 1_565 S
C2389 H2373 0.930 . S
C2389 C2388 1.373 1_545 S
C2389 C2390 1.379 . S
C2390 H2374 0.931 . S
C2390 C2384 1.397 . S
C2390 C2389 1.379 . S
H2391 C2385 0.959 . S
H2392 C2385 0.961 . S
H2393 C2385 0.960 . S
H2394 C2386 0.930 . S
H2395 C2387 0.929 . S
H2396 C2404 0.929 . S
H2397 C2406 0.930 . S
H2398 C2408 0.930 . S
H2399 C2411 0.929 . S
H2400 C2414 0.930 . S
H2401 C2416 0.960 . S
H2402 C2416 0.960 . S
H2403 C2416 0.960 . S
C2404 H2396 0.929 . S
C2404 C2405 1.377 . S
C2404 C2406 1.384 . S
C2405 C2404 1.377 . S
C2405 C2411 1.390 . S
C2406 H2397 0.930 . S
C2406 C2404 1.384 . S
C2406 C2407 1.372 . S
C2407 C2406 1.372 . S
C2407 C2408 1.400 . S
C2407 C2412 1.490 . S
C2408 H2398 0.930 . S
C2408 C2407 1.400 . S
C2408 C2411 1.386 . S
H2409 C2425 0.930 . S
H2410 C2426 0.931 . S
C2411 H2399 0.929 . S
C2411 C2405 1.390 . S
C2411 C2408 1.386 . S
C2412 C2407 1.490 . S
C2412 C2414 1.395 . S
C2412 C2415 1.403 . S
H2413 C2419 0.930 . S
C2414 H2400 0.930 . S
C2414 C2412 1.395 . S
C2414 C2417 1.403 . S
C2415 C2412 1.403 . S
C2415 C2416 1.524 . S
C2415 C2419 1.400 . S
C2416 H2401 0.960 . S
C2416 H2402 0.960 . S
C2416 H2403 0.960 . S
C2416 C2415 1.524 . S
C2417 C2414 1.403 . S
C2417 C2418 1.392 . S
C2417 C2421 1.495 . S
C2418 C2417 1.392 . S
C2418 C2419 1.385 . S
C2418 C2420 1.478 . S
C2419 H2413 0.930 . S
C2419 C2415 1.400 . S
C2419 C2418 1.385 . S
C2420 C2418 1.478 . S
C2420 C2422 1.381 . S
C2420 C2426 1.383 . S
C2421 C2417 1.495 . S
C2421 H2427 0.959 . S
C2421 H2428 0.961 . S
C2421 H2429 0.960 . S
C2422 C2420 1.381 . S
C2422 C2423 1.394 . S
C2422 H2430 0.930 . S
C2423 C2422 1.394 . S
C2423 C2424 1.383 . S
C2423 H2431 0.929 . S
C2424 C2423 1.383 . S
C2424 C2425 1.377 . S
C2425 H2409 0.930 . S
C2425 C2424 1.377 . S
C2425 C2426 1.379 . S
C2426 H2410 0.931 . S
C2426 C2420 1.383 . S
C2426 C2425 1.379 . S
H2427 C2421 0.959 . S
H2428 C2421 0.961 . S
H2429 C2421 0.960 . S
H2430 C2422 0.930 . S
H2431 C2423 0.929 . S
H2432 C2440 0.929 . S
H2433 C2442 0.930 . S
H2434 C2444 0.930 . S
H2435 C2447 0.929 . S
H2436 C2450 0.930 . S
H2437 C2452 0.960 1_655 S
H2438 C2452 0.960 1_655 S
H2439 C2452 0.960 . S
C2440 H2432 0.929 . S
C2440 C2441 1.377 . S
C2440 C2442 1.384 . S
C2441 C2440 1.377 . S
C2441 C2447 1.390 . S
C2442 H2433 0.930 . S
C2442 C2440 1.384 . S
C2442 C2443 1.372 . S
C2443 C2442 1.372 . S
C2443 C2444 1.400 . S
C2443 C2448 1.490 . S
C2444 H2434 0.930 . S
C2444 C2443 1.400 . S
C2444 C2447 1.386 . S
H2445 C2461 0.930 . S
H2446 C2462 0.931 . S
C2447 H2435 0.929 . S
C2447 C2441 1.390 . S
C2447 C2444 1.386 . S
C2448 C2443 1.490 . S
C2448 C2450 1.395 . S
C2448 C2451 1.403 . S
H2449 C2455 0.930 . S
C2450 H2436 0.930 . S
C2450 C2448 1.395 . S
C2450 C2453 1.403 . S
C2451 C2448 1.403 . S
C2451 C2452 1.524 . S
C2451 C2455 1.400 . S
C2452 H2437 0.960 1_455 S
C2452 H2438 0.960 1_455 S
C2452 H2439 0.960 . S
C2452 C2451 1.524 . S
C2453 C2450 1.403 . S
C2453 C2454 1.392 . S
C2453 C2457 1.495 . S
C2454 C2453 1.392 . S
C2454 C2455 1.385 . S
C2454 C2456 1.478 . S
C2455 H2449 0.930 . S
C2455 C2451 1.400 . S
C2455 C2454 1.385 . S
C2456 C2454 1.478 . S
C2456 C2458 1.381 . S
C2456 C2462 1.383 . S
C2457 C2453 1.495 . S
C2457 H2463 0.959 . S
C2457 H2464 0.961 . S
C2457 H2465 0.960 . S
C2458 C2456 1.381 . S
C2458 C2459 1.394 . S
C2458 H2466 0.930 . S
C2459 C2458 1.394 . S
C2459 C2460 1.383 . S
C2459 H2467 0.929 . S
C2460 C2459 1.383 . S
C2460 C2461 1.377 . S
C2461 H2445 0.930 . S
C2461 C2460 1.377 . S
C2461 C2462 1.379 . S
C2462 H2446 0.931 . S
C2462 C2456 1.383 . S
C2462 C2461 1.379 . S
H2463 C2457 0.959 . S
H2464 C2457 0.961 . S
H2465 C2457 0.960 . S
H2466 C2458 0.930 . S
H2467 C2459 0.929 . S
H2468 C2476 0.929 . S
H2469 C2478 0.930 . S
H2470 C2480 0.930 . S
H2471 C2483 0.929 . S
H2472 C2486 0.930 . S
H2473 C2488 0.960 . S
H2474 C2488 0.960 . S
H2475 C2488 0.960 . S
C2476 H2468 0.929 . S
C2476 C2477 1.377 . S
C2476 C2478 1.384 . S
C2477 C2476 1.377 . S
C2477 C2483 1.390 . S
C2478 H2469 0.930 . S
C2478 C2476 1.384 . S
C2478 C2479 1.372 . S
C2479 C2478 1.372 . S
C2479 C2480 1.400 . S
C2479 C2484 1.490 . S
C2480 H2470 0.930 . S
C2480 C2479 1.400 . S
C2480 C2483 1.386 . S
H2481 C2497 0.930 . S
H2482 C2498 0.931 . S
C2483 H2471 0.929 . S
C2483 C2477 1.390 . S
C2483 C2480 1.386 . S
C2484 C2479 1.490 . S
C2484 C2486 1.395 . S
C2484 C2487 1.403 . S
H2485 C2491 0.930 . S
C2486 H2472 0.930 . S
C2486 C2484 1.395 . S
C2486 C2489 1.403 . S
C2487 C2484 1.403 . S
C2487 C2488 1.524 . S
C2487 C2491 1.400 . S
C2488 H2473 0.960 . S
C2488 H2474 0.960 . S
C2488 H2475 0.960 . S
C2488 C2487 1.524 . S
C2489 C2486 1.403 . S
C2489 C2490 1.392 . S
C2489 C2493 1.495 . S
C2490 C2489 1.392 . S
C2490 C2491 1.385 . S
C2490 C2492 1.478 . S
C2491 H2485 0.930 . S
C2491 C2487 1.400 . S
C2491 C2490 1.385 . S
C2492 C2490 1.478 . S
C2492 C2494 1.381 . S
C2492 C2498 1.383 . S
C2493 C2489 1.495 . S
C2493 H2499 0.959 . S
C2493 H2500 0.961 . S
C2493 H2501 0.960 1_455 S
C2494 C2492 1.381 . S
C2494 C2495 1.394 . S
C2494 H2502 0.930 1_455 S
C2495 C2494 1.394 . S
C2495 C2496 1.383 . S
C2495 H2503 0.929 1_455 S
C2496 C2495 1.383 . S
C2496 C2497 1.377 . S
C2497 H2481 0.930 . S
C2497 C2496 1.377 . S
C2497 C2498 1.379 . S
C2498 H2482 0.931 . S
C2498 C2492 1.383 . S
C2498 C2497 1.379 . S
H2499 C2493 0.959 . S
H2500 C2493 0.961 . S
H2501 C2493 0.960 1_655 S
H2502 C2494 0.930 1_655 S
H2503 C2495 0.929 1_655 S
H2504 C2512 0.929 . S
H2505 C2514 0.930 . S
H2506 C2516 0.930 . S
H2507 C2519 0.929 1_455 S
H2508 C2522 0.930 . S
H2509 C2524 0.960 . S
H2510 C2524 0.960 . S
H2511 C2524 0.960 1_455 S
C2512 H2504 0.929 . S
C2512 C2513 1.377 . S
C2512 C2514 1.384 . S
C2513 C2512 1.377 . S
C2513 C2519 1.390 . S
C2514 H2505 0.930 . S
C2514 C2512 1.384 . S
C2514 C2515 1.372 . S
C2515 C2514 1.372 . S
C2515 C2516 1.400 . S
C2515 C2520 1.490 . S
C2516 H2506 0.930 . S
C2516 C2515 1.400 . S
C2516 C2519 1.386 . S
H2517 C2533 0.930 . S
H2518 C2534 0.931 . S
C2519 H2507 0.929 1_655 S
C2519 C2513 1.390 . S
C2519 C2516 1.386 . S
C2520 C2515 1.490 . S
C2520 C2522 1.395 . S
C2520 C2523 1.403 . S
H2521 C2527 0.930 . S
C2522 H2508 0.930 . S
C2522 C2520 1.395 . S
C2522 C2525 1.403 . S
C2523 C2520 1.403 . S
C2523 C2524 1.524 . S
C2523 C2527 1.400 . S
C2524 H2509 0.960 . S
C2524 H2510 0.960 . S
C2524 H2511 0.960 1_655 S
C2524 C2523 1.524 . S
C2525 C2522 1.403 . S
C2525 C2526 1.392 . S
C2525 C2529 1.495 . S
C2526 C2525 1.392 . S
C2526 C2527 1.385 . S
C2526 C2528 1.478 . S
C2527 H2521 0.930 . S
C2527 C2523 1.400 . S
C2527 C2526 1.385 . S
C2528 C2526 1.478 . S
C2528 C2530 1.381 . S
C2528 C2534 1.383 . S
C2529 C2525 1.495 . S
C2529 H2535 0.959 . S
C2529 H2536 0.961 . S
C2529 H2537 0.960 . S
C2530 C2528 1.381 . S
C2530 C2531 1.394 . S
C2530 H2538 0.930 . S
C2531 C2530 1.394 . S
C2531 C2532 1.383 . S
C2531 H2539 0.929 . S
C2532 C2531 1.383 . S
C2532 C2533 1.377 . S
C2533 H2517 0.930 . S
C2533 C2532 1.377 . S
C2533 C2534 1.379 . S
C2534 H2518 0.931 . S
C2534 C2528 1.383 . S
C2534 C2533 1.379 . S
H2535 C2529 0.959 . S
H2536 C2529 0.961 . S
H2537 C2529 0.960 . S
H2538 C2530 0.930 . S
H2539 C2531 0.929 . S
H2540 C2548 0.929 . S
H2541 C2550 0.930 . S
H2542 C2552 0.930 . S
H2543 C2555 0.929 1_455 S
H2544 C2558 0.930 . S
H2545 C2560 0.960 . S
H2546 C2560 0.960 . S
H2547 C2560 0.960 1_455 S
C2548 H2540 0.929 . S
C2548 C2549 1.377 . S
C2548 C2550 1.384 . S
C2549 C2548 1.377 . S
C2549 C2555 1.390 . S
C2550 H2541 0.930 . S
C2550 C2548 1.384 . S
C2550 C2551 1.372 . S
C2551 C2550 1.372 . S
C2551 C2552 1.400 . S
C2551 C2556 1.490 . S
C2552 H2542 0.930 . S
C2552 C2551 1.400 . S
C2552 C2555 1.386 . S
H2553 C2569 0.930 . S
H2554 C2570 0.931 . S
C2555 H2543 0.929 1_655 S
C2555 C2549 1.390 . S
C2555 C2552 1.386 . S
C2556 C2551 1.490 . S
C2556 C2558 1.395 . S
C2556 C2559 1.403 . S
H2557 C2563 0.930 . S
C2558 H2544 0.930 . S
C2558 C2556 1.395 . S
C2558 C2561 1.403 . S
C2559 C2556 1.403 . S
C2559 C2560 1.524 . S
C2559 C2563 1.400 . S
C2560 H2545 0.960 . S
C2560 H2546 0.960 . S
C2560 H2547 0.960 1_655 S
C2560 C2559 1.524 . S
C2561 C2558 1.403 . S
C2561 C2562 1.392 . S
C2561 C2565 1.495 . S
C2562 C2561 1.392 . S
C2562 C2563 1.385 . S
C2562 C2564 1.478 . S
C2563 H2557 0.930 . S
C2563 C2559 1.400 . S
C2563 C2562 1.385 . S
C2564 C2562 1.478 . S
C2564 C2566 1.381 . S
C2564 C2570 1.383 . S
C2565 C2561 1.495 . S
C2565 H2571 0.959 . S
C2565 H2572 0.961 . S
C2565 H2573 0.960 . S
C2566 C2564 1.381 . S
C2566 C2567 1.394 . S
C2566 H2574 0.930 . S
C2567 C2566 1.394 . S
C2567 C2568 1.383 . S
C2567 H2575 0.929 . S
C2568 C2567 1.383 . S
C2568 C2569 1.377 . S
C2569 H2553 0.930 . S
C2569 C2568 1.377 . S
C2569 C2570 1.379 . S
C2570 H2554 0.931 . S
C2570 C2564 1.383 . S
C2570 C2569 1.379 . S
H2571 C2565 0.959 . S
H2572 C2565 0.961 . S
H2573 C2565 0.960 . S
H2574 C2566 0.930 . S
H2575 C2567 0.929 . S
H2576 C2584 0.929 . S
H2577 C2586 0.930 . S
H2578 C2588 0.930 . S
H2579 C2591 0.929 . S
H2580 C2594 0.930 . S
H2581 C2596 0.960 . S
H2582 C2596 0.960 . S
H2583 C2596 0.960 . S
C2584 H2576 0.929 . S
C2584 C2585 1.377 . S
C2584 C2586 1.384 . S
C2585 C2584 1.377 . S
C2585 C2591 1.390 . S
C2586 H2577 0.930 . S
C2586 C2584 1.384 . S
C2586 C2587 1.372 . S
C2587 C2586 1.372 . S
C2587 C2588 1.400 . S
C2587 C2592 1.490 . S
C2588 H2578 0.930 . S
C2588 C2587 1.400 . S
C2588 C2591 1.386 . S
H2589 C2605 0.930 . S
H2590 C2606 0.931 . S
C2591 H2579 0.929 . S
C2591 C2585 1.390 . S
C2591 C2588 1.386 . S
C2592 C2587 1.490 . S
C2592 C2594 1.395 . S
C2592 C2595 1.403 . S
H2593 C2599 0.930 . S
C2594 H2580 0.930 . S
C2594 C2592 1.395 . S
C2594 C2597 1.403 . S
C2595 C2592 1.403 . S
C2595 C2596 1.524 . S
C2595 C2599 1.400 . S
C2596 H2581 0.960 . S
C2596 H2582 0.960 . S
C2596 H2583 0.960 . S
C2596 C2595 1.524 . S
C2597 C2594 1.403 . S
C2597 C2598 1.392 . S
C2597 C2601 1.495 . S
C2598 C2597 1.392 . S
C2598 C2599 1.385 . S
C2598 C2600 1.478 . S
C2599 H2593 0.930 . S
C2599 C2595 1.400 . S
C2599 C2598 1.385 . S
C2600 C2598 1.478 . S
C2600 C2602 1.381 . S
C2600 C2606 1.383 . S
C2601 C2597 1.495 . S
C2601 H2607 0.959 . S
C2601 H2608 0.961 . S
C2601 H2609 0.960 . S
C2602 C2600 1.381 . S
C2602 C2603 1.394 . S
C2602 H2610 0.930 . S
C2603 C2602 1.394 . S
C2603 C2604 1.383 . S
C2603 H2611 0.929 . S
C2604 C2603 1.383 . S
C2604 C2605 1.377 . S
C2605 H2589 0.930 . S
C2605 C2604 1.377 . S
C2605 C2606 1.379 . S
C2606 H2590 0.931 . S
C2606 C2600 1.383 . S
C2606 C2605 1.379 . S
H2607 C2601 0.959 . S
H2608 C2601 0.961 . S
H2609 C2601 0.960 . S
H2610 C2602 0.930 . S
H2611 C2603 0.929 . S
H2612 C2620 0.929 . S
H2613 C2622 0.930 . S
H2614 C2624 0.930 . S
H2615 C2627 0.929 . S
H2616 C2630 0.930 . S
H2617 C2632 0.960 . S
H2618 C2632 0.960 . S
H2619 C2632 0.960 . S
C2620 H2612 0.929 . S
C2620 C2621 1.377 . S
C2620 C2622 1.384 . S
C2621 C2620 1.377 . S
C2621 C2627 1.390 . S
C2622 H2613 0.930 . S
C2622 C2620 1.384 . S
C2622 C2623 1.372 . S
C2623 C2622 1.372 . S
C2623 C2624 1.400 . S
C2623 C2628 1.490 . S
C2624 H2614 0.930 . S
C2624 C2623 1.400 . S
C2624 C2627 1.386 . S
H2625 C2641 0.930 . S
H2626 C2642 0.931 . S
C2627 H2615 0.929 . S
C2627 C2621 1.390 . S
C2627 C2624 1.386 . S
C2628 C2623 1.490 . S
C2628 C2630 1.395 . S
C2628 C2631 1.403 . S
H2629 C2635 0.930 . S
C2630 H2616 0.930 . S
C2630 C2628 1.395 . S
C2630 C2633 1.403 . S
C2631 C2628 1.403 . S
C2631 C2632 1.524 . S
C2631 C2635 1.400 . S
C2632 H2617 0.960 . S
C2632 H2618 0.960 . S
C2632 H2619 0.960 . S
C2632 C2631 1.524 . S
C2633 C2630 1.403 . S
C2633 C2634 1.392 . S
C2633 C2637 1.495 1_455 S
C2634 C2633 1.392 . S
C2634 C2635 1.385 . S
C2634 C2636 1.478 . S
C2635 H2629 0.930 . S
C2635 C2631 1.400 . S
C2635 C2634 1.385 . S
C2636 C2634 1.478 . S
C2636 C2638 1.381 . S
C2636 C2642 1.383 . S
C2637 C2633 1.495 1_655 S
C2637 H2643 0.959 . S
C2637 H2644 0.961 . S
C2637 H2645 0.960 1_655 S
C2638 C2636 1.381 . S
C2638 C2639 1.394 . S
C2638 H2646 0.930 . S
C2639 C2638 1.394 . S
C2639 C2640 1.383 . S
C2639 H2647 0.929 . S
C2640 C2639 1.383 . S
C2640 C2641 1.377 . S
C2641 H2625 0.930 . S
C2641 C2640 1.377 . S
C2641 C2642 1.379 . S
C2642 H2626 0.931 . S
C2642 C2636 1.383 . S
C2642 C2641 1.379 . S
H2643 C2637 0.959 . S
H2644 C2637 0.961 . S
H2645 C2637 0.960 1_455 S
H2646 C2638 0.930 . S
H2647 C2639 0.929 . S
H2648 C2656 0.929 . S
H2649 C2658 0.930 . S
H2650 C2660 0.930 . S
H2651 C2663 0.929 . S
H2652 C2666 0.930 . S
H2653 C2668 0.960 1_455 S
H2654 C2668 0.960 . S
H2655 C2668 0.960 1_455 S
C2656 H2648 0.929 . S
C2656 C2657 1.377 . S
C2656 C2658 1.384 . S
C2657 C2656 1.377 . S
C2657 C2663 1.390 . S
C2658 H2649 0.930 . S
C2658 C2656 1.384 . S
C2658 C2659 1.372 . S
C2659 C2658 1.372 . S
C2659 C2660 1.400 . S
C2659 C2664 1.490 . S
C2660 H2650 0.930 . S
C2660 C2659 1.400 . S
C2660 C2663 1.386 . S
H2661 C2677 0.930 . S
H2662 C2678 0.931 . S
C2663 H2651 0.929 . S
C2663 C2657 1.390 . S
C2663 C2660 1.386 . S
C2664 C2659 1.490 . S
C2664 C2666 1.395 . S
C2664 C2667 1.403 . S
H2665 C2671 0.930 . S
C2666 H2652 0.930 . S
C2666 C2664 1.395 . S
C2666 C2669 1.403 . S
C2667 C2664 1.403 . S
C2667 C2668 1.524 . S
C2667 C2671 1.400 . S
C2668 H2653 0.960 1_655 S
C2668 H2654 0.960 . S
C2668 H2655 0.960 1_655 S
C2668 C2667 1.524 . S
C2669 C2666 1.403 . S
C2669 C2670 1.392 . S
C2669 C2673 1.495 . S
C2670 C2669 1.392 . S
C2670 C2671 1.385 . S
C2670 C2672 1.478 . S
C2671 H2665 0.930 . S
C2671 C2667 1.400 . S
C2671 C2670 1.385 . S
C2672 C2670 1.478 . S
C2672 C2674 1.381 . S
C2672 C2678 1.383 . S
C2673 C2669 1.495 . S
C2673 H2679 0.959 . S
C2673 H2680 0.961 . S
C2673 H2681 0.960 . S
C2674 C2672 1.381 . S
C2674 C2675 1.394 . S
C2674 H2682 0.930 . S
C2675 C2674 1.394 . S
C2675 C2676 1.383 . S
C2675 H2683 0.929 . S
C2676 C2675 1.383 . S
C2676 C2677 1.377 . S
C2677 H2661 0.930 . S
C2677 C2676 1.377 . S
C2677 C2678 1.379 . S
C2678 H2662 0.931 . S
C2678 C2672 1.383 . S
C2678 C2677 1.379 . S
H2679 C2673 0.959 . S
H2680 C2673 0.961 . S
H2681 C2673 0.960 . S
H2682 C2674 0.930 . S
H2683 C2675 0.929 . S
H2684 C2692 0.929 . S
H2685 C2694 0.930 . S
H2686 C2696 0.930 . S
H2687 C2699 0.929 . S
H2688 C2702 0.930 . S
H2689 C2704 0.960 . S
H2690 C2704 0.960 . S
H2691 C2704 0.960 . S
C2692 H2684 0.929 . S
C2692 C2693 1.377 . S
C2692 C2694 1.384 . S
C2693 C2692 1.377 . S
C2693 C2699 1.390 . S
C2694 H2685 0.930 . S
C2694 C2692 1.384 . S
C2694 C2695 1.372 . S
C2695 C2694 1.372 . S
C2695 C2696 1.400 . S
C2695 C2700 1.490 . S
C2696 H2686 0.930 . S
C2696 C2695 1.400 . S
C2696 C2699 1.386 . S
H2697 C2713 0.930 . S
H2698 C2714 0.931 . S
C2699 H2687 0.929 . S
C2699 C2693 1.390 . S
C2699 C2696 1.386 . S
C2700 C2695 1.490 . S
C2700 C2702 1.395 . S
C2700 C2703 1.403 . S
H2701 C2707 0.930 . S
C2702 H2688 0.930 . S
C2702 C2700 1.395 . S
C2702 C2705 1.403 . S
C2703 C2700 1.403 . S
C2703 C2704 1.524 . S
C2703 C2707 1.400 . S
C2704 H2689 0.960 . S
C2704 H2690 0.960 . S
C2704 H2691 0.960 . S
C2704 C2703 1.524 . S
C2705 C2702 1.403 . S
C2705 C2706 1.392 . S
C2705 C2709 1.495 1_655 S
C2706 C2705 1.392 . S
C2706 C2707 1.385 . S
C2706 C2708 1.478 . S
C2707 H2701 0.930 . S
C2707 C2703 1.400 . S
C2707 C2706 1.385 . S
C2708 C2706 1.478 . S
C2708 C2710 1.381 . S
C2708 C2714 1.383 . S
C2709 C2705 1.495 1_455 S
C2709 H2715 0.959 . S
C2709 H2716 0.961 . S
C2709 H2717 0.960 . S
C2710 C2708 1.381 . S
C2710 C2711 1.394 . S
C2710 H2718 0.930 . S
C2711 C2710 1.394 . S
C2711 C2712 1.383 . S
C2711 H2719 0.929 . S
C2712 C2711 1.383 . S
C2712 C2713 1.377 . S
C2713 H2697 0.930 . S
C2713 C2712 1.377 . S
C2713 C2714 1.379 . S
C2714 H2698 0.931 . S
C2714 C2708 1.383 . S
C2714 C2713 1.379 . S
H2715 C2709 0.959 . S
H2716 C2709 0.961 . S
H2717 C2709 0.960 . S
H2718 C2710 0.930 . S
H2719 C2711 0.929 . S
H2720 C2728 0.929 . S
H2721 C2730 0.930 . S
H2722 C2732 0.930 . S
H2723 C2735 0.929 . S
H2724 C2738 0.930 . S
H2725 C2740 0.960 . S
H2726 C2740 0.960 . S
H2727 C2740 0.960 . S
C2728 H2720 0.929 . S
C2728 C2729 1.377 . S
C2728 C2730 1.384 . S
C2729 C2728 1.377 . S
C2729 C2735 1.390 . S
C2730 H2721 0.930 . S
C2730 C2728 1.384 . S
C2730 C2731 1.372 . S
C2731 C2730 1.372 . S
C2731 C2732 1.400 . S
C2731 C2736 1.490 . S
C2732 H2722 0.930 . S
C2732 C2731 1.400 . S
C2732 C2735 1.386 . S
H2733 C2749 0.930 . S
H2734 C2750 0.931 . S
C2735 H2723 0.929 . S
C2735 C2729 1.390 . S
C2735 C2732 1.386 . S
C2736 C2731 1.490 . S
C2736 C2738 1.395 . S
C2736 C2739 1.403 . S
H2737 C2743 0.930 . S
C2738 H2724 0.930 . S
C2738 C2736 1.395 . S
C2738 C2741 1.403 . S
C2739 C2736 1.403 . S
C2739 C2740 1.524 . S
C2739 C2743 1.400 . S
C2740 H2725 0.960 . S
C2740 H2726 0.960 . S
C2740 H2727 0.960 . S
C2740 C2739 1.524 . S
C2741 C2738 1.403 . S
C2741 C2742 1.392 . S
C2741 C2745 1.495 . S
C2742 C2741 1.392 . S
C2742 C2743 1.385 . S
C2742 C2744 1.478 . S
C2743 H2737 0.930 . S
C2743 C2739 1.400 . S
C2743 C2742 1.385 . S
C2744 C2742 1.478 . S
C2744 C2746 1.381 . S
C2744 C2750 1.383 . S
C2745 C2741 1.495 . S
C2745 H2751 0.959 . S
C2745 H2752 0.961 . S
C2745 H2753 0.960 . S
C2746 C2744 1.381 . S
C2746 C2747 1.394 . S
C2746 H2754 0.930 . S
C2747 C2746 1.394 . S
C2747 C2748 1.383 . S
C2747 H2755 0.929 . S
C2748 C2747 1.383 . S
C2748 C2749 1.377 . S
C2749 H2733 0.930 . S
C2749 C2748 1.377 . S
C2749 C2750 1.379 . S
C2750 H2734 0.931 . S
C2750 C2744 1.383 . S
C2750 C2749 1.379 . S
H2751 C2745 0.959 . S
H2752 C2745 0.961 . S
H2753 C2745 0.960 . S
H2754 C2746 0.930 . S
H2755 C2747 0.929 . S
H2756 C2764 0.929 . S
H2757 C2766 0.930 . S
H2758 C2768 0.930 . S
H2759 C2771 0.929 . S
H2760 C2774 0.930 . S
H2761 C2776 0.960 . S
H2762 C2776 0.960 . S
H2763 C2776 0.960 . S
C2764 H2756 0.929 . S
C2764 C2765 1.377 . S
C2764 C2766 1.384 . S
C2765 C2764 1.377 . S
C2765 C2771 1.390 . S
C2766 H2757 0.930 . S
C2766 C2764 1.384 . S
C2766 C2767 1.372 . S
C2767 C2766 1.372 . S
C2767 C2768 1.400 . S
C2767 C2772 1.490 . S
C2768 H2758 0.930 . S
C2768 C2767 1.400 . S
C2768 C2771 1.386 . S
H2769 C2785 0.930 . S
H2770 C2786 0.931 . S
C2771 H2759 0.929 . S
C2771 C2765 1.390 . S
C2771 C2768 1.386 . S
C2772 C2767 1.490 . S
C2772 C2774 1.395 . S
C2772 C2775 1.403 . S
H2773 C2779 0.930 . S
C2774 H2760 0.930 . S
C2774 C2772 1.395 . S
C2774 C2777 1.403 . S
C2775 C2772 1.403 . S
C2775 C2776 1.524 . S
C2775 C2779 1.400 . S
C2776 H2761 0.960 . S
C2776 H2762 0.960 . S
C2776 H2763 0.960 . S
C2776 C2775 1.524 . S
C2777 C2774 1.403 . S
C2777 C2778 1.392 . S
C2777 C2781 1.495 . S
C2778 C2777 1.392 . S
C2778 C2779 1.385 . S
C2778 C2780 1.478 . S
C2779 H2773 0.930 . S
C2779 C2775 1.400 . S
C2779 C2778 1.385 . S
C2780 C2778 1.478 . S
C2780 C2782 1.381 . S
C2780 C2786 1.383 . S
C2781 C2777 1.495 . S
C2781 H2787 0.959 . S
C2781 H2788 0.961 . S
C2781 H2789 0.960 . S
C2782 C2780 1.381 . S
C2782 C2783 1.394 . S
C2782 H2790 0.930 . S
C2783 C2782 1.394 . S
C2783 C2784 1.383 . S
C2783 H2791 0.929 . S
C2784 C2783 1.383 . S
C2784 C2785 1.377 . S
C2785 H2769 0.930 . S
C2785 C2784 1.377 . S
C2785 C2786 1.379 . S
C2786 H2770 0.931 . S
C2786 C2780 1.383 . S
C2786 C2785 1.379 . S
H2787 C2781 0.959 . S
H2788 C2781 0.961 . S
H2789 C2781 0.960 . S
H2790 C2782 0.930 . S
H2791 C2783 0.929 . S
H2792 C2800 0.929 . S
H2793 C2802 0.930 . S
H2794 C2804 0.930 . S
H2795 C2807 0.929 . S
H2796 C2810 0.930 . S
H2797 C2812 0.960 . S
H2798 C2812 0.960 . S
H2799 C2812 0.960 . S
C2800 H2792 0.929 . S
C2800 C2801 1.377 . S
C2800 C2802 1.384 . S
C2801 C2800 1.377 . S
C2801 C2807 1.390 . S
C2802 H2793 0.930 . S
C2802 C2800 1.384 . S
C2802 C2803 1.372 . S
C2803 C2802 1.372 . S
C2803 C2804 1.400 . S
C2803 C2808 1.490 . S
C2804 H2794 0.930 . S
C2804 C2803 1.400 . S
C2804 C2807 1.386 . S
H2805 C2821 0.930 . S
H2806 C2822 0.931 . S
C2807 H2795 0.929 . S
C2807 C2801 1.390 . S
C2807 C2804 1.386 . S
C2808 C2803 1.490 . S
C2808 C2810 1.395 . S
C2808 C2811 1.403 . S
H2809 C2815 0.930 . S
C2810 H2796 0.930 . S
C2810 C2808 1.395 . S
C2810 C2813 1.403 . S
C2811 C2808 1.403 . S
C2811 C2812 1.524 . S
C2811 C2815 1.400 . S
C2812 H2797 0.960 . S
C2812 H2798 0.960 . S
C2812 H2799 0.960 . S
C2812 C2811 1.524 . S
C2813 C2810 1.403 . S
C2813 C2814 1.392 . S
C2813 C2817 1.495 . S
C2814 C2813 1.392 . S
C2814 C2815 1.385 . S
C2814 C2816 1.478 . S
C2815 H2809 0.930 . S
C2815 C2811 1.400 . S
C2815 C2814 1.385 . S
C2816 C2814 1.478 . S
C2816 C2818 1.381 . S
C2816 C2822 1.383 . S
C2817 C2813 1.495 . S
C2817 H2823 0.959 . S
C2817 H2824 0.961 . S
C2817 H2825 0.960 . S
C2818 C2816 1.381 . S
C2818 C2819 1.394 . S
C2818 H2826 0.930 . S
C2819 C2818 1.394 . S
C2819 C2820 1.383 . S
C2819 H2827 0.929 . S
C2820 C2819 1.383 . S
C2820 C2821 1.377 . S
C2821 H2805 0.930 . S
C2821 C2820 1.377 . S
C2821 C2822 1.379 . S
C2822 H2806 0.931 . S
C2822 C2816 1.383 . S
C2822 C2821 1.379 . S
H2823 C2817 0.959 . S
H2824 C2817 0.961 . S
H2825 C2817 0.960 . S
H2826 C2818 0.930 . S
H2827 C2819 0.929 . S
H2828 C2836 0.929 . S
H2829 C2838 0.930 . S
H2830 C2840 0.930 . S
H2831 C2843 0.929 . S
H2832 C2846 0.930 . S
H2833 C2848 0.960 . S
H2834 C2848 0.960 . S
H2835 C2848 0.960 . S
C2836 H2828 0.929 . S
C2836 C2837 1.377 . S
C2836 C2838 1.384 . S
C2837 C2836 1.377 . S
C2837 C2843 1.390 . S
C2838 H2829 0.930 . S
C2838 C2836 1.384 . S
C2838 C2839 1.372 . S
C2839 C2838 1.372 . S
C2839 C2840 1.400 . S
C2839 C2844 1.490 . S
C2840 H2830 0.930 . S
C2840 C2839 1.400 . S
C2840 C2843 1.386 . S
H2841 C2857 0.930 . S
H2842 C2858 0.931 . S
C2843 H2831 0.929 . S
C2843 C2837 1.390 . S
C2843 C2840 1.386 . S
C2844 C2839 1.490 . S
C2844 C2846 1.395 . S
C2844 C2847 1.403 . S
H2845 C2851 0.930 . S
C2846 H2832 0.930 . S
C2846 C2844 1.395 . S
C2846 C2849 1.403 . S
C2847 C2844 1.403 . S
C2847 C2848 1.524 . S
C2847 C2851 1.400 . S
C2848 H2833 0.960 . S
C2848 H2834 0.960 . S
C2848 H2835 0.960 . S
C2848 C2847 1.524 . S
C2849 C2846 1.403 . S
C2849 C2850 1.392 . S
C2849 C2853 1.495 . S
C2850 C2849 1.392 . S
C2850 C2851 1.385 . S
C2850 C2852 1.478 . S
C2851 H2845 0.930 . S
C2851 C2847 1.400 . S
C2851 C2850 1.385 . S
C2852 C2850 1.478 . S
C2852 C2854 1.381 . S
C2852 C2858 1.383 . S
C2853 C2849 1.495 . S
C2853 H2859 0.959 . S
C2853 H2860 0.961 . S
C2853 H2861 0.960 . S
C2854 C2852 1.381 . S
C2854 C2855 1.394 . S
C2854 H2862 0.930 . S
C2855 C2854 1.394 . S
C2855 C2856 1.383 . S
C2855 H2863 0.929 . S
C2856 C2855 1.383 . S
C2856 C2857 1.377 . S
C2857 H2841 0.930 . S
C2857 C2856 1.377 . S
C2857 C2858 1.379 . S
C2858 H2842 0.931 . S
C2858 C2852 1.383 . S
C2858 C2857 1.379 . S
H2859 C2853 0.959 . S
H2860 C2853 0.961 . S
H2861 C2853 0.960 . S
H2862 C2854 0.930 . S
H2863 C2855 0.929 . S
H2864 C2872 0.929 . S
H2865 C2874 0.930 . S
H2866 C2876 0.930 . S
H2867 C2879 0.929 . S
H2868 C2882 0.930 . S
H2869 C2884 0.960 . S
H2870 C2884 0.960 . S
H2871 C2884 0.960 . S
C2872 H2864 0.929 . S
C2872 C2873 1.377 . S
C2872 C2874 1.384 . S
C2873 C2872 1.377 . S
C2873 C2879 1.390 . S
C2874 H2865 0.930 . S
C2874 C2872 1.384 . S
C2874 C2875 1.372 . S
C2875 C2874 1.372 . S
C2875 C2876 1.400 . S
C2875 C2880 1.490 . S
C2876 H2866 0.930 . S
C2876 C2875 1.400 . S
C2876 C2879 1.386 . S
H2877 C2893 0.930 . S
H2878 C2894 0.931 . S
C2879 H2867 0.929 . S
C2879 C2873 1.390 . S
C2879 C2876 1.386 . S
C2880 C2875 1.490 . S
C2880 C2882 1.395 . S
C2880 C2883 1.403 . S
H2881 C2887 0.930 . S
C2882 H2868 0.930 . S
C2882 C2880 1.395 . S
C2882 C2885 1.403 . S
C2883 C2880 1.403 . S
C2883 C2884 1.524 . S
C2883 C2887 1.400 . S
C2884 H2869 0.960 . S
C2884 H2870 0.960 . S
C2884 H2871 0.960 . S
C2884 C2883 1.524 . S
C2885 C2882 1.403 . S
C2885 C2886 1.392 . S
C2885 C2889 1.495 . S
C2886 C2885 1.392 . S
C2886 C2887 1.385 . S
C2886 C2888 1.478 . S
C2887 H2881 0.930 . S
C2887 C2883 1.400 . S
C2887 C2886 1.385 . S
C2888 C2886 1.478 . S
C2888 C2890 1.381 . S
C2888 C2894 1.383 . S
C2889 C2885 1.495 . S
C2889 H2895 0.959 . S
C2889 H2896 0.961 . S
C2889 H2897 0.960 . S
C2890 C2888 1.381 . S
C2890 C2891 1.394 . S
C2890 H2898 0.930 . S
C2891 C2890 1.394 . S
C2891 C2892 1.383 . S
C2891 H2899 0.929 . S
C2892 C2891 1.383 . S
C2892 C2893 1.377 . S
C2893 H2877 0.930 . S
C2893 C2892 1.377 . S
C2893 C2894 1.379 . S
C2894 H2878 0.931 . S
C2894 C2888 1.383 . S
C2894 C2893 1.379 . S
H2895 C2889 0.959 . S
H2896 C2889 0.961 . S
H2897 C2889 0.960 . S
H2898 C2890 0.930 . S
H2899 C2891 0.929 . S
H2900 C2908 0.929 . S
H2901 C2910 0.930 . S
H2902 C2912 0.930 . S
H2903 C2915 0.929 . S
H2904 C2918 0.930 . S
H2905 C2920 0.960 . S
H2906 C2920 0.960 . S
H2907 C2920 0.960 . S
C2908 H2900 0.929 . S
C2908 C2909 1.377 . S
C2908 C2910 1.384 . S
C2909 C2908 1.377 . S
C2909 C2915 1.390 . S
C2910 H2901 0.930 . S
C2910 C2908 1.384 . S
C2910 C2911 1.372 . S
C2911 C2910 1.372 . S
C2911 C2912 1.400 . S
C2911 C2916 1.490 . S
C2912 H2902 0.930 . S
C2912 C2911 1.400 . S
C2912 C2915 1.386 . S
H2913 C2929 0.930 . S
H2914 C2930 0.931 . S
C2915 H2903 0.929 . S
C2915 C2909 1.390 . S
C2915 C2912 1.386 . S
C2916 C2911 1.490 . S
C2916 C2918 1.395 . S
C2916 C2919 1.403 . S
H2917 C2923 0.930 . S
C2918 H2904 0.930 . S
C2918 C2916 1.395 . S
C2918 C2921 1.403 . S
C2919 C2916 1.403 . S
C2919 C2920 1.524 . S
C2919 C2923 1.400 . S
C2920 H2905 0.960 . S
C2920 H2906 0.960 . S
C2920 H2907 0.960 . S
C2920 C2919 1.524 . S
C2921 C2918 1.403 . S
C2921 C2922 1.392 . S
C2921 C2925 1.495 . S
C2922 C2921 1.392 . S
C2922 C2923 1.385 . S
C2922 C2924 1.478 . S
C2923 H2917 0.930 . S
C2923 C2919 1.400 . S
C2923 C2922 1.385 . S
C2924 C2922 1.478 . S
C2924 C2926 1.381 . S
C2924 C2930 1.383 . S
C2925 C2921 1.495 . S
C2925 H2931 0.959 . S
C2925 H2932 0.961 . S
C2925 H2933 0.960 . S
C2926 C2924 1.381 . S
C2926 C2927 1.394 . S
C2926 H2934 0.930 . S
C2927 C2926 1.394 . S
C2927 C2928 1.383 . S
C2927 H2935 0.929 . S
C2928 C2927 1.383 . S
C2928 C2929 1.377 . S
C2929 H2913 0.930 . S
C2929 C2928 1.377 . S
C2929 C2930 1.379 . S
C2930 H2914 0.931 . S
C2930 C2924 1.383 . S
C2930 C2929 1.379 . S
H2931 C2925 0.959 . S
H2932 C2925 0.961 . S
H2933 C2925 0.960 . S
H2934 C2926 0.930 . S
H2935 C2927 0.929 . S
H2936 C2944 0.929 . S
H2937 C2946 0.930 . S
H2938 C2948 0.930 . S
H2939 C2951 0.929 . S
H2940 C2954 0.930 . S
H2941 C2956 0.960 . S
H2942 C2956 0.960 . S
H2943 C2956 0.960 . S
C2944 H2936 0.929 . S
C2944 C2945 1.377 . S
C2944 C2946 1.384 . S
C2945 C2944 1.377 . S
C2945 C2951 1.390 . S
C2946 H2937 0.930 . S
C2946 C2944 1.384 . S
C2946 C2947 1.372 . S
C2947 C2946 1.372 . S
C2947 C2948 1.400 . S
C2947 C2952 1.490 . S
C2948 H2938 0.930 . S
C2948 C2947 1.400 . S
C2948 C2951 1.386 . S
H2949 C2965 0.930 . S
H2950 C2966 0.931 . S
C2951 H2939 0.929 . S
C2951 C2945 1.390 . S
C2951 C2948 1.386 . S
C2952 C2947 1.490 . S
C2952 C2954 1.395 . S
C2952 C2955 1.403 . S
H2953 C2959 0.930 . S
C2954 H2940 0.930 . S
C2954 C2952 1.395 . S
C2954 C2957 1.403 . S
C2955 C2952 1.403 . S
C2955 C2956 1.524 . S
C2955 C2959 1.400 . S
C2956 H2941 0.960 . S
C2956 H2942 0.960 . S
C2956 H2943 0.960 . S
C2956 C2955 1.524 . S
C2957 C2954 1.403 . S
C2957 C2958 1.392 . S
C2957 C2961 1.495 . S
C2958 C2957 1.392 . S
C2958 C2959 1.385 . S
C2958 C2960 1.478 . S
C2959 H2953 0.930 . S
C2959 C2955 1.400 . S
C2959 C2958 1.385 . S
C2960 C2958 1.478 . S
C2960 C2962 1.381 . S
C2960 C2966 1.383 . S
C2961 C2957 1.495 . S
C2961 H2967 0.959 . S
C2961 H2968 0.961 . S
C2961 H2969 0.960 . S
C2962 C2960 1.381 . S
C2962 C2963 1.394 . S
C2962 H2970 0.930 . S
C2963 C2962 1.394 . S
C2963 C2964 1.383 . S
C2963 H2971 0.929 . S
C2964 C2963 1.383 . S
C2964 C2965 1.377 . S
C2965 H2949 0.930 . S
C2965 C2964 1.377 . S
C2965 C2966 1.379 . S
C2966 H2950 0.931 . S
C2966 C2960 1.383 . S
C2966 C2965 1.379 . S
H2967 C2961 0.959 . S
H2968 C2961 0.961 . S
H2969 C2961 0.960 . S
H2970 C2962 0.930 . S
H2971 C2963 0.929 . S
H2972 C2980 0.929 . S
H2973 C2982 0.930 . S
H2974 C2984 0.930 . S
H2975 C2987 0.929 . S
H2976 C2990 0.930 . S
H2977 C2992 0.960 . S
H2978 C2992 0.960 . S
H2979 C2992 0.960 . S
C2980 H2972 0.929 . S
C2980 C2981 1.377 . S
C2980 C2982 1.384 . S
C2981 C2980 1.377 . S
C2981 C2987 1.390 . S
C2982 H2973 0.930 . S
C2982 C2980 1.384 . S
C2982 C2983 1.372 . S
C2983 C2982 1.372 . S
C2983 C2984 1.400 . S
C2983 C2988 1.490 . S
C2984 H2974 0.930 . S
C2984 C2983 1.400 . S
C2984 C2987 1.386 . S
H2985 C3001 0.930 . S
H2986 C3002 0.931 . S
C2987 H2975 0.929 . S
C2987 C2981 1.390 . S
C2987 C2984 1.386 . S
C2988 C2983 1.490 . S
C2988 C2990 1.395 . S
C2988 C2991 1.403 . S
H2989 C2995 0.930 . S
C2990 H2976 0.930 . S
C2990 C2988 1.395 . S
C2990 C2993 1.403 . S
C2991 C2988 1.403 . S
C2991 C2992 1.524 . S
C2991 C2995 1.400 . S
C2992 H2977 0.960 . S
C2992 H2978 0.960 . S
C2992 H2979 0.960 . S
C2992 C2991 1.524 . S
C2993 C2990 1.403 . S
C2993 C2994 1.392 . S
C2993 C2997 1.495 . S
C2994 C2993 1.392 . S
C2994 C2995 1.385 . S
C2994 C2996 1.478 . S
C2995 H2989 0.930 . S
C2995 C2991 1.400 . S
C2995 C2994 1.385 . S
C2996 C2994 1.478 . S
C2996 C2998 1.381 . S
C2996 C3002 1.383 . S
C2997 C2993 1.495 . S
C2997 H3003 0.959 . S
C2997 H3004 0.961 . S
C2997 H3005 0.960 . S
C2998 C2996 1.381 . S
C2998 C2999 1.394 . S
C2998 H3006 0.930 . S
C2999 C2998 1.394 . S
C2999 C3000 1.383 . S
C2999 H3007 0.929 . S
C3000 C2999 1.383 . S
C3000 C3001 1.377 . S
C3001 H2985 0.930 . S
C3001 C3000 1.377 . S
C3001 C3002 1.379 . S
C3002 H2986 0.931 . S
C3002 C2996 1.383 . S
C3002 C3001 1.379 . S
H3003 C2997 0.959 . S
H3004 C2997 0.961 . S
H3005 C2997 0.960 . S
H3006 C2998 0.930 . S
H3007 C2999 0.929 . S
H3008 C3016 0.929 . S
H3009 C3018 0.930 . S
H3010 C3020 0.930 . S
H3011 C3023 0.929 . S
H3012 C3026 0.930 . S
H3013 C3028 0.960 . S
H3014 C3028 0.960 . S
H3015 C3028 0.960 . S
C3016 H3008 0.929 . S
C3016 C3017 1.377 . S
C3016 C3018 1.384 . S
C3017 C3016 1.377 . S
C3017 C3023 1.390 . S
C3018 H3009 0.930 . S
C3018 C3016 1.384 . S
C3018 C3019 1.372 . S
C3019 C3018 1.372 . S
C3019 C3020 1.400 . S
C3019 C3024 1.490 . S
C3020 H3010 0.930 . S
C3020 C3019 1.400 . S
C3020 C3023 1.386 . S
H3021 C3037 0.930 . S
H3022 C3038 0.931 . S
C3023 H3011 0.929 . S
C3023 C3017 1.390 . S
C3023 C3020 1.386 . S
C3024 C3019 1.490 . S
C3024 C3026 1.395 . S
C3024 C3027 1.403 . S
H3025 C3031 0.930 . S
C3026 H3012 0.930 . S
C3026 C3024 1.395 . S
C3026 C3029 1.403 . S
C3027 C3024 1.403 . S
C3027 C3028 1.524 . S
C3027 C3031 1.400 . S
C3028 H3013 0.960 . S
C3028 H3014 0.960 . S
C3028 H3015 0.960 . S
C3028 C3027 1.524 . S
C3029 C3026 1.403 . S
C3029 C3030 1.392 . S
C3029 C3033 1.495 . S
C3030 C3029 1.392 . S
C3030 C3031 1.385 . S
C3030 C3032 1.478 . S
C3031 H3025 0.930 . S
C3031 C3027 1.400 . S
C3031 C3030 1.385 . S
C3032 C3030 1.478 . S
C3032 C3034 1.381 . S
C3032 C3038 1.383 . S
C3033 C3029 1.495 . S
C3033 H3039 0.959 . S
C3033 H3040 0.961 . S
C3033 H3041 0.960 . S
C3034 C3032 1.381 . S
C3034 C3035 1.394 . S
C3034 H3042 0.930 . S
C3035 C3034 1.394 . S
C3035 C3036 1.383 . S
C3035 H3043 0.929 . S
C3036 C3035 1.383 . S
C3036 C3037 1.377 . S
C3037 H3021 0.930 . S
C3037 C3036 1.377 . S
C3037 C3038 1.379 . S
C3038 H3022 0.931 . S
C3038 C3032 1.383 . S
C3038 C3037 1.379 . S
H3039 C3033 0.959 . S
H3040 C3033 0.961 . S
H3041 C3033 0.960 . S
H3042 C3034 0.930 . S
H3043 C3035 0.929 . S
H3044 C3052 0.929 . S
H3045 C3054 0.930 . S
H3046 C3056 0.930 . S
H3047 C3059 0.929 . S
H3048 C3062 0.930 . S
H3049 C3064 0.960 . S
H3050 C3064 0.960 . S
H3051 C3064 0.960 . S
C3052 H3044 0.929 . S
C3052 C3053 1.377 . S
C3052 C3054 1.384 . S
C3053 C3052 1.377 . S
C3053 C3059 1.390 . S
C3054 H3045 0.930 . S
C3054 C3052 1.384 . S
C3054 C3055 1.372 . S
C3055 C3054 1.372 . S
C3055 C3056 1.400 . S
C3055 C3060 1.490 . S
C3056 H3046 0.930 . S
C3056 C3055 1.400 . S
C3056 C3059 1.386 . S
H3057 C3073 0.930 . S
H3058 C3074 0.931 . S
C3059 H3047 0.929 . S
C3059 C3053 1.390 . S
C3059 C3056 1.386 . S
C3060 C3055 1.490 . S
C3060 C3062 1.395 . S
C3060 C3063 1.403 . S
H3061 C3067 0.930 . S
C3062 H3048 0.930 . S
C3062 C3060 1.395 . S
C3062 C3065 1.403 . S
C3063 C3060 1.403 . S
C3063 C3064 1.524 . S
C3063 C3067 1.400 . S
C3064 H3049 0.960 . S
C3064 H3050 0.960 . S
C3064 H3051 0.960 . S
C3064 C3063 1.524 . S
C3065 C3062 1.403 . S
C3065 C3066 1.392 . S
C3065 C3069 1.495 . S
C3066 C3065 1.392 . S
C3066 C3067 1.385 . S
C3066 C3068 1.478 . S
C3067 H3061 0.930 . S
C3067 C3063 1.400 . S
C3067 C3066 1.385 . S
C3068 C3066 1.478 . S
C3068 C3070 1.381 . S
C3068 C3074 1.383 . S
C3069 C3065 1.495 . S
C3069 H3075 0.959 . S
C3069 H3076 0.961 . S
C3069 H3077 0.960 . S
C3070 C3068 1.381 . S
C3070 C3071 1.394 . S
C3070 H3078 0.930 . S
C3071 C3070 1.394 . S
C3071 C3072 1.383 . S
C3071 H3079 0.929 . S
C3072 C3071 1.383 . S
C3072 C3073 1.377 . S
C3073 H3057 0.930 . S
C3073 C3072 1.377 . S
C3073 C3074 1.379 . S
C3074 H3058 0.931 . S
C3074 C3068 1.383 . S
C3074 C3073 1.379 . S
H3075 C3069 0.959 . S
H3076 C3069 0.961 . S
H3077 C3069 0.960 . S
H3078 C3070 0.930 . S
H3079 C3071 0.929 . S
H3080 C3088 0.929 . S
H3081 C3090 0.930 . S
H3082 C3092 0.930 . S
H3083 C3095 0.929 . S
H3084 C3098 0.930 . S
H3085 C3100 0.960 . S
H3086 C3100 0.960 . S
H3087 C3100 0.960 . S
C3088 H3080 0.929 . S
C3088 C3089 1.377 . S
C3088 C3090 1.384 . S
C3089 C3088 1.377 . S
C3089 C3095 1.390 . S
C3090 H3081 0.930 . S
C3090 C3088 1.384 . S
C3090 C3091 1.372 . S
C3091 C3090 1.372 . S
C3091 C3092 1.400 . S
C3091 C3096 1.490 . S
C3092 H3082 0.930 . S
C3092 C3091 1.400 . S
C3092 C3095 1.386 . S
H3093 C3109 0.930 . S
H3094 C3110 0.931 . S
C3095 H3083 0.929 . S
C3095 C3089 1.390 . S
C3095 C3092 1.386 . S
C3096 C3091 1.490 . S
C3096 C3098 1.395 . S
C3096 C3099 1.403 . S
H3097 C3103 0.930 . S
C3098 H3084 0.930 . S
C3098 C3096 1.395 . S
C3098 C3101 1.403 . S
C3099 C3096 1.403 . S
C3099 C3100 1.524 . S
C3099 C3103 1.400 . S
C3100 H3085 0.960 . S
C3100 H3086 0.960 . S
C3100 H3087 0.960 . S
C3100 C3099 1.524 . S
C3101 C3098 1.403 . S
C3101 C3102 1.392 . S
C3101 C3105 1.495 . S
C3102 C3101 1.392 . S
C3102 C3103 1.385 . S
C3102 C3104 1.478 . S
C3103 H3097 0.930 . S
C3103 C3099 1.400 . S
C3103 C3102 1.385 . S
C3104 C3102 1.478 . S
C3104 C3106 1.381 . S
C3104 C3110 1.383 . S
C3105 C3101 1.495 . S
C3105 H3111 0.959 . S
C3105 H3112 0.961 . S
C3105 H3113 0.960 . S
C3106 C3104 1.381 . S
C3106 C3107 1.394 . S
C3106 H3114 0.930 . S
C3107 C3106 1.394 . S
C3107 C3108 1.383 . S
C3107 H3115 0.929 . S
C3108 C3107 1.383 . S
C3108 C3109 1.377 . S
C3109 H3093 0.930 . S
C3109 C3108 1.377 . S
C3109 C3110 1.379 . S
C3110 H3094 0.931 . S
C3110 C3104 1.383 . S
C3110 C3109 1.379 . S
H3111 C3105 0.959 . S
H3112 C3105 0.961 . S
H3113 C3105 0.960 . S
H3114 C3106 0.930 . S
H3115 C3107 0.929 . S
H3116 C3124 0.929 . S
H3117 C3126 0.930 . S
H3118 C3128 0.930 . S
H3119 C3131 0.929 . S
H3120 C3134 0.930 . S
H3121 C3136 0.960 . S
H3122 C3136 0.960 . S
H3123 C3136 0.960 . S
C3124 H3116 0.929 . S
C3124 C3125 1.377 . S
C3124 C3126 1.384 . S
C3125 C3124 1.377 . S
C3125 C3131 1.390 . S
C3126 H3117 0.930 . S
C3126 C3124 1.384 . S
C3126 C3127 1.372 . S
C3127 C3126 1.372 . S
C3127 C3128 1.400 . S
C3127 C3132 1.490 . S
C3128 H3118 0.930 . S
C3128 C3127 1.400 . S
C3128 C3131 1.386 . S
H3129 C3145 0.930 . S
H3130 C3146 0.931 . S
C3131 H3119 0.929 . S
C3131 C3125 1.390 . S
C3131 C3128 1.386 . S
C3132 C3127 1.490 . S
C3132 C3134 1.395 . S
C3132 C3135 1.403 . S
H3133 C3139 0.930 . S
C3134 H3120 0.930 . S
C3134 C3132 1.395 . S
C3134 C3137 1.403 . S
C3135 C3132 1.403 . S
C3135 C3136 1.524 . S
C3135 C3139 1.400 . S
C3136 H3121 0.960 . S
C3136 H3122 0.960 . S
C3136 H3123 0.960 . S
C3136 C3135 1.524 . S
C3137 C3134 1.403 . S
C3137 C3138 1.392 . S
C3137 C3141 1.495 . S
C3138 C3137 1.392 . S
C3138 C3139 1.385 . S
C3138 C3140 1.478 . S
C3139 H3133 0.930 . S
C3139 C3135 1.400 . S
C3139 C3138 1.385 . S
C3140 C3138 1.478 . S
C3140 C3142 1.381 . S
C3140 C3146 1.383 . S
C3141 C3137 1.495 . S
C3141 H3147 0.959 . S
C3141 H3148 0.961 . S
C3141 H3149 0.960 . S
C3142 C3140 1.381 . S
C3142 C3143 1.394 . S
C3142 H3150 0.930 . S
C3143 C3142 1.394 . S
C3143 C3144 1.383 . S
C3143 H3151 0.929 . S
C3144 C3143 1.383 . S
C3144 C3145 1.377 . S
C3145 H3129 0.930 . S
C3145 C3144 1.377 . S
C3145 C3146 1.379 . S
C3146 H3130 0.931 . S
C3146 C3140 1.383 . S
C3146 C3145 1.379 . S
H3147 C3141 0.959 . S
H3148 C3141 0.961 . S
H3149 C3141 0.960 . S
H3150 C3142 0.930 . S
H3151 C3143 0.929 . S
H3152 C3160 0.929 . S
H3153 C3162 0.930 . S
H3154 C3164 0.930 . S
H3155 C3167 0.929 . S
H3156 C3170 0.930 . S
H3157 C3172 0.960 . S
H3158 C3172 0.960 . S
H3159 C3172 0.960 . S
C3160 H3152 0.929 . S
C3160 C3161 1.377 . S
C3160 C3162 1.384 . S
C3161 C3160 1.377 . S
C3161 C3167 1.390 . S
C3162 H3153 0.930 . S
C3162 C3160 1.384 . S
C3162 C3163 1.372 . S
C3163 C3162 1.372 . S
C3163 C3164 1.400 . S
C3163 C3168 1.490 . S
C3164 H3154 0.930 . S
C3164 C3163 1.400 . S
C3164 C3167 1.386 . S
H3165 C3181 0.930 . S
H3166 C3182 0.931 . S
C3167 H3155 0.929 . S
C3167 C3161 1.390 . S
C3167 C3164 1.386 . S
C3168 C3163 1.490 . S
C3168 C3170 1.395 . S
C3168 C3171 1.403 . S
H3169 C3175 0.930 . S
C3170 H3156 0.930 . S
C3170 C3168 1.395 . S
C3170 C3173 1.403 . S
C3171 C3168 1.403 . S
C3171 C3172 1.524 . S
C3171 C3175 1.400 . S
C3172 H3157 0.960 . S
C3172 H3158 0.960 . S
C3172 H3159 0.960 . S
C3172 C3171 1.524 . S
C3173 C3170 1.403 . S
C3173 C3174 1.392 . S
C3173 C3177 1.495 . S
C3174 C3173 1.392 . S
C3174 C3175 1.385 . S
C3174 C3176 1.478 . S
C3175 H3169 0.930 . S
C3175 C3171 1.400 . S
C3175 C3174 1.385 . S
C3176 C3174 1.478 . S
C3176 C3178 1.381 . S
C3176 C3182 1.383 . S
C3177 C3173 1.495 . S
C3177 H3183 0.959 . S
C3177 H3184 0.961 . S
C3177 H3185 0.960 . S
C3178 C3176 1.381 . S
C3178 C3179 1.394 . S
C3178 H3186 0.930 . S
C3179 C3178 1.394 . S
C3179 C3180 1.383 . S
C3179 H3187 0.929 . S
C3180 C3179 1.383 . S
C3180 C3181 1.377 . S
C3181 H3165 0.930 . S
C3181 C3180 1.377 . S
C3181 C3182 1.379 . S
C3182 H3166 0.931 . S
C3182 C3176 1.383 . S
C3182 C3181 1.379 . S
H3183 C3177 0.959 . S
H3184 C3177 0.961 . S
H3185 C3177 0.960 . S
H3186 C3178 0.930 . S
H3187 C3179 0.929 . S
H3188 C3196 0.929 . S
H3189 C3198 0.930 . S
H3190 C3200 0.930 . S
H3191 C3203 0.929 . S
H3192 C3206 0.930 . S
H3193 C3208 0.960 . S
H3194 C3208 0.960 . S
H3195 C3208 0.960 . S
C3196 H3188 0.929 . S
C3196 C3197 1.377 . S
C3196 C3198 1.384 . S
C3197 C3196 1.377 . S
C3197 C3203 1.390 . S
C3198 H3189 0.930 . S
C3198 C3196 1.384 . S
C3198 C3199 1.372 . S
C3199 C3198 1.372 . S
C3199 C3200 1.400 . S
C3199 C3204 1.490 . S
C3200 H3190 0.930 . S
C3200 C3199 1.400 . S
C3200 C3203 1.386 . S
H3201 C3217 0.930 . S
H3202 C3218 0.931 . S
C3203 H3191 0.929 . S
C3203 C3197 1.390 . S
C3203 C3200 1.386 . S
C3204 C3199 1.490 . S
C3204 C3206 1.395 . S
C3204 C3207 1.403 . S
H3205 C3211 0.930 . S
C3206 H3192 0.930 . S
C3206 C3204 1.395 . S
C3206 C3209 1.403 . S
C3207 C3204 1.403 . S
C3207 C3208 1.524 . S
C3207 C3211 1.400 . S
C3208 H3193 0.960 . S
C3208 H3194 0.960 . S
C3208 H3195 0.960 . S
C3208 C3207 1.524 . S
C3209 C3206 1.403 . S
C3209 C3210 1.392 . S
C3209 C3213 1.495 . S
C3210 C3209 1.392 . S
C3210 C3211 1.385 . S
C3210 C3212 1.478 . S
C3211 H3205 0.930 . S
C3211 C3207 1.400 . S
C3211 C3210 1.385 . S
C3212 C3210 1.478 . S
C3212 C3214 1.381 . S
C3212 C3218 1.383 . S
C3213 C3209 1.495 . S
C3213 H3219 0.959 . S
C3213 H3220 0.961 . S
C3213 H3221 0.960 . S
C3214 C3212 1.381 . S
C3214 C3215 1.394 . S
C3214 H3222 0.930 . S
C3215 C3214 1.394 . S
C3215 C3216 1.383 . S
C3215 H3223 0.929 . S
C3216 C3215 1.383 . S
C3216 C3217 1.377 . S
C3217 H3201 0.930 . S
C3217 C3216 1.377 . S
C3217 C3218 1.379 . S
C3218 H3202 0.931 . S
C3218 C3212 1.383 . S
C3218 C3217 1.379 . S
H3219 C3213 0.959 . S
H3220 C3213 0.961 . S
H3221 C3213 0.960 . S
H3222 C3214 0.930 . S
H3223 C3215 0.929 . S
H3224 C3232 0.929 . S
H3225 C3234 0.930 . S
H3226 C3236 0.930 . S
H3227 C3239 0.929 . S
H3228 C3242 0.930 . S
H3229 C3244 0.960 . S
H3230 C3244 0.960 . S
H3231 C3244 0.960 . S
C3232 H3224 0.929 . S
C3232 C3233 1.377 . S
C3232 C3234 1.384 . S
C3233 C3232 1.377 . S
C3233 C3239 1.390 . S
C3234 H3225 0.930 . S
C3234 C3232 1.384 . S
C3234 C3235 1.372 . S
C3235 C3234 1.372 . S
C3235 C3236 1.400 . S
C3235 C3240 1.490 . S
C3236 H3226 0.930 . S
C3236 C3235 1.400 . S
C3236 C3239 1.386 . S
H3237 C3253 0.930 . S
H3238 C3254 0.931 . S
C3239 H3227 0.929 . S
C3239 C3233 1.390 . S
C3239 C3236 1.386 . S
C3240 C3235 1.490 . S
C3240 C3242 1.395 . S
C3240 C3243 1.403 . S
H3241 C3247 0.930 . S
C3242 H3228 0.930 . S
C3242 C3240 1.395 . S
C3242 C3245 1.403 . S
C3243 C3240 1.403 . S
C3243 C3244 1.524 . S
C3243 C3247 1.400 . S
C3244 H3229 0.960 . S
C3244 H3230 0.960 . S
C3244 H3231 0.960 . S
C3244 C3243 1.524 . S
C3245 C3242 1.403 . S
C3245 C3246 1.392 . S
C3245 C3249 1.495 . S
C3246 C3245 1.392 . S
C3246 C3247 1.385 . S
C3246 C3248 1.478 . S
C3247 H3241 0.930 . S
C3247 C3243 1.400 . S
C3247 C3246 1.385 . S
C3248 C3246 1.478 . S
C3248 C3250 1.381 . S
C3248 C3254 1.383 . S
C3249 C3245 1.495 . S
C3249 H3255 0.959 . S
C3249 H3256 0.961 . S
C3249 H3257 0.960 . S
C3250 C3248 1.381 . S
C3250 C3251 1.394 . S
C3250 H3258 0.930 . S
C3251 C3250 1.394 . S
C3251 C3252 1.383 . S
C3251 H3259 0.929 . S
C3252 C3251 1.383 . S
C3252 C3253 1.377 . S
C3253 H3237 0.930 . S
C3253 C3252 1.377 . S
C3253 C3254 1.379 . S
C3254 H3238 0.931 . S
C3254 C3248 1.383 . S
C3254 C3253 1.379 . S
H3255 C3249 0.959 . S
H3256 C3249 0.961 . S
H3257 C3249 0.960 . S
H3258 C3250 0.930 . S
H3259 C3251 0.929 . S
H3260 C3268 0.929 . S
H3261 C3270 0.930 . S
H3262 C3272 0.930 . S
H3263 C3275 0.929 . S
H3264 C3278 0.930 . S
H3265 C3280 0.960 . S
H3266 C3280 0.960 . S
H3267 C3280 0.960 . S
C3268 H3260 0.929 . S
C3268 C3269 1.377 . S
C3268 C3270 1.384 . S
C3269 C3268 1.377 . S
C3269 C3275 1.390 . S
C3270 H3261 0.930 . S
C3270 C3268 1.384 . S
C3270 C3271 1.372 . S
C3271 C3270 1.372 . S
C3271 C3272 1.400 . S
C3271 C3276 1.490 . S
C3272 H3262 0.930 . S
C3272 C3271 1.400 . S
C3272 C3275 1.386 . S
H3273 C3289 0.930 . S
H3274 C3290 0.931 . S
C3275 H3263 0.929 . S
C3275 C3269 1.390 . S
C3275 C3272 1.386 . S
C3276 C3271 1.490 . S
C3276 C3278 1.395 . S
C3276 C3279 1.403 . S
H3277 C3283 0.930 . S
C3278 H3264 0.930 . S
C3278 C3276 1.395 . S
C3278 C3281 1.403 . S
C3279 C3276 1.403 . S
C3279 C3280 1.524 . S
C3279 C3283 1.400 . S
C3280 H3265 0.960 . S
C3280 H3266 0.960 . S
C3280 H3267 0.960 . S
C3280 C3279 1.524 . S
C3281 C3278 1.403 . S
C3281 C3282 1.392 . S
C3281 C3285 1.495 . S
C3282 C3281 1.392 . S
C3282 C3283 1.385 . S
C3282 C3284 1.478 . S
C3283 H3277 0.930 . S
C3283 C3279 1.400 . S
C3283 C3282 1.385 . S
C3284 C3282 1.478 . S
C3284 C3286 1.381 . S
C3284 C3290 1.383 . S
C3285 C3281 1.495 . S
C3285 H3291 0.959 . S
C3285 H3292 0.961 . S
C3285 H3293 0.960 . S
C3286 C3284 1.381 . S
C3286 C3287 1.394 . S
C3286 H3294 0.930 . S
C3287 C3286 1.394 . S
C3287 C3288 1.383 . S
C3287 H3295 0.929 . S
C3288 C3287 1.383 . S
C3288 C3289 1.377 . S
C3289 H3273 0.930 . S
C3289 C3288 1.377 . S
C3289 C3290 1.379 . S
C3290 H3274 0.931 . S
C3290 C3284 1.383 . S
C3290 C3289 1.379 . S
H3291 C3285 0.959 . S
H3292 C3285 0.961 . S
H3293 C3285 0.960 . S
H3294 C3286 0.930 . S
H3295 C3287 0.929 . S
H3296 C3304 0.929 . S
H3297 C3306 0.930 . S
H3298 C3308 0.930 . S
H3299 C3311 0.929 . S
H3300 C3314 0.930 . S
H3301 C3316 0.960 . S
H3302 C3316 0.960 . S
H3303 C3316 0.960 . S
C3304 H3296 0.929 . S
C3304 C3305 1.377 . S
C3304 C3306 1.384 . S
C3305 C3304 1.377 . S
C3305 C3311 1.390 . S
C3306 H3297 0.930 . S
C3306 C3304 1.384 . S
C3306 C3307 1.372 . S
C3307 C3306 1.372 . S
C3307 C3308 1.400 . S
C3307 C3312 1.505 . S
C3308 H3298 0.930 . S
C3308 C3307 1.400 . S
C3308 C3311 1.386 . S
H3309 C3325 0.930 . S
H3310 C3326 0.931 . S
C3311 H3299 0.929 . S
C3311 C3305 1.390 . S
C3311 C3308 1.386 . S
C3312 C3307 1.505 . S
C3312 C3314 1.320 1_545 S
C3312 C3315 1.466 . S
H3313 C3319 0.930 . S
C3314 H3300 0.930 . S
C3314 C3312 1.320 1_565 S
C3314 C3317 1.403 . S
C3315 C3312 1.466 . S
C3315 C3316 1.524 . S
C3315 C3319 1.400 . S
C3316 H3301 0.960 . S
C3316 H3302 0.960 . S
C3316 H3303 0.960 . S
C3316 C3315 1.524 . S
C3317 C3314 1.403 . S
C3317 C3318 1.392 . S
C3317 C3321 1.495 . S
C3318 C3317 1.392 . S
C3318 C3319 1.385 1_565 S
C3318 C3320 1.478 . S
C3319 H3313 0.930 . S
C3319 C3315 1.400 . S
C3319 C3318 1.385 1_545 S
C3320 C3318 1.478 . S
C3320 C3322 1.381 . S
C3320 C3326 1.383 . S
C3321 C3317 1.495 . S
C3321 H3327 0.959 . S
C3321 H3328 0.961 . S
C3321 H3329 0.960 . S
C3322 C3320 1.381 . S
C3322 C3323 1.394 . S
C3322 H3330 0.930 . S
C3323 C3322 1.394 . S
C3323 C3324 1.383 . S
C3323 H3331 0.929 . S
C3324 C3323 1.383 . S
C3324 C3325 1.377 . S
C3325 H3309 0.930 . S
C3325 C3324 1.377 . S
C3325 C3326 1.379 . S
C3326 H3310 0.931 . S
C3326 C3320 1.383 . S
C3326 C3325 1.379 . S
H3327 C3321 0.959 . S
H3328 C3321 0.961 . S
H3329 C3321 0.960 . S
H3330 C3322 0.930 . S
H3331 C3323 0.929 . S
H3332 C3340 0.929 . S
H3333 C3342 0.930 . S
H3334 C3344 0.930 . S
H3335 C3347 0.929 . S
H3336 C3350 0.930 . S
H3337 C3352 0.960 . S
H3338 C3352 0.960 . S
H3339 C3352 0.960 . S
C3340 H3332 0.929 . S
C3340 C3341 1.377 . S
C3340 C3342 1.384 . S
C3341 C3340 1.377 . S
C3341 C3347 1.390 . S
C3342 H3333 0.930 . S
C3342 C3340 1.384 . S
C3342 C3343 1.372 . S
C3343 C3342 1.372 . S
C3343 C3344 1.400 . S
C3343 C3348 1.490 . S
C3344 H3334 0.930 . S
C3344 C3343 1.400 . S
C3344 C3347 1.386 . S
H3345 C3361 0.930 . S
H3346 C3362 0.931 . S
C3347 H3335 0.929 . S
C3347 C3341 1.390 . S
C3347 C3344 1.386 . S
C3348 C3343 1.490 . S
C3348 C3350 1.395 . S
C3348 C3351 1.403 . S
H3349 C3355 0.930 . S
C3350 H3336 0.930 . S
C3350 C3348 1.395 . S
C3350 C3353 1.403 . S
C3351 C3348 1.403 . S
C3351 C3352 1.524 . S
C3351 C3355 1.400 . S
C3352 H3337 0.960 . S
C3352 H3338 0.960 . S
C3352 H3339 0.960 . S
C3352 C3351 1.524 . S
C3353 C3350 1.403 . S
C3353 C3354 1.392 . S
C3353 C3357 1.495 . S
C3354 C3353 1.392 . S
C3354 C3355 1.385 . S
C3354 C3356 1.478 . S
C3355 H3349 0.930 . S
C3355 C3351 1.400 . S
C3355 C3354 1.385 . S
C3356 C3354 1.478 . S
C3356 C3358 1.381 . S
C3356 C3362 1.383 . S
C3357 C3353 1.495 . S
C3357 H3363 0.959 . S
C3357 H3364 0.961 . S
C3357 H3365 0.960 . S
C3358 C3356 1.381 . S
C3358 C3359 1.394 . S
C3358 H3366 0.930 . S
C3359 C3358 1.394 . S
C3359 C3360 1.383 . S
C3359 H3367 0.929 . S
C3360 C3359 1.383 . S
C3360 C3361 1.377 . S
C3361 H3345 0.930 . S
C3361 C3360 1.377 . S
C3361 C3362 1.379 . S
C3362 H3346 0.931 . S
C3362 C3356 1.383 . S
C3362 C3361 1.379 . S
H3363 C3357 0.959 . S
H3364 C3357 0.961 . S
H3365 C3357 0.960 . S
H3366 C3358 0.930 . S
H3367 C3359 0.929 . S
H3368 C3376 0.929 . S
H3369 C3378 0.930 . S
H3370 C3380 0.930 . S
H3371 C3383 0.929 . S
H3372 C3386 0.930 . S
H3373 C3388 0.960 . S
H3374 C3388 0.960 . S
H3375 C3388 0.960 . S
C3376 H3368 0.929 . S
C3376 C3377 1.377 . S
C3376 C3378 1.384 . S
C3377 C3376 1.377 . S
C3377 C3383 1.390 . S
C3378 H3369 0.930 . S
C3378 C3376 1.384 . S
C3378 C3379 1.372 . S
C3379 C3378 1.372 . S
C3379 C3380 1.400 . S
C3379 C3384 1.490 . S
C3380 H3370 0.930 . S
C3380 C3379 1.400 . S
C3380 C3383 1.386 . S
H3381 C3397 0.930 . S
H3382 C3398 0.931 . S
C3383 H3371 0.929 . S
C3383 C3377 1.390 . S
C3383 C3380 1.386 . S
C3384 C3379 1.490 . S
C3384 C3386 1.395 . S
C3384 C3387 1.403 . S
H3385 C3391 0.930 . S
C3386 H3372 0.930 . S
C3386 C3384 1.395 . S
C3386 C3389 1.403 . S
C3387 C3384 1.403 . S
C3387 C3388 1.524 . S
C3387 C3391 1.400 . S
C3388 H3373 0.960 . S
C3388 H3374 0.960 . S
C3388 H3375 0.960 . S
C3388 C3387 1.524 . S
C3389 C3386 1.403 . S
C3389 C3390 1.392 . S
C3389 C3393 1.495 . S
C3390 C3389 1.392 . S
C3390 C3391 1.385 . S
C3390 C3392 1.478 . S
C3391 H3385 0.930 . S
C3391 C3387 1.400 . S
C3391 C3390 1.385 . S
C3392 C3390 1.478 . S
C3392 C3394 1.381 . S
C3392 C3398 1.383 . S
C3393 C3389 1.495 . S
C3393 H3399 0.959 . S
C3393 H3400 0.961 . S
C3393 H3401 0.960 . S
C3394 C3392 1.381 . S
C3394 C3395 1.394 . S
C3394 H3402 0.930 . S
C3395 C3394 1.394 . S
C3395 C3396 1.383 . S
C3395 H3403 0.929 . S
C3396 C3395 1.383 . S
C3396 C3397 1.377 . S
C3397 H3381 0.930 . S
C3397 C3396 1.377 . S
C3397 C3398 1.379 . S
C3398 H3382 0.931 . S
C3398 C3392 1.383 . S
C3398 C3397 1.379 . S
H3399 C3393 0.959 . S
H3400 C3393 0.961 . S
H3401 C3393 0.960 . S
H3402 C3394 0.930 . S
H3403 C3395 0.929 . S
H3404 C3412 0.935 . S
H3405 C3414 0.930 . S
H3406 C3416 0.930 . S
H3407 C3419 0.929 . S
H3408 C3422 0.930 . S
H3409 C3424 0.960 . S
H3410 C3424 0.960 . S
H3411 C3424 0.960 . S
C3412 H3404 0.935 . S
C3412 C3413 1.370 1_565 S
C3412 C3414 1.386 . S
C3413 C3412 1.370 1_545 S
C3413 C3419 1.390 . S
C3414 H3405 0.930 . S
C3414 C3412 1.386 . S
C3414 C3415 1.372 1_565 S
C3415 C3414 1.372 1_545 S
C3415 C3416 1.400 . S
C3415 C3420 1.503 . S
C3416 H3406 0.930 . S
C3416 C3415 1.400 . S
C3416 C3419 1.386 . S
H3417 C3433 0.930 . S
H3418 C3434 0.931 . S
C3419 H3407 0.929 . S
C3419 C3413 1.390 . S
C3419 C3416 1.386 . S
C3420 C3415 1.503 . S
C3420 C3422 1.445 . S
C3420 C3423 1.349 1_545 S
H3421 C3427 0.930 . S
C3422 H3408 0.930 . S
C3422 C3420 1.445 . S
C3422 C3425 1.403 . S
C3423 C3420 1.349 1_565 S
C3423 C3424 1.524 . S
C3423 C3427 1.400 . S
C3424 H3409 0.960 . S
C3424 H3410 0.960 . S
C3424 H3411 0.960 . S
C3424 C3423 1.524 . S
C3425 C3422 1.403 . S
C3425 C3426 1.376 1_545 S
C3425 C3429 1.495 . S
C3426 C3425 1.376 1_565 S
C3426 C3427 1.400 . S
C3426 C3428 1.481 . S
C3427 H3421 0.930 . S
C3427 C3423 1.400 . S
C3427 C3426 1.400 . S
C3428 C3426 1.481 . S
C3428 C3430 1.381 . S
C3428 C3434 1.383 1_565 S
C3429 C3425 1.495 . S
C3429 H3435 0.959 . S
C3429 H3436 0.961 . S
C3429 H3437 0.960 . S
C3430 C3428 1.381 . S
C3430 C3431 1.394 . S
C3430 H3438 0.930 . S
C3431 C3430 1.394 . S
C3431 C3432 1.383 . S
C3431 H3439 0.929 . S
C3432 C3431 1.383 . S
C3432 C3433 1.377 1_565 S
C3433 H3417 0.930 . S
C3433 C3432 1.377 1_545 S
C3433 C3434 1.379 . S
C3434 H3418 0.931 . S
C3434 C3428 1.383 1_545 S
C3434 C3433 1.379 . S
H3435 C3429 0.959 . S
H3436 C3429 0.961 . S
H3437 C3429 0.960 . S
H3438 C3430 0.930 . S
H3439 C3431 0.929 . S
H3440 C3448 0.930 . S
H3441 C3450 0.928 1_545 S
H3442 C3452 0.930 . S
H3443 C3455 0.929 . S
H3444 C3458 0.930 . S
H3445 C3460 0.960 . S
H3446 C3460 0.960 . S
H3447 C3460 0.960 . S
C3448 H3440 0.930 . S
C3448 C3449 1.377 . S
C3448 C3450 1.385 . S
C3449 C3448 1.377 . S
C3449 C3455 1.390 . S
C3450 H3441 0.928 1_565 S
C3450 C3448 1.385 . S
C3450 C3451 1.373 . S
C3451 C3450 1.373 . S
C3451 C3452 1.400 . S
C3451 C3456 1.501 . S
C3452 H3442 0.930 . S
C3452 C3451 1.400 . S
C3452 C3455 1.386 . S
H3453 C3469 0.930 . S
H3454 C3470 0.931 . S
C3455 H3443 0.929 . S
C3455 C3449 1.390 . S
C3455 C3452 1.386 . S
C3456 C3451 1.501 . S
C3456 C3458 1.334 1_565 S
C3456 C3459 1.453 . S
H3457 C3463 0.930 . S
C3458 H3444 0.930 . S
C3458 C3456 1.334 1_545 S
C3458 C3461 1.403 . S
C3459 C3456 1.453 . S
C3459 C3460 1.524 . S
C3459 C3463 1.400 . S
C3460 H3445 0.960 . S
C3460 H3446 0.960 . S
C3460 H3447 0.960 . S
C3460 C3459 1.524 . S
C3461 C3458 1.403 . S
C3461 C3462 1.392 . S
C3461 C3465 1.495 . S
C3462 C3461 1.392 . S
C3462 C3463 1.385 1_545 S
C3462 C3464 1.478 . S
C3463 H3457 0.930 . S
C3463 C3459 1.400 . S
C3463 C3462 1.385 1_565 S
C3464 C3462 1.478 . S
C3464 C3466 1.381 . S
C3464 C3470 1.383 . S
C3465 C3461 1.495 . S
C3465 H3471 0.959 . S
C3465 H3472 0.961 . S
C3465 H3473 0.960 . S
C3466 C3464 1.381 . S
C3466 C3467 1.394 . S
C3466 H3474 0.930 . S
C3467 C3466 1.394 . S
C3467 C3468 1.383 . S
C3467 H3475 0.929 . S
C3468 C3467 1.383 . S
C3468 C3469 1.377 . S
C3469 H3453 0.930 . S
C3469 C3468 1.377 . S
C3469 C3470 1.379 . S
C3470 H3454 0.931 . S
C3470 C3464 1.383 . S
C3470 C3469 1.379 . S
H3471 C3465 0.959 . S
H3472 C3465 0.961 . S
H3473 C3465 0.960 . S
H3474 C3466 0.930 . S
H3475 C3467 0.929 . S
H3476 C3484 0.929 . S
H3477 C3486 0.930 . S
H3478 C3488 0.930 . S
H3479 C3491 0.929 . S
H3480 C3494 0.930 . S
H3481 C3496 0.960 . S
H3482 C3496 0.960 . S
H3483 C3496 0.960 . S
C3484 H3476 0.929 . S
C3484 C3485 1.377 . S
C3484 C3486 1.384 . S
C3485 C3484 1.377 . S
C3485 C3491 1.390 . S
C3486 H3477 0.930 . S
C3486 C3484 1.384 . S
C3486 C3487 1.372 . S
C3487 C3486 1.372 . S
C3487 C3488 1.400 . S
C3487 C3492 1.490 . S
C3488 H3478 0.930 . S
C3488 C3487 1.400 . S
C3488 C3491 1.386 . S
H3489 C3505 0.930 . S
H3490 C3506 0.931 . S
C3491 H3479 0.929 . S
C3491 C3485 1.390 . S
C3491 C3488 1.386 . S
C3492 C3487 1.490 . S
C3492 C3494 1.395 . S
C3492 C3495 1.403 . S
H3493 C3499 0.930 . S
C3494 H3480 0.930 . S
C3494 C3492 1.395 . S
C3494 C3497 1.403 . S
C3495 C3492 1.403 . S
C3495 C3496 1.524 . S
C3495 C3499 1.400 . S
C3496 H3481 0.960 . S
C3496 H3482 0.960 . S
C3496 H3483 0.960 . S
C3496 C3495 1.524 . S
C3497 C3494 1.403 . S
C3497 C3498 1.392 . S
C3497 C3501 1.495 . S
C3498 C3497 1.392 . S
C3498 C3499 1.385 . S
C3498 C3500 1.478 . S
C3499 H3493 0.930 . S
C3499 C3495 1.400 . S
C3499 C3498 1.385 . S
C3500 C3498 1.478 . S
C3500 C3502 1.381 . S
C3500 C3506 1.383 . S
C3501 C3497 1.495 . S
C3501 H3507 0.959 . S
C3501 H3508 0.961 . S
C3501 H3509 0.960 . S
C3502 C3500 1.381 . S
C3502 C3503 1.394 . S
C3502 H3510 0.930 . S
C3503 C3502 1.394 . S
C3503 C3504 1.383 . S
C3503 H3511 0.929 . S
C3504 C3503 1.383 . S
C3504 C3505 1.377 . S
C3505 H3489 0.930 . S
C3505 C3504 1.377 . S
C3505 C3506 1.379 . S
C3506 H3490 0.931 . S
C3506 C3500 1.383 . S
C3506 C3505 1.379 . S
H3507 C3501 0.959 . S
H3508 C3501 0.961 . S
H3509 C3501 0.960 . S
H3510 C3502 0.930 . S
H3511 C3503 0.929 . S
H3512 C3520 0.929 . S
H3513 C3522 0.930 . S
H3514 C3524 0.930 . S
H3515 C3527 0.929 . S
H3516 C3530 0.930 . S
H3517 C3532 0.960 . S
H3518 C3532 0.960 . S
H3519 C3532 0.960 . S
C3520 H3512 0.929 . S
C3520 C3521 1.377 . S
C3520 C3522 1.384 . S
C3521 C3520 1.377 . S
C3521 C3527 1.390 . S
C3522 H3513 0.930 . S
C3522 C3520 1.384 . S
C3522 C3523 1.372 . S
C3523 C3522 1.372 . S
C3523 C3524 1.400 . S
C3523 C3528 1.490 . S
C3524 H3514 0.930 . S
C3524 C3523 1.400 . S
C3524 C3527 1.386 . S
H3525 C3541 0.930 . S
H3526 C3542 0.931 . S
C3527 H3515 0.929 . S
C3527 C3521 1.390 . S
C3527 C3524 1.386 . S
C3528 C3523 1.490 . S
C3528 C3530 1.395 . S
C3528 C3531 1.403 . S
H3529 C3535 0.930 . S
C3530 H3516 0.930 . S
C3530 C3528 1.395 . S
C3530 C3533 1.403 . S
C3531 C3528 1.403 . S
C3531 C3532 1.524 . S
C3531 C3535 1.400 . S
C3532 H3517 0.960 . S
C3532 H3518 0.960 . S
C3532 H3519 0.960 . S
C3532 C3531 1.524 . S
C3533 C3530 1.403 . S
C3533 C3534 1.392 . S
C3533 C3537 1.495 . S
C3534 C3533 1.392 . S
C3534 C3535 1.385 . S
C3534 C3536 1.478 . S
C3535 H3529 0.930 . S
C3535 C3531 1.400 . S
C3535 C3534 1.385 . S
C3536 C3534 1.478 . S
C3536 C3538 1.381 . S
C3536 C3542 1.383 . S
C3537 C3533 1.495 . S
C3537 H3543 0.959 . S
C3537 H3544 0.961 . S
C3537 H3545 0.960 . S
C3538 C3536 1.381 . S
C3538 C3539 1.394 . S
C3538 H3546 0.930 . S
C3539 C3538 1.394 . S
C3539 C3540 1.383 . S
C3539 H3547 0.929 . S
C3540 C3539 1.383 . S
C3540 C3541 1.377 . S
C3541 H3525 0.930 . S
C3541 C3540 1.377 . S
C3541 C3542 1.379 . S
C3542 H3526 0.931 . S
C3542 C3536 1.383 . S
C3542 C3541 1.379 . S
H3543 C3537 0.959 . S
H3544 C3537 0.961 . S
H3545 C3537 0.960 . S
H3546 C3538 0.930 . S
H3547 C3539 0.929 . S
H3548 C3556 0.931 . S
H3549 C3558 0.927 1_545 S
H3550 C3560 0.930 . S
H3551 C3563 0.929 . S
H3552 C3566 0.930 . S
H3553 C3568 0.960 . S
H3554 C3568 0.960 . S
H3555 C3568 0.960 . S
C3556 H3548 0.931 . S
C3556 C3557 1.377 . S
C3556 C3558 1.385 . S
C3557 C3556 1.377 . S
C3557 C3563 1.390 . S
C3558 H3549 0.927 1_565 S
C3558 C3556 1.385 . S
C3558 C3559 1.374 . S
C3559 C3558 1.374 . S
C3559 C3560 1.400 . S
C3559 C3564 1.501 . S
C3560 H3550 0.930 . S
C3560 C3559 1.400 . S
C3560 C3563 1.386 . S
H3561 C3577 0.930 . S
H3562 C3578 0.931 . S
C3563 H3551 0.929 . S
C3563 C3557 1.390 . S
C3563 C3560 1.386 . S
C3564 C3559 1.501 . S
C3564 C3566 1.334 1_565 S
C3564 C3567 1.454 . S
H3565 C3571 0.930 . S
C3566 H3552 0.930 . S
C3566 C3564 1.334 1_545 S
C3566 C3569 1.403 . S
C3567 C3564 1.454 . S
C3567 C3568 1.524 . S
C3567 C3571 1.400 . S
C3568 H3553 0.960 . S
C3568 H3554 0.960 . S
C3568 H3555 0.960 . S
C3568 C3567 1.524 . S
C3569 C3566 1.403 . S
C3569 C3570 1.392 . S
C3569 C3573 1.495 . S
C3570 C3569 1.392 . S
C3570 C3571 1.385 1_545 S
C3570 C3572 1.478 . S
C3571 H3565 0.930 . S
C3571 C3567 1.400 . S
C3571 C3570 1.385 1_565 S
C3572 C3570 1.478 . S
C3572 C3574 1.381 . S
C3572 C3578 1.383 . S
C3573 C3569 1.495 . S
C3573 H3579 0.959 . S
C3573 H3580 0.961 . S
C3573 H3581 0.960 . S
C3574 C3572 1.381 . S
C3574 C3575 1.394 . S
C3574 H3582 0.930 . S
C3575 C3574 1.394 . S
C3575 C3576 1.383 . S
C3575 H3583 0.929 . S
C3576 C3575 1.383 . S
C3576 C3577 1.377 . S
C3577 H3561 0.930 . S
C3577 C3576 1.377 . S
C3577 C3578 1.379 . S
C3578 H3562 0.931 . S
C3578 C3572 1.383 . S
C3578 C3577 1.379 . S
H3579 C3573 0.959 . S
H3580 C3573 0.961 . S
H3581 C3573 0.960 . S
H3582 C3574 0.930 . S
H3583 C3575 0.929 . S
H3584 C3592 0.929 . S
H3585 C3594 0.930 . S
H3586 C3596 0.930 . S
H3587 C3599 0.929 . S
H3588 C3602 0.930 . S
H3589 C3604 0.960 . S
H3590 C3604 0.960 . S
H3591 C3604 0.960 . S
C3592 H3584 0.929 . S
C3592 C3593 1.377 . S
C3592 C3594 1.384 . S
C3593 C3592 1.377 . S
C3593 C3599 1.390 . S
C3594 H3585 0.930 . S
C3594 C3592 1.384 . S
C3594 C3595 1.372 . S
C3595 C3594 1.372 . S
C3595 C3596 1.400 . S
C3595 C3600 1.490 . S
C3596 H3586 0.930 . S
C3596 C3595 1.400 . S
C3596 C3599 1.386 . S
H3597 C3613 0.930 . S
H3598 C3614 0.931 . S
C3599 H3587 0.929 . S
C3599 C3593 1.390 . S
C3599 C3596 1.386 . S
C3600 C3595 1.490 . S
C3600 C3602 1.395 . S
C3600 C3603 1.403 . S
H3601 C3607 0.930 . S
C3602 H3588 0.930 . S
C3602 C3600 1.395 . S
C3602 C3605 1.403 1_455 S
C3603 C3600 1.403 . S
C3603 C3604 1.524 . S
C3603 C3607 1.400 1_455 S
C3604 H3589 0.960 . S
C3604 H3590 0.960 . S
C3604 H3591 0.960 . S
C3604 C3603 1.524 . S
C3605 C3602 1.403 1_655 S
C3605 C3606 1.392 . S
C3605 C3609 1.495 . S
C3606 C3605 1.392 . S
C3606 C3607 1.385 . S
C3606 C3608 1.478 . S
C3607 H3601 0.930 . S
C3607 C3603 1.400 1_655 S
C3607 C3606 1.385 . S
C3608 C3606 1.478 . S
C3608 C3610 1.381 . S
C3608 C3614 1.383 . S
C3609 C3605 1.495 . S
C3609 H3615 0.959 . S
C3609 H3616 0.961 . S
C3609 H3617 0.960 . S
C3610 C3608 1.381 . S
C3610 C3611 1.394 . S
C3610 H3618 0.930 . S
C3611 C3610 1.394 . S
C3611 C3612 1.383 . S
C3611 H3619 0.929 . S
C3612 C3611 1.383 . S
C3612 C3613 1.377 . S
C3613 H3597 0.930 . S
C3613 C3612 1.377 . S
C3613 C3614 1.379 . S
C3614 H3598 0.931 . S
C3614 C3608 1.383 . S
C3614 C3613 1.379 . S
H3615 C3609 0.959 . S
H3616 C3609 0.961 . S
H3617 C3609 0.960 . S
H3618 C3610 0.930 . S
H3619 C3611 0.929 . S
H3620 C3628 0.929 . S
H3621 C3630 0.930 . S
H3622 C3632 0.930 . S
H3623 C3635 0.929 . S
H3624 C3638 0.930 . S
H3625 C3640 0.960 . S
H3626 C3640 0.960 . S
H3627 C3640 0.960 . S
C3628 H3620 0.929 . S
C3628 C3629 1.377 . S
C3628 C3630 1.384 . S
C3629 C3628 1.377 . S
C3629 C3635 1.390 . S
C3630 H3621 0.930 . S
C3630 C3628 1.384 . S
C3630 C3631 1.372 . S
C3631 C3630 1.372 . S
C3631 C3632 1.400 . S
C3631 C3636 1.490 . S
C3632 H3622 0.930 . S
C3632 C3631 1.400 . S
C3632 C3635 1.386 . S
H3633 C3649 0.930 . S
H3634 C3650 0.931 . S
C3635 H3623 0.929 . S
C3635 C3629 1.390 . S
C3635 C3632 1.386 . S
C3636 C3631 1.490 . S
C3636 C3638 1.395 . S
C3636 C3639 1.403 . S
H3637 C3643 0.930 . S
C3638 H3624 0.930 . S
C3638 C3636 1.395 . S
C3638 C3641 1.403 . S
C3639 C3636 1.403 . S
C3639 C3640 1.524 . S
C3639 C3643 1.400 . S
C3640 H3625 0.960 . S
C3640 H3626 0.960 . S
C3640 H3627 0.960 . S
C3640 C3639 1.524 . S
C3641 C3638 1.403 . S
C3641 C3642 1.392 . S
C3641 C3645 1.495 . S
C3642 C3641 1.392 . S
C3642 C3643 1.385 . S
C3642 C3644 1.478 . S
C3643 H3637 0.930 . S
C3643 C3639 1.400 . S
C3643 C3642 1.385 . S
C3644 C3642 1.478 . S
C3644 C3646 1.381 . S
C3644 C3650 1.383 . S
C3645 C3641 1.495 . S
C3645 H3651 0.959 . S
C3645 H3652 0.961 . S
C3645 H3653 0.960 . S
C3646 C3644 1.381 . S
C3646 C3647 1.394 1_455 S
C3646 H3654 0.930 . S
C3647 C3646 1.394 1_655 S
C3647 C3648 1.383 . S
C3647 H3655 0.929 . S
C3648 C3647 1.383 . S
C3648 C3649 1.377 . S
C3649 H3633 0.930 . S
C3649 C3648 1.377 . S
C3649 C3650 1.379 1_655 S
C3650 H3634 0.931 . S
C3650 C3644 1.383 . S
C3650 C3649 1.379 1_455 S
H3651 C3645 0.959 . S
H3652 C3645 0.961 . S
H3653 C3645 0.960 . S
H3654 C3646 0.930 . S
H3655 C3647 0.929 . S
H3656 C3664 0.929 . S
H3657 C3666 0.930 . S
H3658 C3668 0.930 . S
H3659 C3671 0.929 . S
H3660 C3674 0.930 . S
H3661 C3676 0.960 1_455 S
H3662 C3676 0.960 . S
H3663 C3676 0.960 . S
C3664 H3656 0.929 . S
C3664 C3665 1.377 . S
C3664 C3666 1.384 . S
C3665 C3664 1.377 . S
C3665 C3671 1.390 . S
C3666 H3657 0.930 . S
C3666 C3664 1.384 . S
C3666 C3667 1.372 . S
C3667 C3666 1.372 . S
C3667 C3668 1.400 . S
C3667 C3672 1.490 . S
C3668 H3658 0.930 . S
C3668 C3667 1.400 . S
C3668 C3671 1.386 . S
H3669 C3685 0.930 . S
H3670 C3686 0.931 . S
C3671 H3659 0.929 . S
C3671 C3665 1.390 . S
C3671 C3668 1.386 . S
C3672 C3667 1.490 . S
C3672 C3674 1.395 . S
C3672 C3675 1.403 1_655 S
H3673 C3679 0.930 . S
C3674 H3660 0.930 . S
C3674 C3672 1.395 . S
C3674 C3677 1.403 1_655 S
C3675 C3672 1.403 1_455 S
C3675 C3676 1.524 1_455 S
C3675 C3679 1.400 . S
C3676 H3661 0.960 1_655 S
C3676 H3662 0.960 . S
C3676 H3663 0.960 . S
C3676 C3675 1.524 1_655 S
C3677 C3674 1.403 1_455 S
C3677 C3678 1.392 . S
C3677 C3681 1.495 . S
C3678 C3677 1.392 . S
C3678 C3679 1.385 . S
C3678 C3680 1.478 . S
C3679 H3673 0.930 . S
C3679 C3675 1.400 . S
C3679 C3678 1.385 . S
C3680 C3678 1.478 . S
C3680 C3682 1.381 . S
C3680 C3686 1.383 . S
C3681 C3677 1.495 . S
C3681 H3687 0.959 . S
C3681 H3688 0.961 . S
C3681 H3689 0.960 . S
C3682 C3680 1.381 . S
C3682 C3683 1.394 . S
C3682 H3690 0.930 . S
C3683 C3682 1.394 . S
C3683 C3684 1.383 . S
C3683 H3691 0.929 . S
C3684 C3683 1.383 . S
C3684 C3685 1.377 . S
C3685 H3669 0.930 . S
C3685 C3684 1.377 . S
C3685 C3686 1.379 . S
C3686 H3670 0.931 . S
C3686 C3680 1.383 . S
C3686 C3685 1.379 . S
H3687 C3681 0.959 . S
H3688 C3681 0.961 . S
H3689 C3681 0.960 . S
H3690 C3682 0.930 . S
H3691 C3683 0.929 . S
H3692 C3700 0.929 . S
H3693 C3702 0.930 . S
H3694 C3704 0.930 . S
H3695 C3707 0.929 1_655 S
H3696 C3710 0.930 . S
H3697 C3712 0.960 . S
H3698 C3712 0.960 . S
H3699 C3712 0.960 . S
C3700 H3692 0.929 . S
C3700 C3701 1.377 . S
C3700 C3702 1.384 1_655 S
C3701 C3700 1.377 . S
C3701 C3707 1.389 1_655 S
C3702 H3693 0.930 . S
C3702 C3700 1.384 1_455 S
C3702 C3703 1.372 . S
C3703 C3702 1.372 . S
C3703 C3704 1.400 . S
C3703 C3708 1.490 . S
C3704 H3694 0.930 . S
C3704 C3703 1.400 . S
C3704 C3707 1.386 . S
H3705 C3721 0.930 . S
H3706 C3722 0.931 . S
C3707 H3695 0.929 1_455 S
C3707 C3701 1.389 1_455 S
C3707 C3704 1.386 . S
C3708 C3703 1.490 . S
C3708 C3710 1.395 . S
C3708 C3711 1.403 . S
H3709 C3715 0.930 . S
C3710 H3696 0.930 . S
C3710 C3708 1.395 . S
C3710 C3713 1.403 . S
C3711 C3708 1.403 . S
C3711 C3712 1.524 . S
C3711 C3715 1.400 . S
C3712 H3697 0.960 . S
C3712 H3698 0.960 . S
C3712 H3699 0.960 . S
C3712 C3711 1.524 . S
C3713 C3710 1.403 . S
C3713 C3714 1.392 . S
C3713 C3717 1.495 . S
C3714 C3713 1.392 . S
C3714 C3715 1.385 . S
C3714 C3716 1.478 . S
C3715 H3709 0.930 . S
C3715 C3711 1.400 . S
C3715 C3714 1.385 . S
C3716 C3714 1.478 . S
C3716 C3718 1.381 . S
C3716 C3722 1.383 . S
C3717 C3713 1.495 . S
C3717 H3723 0.959 . S
C3717 H3724 0.961 . S
C3717 H3725 0.960 . S
C3718 C3716 1.381 . S
C3718 C3719 1.394 . S
C3718 H3726 0.930 . S
C3719 C3718 1.394 . S
C3719 C3720 1.383 . S
C3719 H3727 0.929 . S
C3720 C3719 1.383 . S
C3720 C3721 1.377 . S
C3721 H3705 0.930 . S
C3721 C3720 1.377 . S
C3721 C3722 1.379 . S
C3722 H3706 0.931 . S
C3722 C3716 1.383 . S
C3722 C3721 1.379 . S
H3723 C3717 0.959 . S
H3724 C3717 0.961 . S
H3725 C3717 0.960 . S
H3726 C3718 0.930 . S
H3727 C3719 0.929 . S
H3728 C3736 0.929 . S
H3729 C3738 0.930 . S
H3730 C3740 0.930 . S
H3731 C3743 0.929 . S
H3732 C3746 0.930 . S
H3733 C3748 0.960 . S
H3734 C3748 0.960 . S
H3735 C3748 0.960 . S
C3736 H3728 0.929 . S
C3736 C3737 1.377 . S
C3736 C3738 1.384 . S
C3737 C3736 1.377 . S
C3737 C3743 1.390 . S
C3738 H3729 0.930 . S
C3738 C3736 1.384 . S
C3738 C3739 1.372 . S
C3739 C3738 1.372 . S
C3739 C3740 1.400 . S
C3739 C3744 1.490 . S
C3740 H3730 0.930 . S
C3740 C3739 1.400 . S
C3740 C3743 1.386 . S
H3741 C3757 0.930 . S
H3742 C3758 0.931 . S
C3743 H3731 0.929 . S
C3743 C3737 1.390 . S
C3743 C3740 1.386 . S
C3744 C3739 1.490 . S
C3744 C3746 1.395 . S
C3744 C3747 1.403 . S
H3745 C3751 0.930 . S
C3746 H3732 0.930 . S
C3746 C3744 1.395 . S
C3746 C3749 1.403 . S
C3747 C3744 1.403 . S
C3747 C3748 1.524 . S
C3747 C3751 1.400 1_655 S
C3748 H3733 0.960 . S
C3748 H3734 0.960 . S
C3748 H3735 0.960 . S
C3748 C3747 1.524 . S
C3749 C3746 1.403 . S
C3749 C3750 1.392 1_655 S
C3749 C3753 1.495 1_655 S
C3750 C3749 1.392 1_455 S
C3750 C3751 1.385 . S
C3750 C3752 1.478 . S
C3751 H3745 0.930 . S
C3751 C3747 1.400 1_455 S
C3751 C3750 1.385 . S
C3752 C3750 1.478 . S
C3752 C3754 1.381 . S
C3752 C3758 1.383 . S
C3753 C3749 1.495 1_455 S
C3753 H3759 0.959 1_455 S
C3753 H3760 0.961 . S
C3753 H3761 0.960 . S
C3754 C3752 1.381 . S
C3754 C3755 1.394 . S
C3754 H3762 0.930 . S
C3755 C3754 1.394 . S
C3755 C3756 1.383 . S
C3755 H3763 0.929 . S
C3756 C3755 1.383 . S
C3756 C3757 1.377 . S
C3757 H3741 0.930 . S
C3757 C3756 1.377 . S
C3757 C3758 1.379 . S
C3758 H3742 0.931 . S
C3758 C3752 1.383 . S
C3758 C3757 1.379 . S
H3759 C3753 0.959 1_655 S
H3760 C3753 0.961 . S
H3761 C3753 0.960 . S
H3762 C3754 0.930 . S
H3763 C3755 0.929 . S
H3764 C3772 0.929 . S
H3765 C3774 0.930 . S
H3766 C3776 0.930 . S
H3767 C3779 0.929 . S
H3768 C3782 0.930 . S
H3769 C3784 0.960 . S
H3770 C3784 0.960 . S
H3771 C3784 0.960 . S
C3772 H3764 0.929 . S
C3772 C3773 1.377 . S
C3772 C3774 1.384 1_455 S
C3773 C3772 1.377 . S
C3773 C3779 1.390 . S
C3774 H3765 0.930 . S
C3774 C3772 1.384 1_655 S
C3774 C3775 1.372 . S
C3775 C3774 1.372 . S
C3775 C3776 1.400 . S
C3775 C3780 1.490 . S
C3776 H3766 0.930 . S
C3776 C3775 1.400 . S
C3776 C3779 1.386 1_655 S
H3777 C3793 0.930 . S
H3778 C3794 0.931 . S
C3779 H3767 0.929 . S
C3779 C3773 1.390 . S
C3779 C3776 1.386 1_455 S
C3780 C3775 1.490 . S
C3780 C3782 1.395 . S
C3780 C3783 1.403 . S
H3781 C3787 0.930 . S
C3782 H3768 0.930 . S
C3782 C3780 1.395 . S
C3782 C3785 1.403 . S
C3783 C3780 1.403 . S
C3783 C3784 1.524 . S
C3783 C3787 1.400 . S
C3784 H3769 0.960 . S
C3784 H3770 0.960 . S
C3784 H3771 0.960 . S
C3784 C3783 1.524 . S
C3785 C3782 1.403 . S
C3785 C3786 1.392 . S
C3785 C3789 1.495 . S
C3786 C3785 1.392 . S
C3786 C3787 1.385 . S
C3786 C3788 1.478 . S
C3787 H3781 0.930 . S
C3787 C3783 1.400 . S
C3787 C3786 1.385 . S
C3788 C3786 1.478 . S
C3788 C3790 1.381 . S
C3788 C3794 1.383 . S
C3789 C3785 1.495 . S
C3789 H3795 0.959 . S
C3789 H3796 0.961 . S
C3789 H3797 0.960 . S
C3790 C3788 1.381 . S
C3790 C3791 1.394 . S
C3790 H3798 0.930 . S
C3791 C3790 1.394 . S
C3791 C3792 1.383 . S
C3791 H3799 0.929 . S
C3792 C3791 1.383 . S
C3792 C3793 1.377 . S
C3793 H3777 0.930 . S
C3793 C3792 1.377 . S
C3793 C3794 1.379 . S
C3794 H3778 0.931 . S
C3794 C3788 1.383 . S
C3794 C3793 1.379 . S
H3795 C3789 0.959 . S
H3796 C3789 0.961 . S
H3797 C3789 0.960 . S
H3798 C3790 0.930 . S
H3799 C3791 0.929 . S
H3800 C3808 0.929 . S
H3801 C3810 0.930 . S
H3802 C3812 0.930 . S
H3803 C3815 0.929 . S
H3804 C3818 0.930 . S
H3805 C3820 0.960 . S
H3806 C3820 0.960 . S
H3807 C3820 0.960 . S
C3808 H3800 0.929 . S
C3808 C3809 1.377 . S
C3808 C3810 1.384 . S
C3809 C3808 1.377 . S
C3809 C3815 1.390 . S
C3810 H3801 0.930 . S
C3810 C3808 1.384 . S
C3810 C3811 1.372 . S
C3811 C3810 1.372 . S
C3811 C3812 1.400 . S
C3811 C3816 1.490 . S
C3812 H3802 0.930 . S
C3812 C3811 1.400 . S
C3812 C3815 1.386 . S
H3813 C3829 0.930 . S
H3814 C3830 0.931 . S
C3815 H3803 0.929 . S
C3815 C3809 1.390 . S
C3815 C3812 1.386 . S
C3816 C3811 1.490 . S
C3816 C3818 1.395 . S
C3816 C3819 1.403 . S
H3817 C3823 0.930 . S
C3818 H3804 0.930 . S
C3818 C3816 1.395 . S
C3818 C3821 1.403 1_455 S
C3819 C3816 1.403 . S
C3819 C3820 1.524 . S
C3819 C3823 1.400 1_455 S
C3820 H3805 0.960 . S
C3820 H3806 0.960 . S
C3820 H3807 0.960 . S
C3820 C3819 1.524 . S
C3821 C3818 1.403 1_655 S
C3821 C3822 1.392 . S
C3821 C3825 1.495 . S
C3822 C3821 1.392 . S
C3822 C3823 1.385 . S
C3822 C3824 1.478 . S
C3823 H3817 0.930 . S
C3823 C3819 1.400 1_655 S
C3823 C3822 1.385 . S
C3824 C3822 1.478 . S
C3824 C3826 1.381 . S
C3824 C3830 1.383 . S
C3825 C3821 1.495 . S
C3825 H3831 0.959 . S
C3825 H3832 0.961 . S
C3825 H3833 0.960 . S
C3826 C3824 1.381 . S
C3826 C3827 1.394 . S
C3826 H3834 0.930 . S
C3827 C3826 1.394 . S
C3827 C3828 1.383 . S
C3827 H3835 0.929 . S
C3828 C3827 1.383 . S
C3828 C3829 1.377 . S
C3829 H3813 0.930 . S
C3829 C3828 1.377 . S
C3829 C3830 1.379 . S
C3830 H3814 0.931 . S
C3830 C3824 1.383 . S
C3830 C3829 1.379 . S
H3831 C3825 0.959 . S
H3832 C3825 0.961 . S
H3833 C3825 0.960 . S
H3834 C3826 0.930 . S
H3835 C3827 0.929 . S
H3836 C3844 0.929 . S
H3837 C3846 0.930 . S
H3838 C3848 0.930 . S
H3839 C3851 0.929 . S
H3840 C3854 0.930 . S
H3841 C3856 0.960 . S
H3842 C3856 0.960 . S
H3843 C3856 0.960 . S
C3844 H3836 0.929 . S
C3844 C3845 1.377 . S
C3844 C3846 1.384 1_455 S
C3845 C3844 1.377 . S
C3845 C3851 1.390 . S
C3846 H3837 0.930 . S
C3846 C3844 1.384 1_655 S
C3846 C3847 1.372 . S
C3847 C3846 1.372 . S
C3847 C3848 1.400 . S
C3847 C3852 1.490 . S
C3848 H3838 0.930 . S
C3848 C3847 1.400 . S
C3848 C3851 1.386 1_655 S
H3849 C3865 0.930 . S
H3850 C3866 0.931 . S
C3851 H3839 0.929 . S
C3851 C3845 1.390 . S
C3851 C3848 1.386 1_455 S
C3852 C3847 1.490 . S
C3852 C3854 1.395 . S
C3852 C3855 1.403 . S
H3853 C3859 0.930 . S
C3854 H3840 0.930 . S
C3854 C3852 1.395 . S
C3854 C3857 1.403 . S
C3855 C3852 1.403 . S
C3855 C3856 1.524 . S
C3855 C3859 1.400 . S
C3856 H3841 0.960 . S
C3856 H3842 0.960 . S
C3856 H3843 0.960 . S
C3856 C3855 1.524 . S
C3857 C3854 1.403 . S
C3857 C3858 1.392 . S
C3857 C3861 1.495 . S
C3858 C3857 1.392 . S
C3858 C3859 1.385 . S
C3858 C3860 1.478 . S
C3859 H3853 0.930 . S
C3859 C3855 1.400 . S
C3859 C3858 1.385 . S
C3860 C3858 1.478 . S
C3860 C3862 1.381 . S
C3860 C3866 1.383 . S
C3861 C3857 1.495 . S
C3861 H3867 0.959 . S
C3861 H3868 0.961 . S
C3861 H3869 0.960 . S
C3862 C3860 1.381 . S
C3862 C3863 1.394 . S
C3862 H3870 0.930 . S
C3863 C3862 1.394 . S
C3863 C3864 1.383 . S
C3863 H3871 0.929 . S
C3864 C3863 1.383 . S
C3864 C3865 1.377 . S
C3865 H3849 0.930 . S
C3865 C3864 1.377 . S
C3865 C3866 1.379 . S
C3866 H3850 0.931 . S
C3866 C3860 1.383 . S
C3866 C3865 1.379 . S
H3867 C3861 0.959 . S
H3868 C3861 0.961 . S
H3869 C3861 0.960 . S
H3870 C3862 0.930 . S
H3871 C3863 0.929 . S
H3872 C3880 0.929 . S
H3873 C3882 0.930 . S
H3874 C3884 0.930 . S
H3875 C3887 0.929 . S
H3876 C3890 0.930 . S
H3877 C3892 0.960 1_455 S
H3878 C3892 0.960 . S
H3879 C3892 0.960 . S
C3880 H3872 0.929 . S
C3880 C3881 1.377 1_565 S
C3880 C3882 1.384 . S
C3881 C3880 1.377 1_545 S
C3881 C3887 1.390 . S
C3882 H3873 0.930 . S
C3882 C3880 1.384 . S
C3882 C3883 1.372 1_565 S
C3883 C3882 1.372 1_545 S
C3883 C3884 1.400 . S
C3883 C3888 1.493 . S
C3884 H3874 0.930 . S
C3884 C3883 1.400 . S
C3884 C3887 1.386 . S
H3885 C3901 0.930 . S
H3886 C3902 0.931 . S
C3887 H3875 0.929 . S
C3887 C3881 1.390 . S
C3887 C3884 1.386 . S
C3888 C3883 1.493 . S
C3888 C3890 1.375 1_545 S
C3888 C3891 1.419 1_655 S
H3889 C3895 0.930 . S
C3890 H3876 0.930 . S
C3890 C3888 1.375 1_565 S
C3890 C3893 1.403 1_655 S
C3891 C3888 1.419 1_455 S
C3891 C3892 1.524 1_455 S
C3891 C3895 1.400 . S
C3892 H3877 0.960 1_655 S
C3892 H3878 0.960 . S
C3892 H3879 0.960 . S
C3892 C3891 1.524 1_655 S
C3893 C3890 1.403 1_455 S
C3893 C3894 1.392 . S
C3893 C3897 1.495 . S
C3894 C3893 1.392 . S
C3894 C3895 1.385 1_565 S
C3894 C3896 1.478 . S
C3895 H3889 0.930 . S
C3895 C3891 1.400 . S
C3895 C3894 1.385 1_545 S
C3896 C3894 1.478 . S
C3896 C3898 1.381 . S
C3896 C3902 1.383 1_565 S
C3897 C3893 1.495 . S
C3897 H3903 0.959 . S
C3897 H3904 0.961 . S
C3897 H3905 0.960 . S
C3898 C3896 1.381 . S
C3898 C3899 1.394 . S
C3898 H3906 0.930 . S
C3899 C3898 1.394 . S
C3899 C3900 1.383 . S
C3899 H3907 0.929 . S
C3900 C3899 1.383 . S
C3900 C3901 1.377 1_565 S
C3901 H3885 0.930 . S
C3901 C3900 1.377 1_545 S
C3901 C3902 1.379 . S
C3902 H3886 0.931 . S
C3902 C3896 1.383 1_545 S
C3902 C3901 1.379 . S
H3903 C3897 0.959 . S
H3904 C3897 0.961 . S
H3905 C3897 0.960 . S
H3906 C3898 0.930 . S
H3907 C3899 0.929 . S
H3908 C3916 0.930 . S
H3909 C3918 0.930 . S
H3910 C3920 0.930 . S
H3911 C3923 0.929 . S
H3912 C3926 0.930 . S
H3913 C3928 0.960 . S
H3914 C3928 0.960 . S
H3915 C3928 0.960 . S
C3916 H3908 0.930 . S
C3916 C3917 1.378 . S
C3916 C3918 1.382 1_655 S
C3917 C3916 1.378 . S
C3917 C3923 1.390 . S
C3918 H3909 0.930 . S
C3918 C3916 1.382 1_455 S
C3918 C3919 1.372 . S
C3919 C3918 1.372 . S
C3919 C3920 1.400 . S
C3919 C3924 1.490 . S
C3920 H3910 0.930 . S
C3920 C3919 1.400 . S
C3920 C3923 1.386 1_455 S
H3921 C3937 0.930 . S
H3922 C3938 0.931 . S
C3923 H3911 0.929 . S
C3923 C3917 1.390 . S
C3923 C3920 1.386 1_655 S
C3924 C3919 1.490 . S
C3924 C3926 1.395 . S
C3924 C3927 1.403 . S
H3925 C3931 0.930 . S
C3926 H3912 0.930 . S
C3926 C3924 1.395 . S
C3926 C3929 1.403 . S
C3927 C3924 1.403 . S
C3927 C3928 1.524 . S
C3927 C3931 1.400 . S
C3928 H3913 0.960 . S
C3928 H3914 0.960 . S
C3928 H3915 0.960 . S
C3928 C3927 1.524 . S
C3929 C3926 1.403 . S
C3929 C3930 1.392 . S
C3929 C3933 1.495 . S
C3930 C3929 1.392 . S
C3930 C3931 1.385 . S
C3930 C3932 1.478 . S
C3931 H3925 0.930 . S
C3931 C3927 1.400 . S
C3931 C3930 1.385 . S
C3932 C3930 1.478 . S
C3932 C3934 1.381 . S
C3932 C3938 1.383 . S
C3933 C3929 1.495 . S
C3933 H3939 0.959 . S
C3933 H3940 0.961 . S
C3933 H3941 0.960 . S
C3934 C3932 1.381 . S
C3934 C3935 1.394 . S
C3934 H3942 0.930 . S
C3935 C3934 1.394 . S
C3935 C3936 1.383 . S
C3935 H3943 0.929 . S
C3936 C3935 1.383 . S
C3936 C3937 1.377 . S
C3937 H3921 0.930 . S
C3937 C3936 1.377 . S
C3937 C3938 1.379 . S
C3938 H3922 0.931 . S
C3938 C3932 1.383 . S
C3938 C3937 1.379 . S
H3939 C3933 0.959 . S
H3940 C3933 0.961 . S
H3941 C3933 0.960 . S
H3942 C3934 0.930 . S
H3943 C3935 0.929 . S
H3944 C3952 0.929 . S
H3945 C3954 0.930 . S
H3946 C3956 0.930 . S
H3947 C3959 0.929 . S
H3948 C3962 0.930 . S
H3949 C3964 0.960 . S
H3950 C3964 0.960 . S
H3951 C3964 0.960 . S
C3952 H3944 0.929 . S
C3952 C3953 1.377 . S
C3952 C3954 1.384 . S
C3953 C3952 1.377 . S
C3953 C3959 1.390 . S
C3954 H3945 0.930 . S
C3954 C3952 1.384 . S
C3954 C3955 1.372 . S
C3955 C3954 1.372 . S
C3955 C3956 1.400 . S
C3955 C3960 1.490 . S
C3956 H3946 0.930 . S
C3956 C3955 1.400 . S
C3956 C3959 1.386 . S
H3957 C3973 0.930 . S
H3958 C3974 0.931 . S
C3959 H3947 0.929 . S
C3959 C3953 1.390 . S
C3959 C3956 1.386 . S
C3960 C3955 1.490 . S
C3960 C3962 1.395 . S
C3960 C3963 1.403 . S
H3961 C3967 0.930 . S
C3962 H3948 0.930 . S
C3962 C3960 1.395 . S
C3962 C3965 1.403 1_655 S
C3963 C3960 1.403 . S
C3963 C3964 1.524 . S
C3963 C3967 1.400 1_655 S
C3964 H3949 0.960 . S
C3964 H3950 0.960 . S
C3964 H3951 0.960 . S
C3964 C3963 1.524 . S
C3965 C3962 1.403 1_455 S
C3965 C3966 1.392 . S
C3965 C3969 1.495 . S
C3966 C3965 1.392 . S
C3966 C3967 1.385 . S
C3966 C3968 1.478 . S
C3967 H3961 0.930 . S
C3967 C3963 1.400 1_455 S
C3967 C3966 1.385 . S
C3968 C3966 1.478 . S
C3968 C3970 1.381 . S
C3968 C3974 1.383 . S
C3969 C3965 1.495 . S
C3969 H3975 0.959 . S
C3969 H3976 0.961 . S
C3969 H3977 0.960 . S
C3970 C3968 1.381 . S
C3970 C3971 1.394 . S
C3970 H3978 0.930 . S
C3971 C3970 1.394 . S
C3971 C3972 1.383 . S
C3971 H3979 0.929 . S
C3972 C3971 1.383 . S
C3972 C3973 1.377 . S
C3973 H3957 0.930 . S
C3973 C3972 1.377 . S
C3973 C3974 1.379 . S
C3974 H3958 0.931 . S
C3974 C3968 1.383 . S
C3974 C3973 1.379 . S
H3975 C3969 0.959 . S
H3976 C3969 0.961 . S
H3977 C3969 0.960 . S
H3978 C3970 0.930 . S
H3979 C3971 0.929 . S
H3980 C3988 0.929 . S
H3981 C3990 0.930 . S
H3982 C3992 0.930 . S
H3983 C3995 0.929 . S
H3984 C3998 0.930 . S
H3985 C4000 0.960 . S
H3986 C4000 0.960 . S
H3987 C4000 0.960 . S
C3988 H3980 0.929 . S
C3988 C3989 1.377 1_565 S
C3988 C3990 1.384 . S
C3989 C3988 1.377 1_545 S
C3989 C3995 1.390 . S
C3990 H3981 0.930 . S
C3990 C3988 1.384 . S
C3990 C3991 1.372 1_565 S
C3991 C3990 1.372 1_545 S
C3991 C3992 1.400 . S
C3991 C3996 1.500 . S
C3992 H3982 0.930 . S
C3992 C3991 1.400 . S
C3992 C3995 1.386 . S
H3993 C4009 0.930 . S
H3994 C4010 0.931 . S
C3995 H3983 0.929 . S
C3995 C3989 1.390 . S
C3995 C3992 1.386 . S
C3996 C3991 1.500 . S
C3996 C3998 1.416 . S
C3996 C3999 1.377 1_545 S
H3997 C4003 0.930 . S
C3998 H3984 0.930 . S
C3998 C3996 1.416 . S
C3998 C4001 1.403 . S
C3999 C3996 1.377 1_565 S
C3999 C4000 1.524 . S
C3999 C4003 1.400 . S
C4000 H3985 0.960 . S
C4000 H3986 0.960 . S
C4000 H3987 0.960 . S
C4000 C3999 1.524 . S
C4001 C3998 1.403 . S
C4001 C4002 1.363 1_545 S
C4001 C4005 1.495 . S
C4002 C4001 1.363 1_565 S
C4002 C4003 1.413 . S
C4002 C4004 1.489 . S
C4003 H3997 0.930 . S
C4003 C3999 1.400 . S
C4003 C4002 1.413 . S
C4004 C4002 1.489 . S
C4004 C4006 1.381 . S
C4004 C4010 1.383 1_565 S
C4005 C4001 1.495 . S
C4005 H4011 0.959 . S
C4005 H4012 0.961 . S
C4005 H4013 0.952 . S
C4006 C4004 1.381 . S
C4006 C4007 1.394 1_455 S
C4006 H4014 0.930 . S
C4007 C4006 1.394 1_655 S
C4007 C4008 1.383 . S
C4007 H4015 0.929 . S
C4008 C4007 1.383 . S
C4008 C4009 1.377 1_565 S
C4009 H3993 0.930 . S
C4009 C4008 1.377 1_545 S
C4009 C4010 1.379 1_655 S
C4010 H3994 0.931 . S
C4010 C4004 1.383 1_545 S
C4010 C4009 1.379 1_455 S
H4011 C4005 0.959 . S
H4012 C4005 0.961 . S
H4013 C4005 0.952 . S
H4014 C4006 0.930 . S
H4015 C4007 0.929 . S
H4016 C4024 0.929 . S
H4017 C4026 0.930 . S
H4018 C4028 0.930 . S
H4019 C4031 0.929 . S
H4020 C4034 0.930 . S
H4021 C4036 0.960 . S
H4022 C4036 0.960 . S
H4023 C4036 0.960 . S
C4024 H4016 0.929 . S
C4024 C4025 1.377 . S
C4024 C4026 1.384 . S
C4025 C4024 1.377 . S
C4025 C4031 1.390 1_545 S
C4026 H4017 0.930 . S
C4026 C4024 1.384 . S
C4026 C4027 1.372 . S
C4027 C4026 1.372 . S
C4027 C4028 1.400 1_545 S
C4027 C4032 1.490 . S
C4028 H4018 0.930 . S
C4028 C4027 1.400 1_565 S
C4028 C4031 1.386 . S
H4029 C4045 0.930 . S
H4030 C4046 0.931 . S
C4031 H4019 0.929 . S
C4031 C4025 1.390 1_565 S
C4031 C4028 1.386 . S
C4032 C4027 1.490 . S
C4032 C4034 1.395 . S
C4032 C4035 1.403 1_545 S
H4033 C4039 0.930 . S
C4034 H4020 0.930 . S
C4034 C4032 1.395 . S
C4034 C4037 1.403 1_655 S
C4035 C4032 1.403 1_565 S
C4035 C4036 1.524 . S
C4035 C4039 1.400 1_655 S
C4036 H4021 0.960 . S
C4036 H4022 0.960 . S
C4036 H4023 0.960 . S
C4036 C4035 1.524 . S
C4037 C4034 1.403 1_455 S
C4037 C4038 1.392 . S
C4037 C4041 1.495 . S
C4038 C4037 1.392 . S
C4038 C4039 1.385 1_545 S
C4038 C4040 1.476 1_545 S
C4039 H4033 0.930 . S
C4039 C4035 1.400 1_455 S
C4039 C4038 1.385 1_565 S
C4040 C4038 1.476 1_565 S
C4040 C4042 1.372 1_565 S
C4040 C4046 1.395 . S
C4041 C4037 1.495 . S
C4041 H4047 0.959 . S
C4041 H4048 0.961 . S
C4041 H4049 0.960 . S
C4042 C4040 1.372 1_545 S
C4042 C4043 1.394 . S
C4042 H4050 0.930 . S
C4043 C4042 1.394 . S
C4043 C4044 1.383 1_545 S
C4043 H4051 0.929 . S
C4044 C4043 1.383 1_565 S
C4044 C4045 1.377 . S
C4045 H4029 0.930 . S
C4045 C4044 1.377 . S
C4045 C4046 1.379 . S
C4046 H4030 0.931 . S
C4046 C4040 1.395 . S
C4046 C4045 1.379 . S
H4047 C4041 0.959 . S
H4048 C4041 0.961 . S
H4049 C4041 0.960 . S
H4050 C4042 0.930 . S
H4051 C4043 0.929 . S
H4052 C4060 0.929 . S
H4053 C4062 0.930 . S
H4054 C4064 0.930 . S
H4055 C4067 0.933 . S
H4056 C4070 0.930 . S
H4057 C4072 0.960 . S
H4058 C4072 0.960 . S
H4059 C4072 0.960 . S
C4060 H4052 0.929 . S
C4060 C4061 1.377 . S
C4060 C4062 1.384 1_455 S
C4061 C4060 1.377 . S
C4061 C4067 1.395 . S
C4062 H4053 0.930 . S
C4062 C4060 1.384 1_655 S
C4062 C4063 1.372 . S
C4063 C4062 1.372 . S
C4063 C4064 1.400 . S
C4063 C4068 1.490 . S
C4064 H4054 0.930 . S
C4064 C4063 1.400 . S
C4064 C4067 1.377 1_655 S
H4065 C4081 0.930 . S
H4066 C4082 0.931 . S
C4067 H4055 0.933 . S
C4067 C4061 1.395 . S
C4067 C4064 1.377 1_455 S
C4068 C4063 1.490 . S
C4068 C4070 1.395 . S
C4068 C4071 1.403 . S
H4069 C4075 0.930 . S
C4070 H4056 0.930 . S
C4070 C4068 1.395 . S
C4070 C4073 1.403 . S
C4071 C4068 1.403 . S
C4071 C4072 1.524 . S
C4071 C4075 1.400 . S
C4072 H4057 0.960 . S
C4072 H4058 0.960 . S
C4072 H4059 0.960 . S
C4072 C4071 1.524 . S
C4073 C4070 1.403 . S
C4073 C4074 1.392 . S
C4073 C4077 1.495 . S
C4074 C4073 1.392 . S
C4074 C4075 1.385 . S
C4074 C4076 1.478 . S
C4075 H4069 0.930 . S
C4075 C4071 1.400 . S
C4075 C4074 1.385 . S
C4076 C4074 1.478 . S
C4076 C4078 1.381 . S
C4076 C4082 1.383 . S
C4077 C4073 1.495 . S
C4077 H4083 0.959 . S
C4077 H4084 0.961 . S
C4077 H4085 0.960 . S
C4078 C4076 1.381 . S
C4078 C4079 1.394 . S
C4078 H4086 0.930 . S
C4079 C4078 1.394 . S
C4079 C4080 1.383 . S
C4079 H4087 0.929 . S
C4080 C4079 1.383 . S
C4080 C4081 1.377 . S
C4081 H4065 0.930 . S
C4081 C4080 1.377 . S
C4081 C4082 1.379 . S
C4082 H4066 0.931 . S
C4082 C4076 1.383 . S
C4082 C4081 1.379 . S
H4083 C4077 0.959 . S
H4084 C4077 0.961 . S
H4085 C4077 0.960 . S
H4086 C4078 0.930 . S
H4087 C4079 0.929 . S
H4088 C4096 0.929 . S
H4089 C4098 0.930 . S
H4090 C4100 0.930 . S
H4091 C4103 0.929 . S
H4092 C4106 0.930 . S
H4093 C4108 0.960 1_655 S
H4094 C4108 0.960 . S
H4095 C4108 0.960 . S
C4096 H4088 0.929 . S
C4096 C4097 1.377 . S
C4096 C4098 1.384 . S
C4097 C4096 1.377 . S
C4097 C4103 1.390 . S
C4098 H4089 0.930 . S
C4098 C4096 1.384 . S
C4098 C4099 1.372 . S
C4099 C4098 1.372 . S
C4099 C4100 1.400 . S
C4099 C4104 1.490 . S
C4100 H4090 0.930 . S
C4100 C4099 1.400 . S
C4100 C4103 1.386 . S
H4101 C4117 0.930 . S
H4102 C4118 0.931 . S
C4103 H4091 0.929 . S
C4103 C4097 1.390 . S
C4103 C4100 1.386 . S
C4104 C4099 1.490 . S
C4104 C4106 1.395 . S
C4104 C4107 1.403 1_455 S
H4105 C4111 0.930 . S
C4106 H4092 0.930 . S
C4106 C4104 1.395 . S
C4106 C4109 1.403 1_455 S
C4107 C4104 1.403 1_655 S
C4107 C4108 1.524 1_655 S
C4107 C4111 1.400 . S
C4108 H4093 0.960 1_455 S
C4108 H4094 0.960 . S
C4108 H4095 0.960 . S
C4108 C4107 1.524 1_455 S
C4109 C4106 1.403 1_655 S
C4109 C4110 1.392 . S
C4109 C4113 1.495 . S
C4110 C4109 1.392 . S
C4110 C4111 1.385 . S
C4110 C4112 1.478 . S
C4111 H4105 0.930 . S
C4111 C4107 1.400 . S
C4111 C4110 1.385 . S
C4112 C4110 1.478 . S
C4112 C4114 1.381 . S
C4112 C4118 1.383 . S
C4113 C4109 1.495 . S
C4113 H4119 0.959 . S
C4113 H4120 0.961 . S
C4113 H4121 0.960 . S
C4114 C4112 1.381 . S
C4114 C4115 1.394 . S
C4114 H4122 0.930 . S
C4115 C4114 1.394 . S
C4115 C4116 1.383 . S
C4115 H4123 0.929 . S
C4116 C4115 1.383 . S
C4116 C4117 1.377 . S
C4117 H4101 0.930 . S
C4117 C4116 1.377 . S
C4117 C4118 1.379 . S
C4118 H4102 0.931 . S
C4118 C4112 1.383 . S
C4118 C4117 1.379 . S
H4119 C4113 0.959 . S
H4120 C4113 0.961 . S
H4121 C4113 0.960 . S
H4122 C4114 0.930 . S
H4123 C4115 0.929 . S
H4124 C4132 0.929 . S
H4125 C4134 0.930 . S
H4126 C4136 0.930 . S
H4127 C4139 0.960 . S
H4128 C4142 0.930 . S
H4129 C4144 0.960 . S
H4130 C4144 0.960 . S
H4131 C4144 0.960 . S
C4132 H4124 0.929 . S
C4132 C4133 1.377 . S
C4132 C4134 1.384 . S
C4133 C4132 1.377 . S
C4133 C4139 1.356 1_565 S
C4134 H4125 0.930 . S
C4134 C4132 1.384 . S
C4134 C4135 1.372 . S
C4135 C4134 1.372 . S
C4135 C4136 1.400 1_565 S
C4135 C4140 1.490 . S
C4136 H4126 0.930 . S
C4136 C4135 1.400 1_545 S
C4136 C4139 1.395 . S
H4137 C4153 0.930 . S
H4138 C4154 0.931 . S
C4139 H4127 0.960 . S
C4139 C4133 1.356 1_545 S
C4139 C4136 1.395 . S
C4140 C4135 1.490 . S
C4140 C4142 1.395 . S
C4140 C4143 1.403 1_565 S
H4141 C4147 0.930 . S
C4142 H4128 0.930 . S
C4142 C4140 1.395 . S
C4142 C4145 1.403 . S
C4143 C4140 1.403 1_545 S
C4143 C4144 1.524 . S
C4143 C4147 1.400 . S
C4144 H4129 0.960 . S
C4144 H4130 0.960 . S
C4144 H4131 0.960 . S
C4144 C4143 1.524 . S
C4145 C4142 1.403 . S
C4145 C4146 1.475 . S
C4145 C4149 1.495 . S
C4146 C4145 1.475 . S
C4146 C4147 1.309 1_565 S
C4146 C4148 1.470 1_565 S
C4147 H4141 0.930 . S
C4147 C4143 1.400 . S
C4147 C4146 1.309 1_545 S
C4148 C4146 1.470 1_545 S
C4148 C4150 1.373 1_545 S
C4148 C4154 1.398 . S
C4149 C4145 1.495 . S
C4149 H4155 0.959 . S
C4149 H4156 0.961 . S
C4149 H4157 0.960 . S
C4150 C4148 1.373 1_565 S
C4150 C4151 1.405 1_655 S
C4150 H4158 0.930 . S
C4151 C4150 1.405 1_455 S
C4151 C4152 1.361 1_565 S
C4151 H4159 0.944 . S
C4152 C4151 1.361 1_545 S
C4152 C4153 1.377 . S
C4153 H4137 0.930 . S
C4153 C4152 1.377 . S
C4153 C4154 1.379 1_455 S
C4154 H4138 0.931 . S
C4154 C4148 1.398 . S
C4154 C4153 1.379 1_655 S
H4155 C4149 0.959 . S
H4156 C4149 0.961 . S
H4157 C4149 0.960 . S
H4158 C4150 0.930 . S
H4159 C4151 0.944 . S
H4160 C4168 0.929 . S
H4161 C4170 0.930 . S
H4162 C4172 0.930 . S
H4163 C4175 0.929 . S
H4164 C4178 0.930 . S
H4165 C4180 0.960 . S
H4166 C4180 0.960 . S
H4167 C4180 0.960 1_455 S
C4168 H4160 0.929 . S
C4168 C4169 1.377 1_655 S
C4168 C4170 1.384 . S
C4169 C4168 1.377 1_455 S
C4169 C4175 1.390 . S
C4170 H4161 0.930 . S
C4170 C4168 1.384 . S
C4170 C4171 1.363 1_655 S
C4171 C4170 1.363 1_455 S
C4171 C4172 1.409 . S
C4171 C4176 1.490 1_455 S
C4172 H4162 0.930 . S
C4172 C4171 1.409 . S
C4172 C4175 1.386 . S
H4173 C4189 0.930 . S
H4174 C4190 0.931 . S
C4175 H4163 0.929 . S
C4175 C4169 1.390 . S
C4175 C4172 1.386 . S
C4176 C4171 1.490 1_655 S
C4176 C4178 1.395 . S
C4176 C4179 1.403 . S
H4177 C4183 0.930 . S
C4178 H4164 0.930 . S
C4178 C4176 1.395 . S
C4178 C4181 1.403 1_554 S
C4179 C4176 1.403 . S
C4179 C4180 1.524 . S
C4179 C4183 1.400 1_554 S
C4180 H4165 0.960 . S
C4180 H4166 0.960 . S
C4180 H4167 0.960 1_655 S
C4180 C4179 1.524 . S
C4181 C4178 1.403 1_556 S
C4181 C4182 1.392 . S
C4181 C4185 1.495 . S
C4182 C4181 1.392 . S
C4182 C4183 1.385 . S
C4182 C4184 1.478 . S
C4183 H4177 0.930 . S
C4183 C4179 1.400 1_556 S
C4183 C4182 1.385 . S
C4184 C4182 1.478 . S
C4184 C4186 1.381 . S
C4184 C4190 1.383 1_655 S
C4185 C4181 1.495 . S
C4185 H4191 0.959 . S
C4185 H4192 0.961 1_655 S
C4185 H4193 0.960 . S
C4186 C4184 1.381 . S
C4186 C4187 1.394 . S
C4186 H4194 0.930 . S
C4187 C4186 1.394 . S
C4187 C4188 1.383 . S
C4187 H4195 0.929 . S
C4188 C4187 1.383 . S
C4188 C4189 1.377 1_655 S
C4189 H4173 0.930 . S
C4189 C4188 1.377 1_455 S
C4189 C4190 1.379 . S
C4190 H4174 0.931 . S
C4190 C4184 1.383 1_455 S
C4190 C4189 1.379 . S
H4191 C4185 0.959 . S
H4192 C4185 0.961 1_455 S
H4193 C4185 0.960 . S
H4194 C4186 0.930 . S
H4195 C4187 0.929 . S
H4196 C4204 0.929 . S
H4197 C4206 0.930 . S
H4198 C4208 0.930 . S
H4199 C4211 0.929 . S
H4200 C4214 0.930 . S
H4201 C4216 0.960 . S
H4202 C4216 0.960 . S
H4203 C4216 0.960 . S
C4204 H4196 0.929 . S
C4204 C4205 1.377 . S
C4204 C4206 1.384 . S
C4205 C4204 1.377 . S
C4205 C4211 1.390 . S
C4206 H4197 0.930 . S
C4206 C4204 1.384 . S
C4206 C4207 1.372 . S
C4207 C4206 1.372 . S
C4207 C4208 1.400 . S
C4207 C4212 1.490 . S
C4208 H4198 0.930 . S
C4208 C4207 1.400 . S
C4208 C4211 1.386 . S
H4209 C4225 0.930 . S
H4210 C4226 0.931 . S
C4211 H4199 0.929 . S
C4211 C4205 1.390 . S
C4211 C4208 1.386 . S
C4212 C4207 1.490 . S
C4212 C4214 1.395 . S
C4212 C4215 1.403 . S
H4213 C4219 0.930 . S
C4214 H4200 0.930 . S
C4214 C4212 1.395 . S
C4214 C4217 1.403 1_556 S
C4215 C4212 1.403 . S
C4215 C4216 1.524 . S
C4215 C4219 1.400 1_556 S
C4216 H4201 0.960 . S
C4216 H4202 0.960 . S
C4216 H4203 0.960 . S
C4216 C4215 1.524 . S
C4217 C4214 1.403 1_554 S
C4217 C4218 1.392 . S
C4217 C4221 1.495 . S
C4218 C4217 1.392 . S
C4218 C4219 1.385 . S
C4218 C4220 1.478 . S
C4219 H4213 0.930 . S
C4219 C4215 1.400 1_554 S
C4219 C4218 1.385 . S
C4220 C4218 1.478 . S
C4220 C4222 1.381 . S
C4220 C4226 1.383 . S
C4221 C4217 1.495 . S
C4221 H4227 0.959 . S
C4221 H4228 0.961 . S
C4221 H4229 0.960 . S
C4222 C4220 1.381 . S
C4222 C4223 1.394 . S
C4222 H4230 0.930 . S
C4223 C4222 1.394 . S
C4223 C4224 1.383 . S
C4223 H4231 0.929 . S
C4224 C4223 1.383 . S
C4224 C4225 1.377 . S
C4225 H4209 0.930 . S
C4225 C4224 1.377 . S
C4225 C4226 1.379 . S
C4226 H4210 0.931 . S
C4226 C4220 1.383 . S
C4226 C4225 1.379 . S
H4227 C4221 0.959 . S
H4228 C4221 0.961 . S
H4229 C4221 0.960 . S
H4230 C4222 0.930 . S
H4231 C4223 0.929 . S
H4232 C4240 0.929 . S
H4233 C4242 0.930 . S
H4234 C4244 0.930 . S
H4235 C4247 0.929 . S
H4236 C4250 0.930 . S
H4237 C4252 0.960 . S
H4238 C4252 0.960 . S
H4239 C4252 0.960 . S
C4240 H4232 0.929 . S
C4240 C4241 1.377 1_455 S
C4240 C4242 1.384 . S
C4241 C4240 1.377 1_655 S
C4241 C4247 1.390 . S
C4242 H4233 0.930 . S
C4242 C4240 1.384 . S
C4242 C4243 1.372 1_455 S
C4243 C4242 1.372 1_655 S
C4243 C4244 1.400 . S
C4243 C4248 1.490 1_655 S
C4244 H4234 0.930 . S
C4244 C4243 1.400 . S
C4244 C4247 1.386 . S
H4245 C4261 0.930 . S
H4246 C4262 0.931 . S
C4247 H4235 0.929 . S
C4247 C4241 1.390 . S
C4247 C4244 1.386 . S
C4248 C4243 1.490 1_455 S
C4248 C4250 1.395 . S
C4248 C4251 1.403 1_455 S
H4249 C4255 0.930 . S
C4250 H4236 0.930 . S
C4250 C4248 1.395 . S
C4250 C4253 1.403 . S
C4251 C4248 1.403 1_655 S
C4251 C4252 1.524 . S
C4251 C4255 1.400 . S
C4252 H4237 0.960 . S
C4252 H4238 0.960 . S
C4252 H4239 0.960 . S
C4252 C4251 1.524 . S
C4253 C4250 1.403 . S
C4253 C4254 1.392 . S
C4253 C4257 1.495 . S
C4254 C4253 1.392 . S
C4254 C4255 1.385 1_455 S
C4254 C4256 1.478 . S
C4255 H4249 0.930 . S
C4255 C4251 1.400 . S
C4255 C4254 1.385 1_655 S
C4256 C4254 1.478 . S
C4256 C4258 1.381 . S
C4256 C4262 1.383 1_455 S
C4257 C4253 1.495 . S
C4257 H4263 0.959 . S
C4257 H4264 0.961 . S
C4257 H4265 0.960 . S
C4258 C4256 1.381 . S
C4258 C4259 1.394 . S
C4258 H4266 0.930 . S
C4259 C4258 1.394 . S
C4259 C4260 1.383 . S
C4259 H4267 0.929 . S
C4260 C4259 1.383 . S
C4260 C4261 1.377 1_455 S
C4261 H4245 0.930 . S
C4261 C4260 1.377 1_655 S
C4261 C4262 1.379 . S
C4262 H4246 0.931 . S
C4262 C4256 1.383 1_655 S
C4262 C4261 1.379 . S
H4263 C4257 0.959 . S
H4264 C4257 0.961 . S
H4265 C4257 0.960 . S
H4266 C4258 0.930 . S
H4267 C4259 0.929 . S
H4268 C4276 0.929 . S
H4269 C4278 0.930 . S
H4270 C4280 0.930 . S
H4271 C4283 0.929 . S
H4272 C4286 0.930 . S
H4273 C4288 0.960 . S
H4274 C4288 0.960 . S
H4275 C4288 0.960 . S
C4276 H4268 0.929 . S
C4276 C4277 1.377 . S
C4276 C4278 1.384 . S
C4277 C4276 1.377 . S
C4277 C4283 1.390 . S
C4278 H4269 0.930 . S
C4278 C4276 1.384 . S
C4278 C4279 1.372 . S
C4279 C4278 1.372 . S
C4279 C4280 1.400 . S
C4279 C4284 1.490 . S
C4280 H4270 0.930 . S
C4280 C4279 1.400 . S
C4280 C4283 1.386 . S
H4281 C4297 0.930 . S
H4282 C4298 0.931 . S
C4283 H4271 0.929 . S
C4283 C4277 1.390 . S
C4283 C4280 1.386 . S
C4284 C4279 1.490 . S
C4284 C4286 1.395 . S
C4284 C4287 1.403 . S
H4285 C4291 0.930 . S
C4286 H4272 0.930 . S
C4286 C4284 1.395 . S
C4286 C4289 1.403 . S
C4287 C4284 1.403 . S
C4287 C4288 1.524 . S
C4287 C4291 1.400 . S
C4288 H4273 0.960 . S
C4288 H4274 0.960 . S
C4288 H4275 0.960 . S
C4288 C4287 1.524 . S
C4289 C4286 1.403 . S
C4289 C4290 1.392 . S
C4289 C4293 1.495 . S
C4290 C4289 1.392 . S
C4290 C4291 1.385 . S
C4290 C4292 1.478 . S
C4291 H4285 0.930 . S
C4291 C4287 1.400 . S
C4291 C4290 1.385 . S
C4292 C4290 1.478 . S
C4292 C4294 1.381 . S
C4292 C4298 1.383 . S
C4293 C4289 1.495 . S
C4293 H4299 0.959 . S
C4293 H4300 0.961 . S
C4293 H4301 0.960 . S
C4294 C4292 1.381 . S
C4294 C4295 1.394 . S
C4294 H4302 0.930 . S
C4295 C4294 1.394 . S
C4295 C4296 1.383 . S
C4295 H4303 0.929 . S
C4296 C4295 1.383 . S
C4296 C4297 1.377 . S
C4297 H4281 0.930 . S
C4297 C4296 1.377 . S
C4297 C4298 1.379 . S
C4298 H4282 0.931 . S
C4298 C4292 1.383 . S
C4298 C4297 1.379 . S
H4299 C4293 0.959 . S
H4300 C4293 0.961 . S
H4301 C4293 0.960 . S
H4302 C4294 0.930 . S
H4303 C4295 0.929 . S
H4304 C4312 0.929 . S
H4305 C4314 0.930 . S
H4306 C4316 0.930 . S
H4307 C4319 0.929 . S
H4308 C4322 0.930 . S
H4309 C4324 0.960 . S
H4310 C4324 0.960 . S
H4311 C4324 0.960 . S
C4312 H4304 0.929 . S
C4312 C4313 1.377 . S
C4312 C4314 1.384 . S
C4313 C4312 1.377 . S
C4313 C4319 1.390 . S
C4314 H4305 0.930 . S
C4314 C4312 1.384 . S
C4314 C4315 1.372 . S
C4315 C4314 1.372 . S
C4315 C4316 1.400 . S
C4315 C4320 1.490 . S
C4316 H4306 0.930 . S
C4316 C4315 1.400 . S
C4316 C4319 1.386 . S
H4317 C4333 0.930 . S
H4318 C4334 0.931 . S
C4319 H4307 0.929 . S
C4319 C4313 1.390 . S
C4319 C4316 1.386 . S
C4320 C4315 1.490 . S
C4320 C4322 1.395 . S
C4320 C4323 1.403 . S
H4321 C4327 0.930 . S
C4322 H4308 0.930 . S
C4322 C4320 1.395 . S
C4322 C4325 1.403 1_556 S
C4323 C4320 1.403 . S
C4323 C4324 1.524 . S
C4323 C4327 1.400 1_556 S
C4324 H4309 0.960 . S
C4324 H4310 0.960 . S
C4324 H4311 0.960 . S
C4324 C4323 1.524 . S
C4325 C4322 1.403 1_554 S
C4325 C4326 1.392 . S
C4325 C4329 1.495 . S
C4326 C4325 1.392 . S
C4326 C4327 1.385 . S
C4326 C4328 1.478 . S
C4327 H4321 0.930 . S
C4327 C4323 1.400 1_554 S
C4327 C4326 1.385 . S
C4328 C4326 1.478 . S
C4328 C4330 1.381 . S
C4328 C4334 1.383 . S
C4329 C4325 1.495 . S
C4329 H4335 0.959 . S
C4329 H4336 0.961 . S
C4329 H4337 0.960 . S
C4330 C4328 1.381 . S
C4330 C4331 1.394 . S
C4330 H4338 0.930 . S
C4331 C4330 1.394 . S
C4331 C4332 1.383 . S
C4331 H4339 0.929 . S
C4332 C4331 1.383 . S
C4332 C4333 1.377 . S
C4333 H4317 0.930 . S
C4333 C4332 1.377 . S
C4333 C4334 1.379 . S
C4334 H4318 0.931 . S
C4334 C4328 1.383 . S
C4334 C4333 1.379 . S
H4335 C4329 0.959 . S
H4336 C4329 0.961 . S
H4337 C4329 0.960 . S
H4338 C4330 0.930 . S
H4339 C4331 0.929 . S
H4340 C4348 0.929 . S
H4341 C4350 0.930 . S
H4342 C4352 0.930 . S
H4343 C4355 0.929 . S
H4344 C4358 0.930 . S
H4345 C4360 0.960 . S
H4346 C4360 0.960 1_455 S
H4347 C4360 0.960 . S
C4348 H4340 0.929 . S
C4348 C4349 1.377 1_455 S
C4348 C4350 1.384 . S
C4349 C4348 1.377 1_655 S
C4349 C4355 1.390 . S
C4350 H4341 0.930 . S
C4350 C4348 1.384 . S
C4350 C4351 1.365 1_455 S
C4351 C4350 1.365 1_655 S
C4351 C4352 1.407 . S
C4351 C4356 1.490 1_655 S
C4352 H4342 0.930 . S
C4352 C4351 1.407 . S
C4352 C4355 1.386 . S
H4353 C4369 0.930 . S
H4354 C4370 0.931 . S
C4355 H4343 0.929 . S
C4355 C4349 1.390 . S
C4355 C4352 1.386 . S
C4356 C4351 1.490 1_455 S
C4356 C4358 1.395 . S
C4356 C4359 1.403 1_455 S
H4357 C4363 0.930 . S
C4358 H4344 0.930 . S
C4358 C4356 1.395 . S
C4358 C4361 1.403 . S
C4359 C4356 1.403 1_655 S
C4359 C4360 1.524 . S
C4359 C4363 1.400 . S
C4360 H4345 0.960 . S
C4360 H4346 0.960 1_655 S
C4360 H4347 0.960 . S
C4360 C4359 1.524 . S
C4361 C4358 1.403 . S
C4361 C4362 1.392 . S
C4361 C4365 1.495 . S
C4362 C4361 1.392 . S
C4362 C4363 1.385 1_455 S
C4362 C4364 1.478 . S
C4363 H4357 0.930 . S
C4363 C4359 1.400 . S
C4363 C4362 1.385 1_655 S
C4364 C4362 1.478 . S
C4364 C4366 1.381 . S
C4364 C4370 1.383 1_455 S
C4365 C4361 1.495 . S
C4365 H4371 0.959 . S
C4365 H4372 0.961 1_455 S
C4365 H4373 0.960 . S
C4366 C4364 1.381 . S
C4366 C4367 1.394 . S
C4366 H4374 0.930 . S
C4367 C4366 1.394 . S
C4367 C4368 1.383 . S
C4367 H4375 0.929 . S
C4368 C4367 1.383 . S
C4368 C4369 1.377 1_455 S
C4369 H4353 0.930 . S
C4369 C4368 1.377 1_655 S
C4369 C4370 1.379 . S
C4370 H4354 0.931 . S
C4370 C4364 1.383 1_655 S
C4370 C4369 1.379 . S
H4371 C4365 0.959 . S
H4372 C4365 0.961 1_655 S
H4373 C4365 0.960 . S
H4374 C4366 0.930 . S
H4375 C4367 0.929 . S
H4376 C4384 0.929 . S
H4377 C4386 0.930 . S
H4378 C4388 0.930 . S
H4379 C4391 0.929 . S
H4380 C4394 0.930 . S
H4381 C4396 0.960 . S
H4382 C4396 0.960 . S
H4383 C4396 0.960 . S
C4384 H4376 0.929 . S
C4384 C4385 1.377 . S
C4384 C4386 1.384 . S
C4385 C4384 1.377 . S
C4385 C4391 1.390 . S
C4386 H4377 0.930 . S
C4386 C4384 1.384 . S
C4386 C4387 1.372 . S
C4387 C4386 1.372 . S
C4387 C4388 1.400 . S
C4387 C4392 1.490 . S
C4388 H4378 0.930 . S
C4388 C4387 1.400 . S
C4388 C4391 1.386 . S
H4389 C4405 0.930 . S
H4390 C4406 0.931 . S
C4391 H4379 0.929 . S
C4391 C4385 1.390 . S
C4391 C4388 1.386 . S
C4392 C4387 1.490 . S
C4392 C4394 1.395 . S
C4392 C4395 1.403 . S
H4393 C4399 0.930 . S
C4394 H4380 0.930 . S
C4394 C4392 1.395 . S
C4394 C4397 1.403 . S
C4395 C4392 1.403 . S
C4395 C4396 1.524 . S
C4395 C4399 1.400 . S
C4396 H4381 0.960 . S
C4396 H4382 0.960 . S
C4396 H4383 0.960 . S
C4396 C4395 1.524 . S
C4397 C4394 1.403 . S
C4397 C4398 1.392 . S
C4397 C4401 1.495 . S
C4398 C4397 1.392 . S
C4398 C4399 1.385 . S
C4398 C4400 1.478 . S
C4399 H4393 0.930 . S
C4399 C4395 1.400 . S
C4399 C4398 1.385 . S
C4400 C4398 1.478 . S
C4400 C4402 1.381 . S
C4400 C4406 1.383 . S
C4401 C4397 1.495 . S
C4401 H4407 0.959 . S
C4401 H4408 0.961 . S
C4401 H4409 0.960 . S
C4402 C4400 1.381 . S
C4402 C4403 1.394 . S
C4402 H4410 0.930 . S
C4403 C4402 1.394 . S
C4403 C4404 1.383 . S
C4403 H4411 0.929 . S
C4404 C4403 1.383 . S
C4404 C4405 1.377 . S
C4405 H4389 0.930 . S
C4405 C4404 1.377 . S
C4405 C4406 1.379 . S
C4406 H4390 0.931 . S
C4406 C4400 1.383 . S
C4406 C4405 1.379 . S
H4407 C4401 0.959 . S
H4408 C4401 0.961 . S
H4409 C4401 0.960 . S
H4410 C4402 0.930 . S
H4411 C4403 0.929 . S
H4412 C4420 0.929 . S
H4413 C4422 0.930 . S
H4414 C4424 0.930 . S
H4415 C4427 0.929 . S
H4416 C4430 0.930 . S
H4417 C4432 0.960 . S
H4418 C4432 0.960 . S
H4419 C4432 0.960 . S
C4420 H4412 0.929 . S
C4420 C4421 1.422 1_655 S
C4420 C4422 1.384 . S
C4421 C4420 1.422 1_455 S
C4421 C4427 1.351 1_565 S
C4422 H4413 0.930 . S
C4422 C4420 1.384 . S
C4422 C4423 1.414 1_655 S
C4423 C4422 1.414 1_455 S
C4423 C4424 1.363 1_565 S
C4423 C4428 1.489 1_455 S
C4424 H4414 0.930 . S
C4424 C4423 1.363 1_545 S
C4424 C4427 1.386 . S
H4425 C4441 0.930 . S
H4426 C4442 0.931 . S
C4427 H4415 0.929 . S
C4427 C4421 1.351 1_545 S
C4427 C4424 1.386 . S
C4428 C4423 1.489 1_655 S
C4428 C4430 1.376 1_565 S
C4428 C4431 1.421 1_655 S
H4429 C4435 0.930 . S
C4430 H4416 0.930 . S
C4430 C4428 1.376 1_545 S
C4430 C4433 1.403 . S
C4431 C4428 1.421 1_455 S
C4431 C4432 1.524 . S
C4431 C4435 1.400 . S
C4432 H4417 0.960 . S
C4432 H4418 0.960 . S
C4432 H4419 0.960 . S
C4432 C4431 1.524 . S
C4433 C4430 1.403 . S
C4433 C4434 1.427 . S
C4433 C4437 1.495 . S
C4434 C4433 1.427 . S
C4434 C4435 1.351 1_645 S
C4434 C4436 1.483 . S
C4435 H4429 0.930 . S
C4435 C4431 1.400 . S
C4435 C4434 1.351 1_465 S
C4436 C4434 1.483 . S
C4436 C4438 1.381 1_545 S
C4436 C4442 1.383 1_655 S
C4437 C4433 1.495 . S
C4437 H4443 0.959 . S
C4437 H4444 0.961 . S
C4437 H4445 0.960 . S
C4438 C4436 1.381 1_565 S
C4438 C4439 1.394 . S
C4438 H4446 0.930 . S
C4439 C4438 1.394 . S
C4439 C4440 1.332 1_565 S
C4439 H4447 0.929 . S
C4440 C4439 1.332 1_545 S
C4440 C4441 1.434 1_655 S
C4441 H4425 0.930 . S
C4441 C4440 1.434 1_455 S
C4441 C4442 1.379 . S
C4442 H4426 0.931 . S
C4442 C4436 1.383 1_455 S
C4442 C4441 1.379 . S
H4443 C4437 0.959 . S
H4444 C4437 0.961 . S
H4445 C4437 0.960 . S
H4446 C4438 0.930 . S
H4447 C4439 0.929 . S
H4448 C4456 0.929 . S
H4449 C4458 0.930 . S
H4450 C4460 0.930 . S
H4451 C4463 0.929 . S
H4452 C4466 0.930 . S
H4453 C4468 0.960 . S
H4454 C4468 0.960 . S
H4455 C4468 0.960 . S
C4456 H4448 0.929 . S
C4456 C4457 1.377 . S
C4456 C4458 1.384 . S
C4457 C4456 1.377 . S
C4457 C4463 1.390 . S
C4458 H4449 0.930 . S
C4458 C4456 1.384 . S
C4458 C4459 1.372 . S
C4459 C4458 1.372 . S
C4459 C4460 1.400 . S
C4459 C4464 1.490 . S
C4460 H4450 0.930 . S
C4460 C4459 1.400 . S
C4460 C4463 1.386 . S
H4461 C4477 0.930 . S
H4462 C4478 0.931 . S
C4463 H4451 0.929 . S
C4463 C4457 1.390 . S
C4463 C4460 1.386 . S
C4464 C4459 1.490 . S
C4464 C4466 1.395 . S
C4464 C4467 1.403 . S
H4465 C4471 0.930 . S
C4466 H4452 0.930 . S
C4466 C4464 1.395 . S
C4466 C4469 1.403 . S
C4467 C4464 1.403 . S
C4467 C4468 1.524 . S
C4467 C4471 1.400 . S
C4468 H4453 0.960 . S
C4468 H4454 0.960 . S
C4468 H4455 0.960 . S
C4468 C4467 1.524 . S
C4469 C4466 1.403 . S
C4469 C4470 1.392 . S
C4469 C4473 1.495 . S
C4470 C4469 1.392 . S
C4470 C4471 1.385 . S
C4470 C4472 1.478 . S
C4471 H4465 0.930 . S
C4471 C4467 1.400 . S
C4471 C4470 1.385 . S
C4472 C4470 1.478 . S
C4472 C4474 1.381 . S
C4472 C4478 1.383 . S
C4473 C4469 1.495 . S
C4473 H4479 0.959 . S
C4473 H4480 0.961 . S
C4473 H4481 0.960 . S
C4474 C4472 1.381 . S
C4474 C4475 1.394 . S
C4474 H4482 0.930 . S
C4475 C4474 1.394 . S
C4475 C4476 1.383 . S
C4475 H4483 0.929 . S
C4476 C4475 1.383 . S
C4476 C4477 1.377 . S
C4477 H4461 0.930 . S
C4477 C4476 1.377 . S
C4477 C4478 1.379 . S
C4478 H4462 0.931 . S
C4478 C4472 1.383 . S
C4478 C4477 1.379 . S
H4479 C4473 0.959 . S
H4480 C4473 0.961 . S
H4481 C4473 0.960 . S
H4482 C4474 0.930 . S
H4483 C4475 0.929 . S
H4484 C4492 0.929 . S
H4485 C4494 0.930 . S
H4486 C4496 0.930 . S
H4487 C4499 0.929 . S
H4488 C4502 0.929 . S
H4489 C4504 0.960 . S
H4490 C4504 0.960 . S
H4491 C4504 0.960 1_545 S
C4492 H4484 0.929 . S
C4492 C4493 1.341 1_565 S
C4492 C4494 1.384 . S
C4493 C4492 1.341 1_545 S
C4493 C4499 1.426 . S
C4494 H4485 0.930 . S
C4494 C4492 1.384 . S
C4494 C4495 1.379 . S
C4495 C4494 1.379 . S
C4495 C4496 1.393 1_565 S
C4495 C4500 1.490 . S
C4496 H4486 0.930 . S
C4496 C4495 1.393 1_545 S
C4496 C4499 1.386 . S
H4497 C4513 0.930 . S
H4498 C4514 0.931 . S
C4499 H4487 0.929 . S
C4499 C4493 1.426 . S
C4499 C4496 1.386 . S
C4500 C4495 1.490 . S
C4500 C4502 1.394 1_565 S
C4500 C4503 1.401 . S
H4501 C4507 0.936 . S
C4502 H4488 0.929 . S
C4502 C4500 1.394 1_545 S
C4502 C4505 1.403 . S
C4503 C4500 1.401 . S
C4503 C4504 1.536 . S
C4503 C4507 1.400 . S
C4504 H4489 0.960 . S
C4504 H4490 0.960 . S
C4504 H4491 0.960 1_565 S
C4504 C4503 1.536 . S
C4505 C4502 1.403 . S
C4505 C4506 1.391 1_545 S
C4505 C4509 1.493 . S
C4506 C4505 1.391 1_565 S
C4506 C4507 1.384 . S
C4506 C4508 1.477 . S
C4507 H4501 0.936 . S
C4507 C4503 1.400 . S
C4507 C4506 1.384 . S
C4508 C4506 1.477 . S
C4508 C4510 1.381 . S
C4508 C4514 1.383 1_565 S
C4509 C4505 1.493 . S
C4509 H4515 0.966 . S
C4509 H4516 1.041 . S
C4509 H4517 0.886 1_545 S
C4510 C4508 1.381 . S
C4510 C4511 1.394 . S
C4510 H4518 0.930 . S
C4511 C4510 1.394 . S
C4511 C4512 1.407 . S
C4511 H4519 0.929 . S
C4512 C4511 1.407 . S
C4512 C4513 1.353 1_565 S
C4513 H4497 0.930 . S
C4513 C4512 1.353 1_545 S
C4513 C4514 1.379 . S
C4514 H4498 0.931 . S
C4514 C4508 1.383 1_545 S
C4514 C4513 1.379 . S
H4515 C4509 0.966 . S
H4516 C4509 1.041 . S
H4517 C4509 0.886 1_565 S
H4518 C4510 0.930 . S
H4519 C4511 0.929 . S
H4520 C4528 0.929 . S
H4521 C4530 0.930 . S
H4522 C4532 0.930 . S
H4523 C4535 0.929 . S
H4524 C4538 0.930 . S
H4525 C4540 0.960 . S
H4526 C4540 0.960 . S
H4527 C4540 0.960 . S
C4528 H4520 0.929 . S
C4528 C4529 1.377 . S
C4528 C4530 1.384 . S
C4529 C4528 1.377 . S
C4529 C4535 1.390 . S
C4530 H4521 0.930 . S
C4530 C4528 1.384 . S
C4530 C4531 1.372 . S
C4531 C4530 1.372 . S
C4531 C4532 1.400 . S
C4531 C4536 1.490 . S
C4532 H4522 0.930 . S
C4532 C4531 1.400 . S
C4532 C4535 1.386 . S
H4533 C4549 0.930 . S
H4534 C4550 0.931 . S
C4535 H4523 0.929 . S
C4535 C4529 1.390 . S
C4535 C4532 1.386 . S
C4536 C4531 1.490 . S
C4536 C4538 1.395 . S
C4536 C4539 1.403 . S
H4537 C4543 0.930 . S
C4538 H4524 0.930 . S
C4538 C4536 1.395 . S
C4538 C4541 1.403 . S
C4539 C4536 1.403 . S
C4539 C4540 1.524 . S
C4539 C4543 1.400 . S
C4540 H4525 0.960 . S
C4540 H4526 0.960 . S
C4540 H4527 0.960 . S
C4540 C4539 1.524 . S
C4541 C4538 1.403 . S
C4541 C4542 1.392 . S
C4541 C4545 1.495 . S
C4542 C4541 1.392 . S
C4542 C4543 1.385 . S
C4542 C4544 1.478 . S
C4543 H4537 0.930 . S
C4543 C4539 1.400 . S
C4543 C4542 1.385 . S
C4544 C4542 1.478 . S
C4544 C4546 1.381 . S
C4544 C4550 1.383 . S
C4545 C4541 1.495 . S
C4545 H4551 0.959 . S
C4545 H4552 0.961 . S
C4545 H4553 0.960 . S
C4546 C4544 1.381 . S
C4546 C4547 1.394 . S
C4546 H4554 0.930 . S
C4547 C4546 1.394 . S
C4547 C4548 1.383 . S
C4547 H4555 0.929 . S
C4548 C4547 1.383 . S
C4548 C4549 1.377 . S
C4549 H4533 0.930 . S
C4549 C4548 1.377 . S
C4549 C4550 1.379 . S
C4550 H4534 0.931 . S
C4550 C4544 1.383 . S
C4550 C4549 1.379 . S
H4551 C4545 0.959 . S
H4552 C4545 0.961 . S
H4553 C4545 0.960 . S
H4554 C4546 0.930 . S
H4555 C4547 0.929 . S
H4556 C4564 0.929 . S
H4557 C4566 0.930 . S
H4558 C4568 0.930 . S
H4559 C4571 0.929 . S
H4560 C4574 0.930 . S
H4561 C4576 0.960 . S
H4562 C4576 0.960 . S
H4563 C4576 0.960 . S
C4564 H4556 0.929 . S
C4564 C4565 1.326 1_545 S
C4564 C4566 1.384 . S
C4565 C4564 1.326 1_565 S
C4565 C4571 1.440 . S
C4566 H4557 0.930 . S
C4566 C4564 1.384 . S
C4566 C4567 1.380 . S
C4567 C4566 1.380 . S
C4567 C4568 1.391 1_545 S
C4567 C4572 1.489 . S
C4568 H4558 0.930 . S
C4568 C4567 1.391 1_565 S
C4568 C4571 1.386 . S
H4569 C4585 0.930 . S
H4570 C4586 0.931 . S
C4571 H4559 0.929 . S
C4571 C4565 1.440 . S
C4571 C4568 1.386 . S
C4572 C4567 1.489 . S
C4572 C4574 1.430 . S
C4572 C4575 1.372 1_545 S
H4573 C4579 0.930 . S
C4574 H4560 0.930 . S
C4574 C4572 1.430 . S
C4574 C4577 1.403 . S
C4575 C4572 1.372 1_565 S
C4575 C4576 1.524 . S
C4575 C4579 1.400 . S
C4576 H4561 0.960 . S
C4576 H4562 0.960 . S
C4576 H4563 0.960 . S
C4576 C4575 1.524 . S
C4577 C4574 1.403 . S
C4577 C4578 1.392 . S
C4577 C4581 1.495 . S
C4578 C4577 1.392 . S
C4578 C4579 1.385 1_545 S
C4578 C4580 1.478 . S
C4579 H4573 0.930 . S
C4579 C4575 1.400 . S
C4579 C4578 1.385 1_565 S
C4580 C4578 1.478 . S
C4580 C4582 1.381 . S
C4580 C4586 1.383 1_545 S
C4581 C4577 1.495 . S
C4581 H4587 0.959 . S
C4581 H4588 0.961 . S
C4581 H4589 0.960 . S
C4582 C4580 1.381 . S
C4582 C4583 1.394 . S
C4582 H4590 0.930 . S
C4583 C4582 1.394 . S
C4583 C4584 1.470 . S
C4583 H4591 0.929 . S
C4584 C4583 1.470 . S
C4584 C4585 1.296 1_545 S
C4585 H4569 0.930 . S
C4585 C4584 1.296 1_565 S
C4585 C4586 1.379 . S
C4586 H4570 0.931 . S
C4586 C4580 1.383 1_565 S
C4586 C4585 1.379 . S
H4587 C4581 0.959 . S
H4588 C4581 0.961 . S
H4589 C4581 0.960 . S
H4590 C4582 0.930 . S
H4591 C4583 0.929 . S
H4592 C4600 0.929 . S
H4593 C4602 0.930 . S
H4594 C4604 0.930 . S
H4595 C4607 0.929 . S
H4596 C4610 0.930 . S
H4597 C4612 0.960 . S
H4598 C4612 0.960 . S
H4599 C4612 0.960 . S
C4600 H4592 0.929 . S
C4600 C4601 1.377 . S
C4600 C4602 1.384 . S
C4601 C4600 1.377 . S
C4601 C4607 1.390 . S
C4602 H4593 0.930 . S
C4602 C4600 1.384 . S
C4602 C4603 1.372 . S
C4603 C4602 1.372 . S
C4603 C4604 1.400 . S
C4603 C4608 1.490 . S
C4604 H4594 0.930 . S
C4604 C4603 1.400 . S
C4604 C4607 1.386 . S
H4605 C4621 0.930 . S
H4606 C4622 0.931 . S
C4607 H4595 0.929 . S
C4607 C4601 1.390 . S
C4607 C4604 1.386 . S
C4608 C4603 1.490 . S
C4608 C4610 1.395 . S
C4608 C4611 1.403 . S
H4609 C4615 0.930 . S
C4610 H4596 0.930 . S
C4610 C4608 1.395 . S
C4610 C4613 1.403 . S
C4611 C4608 1.403 . S
C4611 C4612 1.524 . S
C4611 C4615 1.400 . S
C4612 H4597 0.960 . S
C4612 H4598 0.960 . S
C4612 H4599 0.960 . S
C4612 C4611 1.524 . S
C4613 C4610 1.403 . S
C4613 C4614 1.392 . S
C4613 C4617 1.495 . S
C4614 C4613 1.392 . S
C4614 C4615 1.385 . S
C4614 C4616 1.478 . S
C4615 H4609 0.930 . S
C4615 C4611 1.400 . S
C4615 C4614 1.385 . S
C4616 C4614 1.478 . S
C4616 C4618 1.381 . S
C4616 C4622 1.383 . S
C4617 C4613 1.495 . S
C4617 H4623 0.959 . S
C4617 H4624 0.961 . S
C4617 H4625 0.960 . S
C4618 C4616 1.381 . S
C4618 C4619 1.394 . S
C4618 H4626 0.930 . S
C4619 C4618 1.394 . S
C4619 C4620 1.383 . S
C4619 H4627 0.929 . S
C4620 C4619 1.383 . S
C4620 C4621 1.377 . S
C4621 H4605 0.930 . S
C4621 C4620 1.377 . S
C4621 C4622 1.379 . S
C4622 H4606 0.931 . S
C4622 C4616 1.383 . S
C4622 C4621 1.379 . S
H4623 C4617 0.959 . S
H4624 C4617 0.961 . S
H4625 C4617 0.960 . S
H4626 C4618 0.930 . S
H4627 C4619 0.929 . S
H4628 C4636 0.929 . S
H4629 C4638 0.930 . S
H4630 C4640 0.930 . S
H4631 C4643 0.929 . S
H4632 C4646 0.930 . S
H4633 C4648 0.960 . S
H4634 C4648 0.960 . S
H4635 C4648 0.960 . S
C4636 H4628 0.929 . S
C4636 C4637 1.377 . S
C4636 C4638 1.384 . S
C4637 C4636 1.377 . S
C4637 C4643 1.390 . S
C4638 H4629 0.930 . S
C4638 C4636 1.384 . S
C4638 C4639 1.372 . S
C4639 C4638 1.372 . S
C4639 C4640 1.400 . S
C4639 C4644 1.490 . S
C4640 H4630 0.930 . S
C4640 C4639 1.400 . S
C4640 C4643 1.386 . S
H4641 C4657 0.930 . S
H4642 C4658 0.931 . S
C4643 H4631 0.929 . S
C4643 C4637 1.390 . S
C4643 C4640 1.386 . S
C4644 C4639 1.490 . S
C4644 C4646 1.395 . S
C4644 C4647 1.403 . S
H4645 C4651 0.930 . S
C4646 H4632 0.930 . S
C4646 C4644 1.395 . S
C4646 C4649 1.403 . S
C4647 C4644 1.403 . S
C4647 C4648 1.524 . S
C4647 C4651 1.400 . S
C4648 H4633 0.960 . S
C4648 H4634 0.960 . S
C4648 H4635 0.960 . S
C4648 C4647 1.524 . S
C4649 C4646 1.403 . S
C4649 C4650 1.392 . S
C4649 C4653 1.495 . S
C4650 C4649 1.392 . S
C4650 C4651 1.385 . S
C4650 C4652 1.478 . S
C4651 H4645 0.930 . S
C4651 C4647 1.400 . S
C4651 C4650 1.385 . S
C4652 C4650 1.478 . S
C4652 C4654 1.381 . S
C4652 C4658 1.383 . S
C4653 C4649 1.495 . S
C4653 H4659 0.959 . S
C4653 H4660 0.961 . S
C4653 H4661 0.960 . S
C4654 C4652 1.381 . S
C4654 C4655 1.394 . S
C4654 H4662 0.930 . S
C4655 C4654 1.394 . S
C4655 C4656 1.383 . S
C4655 H4663 0.929 . S
C4656 C4655 1.383 . S
C4656 C4657 1.377 . S
C4657 H4641 0.930 . S
C4657 C4656 1.377 . S
C4657 C4658 1.379 . S
C4658 H4642 0.931 . S
C4658 C4652 1.383 . S
C4658 C4657 1.379 . S
H4659 C4653 0.959 . S
H4660 C4653 0.961 . S
H4661 C4653 0.960 . S
H4662 C4654 0.930 . S
H4663 C4655 0.929 . S
H4664 C4672 0.929 . S
H4665 C4674 0.930 . S
H4666 C4676 0.930 . S
H4667 C4679 0.929 . S
H4668 C4682 0.930 . S
H4669 C4684 0.960 . S
H4670 C4684 0.960 . S
H4671 C4684 0.960 . S
C4672 H4664 0.929 . S
C4672 C4673 1.377 . S
C4672 C4674 1.384 . S
C4673 C4672 1.377 . S
C4673 C4679 1.390 . S
C4674 H4665 0.930 . S
C4674 C4672 1.384 . S
C4674 C4675 1.372 . S
C4675 C4674 1.372 . S
C4675 C4676 1.400 . S
C4675 C4680 1.490 . S
C4676 H4666 0.930 . S
C4676 C4675 1.400 . S
C4676 C4679 1.386 . S
H4677 C4693 0.930 . S
H4678 C4694 0.931 . S
C4679 H4667 0.929 . S
C4679 C4673 1.390 . S
C4679 C4676 1.386 . S
C4680 C4675 1.490 . S
C4680 C4682 1.395 . S
C4680 C4683 1.403 . S
H4681 C4687 0.930 . S
C4682 H4668 0.930 . S
C4682 C4680 1.395 . S
C4682 C4685 1.403 . S
C4683 C4680 1.403 . S
C4683 C4684 1.524 . S
C4683 C4687 1.400 . S
C4684 H4669 0.960 . S
C4684 H4670 0.960 . S
C4684 H4671 0.960 . S
C4684 C4683 1.524 . S
C4685 C4682 1.403 . S
C4685 C4686 1.392 . S
C4685 C4689 1.495 . S
C4686 C4685 1.392 . S
C4686 C4687 1.385 . S
C4686 C4688 1.478 . S
C4687 H4681 0.930 . S
C4687 C4683 1.400 . S
C4687 C4686 1.385 . S
C4688 C4686 1.478 . S
C4688 C4690 1.381 . S
C4688 C4694 1.383 . S
C4689 C4685 1.495 . S
C4689 H4695 0.959 . S
C4689 H4696 0.961 . S
C4689 H4697 0.960 . S
C4690 C4688 1.381 . S
C4690 C4691 1.394 . S
C4690 H4698 0.930 . S
C4691 C4690 1.394 . S
C4691 C4692 1.383 . S
C4691 H4699 0.929 . S
C4692 C4691 1.383 . S
C4692 C4693 1.377 . S
C4693 H4677 0.930 . S
C4693 C4692 1.377 . S
C4693 C4694 1.379 . S
C4694 H4678 0.931 . S
C4694 C4688 1.383 . S
C4694 C4693 1.379 . S
H4695 C4689 0.959 . S
H4696 C4689 0.961 . S
H4697 C4689 0.960 . S
H4698 C4690 0.930 . S
H4699 C4691 0.929 . S
H4700 C4708 0.929 . S
H4701 C4710 0.930 . S
H4702 C4712 0.930 . S
H4703 C4715 0.929 . S
H4704 C4718 0.930 . S
H4705 C4720 0.960 . S
H4706 C4720 0.960 . S
H4707 C4720 0.960 . S
C4708 H4700 0.929 . S
C4708 C4709 1.445 . S
C4708 C4710 1.384 . S
C4709 C4708 1.445 . S
C4709 C4715 1.323 1_565 S
C4710 H4701 0.930 . S
C4710 C4708 1.384 . S
C4710 C4711 1.462 . S
C4711 C4710 1.462 . S
C4711 C4712 1.311 1_565 S
C4711 C4716 1.495 . S
C4712 H4702 0.930 . S
C4712 C4711 1.311 1_545 S
C4712 C4715 1.386 . S
H4713 C4729 0.930 . S
H4714 C4730 0.931 . S
C4715 H4703 0.929 . S
C4715 C4709 1.323 1_545 S
C4715 C4712 1.386 . S
C4716 C4711 1.495 . S
C4716 C4718 1.395 . S
C4716 C4719 1.403 1_565 S
H4717 C4723 0.930 . S
C4718 H4704 0.930 . S
C4718 C4716 1.395 . S
C4718 C4721 1.403 1_554 S
C4719 C4716 1.403 1_545 S
C4719 C4720 1.524 . S
C4719 C4723 1.400 1_554 S
C4720 H4705 0.960 . S
C4720 H4706 0.960 . S
C4720 H4707 0.960 . S
C4720 C4719 1.524 . S
C4721 C4718 1.403 1_556 S
C4721 C4722 1.392 . S
C4721 C4725 1.495 . S
C4722 C4721 1.392 . S
C4722 C4723 1.385 1_565 S
C4722 C4724 1.478 . S
C4723 H4717 0.930 . S
C4723 C4719 1.400 1_556 S
C4723 C4722 1.385 1_545 S
C4724 C4722 1.478 . S
C4724 C4726 1.381 . S
C4724 C4730 1.383 1_565 S
C4725 C4721 1.495 . S
C4725 H4731 0.959 . S
C4725 H4732 0.961 . S
C4725 H4733 0.960 . S
C4726 C4724 1.381 . S
C4726 C4727 1.394 . S
C4726 H4734 0.930 . S
C4727 C4726 1.394 . S
C4727 C4728 1.393 1_565 S
C4727 H4735 0.929 . S
C4728 C4727 1.393 1_545 S
C4728 C4729 1.368 . S
C4729 H4713 0.930 . S
C4729 C4728 1.368 . S
C4729 C4730 1.379 . S
C4730 H4714 0.931 . S
C4730 C4724 1.383 1_545 S
C4730 C4729 1.379 . S
H4731 C4725 0.959 . S
H4732 C4725 0.961 . S
H4733 C4725 0.960 . S
H4734 C4726 0.930 . S
H4735 C4727 0.929 . S
C1289 C6 2.056 . S
C1308 C1006 2.059 . S
C1325 C966 2.032 . S
C1344 C46 2.002 . S
C1361 C1086 2.032 . S
C1380 C86 2.001 . S
C1397 C126 2.056 . S
C1416 C1046 2.058 . S
C1433 C175 2.063 . S
C1452 C1175 2.058 . S
C1469 C215 2.032 . S
C1488 C1135 1.996 . S
C1505 C255 2.035 . S
C1524 C1255 2.008 . S
C1541 C1215 2.061 . S
C1560 C295 2.041 . S
C1577 C326 2.028 . S
C1596 C686 1.996 . S
C1613 C366 2.058 . S
C1632 C646 2.037 . S
C1649 C406 2.058 . S
C1668 C766 2.036 . S
C1685 C726 2.035 . S
C1704 C446 2.034 . S
C1721 C495 2.034 . S
C1740 C855 2.035 . S
C1757 C535 2.059 . S
C1776 C815 2.073 . S
C1793 C935 2.062 . S
C1812 C575 2.052 . S
C1829 C615 2.035 . S
C1848 C895 2.009 . S
C1865 C9 1.485 . S
C1884 C129 1.451 . S
C1901 C49 1.482 . S
C1920 C89 1.480 . S
C1937 C298 1.482 . S
C1956 C178 1.503 . S
C1973 C258 1.486 . S
C1992 C218 1.456 . S
C2009 C329 1.463 1_545 S
C2028 C449 1.453 1_545 S
C2045 C369 1.466 . S
C2064 C409 1.494 . S
C2081 C498 1.462 1_565 S
C2100 C618 1.451 . S
C2117 C578 1.477 . S
C2136 C538 1.465 . S
C2153 C649 1.478 . S
C2172 C769 1.473 . S
C2189 C689 1.490 . S
C2208 C729 1.457 . S
C2225 C938 1.483 . S
C2244 C818 1.500 . S
C2261 C858 1.485 . S
C2280 C898 1.508 . S
C2297 C1089 1.466 1_545 S
C2316 C969 1.457 . S
C2333 C1009 1.466 . S
C2352 C1049 1.493 . S
C2369 C1258 1.464 1_565 S
C2388 C1138 1.468 1_565 S
C2405 C1218 1.476 . S
C2424 C1178 1.454 . S
C2441 C55 2.007 . S
C2460 C15 2.021 . S
C2477 C95 2.000 . S
C2496 C135 2.015 . S
C2513 C206 2.002 . S
C2532 C166 2.016 . S
C2549 C286 2.002 . S
C2568 C246 2.017 . S
C2585 C335 2.032 . S
C2604 C375 2.018 . S
C2621 C415 2.035 . S
C2640 C455 2.062 . S
C2657 C526 2.032 . S
C2676 C486 2.062 . S
C2693 C566 2.034 . S
C2712 C606 2.064 . S
C2729 C655 2.003 . S
C2748 C695 1.976 . S
C2765 C775 2.001 . S
C2784 C735 2.018 . S
C2801 C806 1.999 . S
C2820 C846 1.974 . S
C2837 C886 2.007 . S
C2856 C926 2.023 . S
C2873 C975 2.034 . S
C2892 C1015 2.030 . S
C2909 C1055 2.035 . S
C2928 C1095 2.059 . S
C2945 C1166 2.035 . S
C2964 C1126 2.037 . S
C2981 C1206 2.035 . S
C3000 C1246 2.064 . S
C3017 C10 2.537 . S
C3036 C19 2.544 . S
C3053 C50 2.539 . S
C3072 C59 2.541 1_655 S
C3089 C90 2.538 . S
C3108 C99 2.526 . S
C3125 C139 2.535 1_655 S
C3144 C130 2.518 . S
C3161 C170 2.539 . S
C3180 C179 2.543 . S
C3197 C219 2.534 . S
C3216 C210 2.518 1_455 S
C3233 C250 2.536 . S
C3252 C259 2.520 . S
C3269 C290 2.539 1_455 S
C3288 C299 2.543 . S
C3305 C339 2.539 . S
C3324 C330 2.542 . S
C3341 C370 2.536 . S
C3360 C379 2.542 1_655 S
C3377 C410 2.537 . S
C3396 C419 2.522 . S
C3413 C459 2.534 1_655 S
C3432 C450 2.528 . S
C3449 C490 2.537 . S
C3468 C499 2.545 . S
C3485 C539 2.534 . S
C3504 C530 2.522 1_455 S
C3521 C579 2.536 . S
C3540 C570 2.519 . S
C3557 C610 2.537 1_455 S
C3576 C619 2.545 . S
C3593 C650 2.536 . S
C3612 C659 2.519 . S
C3629 C699 2.534 . S
C3648 C690 2.518 . S
C3665 C739 2.539 . S
C3684 C730 2.533 . S
C3701 C770 2.535 . S
C3720 C779 2.539 . S
C3737 C819 2.539 . S
C3756 C810 2.540 . S
C3773 C859 2.533 . S
C3792 C850 2.529 . S
C3809 C890 2.534 . S
C3828 C899 2.519 . S
C3845 C939 2.534 . S
C3864 C930 2.519 . S
C3881 C979 2.537 . S
C3900 C970 2.545 . S
C3917 C1010 2.539 . S
C3936 C1019 2.530 . S
C3953 C1059 2.534 . S
C3972 C1050 2.528 . S
C3989 C1099 2.534 . S
C4008 C1090 2.531 . S
C4025 C1139 2.535 . S
C4044 C1130 2.518 . S
C4061 C1179 2.538 . S
C4080 C1170 2.545 . S
C4097 C1210 2.539 . S
C4116 C1219 2.541 . S
C4133 C1250 2.536 . S
C4152 C1259 2.520 . S
C4169 C18 1.480 . S
C4188 C169 1.500 . S
C4205 C1169 1.479 . S
C4224 C58 1.457 . S
C4241 C569 1.472 . S
C4260 C98 1.469 . S
C4277 C138 1.473 . S
C4296 C929 1.449 . S
C4313 C209 1.475 . S
C4332 C1018 1.448 . S
C4349 C249 1.474 . S
C4368 C418 1.448 . S
C4385 C289 1.472 . S
C4404 C778 1.457 . S
C4421 C338 1.458 1_565 S
C4440 C489 1.453 1_545 S
C4457 C849 1.472 . S
C4476 C378 1.463 . S
C4493 C1249 1.458 1_545 S
C4512 C458 1.453 1_565 S
C4529 C529 1.472 . S
C4548 C698 1.472 . S
C4565 C1098 1.458 1_565 S
C4584 C609 1.456 1_545 S
C4601 C658 1.482 . S
C4620 C809 1.475 . S
C4637 C1209 1.482 . S
C4656 C738 1.497 . S
C4673 C889 1.473 . S
C4692 C1058 1.452 . S
C4709 C978 1.458 1_565 S
C4728 C1129 1.452 1_545 S
