# Generated by pormake.
# Topology una, (4)-cn, num edge types: 1
# Building blocks:
#     Node 0, Type 0, BuildingBlock: GALJAG_clean_sbu_0, # of connection points: 4
#     Node 1, Type 0, BuildingBlock: GALJAG_clean_sbu_0, # of connection points: 4
#     Node 2, Type 0, BuildingBlock: GALJAG_clean_sbu_0, # of connection points: 4
#     Node 3, Type 0, BuildingBlock: GALJAG_clean_sbu_0, # of connection points: 4
#     Node 4, Type 0, BuildingBlock: GALJAG_clean_sbu_0, # of connection points: 4
#     Node 5, Type 0, BuildingBlock: GALJAG_clean_sbu_0, # of connection points: 4
#     Node 6, Type 0, BuildingBlock: GALJAG_clean_sbu_0, # of connection points: 4
#     Node 7, Type 0, BuildingBlock: GALJAG_clean_sbu_0, # of connection points: 4
#     Node 8, Type 0, BuildingBlock: GALJAG_clean_sbu_0, # of connection points: 4
#     Node 9, Type 0, BuildingBlock: GALJAG_clean_sbu_0, # of connection points: 4
#     Node 10, Type 0, BuildingBlock: GALJAG_clean_sbu_0, # of connection points: 4
#     Node 11, Type 0, BuildingBlock: GALJAG_clean_sbu_0, # of connection points: 4
#     Edge 12, Type (0, 0), BuildingBlock: OJICUG_clean_linker_0, # of connection points: 2
#     Edge 13, Type (0, 0), BuildingBlock: OJICUG_clean_linker_0, # of connection points: 2
#     Edge 14, Type (0, 0), BuildingBlock: OJICUG_clean_linker_0, # of connection points: 2
#     Edge 15, Type (0, 0), BuildingBlock: OJICUG_clean_linker_0, # of connection points: 2
#     Edge 16, Type (0, 0), BuildingBlock: OJICUG_clean_linker_0, # of connection points: 2
#     Edge 17, Type (0, 0), BuildingBlock: OJICUG_clean_linker_0, # of connection points: 2
#     Edge 18, Type (0, 0), BuildingBlock: OJICUG_clean_linker_0, # of connection points: 2
#     Edge 19, Type (0, 0), BuildingBlock: OJICUG_clean_linker_0, # of connection points: 2
#     Edge 20, Type (0, 0), BuildingBlock: OJICUG_clean_linker_0, # of connection points: 2
#     Edge 21, Type (0, 0), BuildingBlock: OJICUG_clean_linker_0, # of connection points: 2
#     Edge 22, Type (0, 0), BuildingBlock: OJICUG_clean_linker_0, # of connection points: 2
#     Edge 23, Type (0, 0), BuildingBlock: OJICUG_clean_linker_0, # of connection points: 2
#     Edge 24, Type (0, 0), BuildingBlock: OJICUG_clean_linker_0, # of connection points: 2
#     Edge 25, Type (0, 0), BuildingBlock: OJICUG_clean_linker_0, # of connection points: 2
#     Edge 26, Type (0, 0), BuildingBlock: OJICUG_clean_linker_0, # of connection points: 2
#     Edge 27, Type (0, 0), BuildingBlock: OJICUG_clean_linker_0, # of connection points: 2
#     Edge 28, Type (0, 0), BuildingBlock: OJICUG_clean_linker_0, # of connection points: 2
#     Edge 29, Type (0, 0), BuildingBlock: OJICUG_clean_linker_0, # of connection points: 2
#     Edge 30, Type (0, 0), BuildingBlock: OJICUG_clean_linker_0, # of connection points: 2
#     Edge 31, Type (0, 0), BuildingBlock: OJICUG_clean_linker_0, # of connection points: 2
#     Edge 32, Type (0, 0), BuildingBlock: OJICUG_clean_linker_0, # of connection points: 2
#     Edge 33, Type (0, 0), BuildingBlock: OJICUG_clean_linker_0, # of connection points: 2
#     Edge 34, Type (0, 0), BuildingBlock: OJICUG_clean_linker_0, # of connection points: 2
#     Edge 35, Type (0, 0), BuildingBlock: OJICUG_clean_linker_0, # of connection points: 2
# Relax obj value: 0.044
# Max RMSD: 0.038
# Mean RMSD: 0.038
data_MOF--net-una--node1-GALJAG_clean_sbu_0--edge1-OJICUG_clean_linker_0
_symmetry_space_group_name_H-M    P1
_symmetry_Int_Tables_number       1
_symmetry_cell_setting            triclinic
loop_
_symmetry_equiv_pos_as_xyz
'x, y, z'
_cell_length_a     44.263095
_cell_length_b     44.265924
_cell_length_c     14.941891
_cell_angle_alpha  89.8688
_cell_angle_beta   90.155267
_cell_angle_gamma 119.98622
loop_
_atom_site_label
_atom_site_type_symbol
_atom_site_fract_x
_atom_site_fract_y
_atom_site_fract_z
_atom_type_partial_charge
In0 In 0.13414 0.44527 0.03904 0.0
O1 O 0.07631 0.40193 0.04064 0.0
O2 O 0.09939 0.42579 0.91644 0.0
C3 C 0.16551 0.43607 0.18519 0.0
C4 C 0.12983 0.50274 0.07112 0.0
C5 C 0.18005 0.44769 0.91965 0.0
O6 O 0.14453 0.41064 0.13736 0.0
O7 O 0.16764 0.46458 0.16404 0.0
O8 O 0.17686 0.47394 0.9359 0.0
O9 O 0.15978 0.42044 0.96258 0.0
C10 C 0.07248 0.40346 0.95691 0.0
O11 O 0.15483 0.50335 0.02899 0.0
O12 O 0.10644 0.47285 0.09698 0.0
In13 In 0.68873 0.13582 0.18382 0.0
O14 O 0.68429 0.08162 0.1771 0.0
O15 O 0.65057 0.09166 0.09594 0.0
C16 C 0.73677 0.17483 0.30984 0.0
C17 C 0.6315 0.1363 0.24097 0.0
C18 C 0.72677 0.17016 0.04097 0.0
O19 O 0.72682 0.14273 0.30063 0.0
O20 O 0.72126 0.18561 0.25987 0.0
O21 O 0.70026 0.17171 0.06458 0.0
O22 O 0.73314 0.15014 0.08727 0.0
C23 C 0.66013 0.07032 0.1191 0.0
O24 O 0.65175 0.15706 0.18243 0.0
O25 O 0.64022 0.1152 0.27272 0.0
In26 In 0.56737 0.68999 0.38708 0.0
O27 O 0.60986 0.67415 0.39182 0.0
O28 O 0.58893 0.67672 0.26577 0.0
C29 C 0.57455 0.73009 0.5311 0.0
C30 C 0.51162 0.62687 0.41828 0.0
C31 C 0.56396 0.73575 0.27718 0.0
O32 O 0.60093 0.73364 0.48901 0.0
O33 O 0.5459 0.70514 0.50453 0.0
O34 O 0.53721 0.70713 0.29739 0.0
O35 O 0.59225 0.74056 0.31044 0.0
C36 C 0.60954 0.67001 0.30783 0.0
O37 O 0.5144 0.64433 0.34861 0.0
O38 O 0.53716 0.6411 0.47179 0.0
In39 In 0.87551 0.55784 0.53901 0.0
O40 O 0.87316 0.50683 0.50384 0.0
O41 O 0.89042 0.52702 0.63487 0.0
C42 C 0.8326 0.55601 0.41134 0.0
C43 C 0.93897 0.60232 0.46963 0.0
C44 C 0.83527 0.56382 0.66601 0.0
O45 O 0.83276 0.52878 0.43646 0.0
O46 O 0.85451 0.58392 0.44957 0.0
O47 O 0.86487 0.58946 0.64592 0.0
O48 O 0.82797 0.53578 0.62697 0.0
C49 C 0.88381 0.50305 0.57914 0.0
O50 O 0.93334 0.6012 0.5531 0.0
O51 O 0.91288 0.5818 0.42364 0.0
In52 In 0.31637 0.87533 0.71731 0.0
O53 O 0.34903 0.849 0.7116 0.0
O54 O 0.37122 0.89884 0.77518 0.0
C55 C 0.27542 0.83129 0.59025 0.0
C56 C 0.34412 0.93937 0.64315 0.0
C57 C 0.27329 0.84811 0.8611 0.0
O58 O 0.29711 0.82632 0.63323 0.0
O59 O 0.2753 0.85891 0.60958 0.0
O60 O 0.26463 0.85821 0.7919 0.0
O61 O 0.30467 0.85539 0.86148 0.0
C62 C 0.37502 0.87355 0.75091 0.0
O63 O 0.3257 0.93163 0.71333 0.0
O64 O 0.34814 0.91519 0.61219 0.0
In65 In 0.43919 0.31388 0.90587 0.0
O66 O 0.39683 0.3295 0.8983 0.0
O67 O 0.42219 0.32922 0.77803 0.0
C68 C 0.42379 0.27467 0.05719 0.0
C69 C 0.49864 0.37427 0.93564 0.0
C70 C 0.44469 0.26856 0.79925 0.0
O71 O 0.4033 0.26565 -0.00863 0.0
O72 O 0.4497 0.30494 0.05058 0.0
O73 O 0.47078 0.29779 0.81842 0.0
O74 O 0.41608 0.26305 0.83137 0.0
C75 C 0.39981 0.33474 0.8146 0.0
O76 O 0.49813 0.34752 0.90433 0.0
O77 O 0.469 0.3707 0.95207 0.0
In78 In 0.55669 0.86841 0.89074 0.0
O79 O 0.49868 0.84819 0.88813 0.0
O80 O 0.53025 0.88971 0.79839 0.0
C81 C 0.55947 0.83385 0.03456 0.0
C82 C 0.59289 0.93362 0.95755 0.0
C83 C 0.56609 0.82914 0.76691 0.0
O84 O 0.53145 0.83201 0.00862 0.0
O85 O 0.58619 0.8542 -0.00997 0.0
O86 O 0.58821 0.86129 0.77577 0.0
O87 O 0.53971 0.81846 0.81619 0.0
C88 C 0.50008 0.86912 0.82866 0.0
O89 O 0.60631 0.92264 0.90054 0.0
O90 O 0.56186 0.91208 0.97886 0.0
In91 In 0.69049 0.55759 0.03987 0.0
O92 O 0.65205 0.49983 0.05332 0.0
O93 O 0.63573 0.53027 0.97835 0.0
C94 C 0.7346 0.55588 0.15923 0.0
C95 C 0.67073 0.59945 0.12163 0.0
C96 C 0.73096 0.5663 0.89462 0.0
O97 O 0.70536 0.52934 0.14272 0.0
O98 O 0.74105 0.58308 0.11663 0.0
O99 O 0.73447 0.59203 0.93945 0.0
O100 O 0.70553 0.53753 0.91833 0.0
C101 C 0.62832 0.50052 0.00781 0.0
O102 O 0.67607 0.60099 0.03797 0.0
O103 O 0.67532 0.57709 0.16227 0.0
In104 In 0.13514 0.68987 0.21495 0.0
O105 O 0.07805 0.67749 0.2129 0.0
O106 O 0.09888 0.67016 0.33438 0.0
C107 C 0.17262 0.73674 0.0857 0.0
C108 C 0.13097 0.62945 0.16476 0.0
C109 C 0.17593 0.73168 0.34433 0.0
O110 O 0.14195 0.72997 0.10435 0.0
O111 O 0.18223 0.71804 0.12627 0.0
O112 O 0.17313 0.70226 0.32956 0.0
O113 O 0.1571 0.73914 0.29606 0.0
C114 C 0.07293 0.66847 0.29459 0.0
O115 O 0.15381 0.65068 0.21804 0.0
O116 O 0.10975 0.63847 0.13603 0.0
In117 In 0.45146 0.13956 0.40746 0.0
O118 O 0.50969 0.16062 0.40038 0.0
O119 O 0.4774 0.11882 0.31238 0.0
C120 C 0.4508 0.17184 0.55753 0.0
C121 C 0.41406 0.07419 0.47232 0.0
C122 C 0.43826 0.17864 0.2907 0.0
O123 O 0.47877 0.17568 0.52481 0.0
O124 O 0.42337 0.15065 0.51656 0.0
O125 O 0.42069 0.14561 0.28843 0.0
O126 O 0.46251 0.19074 0.34734 0.0
C127 C 0.50781 0.13957 0.34093 0.0
O128 O 0.40003 0.08754 0.42466 0.0
O129 O 0.4464 0.09336 0.48477 0.0
In130 In 0.31981 0.44711 0.54247 0.0
O131 O 0.36819 0.49871 0.57484 0.0
O132 O 0.36572 0.47674 0.44653 0.0
C133 C 0.27811 0.44875 0.66781 0.0
C134 C 0.33836 0.40341 0.61966 0.0
C135 C 0.27348 0.44043 0.41442 0.0
O136 O 0.30536 0.47612 0.64287 0.0
O137 O 0.27252 0.42086 0.63039 0.0
O138 O 0.27816 0.41516 0.43412 0.0
O139 O 0.29365 0.46851 0.45422 0.0
C140 C 0.38283 0.50151 0.50054 0.0
O141 O 0.33295 0.40254 0.53599 0.0
O142 O 0.33426 0.42571 0.66155 0.0
In143 In 0.87861 0.31366 0.68972 0.0
O144 O 0.87161 0.3594 0.7284 0.0
O145 O 0.89764 0.36278 0.60556 0.0
C146 C 0.82978 0.26809 0.79996 0.0
C147 C 0.94072 0.33322 0.76938 0.0
C148 C 0.84484 0.27367 0.54602 0.0
O149 O 0.83166 0.29672 0.77964 0.0
O150 O 0.85311 0.26315 0.76664 0.0
O151 O 0.868 0.27015 0.58689 0.0
O152 O 0.84125 0.29856 0.5735 0.0
C153 C 0.8864 0.377 0.6591 0.0
O154 O 0.93685 0.32913 0.68534 0.0
O155 O 0.91347 0.32665 0.81122 0.0
C156 C 0.21312 0.46517 0.29734 0.0
C157 C 0.19021 0.43473 0.25038 0.0
H158 H 0.25722 0.49083 0.38357 0.0
C159 C 0.19439 0.40532 0.25862 0.0
H160 H 0.21084 0.48838 0.29238 0.0
C161 C 0.22148 0.40675 0.31153 0.0
C162 C 0.2449 0.4377 0.35635 0.0
H163 H 0.17738 0.38158 0.22243 0.0
H164 H 0.2243 0.38388 0.31655 0.0
C165 C 0.24004 0.46666 0.34917 0.0
C166 C 0.81384 0.21418 0.47272 0.0
C167 C 0.82023 0.24863 0.47934 0.0
H168 H 0.78185 0.16322 0.4148 0.0
C169 C 0.79952 0.25821 0.42909 0.0
H170 H 0.82911 0.20593 0.51167 0.0
C171 C 0.77263 0.23402 0.37512 0.0
C172 C 0.76542 0.19933 0.3697 0.0
H173 H 0.80361 0.28444 0.43279 0.0
H174 H 0.75719 0.2426 0.33809 0.0
C175 C 0.78654 0.18965 0.41834 0.0
C176 C 0.54572 0.74536 0.6506 0.0
C177 C 0.57544 0.75516 0.59815 0.0
H178 H 0.51956 0.76082 0.74324 0.0
C179 C 0.60319 0.78984 0.60287 0.0
H180 H 0.52384 0.71894 0.64843 0.0
C181 C 0.60059 0.81439 0.65733 0.0
C182 C 0.57026 0.80451 0.70789 0.0
H183 H 0.62626 0.79824 0.56222 0.0
H184 H 0.62202 0.84102 0.65915 0.0
C185 C 0.54319 0.76958 0.70463 0.0
C186 C 0.81593 0.59706 0.76675 0.0
C187 C 0.8092 0.566 0.72396 0.0
H188 H 0.79618 0.62187 0.854 0.0
C189 C 0.77596 0.53635 0.73311 0.0
H190 H 0.84116 0.62043 0.76019 0.0
C191 C 0.75032 0.53732 0.78487 0.0
C192 C 0.75707 0.56792 0.82967 0.0
H193 H 0.7696 0.51207 0.70034 0.0
H194 H 0.72532 0.51364 0.79138 0.0
C195 C 0.79007 0.59798 0.81947 0.0
C196 C 0.21175 0.8125 0.91974 0.0
C197 C 0.24749 0.82312 0.92589 0.0
H198 H 0.15967 0.77675 0.96571 0.0
C199 C 0.25797 0.80592 0.98674 0.0
H200 H 0.20283 0.82507 0.87281 0.0
C201 C 0.2334 0.77795 0.0374 0.0
C202 C 0.19761 0.7666 0.02995 0.0
H203 H 0.28516 0.81317 -0.0071 0.0
H204 H 0.24261 0.76507 0.08246 0.0
C205 C 0.18701 0.78466 0.97209 0.0
C206 C 0.40579 0.18985 0.16724 0.0
C207 C 0.43134 0.20229 0.23477 0.0
H208 H 0.38272 0.20318 0.05848 0.0
C209 C 0.45112 0.23849 0.24956 0.0
H210 H 0.38994 0.16212 0.15481 0.0
C211 C 0.44678 0.26181 0.19562 0.0
C212 C 0.42251 0.24964 0.12529 0.0
H213 H 0.47072 0.24905 0.30184 0.0
H214 H 0.46351 0.28952 0.20685 0.0
C215 C 0.40142 0.21336 0.11287 0.0
C216 C 0.16113 0.56609 0.10566 0.0
C217 C 0.12944 0.535 0.09274 0.0
H218 H 0.18622 0.62018 0.1405 0.0
C219 C 0.09794 0.53518 0.10163 0.0
H220 H 0.18576 0.56657 0.09953 0.0
C221 C 0.09826 0.56622 0.12237 0.0
C222 C 0.13003 0.59705 0.13753 0.0
H223 H 0.0732 0.51149 0.0917 0.0
H224 H 0.07375 0.56593 0.12888 0.0
C225 C 0.1614 0.59668 0.12928 0.0
C226 C 0.56822 0.10551 0.28079 0.0
C227 C 0.59982 0.13673 0.2681 0.0
H228 H 0.51356 0.08201 0.31054 0.0
C229 C 0.60069 0.1687 0.27695 0.0
H230 H 0.56696 0.08057 0.27329 0.0
C231 C 0.57061 0.16954 0.30035 0.0
C232 C 0.53888 0.13839 0.31165 0.0
H233 H 0.62481 0.19308 0.26709 0.0
H234 H 0.57205 0.19453 0.30886 0.0
C235 C 0.53775 0.10633 0.30094 0.0
C236 C 0.43991 0.55198 0.54718 0.0
C237 C 0.41687 0.53209 0.4784 0.0
H238 H 0.48845 0.59721 0.58166 0.0
C239 C 0.426 0.54261 0.38913 0.0
H240 H 0.43351 0.54433 0.61656 0.0
C241 C 0.45708 0.57331 0.36928 0.0
C242 C 0.47991 0.5934 0.43826 0.0
H243 H 0.4086 0.52776 0.33495 0.0
H244 H 0.46315 0.58144 0.3001 0.0
C245 C 0.47137 0.58212 0.52721 0.0
C246 C 0.89062 0.45279 0.53161 0.0
C247 C 0.88703 0.47225 0.60064 0.0
H248 H 0.89405 0.40771 0.49644 0.0
C249 C 0.88505 0.46116 0.68961 0.0
H250 H 0.89233 0.46089 0.46245 0.0
C251 C 0.88529 0.43033 0.70889 0.0
C252 C 0.88842 0.41064 0.63968 0.0
H253 H 0.88218 0.47567 0.74399 0.0
H254 H 0.88278 0.42178 0.77783 0.0
C255 C 0.89174 0.42248 0.55107 0.0
C256 C 0.43978 0.90354 0.7699 0.0
C257 C 0.40735 0.87258 0.76718 0.0
H258 H 0.49511 0.92656 0.78846 0.0
C259 C 0.40595 0.8405 0.77996 0.0
H260 H 0.44147 0.92857 0.75953 0.0
C261 C 0.43634 0.83944 0.79853 0.0
C262 C 0.46875 0.87034 0.80147 0.0
H263 H 0.38123 0.81629 0.7781 0.0
H264 H 0.43451 0.81445 0.81095 0.0
C265 C 0.47038 0.90238 0.78553 0.0
C266 C 0.56218 0.40559 0.97029 0.0
C267 C 0.53158 0.40681 0.95375 0.0
H268 H 0.6166 0.43434 0.0021 0.0
C269 C 0.53289 0.43919 0.95474 0.0
H270 H 0.56184 0.38095 0.97022 0.0
C271 C 0.5645 0.46993 0.97082 0.0
C272 C 0.59496 0.46855 0.98874 0.0
H273 H 0.50962 0.44078 0.94189 0.0
H274 H 0.56502 0.49466 0.97066 0.0
C275 C 0.59345 0.4361 0.98883 0.0
C276 C 0.22763 0.41742 0.76963 0.0
C277 C 0.2539 0.44904 0.73406 0.0
H278 H 0.18372 0.39233 0.8567 0.0
C279 C 0.25599 0.48047 0.76018 0.0
H280 H 0.2255 0.39282 0.75059 0.0
C281 C 0.23176 0.48016 0.82033 0.0
C282 C 0.20548 0.44845 0.8557 0.0
H283 H 0.27598 0.50518 0.73324 0.0
H284 H 0.23367 0.50466 0.83936 0.0
C285 C 0.20374 0.41714 0.8303 0.0
C286 C 0.77881 0.18879 0.94468 0.0
C287 C 0.75092 0.19311 0.97207 0.0
H288 H 0.82574 0.20932 0.86833 0.0
C289 C 0.74827 0.22148 0.93959 0.0
H290 H 0.78143 0.16712 0.96891 0.0
C291 C 0.77389 0.24591 0.88305 0.0
C292 C 0.80226 0.24206 0.85761 0.0
H293 H 0.72706 0.22546 0.96017 0.0
H294 H 0.77167 0.26795 0.8601 0.0
C295 C 0.8042 0.21299 0.88751 0.0
C296 C 0.59356 0.79123 0.19125 0.0
C297 C 0.56252 0.76188 0.21949 0.0
H298 H 0.61685 0.83734 0.11079 0.0
C299 C 0.53035 0.7578 0.19209 0.0
H300 H 0.61873 0.79511 0.21199 0.0
C301 C 0.52928 0.78225 0.13507 0.0
C302 C 0.56038 0.81088 0.10413 0.0
H303 H 0.50605 0.73554 0.21372 0.0
H304 H 0.50416 0.77808 0.11284 0.0
C305 C 0.5925 0.81546 0.13371 0.0
C306 C 0.77892 0.52386 0.31813 0.0
C307 C 0.808 0.55546 0.3446 0.0
H308 H 0.73234 0.49923 0.23882 0.0
C309 C 0.81285 0.58697 0.30929 0.0
H310 H 0.77458 0.49923 0.34489 0.0
C311 C 0.78896 0.58695 0.24864 0.0
C312 C 0.75961 0.55545 0.22301 0.0
H313 H 0.8351 0.61169 0.32862 0.0
H314 H 0.79334 0.61167 0.22249 0.0
C315 C 0.75472 0.52386 0.25802 0.0
C316 C 0.22422 0.74921 0.45468 0.0
C317 C 0.20083 0.75654 0.40917 0.0
H318 H 0.26669 0.76754 0.54752 0.0
C319 C 0.20247 0.78868 0.42272 0.0
H320 H 0.22359 0.72466 0.44485 0.0
C321 C 0.2271 0.81314 0.48086 0.0
C322 C 0.25055 0.80591 0.52627 0.0
H323 H 0.18482 0.79504 0.38812 0.0
H324 H 0.22767 0.83768 0.49035 0.0
C325 C 0.24897 0.77378 0.51282 0.0
C326 C 0.47937 0.24857 0.71151 0.0
C327 C 0.44706 0.24256 0.74365 0.0
H328 H 0.506 0.23017 0.62795 0.0
C329 C 0.41659 0.21141 0.72156 0.0
H330 H 0.50327 0.27226 0.72847 0.0
C331 C 0.41815 0.18742 0.66466 0.0
C332 C 0.45022 0.19409 0.62923 0.0
H333 H 0.39137 0.20594 0.74629 0.0
H334 H 0.39408 0.1642 0.64607 0.0
C335 C 0.48096 0.2244 0.65478 0.0
C336 C 0.03801 0.38201 0.81483 0.0
C337 C 0.03897 0.38223 0.9091 0.0
H338 H 0.00622 0.3658 0.69638 0.0
C339 C 0.00757 0.36365 0.95632 0.0
H340 H 0.06183 0.39595 0.77648 0.0
C341 C 0.97575 0.34661 0.91037 0.0
C342 C 0.97468 0.34744 0.81619 0.0
H343 H 0.00746 0.36329 0.02884 0.0
H344 H 0.95186 0.33349 0.94881 0.0
C345 C 0.00619 0.36461 0.76882 0.0
C346 C 0.5919 0.98531 0.0179 0.0
C347 C 0.61116 0.96895 -0.00326 0.0
H348 H 0.5926 0.03036 0.07206 0.0
C349 C 0.64689 0.98584 0.01787 0.0
H350 H 0.56431 0.97281 0.00253 0.0
C351 C 0.6629 0.01843 0.06084 0.0
C352 C 0.64358 0.03492 0.08043 0.0
H353 H 0.66217 0.97353 0.00296 0.0
H354 H 0.69044 0.03107 0.07682 0.0
C355 C 0.60805 0.01816 0.0579 0.0
C356 C 0.65774 0.62091 0.26339 0.0
C357 C 0.65849 0.6207 0.16913 0.0
H358 H 0.64225 0.63719 0.3815 0.0
C359 C 0.6457 0.63933 0.12159 0.0
H360 H 0.6676 0.60693 0.30198 0.0
C361 C 0.63098 0.65643 0.1672 0.0
C362 C 0.62913 0.65562 0.26136 0.0
H363 H 0.64595 0.6397 0.04908 0.0
H364 H 0.62027 0.66961 0.12851 0.0
C365 C 0.6434 0.63837 0.30906 0.0
C366 C 0.00829 0.64453 0.29101 0.0
C367 C 0.03898 0.6553 0.34036 0.0
H368 H 0.95256 0.61936 0.2937 0.0
C369 C 0.03678 0.65148 0.43416 0.0
H370 H 0.00915 0.64718 0.21883 0.0
C371 C 1.00439 0.63598 0.47738 0.0
C372 C 0.97358 0.62355 0.4274 0.0
H373 H 0.06008 0.65976 0.47409 0.0
H374 H 1.00339 0.63234 0.54924 0.0
C375 C 0.97591 0.62859 0.33402 0.0
C376 C 0.4111 0.01907 0.51972 0.0
C377 C 0.39477 0.03914 0.51257 0.0
H378 H 0.40743 0.97156 0.56564 0.0
C379 C 0.36142 0.02646 0.54973 0.0
H380 H 0.43688 0.02839 0.49199 0.0
C381 C 0.34501 0.99433 0.59503 0.0
C382 C 0.36134 0.97415 0.60092 0.0
H383 H 0.34855 0.04177 0.54589 0.0
H384 H 0.31941 0.98501 0.62389 0.0
C385 C 0.39432 0.98666 0.56206 0.0
C386 C 0.36709 0.36667 0.62139 0.0
C387 C 0.3503 0.38182 0.66693 0.0
H388 H 0.39619 0.34 0.63282 0.0
C389 C 0.34749 0.37882 0.76077 0.0
H390 H 0.36974 0.36868 0.54924 0.0
C391 C 0.36226 0.3622 0.80849 0.0
C392 C 0.3806 0.3486 0.76356 0.0
H393 H 0.33452 0.39009 0.79777 0.0
H394 H 0.36042 0.36117 0.88085 0.0
C395 C 0.38233 0.35041 0.66937 0.0
loop_
_geom_bond_atom_site_label_1
_geom_bond_atom_site_label_2
_geom_bond_distance
_geom_bond_site_symmetry_2
_ccdc_geom_bond_type
In0 O1 2.294 . S
In0 O2 2.326 1_554 S
In0 O6 2.266 . S
In0 O7 2.326 . S
In0 O8 2.266 1_554 S
In0 O9 2.326 1_554 S
In0 O11 2.294 . S
In0 O12 2.326 . S
O1 In0 2.294 . S
O1 C10 1.240 1_554 S
O2 In0 2.326 1_556 S
O2 C10 1.252 . S
C3 O6 1.252 . S
C3 O7 1.260 . S
C4 O11 1.240 . S
C4 O12 1.252 . S
C5 O8 1.252 . S
C5 O9 1.260 . S
O6 In0 2.266 . S
O6 C3 1.252 . S
O7 In0 2.326 . S
O7 C3 1.260 . S
O8 In0 2.266 1_556 S
O8 C5 1.252 . S
O9 In0 2.326 1_556 S
O9 C5 1.260 . S
C10 O1 1.240 1_556 S
C10 O2 1.252 . S
O11 In0 2.294 . S
O11 C4 1.240 . S
O12 In0 2.326 . S
O12 C4 1.252 . S
In13 O14 2.294 . S
In13 O15 2.326 . S
In13 O19 2.266 . S
In13 O20 2.326 . S
In13 O21 2.266 . S
In13 O22 2.326 . S
In13 O24 2.294 . S
In13 O25 2.326 . S
O14 In13 2.294 . S
O14 C23 1.240 . S
O15 In13 2.326 . S
O15 C23 1.252 . S
C16 O19 1.252 . S
C16 O20 1.260 . S
C17 O24 1.240 . S
C17 O25 1.252 . S
C18 O21 1.252 . S
C18 O22 1.260 . S
O19 In13 2.266 . S
O19 C16 1.252 . S
O20 In13 2.326 . S
O20 C16 1.260 . S
O21 In13 2.266 . S
O21 C18 1.252 . S
O22 In13 2.326 . S
O22 C18 1.260 . S
C23 O14 1.240 . S
C23 O15 1.252 . S
O24 In13 2.294 . S
O24 C17 1.240 . S
O25 In13 2.326 . S
O25 C17 1.252 . S
In26 O27 2.294 . S
In26 O28 2.326 . S
In26 O32 2.266 . S
In26 O33 2.326 . S
In26 O34 2.266 . S
In26 O35 2.326 . S
In26 O37 2.294 . S
In26 O38 2.326 . S
O27 In26 2.294 . S
O27 C36 1.240 . S
O28 In26 2.326 . S
O28 C36 1.252 . S
C29 O32 1.252 . S
C29 O33 1.260 . S
C30 O37 1.240 . S
C30 O38 1.252 . S
C31 O34 1.252 . S
C31 O35 1.260 . S
O32 In26 2.266 . S
O32 C29 1.252 . S
O33 In26 2.326 . S
O33 C29 1.260 . S
O34 In26 2.266 . S
O34 C31 1.252 . S
O35 In26 2.326 . S
O35 C31 1.260 . S
C36 O27 1.240 . S
C36 O28 1.252 . S
O37 In26 2.294 . S
O37 C30 1.240 . S
O38 In26 2.326 . S
O38 C30 1.252 . S
In39 O40 2.294 . S
In39 O41 2.326 . S
In39 O45 2.266 . S
In39 O46 2.326 . S
In39 O47 2.266 . S
In39 O48 2.326 . S
In39 O50 2.294 . S
In39 O51 2.326 . S
O40 In39 2.294 . S
O40 C49 1.240 . S
O41 In39 2.326 . S
O41 C49 1.252 . S
C42 O45 1.252 . S
C42 O46 1.260 . S
C43 O50 1.240 . S
C43 O51 1.252 . S
C44 O47 1.252 . S
C44 O48 1.260 . S
O45 In39 2.266 . S
O45 C42 1.252 . S
O46 In39 2.326 . S
O46 C42 1.260 . S
O47 In39 2.266 . S
O47 C44 1.252 . S
O48 In39 2.326 . S
O48 C44 1.260 . S
C49 O40 1.240 . S
C49 O41 1.252 . S
O50 In39 2.294 . S
O50 C43 1.240 . S
O51 In39 2.326 . S
O51 C43 1.252 . S
In52 O53 2.294 . S
In52 O54 2.326 . S
In52 O58 2.266 . S
In52 O59 2.326 . S
In52 O60 2.266 . S
In52 O61 2.326 . S
In52 O63 2.294 . S
In52 O64 2.326 . S
O53 In52 2.294 . S
O53 C62 1.240 . S
O54 In52 2.326 . S
O54 C62 1.252 . S
C55 O58 1.252 . S
C55 O59 1.260 . S
C56 O63 1.240 . S
C56 O64 1.252 . S
C57 O60 1.252 . S
C57 O61 1.260 . S
O58 In52 2.266 . S
O58 C55 1.252 . S
O59 In52 2.326 . S
O59 C55 1.260 . S
O60 In52 2.266 . S
O60 C57 1.252 . S
O61 In52 2.326 . S
O61 C57 1.260 . S
C62 O53 1.240 . S
C62 O54 1.252 . S
O63 In52 2.294 . S
O63 C56 1.240 . S
O64 In52 2.326 . S
O64 C56 1.252 . S
In65 O66 2.294 . S
In65 O67 2.326 . S
In65 O71 2.266 1_556 S
In65 O72 2.326 . S
In65 O73 2.266 . S
In65 O74 2.326 . S
In65 O76 2.294 . S
In65 O77 2.326 . S
O66 In65 2.294 . S
O66 C75 1.240 . S
O67 In65 2.326 . S
O67 C75 1.252 . S
C68 O71 1.252 . S
C68 O72 1.260 1_554 S
C69 O76 1.240 . S
C69 O77 1.252 . S
C70 O73 1.252 . S
C70 O74 1.260 . S
O71 In65 2.266 1_554 S
O71 C68 1.252 . S
O72 In65 2.326 . S
O72 C68 1.260 1_556 S
O73 In65 2.266 . S
O73 C70 1.252 . S
O74 In65 2.326 . S
O74 C70 1.260 . S
C75 O66 1.240 . S
C75 O67 1.252 . S
O76 In65 2.294 . S
O76 C69 1.240 . S
O77 In65 2.326 . S
O77 C69 1.252 . S
In78 O79 2.294 . S
In78 O80 2.326 . S
In78 O84 2.266 . S
In78 O85 2.326 . S
In78 O86 2.266 . S
In78 O87 2.326 . S
In78 O89 2.294 . S
In78 O90 2.326 . S
O79 In78 2.294 . S
O79 C88 1.240 . S
O80 In78 2.326 . S
O80 C88 1.252 . S
C81 O84 1.252 1_554 S
C81 O85 1.260 1_554 S
C82 O89 1.240 . S
C82 O90 1.252 . S
C83 O86 1.252 . S
C83 O87 1.260 . S
O84 In78 2.266 . S
O84 C81 1.252 1_556 S
O85 In78 2.326 . S
O85 C81 1.260 1_556 S
O86 In78 2.266 . S
O86 C83 1.252 . S
O87 In78 2.326 . S
O87 C83 1.260 . S
C88 O79 1.240 . S
C88 O80 1.252 . S
O89 In78 2.294 . S
O89 C82 1.240 . S
O90 In78 2.326 . S
O90 C82 1.252 . S
In91 O92 2.294 . S
In91 O93 2.326 1_554 S
In91 O97 2.266 . S
In91 O98 2.326 . S
In91 O99 2.266 1_554 S
In91 O100 2.326 1_554 S
In91 O102 2.294 . S
In91 O103 2.326 . S
O92 In91 2.294 . S
O92 C101 1.240 . S
O93 In91 2.326 1_556 S
O93 C101 1.252 1_556 S
C94 O97 1.252 . S
C94 O98 1.260 . S
C95 O102 1.240 . S
C95 O103 1.252 . S
C96 O99 1.252 . S
C96 O100 1.260 . S
O97 In91 2.266 . S
O97 C94 1.252 . S
O98 In91 2.326 . S
O98 C94 1.260 . S
O99 In91 2.266 1_556 S
O99 C96 1.252 . S
O100 In91 2.326 1_556 S
O100 C96 1.260 . S
C101 O92 1.240 . S
C101 O93 1.252 1_554 S
O102 In91 2.294 . S
O102 C95 1.240 . S
O103 In91 2.326 . S
O103 C95 1.252 . S
In104 O105 2.294 . S
In104 O106 2.326 . S
In104 O110 2.266 . S
In104 O111 2.326 . S
In104 O112 2.266 . S
In104 O113 2.326 . S
In104 O115 2.294 . S
In104 O116 2.326 . S
O105 In104 2.294 . S
O105 C114 1.240 . S
O106 In104 2.326 . S
O106 C114 1.252 . S
C107 O110 1.252 . S
C107 O111 1.260 . S
C108 O115 1.240 . S
C108 O116 1.252 . S
C109 O112 1.252 . S
C109 O113 1.260 . S
O110 In104 2.266 . S
O110 C107 1.252 . S
O111 In104 2.326 . S
O111 C107 1.260 . S
O112 In104 2.266 . S
O112 C109 1.252 . S
O113 In104 2.326 . S
O113 C109 1.260 . S
C114 O105 1.240 . S
C114 O106 1.252 . S
O115 In104 2.294 . S
O115 C108 1.240 . S
O116 In104 2.326 . S
O116 C108 1.252 . S
In117 O118 2.294 . S
In117 O119 2.326 . S
In117 O123 2.266 . S
In117 O124 2.326 . S
In117 O125 2.266 . S
In117 O126 2.326 . S
In117 O128 2.294 . S
In117 O129 2.326 . S
O118 In117 2.294 . S
O118 C127 1.240 . S
O119 In117 2.326 . S
O119 C127 1.252 . S
C120 O123 1.252 . S
C120 O124 1.260 . S
C121 O128 1.240 . S
C121 O129 1.252 . S
C122 O125 1.252 . S
C122 O126 1.260 . S
O123 In117 2.266 . S
O123 C120 1.252 . S
O124 In117 2.326 . S
O124 C120 1.260 . S
O125 In117 2.266 . S
O125 C122 1.252 . S
O126 In117 2.326 . S
O126 C122 1.260 . S
C127 O118 1.240 . S
C127 O119 1.252 . S
O128 In117 2.294 . S
O128 C121 1.240 . S
O129 In117 2.326 . S
O129 C121 1.252 . S
In130 O131 2.294 . S
In130 O132 2.326 . S
In130 O136 2.266 . S
In130 O137 2.326 . S
In130 O138 2.266 . S
In130 O139 2.326 . S
In130 O141 2.294 . S
In130 O142 2.326 . S
O131 In130 2.294 . S
O131 C140 1.240 . S
O132 In130 2.326 . S
O132 C140 1.252 . S
C133 O136 1.252 . S
C133 O137 1.260 . S
C134 O141 1.240 . S
C134 O142 1.252 . S
C135 O138 1.252 . S
C135 O139 1.260 . S
O136 In130 2.266 . S
O136 C133 1.252 . S
O137 In130 2.326 . S
O137 C133 1.260 . S
O138 In130 2.266 . S
O138 C135 1.252 . S
O139 In130 2.326 . S
O139 C135 1.260 . S
C140 O131 1.240 . S
C140 O132 1.252 . S
O141 In130 2.294 . S
O141 C134 1.240 . S
O142 In130 2.326 . S
O142 C134 1.252 . S
In143 O144 2.294 . S
In143 O145 2.326 . S
In143 O149 2.266 . S
In143 O150 2.326 . S
In143 O151 2.266 . S
In143 O152 2.326 . S
In143 O154 2.294 . S
In143 O155 2.326 . S
O144 In143 2.294 . S
O144 C153 1.240 . S
O145 In143 2.326 . S
O145 C153 1.252 . S
C146 O149 1.252 . S
C146 O150 1.260 . S
C147 O154 1.240 . S
C147 O155 1.252 . S
C148 O151 1.252 . S
C148 O152 1.260 . S
O149 In143 2.266 . S
O149 C146 1.252 . S
O150 In143 2.326 . S
O150 C146 1.260 . S
O151 In143 2.266 . S
O151 C148 1.252 . S
O152 In143 2.326 . S
O152 C148 1.260 . S
C153 O144 1.240 . S
C153 O145 1.252 . S
O154 In143 2.294 . S
O154 C147 1.240 . S
O155 In143 2.326 . S
O155 C147 1.252 . S
C156 C157 1.387 . S
C156 H160 0.950 . S
C156 C165 1.390 . S
C157 C156 1.387 . S
C157 C159 1.387 . S
H158 C165 0.950 . S
C159 C157 1.387 . S
C159 C161 1.390 . S
C159 H163 0.950 . S
H160 C156 0.950 . S
C161 C159 1.390 . S
C161 C162 1.387 . S
C161 H164 0.950 . S
C162 C161 1.387 . S
C162 C165 1.387 . S
H163 C159 0.950 . S
H164 C161 0.950 . S
C165 C156 1.390 . S
C165 H158 0.950 . S
C165 C162 1.387 . S
C166 C167 1.387 . S
C166 H170 0.950 . S
C166 C175 1.390 . S
C167 C166 1.387 . S
C167 C169 1.387 . S
H168 C175 0.950 . S
C169 C167 1.387 . S
C169 C171 1.390 . S
C169 H173 0.950 . S
H170 C166 0.950 . S
C171 C169 1.390 . S
C171 C172 1.387 . S
C171 H174 0.950 . S
C172 C171 1.387 . S
C172 C175 1.387 . S
H173 C169 0.950 . S
H174 C171 0.950 . S
C175 C166 1.390 . S
C175 H168 0.950 . S
C175 C172 1.387 . S
C176 C177 1.387 . S
C176 H180 0.950 . S
C176 C185 1.390 . S
C177 C176 1.387 . S
C177 C179 1.387 . S
H178 C185 0.950 . S
C179 C177 1.387 . S
C179 C181 1.390 . S
C179 H183 0.950 . S
H180 C176 0.950 . S
C181 C179 1.390 . S
C181 C182 1.387 . S
C181 H184 0.950 . S
C182 C181 1.387 . S
C182 C185 1.387 . S
H183 C179 0.950 . S
H184 C181 0.950 . S
C185 C176 1.390 . S
C185 H178 0.950 . S
C185 C182 1.387 . S
C186 C187 1.387 . S
C186 H190 0.950 . S
C186 C195 1.390 . S
C187 C186 1.387 . S
C187 C189 1.387 . S
H188 C195 0.950 . S
C189 C187 1.387 . S
C189 C191 1.390 . S
C189 H193 0.950 . S
H190 C186 0.950 . S
C191 C189 1.390 . S
C191 C192 1.387 . S
C191 H194 0.950 . S
C192 C191 1.387 . S
C192 C195 1.387 . S
H193 C189 0.950 . S
H194 C191 0.950 . S
C195 C186 1.390 . S
C195 H188 0.950 . S
C195 C192 1.387 . S
C196 C197 1.387 . S
C196 H200 0.950 . S
C196 C205 1.390 1_556 S
C197 C196 1.387 . S
C197 C199 1.387 . S
H198 C205 0.950 . S
C199 C197 1.387 . S
C199 C201 1.390 . S
C199 H203 0.950 . S
H200 C196 0.950 . S
C201 C199 1.390 . S
C201 C202 1.387 1_556 S
C201 H204 0.950 . S
C202 C201 1.387 1_554 S
C202 C205 1.387 . S
H203 C199 0.950 . S
H204 C201 0.950 . S
C205 C196 1.390 1_554 S
C205 H198 0.950 . S
C205 C202 1.387 . S
C206 C207 1.387 . S
C206 H210 0.950 . S
C206 C215 1.390 . S
C207 C206 1.387 . S
C207 C209 1.387 . S
H208 C215 0.950 1_556 S
C209 C207 1.387 . S
C209 C211 1.390 . S
C209 H213 0.950 . S
H210 C206 0.950 . S
C211 C209 1.390 . S
C211 C212 1.387 . S
C211 H214 0.950 . S
C212 C211 1.387 . S
C212 C215 1.387 . S
H213 C209 0.950 . S
H214 C211 0.950 . S
C215 C206 1.390 . S
C215 H208 0.950 1_554 S
C215 C212 1.387 . S
C216 C217 1.387 . S
C216 H220 0.950 . S
C216 C225 1.390 . S
C217 C216 1.387 . S
C217 C219 1.387 . S
H218 C225 0.950 . S
C219 C217 1.387 . S
C219 C221 1.390 . S
C219 H223 0.950 . S
H220 C216 0.950 . S
C221 C219 1.390 . S
C221 C222 1.387 . S
C221 H224 0.950 . S
C222 C221 1.387 . S
C222 C225 1.387 . S
H223 C219 0.950 . S
H224 C221 0.950 . S
C225 C216 1.390 . S
C225 H218 0.950 . S
C225 C222 1.387 . S
C226 C227 1.387 . S
C226 H230 0.950 . S
C226 C235 1.390 . S
C227 C226 1.387 . S
C227 C229 1.387 . S
H228 C235 0.950 . S
C229 C227 1.387 . S
C229 C231 1.390 . S
C229 H233 0.950 . S
H230 C226 0.950 . S
C231 C229 1.390 . S
C231 C232 1.387 . S
C231 H234 0.950 . S
C232 C231 1.387 . S
C232 C235 1.387 . S
H233 C229 0.950 . S
H234 C231 0.950 . S
C235 C226 1.390 . S
C235 H228 0.950 . S
C235 C232 1.387 . S
C236 C237 1.387 . S
C236 H240 0.950 . S
C236 C245 1.390 . S
C237 C236 1.387 . S
C237 C239 1.387 . S
H238 C245 0.950 . S
C239 C237 1.387 . S
C239 C241 1.390 . S
C239 H243 0.950 . S
H240 C236 0.950 . S
C241 C239 1.390 . S
C241 C242 1.387 . S
C241 H244 0.950 . S
C242 C241 1.387 . S
C242 C245 1.387 . S
H243 C239 0.950 . S
H244 C241 0.950 . S
C245 C236 1.390 . S
C245 H238 0.950 . S
C245 C242 1.387 . S
C246 C247 1.387 . S
C246 H250 0.950 . S
C246 C255 1.390 . S
C247 C246 1.387 . S
C247 C249 1.387 . S
H248 C255 0.950 . S
C249 C247 1.387 . S
C249 C251 1.390 . S
C249 H253 0.950 . S
H250 C246 0.950 . S
C251 C249 1.390 . S
C251 C252 1.387 . S
C251 H254 0.950 . S
C252 C251 1.387 . S
C252 C255 1.387 . S
H253 C249 0.950 . S
H254 C251 0.950 . S
C255 C246 1.390 . S
C255 H248 0.950 . S
C255 C252 1.387 . S
C256 C257 1.387 . S
C256 H260 0.950 . S
C256 C265 1.390 . S
C257 C256 1.387 . S
C257 C259 1.387 . S
H258 C265 0.950 . S
C259 C257 1.387 . S
C259 C261 1.390 . S
C259 H263 0.950 . S
H260 C256 0.950 . S
C261 C259 1.390 . S
C261 C262 1.387 . S
C261 H264 0.950 . S
C262 C261 1.387 . S
C262 C265 1.387 . S
H263 C259 0.950 . S
H264 C261 0.950 . S
C265 C256 1.390 . S
C265 H258 0.950 . S
C265 C262 1.387 . S
C266 C267 1.387 1_554 S
C266 H270 0.950 . S
C266 C275 1.390 . S
C267 C266 1.387 1_556 S
C267 C269 1.387 . S
H268 C275 0.950 . S
C269 C267 1.387 . S
C269 C271 1.390 . S
C269 H273 0.950 . S
H270 C266 0.950 . S
C271 C269 1.390 . S
C271 C272 1.387 . S
C271 H274 0.950 . S
C272 C271 1.387 . S
C272 C275 1.387 1_556 S
H273 C269 0.950 . S
H274 C271 0.950 . S
C275 C266 1.390 . S
C275 H268 0.950 . S
C275 C272 1.387 1_554 S
C276 C277 1.387 . S
C276 H280 0.950 . S
C276 C285 1.390 . S
C277 C276 1.387 . S
C277 C279 1.387 . S
H278 C285 0.950 . S
C279 C277 1.387 . S
C279 C281 1.390 . S
C279 H283 0.950 . S
H280 C276 0.950 . S
C281 C279 1.390 . S
C281 C282 1.387 . S
C281 H284 0.950 . S
C282 C281 1.387 . S
C282 C285 1.387 . S
H283 C279 0.950 . S
H284 C281 0.950 . S
C285 C276 1.390 . S
C285 H278 0.950 . S
C285 C282 1.387 . S
C286 C287 1.387 . S
C286 H290 0.950 . S
C286 C295 1.390 1_554 S
C287 C286 1.387 . S
C287 C289 1.387 1_554 S
H288 C295 0.950 . S
C289 C287 1.387 1_556 S
C289 C291 1.390 . S
C289 H293 0.950 1_556 S
H290 C286 0.950 . S
C291 C289 1.390 . S
C291 C292 1.387 . S
C291 H294 0.950 . S
C292 C291 1.387 . S
C292 C295 1.387 . S
H293 C289 0.950 1_554 S
H294 C291 0.950 . S
C295 C286 1.390 1_556 S
C295 H288 0.950 . S
C295 C292 1.387 . S
C296 C297 1.387 . S
C296 H300 0.950 . S
C296 C305 1.390 . S
C297 C296 1.387 . S
C297 C299 1.387 . S
H298 C305 0.950 . S
C299 C297 1.387 . S
C299 C301 1.390 . S
C299 H303 0.950 . S
H300 C296 0.950 . S
C301 C299 1.390 . S
C301 C302 1.387 . S
C301 H304 0.950 . S
C302 C301 1.387 . S
C302 C305 1.387 . S
H303 C299 0.950 . S
H304 C301 0.950 . S
C305 C296 1.390 . S
C305 H298 0.950 . S
C305 C302 1.387 . S
C306 C307 1.387 . S
C306 H310 0.950 . S
C306 C315 1.390 . S
C307 C306 1.387 . S
C307 C309 1.387 . S
H308 C315 0.950 . S
C309 C307 1.387 . S
C309 C311 1.390 . S
C309 H313 0.950 . S
H310 C306 0.950 . S
C311 C309 1.390 . S
C311 C312 1.387 . S
C311 H314 0.950 . S
C312 C311 1.387 . S
C312 C315 1.387 . S
H313 C309 0.950 . S
H314 C311 0.950 . S
C315 C306 1.390 . S
C315 H308 0.950 . S
C315 C312 1.387 . S
C316 C317 1.387 . S
C316 H320 0.950 . S
C316 C325 1.390 . S
C317 C316 1.387 . S
C317 C319 1.387 . S
H318 C325 0.950 . S
C319 C317 1.387 . S
C319 C321 1.390 . S
C319 H323 0.950 . S
H320 C316 0.950 . S
C321 C319 1.390 . S
C321 C322 1.387 . S
C321 H324 0.950 . S
C322 C321 1.387 . S
C322 C325 1.387 . S
H323 C319 0.950 . S
H324 C321 0.950 . S
C325 C316 1.390 . S
C325 H318 0.950 . S
C325 C322 1.387 . S
C326 C327 1.387 . S
C326 H330 0.950 . S
C326 C335 1.390 . S
C327 C326 1.387 . S
C327 C329 1.387 . S
H328 C335 0.950 . S
C329 C327 1.387 . S
C329 C331 1.390 . S
C329 H333 0.950 . S
H330 C326 0.950 . S
C331 C329 1.390 . S
C331 C332 1.387 . S
C331 H334 0.950 . S
C332 C331 1.387 . S
C332 C335 1.387 . S
H333 C329 0.950 . S
H334 C331 0.950 . S
C335 C326 1.390 . S
C335 H328 0.950 . S
C335 C332 1.387 . S
C336 C337 1.387 . S
C336 H340 0.950 . S
C336 C345 1.389 1_455 S
C337 C336 1.387 . S
C337 C339 1.388 . S
H338 C345 0.949 . S
C339 C337 1.388 . S
C339 C341 1.389 1_455 S
C339 H343 0.949 1_556 S
H340 C336 0.950 . S
C341 C339 1.389 1_655 S
C341 C342 1.387 . S
C341 H344 0.950 . S
C342 C341 1.387 . S
C342 C345 1.388 . S
H343 C339 0.949 1_554 S
H344 C341 0.950 . S
C345 C336 1.389 1_655 S
C345 H338 0.949 . S
C345 C342 1.388 . S
C346 C347 1.384 1_554 S
C346 H350 0.950 . S
C346 C355 1.390 1_565 S
C347 C346 1.384 1_556 S
C347 C349 1.384 1_556 S
H348 C355 0.950 . S
C349 C347 1.384 1_554 S
C349 C351 1.390 1_565 S
C349 H353 0.950 . S
H350 C346 0.950 . S
C351 C349 1.390 1_545 S
C351 C352 1.387 . S
C351 H354 0.950 . S
C352 C351 1.387 . S
C352 C355 1.387 . S
H353 C349 0.950 . S
H354 C351 0.950 . S
C355 C346 1.390 1_545 S
C355 H348 0.950 . S
C355 C352 1.387 . S
C356 C357 1.387 . S
C356 H360 0.950 . S
C356 C365 1.390 . S
C357 C356 1.387 . S
C357 C359 1.387 . S
H358 C365 0.950 . S
C359 C357 1.387 . S
C359 C361 1.390 . S
C359 H363 0.950 . S
H360 C356 0.950 . S
C361 C359 1.390 . S
C361 C362 1.387 . S
C361 H364 0.950 . S
C362 C361 1.387 . S
C362 C365 1.387 . S
H363 C359 0.950 . S
H364 C361 0.950 . S
C365 C356 1.390 . S
C365 H358 0.950 . S
C365 C362 1.387 . S
C366 C367 1.387 . S
C366 H370 0.950 . S
C366 C375 1.390 1_455 S
C367 C366 1.387 . S
C367 C369 1.387 . S
H368 C375 0.950 . S
C369 C367 1.387 . S
C369 C371 1.390 1_455 S
C369 H373 0.950 . S
H370 C366 0.950 . S
C371 C369 1.390 1_655 S
C371 C372 1.387 . S
C371 H374 0.950 . S
C372 C371 1.387 . S
C372 C375 1.387 . S
H373 C369 0.950 . S
H374 C371 0.950 . S
C375 C366 1.390 1_655 S
C375 H368 0.950 . S
C375 C372 1.387 . S
C376 C377 1.387 . S
C376 H380 0.950 . S
C376 C385 1.390 1_545 S
C377 C376 1.387 . S
C377 C379 1.387 . S
H378 C385 0.950 . S
C379 C377 1.387 . S
C379 C381 1.390 1_545 S
C379 H383 0.950 . S
H380 C376 0.950 . S
C381 C379 1.390 1_565 S
C381 C382 1.387 . S
C381 H384 0.950 . S
C382 C381 1.387 . S
C382 C385 1.387 . S
H383 C379 0.950 . S
H384 C381 0.950 . S
C385 C376 1.390 1_565 S
C385 H378 0.950 . S
C385 C382 1.387 . S
C386 C387 1.387 . S
C386 H390 0.950 . S
C386 C395 1.390 . S
C387 C386 1.387 . S
C387 C389 1.387 . S
H388 C395 0.950 . S
C389 C387 1.387 . S
C389 C391 1.390 . S
C389 H393 0.950 . S
H390 C386 0.950 . S
C391 C389 1.390 . S
C391 C392 1.387 . S
C391 H394 0.950 . S
C392 C391 1.387 . S
C392 C395 1.387 . S
H393 C389 0.950 . S
H394 C391 0.950 . S
C395 C386 1.390 . S
C395 H388 0.950 . S
C395 C392 1.387 . S
C157 C3 1.515 . S
C162 C135 1.515 . S
C167 C148 1.516 . S
C172 C16 1.515 . S
C177 C29 1.515 . S
C182 C83 1.516 . S
C187 C44 1.517 . S
C192 C96 1.517 . S
C197 C57 1.516 . S
C202 C107 1.516 . S
C207 C122 1.515 . S
C212 C68 1.516 . S
C217 C4 1.695 . S
C222 C108 1.695 . S
C227 C17 1.694 . S
C232 C127 1.694 . S
C237 C140 1.695 . S
C242 C30 1.695 . S
C247 C49 1.694 . S
C252 C153 1.695 . S
C257 C62 1.694 . S
C262 C88 1.694 . S
C267 C69 1.695 . S
C272 C101 1.695 1_556 S
C277 C133 1.490 . S
C282 C5 1.490 . S
C287 C18 1.489 . S
C292 C146 1.490 . S
C297 C31 1.490 . S
C302 C81 1.490 . S
C307 C42 1.490 . S
C312 C94 1.490 . S
C317 C109 1.490 . S
C322 C55 1.490 . S
C327 C70 1.490 . S
C332 C120 1.490 . S
C337 C10 1.453 . S
C342 C147 1.454 . S
C347 C82 1.459 . S
C352 C23 1.454 . S
C357 C95 1.454 . S
C362 C36 1.454 . S
C367 C114 1.452 . S
C372 C43 1.452 . S
C377 C121 1.454 . S
C382 C56 1.454 . S
C387 C134 1.454 . S
C392 C75 1.453 . S
