# Generated by pormake.
# Topology lcv-a, (4)-cn, num edge types: 1
# Building blocks:
#     Node 0, Type 0, BuildingBlock: QUQFOY_clean_sbu_3, # of connection points: 4
#     Node 1, Type 0, BuildingBlock: QUQFOY_clean_sbu_3, # of connection points: 4
#     Node 2, Type 0, BuildingBlock: QUQFOY_clean_sbu_3, # of connection points: 4
#     Node 3, Type 0, BuildingBlock: QUQFOY_clean_sbu_3, # of connection points: 4
#     Node 4, Type 0, BuildingBlock: QUQFOY_clean_sbu_3, # of connection points: 4
#     Node 5, Type 0, BuildingBlock: QUQFOY_clean_sbu_3, # of connection points: 4
#     Node 6, Type 0, BuildingBlock: QUQFOY_clean_sbu_3, # of connection points: 4
#     Node 7, Type 0, BuildingBlock: QUQFOY_clean_sbu_3, # of connection points: 4
#     Node 8, Type 0, BuildingBlock: QUQFOY_clean_sbu_3, # of connection points: 4
#     Node 9, Type 0, BuildingBlock: QUQFOY_clean_sbu_3, # of connection points: 4
#     Node 10, Type 0, BuildingBlock: QUQFOY_clean_sbu_3, # of connection points: 4
#     Node 11, Type 0, BuildingBlock: QUQFOY_clean_sbu_3, # of connection points: 4
#     Node 12, Type 0, BuildingBlock: QUQFOY_clean_sbu_3, # of connection points: 4
#     Node 13, Type 0, BuildingBlock: QUQFOY_clean_sbu_3, # of connection points: 4
#     Node 14, Type 0, BuildingBlock: QUQFOY_clean_sbu_3, # of connection points: 4
#     Node 15, Type 0, BuildingBlock: QUQFOY_clean_sbu_3, # of connection points: 4
#     Node 16, Type 0, BuildingBlock: QUQFOY_clean_sbu_3, # of connection points: 4
#     Node 17, Type 0, BuildingBlock: QUQFOY_clean_sbu_3, # of connection points: 4
#     Node 18, Type 0, BuildingBlock: QUQFOY_clean_sbu_3, # of connection points: 4
#     Node 19, Type 0, BuildingBlock: QUQFOY_clean_sbu_3, # of connection points: 4
#     Node 20, Type 0, BuildingBlock: QUQFOY_clean_sbu_3, # of connection points: 4
#     Node 21, Type 0, BuildingBlock: QUQFOY_clean_sbu_3, # of connection points: 4
#     Node 22, Type 0, BuildingBlock: QUQFOY_clean_sbu_3, # of connection points: 4
#     Node 23, Type 0, BuildingBlock: QUQFOY_clean_sbu_3, # of connection points: 4
#     Node 24, Type 0, BuildingBlock: QUQFOY_clean_sbu_3, # of connection points: 4
#     Node 25, Type 0, BuildingBlock: QUQFOY_clean_sbu_3, # of connection points: 4
#     Node 26, Type 0, BuildingBlock: QUQFOY_clean_sbu_3, # of connection points: 4
#     Node 27, Type 0, BuildingBlock: QUQFOY_clean_sbu_3, # of connection points: 4
#     Node 28, Type 0, BuildingBlock: QUQFOY_clean_sbu_3, # of connection points: 4
#     Node 29, Type 0, BuildingBlock: QUQFOY_clean_sbu_3, # of connection points: 4
#     Node 30, Type 0, BuildingBlock: QUQFOY_clean_sbu_3, # of connection points: 4
#     Node 31, Type 0, BuildingBlock: QUQFOY_clean_sbu_3, # of connection points: 4
#     Node 32, Type 0, BuildingBlock: QUQFOY_clean_sbu_3, # of connection points: 4
#     Node 33, Type 0, BuildingBlock: QUQFOY_clean_sbu_3, # of connection points: 4
#     Node 34, Type 0, BuildingBlock: QUQFOY_clean_sbu_3, # of connection points: 4
#     Node 35, Type 0, BuildingBlock: QUQFOY_clean_sbu_3, # of connection points: 4
#     Node 36, Type 0, BuildingBlock: QUQFOY_clean_sbu_3, # of connection points: 4
#     Node 37, Type 0, BuildingBlock: QUQFOY_clean_sbu_3, # of connection points: 4
#     Node 38, Type 0, BuildingBlock: QUQFOY_clean_sbu_3, # of connection points: 4
#     Node 39, Type 0, BuildingBlock: QUQFOY_clean_sbu_3, # of connection points: 4
#     Node 40, Type 0, BuildingBlock: QUQFOY_clean_sbu_3, # of connection points: 4
#     Node 41, Type 0, BuildingBlock: QUQFOY_clean_sbu_3, # of connection points: 4
#     Node 42, Type 0, BuildingBlock: QUQFOY_clean_sbu_3, # of connection points: 4
#     Node 43, Type 0, BuildingBlock: QUQFOY_clean_sbu_3, # of connection points: 4
#     Node 44, Type 0, BuildingBlock: QUQFOY_clean_sbu_3, # of connection points: 4
#     Node 45, Type 0, BuildingBlock: QUQFOY_clean_sbu_3, # of connection points: 4
#     Node 46, Type 0, BuildingBlock: QUQFOY_clean_sbu_3, # of connection points: 4
#     Node 47, Type 0, BuildingBlock: QUQFOY_clean_sbu_3, # of connection points: 4
#     Edge 48, Type (0, 0), None
#     Edge 49, Type (0, 0), None
#     Edge 50, Type (0, 0), None
#     Edge 51, Type (0, 0), None
#     Edge 52, Type (0, 0), None
#     Edge 53, Type (0, 0), None
#     Edge 54, Type (0, 0), None
#     Edge 55, Type (0, 0), None
#     Edge 56, Type (0, 0), None
#     Edge 57, Type (0, 0), None
#     Edge 58, Type (0, 0), None
#     Edge 59, Type (0, 0), None
#     Edge 60, Type (0, 0), None
#     Edge 61, Type (0, 0), None
#     Edge 62, Type (0, 0), None
#     Edge 63, Type (0, 0), None
#     Edge 64, Type (0, 0), None
#     Edge 65, Type (0, 0), None
#     Edge 66, Type (0, 0), None
#     Edge 67, Type (0, 0), None
#     Edge 68, Type (0, 0), None
#     Edge 69, Type (0, 0), None
#     Edge 70, Type (0, 0), None
#     Edge 71, Type (0, 0), None
#     Edge 72, Type (0, 0), None
#     Edge 73, Type (0, 0), None
#     Edge 74, Type (0, 0), None
#     Edge 75, Type (0, 0), None
#     Edge 76, Type (0, 0), None
#     Edge 77, Type (0, 0), None
#     Edge 78, Type (0, 0), None
#     Edge 79, Type (0, 0), None
#     Edge 80, Type (0, 0), None
#     Edge 81, Type (0, 0), None
#     Edge 82, Type (0, 0), None
#     Edge 83, Type (0, 0), None
#     Edge 84, Type (0, 0), None
#     Edge 85, Type (0, 0), None
#     Edge 86, Type (0, 0), None
#     Edge 87, Type (0, 0), None
#     Edge 88, Type (0, 0), None
#     Edge 89, Type (0, 0), None
#     Edge 90, Type (0, 0), None
#     Edge 91, Type (0, 0), None
#     Edge 92, Type (0, 0), None
#     Edge 93, Type (0, 0), None
#     Edge 94, Type (0, 0), None
#     Edge 95, Type (0, 0), None
#     Edge 96, Type (0, 0), None
#     Edge 97, Type (0, 0), None
#     Edge 98, Type (0, 0), None
#     Edge 99, Type (0, 0), None
#     Edge 100, Type (0, 0), None
#     Edge 101, Type (0, 0), None
#     Edge 102, Type (0, 0), None
#     Edge 103, Type (0, 0), None
#     Edge 104, Type (0, 0), None
#     Edge 105, Type (0, 0), None
#     Edge 106, Type (0, 0), None
#     Edge 107, Type (0, 0), None
#     Edge 108, Type (0, 0), None
#     Edge 109, Type (0, 0), None
#     Edge 110, Type (0, 0), None
#     Edge 111, Type (0, 0), None
#     Edge 112, Type (0, 0), None
#     Edge 113, Type (0, 0), None
#     Edge 114, Type (0, 0), None
#     Edge 115, Type (0, 0), None
#     Edge 116, Type (0, 0), None
#     Edge 117, Type (0, 0), None
#     Edge 118, Type (0, 0), None
#     Edge 119, Type (0, 0), None
#     Edge 120, Type (0, 0), None
#     Edge 121, Type (0, 0), None
#     Edge 122, Type (0, 0), None
#     Edge 123, Type (0, 0), None
#     Edge 124, Type (0, 0), None
#     Edge 125, Type (0, 0), None
#     Edge 126, Type (0, 0), None
#     Edge 127, Type (0, 0), None
#     Edge 128, Type (0, 0), None
#     Edge 129, Type (0, 0), None
#     Edge 130, Type (0, 0), None
#     Edge 131, Type (0, 0), None
#     Edge 132, Type (0, 0), None
#     Edge 133, Type (0, 0), None
#     Edge 134, Type (0, 0), None
#     Edge 135, Type (0, 0), None
#     Edge 136, Type (0, 0), None
#     Edge 137, Type (0, 0), None
#     Edge 138, Type (0, 0), None
#     Edge 139, Type (0, 0), None
#     Edge 140, Type (0, 0), None
#     Edge 141, Type (0, 0), None
#     Edge 142, Type (0, 0), None
#     Edge 143, Type (0, 0), None
# Relax obj value: 0.798
# Max RMSD: 0.537
# Mean RMSD: 0.410
data_MOF--net-lcv-a--node1-QUQFOY_clean_sbu_3--edge1-none
_symmetry_space_group_name_H-M    P1
_symmetry_Int_Tables_number       1
_symmetry_cell_setting            triclinic
loop_
_symmetry_equiv_pos_as_xyz
'x, y, z'
_cell_length_a     40.680803
_cell_length_b     40.676554
_cell_length_c     40.687948
_cell_angle_alpha  89.558839
_cell_angle_beta   89.514822
_cell_angle_gamma 89.551793
loop_
_atom_site_label
_atom_site_type_symbol
_atom_site_fract_x
_atom_site_fract_y
_atom_site_fract_z
_atom_type_partial_charge
C0 C 0.06052 0.30249 0.25011 0.0
O1 O 0.03804 0.3187 0.26444 0.0
Cd2 Cd 0.00759 0.33671 0.21811 0.0
O3 O 0.0779 0.31752 0.22861 0.0
Cd4 Cd 0.07525 0.37532 0.20511 0.0
C5 C 0.06617 0.32398 0.15045 0.0
O6 O 0.01738 0.39244 0.21516 0.0
O7 O 0.03768 0.40674 0.16852 0.0
O8 O 0.09707 0.3989 0.25399 0.0
C9 C 0.01256 0.4054 0.18716 0.0
O10 O 0.04216 0.32323 0.17061 0.0
C11 C 0.10798 0.42403 0.23881 0.0
O12 O 0.08981 0.34379 0.15505 0.0
O13 O 0.11364 0.4206 0.20816 0.0
C14 C 0.96792 0.78251 0.50086 0.0
O15 O 0.9614 0.75452 0.48976 0.0
Cd16 Cd 0.93606 0.77004 0.43493 0.0
O17 O 0.95321 0.80612 0.48664 0.0
Cd18 Cd 0.93521 0.7765 0.43609 0.0
C19 C -0.00312 0.74086 0.41199 0.0
O20 O 0.93235 0.82865 0.41075 0.0
O21 O 0.93144 0.79061 0.37499 0.0
O22 O 0.90524 0.72077 0.43753 0.0
C23 C 0.93166 0.82129 0.38055 0.0
O24 O 0.97027 0.73329 0.39813 0.0
C25 C 0.87768 0.73414 0.44447 0.0
O26 O -0.00527 0.76066 0.43534 0.0
O27 O 0.87733 0.76498 0.44949 0.0
C28 C 0.49489 0.77447 0.76207 0.0
O29 O 0.49698 0.79845 0.74239 0.0
Cd30 Cd 0.54369 0.83703 0.74895 0.0
O31 O 0.51961 0.76922 0.77984 0.0
Cd32 Cd 0.56284 0.77925 0.73833 0.0
C33 C 0.52776 0.83455 0.67765 0.0
O34 O 0.59774 0.82576 0.72396 0.0
O35 O 0.62103 0.7851 0.74837 0.0
O36 O 0.57875 0.73231 0.76875 0.0
C37 C 0.62176 0.80577 0.72498 0.0
O38 O 0.52809 0.85857 0.69748 0.0
C39 C 0.57989 0.71225 0.74513 0.0
O40 O 0.53718 0.80574 0.68708 0.0
O41 O 0.57249 0.72314 0.71662 0.0
C42 C 0.60889 0.29876 0.04046 0.0
O43 O 0.59768 0.32788 0.04057 0.0
Cd44 Cd 0.5856 0.33736 0.98408 0.0
O45 O 0.62792 0.2901 0.01682 0.0
Cd46 Cd 0.65728 0.31422 0.96691 0.0
C47 C 0.61169 0.26057 0.94429 0.0
O48 O 0.62748 0.36636 0.95859 0.0
O49 O 0.6409 0.34058 0.91464 0.0
O50 O 0.7037 0.33443 -0.00538 0.0
C51 C 0.62509 0.36422 0.92763 0.0
O52 O 0.59558 0.28424 0.95697 0.0
C53 C 0.72458 0.32043 0.97606 0.0
O54 O 0.64274 0.26179 0.94273 0.0
O55 O 0.71407 0.30277 0.9529 0.0
C56 C 0.06538 0.811 0.30794 0.0
O57 O 0.06424 0.82849 0.33348 0.0
Cd58 Cd 0.02133 0.87318 0.33753 0.0
O59 O 0.04226 0.81581 0.28776 0.0
Cd60 Cd -0.00101 0.82474 0.32997 0.0
C61 C 0.03368 0.85333 0.40443 0.0
O62 O 0.96603 0.86224 0.36175 0.0
O63 O 0.94096 0.83418 0.32497 0.0
O64 O 0.96988 0.78023 0.30424 0.0
C65 C 0.94137 0.84489 0.35424 0.0
O66 O 0.03734 0.88199 0.39232 0.0
C67 C 0.98206 0.75933 0.32397 0.0
O68 O 0.02279 0.83 0.38668 0.0
O69 O 0.00051 0.76966 0.34651 0.0
C70 C 0.58312 0.79529 0.5692 0.0
O71 O 0.59215 0.76556 0.57093 0.0
Cd72 Cd 0.6171 0.76056 0.62739 0.0
O73 O 0.59552 0.8141 0.59036 0.0
Cd74 Cd 0.61909 0.7711 0.62632 0.0
C75 C 0.55166 0.73847 0.64442 0.0
O76 O 0.62685 0.80982 0.66637 0.0
O77 O 0.63037 0.76163 0.68743 0.0
O78 O 0.65804 0.72831 0.60034 0.0
C79 C 0.63015 0.79249 0.69217 0.0
O80 O 0.5764 0.72166 0.6532 0.0
C81 C 0.67765 0.75098 0.5911 0.0
O82 O 0.55747 0.76332 0.627 0.0
O83 O 0.6691 0.78059 0.59652 0.0
C84 C 0.52147 0.29124 0.84914 0.0
O85 O 0.54722 0.30111 0.83468 0.0
Cd86 Cd 0.58092 0.30796 0.88153 0.0
O87 O 0.50866 0.31007 0.87071 0.0
Cd88 Cd 0.52674 0.36514 0.8928 0.0
C89 C 0.52004 0.31257 0.94837 0.0
O90 O 0.58689 0.36417 0.88391 0.0
O91 O 0.57074 0.38514 0.92947 0.0
O92 O 0.51371 0.38961 0.8407 0.0
C93 C 0.59466 0.3756 0.91163 0.0
O94 O 0.5432 0.3049 0.92863 0.0
C95 C 0.50763 0.41801 0.8521 0.0
O96 O 0.50301 0.33858 0.94316 0.0
O97 O 0.50426 0.42027 0.8832 0.0
C98 C 0.97731 0.33812 0.05968 0.0
O99 O -0.00403 0.36287 0.05969 0.0
Cd100 Cd 0.00964 0.36775 0.11614 0.0
O101 O 0.95641 0.33482 0.08326 0.0
Cd102 Cd 0.93414 0.3659 0.13391 0.0
C103 C 0.96459 0.30013 0.15614 0.0
O104 O 0.97717 0.4074 0.14124 0.0
O105 O 0.95836 0.38572 0.18565 0.0
O106 O 0.88898 0.39517 0.10731 0.0
C107 C 0.97971 0.40403 0.17213 0.0
O108 O 0.98612 0.31884 0.14334 0.0
C109 C 0.86825 0.38746 0.12956 0.0
O110 O 0.935 0.30991 0.15785 0.0
O111 O 0.87862 0.37093 0.15394 0.0
C112 C 0.25043 0.06046 0.30214 0.0
O113 O 0.26473 0.03796 0.31833 0.0
Cd114 Cd 0.21835 0.00756 0.3364 0.0
O115 O 0.22897 0.07787 0.31719 0.0
Cd116 Cd 0.20547 0.07526 0.37499 0.0
C117 C 0.15078 0.06622 0.32367 0.0
O118 O 0.21542 0.01738 0.39212 0.0
O119 O 0.1688 0.03773 0.40644 0.0
O120 O 0.25437 0.09698 0.39862 0.0
C121 C 0.18741 0.0126 0.40509 0.0
O122 O 0.17091 0.04219 0.32292 0.0
C123 C 0.23918 0.10797 0.42371 0.0
O124 O 0.15543 0.08986 0.34348 0.0
O125 O 0.20854 0.11367 0.42026 0.0
C126 C 0.29866 0.04089 0.60878 0.0
O127 O 0.32777 0.04101 0.59752 0.0
Cd128 Cd 0.33725 0.9845 0.58542 0.0
O129 O 0.29003 0.01724 0.62781 0.0
Cd130 Cd 0.31419 0.96732 0.65712 0.0
C131 C 0.26048 0.94471 0.61159 0.0
O132 O 0.3663 0.95901 0.62723 0.0
O133 O 0.34055 0.91504 0.64064 0.0
O134 O 0.33444 -0.00501 0.70357 0.0
C135 C 0.36417 0.92804 0.62481 0.0
O136 O 0.28413 0.95739 0.59546 0.0
C137 C 0.32039 0.97647 0.72445 0.0
O138 O 0.26174 0.94312 0.64264 0.0
O139 O 0.30271 0.95333 0.71392 0.0
C140 C 0.31159 0.08198 0.77758 0.0
O141 O 0.32307 0.06373 0.75514 0.0
Cd142 Cd 0.35837 0.08714 0.70997 0.0
O143 O 0.32045 0.11166 0.7759 0.0
Cd144 Cd 0.37996 0.10837 0.76721 0.0
C145 C 0.39806 0.02899 0.73422 0.0
O146 O 0.41521 0.10672 0.71926 0.0
O147 O 0.41677 0.15064 0.74819 0.0
O148 O 0.38131 0.14647 0.81257 0.0
C149 C 0.43264 0.1282 0.73318 0.0
O150 O 0.38509 0.03539 0.70657 0.0
C151 C 0.39149 0.12493 0.8328 0.0
O152 O 0.39689 0.04983 0.7577 0.0
O153 O 0.39896 0.0969 0.82149 0.0
C154 C 0.30749 0.04627 0.99094 0.0
O155 O 0.28185 0.04995 0.97381 0.0
Cd156 Cd 0.25004 0.09356 -0.00315 0.0
O157 O 0.30491 0.04737 0.02233 0.0
Cd158 Cd 0.26251 0.05576 0.06797 0.0
C159 C 0.30295 0.12169 0.06285 0.0
O160 O 0.21438 0.07529 0.03737 0.0
O161 O 0.22217 0.09856 0.08355 0.0
O162 O 0.23942 0.00641 0.09535 0.0
C163 C 0.20713 0.0989 0.05641 0.0
O164 O 0.2872 0.1191 0.03615 0.0
C165 C 0.25333 0.01335 0.12233 0.0
O166 O 0.30069 0.09938 0.0847 0.0
O167 O 0.27419 0.03632 0.12173 0.0
C168 C 0.24083 0.05168 0.26863 0.0
O169 O 0.23122 0.0732 0.24821 0.0
Cd170 Cd 0.2007 0.03172 0.21782 0.0
O171 O 0.23381 0.02193 0.26278 0.0
Cd172 Cd 0.19722 0.00923 0.21145 0.0
C173 C 0.17108 0.97666 0.2689 0.0
O174 O 0.15706 0.06003 0.20132 0.0
O175 O 0.1364 0.01161 0.20164 0.0
O176 O 0.24552 0.02239 0.17851 0.0
C177 C 0.1316 0.04244 0.19969 0.0
O178 O 0.17206 0.00737 0.265 0.0
C179 C 0.2386 0.0047 0.1541 0.0
O180 O 0.18394 0.95895 0.24657 0.0
O181 O 0.21342 0.98648 0.15682 0.0
C182 C 0.27272 0.0539 0.58706 0.0
O183 O 0.24336 0.05035 0.59697 0.0
Cd184 Cd 0.22138 0.00499 0.56765 0.0
O185 O 0.27894 0.05142 0.55632 0.0
Cd186 Cd 0.24996 0.04212 0.50259 0.0
C187 C 0.29093 0.97811 0.51663 0.0
O188 O 0.19548 0.0219 0.52006 0.0
O189 O 0.21576 -0.00162 0.47765 0.0
O190 O 0.23058 0.09518 0.48023 0.0
C191 C 0.19373 -0.00172 0.49994 0.0
O192 O 0.2684 0.9811 0.53824 0.0
C193 C 0.24947 0.09377 0.45521 0.0
O194 O 0.29403 1e-05 0.4944 0.0
O195 O 0.27047 0.0705 0.45472 0.0
C196 C 0.30807 0.06604 0.81055 0.0
O197 O 0.33353 0.06489 0.82815 0.0
Cd198 Cd 0.33707 0.02219 0.87307 0.0
O199 O 0.28772 0.04306 0.81536 0.0
Cd200 Cd 0.32965 -0.00038 0.82462 0.0
C201 C 0.40419 0.03398 0.85342 0.0
O202 O 0.3609 0.96666 0.86255 0.0
O203 O 0.32418 0.94169 0.83439 0.0
O204 O 0.30401 0.97037 0.78011 0.0
C205 C 0.35339 0.94196 0.84526 0.0
O206 O 0.39196 0.03783 0.88199 0.0
C207 C 0.3239 0.9824 0.75925 0.0
O208 O 0.3865 0.0231 0.83005 0.0
O209 O 0.34647 0.00081 0.76961 0.0
C210 C 0.33821 0.06004 0.97703 0.0
O211 O 0.36292 0.06007 -0.00428 0.0
Cd212 Cd 0.36772 0.11654 0.00943 0.0
O213 O 0.33489 0.08361 0.95614 0.0
Cd214 Cd 0.36592 0.13432 0.93391 0.0
C215 C 0.30011 0.15647 0.96438 0.0
O216 O 0.40735 0.14167 0.97695 0.0
O217 O 0.3857 0.18607 0.95816 0.0
O218 O 0.39528 0.10775 0.88877 0.0
C219 C 0.40399 0.17257 0.97952 0.0
O220 O 0.31882 0.14369 0.9859 0.0
C221 C 0.38755 0.12996 0.86803 0.0
O222 O 0.30992 0.1582 0.9348 0.0
O223 O 0.37096 0.15433 0.87838 0.0
C224 C 0.30233 0.25048 0.06035 0.0
O225 O 0.31854 0.26483 0.03788 0.0
Cd226 Cd 0.3366 0.2185 0.0074 0.0
O227 O 0.31738 0.22901 0.07772 0.0
Cd228 Cd 0.3752 0.20556 0.07505 0.0
C229 C 0.3239 0.15084 0.06596 0.0
O230 O 0.39232 0.21561 0.01719 0.0
O231 O 0.40666 0.16896 0.03747 0.0
O232 O 0.39877 0.25448 0.09683 0.0
C233 C 0.4053 0.1876 0.01238 0.0
O234 O 0.32315 0.17099 0.04197 0.0
C235 C 0.42389 0.2393 0.10774 0.0
O236 O 0.3437 0.15547 0.0896 0.0
O237 O 0.42047 0.20866 0.11342 0.0
C238 C 0.778 0.31137 0.08138 0.0
O239 O 0.75546 0.32285 0.06327 0.0
Cd240 Cd 0.71024 0.35785 0.08702 0.0
O241 O 0.77637 0.32009 0.11111 0.0
Cd242 Cd 0.76743 0.37959 0.10809 0.0
C243 C 0.73412 0.39786 0.02894 0.0
O244 O 0.71937 0.41467 0.10675 0.0
O245 O 0.74839 0.41615 0.15058 0.0
O246 O 0.81281 0.38106 0.14611 0.0
C247 C 0.73328 0.43206 0.12827 0.0
O248 O 0.70653 0.38475 0.0354 0.0
C249 C 0.833 0.3913 0.12456 0.0
O250 O 0.75768 0.39672 0.04967 0.0
O251 O 0.82168 0.39877 0.09656 0.0
C252 C 0.04068 0.60894 0.29845 0.0
O253 O 0.04082 0.5977 0.32756 0.0
Cd254 Cd 0.98435 0.58552 0.33711 0.0
O255 O 0.01702 0.62795 0.28985 0.0
Cd256 Cd 0.96711 0.65722 0.31406 0.0
C257 C 0.94447 0.61164 0.26041 0.0
O258 O 0.95886 0.62737 0.36616 0.0
O259 O 0.91488 0.64077 0.34048 0.0
O260 O -0.00521 0.70365 0.33429 0.0
C261 C 0.92789 0.62495 0.36407 0.0
O262 O 0.95717 0.59553 0.28404 0.0
C263 C 0.97621 0.72453 0.32034 0.0
O264 O 0.94289 0.64269 0.26167 0.0
O265 O 0.95306 0.714 0.30269 0.0
C266 C 0.77667 0.76384 0.49509 0.0
O267 O 0.80222 0.74615 0.49689 0.0
Cd268 Cd 0.83925 0.75077 0.54493 0.0
O269 O 0.76945 0.78001 0.52042 0.0
Cd270 Cd 0.77821 0.7383 0.56308 0.0
C271 C 0.83481 0.6787 0.52828 0.0
O272 O 0.82482 0.72513 0.59794 0.0
O273 O 0.78389 0.74912 0.62122 0.0
O274 O 0.73057 0.7685 0.57671 0.0
C275 C 0.80482 0.72596 0.62197 0.0
O276 O 0.85891 0.69841 0.52941 0.0
C277 C 0.71094 0.74456 0.57877 0.0
O278 O 0.80575 0.68809 0.53699 0.0
O279 O 0.7224 0.71591 0.57281 0.0
C280 C 0.05988 0.97743 0.33786 0.0
O281 O 0.05991 -0.0039 0.3626 0.0
Cd282 Cd 0.11639 0.00973 0.36745 0.0
O283 O 0.08344 0.9565 0.33456 0.0
Cd284 Cd 0.13405 0.93421 0.36562 0.0
C285 C 0.15633 0.96462 0.29983 0.0
O286 O 0.14142 0.97725 0.4071 0.0
O287 O 0.18583 0.9584 0.38542 0.0
O288 O 0.1074 0.88905 0.3949 0.0
C289 C 0.17233 0.97976 0.40373 0.0
O290 O 0.14355 0.98617 0.31854 0.0
C291 C 0.12967 0.86833 0.38721 0.0
O292 O 0.158 0.93504 0.30962 0.0
O293 O 0.15406 0.87871 0.37068 0.0
C294 C 0.25629 0.85924 0.52166 0.0
O295 O 0.24113 0.86712 0.49573 0.0
Cd296 Cd 0.19973 0.89745 0.52793 0.0
O297 O 0.24329 0.86725 0.54893 0.0
Cd298 Cd 0.18836 0.90091 0.5488 0.0
C299 C 0.23431 0.92971 0.59246 0.0
O300 O 0.18815 0.94002 0.49564 0.0
O301 O 0.17703 0.96138 0.54259 0.0
O302 O 0.16357 0.8492 0.53469 0.0
C303 C 0.18251 0.96583 0.5121 0.0
O304 O 0.23816 0.92891 0.56171 0.0
C305 C 0.1371 0.85284 0.55089 0.0
O306 O 0.20915 0.91584 0.60462 0.0
O307 O 0.13299 0.87991 0.56591 0.0
C308 C 0.05369 0.5872 0.27251 0.0
O309 O 0.05011 0.59709 0.24316 0.0
Cd310 Cd 0.00472 0.56776 0.22129 0.0
O311 O 0.05122 0.55647 0.27873 0.0
Cd312 Cd 0.04191 0.50274 0.24976 0.0
C313 C 0.97792 0.5167 0.29084 0.0
O314 O 0.02167 0.5202 0.19531 0.0
O315 O -0.00181 0.47777 0.21558 0.0
O316 O 0.09501 0.48052 0.23028 0.0
C317 C -0.00192 0.50005 0.19356 0.0
O318 O 0.98089 0.5383 0.26831 0.0
C319 C 0.09367 0.45549 0.24914 0.0
O320 O -0.00016 0.49448 0.2939 0.0
O321 O 0.07042 0.45491 0.27016 0.0
C322 C 0.56988 0.58465 0.79584 0.0
O323 O 0.57151 0.59378 0.76615 0.0
Cd324 Cd 0.62827 0.61801 0.76068 0.0
O325 O 0.59122 0.59688 0.81455 0.0
Cd326 Cd 0.62725 0.62014 0.77141 0.0
C327 C 0.64404 0.552 0.73936 0.0
O328 O 0.66771 0.62761 0.80964 0.0
O329 O 0.68842 0.63065 0.76126 0.0
O330 O 0.60075 0.65902 0.72891 0.0
C331 C 0.69342 0.63057 0.79208 0.0
O332 O 0.65302 0.57638 0.72211 0.0
C333 C 0.59238 0.67901 0.75158 0.0
O334 O 0.62718 0.55843 0.76443 0.0
O335 O 0.59851 0.67073 0.78111 0.0
C336 C 0.47114 0.74787 0.75517 0.0
O337 O 0.48353 0.72131 0.74447 0.0
Cd338 Cd 0.45732 0.69892 0.69355 0.0
O339 O 0.44362 0.75577 0.74317 0.0
Cd340 Cd 0.44787 0.78172 0.69086 0.0
C341 C 0.51861 0.73365 0.65843 0.0
O342 O 0.42754 0.73985 0.65888 0.0
O343 O 0.39734 0.78295 0.6571 0.0
O344 O 0.43488 0.82021 0.73313 0.0
C345 C 0.41241 0.7607 0.64104 0.0
O346 O 0.50823 0.70472 0.66414 0.0
C347 C 0.44396 0.84591 0.71787 0.0
O348 O 0.50162 0.75919 0.66654 0.0
O349 O 0.45349 0.84272 0.68808 0.0
C350 C 0.58712 0.27285 0.05347 0.0
O351 O 0.59698 0.24348 0.04994 0.0
Cd352 Cd 0.56769 0.22157 0.00456 0.0
O353 O 0.55639 0.2791 0.05098 0.0
Cd354 Cd 0.50264 0.25016 0.04166 0.0
C355 C 0.51675 0.29115 0.97763 0.0
O356 O 0.52008 0.19566 0.02148 0.0
O357 O 0.4777 0.21593 -0.00204 0.0
O358 O 0.4804 0.23077 0.09477 0.0
C359 C 0.49996 0.1939 -0.00212 0.0
O360 O 0.53833 0.2686 0.98064 0.0
C361 C 0.45535 0.24961 0.09341 0.0
O362 O 0.4945 0.29426 -0.00046 0.0
O363 O 0.45479 0.27059 0.07014 0.0
C364 C 0.05173 0.26897 0.24052 0.0
O365 O 0.07324 0.24853 0.23088 0.0
Cd366 Cd 0.03173 0.21813 0.20041 0.0
O367 O 0.02197 0.26313 0.23354 0.0
Cd368 Cd 0.00924 0.21177 0.19696 0.0
C369 C 0.97664 0.26921 0.17088 0.0
O370 O 0.06 0.20162 0.15673 0.0
O371 O 0.01157 0.20194 0.13615 0.0
O372 O 0.02241 0.17887 0.24525 0.0
C373 C 0.04239 0.19998 0.1313 0.0
O374 O 0.00735 0.26531 0.17182 0.0
C375 C 0.00472 0.15445 0.23835 0.0
O376 O 0.95895 0.24688 0.18376 0.0
O377 O 0.98652 0.15715 0.21319 0.0
C378 C 0.00156 0.78792 0.513 0.0
O379 O 0.01469 0.81521 0.50582 0.0
Cd380 Cd 0.07555 0.81976 0.49135 0.0
O381 O 0.02079 0.76368 0.51791 0.0
Cd382 Cd 0.07111 0.79135 0.49945 0.0
C383 C 0.04578 0.84499 0.43717 0.0
O384 O 0.11031 0.78268 0.45645 0.0
O385 O 0.0965 0.73784 0.48201 0.0
O386 O 0.08126 0.83791 0.54344 0.0
C387 C 0.11347 0.7517 0.45938 0.0
O388 O 0.06538 0.8635 0.45235 0.0
C389 C 0.11104 0.82884 0.54619 0.0
O390 O 0.04116 0.81601 0.44797 0.0
O391 O 0.11892 0.80171 0.53316 0.0
C392 C 0.52179 0.25643 0.85885 0.0
O393 O 0.49581 0.24134 0.86679 0.0
Cd394 Cd 0.52796 0.19986 0.89702 0.0
O395 O 0.54904 0.24335 0.86677 0.0
Cd396 Cd 0.54888 0.18844 0.90054 0.0
C397 C 0.59254 0.23441 0.92928 0.0
O398 O 0.49569 0.18823 0.93965 0.0
O399 O 0.54265 0.17721 0.96099 0.0
O400 O 0.53491 0.16332 0.84898 0.0
C401 C 0.51214 0.18265 0.96544 0.0
O402 O 0.56178 0.23829 0.92844 0.0
C403 C 0.55117 0.13691 0.85278 0.0
O404 O 0.60469 0.20923 0.91546 0.0
O405 O 0.56615 0.133 0.87987 0.0
C406 C 0.9912 0.30742 0.04587 0.0
O407 O 0.97405 0.28178 0.04961 0.0
Cd408 Cd -0.00295 0.25003 0.09325 0.0
O409 O 0.0226 0.30487 0.04696 0.0
Cd410 Cd 0.0682 0.2625 0.05544 0.0
C411 C 0.06306 0.303 0.12133 0.0
O412 O 0.03759 0.21436 0.07502 0.0
O413 O 0.0838 0.22223 0.09826 0.0
O414 O 0.09562 0.23938 0.00613 0.0
C415 C 0.05665 0.20717 0.09861 0.0
O416 O 0.03635 0.28723 0.11876 0.0
C417 C 0.12259 0.25332 0.01305 0.0
O418 O 0.08492 0.30074 0.09901 0.0
O419 O 0.12197 0.27421 0.036 0.0
C420 C 0.08148 0.77809 0.31122 0.0
O421 O 0.06339 0.75552 0.3227 0.0
Cd422 Cd 0.08727 0.71032 0.35761 0.0
O423 O 0.11123 0.77654 0.31986 0.0
Cd424 Cd 0.10828 0.76748 0.37935 0.0
C425 C 0.02919 0.73399 0.39769 0.0
O426 O 0.10702 0.71941 0.41442 0.0
O427 O 0.15085 0.74855 0.41584 0.0
O428 O 0.14626 0.8129 0.38084 0.0
C429 C 0.12858 0.73334 0.43174 0.0
O430 O 0.03567 0.70643 0.38454 0.0
C431 C 0.12468 0.83308 0.39107 0.0
O432 O 0.04989 0.7576 0.39656 0.0
O433 O 0.09667 0.82172 0.39854 0.0
C434 C 0.54931 0.80232 0.55869 0.0
O435 O 0.53674 0.8296 0.56765 0.0
Cd436 Cd 0.47865 0.84303 0.58662 0.0
O437 O 0.53023 0.77831 0.55371 0.0
Cd438 Cd 0.47989 0.80226 0.57233 0.0
C439 C 0.5129 0.83875 0.64501 0.0
O440 O 0.43683 0.80464 0.61166 0.0
O441 O 0.44966 0.75508 0.59468 0.0
O442 O 0.46975 0.84822 0.53086 0.0
C443 C 0.43202 0.77363 0.61307 0.0
O444 O 0.4979 0.86508 0.63711 0.0
C445 C 0.4458 0.8334 0.51794 0.0
O446 O 0.51157 0.81419 0.62587 0.0
O447 O 0.44141 0.80374 0.52682 0.0
C448 C 0.75441 0.47154 0.74936 0.0
O449 O 0.74216 0.48421 0.72357 0.0
Cd450 Cd 0.69175 0.45806 0.69966 0.0
O451 O 0.74301 0.44391 0.75785 0.0
Cd452 Cd 0.68952 0.44721 0.78239 0.0
C453 C 0.65701 0.51857 0.73444 0.0
O454 O 0.66212 0.42295 0.74013 0.0
O455 O 0.6552 0.39592 0.78431 0.0
O456 O 0.73209 0.43477 0.82049 0.0
C457 C 0.64153 0.41172 0.76104 0.0
O458 O 0.66178 0.50809 0.70544 0.0
C459 C 0.71684 0.44375 0.84624 0.0
O460 O 0.66543 0.5014 0.75976 0.0
O461 O 0.6869 0.45282 0.84324 0.0
C462 C 0.78818 0.51308 0.00123 0.0
O463 O 0.81542 0.5059 0.01443 0.0
Cd464 Cd 0.81983 0.49154 0.0753 0.0
O465 O 0.76391 0.51804 0.02042 0.0
Cd466 Cd 0.79141 0.49965 0.07083 0.0
C467 C 0.84505 0.43726 0.04562 0.0
O468 O 0.78266 0.45672 0.11005 0.0
O469 O 0.73784 0.48226 0.09613 0.0
O470 O 0.83793 0.54364 0.08109 0.0
C471 C 0.75167 0.45966 0.11315 0.0
O472 O 0.86354 0.45247 0.06522 0.0
C473 C 0.82879 0.5464 0.11086 0.0
O474 O 0.81609 0.44808 0.04097 0.0
O475 O 0.80163 0.53338 0.11865 0.0
C476 C 0.84942 0.52121 0.29112 0.0
O477 O 0.83493 0.54692 0.30106 0.0
Cd478 Cd 0.88176 0.5807 0.30781 0.0
O479 O 0.87103 0.50842 0.30989 0.0
Cd480 Cd 0.89313 0.52654 0.36492 0.0
C481 C 0.94867 0.51993 0.31231 0.0
O482 O 0.88421 0.58667 0.36399 0.0
O483 O 0.9298 0.57057 0.38488 0.0
O484 O 0.84099 0.51353 0.38932 0.0
C485 C 0.91193 0.59447 0.37541 0.0
O486 O 0.92889 0.54306 0.30468 0.0
C487 C 0.85234 0.50759 0.41775 0.0
O488 O 0.94349 0.50287 0.33831 0.0
O489 O 0.88343 0.50417 0.42005 0.0
C490 C 0.79643 0.56953 0.58425 0.0
O491 O 0.76675 0.57092 0.59348 0.0
Cd492 Cd 0.76092 0.62773 0.6175 0.0
O493 O 0.81502 0.59101 0.59643 0.0
Cd494 Cd 0.77161 0.62675 0.61964 0.0
C495 C 0.73971 0.64319 0.55143 0.0
O496 O 0.80964 0.66741 0.62734 0.0
O497 O 0.76114 0.68783 0.63038 0.0
O498 O 0.72904 0.60021 0.65843 0.0
C499 C 0.79193 0.693 0.63037 0.0
O500 O 0.72233 0.65214 0.57573 0.0
C501 C 0.75173 0.59158 0.67826 0.0
O502 O 0.76487 0.62655 0.55795 0.0
O503 O 0.78128 0.59758 0.66991 0.0
C504 C 0.76322 0.49494 0.77569 0.0
O505 O 0.74472 0.49698 0.80062 0.0
Cd506 Cd 0.75037 0.54443 0.83832 0.0
O507 O 0.7803 0.51989 0.76924 0.0
Cd508 Cd 0.73885 0.56293 0.77864 0.0
C509 C 0.67861 0.52832 0.8347 0.0
O510 O 0.72514 0.59794 0.82512 0.0
O511 O 0.7495 0.62109 0.78428 0.0
O512 O 0.76911 0.57764 0.73133 0.0
C513 C 0.72625 0.62195 0.80513 0.0
O514 O 0.69833 0.52907 0.85879 0.0
C515 C 0.74531 0.57916 0.71151 0.0
O516 O 0.6881 0.53723 0.80576 0.0
O517 O 0.71672 0.57245 0.72272 0.0
C518 C 0.78286 0.50087 0.9676 0.0
O519 O 0.75486 0.4898 0.96105 0.0
Cd520 Cd 0.77038 0.43488 0.93582 0.0
O521 O 0.8065 0.48661 0.95297 0.0
Cd522 Cd 0.77686 0.43607 0.93496 0.0
C523 C 0.74108 0.41208 -0.00337 0.0
O524 O 0.82897 0.41063 0.93222 0.0
O525 O 0.79088 0.37492 0.93128 0.0
O526 O 0.72122 0.43773 0.90491 0.0
C527 C 0.82156 0.38043 0.93155 0.0
O528 O 0.73352 0.3982 0.97003 0.0
C529 C 0.73469 0.44451 0.87735 0.0
O530 O 0.76091 0.43541 -0.00553 0.0
O531 O 0.76556 0.44935 0.87704 0.0
C532 C 0.85909 0.5216 0.25631 0.0
O533 O 0.86702 0.49565 0.24116 0.0
Cd534 Cd 0.8972 0.5279 0.1997 0.0
O535 O 0.867 0.54888 0.24328 0.0
Cd536 Cd 0.90066 0.54882 0.18831 0.0
C537 C 0.92945 0.59249 0.23427 0.0
O538 O 0.93983 0.49569 0.18798 0.0
O539 O 0.96113 0.54269 0.17695 0.0
O540 O 0.84904 0.53473 0.16337 0.0
C541 C 0.96562 0.51219 0.18237 0.0
O542 O 0.92865 0.56173 0.2381 0.0
C543 C 0.85273 0.55101 0.13697 0.0
O544 O 0.91556 0.60465 0.20914 0.0
O545 O 0.87979 0.56608 0.13296 0.0
C546 C 0.80323 0.55932 0.55028 0.0
O547 O 0.83037 0.56851 0.53756 0.0
Cd548 Cd 0.8436 0.5878 0.47959 0.0
O549 O 0.77904 0.55449 0.53141 0.0
Cd550 Cd 0.80189 0.57362 0.48086 0.0
C551 C 0.83935 0.64602 0.51366 0.0
O552 O 0.80449 0.61399 0.43921 0.0
O553 O 0.75447 0.59761 0.45121 0.0
O554 O 0.84791 0.53212 0.46994 0.0
C555 C 0.77352 0.6162 0.43435 0.0
O556 O 0.86583 0.63813 0.49891 0.0
C557 C 0.83306 0.51942 0.4459 0.0
O558 O 0.81485 0.62683 0.51231 0.0
O559 O 0.80349 0.52861 0.44148 0.0
C560 C 0.75059 0.75404 0.47183 0.0
O561 O 0.72526 0.74089 0.4846 0.0
Cd562 Cd 0.70072 0.69117 0.45789 0.0
O563 O 0.75938 0.74319 0.44407 0.0
Cd564 Cd 0.78269 0.68895 0.44666 0.0
C565 C 0.73481 0.65602 0.51796 0.0
O566 O 0.74032 0.66253 0.42102 0.0
O567 O 0.78518 0.655 0.39513 0.0
O568 O 0.82083 0.73158 0.43467 0.0
C569 C 0.76167 0.64173 0.41094 0.0
O570 O 0.70583 0.66055 0.50742 0.0
C571 C 0.84656 0.71627 0.44354 0.0
O572 O 0.7601 0.66468 0.50084 0.0
O573 O 0.84356 0.68624 0.45231 0.0
C574 C 0.2911 0.84956 0.52125 0.0
O575 O 0.30098 0.8351 0.54697 0.0
Cd576 Cd 0.30789 0.88197 0.58068 0.0
O577 O 0.30983 0.87123 0.50845 0.0
Cd578 Cd 0.36487 0.89335 0.5264 0.0
C579 C 0.31237 0.94886 0.51987 0.0
O580 O 0.3641 0.88434 0.58654 0.0
O581 O 0.38502 0.92993 0.57044 0.0
O582 O 0.38917 0.84131 0.51289 0.0
C583 C 0.37554 0.91206 0.59434 0.0
O584 O 0.30475 0.9291 0.54302 0.0
C585 C 0.41752 0.85274 0.50665 0.0
O586 O 0.33834 0.94367 0.50277 0.0
O587 O 0.41981 0.88386 0.50351 0.0
C588 C 0.51293 0.00101 0.78881 0.0
O589 O 0.50574 0.01439 0.81597 0.0
Cd590 Cd 0.49155 0.07533 0.82015 0.0
O591 O 0.51803 0.02005 0.76446 0.0
Cd592 Cd 0.49976 0.07067 0.79167 0.0
C593 C 0.43706 0.04587 0.84519 0.0
O594 O 0.45705 0.11007 0.78268 0.0
O595 O 0.48265 0.09581 0.73798 0.0
O596 O 0.54366 0.08098 0.83822 0.0
C597 C 0.4601 0.11301 0.75169 0.0
O598 O 0.45225 0.06547 0.8637 0.0
C599 C 0.54656 0.11069 0.82894 0.0
O600 O 0.44799 0.04112 0.81628 0.0
O601 O 0.53367 0.11841 0.80172 0.0
C602 C 0.26883 0.24085 0.05154 0.0
O603 O 0.24839 0.2312 0.07304 0.0
Cd604 Cd 0.21804 0.20071 0.03152 0.0
O605 O 0.26302 0.23386 0.02179 0.0
Cd606 Cd 0.2117 0.19724 0.00902 0.0
C607 C 0.26917 0.17119 0.97643 0.0
O608 O 0.20153 0.15703 0.05977 0.0
O609 O 0.20191 0.1364 0.01134 0.0
O610 O 0.17875 0.24552 0.02217 0.0
C611 C 0.19994 0.13158 0.04216 0.0
O612 O 0.26525 0.17213 0.00714 0.0
C613 C 0.15438 0.23859 0.00445 0.0
O614 O 0.24685 0.18405 0.95875 0.0
O615 O 0.15711 0.21341 0.98624 0.0
C616 C 0.55946 0.55075 0.8027 0.0
O617 O 0.56856 0.53803 0.82985 0.0
Cd618 Cd 0.58747 0.47994 0.84309 0.0
O619 O 0.55447 0.53182 0.77857 0.0
Cd620 Cd 0.57335 0.48124 0.80163 0.0
C621 C 0.64586 0.51378 0.83907 0.0
O622 O 0.61344 0.43929 0.80408 0.0
O623 O 0.59704 0.45153 0.75416 0.0
O624 O 0.53182 0.47037 0.84764 0.0
C625 C 0.6155 0.43444 0.7731 0.0
O626 O 0.63784 0.49896 0.86547 0.0
C627 C 0.5192 0.44626 0.83281 0.0
O628 O 0.62676 0.51254 0.81451 0.0
O629 O 0.52835 0.44188 0.80322 0.0
C630 C 0.81094 0.30806 0.06532 0.0
O631 O 0.82844 0.33359 0.06421 0.0
Cd632 Cd 0.87321 0.33752 0.02135 0.0
O633 O 0.81575 0.28782 0.04224 0.0
Cd634 Cd 0.82477 0.32997 -0.00106 0.0
C635 C 0.85338 0.40448 0.03357 0.0
O636 O 0.86239 0.36163 0.96601 0.0
O637 O 0.83433 0.32483 0.94095 0.0
O638 O 0.78028 0.30425 0.96978 0.0
C639 C 0.84509 0.3541 0.94134 0.0
O640 O 0.88202 0.39235 0.03728 0.0
C641 C 0.75938 0.32402 0.98194 0.0
O642 O 0.83005 0.38673 0.02268 0.0
O643 O 0.76971 0.34656 0.00039 0.0
C644 C 0.50056 0.96741 0.7836 0.0
O645 O 0.48959 0.96076 0.7556 0.0
Cd646 Cd 0.43449 0.93584 0.77095 0.0
O647 O 0.48612 0.95299 0.80726 0.0
Cd648 Cd 0.4357 0.93501 0.77746 0.0
C649 C 0.41211 -0.00336 0.74134 0.0
O650 O 0.40997 0.93258 0.82944 0.0
O651 O 0.37445 0.93157 0.79118 0.0
O652 O 0.4378 0.90464 0.72194 0.0
C653 C 0.37981 0.93199 0.82189 0.0
O654 O 0.39814 0.97006 0.73383 0.0
C655 C 0.44446 0.87715 0.73558 0.0
O656 O 0.43533 -0.00553 0.76128 0.0
O657 O 0.44896 0.87699 0.7665 0.0
C658 C 0.04611 0.99132 0.30716 0.0
O659 O 0.04983 0.97416 0.28153 0.0
Cd660 Cd 0.0935 -0.00286 0.24976 0.0
O661 O 0.04724 0.02272 0.30461 0.0
Cd662 Cd 0.05577 0.06832 0.26224 0.0
C663 C 0.12166 0.06314 0.30271 0.0
O664 O 0.07531 0.03768 0.2141 0.0
O665 O 0.09861 0.08389 0.22193 0.0
O666 O 0.00645 0.09569 0.23916 0.0
C667 C 0.09892 0.05673 0.20689 0.0
O668 O 0.11905 0.03643 0.28694 0.0
C669 C 0.01339 0.12269 0.25306 0.0
O670 O 0.09937 0.08502 0.30045 0.0
O671 O 0.03635 0.12211 0.27392 0.0
loop_
_geom_bond_atom_site_label_1
_geom_bond_atom_site_label_2
_geom_bond_distance
_geom_bond_site_symmetry_2
_ccdc_geom_bond_type
C0 O1 1.306 . S
C0 O3 1.160 . S
O1 C0 1.306 . S
O1 Cd2 2.228 . S
Cd2 O1 2.228 . S
Cd2 O6 2.273 . S
Cd2 O10 2.277 . S
O3 C0 1.160 . S
O3 Cd4 2.203 . S
Cd4 O3 2.203 . S
Cd4 O6 2.411 . S
Cd4 O7 2.333 . S
Cd4 O8 2.352 . S
Cd4 O12 2.277 . S
Cd4 O13 2.356 . S
C5 O10 1.209 . S
C5 O12 1.226 . S
O6 Cd2 2.273 . S
O6 Cd4 2.411 . S
O6 C9 1.320 . S
O7 Cd4 2.333 . S
O7 C9 1.214 . S
O8 Cd4 2.352 . S
O8 C11 1.258 . S
C9 O6 1.320 . S
C9 O7 1.214 . S
O10 Cd2 2.277 . S
O10 C5 1.209 . S
C11 O8 1.258 . S
C11 O13 1.282 . S
O12 Cd4 2.277 . S
O12 C5 1.226 . S
O13 Cd4 2.356 . S
O13 C11 1.282 . S
C14 O15 1.306 . S
C14 O17 1.160 . S
O15 C14 1.306 . S
O15 Cd16 2.228 . S
Cd16 O15 2.228 . S
Cd16 O20 2.273 . S
Cd16 O24 2.277 . S
O17 C14 1.160 . S
O17 Cd18 2.203 1_455 S
Cd18 O17 2.203 1_655 S
Cd18 O20 2.411 1_655 S
Cd18 O21 2.333 . S
Cd18 O22 2.352 . S
Cd18 O26 2.277 1_655 S
Cd18 O27 2.356 . S
C19 O24 1.209 . S
C19 O26 1.226 . S
O20 Cd16 2.273 . S
O20 Cd18 2.411 1_455 S
O20 C23 1.320 . S
O21 Cd18 2.333 . S
O21 C23 1.214 1_655 S
O22 Cd18 2.352 . S
O22 C25 1.258 . S
C23 O20 1.320 . S
C23 O21 1.214 1_455 S
O24 Cd16 2.277 . S
O24 C19 1.209 . S
C25 O22 1.258 . S
C25 O27 1.282 . S
O26 Cd18 2.277 1_455 S
O26 C19 1.226 . S
O27 Cd18 2.356 . S
O27 C25 1.282 . S
C28 O29 1.306 . S
C28 O31 1.160 . S
O29 C28 1.306 . S
O29 Cd30 2.228 . S
Cd30 O29 2.228 . S
Cd30 O34 2.273 . S
Cd30 O38 2.277 . S
O31 C28 1.160 . S
O31 Cd32 2.203 . S
Cd32 O31 2.203 . S
Cd32 O34 2.411 . S
Cd32 O35 2.333 . S
Cd32 O36 2.352 . S
Cd32 O40 2.277 . S
Cd32 O41 2.356 . S
C33 O38 1.209 . S
C33 O40 1.226 . S
O34 Cd30 2.273 . S
O34 Cd32 2.411 . S
O34 C37 1.320 . S
O35 Cd32 2.333 . S
O35 C37 1.214 . S
O36 Cd32 2.352 . S
O36 C39 1.258 . S
C37 O34 1.320 . S
C37 O35 1.214 . S
O38 Cd30 2.277 . S
O38 C33 1.209 . S
C39 O36 1.258 . S
C39 O41 1.282 . S
O40 Cd32 2.277 . S
O40 C33 1.226 . S
O41 Cd32 2.356 . S
O41 C39 1.282 . S
C42 O43 1.306 . S
C42 O45 1.160 . S
O43 C42 1.306 . S
O43 Cd44 2.228 1_554 S
Cd44 O43 2.228 1_556 S
Cd44 O48 2.273 . S
Cd44 O52 2.277 . S
O45 C42 1.160 . S
O45 Cd46 2.203 1_554 S
Cd46 O45 2.203 1_556 S
Cd46 O48 2.411 . S
Cd46 O49 2.333 . S
Cd46 O50 2.352 1_556 S
Cd46 O54 2.277 . S
Cd46 O55 2.356 . S
C47 O52 1.209 . S
C47 O54 1.226 . S
O48 Cd44 2.273 . S
O48 Cd46 2.411 . S
O48 C51 1.320 . S
O49 Cd46 2.333 . S
O49 C51 1.214 . S
O50 Cd46 2.352 1_554 S
O50 C53 1.258 . S
C51 O48 1.320 . S
C51 O49 1.214 . S
O52 Cd44 2.277 . S
O52 C47 1.209 . S
C53 O50 1.258 . S
C53 O55 1.282 1_554 S
O54 Cd46 2.277 . S
O54 C47 1.226 . S
O55 Cd46 2.356 . S
O55 C53 1.282 1_556 S
C56 O57 1.306 1_455 S
C56 O59 1.160 . S
O57 C56 1.306 1_655 S
O57 Cd58 2.228 . S
Cd58 O57 2.228 . S
Cd58 O62 2.273 . S
Cd58 O66 2.277 1_655 S
O59 C56 1.160 . S
O59 Cd60 2.203 . S
Cd60 O59 2.203 . S
Cd60 O62 2.411 1_455 S
Cd60 O63 2.333 1_455 S
Cd60 O64 2.352 1_455 S
Cd60 O68 2.277 . S
Cd60 O69 2.356 . S
C61 O66 1.209 . S
C61 O68 1.226 . S
O62 Cd58 2.273 . S
O62 Cd60 2.411 1_655 S
O62 C65 1.320 . S
O63 Cd60 2.333 1_655 S
O63 C65 1.214 . S
O64 Cd60 2.352 1_655 S
O64 C67 1.258 1_655 S
C65 O62 1.320 . S
C65 O63 1.214 . S
O66 Cd58 2.277 1_455 S
O66 C61 1.209 . S
C67 O64 1.258 1_455 S
C67 O69 1.282 . S
O68 Cd60 2.277 . S
O68 C61 1.226 . S
O69 Cd60 2.356 . S
O69 C67 1.282 . S
C70 O71 1.306 . S
C70 O73 1.160 . S
O71 C70 1.306 . S
O71 Cd72 2.228 . S
Cd72 O71 2.228 . S
Cd72 O76 2.273 . S
Cd72 O80 2.277 . S
O73 C70 1.160 . S
O73 Cd74 2.203 . S
Cd74 O73 2.203 . S
Cd74 O76 2.411 . S
Cd74 O77 2.333 . S
Cd74 O78 2.352 . S
Cd74 O82 2.277 . S
Cd74 O83 2.356 . S
C75 O80 1.209 . S
C75 O82 1.226 . S
O76 Cd72 2.273 . S
O76 Cd74 2.411 . S
O76 C79 1.320 . S
O77 Cd74 2.333 . S
O77 C79 1.214 . S
O78 Cd74 2.352 . S
O78 C81 1.258 . S
C79 O76 1.320 . S
C79 O77 1.214 . S
O80 Cd72 2.277 . S
O80 C75 1.209 . S
C81 O78 1.258 . S
C81 O83 1.282 . S
O82 Cd74 2.277 . S
O82 C75 1.226 . S
O83 Cd74 2.356 . S
O83 C81 1.282 . S
C84 O85 1.306 . S
C84 O87 1.160 . S
O85 C84 1.306 . S
O85 Cd86 2.228 . S
Cd86 O85 2.228 . S
Cd86 O90 2.273 . S
Cd86 O94 2.277 . S
O87 C84 1.160 . S
O87 Cd88 2.203 . S
Cd88 O87 2.203 . S
Cd88 O90 2.411 . S
Cd88 O91 2.333 . S
Cd88 O92 2.352 . S
Cd88 O96 2.277 . S
Cd88 O97 2.356 . S
C89 O94 1.209 . S
C89 O96 1.226 . S
O90 Cd86 2.273 . S
O90 Cd88 2.411 . S
O90 C93 1.320 . S
O91 Cd88 2.333 . S
O91 C93 1.214 . S
O92 Cd88 2.352 . S
O92 C95 1.258 . S
C93 O90 1.320 . S
C93 O91 1.214 . S
O94 Cd86 2.277 . S
O94 C89 1.209 . S
C95 O92 1.258 . S
C95 O97 1.282 . S
O96 Cd88 2.277 . S
O96 C89 1.226 . S
O97 Cd88 2.356 . S
O97 C95 1.282 . S
C98 O99 1.306 . S
C98 O101 1.160 . S
O99 C98 1.306 . S
O99 Cd100 2.228 . S
Cd100 O99 2.228 . S
Cd100 O104 2.273 . S
Cd100 O108 2.277 . S
O101 C98 1.160 . S
O101 Cd102 2.203 1_455 S
Cd102 O101 2.203 1_655 S
Cd102 O104 2.411 1_655 S
Cd102 O105 2.333 . S
Cd102 O106 2.352 . S
Cd102 O110 2.277 . S
Cd102 O111 2.356 . S
C103 O108 1.209 . S
C103 O110 1.226 1_455 S
O104 Cd100 2.273 . S
O104 Cd102 2.411 1_455 S
O104 C107 1.320 . S
O105 Cd102 2.333 . S
O105 C107 1.214 1_655 S
O106 Cd102 2.352 . S
O106 C109 1.258 . S
C107 O104 1.320 . S
C107 O105 1.214 1_455 S
O108 Cd100 2.277 . S
O108 C103 1.209 . S
C109 O106 1.258 . S
C109 O111 1.282 . S
O110 Cd102 2.277 . S
O110 C103 1.226 1_655 S
O111 Cd102 2.356 . S
O111 C109 1.282 . S
C112 O113 1.306 . S
C112 O115 1.160 . S
O113 C112 1.306 . S
O113 Cd114 2.228 . S
Cd114 O113 2.228 . S
Cd114 O118 2.273 . S
Cd114 O122 2.277 . S
O115 C112 1.160 . S
O115 Cd116 2.203 . S
Cd116 O115 2.203 . S
Cd116 O118 2.411 . S
Cd116 O119 2.333 . S
Cd116 O120 2.352 . S
Cd116 O124 2.277 . S
Cd116 O125 2.356 . S
C117 O122 1.209 . S
C117 O124 1.226 . S
O118 Cd114 2.273 . S
O118 Cd116 2.411 . S
O118 C121 1.320 . S
O119 Cd116 2.333 . S
O119 C121 1.214 . S
O120 Cd116 2.352 . S
O120 C123 1.258 . S
C121 O118 1.320 . S
C121 O119 1.214 . S
O122 Cd114 2.277 . S
O122 C117 1.209 . S
C123 O120 1.258 . S
C123 O125 1.282 . S
O124 Cd116 2.277 . S
O124 C117 1.226 . S
O125 Cd116 2.356 . S
O125 C123 1.282 . S
C126 O127 1.306 . S
C126 O129 1.160 . S
O127 C126 1.306 . S
O127 Cd128 2.228 1_545 S
Cd128 O127 2.228 1_565 S
Cd128 O132 2.273 . S
Cd128 O136 2.277 . S
O129 C126 1.160 . S
O129 Cd130 2.203 1_545 S
Cd130 O129 2.203 1_565 S
Cd130 O132 2.411 . S
Cd130 O133 2.333 . S
Cd130 O134 2.352 1_565 S
Cd130 O138 2.277 . S
Cd130 O139 2.356 . S
C131 O136 1.209 . S
C131 O138 1.226 . S
O132 Cd128 2.273 . S
O132 Cd130 2.411 . S
O132 C135 1.320 . S
O133 Cd130 2.333 . S
O133 C135 1.214 . S
O134 Cd130 2.352 1_545 S
O134 C137 1.258 . S
C135 O132 1.320 . S
C135 O133 1.214 . S
O136 Cd128 2.277 . S
O136 C131 1.209 . S
C137 O134 1.258 . S
C137 O139 1.282 1_545 S
O138 Cd130 2.277 . S
O138 C131 1.226 . S
O139 Cd130 2.356 . S
O139 C137 1.282 1_565 S
C140 O141 1.306 . S
C140 O143 1.160 . S
O141 C140 1.306 . S
O141 Cd142 2.228 . S
Cd142 O141 2.228 . S
Cd142 O146 2.273 . S
Cd142 O150 2.277 . S
O143 C140 1.160 . S
O143 Cd144 2.203 . S
Cd144 O143 2.203 . S
Cd144 O146 2.411 . S
Cd144 O147 2.333 . S
Cd144 O148 2.352 . S
Cd144 O152 2.277 . S
Cd144 O153 2.356 . S
C145 O150 1.209 . S
C145 O152 1.226 . S
O146 Cd142 2.273 . S
O146 Cd144 2.411 . S
O146 C149 1.320 . S
O147 Cd144 2.333 . S
O147 C149 1.214 . S
O148 Cd144 2.352 . S
O148 C151 1.258 . S
C149 O146 1.320 . S
C149 O147 1.214 . S
O150 Cd142 2.277 . S
O150 C145 1.209 . S
C151 O148 1.258 . S
C151 O153 1.282 . S
O152 Cd144 2.277 . S
O152 C145 1.226 . S
O153 Cd144 2.356 . S
O153 C151 1.282 . S
C154 O155 1.306 . S
C154 O157 1.160 . S
O155 C154 1.306 . S
O155 Cd156 2.230 . S
Cd156 O155 2.230 . S
Cd156 O160 2.285 . S
Cd156 O164 2.290 . S
O157 C154 1.160 . S
O157 Cd158 2.203 . S
Cd158 O157 2.203 . S
Cd158 O160 2.411 . S
Cd158 O161 2.333 . S
Cd158 O162 2.352 . S
Cd158 O166 2.277 . S
Cd158 O167 2.356 . S
C159 O164 1.209 . S
C159 O166 1.226 . S
O160 Cd156 2.285 . S
O160 Cd158 2.411 . S
O160 C163 1.320 . S
O161 Cd158 2.333 . S
O161 C163 1.214 . S
O162 Cd158 2.352 . S
O162 C165 1.258 . S
C163 O160 1.320 . S
C163 O161 1.214 . S
O164 Cd156 2.290 . S
O164 C159 1.209 . S
C165 O162 1.258 . S
C165 O167 1.282 . S
O166 Cd158 2.277 . S
O166 C159 1.226 . S
O167 Cd158 2.356 . S
O167 C165 1.282 . S
C168 O169 1.306 . S
C168 O171 1.160 . S
O169 C168 1.306 . S
O169 Cd170 2.228 . S
Cd170 O169 2.228 . S
Cd170 O174 2.273 . S
Cd170 O178 2.277 . S
O171 C168 1.160 . S
O171 Cd172 2.203 . S
Cd172 O171 2.203 . S
Cd172 O174 2.411 . S
Cd172 O175 2.333 . S
Cd172 O176 2.352 . S
Cd172 O180 2.277 1_545 S
Cd172 O181 2.356 . S
C173 O178 1.209 1_565 S
C173 O180 1.226 . S
O174 Cd170 2.273 . S
O174 Cd172 2.411 . S
O174 C177 1.320 . S
O175 Cd172 2.333 . S
O175 C177 1.214 . S
O176 Cd172 2.352 . S
O176 C179 1.258 . S
C177 O174 1.320 . S
C177 O175 1.214 . S
O178 Cd170 2.277 . S
O178 C173 1.209 1_545 S
C179 O176 1.258 . S
C179 O181 1.282 . S
O180 Cd172 2.277 1_565 S
O180 C173 1.226 . S
O181 Cd172 2.356 . S
O181 C179 1.282 . S
C182 O183 1.306 . S
C182 O185 1.160 . S
O183 C182 1.306 . S
O183 Cd184 2.228 1_545 S
Cd184 O183 2.228 1_565 S
Cd184 O188 2.273 . S
Cd184 O192 2.277 . S
O185 C182 1.160 . S
O185 Cd186 2.203 1_545 S
Cd186 O185 2.203 1_565 S
Cd186 O188 2.411 . S
Cd186 O189 2.333 . S
Cd186 O190 2.352 1_565 S
Cd186 O194 2.277 . S
Cd186 O195 2.356 1_565 S
C187 O192 1.209 . S
C187 O194 1.226 . S
O188 Cd184 2.273 . S
O188 Cd186 2.411 . S
O188 C191 1.320 . S
O189 Cd186 2.333 . S
O189 C191 1.214 . S
O190 Cd186 2.352 1_545 S
O190 C193 1.258 . S
C191 O188 1.320 . S
C191 O189 1.214 . S
O192 Cd184 2.277 . S
O192 C187 1.209 . S
C193 O190 1.258 . S
C193 O195 1.282 . S
O194 Cd186 2.277 . S
O194 C187 1.226 . S
O195 Cd186 2.356 1_545 S
O195 C193 1.282 . S
C196 O197 1.306 1_545 S
C196 O199 1.160 . S
O197 C196 1.306 1_565 S
O197 Cd198 2.228 . S
Cd198 O197 2.228 . S
Cd198 O202 2.273 . S
Cd198 O206 2.277 1_565 S
O199 C196 1.160 . S
O199 Cd200 2.203 . S
Cd200 O199 2.203 . S
Cd200 O202 2.411 1_545 S
Cd200 O203 2.333 1_545 S
Cd200 O204 2.352 1_545 S
Cd200 O208 2.277 . S
Cd200 O209 2.356 . S
C201 O206 1.209 . S
C201 O208 1.226 . S
O202 Cd198 2.273 . S
O202 Cd200 2.411 1_565 S
O202 C205 1.320 . S
O203 Cd200 2.333 1_565 S
O203 C205 1.214 . S
O204 Cd200 2.352 1_565 S
O204 C207 1.258 1_565 S
C205 O202 1.320 . S
C205 O203 1.214 . S
O206 Cd198 2.277 1_545 S
O206 C201 1.209 . S
C207 O204 1.258 1_545 S
C207 O209 1.282 . S
O208 Cd200 2.277 . S
O208 C201 1.226 . S
O209 Cd200 2.356 . S
O209 C207 1.282 . S
C210 O211 1.306 . S
C210 O213 1.160 . S
O211 C210 1.306 . S
O211 Cd212 2.228 . S
Cd212 O211 2.228 . S
Cd212 O216 2.273 . S
Cd212 O220 2.277 . S
O213 C210 1.160 . S
O213 Cd214 2.203 1_554 S
Cd214 O213 2.203 1_556 S
Cd214 O216 2.411 1_556 S
Cd214 O217 2.333 . S
Cd214 O218 2.352 . S
Cd214 O222 2.277 . S
Cd214 O223 2.356 . S
C215 O220 1.209 . S
C215 O222 1.226 1_554 S
O216 Cd212 2.273 . S
O216 Cd214 2.411 1_554 S
O216 C219 1.320 . S
O217 Cd214 2.333 . S
O217 C219 1.214 1_556 S
O218 Cd214 2.352 . S
O218 C221 1.258 . S
C219 O216 1.320 . S
C219 O217 1.214 1_554 S
O220 Cd212 2.277 . S
O220 C215 1.209 . S
C221 O218 1.258 . S
C221 O223 1.282 . S
O222 Cd214 2.277 . S
O222 C215 1.226 1_556 S
O223 Cd214 2.356 . S
O223 C221 1.282 . S
C224 O225 1.306 . S
C224 O227 1.160 . S
O225 C224 1.306 . S
O225 Cd226 2.228 . S
Cd226 O225 2.228 . S
Cd226 O230 2.273 . S
Cd226 O234 2.277 . S
O227 C224 1.160 . S
O227 Cd228 2.203 . S
Cd228 O227 2.203 . S
Cd228 O230 2.411 . S
Cd228 O231 2.333 . S
Cd228 O232 2.352 . S
Cd228 O236 2.277 . S
Cd228 O237 2.356 . S
C229 O234 1.209 . S
C229 O236 1.226 . S
O230 Cd226 2.273 . S
O230 Cd228 2.411 . S
O230 C233 1.320 . S
O231 Cd228 2.333 . S
O231 C233 1.214 . S
O232 Cd228 2.352 . S
O232 C235 1.258 . S
C233 O230 1.320 . S
C233 O231 1.214 . S
O234 Cd226 2.277 . S
O234 C229 1.209 . S
C235 O232 1.258 . S
C235 O237 1.282 . S
O236 Cd228 2.277 . S
O236 C229 1.226 . S
O237 Cd228 2.356 . S
O237 C235 1.282 . S
C238 O239 1.306 . S
C238 O241 1.160 . S
O239 C238 1.306 . S
O239 Cd240 2.228 . S
Cd240 O239 2.228 . S
Cd240 O244 2.273 . S
Cd240 O248 2.277 . S
O241 C238 1.160 . S
O241 Cd242 2.203 . S
Cd242 O241 2.203 . S
Cd242 O244 2.411 . S
Cd242 O245 2.333 . S
Cd242 O246 2.352 . S
Cd242 O250 2.277 . S
Cd242 O251 2.356 . S
C243 O248 1.209 . S
C243 O250 1.226 . S
O244 Cd240 2.273 . S
O244 Cd242 2.411 . S
O244 C247 1.320 . S
O245 Cd242 2.333 . S
O245 C247 1.214 . S
O246 Cd242 2.352 . S
O246 C249 1.258 . S
C247 O244 1.320 . S
C247 O245 1.214 . S
O248 Cd240 2.277 . S
O248 C243 1.209 . S
C249 O246 1.258 . S
C249 O251 1.282 . S
O250 Cd242 2.277 . S
O250 C243 1.226 . S
O251 Cd242 2.356 . S
O251 C249 1.282 . S
C252 O253 1.306 . S
C252 O255 1.160 . S
O253 C252 1.306 . S
O253 Cd254 2.228 1_455 S
Cd254 O253 2.228 1_655 S
Cd254 O258 2.273 . S
Cd254 O262 2.277 . S
O255 C252 1.160 . S
O255 Cd256 2.203 1_455 S
Cd256 O255 2.203 1_655 S
Cd256 O258 2.411 . S
Cd256 O259 2.333 . S
Cd256 O260 2.352 1_655 S
Cd256 O264 2.277 . S
Cd256 O265 2.356 . S
C257 O262 1.209 . S
C257 O264 1.226 . S
O258 Cd254 2.273 . S
O258 Cd256 2.411 . S
O258 C261 1.320 . S
O259 Cd256 2.333 . S
O259 C261 1.214 . S
O260 Cd256 2.352 1_455 S
O260 C263 1.258 . S
C261 O258 1.320 . S
C261 O259 1.214 . S
O262 Cd254 2.277 . S
O262 C257 1.209 . S
C263 O260 1.258 . S
C263 O265 1.282 1_455 S
O264 Cd256 2.277 . S
O264 C257 1.226 . S
O265 Cd256 2.356 . S
O265 C263 1.282 1_655 S
C266 O267 1.306 . S
C266 O269 1.160 . S
O267 C266 1.306 . S
O267 Cd268 2.228 . S
Cd268 O267 2.228 . S
Cd268 O272 2.273 . S
Cd268 O276 2.277 . S
O269 C266 1.160 . S
O269 Cd270 2.203 . S
Cd270 O269 2.203 . S
Cd270 O272 2.411 . S
Cd270 O273 2.333 . S
Cd270 O274 2.352 . S
Cd270 O278 2.277 . S
Cd270 O279 2.356 . S
C271 O276 1.209 . S
C271 O278 1.226 . S
O272 Cd268 2.273 . S
O272 Cd270 2.411 . S
O272 C275 1.320 . S
O273 Cd270 2.333 . S
O273 C275 1.214 . S
O274 Cd270 2.352 . S
O274 C277 1.258 . S
C275 O272 1.320 . S
C275 O273 1.214 . S
O276 Cd268 2.277 . S
O276 C271 1.209 . S
C277 O274 1.258 . S
C277 O279 1.282 . S
O278 Cd270 2.277 . S
O278 C271 1.226 . S
O279 Cd270 2.356 . S
O279 C277 1.282 . S
C280 O281 1.306 . S
C280 O283 1.160 . S
O281 C280 1.306 . S
O281 Cd282 2.228 . S
Cd282 O281 2.228 . S
Cd282 O286 2.273 . S
Cd282 O290 2.277 . S
O283 C280 1.160 . S
O283 Cd284 2.203 1_545 S
Cd284 O283 2.203 1_565 S
Cd284 O286 2.411 1_565 S
Cd284 O287 2.333 . S
Cd284 O288 2.352 . S
Cd284 O292 2.277 . S
Cd284 O293 2.356 . S
C285 O290 1.209 . S
C285 O292 1.226 1_545 S
O286 Cd282 2.273 . S
O286 Cd284 2.411 1_545 S
O286 C289 1.320 . S
O287 Cd284 2.333 . S
O287 C289 1.214 1_565 S
O288 Cd284 2.352 . S
O288 C291 1.258 . S
C289 O286 1.320 . S
C289 O287 1.214 1_545 S
O290 Cd282 2.277 . S
O290 C285 1.209 . S
C291 O288 1.258 . S
C291 O293 1.282 . S
O292 Cd284 2.277 . S
O292 C285 1.226 1_565 S
O293 Cd284 2.356 . S
O293 C291 1.282 . S
C294 O295 1.306 . S
C294 O297 1.160 . S
O295 C294 1.306 . S
O295 Cd296 2.228 . S
Cd296 O295 2.228 . S
Cd296 O300 2.273 . S
Cd296 O304 2.277 . S
O297 C294 1.160 . S
O297 Cd298 2.203 . S
Cd298 O297 2.203 . S
Cd298 O300 2.411 . S
Cd298 O301 2.333 . S
Cd298 O302 2.352 . S
Cd298 O306 2.277 . S
Cd298 O307 2.356 . S
C299 O304 1.209 . S
C299 O306 1.226 . S
O300 Cd296 2.273 . S
O300 Cd298 2.411 . S
O300 C303 1.320 . S
O301 Cd298 2.333 . S
O301 C303 1.214 . S
O302 Cd298 2.352 . S
O302 C305 1.258 . S
C303 O300 1.320 . S
C303 O301 1.214 . S
O304 Cd296 2.277 . S
O304 C299 1.209 . S
C305 O302 1.258 . S
C305 O307 1.282 . S
O306 Cd298 2.277 . S
O306 C299 1.226 . S
O307 Cd298 2.356 . S
O307 C305 1.282 . S
C308 O309 1.306 . S
C308 O311 1.160 . S
O309 C308 1.306 . S
O309 Cd310 2.228 1_455 S
Cd310 O309 2.228 1_655 S
Cd310 O314 2.273 . S
Cd310 O318 2.277 . S
O311 C308 1.160 . S
O311 Cd312 2.203 1_455 S
Cd312 O311 2.203 1_655 S
Cd312 O314 2.411 . S
Cd312 O315 2.333 . S
Cd312 O316 2.352 1_655 S
Cd312 O320 2.277 . S
Cd312 O321 2.356 1_655 S
C313 O318 1.209 . S
C313 O320 1.226 . S
O314 Cd310 2.273 . S
O314 Cd312 2.411 . S
O314 C317 1.320 . S
O315 Cd312 2.333 . S
O315 C317 1.214 . S
O316 Cd312 2.352 1_455 S
O316 C319 1.258 . S
C317 O314 1.320 . S
C317 O315 1.214 . S
O318 Cd310 2.277 . S
O318 C313 1.209 . S
C319 O316 1.258 . S
C319 O321 1.282 . S
O320 Cd312 2.277 . S
O320 C313 1.226 . S
O321 Cd312 2.356 1_455 S
O321 C319 1.282 . S
C322 O323 1.306 . S
C322 O325 1.160 . S
O323 C322 1.306 . S
O323 Cd324 2.228 . S
Cd324 O323 2.228 . S
Cd324 O328 2.273 . S
Cd324 O332 2.277 . S
O325 C322 1.160 . S
O325 Cd326 2.203 . S
Cd326 O325 2.203 . S
Cd326 O328 2.411 . S
Cd326 O329 2.333 . S
Cd326 O330 2.352 . S
Cd326 O334 2.277 . S
Cd326 O335 2.356 . S
C327 O332 1.209 . S
C327 O334 1.226 . S
O328 Cd324 2.273 . S
O328 Cd326 2.411 . S
O328 C331 1.320 . S
O329 Cd326 2.333 . S
O329 C331 1.214 . S
O330 Cd326 2.352 . S
O330 C333 1.258 . S
C331 O328 1.320 . S
C331 O329 1.214 . S
O332 Cd324 2.277 . S
O332 C327 1.209 . S
C333 O330 1.258 . S
C333 O335 1.282 . S
O334 Cd326 2.277 . S
O334 C327 1.226 . S
O335 Cd326 2.356 . S
O335 C333 1.282 . S
C336 O337 1.306 . S
C336 O339 1.160 . S
O337 C336 1.306 . S
O337 Cd338 2.228 . S
Cd338 O337 2.228 . S
Cd338 O342 2.273 . S
Cd338 O346 2.277 . S
O339 C336 1.160 . S
O339 Cd340 2.203 . S
Cd340 O339 2.203 . S
Cd340 O342 2.411 . S
Cd340 O343 2.333 . S
Cd340 O344 2.352 . S
Cd340 O348 2.277 . S
Cd340 O349 2.356 . S
C341 O346 1.209 . S
C341 O348 1.226 . S
O342 Cd338 2.273 . S
O342 Cd340 2.411 . S
O342 C345 1.320 . S
O343 Cd340 2.333 . S
O343 C345 1.214 . S
O344 Cd340 2.352 . S
O344 C347 1.258 . S
C345 O342 1.320 . S
C345 O343 1.214 . S
O346 Cd338 2.277 . S
O346 C341 1.209 . S
C347 O344 1.258 . S
C347 O349 1.282 . S
O348 Cd340 2.277 . S
O348 C341 1.226 . S
O349 Cd340 2.356 . S
O349 C347 1.282 . S
C350 O351 1.306 . S
C350 O353 1.160 . S
O351 C350 1.306 . S
O351 Cd352 2.228 1_554 S
Cd352 O351 2.228 1_556 S
Cd352 O356 2.273 . S
Cd352 O360 2.277 . S
O353 C350 1.160 . S
O353 Cd354 2.203 1_554 S
Cd354 O353 2.203 1_556 S
Cd354 O356 2.411 . S
Cd354 O357 2.333 . S
Cd354 O358 2.352 1_556 S
Cd354 O362 2.277 . S
Cd354 O363 2.356 1_556 S
C355 O360 1.209 . S
C355 O362 1.226 . S
O356 Cd352 2.273 . S
O356 Cd354 2.411 . S
O356 C359 1.320 . S
O357 Cd354 2.333 . S
O357 C359 1.214 . S
O358 Cd354 2.352 1_554 S
O358 C361 1.258 . S
C359 O356 1.320 . S
C359 O357 1.214 . S
O360 Cd352 2.277 . S
O360 C355 1.209 . S
C361 O358 1.258 . S
C361 O363 1.282 . S
O362 Cd354 2.277 . S
O362 C355 1.226 . S
O363 Cd354 2.356 1_554 S
O363 C361 1.282 . S
C364 O365 1.306 . S
C364 O367 1.160 . S
O365 C364 1.306 . S
O365 Cd366 2.228 . S
Cd366 O365 2.228 . S
Cd366 O370 2.273 . S
Cd366 O374 2.277 . S
O367 C364 1.160 . S
O367 Cd368 2.203 . S
Cd368 O367 2.203 . S
Cd368 O370 2.411 . S
Cd368 O371 2.333 . S
Cd368 O372 2.352 . S
Cd368 O376 2.277 1_455 S
Cd368 O377 2.356 . S
C369 O374 1.209 1_655 S
C369 O376 1.226 . S
O370 Cd366 2.273 . S
O370 Cd368 2.411 . S
O370 C373 1.320 . S
O371 Cd368 2.333 . S
O371 C373 1.214 . S
O372 Cd368 2.352 . S
O372 C375 1.258 . S
C373 O370 1.320 . S
C373 O371 1.214 . S
O374 Cd366 2.277 . S
O374 C369 1.209 1_455 S
C375 O372 1.258 . S
C375 O377 1.282 . S
O376 Cd368 2.277 1_655 S
O376 C369 1.226 . S
O377 Cd368 2.356 . S
O377 C375 1.282 . S
C378 O379 1.315 . S
C378 O381 1.137 1_655 S
O379 C378 1.315 . S
O379 Cd380 2.228 . S
Cd380 O379 2.228 . S
Cd380 O384 2.273 1_655 S
Cd380 O388 2.277 1_655 S
O381 C378 1.137 1_455 S
O381 Cd382 2.203 . S
Cd382 O381 2.203 . S
Cd382 O384 2.411 . S
Cd382 O385 2.333 . S
Cd382 O386 2.352 . S
Cd382 O390 2.277 . S
Cd382 O391 2.356 . S
C383 O388 1.209 . S
C383 O390 1.226 . S
O384 Cd380 2.273 1_455 S
O384 Cd382 2.411 . S
O384 C387 1.320 . S
O385 Cd382 2.333 . S
O385 C387 1.214 . S
O386 Cd382 2.352 . S
O386 C389 1.258 . S
C387 O384 1.320 . S
C387 O385 1.214 . S
O388 Cd380 2.277 1_455 S
O388 C383 1.209 . S
C389 O386 1.258 . S
C389 O391 1.282 . S
O390 Cd382 2.277 . S
O390 C383 1.226 . S
O391 Cd382 2.356 . S
O391 C389 1.282 . S
C392 O393 1.306 . S
C392 O395 1.160 . S
O393 C392 1.306 . S
O393 Cd394 2.228 . S
Cd394 O393 2.228 . S
Cd394 O398 2.273 . S
Cd394 O402 2.277 . S
O395 C392 1.160 . S
O395 Cd396 2.203 . S
Cd396 O395 2.203 . S
Cd396 O398 2.411 . S
Cd396 O399 2.333 . S
Cd396 O400 2.352 . S
Cd396 O404 2.277 . S
Cd396 O405 2.356 . S
C397 O402 1.209 . S
C397 O404 1.226 . S
O398 Cd394 2.273 . S
O398 Cd396 2.411 . S
O398 C401 1.320 . S
O399 Cd396 2.333 . S
O399 C401 1.214 . S
O400 Cd396 2.352 . S
O400 C403 1.258 . S
C401 O398 1.320 . S
C401 O399 1.214 . S
O402 Cd394 2.277 . S
O402 C397 1.209 . S
C403 O400 1.258 . S
C403 O405 1.282 . S
O404 Cd396 2.277 . S
O404 C397 1.226 . S
O405 Cd396 2.356 . S
O405 C403 1.282 . S
C406 O407 1.306 . S
C406 O409 1.160 . S
O407 C406 1.306 . S
O407 Cd408 2.230 . S
Cd408 O407 2.230 . S
Cd408 O412 2.285 . S
Cd408 O416 2.290 . S
O409 C406 1.160 . S
O409 Cd410 2.203 . S
Cd410 O409 2.203 . S
Cd410 O412 2.411 . S
Cd410 O413 2.333 . S
Cd410 O414 2.352 . S
Cd410 O418 2.277 . S
Cd410 O419 2.356 . S
C411 O416 1.209 . S
C411 O418 1.226 . S
O412 Cd408 2.285 . S
O412 Cd410 2.411 . S
O412 C415 1.320 . S
O413 Cd410 2.333 . S
O413 C415 1.214 . S
O414 Cd410 2.352 . S
O414 C417 1.258 . S
C415 O412 1.320 . S
C415 O413 1.214 . S
O416 Cd408 2.290 . S
O416 C411 1.209 . S
C417 O414 1.258 . S
C417 O419 1.282 . S
O418 Cd410 2.277 . S
O418 C411 1.226 . S
O419 Cd410 2.356 . S
O419 C417 1.282 . S
C420 O421 1.306 . S
C420 O423 1.160 . S
O421 C420 1.306 . S
O421 Cd422 2.228 . S
Cd422 O421 2.228 . S
Cd422 O426 2.273 . S
Cd422 O430 2.277 . S
O423 C420 1.160 . S
O423 Cd424 2.203 . S
Cd424 O423 2.203 . S
Cd424 O426 2.411 . S
Cd424 O427 2.333 . S
Cd424 O428 2.352 . S
Cd424 O432 2.277 . S
Cd424 O433 2.356 . S
C425 O430 1.209 . S
C425 O432 1.226 . S
O426 Cd422 2.273 . S
O426 Cd424 2.411 . S
O426 C429 1.320 . S
O427 Cd424 2.333 . S
O427 C429 1.214 . S
O428 Cd424 2.352 . S
O428 C431 1.258 . S
C429 O426 1.320 . S
C429 O427 1.214 . S
O430 Cd422 2.277 . S
O430 C425 1.209 . S
C431 O428 1.258 . S
C431 O433 1.282 . S
O432 Cd424 2.277 . S
O432 C425 1.226 . S
O433 Cd424 2.356 . S
O433 C431 1.282 . S
C434 O435 1.306 . S
C434 O437 1.160 . S
O435 C434 1.306 . S
O435 Cd436 2.228 . S
Cd436 O435 2.228 . S
Cd436 O440 2.273 . S
Cd436 O444 2.277 . S
O437 C434 1.160 . S
O437 Cd438 2.203 . S
Cd438 O437 2.203 . S
Cd438 O440 2.411 . S
Cd438 O441 2.333 . S
Cd438 O442 2.352 . S
Cd438 O446 2.277 . S
Cd438 O447 2.356 . S
C439 O444 1.209 . S
C439 O446 1.226 . S
O440 Cd436 2.273 . S
O440 Cd438 2.411 . S
O440 C443 1.320 . S
O441 Cd438 2.333 . S
O441 C443 1.214 . S
O442 Cd438 2.352 . S
O442 C445 1.258 . S
C443 O440 1.320 . S
C443 O441 1.214 . S
O444 Cd436 2.277 . S
O444 C439 1.209 . S
C445 O442 1.258 . S
C445 O447 1.282 . S
O446 Cd438 2.277 . S
O446 C439 1.226 . S
O447 Cd438 2.356 . S
O447 C445 1.282 . S
C448 O449 1.306 . S
C448 O451 1.160 . S
O449 C448 1.306 . S
O449 Cd450 2.228 . S
Cd450 O449 2.228 . S
Cd450 O454 2.273 . S
Cd450 O458 2.277 . S
O451 C448 1.160 . S
O451 Cd452 2.203 . S
Cd452 O451 2.203 . S
Cd452 O454 2.411 . S
Cd452 O455 2.333 . S
Cd452 O456 2.352 . S
Cd452 O460 2.277 . S
Cd452 O461 2.356 . S
C453 O458 1.209 . S
C453 O460 1.226 . S
O454 Cd450 2.273 . S
O454 Cd452 2.411 . S
O454 C457 1.320 . S
O455 Cd452 2.333 . S
O455 C457 1.214 . S
O456 Cd452 2.352 . S
O456 C459 1.258 . S
C457 O454 1.320 . S
C457 O455 1.214 . S
O458 Cd450 2.277 . S
O458 C453 1.209 . S
C459 O456 1.258 . S
C459 O461 1.282 . S
O460 Cd452 2.277 . S
O460 C453 1.226 . S
O461 Cd452 2.356 . S
O461 C459 1.282 . S
C462 O463 1.315 . S
C462 O465 1.137 1_556 S
O463 C462 1.315 . S
O463 Cd464 2.228 . S
Cd464 O463 2.228 . S
Cd464 O468 2.273 1_556 S
Cd464 O472 2.277 1_556 S
O465 C462 1.137 1_554 S
O465 Cd466 2.203 . S
Cd466 O465 2.203 . S
Cd466 O468 2.411 . S
Cd466 O469 2.333 . S
Cd466 O470 2.352 . S
Cd466 O474 2.277 . S
Cd466 O475 2.356 . S
C467 O472 1.209 . S
C467 O474 1.226 . S
O468 Cd464 2.273 1_554 S
O468 Cd466 2.411 . S
O468 C471 1.320 . S
O469 Cd466 2.333 . S
O469 C471 1.214 . S
O470 Cd466 2.352 . S
O470 C473 1.258 . S
C471 O468 1.320 . S
C471 O469 1.214 . S
O472 Cd464 2.277 1_554 S
O472 C467 1.209 . S
C473 O470 1.258 . S
C473 O475 1.282 . S
O474 Cd466 2.277 . S
O474 C467 1.226 . S
O475 Cd466 2.356 . S
O475 C473 1.282 . S
C476 O477 1.306 . S
C476 O479 1.160 . S
O477 C476 1.306 . S
O477 Cd478 2.228 . S
Cd478 O477 2.228 . S
Cd478 O482 2.273 . S
Cd478 O486 2.277 . S
O479 C476 1.160 . S
O479 Cd480 2.203 . S
Cd480 O479 2.203 . S
Cd480 O482 2.411 . S
Cd480 O483 2.333 . S
Cd480 O484 2.352 . S
Cd480 O488 2.277 . S
Cd480 O489 2.356 . S
C481 O486 1.209 . S
C481 O488 1.226 . S
O482 Cd478 2.273 . S
O482 Cd480 2.411 . S
O482 C485 1.320 . S
O483 Cd480 2.333 . S
O483 C485 1.214 . S
O484 Cd480 2.352 . S
O484 C487 1.258 . S
C485 O482 1.320 . S
C485 O483 1.214 . S
O486 Cd478 2.277 . S
O486 C481 1.209 . S
C487 O484 1.258 . S
C487 O489 1.282 . S
O488 Cd480 2.277 . S
O488 C481 1.226 . S
O489 Cd480 2.356 . S
O489 C487 1.282 . S
C490 O491 1.306 . S
C490 O493 1.160 . S
O491 C490 1.306 . S
O491 Cd492 2.228 . S
Cd492 O491 2.228 . S
Cd492 O496 2.273 . S
Cd492 O500 2.277 . S
O493 C490 1.160 . S
O493 Cd494 2.203 . S
Cd494 O493 2.203 . S
Cd494 O496 2.411 . S
Cd494 O497 2.333 . S
Cd494 O498 2.352 . S
Cd494 O502 2.277 . S
Cd494 O503 2.356 . S
C495 O500 1.209 . S
C495 O502 1.226 . S
O496 Cd492 2.273 . S
O496 Cd494 2.411 . S
O496 C499 1.320 . S
O497 Cd494 2.333 . S
O497 C499 1.214 . S
O498 Cd494 2.352 . S
O498 C501 1.258 . S
C499 O496 1.320 . S
C499 O497 1.214 . S
O500 Cd492 2.277 . S
O500 C495 1.209 . S
C501 O498 1.258 . S
C501 O503 1.282 . S
O502 Cd494 2.277 . S
O502 C495 1.226 . S
O503 Cd494 2.356 . S
O503 C501 1.282 . S
C504 O505 1.306 . S
C504 O507 1.160 . S
O505 C504 1.306 . S
O505 Cd506 2.228 . S
Cd506 O505 2.228 . S
Cd506 O510 2.273 . S
Cd506 O514 2.277 . S
O507 C504 1.160 . S
O507 Cd508 2.203 . S
Cd508 O507 2.203 . S
Cd508 O510 2.411 . S
Cd508 O511 2.333 . S
Cd508 O512 2.352 . S
Cd508 O516 2.277 . S
Cd508 O517 2.356 . S
C509 O514 1.209 . S
C509 O516 1.226 . S
O510 Cd506 2.273 . S
O510 Cd508 2.411 . S
O510 C513 1.320 . S
O511 Cd508 2.333 . S
O511 C513 1.214 . S
O512 Cd508 2.352 . S
O512 C515 1.258 . S
C513 O510 1.320 . S
C513 O511 1.214 . S
O514 Cd506 2.277 . S
O514 C509 1.209 . S
C515 O512 1.258 . S
C515 O517 1.282 . S
O516 Cd508 2.277 . S
O516 C509 1.226 . S
O517 Cd508 2.356 . S
O517 C515 1.282 . S
C518 O519 1.306 . S
C518 O521 1.160 . S
O519 C518 1.306 . S
O519 Cd520 2.228 . S
Cd520 O519 2.228 . S
Cd520 O524 2.273 . S
Cd520 O528 2.277 . S
O521 C518 1.160 . S
O521 Cd522 2.203 1_554 S
Cd522 O521 2.203 1_556 S
Cd522 O524 2.411 1_556 S
Cd522 O525 2.333 . S
Cd522 O526 2.352 . S
Cd522 O530 2.277 1_556 S
Cd522 O531 2.356 . S
C523 O528 1.209 . S
C523 O530 1.226 . S
O524 Cd520 2.273 . S
O524 Cd522 2.411 1_554 S
O524 C527 1.320 . S
O525 Cd522 2.333 . S
O525 C527 1.214 1_556 S
O526 Cd522 2.352 . S
O526 C529 1.258 . S
C527 O524 1.320 . S
C527 O525 1.214 1_554 S
O528 Cd520 2.277 . S
O528 C523 1.209 . S
C529 O526 1.258 . S
C529 O531 1.282 . S
O530 Cd522 2.277 1_554 S
O530 C523 1.226 . S
O531 Cd522 2.356 . S
O531 C529 1.282 . S
C532 O533 1.306 . S
C532 O535 1.160 . S
O533 C532 1.306 . S
O533 Cd534 2.228 . S
Cd534 O533 2.228 . S
Cd534 O538 2.273 . S
Cd534 O542 2.277 . S
O535 C532 1.160 . S
O535 Cd536 2.203 . S
Cd536 O535 2.203 . S
Cd536 O538 2.411 . S
Cd536 O539 2.333 . S
Cd536 O540 2.352 . S
Cd536 O544 2.277 . S
Cd536 O545 2.356 . S
C537 O542 1.209 . S
C537 O544 1.226 . S
O538 Cd534 2.273 . S
O538 Cd536 2.411 . S
O538 C541 1.320 . S
O539 Cd536 2.333 . S
O539 C541 1.214 . S
O540 Cd536 2.352 . S
O540 C543 1.258 . S
C541 O538 1.320 . S
C541 O539 1.214 . S
O542 Cd534 2.277 . S
O542 C537 1.209 . S
C543 O540 1.258 . S
C543 O545 1.282 . S
O544 Cd536 2.277 . S
O544 C537 1.226 . S
O545 Cd536 2.356 . S
O545 C543 1.282 . S
C546 O547 1.306 . S
C546 O549 1.160 . S
O547 C546 1.306 . S
O547 Cd548 2.228 . S
Cd548 O547 2.228 . S
Cd548 O552 2.273 . S
Cd548 O556 2.277 . S
O549 C546 1.160 . S
O549 Cd550 2.203 . S
Cd550 O549 2.203 . S
Cd550 O552 2.411 . S
Cd550 O553 2.333 . S
Cd550 O554 2.352 . S
Cd550 O558 2.277 . S
Cd550 O559 2.356 . S
C551 O556 1.209 . S
C551 O558 1.226 . S
O552 Cd548 2.273 . S
O552 Cd550 2.411 . S
O552 C555 1.320 . S
O553 Cd550 2.333 . S
O553 C555 1.214 . S
O554 Cd550 2.352 . S
O554 C557 1.258 . S
C555 O552 1.320 . S
C555 O553 1.214 . S
O556 Cd548 2.277 . S
O556 C551 1.209 . S
C557 O554 1.258 . S
C557 O559 1.282 . S
O558 Cd550 2.277 . S
O558 C551 1.226 . S
O559 Cd550 2.356 . S
O559 C557 1.282 . S
C560 O561 1.306 . S
C560 O563 1.160 . S
O561 C560 1.306 . S
O561 Cd562 2.228 . S
Cd562 O561 2.228 . S
Cd562 O566 2.273 . S
Cd562 O570 2.277 . S
O563 C560 1.160 . S
O563 Cd564 2.203 . S
Cd564 O563 2.203 . S
Cd564 O566 2.411 . S
Cd564 O567 2.333 . S
Cd564 O568 2.352 . S
Cd564 O572 2.277 . S
Cd564 O573 2.356 . S
C565 O570 1.209 . S
C565 O572 1.226 . S
O566 Cd562 2.273 . S
O566 Cd564 2.411 . S
O566 C569 1.320 . S
O567 Cd564 2.333 . S
O567 C569 1.214 . S
O568 Cd564 2.352 . S
O568 C571 1.258 . S
C569 O566 1.320 . S
C569 O567 1.214 . S
O570 Cd562 2.277 . S
O570 C565 1.209 . S
C571 O568 1.258 . S
C571 O573 1.282 . S
O572 Cd564 2.277 . S
O572 C565 1.226 . S
O573 Cd564 2.356 . S
O573 C571 1.282 . S
C574 O575 1.306 . S
C574 O577 1.160 . S
O575 C574 1.306 . S
O575 Cd576 2.228 . S
Cd576 O575 2.228 . S
Cd576 O580 2.273 . S
Cd576 O584 2.277 . S
O577 C574 1.160 . S
O577 Cd578 2.203 . S
Cd578 O577 2.203 . S
Cd578 O580 2.411 . S
Cd578 O581 2.333 . S
Cd578 O582 2.352 . S
Cd578 O586 2.277 . S
Cd578 O587 2.356 . S
C579 O584 1.209 . S
C579 O586 1.226 . S
O580 Cd576 2.273 . S
O580 Cd578 2.411 . S
O580 C583 1.320 . S
O581 Cd578 2.333 . S
O581 C583 1.214 . S
O582 Cd578 2.352 . S
O582 C585 1.258 . S
C583 O580 1.320 . S
C583 O581 1.214 . S
O584 Cd576 2.277 . S
O584 C579 1.209 . S
C585 O582 1.258 . S
C585 O587 1.282 . S
O586 Cd578 2.277 . S
O586 C579 1.226 . S
O587 Cd578 2.356 . S
O587 C585 1.282 . S
C588 O589 1.315 . S
C588 O591 1.137 1_565 S
O589 C588 1.315 . S
O589 Cd590 2.228 . S
Cd590 O589 2.228 . S
Cd590 O594 2.273 1_565 S
Cd590 O598 2.277 1_565 S
O591 C588 1.137 1_545 S
O591 Cd592 2.203 . S
Cd592 O591 2.203 . S
Cd592 O594 2.411 . S
Cd592 O595 2.333 . S
Cd592 O596 2.352 . S
Cd592 O600 2.277 . S
Cd592 O601 2.356 . S
C593 O598 1.209 . S
C593 O600 1.226 . S
O594 Cd590 2.273 1_545 S
O594 Cd592 2.411 . S
O594 C597 1.320 . S
O595 Cd592 2.333 . S
O595 C597 1.214 . S
O596 Cd592 2.352 . S
O596 C599 1.258 . S
C597 O594 1.320 . S
C597 O595 1.214 . S
O598 Cd590 2.277 1_545 S
O598 C593 1.209 . S
C599 O596 1.258 . S
C599 O601 1.282 . S
O600 Cd592 2.277 . S
O600 C593 1.226 . S
O601 Cd592 2.356 . S
O601 C599 1.282 . S
C602 O603 1.306 . S
C602 O605 1.160 . S
O603 C602 1.306 . S
O603 Cd604 2.228 . S
Cd604 O603 2.228 . S
Cd604 O608 2.273 . S
Cd604 O612 2.277 . S
O605 C602 1.160 . S
O605 Cd606 2.203 . S
Cd606 O605 2.203 . S
Cd606 O608 2.411 . S
Cd606 O609 2.333 . S
Cd606 O610 2.352 . S
Cd606 O614 2.277 1_554 S
Cd606 O615 2.356 . S
C607 O612 1.209 1_556 S
C607 O614 1.226 . S
O608 Cd604 2.273 . S
O608 Cd606 2.411 . S
O608 C611 1.320 . S
O609 Cd606 2.333 . S
O609 C611 1.214 . S
O610 Cd606 2.352 . S
O610 C613 1.258 . S
C611 O608 1.320 . S
C611 O609 1.214 . S
O612 Cd604 2.277 . S
O612 C607 1.209 1_554 S
C613 O610 1.258 . S
C613 O615 1.282 . S
O614 Cd606 2.277 1_556 S
O614 C607 1.226 . S
O615 Cd606 2.356 . S
O615 C613 1.282 . S
C616 O617 1.306 . S
C616 O619 1.160 . S
O617 C616 1.306 . S
O617 Cd618 2.228 . S
Cd618 O617 2.228 . S
Cd618 O622 2.273 . S
Cd618 O626 2.277 . S
O619 C616 1.160 . S
O619 Cd620 2.203 . S
Cd620 O619 2.203 . S
Cd620 O622 2.411 . S
Cd620 O623 2.333 . S
Cd620 O624 2.352 . S
Cd620 O628 2.277 . S
Cd620 O629 2.356 . S
C621 O626 1.209 . S
C621 O628 1.226 . S
O622 Cd618 2.273 . S
O622 Cd620 2.411 . S
O622 C625 1.320 . S
O623 Cd620 2.333 . S
O623 C625 1.214 . S
O624 Cd620 2.352 . S
O624 C627 1.258 . S
C625 O622 1.320 . S
C625 O623 1.214 . S
O626 Cd618 2.277 . S
O626 C621 1.209 . S
C627 O624 1.258 . S
C627 O629 1.282 . S
O628 Cd620 2.277 . S
O628 C621 1.226 . S
O629 Cd620 2.356 . S
O629 C627 1.282 . S
C630 O631 1.306 1_554 S
C630 O633 1.160 . S
O631 C630 1.306 1_556 S
O631 Cd632 2.228 . S
Cd632 O631 2.228 . S
Cd632 O636 2.273 . S
Cd632 O640 2.277 1_556 S
O633 C630 1.160 . S
O633 Cd634 2.203 . S
Cd634 O633 2.203 . S
Cd634 O636 2.411 1_554 S
Cd634 O637 2.333 1_554 S
Cd634 O638 2.352 1_554 S
Cd634 O642 2.277 . S
Cd634 O643 2.356 . S
C635 O640 1.209 . S
C635 O642 1.226 . S
O636 Cd632 2.273 . S
O636 Cd634 2.411 1_556 S
O636 C639 1.320 . S
O637 Cd634 2.333 1_556 S
O637 C639 1.214 . S
O638 Cd634 2.352 1_556 S
O638 C641 1.258 1_556 S
C639 O636 1.320 . S
C639 O637 1.214 . S
O640 Cd632 2.277 1_554 S
O640 C635 1.209 . S
C641 O638 1.258 1_554 S
C641 O643 1.282 . S
O642 Cd634 2.277 . S
O642 C635 1.226 . S
O643 Cd634 2.356 . S
O643 C641 1.282 . S
C644 O645 1.306 . S
C644 O647 1.160 . S
O645 C644 1.306 . S
O645 Cd646 2.228 . S
Cd646 O645 2.228 . S
Cd646 O650 2.273 . S
Cd646 O654 2.277 . S
O647 C644 1.160 . S
O647 Cd648 2.203 1_545 S
Cd648 O647 2.203 1_565 S
Cd648 O650 2.411 1_565 S
Cd648 O651 2.333 . S
Cd648 O652 2.352 . S
Cd648 O656 2.277 1_565 S
Cd648 O657 2.356 . S
C649 O654 1.209 . S
C649 O656 1.226 . S
O650 Cd646 2.273 . S
O650 Cd648 2.411 1_545 S
O650 C653 1.320 . S
O651 Cd648 2.333 . S
O651 C653 1.214 1_565 S
O652 Cd648 2.352 . S
O652 C655 1.258 . S
C653 O650 1.320 . S
C653 O651 1.214 1_545 S
O654 Cd646 2.277 . S
O654 C649 1.209 . S
C655 O652 1.258 . S
C655 O657 1.282 . S
O656 Cd648 2.277 1_545 S
O656 C649 1.226 . S
O657 Cd648 2.356 . S
O657 C655 1.282 . S
C658 O659 1.306 . S
C658 O661 1.160 . S
O659 C658 1.306 . S
O659 Cd660 2.230 . S
Cd660 O659 2.230 . S
Cd660 O664 2.285 . S
Cd660 O668 2.290 . S
O661 C658 1.160 . S
O661 Cd662 2.203 . S
Cd662 O661 2.203 . S
Cd662 O664 2.411 . S
Cd662 O665 2.333 . S
Cd662 O666 2.352 . S
Cd662 O670 2.277 . S
Cd662 O671 2.356 . S
C663 O668 1.209 . S
C663 O670 1.226 . S
O664 Cd660 2.285 . S
O664 Cd662 2.411 . S
O664 C667 1.320 . S
O665 Cd662 2.333 . S
O665 C667 1.214 . S
O666 Cd662 2.352 . S
O666 C669 1.258 . S
C667 O664 1.320 . S
C667 O665 1.214 . S
O668 Cd660 2.290 . S
O668 C663 1.209 . S
C669 O666 1.258 . S
C669 O671 1.282 . S
O670 Cd662 2.277 . S
O670 C663 1.226 . S
O671 Cd662 2.356 . S
O671 C669 1.282 . S
C0 C364 1.014 . S
C378 C14 4.180 1_655 S
C28 C336 3.874 . S
C350 C42 1.211 . S
C56 C420 4.137 . S
C70 C434 3.903 . S
C84 C392 1.110 . S
C98 C406 1.242 . S
C168 C112 1.014 . S
C126 C182 1.211 . S
C196 C140 4.137 . S
C154 C210 1.242 . S
C602 C224 1.014 . S
C630 C238 4.137 . S
C308 C252 1.211 . S
C560 C266 3.874 . S
C658 C280 1.242 . S
C574 C294 1.110 . S
C322 C616 3.903 . S
C448 C504 3.874 . S
C518 C462 4.180 1_554 S
C476 C532 1.110 . S
C546 C490 3.903 . S
C588 C644 4.180 1_565 S
C9 C107 1.060 . S
C65 C23 3.938 1_655 S
C37 C79 3.826 . S
C51 C93 1.217 . S
C289 C121 1.060 . S
C583 C135 1.217 . S
C149 C597 4.004 . S
C163 C611 1.122 . S
C667 C177 1.122 . S
C191 C303 1.135 . S
C205 C653 3.938 1_565 S
C219 C233 1.060 . S
C247 C471 4.004 . S
C261 C485 1.217 . S
C499 C275 3.826 . S
C317 C541 1.135 . S
C513 C331 3.826 . S
C443 C345 3.823 . S
C359 C401 1.135 . S
C415 C373 1.122 . S
C387 C429 4.004 . S
C457 C625 3.823 . S
C639 C527 3.938 1_556 S
C569 C555 3.823 . S
C5 C411 2.278 . S
C425 C19 1.341 . S
C33 C439 1.328 . S
C47 C397 2.331 . S
C383 C61 1.273 . S
C75 C341 1.329 . S
C355 C89 2.207 . S
C103 C369 2.185 1_455 S
C663 C117 2.278 . S
C131 C299 2.331 . S
C145 C649 1.341 . S
C229 C159 2.278 . S
C173 C285 2.185 1_565 S
C187 C579 2.207 . S
C593 C201 1.273 . S
C607 C215 2.185 1_556 S
C523 C243 1.341 . S
C537 C257 2.331 . S
C551 C271 1.328 . S
C313 C481 2.207 . S
C453 C327 1.329 . S
C467 C635 1.273 . S
C495 C565 1.329 . S
C621 C509 1.328 . S
C11 C319 2.466 . S
C25 C571 2.007 . S
C333 C39 1.963 . S
C641 C53 2.158 . S
C263 C67 2.158 . S
C277 C81 1.963 . S
C95 C627 2.178 . S
C109 C249 2.189 . S
C193 C123 2.466 . S
C137 C207 2.158 . S
C221 C151 2.189 . S
C179 C165 2.482 . S
C235 C361 2.466 . S
C431 C291 2.189 . S
C389 C305 2.063 . S
C347 C655 2.007 . S
C669 C375 2.482 . S
C599 C403 2.063 . S
C613 C417 2.482 . S
C585 C445 2.178 . S
C529 C459 2.007 . S
C543 C473 2.063 . S
C487 C557 2.178 . S
C501 C515 1.963 . S
