# Generated by pormake.
# Topology vby, (6)-cn, num edge types: 1
# Building blocks:
#     Node 0, Type 0, BuildingBlock: BETFAJ_clean_sbu_0, # of connection points: 6
#     Node 1, Type 0, BuildingBlock: BETFAJ_clean_sbu_0, # of connection points: 6
#     Node 2, Type 0, BuildingBlock: BETFAJ_clean_sbu_0, # of connection points: 6
#     Node 3, Type 0, BuildingBlock: BETFAJ_clean_sbu_0, # of connection points: 6
#     Node 4, Type 0, BuildingBlock: BETFAJ_clean_sbu_0, # of connection points: 6
#     Node 5, Type 0, BuildingBlock: BETFAJ_clean_sbu_0, # of connection points: 6
#     Node 6, Type 0, BuildingBlock: BETFAJ_clean_sbu_0, # of connection points: 6
#     Node 7, Type 0, BuildingBlock: BETFAJ_clean_sbu_0, # of connection points: 6
#     Edge 8, Type (0, 0), BuildingBlock: XUDNAN_clean_linker_2, # of connection points: 2
#     Edge 9, Type (0, 0), BuildingBlock: XUDNAN_clean_linker_2, # of connection points: 2
#     Edge 10, Type (0, 0), BuildingBlock: XUDNAN_clean_linker_2, # of connection points: 2
#     Edge 11, Type (0, 0), BuildingBlock: XUDNAN_clean_linker_2, # of connection points: 2
#     Edge 12, Type (0, 0), BuildingBlock: XUDNAN_clean_linker_2, # of connection points: 2
#     Edge 13, Type (0, 0), BuildingBlock: XUDNAN_clean_linker_2, # of connection points: 2
#     Edge 14, Type (0, 0), BuildingBlock: XUDNAN_clean_linker_2, # of connection points: 2
#     Edge 15, Type (0, 0), BuildingBlock: XUDNAN_clean_linker_2, # of connection points: 2
#     Edge 16, Type (0, 0), BuildingBlock: XUDNAN_clean_linker_2, # of connection points: 2
#     Edge 17, Type (0, 0), BuildingBlock: XUDNAN_clean_linker_2, # of connection points: 2
#     Edge 18, Type (0, 0), BuildingBlock: XUDNAN_clean_linker_2, # of connection points: 2
#     Edge 19, Type (0, 0), BuildingBlock: XUDNAN_clean_linker_2, # of connection points: 2
#     Edge 20, Type (0, 0), BuildingBlock: XUDNAN_clean_linker_2, # of connection points: 2
#     Edge 21, Type (0, 0), BuildingBlock: XUDNAN_clean_linker_2, # of connection points: 2
#     Edge 22, Type (0, 0), BuildingBlock: XUDNAN_clean_linker_2, # of connection points: 2
#     Edge 23, Type (0, 0), BuildingBlock: XUDNAN_clean_linker_2, # of connection points: 2
#     Edge 24, Type (0, 0), BuildingBlock: XUDNAN_clean_linker_2, # of connection points: 2
#     Edge 25, Type (0, 0), BuildingBlock: XUDNAN_clean_linker_2, # of connection points: 2
#     Edge 26, Type (0, 0), BuildingBlock: XUDNAN_clean_linker_2, # of connection points: 2
#     Edge 27, Type (0, 0), BuildingBlock: XUDNAN_clean_linker_2, # of connection points: 2
#     Edge 28, Type (0, 0), BuildingBlock: XUDNAN_clean_linker_2, # of connection points: 2
#     Edge 29, Type (0, 0), BuildingBlock: XUDNAN_clean_linker_2, # of connection points: 2
#     Edge 30, Type (0, 0), BuildingBlock: XUDNAN_clean_linker_2, # of connection points: 2
#     Edge 31, Type (0, 0), BuildingBlock: XUDNAN_clean_linker_2, # of connection points: 2
# Relax obj value: 0.202
# Max RMSD: 0.217
# Mean RMSD: 0.217
data_MOF--net-vby--node1-BETFAJ_clean_sbu_0--edge1-XUDNAN_clean_linker_2
_symmetry_space_group_name_H-M    P1
_symmetry_Int_Tables_number       1
_symmetry_cell_setting            triclinic
loop_
_symmetry_equiv_pos_as_xyz
'x, y, z'
_cell_length_a     15.597065
_cell_length_b     103.79313
_cell_length_c     29.500112
_cell_angle_alpha  90.020835
_cell_angle_beta   85.57951
_cell_angle_gamma 90.032971
loop_
_atom_site_label
_atom_site_type_symbol
_atom_site_fract_x
_atom_site_fract_y
_atom_site_fract_z
_atom_type_partial_charge
Sm0 Sm 0.05479 0.4049 0.01695 0.0
Sm1 Sm 0.05737 0.37387 0.02529 0.0
C2 C 0.05321 0.42919 0.98862 0.0
C3 C 0.06478 0.44272 0.00325 0.0
C4 C 0.09705 0.45188 0.97136 0.0
C5 C 0.10141 0.46494 0.98311 0.0
C6 C 0.07336 0.46919 0.02714 0.0
C7 C 0.04252 0.4599 0.0593 0.0
C8 C 0.03833 0.44683 0.04751 0.0
C9 C 0.04941 0.39761 0.10811 0.0
C10 C 0.87303 0.38901 0.01772 0.0
C11 C 0.04576 0.34898 0.04668 0.0
C12 C 0.08598 0.33623 0.03604 0.0
C13 C 0.09753 0.32747 0.07136 0.0
C14 C 0.12688 0.31488 0.06187 0.0
C15 C 0.14481 0.31073 0.0167 0.0
C16 C 0.13609 0.3197 0.98145 0.0
C17 C 0.10717 0.33228 0.99097 0.0
C18 C 0.08153 0.38381 0.93779 0.0
C19 C 0.2396 0.38922 0.0142 0.0
O20 O 0.98522 0.4231 0.0065 0.0
O21 O 0.1215 0.42181 0.98307 0.0
O22 O 0.05313 0.39043 0.07375 0.0
O23 O 0.04802 0.40947 0.09452 0.0
O24 O 0.91781 0.39922 0.00327 0.0
O25 O 0.91037 0.37877 0.03477 0.0
O26 O 0.08856 0.3573 0.06966 0.0
O27 O 1.00348 0.3544 0.01507 0.0
O28 O 1.03234 0.38819 0.97001 0.0
O29 O 0.11707 0.37323 0.95071 0.0
O30 O 0.20033 0.37885 0.03184 0.0
O31 O 0.1967 0.39932 1.00034 0.0
H32 H 0.11763 0.44895 0.93697 0.0
H33 H 0.12688 0.47172 0.9576 0.0
H34 H 1.01938 0.46276 0.09337 0.0
H35 H 1.01276 0.43997 0.07275 0.0
H36 H 0.08141 0.33024 0.1064 0.0
H37 H 0.13218 0.30826 0.08988 0.0
H38 H 0.15066 0.31694 0.94629 0.0
H39 H 0.09956 0.33882 0.96296 0.0
Sm40 Sm 1.01166 0.6614 0.0088 0.0
Sm41 Sm 1.0081 0.63057 0.01688 0.0
C42 C 1.00356 0.68569 0.98084 0.0
C43 C 0.96867 0.69858 0.99502 0.0
C44 C 0.90219 0.70417 0.97202 0.0
C45 C 0.87129 0.71655 0.98341 0.0
C46 C 0.90628 0.72374 0.01805 0.0
C47 C 0.97319 0.71813 0.04086 0.0
C48 C 1.0039 0.70575 0.02955 0.0
C49 C 1.00592 0.65402 0.10015 0.0
C50 C 0.82611 0.6455 0.01348 0.0
C51 C 1.02455 0.60564 0.03253 0.0
C52 C 1.03527 0.59155 0.03956 0.0
C53 C 1.0048 0.58558 0.08044 0.0
C54 C 1.01196 0.57219 0.08589 0.0
C55 C 0.04939 0.56442 0.05049 0.0
C56 C 0.0802 0.57044 0.00972 0.0
C57 C 0.07335 0.58381 0.00437 0.0
C58 C 0.99247 0.64046 0.93057 0.0
C59 C 0.19363 0.64604 0.00541 0.0
O60 O 0.94834 0.6768 0.97073 0.0
O61 O 0.06786 0.68105 1.00194 0.0
O62 O 1.0048 0.64694 0.06567 0.0
O63 O 1.00863 0.6659 0.08655 0.0
O64 O 0.87147 0.65582 1.00069 0.0
O65 O 0.86226 0.63492 0.02845 0.0
O66 O 0.98242 0.61329 0.06192 0.0
O67 O 0.05925 0.61138 0.99609 0.0
O68 O 0.04102 0.64489 0.95931 0.0
O69 O 0.95313 0.63024 0.94674 0.0
O70 O 0.15222 0.63585 0.02333 0.0
O71 O 0.15232 0.65616 0.99075 0.0
H72 H 0.87423 0.69896 0.94493 0.0
H73 H 0.81922 0.72042 0.96534 0.0
H74 H 1.0031 0.7234 0.06714 0.0
H75 H 0.05589 0.70187 0.04766 0.0
H76 H 0.97468 0.59124 0.10812 0.0
H77 H 0.98669 0.5679 0.11761 0.0
H78 H 0.1105 0.56484 0.98195 0.0
H79 H 0.09737 0.58806 0.97235 0.0
Sm80 Sm 0.06285 0.65897 0.51497 0.0
Sm81 Sm 0.0583 0.62779 0.50553 0.0
C82 C 0.05217 0.68377 0.53799 0.0
C83 C 0.09784 0.69646 0.53617 0.0
C84 C 0.14813 0.70018 0.57156 0.0
C85 C 0.1817 0.71269 0.57339 0.0
C86 C 0.16571 0.72192 0.54006 0.0
C87 C 0.11806 0.71807 0.50373 0.0
C88 C 0.08416 0.70553 0.50195 0.0
C89 C 0.08737 0.64922 0.4273 0.0
C90 C 0.24372 0.64295 0.51018 0.0
C91 C 0.05365 0.60365 0.47519 0.0
C92 C 0.06576 0.58989 0.48671 0.0
C93 C 1.01513 0.58056 0.46691 0.0
C94 C 1.02255 0.56747 0.47768 0.0
C95 C 0.08102 0.56332 0.50868 0.0
C96 C 0.13251 0.57273 0.52816 0.0
C97 C 0.12486 0.58586 0.51736 0.0
C98 C 0.05316 0.63515 0.5967 0.0
C99 C 0.8771 0.64354 0.51323 0.0
O100 O 0.07969 0.67476 0.56443 0.0
O101 O 1.02373 0.67915 0.50058 0.0
O102 O 1.0369 0.64471 0.45891 0.0
O103 O 0.12386 0.65963 0.44115 0.0
O104 O 0.20438 0.65369 0.52454 0.0
O105 O 0.20181 0.63294 0.49466 0.0
O106 O 0.98753 0.60952 0.49598 0.0
O107 O 0.12166 0.61109 0.46895 0.0
O108 O 0.05797 0.64216 0.56195 0.0
O109 O 0.05057 0.62324 0.5835 0.0
O110 O 0.92027 0.63356 0.49565 0.0
O111 O 0.9163 0.65401 0.52735 0.0
H112 H 0.15963 0.69355 0.59875 0.0
H113 H 0.21917 0.7152 0.60153 0.0
H114 H 0.10374 0.72491 0.47765 0.0
H115 H 0.04484 0.70309 0.47449 0.0
H116 H 0.9688 0.58343 0.44329 0.0
H117 H 0.98075 0.56065 0.46246 0.0
H118 H 0.17912 0.56996 0.5517 0.0
H119 H 0.16469 0.59285 0.53314 0.0
Sm120 Sm 1.00078 0.40259 0.5324 0.0
Sm121 Sm 1.01036 0.37369 0.51975 0.0
C122 C 1.00742 0.42737 0.5564 0.0
C123 C 1.03342 0.441 0.54668 0.0
C124 C 0.09967 0.4466 0.56975 0.0
C125 C 0.11499 0.45991 0.56762 0.0
C126 C 0.06408 0.46808 0.54258 0.0
C127 C 1.00033 0.4624 0.51774 0.0
C128 C 0.98494 0.44906 0.51992 0.0
C129 C 1.00344 0.39479 0.44223 0.0
C130 C 0.18947 0.38839 0.52796 0.0
C131 C 0.99935 0.34913 0.49391 0.0
C132 C 0.94854 0.33692 0.49768 0.0
C133 C 0.8795 0.33469 0.47067 0.0
C134 C 0.83985 0.32255 0.47007 0.0
C135 C 0.86837 0.31225 0.49621 0.0
C136 C 0.93557 0.31462 0.52433 0.0
C137 C 0.97525 0.32676 0.52489 0.0
C138 C 1.018 0.38137 0.60909 0.0
C139 C 0.82098 0.3874 0.53976 0.0
O140 O 0.0654 0.4189 0.56603 0.0
O141 O 0.94528 0.42234 0.53494 0.0
O142 O 0.04839 0.38999 0.47166 0.0
O143 O 0.96004 0.4045 0.4592 0.0
O144 O 0.1409 0.39791 0.54496 0.0
O145 O 0.15525 0.37856 0.50714 0.0
O146 O 0.9711 0.35879 0.4707 0.0
O147 O 0.03814 0.35289 0.52931 0.0
O148 O 0.96876 0.38623 0.58155 0.0
O149 O 0.05909 0.37159 0.59089 0.0
O150 O 0.86307 0.37785 0.51832 0.0
O151 O 0.86332 0.39702 0.55687 0.0
H152 H 0.1377 0.44074 0.59104 0.0
H153 H 0.16569 0.46385 0.58658 0.0
H154 H 0.95933 0.46834 0.49836 0.0
H155 H 0.93261 0.44515 0.50209 0.0
H156 H 0.85742 0.34223 0.44902 0.0
H157 H 0.78748 0.32118 0.44849 0.0
H158 H 0.96018 0.30695 0.54453 0.0
H159 H 1.02905 0.32805 0.54558 0.0
Sm160 Sm 0.55885 0.90598 0.00694 0.0
Sm161 Sm 0.56078 0.87499 0.01753 0.0
C162 C 0.53327 0.9305 0.98553 0.0
C163 C 0.55106 0.94437 0.99362 0.0
C164 C 0.48189 0.95276 0.00475 0.0
C165 C 0.49464 0.96611 0.0069 0.0
C166 C 0.57707 0.97148 0.99774 0.0
C167 C 0.64683 0.96301 0.98805 0.0
C168 C 0.63401 0.94963 0.98592 0.0
C169 C 0.56945 0.89678 0.09444 0.0
C170 C 0.37929 0.88922 0.00219 0.0
C171 C 0.56911 0.85123 0.05073 0.0
C172 C 0.61438 0.83857 0.04576 0.0
C173 C 0.68315 0.8358 0.07235 0.0
C174 C 0.71935 0.82345 0.07243 0.0
C175 C 0.68762 0.81344 0.04614 0.0
C176 C 0.62079 0.81631 0.01829 0.0
C177 C 0.5843 0.82869 0.01829 0.0
C178 C 0.57299 0.88188 0.92606 0.0
C179 C 0.74442 0.8913 1.00135 0.0
O180 O 0.48409 0.92423 0.01609 0.0
O181 O 0.59413 0.92333 0.9654 0.0
O182 O 0.52531 0.8918 0.06474 0.0
O183 O 0.60311 0.90756 0.07954 0.0
O184 O 0.42594 0.89928 0.98788 0.0
O185 O 0.41377 0.87923 0.02222 0.0
O186 O 0.61189 0.86104 0.06563 0.0
O187 O 0.51619 0.85456 0.02031 0.0
O188 O 0.56869 0.88915 0.96025 0.0
O189 O 0.57507 0.87003 0.94009 0.0
O190 O 0.70521 0.88079 0.01831 0.0
O191 O 0.70157 0.90162 0.98934 0.0
H192 H 0.41709 0.949 0.0103 0.0
H193 H 0.43913 0.97226 0.01392 0.0
H194 H 0.71147 0.96673 0.98152 0.0
H195 H 0.68879 0.94347 0.97718 0.0
H196 H 0.70768 0.84309 0.09424 0.0
H197 H 0.77157 0.82169 0.09378 0.0
H198 H 0.59419 0.80884 0.99789 0.0
H199 H 0.53077 0.83041 0.99779 0.0
Sm200 Sm 0.50324 0.15988 0.01724 0.0
Sm201 Sm 0.49499 0.13115 0.03071 0.0
C202 C 0.49212 0.18425 0.98948 0.0
C203 C 0.43955 0.19624 0.99049 0.0
C204 C 0.42259 0.20211 0.94928 0.0
C205 C 0.38091 0.21406 0.94874 0.0
C206 C 0.35491 0.22054 0.9895 0.0
C207 C 0.37121 0.21459 0.03089 0.0
C208 C 0.41299 0.20258 0.0314 0.0
C209 C 0.5102 0.15268 0.1072 0.0
C210 C 0.31439 0.14613 0.03728 0.0
C211 C 0.50243 0.10651 0.05606 0.0
C212 C 0.52586 0.09309 0.04343 0.0
C213 C 0.5331 0.084 0.07812 0.0
C214 C 0.54866 0.071 0.0678 0.0
C215 C 0.55761 0.06674 0.02238 0.0
C216 C 0.55167 0.07595 0.98755 0.0
C217 C 0.53567 0.08899 0.99797 0.0
C218 C 0.49915 0.13856 0.93988 0.0
C219 C 0.68248 0.14556 0.02779 0.0
O220 O 0.46792 0.17442 0.96575 0.0
O221 O 0.52637 0.1808 0.02663 0.0
O222 O 0.46206 0.14749 0.07971 0.0
O223 O 0.55015 0.1625 0.08857 0.0
O224 O 0.35626 0.15565 0.01555 0.0
O225 O 0.35698 0.1366 0.05463 0.0
O226 O 0.56392 0.1148 0.0615 0.0
O227 O 0.43714 0.11162 0.03751 0.0
O228 O 0.54324 0.14351 0.96947 0.0
O229 O 0.45572 0.1289 0.9572 0.0
O230 O 0.63366 0.13614 0.04531 0.0
O231 O 0.64854 0.1552 0.006 0.0
H232 H 0.44351 0.19758 0.91722 0.0
H233 H 0.37111 0.21837 0.91612 0.0
H234 H 0.35142 0.21917 0.06298 0.0
H235 H 0.42551 0.19838 0.06382 0.0
H236 H 0.52546 0.08695 0.11345 0.0
H237 H 0.55411 0.06428 0.09551 0.0
H238 H 0.55743 0.07303 0.95219 0.0
H239 H 0.52968 0.09581 0.97062 0.0
Sm240 Sm 0.57246 0.15903 0.52815 0.0
Sm241 Sm 0.56797 0.12701 0.51332 0.0
C242 C 0.58013 0.18294 0.55988 0.0
C243 C 0.60839 0.1962 0.54603 0.0
C244 C 0.67425 0.20227 0.56811 0.0
C245 C 0.70006 0.21491 0.55684 0.0
C246 C 0.66044 0.22188 0.52322 0.0
C247 C 0.59413 0.21578 0.50129 0.0
C248 C 0.56853 0.20313 0.51249 0.0
C249 C 0.57661 0.15207 0.43633 0.0
C250 C 0.75324 0.14185 0.52692 0.0
C251 C 0.56197 0.10357 0.47709 0.0
C252 C 0.57535 0.08969 0.48611 0.0
C253 C 0.53956 0.08051 0.45817 0.0
C254 C 0.55032 0.0673 0.46575 0.0
C255 C 0.59732 0.0629 0.50158 0.0
C256 C 0.63284 0.07218 0.52975 0.0
C257 C 0.62186 0.08543 0.52213 0.0
C258 C 0.55752 0.13391 0.60497 0.0
C259 C 0.38859 0.14365 0.52877 0.0
O260 O 0.64039 0.17433 0.56437 0.0
O261 O 0.51186 0.17814 0.54262 0.0
O262 O 0.57419 0.14487 0.47062 0.0
O263 O 0.58055 0.1639 0.45043 0.0
O264 O 0.71104 0.15271 0.53663 0.0
O265 O 0.71548 0.13119 0.51298 0.0
O266 O 0.49614 0.1091 0.49945 0.0
O267 O 0.62994 0.11105 0.47225 0.0
O268 O 0.56362 0.14111 0.57059 0.0
O269 O 0.55702 0.12201 0.59098 0.0
O270 O 0.42775 0.13396 0.50615 0.0
O271 O 0.43197 0.15309 0.54706 0.0
H272 H 0.70584 0.19723 0.59432 0.0
H273 H 0.75195 0.21914 0.57415 0.0
H274 H 0.56084 0.22083 0.47579 0.0
H275 H 0.51705 0.19883 0.49501 0.0
H276 H 0.50333 0.08358 0.43018 0.0
H277 H 0.52301 0.06053 0.44291 0.0
H278 H 0.66846 0.06922 0.55805 0.0
H279 H 0.6495 0.09234 0.54439 0.0
Sm280 Sm 0.49523 0.90317 0.52019 0.0
Sm281 Sm 0.50363 0.87434 0.5071 0.0
C282 C 0.50218 0.92767 0.54736 0.0
C283 C 0.5348 0.94101 0.53832 0.0
C284 C 0.58692 0.94691 0.56911 0.0
C285 C 0.60859 0.96001 0.56497 0.0
C286 C 0.57825 0.96762 0.53003 0.0
C287 C 0.52749 0.96163 0.49862 0.0
C288 C 0.50604 0.94851 0.5027 0.0
C289 C 0.49781 0.89584 0.42939 0.0
C290 C 0.68417 0.88914 0.50218 0.0
C291 C 0.48856 0.8496 0.48381 0.0
C292 C 0.44722 0.83709 0.49741 0.0
C293 C 0.39728 0.83057 0.46695 0.0
C294 C 0.36278 0.81833 0.47748 0.0
C295 C 0.37749 0.81223 0.51881 0.0
C296 C 0.42731 0.81883 0.54936 0.0
C297 C 0.46161 0.83107 0.53885 0.0
C298 C 0.50855 0.88188 0.59698 0.0
C299 C 0.3159 0.88855 0.5128 0.0
O300 O 0.5545 0.91877 0.5603 0.0
O301 O 0.44468 0.92313 0.52169 0.0
O302 O 0.5407 0.89067 0.45896 0.0
O303 O 0.45858 0.90594 0.44626 0.0
O304 O 0.64183 0.89865 0.52394 0.0
O305 O 0.64192 0.8797 0.48374 0.0
O306 O 0.44002 0.85876 0.46934 0.0
O307 O 0.54898 0.85403 0.50794 0.0
O308 O 0.46023 0.88685 0.56919 0.0
O309 O 0.54966 0.87216 0.57865 0.0
O310 O 0.36415 0.87916 0.49501 0.0
O311 O 0.35068 0.89821 0.53399 0.0
H312 H 0.60879 0.94149 0.59739 0.0
H313 H 0.64681 0.96426 0.5902 0.0
H314 H 0.50387 0.96709 0.47091 0.0
H315 H 0.46516 0.94435 0.4785 0.0
H316 H 0.38563 0.83491 0.4346 0.0
H317 H 0.32401 0.81371 0.45328 0.0
H318 H 0.44146 0.81443 0.58121 0.0
H319 H 0.50043 0.83572 0.56299 0.0
H320 H 0.36148 0.37528 0.05852 0.0
H321 H 0.33432 0.40414 0.95393 0.0
H322 H 0.49116 0.4059 0.94202 0.0
H323 H 0.54081 0.3903 0.10649 0.0
H324 H 0.59583 0.37553 0.11795 0.0
H325 H 0.48048 0.37564 0.11705 0.0
H326 H 0.48972 0.35758 0.05636 0.0
H327 H 0.60521 0.35741 0.05708 0.0
H328 H 0.55646 0.35986 0.00431 0.0
H329 H 0.647 0.40545 0.94206 0.0
H330 H 0.79897 0.40338 0.95531 0.0
H331 H 0.73555 0.37501 0.06108 0.0
C332 C 0.38881 0.38185 0.03281 0.0
C333 C 0.33509 0.38958 0.00715 0.0
C334 C 0.37349 0.39817 0.97424 0.0
C335 C 0.46282 0.39921 0.967 0.0
C336 C 0.51377 0.39162 0.99299 0.0
C337 C 0.4789 0.38312 0.02534 0.0
C338 C 0.55007 0.37661 0.04972 0.0
C339 C 0.54125 0.37971 0.10084 0.0
C340 C 0.55036 0.362 0.04136 0.0
C341 C 0.6298 0.38295 0.02627 0.0
C342 C 0.60632 0.39148 0.99346 0.0
C343 C 0.66637 0.3988 0.96761 0.0
C344 C 0.75292 0.39757 0.97569 0.0
C345 C 0.7799 0.3891 0.00957 0.0
C346 C 0.71726 0.38152 0.03484 0.0
H347 H 0.31385 0.63163 0.04965 0.0
H348 H 0.29029 0.66112 0.94673 0.0
H349 H 0.44693 0.66302 0.93677 0.0
H350 H 0.49095 0.64622 0.10072 0.0
H351 H 0.54617 0.63139 0.11116 0.0
H352 H 0.43101 0.63144 0.1092 0.0
H353 H 0.44286 0.61391 0.04664 0.0
H354 H 0.55814 0.61377 0.04847 0.0
H355 H 0.51122 0.61665 0.99544 0.0
H356 H 0.60165 0.66291 0.93916 0.0
H357 H 0.75305 0.66076 0.95336 0.0
H358 H 0.68783 0.63127 0.05492 0.0
C359 C 0.34197 0.63835 0.02468 0.0
C360 C 0.28918 0.64625 0.99907 0.0
C361 C 0.32861 0.65503 0.96708 0.0
C362 C 0.4179 0.65616 0.96094 0.0
C363 C 0.46789 0.64845 0.98697 0.0
C364 C 0.43218 0.63968 0.01817 0.0
C365 C 0.50267 0.63301 0.04257 0.0
C366 C 0.49204 0.63568 0.09396 0.0
C367 C 0.50377 0.61847 0.03268 0.0
C368 C 0.58284 0.63958 0.0205 0.0
C369 C 0.56014 0.64839 0.98842 0.0
C370 C 0.62051 0.65602 0.96405 0.0
C371 C 0.7067 0.65475 0.9727 0.0
C372 C 0.733 0.6459 0.00556 0.0
C373 C 0.67 0.63807 0.02948 0.0
H374 H 0.74652 0.66234 0.51596 0.0
H375 H 0.79164 0.62107 0.52238 0.0
H376 H 0.63717 0.61706 0.5247 0.0
H377 H 0.54443 0.66198 0.59173 0.0
H378 H 0.49227 0.67403 0.55953 0.0
H379 H 0.60763 0.67414 0.56094 0.0
H380 H 0.62428 0.67336 0.47302 0.0
H381 H 0.50906 0.67317 0.47135 0.0
H382 H 0.57311 0.66058 0.44363 0.0
H383 H 0.48288 0.61679 0.52079 0.0
H384 H 0.32904 0.6204 0.5152 0.0
H385 H 0.37175 0.6618 0.51332 0.0
C386 C 0.72346 0.65251 0.51853 0.0
C387 C 0.78192 0.64203 0.51853 0.0
C388 C 0.74897 0.62929 0.52162 0.0
C389 C 0.66091 0.62687 0.52317 0.0
C390 C 0.6053 0.63726 0.52191 0.0
C391 C 0.6343 0.64985 0.52008 0.0
C392 C 0.55847 0.65906 0.51794 0.0
C393 C 0.55022 0.66783 0.56005 0.0
C394 C 0.56675 0.66701 0.47386 0.0
C395 C 0.4835 0.6496 0.51811 0.0
C396 C 0.51306 0.6371 0.52044 0.0
C397 C 0.45853 0.62653 0.51934 0.0
C398 C 0.371 0.62871 0.51585 0.0
C399 C 0.33777 0.64138 0.51371 0.0
C400 C 0.395 0.652 0.5152 0.0
H401 H 0.7005 0.37391 0.49275 0.0
H402 H 0.7248 0.40138 0.60225 0.0
H403 H 0.56809 0.40358 0.61169 0.0
H404 H 0.52779 0.3898 0.44365 0.0
H405 H 0.4709 0.37539 0.42968 0.0
H406 H 0.58578 0.37496 0.43271 0.0
H407 H 0.56941 0.35648 0.49163 0.0
H408 H 0.45442 0.3568 0.48858 0.0
H409 H 0.49954 0.35861 0.54267 0.0
H410 H 0.41303 0.40425 0.60724 0.0
H411 H 0.262 0.40282 0.59103 0.0
H412 H 0.32786 0.37472 0.48466 0.0
C413 C 0.67252 0.38021 0.51915 0.0
C414 C 0.72547 0.38748 0.54673 0.0
C415 C 0.68625 0.39575 0.5805 0.0
C416 C 0.59696 0.39706 0.58629 0.0
C417 C 0.54681 0.39002 0.55816 0.0
C418 C 0.5824 0.38169 0.52542 0.0
C419 C 0.5121 0.3757 0.49898 0.0
C420 C 0.52493 0.37917 0.44824 0.0
C421 C 0.50868 0.36103 0.50588 0.0
C422 C 0.4322 0.38219 0.5216 0.0
C423 C 0.45469 0.39036 0.55571 0.0
C424 C 0.39434 0.39783 0.58084 0.0
C425 C 0.30838 0.39698 0.57105 0.0
C426 C 0.28239 0.3887 0.53637 0.0
C427 C 0.34542 0.3811 0.51149 0.0
H428 H 0.86617 0.87676 0.04359 0.0
H429 H 0.83996 0.90666 0.94256 0.0
H430 H 0.99711 0.90805 0.92982 0.0
H431 H 0.04877 0.89092 0.09193 0.0
H432 H 0.10184 0.87587 0.10173 0.0
H433 H 0.98642 0.87641 0.10156 0.0
H434 H 0.99178 0.85878 0.03935 0.0
H435 H 0.10732 0.8582 0.03927 0.0
H436 H 0.05768 0.86122 0.98712 0.0
H437 H 0.15421 0.90689 0.92824 0.0
H438 H 0.30644 0.90413 0.94045 0.0
H439 H 0.24013 0.87533 0.04429 0.0
C440 C 0.89369 0.8835 0.01849 0.0
C441 C 0.84012 0.89159 0.99399 0.0
C442 C 0.87895 0.90039 0.96193 0.0
C443 C 0.96847 0.90122 0.95423 0.0
C444 C 1.01926 0.89324 0.97898 0.0
C445 C 0.9839 0.88458 0.01067 0.0
C446 C 0.05477 0.87764 0.03397 0.0
C447 C 0.0475 0.88038 0.08535 0.0
C448 C 0.05275 0.8631 0.02435 0.0
C449 C 0.13502 0.88388 0.0106 0.0
C450 C 0.11211 0.89274 0.97875 0.0
C451 C 0.17305 0.89998 0.95308 0.0
C452 C 0.25978 0.89834 0.9605 0.0
C453 C 0.28612 0.88956 0.9936 0.0
C454 C 0.22251 0.88206 0.01857 0.0
H455 H 0.19376 0.15948 0.9901 0.0
H456 H 0.21848 0.13235 0.10049 0.0
H457 H 0.06165 0.13035 0.11084 0.0
H458 H 0.99475 0.17517 0.04003 0.0
H459 H 0.9487 0.1768 0.98613 0.0
H460 H 0.06384 0.177 0.98856 0.0
H461 H 0.07795 0.15824 0.93062 0.0
H462 H 0.96292 0.15795 0.92817 0.0
H463 H 1.01906 0.14353 0.94262 0.0
H464 H 0.90612 0.12994 0.10749 0.0
H465 H 0.75478 0.13147 0.09182 0.0
H466 H 0.82098 0.15896 0.98357 0.0
C467 C 0.16587 0.15329 0.01686 0.0
C468 C 0.21893 0.14606 0.04448 0.0
C469 C 0.17982 0.13794 0.07871 0.0
C470 C 0.09048 0.13675 0.08502 0.0
C471 C 0.0402 0.14375 0.05691 0.0
C472 C 0.07575 0.15192 0.02361 0.0
C473 C 1.00535 0.15788 0.99722 0.0
C474 C 1.00304 0.17259 0.00336 0.0
C475 C 1.01704 0.15418 0.94666 0.0
C476 C 0.92539 0.15158 0.02057 0.0
C477 C 0.94792 0.14353 0.05499 0.0
C478 C 0.88741 0.13627 0.08083 0.0
C479 C 0.80129 0.13717 0.07138 0.0
C480 C 0.77535 0.1453 0.03629 0.0
C481 C 0.83851 0.15272 0.01075 0.0
H482 H 0.26675 0.12971 0.48381 0.0
H483 H 0.29201 0.1584 0.58933 0.0
H484 H 0.13506 0.15972 0.60176 0.0
H485 H 0.08334 0.14428 0.43729 0.0
H486 H 1.03066 0.12931 0.42569 0.0
H487 H 0.14608 0.1299 0.42581 0.0
H488 H 0.14142 0.11168 0.48578 0.0
H489 H 1.02587 0.11105 0.48593 0.0
H490 H 0.07569 0.11358 0.53835 0.0
H491 H 0.97832 0.15873 0.60258 0.0
H492 H 0.82601 0.15612 0.58995 0.0
H493 H 0.89216 0.12817 0.48328 0.0
C494 C 0.23913 0.13619 0.50974 0.0
C495 C 0.29262 0.14396 0.53557 0.0
C496 C 0.2534 0.15239 0.56885 0.0
C497 C 0.16387 0.15317 0.5764 0.0
C498 C 0.11327 0.1455 0.55042 0.0
C499 C 0.14881 0.13719 0.51762 0.0
C500 C 0.07794 0.13045 0.49357 0.0
C501 C 0.08494 0.13368 0.44256 0.0
C502 C 0.0804 0.11582 0.50138 0.0
C503 C 0.99752 0.13642 0.51777 0.0
C504 C 1.02042 0.145 0.55061 0.0
C505 C 0.95949 0.15203 0.57702 0.0
C506 C 0.87279 0.15049 0.56937 0.0
C507 C 0.84642 0.14199 0.53544 0.0
C508 C 0.90992 0.13466 0.50971 0.0
H509 H 0.80414 0.90246 0.55018 0.0
H510 H 0.78077 0.87533 0.43948 0.0
H511 H 0.93739 0.87326 0.42995 0.0
H512 H 1.00383 0.91807 0.50081 0.0
H513 H 0.04946 0.91975 0.55481 0.0
H514 H 0.93437 0.91994 0.55213 0.0
H515 H 0.91962 0.90123 0.61017 0.0
H516 H 1.0346 0.90093 0.61288 0.0
H517 H 0.97842 0.8865 0.5984 0.0
H518 H 0.09195 0.87274 0.43395 0.0
H519 H 0.24305 0.8743 0.44951 0.0
H520 H 0.17739 0.90197 0.55736 0.0
C521 C 0.83232 0.89624 0.52356 0.0
C522 C 0.77964 0.88904 0.49564 0.0
C523 C 0.81908 0.8809 0.46154 0.0
C524 C 0.90834 0.87967 0.45568 0.0
C525 C 0.95823 0.88664 0.48407 0.0
C526 C 0.92247 0.89484 0.5172 0.0
C527 C 0.99273 0.90082 0.54372 0.0
C528 C 0.99523 0.91552 0.53749 0.0
C529 C 0.98059 0.89715 0.59429 0.0
C530 C 0.07281 0.8945 0.52057 0.0
C531 C 0.05032 0.8864 0.48623 0.0
C532 C 0.11068 0.8791 0.46053 0.0
C533 C 0.19671 0.88003 0.46995 0.0
C534 C 0.22281 0.88823 0.50484 0.0
C535 C 0.15974 0.89567 0.53034 0.0
H536 H 1.02373 0.54534 0.98748 0.0
H537 H 0.09206 0.55102 0.12596 0.0
H538 H 0.10542 0.52747 0.13511 0.0
H539 H 0.89835 0.51653 0.00887 0.0
H540 H 0.93415 0.50908 0.95555 0.0
H541 H 0.92961 0.52637 0.96001 0.0
H542 H 0.0904 0.52781 0.93107 0.0
H543 H 0.09548 0.51052 0.92661 0.0
H544 H 0.16914 0.51899 0.9602 0.0
H545 H 0.11362 0.50314 0.12876 0.0
H546 H 0.11331 0.48011 0.10801 0.0
H547 H 0.03785 0.49021 0.97391 0.0
C548 C 0.04214 0.54166 0.01967 0.0
C549 C 0.05677 0.55012 0.05603 0.0
C550 C 0.0794 0.5448 0.09775 0.0
C551 C 0.0877 0.53141 0.1032 0.0
C552 C 0.07302 0.52338 0.06667 0.0
C553 C 0.05047 0.52831 0.02574 0.0
C554 C 0.0376 0.51758 0.99192 0.0
C555 C 0.94438 0.51738 0.9783 0.0
C556 C 0.10201 0.5188 0.94997 0.0
C557 C 0.05679 0.50585 0.02013 0.0
C558 C 0.07713 0.50941 0.06313 0.0
C559 C 0.09735 0.50026 0.09523 0.0
C560 C 0.09646 0.48715 0.08316 0.0
C561 C 0.0753 0.48321 0.03932 0.0
C562 C 0.0554 0.4928 0.00752 0.0
H563 H 0.05417 0.48635 0.47403 0.0
H564 H 0.09323 0.48258 0.61757 0.0
H565 H 0.10576 0.50616 0.62371 0.0
H566 H 0.20183 0.51316 0.45156 0.0
H567 H 0.13521 0.521 0.41259 0.0
H568 H 0.13158 0.50373 0.41885 0.0
H569 H 0.96695 0.50482 0.43819 0.0
H570 H 0.9701 0.52208 0.43203 0.0
H571 H 0.92457 0.51497 0.4842 0.0
H572 H 0.10977 0.5303 0.61533 0.0
H573 H 0.10548 0.55314 0.59285 0.0
H574 H 0.06583 0.54162 0.45444 0.0
C575 C 0.06531 0.49047 0.50678 0.0
C576 C 0.07354 0.48247 0.54522 0.0
C577 C 0.08849 0.48836 0.58732 0.0
C578 C 0.09512 0.50181 0.59128 0.0
C579 C 0.08684 0.50937 0.55286 0.0
C580 C 0.07246 0.50394 0.51135 0.0
C581 C 0.06541 0.51433 0.47549 0.0
C582 C 0.13783 0.51297 0.43737 0.0
C583 C 0.97646 0.51403 0.45636 0.0
C584 C 0.07697 0.52643 0.50347 0.0
C585 C 0.08952 0.52333 0.54799 0.0
C586 C 0.10069 0.53283 0.58044 0.0
C587 C 0.09879 0.54583 0.56718 0.0
C588 C 0.08589 0.54935 0.52172 0.0
C589 C 0.07512 0.53939 0.48956 0.0
H590 H 0.4975 0.99023 0.05332 0.0
H591 H 0.68304 0.98538 0.93711 0.0
H592 H 0.69967 1.00896 0.93145 0.0
H593 H 0.39366 0.01815 0.01126 0.0
H594 H 0.37739 0.02579 0.06612 0.0
H595 H 0.38213 1.00849 0.06214 0.0
H596 H 0.50505 1.00815 0.11638 0.0
H597 H 0.50062 0.02546 0.12056 0.0
H598 H 0.60057 0.0176 0.10265 0.0
H599 H 0.69276 0.0333 0.93669 0.0
H600 H 0.66642 0.0563 0.95424 0.0
H601 H 0.48371 0.04544 0.06616 0.0
C602 C 0.54159 0.99409 0.0266 0.0
C603 C 0.58929 0.98581 0.99582 0.0
C604 C 0.64682 0.99139 0.96169 0.0
C605 C 0.65627 1.00483 0.95794 0.0
C606 C 0.60792 1.01267 0.98858 0.0
C607 C 0.55195 1.00751 0.02239 0.0
C608 C 0.50712 0.01809 0.0508 0.0
C609 C 0.40928 0.0176 0.04735 0.0
C610 C 0.52972 0.01727 0.10054 0.0
C611 C 0.54626 0.03 0.02755 0.0
C612 C 0.60415 0.02666 0.99168 0.0
C613 C 0.64758 0.03601 0.96476 0.0
C614 C 0.63173 0.04908 0.97482 0.0
C615 C 0.57301 0.05278 0.01161 0.0
C616 C 0.52987 0.04301 0.03817 0.0
H617 H 0.48183 0.04288 0.4929 0.0
H618 H 0.74314 0.05067 0.52628 0.0
H619 H 0.76648 0.02739 0.53699 0.0
H620 H 0.43962 1.0169 0.57265 0.0
H621 H 0.3777 1.00765 0.53504 0.0
H622 H 0.38114 0.02495 0.53053 0.0
H623 H 0.43435 0.02305 0.44544 0.0
H624 H 0.4313 1.00574 0.44972 0.0
H625 H 0.52941 1.01374 0.42935 0.0
H626 H 0.76233 1.00305 0.5431 0.0
H627 H 0.73021 0.97976 0.54541 0.0
H628 H 0.47163 0.98766 0.508 0.0
C629 C 0.54424 0.03972 0.50218 0.0
C630 C 0.61056 0.04874 0.50882 0.0
C631 C 0.69072 0.04408 0.52162 0.0
C632 C 0.70486 0.03082 0.52749 0.0
C633 C 0.63832 0.02224 0.52049 0.0
C634 C 0.55949 0.0265 0.50822 0.0
C635 C 0.49859 1.01525 0.50296 0.0
C636 C 0.4196 1.01625 0.53735 0.0
C637 C 0.47186 1.0144 0.45395 0.0
C638 C 0.55558 1.004 0.51398 0.0
C639 C 0.63592 1.00824 0.52403 0.0
C640 C 0.69947 0.99964 0.53545 0.0
C641 C 0.68039 0.9864 0.5369 0.0
C642 C 0.59827 0.98176 0.52703 0.0
C643 C 0.5354 0.99078 0.51522 0.0
H644 H 0.25385 0.29443 0.06014 0.0
H645 H 0.0858 0.29565 0.94956 0.0
H646 H 0.11949 0.27292 0.93184 0.0
H647 H 0.41625 0.27402 0.00324 0.0
H648 H 0.43746 0.26521 0.05381 0.0
H649 H 0.40003 0.28161 0.05821 0.0
H650 H 0.27255 0.27438 0.11383 0.0
H651 H 0.30943 0.25795 0.10946 0.0
H652 H 0.20129 0.2619 0.09684 0.0
H653 H 0.16923 0.24994 0.92637 0.0
H654 H 0.23582 0.22854 0.93165 0.0
H655 H 0.37483 0.2419 0.04473 0.0
C656 C 0.22384 0.2899 0.03232 0.0
C657 C 0.16736 0.29695 0.0061 0.0
C658 C 0.13027 0.29062 0.96973 0.0
C659 C 0.14853 0.27764 0.95958 0.0
C660 C 0.20429 0.27101 0.98597 0.0
C661 C 0.24181 0.27691 0.02148 0.0
C662 C 0.30061 0.26758 0.04396 0.0
C663 C 0.39413 0.2724 0.03952 0.0
C664 C 0.26906 0.26532 0.09399 0.0
C665 C 0.29002 0.25552 0.0156 0.0
C666 C 0.2339 0.25773 0.98245 0.0
C667 C 0.21371 0.24813 0.95203 0.0
C668 C 0.25244 0.23598 0.95516 0.0
C669 C 0.31146 0.23344 0.98833 0.0
C670 C 0.3296 0.2434 0.01919 0.0
H671 H 0.72394 0.79526 0.97803 0.0
H672 H 0.72529 0.80093 0.12379 0.0
H673 H 0.77988 0.77886 0.13204 0.0
H674 H 0.65533 0.76187 0.98295 0.0
H675 H 0.72278 0.75709 0.93345 0.0
H676 H 0.68356 0.77339 0.93855 0.0
H677 H 0.83971 0.78198 0.92783 0.0
H678 H 0.87938 0.76571 0.92263 0.0
H679 H 0.91836 0.77632 0.96485 0.0
H680 H 0.83306 0.7561 0.1252 0.0
H681 H 0.88398 0.73434 0.1035 0.0
H682 H 0.85183 0.74313 0.96185 0.0
C683 C 0.7353 0.79184 0.0117 0.0
C684 C 0.72074 0.79996 0.05023 0.0
C685 C 0.73722 0.79506 0.0936 0.0
C686 C 0.76773 0.78247 0.09873 0.0
C687 C 0.78177 0.77477 0.06019 0.0
C688 C 0.76633 0.77925 0.01746 0.0
C689 C 0.78796 0.76896 0.98165 0.0
C690 C 0.70761 0.7651 0.95774 0.0
C691 C 0.86068 0.77352 0.94721 0.0
C692 C 0.81775 0.75803 0.01098 0.0
C693 C 0.81339 0.76162 0.05618 0.0
C694 C 0.83724 0.75322 0.08984 0.0
C695 C 0.86679 0.74087 0.07705 0.0
C696 C 0.87296 0.73692 0.03085 0.0
C697 C 0.84744 0.74571 0.99751 0.0
H698 H 0.23465 0.73881 0.47354 0.0
H699 H 0.15949 0.73631 0.61805 0.0
H700 H 0.20447 0.75882 0.62783 0.0
H701 H 0.4226 0.7587 0.4838 0.0
H702 H 0.40732 0.7681 0.43369 0.0
H703 H 0.36899 0.75173 0.43764 0.0
H704 H 0.21591 0.75948 0.42271 0.0
H705 H 0.25376 0.77587 0.41879 0.0
H706 H 0.1647 0.77172 0.4587 0.0
H707 H 0.25568 0.78175 0.62237 0.0
H708 H 0.3125 0.80332 0.6023 0.0
H709 H 0.35821 0.79127 0.46148 0.0
C710 C 0.22729 0.74301 0.5072 0.0
C711 C 0.19393 0.73564 0.54509 0.0
C712 C 0.18616 0.74157 0.58857 0.0
C713 C 0.21101 0.75443 0.59446 0.0
C714 C 0.24385 0.76137 0.5566 0.0
C715 C 0.25234 0.75589 0.5138 0.0
C716 C 0.29057 0.76552 0.47897 0.0
C717 C 0.37754 0.76072 0.45725 0.0
C718 C 0.22746 0.76831 0.44264 0.0
C719 C 0.3019 0.77725 0.50889 0.0
C720 C 0.27432 0.77462 0.55353 0.0
C721 C 0.27799 0.78389 0.58753 0.0
C722 C 0.3111 0.79613 0.57578 0.0
C723 C 0.34086 0.79912 0.53031 0.0
C724 C 0.33552 0.78946 0.49649 0.0
H725 H 0.83309 0.2939 0.56379 0.0
H726 H 0.82274 0.30019 0.4188 0.0
H727 H 0.76742 0.27814 0.41043 0.0
H728 H 0.90418 0.26096 0.55579 0.0
H729 H 0.84054 0.25576 0.60606 0.0
H730 H 0.87709 0.27221 0.60125 0.0
H731 H 0.7201 0.28024 0.61519 0.0
H732 H 0.6831 0.26382 0.62018 0.0
H733 H 0.6397 0.27445 0.57941 0.0
H734 H 0.71732 0.25509 0.41698 0.0
H735 H 0.67295 0.23298 0.43827 0.0
H736 H 0.71324 0.24144 0.57928 0.0
C737 C 0.81936 0.29065 0.53023 0.0
C738 C 0.83197 0.29894 0.49201 0.0
C739 C 0.81231 0.29423 0.44884 0.0
C740 C 0.78139 0.28164 0.44363 0.0
C741 C 0.77005 0.27376 0.48187 0.0
C742 C 0.78809 0.27808 0.5244 0.0
C743 C 0.77033 0.2676 0.55989 0.0
C744 C 0.85296 0.26392 0.58205 0.0
C745 C 0.69906 0.27178 0.59579 0.0
C746 C 0.74015 0.25669 0.53059 0.0
C747 C 0.74051 0.26047 0.4857 0.0
C748 C 0.71612 0.25207 0.45213 0.0
C749 C 0.69034 0.23951 0.4647 0.0
C750 C 0.6886 0.23535 0.5106 0.0
C751 C 0.71427 0.24416 0.54383 0.0
H752 H 0.9875 0.41194 0.17998 0.0
H753 H 0.09952 0.37468 0.14564 0.0
H754 H 0.09867 0.36943 0.22798 0.0
H755 H 0.09961 0.41839 0.27678 0.0
H756 H 1.00944 0.42585 0.30844 0.0
H757 H 1.01748 0.42632 0.24727 0.0
H758 H 0.8668 0.41582 0.24644 0.0
H759 H 0.85804 0.41538 0.30766 0.0
H760 H 0.84563 0.40078 0.27574 0.0
H761 H 0.09458 0.36929 0.31606 0.0
H762 H 0.07594 0.37343 0.39922 0.0
H763 H 0.95774 0.41021 0.37333 0.0
C764 C 1.01133 0.40262 0.18974 0.0
C765 C 0.04387 0.39371 0.15657 0.0
C766 C 0.07397 0.38161 0.17061 0.0
C767 C 0.07397 0.37859 0.21727 0.0
C768 C 0.04226 0.3877 0.24925 0.0
C769 C 1.01024 0.3994 0.23582 0.0
C770 C 0.97882 0.40756 0.27628 0.0
C771 C 1.02938 0.42028 0.27723 0.0
C772 C 0.88155 0.41002 0.27654 0.0
C773 C 0.99941 0.39878 0.31488 0.0
C774 C 1.03652 0.38739 0.29889 0.0
C775 C 0.06453 0.37811 0.32875 0.0
C776 C 0.05392 0.38054 0.37591 0.0
C777 C 1.01476 0.39208 0.39272 0.0
C778 C 0.98697 0.40123 0.3616 0.0
H779 H 0.06622 0.6686 0.16715 0.0
H780 H 0.97037 0.63037 0.14048 0.0
H781 H 0.9854 0.6244 0.22117 0.0
H782 H 0.22606 0.65838 0.24281 0.0
H783 H 0.21115 0.67241 0.27858 0.0
H784 H 0.19268 0.67341 0.21916 0.0
H785 H 0.0384 0.68188 0.24011 0.0
H786 H 0.05643 0.68093 0.29954 0.0
H787 H 0.96632 0.67263 0.27817 0.0
H788 H 1.00235 0.62345 0.30788 0.0
H789 H 1.02778 0.62713 0.38898 0.0
H790 H 0.12296 0.66545 0.35533 0.0
C791 C 0.04848 0.65895 0.17821 0.0
C792 C 1.01648 0.64996 0.14768 0.0
C793 C 0.99492 0.6374 0.16336 0.0
C794 C 1.00324 0.63395 0.20912 0.0
C795 C 1.03473 0.64311 0.23847 0.0
C796 C 0.05802 0.6553 0.22325 0.0
C797 C 0.09114 0.6634 0.26091 0.0
C798 C 0.18588 0.66711 0.24969 0.0
C799 C 1.03469 0.67541 0.27023 0.0
C800 C 0.08156 0.654 0.30018 0.0
C801 C 0.04846 0.64234 0.28686 0.0
C802 C 1.02948 0.63248 0.31831 0.0
C803 C 0.04413 0.63464 0.3643 0.0
C804 C 0.07852 0.64649 0.37838 0.0
C805 C 0.09826 0.65619 0.34557 0.0
H806 H 0.94442 0.62503 0.8623 0.0
H807 H 0.06589 0.6617 0.88655 0.0
H808 H 0.0887 0.66518 0.80307 0.0
H809 H 0.08952 0.61576 0.77018 0.0
H810 H 1.00916 0.6077 0.73975 0.0
H811 H 0.99607 0.60884 0.80076 0.0
H812 H 0.84738 0.61966 0.79565 0.0
H813 H 0.85993 0.61852 0.73456 0.0
H814 H 0.83907 0.63392 0.76142 0.0
H815 H 0.09929 0.66416 0.71478 0.0
H816 H 0.10546 0.6581 0.63303 0.0
H817 H 0.98559 0.62151 0.6694 0.0
C818 C 0.97477 0.6339 0.85019 0.0
C819 C 1.0026 0.64318 0.88096 0.0
C820 C 0.04358 0.65451 0.86356 0.0
C821 C 0.05666 0.65656 0.81621 0.0
C822 C 1.02922 0.6471 0.78675 0.0
C823 C 0.98962 0.63596 0.80333 0.0
C824 C 0.97084 0.62685 0.76524 0.0
C825 C 1.01931 0.61403 0.76923 0.0
C826 C 0.87352 0.62461 0.76416 0.0
C827 C 1.00626 0.63452 0.72438 0.0
C828 C 0.03863 0.64627 0.73713 0.0
C829 C 0.07406 0.65497 0.70466 0.0
C830 C 0.07702 0.6515 0.65829 0.0
C831 C 0.04601 0.63936 0.64494 0.0
C832 C 1.01012 0.63084 0.67858 0.0
H833 H 0.1134 0.36992 0.67126 0.0
H834 H 0.92896 0.40061 0.65696 0.0
H835 H 0.93301 0.40573 0.73902 0.0
H836 H 1.02856 0.35884 0.77877 0.0
H837 H 0.13189 0.35517 0.79904 0.0
H838 H 0.11789 0.35462 0.7391 0.0
H839 H 0.2435 0.37079 0.72399 0.0
H840 H 0.25771 0.37143 0.78399 0.0
H841 H 0.24 0.38607 0.75318 0.0
H842 H 0.9535 0.4067 0.82426 0.0
H843 H 0.98398 0.40303 0.90434 0.0
H844 H 0.15474 0.37159 0.86185 0.0
C845 C 0.07419 0.37779 0.68526 0.0
C846 C 1.0207 0.38487 0.65775 0.0
C847 C 0.97031 0.39506 0.67743 0.0
C848 C 0.97247 0.39805 0.72396 0.0
C849 C 1.02562 0.39078 0.75022 0.0
C850 C 0.07556 0.38086 0.73143 0.0
C851 C 0.12473 0.37415 0.76699 0.0
C852 C 0.0992 0.35985 0.77122 0.0
C853 C 0.22227 0.37571 0.7564 0.0
C854 C 0.09365 0.38167 0.80912 0.0
C855 C 1.03715 0.39131 0.79877 0.0
C856 C 0.99806 0.39923 0.83255 0.0
C857 C 1.0159 0.39709 0.87797 0.0
C858 C 0.07194 0.38704 0.88938 0.0
C859 C 0.11222 0.37941 0.85423 0.0
H860 H 0.5076 0.91244 0.16384 0.0
H861 H 0.60998 0.87427 0.13609 0.0
H862 H 0.60003 0.86952 0.21857 0.0
H863 H 0.61244 0.91861 0.26428 0.0
H864 H 0.52239 0.9268 0.29345 0.0
H865 H 0.53575 0.92698 0.23229 0.0
H866 H 0.38272 0.91752 0.22846 0.0
H867 H 0.36877 0.91736 0.28966 0.0
H868 H 0.35456 0.90274 0.25808 0.0
H869 H 0.58776 0.86965 0.30539 0.0
H870 H 0.56413 0.87401 0.38806 0.0
H871 H 0.46149 0.91166 0.35884 0.0
C872 C 0.5272 0.90305 0.17523 0.0
C873 C 0.55884 0.89363 0.14359 0.0
C874 C 0.58398 0.88148 0.15962 0.0
C875 C 0.57913 0.87876 0.2065 0.0
C876 C 0.54777 0.88826 0.23694 0.0
C877 C 0.52112 0.90011 0.22185 0.0
C878 C 0.48904 0.90861 0.26143 0.0
C879 C 0.54316 0.92098 0.26294 0.0
C880 C 0.39307 0.91174 0.25927 0.0
C881 C 0.50348 0.89983 0.30123 0.0
C882 C 0.5378 0.88815 0.28647 0.0
C883 C 0.55996 0.87871 0.31721 0.0
C884 C 0.54652 0.88127 0.3641 0.0
C885 C 0.51046 0.89312 0.37988 0.0
C886 C 0.48829 0.90245 0.34785 0.0
H887 H 0.57821 0.16725 0.17213 0.0
H888 H 0.44884 0.13091 0.15321 0.0
H889 H 0.45861 0.12584 0.23511 0.0
H890 H 0.72407 0.15639 0.25271 0.0
H891 H 0.71615 0.17109 0.28529 0.0
H892 H 0.70138 0.1714 0.22534 0.0
H893 H 0.55211 0.18211 0.24177 0.0
H894 H 0.56672 0.18193 0.30168 0.0
H895 H 0.47308 0.17448 0.28077 0.0
H896 H 0.48544 0.12502 0.32145 0.0
H897 H 0.51375 0.12943 0.40191 0.0
H898 H 0.61887 0.16673 0.36196 0.0
C899 C 0.55201 0.15819 0.18507 0.0
C900 C 0.5129 0.14945 0.15623 0.0
C901 C 0.47891 0.13776 0.17472 0.0
C902 C 0.4846 0.13479 0.22116 0.0
C903 C 0.52395 0.14366 0.2487 0.0
C904 C 0.55624 0.15518 0.23113 0.0
C905 C 0.59225 0.16342 0.26753 0.0
C906 C 0.68921 0.1657 0.25708 0.0
C907 C 0.54308 0.17624 0.27328 0.0
C908 C 0.57503 0.15483 0.30866 0.0
C909 C 0.53668 0.14337 0.29736 0.0
C910 C 0.51532 0.13398 0.33042 0.0
C911 C 0.53201 0.13652 0.376 0.0
C912 C 0.56855 0.14841 0.38813 0.0
C913 C 0.59093 0.15754 0.35375 0.0
H914 H 0.45985 0.12238 0.87137 0.0
H915 H 0.5709 0.1598 0.89567 0.0
H916 H 0.5931 0.16336 0.8123 0.0
H917 H 0.60757 0.11409 0.77717 0.0
H918 H 0.52843 0.10558 0.74724 0.0
H919 H 0.51722 0.1065 0.80834 0.0
H920 H 0.36507 0.11631 0.80501 0.0
H921 H 0.37592 0.11545 0.74385 0.0
H922 H 0.35141 0.13061 0.77168 0.0
H923 H 0.60035 0.1627 0.72419 0.0
H924 H 0.60382 0.15707 0.6421 0.0
H925 H 0.4976 0.11952 0.6776 0.0
C926 C 0.48833 0.13138 0.85922 0.0
C927 C 0.51293 0.14088 0.89005 0.0
C928 C 0.55125 0.15242 0.87267 0.0
C929 C 0.56389 0.15452 0.82536 0.0
C930 C 0.53894 0.14492 0.79582 0.0
C931 C 0.50283 0.13351 0.8123 0.0
C932 C 0.48543 0.1244 0.77391 0.0
C933 C 0.5378 0.11191 0.77685 0.0
C934 C 0.38871 0.12153 0.77361 0.0
C935 C 0.51725 0.1324 0.7331 0.0
C936 C 0.54683 0.1443 0.74614 0.0
C937 C 0.57772 0.15338 0.71382 0.0
C938 C 0.57924 0.15014 0.66727 0.0
C939 C 0.55143 0.13785 0.65354 0.0
C940 C 0.51985 0.12896 0.68706 0.0
H941 H 0.57486 0.86717 0.66172 0.0
H942 H 0.44582 0.90355 0.64346 0.0
H943 H 0.45489 0.90844 0.72561 0.0
H944 H 0.46923 0.85971 0.77013 0.0
H945 H 0.56288 0.85221 0.79079 0.0
H946 H 0.54813 0.85215 0.73089 0.0
H947 H 0.69749 0.86288 0.71468 0.0
H948 H 0.71235 0.86308 0.77462 0.0
H949 H 0.72031 0.87784 0.74238 0.0
H950 H 0.48159 0.90907 0.81196 0.0
H951 H 0.51013 0.90452 0.89222 0.0
H952 H 0.61549 0.86732 0.85139 0.0
C953 C 0.54848 0.8762 0.67484 0.0
C954 C 0.50975 0.88501 0.64614 0.0
C955 C 0.47554 0.89665 0.66488 0.0
C956 C 0.48087 0.89951 0.71144 0.0
C957 C 0.52006 0.89058 0.73879 0.0
C958 C 0.55239 0.8791 0.72095 0.0
C959 C 0.58845 0.87079 0.7571 0.0
C960 C 0.53921 0.85796 0.76255 0.0
C961 C 0.6854 0.86852 0.74655 0.0
C962 C 0.57135 0.8793 0.79841 0.0
C963 C 0.53288 0.89077 0.78742 0.0
C964 C 0.51158 0.9001 0.82068 0.0
C965 C 0.52846 0.89749 0.86614 0.0
C966 C 0.56518 0.88559 0.87795 0.0
C967 C 0.5875 0.87651 0.84339 0.0
loop_
_geom_bond_atom_site_label_1
_geom_bond_atom_site_label_2
_geom_bond_distance
_geom_bond_site_symmetry_2
_ccdc_geom_bond_type
Sm0 C2 2.846 1_455 S
Sm0 O20 2.543 1_554 S
Sm0 O21 2.450 . S
Sm0 O22 2.681 . S
Sm0 O23 2.464 . S
Sm0 O24 2.396 1_455 S
Sm0 O28 2.386 1_554 S
Sm0 O31 2.408 . S
Sm1 C11 2.846 . S
Sm1 O22 2.386 . S
Sm1 O25 2.408 1_455 S
Sm1 O26 2.543 . S
Sm1 O27 2.450 1_554 S
Sm1 O28 2.681 1_554 S
Sm1 O29 2.464 1_554 S
Sm1 O30 2.396 1_554 S
C2 Sm0 2.846 1_655 S
C2 C3 1.506 . S
C2 O20 1.261 1_654 S
C2 O21 1.242 1_655 S
C3 C2 1.506 . S
C3 C4 1.358 1_554 S
C3 C8 1.382 . S
C4 C3 1.358 1_556 S
C4 C5 1.385 . S
C4 H32 0.930 . S
C5 C4 1.385 . S
C5 C6 1.395 1_556 S
C5 H33 0.929 . S
C6 C5 1.395 1_554 S
C6 C7 1.335 . S
C7 C6 1.335 . S
C7 C8 1.398 . S
C7 H34 0.930 . S
C8 C3 1.382 . S
C8 C7 1.398 . S
C8 H35 0.929 . S
C9 O22 1.271 . S
C9 O23 1.251 . S
C10 O24 1.252 . S
C10 O25 1.272 . S
C11 Sm1 2.846 . S
C11 C12 1.506 . S
C11 O26 1.261 . S
C11 O27 1.242 1_554 S
C12 C11 1.506 . S
C12 C13 1.358 . S
C12 C17 1.382 1_554 S
C13 C12 1.358 . S
C13 C14 1.385 . S
C13 H36 0.930 . S
C14 C13 1.385 . S
C14 C15 1.395 . S
C14 H37 0.929 . S
C15 C14 1.395 . S
C15 C16 1.335 1_554 S
C16 C15 1.335 1_556 S
C16 C17 1.398 . S
C16 H38 0.930 . S
C17 C12 1.382 1_556 S
C17 C16 1.398 . S
C17 H39 0.929 . S
C18 O28 1.271 . S
C18 O29 1.251 . S
C19 O30 1.252 1_554 S
C19 O31 1.272 . S
O20 Sm0 2.543 1_556 S
O20 C2 1.261 1_456 S
O21 Sm0 2.450 . S
O21 C2 1.242 1_455 S
O22 Sm0 2.681 . S
O22 Sm1 2.386 . S
O22 C9 1.271 . S
O23 Sm0 2.464 . S
O23 C9 1.251 . S
O24 Sm0 2.396 1_655 S
O24 C10 1.252 . S
O25 Sm1 2.408 1_655 S
O25 C10 1.272 . S
O26 Sm1 2.543 . S
O26 C11 1.261 . S
O27 Sm1 2.450 1_556 S
O27 C11 1.242 1_556 S
O28 Sm0 2.386 1_556 S
O28 Sm1 2.681 1_556 S
O28 C18 1.271 . S
O29 Sm1 2.464 1_556 S
O29 C18 1.251 . S
O30 Sm1 2.396 1_556 S
O30 C19 1.252 1_556 S
O31 Sm0 2.408 . S
O31 C19 1.272 . S
H32 C4 0.930 . S
H33 C5 0.929 . S
H34 C7 0.930 . S
H35 C8 0.929 . S
H36 C13 0.930 . S
H37 C14 0.929 . S
H38 C16 0.930 . S
H39 C17 0.929 . S
Sm40 C42 2.846 . S
Sm40 O60 2.543 1_554 S
Sm40 O61 2.450 . S
Sm40 O62 2.681 . S
Sm40 O63 2.464 . S
Sm40 O64 2.396 . S
Sm40 O68 2.386 1_554 S
Sm40 O71 2.408 1_655 S
Sm41 C51 2.846 1_655 S
Sm41 O62 2.386 . S
Sm41 O65 2.408 . S
Sm41 O66 2.543 . S
Sm41 O67 2.450 1_554 S
Sm41 O68 2.681 1_554 S
Sm41 O69 2.464 1_554 S
Sm41 O70 2.396 1_654 S
C42 Sm40 2.846 . S
C42 C43 1.506 . S
C42 O60 1.261 1_554 S
C42 O61 1.242 . S
C43 C42 1.506 . S
C43 C44 1.358 1_554 S
C43 C48 1.382 . S
C44 C43 1.358 1_556 S
C44 C45 1.385 . S
C44 H72 0.930 . S
C45 C44 1.385 . S
C45 C46 1.395 1_556 S
C45 H73 0.929 . S
C46 C45 1.395 1_554 S
C46 C47 1.335 . S
C47 C46 1.335 . S
C47 C48 1.398 . S
C47 H74 0.930 . S
C48 C43 1.382 . S
C48 C47 1.398 . S
C48 H75 0.929 . S
C49 O62 1.271 . S
C49 O63 1.251 . S
C50 O64 1.252 . S
C50 O65 1.272 . S
C51 Sm41 2.846 1_455 S
C51 C52 1.506 . S
C51 O66 1.261 1_455 S
C51 O67 1.242 1_454 S
C52 C51 1.506 . S
C52 C53 1.358 . S
C52 C57 1.382 1_554 S
C53 C52 1.358 . S
C53 C54 1.385 . S
C53 H76 0.930 . S
C54 C53 1.385 . S
C54 C55 1.395 . S
C54 H77 0.929 . S
C55 C54 1.395 . S
C55 C56 1.335 1_554 S
C56 C55 1.335 1_556 S
C56 C57 1.398 . S
C56 H78 0.930 . S
C57 C52 1.382 1_556 S
C57 C56 1.398 . S
C57 H79 0.929 . S
C58 O68 1.271 . S
C58 O69 1.251 . S
C59 O70 1.252 1_554 S
C59 O71 1.272 . S
O60 Sm40 2.543 1_556 S
O60 C42 1.261 1_556 S
O61 Sm40 2.450 . S
O61 C42 1.242 . S
O62 Sm40 2.681 . S
O62 Sm41 2.386 . S
O62 C49 1.271 . S
O63 Sm40 2.464 . S
O63 C49 1.251 . S
O64 Sm40 2.396 . S
O64 C50 1.252 . S
O65 Sm41 2.408 . S
O65 C50 1.272 . S
O66 Sm41 2.543 . S
O66 C51 1.261 1_655 S
O67 Sm41 2.450 1_556 S
O67 C51 1.242 1_656 S
O68 Sm40 2.386 1_556 S
O68 Sm41 2.681 1_556 S
O68 C58 1.271 . S
O69 Sm41 2.464 1_556 S
O69 C58 1.251 . S
O70 Sm41 2.396 1_456 S
O70 C59 1.252 1_556 S
O71 Sm40 2.408 1_455 S
O71 C59 1.272 . S
H72 C44 0.930 . S
H73 C45 0.929 . S
H74 C47 0.930 . S
H75 C48 0.929 . S
H76 C53 0.930 . S
H77 C54 0.929 . S
H78 C56 0.930 . S
H79 C57 0.929 . S
Sm80 C82 2.846 . S
Sm80 O100 2.543 . S
Sm80 O101 2.450 . S
Sm80 O102 2.681 . S
Sm80 O103 2.464 . S
Sm80 O104 2.396 . S
Sm80 O108 2.386 . S
Sm80 O111 2.408 1_455 S
Sm81 C91 2.846 1_455 S
Sm81 O102 2.386 . S
Sm81 O105 2.408 . S
Sm81 O106 2.543 . S
Sm81 O107 2.450 . S
Sm81 O108 2.681 . S
Sm81 O109 2.464 . S
Sm81 O110 2.396 1_455 S
C82 Sm80 2.846 . S
C82 C83 1.506 . S
C82 O100 1.261 . S
C82 O101 1.242 . S
C83 C82 1.506 . S
C83 C84 1.358 . S
C83 C88 1.382 . S
C84 C83 1.358 . S
C84 C85 1.385 . S
C84 H112 0.930 . S
C85 C84 1.385 . S
C85 C86 1.395 . S
C85 H113 0.929 . S
C86 C85 1.395 . S
C86 C87 1.335 . S
C87 C86 1.335 . S
C87 C88 1.398 . S
C87 H114 0.930 . S
C88 C83 1.382 . S
C88 C87 1.398 . S
C88 H115 0.929 . S
C89 O102 1.271 . S
C89 O103 1.251 . S
C90 O104 1.252 . S
C90 O105 1.272 . S
C91 Sm81 2.846 1_655 S
C91 C92 1.506 . S
C91 O106 1.261 1_655 S
C91 O107 1.242 1_655 S
C92 C91 1.506 . S
C92 C93 1.358 . S
C92 C97 1.382 . S
C93 C92 1.358 . S
C93 C94 1.385 . S
C93 H116 0.930 . S
C94 C93 1.385 . S
C94 C95 1.395 . S
C94 H117 0.929 . S
C95 C94 1.395 . S
C95 C96 1.335 . S
C96 C95 1.335 . S
C96 C97 1.398 . S
C96 H118 0.930 . S
C97 C92 1.382 . S
C97 C96 1.398 . S
C97 H119 0.929 . S
C98 O108 1.271 . S
C98 O109 1.251 . S
C99 O110 1.252 . S
C99 O111 1.272 . S
O100 Sm80 2.543 . S
O100 C82 1.261 . S
O101 Sm80 2.450 . S
O101 C82 1.242 . S
O102 Sm80 2.681 . S
O102 Sm81 2.386 . S
O102 C89 1.271 . S
O103 Sm80 2.464 . S
O103 C89 1.251 . S
O104 Sm80 2.396 . S
O104 C90 1.252 . S
O105 Sm81 2.408 . S
O105 C90 1.272 . S
O106 Sm81 2.543 . S
O106 C91 1.261 1_455 S
O107 Sm81 2.450 . S
O107 C91 1.242 1_455 S
O108 Sm80 2.386 . S
O108 Sm81 2.681 . S
O108 C98 1.271 . S
O109 Sm81 2.464 . S
O109 C98 1.251 . S
O110 Sm81 2.396 1_655 S
O110 C99 1.252 . S
O111 Sm80 2.408 1_655 S
O111 C99 1.272 . S
H112 C84 0.930 . S
H113 C85 0.929 . S
H114 C87 0.930 . S
H115 C88 0.929 . S
H116 C93 0.930 . S
H117 C94 0.929 . S
H118 C96 0.930 . S
H119 C97 0.929 . S
Sm120 C122 2.846 1_655 S
Sm120 O140 2.543 . S
Sm120 O141 2.450 . S
Sm120 O142 2.681 . S
Sm120 O143 2.464 . S
Sm120 O144 2.396 1_655 S
Sm120 O148 2.386 . S
Sm120 O151 2.408 . S
Sm121 C131 2.846 . S
Sm121 O142 2.386 . S
Sm121 O145 2.408 1_655 S
Sm121 O146 2.543 . S
Sm121 O147 2.450 . S
Sm121 O148 2.681 . S
Sm121 O149 2.464 . S
Sm121 O150 2.396 . S
C122 Sm120 2.846 1_455 S
C122 C123 1.506 . S
C122 O140 1.261 1_455 S
C122 O141 1.242 1_455 S
C123 C122 1.506 . S
C123 C124 1.358 . S
C123 C128 1.382 . S
C124 C123 1.358 . S
C124 C125 1.385 . S
C124 H152 0.930 . S
C125 C124 1.385 . S
C125 C126 1.395 . S
C125 H153 0.929 . S
C126 C125 1.395 . S
C126 C127 1.335 . S
C127 C126 1.335 . S
C127 C128 1.398 . S
C127 H154 0.930 . S
C128 C123 1.382 . S
C128 C127 1.398 . S
C128 H155 0.929 . S
C129 O142 1.271 . S
C129 O143 1.251 . S
C130 O144 1.252 . S
C130 O145 1.272 . S
C131 Sm121 2.846 . S
C131 C132 1.506 . S
C131 O146 1.261 . S
C131 O147 1.242 . S
C132 C131 1.506 . S
C132 C133 1.358 . S
C132 C137 1.382 . S
C133 C132 1.358 . S
C133 C134 1.385 . S
C133 H156 0.930 . S
C134 C133 1.385 . S
C134 C135 1.395 . S
C134 H157 0.929 . S
C135 C134 1.395 . S
C135 C136 1.335 . S
C136 C135 1.335 . S
C136 C137 1.398 . S
C136 H158 0.930 . S
C137 C132 1.382 . S
C137 C136 1.398 . S
C137 H159 0.929 . S
C138 O148 1.271 . S
C138 O149 1.251 . S
C139 O150 1.252 . S
C139 O151 1.272 . S
O140 Sm120 2.543 . S
O140 C122 1.261 1_655 S
O141 Sm120 2.450 . S
O141 C122 1.242 1_655 S
O142 Sm120 2.681 . S
O142 Sm121 2.386 . S
O142 C129 1.271 . S
O143 Sm120 2.464 . S
O143 C129 1.251 . S
O144 Sm120 2.396 1_455 S
O144 C130 1.252 . S
O145 Sm121 2.408 1_455 S
O145 C130 1.272 . S
O146 Sm121 2.543 . S
O146 C131 1.261 . S
O147 Sm121 2.450 . S
O147 C131 1.242 . S
O148 Sm120 2.386 . S
O148 Sm121 2.681 . S
O148 C138 1.271 . S
O149 Sm121 2.464 . S
O149 C138 1.251 . S
O150 Sm121 2.396 . S
O150 C139 1.252 . S
O151 Sm120 2.408 . S
O151 C139 1.272 . S
H152 C124 0.930 . S
H153 C125 0.929 . S
H154 C127 0.930 . S
H155 C128 0.929 . S
H156 C133 0.930 . S
H157 C134 0.929 . S
H158 C136 0.930 . S
H159 C137 0.929 . S
Sm160 C162 2.846 . S
Sm160 O180 2.543 1_554 S
Sm160 O181 2.450 . S
Sm160 O182 2.681 . S
Sm160 O183 2.464 . S
Sm160 O184 2.396 . S
Sm160 O188 2.386 1_554 S
Sm160 O191 2.408 . S
Sm161 C171 2.846 . S
Sm161 O182 2.386 . S
Sm161 O185 2.408 . S
Sm161 O186 2.543 . S
Sm161 O187 2.450 1_554 S
Sm161 O188 2.681 1_554 S
Sm161 O189 2.464 1_554 S
Sm161 O190 2.396 1_554 S
C162 Sm160 2.846 . S
C162 C163 1.506 . S
C162 O180 1.261 1_554 S
C162 O181 1.242 . S
C163 C162 1.506 . S
C163 C164 1.358 1_554 S
C163 C168 1.382 . S
C164 C163 1.358 1_556 S
C164 C165 1.385 . S
C164 H192 0.930 . S
C165 C164 1.385 . S
C165 C166 1.395 1_556 S
C165 H193 0.929 . S
C166 C165 1.395 1_554 S
C166 C167 1.335 . S
C167 C166 1.335 . S
C167 C168 1.398 . S
C167 H194 0.930 . S
C168 C163 1.382 . S
C168 C167 1.398 . S
C168 H195 0.929 . S
C169 O182 1.271 . S
C169 O183 1.251 . S
C170 O184 1.252 . S
C170 O185 1.272 . S
C171 Sm161 2.846 . S
C171 C172 1.506 . S
C171 O186 1.261 . S
C171 O187 1.242 1_554 S
C172 C171 1.506 . S
C172 C173 1.358 . S
C172 C177 1.382 1_554 S
C173 C172 1.358 . S
C173 C174 1.385 . S
C173 H196 0.930 . S
C174 C173 1.385 . S
C174 C175 1.395 . S
C174 H197 0.929 . S
C175 C174 1.395 . S
C175 C176 1.335 1_554 S
C176 C175 1.335 1_556 S
C176 C177 1.398 . S
C176 H198 0.930 . S
C177 C172 1.382 1_556 S
C177 C176 1.398 . S
C177 H199 0.929 . S
C178 O188 1.271 . S
C178 O189 1.251 . S
C179 O190 1.252 1_554 S
C179 O191 1.272 . S
O180 Sm160 2.543 1_556 S
O180 C162 1.261 1_556 S
O181 Sm160 2.450 . S
O181 C162 1.242 . S
O182 Sm160 2.681 . S
O182 Sm161 2.386 . S
O182 C169 1.271 . S
O183 Sm160 2.464 . S
O183 C169 1.251 . S
O184 Sm160 2.396 . S
O184 C170 1.252 . S
O185 Sm161 2.408 . S
O185 C170 1.272 . S
O186 Sm161 2.543 . S
O186 C171 1.261 . S
O187 Sm161 2.450 1_556 S
O187 C171 1.242 1_556 S
O188 Sm160 2.386 1_556 S
O188 Sm161 2.681 1_556 S
O188 C178 1.271 . S
O189 Sm161 2.464 1_556 S
O189 C178 1.251 . S
O190 Sm161 2.396 1_556 S
O190 C179 1.252 1_556 S
O191 Sm160 2.408 . S
O191 C179 1.272 . S
H192 C164 0.930 . S
H193 C165 0.929 . S
H194 C167 0.930 . S
H195 C168 0.929 . S
H196 C173 0.930 . S
H197 C174 0.929 . S
H198 C176 0.930 . S
H199 C177 0.929 . S
Sm200 C202 2.846 . S
Sm200 O220 2.543 1_554 S
Sm200 O221 2.450 . S
Sm200 O222 2.681 . S
Sm200 O223 2.464 . S
Sm200 O224 2.396 . S
Sm200 O228 2.386 1_554 S
Sm200 O231 2.408 . S
Sm201 C211 2.846 . S
Sm201 O222 2.386 . S
Sm201 O225 2.408 . S
Sm201 O226 2.543 . S
Sm201 O227 2.450 1_554 S
Sm201 O228 2.681 1_554 S
Sm201 O229 2.464 1_554 S
Sm201 O230 2.396 1_554 S
C202 Sm200 2.846 . S
C202 C203 1.506 . S
C202 O220 1.261 1_554 S
C202 O221 1.242 . S
C203 C202 1.506 . S
C203 C204 1.358 1_554 S
C203 C208 1.382 . S
C204 C203 1.358 1_556 S
C204 C205 1.385 . S
C204 H232 0.930 . S
C205 C204 1.385 . S
C205 C206 1.395 1_556 S
C205 H233 0.929 . S
C206 C205 1.395 1_554 S
C206 C207 1.335 . S
C207 C206 1.335 . S
C207 C208 1.398 . S
C207 H234 0.930 . S
C208 C203 1.382 . S
C208 C207 1.398 . S
C208 H235 0.929 . S
C209 O222 1.271 . S
C209 O223 1.251 . S
C210 O224 1.252 . S
C210 O225 1.272 . S
C211 Sm201 2.846 . S
C211 C212 1.506 . S
C211 O226 1.261 . S
C211 O227 1.242 1_554 S
C212 C211 1.506 . S
C212 C213 1.358 . S
C212 C217 1.382 1_554 S
C213 C212 1.358 . S
C213 C214 1.385 . S
C213 H236 0.930 . S
C214 C213 1.385 . S
C214 C215 1.395 . S
C214 H237 0.929 . S
C215 C214 1.395 . S
C215 C216 1.335 1_554 S
C216 C215 1.335 1_556 S
C216 C217 1.398 . S
C216 H238 0.930 . S
C217 C212 1.382 1_556 S
C217 C216 1.398 . S
C217 H239 0.929 . S
C218 O228 1.271 . S
C218 O229 1.251 . S
C219 O230 1.252 1_554 S
C219 O231 1.272 . S
O220 Sm200 2.543 1_556 S
O220 C202 1.261 1_556 S
O221 Sm200 2.450 . S
O221 C202 1.242 . S
O222 Sm200 2.681 . S
O222 Sm201 2.386 . S
O222 C209 1.271 . S
O223 Sm200 2.464 . S
O223 C209 1.251 . S
O224 Sm200 2.396 . S
O224 C210 1.252 . S
O225 Sm201 2.408 . S
O225 C210 1.272 . S
O226 Sm201 2.543 . S
O226 C211 1.261 . S
O227 Sm201 2.450 1_556 S
O227 C211 1.242 1_556 S
O228 Sm200 2.386 1_556 S
O228 Sm201 2.681 1_556 S
O228 C218 1.271 . S
O229 Sm201 2.464 1_556 S
O229 C218 1.251 . S
O230 Sm201 2.396 1_556 S
O230 C219 1.252 1_556 S
O231 Sm200 2.408 . S
O231 C219 1.272 . S
H232 C204 0.930 . S
H233 C205 0.929 . S
H234 C207 0.930 . S
H235 C208 0.929 . S
H236 C213 0.930 . S
H237 C214 0.929 . S
H238 C216 0.930 . S
H239 C217 0.929 . S
Sm240 C242 2.846 . S
Sm240 O260 2.543 . S
Sm240 O261 2.450 . S
Sm240 O262 2.681 . S
Sm240 O263 2.464 . S
Sm240 O264 2.396 . S
Sm240 O268 2.386 . S
Sm240 O271 2.408 . S
Sm241 C251 2.846 . S
Sm241 O262 2.386 . S
Sm241 O265 2.408 . S
Sm241 O266 2.543 . S
Sm241 O267 2.450 . S
Sm241 O268 2.681 . S
Sm241 O269 2.464 . S
Sm241 O270 2.396 . S
C242 Sm240 2.846 . S
C242 C243 1.506 . S
C242 O260 1.261 . S
C242 O261 1.242 . S
C243 C242 1.506 . S
C243 C244 1.358 . S
C243 C248 1.382 . S
C244 C243 1.358 . S
C244 C245 1.385 . S
C244 H272 0.930 . S
C245 C244 1.385 . S
C245 C246 1.395 . S
C245 H273 0.929 . S
C246 C245 1.395 . S
C246 C247 1.335 . S
C247 C246 1.335 . S
C247 C248 1.398 . S
C247 H274 0.930 . S
C248 C243 1.382 . S
C248 C247 1.398 . S
C248 H275 0.929 . S
C249 O262 1.271 . S
C249 O263 1.251 . S
C250 O264 1.252 . S
C250 O265 1.272 . S
C251 Sm241 2.846 . S
C251 C252 1.506 . S
C251 O266 1.261 . S
C251 O267 1.242 . S
C252 C251 1.506 . S
C252 C253 1.358 . S
C252 C257 1.382 . S
C253 C252 1.358 . S
C253 C254 1.385 . S
C253 H276 0.930 . S
C254 C253 1.385 . S
C254 C255 1.395 . S
C254 H277 0.929 . S
C255 C254 1.395 . S
C255 C256 1.335 . S
C256 C255 1.335 . S
C256 C257 1.398 . S
C256 H278 0.930 . S
C257 C252 1.382 . S
C257 C256 1.398 . S
C257 H279 0.929 . S
C258 O268 1.271 . S
C258 O269 1.251 . S
C259 O270 1.252 . S
C259 O271 1.272 . S
O260 Sm240 2.543 . S
O260 C242 1.261 . S
O261 Sm240 2.450 . S
O261 C242 1.242 . S
O262 Sm240 2.681 . S
O262 Sm241 2.386 . S
O262 C249 1.271 . S
O263 Sm240 2.464 . S
O263 C249 1.251 . S
O264 Sm240 2.396 . S
O264 C250 1.252 . S
O265 Sm241 2.408 . S
O265 C250 1.272 . S
O266 Sm241 2.543 . S
O266 C251 1.261 . S
O267 Sm241 2.450 . S
O267 C251 1.242 . S
O268 Sm240 2.386 . S
O268 Sm241 2.681 . S
O268 C258 1.271 . S
O269 Sm241 2.464 . S
O269 C258 1.251 . S
O270 Sm241 2.396 . S
O270 C259 1.252 . S
O271 Sm240 2.408 . S
O271 C259 1.272 . S
H272 C244 0.930 . S
H273 C245 0.929 . S
H274 C247 0.930 . S
H275 C248 0.929 . S
H276 C253 0.930 . S
H277 C254 0.929 . S
H278 C256 0.930 . S
H279 C257 0.929 . S
Sm280 C282 2.846 . S
Sm280 O300 2.543 . S
Sm280 O301 2.450 . S
Sm280 O302 2.681 . S
Sm280 O303 2.464 . S
Sm280 O304 2.396 . S
Sm280 O308 2.386 . S
Sm280 O311 2.408 . S
Sm281 C291 2.846 . S
Sm281 O302 2.386 . S
Sm281 O305 2.408 . S
Sm281 O306 2.543 . S
Sm281 O307 2.450 . S
Sm281 O308 2.681 . S
Sm281 O309 2.464 . S
Sm281 O310 2.396 . S
C282 Sm280 2.846 . S
C282 C283 1.506 . S
C282 O300 1.261 . S
C282 O301 1.242 . S
C283 C282 1.506 . S
C283 C284 1.358 . S
C283 C288 1.382 . S
C284 C283 1.358 . S
C284 C285 1.385 . S
C284 H312 0.930 . S
C285 C284 1.385 . S
C285 C286 1.395 . S
C285 H313 0.929 . S
C286 C285 1.395 . S
C286 C287 1.335 . S
C287 C286 1.335 . S
C287 C288 1.398 . S
C287 H314 0.930 . S
C288 C283 1.382 . S
C288 C287 1.398 . S
C288 H315 0.929 . S
C289 O302 1.271 . S
C289 O303 1.251 . S
C290 O304 1.252 . S
C290 O305 1.272 . S
C291 Sm281 2.846 . S
C291 C292 1.506 . S
C291 O306 1.261 . S
C291 O307 1.242 . S
C292 C291 1.506 . S
C292 C293 1.358 . S
C292 C297 1.382 . S
C293 C292 1.358 . S
C293 C294 1.385 . S
C293 H316 0.930 . S
C294 C293 1.385 . S
C294 C295 1.395 . S
C294 H317 0.929 . S
C295 C294 1.395 . S
C295 C296 1.335 . S
C296 C295 1.335 . S
C296 C297 1.398 . S
C296 H318 0.930 . S
C297 C292 1.382 . S
C297 C296 1.398 . S
C297 H319 0.929 . S
C298 O308 1.271 . S
C298 O309 1.251 . S
C299 O310 1.252 . S
C299 O311 1.272 . S
O300 Sm280 2.543 . S
O300 C282 1.261 . S
O301 Sm280 2.450 . S
O301 C282 1.242 . S
O302 Sm280 2.681 . S
O302 Sm281 2.386 . S
O302 C289 1.271 . S
O303 Sm280 2.464 . S
O303 C289 1.251 . S
O304 Sm280 2.396 . S
O304 C290 1.252 . S
O305 Sm281 2.408 . S
O305 C290 1.272 . S
O306 Sm281 2.543 . S
O306 C291 1.261 . S
O307 Sm281 2.450 . S
O307 C291 1.242 . S
O308 Sm280 2.386 . S
O308 Sm281 2.681 . S
O308 C298 1.271 . S
O309 Sm281 2.464 . S
O309 C298 1.251 . S
O310 Sm281 2.396 . S
O310 C299 1.252 . S
O311 Sm280 2.408 . S
O311 C299 1.272 . S
H312 C284 0.930 . S
H313 C285 0.929 . S
H314 C287 0.930 . S
H315 C288 0.929 . S
H316 C293 0.930 . S
H317 C294 0.929 . S
H318 C296 0.930 . S
H319 C297 0.929 . S
H320 C332 0.930 . S
H321 C334 0.930 . S
H322 C335 0.930 . S
H323 C339 0.959 . S
H324 C339 0.959 . S
H325 C339 0.961 . S
H326 C340 0.960 . S
H327 C340 0.961 . S
H328 C340 0.959 . S
H329 C343 0.929 . S
H330 C344 0.931 . S
H331 C346 0.930 . S
C332 H320 0.930 . S
C332 C333 1.399 . S
C332 C337 1.399 . S
C333 C332 1.399 . S
C333 C334 1.376 1_554 S
C334 H321 0.930 . S
C334 C333 1.376 1_556 S
C334 C335 1.388 . S
C335 H322 0.930 . S
C335 C334 1.388 . S
C335 C336 1.390 . S
C336 C335 1.390 . S
C336 C337 1.394 1_556 S
C336 C342 1.465 . S
C337 C332 1.399 . S
C337 C336 1.394 1_554 S
C337 C338 1.516 . S
C338 C337 1.516 . S
C338 C339 1.502 . S
C338 C340 1.561 . S
C338 C341 1.526 . S
C339 H323 0.959 . S
C339 H324 0.959 . S
C339 H325 0.961 . S
C339 C338 1.502 . S
C340 H326 0.960 . S
C340 H327 0.961 . S
C340 H328 0.959 . S
C340 C338 1.561 . S
C341 C338 1.526 . S
C341 C342 1.396 1_554 S
C341 C346 1.390 . S
C342 C336 1.465 . S
C342 C341 1.396 1_556 S
C342 C343 1.399 . S
C343 H329 0.929 . S
C343 C342 1.399 . S
C343 C344 1.385 . S
C344 H330 0.931 . S
C344 C343 1.385 . S
C344 C345 1.389 1_556 S
C345 C344 1.389 1_554 S
C345 C346 1.387 . S
C346 H331 0.930 . S
C346 C341 1.390 . S
C346 C345 1.387 . S
H347 C359 0.930 . S
H348 C361 0.930 . S
H349 C362 0.930 . S
H350 C366 0.959 . S
H351 C366 0.959 . S
H352 C366 0.961 . S
H353 C367 0.960 . S
H354 C367 0.961 . S
H355 C367 0.959 . S
H356 C370 0.929 . S
H357 C371 0.931 . S
H358 C373 0.930 . S
C359 H347 0.930 . S
C359 C360 1.399 . S
C359 C364 1.399 . S
C360 C359 1.399 . S
C360 C361 1.376 1_554 S
C361 H348 0.930 . S
C361 C360 1.376 1_556 S
C361 C362 1.388 . S
C362 H349 0.930 . S
C362 C361 1.388 . S
C362 C363 1.390 . S
C363 C362 1.390 . S
C363 C364 1.394 1_556 S
C363 C369 1.465 . S
C364 C359 1.399 . S
C364 C363 1.394 1_554 S
C364 C365 1.516 . S
C365 C364 1.516 . S
C365 C366 1.502 . S
C365 C367 1.561 . S
C365 C368 1.526 . S
C366 H350 0.959 . S
C366 H351 0.959 . S
C366 H352 0.961 . S
C366 C365 1.502 . S
C367 H353 0.960 . S
C367 H354 0.961 . S
C367 H355 0.959 . S
C367 C365 1.561 . S
C368 C365 1.526 . S
C368 C369 1.396 1_554 S
C368 C373 1.390 . S
C369 C363 1.465 . S
C369 C368 1.396 1_556 S
C369 C370 1.399 . S
C370 H356 0.929 . S
C370 C369 1.399 . S
C370 C371 1.385 . S
C371 H357 0.931 . S
C371 C370 1.385 . S
C371 C372 1.389 1_556 S
C372 C371 1.389 1_554 S
C372 C373 1.387 . S
C373 H358 0.930 . S
C373 C368 1.390 . S
C373 C372 1.387 . S
H374 C386 0.930 . S
H375 C388 0.930 . S
H376 C389 0.930 . S
H377 C393 0.959 . S
H378 C393 0.959 . S
H379 C393 0.961 . S
H380 C394 0.960 . S
H381 C394 0.961 . S
H382 C394 0.959 . S
H383 C397 0.929 . S
H384 C398 0.931 . S
H385 C400 0.930 . S
C386 H374 0.930 . S
C386 C387 1.399 . S
C386 C391 1.399 . S
C387 C386 1.399 . S
C387 C388 1.376 . S
C388 H375 0.930 . S
C388 C387 1.376 . S
C388 C389 1.388 . S
C389 H376 0.930 . S
C389 C388 1.388 . S
C389 C390 1.390 . S
C390 C389 1.390 . S
C390 C391 1.394 . S
C390 C396 1.465 . S
C391 C386 1.399 . S
C391 C390 1.394 . S
C391 C392 1.516 . S
C392 C391 1.516 . S
C392 C393 1.502 . S
C392 C394 1.561 . S
C392 C395 1.526 . S
C393 H377 0.959 . S
C393 H378 0.959 . S
C393 H379 0.961 . S
C393 C392 1.502 . S
C394 H380 0.960 . S
C394 H381 0.961 . S
C394 H382 0.959 . S
C394 C392 1.561 . S
C395 C392 1.526 . S
C395 C396 1.396 . S
C395 C400 1.390 . S
C396 C390 1.465 . S
C396 C395 1.396 . S
C396 C397 1.399 . S
C397 H383 0.929 . S
C397 C396 1.399 . S
C397 C398 1.385 . S
C398 H384 0.931 . S
C398 C397 1.385 . S
C398 C399 1.389 . S
C399 C398 1.389 . S
C399 C400 1.387 . S
C400 H385 0.930 . S
C400 C395 1.390 . S
C400 C399 1.387 . S
H401 C413 0.930 . S
H402 C415 0.930 . S
H403 C416 0.930 . S
H404 C420 0.959 . S
H405 C420 0.959 . S
H406 C420 0.961 . S
H407 C421 0.960 . S
H408 C421 0.961 . S
H409 C421 0.959 . S
H410 C424 0.929 . S
H411 C425 0.931 . S
H412 C427 0.930 . S
C413 H401 0.930 . S
C413 C414 1.399 . S
C413 C418 1.399 . S
C414 C413 1.399 . S
C414 C415 1.376 . S
C415 H402 0.930 . S
C415 C414 1.376 . S
C415 C416 1.388 . S
C416 H403 0.930 . S
C416 C415 1.388 . S
C416 C417 1.390 . S
C417 C416 1.390 . S
C417 C418 1.394 . S
C417 C423 1.465 . S
C418 C413 1.399 . S
C418 C417 1.394 . S
C418 C419 1.516 . S
C419 C418 1.516 . S
C419 C420 1.502 . S
C419 C421 1.561 . S
C419 C422 1.526 . S
C420 H404 0.959 . S
C420 H405 0.959 . S
C420 H406 0.961 . S
C420 C419 1.502 . S
C421 H407 0.960 . S
C421 H408 0.961 . S
C421 H409 0.959 . S
C421 C419 1.561 . S
C422 C419 1.526 . S
C422 C423 1.396 . S
C422 C427 1.390 . S
C423 C417 1.465 . S
C423 C422 1.396 . S
C423 C424 1.399 . S
C424 H410 0.929 . S
C424 C423 1.399 . S
C424 C425 1.385 . S
C425 H411 0.931 . S
C425 C424 1.385 . S
C425 C426 1.389 . S
C426 C425 1.389 . S
C426 C427 1.387 . S
C427 H412 0.930 . S
C427 C422 1.390 . S
C427 C426 1.387 . S
H428 C440 0.930 . S
H429 C442 0.930 . S
H430 C443 0.930 . S
H431 C447 0.959 . S
H432 C447 0.959 . S
H433 C447 0.961 1_655 S
H434 C448 0.960 . S
H435 C448 0.961 . S
H436 C448 0.959 . S
H437 C451 0.929 . S
H438 C452 0.931 . S
H439 C454 0.930 . S
C440 H428 0.930 . S
C440 C441 1.399 . S
C440 C445 1.399 . S
C441 C440 1.399 . S
C441 C442 1.376 1_554 S
C442 H429 0.930 . S
C442 C441 1.376 1_556 S
C442 C443 1.388 . S
C443 H430 0.930 . S
C443 C442 1.388 . S
C443 C444 1.390 1_655 S
C444 C443 1.390 1_455 S
C444 C445 1.394 1_456 S
C444 C450 1.465 . S
C445 C440 1.399 . S
C445 C444 1.394 1_654 S
C445 C446 1.516 1_655 S
C446 C445 1.516 1_455 S
C446 C447 1.502 . S
C446 C448 1.561 . S
C446 C449 1.526 . S
C447 H431 0.959 . S
C447 H432 0.959 . S
C447 H433 0.961 1_455 S
C447 C446 1.502 . S
C448 H434 0.960 . S
C448 H435 0.961 . S
C448 H436 0.959 . S
C448 C446 1.561 . S
C449 C446 1.526 . S
C449 C450 1.396 1_554 S
C449 C454 1.390 . S
C450 C444 1.465 . S
C450 C449 1.396 1_556 S
C450 C451 1.399 . S
C451 H437 0.929 . S
C451 C450 1.399 . S
C451 C452 1.385 . S
C452 H438 0.931 . S
C452 C451 1.385 . S
C452 C453 1.389 1_556 S
C453 C452 1.389 1_554 S
C453 C454 1.387 . S
C454 H439 0.930 . S
C454 C449 1.390 . S
C454 C453 1.387 . S
H455 C467 0.930 . S
H456 C469 0.930 . S
H457 C470 0.930 . S
H458 C474 0.959 . S
H459 C474 0.959 . S
H460 C474 0.961 . S
H461 C475 0.960 1_455 S
H462 C475 0.961 . S
H463 C475 0.959 . S
H464 C478 0.929 . S
H465 C479 0.931 . S
H466 C481 0.930 . S
C467 H455 0.930 . S
C467 C468 1.399 1_556 S
C467 C472 1.399 . S
C468 C467 1.399 1_554 S
C468 C469 1.376 . S
C469 H456 0.930 . S
C469 C468 1.376 . S
C469 C470 1.388 . S
C470 H457 0.930 . S
C470 C469 1.388 . S
C470 C471 1.390 1_455 S
C471 C470 1.390 1_655 S
C471 C472 1.394 1_654 S
C471 C477 1.465 . S
C472 C467 1.399 . S
C472 C471 1.394 1_456 S
C472 C473 1.516 1_455 S
C473 C472 1.516 1_655 S
C473 C474 1.502 . S
C473 C475 1.561 . S
C473 C476 1.526 . S
C474 H458 0.959 . S
C474 H459 0.959 . S
C474 H460 0.961 . S
C474 C473 1.502 . S
C475 H461 0.960 1_655 S
C475 H462 0.961 . S
C475 H463 0.959 . S
C475 C473 1.561 . S
C476 C473 1.526 . S
C476 C477 1.396 1_556 S
C476 C481 1.390 . S
C477 C471 1.465 . S
C477 C476 1.396 1_554 S
C477 C478 1.399 . S
C478 H464 0.929 . S
C478 C477 1.399 . S
C478 C479 1.385 . S
C479 H465 0.931 . S
C479 C478 1.385 . S
C479 C480 1.389 . S
C480 C479 1.389 . S
C480 C481 1.387 1_554 S
C481 H466 0.930 . S
C481 C476 1.390 . S
C481 C480 1.387 1_556 S
H482 C494 0.930 . S
H483 C496 0.930 . S
H484 C497 0.930 . S
H485 C501 0.959 . S
H486 C501 0.959 . S
H487 C501 0.961 . S
H488 C502 0.960 . S
H489 C502 0.961 . S
H490 C502 0.959 . S
H491 C505 0.929 . S
H492 C506 0.931 . S
H493 C508 0.930 . S
C494 H482 0.930 . S
C494 C495 1.399 . S
C494 C499 1.399 . S
C495 C494 1.399 . S
C495 C496 1.376 . S
C496 H483 0.930 . S
C496 C495 1.376 . S
C496 C497 1.388 . S
C497 H484 0.930 . S
C497 C496 1.388 . S
C497 C498 1.390 . S
C498 C497 1.390 . S
C498 C499 1.394 . S
C498 C504 1.465 . S
C499 C494 1.399 . S
C499 C498 1.394 . S
C499 C500 1.516 . S
C500 C499 1.516 . S
C500 C501 1.502 . S
C500 C502 1.561 . S
C500 C503 1.526 1_455 S
C501 H485 0.959 . S
C501 H486 0.959 . S
C501 H487 0.961 . S
C501 C500 1.502 . S
C502 H488 0.960 . S
C502 H489 0.961 . S
C502 H490 0.959 . S
C502 C500 1.561 . S
C503 C500 1.526 1_655 S
C503 C504 1.396 1_655 S
C503 C508 1.390 . S
C504 C498 1.465 . S
C504 C503 1.396 1_455 S
C504 C505 1.399 1_455 S
C505 H491 0.929 . S
C505 C504 1.399 1_655 S
C505 C506 1.385 . S
C506 H492 0.931 . S
C506 C505 1.385 . S
C506 C507 1.389 . S
C507 C506 1.389 . S
C507 C508 1.387 . S
C508 H493 0.930 . S
C508 C503 1.390 . S
C508 C507 1.387 . S
H509 C521 0.930 . S
H510 C523 0.930 . S
H511 C524 0.930 . S
H512 C528 0.959 . S
H513 C528 0.959 1_455 S
H514 C528 0.961 . S
H515 C529 0.960 . S
H516 C529 0.961 . S
H517 C529 0.959 . S
H518 C532 0.929 . S
H519 C533 0.931 . S
H520 C535 0.930 . S
C521 H509 0.930 . S
C521 C522 1.399 . S
C521 C526 1.399 . S
C522 C521 1.399 . S
C522 C523 1.376 . S
C523 H510 0.930 . S
C523 C522 1.376 . S
C523 C524 1.388 . S
C524 H511 0.930 . S
C524 C523 1.388 . S
C524 C525 1.390 . S
C525 C524 1.390 . S
C525 C526 1.394 . S
C525 C531 1.465 . S
C526 C521 1.399 . S
C526 C525 1.394 . S
C526 C527 1.516 . S
C527 C526 1.516 . S
C527 C528 1.502 . S
C527 C529 1.561 . S
C527 C530 1.526 1_655 S
C528 H512 0.959 . S
C528 H513 0.959 1_655 S
C528 H514 0.961 . S
C528 C527 1.502 . S
C529 H515 0.960 . S
C529 H516 0.961 . S
C529 H517 0.959 . S
C529 C527 1.561 . S
C530 C527 1.526 1_455 S
C530 C531 1.396 1_455 S
C530 C535 1.390 . S
C531 C525 1.465 . S
C531 C530 1.396 1_655 S
C531 C532 1.399 1_655 S
C532 H518 0.929 . S
C532 C531 1.399 1_455 S
C532 C533 1.385 . S
C533 H519 0.931 . S
C533 C532 1.385 . S
C533 C534 1.389 . S
C534 C533 1.389 . S
C534 C535 1.387 . S
C535 H520 0.930 . S
C535 C530 1.390 . S
C535 C534 1.387 . S
H536 C548 0.930 . S
H537 C550 0.930 . S
H538 C551 0.930 . S
H539 C555 0.959 . S
H540 C555 0.959 . S
H541 C555 0.961 . S
H542 C556 0.960 . S
H543 C556 0.961 1_655 S
H544 C556 0.959 . S
H545 C559 0.929 1_455 S
H546 C560 0.931 . S
H547 C562 0.930 . S
C548 H536 0.930 . S
C548 C549 1.399 1_556 S
C548 C553 1.399 . S
C549 C548 1.399 1_554 S
C549 C550 1.376 . S
C550 H537 0.930 . S
C550 C549 1.376 . S
C550 C551 1.388 . S
C551 H538 0.930 . S
C551 C550 1.388 . S
C551 C552 1.390 . S
C552 C551 1.390 . S
C552 C553 1.394 1_554 S
C552 C558 1.469 . S
C553 C548 1.399 . S
C553 C552 1.394 1_556 S
C553 C554 1.516 1_455 S
C554 C553 1.516 1_655 S
C554 C555 1.502 . S
C554 C556 1.561 1_655 S
C554 C557 1.526 . S
C555 H539 0.959 . S
C555 H540 0.959 . S
C555 H541 0.961 . S
C555 C554 1.502 . S
C556 H542 0.960 . S
C556 H543 0.961 1_455 S
C556 H544 0.959 . S
C556 C554 1.561 1_455 S
C557 C554 1.526 . S
C557 C558 1.391 1_656 S
C557 C562 1.390 . S
C558 C552 1.469 . S
C558 C557 1.391 1_454 S
C558 C559 1.399 1_455 S
C559 H545 0.929 1_655 S
C559 C558 1.399 1_655 S
C559 C560 1.385 . S
C560 H546 0.931 . S
C560 C559 1.385 . S
C560 C561 1.389 . S
C561 C560 1.389 . S
C561 C562 1.387 1_554 S
C562 H547 0.930 . S
C562 C557 1.390 . S
C562 C561 1.387 1_556 S
H563 C575 0.930 . S
H564 C577 0.930 . S
H565 C578 0.930 . S
H566 C582 0.959 . S
H567 C582 0.959 . S
H568 C582 0.961 . S
H569 C583 0.960 . S
H570 C583 0.961 . S
H571 C583 0.959 1_655 S
H572 C586 0.929 . S
H573 C587 0.931 . S
H574 C589 0.930 . S
C575 H563 0.930 . S
C575 C576 1.399 . S
C575 C580 1.399 . S
C576 C575 1.399 . S
C576 C577 1.376 . S
C577 H564 0.930 . S
C577 C576 1.376 . S
C577 C578 1.388 1_455 S
C578 H565 0.930 . S
C578 C577 1.388 1_655 S
C578 C579 1.390 . S
C579 C578 1.390 . S
C579 C580 1.394 1_655 S
C579 C585 1.465 . S
C580 C575 1.399 . S
C580 C579 1.394 1_455 S
C580 C581 1.516 . S
C581 C580 1.516 . S
C581 C582 1.502 . S
C581 C583 1.561 . S
C581 C584 1.526 1_455 S
C582 H566 0.959 . S
C582 H567 0.959 . S
C582 H568 0.961 . S
C582 C581 1.502 . S
C583 H569 0.960 . S
C583 H570 0.961 . S
C583 H571 0.959 1_455 S
C583 C581 1.561 . S
C584 C581 1.526 1_655 S
C584 C585 1.396 . S
C584 C589 1.390 . S
C585 C579 1.465 . S
C585 C584 1.396 . S
C585 C586 1.399 . S
C586 H572 0.929 . S
C586 C585 1.399 . S
C586 C587 1.385 . S
C587 H573 0.931 . S
C587 C586 1.385 . S
C587 C588 1.389 . S
C588 C587 1.389 . S
C588 C589 1.387 . S
C589 H574 0.930 . S
C589 C584 1.390 . S
C589 C588 1.387 . S
H590 C602 0.930 . S
H591 C604 0.930 . S
H592 C605 0.933 . S
H593 C609 0.959 1_556 S
H594 C609 0.959 . S
H595 C609 0.961 . S
H596 C610 0.960 . S
H597 C610 0.961 . S
H598 C610 0.959 . S
H599 C613 0.951 1_556 S
H600 C614 0.931 . S
H601 C616 0.930 . S
C602 H590 0.930 . S
C602 C603 1.399 . S
C602 C607 1.399 . S
C603 C602 1.399 . S
C603 C604 1.376 1_554 S
C604 H591 0.930 . S
C604 C603 1.376 1_556 S
C604 C605 1.390 . S
C605 H592 0.933 . S
C605 C604 1.390 . S
C605 C606 1.386 1_556 S
C606 C605 1.386 1_554 S
C606 C607 1.394 . S
C606 C612 1.465 1_565 S
C607 C602 1.399 . S
C607 C606 1.394 . S
C607 C608 1.516 1_565 S
C608 C607 1.516 1_545 S
C608 C609 1.502 . S
C608 C610 1.561 . S
C608 C611 1.526 . S
C609 H593 0.959 1_554 S
C609 H594 0.959 . S
C609 H595 0.961 . S
C609 C608 1.502 . S
C610 H596 0.960 . S
C610 H597 0.961 . S
C610 H598 0.959 . S
C610 C608 1.561 . S
C611 C608 1.526 . S
C611 C612 1.396 . S
C611 C616 1.390 . S
C612 C606 1.465 1_545 S
C612 C611 1.396 . S
C612 C613 1.399 . S
C613 H599 0.951 1_554 S
C613 C612 1.399 . S
C613 C614 1.385 . S
C614 H600 0.931 . S
C614 C613 1.385 . S
C614 C615 1.389 . S
C615 C614 1.389 . S
C615 C616 1.387 . S
C616 H601 0.930 . S
C616 C611 1.390 . S
C616 C615 1.387 . S
H617 C629 0.930 . S
H618 C631 0.930 . S
H619 C632 0.930 . S
H620 C636 0.959 . S
H621 C636 0.959 . S
H622 C636 0.961 . S
H623 C637 0.960 . S
H624 C637 0.961 . S
H625 C637 0.959 . S
H626 C640 0.899 1_545 S
H627 C641 0.931 . S
H628 C643 0.930 . S
C629 H617 0.930 . S
C629 C630 1.399 . S
C629 C634 1.399 . S
C630 C629 1.399 . S
C630 C631 1.376 . S
C631 H618 0.930 . S
C631 C630 1.376 . S
C631 C632 1.388 . S
C632 H619 0.930 . S
C632 C631 1.388 . S
C632 C633 1.390 . S
C633 C632 1.390 . S
C633 C634 1.394 . S
C633 C639 1.465 1_545 S
C634 C629 1.399 . S
C634 C633 1.394 . S
C634 C635 1.516 1_545 S
C635 C634 1.516 1_565 S
C635 C636 1.502 . S
C635 C637 1.561 . S
C635 C638 1.526 . S
C636 H620 0.959 . S
C636 H621 0.959 . S
C636 H622 0.961 . S
C636 C635 1.502 . S
C637 H623 0.960 . S
C637 H624 0.961 . S
C637 H625 0.959 . S
C637 C635 1.561 . S
C638 C635 1.526 . S
C638 C639 1.396 . S
C638 C643 1.390 . S
C639 C633 1.465 1_565 S
C639 C638 1.396 . S
C639 C640 1.399 . S
C640 H626 0.899 1_565 S
C640 C639 1.399 . S
C640 C641 1.385 . S
C641 H627 0.931 . S
C641 C640 1.385 . S
C641 C642 1.389 . S
C642 C641 1.389 . S
C642 C643 1.387 . S
C643 H628 0.930 . S
C643 C638 1.390 . S
C643 C642 1.387 . S
H644 C656 0.930 . S
H645 C658 0.930 . S
H646 C659 0.930 . S
H647 C663 0.959 . S
H648 C663 0.959 . S
H649 C663 0.961 . S
H650 C664 0.960 . S
H651 C664 0.961 . S
H652 C664 0.959 . S
H653 C667 0.929 . S
H654 C668 0.931 . S
H655 C670 0.930 . S
C656 H644 0.930 . S
C656 C657 1.399 . S
C656 C661 1.399 . S
C657 C656 1.399 . S
C657 C658 1.376 1_554 S
C658 H645 0.930 . S
C658 C657 1.376 1_556 S
C658 C659 1.388 . S
C659 H646 0.930 . S
C659 C658 1.388 . S
C659 C660 1.390 1_556 S
C660 C659 1.390 1_554 S
C660 C661 1.394 . S
C660 C666 1.465 1_554 S
C661 C656 1.399 . S
C661 C660 1.394 . S
C661 C662 1.516 . S
C662 C661 1.516 . S
C662 C663 1.502 . S
C662 C664 1.561 . S
C662 C665 1.526 . S
C663 H647 0.959 . S
C663 H648 0.959 . S
C663 H649 0.961 . S
C663 C662 1.502 . S
C664 H650 0.960 . S
C664 H651 0.961 . S
C664 H652 0.959 . S
C664 C662 1.561 . S
C665 C662 1.526 . S
C665 C666 1.396 1_554 S
C665 C670 1.390 . S
C666 C660 1.465 1_556 S
C666 C665 1.396 1_556 S
C666 C667 1.399 . S
C667 H653 0.929 . S
C667 C666 1.399 . S
C667 C668 1.385 . S
C668 H654 0.931 . S
C668 C667 1.385 . S
C668 C669 1.389 1_556 S
C669 C668 1.389 1_554 S
C669 C670 1.387 . S
C670 H655 0.930 . S
C670 C665 1.390 . S
C670 C669 1.387 . S
H671 C683 0.930 . S
H672 C685 0.930 . S
H673 C686 0.930 . S
H674 C690 0.959 . S
H675 C690 0.959 . S
H676 C690 0.961 . S
H677 C691 0.960 . S
H678 C691 0.961 . S
H679 C691 0.959 . S
H680 C694 0.929 . S
H681 C695 0.931 . S
H682 C697 0.930 . S
C683 H671 0.930 . S
C683 C684 1.399 1_556 S
C683 C688 1.399 . S
C684 C683 1.399 1_554 S
C684 C685 1.376 . S
C685 H672 0.930 . S
C685 C684 1.376 . S
C685 C686 1.388 . S
C686 H673 0.930 . S
C686 C685 1.388 . S
C686 C687 1.390 . S
C687 C686 1.390 . S
C687 C688 1.394 1_554 S
C687 C693 1.465 . S
C688 C683 1.399 . S
C688 C687 1.394 1_556 S
C688 C689 1.516 . S
C689 C688 1.516 . S
C689 C690 1.502 . S
C689 C691 1.561 . S
C689 C692 1.526 . S
C690 H674 0.959 . S
C690 H675 0.959 . S
C690 H676 0.961 . S
C690 C689 1.502 . S
C691 H677 0.960 . S
C691 H678 0.961 . S
C691 H679 0.959 . S
C691 C689 1.561 . S
C692 C689 1.526 . S
C692 C693 1.396 1_556 S
C692 C697 1.390 . S
C693 C687 1.465 . S
C693 C692 1.396 1_554 S
C693 C694 1.399 . S
C694 H680 0.929 . S
C694 C693 1.399 . S
C694 C695 1.385 . S
C695 H681 0.931 . S
C695 C694 1.385 . S
C695 C696 1.389 . S
C696 C695 1.389 . S
C696 C697 1.387 1_554 S
C697 H682 0.930 . S
C697 C692 1.390 . S
C697 C696 1.387 1_556 S
H698 C710 0.930 . S
H699 C712 0.930 . S
H700 C713 0.930 . S
H701 C717 0.959 . S
H702 C717 0.959 . S
H703 C717 0.961 . S
H704 C718 0.960 . S
H705 C718 0.961 . S
H706 C718 0.959 . S
H707 C721 0.929 . S
H708 C722 0.931 . S
H709 C724 0.930 . S
C710 H698 0.930 . S
C710 C711 1.399 . S
C710 C715 1.399 . S
C711 C710 1.399 . S
C711 C712 1.376 . S
C712 H699 0.930 . S
C712 C711 1.376 . S
C712 C713 1.388 . S
C713 H700 0.930 . S
C713 C712 1.388 . S
C713 C714 1.390 . S
C714 C713 1.390 . S
C714 C715 1.394 . S
C714 C720 1.465 . S
C715 C710 1.399 . S
C715 C714 1.394 . S
C715 C716 1.516 . S
C716 C715 1.516 . S
C716 C717 1.502 . S
C716 C718 1.561 . S
C716 C719 1.526 . S
C717 H701 0.959 . S
C717 H702 0.959 . S
C717 H703 0.961 . S
C717 C716 1.502 . S
C718 H704 0.960 . S
C718 H705 0.961 . S
C718 H706 0.959 . S
C718 C716 1.561 . S
C719 C716 1.526 . S
C719 C720 1.396 . S
C719 C724 1.390 . S
C720 C714 1.465 . S
C720 C719 1.396 . S
C720 C721 1.399 . S
C721 H707 0.929 . S
C721 C720 1.399 . S
C721 C722 1.385 . S
C722 H708 0.931 . S
C722 C721 1.385 . S
C722 C723 1.389 . S
C723 C722 1.389 . S
C723 C724 1.387 . S
C724 H709 0.930 . S
C724 C719 1.390 . S
C724 C723 1.387 . S
H725 C737 0.930 . S
H726 C739 0.930 . S
H727 C740 0.930 . S
H728 C744 0.959 . S
H729 C744 0.959 . S
H730 C744 0.961 . S
H731 C745 0.960 . S
H732 C745 0.961 . S
H733 C745 0.959 . S
H734 C748 0.929 . S
H735 C749 0.931 . S
H736 C751 0.930 . S
C737 H725 0.930 . S
C737 C738 1.399 . S
C737 C742 1.399 . S
C738 C737 1.399 . S
C738 C739 1.376 . S
C739 H726 0.930 . S
C739 C738 1.376 . S
C739 C740 1.388 . S
C740 H727 0.930 . S
C740 C739 1.388 . S
C740 C741 1.390 . S
C741 C740 1.390 . S
C741 C742 1.394 . S
C741 C747 1.465 . S
C742 C737 1.399 . S
C742 C741 1.394 . S
C742 C743 1.516 . S
C743 C742 1.516 . S
C743 C744 1.502 . S
C743 C745 1.561 . S
C743 C746 1.526 . S
C744 H728 0.959 . S
C744 H729 0.959 . S
C744 H730 0.961 . S
C744 C743 1.502 . S
C745 H731 0.960 . S
C745 H732 0.961 . S
C745 H733 0.959 . S
C745 C743 1.561 . S
C746 C743 1.526 . S
C746 C747 1.396 . S
C746 C751 1.390 . S
C747 C741 1.465 . S
C747 C746 1.396 . S
C747 C748 1.399 . S
C748 H734 0.929 . S
C748 C747 1.399 . S
C748 C749 1.385 . S
C749 H735 0.931 . S
C749 C748 1.385 . S
C749 C750 1.389 . S
C750 C749 1.389 . S
C750 C751 1.387 . S
C751 H736 0.930 . S
C751 C746 1.390 . S
C751 C750 1.387 . S
H752 C764 0.930 . S
H753 C766 0.930 . S
H754 C767 0.930 . S
H755 C771 0.959 . S
H756 C771 0.959 . S
H757 C771 0.961 . S
H758 C772 0.960 . S
H759 C772 0.961 . S
H760 C772 0.959 . S
H761 C775 0.929 . S
H762 C776 0.931 . S
H763 C778 0.930 . S
C764 H752 0.930 . S
C764 C765 1.399 . S
C764 C769 1.399 . S
C765 C764 1.399 . S
C765 C766 1.376 . S
C766 H753 0.930 . S
C766 C765 1.376 . S
C766 C767 1.388 . S
C767 H754 0.930 . S
C767 C766 1.388 . S
C767 C768 1.390 . S
C768 C767 1.390 . S
C768 C769 1.394 . S
C768 C774 1.465 . S
C769 C764 1.399 . S
C769 C768 1.394 . S
C769 C770 1.516 1_455 S
C770 C769 1.516 1_655 S
C770 C771 1.502 . S
C770 C772 1.561 1_655 S
C770 C773 1.526 . S
C771 H755 0.959 . S
C771 H756 0.959 . S
C771 H757 0.961 . S
C771 C770 1.502 . S
C772 H758 0.960 . S
C772 H759 0.961 . S
C772 H760 0.959 . S
C772 C770 1.561 1_455 S
C773 C770 1.526 . S
C773 C774 1.396 1_655 S
C773 C778 1.390 . S
C774 C768 1.465 . S
C774 C773 1.396 1_455 S
C774 C775 1.399 . S
C775 H761 0.929 . S
C775 C774 1.399 . S
C775 C776 1.385 1_455 S
C776 H762 0.931 . S
C776 C775 1.385 1_655 S
C776 C777 1.389 . S
C777 C776 1.389 . S
C777 C778 1.387 . S
C778 H763 0.930 . S
C778 C773 1.390 . S
C778 C777 1.387 . S
H779 C791 0.930 . S
H780 C793 0.930 . S
H781 C794 0.930 . S
H782 C798 0.959 . S
H783 C798 0.959 . S
H784 C798 0.961 . S
H785 C799 0.960 . S
H786 C799 0.961 . S
H787 C799 0.959 . S
H788 C802 0.929 . S
H789 C803 0.931 . S
H790 C805 0.930 . S
C791 H779 0.930 . S
C791 C792 1.399 1_455 S
C791 C796 1.399 . S
C792 C791 1.399 1_655 S
C792 C793 1.376 . S
C793 H780 0.930 . S
C793 C792 1.376 . S
C793 C794 1.388 . S
C794 H781 0.930 . S
C794 C793 1.388 . S
C794 C795 1.390 . S
C795 C794 1.390 . S
C795 C796 1.394 1_655 S
C795 C801 1.465 . S
C796 C791 1.399 . S
C796 C795 1.394 1_455 S
C796 C797 1.516 . S
C797 C796 1.516 . S
C797 C798 1.502 . S
C797 C799 1.561 . S
C797 C800 1.526 . S
C798 H782 0.959 . S
C798 H783 0.959 . S
C798 H784 0.961 . S
C798 C797 1.502 . S
C799 H785 0.960 . S
C799 H786 0.961 . S
C799 H787 0.959 . S
C799 C797 1.561 . S
C800 C797 1.526 . S
C800 C801 1.396 1_455 S
C800 C805 1.390 . S
C801 C795 1.465 . S
C801 C800 1.396 1_655 S
C801 C802 1.399 . S
C802 H788 0.929 . S
C802 C801 1.399 . S
C802 C803 1.385 . S
C803 H789 0.931 . S
C803 C802 1.385 . S
C803 C804 1.389 1_655 S
C804 C803 1.389 1_455 S
C804 C805 1.387 . S
C805 H790 0.930 . S
C805 C800 1.390 . S
C805 C804 1.387 . S
H806 C818 0.930 1_455 S
H807 C820 0.930 . S
H808 C821 0.930 . S
H809 C825 0.959 . S
H810 C825 0.959 . S
H811 C825 0.961 . S
H812 C826 0.960 . S
H813 C826 0.961 1_455 S
H814 C826 0.959 . S
H815 C829 0.929 . S
H816 C830 0.931 1_655 S
H817 C832 0.930 . S
C818 H806 0.930 1_655 S
C818 C819 1.399 . S
C818 C823 1.399 . S
C819 C818 1.399 . S
C819 C820 1.376 . S
C820 H807 0.930 . S
C820 C819 1.376 . S
C820 C821 1.388 . S
C821 H808 0.930 . S
C821 C820 1.388 . S
C821 C822 1.390 . S
C822 C821 1.390 . S
C822 C823 1.394 . S
C822 C828 1.465 . S
C823 C818 1.399 . S
C823 C822 1.394 . S
C823 C824 1.516 1_655 S
C824 C823 1.516 1_455 S
C824 C825 1.502 . S
C824 C826 1.561 1_455 S
C824 C827 1.526 . S
C825 H809 0.959 . S
C825 H810 0.959 . S
C825 H811 0.961 . S
C825 C824 1.502 . S
C826 H812 0.960 . S
C826 H813 0.961 1_655 S
C826 H814 0.959 . S
C826 C824 1.561 1_655 S
C827 C824 1.526 . S
C827 C828 1.396 1_455 S
C827 C832 1.390 . S
C828 C822 1.465 . S
C828 C827 1.396 1_655 S
C828 C829 1.399 . S
C829 H815 0.929 . S
C829 C828 1.399 . S
C829 C830 1.385 1_655 S
C830 H816 0.931 1_455 S
C830 C829 1.385 1_455 S
C830 C831 1.389 . S
C831 C830 1.389 . S
C831 C832 1.387 . S
C832 H817 0.930 . S
C832 C827 1.390 . S
C832 C831 1.387 . S
H833 C845 0.930 . S
H834 C847 0.930 . S
H835 C848 0.930 . S
H836 C852 0.959 . S
H837 C852 0.959 . S
H838 C852 0.961 . S
H839 C853 0.960 . S
H840 C853 0.961 . S
H841 C853 0.959 . S
H842 C856 0.929 . S
H843 C857 0.931 . S
H844 C859 0.930 . S
C845 H833 0.930 . S
C845 C846 1.399 . S
C845 C850 1.399 . S
C846 C845 1.399 . S
C846 C847 1.376 . S
C847 H834 0.930 . S
C847 C846 1.376 . S
C847 C848 1.388 . S
C848 H835 0.930 . S
C848 C847 1.388 . S
C848 C849 1.390 . S
C849 C848 1.390 . S
C849 C850 1.394 . S
C849 C855 1.465 . S
C850 C845 1.399 . S
C850 C849 1.394 . S
C850 C851 1.516 1_655 S
C851 C850 1.516 1_455 S
C851 C852 1.502 . S
C851 C853 1.561 1_455 S
C851 C854 1.526 . S
C852 H836 0.959 . S
C852 H837 0.959 . S
C852 H838 0.961 . S
C852 C851 1.502 . S
C853 H839 0.960 . S
C853 H840 0.961 . S
C853 H841 0.959 . S
C853 C851 1.561 1_655 S
C854 C851 1.526 . S
C854 C855 1.396 1_455 S
C854 C859 1.390 . S
C855 C849 1.465 . S
C855 C854 1.396 1_655 S
C855 C856 1.399 . S
C856 H842 0.929 . S
C856 C855 1.399 . S
C856 C857 1.385 1_655 S
C857 H843 0.931 . S
C857 C856 1.385 1_455 S
C857 C858 1.389 . S
C858 C857 1.389 . S
C858 C859 1.387 . S
C859 H844 0.930 . S
C859 C854 1.390 . S
C859 C858 1.387 . S
H860 C872 0.930 . S
H861 C874 0.930 . S
H862 C875 0.930 . S
H863 C879 0.959 . S
H864 C879 0.959 . S
H865 C879 0.961 . S
H866 C880 0.960 . S
H867 C880 0.961 . S
H868 C880 0.959 . S
H869 C883 0.929 . S
H870 C884 0.931 . S
H871 C886 0.930 . S
C872 H860 0.930 . S
C872 C873 1.399 . S
C872 C877 1.399 . S
C873 C872 1.399 . S
C873 C874 1.376 . S
C874 H861 0.930 . S
C874 C873 1.376 . S
C874 C875 1.388 . S
C875 H862 0.930 . S
C875 C874 1.388 . S
C875 C876 1.390 . S
C876 C875 1.390 . S
C876 C877 1.394 . S
C876 C882 1.465 . S
C877 C872 1.399 . S
C877 C876 1.394 . S
C877 C878 1.516 . S
C878 C877 1.516 . S
C878 C879 1.502 . S
C878 C880 1.561 . S
C878 C881 1.526 . S
C879 H863 0.959 . S
C879 H864 0.959 . S
C879 H865 0.961 . S
C879 C878 1.502 . S
C880 H866 0.960 . S
C880 H867 0.961 . S
C880 H868 0.959 . S
C880 C878 1.561 . S
C881 C878 1.526 . S
C881 C882 1.396 . S
C881 C886 1.390 . S
C882 C876 1.465 . S
C882 C881 1.396 . S
C882 C883 1.399 . S
C883 H869 0.929 . S
C883 C882 1.399 . S
C883 C884 1.385 . S
C884 H870 0.931 . S
C884 C883 1.385 . S
C884 C885 1.389 . S
C885 C884 1.389 . S
C885 C886 1.387 . S
C886 H871 0.930 . S
C886 C881 1.390 . S
C886 C885 1.387 . S
H887 C899 0.930 . S
H888 C901 0.930 . S
H889 C902 0.930 . S
H890 C906 0.959 . S
H891 C906 0.959 . S
H892 C906 0.961 . S
H893 C907 0.960 . S
H894 C907 0.961 . S
H895 C907 0.959 . S
H896 C910 0.929 . S
H897 C911 0.931 . S
H898 C913 0.930 . S
C899 H887 0.930 . S
C899 C900 1.399 . S
C899 C904 1.399 . S
C900 C899 1.399 . S
C900 C901 1.376 . S
C901 H888 0.930 . S
C901 C900 1.376 . S
C901 C902 1.388 . S
C902 H889 0.930 . S
C902 C901 1.388 . S
C902 C903 1.390 . S
C903 C902 1.390 . S
C903 C904 1.394 . S
C903 C909 1.465 . S
C904 C899 1.399 . S
C904 C903 1.394 . S
C904 C905 1.516 . S
C905 C904 1.516 . S
C905 C906 1.502 . S
C905 C907 1.561 . S
C905 C908 1.526 . S
C906 H890 0.959 . S
C906 H891 0.959 . S
C906 H892 0.961 . S
C906 C905 1.502 . S
C907 H893 0.960 . S
C907 H894 0.961 . S
C907 H895 0.959 . S
C907 C905 1.561 . S
C908 C905 1.526 . S
C908 C909 1.396 . S
C908 C913 1.390 . S
C909 C903 1.465 . S
C909 C908 1.396 . S
C909 C910 1.399 . S
C910 H896 0.929 . S
C910 C909 1.399 . S
C910 C911 1.385 . S
C911 H897 0.931 . S
C911 C910 1.385 . S
C911 C912 1.389 . S
C912 C911 1.389 . S
C912 C913 1.387 . S
C913 H898 0.930 . S
C913 C908 1.390 . S
C913 C912 1.387 . S
H914 C926 0.930 . S
H915 C928 0.930 . S
H916 C929 0.930 . S
H917 C933 0.959 . S
H918 C933 0.959 . S
H919 C933 0.961 . S
H920 C934 0.960 . S
H921 C934 0.961 . S
H922 C934 0.959 . S
H923 C937 0.929 . S
H924 C938 0.931 . S
H925 C940 0.930 . S
C926 H914 0.930 . S
C926 C927 1.399 . S
C926 C931 1.399 . S
C927 C926 1.399 . S
C927 C928 1.376 . S
C928 H915 0.930 . S
C928 C927 1.376 . S
C928 C929 1.388 . S
C929 H916 0.930 . S
C929 C928 1.388 . S
C929 C930 1.390 . S
C930 C929 1.390 . S
C930 C931 1.394 . S
C930 C936 1.465 . S
C931 C926 1.399 . S
C931 C930 1.394 . S
C931 C932 1.516 . S
C932 C931 1.516 . S
C932 C933 1.502 . S
C932 C934 1.561 . S
C932 C935 1.526 . S
C933 H917 0.959 . S
C933 H918 0.959 . S
C933 H919 0.961 . S
C933 C932 1.502 . S
C934 H920 0.960 . S
C934 H921 0.961 . S
C934 H922 0.959 . S
C934 C932 1.561 . S
C935 C932 1.526 . S
C935 C936 1.396 . S
C935 C940 1.390 . S
C936 C930 1.465 . S
C936 C935 1.396 . S
C936 C937 1.399 . S
C937 H923 0.929 . S
C937 C936 1.399 . S
C937 C938 1.385 . S
C938 H924 0.931 . S
C938 C937 1.385 . S
C938 C939 1.389 . S
C939 C938 1.389 . S
C939 C940 1.387 . S
C940 H925 0.930 . S
C940 C935 1.390 . S
C940 C939 1.387 . S
H941 C953 0.930 . S
H942 C955 0.930 . S
H943 C956 0.930 . S
H944 C960 0.959 . S
H945 C960 0.959 . S
H946 C960 0.961 . S
H947 C961 0.960 . S
H948 C961 0.961 . S
H949 C961 0.959 . S
H950 C964 0.929 . S
H951 C965 0.931 . S
H952 C967 0.930 . S
C953 H941 0.930 . S
C953 C954 1.399 . S
C953 C958 1.399 . S
C954 C953 1.399 . S
C954 C955 1.376 . S
C955 H942 0.930 . S
C955 C954 1.376 . S
C955 C956 1.388 . S
C956 H943 0.930 . S
C956 C955 1.388 . S
C956 C957 1.390 . S
C957 C956 1.390 . S
C957 C958 1.394 . S
C957 C963 1.465 . S
C958 C953 1.399 . S
C958 C957 1.394 . S
C958 C959 1.516 . S
C959 C958 1.516 . S
C959 C960 1.502 . S
C959 C961 1.561 . S
C959 C962 1.526 . S
C960 H944 0.959 . S
C960 H945 0.959 . S
C960 H946 0.961 . S
C960 C959 1.502 . S
C961 H947 0.960 . S
C961 H948 0.961 . S
C961 H949 0.959 . S
C961 C959 1.561 . S
C962 C959 1.526 . S
C962 C963 1.396 . S
C962 C967 1.390 . S
C963 C957 1.465 . S
C963 C962 1.396 . S
C963 C964 1.399 . S
C964 H950 0.929 . S
C964 C963 1.399 . S
C964 C965 1.385 . S
C965 H951 0.931 . S
C965 C964 1.385 . S
C965 C966 1.389 . S
C966 C965 1.389 . S
C966 C967 1.387 . S
C967 H952 0.930 . S
C967 C962 1.390 . S
C967 C966 1.387 . S
C333 C19 2.304 . S
C345 C10 2.313 . S
C360 C59 2.297 . S
C372 C50 2.319 . S
C387 C99 2.313 . S
C399 C90 2.304 . S
C414 C139 2.281 . S
C426 C130 2.328 . S
C441 C179 2.305 . S
C453 C170 2.312 . S
C468 C210 2.286 . S
C480 C219 2.318 . S
C495 C259 2.307 . S
C507 C250 2.311 . S
C522 C290 2.281 . S
C534 C299 2.328 . S
C549 C55 2.655 . S
C561 C6 2.601 . S
C576 C126 2.597 . S
C588 C95 2.641 . S
C603 C166 2.589 . S
C615 C215 2.655 . S
C630 C255 2.593 . S
C642 C286 2.658 . S
C657 C15 1.803 . S
C669 C206 1.859 . S
C684 C175 1.861 . S
C696 C46 1.814 . S
C711 C86 1.820 . S
C723 C295 1.838 . S
C738 C135 1.861 . S
C750 C246 1.813 . S
C765 C9 1.445 . S
C777 C129 1.436 . S
C792 C49 1.563 . S
C804 C89 1.543 . S
C819 C58 1.501 . S
C831 C98 1.499 . S
C846 C138 1.571 . S
C858 C18 1.542 . S
C873 C169 1.457 . S
C885 C289 1.440 . S
C900 C209 1.619 . S
C912 C249 1.596 . S
C927 C218 1.445 . S
C939 C258 1.447 . S
C954 C298 1.612 . S
C966 C178 1.611 . S
