# Generated by pormake.
# Topology dmp, (4)-cn, num edge types: 1
# Building blocks:
#     Node 0, Type 0, BuildingBlock: ICAMEG_clean_sbu_1, # of connection points: 4
#     Node 1, Type 0, BuildingBlock: ICAMEG_clean_sbu_1, # of connection points: 4
#     Node 2, Type 0, BuildingBlock: ICAMEG_clean_sbu_1, # of connection points: 4
#     Node 3, Type 0, BuildingBlock: ICAMEG_clean_sbu_1, # of connection points: 4
#     Edge 4, Type (0, 0), BuildingBlock: XIVTED_clean_linker_0, # of connection points: 2
#     Edge 5, Type (0, 0), BuildingBlock: XIVTED_clean_linker_0, # of connection points: 2
#     Edge 6, Type (0, 0), BuildingBlock: XIVTED_clean_linker_0, # of connection points: 2
#     Edge 7, Type (0, 0), BuildingBlock: XIVTED_clean_linker_0, # of connection points: 2
#     Edge 8, Type (0, 0), BuildingBlock: XIVTED_clean_linker_0, # of connection points: 2
#     Edge 9, Type (0, 0), BuildingBlock: XIVTED_clean_linker_0, # of connection points: 2
#     Edge 10, Type (0, 0), BuildingBlock: XIVTED_clean_linker_0, # of connection points: 2
#     Edge 11, Type (0, 0), BuildingBlock: XIVTED_clean_linker_0, # of connection points: 2
# Relax obj value: 0.008
# Max RMSD: 0.070
# Mean RMSD: 0.070
data_MOF--net-dmp--node1-ICAMEG_clean_sbu_1--edge1-XIVTED_clean_linker_0
_symmetry_space_group_name_H-M    P1
_symmetry_Int_Tables_number       1
_symmetry_cell_setting            triclinic
loop_
_symmetry_equiv_pos_as_xyz
'x, y, z'
_cell_length_a     43.7587
_cell_length_b     19.256935
_cell_length_c     18.075889
_cell_angle_alpha  89.956311
_cell_angle_beta   90.222449
_cell_angle_gamma 89.945609
loop_
_atom_site_label
_atom_site_type_symbol
_atom_site_fract_x
_atom_site_fract_y
_atom_site_fract_z
_atom_type_partial_charge
Co0 Co 0.11881 0.25821 0.15685 0.0
Co1 Co 0.11855 0.24 0.347 0.0
O2 O 0.09798 0.24911 0.25155 0.0
C3 C 0.07916 0.1362 0.13749 0.0
O4 O 0.09002 0.11363 0.2009 0.0
C5 C 0.07887 0.36223 0.36475 0.0
O6 O 0.08992 0.38456 0.30165 0.0
O7 O 0.14613 0.31978 0.32519 0.0
O8 O 0.14948 0.32227 0.20111 0.0
H9 H 0.20908 0.22585 0.51833 0.0
H10 H 0.05201 0.28304 0.16571 0.0
O11 O 0.08842 0.19365 0.11091 0.0
H12 H 0.09595 0.50323 0.0763 0.0
H13 H 0.12258 0.28372 0.87984 0.0
H14 H 0.18355 0.26118 0.10866 0.0
H15 H 0.1291 0.40216 0.10128 0.0
H16 H 0.09724 0.27325 0.00103 0.0
O17 O 0.08803 0.30476 0.39179 0.0
H18 H 0.18315 0.23679 0.39747 0.0
H19 H 0.09655 0.22515 0.50204 0.0
H20 H 0.20981 0.27208 0.98872 0.0
H21 H 0.01799 0.38265 0.14087 0.0
H22 H 0.17926 0.28345 0.87321 0.0
H23 H 0.03996 0.49379 0.09603 0.0
O24 O 0.14634 0.17833 0.17963 0.0
H25 H 0.01772 0.11591 0.35949 0.0
H26 H 0.12871 0.09605 0.40298 0.0
H27 H 0.09552 0.9951 0.42684 0.0
H28 H 0.03959 0.00471 0.40514 0.0
H29 H 0.05178 0.2154 0.3358 0.0
H30 H 0.12154 0.21465 0.62414 0.0
H31 H 0.17821 0.21468 0.63277 0.0
O32 O 0.14937 0.17579 0.30384 0.0
C33 C 0.15759 0.343 0.26524 0.0
C34 C 0.18437 0.22556 0.51528 0.0
C35 C 0.13524 0.21937 0.57466 0.0
N36 N 0.13839 0.23109 0.44268 0.0
C37 C 0.16956 0.23155 0.44698 0.0
C38 C 0.12122 0.22549 0.50541 0.0
C39 C 0.16704 0.21936 0.57946 0.0
C40 C 0.0617 0.33102 0.14551 0.0
N41 N 0.09248 0.33665 0.13457 0.0
C42 C 0.04234 0.38733 0.13184 0.0
C43 C 0.05469 0.44971 0.10679 0.0
C44 C 0.0861 0.45505 0.09575 0.0
C45 C 0.10477 0.39769 0.11013 0.0
C46 C 0.13613 0.27891 0.92979 0.0
C47 C 0.1701 0.26651 0.05868 0.0
C48 C 0.12192 0.27281 0.99854 0.0
N49 N 0.13891 0.2671 0.06188 0.0
C50 C 0.1851 0.27247 0.99091 0.0
C51 C 0.16794 0.27878 0.92612 0.0
C52 C 0.15765 0.15507 0.23997 0.0
C53 C 0.04205 0.11115 0.36937 0.0
C54 C 0.10441 0.10059 0.39328 0.0
C55 C 0.08572 0.0433 0.40702 0.0
C56 C 0.05433 0.04874 0.39488 0.0
N57 N 0.09218 0.16166 0.36838 0.0
C58 C 0.06143 0.1674 0.35636 0.0
Co59 Co 0.38007 0.75718 0.34315 0.0
Co60 Co 0.37974 0.73969 0.15297 0.0
O61 O 0.40062 0.74823 0.24804 0.0
C62 C 0.41955 0.63459 0.36131 0.0
O63 O 0.40835 0.61256 0.29808 0.0
C64 C 0.41988 0.86097 0.13411 0.0
O65 O 0.40917 0.88381 0.19735 0.0
O66 O 0.35255 0.82005 0.17538 0.0
O67 O 0.3493 0.82169 0.29951 0.0
H68 H 0.28862 0.72823 0.98335 0.0
H69 H 0.44687 0.78145 0.3333 0.0
O70 O 0.41055 0.6921 0.38834 0.0
H71 H 0.40335 0.0017 0.42392 0.0
H72 H 0.37718 0.78163 0.62028 0.0
H73 H 0.31549 0.76059 0.39251 0.0
H74 H 0.37005 0.90103 0.3991 0.0
H75 H 0.40213 0.77143 0.49859 0.0
O76 O 0.41036 0.8037 0.10755 0.0
H77 H 0.31498 0.73822 0.10372 0.0
H78 H 0.40118 0.72448 0.99748 0.0
H79 H 0.2896 0.77123 0.51296 0.0
H80 H 0.48104 0.88065 0.35796 0.0
H81 H 0.32052 0.78184 0.62795 0.0
H82 H 0.45928 0.99182 0.40342 0.0
O83 O 0.3524 0.67764 0.32073 0.0
H84 H 0.48006 0.6132 0.1388 0.0
H85 H 0.36889 0.5961 0.09703 0.0
H86 H 0.40162 0.49439 0.07265 0.0
H87 H 0.45764 0.5026 0.09349 0.0
H88 H 0.44644 0.71348 0.16302 0.0
H89 H 0.37575 0.71491 0.87587 0.0
H90 H 0.31906 0.71649 0.86832 0.0
O91 O 0.34885 0.67612 0.19662 0.0
C92 C 0.34116 0.84296 0.23553 0.0
C93 C 0.31333 0.72727 0.98594 0.0
C94 C 0.36224 0.71988 0.92561 0.0
N95 N 0.35957 0.73141 0.05766 0.0
C96 C 0.32838 0.73271 0.05396 0.0
C97 C 0.37651 0.72548 0.9946 0.0
C98 C 0.33043 0.72075 0.92141 0.0
C99 C 0.43727 0.82944 0.35376 0.0
N100 N 0.40653 0.83532 0.36514 0.0
C101 C 0.45672 0.88553 0.36732 0.0
C102 C 0.44449 0.94792 0.39272 0.0
C103 C 0.41311 0.95351 0.40419 0.0
C104 C 0.39436 0.89638 0.38991 0.0
C105 C 0.36347 0.77715 0.57056 0.0
C106 C 0.32909 0.76559 0.44226 0.0
C107 C 0.37746 0.77121 0.50153 0.0
N108 N 0.36027 0.76591 0.4385 0.0
C109 C 0.31431 0.77141 0.51032 0.0
C110 C 0.33167 0.7773 0.57482 0.0
C111 C 0.34078 0.65502 0.26052 0.0
C112 C 0.45569 0.60905 0.12929 0.0
C113 C 0.39323 0.60004 0.10636 0.0
C114 C 0.41166 0.54232 0.09232 0.0
C115 C 0.44309 0.54697 0.10398 0.0
N116 N 0.40576 0.66077 0.13108 0.0
C117 C 0.43656 0.66574 0.14261 0.0
Co118 Co 0.88031 0.73722 0.84825 0.0
Co119 Co 0.88008 0.75544 0.65809 0.0
O120 O 0.90089 0.74647 0.75325 0.0
C121 C 0.91989 0.85945 0.8672 0.0
O122 O 0.90892 0.88204 0.8039 0.0
C123 C 0.9198 0.63337 0.63995 0.0
O124 O 0.90886 0.61108 0.70318 0.0
O125 O 0.85262 0.67555 0.68028 0.0
O126 O 0.84963 0.67296 0.80442 0.0
H127 H 0.78917 0.76916 0.4879 0.0
H128 H 0.94711 0.71279 0.83837 0.0
O129 O 0.91072 0.80194 0.8938 0.0
H130 H 0.90367 0.49235 0.9285 0.0
H131 H 0.87718 0.71164 0.1253 0.0
H132 H 0.81569 0.73384 0.89727 0.0
H133 H 0.87034 0.59323 0.90405 0.0
H134 H 0.90224 0.72228 0.00379 0.0
O135 O 0.91057 0.69079 0.61293 0.0
H136 H 0.81537 0.75836 0.60844 0.0
H137 H 0.90173 0.77033 0.50276 0.0
H138 H 0.7897 0.72276 0.01753 0.0
H139 H 0.9813 0.61339 0.86267 0.0
H140 H 0.82051 0.71157 0.13265 0.0
H141 H 0.95959 0.50211 0.90786 0.0
O142 O 0.85264 0.81694 0.82584 0.0
H143 H 0.98078 0.87997 0.64404 0.0
H144 H 0.86966 0.89935 0.60229 0.0
H145 H 0.9027 0.00044 0.57788 0.0
H146 H 0.9587 0.99106 0.59869 0.0
H147 H 0.94686 0.78034 0.66829 0.0
H148 H 0.87647 0.7807 0.38098 0.0
H149 H 0.81979 0.78042 0.37307 0.0
O150 O 0.84931 0.81951 0.70167 0.0
C151 C 0.84137 0.65221 0.74041 0.0
C152 C 0.81388 0.76955 0.49065 0.0
C153 C 0.86288 0.77593 0.43063 0.0
N154 N 0.86003 0.76423 0.56266 0.0
C155 C 0.82884 0.76364 0.55876 0.0
C156 C 0.87706 0.76989 0.49971 0.0
C157 C 0.83107 0.7758 0.42624 0.0
C158 C 0.93753 0.66476 0.85873 0.0
N159 N 0.90679 0.65894 0.87015 0.0
C160 C 0.95699 0.60856 0.87209 0.0
C161 C 0.94478 0.54611 0.89733 0.0
C162 C 0.91341 0.54058 0.90888 0.0
C163 C 0.89464 0.59783 0.8948 0.0
C164 C 0.86351 0.71638 0.07553 0.0
C165 C 0.82925 0.72859 0.94708 0.0
C166 C 0.87757 0.72257 0.00659 0.0
N167 N 0.86043 0.72819 0.94348 0.0
C168 C 0.81441 0.72252 0.01503 0.0
C169 C 0.83171 0.71631 0.07961 0.0
C170 C 0.84115 0.84015 0.76568 0.0
C171 C 0.95642 0.88462 0.63454 0.0
C172 C 0.89399 0.89491 0.61161 0.0
C173 C 0.9126 0.95228 0.59755 0.0
C174 C 0.94402 0.94698 0.6092 0.0
N175 N 0.90634 0.8339 0.63632 0.0
C176 C 0.93712 0.8283 0.64787 0.0
Co177 Co 0.61852 0.23842 0.65369 0.0
Co178 Co 0.6194 0.2558 0.84387 0.0
O179 O 0.59824 0.24737 0.74913 0.0
C180 C 0.57896 0.361 0.63611 0.0
O181 O 0.59028 0.38309 0.6992 0.0
C182 C 0.57931 0.13457 0.86321 0.0
O183 O 0.58989 0.11181 0.79983 0.0
O184 O 0.6465 0.17539 0.82096 0.0
O185 O 0.6494 0.17386 0.69677 0.0
H186 H 0.711 0.26693 0.01204 0.0
H187 H 0.55175 0.21415 0.66472 0.0
O188 O 0.58793 0.30351 0.60899 0.0
H189 H 0.59499 0.99395 0.57318 0.0
H190 H 0.62065 0.21411 0.37648 0.0
H191 H 0.68296 0.23502 0.60329 0.0
H192 H 0.62836 0.09461 0.59742 0.0
H193 H 0.59604 0.22422 0.49858 0.0
O194 O 0.58888 0.19182 0.88973 0.0
H195 H 0.6843 0.25707 0.89208 0.0
H196 H 0.5984 0.27096 0.9997 0.0
H197 H 0.70852 0.22448 0.48243 0.0
H198 H 0.51751 0.11495 0.64066 0.0
H199 H 0.67729 0.21394 0.36792 0.0
H200 H 0.53912 0.0038 0.59474 0.0
O201 O 0.64625 0.31794 0.67568 0.0
H202 H 0.5192 0.3825 0.85999 0.0
H203 H 0.63051 0.39935 0.89961 0.0
H204 H 0.59789 0.50111 0.9247 0.0
H205 H 0.5418 0.49302 0.90496 0.0
H206 H 0.55269 0.28217 0.83504 0.0
H207 H 0.62416 0.28041 0.12092 0.0
H208 H 0.68087 0.27869 0.12756 0.0
O209 O 0.65022 0.31929 0.79973 0.0
C210 C 0.6577 0.1525 0.76059 0.0
C211 C 0.68628 0.26795 0.00985 0.0
C212 C 0.63754 0.27542 0.07096 0.0
N213 N 0.63984 0.26397 0.93885 0.0
C214 C 0.67104 0.26258 0.94206 0.0
C215 C 0.62308 0.2699 0.00219 0.0
C216 C 0.66936 0.27448 0.07465 0.0
C217 C 0.56128 0.16616 0.64406 0.0
N218 N 0.59199 0.1603 0.6321 0.0
C219 C 0.5418 0.11008 0.63083 0.0
C220 C 0.55395 0.0477 0.60518 0.0
C221 C 0.58529 0.04212 0.59312 0.0
C222 C 0.60409 0.09925 0.60707 0.0
C223 C 0.6345 0.21856 0.42599 0.0
C224 C 0.66922 0.23004 0.55376 0.0
C225 C 0.62069 0.22445 0.49525 0.0
N226 N 0.63805 0.22971 0.55801 0.0
C227 C 0.68382 0.22428 0.48546 0.0
C228 C 0.66628 0.21844 0.42123 0.0
C229 C 0.65808 0.34044 0.73568 0.0
C230 C 0.54359 0.3866 0.86903 0.0
C231 C 0.60613 0.39547 0.89076 0.0
C232 C 0.58777 0.45322 0.9052 0.0
C233 C 0.5563 0.44863 0.89415 0.0
N234 N 0.59349 0.33478 0.86624 0.0
C235 C 0.56266 0.32987 0.8553 0.0
H236 H 0.31103 0.8932 0.1122 0.0
H237 H 0.18546 0.08879 0.35565 0.0
H238 H 0.31244 0.90683 0.35085 0.0
H239 H 0.18861 0.10708 0.11747 0.0
H240 H 0.23038 0.01516 0.3521 0.0
H241 H 0.26552 0.96761 0.11043 0.0
C242 C 0.30204 0.91229 0.1641 0.0
C243 C 0.31564 0.89343 0.2318 0.0
C244 C 0.22128 0.03505 0.30045 0.0
C245 C 0.26342 0.97757 0.23003 0.0
C246 C 0.19543 0.077 0.30236 0.0
C247 C 0.18317 0.10458 0.23672 0.0
C248 C 0.23519 0.02013 0.23247 0.0
C249 C 0.19723 0.08697 0.16947 0.0
C250 C 0.27598 0.95448 0.163 0.0
C251 C 0.30283 0.91954 0.29726 0.0
N252 N 0.22261 0.04598 0.16907 0.0
N253 N 0.27744 0.95983 0.29465 0.0
H254 H 0.18809 0.39146 0.38876 0.0
H255 H 0.31251 0.59008 0.14493 0.0
H256 H 0.18581 0.40854 0.15037 0.0
H257 H 0.31028 0.6061 0.38334 0.0
H258 H 0.26769 0.5165 0.1488 0.0
H259 H 0.23353 0.46602 0.39064 0.0
C260 C 0.19688 0.41134 0.33696 0.0
C261 C 0.18307 0.3934 0.26927 0.0
C262 C 0.27695 0.53588 0.20044 0.0
C263 C 0.23515 0.47768 0.27115 0.0
C264 C 0.30275 0.57781 0.19835 0.0
C265 C 0.31526 0.60473 0.26395 0.0
C266 C 0.26332 0.52029 0.26859 0.0
C267 C 0.30146 0.58651 0.33137 0.0
C268 C 0.22288 0.4536 0.33812 0.0
C269 C 0.1956 0.42049 0.20394 0.0
N270 N 0.27612 0.54551 0.33196 0.0
N271 N 0.22092 0.46082 0.2066 0.0
H272 H 0.68546 0.08727 0.64477 0.0
H273 H 0.81095 0.88907 0.88886 0.0
H274 H 0.68855 0.10296 0.88319 0.0
H275 H 0.81232 0.90478 0.65036 0.0
H276 H 0.76539 0.96335 0.89041 0.0
H277 H 0.7303 0.01336 0.64848 0.0
C278 C 0.6954 0.07484 0.69814 0.0
C279 C 0.68314 0.10179 0.7638 0.0
C280 C 0.77586 0.95069 0.83792 0.0
C281 C 0.73508 0.01702 0.76826 0.0
C282 C 0.80193 0.90857 0.83695 0.0
C283 C 0.81554 0.89037 0.76935 0.0
C284 C 0.76329 0.97437 0.77086 0.0
C285 C 0.8027 0.91699 0.70388 0.0
C286 C 0.72121 0.03273 0.70014 0.0
C287 C 0.69716 0.08337 0.83116 0.0
N288 N 0.77731 0.95721 0.70635 0.0
N289 N 0.72249 0.04225 0.83166 0.0
H290 H 0.8143 0.58467 0.85559 0.0
H291 H 0.68775 0.39042 0.61213 0.0
H292 H 0.81 0.60493 0.61763 0.0
H293 H 0.68747 0.40357 0.85082 0.0
H294 H 0.73332 0.46453 0.61018 0.0
H295 H 0.76958 0.51075 0.85175 0.0
C296 C 0.80412 0.57325 0.80227 0.0
C297 C 0.816 0.6015 0.73681 0.0
C298 C 0.72309 0.45133 0.66278 0.0
C299 C 0.76416 0.51671 0.73222 0.0
C300 C 0.69701 0.40932 0.66399 0.0
C301 C 0.68371 0.39046 0.73177 0.0
C302 C 0.73595 0.4742 0.72978 0.0
C303 C 0.69684 0.41629 0.79717 0.0
C304 C 0.77837 0.53112 0.8002 0.0
C305 C 0.80167 0.58431 0.6695 0.0
N306 N 0.72222 0.4564 0.79445 0.0
N307 N 0.77638 0.54315 0.66893 0.0
H308 H 0.05279 0.16669 0.00386 0.0
H309 H 0.94637 0.82895 0.00067 0.0
H310 H 0.05217 0.01376 0.17874 0.0
H311 H 0.94682 0.98198 0.82588 0.0
H312 H 0.98513 0.89592 0.06651 0.0
H313 H 0.01404 0.09973 0.93791 0.0
C314 C 0.04454 0.11897 0.02842 0.0
C315 C 0.05581 0.09573 0.09695 0.0
C316 C 0.97675 0.91493 0.0138 0.0
C317 C 0.01134 0.0188 0.02156 0.0
C318 C 0.95459 0.8767 0.97609 0.0
C319 C 0.94326 0.89996 0.90763 0.0
C320 C 0.98775 0.97693 0.98292 0.0
C321 C 0.95482 0.96217 0.87858 0.0
C322 C 0.02238 0.08075 0.99066 0.0
C323 C 0.04421 0.03356 0.126 0.0
N324 N 0.97644 -0.00151 0.91639 0.0
N325 N 0.02261 0.99727 0.08814 0.0
H326 H 0.55348 0.1656 0.99678 0.0
H327 H 0.44587 0.82982 0.00081 0.0
H328 H 0.55175 0.0126 0.82224 0.0
H329 H 0.44741 0.98299 0.17519 0.0
H330 H 0.48468 0.896 0.93483 0.0
H331 H 0.51472 0.09937 0.06291 0.0
C332 C 0.54498 0.11801 0.97232 0.0
C333 C 0.55594 0.09454 0.90384 0.0
C334 C 0.47653 0.9152 0.98748 0.0
C335 C 0.51146 0.01844 0.97945 0.0
C336 C 0.45434 0.87744 0.02527 0.0
C337 C 0.4433 0.90097 0.09365 0.0
C338 C 0.48785 0.97702 0.0182 0.0
C339 C 0.45519 0.96298 0.12256 0.0
C340 C 0.52282 0.08022 0.01019 0.0
C341 C 0.54403 0.03257 0.87494 0.0
N342 N 0.47682 -0.00115 0.08467 0.0
N343 N 0.52243 0.99668 0.91291 0.0
H344 H 0.94671 0.51108 0.68268 0.0
H345 H 0.05201 0.48459 0.32194 0.0
H346 H 0.94623 0.66281 0.50661 0.0
H347 H 0.05233 0.33276 0.49791 0.0
H348 H 0.01325 0.55072 0.3888 0.0
H349 H 0.98544 0.44497 0.61573 0.0
C350 C 0.95469 0.53045 0.6299 0.0
C351 C 0.94314 0.59251 0.60016 0.0
C352 C 0.02182 0.50296 0.4128 0.0
C353 C 0.98754 0.51717 0.52329 0.0
C354 C 0.04399 0.4652 0.37467 0.0
C355 C 0.0555 0.40311 0.40442 0.0
C356 C 0.01107 0.47846 0.48118 0.0
C357 C 0.04414 0.38038 0.47285 0.0
C358 C 0.97684 0.49271 0.59172 0.0
C359 C 0.95445 0.61521 0.53166 0.0
N360 N 0.02259 0.41805 0.50887 0.0
N361 N 0.976 0.57756 0.49558 0.0
H362 H 0.44601 0.51205 0.3185 0.0
H363 H 0.55247 0.48349 0.67913 0.0
H364 H 0.44648 0.6634 0.4947 0.0
H365 H 0.55189 0.33212 0.50295 0.0
H366 H 0.5136 0.55018 0.61241 0.0
H367 H 0.4848 0.44531 0.38538 0.0
C368 C 0.45422 0.53121 0.37129 0.0
C369 C 0.44292 0.59335 0.40108 0.0
C370 C 0.522 0.50239 0.58834 0.0
C371 C 0.48738 0.51728 0.47788 0.0
C372 C 0.54422 0.46431 0.62639 0.0
C373 C 0.55552 0.40219 0.59654 0.0
C374 C 0.51097 0.4782 0.51993 0.0
C375 C 0.54388 0.37975 0.52809 0.0
C376 C 0.4764 0.4931 0.40944 0.0
C377 C 0.4545 0.61576 0.4696 0.0
N378 N 0.52227 0.41774 0.49214 0.0
N379 N 0.47607 0.57775 0.50564 0.0
loop_
_geom_bond_atom_site_label_1
_geom_bond_atom_site_label_2
_geom_bond_distance
_geom_bond_site_symmetry_2
_ccdc_geom_bond_type
Co0 O2 2.143 . S
Co0 O8 2.074 . S
Co0 O11 2.093 . S
Co0 O24 2.097 . S
Co0 N41 2.151 . S
Co0 N49 2.214 . S
Co1 O2 2.160 . S
Co1 O7 2.058 . S
Co1 O17 2.057 . S
Co1 O32 2.037 . S
Co1 N36 2.145 . S
Co1 N57 2.257 . S
O2 Co0 2.143 . S
O2 Co1 2.160 . S
C3 O4 1.278 . S
C3 O11 1.224 . S
O4 C3 1.278 . S
C5 O6 1.245 . S
C5 O17 1.232 . S
O6 C5 1.245 . S
O7 Co1 2.058 . S
O7 C33 1.269 . S
O8 Co0 2.074 . S
O8 C33 1.257 . S
H9 C34 0.930 . S
H10 C40 0.930 . S
O11 Co0 2.093 . S
O11 C3 1.224 . S
H12 C44 0.929 1_556 S
H13 C46 0.930 . S
H14 C47 0.930 . S
H15 C45 0.929 . S
H16 C48 0.928 . S
O17 Co1 2.057 . S
O17 C5 1.232 . S
H18 C37 0.929 . S
H19 C38 0.929 . S
H20 C50 0.931 . S
H21 C42 0.929 . S
H22 C51 0.930 . S
H23 C43 0.931 . S
O24 Co0 2.097 . S
O24 C52 1.214 . S
H25 C53 0.929 . S
H26 C54 0.929 . S
H27 C55 0.930 . S
H28 C56 0.929 . S
H29 C58 0.930 . S
H30 C35 0.930 . S
H31 C39 0.930 . S
O32 Co1 2.037 . S
O32 C52 1.234 . S
C33 O7 1.269 . S
C33 O8 1.257 . S
C34 H9 0.930 . S
C34 C37 1.388 . S
C34 C39 1.418 . S
C35 H30 0.930 . S
C35 C38 1.404 . S
C35 C39 1.353 . S
N36 Co1 2.145 . S
N36 C37 1.397 . S
N36 C38 1.334 . S
C37 H18 0.929 . S
C37 C34 1.388 . S
C37 N36 1.397 . S
C38 H19 0.929 . S
C38 C35 1.404 . S
C38 N36 1.334 . S
C39 H31 0.930 . S
C39 C34 1.418 . S
C39 C35 1.353 . S
C40 H10 0.930 . S
C40 N41 1.330 . S
C40 C42 1.446 . S
N41 Co0 2.151 . S
N41 C40 1.330 . S
N41 C45 1.418 . S
C42 H21 0.929 . S
C42 C40 1.446 . S
C42 C43 1.332 1_554 S
C43 H23 0.931 . S
C43 C42 1.332 1_556 S
C43 C44 1.267 1_556 S
C44 H12 0.929 1_554 S
C44 C43 1.267 1_554 S
C44 C45 1.251 . S
C45 H15 0.929 . S
C45 N41 1.418 . S
C45 C44 1.251 . S
C46 H13 0.930 . S
C46 C48 1.406 . S
C46 C51 1.261 . S
C47 H14 0.930 . S
C47 N49 1.325 . S
C47 C50 1.357 . S
C48 H16 0.928 . S
C48 C46 1.406 . S
C48 N49 1.261 1_556 S
N49 Co0 2.214 . S
N49 C47 1.325 . S
N49 C48 1.261 1_554 S
C50 H20 0.931 . S
C50 C47 1.357 . S
C50 C51 1.312 1_554 S
C51 H22 0.930 . S
C51 C46 1.261 . S
C51 C50 1.312 1_556 S
C52 O24 1.214 . S
C52 O32 1.234 . S
C53 H25 0.929 . S
C53 C56 1.391 . S
C53 C58 1.391 . S
C54 H26 0.929 . S
C54 C55 1.390 . S
C54 N57 1.391 . S
C55 H27 0.930 . S
C55 C54 1.390 . S
C55 C56 1.392 . S
C56 H28 0.929 . S
C56 C53 1.391 . S
C56 C55 1.392 . S
N57 Co1 2.257 . S
N57 C54 1.391 . S
N57 C58 1.388 . S
C58 H29 0.930 . S
C58 C53 1.391 . S
C58 N57 1.388 . S
Co59 O61 2.143 . S
Co59 O67 2.074 . S
Co59 O70 2.093 . S
Co59 O83 2.097 . S
Co59 N100 2.151 . S
Co59 N108 2.214 . S
Co60 O61 2.160 . S
Co60 O66 2.058 . S
Co60 O76 2.057 . S
Co60 O91 2.037 . S
Co60 N95 2.145 . S
Co60 N116 2.257 . S
O61 Co59 2.143 . S
O61 Co60 2.160 . S
C62 O63 1.278 . S
C62 O70 1.224 . S
O63 C62 1.278 . S
C64 O65 1.245 . S
C64 O76 1.232 . S
O65 C64 1.245 . S
O66 Co60 2.058 . S
O66 C92 1.269 . S
O67 Co59 2.074 . S
O67 C92 1.257 . S
H68 C93 0.930 . S
H69 C99 0.930 . S
O70 Co59 2.093 . S
O70 C62 1.224 . S
H71 C103 0.929 . S
H72 C105 0.930 . S
H73 C106 0.930 . S
H74 C104 0.929 . S
H75 C107 0.928 . S
O76 Co60 2.057 . S
O76 C64 1.232 . S
H77 C96 0.929 . S
H78 C97 0.929 . S
H79 C109 0.931 . S
H80 C101 0.929 . S
H81 C110 0.930 . S
H82 C102 0.931 . S
O83 Co59 2.097 . S
O83 C111 1.214 . S
H84 C112 0.929 . S
H85 C113 0.929 . S
H86 C114 0.930 . S
H87 C115 0.929 . S
H88 C117 0.930 . S
H89 C94 0.930 . S
H90 C98 0.930 . S
O91 Co60 2.037 . S
O91 C111 1.234 . S
C92 O66 1.269 . S
C92 O67 1.257 . S
C93 H68 0.930 . S
C93 C96 1.388 1_556 S
C93 C98 1.418 . S
C94 H89 0.930 . S
C94 C97 1.404 . S
C94 C98 1.353 . S
N95 Co60 2.145 . S
N95 C96 1.397 . S
N95 C97 1.334 1_554 S
C96 H77 0.929 . S
C96 C93 1.388 1_554 S
C96 N95 1.397 . S
C97 H78 0.929 . S
C97 C94 1.404 . S
C97 N95 1.334 1_556 S
C98 H90 0.930 . S
C98 C93 1.418 . S
C98 C94 1.353 . S
C99 H69 0.930 . S
C99 N100 1.330 . S
C99 C101 1.446 . S
N100 Co59 2.151 . S
N100 C99 1.330 . S
N100 C104 1.418 . S
C101 H80 0.929 . S
C101 C99 1.446 . S
C101 C102 1.332 . S
C102 H82 0.931 . S
C102 C101 1.332 . S
C102 C103 1.267 . S
C103 H71 0.929 . S
C103 C102 1.267 . S
C103 C104 1.251 . S
C104 H74 0.929 . S
C104 N100 1.418 . S
C104 C103 1.251 . S
C105 H72 0.930 . S
C105 C107 1.406 . S
C105 C110 1.261 . S
C106 H73 0.930 . S
C106 N108 1.325 . S
C106 C109 1.357 . S
C107 H75 0.928 . S
C107 C105 1.406 . S
C107 N108 1.261 . S
N108 Co59 2.214 . S
N108 C106 1.325 . S
N108 C107 1.261 . S
C109 H79 0.931 . S
C109 C106 1.357 . S
C109 C110 1.312 . S
C110 H81 0.930 . S
C110 C105 1.261 . S
C110 C109 1.312 . S
C111 O83 1.214 . S
C111 O91 1.234 . S
C112 H84 0.929 . S
C112 C115 1.391 . S
C112 C117 1.391 . S
C113 H85 0.929 . S
C113 C114 1.390 . S
C113 N116 1.391 . S
C114 H86 0.930 . S
C114 C113 1.390 . S
C114 C115 1.392 . S
C115 H87 0.929 . S
C115 C112 1.391 . S
C115 C114 1.392 . S
N116 Co60 2.257 . S
N116 C113 1.391 . S
N116 C117 1.388 . S
C117 H88 0.930 . S
C117 C112 1.391 . S
C117 N116 1.388 . S
Co118 O120 2.143 . S
Co118 O126 2.074 . S
Co118 O129 2.093 . S
Co118 O142 2.097 . S
Co118 N159 2.151 . S
Co118 N167 2.214 . S
Co119 O120 2.160 . S
Co119 O125 2.058 . S
Co119 O135 2.057 . S
Co119 O150 2.037 . S
Co119 N154 2.145 . S
Co119 N175 2.257 . S
O120 Co118 2.143 . S
O120 Co119 2.160 . S
C121 O122 1.278 . S
C121 O129 1.224 . S
O122 C121 1.278 . S
C123 O124 1.245 . S
C123 O135 1.232 . S
O124 C123 1.245 . S
O125 Co119 2.058 . S
O125 C151 1.269 . S
O126 Co118 2.074 . S
O126 C151 1.257 . S
H127 C152 0.930 . S
H128 C158 0.930 . S
O129 Co118 2.093 . S
O129 C121 1.224 . S
H130 C162 0.929 1_554 S
H131 C164 0.930 . S
H132 C165 0.930 . S
H133 C163 0.929 . S
H134 C166 0.928 . S
O135 Co119 2.057 . S
O135 C123 1.232 . S
H136 C155 0.929 . S
H137 C156 0.929 . S
H138 C168 0.931 . S
H139 C160 0.929 . S
H140 C169 0.930 . S
H141 C161 0.931 . S
O142 Co118 2.097 . S
O142 C170 1.214 . S
H143 C171 0.929 . S
H144 C172 0.929 . S
H145 C173 0.930 . S
H146 C174 0.929 . S
H147 C176 0.930 . S
H148 C153 0.930 . S
H149 C157 0.930 . S
O150 Co119 2.037 . S
O150 C170 1.234 . S
C151 O125 1.269 . S
C151 O126 1.257 . S
C152 H127 0.930 . S
C152 C155 1.388 . S
C152 C157 1.418 . S
C153 H148 0.930 . S
C153 C156 1.404 . S
C153 C157 1.353 . S
N154 Co119 2.145 . S
N154 C155 1.397 . S
N154 C156 1.334 . S
C155 H136 0.929 . S
C155 C152 1.388 . S
C155 N154 1.397 . S
C156 H137 0.929 . S
C156 C153 1.404 . S
C156 N154 1.334 . S
C157 H149 0.930 . S
C157 C152 1.418 . S
C157 C153 1.353 . S
C158 H128 0.930 . S
C158 N159 1.330 . S
C158 C160 1.446 . S
N159 Co118 2.151 . S
N159 C158 1.330 . S
N159 C163 1.418 . S
C160 H139 0.929 . S
C160 C158 1.446 . S
C160 C161 1.332 1_556 S
C161 H141 0.931 . S
C161 C160 1.332 1_554 S
C161 C162 1.267 1_554 S
C162 H130 0.929 1_556 S
C162 C161 1.267 1_556 S
C162 C163 1.251 . S
C163 H133 0.929 . S
C163 N159 1.418 . S
C163 C162 1.251 . S
C164 H131 0.930 . S
C164 C166 1.406 . S
C164 C169 1.261 . S
C165 H132 0.930 . S
C165 N167 1.325 . S
C165 C168 1.357 . S
C166 H134 0.928 . S
C166 C164 1.406 . S
C166 N167 1.261 1_554 S
N167 Co118 2.214 . S
N167 C165 1.325 . S
N167 C166 1.261 1_556 S
C168 H138 0.931 . S
C168 C165 1.357 . S
C168 C169 1.312 1_556 S
C169 H140 0.930 . S
C169 C164 1.261 . S
C169 C168 1.312 1_554 S
C170 O142 1.214 . S
C170 O150 1.234 . S
C171 H143 0.929 . S
C171 C174 1.391 . S
C171 C176 1.391 . S
C172 H144 0.929 . S
C172 C173 1.390 . S
C172 N175 1.391 . S
C173 H145 0.930 . S
C173 C172 1.390 . S
C173 C174 1.392 . S
C174 H146 0.929 . S
C174 C171 1.391 . S
C174 C173 1.392 . S
N175 Co119 2.257 . S
N175 C172 1.391 . S
N175 C176 1.388 . S
C176 H147 0.930 . S
C176 C171 1.391 . S
C176 N175 1.388 . S
Co177 O179 2.143 . S
Co177 O185 2.074 . S
Co177 O188 2.093 . S
Co177 O201 2.097 . S
Co177 N218 2.151 . S
Co177 N226 2.214 . S
Co178 O179 2.160 . S
Co178 O184 2.058 . S
Co178 O194 2.057 . S
Co178 O209 2.037 . S
Co178 N213 2.145 . S
Co178 N234 2.257 . S
O179 Co177 2.143 . S
O179 Co178 2.160 . S
C180 O181 1.278 . S
C180 O188 1.224 . S
O181 C180 1.278 . S
C182 O183 1.245 . S
C182 O194 1.232 . S
O183 C182 1.245 . S
O184 Co178 2.058 . S
O184 C210 1.269 . S
O185 Co177 2.074 . S
O185 C210 1.257 . S
H186 C211 0.930 . S
H187 C217 0.930 . S
O188 Co177 2.093 . S
O188 C180 1.224 . S
H189 C221 0.929 . S
H190 C223 0.930 . S
H191 C224 0.930 . S
H192 C222 0.929 . S
H193 C225 0.928 . S
O194 Co178 2.057 . S
O194 C182 1.232 . S
H195 C214 0.929 . S
H196 C215 0.929 . S
H197 C227 0.931 . S
H198 C219 0.929 . S
H199 C228 0.930 . S
H200 C220 0.931 . S
O201 Co177 2.097 . S
O201 C229 1.214 . S
H202 C230 0.929 . S
H203 C231 0.929 . S
H204 C232 0.930 . S
H205 C233 0.929 . S
H206 C235 0.930 . S
H207 C212 0.930 . S
H208 C216 0.930 . S
O209 Co178 2.037 . S
O209 C229 1.234 . S
C210 O184 1.269 . S
C210 O185 1.257 . S
C211 H186 0.930 . S
C211 C214 1.388 1_554 S
C211 C216 1.418 . S
C212 H207 0.930 . S
C212 C215 1.404 . S
C212 C216 1.353 . S
N213 Co178 2.145 . S
N213 C214 1.397 . S
N213 C215 1.334 1_556 S
C214 H195 0.929 . S
C214 C211 1.388 1_556 S
C214 N213 1.397 . S
C215 H196 0.929 . S
C215 C212 1.404 . S
C215 N213 1.334 1_554 S
C216 H208 0.930 . S
C216 C211 1.418 . S
C216 C212 1.353 . S
C217 H187 0.930 . S
C217 N218 1.330 . S
C217 C219 1.446 . S
N218 Co177 2.151 . S
N218 C217 1.330 . S
N218 C222 1.418 . S
C219 H198 0.929 . S
C219 C217 1.446 . S
C219 C220 1.332 . S
C220 H200 0.931 . S
C220 C219 1.332 . S
C220 C221 1.267 . S
C221 H189 0.929 . S
C221 C220 1.267 . S
C221 C222 1.251 . S
C222 H192 0.929 . S
C222 N218 1.418 . S
C222 C221 1.251 . S
C223 H190 0.930 . S
C223 C225 1.406 . S
C223 C228 1.261 . S
C224 H191 0.930 . S
C224 N226 1.325 . S
C224 C227 1.357 . S
C225 H193 0.928 . S
C225 C223 1.406 . S
C225 N226 1.261 . S
N226 Co177 2.214 . S
N226 C224 1.325 . S
N226 C225 1.261 . S
C227 H197 0.931 . S
C227 C224 1.357 . S
C227 C228 1.312 . S
C228 H199 0.930 . S
C228 C223 1.261 . S
C228 C227 1.312 . S
C229 O201 1.214 . S
C229 O209 1.234 . S
C230 H202 0.929 . S
C230 C233 1.391 . S
C230 C235 1.391 . S
C231 H203 0.929 . S
C231 C232 1.390 . S
C231 N234 1.391 . S
C232 H204 0.930 . S
C232 C231 1.390 . S
C232 C233 1.392 . S
C233 H205 0.929 . S
C233 C230 1.391 . S
C233 C232 1.392 . S
N234 Co178 2.257 . S
N234 C231 1.391 . S
N234 C235 1.388 . S
C235 H206 0.930 . S
C235 C230 1.391 . S
C235 N234 1.388 . S
H236 C242 0.930 . S
H237 C246 0.930 . S
H238 C251 0.929 . S
H239 C249 0.929 . S
H240 C244 0.929 . S
H241 C250 0.929 . S
C242 H236 0.930 . S
C242 C243 1.367 . S
C242 C250 1.378 1_565 S
C243 C242 1.367 . S
C243 C251 1.433 . S
C244 H240 0.929 . S
C244 C246 1.378 1_565 S
C244 C248 1.350 1_565 S
C245 C248 1.463 1_565 S
C245 C250 1.350 1_565 S
C245 N253 1.427 . S
C246 H237 0.930 . S
C246 C244 1.378 1_545 S
C246 C247 1.367 . S
C247 C246 1.367 . S
C247 C249 1.433 . S
C248 C244 1.350 1_545 S
C248 C245 1.463 1_545 S
C248 N252 1.427 . S
C249 H239 0.929 . S
C249 C247 1.433 . S
C249 N252 1.384 . S
C250 H241 0.929 . S
C250 C242 1.378 1_545 S
C250 C245 1.350 1_545 S
C251 H238 0.929 . S
C251 C243 1.433 . S
C251 N253 1.384 . S
N252 C248 1.427 . S
N252 C249 1.384 . S
N253 C245 1.427 . S
N253 C251 1.384 . S
H254 C260 0.930 . S
H255 C264 0.930 . S
H256 C269 0.929 . S
H257 C267 0.929 . S
H258 C262 0.929 . S
H259 C268 0.929 . S
C260 H254 0.930 . S
C260 C261 1.367 . S
C260 C268 1.378 . S
C261 C260 1.367 . S
C261 C269 1.433 . S
C262 H258 0.929 . S
C262 C264 1.378 . S
C262 C266 1.350 . S
C263 C266 1.463 . S
C263 C268 1.350 . S
C263 N271 1.427 . S
C264 H255 0.930 . S
C264 C262 1.378 . S
C264 C265 1.367 . S
C265 C264 1.367 . S
C265 C267 1.433 . S
C266 C262 1.350 . S
C266 C263 1.463 . S
C266 N270 1.427 . S
C267 H257 0.929 . S
C267 C265 1.433 . S
C267 N270 1.384 . S
C268 H259 0.929 . S
C268 C260 1.378 . S
C268 C263 1.350 . S
C269 H256 0.929 . S
C269 C261 1.433 . S
C269 N271 1.384 . S
N270 C266 1.427 . S
N270 C267 1.384 . S
N271 C263 1.427 . S
N271 C269 1.384 . S
H272 C278 0.930 . S
H273 C282 0.930 . S
H274 C287 0.929 . S
H275 C285 0.929 . S
H276 C280 0.929 . S
H277 C286 0.929 . S
C278 H272 0.930 . S
C278 C279 1.367 . S
C278 C286 1.378 . S
C279 C278 1.367 . S
C279 C287 1.433 . S
C280 H276 0.929 . S
C280 C282 1.378 . S
C280 C284 1.350 . S
C281 C284 1.463 1_545 S
C281 C286 1.350 . S
C281 N289 1.427 1_545 S
C282 H273 0.930 . S
C282 C280 1.378 . S
C282 C283 1.367 . S
C283 C282 1.367 . S
C283 C285 1.433 . S
C284 C280 1.350 . S
C284 C281 1.463 1_565 S
C284 N288 1.427 1_565 S
C285 H275 0.929 . S
C285 C283 1.433 . S
C285 N288 1.384 1_565 S
C286 H277 0.929 . S
C286 C278 1.378 . S
C286 C281 1.350 . S
C287 H274 0.929 . S
C287 C279 1.433 . S
C287 N289 1.384 1_545 S
N288 C284 1.427 1_545 S
N288 C285 1.384 1_545 S
N289 C281 1.427 1_565 S
N289 C287 1.384 1_565 S
H290 C296 0.930 . S
H291 C300 0.930 . S
H292 C305 0.929 . S
H293 C303 0.929 . S
H294 C298 0.929 . S
H295 C304 0.929 . S
C296 H290 0.930 . S
C296 C297 1.367 . S
C296 C304 1.378 . S
C297 C296 1.367 . S
C297 C305 1.433 . S
C298 H294 0.929 . S
C298 C300 1.378 . S
C298 C302 1.350 . S
C299 C302 1.463 . S
C299 C304 1.350 . S
C299 N307 1.427 . S
C300 H291 0.930 . S
C300 C298 1.378 . S
C300 C301 1.367 . S
C301 C300 1.367 . S
C301 C303 1.433 . S
C302 C298 1.350 . S
C302 C299 1.463 . S
C302 N306 1.427 . S
C303 H293 0.929 . S
C303 C301 1.433 . S
C303 N306 1.384 . S
C304 H295 0.929 . S
C304 C296 1.378 . S
C304 C299 1.350 . S
C305 H292 0.929 . S
C305 C297 1.433 . S
C305 N307 1.384 . S
N306 C302 1.427 . S
N306 C303 1.384 . S
N307 C299 1.427 . S
N307 C305 1.384 . S
H308 C314 0.930 1_556 S
H309 C318 0.930 1_554 S
H310 C323 0.929 . S
H311 C321 0.929 . S
H312 C316 0.929 . S
H313 C322 0.929 . S
C314 H308 0.930 1_554 S
C314 C315 1.367 . S
C314 C322 1.378 1_554 S
C315 C314 1.367 . S
C315 C323 1.433 . S
C316 H312 0.929 . S
C316 C318 1.378 1_554 S
C316 C320 1.350 1_554 S
C317 C320 1.463 1_444 S
C317 C322 1.350 1_554 S
C317 N325 1.427 . S
C318 H309 0.930 1_556 S
C318 C316 1.378 1_556 S
C318 C319 1.367 . S
C319 C318 1.367 . S
C319 C321 1.433 . S
C320 C316 1.350 1_556 S
C320 C317 1.463 1_666 S
C320 N324 1.427 . S
C321 H311 0.929 . S
C321 C319 1.433 . S
C321 N324 1.384 . S
C322 H313 0.929 . S
C322 C314 1.378 1_556 S
C322 C317 1.350 1_556 S
C323 H310 0.929 . S
C323 C315 1.433 . S
C323 N325 1.384 . S
N324 C320 1.427 . S
N324 C321 1.384 . S
N325 C317 1.427 . S
N325 C323 1.384 . S
H326 C332 0.930 . S
H327 C336 0.930 . S
H328 C341 0.929 . S
H329 C339 0.929 . S
H330 C334 0.929 . S
H331 C340 0.929 . S
C332 H326 0.930 . S
C332 C333 1.367 . S
C332 C340 1.378 1_556 S
C333 C332 1.367 . S
C333 C341 1.433 . S
C334 H330 0.929 . S
C334 C336 1.378 1_556 S
C334 C338 1.350 1_556 S
C335 C338 1.463 1_546 S
C335 C340 1.350 1_556 S
C335 N343 1.427 . S
C336 H327 0.930 . S
C336 C334 1.378 1_554 S
C336 C337 1.367 . S
C337 C336 1.367 . S
C337 C339 1.433 . S
C338 C334 1.350 1_554 S
C338 C335 1.463 1_564 S
C338 N342 1.427 . S
C339 H329 0.929 . S
C339 C337 1.433 . S
C339 N342 1.384 . S
C340 H331 0.929 . S
C340 C332 1.378 1_554 S
C340 C335 1.350 1_554 S
C341 H328 0.929 . S
C341 C333 1.433 . S
C341 N343 1.384 . S
N342 C338 1.427 . S
N342 C339 1.384 . S
N343 C335 1.427 . S
N343 C341 1.384 . S
H344 C350 0.930 . S
H345 C354 0.930 . S
H346 C359 0.929 . S
H347 C357 0.929 . S
H348 C352 0.929 . S
H349 C358 0.929 . S
C350 H344 0.930 . S
C350 C351 1.367 . S
C350 C358 1.378 1_655 S
C351 C350 1.367 . S
C351 C359 1.433 . S
C352 H348 0.929 . S
C352 C354 1.378 1_655 S
C352 C356 1.350 1_655 S
C353 C356 1.463 1_655 S
C353 C358 1.350 1_655 S
C353 N361 1.427 . S
C354 H345 0.930 . S
C354 C352 1.378 1_455 S
C354 C355 1.367 . S
C355 C354 1.367 . S
C355 C357 1.433 . S
C356 C352 1.350 1_455 S
C356 C353 1.463 1_455 S
C356 N360 1.427 . S
C357 H347 0.929 . S
C357 C355 1.433 . S
C357 N360 1.384 . S
C358 H349 0.929 . S
C358 C350 1.378 1_455 S
C358 C353 1.350 1_455 S
C359 H346 0.929 . S
C359 C351 1.433 . S
C359 N361 1.384 . S
N360 C356 1.427 . S
N360 C357 1.384 . S
N361 C353 1.427 . S
N361 C359 1.384 . S
H362 C368 0.930 . S
H363 C372 0.930 . S
H364 C377 0.929 . S
H365 C375 0.929 . S
H366 C370 0.929 . S
H367 C376 0.929 . S
C368 H362 0.930 . S
C368 C369 1.367 . S
C368 C376 1.378 . S
C369 C368 1.367 . S
C369 C377 1.433 . S
C370 H366 0.929 . S
C370 C372 1.378 . S
C370 C374 1.350 . S
C371 C374 1.463 . S
C371 C376 1.350 . S
C371 N379 1.427 . S
C372 H363 0.930 . S
C372 C370 1.378 . S
C372 C373 1.367 . S
C373 C372 1.367 . S
C373 C375 1.433 . S
C374 C370 1.350 . S
C374 C371 1.463 . S
C374 N378 1.427 . S
C375 H365 0.929 . S
C375 C373 1.433 . S
C375 N378 1.384 . S
C376 H367 0.929 . S
C376 C368 1.378 . S
C376 C371 1.350 . S
C377 H364 0.929 . S
C377 C369 1.433 . S
C377 N379 1.384 . S
N378 C374 1.427 . S
N378 C375 1.384 . S
N379 C371 1.427 . S
N379 C377 1.384 . S
C243 C92 1.319 . S
C247 C52 1.322 . S
C261 C33 1.315 . S
C265 C111 1.322 . S
C279 C210 1.315 . S
C283 C170 1.320 . S
C297 C151 1.317 . S
C301 C229 1.319 . S
C315 C3 1.486 . S
C319 C121 1.486 . S
C333 C182 1.496 . S
C337 C64 1.496 . S
C351 C123 1.498 . S
C355 C5 1.498 . S
C369 C62 1.487 . S
C373 C180 1.487 . S
