# Generated by pormake.
# Topology wkf, (6)-cn, num edge types: 1
# Building blocks:
#     Node 0, Type 0, BuildingBlock: OJICUG_clean_sbu_0, # of connection points: 6
#     Node 1, Type 0, BuildingBlock: OJICUG_clean_sbu_0, # of connection points: 6
#     Node 2, Type 0, BuildingBlock: OJICUG_clean_sbu_0, # of connection points: 6
#     Node 3, Type 0, BuildingBlock: OJICUG_clean_sbu_0, # of connection points: 6
#     Node 4, Type 0, BuildingBlock: OJICUG_clean_sbu_0, # of connection points: 6
#     Node 5, Type 0, BuildingBlock: OJICUG_clean_sbu_0, # of connection points: 6
#     Node 6, Type 0, BuildingBlock: OJICUG_clean_sbu_0, # of connection points: 6
#     Node 7, Type 0, BuildingBlock: OJICUG_clean_sbu_0, # of connection points: 6
#     Node 8, Type 0, BuildingBlock: OJICUG_clean_sbu_0, # of connection points: 6
#     Node 9, Type 0, BuildingBlock: OJICUG_clean_sbu_0, # of connection points: 6
#     Node 10, Type 0, BuildingBlock: OJICUG_clean_sbu_0, # of connection points: 6
#     Node 11, Type 0, BuildingBlock: OJICUG_clean_sbu_0, # of connection points: 6
#     Edge 12, Type (0, 0), BuildingBlock: KIFKEQ_clean_linker_1, # of connection points: 2
#     Edge 13, Type (0, 0), BuildingBlock: KIFKEQ_clean_linker_1, # of connection points: 2
#     Edge 14, Type (0, 0), BuildingBlock: KIFKEQ_clean_linker_1, # of connection points: 2
#     Edge 15, Type (0, 0), BuildingBlock: KIFKEQ_clean_linker_1, # of connection points: 2
#     Edge 16, Type (0, 0), BuildingBlock: KIFKEQ_clean_linker_1, # of connection points: 2
#     Edge 17, Type (0, 0), BuildingBlock: KIFKEQ_clean_linker_1, # of connection points: 2
#     Edge 18, Type (0, 0), BuildingBlock: KIFKEQ_clean_linker_1, # of connection points: 2
#     Edge 19, Type (0, 0), BuildingBlock: KIFKEQ_clean_linker_1, # of connection points: 2
#     Edge 20, Type (0, 0), BuildingBlock: KIFKEQ_clean_linker_1, # of connection points: 2
#     Edge 21, Type (0, 0), BuildingBlock: KIFKEQ_clean_linker_1, # of connection points: 2
#     Edge 22, Type (0, 0), BuildingBlock: KIFKEQ_clean_linker_1, # of connection points: 2
#     Edge 23, Type (0, 0), BuildingBlock: KIFKEQ_clean_linker_1, # of connection points: 2
#     Edge 24, Type (0, 0), BuildingBlock: KIFKEQ_clean_linker_1, # of connection points: 2
#     Edge 25, Type (0, 0), BuildingBlock: KIFKEQ_clean_linker_1, # of connection points: 2
#     Edge 26, Type (0, 0), BuildingBlock: KIFKEQ_clean_linker_1, # of connection points: 2
#     Edge 27, Type (0, 0), BuildingBlock: KIFKEQ_clean_linker_1, # of connection points: 2
#     Edge 28, Type (0, 0), BuildingBlock: KIFKEQ_clean_linker_1, # of connection points: 2
#     Edge 29, Type (0, 0), BuildingBlock: KIFKEQ_clean_linker_1, # of connection points: 2
#     Edge 30, Type (0, 0), BuildingBlock: KIFKEQ_clean_linker_1, # of connection points: 2
#     Edge 31, Type (0, 0), BuildingBlock: KIFKEQ_clean_linker_1, # of connection points: 2
#     Edge 32, Type (0, 0), BuildingBlock: KIFKEQ_clean_linker_1, # of connection points: 2
#     Edge 33, Type (0, 0), BuildingBlock: KIFKEQ_clean_linker_1, # of connection points: 2
#     Edge 34, Type (0, 0), BuildingBlock: KIFKEQ_clean_linker_1, # of connection points: 2
#     Edge 35, Type (0, 0), BuildingBlock: KIFKEQ_clean_linker_1, # of connection points: 2
#     Edge 36, Type (0, 0), BuildingBlock: KIFKEQ_clean_linker_1, # of connection points: 2
#     Edge 37, Type (0, 0), BuildingBlock: KIFKEQ_clean_linker_1, # of connection points: 2
#     Edge 38, Type (0, 0), BuildingBlock: KIFKEQ_clean_linker_1, # of connection points: 2
#     Edge 39, Type (0, 0), BuildingBlock: KIFKEQ_clean_linker_1, # of connection points: 2
#     Edge 40, Type (0, 0), BuildingBlock: KIFKEQ_clean_linker_1, # of connection points: 2
#     Edge 41, Type (0, 0), BuildingBlock: KIFKEQ_clean_linker_1, # of connection points: 2
#     Edge 42, Type (0, 0), BuildingBlock: KIFKEQ_clean_linker_1, # of connection points: 2
#     Edge 43, Type (0, 0), BuildingBlock: KIFKEQ_clean_linker_1, # of connection points: 2
#     Edge 44, Type (0, 0), BuildingBlock: KIFKEQ_clean_linker_1, # of connection points: 2
#     Edge 45, Type (0, 0), BuildingBlock: KIFKEQ_clean_linker_1, # of connection points: 2
#     Edge 46, Type (0, 0), BuildingBlock: KIFKEQ_clean_linker_1, # of connection points: 2
#     Edge 47, Type (0, 0), BuildingBlock: KIFKEQ_clean_linker_1, # of connection points: 2
# Relax obj value: 0.170
# Max RMSD: 0.210
# Mean RMSD: 0.210
data_MOF--net-wkf--node1-OJICUG_clean_sbu_0--edge1-KIFKEQ_clean_linker_1
_symmetry_space_group_name_H-M    P1
_symmetry_Int_Tables_number       1
_symmetry_cell_setting            triclinic
loop_
_symmetry_equiv_pos_as_xyz
'x, y, z'
_cell_length_a     29.127388
_cell_length_b     29.047139
_cell_length_c     73.92549
_cell_angle_alpha  90.05743
_cell_angle_beta   89.858643
_cell_angle_gamma 119.87437
loop_
_atom_site_label
_atom_site_type_symbol
_atom_site_fract_x
_atom_site_fract_y
_atom_site_fract_z
_atom_type_partial_charge
Sc0 Sc 0.4387 0.1026 0.3472 0.0
Sc1 Sc 0.30705 0.0711 0.35617 0.0
Sc2 Sc 0.38091 0.05194 0.38947 0.0
O3 O 0.3755 0.07515 0.36419 0.0
C4 C 0.44749 0.01174 0.36846 0.0
C5 C 0.33918 0.01994 0.32395 0.0
C6 C 0.26226 0.96868 0.3813 0.0
C7 C 0.38936 0.17201 0.33369 0.0
C8 C 0.49098 0.15812 0.38402 0.0
C9 C 0.32626 0.12333 0.3949 0.0
O10 O 0.46179 0.0474 0.35646 0.0
O11 O 0.30531 0.02535 0.33329 0.0
O12 O 0.30598 0.98196 0.38882 0.0
O13 O 0.42716 0.16271 0.33526 0.0
O14 O 0.4567 0.11909 0.39309 0.0
O15 O 0.30824 0.11776 0.37888 0.0
O16 O 0.49023 0.16075 0.36683 0.0
O17 O 0.34431 0.14274 0.34069 0.0
O18 O 0.34968 0.09918 0.40074 0.0
O19 O 0.38908 0.04559 0.32685 0.0
O20 O 0.41366 0.00404 0.38062 0.0
O21 O 0.25615 -0.00194 0.37007 0.0
Sc22 Sc 0.2996 0.37214 0.55727 0.0
Sc23 Sc 0.20983 0.29915 0.52277 0.0
Sc24 Sc 0.30433 0.43444 0.51619 0.0
O25 O 0.27135 0.36854 0.532 0.0
C26 C 0.29479 0.47867 0.55439 0.0
C27 C 0.17498 0.30252 0.56323 0.0
C28 C 0.18266 0.3813 0.50514 0.0
C29 C 0.2812 0.26127 0.54324 0.0
C30 C 0.40589 0.44832 0.53709 0.0
C31 C 0.28745 0.34427 0.48859 0.0
O32 O 0.29979 0.44381 0.56307 0.0
O33 O 0.1642 0.28496 0.54716 0.0
O34 O 0.23039 0.41853 0.50507 0.0
O35 O 0.30226 0.30128 0.55357 0.0
O36 O 0.38347 0.46091 0.52498 0.0
O37 O 0.24799 0.3085 0.49723 0.0
O38 O 0.38078 0.4135 0.54905 0.0
O39 O 0.24569 0.25342 0.53172 0.0
O40 O 0.31577 0.39186 0.49417 0.0
O41 O 0.22193 0.33257 0.56867 0.0
O42 O 0.29433 0.48075 0.53717 0.0
O43 O 0.16787 0.33642 0.51232 0.0
Sc44 Sc 0.85732 0.33351 0.67814 0.0
Sc45 Sc 0.8927 0.23879 0.69109 0.0
Sc46 Sc 0.929 0.35099 0.71804 0.0
O47 O 0.8932 0.30781 0.69568 0.0
C48 C 0.95651 0.44317 0.69072 0.0
C49 C 0.91721 0.29424 0.65219 0.0
C50 C 0.00813 0.31063 0.70688 0.0
C51 C 0.7809 0.2082 0.67567 0.0
C52 C 0.82203 0.35533 0.716 0.0
C53 C 0.86875 0.23287 0.73325 0.0
O54 O 0.91506 0.4158 0.68144 0.0
O55 O 0.91378 0.25933 0.66335 0.0
O56 O -0.00338 0.34159 0.71527 0.0
O57 O 0.7934 0.25565 0.67202 0.0
O58 O 0.86527 0.3651 0.72334 0.0
O59 O 0.86912 0.21158 0.71827 0.0
O60 O 0.81016 0.33958 0.69968 0.0
O61 O 0.81116 0.19618 0.68412 0.0
O62 O 0.88915 0.2827 0.73526 0.0
O63 O 0.90281 0.3282 0.65578 0.0
O64 O 0.9711 0.42372 0.7033 0.0
O65 O 0.97499 0.27198 0.69738 0.0
Sc66 Sc 0.54112 0.90289 0.88795 0.0
Sc67 Sc 0.64381 0.91099 0.86086 0.0
Sc68 Sc 0.52426 0.88598 0.84112 0.0
O69 O 0.57007 0.90028 0.86327 0.0
C70 C 0.44153 0.80781 0.86873 0.0
C71 C 0.59587 0.8336 0.89487 0.0
C72 C 0.5854 0.82478 0.83052 0.0
C73 C 0.66106 -0.00752 0.89206 0.0
C74 C 0.49536 0.95995 0.86517 0.0
C75 C 0.63573 0.979 0.82832 0.0
O76 O 0.46363 0.84005 0.88165 0.0
O77 O 0.63125 0.85704 0.88278 0.0
O78 O 0.55059 0.83797 0.82783 0.0
O79 O 0.61396 0.96677 0.89785 0.0
O80 O 0.49052 0.93175 0.85137 0.0
O81 O 0.66125 0.96502 0.83878 0.0
O82 O 0.52013 0.96024 0.87931 0.0
O83 O 0.67715 0.97872 0.87825 0.0
O84 O 0.58533 0.956 0.82785 0.0
O85 O 0.55947 0.84467 0.89805 0.0
O86 O 0.46155 0.8144 0.85301 0.0
O87 O 0.61982 0.84511 0.84291 0.0
Sc88 Sc 0.65103 0.52231 0.00741 0.0
Sc89 Sc 0.73831 0.65836 0.01667 0.0
Sc90 Sc 0.64538 0.57762 0.04906 0.0
O91 O 0.67827 0.58604 0.02431 0.0
C92 C 0.54405 0.50159 0.02641 0.0
C93 C 0.66066 0.6169 0.98281 0.0
C94 C 0.66568 0.69145 0.03926 0.0
C95 C 0.77308 0.58332 -0.00314 0.0
C96 C 0.65645 0.47444 0.04527 0.0
C97 C 0.7695 0.64823 0.0567 0.0
O98 O 0.56955 0.49192 0.01453 0.0
O99 O 0.69577 0.65362 0.99258 0.0
O100 O 0.63885 0.64698 0.04696 0.0
O101 O 0.72776 0.54218 -0.00235 0.0
O102 O 0.64867 0.50752 0.05397 0.0
O103 O 0.78319 0.6656 0.04065 0.0
O104 O 0.65932 0.47393 0.02806 0.0
O105 O 0.78266 0.62769 0.00323 0.0
O106 O 0.72155 0.61949 0.06159 0.0
O107 O 0.64108 0.56738 0.98591 0.0
O108 O 0.56611 0.53429 0.03921 0.0
O109 O 0.70416 0.70181 0.02877 0.0
Sc110 Sc 0.06552 0.64154 0.21513 0.0
Sc111 Sc 0.08369 0.74836 0.18776 0.0
Sc112 Sc 0.10431 0.64746 0.17002 0.0
O113 O 0.08421 0.67915 0.1909 0.0
C114 C 0.16258 0.62864 0.20236 0.0
C115 C 0.13964 0.76288 0.22592 0.0
C116 C 0.17965 0.77026 0.16229 0.0
C117 C -0.01481 0.68494 0.21392 0.0
C118 C 0.01359 0.54352 0.18957 0.0
C119 C 0.02928 0.68388 0.15162 0.0
O120 O 0.12712 0.62283 0.21354 0.0
O121 O 0.12928 0.78169 0.21197 0.0
O122 O 0.16472 0.72172 0.15985 0.0
O123 O 0.00104 0.65443 0.21979 0.0
O124 O 0.04686 0.56768 0.17705 0.0
O125 O 0.03997 0.72076 0.16303 0.0
O126 O 0.01093 0.56632 0.20383 0.0
O127 O 0.01028 0.72064 0.20215 0.0
O128 O 0.04687 0.65158 0.15273 0.0
O129 O 0.11951 0.7134 0.22881 0.0
O130 O 0.16395 0.643 0.18602 0.0
O131 O 0.15616 0.7862 0.17284 0.0
Sc132 Sc 0.84 0.51505 0.48995 0.0
Sc133 Sc 0.86462 0.6367 0.47161 0.0
Sc134 Sc 0.87672 0.54375 0.44461 0.0
O135 O 0.86063 0.56553 0.46873 0.0
C136 C 0.9263 0.49556 0.46995 0.0
C137 C 0.92318 0.6258 0.50665 0.0
C138 C 0.95948 0.66702 0.44428 0.0
C139 C 0.77018 0.56861 0.49822 0.0
C140 C 0.77751 0.43716 0.45883 0.0
C141 C 0.80519 0.59404 0.43391 0.0
O142 O 0.89197 0.48625 0.48212 0.0
O143 O 0.91106 0.65246 0.49591 0.0
O144 O 0.94166 0.62017 0.43851 0.0
O145 O 0.78478 0.53505 0.50137 0.0
O146 O 0.81415 0.46388 0.44756 0.0
O147 O 0.81812 0.62466 0.4476 0.0
O148 O 0.77622 0.45294 0.47478 0.0
O149 O 0.79262 0.60538 0.48669 0.0
O150 O 0.82254 0.56215 0.43112 0.0
O151 O 0.90271 0.57551 0.50581 0.0
O152 O 0.9316 0.52338 0.45607 0.0
O153 O 0.937 0.67894 0.45664 0.0
Sc154 Sc 0.33425 0.88344 0.60551 0.0
Sc155 Sc 0.24846 0.90932 0.63045 0.0
Sc156 Sc 0.32208 0.86027 0.65181 0.0
O157 O 0.30135 0.8844 0.62933 0.0
C158 C 0.32256 0.78048 0.62464 0.0
C159 C 0.21561 0.83538 0.59517 0.0
C160 C 0.19897 0.81506 0.6582 0.0
C161 C 0.32242 0.98528 0.60061 0.0
C162 C 0.43117 0.92865 0.63065 0.0
C163 C 0.31949 0.96138 0.66565 0.0
O164 O 0.34174 0.81618 0.61257 0.0
O165 O 0.20996 0.86626 0.60609 0.0
O166 O 0.24368 0.82169 0.66299 0.0
O167 O 0.33223 0.95047 0.59439 0.0
O168 O 0.4035 0.89664 0.64317 0.0
O169 O 0.28276 0.95449 0.65476 0.0
O170 O 0.41117 0.935 0.61624 0.0
O171 O 0.29884 0.98002 0.61555 0.0
O172 O 0.34103 0.93256 0.66561 0.0
O173 O 0.25745 0.83184 0.5944 0.0
O174 O 0.30373 0.78597 0.63944 0.0
O175 O 0.19315 0.84056 0.64533 0.0
Sc176 Sc 0.45679 0.35175 0.81645 0.0
Sc177 Sc 0.34251 0.25112 0.79533 0.0
Sc178 Sc 0.43616 0.35943 0.76986 0.0
O179 O 0.41184 0.32086 0.79392 0.0
C180 C 0.47164 0.45595 0.79674 0.0
C181 C 0.3384 0.31124 0.8305 0.0
C182 C 0.31377 0.31443 0.76639 0.0
C183 C 0.41163 0.22988 0.82393 0.0
C184 C 0.54366 0.37549 0.78639 0.0
C185 C 0.39266 0.23768 0.75917 0.0
O186 O 0.47294 0.43019 0.81038 0.0
O187 O 0.31602 0.27923 0.81745 0.0
O188 O 0.36108 0.3499 0.7633 0.0
O189 O 0.44731 0.27798 0.8255 0.0
O190 O 0.51441 0.37452 0.77359 0.0
O191 O 0.36505 0.21833 0.7734 0.0
O192 O 0.52862 0.36591 0.80281 0.0
O193 O 0.37167 0.21479 0.81378 0.0
O194 O 0.41824 0.28724 0.75577 0.0
O195 O 0.38858 0.33933 0.83218 0.0
O196 O 0.45735 0.43547 0.78115 0.0
O197 O 0.30154 0.27593 0.77711 0.0
Sc198 Sc 0.06338 0.41016 0.93698 0.0
Sc199 Sc 0.07169 0.32418 0.96805 0.0
Sc200 Sc 0.12256 0.45922 0.97942 0.0
O201 O 0.08604 0.39802 0.96156 0.0
C202 C 0.17946 0.50824 0.94183 0.0
C203 C 0.10863 0.33274 0.92759 0.0
C204 C 0.18062 0.39392 0.98827 0.0
C205 C 0.96624 0.29962 0.94686 0.0
C206 C 0.04215 0.48862 0.96078 0.0
C207 C 0.03688 0.36339 0.00309 0.0
O208 O 0.13986 0.47598 0.93251 0.0
O209 O 0.10771 0.31688 0.94365 0.0
O210 O 0.17704 0.43557 0.98871 0.0
O211 O -0.01487 0.34501 0.93965 0.0
O212 O 0.07316 0.49232 0.97338 0.0
O213 O 0.03532 0.32763 0.99274 0.0
O214 O 0.03399 0.45969 0.94698 0.0
O215 O -0.00611 0.28586 0.95624 0.0
O216 O 0.06693 0.41307 0.00053 0.0
O217 O 0.0902 0.36269 0.9233 0.0
O218 O 0.1801 0.50872 0.9591 0.0
O219 O 0.14665 0.35113 0.98086 0.0
Sc220 Sc 0.64276 0.1097 0.14895 0.0
Sc221 Sc 0.73763 0.08403 0.12985 0.0
Sc222 Sc 0.64175 0.08831 0.10275 0.0
O223 O 0.67408 0.09349 0.12727 0.0
C224 C 0.54074 0.03161 0.12559 0.0
C225 C 0.66504 0.02153 0.16393 0.0
C226 C 0.67605 0.00082 0.09937 0.0
C227 C 0.76514 0.17308 0.15874 0.0
C228 C 0.63389 0.18306 0.12072 0.0
C229 C 0.76369 0.15833 0.09503 0.0
O230 O 0.56359 0.0631 0.13873 0.0
O231 O 0.70497 0.03558 0.15361 0.0
O232 O 0.65641 0.0276 0.09297 0.0
O233 O 0.71703 0.15834 0.16197 0.0
O234 O 0.62125 0.14782 0.10865 0.0
O235 O 0.77604 0.13373 0.10657 0.0
O236 O 0.6514 0.18024 0.13615 0.0
O237 O 0.77956 0.1534 0.14615 0.0
O238 O 0.71649 0.14881 0.09268 0.0
O239 O 0.6344 0.04101 0.16293 0.0
O240 O 0.5656 0.02859 0.11193 0.0
O241 O 0.70234 0.0129 0.11395 0.0
Sc242 Sc 0.55917 0.63824 0.27099 0.0
Sc243 Sc 0.63758 0.73852 0.3018 0.0
Sc244 Sc 0.50772 0.64 0.31363 0.0
O245 O 0.56834 0.67238 0.29554 0.0
C246 C 0.4504 0.63665 0.27723 0.0
C247 C 0.61599 0.76221 0.2619 0.0
C248 C 0.55826 0.76172 0.32398 0.0
C249 C 0.67904 0.67492 0.27813 0.0
C250 C 0.49531 0.53603 0.29428 0.0
C251 C 0.6095 0.66233 0.33628 0.0
O252 O 0.48264 0.62854 0.26816 0.0
O253 O 0.6369 0.77846 0.27739 0.0
O254 O 0.52219 0.71364 0.3248 0.0
O255 O 0.63476 0.64434 0.27093 0.0
O256 O 0.48252 0.56001 0.3058 0.0
O257 O 0.64134 0.70131 0.32639 0.0
O258 O 0.5279 0.55986 0.28158 0.0
O259 O 0.68621 0.71126 0.2892 0.0
O260 O 0.55963 0.63512 0.33352 0.0
O261 O 0.58865 0.71338 0.25774 0.0
O262 O 0.45411 0.64452 0.29428 0.0
O263 O 0.60092 0.7773 0.31526 0.0
H264 H 0.19973 0.8713 0.22371 0.0
H265 H 0.16446 0.73826 0.25872 0.0
H266 H 0.25706 0.93225 0.24707 0.0
H267 H 0.2218 0.79929 0.28184 0.0
H268 H 0.24624 0.92817 0.32432 0.0
H269 H 0.20565 0.8649 0.29983 0.0
H270 H 0.34277 0.95825 0.26621 0.0
H271 H 0.38417 0.02225 0.29107 0.0
C272 C 0.20449 0.85502 0.23628 0.0
C273 C 0.1768 0.79997 0.23947 0.0
C274 C 0.23776 0.88989 0.24952 0.0
C275 C 0.24355 0.87024 0.26617 0.0
C276 C 0.21762 0.81526 0.2691 0.0
C277 C 0.18469 0.78044 0.25587 0.0
C278 C 0.26801 0.93503 0.31176 0.0
C279 C 0.31808 0.98017 0.30946 0.0
C280 C 0.24496 0.89861 0.29783 0.0
C281 C 0.27123 0.90684 0.28122 0.0
C282 C 0.32188 0.95134 0.27895 0.0
C283 C 0.34553 0.9876 0.29311 0.0
H284 H 0.21712 0.28416 0.46324 0.0
H285 H 0.38417 0.36617 0.47542 0.0
H286 H 0.23179 0.23937 0.43802 0.0
H287 H 0.39928 0.32107 0.44988 0.0
H288 H 0.37357 0.15809 0.4278 0.0
H289 H 0.37145 0.22447 0.44726 0.0
H290 H 0.27382 0.24666 0.40832 0.0
H291 H 0.27517 0.17955 0.38883 0.0
C292 C 0.25727 0.29356 0.46015 0.0
C293 C 0.29952 0.32801 0.47127 0.0
C294 C 0.26572 0.26819 0.44565 0.0
C295 C 0.31658 0.27638 0.44211 0.0
C296 C 0.35958 0.31377 0.45248 0.0
C297 C 0.35113 0.33982 0.46694 0.0
C298 C 0.35148 0.17692 0.42336 0.0
C299 C 0.32375 0.16278 0.40687 0.0
C300 C 0.35108 0.21565 0.43439 0.0
C301 C 0.32282 0.24096 0.42922 0.0
C302 C 0.29584 0.22762 0.41263 0.0
C303 C 0.2964 0.18899 0.40153 0.0
H304 H -0.01058 0.38174 0.6336 0.0
H305 H 0.90281 0.21037 0.63216 0.0
H306 H 0.04759 0.38243 0.60944 0.0
H307 H 0.96051 0.21102 0.60809 0.0
H308 H 0.06768 0.24161 0.55762 0.0
H309 H -0.00271 0.2416 0.57582 0.0
H310 H 0.11385 0.34901 0.61383 0.0
H311 H 0.18376 0.34896 0.59603 0.0
C312 C -0.01829 0.34445 0.62766 0.0
C313 C 0.94232 0.29604 0.63478 0.0
C314 C 0.0151 0.34476 0.614 0.0
C315 C 0.00882 0.2967 0.60718 0.0
C316 C 0.9661 0.24853 0.61311 0.0
C317 C 0.9333 0.24821 0.62689 0.0
C318 C 0.07817 0.26464 0.56998 0.0
C319 C 0.1314 0.2952 0.57535 0.0
C320 C 0.03798 0.26495 0.58028 0.0
C321 C 0.05051 0.29639 0.59591 0.0
C322 C 0.10336 0.3256 0.60154 0.0
C323 C 0.1433 0.32479 0.59145 0.0
H324 H 0.80603 0.12507 0.7326 0.0
H325 H 0.86044 0.26127 0.76795 0.0
H326 H 0.74704 0.06831 0.75631 0.0
H327 H 0.80111 0.20383 0.79167 0.0
H328 H 0.73547 0.06109 0.83324 0.0
H329 H 0.79249 0.12594 0.81075 0.0
H330 H 0.6642 0.05958 0.77223 0.0
H331 H 0.6068 -0.00548 0.79479 0.0
C332 C 0.8059 0.14289 0.74547 0.0
C333 C 0.83803 0.19778 0.74837 0.0
C334 C 0.77161 0.11042 0.75894 0.0
C335 C 0.76911 0.13201 0.77563 0.0
C336 C 0.80233 0.18643 0.77884 0.0
C337 C 0.83635 0.21914 0.76528 0.0
C338 C 0.71924 0.06083 0.82004 0.0
C339 C 0.66697 0.02255 0.81563 0.0
C340 C 0.75177 0.09806 0.80724 0.0
C341 C 0.73275 0.09715 0.78978 0.0
C342 C 0.67978 0.06049 0.7856 0.0
C343 C 0.64693 0.02366 0.7985 0.0
H344 H 0.67025 0.80211 0.89413 0.0
H345 H 0.5229 0.76821 0.91975 0.0
H346 H 0.67461 0.73656 0.9135 0.0
H347 H 0.52727 0.70238 0.93888 0.0
H348 H 0.61616 0.67724 0.98723 0.0
H349 H 0.59087 0.7191 0.96386 0.0
H350 H 0.63089 0.63907 0.9227 0.0
H351 H 0.65599 0.5964 0.94648 0.0
C352 C 0.63849 0.78031 0.90372 0.0
C353 C 0.59683 0.79129 0.90566 0.0
C354 C 0.64071 0.74231 0.91464 0.0
C355 C 0.60136 0.71462 0.9277 0.0
C356 C 0.55836 0.7236 0.92901 0.0
C357 C 0.55609 0.76153 0.91812 0.0
C358 C 0.61834 0.66771 0.97318 0.0
C359 C 0.63795 0.63397 0.96849 0.0
C360 C 0.60361 0.69135 0.95982 0.0
C361 C 0.60894 0.68228 0.94149 0.0
C362 C 0.62658 0.64669 0.93677 0.0
C363 C 0.64058 0.62217 0.95027 0.0
H364 H 0.01614 0.76246 0.13716 0.0
H365 H 0.96732 0.5962 0.1311 0.0
H366 H 0.95723 0.75529 0.11259 0.0
H367 H 0.9079 0.58918 0.10654 0.0
H368 H 0.75656 0.59114 0.08719 0.0
H369 H 0.82396 0.60002 0.10838 0.0
H370 H 0.94308 0.73213 0.07767 0.0
H371 H 0.8753 0.72303 0.05602 0.0
C372 C -0.00707 0.72443 0.13053 0.0
C373 C -0.00431 0.67964 0.13616 0.0
C374 C 0.95976 0.72059 0.11638 0.0
C375 C 0.92826 0.67175 0.10781 0.0
C376 C 0.93188 0.62722 0.11307 0.0
C377 C 0.96576 0.63124 0.12706 0.0
C378 C 0.797 0.62239 0.08493 0.0
C379 C 0.81061 0.65671 0.06998 0.0
C380 C 0.83559 0.62694 0.09697 0.0
C381 C 0.88848 0.66633 0.09448 0.0
C382 C 0.90235 0.70134 0.07975 0.0
C383 C 0.86369 0.69622 0.06745 0.0
H384 H 0.12317 0.83674 0.59113 0.0
H385 H 0.20797 0.75976 0.57125 0.0
H386 H 0.05093 0.78401 0.57048 0.0
H387 H 0.13557 0.70749 0.5504 0.0
H388 H 0.96888 0.73091 0.51535 0.0
H389 H 0.03889 0.77985 0.53719 0.0
H390 H 0.04022 0.63615 0.55113 0.0
H391 H 0.9705 0.5869 0.52909 0.0
C392 C 0.1265 0.80863 0.58237 0.0
C393 C 0.17154 0.80269 0.58278 0.0
C394 C 0.08516 0.77862 0.5705 0.0
C395 C 0.08786 0.74192 0.55884 0.0
C396 C 0.13239 0.73526 0.55939 0.0
C397 C 0.17393 0.76545 0.57123 0.0
C398 C -0.0161 0.70959 0.52308 0.0
C399 C 0.96409 0.65498 0.52046 0.0
C400 C 0.0238 0.73763 0.53565 0.0
C401 C 0.04484 0.7117 0.54581 0.0
C402 C 0.02494 0.65711 0.54332 0.0
C403 C -0.0152 0.62893 0.5308 0.0
H404 H 0.30187 0.04516 0.66514 0.0
H405 H 0.37881 0.97643 0.69604 0.0
H406 H 0.32884 0.11526 0.68758 0.0
H407 H 0.40583 0.047 0.7185 0.0
H408 H 0.36305 0.13342 0.764 0.0
H409 H 0.35331 0.06944 0.74086 0.0
H410 H 0.41202 0.19332 0.70048 0.0
H411 H 0.42174 0.25764 0.7236 0.0
C412 C 0.32472 0.04511 0.67667 0.0
C413 C 0.3378 0.00498 0.6789 0.0
C414 C 0.34059 0.08557 0.68941 0.0
C415 C 0.36945 0.08645 0.7047 0.0
C416 C 0.38338 0.04695 0.70683 0.0
C417 C 0.36799 0.00672 0.69397 0.0
C418 C 0.37445 0.1472 0.75023 0.0
C419 C 0.39259 0.20045 0.74558 0.0
C420 C 0.36925 0.11063 0.73703 0.0
C421 C 0.38166 0.12654 0.71893 0.0
C422 C 0.40178 0.18011 0.71436 0.0
C423 C 0.40753 0.21686 0.7276 0.0
H424 H 0.18182 0.30076 0.93202 0.0
H425 H 0.10015 0.33913 0.89116 0.0
H426 H 0.23707 0.29342 0.90852 0.0
H427 H 0.15557 0.3324 0.86789 0.0
H428 H 0.23107 0.26707 0.82957 0.0
H429 H 0.17306 0.26597 0.8534 0.0
H430 H 0.30853 0.35889 0.88755 0.0
H431 H 0.36716 0.35951 0.86373 0.0
C432 C 0.17506 0.30673 0.91803 0.0
C433 C 0.13673 0.32062 0.91343 0.0
C434 C 0.20706 0.30314 0.90464 0.0
C435 C 0.2008 0.31279 0.88645 0.0
C436 C 0.16103 0.32447 0.8818 0.0
C437 C 0.12941 0.32845 0.89515 0.0
C438 C 0.24873 0.2874 0.84213 0.0
C439 C 0.30387 0.31352 0.84472 0.0
C440 C 0.21539 0.28677 0.85576 0.0
C441 C 0.23633 0.31215 0.8723 0.0
C442 C 0.29138 0.3384 0.87497 0.0
C443 C 0.32492 0.33925 0.86127 0.0
H444 H 0.87047 0.19518 0.09662 0.0
H445 H 0.75253 0.21575 0.06792 0.0
H446 H 0.9385 0.25763 0.07594 0.0
H447 H 0.82068 0.27798 0.04744 0.0
H448 H 0.93467 0.28907 0.00042 0.0
H449 H 0.86975 0.25058 0.0246 0.0
H450 H -0.0142 0.35657 0.06309 0.0
H451 H 0.0514 0.39629 0.03847 0.0
C452 C 0.85912 0.2134 0.08608 0.0
C453 C 0.80585 0.19951 0.08366 0.0
C454 C 0.89819 0.24962 0.07442 0.0
C455 C 0.88454 0.27224 0.06015 0.0
C456 C 0.83195 0.26072 0.05834 0.0
C457 C 0.79299 0.22484 0.07001 0.0
C458 C 0.94613 0.30465 0.01401 0.0
C459 C -0.00216 0.34516 0.01774 0.0
C460 C 0.90893 0.28298 0.02779 0.0
C461 C 0.92293 0.30084 0.04562 0.0
C462 C 0.97434 0.34238 0.04937 0.0
C463 C 0.01157 0.36504 0.0354 0.0
H464 H 0.5515 0.74659 0.23325 0.0
H465 H 0.69363 0.86629 0.2596 0.0
H466 H 0.56181 0.81053 0.21 0.0
H467 H 0.70392 0.93019 0.23614 0.0
H468 H 0.73569 -0.00523 0.17713 0.0
H469 H 0.72258 0.93354 0.20165 0.0
H470 H 0.56141 0.89988 0.20808 0.0
H471 H 0.57434 0.96166 0.1835 0.0
C472 C 0.58498 0.78654 0.23405 0.0
C473 C 0.6221 0.80144 0.24813 0.0
C474 C 0.59052 0.82312 0.22085 0.0
C475 C 0.63362 0.87498 0.22135 0.0
C476 C 0.67051 0.89017 0.23548 0.0
C477 C 0.66455 0.85377 0.24888 0.0
C478 C 0.69733 0.97422 0.18369 0.0
C479 C 0.65594 0.98289 0.17835 0.0
C480 C 0.6901 0.93961 0.19782 0.0
C481 C 0.64119 0.9125 0.20673 0.0
C482 C 0.59949 0.92047 0.20133 0.0
C483 C 0.60693 0.95577 0.18732 0.0
H484 H 0.74119 0.63756 0.43774 0.0
H485 H 0.7879 0.55576 0.3994 0.0
H486 H 0.68711 0.64715 0.41442 0.0
H487 H 0.73412 0.56578 0.37624 0.0
H488 H 0.70914 0.67815 0.33764 0.0
H489 H 0.74998 0.65454 0.36181 0.0
H490 H 0.60472 0.58821 0.3926 0.0
H491 H 0.56293 0.6114 0.36808 0.0
C492 C 0.73964 0.62132 0.42441 0.0
C493 C 0.76937 0.59651 0.42034 0.0
C494 C 0.70832 0.62638 0.41117 0.0
C495 C 0.7068 0.60733 0.39361 0.0
C496 C 0.73499 0.58098 0.3897 0.0
C497 C 0.76571 0.57529 0.40296 0.0
C498 C 0.68574 0.65853 0.34954 0.0
C499 C 0.63293 0.64688 0.35105 0.0
C500 C 0.70904 0.64463 0.36328 0.0
C501 C 0.68031 0.61942 0.37894 0.0
C502 C 0.6275 0.60769 0.38058 0.0
C503 C 0.6037 0.62078 0.3666 0.0
H504 H 0.5036 0.7466 0.35522 0.0
H505 H 0.59435 0.8647 0.31475 0.0
H506 H 0.48473 0.80952 0.37059 0.0
H507 H 0.57313 0.92676 0.32941 0.0
H508 H 0.39637 0.90498 0.37338 0.0
H509 H 0.42977 0.84558 0.36551 0.0
H510 H 0.58378 0.98133 0.35413 0.0
H511 H 0.54895 0.04021 0.36092 0.0
C512 C 0.51935 0.78611 0.34962 0.0
C513 C 0.54987 0.80087 0.33373 0.0
C514 C 0.50848 0.82206 0.35838 0.0
C515 C 0.52698 0.87305 0.35118 0.0
C516 C 0.55898 0.88818 0.33555 0.0
C517 C 0.5708 0.85256 0.32702 0.0
C518 C 0.43758 0.92183 0.36953 0.0
C519 C 0.47001 0.97673 0.36743 0.0
C520 C 0.45692 0.88796 0.3651 0.0
C521 C 0.50932 0.90872 0.35887 0.0
C522 C 0.54285 0.96403 0.35833 0.0
C523 C 0.52313 -0.00227 0.36234 0.0
H524 H 0.47434 0.55051 0.5282 0.0
H525 H 0.46688 0.40473 0.54517 0.0
H526 H 0.56949 0.59099 0.52354 0.0
H527 H 0.56132 0.44371 0.53949 0.0
H528 H 0.73363 0.52395 0.53126 0.0
H529 H 0.65067 0.50532 0.54559 0.0
H530 H 0.61788 0.57923 0.50043 0.0
H531 H 0.7017 0.60006 0.48672 0.0
C532 C 0.49336 0.52736 0.53102 0.0
C533 C 0.46366 0.47442 0.53672 0.0
C534 C 0.54766 0.55037 0.52831 0.0
C535 C 0.57283 0.52029 0.53079 0.0
C536 C 0.5434 0.46827 0.53762 0.0
C537 C 0.48924 0.44569 0.54074 0.0
C538 C 0.70889 0.53688 0.52461 0.0
C539 C 0.72347 0.56276 0.5078 0.0
C540 C 0.66143 0.52615 0.53278 0.0
C541 C 0.62735 0.54022 0.52408 0.0
C542 C 0.64346 0.56853 0.50769 0.0
C543 C 0.69132 0.58011 0.49971 0.0
H544 H 0.10575 0.7502 0.64154 0.0
H545 H 0.18747 0.77764 0.69252 0.0
H546 H 0.04022 0.66175 0.65149 0.0
H547 H 0.12034 0.68998 0.70295 0.0
H548 H 0.05938 0.51119 0.69953 0.0
H549 H 0.10939 0.60636 0.69434 0.0
H550 H 0.97112 0.60063 0.67051 0.0
H551 H 0.92179 0.50492 0.67501 0.0
C552 C 0.10832 0.73808 0.65518 0.0
C553 C 0.15199 0.77002 0.66617 0.0
C554 C 0.07074 0.68735 0.66092 0.0
C555 C 0.07596 0.66836 0.67784 0.0
C556 C 0.11633 0.70292 0.68961 0.0
C557 C 0.15441 0.7532 0.68373 0.0
C558 C 0.03974 0.53032 0.69319 0.0
C559 C -0.01299 0.50067 0.68747 0.0
C560 C 0.0681 0.58497 0.69043 0.0
C561 C 0.04404 0.61118 0.68215 0.0
C562 C -0.00908 0.58155 0.67675 0.0
C563 C 0.96277 0.52675 0.67927 0.0
H564 H 0.49998 0.24165 0.84074 0.0
H565 H 0.33483 0.12815 0.83123 0.0
H566 H 0.51071 0.17346 0.85585 0.0
H567 H 0.34532 0.06022 0.84688 0.0
H568 H 0.4198 0.95134 0.84191 0.0
H569 H 0.39154 0.01546 0.83656 0.0
H570 H 0.48878 0.111 0.88097 0.0
H571 H 0.5185 0.04678 0.8861 0.0
C572 C 0.46573 0.20237 0.84217 0.0
C573 C 0.41687 0.18983 0.83444 0.0
C574 C 0.47173 0.16348 0.85104 0.0
C575 C 0.42888 0.11151 0.85245 0.0
C576 C 0.37917 0.09985 0.84574 0.0
C577 C 0.37327 0.13862 0.83671 0.0
C578 C 0.43474 0.98565 0.85071 0.0
C579 C 0.47236 -0.00519 0.86414 0.0
C580 C 0.41791 0.02207 0.8478 0.0
C581 C 0.43826 0.0684 0.85828 0.0
C582 C 0.47301 0.07581 0.87258 0.0
C583 C 0.48987 0.0391 0.87553 0.0
H584 H 0.24603 0.36233 0.97387 0.0
H585 H 0.21814 0.4302 0.02167 0.0
H586 H 0.33067 0.37946 0.98612 0.0
H587 H 0.30063 0.44368 0.03475 0.0
H588 H 0.48138 0.54166 0.03629 0.0
H589 H 0.38831 0.50526 0.02963 0.0
H590 H 0.3828 0.36542 0.00662 0.0
H591 H 0.47735 0.40406 0.01231 0.0
C592 C 0.25758 0.37947 0.98726 0.0
C593 C 0.22672 0.39597 -0.00323 0.0
C594 C 0.30577 0.38891 0.99439 0.0
C595 C 0.32299 0.41379 0.01135 0.0
C596 C 0.28948 0.42607 0.02143 0.0
C597 C 0.24219 0.41811 0.01404 0.0
C598 C 0.46002 0.50283 0.03004 0.0
C599 C 0.4864 0.4759 0.02458 0.0
C600 C 0.40644 0.48158 0.02634 0.0
C601 C 0.37786 0.43234 0.01748 0.0
C602 C 0.40381 0.40395 0.01306 0.0
C603 C 0.4578 0.42587 0.01639 0.0
H604 H 0.00097 0.48306 0.15992 0.0
H605 H 0.9495 0.47349 0.21547 0.0
H606 H 0.94702 0.3877 0.15714 0.0
H607 H 0.89577 0.37714 0.21266 0.0
H608 H 0.74969 0.23186 0.18428 0.0
H609 H 0.81529 0.3184 0.19543 0.0
H610 H 0.93846 0.30373 0.16791 0.0
H611 H 0.87258 0.2174 0.15624 0.0
C612 C 0.97841 0.46057 0.17159 0.0
C613 C 0.97917 0.48583 0.18787 0.0
C614 C 0.9481 0.40581 0.17007 0.0
C615 C 0.918 0.3751 0.1848 0.0
C616 C 0.91883 0.4001 0.20114 0.0
C617 C 0.94922 0.45513 0.20267 0.0
C618 C 0.79087 0.24645 0.1809 0.0
C619 C 0.80581 0.21872 0.16886 0.0
C620 C 0.82851 0.29587 0.18746 0.0
C621 C 0.8816 0.31803 0.18216 0.0
C622 C 0.89741 0.28777 0.17181 0.0
C623 C 0.85973 0.23844 0.16515 0.0
H624 H 0.92162 0.42958 0.49687 0.0
H625 H 0.00813 0.50811 0.44819 0.0
H626 H 0.9807 0.3949 0.50192 0.0
H627 H 0.06696 0.47203 0.45318 0.0
H628 H 0.20034 0.47169 0.48801 0.0
H629 H 0.13498 0.49206 0.47625 0.0
H630 H 0.0101 0.33458 0.49049 0.0
H631 H 0.07561 0.31419 0.50275 0.0
C632 C 0.95296 0.43906 0.48711 0.0
C633 C 0.96073 0.47233 0.47225 0.0
C634 C -0.01365 0.4185 0.48992 0.0
C635 C 0.02822 0.4307 0.47792 0.0
C636 C 0.03505 0.4624 0.4627 0.0
C637 C 0.0015 0.48307 0.45985 0.0
C638 C 0.15898 0.44107 0.48853 0.0
C639 C 0.14302 0.39157 0.49663 0.0
C640 C 0.12165 0.45266 0.48157 0.0
C641 C 0.0676 0.41495 0.48252 0.0
C642 C 0.05165 0.36453 0.48979 0.0
C643 C 0.08907 0.35287 0.49681 0.0
H644 H 0.48869 0.92014 0.65803 0.0
H645 H 0.50199 0.01543 0.6112 0.0
H646 H 0.57669 0.98643 0.66747 0.0
H647 H 0.5913 0.08132 0.62048 0.0
H648 H 0.70078 0.21576 0.65947 0.0
H649 H 0.62104 0.14431 0.64588 0.0
H650 H 0.67048 0.03182 0.6609 0.0
H651 H 0.74945 0.10275 0.67493 0.0
C652 C 0.51085 0.95469 0.64952 0.0
C653 C 0.48801 0.96315 0.63407 0.0
C654 C 0.56148 -0.00749 0.65489 0.0
C655 C 0.59034 0.03929 0.64484 0.0
C656 C 0.56924 0.04595 0.62864 0.0
C657 C 0.51838 0.00807 0.62326 0.0
C658 C 0.69453 0.17577 0.65994 0.0
C659 C 0.73116 0.16484 0.66839 0.0
C660 C 0.64927 0.13502 0.65194 0.0
C661 C 0.64001 0.08274 0.65219 0.0
C662 C 0.6766 0.07179 0.66062 0.0
C663 C 0.72167 0.11242 0.66871 0.0
H664 H 0.64637 0.77799 0.83397 0.0
H665 H 0.51547 0.76934 0.80355 0.0
H666 H 0.62615 0.69183 0.82201 0.0
H667 H 0.49494 0.68287 0.79198 0.0
H668 H 0.4825 0.52859 0.77088 0.0
H669 H 0.52165 0.62455 0.77486 0.0
H670 H 0.54547 0.60782 0.83159 0.0
H671 H 0.50708 0.51306 0.82779 0.0
C672 C 0.61408 0.75838 0.82445 0.0
C673 C 0.58148 0.77966 0.82015 0.0
C674 C 0.60253 0.70909 0.81763 0.0
C675 C 0.55828 0.68046 0.80646 0.0
C676 C 0.5292 0.70418 0.80061 0.0
C677 C 0.54077 0.75353 0.80739 0.0
C678 C 0.49602 0.54548 0.7842 0.0
C679 C 0.49167 0.51319 0.79902 0.0
C680 C 0.51863 0.60028 0.78641 0.0
C681 C 0.5375 0.62343 0.80342 0.0
C682 C 0.53262 0.59111 0.81821 0.0
C683 C 0.50991 0.53664 0.81605 0.0
H684 H 0.8792 0.65574 -0.00245 0.0
H685 H 0.7652 0.50074 0.97698 0.0
H686 H 0.95108 0.64445 0.98544 0.0
H687 H 0.83674 0.48947 0.96521 0.0
H688 H 0.96985 0.48887 0.9373 0.0
H689 H 0.90988 0.52298 0.94295 0.0
H690 H -0.01552 0.58406 0.99465 0.0
H691 H 0.04505 0.55093 0.98898 0.0
C692 C 0.86944 0.61959 0.9903 0.0
C693 C 0.81656 0.57883 0.98841 0.0
C694 C 0.91056 0.61318 0.9834 0.0
C695 C 0.89939 0.56616 0.9744 0.0
C696 C 0.84649 0.52648 0.97186 0.0
C697 C 0.80551 0.5327 0.97881 0.0
C698 C 0.97414 0.5104 0.94974 0.0
C699 C 0.01148 0.51619 0.96287 0.0
C700 C 0.93978 0.52987 0.95295 0.0
C701 C 0.94219 0.55549 0.96932 0.0
C702 C -0.01803 0.56472 0.98186 0.0
C703 C 0.01636 0.54528 0.97866 0.0
H704 H 0.47449 0.03893 0.14975 0.0
H705 H 0.47637 0.94823 0.10354 0.0
H706 H 0.38122 0.97803 0.1539 0.0
H707 H 0.3815 0.88741 0.1075 0.0
H708 H 0.25352 0.75465 0.14512 0.0
H709 H 0.33539 0.8215 0.13128 0.0
H710 H 0.29225 0.94129 0.14232 0.0
H711 H 0.21077 0.87455 0.15673 0.0
C712 C 0.4548 0.00636 0.14029 0.0
C713 C 0.48299 -0.0024 0.12656 0.0
C714 C 0.40103 0.97188 0.14251 0.0
C715 C 0.37421 0.92799 0.13103 0.0
C716 C 0.40157 0.92082 0.11662 0.0
C717 C 0.4557 0.95551 0.11437 0.0
C718 C 0.26115 0.79512 0.1444 0.0
C719 C 0.22651 0.80975 0.1524 0.0
C720 C 0.30773 0.83327 0.13625 0.0
C721 C 0.3202 0.88655 0.13585 0.0
C722 C 0.2838 0.90051 0.14272 0.0
C723 C 0.23743 0.86245 0.15104 0.0
H724 H 0.51655 0.4695 0.27415 0.0
H725 H 0.42049 0.47161 0.31858 0.0
H726 H 0.48275 0.375 0.27933 0.0
H727 H 0.38805 0.37825 0.32389 0.0
H728 H 0.31816 0.20483 0.32634 0.0
H729 H 0.33629 0.28792 0.31218 0.0
H730 H 0.49963 0.32975 0.30433 0.0
H731 H 0.48157 0.24656 0.31803 0.0
C732 C 0.48795 0.4498 0.28489 0.0
C733 C 0.47189 0.4782 0.29615 0.0
C734 C 0.46866 0.39582 0.28782 0.0
C735 C 0.433 0.36951 0.30204 0.0
C736 C 0.41496 0.39732 0.31268 0.0
C737 C 0.43414 0.45107 0.30976 0.0
C738 C 0.35777 0.23143 0.32138 0.0
C739 C 0.3987 0.21963 0.32363 0.0
C740 C 0.36805 0.27888 0.31326 0.0
C741 C 0.4194 0.3153 0.30731 0.0
C742 C 0.45953 0.30213 0.30861 0.0
C743 C 0.44927 0.25469 0.31667 0.0
H744 H 0.02873 0.65711 0.422 0.0
H745 H -0.00565 0.77324 0.44548 0.0
H746 H 0.10018 0.72688 0.40432 0.0
H747 H 0.06612 0.84282 0.42783 0.0
H748 H 0.15828 0.94162 0.37952 0.0
H749 H 0.08386 0.86541 0.39409 0.0
H750 H 0.18834 0.80848 0.41134 0.0
H751 H 0.26256 0.88411 0.39676 0.0
C752 C 0.03664 0.69753 0.42348 0.0
C753 C 0.00591 0.70977 0.43509 0.0
C754 C 0.07742 0.73728 0.41336 0.0
C755 C 0.08782 0.78975 0.41459 0.0
C756 C 0.05797 0.8023 0.42645 0.0
C757 C 0.01745 0.76264 0.43669 0.0
C758 C 0.16506 0.91222 0.3861 0.0
C759 C 0.21613 0.91894 0.38723 0.0
C760 C 0.12271 0.86905 0.39454 0.0
C761 C 0.13089 0.83185 0.40398 0.0
C762 C 0.18123 0.83676 0.40412 0.0
C763 C 0.2236 0.88008 0.39585 0.0
H764 H 0.22692 0.15464 0.53577 0.0
H765 H 0.37692 0.28124 0.55527 0.0
H766 H 0.25155 0.08953 0.54587 0.0
H767 H 0.40098 0.21641 0.56533 0.0
H768 H 0.34464 0.08356 0.61136 0.0
H769 H 0.3472 0.15327 0.59232 0.0
H770 H 0.32368 0.05733 0.54483 0.0
H771 H 0.32215 0.98766 0.56387 0.0
C772 C 0.26561 0.16852 0.54169 0.0
C773 C 0.29929 0.2226 0.5453 0.0
C774 C 0.27982 0.13145 0.54735 0.0
C775 C 0.32776 0.14839 0.55657 0.0
C776 C 0.3636 0.20268 0.55843 0.0
C777 C 0.34954 0.23953 0.5528 0.0
C778 C 0.34132 0.07796 0.59683 0.0
C779 C 0.33294 0.03042 0.58906 0.0
C780 C 0.3431 0.1178 0.58594 0.0
C781 C 0.33561 0.11024 0.56718 0.0
C782 C 0.32962 0.06375 0.55927 0.0
C783 C 0.32897 0.02425 0.57015 0.0
H784 H 0.20921 0.2387 0.76466 0.0
H785 H 0.32361 0.3942 0.74437 0.0
H786 H 0.14099 0.24036 0.74619 0.0
H787 H 0.25532 0.39517 0.72576 0.0
H788 H 0.09521 0.39712 0.72036 0.0
H789 H 0.17374 0.39948 0.73254 0.0
H790 H 0.11805 0.23982 0.71329 0.0
H791 H 0.03877 0.23693 0.70125 0.0
C792 C 0.21981 0.27319 0.7563 0.0
C793 C 0.27172 0.31638 0.75603 0.0
C794 C 0.18096 0.27378 0.74554 0.0
C795 C 0.19331 0.31761 0.73442 0.0
C796 C 0.24499 0.36093 0.73422 0.0
C797 C 0.28392 0.36031 0.74492 0.0
C798 C 0.1002 0.3629 0.71838 0.0
C799 C 0.06042 0.31642 0.71021 0.0
C800 C 0.14529 0.36441 0.72527 0.0
C801 C 0.15119 0.31945 0.72411 0.0
C802 C 0.11367 0.2746 0.7146 0.0
C803 C 0.06862 0.27316 0.70761 0.0
H804 H 0.74879 0.07693 0.87818 0.0
H805 H 0.65754 0.01723 0.92745 0.0
H806 H 0.81314 0.1562 0.8942 0.0
H807 H 0.72278 0.09688 0.94355 0.0
H808 H 0.90026 0.30839 0.92275 0.0
H809 H 0.81676 0.2367 0.9114 0.0
H810 H 0.82374 0.12897 0.95 0.0
H811 H 0.90752 0.20047 0.96149 0.0
C812 C 0.74245 0.08091 0.89241 0.0
C813 C 0.6986 0.04093 0.90165 0.0
C814 C 0.77884 0.12646 0.9015 0.0
C815 C 0.77232 0.13243 0.92 0.0
C816 C 0.72818 0.09293 0.92924 0.0
C817 C 0.69115 0.04761 0.92005 0.0
C818 C 0.88354 0.26979 0.92914 0.0
C819 C 0.91116 0.25963 0.94268 0.0
C820 C 0.83576 0.22893 0.92264 0.0
C821 C 0.81467 0.1776 0.92972 0.0
C822 C 0.83947 0.16846 0.9444 0.0
C823 C 0.88757 0.20924 0.95083 0.0
H824 H 0.6795 0.915 0.11238 0.0
H825 H 0.6545 0.98114 0.06347 0.0
H826 H 0.66705 0.83763 0.09534 0.0
H827 H 0.64261 0.90375 0.04645 0.0
H828 H 0.71445 0.79363 0.02656 0.0
H829 H 0.70911 0.86792 0.03976 0.0
H830 H 0.58886 0.76081 0.07696 0.0
H831 H 0.59344 0.68644 0.06386 0.0
C832 C 0.67131 0.91294 0.09802 0.0
C833 C 0.66804 0.95394 0.08923 0.0
C834 C 0.66374 0.86861 0.08834 0.0
C835 C 0.65354 0.86502 0.06969 0.0
C836 C 0.65031 0.9059 0.06085 0.0
C837 C 0.65702 0.94989 0.07059 0.0
C838 C 0.68602 0.78571 0.03727 0.0
C839 C 0.65528 0.73437 0.04444 0.0
C840 C 0.68287 0.82815 0.04474 0.0
C841 C 0.64922 0.8197 0.0595 0.0
C842 C 0.61559 0.76803 0.06573 0.0
C843 C 0.61829 0.7256 0.05818 0.0
H844 H 0.78341 0.75041 0.28077 0.0
H845 H 0.67796 0.59283 0.26006 0.0
H846 H 0.85723 0.7511 0.26483 0.0
H847 H 0.7515 0.59412 0.244 0.0
H848 H 0.95319 0.75884 0.21435 0.0
H849 H 0.87907 0.75408 0.23148 0.0
H850 H 0.83655 0.59656 0.24982 0.0
H851 H 0.90961 0.60069 0.23259 0.0
C852 C 0.77618 0.71562 0.27311 0.0
C853 C 0.72493 0.67176 0.27151 0.0
C854 C 0.81821 0.71634 0.26383 0.0
C855 C 0.80957 0.67306 0.253 0.0
C856 C 0.75903 0.628 0.25226 0.0
C857 C 0.71703 0.62734 0.26144 0.0
C858 C 0.92752 0.72297 0.22183 0.0
C859 C 0.93728 0.68031 0.22224 0.0
C860 C 0.88566 0.72053 0.23178 0.0
C861 C 0.85287 0.67526 0.24212 0.0
C862 C 0.86139 0.63187 0.24195 0.0
C863 C 0.90325 0.63438 0.23212 0.0
H864 H 0.67318 0.40468 0.46295 0.0
H865 H 0.78224 0.3641 0.43777 0.0
H866 H 0.6018 0.33938 0.44395 0.0
H867 H 0.71096 0.29782 0.41918 0.0
H868 H 0.59138 0.23418 0.37373 0.0
H869 H 0.6597 0.30096 0.39348 0.0
H870 H 0.54884 0.24596 0.43814 0.0
H871 H 0.48099 0.18163 0.41856 0.0
C872 C 0.68122 0.38027 0.45384 0.0
C873 C 0.73269 0.3889 0.45174 0.0
C874 C 0.64072 0.34341 0.44285 0.0
C875 C 0.65132 0.31454 0.42982 0.0
C876 C 0.70213 0.32071 0.42872 0.0
C877 C 0.74256 0.35779 0.43955 0.0
C878 C 0.58173 0.23715 0.38768 0.0
C879 C 0.53143 0.20224 0.39469 0.0
C880 C 0.62072 0.27478 0.39902 0.0
C881 C 0.60959 0.27791 0.4174 0.0
C882 C 0.55854 0.2446 0.42407 0.0
C883 C 0.51987 0.20736 0.41283 0.0
H884 H 0.39927 0.76873 0.60905 0.0
H885 H 0.23848 0.68044 0.62879 0.0
H886 H 0.38721 0.69094 0.59256 0.0
H887 H 0.22617 0.6019 0.61207 0.0
H888 H 0.25695 0.46709 0.58863 0.0
H889 H 0.26211 0.53649 0.60854 0.0
H890 H 0.32794 0.64954 0.56475 0.0
H891 H 0.32325 0.58019 0.54477 0.0
C892 C 0.36183 0.73202 0.61024 0.0
C893 C 0.31962 0.73024 0.61999 0.0
C894 C 0.35475 0.68791 0.60065 0.0
C895 C 0.30532 0.64136 0.60065 0.0
C896 C 0.26448 0.63779 0.61179 0.0
C897 C 0.27163 0.68227 0.62147 0.0
C898 C 0.27211 0.50672 0.58321 0.0
C899 C 0.29066 0.51874 0.56526 0.0
C900 C 0.27472 0.54614 0.59458 0.0
C901 C 0.29631 0.59818 0.58821 0.0
C902 C 0.31205 0.60962 0.57 0.0
C903 C 0.30899 0.57005 0.55855 0.0
H904 H 0.60865 0.44777 0.76224 0.0
H905 H 0.59451 0.32316 0.79764 0.0
H906 H 0.68084 0.44636 0.74607 0.0
H907 H 0.66708 0.32151 0.78131 0.0
H908 H 0.82376 0.36258 0.75267 0.0
H909 H 0.76366 0.37498 0.77219 0.0
H910 H 0.6742 0.37355 0.72547 0.0
H911 H 0.73488 0.36159 0.70568 0.0
C912 C 0.6222 0.42116 0.76686 0.0
C913 C 0.59607 0.3852 0.78101 0.0
C914 C 0.66297 0.41998 0.7575 0.0
C915 C 0.67827 0.38287 0.76217 0.0
C916 C 0.65562 0.35032 0.77744 0.0
C917 C 0.61457 0.35152 0.78687 0.0
C918 C 0.79145 0.36517 0.74647 0.0
C919 C 0.78424 0.36156 0.72756 0.0
C920 C 0.75698 0.37196 0.75772 0.0
C921 C 0.71484 0.37566 0.75031 0.0
C922 C 0.70713 0.37163 0.73145 0.0
C923 C 0.74148 0.3644 0.72015 0.0
H924 H 0.35608 0.79722 0.88631 0.0
H925 H 0.42492 0.7082 0.86378 0.0
H926 H 0.29542 0.72056 0.90435 0.0
H927 H 0.36478 0.6313 0.88216 0.0
H928 H 0.21023 0.49533 0.90861 0.0
H929 H 0.27127 0.56483 0.88829 0.0
H930 H 0.3129 0.68013 0.93116 0.0
H931 H 0.25046 0.61038 0.95148 0.0
C932 C 0.35675 0.76043 0.88479 0.0
C933 C 0.39458 0.75806 0.87369 0.0
C934 C 0.32297 0.71707 0.89536 0.0
C935 C 0.32683 0.67083 0.89507 0.0
C936 C 0.36141 0.66676 0.88271 0.0
C937 C 0.39517 0.71029 0.87201 0.0
C938 C 0.23308 0.53546 0.91378 0.0
C939 C 0.22508 0.54794 0.93148 0.0
C940 C 0.26808 0.57509 0.90215 0.0
C941 C 0.29562 0.62785 0.90804 0.0
C942 C 0.29089 0.63973 0.92619 0.0
C943 C 0.25586 0.59991 0.93789 0.0
H944 H 0.71258 0.28529 0.12481 0.0
H945 H 0.55644 0.18739 0.10251 0.0
H946 H 0.7238 0.35977 0.10608 0.0
H947 H 0.56704 0.26154 0.08408 0.0
H948 H 0.62876 0.37226 0.03637 0.0
H949 H 0.62411 0.30438 0.05714 0.0
H950 H 0.68987 0.42115 0.09985 0.0
H951 H 0.69555 0.4887 0.07916 0.0
C952 C 0.67991 0.28056 0.1165 0.0
C953 C 0.63371 0.23105 0.115 0.0
C954 C 0.68652 0.32277 0.10563 0.0
C955 C 0.64686 0.31564 0.09326 0.0
C956 C 0.59884 0.26745 0.09308 0.0
C957 C 0.59237 0.22546 0.10384 0.0
C958 C 0.64318 0.38342 0.05007 0.0
C959 C 0.66165 0.43526 0.05626 0.0
C960 C 0.63999 0.34467 0.062 0.0
C961 C 0.65558 0.35752 0.08019 0.0
C962 C 0.67739 0.41017 0.08596 0.0
C963 C 0.68035 0.44866 0.07412 0.0
H964 H 0.35306 0.62067 0.28842 0.0
H965 H 0.45582 0.65992 0.24175 0.0
H966 H 0.28392 0.61866 0.26894 0.0
H967 H 0.38724 0.65594 0.22256 0.0
H968 H 0.26773 0.6941 0.19654 0.0
H969 H 0.33903 0.70041 0.21562 0.0
H970 H 0.22624 0.56042 0.24496 0.0
H971 H 0.15515 0.55527 0.22623 0.0
C972 C 0.3609 0.62905 0.27412 0.0
C973 C 0.40931 0.63945 0.26658 0.0
C974 C 0.3214 0.62746 0.26295 0.0
C975 C 0.33016 0.63655 0.24419 0.0
C976 C 0.37936 0.64905 0.23692 0.0
C977 C 0.41847 0.65071 0.24797 0.0
C978 C 0.25871 0.66389 0.2067 0.0
C979 C 0.2064 0.62412 0.20995 0.0
C980 C 0.29923 0.66774 0.21776 0.0
C981 C 0.28785 0.63148 0.23202 0.0
C982 C 0.23587 0.58976 0.23443 0.0
C983 C 0.19546 0.58624 0.22352 0.0
loop_
_geom_bond_atom_site_label_1
_geom_bond_atom_site_label_2
_geom_bond_distance
_geom_bond_site_symmetry_2
_ccdc_geom_bond_type
Sc0 O3 2.025 . S
Sc0 O10 2.105 . S
Sc0 O13 2.105 . S
Sc0 O16 2.105 . S
Sc0 O19 2.105 . S
Sc1 O3 2.025 . S
Sc1 O11 2.105 . S
Sc1 O15 2.105 . S
Sc1 O17 2.105 . S
Sc1 O21 2.105 . S
Sc2 O3 2.025 . S
Sc2 O12 2.105 . S
Sc2 O14 2.105 . S
Sc2 O18 2.105 . S
Sc2 O20 2.105 . S
O3 Sc0 2.025 . S
O3 Sc1 2.025 . S
O3 Sc2 2.025 . S
C4 O10 1.268 . S
C4 O20 1.268 . S
C5 O11 1.268 . S
C5 O19 1.268 . S
C6 O12 1.268 . S
C6 O21 1.268 . S
C7 O13 1.268 . S
C7 O17 1.268 . S
C8 O14 1.268 . S
C8 O16 1.268 . S
C9 O15 1.268 . S
C9 O18 1.268 . S
O10 Sc0 2.105 . S
O10 C4 1.268 . S
O11 Sc1 2.105 . S
O11 C5 1.268 . S
O12 Sc2 2.105 . S
O12 C6 1.268 . S
O13 Sc0 2.105 . S
O13 C7 1.268 . S
O14 Sc2 2.105 . S
O14 C8 1.268 . S
O15 Sc1 2.105 . S
O15 C9 1.268 . S
O16 Sc0 2.105 . S
O16 C8 1.268 . S
O17 Sc1 2.105 . S
O17 C7 1.268 . S
O18 Sc2 2.105 . S
O18 C9 1.268 . S
O19 Sc0 2.105 . S
O19 C5 1.268 . S
O20 Sc2 2.105 . S
O20 C4 1.268 . S
O21 Sc1 2.105 . S
O21 C6 1.268 . S
Sc22 O25 2.025 . S
Sc22 O32 2.105 . S
Sc22 O35 2.105 . S
Sc22 O38 2.105 . S
Sc22 O41 2.105 . S
Sc23 O25 2.025 . S
Sc23 O33 2.105 . S
Sc23 O37 2.105 . S
Sc23 O39 2.105 . S
Sc23 O43 2.105 . S
Sc24 O25 2.025 . S
Sc24 O34 2.105 . S
Sc24 O36 2.105 . S
Sc24 O40 2.105 . S
Sc24 O42 2.105 . S
O25 Sc22 2.025 . S
O25 Sc23 2.025 . S
O25 Sc24 2.025 . S
C26 O32 1.268 . S
C26 O42 1.268 . S
C27 O33 1.268 . S
C27 O41 1.268 . S
C28 O34 1.268 . S
C28 O43 1.268 . S
C29 O35 1.268 . S
C29 O39 1.268 . S
C30 O36 1.268 . S
C30 O38 1.268 . S
C31 O37 1.268 . S
C31 O40 1.268 . S
O32 Sc22 2.105 . S
O32 C26 1.268 . S
O33 Sc23 2.105 . S
O33 C27 1.268 . S
O34 Sc24 2.105 . S
O34 C28 1.268 . S
O35 Sc22 2.105 . S
O35 C29 1.268 . S
O36 Sc24 2.105 . S
O36 C30 1.268 . S
O37 Sc23 2.105 . S
O37 C31 1.268 . S
O38 Sc22 2.105 . S
O38 C30 1.268 . S
O39 Sc23 2.105 . S
O39 C29 1.268 . S
O40 Sc24 2.105 . S
O40 C31 1.268 . S
O41 Sc22 2.105 . S
O41 C27 1.268 . S
O42 Sc24 2.105 . S
O42 C26 1.268 . S
O43 Sc23 2.105 . S
O43 C28 1.268 . S
Sc44 O47 2.025 . S
Sc44 O54 2.105 . S
Sc44 O57 2.105 . S
Sc44 O60 2.105 . S
Sc44 O63 2.105 . S
Sc45 O47 2.025 . S
Sc45 O55 2.105 . S
Sc45 O59 2.105 . S
Sc45 O61 2.105 . S
Sc45 O65 2.105 . S
Sc46 O47 2.025 . S
Sc46 O56 2.105 . S
Sc46 O58 2.105 . S
Sc46 O62 2.105 . S
Sc46 O64 2.105 . S
O47 Sc44 2.025 . S
O47 Sc45 2.025 . S
O47 Sc46 2.025 . S
C48 O54 1.268 . S
C48 O64 1.268 . S
C49 O55 1.268 . S
C49 O63 1.268 . S
C50 O56 1.268 . S
C50 O65 1.268 . S
C51 O57 1.268 . S
C51 O61 1.268 . S
C52 O58 1.268 . S
C52 O60 1.268 . S
C53 O59 1.268 . S
C53 O62 1.268 . S
O54 Sc44 2.105 . S
O54 C48 1.268 . S
O55 Sc45 2.105 . S
O55 C49 1.268 . S
O56 Sc46 2.105 . S
O56 C50 1.268 . S
O57 Sc44 2.105 . S
O57 C51 1.268 . S
O58 Sc46 2.105 . S
O58 C52 1.268 . S
O59 Sc45 2.105 . S
O59 C53 1.268 . S
O60 Sc44 2.105 . S
O60 C52 1.268 . S
O61 Sc45 2.105 . S
O61 C51 1.268 . S
O62 Sc46 2.105 . S
O62 C53 1.268 . S
O63 Sc44 2.105 . S
O63 C49 1.268 . S
O64 Sc46 2.105 . S
O64 C48 1.268 . S
O65 Sc45 2.105 . S
O65 C50 1.268 . S
Sc66 O69 2.025 . S
Sc66 O76 2.105 . S
Sc66 O79 2.105 . S
Sc66 O82 2.105 . S
Sc66 O85 2.105 . S
Sc67 O69 2.025 . S
Sc67 O77 2.105 . S
Sc67 O81 2.105 . S
Sc67 O83 2.105 . S
Sc67 O87 2.105 . S
Sc68 O69 2.025 . S
Sc68 O78 2.105 . S
Sc68 O80 2.105 . S
Sc68 O84 2.105 . S
Sc68 O86 2.105 . S
O69 Sc66 2.025 . S
O69 Sc67 2.025 . S
O69 Sc68 2.025 . S
C70 O76 1.268 . S
C70 O86 1.268 . S
C71 O77 1.268 . S
C71 O85 1.268 . S
C72 O78 1.268 . S
C72 O87 1.268 . S
C73 O79 1.268 . S
C73 O83 1.268 . S
C74 O80 1.268 . S
C74 O82 1.268 . S
C75 O81 1.268 . S
C75 O84 1.268 . S
O76 Sc66 2.105 . S
O76 C70 1.268 . S
O77 Sc67 2.105 . S
O77 C71 1.268 . S
O78 Sc68 2.105 . S
O78 C72 1.268 . S
O79 Sc66 2.105 . S
O79 C73 1.268 . S
O80 Sc68 2.105 . S
O80 C74 1.268 . S
O81 Sc67 2.105 . S
O81 C75 1.268 . S
O82 Sc66 2.105 . S
O82 C74 1.268 . S
O83 Sc67 2.105 . S
O83 C73 1.268 . S
O84 Sc68 2.105 . S
O84 C75 1.268 . S
O85 Sc66 2.105 . S
O85 C71 1.268 . S
O86 Sc68 2.105 . S
O86 C70 1.268 . S
O87 Sc67 2.105 . S
O87 C72 1.268 . S
Sc88 O91 2.025 . S
Sc88 O98 2.105 . S
Sc88 O101 2.105 . S
Sc88 O104 2.105 . S
Sc88 O107 2.070 1_554 S
Sc89 O91 2.025 . S
Sc89 O99 2.105 . S
Sc89 O103 2.105 . S
Sc89 O105 2.105 . S
Sc89 O109 2.105 . S
Sc90 O91 2.025 . S
Sc90 O100 2.105 . S
Sc90 O102 2.105 . S
Sc90 O106 2.105 . S
Sc90 O108 2.105 . S
O91 Sc88 2.025 . S
O91 Sc89 2.025 . S
O91 Sc90 2.025 . S
C92 O98 1.268 . S
C92 O108 1.268 . S
C93 O99 1.268 1_556 S
C93 O107 1.271 . S
C94 O100 1.268 . S
C94 O109 1.268 . S
C95 O101 1.268 . S
C95 O105 1.268 . S
C96 O102 1.268 . S
C96 O104 1.268 . S
C97 O103 1.268 . S
C97 O106 1.268 . S
O98 Sc88 2.105 . S
O98 C92 1.268 . S
O99 Sc89 2.105 . S
O99 C93 1.268 1_554 S
O100 Sc90 2.105 . S
O100 C94 1.268 . S
O101 Sc88 2.105 . S
O101 C95 1.268 . S
O102 Sc90 2.105 . S
O102 C96 1.268 . S
O103 Sc89 2.105 . S
O103 C97 1.268 . S
O104 Sc88 2.105 . S
O104 C96 1.268 . S
O105 Sc89 2.105 . S
O105 C95 1.268 . S
O106 Sc90 2.105 . S
O106 C97 1.268 . S
O107 Sc88 2.070 1_556 S
O107 C93 1.271 . S
O108 Sc90 2.105 . S
O108 C92 1.268 . S
O109 Sc89 2.105 . S
O109 C94 1.268 . S
Sc110 O113 2.025 . S
Sc110 O120 2.105 . S
Sc110 O123 2.105 . S
Sc110 O126 2.105 . S
Sc110 O129 2.105 . S
Sc111 O113 2.025 . S
Sc111 O121 2.105 . S
Sc111 O125 2.105 . S
Sc111 O127 2.105 . S
Sc111 O131 2.105 . S
Sc112 O113 2.025 . S
Sc112 O122 2.105 . S
Sc112 O124 2.105 . S
Sc112 O128 2.105 . S
Sc112 O130 2.105 . S
O113 Sc110 2.025 . S
O113 Sc111 2.025 . S
O113 Sc112 2.025 . S
C114 O120 1.268 . S
C114 O130 1.268 . S
C115 O121 1.268 . S
C115 O129 1.268 . S
C116 O122 1.268 . S
C116 O131 1.268 . S
C117 O123 1.268 . S
C117 O127 1.268 . S
C118 O124 1.268 . S
C118 O126 1.268 . S
C119 O125 1.268 . S
C119 O128 1.268 . S
O120 Sc110 2.105 . S
O120 C114 1.268 . S
O121 Sc111 2.105 . S
O121 C115 1.268 . S
O122 Sc112 2.105 . S
O122 C116 1.268 . S
O123 Sc110 2.105 . S
O123 C117 1.268 . S
O124 Sc112 2.105 . S
O124 C118 1.268 . S
O125 Sc111 2.105 . S
O125 C119 1.268 . S
O126 Sc110 2.105 . S
O126 C118 1.268 . S
O127 Sc111 2.105 . S
O127 C117 1.268 . S
O128 Sc112 2.105 . S
O128 C119 1.268 . S
O129 Sc110 2.105 . S
O129 C115 1.268 . S
O130 Sc112 2.105 . S
O130 C114 1.268 . S
O131 Sc111 2.105 . S
O131 C116 1.268 . S
Sc132 O135 2.025 . S
Sc132 O142 2.105 . S
Sc132 O145 2.105 . S
Sc132 O148 2.105 . S
Sc132 O151 2.105 . S
Sc133 O135 2.025 . S
Sc133 O143 2.105 . S
Sc133 O147 2.105 . S
Sc133 O149 2.105 . S
Sc133 O153 2.105 . S
Sc134 O135 2.025 . S
Sc134 O144 2.105 . S
Sc134 O146 2.105 . S
Sc134 O150 2.105 . S
Sc134 O152 2.105 . S
O135 Sc132 2.025 . S
O135 Sc133 2.025 . S
O135 Sc134 2.025 . S
C136 O142 1.268 . S
C136 O152 1.268 . S
C137 O143 1.268 . S
C137 O151 1.268 . S
C138 O144 1.268 . S
C138 O153 1.268 . S
C139 O145 1.268 . S
C139 O149 1.268 . S
C140 O146 1.268 . S
C140 O148 1.268 . S
C141 O147 1.268 . S
C141 O150 1.268 . S
O142 Sc132 2.105 . S
O142 C136 1.268 . S
O143 Sc133 2.105 . S
O143 C137 1.268 . S
O144 Sc134 2.105 . S
O144 C138 1.268 . S
O145 Sc132 2.105 . S
O145 C139 1.268 . S
O146 Sc134 2.105 . S
O146 C140 1.268 . S
O147 Sc133 2.105 . S
O147 C141 1.268 . S
O148 Sc132 2.105 . S
O148 C140 1.268 . S
O149 Sc133 2.105 . S
O149 C139 1.268 . S
O150 Sc134 2.105 . S
O150 C141 1.268 . S
O151 Sc132 2.105 . S
O151 C137 1.268 . S
O152 Sc134 2.105 . S
O152 C136 1.268 . S
O153 Sc133 2.105 . S
O153 C138 1.268 . S
Sc154 O157 2.025 . S
Sc154 O164 2.105 . S
Sc154 O167 2.105 . S
Sc154 O170 2.105 . S
Sc154 O173 2.105 . S
Sc155 O157 2.025 . S
Sc155 O165 2.105 . S
Sc155 O169 2.105 . S
Sc155 O171 2.105 . S
Sc155 O175 2.105 . S
Sc156 O157 2.025 . S
Sc156 O166 2.105 . S
Sc156 O168 2.105 . S
Sc156 O172 2.105 . S
Sc156 O174 2.105 . S
O157 Sc154 2.025 . S
O157 Sc155 2.025 . S
O157 Sc156 2.025 . S
C158 O164 1.268 . S
C158 O174 1.268 . S
C159 O165 1.268 . S
C159 O173 1.268 . S
C160 O166 1.268 . S
C160 O175 1.268 . S
C161 O167 1.268 . S
C161 O171 1.268 . S
C162 O168 1.268 . S
C162 O170 1.268 . S
C163 O169 1.268 . S
C163 O172 1.268 . S
O164 Sc154 2.105 . S
O164 C158 1.268 . S
O165 Sc155 2.105 . S
O165 C159 1.268 . S
O166 Sc156 2.105 . S
O166 C160 1.268 . S
O167 Sc154 2.105 . S
O167 C161 1.268 . S
O168 Sc156 2.105 . S
O168 C162 1.268 . S
O169 Sc155 2.105 . S
O169 C163 1.268 . S
O170 Sc154 2.105 . S
O170 C162 1.268 . S
O171 Sc155 2.105 . S
O171 C161 1.268 . S
O172 Sc156 2.105 . S
O172 C163 1.268 . S
O173 Sc154 2.105 . S
O173 C159 1.268 . S
O174 Sc156 2.105 . S
O174 C158 1.268 . S
O175 Sc155 2.105 . S
O175 C160 1.268 . S
Sc176 O179 2.025 . S
Sc176 O186 2.105 . S
Sc176 O189 2.105 . S
Sc176 O192 2.105 . S
Sc176 O195 2.105 . S
Sc177 O179 2.025 . S
Sc177 O187 2.105 . S
Sc177 O191 2.105 . S
Sc177 O193 2.105 . S
Sc177 O197 2.105 . S
Sc178 O179 2.025 . S
Sc178 O188 2.105 . S
Sc178 O190 2.105 . S
Sc178 O194 2.105 . S
Sc178 O196 2.105 . S
O179 Sc176 2.025 . S
O179 Sc177 2.025 . S
O179 Sc178 2.025 . S
C180 O186 1.268 . S
C180 O196 1.268 . S
C181 O187 1.268 . S
C181 O195 1.268 . S
C182 O188 1.268 . S
C182 O197 1.268 . S
C183 O189 1.268 . S
C183 O193 1.268 . S
C184 O190 1.268 . S
C184 O192 1.268 . S
C185 O191 1.268 . S
C185 O194 1.268 . S
O186 Sc176 2.105 . S
O186 C180 1.268 . S
O187 Sc177 2.105 . S
O187 C181 1.268 . S
O188 Sc178 2.105 . S
O188 C182 1.268 . S
O189 Sc176 2.105 . S
O189 C183 1.268 . S
O190 Sc178 2.105 . S
O190 C184 1.268 . S
O191 Sc177 2.105 . S
O191 C185 1.268 . S
O192 Sc176 2.105 . S
O192 C184 1.268 . S
O193 Sc177 2.105 . S
O193 C183 1.268 . S
O194 Sc178 2.105 . S
O194 C185 1.268 . S
O195 Sc176 2.105 . S
O195 C181 1.268 . S
O196 Sc178 2.105 . S
O196 C180 1.268 . S
O197 Sc177 2.105 . S
O197 C182 1.268 . S
Sc198 O201 2.025 . S
Sc198 O208 2.105 . S
Sc198 O211 2.105 . S
Sc198 O214 2.105 . S
Sc198 O217 2.105 . S
Sc199 O201 2.025 . S
Sc199 O209 2.105 . S
Sc199 O213 2.105 . S
Sc199 O215 2.105 . S
Sc199 O219 2.105 . S
Sc200 O201 2.025 . S
Sc200 O210 2.105 . S
Sc200 O212 2.105 . S
Sc200 O216 2.109 1_556 S
Sc200 O218 2.105 . S
O201 Sc198 2.025 . S
O201 Sc199 2.025 . S
O201 Sc200 2.025 . S
C202 O208 1.268 . S
C202 O218 1.268 . S
C203 O209 1.268 . S
C203 O217 1.268 . S
C204 O210 1.268 . S
C204 O219 1.268 . S
C205 O211 1.268 . S
C205 O215 1.268 . S
C206 O212 1.268 . S
C206 O214 1.268 . S
C207 O213 1.244 1_554 S
C207 O216 1.267 . S
O208 Sc198 2.105 . S
O208 C202 1.268 . S
O209 Sc199 2.105 . S
O209 C203 1.268 . S
O210 Sc200 2.105 . S
O210 C204 1.268 . S
O211 Sc198 2.105 . S
O211 C205 1.268 . S
O212 Sc200 2.105 . S
O212 C206 1.268 . S
O213 Sc199 2.105 . S
O213 C207 1.244 1_556 S
O214 Sc198 2.105 . S
O214 C206 1.268 . S
O215 Sc199 2.105 . S
O215 C205 1.268 . S
O216 Sc200 2.109 1_554 S
O216 C207 1.267 . S
O217 Sc198 2.105 . S
O217 C203 1.268 . S
O218 Sc200 2.105 . S
O218 C202 1.268 . S
O219 Sc199 2.105 . S
O219 C204 1.268 . S
Sc220 O223 2.025 . S
Sc220 O230 2.105 . S
Sc220 O233 2.105 . S
Sc220 O236 2.105 . S
Sc220 O239 2.105 . S
Sc221 O223 2.025 . S
Sc221 O231 2.105 . S
Sc221 O235 2.105 . S
Sc221 O237 2.105 . S
Sc221 O241 2.105 . S
Sc222 O223 2.025 . S
Sc222 O232 2.105 . S
Sc222 O234 2.105 . S
Sc222 O238 2.105 . S
Sc222 O240 2.105 . S
O223 Sc220 2.025 . S
O223 Sc221 2.025 . S
O223 Sc222 2.025 . S
C224 O230 1.268 . S
C224 O240 1.268 . S
C225 O231 1.268 . S
C225 O239 1.268 . S
C226 O232 1.268 . S
C226 O241 1.268 . S
C227 O233 1.268 . S
C227 O237 1.268 . S
C228 O234 1.268 . S
C228 O236 1.268 . S
C229 O235 1.268 . S
C229 O238 1.268 . S
O230 Sc220 2.105 . S
O230 C224 1.268 . S
O231 Sc221 2.105 . S
O231 C225 1.268 . S
O232 Sc222 2.105 . S
O232 C226 1.268 . S
O233 Sc220 2.105 . S
O233 C227 1.268 . S
O234 Sc222 2.105 . S
O234 C228 1.268 . S
O235 Sc221 2.105 . S
O235 C229 1.268 . S
O236 Sc220 2.105 . S
O236 C228 1.268 . S
O237 Sc221 2.105 . S
O237 C227 1.268 . S
O238 Sc222 2.105 . S
O238 C229 1.268 . S
O239 Sc220 2.105 . S
O239 C225 1.268 . S
O240 Sc222 2.105 . S
O240 C224 1.268 . S
O241 Sc221 2.105 . S
O241 C226 1.268 . S
Sc242 O245 2.025 . S
Sc242 O252 2.105 . S
Sc242 O255 2.105 . S
Sc242 O258 2.105 . S
Sc242 O261 2.105 . S
Sc243 O245 2.025 . S
Sc243 O253 2.105 . S
Sc243 O257 2.105 . S
Sc243 O259 2.105 . S
Sc243 O263 2.105 . S
Sc244 O245 2.025 . S
Sc244 O254 2.105 . S
Sc244 O256 2.105 . S
Sc244 O260 2.105 . S
Sc244 O262 2.105 . S
O245 Sc242 2.025 . S
O245 Sc243 2.025 . S
O245 Sc244 2.025 . S
C246 O252 1.268 . S
C246 O262 1.268 . S
C247 O253 1.268 . S
C247 O261 1.268 . S
C248 O254 1.268 . S
C248 O263 1.268 . S
C249 O255 1.268 . S
C249 O259 1.268 . S
C250 O256 1.268 . S
C250 O258 1.268 . S
C251 O257 1.268 . S
C251 O260 1.268 . S
O252 Sc242 2.105 . S
O252 C246 1.268 . S
O253 Sc243 2.105 . S
O253 C247 1.268 . S
O254 Sc244 2.105 . S
O254 C248 1.268 . S
O255 Sc242 2.105 . S
O255 C249 1.268 . S
O256 Sc244 2.105 . S
O256 C250 1.268 . S
O257 Sc243 2.105 . S
O257 C251 1.268 . S
O258 Sc242 2.105 . S
O258 C250 1.268 . S
O259 Sc243 2.105 . S
O259 C249 1.268 . S
O260 Sc244 2.105 . S
O260 C251 1.268 . S
O261 Sc242 2.105 . S
O261 C247 1.268 . S
O262 Sc244 2.105 . S
O262 C246 1.268 . S
O263 Sc243 2.105 . S
O263 C248 1.268 . S
H264 C272 0.950 . S
H265 C277 0.950 . S
H266 C274 0.950 . S
H267 C276 0.950 . S
H268 C278 0.950 . S
H269 C280 0.950 . S
H270 C282 0.950 . S
H271 C283 0.950 . S
C272 H264 0.950 . S
C272 C273 1.386 . S
C272 C274 1.391 . S
C273 C272 1.386 . S
C273 C277 1.393 . S
C274 H266 0.950 . S
C274 C272 1.391 . S
C274 C275 1.400 . S
C275 C274 1.400 . S
C275 C276 1.398 . S
C275 C281 1.491 . S
C276 H267 0.950 . S
C276 C275 1.398 . S
C276 C277 1.391 . S
C277 H265 0.950 . S
C277 C273 1.393 . S
C277 C276 1.391 . S
C278 H268 0.950 . S
C278 C279 1.386 1_565 S
C278 C280 1.391 . S
C279 C278 1.386 1_545 S
C279 C283 1.393 . S
C280 H269 0.950 . S
C280 C278 1.391 . S
C280 C281 1.400 . S
C281 C275 1.491 . S
C281 C280 1.400 . S
C281 C282 1.398 1_565 S
C282 H270 0.950 . S
C282 C281 1.398 1_545 S
C282 C283 1.391 . S
C283 H271 0.950 . S
C283 C279 1.393 . S
C283 C282 1.391 . S
H284 C292 0.950 . S
H285 C297 0.950 . S
H286 C294 0.950 . S
H287 C296 0.950 . S
H288 C298 0.950 . S
H289 C300 0.950 . S
H290 C302 0.950 . S
H291 C303 0.950 . S
C292 H284 0.950 . S
C292 C293 1.386 . S
C292 C294 1.391 . S
C293 C292 1.386 . S
C293 C297 1.393 . S
C294 H286 0.950 . S
C294 C292 1.391 . S
C294 C295 1.400 . S
C295 C294 1.400 . S
C295 C296 1.398 . S
C295 C301 1.491 . S
C296 H287 0.950 . S
C296 C295 1.398 . S
C296 C297 1.391 . S
C297 H285 0.950 . S
C297 C293 1.393 . S
C297 C296 1.391 . S
C298 H288 0.950 . S
C298 C299 1.386 . S
C298 C300 1.391 . S
C299 C298 1.386 . S
C299 C303 1.393 . S
C300 H289 0.950 . S
C300 C298 1.391 . S
C300 C301 1.400 . S
C301 C295 1.491 . S
C301 C300 1.400 . S
C301 C302 1.398 . S
C302 H290 0.950 . S
C302 C301 1.398 . S
C302 C303 1.391 . S
C303 H291 0.950 . S
C303 C299 1.393 . S
C303 C302 1.391 . S
H304 C312 0.950 . S
H305 C317 0.950 . S
H306 C314 0.950 . S
H307 C316 0.950 . S
H308 C318 0.950 . S
H309 C320 0.950 . S
H310 C322 0.950 . S
H311 C323 0.950 . S
C312 H304 0.950 . S
C312 C313 1.386 1_455 S
C312 C314 1.391 . S
C313 C312 1.386 1_655 S
C313 C317 1.393 . S
C314 H306 0.950 . S
C314 C312 1.391 . S
C314 C315 1.400 . S
C315 C314 1.400 . S
C315 C316 1.398 1_455 S
C315 C321 1.491 . S
C316 H307 0.950 . S
C316 C315 1.398 1_655 S
C316 C317 1.391 . S
C317 H305 0.950 . S
C317 C313 1.393 . S
C317 C316 1.391 . S
C318 H308 0.950 . S
C318 C319 1.386 . S
C318 C320 1.391 . S
C319 C318 1.386 . S
C319 C323 1.393 . S
C320 H309 0.950 . S
C320 C318 1.391 . S
C320 C321 1.400 . S
C321 C315 1.491 . S
C321 C320 1.400 . S
C321 C322 1.398 . S
C322 H310 0.950 . S
C322 C321 1.398 . S
C322 C323 1.391 . S
C323 H311 0.950 . S
C323 C319 1.393 . S
C323 C322 1.391 . S
H324 C332 0.950 . S
H325 C337 0.950 . S
H326 C334 0.950 . S
H327 C336 0.950 . S
H328 C338 0.950 . S
H329 C340 0.950 . S
H330 C342 0.950 . S
H331 C343 0.950 . S
C332 H324 0.950 . S
C332 C333 1.386 . S
C332 C334 1.391 . S
C333 C332 1.386 . S
C333 C337 1.393 . S
C334 H326 0.950 . S
C334 C332 1.391 . S
C334 C335 1.400 . S
C335 C334 1.400 . S
C335 C336 1.398 . S
C335 C341 1.491 . S
C336 H327 0.950 . S
C336 C335 1.398 . S
C336 C337 1.391 . S
C337 H325 0.950 . S
C337 C333 1.393 . S
C337 C336 1.391 . S
C338 H328 0.950 . S
C338 C339 1.386 . S
C338 C340 1.391 1_565 S
C339 C338 1.386 . S
C339 C343 1.393 . S
C340 H329 0.950 . S
C340 C338 1.391 1_545 S
C340 C341 1.400 . S
C341 C335 1.491 . S
C341 C340 1.400 . S
C341 C342 1.398 . S
C342 H330 0.950 . S
C342 C341 1.398 . S
C342 C343 1.391 1_545 S
C343 H331 0.950 . S
C343 C339 1.393 . S
C343 C342 1.391 1_565 S
H344 C352 0.950 . S
H345 C357 0.950 . S
H346 C354 0.950 . S
H347 C356 0.950 . S
H348 C358 0.950 . S
H349 C360 0.950 . S
H350 C362 0.950 . S
H351 C363 0.950 . S
C352 H344 0.950 . S
C352 C353 1.386 . S
C352 C354 1.391 . S
C353 C352 1.386 . S
C353 C357 1.393 . S
C354 H346 0.950 . S
C354 C352 1.391 . S
C354 C355 1.400 . S
C355 C354 1.400 . S
C355 C356 1.398 . S
C355 C361 1.491 . S
C356 H347 0.950 . S
C356 C355 1.398 . S
C356 C357 1.391 . S
C357 H345 0.950 . S
C357 C353 1.393 . S
C357 C356 1.391 . S
C358 H348 0.950 . S
C358 C359 1.386 . S
C358 C360 1.391 . S
C359 C358 1.386 . S
C359 C363 1.393 . S
C360 H349 0.950 . S
C360 C358 1.391 . S
C360 C361 1.400 . S
C361 C355 1.491 . S
C361 C360 1.400 . S
C361 C362 1.398 . S
C362 H350 0.950 . S
C362 C361 1.398 . S
C362 C363 1.391 . S
C363 H351 0.950 . S
C363 C359 1.393 . S
C363 C362 1.391 . S
H364 C372 0.950 . S
H365 C377 0.950 . S
H366 C374 0.950 . S
H367 C376 0.950 . S
H368 C378 0.950 . S
H369 C380 0.950 . S
H370 C382 0.950 . S
H371 C383 0.950 . S
C372 H364 0.950 . S
C372 C373 1.386 . S
C372 C374 1.391 1_455 S
C373 C372 1.386 . S
C373 C377 1.393 . S
C374 H366 0.950 . S
C374 C372 1.391 1_655 S
C374 C375 1.400 . S
C375 C374 1.400 . S
C375 C376 1.398 . S
C375 C381 1.491 . S
C376 H367 0.950 . S
C376 C375 1.398 . S
C376 C377 1.391 1_655 S
C377 H365 0.950 . S
C377 C373 1.393 . S
C377 C376 1.391 1_455 S
C378 H368 0.950 . S
C378 C379 1.386 . S
C378 C380 1.391 . S
C379 C378 1.386 . S
C379 C383 1.393 . S
C380 H369 0.950 . S
C380 C378 1.391 . S
C380 C381 1.400 . S
C381 C375 1.491 . S
C381 C380 1.400 . S
C381 C382 1.398 . S
C382 H370 0.950 . S
C382 C381 1.398 . S
C382 C383 1.391 . S
C383 H371 0.950 . S
C383 C379 1.393 . S
C383 C382 1.391 . S
H384 C392 0.950 . S
H385 C397 0.950 . S
H386 C394 0.950 . S
H387 C396 0.950 . S
H388 C398 0.950 . S
H389 C400 0.950 . S
H390 C402 0.950 . S
H391 C403 0.950 . S
C392 H384 0.950 . S
C392 C393 1.386 . S
C392 C394 1.391 . S
C393 C392 1.386 . S
C393 C397 1.393 . S
C394 H386 0.950 . S
C394 C392 1.391 . S
C394 C395 1.400 . S
C395 C394 1.400 . S
C395 C396 1.398 . S
C395 C401 1.491 . S
C396 H387 0.950 . S
C396 C395 1.398 . S
C396 C397 1.391 . S
C397 H385 0.950 . S
C397 C393 1.393 . S
C397 C396 1.391 . S
C398 H388 0.950 . S
C398 C399 1.386 1_455 S
C398 C400 1.391 . S
C399 C398 1.386 1_655 S
C399 C403 1.393 . S
C400 H389 0.950 . S
C400 C398 1.391 . S
C400 C401 1.400 . S
C401 C395 1.491 . S
C401 C400 1.400 . S
C401 C402 1.398 1_455 S
C402 H390 0.950 . S
C402 C401 1.398 1_655 S
C402 C403 1.391 . S
C403 H391 0.950 . S
C403 C399 1.393 . S
C403 C402 1.391 . S
H404 C412 0.950 . S
H405 C417 0.950 . S
H406 C414 0.950 . S
H407 C416 0.950 . S
H408 C418 0.950 . S
H409 C420 0.950 . S
H410 C422 0.950 . S
H411 C423 0.950 . S
C412 H404 0.950 . S
C412 C413 1.386 . S
C412 C414 1.391 1_565 S
C413 C412 1.386 . S
C413 C417 1.393 . S
C414 H406 0.950 . S
C414 C412 1.391 1_545 S
C414 C415 1.400 . S
C415 C414 1.400 . S
C415 C416 1.398 . S
C415 C421 1.491 . S
C416 H407 0.950 . S
C416 C415 1.398 . S
C416 C417 1.391 1_545 S
C417 H405 0.950 . S
C417 C413 1.393 . S
C417 C416 1.391 1_565 S
C418 H408 0.950 . S
C418 C419 1.386 . S
C418 C420 1.391 . S
C419 C418 1.386 . S
C419 C423 1.393 . S
C420 H409 0.950 . S
C420 C418 1.391 . S
C420 C421 1.400 . S
C421 C415 1.491 . S
C421 C420 1.400 . S
C421 C422 1.398 . S
C422 H410 0.950 . S
C422 C421 1.398 . S
C422 C423 1.391 . S
C423 H411 0.950 . S
C423 C419 1.393 . S
C423 C422 1.391 . S
H424 C432 0.950 . S
H425 C437 0.950 . S
H426 C434 0.950 . S
H427 C436 0.950 . S
H428 C438 0.950 . S
H429 C440 0.950 . S
H430 C442 0.950 . S
H431 C443 0.950 . S
C432 H424 0.950 . S
C432 C433 1.386 . S
C432 C434 1.391 . S
C433 C432 1.386 . S
C433 C437 1.393 . S
C434 H426 0.950 . S
C434 C432 1.391 . S
C434 C435 1.400 . S
C435 C434 1.400 . S
C435 C436 1.398 . S
C435 C441 1.491 . S
C436 H427 0.950 . S
C436 C435 1.398 . S
C436 C437 1.391 . S
C437 H425 0.950 . S
C437 C433 1.393 . S
C437 C436 1.391 . S
C438 H428 0.950 . S
C438 C439 1.386 . S
C438 C440 1.391 . S
C439 C438 1.386 . S
C439 C443 1.393 . S
C440 H429 0.950 . S
C440 C438 1.391 . S
C440 C441 1.400 . S
C441 C435 1.491 . S
C441 C440 1.400 . S
C441 C442 1.398 . S
C442 H430 0.950 . S
C442 C441 1.398 . S
C442 C443 1.391 . S
C443 H431 0.950 . S
C443 C439 1.393 . S
C443 C442 1.391 . S
H444 C452 0.950 . S
H445 C457 0.950 . S
H446 C454 0.950 . S
H447 C456 0.950 . S
H448 C458 0.950 . S
H449 C460 0.950 . S
H450 C462 0.950 . S
H451 C463 0.950 . S
C452 H444 0.950 . S
C452 C453 1.386 . S
C452 C454 1.391 . S
C453 C452 1.386 . S
C453 C457 1.393 . S
C454 H446 0.950 . S
C454 C452 1.391 . S
C454 C455 1.400 . S
C455 C454 1.400 . S
C455 C456 1.398 . S
C455 C461 1.491 . S
C456 H447 0.950 . S
C456 C455 1.398 . S
C456 C457 1.391 . S
C457 H445 0.950 . S
C457 C453 1.393 . S
C457 C456 1.391 . S
C458 H448 0.950 . S
C458 C459 1.386 . S
C458 C460 1.391 1_455 S
C459 C458 1.386 . S
C459 C463 1.393 . S
C460 H449 0.950 . S
C460 C458 1.391 1_655 S
C460 C461 1.400 . S
C461 C455 1.491 . S
C461 C460 1.400 . S
C461 C462 1.398 . S
C462 H450 0.950 . S
C462 C461 1.398 . S
C462 C463 1.391 1_655 S
C463 H451 0.950 . S
C463 C459 1.393 . S
C463 C462 1.391 1_455 S
H464 C472 0.950 . S
H465 C477 0.950 . S
H466 C474 0.950 . S
H467 C476 0.950 . S
H468 C478 0.950 . S
H469 C480 0.950 . S
H470 C482 0.950 . S
H471 C483 0.950 . S
C472 H464 0.950 . S
C472 C473 1.386 . S
C472 C474 1.391 . S
C473 C472 1.386 . S
C473 C477 1.393 . S
C474 H466 0.950 . S
C474 C472 1.391 . S
C474 C475 1.400 . S
C475 C474 1.400 . S
C475 C476 1.398 . S
C475 C481 1.491 . S
C476 H467 0.950 . S
C476 C475 1.398 . S
C476 C477 1.391 . S
C477 H465 0.950 . S
C477 C473 1.393 . S
C477 C476 1.391 . S
C478 H468 0.950 . S
C478 C479 1.386 . S
C478 C480 1.391 1_545 S
C479 C478 1.386 . S
C479 C483 1.393 . S
C480 H469 0.950 . S
C480 C478 1.391 1_565 S
C480 C481 1.400 . S
C481 C475 1.491 . S
C481 C480 1.400 . S
C481 C482 1.398 . S
C482 H470 0.950 . S
C482 C481 1.398 . S
C482 C483 1.391 1_565 S
C483 H471 0.950 . S
C483 C479 1.393 . S
C483 C482 1.391 1_545 S
H484 C492 0.950 . S
H485 C497 0.950 . S
H486 C494 0.950 . S
H487 C496 0.950 . S
H488 C498 0.950 . S
H489 C500 0.950 . S
H490 C502 0.950 . S
H491 C503 0.950 . S
C492 H484 0.950 . S
C492 C493 1.386 . S
C492 C494 1.391 . S
C493 C492 1.386 . S
C493 C497 1.393 . S
C494 H486 0.950 . S
C494 C492 1.391 . S
C494 C495 1.400 . S
C495 C494 1.400 . S
C495 C496 1.398 . S
C495 C501 1.491 . S
C496 H487 0.950 . S
C496 C495 1.398 . S
C496 C497 1.391 . S
C497 H485 0.950 . S
C497 C493 1.393 . S
C497 C496 1.391 . S
C498 H488 0.950 . S
C498 C499 1.386 . S
C498 C500 1.391 . S
C499 C498 1.386 . S
C499 C503 1.393 . S
C500 H489 0.950 . S
C500 C498 1.391 . S
C500 C501 1.400 . S
C501 C495 1.491 . S
C501 C500 1.400 . S
C501 C502 1.398 . S
C502 H490 0.950 . S
C502 C501 1.398 . S
C502 C503 1.391 . S
C503 H491 0.950 . S
C503 C499 1.393 . S
C503 C502 1.391 . S
H504 C512 0.950 . S
H505 C517 0.950 . S
H506 C514 0.950 . S
H507 C516 0.950 . S
H508 C518 0.950 . S
H509 C520 0.950 . S
H510 C522 0.950 1_545 S
H511 C523 0.950 . S
C512 H504 0.950 . S
C512 C513 1.386 . S
C512 C514 1.391 . S
C513 C512 1.386 . S
C513 C517 1.393 . S
C514 H506 0.950 . S
C514 C512 1.391 . S
C514 C515 1.400 . S
C515 C514 1.400 . S
C515 C516 1.398 . S
C515 C521 1.491 . S
C516 H507 0.950 . S
C516 C515 1.398 . S
C516 C517 1.391 . S
C517 H505 0.950 . S
C517 C513 1.393 . S
C517 C516 1.391 . S
C518 H508 0.950 . S
C518 C519 1.386 1_565 S
C518 C520 1.391 . S
C519 C518 1.386 1_545 S
C519 C523 1.393 . S
C520 H509 0.950 . S
C520 C518 1.391 . S
C520 C521 1.400 . S
C521 C515 1.491 . S
C521 C520 1.400 . S
C521 C522 1.398 . S
C522 H510 0.950 1_565 S
C522 C521 1.398 . S
C522 C523 1.391 1_565 S
C523 H511 0.950 . S
C523 C519 1.393 . S
C523 C522 1.391 1_545 S
H524 C532 0.950 . S
H525 C537 0.950 . S
H526 C534 0.950 . S
H527 C536 0.950 . S
H528 C538 0.950 . S
H529 C540 0.950 . S
H530 C542 0.950 . S
H531 C543 0.950 . S
C532 H524 0.950 . S
C532 C533 1.386 . S
C532 C534 1.391 . S
C533 C532 1.386 . S
C533 C537 1.393 . S
C534 H526 0.950 . S
C534 C532 1.391 . S
C534 C535 1.400 . S
C535 C534 1.400 . S
C535 C536 1.398 . S
C535 C541 1.491 . S
C536 H527 0.950 . S
C536 C535 1.398 . S
C536 C537 1.391 . S
C537 H525 0.950 . S
C537 C533 1.393 . S
C537 C536 1.391 . S
C538 H528 0.950 . S
C538 C539 1.386 . S
C538 C540 1.391 . S
C539 C538 1.386 . S
C539 C543 1.393 . S
C540 H529 0.950 . S
C540 C538 1.391 . S
C540 C541 1.400 . S
C541 C535 1.491 . S
C541 C540 1.400 . S
C541 C542 1.398 . S
C542 H530 0.950 . S
C542 C541 1.398 . S
C542 C543 1.391 . S
C543 H531 0.950 . S
C543 C539 1.393 . S
C543 C542 1.391 . S
H544 C552 0.950 . S
H545 C557 0.950 . S
H546 C554 0.950 . S
H547 C556 0.950 . S
H548 C558 0.950 . S
H549 C560 0.950 . S
H550 C562 0.950 . S
H551 C563 0.950 . S
C552 H544 0.950 . S
C552 C553 1.386 . S
C552 C554 1.391 . S
C553 C552 1.386 . S
C553 C557 1.393 . S
C554 H546 0.950 . S
C554 C552 1.391 . S
C554 C555 1.400 . S
C555 C554 1.400 . S
C555 C556 1.398 . S
C555 C561 1.491 . S
C556 H547 0.950 . S
C556 C555 1.398 . S
C556 C557 1.391 . S
C557 H545 0.950 . S
C557 C553 1.393 . S
C557 C556 1.391 . S
C558 H548 0.950 . S
C558 C559 1.386 . S
C558 C560 1.391 1_655 S
C559 C558 1.386 . S
C559 C563 1.393 1_655 S
C560 H549 0.950 . S
C560 C558 1.391 1_455 S
C560 C561 1.400 . S
C561 C555 1.491 . S
C561 C560 1.400 . S
C561 C562 1.398 . S
C562 H550 0.950 . S
C562 C561 1.398 . S
C562 C563 1.391 . S
C563 H551 0.950 . S
C563 C559 1.393 1_455 S
C563 C562 1.391 . S
H564 C572 0.950 . S
H565 C577 0.950 . S
H566 C574 0.950 . S
H567 C576 0.950 . S
H568 C578 0.950 . S
H569 C580 0.950 1_565 S
H570 C582 0.950 . S
H571 C583 0.950 . S
C572 H564 0.950 . S
C572 C573 1.386 . S
C572 C574 1.391 . S
C573 C572 1.386 . S
C573 C577 1.393 . S
C574 H566 0.950 . S
C574 C572 1.391 . S
C574 C575 1.400 . S
C575 C574 1.400 . S
C575 C576 1.398 . S
C575 C581 1.491 . S
C576 H567 0.950 . S
C576 C575 1.398 . S
C576 C577 1.391 . S
C577 H565 0.950 . S
C577 C573 1.393 . S
C577 C576 1.391 . S
C578 H568 0.950 . S
C578 C579 1.386 . S
C578 C580 1.391 1_565 S
C579 C578 1.386 . S
C579 C583 1.393 1_565 S
C580 H569 0.950 1_545 S
C580 C578 1.391 1_545 S
C580 C581 1.400 . S
C581 C575 1.491 . S
C581 C580 1.400 . S
C581 C582 1.398 . S
C582 H570 0.950 . S
C582 C581 1.398 . S
C582 C583 1.391 . S
C583 H571 0.950 . S
C583 C579 1.393 1_545 S
C583 C582 1.391 . S
H584 C592 0.950 . S
H585 C597 0.950 . S
H586 C594 0.950 . S
H587 C596 0.950 . S
H588 C598 0.950 . S
H589 C600 0.950 . S
H590 C602 0.950 1_556 S
H591 C603 0.950 . S
C592 H584 0.950 . S
C592 C593 1.386 . S
C592 C594 1.391 . S
C593 C592 1.386 . S
C593 C597 1.393 1_556 S
C594 H586 0.950 . S
C594 C592 1.391 . S
C594 C595 1.400 1_556 S
C595 C594 1.400 1_554 S
C595 C596 1.398 . S
C595 C601 1.491 . S
C596 H587 0.950 . S
C596 C595 1.398 . S
C596 C597 1.391 . S
C597 H585 0.950 . S
C597 C593 1.393 1_554 S
C597 C596 1.391 . S
C598 H588 0.950 . S
C598 C599 1.386 . S
C598 C600 1.391 . S
C599 C598 1.386 . S
C599 C603 1.393 . S
C600 H589 0.950 . S
C600 C598 1.391 . S
C600 C601 1.400 . S
C601 C595 1.491 . S
C601 C600 1.400 . S
C601 C602 1.398 . S
C602 H590 0.950 1_554 S
C602 C601 1.398 . S
C602 C603 1.391 . S
C603 H591 0.950 . S
C603 C599 1.393 . S
C603 C602 1.391 . S
H604 C612 0.948 . S
H605 C617 0.950 1_455 S
H606 C614 0.950 . S
H607 C616 0.950 . S
H608 C618 0.950 . S
H609 C620 0.950 . S
H610 C622 0.950 . S
H611 C623 0.950 . S
C612 H604 0.948 . S
C612 C613 1.386 1_655 S
C612 C614 1.391 . S
C613 C612 1.386 1_455 S
C613 C617 1.393 1_455 S
C614 H606 0.950 . S
C614 C612 1.391 . S
C614 C615 1.400 . S
C615 C614 1.400 . S
C615 C616 1.398 . S
C615 C621 1.491 . S
C616 H607 0.950 . S
C616 C615 1.398 . S
C616 C617 1.391 . S
C617 H605 0.950 1_655 S
C617 C613 1.393 1_655 S
C617 C616 1.391 . S
C618 H608 0.950 . S
C618 C619 1.386 . S
C618 C620 1.391 . S
C619 C618 1.386 . S
C619 C623 1.393 . S
C620 H609 0.950 . S
C620 C618 1.391 . S
C620 C621 1.400 . S
C621 C615 1.491 . S
C621 C620 1.400 . S
C621 C622 1.398 . S
C622 H610 0.950 . S
C622 C621 1.398 . S
C622 C623 1.391 . S
C623 H611 0.950 . S
C623 C619 1.393 . S
C623 C622 1.391 . S
H624 C632 0.950 . S
H625 C637 0.950 . S
H626 C634 0.950 . S
H627 C636 0.950 . S
H628 C638 0.950 . S
H629 C640 0.950 . S
H630 C642 0.950 . S
H631 C643 0.950 . S
C632 H624 0.950 . S
C632 C633 1.386 . S
C632 C634 1.391 1_655 S
C633 C632 1.386 . S
C633 C637 1.393 1_655 S
C634 H626 0.950 . S
C634 C632 1.391 1_455 S
C634 C635 1.400 . S
C635 C634 1.400 . S
C635 C636 1.398 . S
C635 C641 1.491 . S
C636 H627 0.950 . S
C636 C635 1.398 . S
C636 C637 1.391 . S
C637 H625 0.950 . S
C637 C633 1.393 1_455 S
C637 C636 1.391 . S
C638 H628 0.950 . S
C638 C639 1.386 . S
C638 C640 1.391 . S
C639 C638 1.386 . S
C639 C643 1.393 . S
C640 H629 0.950 . S
C640 C638 1.391 . S
C640 C641 1.400 . S
C641 C635 1.491 . S
C641 C640 1.400 . S
C641 C642 1.398 . S
C642 H630 0.950 . S
C642 C641 1.398 . S
C642 C643 1.391 . S
C643 H631 0.950 . S
C643 C639 1.393 . S
C643 C642 1.391 . S
H644 C652 0.950 . S
H645 C657 0.950 . S
H646 C654 0.950 . S
H647 C656 0.950 . S
H648 C658 0.950 . S
H649 C660 0.950 . S
H650 C662 0.950 . S
H651 C663 0.950 . S
C652 H644 0.950 . S
C652 C653 1.386 . S
C652 C654 1.391 1_565 S
C653 C652 1.386 . S
C653 C657 1.393 1_565 S
C654 H646 0.950 . S
C654 C652 1.391 1_545 S
C654 C655 1.400 . S
C655 C654 1.400 . S
C655 C656 1.398 . S
C655 C661 1.491 . S
C656 H647 0.950 . S
C656 C655 1.398 . S
C656 C657 1.391 . S
C657 H645 0.950 . S
C657 C653 1.393 1_545 S
C657 C656 1.391 . S
C658 H648 0.950 . S
C658 C659 1.386 . S
C658 C660 1.391 . S
C659 C658 1.386 . S
C659 C663 1.393 . S
C660 H649 0.950 . S
C660 C658 1.391 . S
C660 C661 1.400 . S
C661 C655 1.491 . S
C661 C660 1.400 . S
C661 C662 1.398 . S
C662 H650 0.950 . S
C662 C661 1.398 . S
C662 C663 1.391 . S
C663 H651 0.950 . S
C663 C659 1.393 . S
C663 C662 1.391 . S
H664 C672 0.950 . S
H665 C677 0.950 . S
H666 C674 0.950 . S
H667 C676 0.950 . S
H668 C678 0.950 . S
H669 C680 0.950 . S
H670 C682 0.950 . S
H671 C683 0.950 . S
C672 H664 0.950 . S
C672 C673 1.386 . S
C672 C674 1.391 . S
C673 C672 1.386 . S
C673 C677 1.393 . S
C674 H666 0.950 . S
C674 C672 1.391 . S
C674 C675 1.400 . S
C675 C674 1.400 . S
C675 C676 1.398 . S
C675 C681 1.491 . S
C676 H667 0.950 . S
C676 C675 1.398 . S
C676 C677 1.391 . S
C677 H665 0.950 . S
C677 C673 1.393 . S
C677 C676 1.391 . S
C678 H668 0.950 . S
C678 C679 1.386 . S
C678 C680 1.391 . S
C679 C678 1.386 . S
C679 C683 1.393 . S
C680 H669 0.950 . S
C680 C678 1.391 . S
C680 C681 1.400 . S
C681 C675 1.491 . S
C681 C680 1.400 . S
C681 C682 1.398 . S
C682 H670 0.950 . S
C682 C681 1.398 . S
C682 C683 1.391 . S
C683 H671 0.950 . S
C683 C679 1.393 . S
C683 C682 1.391 . S
H684 C692 0.950 . S
H685 C697 0.950 . S
H686 C694 0.950 . S
H687 C696 0.949 1_556 S
H688 C698 0.950 . S
H689 C700 0.950 . S
H690 C702 0.952 1_455 S
H691 C703 0.950 . S
C692 H684 0.950 . S
C692 C693 1.386 . S
C692 C694 1.391 1_554 S
C693 C692 1.386 . S
C693 C697 1.393 . S
C694 H686 0.950 . S
C694 C692 1.391 1_556 S
C694 C695 1.400 . S
C695 C694 1.400 . S
C695 C696 1.396 1_556 S
C695 C701 1.491 . S
C696 H687 0.949 1_554 S
C696 C695 1.396 1_554 S
C696 C697 1.394 . S
C697 H685 0.950 . S
C697 C693 1.393 . S
C697 C696 1.394 . S
C698 H688 0.950 . S
C698 C699 1.386 1_655 S
C698 C700 1.391 . S
C699 C698 1.386 1_455 S
C699 C703 1.393 . S
C700 H689 0.950 . S
C700 C698 1.391 . S
C700 C701 1.400 . S
C701 C695 1.491 . S
C701 C700 1.400 . S
C701 C702 1.410 . S
C702 H690 0.952 1_655 S
C702 C701 1.410 . S
C702 C703 1.378 1_655 S
C703 H691 0.950 . S
C703 C699 1.393 . S
C703 C702 1.378 1_455 S
H704 C712 0.950 . S
H705 C717 0.950 . S
H706 C714 0.950 . S
H707 C716 0.950 . S
H708 C718 0.950 . S
H709 C720 0.950 . S
H710 C722 0.950 . S
H711 C723 0.950 . S
C712 H704 0.950 . S
C712 C713 1.386 . S
C712 C714 1.391 . S
C713 C712 1.386 . S
C713 C717 1.393 1_545 S
C714 H706 0.950 . S
C714 C712 1.391 . S
C714 C715 1.400 1_545 S
C715 C714 1.400 1_565 S
C715 C716 1.398 . S
C715 C721 1.491 . S
C716 H707 0.950 . S
C716 C715 1.398 . S
C716 C717 1.391 . S
C717 H705 0.950 . S
C717 C713 1.393 1_565 S
C717 C716 1.391 . S
C718 H708 0.950 . S
C718 C719 1.386 . S
C718 C720 1.391 . S
C719 C718 1.386 . S
C719 C723 1.393 . S
C720 H709 0.950 . S
C720 C718 1.391 . S
C720 C721 1.400 . S
C721 C715 1.491 . S
C721 C720 1.400 . S
C721 C722 1.398 . S
C722 H710 0.950 . S
C722 C721 1.398 . S
C722 C723 1.391 . S
C723 H711 0.950 . S
C723 C719 1.393 . S
C723 C722 1.391 . S
H724 C732 0.950 . S
H725 C737 0.950 . S
H726 C734 0.950 . S
H727 C736 0.950 . S
H728 C738 0.950 . S
H729 C740 0.950 . S
H730 C742 0.950 . S
H731 C743 0.950 . S
C732 H724 0.950 . S
C732 C733 1.386 . S
C732 C734 1.391 . S
C733 C732 1.386 . S
C733 C737 1.393 . S
C734 H726 0.950 . S
C734 C732 1.391 . S
C734 C735 1.400 . S
C735 C734 1.400 . S
C735 C736 1.398 . S
C735 C741 1.491 . S
C736 H727 0.950 . S
C736 C735 1.398 . S
C736 C737 1.391 . S
C737 H725 0.950 . S
C737 C733 1.393 . S
C737 C736 1.391 . S
C738 H728 0.950 . S
C738 C739 1.386 . S
C738 C740 1.391 . S
C739 C738 1.386 . S
C739 C743 1.393 . S
C740 H729 0.950 . S
C740 C738 1.391 . S
C740 C741 1.400 . S
C741 C735 1.491 . S
C741 C740 1.400 . S
C741 C742 1.398 . S
C742 H730 0.950 . S
C742 C741 1.398 . S
C742 C743 1.391 . S
C743 H731 0.950 . S
C743 C739 1.393 . S
C743 C742 1.391 . S
H744 C752 0.950 . S
H745 C757 0.950 . S
H746 C754 0.950 . S
H747 C756 0.950 . S
H748 C758 0.950 1_545 S
H749 C760 0.950 . S
H750 C762 0.950 . S
H751 C763 0.950 . S
C752 H744 0.950 . S
C752 C753 1.386 . S
C752 C754 1.391 . S
C753 C752 1.386 . S
C753 C757 1.393 . S
C754 H746 0.950 . S
C754 C752 1.391 . S
C754 C755 1.400 . S
C755 C754 1.400 . S
C755 C756 1.398 . S
C755 C761 1.491 . S
C756 H747 0.950 . S
C756 C755 1.398 . S
C756 C757 1.391 . S
C757 H745 0.950 . S
C757 C753 1.393 . S
C757 C756 1.391 . S
C758 H748 0.950 1_565 S
C758 C759 1.386 . S
C758 C760 1.391 . S
C759 C758 1.386 . S
C759 C763 1.393 . S
C760 H749 0.950 . S
C760 C758 1.391 . S
C760 C761 1.400 . S
C761 C755 1.491 . S
C761 C760 1.400 . S
C761 C762 1.398 . S
C762 H750 0.950 . S
C762 C761 1.398 . S
C762 C763 1.391 . S
C763 H751 0.950 . S
C763 C759 1.393 . S
C763 C762 1.391 . S
H764 C772 0.950 . S
H765 C777 0.950 . S
H766 C774 0.950 . S
H767 C776 0.950 . S
H768 C778 0.950 . S
H769 C780 0.950 . S
H770 C782 0.950 . S
H771 C783 0.954 . S
C772 H764 0.950 . S
C772 C773 1.386 . S
C772 C774 1.391 . S
C773 C772 1.386 . S
C773 C777 1.393 . S
C774 H766 0.950 . S
C774 C772 1.391 . S
C774 C775 1.400 . S
C775 C774 1.400 . S
C775 C776 1.398 . S
C775 C781 1.491 . S
C776 H767 0.950 . S
C776 C775 1.398 . S
C776 C777 1.391 . S
C777 H765 0.950 . S
C777 C773 1.393 . S
C777 C776 1.391 . S
C778 H768 0.950 . S
C778 C779 1.386 . S
C778 C780 1.391 . S
C779 C778 1.386 . S
C779 C783 1.393 . S
C780 H769 0.950 . S
C780 C778 1.391 . S
C780 C781 1.400 . S
C781 C775 1.491 . S
C781 C780 1.400 . S
C781 C782 1.398 . S
C782 H770 0.950 . S
C782 C781 1.398 . S
C782 C783 1.391 . S
C783 H771 0.954 . S
C783 C779 1.393 . S
C783 C782 1.391 . S
H784 C792 0.950 . S
H785 C797 0.950 . S
H786 C794 0.950 . S
H787 C796 0.950 . S
H788 C798 0.950 . S
H789 C800 0.950 . S
H790 C802 0.950 . S
H791 C803 0.950 1_655 S
C792 H784 0.950 . S
C792 C793 1.386 . S
C792 C794 1.391 . S
C793 C792 1.386 . S
C793 C797 1.393 . S
C794 H786 0.950 . S
C794 C792 1.391 . S
C794 C795 1.400 . S
C795 C794 1.400 . S
C795 C796 1.398 . S
C795 C801 1.491 . S
C796 H787 0.950 . S
C796 C795 1.398 . S
C796 C797 1.391 . S
C797 H785 0.950 . S
C797 C793 1.393 . S
C797 C796 1.391 . S
C798 H788 0.950 . S
C798 C799 1.386 . S
C798 C800 1.391 . S
C799 C798 1.386 . S
C799 C803 1.393 . S
C800 H789 0.950 . S
C800 C798 1.391 . S
C800 C801 1.400 . S
C801 C795 1.491 . S
C801 C800 1.400 . S
C801 C802 1.398 . S
C802 H790 0.950 . S
C802 C801 1.398 . S
C802 C803 1.391 . S
C803 H791 0.950 1_455 S
C803 C799 1.393 . S
C803 C802 1.391 . S
H804 C812 0.950 1_565 S
H805 C817 0.950 . S
H806 C814 0.950 . S
H807 C816 0.950 . S
H808 C818 0.950 . S
H809 C820 0.950 . S
H810 C822 0.950 . S
H811 C823 0.950 . S
C812 H804 0.950 1_545 S
C812 C813 1.386 . S
C812 C814 1.391 . S
C813 C812 1.386 . S
C813 C817 1.393 . S
C814 H806 0.950 . S
C814 C812 1.391 . S
C814 C815 1.400 . S
C815 C814 1.400 . S
C815 C816 1.398 . S
C815 C821 1.491 . S
C816 H807 0.950 . S
C816 C815 1.398 . S
C816 C817 1.391 . S
C817 H805 0.950 . S
C817 C813 1.393 . S
C817 C816 1.391 . S
C818 H808 0.950 . S
C818 C819 1.386 . S
C818 C820 1.391 . S
C819 C818 1.386 . S
C819 C823 1.393 . S
C820 H809 0.950 . S
C820 C818 1.391 . S
C820 C821 1.400 . S
C821 C815 1.491 . S
C821 C820 1.400 . S
C821 C822 1.398 . S
C822 H810 0.950 . S
C822 C821 1.398 . S
C822 C823 1.391 . S
C823 H811 0.950 . S
C823 C819 1.393 . S
C823 C822 1.391 . S
H824 C832 0.950 . S
H825 C837 0.950 . S
H826 C834 0.950 . S
H827 C836 0.950 . S
H828 C838 0.950 . S
H829 C840 0.950 . S
H830 C842 0.950 . S
H831 C843 0.950 . S
C832 H824 0.950 . S
C832 C833 1.386 . S
C832 C834 1.391 . S
C833 C832 1.386 . S
C833 C837 1.393 . S
C834 H826 0.950 . S
C834 C832 1.391 . S
C834 C835 1.400 . S
C835 C834 1.400 . S
C835 C836 1.398 . S
C835 C841 1.491 . S
C836 H827 0.950 . S
C836 C835 1.398 . S
C836 C837 1.391 . S
C837 H825 0.950 . S
C837 C833 1.393 . S
C837 C836 1.391 . S
C838 H828 0.950 . S
C838 C839 1.386 . S
C838 C840 1.391 . S
C839 C838 1.386 . S
C839 C843 1.393 . S
C840 H829 0.950 . S
C840 C838 1.391 . S
C840 C841 1.400 . S
C841 C835 1.491 . S
C841 C840 1.400 . S
C841 C842 1.398 . S
C842 H830 0.950 . S
C842 C841 1.398 . S
C842 C843 1.391 . S
C843 H831 0.950 . S
C843 C839 1.393 . S
C843 C842 1.391 . S
H844 C852 0.950 . S
H845 C857 0.950 . S
H846 C854 0.950 . S
H847 C856 0.950 . S
H848 C858 0.950 . S
H849 C860 0.950 . S
H850 C862 0.950 . S
H851 C863 0.950 . S
C852 H844 0.950 . S
C852 C853 1.386 . S
C852 C854 1.391 . S
C853 C852 1.386 . S
C853 C857 1.393 . S
C854 H846 0.950 . S
C854 C852 1.391 . S
C854 C855 1.400 . S
C855 C854 1.400 . S
C855 C856 1.398 . S
C855 C861 1.491 . S
C856 H847 0.950 . S
C856 C855 1.398 . S
C856 C857 1.391 . S
C857 H845 0.950 . S
C857 C853 1.393 . S
C857 C856 1.391 . S
C858 H848 0.950 . S
C858 C859 1.386 . S
C858 C860 1.391 . S
C859 C858 1.386 . S
C859 C863 1.393 . S
C860 H849 0.950 . S
C860 C858 1.391 . S
C860 C861 1.400 . S
C861 C855 1.491 . S
C861 C860 1.400 . S
C861 C862 1.398 . S
C862 H850 0.950 . S
C862 C861 1.398 . S
C862 C863 1.391 . S
C863 H851 0.950 . S
C863 C859 1.393 . S
C863 C862 1.391 . S
H864 C872 0.950 . S
H865 C877 0.950 . S
H866 C874 0.950 . S
H867 C876 0.950 . S
H868 C878 0.950 . S
H869 C880 0.950 . S
H870 C882 0.950 . S
H871 C883 0.950 . S
C872 H864 0.950 . S
C872 C873 1.386 . S
C872 C874 1.391 . S
C873 C872 1.386 . S
C873 C877 1.393 . S
C874 H866 0.950 . S
C874 C872 1.391 . S
C874 C875 1.400 . S
C875 C874 1.400 . S
C875 C876 1.398 . S
C875 C881 1.491 . S
C876 H867 0.950 . S
C876 C875 1.398 . S
C876 C877 1.391 . S
C877 H865 0.950 . S
C877 C873 1.393 . S
C877 C876 1.391 . S
C878 H868 0.950 . S
C878 C879 1.386 . S
C878 C880 1.391 . S
C879 C878 1.386 . S
C879 C883 1.393 . S
C880 H869 0.950 . S
C880 C878 1.391 . S
C880 C881 1.400 . S
C881 C875 1.491 . S
C881 C880 1.400 . S
C881 C882 1.398 . S
C882 H870 0.950 . S
C882 C881 1.398 . S
C882 C883 1.391 . S
C883 H871 0.950 . S
C883 C879 1.393 . S
C883 C882 1.391 . S
H884 C892 0.950 . S
H885 C897 0.950 . S
H886 C894 0.950 . S
H887 C896 0.950 . S
H888 C898 0.950 . S
H889 C900 0.950 . S
H890 C902 0.950 . S
H891 C903 0.950 . S
C892 H884 0.950 . S
C892 C893 1.386 . S
C892 C894 1.391 . S
C893 C892 1.386 . S
C893 C897 1.393 . S
C894 H886 0.950 . S
C894 C892 1.391 . S
C894 C895 1.400 . S
C895 C894 1.400 . S
C895 C896 1.398 . S
C895 C901 1.491 . S
C896 H887 0.950 . S
C896 C895 1.398 . S
C896 C897 1.391 . S
C897 H885 0.950 . S
C897 C893 1.393 . S
C897 C896 1.391 . S
C898 H888 0.950 . S
C898 C899 1.386 . S
C898 C900 1.391 . S
C899 C898 1.386 . S
C899 C903 1.393 . S
C900 H889 0.950 . S
C900 C898 1.391 . S
C900 C901 1.400 . S
C901 C895 1.491 . S
C901 C900 1.400 . S
C901 C902 1.398 . S
C902 H890 0.950 . S
C902 C901 1.398 . S
C902 C903 1.391 . S
C903 H891 0.950 . S
C903 C899 1.393 . S
C903 C902 1.391 . S
H904 C912 0.950 . S
H905 C917 0.950 . S
H906 C914 0.950 . S
H907 C916 0.950 . S
H908 C918 0.950 . S
H909 C920 0.950 . S
H910 C922 0.950 . S
H911 C923 0.950 . S
C912 H904 0.950 . S
C912 C913 1.386 . S
C912 C914 1.391 . S
C913 C912 1.386 . S
C913 C917 1.393 . S
C914 H906 0.950 . S
C914 C912 1.391 . S
C914 C915 1.400 . S
C915 C914 1.400 . S
C915 C916 1.398 . S
C915 C921 1.491 . S
C916 H907 0.950 . S
C916 C915 1.398 . S
C916 C917 1.391 . S
C917 H905 0.950 . S
C917 C913 1.393 . S
C917 C916 1.391 . S
C918 H908 0.950 . S
C918 C919 1.386 . S
C918 C920 1.391 . S
C919 C918 1.386 . S
C919 C923 1.393 . S
C920 H909 0.950 . S
C920 C918 1.391 . S
C920 C921 1.400 . S
C921 C915 1.491 . S
C921 C920 1.400 . S
C921 C922 1.398 . S
C922 H910 0.950 . S
C922 C921 1.398 . S
C922 C923 1.391 . S
C923 H911 0.950 . S
C923 C919 1.393 . S
C923 C922 1.391 . S
H924 C932 0.950 . S
H925 C937 0.950 . S
H926 C934 0.950 . S
H927 C936 0.950 . S
H928 C938 0.950 . S
H929 C940 0.950 . S
H930 C942 0.950 . S
H931 C943 0.950 . S
C932 H924 0.950 . S
C932 C933 1.386 . S
C932 C934 1.391 . S
C933 C932 1.386 . S
C933 C937 1.393 . S
C934 H926 0.950 . S
C934 C932 1.391 . S
C934 C935 1.400 . S
C935 C934 1.400 . S
C935 C936 1.398 . S
C935 C941 1.491 . S
C936 H927 0.950 . S
C936 C935 1.398 . S
C936 C937 1.391 . S
C937 H925 0.950 . S
C937 C933 1.393 . S
C937 C936 1.391 . S
C938 H928 0.950 . S
C938 C939 1.386 . S
C938 C940 1.391 . S
C939 C938 1.386 . S
C939 C943 1.393 . S
C940 H929 0.950 . S
C940 C938 1.391 . S
C940 C941 1.400 . S
C941 C935 1.491 . S
C941 C940 1.400 . S
C941 C942 1.398 . S
C942 H930 0.950 . S
C942 C941 1.398 . S
C942 C943 1.391 . S
C943 H931 0.950 . S
C943 C939 1.393 . S
C943 C942 1.391 . S
H944 C952 0.950 . S
H945 C957 0.950 . S
H946 C954 0.950 . S
H947 C956 0.950 . S
H948 C958 0.950 . S
H949 C960 0.950 . S
H950 C962 0.950 . S
H951 C963 0.950 . S
C952 H944 0.950 . S
C952 C953 1.386 . S
C952 C954 1.391 . S
C953 C952 1.386 . S
C953 C957 1.393 . S
C954 H946 0.950 . S
C954 C952 1.391 . S
C954 C955 1.400 . S
C955 C954 1.400 . S
C955 C956 1.398 . S
C955 C961 1.491 . S
C956 H947 0.950 . S
C956 C955 1.398 . S
C956 C957 1.391 . S
C957 H945 0.950 . S
C957 C953 1.393 . S
C957 C956 1.391 . S
C958 H948 0.950 . S
C958 C959 1.386 . S
C958 C960 1.391 . S
C959 C958 1.386 . S
C959 C963 1.393 . S
C960 H949 0.950 . S
C960 C958 1.391 . S
C960 C961 1.400 . S
C961 C955 1.491 . S
C961 C960 1.400 . S
C961 C962 1.398 . S
C962 H950 0.950 . S
C962 C961 1.398 . S
C962 C963 1.391 . S
C963 H951 0.950 . S
C963 C959 1.393 . S
C963 C962 1.391 . S
H964 C972 0.950 . S
H965 C977 0.950 . S
H966 C974 0.950 . S
H967 C976 0.950 . S
H968 C978 0.950 . S
H969 C980 0.950 . S
H970 C982 0.950 . S
H971 C983 0.950 . S
C972 H964 0.950 . S
C972 C973 1.386 . S
C972 C974 1.391 . S
C973 C972 1.386 . S
C973 C977 1.393 . S
C974 H966 0.950 . S
C974 C972 1.391 . S
C974 C975 1.400 . S
C975 C974 1.400 . S
C975 C976 1.398 . S
C975 C981 1.491 . S
C976 H967 0.950 . S
C976 C975 1.398 . S
C976 C977 1.391 . S
C977 H965 0.950 . S
C977 C973 1.393 . S
C977 C976 1.391 . S
C978 H968 0.950 . S
C978 C979 1.386 . S
C978 C980 1.391 . S
C979 C978 1.386 . S
C979 C983 1.393 . S
C980 H969 0.950 . S
C980 C978 1.391 . S
C980 C981 1.400 . S
C981 C975 1.491 . S
C981 C980 1.400 . S
C981 C982 1.398 . S
C982 H970 0.950 . S
C982 C981 1.398 . S
C982 C983 1.391 . S
C983 H971 0.950 . S
C983 C979 1.393 . S
C983 C982 1.391 . S
C273 C115 1.124 . S
C279 C5 1.140 . S
C293 C31 1.140 . S
C299 C9 1.127 . S
C313 C49 1.140 . S
C319 C27 1.138 . S
C333 C53 1.128 . S
C339 C75 1.140 . S
C353 C71 1.124 . S
C359 C93 1.140 . S
C373 C119 1.140 . S
C379 C97 1.125 . S
C393 C159 1.120 . S
C399 C137 1.140 . S
C413 C163 1.140 . S
C419 C185 1.132 . S
C433 C203 1.121 . S
C439 C181 1.140 . S
C453 C229 1.128 . S
C459 C207 1.170 . S
C473 C247 1.129 . S
C479 C225 1.140 . S
C493 C141 1.121 . S
C499 C251 1.140 . S
C513 C248 1.367 . S
C519 C4 1.358 . S
C533 C30 1.353 . S
C539 C139 1.365 . S
C553 C160 1.351 . S
C559 C48 1.340 . S
C573 C183 1.352 . S
C579 C74 1.344 . S
C593 C204 1.359 . S
C599 C92 1.345 . S
C613 C118 1.341 . S
C619 C227 1.354 . S
C633 C136 1.345 . S
C639 C28 1.358 . S
C653 C162 1.343 . S
C659 C51 1.357 . S
C673 C72 1.356 . S
C679 C180 1.342 . S
C693 C95 1.366 . S
C699 C206 1.355 . S
C713 C224 1.356 . S
C719 C116 1.367 . S
C733 C250 1.360 . S
C739 C7 1.367 . S
C753 C138 1.147 1_455 S
C759 C6 1.158 1_565 S
C773 C29 1.171 . S
C779 C161 1.153 1_545 S
C793 C182 1.175 . S
C799 C50 1.171 1_455 S
C813 C73 1.169 1_545 S
C819 C205 1.175 1_655 S
C833 C226 1.169 1_565 S
C839 C94 1.151 . S
C853 C249 1.164 . S
C859 C117 1.148 1_655 S
C873 C140 0.928 . S
C879 C8 0.924 . S
C893 C158 0.929 . S
C899 C26 0.927 . S
C913 C184 0.923 . S
C919 C52 0.927 . S
C933 C70 0.916 . S
C939 C202 0.920 . S
C953 C228 0.926 . S
C959 C96 0.922 . S
C973 C246 0.919 . S
C979 C114 0.915 . S
