# Generated by pormake.
# Topology tfs, (6)-cn, num edge types: 1
# Building blocks:
#     Node 0, Type 0, BuildingBlock: UKALOJ_clean_sbu_0, # of connection points: 6
#     Node 1, Type 0, BuildingBlock: UKALOJ_clean_sbu_0, # of connection points: 6
#     Node 2, Type 0, BuildingBlock: UKALOJ_clean_sbu_0, # of connection points: 6
#     Node 3, Type 0, BuildingBlock: UKALOJ_clean_sbu_0, # of connection points: 6
#     Node 4, Type 0, BuildingBlock: UKALOJ_clean_sbu_0, # of connection points: 6
#     Node 5, Type 0, BuildingBlock: UKALOJ_clean_sbu_0, # of connection points: 6
#     Edge 6, Type (0, 0), BuildingBlock: CIFDUS_clean_linker_0, # of connection points: 2
#     Edge 7, Type (0, 0), BuildingBlock: CIFDUS_clean_linker_0, # of connection points: 2
#     Edge 8, Type (0, 0), BuildingBlock: CIFDUS_clean_linker_0, # of connection points: 2
#     Edge 9, Type (0, 0), BuildingBlock: CIFDUS_clean_linker_0, # of connection points: 2
#     Edge 10, Type (0, 0), BuildingBlock: CIFDUS_clean_linker_0, # of connection points: 2
#     Edge 11, Type (0, 0), BuildingBlock: CIFDUS_clean_linker_0, # of connection points: 2
#     Edge 12, Type (0, 0), BuildingBlock: CIFDUS_clean_linker_0, # of connection points: 2
#     Edge 13, Type (0, 0), BuildingBlock: CIFDUS_clean_linker_0, # of connection points: 2
#     Edge 14, Type (0, 0), BuildingBlock: CIFDUS_clean_linker_0, # of connection points: 2
#     Edge 15, Type (0, 0), BuildingBlock: CIFDUS_clean_linker_0, # of connection points: 2
#     Edge 16, Type (0, 0), BuildingBlock: CIFDUS_clean_linker_0, # of connection points: 2
#     Edge 17, Type (0, 0), BuildingBlock: CIFDUS_clean_linker_0, # of connection points: 2
#     Edge 18, Type (0, 0), BuildingBlock: CIFDUS_clean_linker_0, # of connection points: 2
#     Edge 19, Type (0, 0), BuildingBlock: CIFDUS_clean_linker_0, # of connection points: 2
#     Edge 20, Type (0, 0), BuildingBlock: CIFDUS_clean_linker_0, # of connection points: 2
#     Edge 21, Type (0, 0), BuildingBlock: CIFDUS_clean_linker_0, # of connection points: 2
#     Edge 22, Type (0, 0), BuildingBlock: CIFDUS_clean_linker_0, # of connection points: 2
#     Edge 23, Type (0, 0), BuildingBlock: CIFDUS_clean_linker_0, # of connection points: 2
# Relax obj value: 0.229
# Max RMSD: 0.158
# Mean RMSD: 0.158
data_MOF--net-tfs--node1-UKALOJ_clean_sbu_0--edge1-CIFDUS_clean_linker_0
_symmetry_space_group_name_H-M    P1
_symmetry_Int_Tables_number       1
_symmetry_cell_setting            triclinic
loop_
_symmetry_equiv_pos_as_xyz
'x, y, z'
_cell_length_a     42.720441
_cell_length_b     42.9057
_cell_length_c     13.484239
_cell_angle_alpha  90.015549
_cell_angle_beta   89.968507
_cell_angle_gamma 119.81043
loop_
_atom_site_label
_atom_site_type_symbol
_atom_site_fract_x
_atom_site_fract_y
_atom_site_fract_z
_atom_type_partial_charge
Zn0 Zn 0.1883 0.45281 0.92962 0.0
O1 O 0.18801 0.45634 0.08644 0.0
C2 C 0.2673 0.48493 0.93305 0.0
Zn3 Zn 0.20265 0.40979 0.94487 0.0
C4 C 0.19444 0.43606 0.1413 0.0
O5 O 0.20138 0.41333 0.10126 0.0
C6 C 0.19621 0.42625 0.73315 0.0
O7 O 0.14552 0.36889 0.94652 0.0
O8 O 0.13453 0.41349 0.93425 0.0
N9 N 0.21777 0.37118 0.95321 0.0
C10 C 0.24701 0.37182 -0.00647 0.0
C11 C 0.21845 0.32282 0.91313 0.0
N12 N 0.19998 0.34059 0.90376 0.0
N13 N 0.24832 0.34196 0.96843 0.0
C14 C 0.18657 0.52402 0.94804 0.0
C15 C 0.14021 0.51252 0.86175 0.0
N16 N 0.17243 0.49008 0.91474 0.0
N17 N 0.14358 0.48294 0.86146 0.0
N18 N 0.16696 0.53873 0.91517 0.0
H19 H 0.21562 0.56121 0.06614 0.0
H20 H 0.24326 0.55723 0.97206 0.0
H21 H 0.22125 0.52221 0.06203 0.0
C22 C 0.21834 0.54205 0.01653 0.0
C23 C 0.27318 0.4008 0.06113 0.0
H24 H 0.29609 0.42107 0.01682 0.0
H25 H 0.28387 0.3895 0.11701 0.0
H26 H 0.26039 0.41439 0.09954 0.0
O27 O 0.2034 0.40657 0.78807 0.0
O28 O 0.18848 0.44839 0.77324 0.0
C29 C 0.12291 0.3801 0.94215 0.0
O30 O 0.24231 0.49256 0.92485 0.0
O31 O 0.25896 0.45213 0.94292 0.0
Zn32 Zn 0.74517 0.18417 0.0149 0.0
O33 O 0.74904 0.18613 0.17183 0.0
C34 C 0.79428 0.26455 0.00372 0.0
Zn35 Zn 0.8035 0.20077 0.00033 0.0
C36 C 0.77919 0.19439 0.21162 0.0
O37 O 0.8061 0.20149 0.15664 0.0
C38 C 0.76956 0.19047 0.80361 0.0
O39 O 0.78565 0.1442 0.00038 0.0
O40 O 0.72886 0.12915 0.01888 0.0
N41 N 0.85588 0.21087 -0.00428 0.0
C42 C 0.88689 0.23757 0.95776 0.0
C43 C 0.8995 0.20071 0.02821 0.0
N44 N 0.86386 0.188 0.0391 0.0
N45 N 0.91477 0.23189 0.9776 0.0
C46 C 0.67686 0.19076 0.05385 0.0
C47 C 0.63663 0.14624 0.97266 0.0
N48 N 0.69233 0.17217 0.01873 0.0
N49 N 0.66719 0.1444 0.96887 0.0
N50 N 0.64201 0.17528 0.02489 0.0
H51 H 0.71671 0.22196 0.16472 0.0
H52 H 0.67549 0.224 0.17175 0.0
H53 H 0.70787 0.24767 0.07564 0.0
C54 C 0.69528 0.22282 0.12076 0.0
C55 C 0.8891 0.26779 0.89682 0.0
H56 H 0.86357 0.25892 0.85574 0.0
H57 H 0.91186 0.2778 0.8435 0.0
H58 H 0.89332 0.29012 0.94671 0.0
O59 O 0.79995 0.19975 0.84342 0.0
O60 O 0.74236 0.18227 0.85858 0.0
C61 C 0.75274 0.11993 0.00986 0.0
O62 O 0.76189 0.23909 0.00883 0.0
O63 O 0.81975 0.25721 0.00121 0.0
Zn64 Zn 0.5603 0.73541 -0.0021 0.0
O65 O 0.55611 0.73041 0.15474 0.0
C66 C 0.52413 0.77934 0.00204 0.0
Zn67 Zn 0.60025 0.79401 0.01279 0.0
C68 C 0.57486 0.75766 0.20937 0.0
O69 O 0.5958 0.78779 0.16899 0.0
C70 C 0.58578 0.77165 0.80131 0.0
O71 O 0.64323 0.78204 0.01317 0.0
O72 O 0.60342 0.72468 0.00123 0.0
N73 N 0.63684 0.84777 0.03074 0.0
C74 C 0.63689 0.87771 -0.00035 0.0
C75 C 0.68394 0.89458 0.088 0.0
N76 N 0.66618 0.85838 0.08534 0.0
N77 N 0.66605 0.90745 0.03528 0.0
C78 C 0.48991 0.66041 0.00602 0.0
C79 C 0.50531 0.62756 0.92472 0.0
N80 N 0.52477 0.6814 0.9798 0.0
N81 N 0.53429 0.66084 0.92975 0.0
N82 N 0.47703 0.6266 0.97172 0.0
H83 H 0.48739 0.69432 0.1202 0.0
H84 H 0.44843 0.6497 0.11369 0.0
H85 H 0.4552 0.68267 0.02137 0.0
C86 C 0.46913 0.67248 0.06953 0.0
C87 C 0.6095 0.87775 0.93028 0.0
H88 H 0.59774 0.85372 0.88201 0.0
H89 H 0.62185 0.90223 0.88335 0.0
H90 H 0.58738 0.87743 0.9741 0.0
O91 O 0.60411 0.799 0.85592 0.0
O92 O 0.56529 0.7414 0.84172 0.0
C93 C 0.63611 0.74955 0.00754 0.0
O94 O 0.51793 0.74728 -0.00672 0.0
O95 O 0.55647 0.80465 0.0129 0.0
Zn96 Zn 0.82704 0.55623 0.00185 0.0
O97 O 0.82691 0.56002 0.15864 0.0
C98 C 0.74778 0.52517 -0.00075 0.0
Zn99 Zn 0.81242 0.59949 -0.01236 0.0
C100 C 0.81999 0.5828 0.19873 0.0
O101 O 0.81341 0.60303 0.14405 0.0
C102 C 0.81978 0.57283 0.79069 0.0
O103 O 0.86684 0.64007 0.98346 0.0
O104 O 0.88208 0.59842 -0.00219 0.0
N105 N 0.79669 0.63755 0.9747 0.0
C106 C 0.76835 0.63928 0.0127 0.0
C107 C 0.79567 0.68367 0.9143 0.0
N108 N 0.81372 0.66531 0.91405 0.0
N109 N 0.76694 0.66776 0.97525 0.0
C110 C 0.83015 0.48504 0.03823 0.0
C111 C 0.88174 0.49988 0.97735 0.0
N112 N 0.84488 0.51948 0.00778 0.0
N113 N 0.87699 0.52856 0.97045 0.0
N114 N 0.85269 0.47205 0.01929 0.0
H115 H 0.79012 0.48386 0.13726 0.0
H116 H 0.79414 0.4438 0.13954 0.0
H117 H 0.77281 0.45235 0.036 0.0
C118 C 0.79481 0.4651 0.09139 0.0
C119 C 0.7432 0.61435 0.09029 0.0
H120 H 0.71847 0.59321 0.05439 0.0
H121 H 0.73521 0.62926 0.14219 0.0
H122 H 0.75553 0.60114 0.1325 0.0
O123 O 0.81232 0.59519 0.8308 0.0
O124 O 0.8269 0.55307 0.84548 0.0
C125 C 0.8912 0.6314 -0.01086 0.0
O126 O 0.77136 0.51532 0.00465 0.0
O127 O 0.75805 0.5584 -0.00856 0.0
Zn128 Zn 0.2758 0.82632 0.95147 0.0
O129 O 0.27051 0.82345 0.10808 0.0
C130 C 0.23338 0.747 0.93886 0.0
Zn131 Zn 0.21684 0.80668 0.9371 0.0
C132 C 0.24012 0.81387 0.14835 0.0
O133 O 0.21283 0.80561 0.09371 0.0
C134 C 0.25269 0.81948 0.74023 0.0
O135 O 0.22747 0.86054 0.9378 0.0
O136 O 0.28522 0.87923 0.95609 0.0
N137 N 0.16268 0.78852 0.92262 0.0
C138 C 0.13341 0.75907 0.95834 0.0
C139 C 0.11444 0.78687 0.86759 0.0
N140 N 0.15079 0.80579 0.86648 0.0
N141 N 0.10283 0.75726 0.92416 0.0
C142 C 0.34882 0.8301 0.00044 0.0
C143 C 0.38689 0.87856 0.92876 0.0
N144 N 0.33022 0.84495 0.96131 0.0
N145 N 0.35398 0.87518 0.91735 0.0
N146 N 0.38437 0.85049 0.9802 0.0
H147 H 0.30818 0.7931 0.1019 0.0
H148 H 0.35232 0.79775 0.11754 0.0
H149 H 0.32451 0.77305 0.01412 0.0
C150 C 0.33249 0.79669 0.06255 0.0
C151 C 0.13471 0.73313 0.03039 0.0
H152 H 0.13249 0.70983 -0.011 0.0
H153 H 0.11176 0.72316 0.08308 0.0
H154 H 0.16028 0.74547 0.07241 0.0
O155 O 0.22204 0.80852 0.78048 0.0
O156 O 0.28023 0.82915 0.79495 0.0
C157 C 0.25967 0.88618 0.94798 0.0
O158 O 0.26539 0.77311 0.94505 0.0
O159 O 0.20724 0.7532 0.93572 0.0
Zn160 Zn 0.44944 0.26415 0.03349 0.0
O161 O 0.44587 0.26116 0.19042 0.0
C162 C 0.47791 0.21318 0.03165 0.0
Zn163 Zn 0.40558 0.2073 0.01917 0.0
C164 C 0.42311 0.23156 0.23032 0.0
O165 O 0.40298 0.20494 0.17543 0.0
C166 C 0.43174 0.24001 0.82222 0.0
O167 O 0.36715 0.22448 0.01698 0.0
O168 O 0.40978 0.28091 0.02995 0.0
N169 N 0.36535 0.15493 0.0137 0.0
C170 C 0.365 0.12587 0.97447 0.0
C171 C 0.31641 0.10715 0.05728 0.0
N172 N 0.33499 0.14328 0.06447 0.0
N173 N 0.33481 0.09558 0.00169 0.0
C174 C 0.52437 0.3316 0.07128 0.0
C175 C 0.52187 0.36977 0.97563 0.0
N176 N 0.49047 0.31636 0.03506 0.0
N177 N 0.48896 0.34025 0.97623 0.0
N178 N 0.5449 0.36505 0.03366 0.0
H179 H 0.51346 0.29508 0.19332 0.0
H180 H 0.55739 0.33501 0.19625 0.0
H181 H 0.54803 0.29941 0.10989 0.0
C182 C 0.53646 0.31435 0.1474 0.0
C183 C 0.39344 0.12711 0.9065 0.0
H184 H 0.40687 0.15254 0.86427 0.0
H185 H 0.38143 0.10422 0.85378 0.0
H186 H 0.4142 0.12509 0.95064 0.0
O187 O 0.40857 0.21067 0.86216 0.0
O188 O 0.45223 0.26637 0.87718 0.0
C189 C 0.37643 0.25754 0.02273 0.0
O190 O 0.48797 0.24641 0.0359 0.0
O191 O 0.44453 0.19061 0.02392 0.0
H192 H 0.38591 0.32506 0.00221 0.0
H193 H 0.30359 0.21396 0.03693 0.0
H194 H 0.25681 0.23063 0.02788 0.0
H195 H 0.23889 0.27653 0.00534 0.0
H196 H 0.32085 0.38682 0.96009 0.0
H197 H 0.3679 0.37093 0.97973 0.0
C198 C 0.35776 0.30453 0.00839 0.0
C199 C 0.34838 0.26832 0.02011 0.0
C200 C 0.33081 0.31422 0.00208 0.0
C201 C 0.31168 0.24204 0.02744 0.0
C202 C 0.28483 0.25153 0.0224 0.0
C203 C 0.26709 0.29705 0.0007 0.0
C204 C 0.27627 0.33298 0.98489 0.0
C205 C 0.29404 0.28748 0.00903 0.0
C206 C 0.31293 0.35927 0.97709 0.0
C207 C 0.33992 0.35008 -0.01334 0.0
H208 H 0.08318 0.30639 0.91933 0.0
H209 H 0.07328 0.39981 0.98323 0.0
H210 H 0.00837 0.36267 -0.00375 0.0
H211 H 0.95414 0.30378 -0.00495 0.0
H212 H 0.96166 0.20968 0.92765 0.0
H213 H 0.02739 0.24663 0.91175 0.0
C214 C 0.06676 0.31851 0.93609 0.0
C215 C 0.08331 0.3559 0.95008 0.0
C216 C 0.02886 0.29688 0.94275 0.0
C217 C 0.06149 0.37116 0.97146 0.0
C218 C 0.0242 0.34995 0.97911 0.0
C219 C 0.96997 0.29149 0.97377 0.0
C220 C 0.95294 0.2542 0.95984 0.0
C221 C 1.00756 0.31284 0.96483 0.0
C222 C 0.9742 0.23847 0.93751 0.0
C223 C 0.01176 0.25957 0.92865 0.0
H224 H 0.6852 0.06225 0.02824 0.0
H225 H 0.79676 0.09075 -0.00715 0.0
H226 H 0.77952 0.02726 -0.00483 0.0
H227 H 0.73266 0.96338 0.00933 0.0
H228 H 0.62173 0.93551 0.05004 0.0
H229 H 0.63867 0.99881 0.04229 0.0
C230 C 0.7058 0.05465 0.02086 0.0
C231 C 0.74225 0.08135 0.01049 0.0
C232 C 0.69573 0.01809 0.02236 0.0
C233 C 0.76851 0.07085 0.00103 0.0
C234 C 0.75868 0.03451 0.00231 0.0
C235 C 0.71228 0.97131 0.01588 0.0
C236 C 0.67587 0.94473 0.02721 0.0
C237 C 0.72238 0.0079 0.01318 0.0
C238 C 0.6497 0.95526 0.03713 0.0
C239 C 0.65946 0.99153 0.03407 0.0
H240 H 0.77608 0.73389 0.00044 0.0
H241 H 0.69509 0.62275 0.96415 0.0
H242 H 0.64751 0.6382 0.97585 0.0
H243 H 0.62884 0.68328 -0.00859 0.0
H244 H 0.70918 0.79526 0.02142 0.0
H245 H 0.75705 0.77968 0.01637 0.0
C246 C 0.74795 0.71319 -0.00412 0.0
C247 C 0.73903 0.6771 0.98502 0.0
C248 C 0.72067 0.72246 0.00065 0.0
C249 C 0.70259 0.65045 0.97727 0.0
C250 C 0.67537 0.65937 0.98243 0.0
C251 C 0.65679 0.70436 -0.00279 0.0
C252 C 0.66534 0.74041 0.00673 0.0
C253 C 0.68409 0.69526 -0.00609 0.0
C254 C 0.70179 0.76729 0.01396 0.0
C255 C 0.72919 0.7584 0.01106 0.0
H256 H 0.04691 0.76771 0.95639 0.0
H257 H 0.07529 0.68518 0.91799 0.0
H258 H 0.01245 0.63879 0.94099 0.0
H259 H 0.94904 0.62163 0.96712 0.0
H260 H 0.91986 0.70417 -0.00354 0.0
H261 H 0.98314 0.75051 0.98115 0.0
C262 C 0.03919 0.73953 0.95356 0.0
C263 C 0.06582 0.72988 0.93886 0.0
C264 C 1.00282 0.71301 0.96455 0.0
C265 C 0.05558 0.69332 0.93369 0.0
C266 C 0.01954 0.66677 0.94546 0.0
C267 C 0.95652 0.64975 0.97078 0.0
C268 C 0.92972 0.65937 0.98308 0.0
C269 C 0.99292 0.6763 0.96084 0.0
C270 C 0.93991 0.69597 -0.01311 0.0
C271 C 0.97611 0.72253 0.97815 0.0
H272 H 0.32398 0.94501 -0.01293 0.0
H273 H 0.21309 0.91191 0.91829 0.0
H274 H 0.22676 0.97442 0.92709 0.0
H275 H 0.27061 0.03879 0.95616 0.0
H276 H 0.38023 0.07004 0.03248 0.0
H277 H 0.36687 0.00806 0.01784 0.0
C278 C 0.30275 0.95137 0.97361 0.0
C279 C 0.2676 0.92384 0.9519 0.0
C280 C 0.31071 0.98714 0.97939 0.0
C281 C 0.24041 0.93262 0.93523 0.0
C282 C 0.2482 0.96835 0.94021 0.0
C283 C 0.29143 0.0318 0.96887 0.0
C284 C 0.32663 0.05898 -0.00841 0.0
C285 C 0.28327 0.99584 0.96246 0.0
C286 C 0.35341 0.04982 0.01014 0.0
C287 C 0.34564 0.01431 0.00321 0.0
H288 H 0.16954 0.68506 0.96107 0.0
H289 H 0.28266 0.72559 0.90345 0.0
H290 H 0.27211 0.6644 0.89286 0.0
H291 H 0.23043 0.59947 0.89453 0.0
H292 H 0.11764 0.55851 0.95419 0.0
H293 H 0.12806 0.61998 0.96708 0.0
C294 C 0.19186 0.68054 0.94633 0.0
C295 C 0.22682 0.70987 0.93365 0.0
C296 C 0.1856 0.64528 0.94023 0.0
C297 C 0.25553 0.70351 0.9147 0.0
C298 C 0.24952 0.66852 0.90812 0.0
C299 C 0.20839 0.60405 0.91308 0.0
C300 C 0.17353 0.57474 0.92619 0.0
C301 C 0.21468 0.63925 0.9207 0.0
C302 C 0.14474 0.5809 0.94496 0.0
C303 C 0.15071 0.61591 0.95235 0.0
H304 H 0.55086 0.25322 0.01123 0.0
H305 H 0.46481 0.14494 0.06416 0.0
H306 H 0.50831 0.12385 0.07021 0.0
H307 H 0.57096 0.13598 0.05763 0.0
H308 H 0.65643 0.24385 0.00019 0.0
H309 H 0.61335 0.26546 0.00161 0.0
C310 C 0.54163 0.22508 0.02499 0.0
C311 C 0.50458 0.20072 0.03671 0.0
C312 C 0.56683 0.21311 0.02884 0.0
C313 C 0.4931 0.16424 0.05348 0.0
C314 C 0.51799 0.15215 0.05756 0.0
C315 C 0.58004 0.16424 0.04647 0.0
C316 C 0.61695 0.18842 0.03218 0.0
C317 C 0.55491 0.17631 0.04489 0.0
C318 C 0.62845 0.22492 0.01593 0.0
C319 C 0.6037 0.23721 0.01508 0.0
H320 H 0.41733 0.62873 0.92357 0.0
H321 H 0.45568 0.55752 0.01429 0.0
H322 H 0.39386 0.50628 0.00864 0.0
H323 H 0.32866 0.48227 0.97892 0.0
H324 H 0.29174 0.55474 0.88506 0.0
H325 H 0.35301 0.60495 0.89198 0.0
C326 C 0.41196 0.60211 0.94413 0.0
C327 C 0.44066 0.59689 0.97197 0.0
C328 C 0.37661 0.57302 0.93974 0.0
C329 C 0.43374 0.56204 -0.00604 0.0
C330 C 0.3985 0.53286 -0.00944 0.0
C331 C 0.33402 0.50896 0.95974 0.0
C332 C 0.30536 0.51457 0.9327 0.0
C333 C 0.36964 0.53803 0.96353 0.0
C334 C 0.31301 0.54952 0.90762 0.0
C335 C 0.34815 0.57838 0.91123 0.0
H336 H 0.79273 0.41049 0.97152 0.0
H337 H 0.90109 0.45332 0.0804 0.0
H338 H 0.8937 0.39283 0.08293 0.0
H339 H 0.8559 0.32725 0.05314 0.0
H340 H 0.74745 0.28582 0.94333 0.0
H341 H 0.75518 0.34588 0.94329 0.0
C342 C 0.81434 0.40644 -0.00168 0.0
C343 C 0.84704 0.43613 0.02834 0.0
C344 C 0.80994 0.37174 -0.00131 0.0
C345 C 0.87548 0.43069 0.05829 0.0
C346 C 0.87129 0.39616 0.05939 0.0
C347 C 0.8341 0.33149 0.02889 0.0
C348 C 0.80103 0.30194 -0.00062 0.0
C349 C 0.83863 0.36641 0.02927 0.0
C350 C 0.773 0.30791 0.96811 0.0
C351 C 0.77738 0.34233 0.96769 0.0
H352 H 0.3819 0.78768 0.94608 0.0
H353 H 0.45189 0.89646 0.04188 0.0
H354 H 0.50198 0.88419 0.05913 0.0
H355 H 0.5256 0.8423 0.04494 0.0
H356 H 0.45468 0.73354 0.94699 0.0
H357 H 0.40485 0.74565 0.93544 0.0
C358 C 0.40781 0.80835 0.97344 0.0
C359 C 0.41305 0.84262 -0.00455 0.0
C360 C 0.43626 0.80108 0.98265 0.0
C361 C 0.44729 0.86978 0.0258 0.0
C362 C 0.47582 0.86275 0.03554 0.0
C363 C 0.49927 0.82126 0.02102 0.0
C364 C 0.49395 0.78701 -0.00278 0.0
C365 C 0.47064 0.82849 0.01374 0.0
C366 C 0.45954 0.76002 0.96684 0.0
C367 C 0.431 0.76695 0.9597 0.0
H368 H 0.71471 0.45239 0.02975 0.0
H369 H 0.69233 0.53861 0.97673 0.0
H370 H 0.62809 0.49726 -0.00697 0.0
H371 H 0.5778 0.43647 0.01906 0.0
H372 H 0.5991 0.34873 0.04979 0.0
H373 H 0.66368 0.39054 0.04772 0.0
C374 C 0.6958 0.46211 0.02173 0.0
C375 C 0.70861 0.49884 0.00422 0.0
C376 C 0.65848 0.43786 0.02859 0.0
C377 C 0.68353 0.51079 -0.00712 0.0
C378 C 0.64661 0.48707 0.00158 0.0
C379 C 0.5966 0.42654 0.02624 0.0
C380 C 0.5833 0.38956 0.03911 0.0
C381 C 0.63379 0.45058 0.01957 0.0
C382 C 0.60812 0.37706 0.04585 0.0
C383 C 0.6453 0.40101 0.04243 0.0
H384 H 0.1842 0.46558 0.59565 0.0
H385 H 0.21042 0.38092 0.62463 0.0
H386 H 0.21235 0.37664 0.44451 0.0
H387 H 0.2066 0.39683 0.27874 0.0
H388 H 0.18049 0.48157 0.24978 0.0
H389 H 0.1786 0.48588 0.4299 0.0
C390 C 0.19031 0.44615 0.56267 0.0
C391 C 0.19712 0.4236 0.62376 0.0
C392 C 0.19143 0.44384 0.45896 0.0
C393 C 0.20505 0.39863 0.57955 0.0
C394 C 0.20617 0.39615 0.47645 0.0
C395 C 0.20048 0.41625 0.31173 0.0
C396 C 0.19363 0.43878 0.25066 0.0
C397 C 0.19942 0.41861 0.41544 0.0
C398 C 0.18583 0.46384 0.29487 0.0
C399 C 0.18473 0.46634 0.39796 0.0
H400 H 0.82153 0.20639 0.66418 0.0
H401 H 0.70844 0.17222 0.69759 0.0
H402 H 0.70148 0.17069 0.51796 0.0
H403 H 0.72733 0.17892 0.35107 0.0
H404 H 0.84034 0.21275 0.31763 0.0
H405 H 0.84737 0.21455 0.49727 0.0
C406 C 0.79535 0.19857 0.63222 0.0
C407 C 0.7656 0.18941 0.69443 0.0
C408 C 0.79146 0.19769 0.52868 0.0
C409 C 0.73186 0.17939 0.6516 0.0
C410 C 0.7278 0.1785 0.54876 0.0
C411 C 0.7535 0.1867 0.38302 0.0
C412 C 0.78321 0.19565 0.3208 0.0
C413 C 0.7574 0.18759 0.48656 0.0
C414 C 0.81695 0.20568 0.36363 0.0
C415 C 0.82104 0.20672 0.46648 0.0
H416 H 0.54913 0.71897 0.66517 0.0
H417 H 0.62718 0.83188 0.69091 0.0
H418 H 0.63054 0.83745 0.5105 0.0
H419 H 0.61143 0.81036 0.34553 0.0
H420 H 0.53314 0.69751 0.31979 0.0
H421 H 0.5298 0.69194 0.5002 0.0
C422 C 0.56692 0.74482 0.63145 0.0
C423 C 0.58793 0.77494 0.69174 0.0
C424 C 0.56868 0.74788 0.52761 0.0
C425 C 0.61075 0.80822 0.64651 0.0
C426 C 0.61268 0.81145 0.54325 0.0
C427 C 0.59359 0.78452 0.37924 0.0
C428 C 0.5726 0.75439 0.31894 0.0
C429 C 0.59177 0.78147 0.48309 0.0
C430 C 0.54964 0.72115 0.36419 0.0
C431 C 0.5477 0.71792 0.46745 0.0
H432 H 0.80849 0.61243 0.65229 0.0
H433 H 0.83333 0.52687 0.68324 0.0
H434 H 0.83578 0.52255 0.50338 0.0
H435 H 0.83107 0.54306 0.3371 0.0
H436 H 0.80622 0.62861 0.30614 0.0
H437 H 0.80368 0.63288 0.48599 0.0
C438 C 0.81439 0.59279 0.61977 0.0
C439 C 0.82069 0.57003 0.68137 0.0
C440 C 0.81585 0.59046 0.51613 0.0
C441 C 0.82835 0.54477 0.63777 0.0
C442 C 0.82979 0.54226 0.53479 0.0
C443 C 0.82516 0.56269 0.36962 0.0
C444 C 0.81895 0.58552 0.30803 0.0
C445 C 0.82365 0.565 0.47325 0.0
C446 C 0.81122 0.61073 0.35162 0.0
C447 C 0.8097 0.61319 0.45459 0.0
H448 H 0.29318 0.83249 0.28573 0.0
H449 H 0.17871 0.79221 0.25692 0.0
H450 H 0.17256 0.7905 0.43703 0.0
H451 H 0.19958 0.80056 0.60278 0.0
H452 H 0.31407 0.84098 0.63159 0.0
H453 H 0.32019 0.84253 0.4515 0.0
C454 C 0.26687 0.82331 0.31876 0.0
C455 C 0.23649 0.81256 0.25772 0.0
C456 C 0.26348 0.82245 0.42248 0.0
C457 C 0.2026 0.80073 0.30198 0.0
C458 C 0.19902 0.79972 0.40507 0.0
C459 C 0.2259 0.80974 0.56977 0.0
C460 C 0.2563 0.82066 0.63082 0.0
C461 C 0.22927 0.81057 0.46604 0.0
C462 C 0.29018 0.83245 0.58655 0.0
C463 C 0.29374 0.83333 0.48346 0.0
H464 H 0.39162 0.18996 0.68295 0.0
H465 H 0.47892 0.29901 0.71607 0.0
H466 H 0.48388 0.30609 0.53641 0.0
H467 H 0.46343 0.28153 0.36958 0.0
H468 H 0.37604 0.17252 0.3365 0.0
H469 H 0.37119 0.16539 0.51613 0.0
C470 C 0.41175 0.21527 0.65092 0.0
C471 C 0.43481 0.24387 0.71304 0.0
C472 C 0.41445 0.21926 0.54738 0.0
C473 C 0.46076 0.2765 0.67013 0.0
C474 C 0.46364 0.28063 0.56727 0.0
C475 C 0.44327 0.25623 0.40162 0.0
C476 C 0.42013 0.22767 0.3395 0.0
C477 C 0.4406 0.25223 0.50516 0.0
C478 C 0.39423 0.19502 0.38242 0.0
C479 C 0.39141 0.19086 0.48527 0.0
loop_
_geom_bond_atom_site_label_1
_geom_bond_atom_site_label_2
_geom_bond_distance
_geom_bond_site_symmetry_2
_ccdc_geom_bond_type
Zn0 O1 2.055 . S
Zn0 O8 2.046 . S
Zn0 N16 2.036 1_554 S
Zn0 O28 2.053 1_554 S
Zn0 O30 2.066 . S
O1 Zn0 2.055 . S
O1 C4 1.259 . S
C2 O30 1.256 . S
C2 O31 1.244 . S
Zn3 O5 2.046 . S
Zn3 O7 2.055 . S
Zn3 N9 2.036 . S
Zn3 O27 2.066 1_554 S
Zn3 O31 2.053 . S
C4 O1 1.259 . S
C4 O5 1.254 . S
O5 Zn3 2.046 . S
O5 C4 1.254 . S
C6 O27 1.256 . S
C6 O28 1.244 . S
O7 Zn3 2.055 . S
O7 C29 1.259 . S
O8 Zn0 2.046 . S
O8 C29 1.255 . S
N9 Zn3 2.036 . S
N9 C10 1.298 1_554 S
N9 N12 1.398 . S
C10 N9 1.298 1_556 S
C10 N13 1.367 . S
C10 C23 1.481 . S
C11 N12 1.299 . S
C11 N13 1.379 1_554 S
N12 N9 1.398 . S
N12 C11 1.299 . S
N13 C10 1.367 . S
N13 C11 1.379 1_556 S
C14 N16 1.298 1_554 S
C14 N18 1.367 1_554 S
C14 C22 1.481 . S
C15 N17 1.299 . S
C15 N18 1.379 . S
N16 Zn0 2.036 1_556 S
N16 C14 1.298 1_556 S
N16 N17 1.398 . S
N17 C15 1.299 . S
N17 N16 1.398 . S
N18 C14 1.367 1_556 S
N18 C15 1.379 . S
H19 C22 0.980 . S
H20 C22 0.981 . S
H21 C22 0.981 . S
C22 C14 1.481 . S
C22 H19 0.980 . S
C22 H20 0.981 . S
C22 H21 0.981 . S
C23 C10 1.481 . S
C23 H24 0.980 . S
C23 H25 0.981 . S
C23 H26 0.981 . S
H24 C23 0.980 . S
H25 C23 0.981 . S
H26 C23 0.981 . S
O27 Zn3 2.066 1_556 S
O27 C6 1.256 . S
O28 Zn0 2.053 1_556 S
O28 C6 1.244 . S
C29 O7 1.259 . S
C29 O8 1.255 . S
O30 Zn0 2.066 . S
O30 C2 1.256 . S
O31 C2 1.244 . S
O31 Zn3 2.053 . S
Zn32 O33 2.055 . S
Zn32 O40 2.046 . S
Zn32 N48 2.036 1_554 S
Zn32 O60 2.053 1_554 S
Zn32 O62 2.066 . S
O33 Zn32 2.055 . S
O33 C36 1.259 . S
C34 O62 1.256 . S
C34 O63 1.244 . S
Zn35 O37 2.046 . S
Zn35 O39 2.055 . S
Zn35 N41 2.036 . S
Zn35 O59 2.066 1_554 S
Zn35 O63 2.053 . S
C36 O33 1.259 . S
C36 O37 1.254 . S
O37 Zn35 2.046 . S
O37 C36 1.254 . S
C38 O59 1.256 . S
C38 O60 1.244 . S
O39 Zn35 2.055 . S
O39 C61 1.259 . S
O40 Zn32 2.046 . S
O40 C61 1.255 . S
N41 Zn35 2.036 . S
N41 C42 1.298 1_554 S
N41 N44 1.398 . S
C42 N41 1.298 1_556 S
C42 N45 1.367 . S
C42 C55 1.481 . S
C43 N44 1.299 . S
C43 N45 1.379 1_554 S
N44 N41 1.398 . S
N44 C43 1.299 . S
N45 C42 1.367 . S
N45 C43 1.379 1_556 S
C46 N48 1.298 1_554 S
C46 N50 1.367 1_554 S
C46 C54 1.481 . S
C47 N49 1.299 . S
C47 N50 1.379 . S
N48 Zn32 2.036 1_556 S
N48 C46 1.298 1_556 S
N48 N49 1.398 . S
N49 C47 1.299 . S
N49 N48 1.398 . S
N50 C46 1.367 1_556 S
N50 C47 1.379 . S
H51 C54 0.980 . S
H52 C54 0.981 . S
H53 C54 0.981 . S
C54 C46 1.481 . S
C54 H51 0.980 . S
C54 H52 0.981 . S
C54 H53 0.981 . S
C55 C42 1.481 . S
C55 H56 0.980 . S
C55 H57 0.981 . S
C55 H58 0.981 . S
H56 C55 0.980 . S
H57 C55 0.981 . S
H58 C55 0.981 . S
O59 Zn35 2.066 1_556 S
O59 C38 1.256 . S
O60 Zn32 2.053 1_556 S
O60 C38 1.244 . S
C61 O39 1.259 . S
C61 O40 1.255 . S
O62 Zn32 2.066 . S
O62 C34 1.256 . S
O63 C34 1.244 . S
O63 Zn35 2.053 . S
Zn64 O65 2.055 . S
Zn64 O72 2.046 . S
Zn64 N80 2.036 1_554 S
Zn64 O92 2.053 1_554 S
Zn64 O94 2.066 . S
O65 Zn64 2.055 . S
O65 C68 1.259 . S
C66 O94 1.256 . S
C66 O95 1.244 . S
Zn67 O69 2.046 . S
Zn67 O71 2.055 . S
Zn67 N73 2.036 . S
Zn67 O91 2.066 1_554 S
Zn67 O95 2.053 . S
C68 O65 1.259 . S
C68 O69 1.254 . S
O69 Zn67 2.046 . S
O69 C68 1.254 . S
C70 O91 1.256 . S
C70 O92 1.244 . S
O71 Zn67 2.055 . S
O71 C93 1.259 . S
O72 Zn64 2.046 . S
O72 C93 1.255 . S
N73 Zn67 2.036 . S
N73 C74 1.298 1_554 S
N73 N76 1.398 . S
C74 N73 1.298 1_556 S
C74 N77 1.367 . S
C74 C87 1.481 . S
C75 N76 1.299 . S
C75 N77 1.379 1_554 S
N76 N73 1.398 . S
N76 C75 1.299 . S
N77 C74 1.367 . S
N77 C75 1.379 1_556 S
C78 N80 1.298 1_554 S
C78 N82 1.367 1_554 S
C78 C86 1.481 . S
C79 N81 1.299 . S
C79 N82 1.379 . S
N80 Zn64 2.036 1_556 S
N80 C78 1.298 1_556 S
N80 N81 1.398 . S
N81 C79 1.299 . S
N81 N80 1.398 . S
N82 C78 1.367 1_556 S
N82 C79 1.379 . S
H83 C86 0.980 . S
H84 C86 0.981 . S
H85 C86 0.981 . S
C86 C78 1.481 . S
C86 H83 0.980 . S
C86 H84 0.981 . S
C86 H85 0.981 . S
C87 C74 1.481 . S
C87 H88 0.980 . S
C87 H89 0.981 . S
C87 H90 0.981 . S
H88 C87 0.980 . S
H89 C87 0.981 . S
H90 C87 0.981 . S
O91 Zn67 2.066 1_556 S
O91 C70 1.256 . S
O92 Zn64 2.053 1_556 S
O92 C70 1.244 . S
C93 O71 1.259 . S
C93 O72 1.255 . S
O94 Zn64 2.066 . S
O94 C66 1.256 . S
O95 C66 1.244 . S
O95 Zn67 2.053 . S
Zn96 O97 2.055 . S
Zn96 O104 2.046 . S
Zn96 N112 2.036 1_554 S
Zn96 O124 2.053 1_554 S
Zn96 O126 2.066 . S
O97 Zn96 2.055 . S
O97 C100 1.259 . S
C98 O126 1.256 . S
C98 O127 1.244 . S
Zn99 O101 2.046 . S
Zn99 O103 2.055 . S
Zn99 N105 2.036 . S
Zn99 O123 2.066 1_554 S
Zn99 O127 2.053 . S
C100 O97 1.259 . S
C100 O101 1.254 . S
O101 Zn99 2.046 . S
O101 C100 1.254 . S
C102 O123 1.256 . S
C102 O124 1.244 . S
O103 Zn99 2.055 . S
O103 C125 1.259 . S
O104 Zn96 2.046 . S
O104 C125 1.255 . S
N105 Zn99 2.036 . S
N105 C106 1.298 1_554 S
N105 N108 1.398 . S
C106 N105 1.298 1_556 S
C106 N109 1.367 . S
C106 C119 1.481 . S
C107 N108 1.299 . S
C107 N109 1.379 1_554 S
N108 N105 1.398 . S
N108 C107 1.299 . S
N109 C106 1.367 . S
N109 C107 1.379 1_556 S
C110 N112 1.298 1_554 S
C110 N114 1.367 1_554 S
C110 C118 1.481 . S
C111 N113 1.299 . S
C111 N114 1.379 . S
N112 Zn96 2.036 1_556 S
N112 C110 1.298 1_556 S
N112 N113 1.398 . S
N113 C111 1.299 . S
N113 N112 1.398 . S
N114 C110 1.367 1_556 S
N114 C111 1.379 . S
H115 C118 0.980 . S
H116 C118 0.981 . S
H117 C118 0.981 . S
C118 C110 1.481 . S
C118 H115 0.980 . S
C118 H116 0.981 . S
C118 H117 0.981 . S
C119 C106 1.481 . S
C119 H120 0.980 . S
C119 H121 0.981 . S
C119 H122 0.981 . S
H120 C119 0.980 . S
H121 C119 0.981 . S
H122 C119 0.981 . S
O123 Zn99 2.066 1_556 S
O123 C102 1.256 . S
O124 Zn96 2.053 1_556 S
O124 C102 1.244 . S
C125 O103 1.259 . S
C125 O104 1.255 . S
O126 Zn96 2.066 . S
O126 C98 1.256 . S
O127 C98 1.244 . S
O127 Zn99 2.053 . S
Zn128 O129 2.055 . S
Zn128 O136 2.046 . S
Zn128 N144 2.036 1_554 S
Zn128 O156 2.053 1_554 S
Zn128 O158 2.066 . S
O129 Zn128 2.055 . S
O129 C132 1.259 . S
C130 O158 1.256 . S
C130 O159 1.244 . S
Zn131 O133 2.046 . S
Zn131 O135 2.055 . S
Zn131 N137 2.036 . S
Zn131 O155 2.066 1_554 S
Zn131 O159 2.053 . S
C132 O129 1.259 . S
C132 O133 1.254 . S
O133 Zn131 2.046 . S
O133 C132 1.254 . S
C134 O155 1.256 . S
C134 O156 1.244 . S
O135 Zn131 2.055 . S
O135 C157 1.259 . S
O136 Zn128 2.046 . S
O136 C157 1.255 . S
N137 Zn131 2.036 . S
N137 C138 1.298 1_554 S
N137 N140 1.398 . S
C138 N137 1.298 1_556 S
C138 N141 1.367 . S
C138 C151 1.481 . S
C139 N140 1.299 . S
C139 N141 1.379 1_554 S
N140 N137 1.398 . S
N140 C139 1.299 . S
N141 C138 1.367 . S
N141 C139 1.379 1_556 S
C142 N144 1.298 1_554 S
C142 N146 1.367 1_554 S
C142 C150 1.481 . S
C143 N145 1.299 . S
C143 N146 1.379 . S
N144 Zn128 2.036 1_556 S
N144 C142 1.298 1_556 S
N144 N145 1.398 . S
N145 C143 1.299 . S
N145 N144 1.398 . S
N146 C142 1.367 1_556 S
N146 C143 1.379 . S
H147 C150 0.980 . S
H148 C150 0.981 . S
H149 C150 0.981 . S
C150 C142 1.481 . S
C150 H147 0.980 . S
C150 H148 0.981 . S
C150 H149 0.981 . S
C151 C138 1.481 . S
C151 H152 0.980 . S
C151 H153 0.981 . S
C151 H154 0.981 . S
H152 C151 0.980 . S
H153 C151 0.981 . S
H154 C151 0.981 . S
O155 Zn131 2.066 1_556 S
O155 C134 1.256 . S
O156 Zn128 2.053 1_556 S
O156 C134 1.244 . S
C157 O135 1.259 . S
C157 O136 1.255 . S
O158 Zn128 2.066 . S
O158 C130 1.256 . S
O159 C130 1.244 . S
O159 Zn131 2.053 . S
Zn160 O161 2.055 . S
Zn160 O168 2.046 . S
Zn160 N176 2.036 1_554 S
Zn160 O188 2.053 1_554 S
Zn160 O190 2.066 . S
O161 Zn160 2.055 . S
O161 C164 1.259 . S
C162 O190 1.256 . S
C162 O191 1.244 . S
Zn163 O165 2.046 . S
Zn163 O167 2.055 . S
Zn163 N169 2.036 . S
Zn163 O187 2.066 1_554 S
Zn163 O191 2.053 . S
C164 O161 1.259 . S
C164 O165 1.254 . S
O165 Zn163 2.046 . S
O165 C164 1.254 . S
C166 O187 1.256 . S
C166 O188 1.244 . S
O167 Zn163 2.055 . S
O167 C189 1.259 . S
O168 Zn160 2.046 . S
O168 C189 1.255 . S
N169 Zn163 2.036 . S
N169 C170 1.298 1_554 S
N169 N172 1.398 . S
C170 N169 1.298 1_556 S
C170 N173 1.367 . S
C170 C183 1.481 . S
C171 N172 1.299 . S
C171 N173 1.379 1_554 S
N172 N169 1.398 . S
N172 C171 1.299 . S
N173 C170 1.367 . S
N173 C171 1.379 1_556 S
C174 N176 1.298 1_554 S
C174 N178 1.367 1_554 S
C174 C182 1.481 . S
C175 N177 1.299 . S
C175 N178 1.379 . S
N176 Zn160 2.036 1_556 S
N176 C174 1.298 1_556 S
N176 N177 1.398 . S
N177 C175 1.299 . S
N177 N176 1.398 . S
N178 C174 1.367 1_556 S
N178 C175 1.379 . S
H179 C182 0.980 . S
H180 C182 0.981 . S
H181 C182 0.981 . S
C182 C174 1.481 . S
C182 H179 0.980 . S
C182 H180 0.981 . S
C182 H181 0.981 . S
C183 C170 1.481 . S
C183 H184 0.980 . S
C183 H185 0.981 . S
C183 H186 0.981 . S
H184 C183 0.980 . S
H185 C183 0.981 . S
H186 C183 0.981 . S
O187 Zn163 2.066 1_556 S
O187 C166 1.256 . S
O188 Zn160 2.053 1_556 S
O188 C166 1.244 . S
C189 O167 1.259 . S
C189 O168 1.255 . S
O190 Zn160 2.066 . S
O190 C162 1.256 . S
O191 C162 1.244 . S
O191 Zn163 2.053 . S
H192 C198 0.930 . S
H193 C201 0.930 . S
H194 C202 0.930 . S
H195 C203 0.930 . S
H196 C206 0.930 . S
H197 C207 0.930 . S
C198 H192 0.930 . S
C198 C199 1.355 1_554 S
C198 C200 1.415 . S
C199 C198 1.355 1_556 S
C199 C201 1.419 . S
C200 C198 1.415 . S
C200 C205 1.425 1_554 S
C200 C207 1.409 . S
C201 H193 0.930 . S
C201 C199 1.419 . S
C201 C202 1.362 . S
C202 H194 0.930 . S
C202 C201 1.362 . S
C202 C205 1.409 . S
C203 H195 0.930 . S
C203 C204 1.355 . S
C203 C205 1.415 . S
C204 C203 1.355 . S
C204 C206 1.419 1_556 S
C205 C200 1.425 1_556 S
C205 C202 1.409 . S
C205 C203 1.415 . S
C206 H196 0.930 . S
C206 C204 1.419 1_554 S
C206 C207 1.362 . S
C207 H197 0.930 . S
C207 C200 1.409 . S
C207 C206 1.362 . S
H208 C214 0.930 . S
H209 C217 0.930 . S
H210 C218 0.930 . S
H211 C219 0.930 . S
H212 C222 0.930 . S
H213 C223 0.930 . S
C214 H208 0.930 . S
C214 C215 1.355 . S
C214 C216 1.415 . S
C215 C214 1.355 . S
C215 C217 1.419 . S
C216 C214 1.415 . S
C216 C221 1.425 . S
C216 C223 1.409 . S
C217 H209 0.930 . S
C217 C215 1.419 . S
C217 C218 1.362 . S
C218 H210 0.930 . S
C218 C217 1.362 . S
C218 C221 1.409 . S
C219 H211 0.930 . S
C219 C220 1.355 . S
C219 C221 1.415 1_655 S
C220 C219 1.355 . S
C220 C222 1.419 . S
C221 C216 1.425 . S
C221 C218 1.409 . S
C221 C219 1.415 1_455 S
C222 H212 0.930 . S
C222 C220 1.419 . S
C222 C223 1.362 1_655 S
C223 H213 0.930 . S
C223 C216 1.409 . S
C223 C222 1.362 1_455 S
H224 C230 0.930 . S
H225 C233 0.930 . S
H226 C234 0.930 . S
H227 C235 0.930 . S
H228 C238 0.930 . S
H229 C239 0.930 . S
C230 H224 0.930 . S
C230 C231 1.355 . S
C230 C232 1.415 . S
C231 C230 1.355 . S
C231 C233 1.419 1_556 S
C232 C230 1.415 . S
C232 C237 1.425 . S
C232 C239 1.409 . S
C233 H225 0.930 . S
C233 C231 1.419 1_554 S
C233 C234 1.362 . S
C234 H226 0.930 . S
C234 C233 1.362 . S
C234 C237 1.409 1_554 S
C235 H227 0.930 . S
C235 C236 1.355 . S
C235 C237 1.415 1_565 S
C236 C235 1.355 . S
C236 C238 1.419 . S
C237 C232 1.425 . S
C237 C234 1.409 1_556 S
C237 C235 1.415 1_545 S
C238 H228 0.930 . S
C238 C236 1.419 . S
C238 C239 1.362 1_565 S
C239 H229 0.930 . S
C239 C232 1.409 . S
C239 C238 1.362 1_545 S
H240 C246 0.930 . S
H241 C249 0.930 . S
H242 C250 0.930 . S
H243 C251 0.930 . S
H244 C254 0.930 . S
H245 C255 0.930 . S
C246 H240 0.930 . S
C246 C247 1.355 . S
C246 C248 1.415 . S
C247 C246 1.355 . S
C247 C249 1.419 1_556 S
C248 C246 1.415 . S
C248 C253 1.425 1_556 S
C248 C255 1.409 . S
C249 H241 0.930 . S
C249 C247 1.419 1_554 S
C249 C250 1.362 . S
C250 H242 0.930 . S
C250 C249 1.362 . S
C250 C253 1.409 . S
C251 H243 0.930 . S
C251 C252 1.355 1_554 S
C251 C253 1.415 . S
C252 C251 1.355 1_556 S
C252 C254 1.419 . S
C253 C248 1.425 1_554 S
C253 C250 1.409 . S
C253 C251 1.415 . S
C254 H244 0.930 . S
C254 C252 1.419 . S
C254 C255 1.362 . S
C255 H245 0.930 . S
C255 C248 1.409 . S
C255 C254 1.362 . S
H256 C262 0.930 . S
H257 C265 0.930 . S
H258 C266 0.930 . S
H259 C267 0.930 . S
H260 C270 0.930 . S
H261 C271 0.930 . S
C262 H256 0.930 . S
C262 C263 1.355 . S
C262 C264 1.415 1_455 S
C263 C262 1.355 . S
C263 C265 1.419 1_556 S
C264 C262 1.415 1_655 S
C264 C269 1.425 1_556 S
C264 C271 1.409 . S
C265 H257 0.930 . S
C265 C263 1.419 1_554 S
C265 C266 1.362 1_455 S
C266 H258 0.930 . S
C266 C265 1.362 1_655 S
C266 C269 1.409 . S
C267 H259 0.930 . S
C267 C268 1.355 1_554 S
C267 C269 1.415 . S
C268 C267 1.355 1_556 S
C268 C270 1.419 . S
C269 C264 1.425 1_554 S
C269 C266 1.409 . S
C269 C267 1.415 . S
C270 H260 0.930 . S
C270 C268 1.419 . S
C270 C271 1.362 . S
C271 H261 0.930 . S
C271 C264 1.409 . S
C271 C270 1.362 . S
H272 C278 0.930 . S
H273 C281 0.930 . S
H274 C282 0.930 . S
H275 C283 0.930 . S
H276 C286 0.930 . S
H277 C287 0.930 . S
C278 H272 0.930 . S
C278 C279 1.355 . S
C278 C280 1.415 . S
C279 C278 1.355 . S
C279 C281 1.419 1_556 S
C280 C278 1.415 . S
C280 C285 1.425 1_556 S
C280 C287 1.409 . S
C281 H273 0.930 . S
C281 C279 1.419 1_554 S
C281 C282 1.362 . S
C282 H274 0.930 . S
C282 C281 1.362 . S
C282 C285 1.409 . S
C283 H275 0.930 . S
C283 C284 1.355 1_554 S
C283 C285 1.415 1_545 S
C284 C283 1.355 1_556 S
C284 C286 1.419 . S
C285 C280 1.425 1_554 S
C285 C282 1.409 . S
C285 C283 1.415 1_565 S
C286 H276 0.930 . S
C286 C284 1.419 . S
C286 C287 1.362 1_545 S
C287 H277 0.930 . S
C287 C280 1.409 . S
C287 C286 1.362 1_565 S
H288 C294 0.930 . S
H289 C297 0.930 1_556 S
H290 C298 0.930 . S
H291 C299 0.930 . S
H292 C302 0.930 . S
H293 C303 0.930 . S
C294 H288 0.930 . S
C294 C295 1.355 . S
C294 C296 1.415 . S
C295 C294 1.355 . S
C295 C297 1.419 . S
C296 C294 1.415 . S
C296 C301 1.425 . S
C296 C303 1.409 . S
C297 H289 0.930 1_554 S
C297 C295 1.419 . S
C297 C298 1.362 1_554 S
C298 H290 0.930 . S
C298 C297 1.362 1_556 S
C298 C301 1.409 1_556 S
C299 H291 0.930 . S
C299 C300 1.355 1_556 S
C299 C301 1.415 1_556 S
C300 C299 1.355 1_554 S
C300 C302 1.419 . S
C301 C296 1.425 . S
C301 C298 1.409 1_554 S
C301 C299 1.415 1_554 S
C302 H292 0.930 . S
C302 C300 1.419 . S
C302 C303 1.362 . S
C303 H293 0.930 . S
C303 C296 1.409 . S
C303 C302 1.362 . S
H304 C310 0.930 . S
H305 C313 0.930 . S
H306 C314 0.930 . S
H307 C315 0.930 . S
H308 C318 0.930 . S
H309 C319 0.930 . S
C310 H304 0.930 . S
C310 C311 1.355 . S
C310 C312 1.415 . S
C311 C310 1.355 . S
C311 C313 1.419 1_554 S
C312 C310 1.415 . S
C312 C317 1.425 1_554 S
C312 C319 1.409 . S
C313 H305 0.930 . S
C313 C311 1.419 1_556 S
C313 C314 1.362 . S
C314 H306 0.930 . S
C314 C313 1.362 . S
C314 C317 1.409 . S
C315 H307 0.930 . S
C315 C316 1.355 1_556 S
C315 C317 1.415 . S
C316 C315 1.355 1_554 S
C316 C318 1.419 . S
C317 C312 1.425 1_556 S
C317 C314 1.409 . S
C317 C315 1.415 . S
C318 H308 0.930 . S
C318 C316 1.419 . S
C318 C319 1.362 . S
C319 H309 0.930 . S
C319 C312 1.409 . S
C319 C318 1.362 . S
H320 C326 0.930 . S
H321 C329 0.930 . S
H322 C330 0.930 . S
H323 C331 0.930 . S
H324 C334 0.930 . S
H325 C335 0.930 . S
C326 H320 0.930 . S
C326 C327 1.355 . S
C326 C328 1.415 . S
C327 C326 1.355 . S
C327 C329 1.419 1_554 S
C328 C326 1.415 . S
C328 C333 1.425 1_554 S
C328 C335 1.409 . S
C329 H321 0.930 . S
C329 C327 1.419 1_556 S
C329 C330 1.362 . S
C330 H322 0.930 . S
C330 C329 1.362 . S
C330 C333 1.409 . S
C331 H323 0.930 . S
C331 C332 1.355 1_556 S
C331 C333 1.415 . S
C332 C331 1.355 1_554 S
C332 C334 1.419 . S
C333 C328 1.425 1_556 S
C333 C330 1.409 . S
C333 C331 1.415 . S
C334 H324 0.930 . S
C334 C332 1.419 . S
C334 C335 1.362 . S
C335 H325 0.930 . S
C335 C328 1.409 . S
C335 C334 1.362 . S
H336 C342 0.930 . S
H337 C345 0.930 . S
H338 C346 0.930 . S
H339 C347 0.930 . S
H340 C350 0.930 . S
H341 C351 0.930 . S
C342 H336 0.930 . S
C342 C343 1.355 1_556 S
C342 C344 1.415 . S
C343 C342 1.355 1_554 S
C343 C345 1.419 . S
C344 C342 1.415 . S
C344 C349 1.425 1_556 S
C344 C351 1.409 . S
C345 H337 0.930 . S
C345 C343 1.419 . S
C345 C346 1.362 . S
C346 H338 0.930 . S
C346 C345 1.362 . S
C346 C349 1.409 . S
C347 H339 0.930 . S
C347 C348 1.355 . S
C347 C349 1.415 . S
C348 C347 1.355 . S
C348 C350 1.419 1_554 S
C349 C344 1.425 1_554 S
C349 C346 1.409 . S
C349 C347 1.415 . S
C350 H340 0.930 . S
C350 C348 1.419 1_556 S
C350 C351 1.362 . S
C351 H341 0.930 . S
C351 C344 1.409 . S
C351 C350 1.362 . S
H352 C358 0.930 1_556 S
H353 C361 0.930 . S
H354 C362 0.930 . S
H355 C363 0.930 . S
H356 C366 0.930 . S
H357 C367 0.930 . S
C358 H352 0.930 1_554 S
C358 C359 1.355 . S
C358 C360 1.415 . S
C359 C358 1.355 . S
C359 C361 1.419 . S
C360 C358 1.415 . S
C360 C365 1.425 . S
C360 C367 1.409 1_554 S
C361 H353 0.930 . S
C361 C359 1.419 . S
C361 C362 1.362 . S
C362 H354 0.930 . S
C362 C361 1.362 . S
C362 C365 1.409 . S
C363 H355 0.930 . S
C363 C364 1.355 . S
C363 C365 1.415 . S
C364 C363 1.355 . S
C364 C366 1.419 1_554 S
C365 C360 1.425 . S
C365 C362 1.409 . S
C365 C363 1.415 . S
C366 H356 0.930 . S
C366 C364 1.419 1_556 S
C366 C367 1.362 . S
C367 H357 0.930 . S
C367 C360 1.409 1_556 S
C367 C366 1.362 . S
H368 C374 0.930 . S
H369 C377 0.930 1_556 S
H370 C378 0.930 . S
H371 C379 0.930 1_556 S
H372 C382 0.930 . S
H373 C383 0.930 . S
C374 H368 0.930 . S
C374 C375 1.355 . S
C374 C376 1.415 . S
C375 C374 1.355 . S
C375 C377 1.419 . S
C376 C374 1.415 . S
C376 C381 1.425 . S
C376 C383 1.409 . S
C377 H369 0.930 1_554 S
C377 C375 1.419 . S
C377 C378 1.362 1_554 S
C378 H370 0.930 . S
C378 C377 1.362 1_556 S
C378 C381 1.409 1_556 S
C379 H371 0.930 1_554 S
C379 C380 1.355 . S
C379 C381 1.415 . S
C380 C379 1.355 . S
C380 C382 1.419 . S
C381 C376 1.425 . S
C381 C378 1.409 1_554 S
C381 C379 1.415 . S
C382 H372 0.930 . S
C382 C380 1.419 . S
C382 C383 1.362 . S
C383 H373 0.930 . S
C383 C376 1.409 . S
C383 C382 1.362 . S
H384 C390 0.930 . S
H385 C393 0.930 . S
H386 C394 0.930 . S
H387 C395 0.930 . S
H388 C398 0.930 . S
H389 C399 0.930 . S
C390 H384 0.930 . S
C390 C391 1.355 . S
C390 C392 1.415 . S
C391 C390 1.355 . S
C391 C393 1.419 . S
C392 C390 1.415 . S
C392 C397 1.425 . S
C392 C399 1.409 . S
C393 H385 0.930 . S
C393 C391 1.419 . S
C393 C394 1.362 . S
C394 H386 0.930 . S
C394 C393 1.362 . S
C394 C397 1.409 . S
C395 H387 0.930 . S
C395 C396 1.355 . S
C395 C397 1.415 . S
C396 C395 1.355 . S
C396 C398 1.419 . S
C397 C392 1.425 . S
C397 C394 1.409 . S
C397 C395 1.415 . S
C398 H388 0.930 . S
C398 C396 1.419 . S
C398 C399 1.362 . S
C399 H389 0.930 . S
C399 C392 1.409 . S
C399 C398 1.362 . S
H400 C406 0.930 . S
H401 C409 0.930 . S
H402 C410 0.930 . S
H403 C411 0.930 . S
H404 C414 0.930 . S
H405 C415 0.930 . S
C406 H400 0.930 . S
C406 C407 1.355 . S
C406 C408 1.415 . S
C407 C406 1.355 . S
C407 C409 1.419 . S
C408 C406 1.415 . S
C408 C413 1.425 . S
C408 C415 1.409 . S
C409 H401 0.930 . S
C409 C407 1.419 . S
C409 C410 1.362 . S
C410 H402 0.930 . S
C410 C409 1.362 . S
C410 C413 1.409 . S
C411 H403 0.930 . S
C411 C412 1.355 . S
C411 C413 1.415 . S
C412 C411 1.355 . S
C412 C414 1.419 . S
C413 C408 1.425 . S
C413 C410 1.409 . S
C413 C411 1.415 . S
C414 H404 0.930 . S
C414 C412 1.419 . S
C414 C415 1.362 . S
C415 H405 0.930 . S
C415 C408 1.409 . S
C415 C414 1.362 . S
H416 C422 0.930 . S
H417 C425 0.930 . S
H418 C426 0.930 . S
H419 C427 0.930 . S
H420 C430 0.930 . S
H421 C431 0.930 . S
C422 H416 0.930 . S
C422 C423 1.355 . S
C422 C424 1.415 . S
C423 C422 1.355 . S
C423 C425 1.419 . S
C424 C422 1.415 . S
C424 C429 1.425 . S
C424 C431 1.409 . S
C425 H417 0.930 . S
C425 C423 1.419 . S
C425 C426 1.362 . S
C426 H418 0.930 . S
C426 C425 1.362 . S
C426 C429 1.409 . S
C427 H419 0.930 . S
C427 C428 1.355 . S
C427 C429 1.415 . S
C428 C427 1.355 . S
C428 C430 1.419 . S
C429 C424 1.425 . S
C429 C426 1.409 . S
C429 C427 1.415 . S
C430 H420 0.930 . S
C430 C428 1.419 . S
C430 C431 1.362 . S
C431 H421 0.930 . S
C431 C424 1.409 . S
C431 C430 1.362 . S
H432 C438 0.930 . S
H433 C441 0.930 . S
H434 C442 0.930 . S
H435 C443 0.930 . S
H436 C446 0.930 . S
H437 C447 0.930 . S
C438 H432 0.930 . S
C438 C439 1.355 . S
C438 C440 1.415 . S
C439 C438 1.355 . S
C439 C441 1.419 . S
C440 C438 1.415 . S
C440 C445 1.425 . S
C440 C447 1.409 . S
C441 H433 0.930 . S
C441 C439 1.419 . S
C441 C442 1.362 . S
C442 H434 0.930 . S
C442 C441 1.362 . S
C442 C445 1.409 . S
C443 H435 0.930 . S
C443 C444 1.355 . S
C443 C445 1.415 . S
C444 C443 1.355 . S
C444 C446 1.419 . S
C445 C440 1.425 . S
C445 C442 1.409 . S
C445 C443 1.415 . S
C446 H436 0.930 . S
C446 C444 1.419 . S
C446 C447 1.362 . S
C447 H437 0.930 . S
C447 C440 1.409 . S
C447 C446 1.362 . S
H448 C454 0.930 . S
H449 C457 0.930 . S
H450 C458 0.930 . S
H451 C459 0.930 . S
H452 C462 0.930 . S
H453 C463 0.930 . S
C454 H448 0.930 . S
C454 C455 1.355 . S
C454 C456 1.415 . S
C455 C454 1.355 . S
C455 C457 1.419 . S
C456 C454 1.415 . S
C456 C461 1.425 . S
C456 C463 1.409 . S
C457 H449 0.930 . S
C457 C455 1.419 . S
C457 C458 1.362 . S
C458 H450 0.930 . S
C458 C457 1.362 . S
C458 C461 1.409 . S
C459 H451 0.930 . S
C459 C460 1.355 . S
C459 C461 1.415 . S
C460 C459 1.355 . S
C460 C462 1.419 . S
C461 C456 1.425 . S
C461 C458 1.409 . S
C461 C459 1.415 . S
C462 H452 0.930 . S
C462 C460 1.419 . S
C462 C463 1.362 . S
C463 H453 0.930 . S
C463 C456 1.409 . S
C463 C462 1.362 . S
H464 C470 0.930 . S
H465 C473 0.930 . S
H466 C474 0.930 . S
H467 C475 0.930 . S
H468 C478 0.930 . S
H469 C479 0.930 . S
C470 H464 0.930 . S
C470 C471 1.355 . S
C470 C472 1.415 . S
C471 C470 1.355 . S
C471 C473 1.419 . S
C472 C470 1.415 . S
C472 C477 1.425 . S
C472 C479 1.409 . S
C473 H465 0.930 . S
C473 C471 1.419 . S
C473 C474 1.362 . S
C474 H466 0.930 . S
C474 C473 1.362 . S
C474 C477 1.409 . S
C475 H467 0.930 . S
C475 C476 1.355 . S
C475 C477 1.415 . S
C476 C475 1.355 . S
C476 C478 1.419 . S
C477 C472 1.425 . S
C477 C474 1.409 . S
C477 C475 1.415 . S
C478 H468 0.930 . S
C478 C476 1.419 . S
C478 C479 1.362 . S
C479 H469 0.930 . S
C479 C472 1.409 . S
C479 C478 1.362 . S
C199 C189 1.484 1_556 S
C204 N13 1.292 . S
C215 C29 1.460 1_556 S
C220 N45 1.374 . S
C231 C61 1.474 1_556 S
C236 N77 1.327 . S
C247 N109 1.293 . S
C252 C93 1.484 1_556 S
C263 N141 1.354 . S
C268 C125 1.466 1_556 S
C279 C157 1.458 1_556 S
C284 N173 1.380 . S
C295 C130 1.535 . S
C300 N18 1.530 1_554 S
C311 C162 1.539 . S
C316 N50 1.558 1_554 S
C327 N82 1.531 1_554 S
C332 C2 1.534 . S
C343 N114 1.545 1_554 S
C348 C34 1.528 . S
C359 N146 1.542 1_554 S
C364 C66 1.529 . S
C375 C98 1.547 . S
C380 N178 1.554 1_554 S
C391 C6 1.527 . S
C396 C4 1.522 . S
C407 C38 1.523 . S
C412 C36 1.517 . S
C423 C70 1.505 . S
C428 C68 1.490 . S
C439 C102 1.503 . S
C444 C100 1.487 . S
C455 C132 1.485 . S
C460 C134 1.501 . S
C471 C166 1.508 . S
C476 C164 1.495 . S
