# Generated by pormake.
# Topology lcy-e, (6)-cn, num edge types: 1
# Building blocks:
#     Node 0, Type 0, BuildingBlock: BETGAK_clean_sbu_0, # of connection points: 6
#     Node 1, Type 0, BuildingBlock: BETGAK_clean_sbu_0, # of connection points: 6
#     Node 2, Type 0, BuildingBlock: BETGAK_clean_sbu_0, # of connection points: 6
#     Node 3, Type 0, BuildingBlock: BETGAK_clean_sbu_0, # of connection points: 6
#     Node 4, Type 0, BuildingBlock: BETGAK_clean_sbu_0, # of connection points: 6
#     Node 5, Type 0, BuildingBlock: BETGAK_clean_sbu_0, # of connection points: 6
#     Node 6, Type 0, BuildingBlock: BETGAK_clean_sbu_0, # of connection points: 6
#     Node 7, Type 0, BuildingBlock: BETGAK_clean_sbu_0, # of connection points: 6
#     Node 8, Type 0, BuildingBlock: BETGAK_clean_sbu_0, # of connection points: 6
#     Node 9, Type 0, BuildingBlock: BETGAK_clean_sbu_0, # of connection points: 6
#     Node 10, Type 0, BuildingBlock: BETGAK_clean_sbu_0, # of connection points: 6
#     Node 11, Type 0, BuildingBlock: BETGAK_clean_sbu_0, # of connection points: 6
#     Edge 12, Type (0, 0), BuildingBlock: MIFKUJ_clean_linker_0, # of connection points: 2
#     Edge 13, Type (0, 0), BuildingBlock: MIFKUJ_clean_linker_0, # of connection points: 2
#     Edge 14, Type (0, 0), BuildingBlock: MIFKUJ_clean_linker_0, # of connection points: 2
#     Edge 15, Type (0, 0), BuildingBlock: MIFKUJ_clean_linker_0, # of connection points: 2
#     Edge 16, Type (0, 0), BuildingBlock: MIFKUJ_clean_linker_0, # of connection points: 2
#     Edge 17, Type (0, 0), BuildingBlock: MIFKUJ_clean_linker_0, # of connection points: 2
#     Edge 18, Type (0, 0), BuildingBlock: MIFKUJ_clean_linker_0, # of connection points: 2
#     Edge 19, Type (0, 0), BuildingBlock: MIFKUJ_clean_linker_0, # of connection points: 2
#     Edge 20, Type (0, 0), BuildingBlock: MIFKUJ_clean_linker_0, # of connection points: 2
#     Edge 21, Type (0, 0), BuildingBlock: MIFKUJ_clean_linker_0, # of connection points: 2
#     Edge 22, Type (0, 0), BuildingBlock: MIFKUJ_clean_linker_0, # of connection points: 2
#     Edge 23, Type (0, 0), BuildingBlock: MIFKUJ_clean_linker_0, # of connection points: 2
#     Edge 24, Type (0, 0), BuildingBlock: MIFKUJ_clean_linker_0, # of connection points: 2
#     Edge 25, Type (0, 0), BuildingBlock: MIFKUJ_clean_linker_0, # of connection points: 2
#     Edge 26, Type (0, 0), BuildingBlock: MIFKUJ_clean_linker_0, # of connection points: 2
#     Edge 27, Type (0, 0), BuildingBlock: MIFKUJ_clean_linker_0, # of connection points: 2
#     Edge 28, Type (0, 0), BuildingBlock: MIFKUJ_clean_linker_0, # of connection points: 2
#     Edge 29, Type (0, 0), BuildingBlock: MIFKUJ_clean_linker_0, # of connection points: 2
#     Edge 30, Type (0, 0), BuildingBlock: MIFKUJ_clean_linker_0, # of connection points: 2
#     Edge 31, Type (0, 0), BuildingBlock: MIFKUJ_clean_linker_0, # of connection points: 2
#     Edge 32, Type (0, 0), BuildingBlock: MIFKUJ_clean_linker_0, # of connection points: 2
#     Edge 33, Type (0, 0), BuildingBlock: MIFKUJ_clean_linker_0, # of connection points: 2
#     Edge 34, Type (0, 0), BuildingBlock: MIFKUJ_clean_linker_0, # of connection points: 2
#     Edge 35, Type (0, 0), BuildingBlock: MIFKUJ_clean_linker_0, # of connection points: 2
#     Edge 36, Type (0, 0), BuildingBlock: MIFKUJ_clean_linker_0, # of connection points: 2
#     Edge 37, Type (0, 0), BuildingBlock: MIFKUJ_clean_linker_0, # of connection points: 2
#     Edge 38, Type (0, 0), BuildingBlock: MIFKUJ_clean_linker_0, # of connection points: 2
#     Edge 39, Type (0, 0), BuildingBlock: MIFKUJ_clean_linker_0, # of connection points: 2
#     Edge 40, Type (0, 0), BuildingBlock: MIFKUJ_clean_linker_0, # of connection points: 2
#     Edge 41, Type (0, 0), BuildingBlock: MIFKUJ_clean_linker_0, # of connection points: 2
#     Edge 42, Type (0, 0), BuildingBlock: MIFKUJ_clean_linker_0, # of connection points: 2
#     Edge 43, Type (0, 0), BuildingBlock: MIFKUJ_clean_linker_0, # of connection points: 2
#     Edge 44, Type (0, 0), BuildingBlock: MIFKUJ_clean_linker_0, # of connection points: 2
#     Edge 45, Type (0, 0), BuildingBlock: MIFKUJ_clean_linker_0, # of connection points: 2
#     Edge 46, Type (0, 0), BuildingBlock: MIFKUJ_clean_linker_0, # of connection points: 2
#     Edge 47, Type (0, 0), BuildingBlock: MIFKUJ_clean_linker_0, # of connection points: 2
# Relax obj value: 0.201
# Max RMSD: 0.304
# Mean RMSD: 0.280
data_MOF--net-lcy-e--node1-BETGAK_clean_sbu_0--edge1-MIFKUJ_clean_linker_0
_symmetry_space_group_name_H-M    P1
_symmetry_Int_Tables_number       1
_symmetry_cell_setting            triclinic
loop_
_symmetry_equiv_pos_as_xyz
'x, y, z'
_cell_length_a     56.117985
_cell_length_b     51.894385
_cell_length_c     56.031362
_cell_angle_alpha  89.413457
_cell_angle_beta   90.750258
_cell_angle_gamma 88.802803
loop_
_atom_site_label
_atom_site_type_symbol
_atom_site_fract_x
_atom_site_fract_y
_atom_site_fract_z
_atom_type_partial_charge
La0 La 0.14519 0.24998 0.47478 0.0
La1 La 0.16359 0.20673 0.50607 0.0
C2 C 0.13901 0.28565 0.44416 0.0
C3 C 0.15076 0.29341 0.42184 0.0
C4 C 0.13664 0.30123 0.40215 0.0
C5 C 0.14716 0.30807 0.38056 0.0
C6 C 0.17209 0.30727 0.37819 0.0
C7 C 0.18625 0.29925 0.39794 0.0
C8 C 0.17568 0.29231 0.41955 0.0
C9 C 0.1171 0.21019 0.47762 0.0
C10 C 0.18927 0.2138 0.45816 0.0
C11 C 0.16622 0.16622 0.53142 0.0
C12 C 0.15117 0.15032 0.54699 0.0
C13 C 0.16102 0.14022 0.56831 0.0
C14 C 0.14828 0.12291 0.58225 0.0
C15 C 0.12539 0.11522 0.57513 0.0
C16 C 0.11521 0.12599 0.55411 0.0
C17 C 0.12796 0.14342 0.54017 0.0
C18 C 0.18965 0.24901 0.50717 0.0
C19 C 0.12544 0.24717 0.52634 0.0
O20 O 0.12807 0.26369 0.44343 0.0
O21 O 0.15096 0.28832 0.46416 0.0
O22 O 0.10984 0.23398 0.47679 0.0
O23 O 0.1396 0.20899 0.47601 0.0
O24 O 0.17735 0.23605 0.45612 0.0
O25 O 0.1849 0.19719 0.4754 0.0
O26 O 0.17217 0.18893 0.53919 0.0
O27 O 0.16089 0.16663 0.50861 0.0
O28 O 0.19827 0.22582 0.51067 0.0
O29 O 0.16741 0.24757 0.50549 0.0
O30 O 0.1336 0.22297 0.52632 0.0
O31 O 0.13006 0.26328 0.50845 0.0
H32 H 0.11739 0.30211 0.40348 0.0
H33 H 0.13574 0.31452 0.36586 0.0
H34 H 0.20549 0.29821 0.39664 0.0
H35 H 0.18698 0.28611 0.43443 0.0
H36 H 0.17891 0.14514 0.57385 0.0
H37 H 0.15676 0.1148 0.59818 0.0
H38 H 0.09749 0.12072 0.54834 0.0
H39 H 0.11986 0.151 0.52383 0.0
La40 La 1.01544 0.85398 0.73085 0.0
La41 La 0.05486 0.86824 0.76583 0.0
C42 C 0.97968 0.85706 0.70312 0.0
C43 C 0.97332 0.8699 0.67995 0.0
C44 C 0.97619 0.85677 0.6583 0.0
C45 C 0.96863 0.86812 0.63663 0.0
C46 C 0.95779 0.89282 0.63604 0.0
C47 C 0.95541 0.9062 0.65763 0.0
C48 C 0.96302 0.89488 0.6793 0.0
C49 C 0.05348 0.82404 0.72948 0.0
C50 C 0.04948 0.90137 0.7191 0.0
C51 C 0.0926 0.8692 0.79095 0.0
C52 C 0.11176 0.85345 0.80295 0.0
C53 C 0.11456 0.85456 0.82784 0.0
C54 C 0.13484 0.84375 0.83922 0.0
C55 C 0.153 0.83163 0.82597 0.0
C56 C 0.14978 0.82987 0.80107 0.0
C57 C 0.12943 0.84055 0.78972 0.0
C58 C 1.01382 0.8944 0.76983 0.0
C59 C 0.01966 0.82316 0.77886 0.0
O60 O 0.9955 0.83812 0.70278 0.0
O61 O 0.98273 0.872 0.72159 0.0
O62 O 0.03198 0.81665 0.72477 0.0
O63 O 0.05351 0.84822 0.73259 0.0
O64 O 0.03154 0.88675 0.71264 0.0
O65 O 0.06173 0.89747 0.7391 0.0
O66 O 0.07117 0.86955 0.80003 0.0
O67 O 0.09204 0.86954 0.76759 0.0
O68 O 0.03441 0.90372 0.77548 0.0
O69 O 0.01716 0.87128 0.76466 0.0
O70 O 0.04187 0.83152 0.78037 0.0
O71 O 1.00456 0.83213 0.76215 0.0
H72 H 0.98381 0.83742 0.65812 0.0
H73 H 0.97044 0.8571 0.62042 0.0
H74 H 0.94735 0.92535 0.65784 0.0
H75 H 0.96041 0.90556 0.6956 0.0
H76 H 0.10152 0.8648 0.83847 0.0
H77 H 0.13672 0.84601 0.85833 0.0
H78 H 0.16316 0.8206 0.79019 0.0
H79 H 0.12807 0.83952 0.77047 0.0
La80 La 0.38521 0.77242 1.01307 0.0
La81 La 0.39902 0.73711 0.97234 0.0
C82 C 0.38331 0.80098 0.04931 0.0
C83 C 0.39684 0.82144 0.06139 0.0
C84 C 0.40183 0.84493 0.04994 0.0
C85 C 0.41253 0.86488 0.0626 0.0
C86 C 0.41848 0.86181 0.08698 0.0
C87 C 0.41415 0.83795 0.09811 0.0
C88 C 0.4034 0.81808 0.08549 0.0
C89 C 0.35617 0.7748 0.97588 0.0
C90 C 0.4295 0.78596 0.97962 0.0
C91 C 0.40022 0.71156 0.93407 0.0
C92 C 0.38562 0.69931 0.91509 0.0
C93 C 0.38941 0.67307 0.91014 0.0
C94 C 0.37919 0.662 0.88981 0.0
C95 C 0.36503 0.67694 0.87373 0.0
C96 C 0.36047 0.70299 0.87922 0.0
C97 C 0.37061 0.71404 0.89964 0.0
C98 C 0.42451 0.73115 1.01275 0.0
C99 C 0.35782 0.72095 1.00743 0.0
O100 O 0.37307 0.80673 0.02875 0.0
O101 O 0.39286 0.77776 0.04956 0.0
O102 O 0.3498 0.7778 0.9978 0.0
O103 O 0.37868 0.77243 0.97496 0.0
O104 O 0.41834 0.78959 1.00008 0.0
O105 O 0.42321 0.76786 0.96459 0.0
O106 O 0.40136 0.70088 0.95537 0.0
O107 O 0.39966 0.73675 0.93502 0.0
O108 O 0.4329 0.72653 0.99168 0.0
O109 O 0.40279 0.73634 1.01019 0.0
O110 O 0.36582 0.72049 0.98523 0.0
O111 O 0.36546 0.73813 0.02304 0.0
H112 H 0.39698 0.84815 0.03136 0.0
H113 H 0.4154 0.88301 0.05344 0.0
H114 H 0.41891 0.83465 0.1167 0.0
H115 H 0.39977 0.80017 0.09474 0.0
H116 H 0.40114 0.66132 0.92149 0.0
H117 H 0.38332 0.64197 0.88612 0.0
H118 H 0.34937 0.71501 0.8675 0.0
H119 H 0.36733 0.73435 0.90281 0.0
La120 La 0.54275 0.11995 0.23392 0.0
La121 La 0.50214 0.11137 0.26961 0.0
C122 C 0.57992 0.11237 0.20981 0.0
C123 C 0.58728 0.10233 0.18636 0.0
C124 C 0.57232 0.10414 0.16607 0.0
C125 C 0.58043 0.09558 0.14384 0.0
C126 C 0.60365 0.0851 0.14148 0.0
C127 C 0.61822 0.08266 0.16207 0.0
C128 C 0.61011 0.09117 0.18421 0.0
C129 C 0.50476 0.1488 0.22602 0.0
C130 C 0.50646 0.07334 0.2264 0.0
C131 C 0.46431 0.11332 0.2938 0.0
C132 C 0.44538 0.12801 0.30654 0.0
C133 C 0.43944 0.12002 0.3297 0.0
C134 C 0.41897 0.1298 0.34079 0.0
C135 C 0.40393 0.14806 0.32909 0.0
C136 C 0.41044 0.15704 0.30634 0.0
C137 C 0.43078 0.1469 0.29506 0.0
C138 C 0.54299 0.08559 0.27827 0.0
C139 C 0.53781 0.15701 0.27756 0.0
O140 O 0.56781 0.13426 0.20992 0.0
O141 O 0.57161 0.09555 0.22499 0.0
O142 O 0.52588 0.15462 0.21882 0.0
O143 O 0.50491 0.1259 0.23393 0.0
O144 O 0.52525 0.08614 0.21903 0.0
O145 O 0.49428 0.08006 0.24549 0.0
O146 O 0.48569 0.11086 0.30339 0.0
O147 O 0.46482 0.1147 0.27045 0.0
O148 O 0.52224 0.07736 0.28449 0.0
O149 O 0.53995 0.10778 0.26978 0.0
O150 O 0.51535 0.14961 0.27911 0.0
O151 O 0.5531 0.14505 0.26325 0.0
H152 H 0.55455 0.11251 0.16734 0.0
H153 H 0.56876 0.09786 0.12839 0.0
H154 H 0.63598 0.07422 0.16109 0.0
H155 H 0.62185 0.08931 0.19968 0.0
H156 H 0.4501 0.10525 0.33888 0.0
H157 H 0.41462 0.12265 0.3584 0.0
H158 H 0.39917 0.17097 0.29678 0.0
H159 H 0.43446 0.1531 0.27703 0.0
La160 La 0.64655 0.24165 0.552 0.0
La161 La 0.65986 0.28874 0.52264 0.0
C162 C 0.6468 0.20117 0.57741 0.0
C163 C 0.65677 0.19261 0.60087 0.0
C164 C 0.64159 0.18176 0.61777 0.0
C165 C 0.65052 0.173 0.6399 0.0
C166 C 0.67492 0.17469 0.64559 0.0
C167 C 0.69013 0.18569 0.6287 0.0
C168 C 0.68114 0.19469 0.60661 0.0
C169 C 0.61666 0.28096 0.55397 0.0
C170 C 0.68671 0.28018 0.57105 0.0
C171 C 0.66068 0.33117 0.50024 0.0
C172 C 0.6472 0.34898 0.48418 0.0
C173 C 0.65989 0.36761 0.47168 0.0
C174 C 0.6479 0.38672 0.45823 0.0
C175 C 0.62285 0.38764 0.45693 0.0
C176 C 0.6101 0.36831 0.46879 0.0
C177 C 0.62219 0.34918 0.48245 0.0
C178 C 0.68812 0.24749 0.51885 0.0
C179 C 0.62331 0.24869 0.50154 0.0
O180 O 0.62982 0.21882 0.57784 0.0
O181 O 0.6619 0.20533 0.56023 0.0
O182 O 0.61042 0.25708 0.55466 0.0
O183 O 0.6391 0.28231 0.55372 0.0
O184 O 0.67608 0.25769 0.573 0.0
O185 O 0.68143 0.29681 0.55371 0.0
O186 O 0.66857 0.30937 0.49146 0.0
O187 O 0.6528 0.32853 0.52202 0.0
O188 O 0.69563 0.27091 0.51703 0.0
O189 O 0.66597 0.24838 0.52074 0.0
O190 O 0.62913 0.27331 0.50288 0.0
O191 O 0.63132 0.23136 0.51745 0.0
H192 H 0.62278 0.17986 0.61375 0.0
H193 H 0.63838 0.16432 0.65236 0.0
H194 H 0.70898 0.18741 0.63258 0.0
H195 H 0.69331 0.20307 0.594 0.0
H196 H 0.67918 0.36777 0.47279 0.0
H197 H 0.65828 0.40093 0.44893 0.0
H198 H 0.5908 0.36849 0.46813 0.0
H199 H 0.61206 0.33497 0.49206 0.0
La200 La 0.99523 0.37907 0.74985 0.0
La201 La 0.02624 0.36019 0.7917 0.0
C202 C 0.97009 0.3807 0.71222 0.0
C203 C 0.94698 0.37009 0.70468 0.0
C204 C 0.93051 0.38587 0.69204 0.0
C205 C 0.90861 0.37619 0.68451 0.0
C206 C 0.90278 0.35044 0.68939 0.0
C207 C 0.91926 0.33469 0.70221 0.0
C208 C 0.94111 0.34443 0.70985 0.0
C209 C 0.99161 0.40706 0.78823 0.0
C210 C 0.97936 0.33049 0.78192 0.0
C211 C 0.04831 0.35665 0.83123 0.0
C212 C 0.06024 0.37216 0.84985 0.0
C213 C 0.08489 0.36907 0.85384 0.0
C214 C 0.09598 0.38054 0.87347 0.0
C215 C 0.08267 0.39547 0.88962 0.0
C216 C 0.05812 0.39934 0.88506 0.0
C217 C 0.047 0.38762 0.86561 0.0
C218 C 0.03229 0.3355 0.75086 0.0
C219 C 0.04424 0.40538 0.75815 0.0
O220 O 0.9693 0.39856 0.72853 0.0
O221 O 0.98759 0.36403 0.7161 0.0
O222 O 0.98848 0.41584 0.76665 0.0
O223 O 0.99397 0.38272 0.788 0.0
O224 O 0.97516 0.34612 0.76342 0.0
O225 O 0.99799 0.33295 0.79626 0.0
O226 O 0.05872 0.35414 0.81054 0.0
O227 O 0.02512 0.3593 0.82899 0.0
O228 O 0.03587 0.32478 0.7717 0.0
O229 O 0.02797 0.35891 0.75401 0.0
O230 O 0.04358 0.39584 0.78023 0.0
O231 O 0.02821 0.39887 0.74174 0.0
H232 H 0.93466 0.4057 0.68785 0.0
H233 H 0.89642 0.38873 0.67445 0.0
H234 H 0.9152 0.31487 0.7065 0.0
H235 H 0.95341 0.33183 0.71971 0.0
H236 H 0.09549 0.35689 0.8423 0.0
H237 H 0.11482 0.37673 0.87652 0.0
H238 H 0.04734 0.41103 0.8968 0.0
H239 H 0.02789 0.39008 0.86345 0.0
La240 La 0.90108 0.74661 0.05179 0.0
La241 La 0.88926 0.70005 0.02226 0.0
C242 C 0.89955 0.78724 0.07622 0.0
C243 C 0.89046 0.79575 0.09968 0.0
C244 C 0.90669 0.80322 0.11745 0.0
C245 C 0.89863 0.81274 0.13924 0.0
C246 C 0.87408 0.81531 0.14376 0.0
C247 C 0.85782 0.80736 0.12609 0.0
C248 C 0.86591 0.79768 0.1043 0.0
C249 C 0.93196 0.70824 0.05594 0.0
C250 C 0.8608 0.70739 0.06908 0.0
C251 C 0.88983 0.65829 0.99943 0.0
C252 C 0.90445 0.64124 0.98404 0.0
C253 C 0.90646 0.64611 0.9594 0.0
C254 C 0.91714 0.62777 0.94452 0.0
C255 C 0.92605 0.60421 0.95394 0.0
C256 C 0.92446 0.59963 0.97859 0.0
C257 C 0.91384 0.61791 0.99347 0.0
C258 C 0.86119 0.74154 1.01576 0.0
C259 C 0.92638 0.74019 1.00307 0.0
O260 O 0.91757 0.77082 0.07663 0.0
O261 O 0.88384 0.78177 0.05963 0.0
O262 O 0.93723 0.73237 0.057 0.0
O263 O 0.90954 0.70592 0.05442 0.0
O264 O 0.8716 0.72968 0.07177 0.0
O265 O 0.86632 0.69133 0.05182 0.0
O266 O 0.88184 0.68031 0.99055 0.0
O267 O 0.89627 0.66013 0.0219 0.0
O268 O 0.8538 0.71811 1.01385 0.0
O269 O 0.88319 0.74047 0.01926 0.0
O270 O 0.92083 0.71551 1.00452 0.0
O271 O 0.9172 0.75738 0.01793 0.0
H272 H 0.9257 0.80198 0.1144 0.0
H273 H 0.91172 0.81817 0.15253 0.0
H274 H 0.83879 0.80928 0.12876 0.0
H275 H 0.85288 0.79214 0.09098 0.0
H276 H 0.89913 0.66371 0.95145 0.0
H277 H 0.91802 0.63179 0.92555 0.0
H278 H 0.9304 0.58135 0.98619 0.0
H279 H 0.91211 0.61328 1.01226 0.0
La280 La 0.55185 0.61141 0.25019 0.0
La281 La 0.51788 0.62864 0.28894 0.0
C282 C 0.57828 0.61065 0.21406 0.0
C283 C 0.60144 0.6213 0.20653 0.0
C284 C 0.62318 0.60907 0.21313 0.0
C285 C 0.64482 0.61828 0.20469 0.0
C286 C 0.64531 0.6399 0.18934 0.0
C287 C 0.62357 0.65231 0.18298 0.0
C288 C 0.60192 0.64307 0.1914 0.0
C289 C 0.55496 0.58421 0.28969 0.0
C290 C 0.56456 0.6598 0.28355 0.0
C291 C 0.49231 0.63228 0.3257 0.0
C292 C 0.47764 0.61816 0.34303 0.0
C293 C 0.46235 0.6325 0.35762 0.0
C294 C 0.44989 0.6206 0.37599 0.0
C295 C 0.45221 0.59386 0.38025 0.0
C296 C 0.46719 0.57933 0.36515 0.0
C297 C 0.47989 0.59139 0.34677 0.0
C298 C 0.51293 0.65239 0.24665 0.0
C299 C 0.50505 0.58102 0.25648 0.0
O300 O 0.57881 0.59279 0.23078 0.0
O301 O 0.56053 0.62713 0.21677 0.0
O302 O 0.55875 0.57499 0.26863 0.0
O303 O 0.5515 0.60837 0.28841 0.0
O304 O 0.56978 0.64539 0.2648 0.0
O305 O 0.54555 0.65584 0.2966 0.0
O306 O 0.48403 0.6356 0.3039 0.0
O307 O 0.5153 0.62744 0.32623 0.0
O308 O 0.50875 0.66349 0.2669 0.0
O309 O 0.51778 0.62919 0.25095 0.0
O310 O 0.50399 0.59118 0.27809 0.0
O311 O 0.52066 0.5891 0.24061 0.0
H312 H 0.62352 0.59206 0.2245 0.0
H313 H 0.66114 0.60798 0.2097 0.0
H314 H 0.62323 0.66918 0.17143 0.0
H315 H 0.5855 0.65283 0.1858 0.0
H316 H 0.46057 0.65321 0.35525 0.0
H317 H 0.43901 0.63264 0.38737 0.0
H318 H 0.46934 0.5587 0.36768 0.0
H319 H 0.49173 0.57993 0.33582 0.0
La320 La 0.23587 0.49257 0.1431 0.0
La321 La 0.26354 0.445 0.12923 0.0
C322 C 0.21135 0.53389 0.14312 0.0
C323 C 0.1875 0.54276 0.13419 0.0
C324 C 0.16821 0.54422 0.14993 0.0
C325 C 0.14586 0.55349 0.14205 0.0
C326 C 0.14231 0.56187 0.11832 0.0
C327 C 0.16155 0.56036 0.10252 0.0
C328 C 0.18387 0.5508 0.11033 0.0
C329 C 0.23347 0.45394 0.17336 0.0
C330 C 0.21483 0.45414 0.10356 0.0
C331 C 0.2865 0.40265 0.12844 0.0
C332 C 0.30425 0.38654 0.14199 0.0
C333 C 0.32779 0.3845 0.13389 0.0
C334 C 0.3438 0.36633 0.14396 0.0
C335 C 0.3366 0.34959 0.16228 0.0
C336 C 0.31336 0.35242 0.17114 0.0
C337 C 0.29733 0.37063 0.16107 0.0
C338 C 0.26735 0.4857 0.10069 0.0
C339 C 0.28602 0.48426 0.16605 0.0
O340 O 0.2117 0.51701 0.16064 0.0
O341 O 0.22763 0.52861 0.12723 0.0
O342 O 0.23372 0.47794 0.1794 0.0
O343 O 0.23306 0.45208 0.15088 0.0
O344 O 0.21368 0.47685 0.11416 0.0
O345 O 0.2319 0.43702 0.10858 0.0
O346 O 0.29388 0.42393 0.11849 0.0
O347 O 0.26514 0.40544 0.13734 0.0
O348 O 0.26804 0.4621 0.09331 0.0
O349 O 0.26671 0.48532 0.12298 0.0
O350 O 0.28422 0.45983 0.15961 0.0
O351 O 0.27042 0.50209 0.15834 0.0
H352 H 0.17045 0.53848 0.16848 0.0
H353 H 0.1315 0.55476 0.15475 0.0
H354 H 0.15935 0.56657 0.0841 0.0
H355 H 0.19834 0.55006 0.09773 0.0
H356 H 0.33363 0.39633 0.11912 0.0
H357 H 0.36169 0.36498 0.13699 0.0
H358 H 0.30716 0.33974 0.18511 0.0
H359 H 0.27927 0.3715 0.16763 0.0
La360 La 0.73655 0.98109 0.87922 0.0
La361 La 0.76795 0.02565 0.89346 0.0
C362 C 0.71048 0.94189 0.8793 0.0
C363 C 0.68776 0.93317 0.88989 0.0
C364 C 0.66731 0.93124 0.87533 0.0
C365 C 0.64621 0.9213 0.8844 0.0
C366 C 0.64498 0.91275 0.90827 0.0
C367 C 0.66536 0.91509 0.92299 0.0
C368 C 0.6865 0.9251 0.91391 0.0
C369 C 0.73384 0.02133 0.85076 0.0
C370 C 0.72158 0.01903 0.92239 0.0
C371 C 0.79161 0.06652 0.89376 0.0
C372 C 0.80743 0.08253 0.87909 0.0
C373 C 0.82681 0.09424 0.89031 0.0
C374 C 0.84076 0.11174 0.87787 0.0
C375 C 0.83568 0.118 0.85382 0.0
C376 C 0.81662 0.10565 0.84235 0.0
C377 C 0.80259 0.08809 0.85487 0.0
C378 C 0.77292 0.98271 0.91929 0.0
C379 C 0.78585 0.98617 0.85399 0.0
O380 O 0.70896 0.96029 0.86315 0.0
O381 O 0.72882 0.9447 0.89368 0.0
O382 O 0.73199 0.99773 0.84379 0.0
O383 O 0.73551 0.0221 0.8733 0.0
O384 O 0.71765 0.99773 0.9101 0.0
O385 O 0.73941 0.03434 0.91764 0.0
O386 O 0.80007 0.04422 0.90155 0.0
O387 O 0.76917 0.06547 0.88715 0.0
O388 O 0.77605 1.00555 0.92793 0.0
O389 O 0.76927 0.98498 0.89733 0.0
O390 O 0.78562 0.01028 0.86168 0.0
O391 O 0.76953 0.96957 0.86107 0.0
H392 H 0.6677 0.93711 0.85673 0.0
H393 H 0.63085 0.92025 0.87258 0.0
H394 H 0.66525 0.90846 0.94138 0.0
H395 H 0.70195 0.92604 0.92563 0.0
H396 H 0.83076 0.09043 0.90902 0.0
H397 H 0.85503 0.12107 0.88743 0.0
H398 H 0.81237 0.10978 0.82377 0.0
H399 H 0.78771 0.07933 0.84576 0.0
La400 La 0.77608 0.96055 0.40478 0.0
La401 La 0.81684 0.99513 0.39053 0.0
C402 C 0.73957 0.93279 0.40617 0.0
C403 C 0.72924 0.9104 0.39385 0.0
C404 C 0.71895 0.89094 0.40758 0.0
C405 C 0.7077 0.87027 0.39664 0.0
C406 C 0.70629 0.86856 0.37159 0.0
C407 C 0.71719 0.88779 0.35781 0.0
C408 C 0.72854 0.9085 0.36882 0.0
C409 C 0.81421 0.95625 0.43213 0.0
C410 C 0.8086 0.94641 0.35969 0.0
C411 C 0.85512 0.01979 0.38732 0.0
C412 C 0.87451 0.03393 0.39915 0.0
C413 C 0.89004 0.04773 0.38466 0.0
C414 C 0.91029 0.05908 0.39437 0.0
C415 C 0.91552 0.05703 0.41894 0.0
C416 C 0.8995 0.04386 0.43367 0.0
C417 C 0.87922 0.0322 0.42382 0.0
C418 C 0.77575 1.00267 0.36669 0.0
C419 C 0.78348 0.01131 0.43336 0.0
O420 O 0.7588 0.92835 0.41914 0.0
O421 O 0.74065 0.95446 0.39412 0.0
O422 O 0.79258 0.95363 0.43939 0.0
O423 O 0.81429 0.95929 0.40964 0.0
O424 O 0.78893 0.94238 0.3719 0.0
O425 O 0.82342 0.96487 0.36518 0.0
O426 O 0.83389 0.03067 0.38541 0.0
O427 O 0.85419 0.99495 0.39139 0.0
O428 O 0.79654 1.00651 0.35758 0.0
O429 O 0.77889 0.99704 0.38826 0.0
O430 O 0.80533 0.01142 0.42456 0.0
O431 O 0.7673 0.99483 0.42567 0.0
H432 H 0.71935 0.89189 0.4269 0.0
H433 H 0.70005 0.8556 0.4079 0.0
H434 H 0.7164 0.88725 0.33851 0.0
H435 H 0.73642 0.9232 0.35776 0.0
H436 H 0.88681 0.04921 0.36558 0.0
H437 H 0.92197 0.06942 0.38257 0.0
H438 H 0.90303 0.04191 0.45266 0.0
H439 H 0.86757 0.02143 0.43532 0.0
La440 La 0.31549 0.48548 0.63941 0.0
La441 La 0.28366 0.53026 0.62517 0.0
C442 C 0.34279 0.44624 0.64 0.0
C443 C 0.36652 0.43971 0.63021 0.0
C444 C 0.38561 0.43374 0.64589 0.0
C445 C 0.40814 0.42731 0.63709 0.0
C446 C 0.41199 0.42643 0.61238 0.0
C447 C 0.39292 0.43251 0.59665 0.0
C448 C 0.37044 0.43919 0.60546 0.0
C449 C 0.3181 0.52486 0.66826 0.0
C450 C 0.3298 0.52284 0.59562 0.0
C451 C 0.25908 0.57158 0.62451 0.0
C452 C 0.24509 0.58889 0.6401 0.0
C453 C 0.22168 0.59576 0.63324 0.0
C454 C 0.20879 0.61435 0.64585 0.0
C455 C 0.21902 0.62666 0.66565 0.0
C456 C 0.24235 0.61937 0.67284 0.0
C457 C 0.25524 0.60059 0.66027 0.0
C458 C 0.27807 0.4877 0.59963 0.0
C459 C 0.26708 0.49161 0.66546 0.0
O460 O 0.34237 0.46338 0.65694 0.0
O461 O 0.32519 0.44981 0.62469 0.0
O462 O 0.32041 0.50093 0.67472 0.0
O463 O 0.31615 0.52648 0.64566 0.0
O464 O 0.33421 0.5016 0.60841 0.0
O465 O 0.31154 0.53836 0.60009 0.0
O466 O 0.25031 0.54898 0.61982 0.0
O467 O 0.28223 0.5705 0.62781 0.0
O468 O 0.27475 0.5109 0.59118 0.0
O469 O 0.28228 0.48941 0.62155 0.0
O470 O 0.26751 0.51593 0.65806 0.0
O471 O 0.28281 0.47434 0.6575 0.0
H472 H 0.38305 0.43391 0.66503 0.0
H473 H 0.42241 0.42242 0.64963 0.0
H474 H 0.39543 0.43219 0.57752 0.0
H475 H 0.35616 0.44384 0.59285 0.0
H476 H 0.21357 0.58728 0.6176 0.0
H477 H 0.19107 0.61976 0.63946 0.0
H478 H 0.25072 0.62831 0.68807 0.0
H479 H 0.27329 0.59573 0.66602 0.0
H480 H 0.23436 0.25505 0.52694 0.0
H481 H 0.25214 0.2956 0.54021 0.0
H482 H 0.1908 0.33819 0.51289 0.0
H483 H 0.17232 0.29798 0.50149 0.0
H484 H 0.24532 0.35753 0.50418 0.0
H485 H 0.18459 0.32905 0.56103 0.0
H486 H 0.1698 0.2941 0.58653 0.0
H487 H 0.23479 0.29414 0.62782 0.0
H488 H 0.25066 0.32789 0.60146 0.0
H489 H 0.25651 0.4815 0.55571 0.0
H490 H 0.24273 0.44135 0.53814 0.0
H491 H 0.2708 0.39878 0.59929 0.0
H492 H 0.28195 0.43896 0.61779 0.0
H493 H 0.23447 0.37755 0.58977 0.0
H494 H 0.29735 0.40165 0.53781 0.0
H495 H 0.31995 0.42923 0.51046 0.0
H496 H 0.26011 0.43339 0.46193 0.0
H497 H 0.23707 0.40601 0.4891 0.0
C498 C 0.22484 0.2731 0.52351 0.0
C499 C 0.20202 0.2733 0.51279 0.0
C500 C 0.23504 0.29623 0.53102 0.0
C501 C 0.22285 0.31992 0.52732 0.0
C502 C 0.20065 0.32019 0.5156 0.0
C503 C 0.19014 0.29713 0.50893 0.0
C504 C 0.23188 0.34417 0.5377 0.0
C505 C 0.2429 0.36211 0.52285 0.0
C506 C 0.22928 0.34968 0.56219 0.0
C507 C 0.21903 0.33064 0.57892 0.0
C508 C 0.19595 0.32126 0.57521 0.0
C509 C 0.18741 0.30156 0.58976 0.0
C510 C 0.20138 0.29183 0.60874 0.0
C511 C 0.224 0.30166 0.61308 0.0
C512 C 0.23286 0.32093 0.59821 0.0
C513 C 0.25977 0.46352 0.5653 0.0
C514 C 0.27089 0.46342 0.58792 0.0
C515 C 0.25209 0.44042 0.55514 0.0
C516 C 0.25618 0.41653 0.56694 0.0
C517 C 0.26735 0.41663 0.58955 0.0
C518 C 0.2742 0.43973 0.60003 0.0
C519 C 0.24834 0.39152 0.5563 0.0
C520 C 0.23725 0.37329 0.5711 0.0
C521 C 0.25169 0.38537 0.53188 0.0
C522 C 0.26542 0.40198 0.51559 0.0
C523 C 0.28896 0.40859 0.52138 0.0
C524 C 0.30186 0.42414 0.50589 0.0
C525 C 0.29146 0.43307 0.48449 0.0
C526 C 0.26814 0.42646 0.47852 0.0
C527 C 0.25516 0.4109 0.49394 0.0
H528 H 0.30147 0.44509 0.47251 0.0
H529 H 0.19462 0.27678 0.62015 0.0
H530 H 0.79682 0.93706 0.83862 0.0
H531 H 0.83445 0.92171 0.82156 0.0
H532 H 0.8611 0.99905 0.82305 0.0
H533 H 0.82348 0.0146 0.83918 0.0
H534 H 0.87623 0.9771 0.78468 0.0
H535 H 0.87325 0.95139 0.86751 0.0
H536 H 0.85712 0.92947 0.90288 0.0
H537 H 0.86569 0.85626 0.86871 0.0
H538 H 0.88129 0.87778 0.83287 0.0
H539 H 1.00181 0.94405 0.78275 0.0
H540 H 0.96228 0.96041 0.79487 0.0
H541 H 0.93339 0.8849 0.78471 0.0
H542 H 0.97232 0.8687 0.77252 0.0
H543 H 0.91974 0.90575 0.82701 0.0
H544 H 0.92191 0.93071 0.74445 0.0
H545 H 0.93902 0.9517 0.70911 0.0
H546 H 0.93329 0.02528 0.74318 0.0
H547 H 0.91647 1.00465 0.77891 0.0
C548 C 0.81052 0.95087 0.83491 0.0
C549 C 0.80707 0.97705 0.84049 0.0
C550 C 0.83217 0.94203 0.82535 0.0
C551 C 0.85097 0.95908 0.8215 0.0
C552 C 0.84705 0.9854 0.82593 0.0
C553 C 0.82541 0.99427 0.83525 0.0
C554 C 0.87502 0.94964 0.81378 0.0
C555 C 0.88579 0.96167 0.79415 0.0
C556 C 0.88755 0.92918 0.82578 0.0
C557 C 0.8781 0.91626 0.84734 0.0
C558 C 0.87145 0.93065 0.86742 0.0
C559 C 0.86242 0.9183 0.88756 0.0
C560 C 0.86028 0.89153 0.88796 0.0
C561 C 0.86725 0.87702 0.86829 0.0
C562 C 0.87613 0.88929 0.84805 0.0
C563 C 0.98695 0.93106 0.78301 0.0
C564 C 0.99018 0.90515 0.77656 0.0
C565 C 0.9644 0.94039 0.7899 0.0
C566 C 0.94482 0.92388 0.79062 0.0
C567 C 0.94817 0.898 0.78432 0.0
C568 C 0.97049 0.88881 0.77722 0.0
C569 C 0.92078 0.93322 0.79808 0.0
C570 C 0.91009 0.92118 0.81763 0.0
C571 C 0.90835 0.95359 0.78604 0.0
C572 C 0.91815 0.9661 0.76446 0.0
C573 C 0.92446 0.95134 0.74449 0.0
C574 C 0.93408 0.96317 0.72437 0.0
C575 C 0.9373 0.9898 0.72393 0.0
C576 C 0.93082 1.00465 0.74357 0.0
C577 C 0.92122 0.9929 0.76375 0.0
H578 H 0.94477 0.99893 0.70835 0.0
H579 H 0.85326 0.88201 0.9035 0.0
H580 H 0.34484 0.70875 0.05318 0.0
H581 H 0.32566 0.66938 0.06675 0.0
H582 H 0.31749 0.64516 0.99378 0.0
H583 H 0.33672 0.68429 0.98004 0.0
H584 H 0.28225 0.64457 0.05827 0.0
H585 H 0.33419 0.58024 0.99287 0.0
H586 H 0.37066 0.58155 0.96879 0.0
H587 H 0.40233 0.63298 0.01905 0.0
H588 H 0.36626 0.63158 0.04363 0.0
H589 H 0.24439 0.51221 0.06462 0.0
H590 H 0.25668 0.55321 0.04633 0.0
H591 H 0.32134 0.55039 0.08886 0.0
H592 H 0.30875 0.51007 0.10758 0.0
H593 H 0.3272 0.56429 0.03863 0.0
H594 H 0.28176 0.58591 0.10865 0.0
H595 H 0.2463 0.58503 0.13415 0.0
H596 H 0.20374 0.61922 0.07751 0.0
H597 H 0.23894 0.61998 0.05152 0.0
C598 C 0.3385 0.69535 0.03997 0.0
C599 C 0.34256 0.6996 1.01552 0.0
C600 C 0.32749 0.67285 0.04777 0.0
C601 C 0.32041 0.65418 0.0313 0.0
C602 C 0.32305 0.65917 1.00682 0.0
C603 C 0.33406 0.6816 0.99901 0.0
C604 C 0.31244 0.62855 0.03976 0.0
C605 C 0.29197 0.62702 0.05381 0.0
C606 C 0.32528 0.60562 0.03419 0.0
C607 C 0.34741 0.60598 0.01998 0.0
C608 C 0.349 0.59168 0.99886 0.0
C609 C 0.3696 0.59245 0.98512 0.0
C610 C 0.38878 0.60738 0.99237 0.0
C611 C 0.38746 0.62144 1.01345 0.0
C612 C 0.36694 0.62066 0.0273 0.0
C613 C 0.26139 0.52022 0.06964 0.0
C614 C 0.27584 0.50804 0.08718 0.0
C615 C 0.26832 0.54361 0.05935 0.0
C616 C 0.28993 0.55477 0.06626 0.0
C617 C 0.30469 0.54202 0.0832 0.0
C618 C 0.29753 0.51904 0.09382 0.0
C619 C 0.29686 0.58031 0.05681 0.0
C620 C 0.31725 0.58182 0.0427 0.0
C621 C 0.28408 0.60318 0.06249 0.0
C622 C 0.26292 0.60277 0.07807 0.0
C623 C 0.2648 0.59303 0.10155 0.0
C624 C 0.24477 0.59261 0.11611 0.0
C625 C 0.2228 0.6021 0.10746 0.0
C626 C 0.22079 0.61193 0.08419 0.0
C627 C 0.24078 0.61237 0.06954 0.0
H628 H 0.20733 0.60185 0.11879 0.0
H629 H 0.40467 0.60802 0.98166 0.0
H630 H 0.58638 0.10512 0.26858 0.0
H631 H 0.62553 0.08962 0.28256 0.0
H632 H 0.59264 0.02866 0.32222 0.0
H633 H 0.55308 0.04355 0.3074 0.0
H634 H 0.63138 0.06737 0.34595 0.0
H635 H 0.61621 1.00577 0.28138 0.0
H636 H 0.60437 0.99755 0.23962 0.0
H637 H 0.6615 0.04423 0.21488 0.0
H638 H 0.67352 0.0529 0.25652 0.0
H639 H 0.73278 1.00178 0.38833 0.0
H640 H 0.69384 0.01354 0.37198 0.0
H641 H 0.72623 0.03714 0.30602 0.0
H642 H 0.76539 0.02243 0.32172 0.0
H643 H 0.68727 0.01883 0.29425 0.0
H644 H 0.70512 0.08108 0.35203 0.0
H645 H 0.71787 0.09886 0.39064 0.0
H646 H 0.65851 0.0639 0.42493 0.0
H647 H 0.64545 0.04573 0.38652 0.0
C648 C 0.5874 0.0881 0.27989 0.0
C649 C 0.5666 0.07524 0.28649 0.0
C650 C 0.60983 0.07941 0.28801 0.0
C651 C 0.612 0.05796 0.30332 0.0
C652 C 0.59131 0.04522 0.31031 0.0
C653 C 0.56877 0.05365 0.30177 0.0
C654 C 0.636 0.04921 0.31203 0.0
C655 C 0.64351 0.05631 0.33493 0.0
C656 C 0.65225 0.03627 0.297 0.0
C657 C 0.64567 0.03008 0.27203 0.0
C658 C 0.6262 0.01433 0.26702 0.0
C659 C 0.61946 0.00958 0.24338 0.0
C660 C 0.63215 0.0204 0.22461 0.0
C661 C 0.6517 0.03584 0.22944 0.0
C662 C 0.65852 0.04063 0.25305 0.0
C663 C 0.73164 0.0087 0.37008 0.0
C664 C 0.75221 0.01054 0.35616 0.0
C665 C 0.70927 0.01611 0.36087 0.0
C666 C 0.70683 0.027 0.33788 0.0
C667 C 0.72742 0.02889 0.32383 0.0
C668 C 0.74986 0.02059 0.33284 0.0
C669 C 0.68281 0.03625 0.32879 0.0
C670 C 0.67528 0.02963 0.30562 0.0
C671 C 0.66685 0.05073 0.34325 0.0
C672 C 0.67446 0.06178 0.36642 0.0
C673 C 0.69486 0.07703 0.36783 0.0
C674 C 0.70215 0.08719 0.38969 0.0
C675 C 0.68911 0.08238 0.41027 0.0
C676 C 0.66864 0.06755 0.40899 0.0
C677 C 0.66126 0.05735 0.38716 0.0
H678 H 0.69483 0.09022 0.42719 0.0
H679 H 0.62685 0.01679 0.20632 0.0
H680 H 0.67006 0.20017 0.5127 0.0
H681 H 0.69115 0.16004 0.50451 0.0
H682 H 0.75806 0.19949 0.50586 0.0
H683 H 0.73668 0.24038 0.51426 0.0
H684 H 0.75342 0.16747 0.46708 0.0
H685 H 0.74593 0.15924 0.55105 0.0
H686 H 0.72541 0.16144 0.58962 0.0
H687 H 0.67686 0.1036 0.56656 0.0
H688 H 0.69696 0.1012 0.52773 0.0
H689 H 0.81222 0.04722 0.45345 0.0
H690 H 0.79994 0.08638 0.47406 0.0
H691 H 0.72667 0.06325 0.47034 0.0
H692 H 0.73875 0.02388 0.44953 0.0
H693 H 0.73997 0.08782 0.51448 0.0
H694 H 0.74452 0.10078 0.42913 0.0
H695 H 0.76472 0.09886 0.39033 0.0
H696 H 0.81899 0.14874 0.41665 0.0
H697 H 0.79932 0.15057 0.45576 0.0
C698 C 0.68929 0.2004 0.51161 0.0
C699 C 0.70175 0.2234 0.51438 0.0
C700 C 0.70135 0.17734 0.50695 0.0
C701 C 0.72622 0.17662 0.50499 0.0
C702 C 0.73885 0.19961 0.50751 0.0
C703 C 0.72668 0.22289 0.51229 0.0
C704 C 0.73841 0.15184 0.49916 0.0
C705 C 0.75102 0.15019 0.47777 0.0
C706 C 0.73482 0.12917 0.51287 0.0
C707 C 0.72291 0.13013 0.53639 0.0
C708 C 0.73081 0.14706 0.55414 0.0
C709 C 0.71925 0.14834 0.57607 0.0
C710 C 0.6998 0.13273 0.58052 0.0
C711 C 0.69193 0.1157 0.56309 0.0
C712 C 0.70345 0.11431 0.54113 0.0
C713 C 0.79351 0.05014 0.45735 0.0
C714 C 0.77642 0.03249 0.44956 0.0
C715 C 0.78655 0.07258 0.46917 0.0
C716 C 0.76239 0.07784 0.47349 0.0
C717 C 0.74543 0.0595 0.4672 0.0
C718 C 0.75237 0.03702 0.45527 0.0
C719 C 0.75466 0.10352 0.4823 0.0
C720 C 0.7428 0.10524 0.50412 0.0
C721 C 0.75898 0.1263 0.46905 0.0
C722 C 0.7706 0.12558 0.44544 0.0
C723 C 0.76085 0.11118 0.42669 0.0
C724 C 0.77219 0.11013 0.40464 0.0
C725 C 0.79315 0.12362 0.40105 0.0
C726 C 0.80277 0.13826 0.41947 0.0
C727 C 0.79154 0.13932 0.44158 0.0
H728 H 0.80191 0.12278 0.38397 0.0
H729 H 0.69084 0.13378 0.59749 0.0
H730 H 0.08412 0.41519 0.78497 0.0
H731 H 0.12208 0.43111 0.77102 0.0
H732 H 0.09192 0.44253 0.7004 0.0
H733 H 0.05396 0.42587 0.71408 0.0
H734 H 0.13324 0.4191 0.69704 0.0
H735 H 0.1051 0.49384 0.7382 0.0
H736 H 0.08895 0.51843 0.772 0.0
H737 H 0.15047 0.49709 0.8147 0.0
H738 H 0.16684 0.47208 0.78124 0.0
H739 H 0.23057 0.52185 0.68182 0.0
H740 H 0.19343 0.50809 0.69919 0.0
H741 H 0.21901 0.42909 0.69919 0.0
H742 H 0.25614 0.4427 0.68078 0.0
H743 H 0.17965 0.48661 0.73754 0.0
H744 H 0.17223 0.3888 0.68997 0.0
H745 H 0.1865 0.36735 0.6536 0.0
H746 H 0.19249 0.44083 0.61853 0.0
H747 H 0.178 0.46271 0.65462 0.0
C748 C 0.08535 0.4215 0.76655 0.0
C749 C 0.06587 0.41924 0.75067 0.0
C750 C 0.10716 0.43064 0.75859 0.0
C751 C 0.10996 0.43814 0.73464 0.0
C752 C 0.0903 0.43676 0.71893 0.0
C753 C 0.0685 0.42742 0.72684 0.0
C754 C 0.13361 0.44638 0.72578 0.0
C755 C 0.14336 0.4339 0.70589 0.0
C756 C 0.14685 0.46581 0.73715 0.0
C757 C 0.13708 0.48089 0.75728 0.0
C758 C 0.1151 0.49423 0.75486 0.0
C759 C 0.10592 0.50827 0.77394 0.0
C760 C 0.11865 0.50926 0.7955 0.0
C761 C 0.14062 0.49627 0.798 0.0
C762 C 0.14987 0.48219 0.77897 0.0
C763 C 0.2285 0.50153 0.68567 0.0
C764 C 0.24632 0.48335 0.67962 0.0
C765 C 0.20716 0.49368 0.6957 0.0
C766 C 0.20309 0.46747 0.70011 0.0
C767 C 0.22143 0.44938 0.69543 0.0
C768 C 0.24277 0.45721 0.68511 0.0
C769 C 0.17933 0.45935 0.70879 0.0
C770 C 0.16958 0.47177 0.72871 0.0
C771 C 0.16584 0.44032 0.69706 0.0
C772 C 0.17428 0.42739 0.67511 0.0
C773 C 0.17651 0.40037 0.67447 0.0
C774 C 0.18463 0.38814 0.6539 0.0
C775 C 0.19044 0.40271 0.63378 0.0
C776 C 0.18805 0.42956 0.63416 0.0
C777 C 0.17991 0.4419 0.65468 0.0
H778 H 0.19675 0.3932 0.61788 0.0
H779 H 0.11151 0.52014 0.81026 0.0
H780 H 0.77659 0.93626 0.89813 0.0
H781 H 0.78666 0.89469 0.91616 0.0
H782 H 0.79276 0.9302 0.98521 0.0
H783 H 0.78198 0.97239 0.96702 0.0
H784 H 0.82641 0.88031 0.93643 0.0
H785 H 0.77958 0.88275 0.02821 0.0
H786 H 0.74332 0.90184 0.04587 0.0
H787 H 0.7092 0.90483 0.97681 0.0
H788 H 0.74508 0.8854 0.95882 0.0
H789 H 0.87968 0.78907 1.01189 0.0
H790 H 0.86053 0.82855 0.99719 0.0
H791 H 0.79459 0.78862 0.98709 0.0
H792 H 0.8139 0.74844 1.00232 0.0
H793 H 0.78752 0.83853 1.00529 0.0
H794 H 0.82639 0.79933 0.9398 0.0
H795 H 0.85803 0.77893 0.91592 0.0
H796 H 0.90133 0.8455 0.92456 0.0
H797 H 0.87012 0.86613 0.94893 0.0
C798 C 0.77969 0.93531 0.91722 0.0
C799 C 0.77834 0.95763 0.93119 0.0
C800 C 0.78559 0.91145 0.9275 0.0
C801 C 0.79041 0.90919 0.95205 0.0
C802 C 0.78884 0.9314 0.96625 0.0
C803 C 0.78283 0.95549 0.95587 0.0
C804 C 0.79843 0.88376 0.96213 0.0
C805 C 0.81793 0.87125 0.95153 0.0
C806 C 0.78694 0.87155 0.98142 0.0
C807 C 0.76515 0.88289 0.99215 0.0
C808 C 0.76431 0.88739 0.01682 0.0
C809 C 0.74382 0.89828 0.02688 0.0
C810 C 0.724 0.90463 1.01246 0.0
C811 C 0.72459 0.9 0.98796 0.0
C812 C 0.74502 0.88908 0.97781 0.0
C813 C 0.86102 0.78858 1.00687 0.0
C814 C 0.84831 0.76555 1.00825 0.0
C815 C 0.8501 0.81125 0.99835 0.0
C816 C 0.82621 0.81153 0.99077 0.0
C817 C 0.81308 0.78881 0.99283 0.0
C818 C 0.82411 0.7659 1.00144 0.0
C819 C 0.81574 0.83543 0.97971 0.0
C820 C 0.79595 0.84766 0.99018 0.0
C821 C 0.82647 0.84714 0.95972 0.0
C822 C 0.84595 0.83421 0.94634 0.0
C823 C 0.8428 0.80947 0.93693 0.0
C824 C 0.86063 0.7979 0.92323 0.0
C825 C 0.88163 0.81095 0.91867 0.0
C826 C 0.88503 0.83543 0.9281 0.0
C827 C 0.86729 0.84705 0.94189 0.0
H828 H 0.89524 0.80211 0.90775 0.0
H829 H 0.70818 0.91308 0.02029 0.0
H830 H 0.49285 0.56693 0.21107 0.0
H831 H 0.45653 0.54543 0.19843 0.0
H832 H 0.4374 0.53421 0.27206 0.0
H833 H 0.47344 0.55611 0.28486 0.0
H834 H 0.43476 0.49988 0.20442 0.0
H835 H 0.37865 0.54789 0.27758 0.0
H836 H 0.38038 0.58553 0.30409 0.0
H837 H 0.42195 0.62587 0.25247 0.0
H838 H 0.42017 0.58862 0.22556 0.0
H839 H 0.31755 0.45331 0.19133 0.0
H840 H 0.35513 0.46574 0.2101 0.0
H841 H 0.34105 0.54494 0.18926 0.0
H842 H 0.30315 0.53279 0.17119 0.0
H843 H 0.36063 0.54371 0.23164 0.0
H844 H 0.37796 0.50328 0.15641 0.0
H845 H 0.37626 0.46786 0.12744 0.0
H846 H 0.41248 0.41709 0.17759 0.0
H847 H 0.41414 0.45216 0.20696 0.0
C848 C 0.4812 0.55939 0.22461 0.0
C849 C 0.48586 0.56358 0.24897 0.0
C850 C 0.46043 0.54707 0.21734 0.0
C851 C 0.44401 0.53867 0.23428 0.0
C852 C 0.4496 0.54097 0.25866 0.0
C853 C 0.47025 0.55346 0.26594 0.0
C854 C 0.42014 0.52992 0.22643 0.0
C855 C 0.41855 0.50932 0.21049 0.0
C856 C 0.39896 0.54254 0.234 0.0
C857 C 0.39947 0.56537 0.2497 0.0
C858 C 0.38804 0.56485 0.27185 0.0
C859 C 0.38905 0.58611 0.28695 0.0
C860 C 0.40134 0.60804 0.28 0.0
C861 C 0.4125 0.60884 0.25787 0.0
C862 C 0.4115 0.58766 0.24269 0.0
C863 C 0.32233 0.47343 0.191 0.0
C864 C 0.30744 0.49205 0.17964 0.0
C865 C 0.34389 0.48048 0.20164 0.0
C866 C 0.35119 0.50621 0.20069 0.0
C867 C 0.33586 0.52496 0.19021 0.0
C868 C 0.31417 0.51798 0.17986 0.0
C869 C 0.37516 0.51355 0.20966 0.0
C870 C 0.37679 0.53398 0.22579 0.0
C871 C 0.39637 0.50114 0.20182 0.0
C872 C 0.39599 0.48027 0.18394 0.0
C873 C 0.38549 0.48453 0.16127 0.0
C874 C 0.38453 0.46452 0.14479 0.0
C875 C 0.3942 0.44022 0.15069 0.0
C876 C 0.40497 0.43592 0.17305 0.0
C877 C 0.40595 0.45586 0.18961 0.0
H878 H 0.39337 0.42473 0.13794 0.0
H879 H 0.40217 0.62444 0.29175 0.0
H880 H 0.58432 0.16393 0.2906 0.0
H881 H 0.59889 0.18428 0.32694 0.0
H882 H 0.52735 0.20935 0.34343 0.0
H883 H 0.51244 0.18874 0.30719 0.0
H884 H 0.56908 0.2459 0.3548 0.0
H885 H 0.54178 0.15636 0.36478 0.0
H886 H 0.5438 0.1109 0.35236 0.0
H887 H 0.61883 0.10768 0.36853 0.0
H888 H 0.61734 0.1533 0.38046 0.0
H889 H 0.58421 0.26901 0.47794 0.0
H890 H 0.5685 0.25606 0.43891 0.0
H891 H 0.62425 0.19759 0.43472 0.0
H892 H 0.63825 0.20891 0.47455 0.0
H893 H 0.5906 0.17869 0.41539 0.0
H894 H 0.62343 0.26146 0.4047 0.0
H895 H 0.62982 0.30758 0.41213 0.0
H896 H 0.55692 0.32501 0.39284 0.0
H897 H 0.54997 0.2789 0.38567 0.0
C898 C 0.57171 0.17442 0.30151 0.0
C899 C 0.54714 0.17447 0.2961 0.0
C900 C 0.58011 0.18602 0.32232 0.0
C901 C 0.56415 0.19809 0.33792 0.0
C902 C 0.53992 0.20013 0.33157 0.0
C903 C 0.53144 0.18826 0.31089 0.0
C904 C 0.57216 0.20526 0.36224 0.0
C905 C 0.57357 0.23134 0.36824 0.0
C906 C 0.57899 0.18615 0.37929 0.0
C907 C 0.57948 0.15832 0.37332 0.0
C908 C 0.55872 0.146 0.36558 0.0
C909 C 0.55978 0.1202 0.35859 0.0
C910 C 0.58144 0.10642 0.35956 0.0
C911 C 0.60206 0.11837 0.3677 0.0
C912 C 0.60112 0.14419 0.37458 0.0
C913 C 0.59269 0.25307 0.46876 0.0
C914 C 0.61223 0.23976 0.47922 0.0
C915 C 0.58399 0.24589 0.44628 0.0
C916 C 0.59551 0.22623 0.4333 0.0
C917 C 0.61485 0.21274 0.44415 0.0
C918 C 0.6229 0.2192 0.46697 0.0
C919 C 0.58767 0.2197 0.40848 0.0
C920 C 0.58621 0.19357 0.40223 0.0
C921 C 0.58198 0.23885 0.39086 0.0
C922 C 0.58611 0.26666 0.3949 0.0
C923 C 0.60871 0.2751 0.40219 0.0
C924 C 0.61244 0.30124 0.40635 0.0
C925 C 0.59377 0.3192 0.40302 0.0
C926 C 0.57135 0.31106 0.39545 0.0
C927 C 0.5675 0.28492 0.39133 0.0
H928 H 0.59669 0.33943 0.40626 0.0
H929 H 0.58225 0.08649 0.35406 0.0
H930 H 0.10153 0.29346 0.53321 0.0
H931 H 0.0832 0.3088 0.57005 0.0
H932 H 0.10484 0.23813 0.60602 0.0
H933 H 0.12203 0.2222 0.56921 0.0
H934 H 0.05968 0.25153 0.61656 0.0
H935 H 0.13731 0.30494 0.63652 0.0
H936 H 0.16773 0.33597 0.62429 0.0
H937 H 0.11555 0.37733 0.58134 0.0
H938 H 0.08454 0.34746 0.59455 0.0
H939 H 0.04777 0.28619 0.74012 0.0
H940 H 0.06149 0.27063 0.70117 0.0
H941 H 0.04578 0.34559 0.67005 0.0
H942 H 0.03342 0.3613 0.70867 0.0
H943 H 0.08687 0.33079 0.65629 0.0
H944 H 1.01066 0.29043 0.6602 0.0
H945 H 0.9801 0.26313 0.6782 0.0
H946 H 0.02764 0.19737 0.67513 0.0
H947 H 0.05864 0.22436 0.65744 0.0
C948 C 0.10232 0.28118 0.54895 0.0
C949 C 0.11328 0.25659 0.54814 0.0
C950 C 0.09218 0.29017 0.57018 0.0
C951 C 0.09327 0.27502 0.59116 0.0
C952 C 0.10389 0.25034 0.59021 0.0
C953 C 0.11369 0.24121 0.56902 0.0
C954 C 0.08273 0.28414 0.61399 0.0
C955 C 0.06565 0.26886 0.62527 0.0
C956 C 0.09014 0.30688 0.62538 0.0
C957 C 0.10889 0.32342 0.61571 0.0
C958 C 0.13245 0.32045 0.62419 0.0
C959 C 0.14971 0.33802 0.61736 0.0
C960 C 0.14371 0.35829 0.60166 0.0
C961 C 0.12027 0.3614 0.59322 0.0
C962 C 0.10281 0.34428 0.60051 0.0
C963 C 0.04715 0.2992 0.72487 0.0
C964 C 0.03925 0.32488 0.72744 0.0
C965 C 0.05485 0.29029 0.70258 0.0
C966 C 0.05447 0.30686 0.68247 0.0
C967 C 0.04629 0.33237 0.68515 0.0
C968 C 0.03896 0.34128 0.70731 0.0
C969 C 0.06357 0.2984 0.65882 0.0
C970 C 0.08058 0.31362 0.64751 0.0
C971 C 0.0558 0.27581 0.64736 0.0
C972 C 0.03705 0.25948 0.65769 0.0
C973 C 1.01466 0.27018 0.6635 0.0
C974 C 0.99725 0.25476 0.67363 0.0
C975 C 1.00194 0.22855 0.67784 0.0
C976 C 0.02404 0.21769 0.67187 0.0
C977 C 0.04153 0.23303 0.66178 0.0
H978 H 0.98845 0.21663 0.68567 0.0
H979 H 0.15716 0.37172 0.59625 0.0
H980 H 0.97304 0.8159 0.79011 0.0
H981 H 0.95772 0.79859 0.82746 0.0
H982 H 0.0293 0.77906 0.85105 0.0
H983 H 0.04494 0.79671 0.81379 0.0
H984 H 0.98911 0.74076 0.86147 0.0
H985 H 1.00987 0.83286 0.86659 0.0
H986 H 1.00503 0.87734 0.85105 0.0
H987 H 0.92973 0.87517 0.86341 0.0
H988 H 0.93404 0.83048 0.87847 0.0
H989 H 0.96717 0.7207 0.98351 0.0
H990 H 0.98469 0.73326 0.9454 0.0
H991 H 0.92818 0.79022 0.93473 0.0
H992 H 0.9122 0.77928 0.97365 0.0
H993 H 0.96071 0.80922 0.916 0.0
H994 H 0.93232 0.72482 0.90681 0.0
H995 H 0.92671 0.67861 0.91485 0.0
H996 H 1.00118 0.66345 0.9034 0.0
H997 H 1.00729 0.70971 0.89551 0.0
C998 C 0.98555 0.80734 0.80292 0.0
C999 C 1.01027 0.80785 0.79901 0.0
C1000 C 0.97672 0.79752 0.8243 0.0
C1001 C 0.9924 0.78779 0.84205 0.0
C1002 C 0.01693 0.78652 0.83754 0.0
C1003 C 0.02583 0.79665 0.81626 0.0
C1004 C 0.98348 0.78145 0.86615 0.0
C1005 C 0.98315 0.75563 0.87363 0.0
C1006 C 0.9745 0.80084 0.88134 0.0
C1007 C 0.97226 0.82821 0.87344 0.0
C1008 C 0.99227 0.84181 0.86587 0.0
C1009 C 0.98961 0.86706 0.85712 0.0
C1010 C 0.96707 0.87904 0.85613 0.0
C1011 C 0.94717 0.86586 0.86409 0.0
C1012 C 0.94971 0.84057 0.87274 0.0
C1013 C 0.95887 0.73622 0.97309 0.0
C1014 C 0.9385 0.74916 0.98147 0.0
C1015 C 0.96861 0.74315 0.9511 0.0
C1016 C 0.95736 0.76216 0.93645 0.0
C1017 C 0.93728 0.77544 0.94533 0.0
C1018 C 0.92814 0.76923 0.96769 0.0
C1019 C 0.9662 0.76813 0.91191 0.0
C1020 C 0.9666 0.79403 0.90417 0.0
C1021 C 0.97377 0.7486 0.89588 0.0
C1022 C 0.97032 0.72079 0.90086 0.0
C1023 C 0.94755 0.71167 0.90621 0.0
C1024 C 0.94427 0.68545 0.91071 0.0
C1025 C 0.9636 0.66809 0.90975 0.0
C1026 C 0.98624 0.67693 0.90421 0.0
C1027 C 0.98962 0.70315 0.8997 0.0
H1028 H 0.96103 0.64778 0.91321 0.0
H1029 H 0.96504 0.89855 0.84926 0.0
H1030 H 0.50901 0.62472 0.20602 0.0
H1031 H 0.49664 0.63949 0.16628 0.0
H1032 H 0.48952 0.71729 0.1919 0.0
H1033 H 0.50177 0.70238 0.23227 0.0
H1034 H 0.45405 0.66214 0.15263 0.0
H1035 H 0.50518 0.75705 0.14254 0.0
H1036 H 0.54245 0.77609 0.15729 0.0
H1037 H 0.57401 0.70049 0.16648 0.0
H1038 H 0.53709 0.68104 0.15148 0.0
H1039 H 0.40335 0.73018 0.05599 0.0
H1040 H 0.42088 0.71988 0.09484 0.0
H1041 H 0.4888 0.70468 0.06207 0.0
H1042 H 0.4714 0.71694 0.02282 0.0
H1043 H 0.49586 0.7273 0.10419 0.0
H1044 H 0.44977 0.65497 0.07846 0.0
H1045 H 0.41383 0.63337 0.06361 0.0
H1046 H 0.37505 0.65894 0.12482 0.0
H1047 H 0.41071 0.68084 0.13997 0.0
C1048 C 0.50495 0.64503 0.2033 0.0
C1049 C 0.50636 0.66238 0.2224 0.0
C1050 C 0.49778 0.65343 0.18049 0.0
C1051 C 0.49213 0.6795 0.17597 0.0
C1052 C 0.49391 0.69708 0.19489 0.0
C1053 C 0.50085 0.68856 0.21795 0.0
C1054 C 0.48367 0.68776 0.15161 0.0
C1055 C 0.46316 0.67648 0.14211 0.0
C1056 C 0.49577 0.70606 0.13758 0.0
C1057 C 0.51825 0.7176 0.14613 0.0
C1058 C 0.5201 0.74451 0.14761 0.0
C1059 C 0.54117 0.75537 0.15604 0.0
C1060 C 0.56055 0.73951 0.16291 0.0
C1061 C 0.55896 0.71276 0.16126 0.0
C1062 C 0.53795 0.7018 0.15283 0.0
C1063 C 0.42217 0.72532 0.05699 0.0
C1064 C 0.43602 0.72478 0.03625 0.0
C1065 C 0.43215 0.71898 0.07931 0.0
C1066 C 0.45613 0.71095 0.08156 0.0
C1067 C 0.47023 0.71074 0.06091 0.0
C1068 C 0.46026 0.71759 0.03845 0.0
C1069 C 0.46593 0.70196 0.10534 0.0
C1070 C 0.48669 0.71305 0.11473 0.0
C1071 C 0.45424 0.68313 0.11924 0.0
C1072 C 0.43288 0.66968 0.11026 0.0
C1073 C 0.43355 0.65608 0.08869 0.0
C1074 C 0.41322 0.64378 0.08022 0.0
C1075 C 0.39215 0.64485 0.09322 0.0
C1076 C 0.39138 0.65814 0.11476 0.0
C1077 C 0.41165 0.67044 0.12333 0.0
H1078 H 0.37643 0.63531 0.08668 0.0
H1079 H 0.57682 0.74796 0.16946 0.0
H1080 H 0.15836 0.29645 0.33224 0.0
H1081 H 0.17323 0.31554 0.2953 0.0
H1082 H 0.22546 0.35705 0.33587 0.0
H1083 H 0.21054 0.33826 0.37286 0.0
H1084 H 0.19712 0.38842 0.30677 0.0
H1085 H 0.24432 0.30987 0.29856 0.0
H1086 H 0.25109 0.26284 0.29605 0.0
H1087 H 0.20199 0.25962 0.23683 0.0
H1088 H 0.19515 0.30668 0.23876 0.0
H1089 H 0.25449 0.4526 0.21673 0.0
H1090 H 0.24839 0.42175 0.24908 0.0
H1091 H 0.20325 0.37731 0.2029 0.0
H1092 H 0.21045 0.40779 0.16986 0.0
H1093 H 0.22695 0.34582 0.23378 0.0
H1094 H 0.17926 0.42248 0.24073 0.0
H1095 H 0.17093 0.46929 0.24187 0.0
H1096 H 0.21653 0.47563 0.30357 0.0
H1097 H 0.22541 0.42889 0.30259 0.0
C1098 C 0.17317 0.30945 0.33326 0.0
C1099 C 0.1831 0.31604 0.35553 0.0
C1100 C 0.18181 0.32014 0.3121 0.0
C1101 C 0.20048 0.33771 0.3128 0.0
C1102 C 0.21107 0.34349 0.33491 0.0
C1103 C 0.20259 0.33264 0.35604 0.0
C1104 C 0.20718 0.35225 0.29096 0.0
C1105 C 0.20404 0.37912 0.29097 0.0
C1106 C 0.21515 0.34004 0.26996 0.0
C1107 C 0.21907 0.31175 0.26894 0.0
C1108 C 0.23485 0.29911 0.28511 0.0
C1109 C 0.23874 0.27246 0.28375 0.0
C1110 C 0.22683 0.25824 0.26644 0.0
C1111 C 0.21116 0.27066 0.25028 0.0
C1112 C 0.20736 0.29733 0.25142 0.0
C1113 C 0.24364 0.43595 0.21334 0.0
C1114 C 0.23264 0.43269 0.19098 0.0
C1115 C 0.24007 0.41838 0.23187 0.0
C1116 C 0.2247 0.39764 0.22872 0.0
C1117 C 0.21498 0.39331 0.20585 0.0
C1118 C 0.21907 0.41068 0.187 0.0
C1119 C 0.21744 0.38209 0.24984 0.0
C1120 C 0.22017 0.35511 0.24964 0.0
C1121 C 0.20864 0.39412 0.27066 0.0
C1122 C 0.20315 0.42222 0.27146 0.0
C1123 C 0.18762 0.43388 0.25445 0.0
C1124 C 0.18279 0.4604 0.25508 0.0
C1125 C 0.19323 0.47544 0.27275 0.0
C1126 C 0.20847 0.46396 0.28988 0.0
C1127 C 0.2134 0.43746 0.28931 0.0
H1128 H 0.18947 0.49597 0.2732 0.0
H1129 H 0.22983 0.2376 0.26548 0.0
H1130 H 0.97695 0.89178 0.59102 0.0
H1131 H 0.95774 0.90568 0.55332 0.0
H1132 H 0.89611 0.93224 0.59189 0.0
H1133 H 0.91492 0.91806 0.62942 0.0
H1134 H 0.88404 0.90087 0.55568 0.0
H1135 H 0.93297 0.97529 0.5661 0.0
H1136 H 0.97061 0.99818 0.57211 0.0
H1137 H 0.99798 0.96607 0.50741 0.0
H1138 H 0.96046 0.94297 0.50103 0.0
H1139 H 0.81339 0.9711 0.47776 0.0
H1140 H 0.84368 0.96344 0.50863 0.0
H1141 H 0.89167 0.93249 0.45618 0.0
H1142 H 0.86106 0.94065 0.42468 0.0
H1143 H 0.91426 0.96262 0.49556 0.0
H1144 H 0.86305 0.89069 0.48405 0.0
H1145 H 0.82431 0.86993 0.47823 0.0
H1146 H 0.80107 0.89783 0.54614 0.0
H1147 H 0.83955 0.91912 0.55219 0.0
C1148 C 0.95936 0.90072 0.59146 0.0
C1149 C 0.94745 0.90368 0.61329 0.0
C1150 C 0.94848 0.90886 0.56991 0.0
C1151 C 0.92545 0.92003 0.56973 0.0
C1152 C 0.91387 0.92366 0.59154 0.0
C1153 C 0.92475 0.9157 0.61305 0.0
C1154 C 0.91256 0.92627 0.54688 0.0
C1155 C 0.89065 0.9145 0.54265 0.0
C1156 C 0.92146 0.94339 0.52942 0.0
C1157 C 0.94403 0.95718 0.53324 0.0
C1158 C 0.94709 0.97296 0.55326 0.0
C1159 C 0.96836 0.98604 0.55668 0.0
C1160 C 0.98673 0.98347 0.54023 0.0
C1161 C 0.98377 0.96798 0.52019 0.0
C1162 C 0.96247 0.95495 0.51662 0.0
C1163 C 0.83057 0.96315 0.47263 0.0
C1164 C 0.83478 0.95609 0.44891 0.0
C1165 C 0.84789 0.95882 0.49032 0.0
C1166 C 0.86976 0.94693 0.48483 0.0
C1167 C 0.87485 0.94161 0.46081 0.0
C1168 C 0.85741 0.94625 0.44286 0.0
C1169 C 0.88558 0.93763 0.50479 0.0
C1170 C 0.90794 0.94871 0.50846 0.0
C1171 C 0.87716 0.91981 0.52187 0.0
C1172 C 0.85414 0.90663 0.5185 0.0
C1173 C 0.84963 0.89253 0.49768 0.0
C1174 C 0.82772 0.88066 0.49434 0.0
C1175 C 0.81023 0.88259 0.51179 0.0
C1176 C 0.81464 0.89635 0.53264 0.0
C1177 C 0.83651 0.9083 0.53604 0.0
H1178 H 0.79327 0.8734 0.50917 0.0
H1179 H 1.00322 0.99355 0.54296 0.0
H1180 H 0.31275 0.51982 0.71558 0.0
H1181 H 0.3163 0.55212 0.74631 0.0
H1182 H 0.32786 0.61044 0.69255 0.0
H1183 H 0.32447 0.57749 0.66114 0.0
H1184 H 0.36051 0.61264 0.73019 0.0
H1185 H 0.27642 0.61115 0.72268 0.0
H1186 H 0.23684 0.59163 0.71892 0.0
H1187 H 0.24602 0.55615 0.78804 0.0
H1188 H 0.28578 0.57508 0.7921 0.0
H1189 H 0.36334 0.69935 0.82901 0.0
H1190 H 0.35118 0.67996 0.79124 0.0
H1191 H 0.33517 0.6094 0.82842 0.0
H1192 H 0.3468 0.62883 0.86632 0.0
H1193 H 0.30125 0.62114 0.79474 0.0
H1194 H 0.38749 0.61639 0.79848 0.0
H1195 H 0.42769 0.6344 0.80203 0.0
H1196 H 0.41423 0.68132 0.73953 0.0
H1197 H 0.3738 0.6638 0.7358 0.0
C1198 C 0.31587 0.53954 0.71012 0.0
C1199 C 0.3184 0.54606 0.68587 0.0
C1200 C 0.31775 0.55809 0.72781 0.0
C1201 C 0.32211 0.58386 0.72187 0.0
C1202 C 0.3244 0.59068 0.69759 0.0
C1203 C 0.32237 0.57192 0.67966 0.0
C1204 C 0.32532 0.60282 0.74152 0.0
C1205 C 0.34728 0.61507 0.74397 0.0
C1206 C 0.30827 0.60567 0.75984 0.0
C1207 C 0.28417 0.5945 0.75765 0.0
C1208 C 0.27006 0.59908 0.73703 0.0
C1209 C 0.24759 0.58813 0.73484 0.0
C1210 C 0.23895 0.57265 0.75321 0.0
C1211 C 0.25273 0.56815 0.77383 0.0
C1212 C 0.27522 0.57903 0.77611 0.0
C1213 C 0.35688 0.67983 0.82925 0.0
C1214 C 0.35617 0.66566 0.85083 0.0
C1215 C 0.35012 0.66868 0.80755 0.0
C1216 C 0.34248 0.64306 0.80683 0.0
C1217 C 0.34105 0.62915 0.82841 0.0
C1218 C 0.34789 0.64025 0.8501 0.0
C1219 C 0.33667 0.63036 0.78367 0.0
C1220 C 0.31424 0.61922 0.78067 0.0
C1221 C 0.35325 0.62856 0.76484 0.0
C1222 C 0.37754 0.63904 0.76704 0.0
C1223 C 0.39304 0.63071 0.78562 0.0
C1224 C 0.41587 0.64079 0.78763 0.0
C1225 C 0.42348 0.65906 0.77106 0.0
C1226 C 0.40829 0.66721 0.75238 0.0
C1227 C 0.38542 0.65721 0.75031 0.0
H1228 H 0.44117 0.66684 0.77264 0.0
H1229 H 0.22157 0.56417 0.75146 0.0
H1230 H 0.58066 0.05996 0.10491 0.0
H1231 H 0.59658 0.04823 0.0658 0.0
H1232 H 0.66393 0.08126 0.08509 0.0
H1233 H 0.64807 0.0935 0.12378 0.0
H1234 H 0.64958 0.09616 0.04063 0.0
H1235 H 0.65532 0.01547 0.08568 0.0
H1236 H 0.63882 0.97942 0.10876 0.0
H1237 H 0.59286 0.96116 0.04971 0.0
H1238 H 0.60887 0.99733 0.02639 0.0
H1239 H 0.73272 0.04988 0.95967 0.0
H1240 H 0.70913 0.05995 0.9945 0.0
H1241 H 0.6521 0.01356 0.96738 0.0
H1242 H 0.67642 1.00224 0.93268 0.0
H1243 H 0.65528 1.00588 1.01268 0.0
H1244 H 0.65023 0.08276 0.9661 0.0
H1245 H 0.66464 0.11903 0.94186 0.0
H1246 H 0.70553 0.14557 1.00171 0.0
H1247 H 0.69163 0.10927 0.02623 0.0
C1248 C 0.59882 0.06484 0.10077 0.0
C1249 C 0.6131 0.07758 0.11763 0.0
C1250 C 0.60797 0.05792 0.07845 0.0
C1251 C 0.63156 0.06364 0.0725 0.0
C1252 C 0.64571 0.07655 0.08922 0.0
C1253 C 0.63665 0.08335 0.11148 0.0
C1254 C 0.64168 0.05669 0.04884 0.0
C1255 C 0.651 0.07639 0.03461 0.0
C1256 C 0.64261 0.03105 0.04039 0.0
C1257 C 0.6331 0.00928 0.0544 0.0
C1258 C 0.64156 1.0039 0.07769 0.0
C1259 C 0.63232 0.98341 0.0908 0.0
C1260 C 0.61475 0.96805 0.08074 0.0
C1261 C 0.60643 0.9731 0.0575 0.0
C1262 C 0.61559 0.99357 0.04433 0.0
C1263 C 0.71508 0.04192 0.96091 0.0
C1264 C 0.70635 0.02553 0.94312 0.0
C1265 C 0.70148 0.04784 0.9809 0.0
C1266 C 0.67843 0.0382 0.98343 0.0
C1267 C 0.66972 0.02149 0.96584 0.0
C1268 C 0.6836 0.0151 0.94595 0.0
C1269 C 0.66392 0.04531 1.00474 0.0
C1270 C 0.65368 0.02571 0.01849 0.0
C1271 C 0.66172 0.07115 1.01259 0.0
C1272 C 0.66998 0.09318 0.99797 0.0
C1273 C 0.6624 0.09625 0.97406 0.0
C1274 C 0.67046 0.11682 0.96027 0.0
C1275 C 0.68601 0.13457 0.97023 0.0
C1276 C 0.69348 0.13181 0.99402 0.0
C1277 C 0.68549 0.11126 1.00789 0.0
H1278 H 0.69225 0.15048 0.95952 0.0
H1279 H 0.60763 0.95221 0.09091 0.0
H1280 H 0.71493 0.14454 0.65322 0.0
H1281 H 0.72852 0.12391 0.69062 0.0
H1282 H 0.66996 0.15985 0.72764 0.0
H1283 H 0.6563 0.18069 0.69027 0.0
H1284 H 0.71427 0.15843 0.75459 0.0
H1285 H 0.66272 0.10184 0.71101 0.0
H1286 H 0.64943 0.07825 0.67543 0.0
H1287 H 0.71657 0.0371 0.67389 0.0
H1288 H 0.7304 0.06076 0.70928 0.0
H1289 H 0.71106 0.06854 0.85432 0.0
H1290 H 0.7045 0.10003 0.82165 0.0
H1291 H 0.75082 0.05476 0.77672 0.0
H1292 H 0.75619 0.02291 0.80874 0.0
H1293 H 0.71212 0.06296 0.75423 0.0
H1294 H 0.76363 0.11786 0.79929 0.0
H1295 H 0.77716 0.14196 0.83451 0.0
H1296 H 0.71176 0.1863 0.83358 0.0
H1297 H 0.6976 0.16223 0.7986 0.0
C1298 C 0.70519 0.14845 0.6694 0.0
C1299 C 0.68444 0.16412 0.66873 0.0
C1300 C 0.71294 0.13659 0.69075 0.0
C1301 C 0.70018 0.14023 0.71192 0.0
C1302 C 0.6801 0.1568 0.71156 0.0
C1303 C 0.6722 0.1685 0.69015 0.0
C1304 C 0.70657 0.12492 0.73377 0.0
C1305 C 0.71367 0.13755 0.75468 0.0
C1306 C 0.70606 0.09771 0.73375 0.0
C1307 C 0.69768 0.08326 0.71264 0.0
C1308 C 0.67472 0.08791 0.70298 0.0
C1309 C 0.66707 0.0745 0.68286 0.0
C1310 C 0.68217 0.05624 0.67237 0.0
C1311 C 0.70491 0.05128 0.68202 0.0
C1312 C 0.71266 0.06467 0.70211 0.0
C1313 C 0.72024 0.06579 0.83763 0.0
C1314 C 0.73398 0.04332 0.83389 0.0
C1315 C 0.71654 0.08378 0.81894 0.0
C1316 C 0.72707 0.07982 0.79652 0.0
C1317 C 0.74223 0.05821 0.79363 0.0
C1318 C 0.74541 0.04006 0.81198 0.0
C1319 C 0.72054 0.09626 0.77526 0.0
C1320 C 0.71308 0.08382 0.75435 0.0
C1321 C 0.72091 0.12359 0.77537 0.0
C1322 C 0.72945 0.13805 0.79643 0.0
C1323 C 0.75204 0.13259 0.80669 0.0
C1324 C 0.75984 0.14627 0.8266 0.0
C1325 C 0.74533 0.16559 0.83628 0.0
C1326 C 0.72298 0.17131 0.82607 0.0
C1327 C 0.71505 0.15767 0.8062 0.0
H1328 H 0.75144 0.17615 0.85167 0.0
H1329 H 0.67622 0.04588 0.65679 0.0
H1330 H 0.21337 0.4109 0.07617 0.0
H1331 H 0.18833 0.40334 0.04125 0.0
H1332 H 0.15186 0.47629 0.05166 0.0
H1333 H 0.1774 0.48439 0.08644 0.0
H1334 H 0.1431 0.39788 0.03258 0.0
H1335 H 0.13694 0.50261 0.99715 0.0
H1336 H 0.15941 0.54286 1.00027 0.0
H1337 H 0.22425 0.49909 1.01268 0.0
H1338 H 0.20224 0.45861 1.00924 0.0
H1339 H 0.06351 0.39857 0.9344 0.0
H1340 H 0.08298 0.41172 0.97133 0.0
H1341 H 0.14742 0.42668 0.93293 0.0
H1342 H 0.12768 0.41478 0.8956 0.0
H1343 H 0.14127 0.46209 0.96631 0.0
H1344 H 0.14013 0.36971 0.96356 0.0
H1345 H 0.12172 0.32719 0.95964 0.0
H1346 H 0.0789 0.34226 0.0211 0.0
H1347 H 0.09684 0.38504 0.02519 0.0
C1348 C 0.1999 0.42531 0.07125 0.0
C1349 C 0.19756 0.44837 0.0841 0.0
C1350 C 0.18552 0.4209 0.05123 0.0
C1351 C 0.1684 0.43937 0.04355 0.0
C1352 C 0.16523 0.46192 0.05696 0.0
C1353 C 0.17977 0.46646 0.07695 0.0
C1354 C 0.15466 0.43524 0.021 0.0
C1355 C 0.14257 0.41203 0.01819 0.0
C1356 C 0.15431 0.45342 1.00194 0.0
C1357 C 0.16788 0.47761 1.00319 0.0
C1358 C 0.15601 0.50159 1.0004 0.0
C1359 C 0.16866 0.52444 1.00224 0.0
C1360 C 0.19322 0.52353 1.00675 0.0
C1361 C 0.20522 0.49977 1.00925 0.0
C1362 C 0.19266 0.47687 1.00736 0.0
C1363 C 0.08165 0.40522 0.9336 0.0
C1364 C 0.09403 0.40541 0.91189 0.0
C1365 C 0.09286 0.41247 0.95487 0.0
C1366 C 0.11683 0.41977 0.95505 0.0
C1367 C 0.12896 0.421 0.93331 0.0
C1368 C 0.1177 0.41391 0.91198 0.0
C1369 C 0.1296 0.42478 0.97798 0.0
C1370 C 0.14155 0.4481 0.98083 0.0
C1371 C 0.13038 0.40641 0.99688 0.0
C1372 C 0.11964 0.38067 0.99453 0.0
C1373 C 0.12666 0.36403 0.97613 0.0
C1374 C 0.11633 0.33987 0.97389 0.0
C1375 C 0.0991 0.33206 0.99007 0.0
C1376 C 0.09221 0.34836 1.00856 0.0
C1377 C 0.10246 0.37255 1.01085 0.0
H1378 H 0.09113 0.31335 0.98831 0.0
H1379 H 0.20297 0.54123 1.00826 0.0
H1380 H 0.78243 0.90695 0.34076 0.0
H1381 H 0.79068 0.8826 0.30438 0.0
H1382 H 0.85487 0.9254 0.29421 0.0
H1383 H 0.84681 0.94979 0.33019 0.0
H1384 H 0.82856 0.92348 0.25352 0.0
H1385 H 0.85679 0.86307 0.31471 0.0
H1386 H 0.85239 0.83587 0.35068 0.0
H1387 H 0.79652 0.79444 0.31599 0.0
H1388 H 0.8004 0.82162 0.2799 0.0
H1389 H 0.89335 0.85559 0.16812 0.0
H1390 H 0.87961 0.87518 0.20488 0.0
H1391 H 0.82109 0.82269 0.20725 0.0
H1392 H 0.83548 0.80199 0.17091 0.0
H1393 H 0.83936 0.82843 0.25089 0.0
H1394 H 0.81242 0.88576 0.18899 0.0
H1395 H 0.81542 0.91289 0.15282 0.0
H1396 H 0.86629 0.96039 0.18835 0.0
H1397 H 0.86386 0.93331 0.22465 0.0
C1398 C 0.7984 0.91105 0.33087 0.0
C1399 C 0.81394 0.93039 0.33848 0.0
C1400 C 0.80311 0.89707 0.31009 0.0
C1401 C 0.82344 0.90212 0.29656 0.0
C1402 C 0.83903 0.92121 0.30428 0.0
C1403 C 0.8344 0.9351 0.32498 0.0
C1404 C 0.82845 0.88817 0.27402 0.0
C1405 C 0.83113 0.90271 0.253 0.0
C1406 C 0.83092 0.86099 0.2731 0.0
C1407 C 0.82871 0.84455 0.29471 0.0
C1408 C 0.84345 0.84828 0.31482 0.0
C1409 C 0.84107 0.83285 0.33521 0.0
C1410 C 0.82414 0.81349 0.33564 0.0
C1411 C 0.8096 0.80947 0.31564 0.0
C1412 C 0.81189 0.82487 0.29521 0.0
C1413 C 0.87776 0.84786 0.17656 0.0
C1414 C 0.86557 0.82712 0.16642 0.0
C1415 C 0.86971 0.85936 0.1975 0.0
C1416 C 0.84904 0.85076 0.20868 0.0
C1417 C 0.837 0.8298 0.19889 0.0
C1418 C 0.84513 0.81814 0.17796 0.0
C1419 C 0.84014 0.86384 0.23051 0.0
C1420 C 0.83661 0.84917 0.25134 0.0
C1421 C 0.83665 0.89094 0.23125 0.0
C1422 C 0.83809 0.90737 0.20949 0.0
C1423 C 0.82437 0.90188 0.18904 0.0
C1424 C 0.82595 0.91727 0.16852 0.0
C1425 C 0.84107 0.93832 0.16827 0.0
C1426 C 0.8546 0.94406 0.18857 0.0
C1427 C 0.85311 0.92872 0.20913 0.0
H1428 H 0.84227 0.95021 0.15237 0.0
H1429 H 0.82233 0.80156 0.35145 0.0
H1430 H 0.3228 0.56103 0.56204 0.0
H1431 H 0.3454 0.56878 0.5259 0.0
H1432 H 0.39377 0.50605 0.54482 0.0
H1433 H 0.37105 0.49793 0.58121 0.0
H1434 H 0.41705 0.55033 0.52646 0.0
H1435 H 0.35349 0.4955 0.5055 0.0
H1436 H 0.31181 0.48165 0.50427 0.0
H1437 H 0.29171 0.54923 0.46338 0.0
H1438 H 0.33317 0.56405 0.46514 0.0
H1439 H 0.46819 0.5545 0.41046 0.0
H1440 H 0.44902 0.53798 0.44628 0.0
H1441 H 0.38907 0.58984 0.43349 0.0
H1442 H 0.40755 0.60558 0.39719 0.0
H1443 H 0.37349 0.54561 0.44902 0.0
H1444 H 0.43595 0.60264 0.47438 0.0
H1445 H 0.47751 0.61715 0.4763 0.0
H1446 H 0.4996 0.54491 0.50842 0.0
H1447 H 0.4582 0.52984 0.50639 0.0
C1448 C 0.33835 0.54895 0.55875 0.0
C1449 C 0.34498 0.52876 0.57464 0.0
C1450 C 0.35125 0.5534 0.53796 0.0
C1451 C 0.37119 0.53787 0.53245 0.0
C1452 C 0.37844 0.51828 0.54864 0.0
C1453 C 0.36538 0.51364 0.56944 0.0
C1454 C 0.38366 0.54168 0.50932 0.0
C1455 C 0.40765 0.54888 0.5095 0.0
C1456 C 0.37138 0.54006 0.48714 0.0
C1457 C 0.34646 0.53102 0.48564 0.0
C1458 C 0.34017 0.50755 0.49643 0.0
C1459 C 0.31657 0.4995 0.49562 0.0
C1460 C 0.29912 0.51449 0.48369 0.0
C1461 C 0.30525 0.53762 0.47261 0.0
C1462 C 0.3288 0.5459 0.47355 0.0
C1463 C 0.45077 0.56216 0.415 0.0
C1464 C 0.4397 0.58179 0.40096 0.0
C1465 C 0.43989 0.55283 0.43572 0.0
C1466 C 0.41776 0.56302 0.44304 0.0
C1467 C 0.40622 0.58175 0.42848 0.0
C1468 C 0.41699 0.59096 0.40775 0.0
C1469 C 0.40677 0.55493 0.46611 0.0
C1470 C 0.38301 0.54686 0.46594 0.0
C1471 C 0.41927 0.55577 0.48828 0.0
C1472 C 0.44404 0.56503 0.49001 0.0
C1473 C 0.4497 0.58981 0.48175 0.0
C1474 C 0.47322 0.59813 0.48285 0.0
C1475 C 0.4912 0.58193 0.49241 0.0
C1476 C 0.48567 0.55742 0.50099 0.0
C1477 C 0.46218 0.54898 0.49988 0.0
H1478 H 0.50941 0.58838 0.4932 0.0
H1479 H 0.28087 0.50817 0.48304 0.0
H1480 H 0.21636 0.24829 0.43367 0.0
H1481 H 0.25206 0.23934 0.41039 0.0
H1482 H 0.24351 0.15775 0.42224 0.0
H1483 H 0.20855 0.1668 0.44658 0.0
H1484 H 0.28717 0.16773 0.42898 0.0
H1485 H 0.23159 0.19258 0.36486 0.0
H1486 H 0.20214 0.22265 0.34601 0.0
H1487 H 0.25448 0.28175 0.34379 0.0
H1488 H 0.28425 0.25202 0.36265 0.0
H1489 H 0.37027 0.11754 0.34878 0.0
H1490 H 0.33313 0.13049 0.36789 0.0
H1491 H 0.34829 0.21038 0.35407 0.0
H1492 H 0.38524 0.19728 0.33398 0.0
H1493 H 0.30232 0.2042 0.34857 0.0
H1494 H 0.35803 0.18037 0.41067 0.0
H1495 H 0.38764 0.15253 0.43196 0.0
H1496 H 0.33536 0.094 0.44046 0.0
H1497 H 0.30552 0.12135 0.41893 0.0
C1498 C 0.2219 0.22843 0.43104 0.0
C1499 C 0.2095 0.20826 0.44193 0.0
C1500 C 0.24235 0.22328 0.41758 0.0
C1501 C 0.25052 0.19777 0.41407 0.0
C1502 C 0.23777 0.17761 0.42458 0.0
C1503 C 0.21766 0.18279 0.43846 0.0
C1504 C 0.27289 0.19192 0.40056 0.0
C1505 C 0.2902 0.1754 0.41122 0.0
C1506 C 0.27759 0.20271 0.37775 0.0
C1507 C 0.26009 0.22012 0.36528 0.0
C1508 C 0.23682 0.21197 0.36031 0.0
C1509 C 0.22007 0.22896 0.34965 0.0
C1510 C 0.22642 0.25412 0.3438 0.0
C1511 C 0.24959 0.26227 0.3484 0.0
C1512 C 0.26643 0.24533 0.35895 0.0
C1513 C 0.36574 0.13789 0.34984 0.0
C1514 C 0.38094 0.15639 0.34016 0.0
C1515 C 0.34446 0.14532 0.36085 0.0
C1516 C 0.338 0.17153 0.3631 0.0
C1517 C 0.3528 0.19006 0.35277 0.0
C1518 C 0.37398 0.18256 0.34133 0.0
C1519 C 0.31621 0.17935 0.37676 0.0
C1520 C 0.29916 0.1964 0.36625 0.0
C1521 C 0.31175 0.16923 0.39986 0.0
C1522 C 0.3296 0.15284 0.41302 0.0
C1523 C 0.35289 0.1615 0.41696 0.0
C1524 C 0.36971 0.14581 0.42908 0.0
C1525 C 0.3634 0.12149 0.43751 0.0
C1526 C 0.34023 0.11284 0.4339 0.0
C1527 C 0.32335 0.12843 0.42177 0.0
H1528 H 0.37645 0.10937 0.44688 0.0
H1529 H 0.21342 0.26727 0.33562 0.0
H1530 H 0.12114 0.11121 0.62362 0.0
H1531 H 0.10515 0.07535 0.64658 0.0
H1532 H 0.08599 0.03729 0.58122 0.0
H1533 H 0.10173 0.07333 0.55813 0.0
H1534 H 0.05253 0.0295 0.61491 0.0
H1535 H 0.13742 0.02097 0.61029 0.0
H1536 H 0.17896 0.03517 0.61394 0.0
H1537 H 0.17016 0.04611 0.6892 0.0
H1538 H 0.12844 0.03233 0.68593 0.0
H1539 H 0.04245 0.90596 0.67082 0.0
H1540 H 0.05352 0.94178 0.64483 0.0
H1541 H 0.08093 0.98226 0.70593 0.0
H1542 H 0.07122 0.9458 0.73168 0.0
H1543 H 0.10997 0.98755 0.6719 0.0
H1544 H 0.02335 0.99743 0.67531 0.0
H1545 H 0.98282 0.98029 0.67095 0.0
H1546 H 0.99593 0.96362 0.59733 0.0
H1547 H 0.03644 0.98088 0.6012 0.0
C1548 C 0.11335 0.09531 0.61413 0.0
C1549 C 0.11298 0.09501 0.58904 0.0
C1550 C 0.10419 0.07481 0.62727 0.0
C1551 C 0.09479 0.05333 0.61565 0.0
C1552 C 0.0932 0.05359 0.59061 0.0
C1553 C 0.1022 0.07423 0.57742 0.0
C1554 C 0.08819 0.03001 0.62962 0.0
C1555 C 0.06513 0.0202 0.62725 0.0
C1556 C 0.10458 0.01779 0.64576 0.0
C1557 C 0.12974 0.02584 0.64782 0.0
C1558 C 0.1443 0.02656 0.62759 0.0
C1559 C 0.16788 0.03452 0.62959 0.0
C1560 C 0.17718 0.04159 0.65178 0.0
C1561 C 0.16293 0.04065 0.67202 0.0
C1562 C 0.13932 0.03276 0.67011 0.0
C1563 C 0.05086 0.92252 0.67868 0.0
C1564 C 0.05599 0.92307 0.70329 0.0
C1565 C 0.057 0.94313 0.66382 0.0
C1566 C 0.06763 0.96513 0.6734 0.0
C1567 C 0.07274 0.9656 0.69802 0.0
C1568 C 0.06717 0.94474 0.71276 0.0
C1569 C 0.07403 0.98744 0.65789 0.0
C1570 C 0.09723 0.99693 0.65977 0.0
C1571 C 0.05778 0.99921 0.64128 0.0
C1572 C 0.03293 0.99036 0.63857 0.0
C1573 C 0.01751 0.99025 0.65817 0.0
C1574 C 0.99455 0.98053 0.65577 0.0
C1575 C 0.98678 0.97095 0.63385 0.0
C1576 C 1.0019 0.97125 0.61424 0.0
C1577 C 0.02482 0.98109 0.61649 0.0
H1578 H 0.96907 0.96326 0.63206 0.0
H1579 H 0.19544 0.04775 0.65329 0.0
H1580 H 0.19896 0.83238 0.80902 0.0
H1581 H 0.23586 0.81938 0.82994 0.0
H1582 H 0.19552 0.79704 0.89142 0.0
H1583 H 0.15849 0.80905 0.87043 0.0
H1584 H 0.23233 0.8299 0.90239 0.0
H1585 H 0.2205 0.75249 0.85761 0.0
H1586 H 0.2144 0.72752 0.82094 0.0
H1587 H 0.28162 0.75255 0.79441 0.0
H1588 H 0.28795 0.77806 0.83079 0.0
H1589 H 0.3095 0.76537 0.97896 0.0
H1590 H 0.27844 0.77208 0.94876 0.0
H1591 H 0.33135 0.79243 0.89712 0.0
H1592 H 0.36305 0.78522 0.92771 0.0
H1593 H 0.29167 0.76347 0.87758 0.0
H1594 H 0.30424 0.83975 0.92267 0.0
H1595 H 0.31027 0.86505 0.95918 0.0
H1596 H 0.24158 0.84307 0.98431 0.0
H1597 H 0.23529 0.81729 0.9481 0.0
C1598 C 0.19779 0.8242 0.8268 0.0
C1599 C 0.17555 0.82204 0.83803 0.0
C1600 C 0.21901 0.81686 0.83879 0.0
C1601 C 0.21851 0.8073 0.8623 0.0
C1602 C 0.19638 0.80455 0.87335 0.0
C1603 C 0.17518 0.81163 0.86133 0.0
C1604 C 0.24099 0.80149 0.87601 0.0
C1605 C 0.24518 0.81523 0.89701 0.0
C1606 C 0.25824 0.78299 0.86858 0.0
C1607 C 0.25457 0.76745 0.84682 0.0
C1608 C 0.23389 0.75287 0.84388 0.0
C1609 C 0.23041 0.73857 0.82316 0.0
C1610 C 0.24757 0.73852 0.80532 0.0
C1611 C 0.26831 0.75266 0.80822 0.0
C1612 C 0.27186 0.76703 0.8289 0.0
C1613 C 0.31467 0.77094 0.9611 0.0
C1614 C 0.33868 0.77522 0.95581 0.0
C1615 C 0.29684 0.77474 0.94382 0.0
C1616 C 0.30244 0.78331 0.92079 0.0
C1617 C 0.32659 0.78598 0.91484 0.0
C1618 C 0.34467 0.78191 0.93228 0.0
C1619 C 0.28263 0.79153 0.9042 0.0
C1620 C 0.27894 0.77835 0.88272 0.0
C1621 C 0.26578 0.81072 0.91103 0.0
C1622 C 0.26936 0.82645 0.93273 0.0
C1623 C 0.29048 0.84017 0.93605 0.0
C1624 C 0.29395 0.85461 0.95668 0.0
C1625 C 0.27634 0.85563 0.97407 0.0
C1626 C 0.25521 0.84225 0.97083 0.0
C1627 C 0.25167 0.82775 0.95024 0.0
H1628 H 0.27905 0.86682 0.99004 0.0
H1629 H 0.24482 0.72746 0.78927 0.0
H1630 H 0.52032 0.05935 0.18152 0.0
H1631 H 0.5059 0.02354 0.15764 0.0
H1632 H 0.45958 1.00132 0.21473 0.0
H1633 H 0.47378 0.03716 0.23874 0.0
H1634 H 0.48419 0.95961 0.1953 0.0
H1635 H 0.43614 0.03178 0.16817 0.0
H1636 H 0.42865 0.07582 0.15251 0.0
H1637 H 0.46722 0.05726 0.08905 0.0
H1638 H 0.47524 0.01318 0.10451 0.0
H1639 H 0.4081 0.87561 0.13286 0.0
H1640 H 0.42416 0.91106 0.15589 0.0
H1641 H 0.46677 0.93354 0.09599 0.0
H1642 H 0.45102 0.89777 0.07283 0.0
H1643 H 0.44507 0.97515 0.11637 0.0
H1644 H 0.49239 0.90247 0.14332 0.0
H1645 H 0.49982 0.85853 0.15924 0.0
H1646 H 0.46266 0.87809 0.22328 0.0
H1647 H 0.45469 0.92207 0.20759 0.0
C1648 C 0.5071 0.04684 0.18906 0.0
C1649 C 0.49816 0.05124 0.21206 0.0
C1650 C 0.49881 0.02642 0.17533 0.0
C1651 C 0.48153 0.00986 0.18432 0.0
C1652 C 0.4729 0.01388 0.20742 0.0
C1653 C 0.48099 0.03445 0.22108 0.0
C1654 C 0.47239 0.9884 0.16961 0.0
C1655 C 0.47538 0.96301 0.17817 0.0
C1656 C 0.46138 0.99281 0.14701 0.0
C1657 C 0.45652 0.01926 0.13761 0.0
C1658 C 0.44321 0.03715 0.15097 0.0
C1659 C 0.43883 0.06211 0.14211 0.0
C1660 C 0.44752 0.06936 0.11983 0.0
C1661 C 0.46054 0.05163 0.10633 0.0
C1662 C 0.46499 0.02665 0.11512 0.0
C1663 C 0.42114 0.88782 0.12462 0.0
C1664 C 0.42839 0.88359 0.10098 0.0
C1665 C 0.43024 0.9082 0.13782 0.0
C1666 C 0.44689 0.92484 0.1278 0.0
C1667 C 0.45394 0.92096 0.10412 0.0
C1668 C 0.44486 0.90051 0.09087 0.0
C1669 C 0.45681 0.94629 0.14207 0.0
C1670 C 0.45396 0.9717 0.13345 0.0
C1671 C 0.46794 0.94191 0.16464 0.0
C1672 C 0.47275 0.9155 0.17417 0.0
C1673 C 0.48563 0.89735 0.16071 0.0
C1674 C 0.48997 0.87244 0.16971 0.0
C1675 C 0.48166 0.8655 0.19223 0.0
C1676 C 0.46905 0.88348 0.20583 0.0
C1677 C 0.46464 0.90841 0.1969 0.0
H1678 H 0.48505 0.84621 0.19917 0.0
H1679 H 0.4441 0.08869 0.113 0.0
H1680 H 0.85841 0.37336 0.69067 0.0
H1681 H 0.82101 0.35707 0.67443 0.0
H1682 H 0.85763 0.2876 0.65232 0.0
H1683 H 0.89519 0.30396 0.66822 0.0
H1684 H 0.82997 0.30761 0.61683 0.0
H1685 H 0.82049 0.28536 0.69867 0.0
H1686 H 0.81994 0.29232 0.74212 0.0
H1687 H 0.76338 0.34871 0.73298 0.0
H1688 H 0.76382 0.34236 0.68941 0.0
H1689 H 0.704 0.25151 0.60937 0.0
H1690 H 0.7398 0.2597 0.63351 0.0
H1691 H 0.75018 0.33044 0.59438 0.0
H1692 H 0.71463 0.32265 0.57037 0.0
H1693 H 0.75495 0.30243 0.66248 0.0
H1694 H 0.80903 0.33025 0.57914 0.0
H1695 H 0.80934 0.32083 0.53607 0.0
H1696 H 0.77765 0.24758 0.54953 0.0
H1697 H 0.7776 0.25634 0.59269 0.0
C1698 C 0.85849 0.3546 0.68237 0.0
C1699 C 0.87978 0.33998 0.68069 0.0
C1700 C 0.83706 0.34521 0.67328 0.0
C1701 C 0.83647 0.32102 0.66231 0.0
C1702 C 0.85765 0.30628 0.66078 0.0
C1703 C 0.87907 0.31559 0.67001 0.0
C1704 C 0.81398 0.31176 0.65138 0.0
C1705 C 0.81363 0.30636 0.62688 0.0
C1706 C 0.7927 0.30966 0.66453 0.0
C1707 C 0.79232 0.31352 0.69074 0.0
C1708 C 0.80806 0.2994 0.70589 0.0
C1709 C 0.80774 0.30321 0.73055 0.0
C1710 C 0.79167 0.32099 0.7403 0.0
C1711 C 0.77583 0.33496 0.7254 0.0
C1712 C 0.77609 0.33123 0.70072 0.0
C1713 C 0.7137 0.269 0.60613 0.0
C1714 C 0.7065 0.2863 0.58775 0.0
C1715 C 0.73411 0.27366 0.61999 0.0
C1716 C 0.74775 0.29552 0.61552 0.0
C1717 C 0.74001 0.31334 0.59796 0.0
C1718 C 0.71962 0.30882 0.58425 0.0
C1719 C 0.77094 0.29913 0.62792 0.0
C1720 C 0.77139 0.30349 0.65258 0.0
C1721 C 0.79244 0.29988 0.61503 0.0
C1722 C 0.79313 0.29408 0.58914 0.0
C1723 C 0.80229 0.31206 0.57292 0.0
C1724 C 0.8024 0.30684 0.54849 0.0
C1725 C 0.79346 0.28365 0.54006 0.0
C1726 C 0.78451 0.26556 0.55607 0.0
C1727 C 0.78443 0.27066 0.58052 0.0
H1728 H 0.7935 0.27969 0.52114 0.0
H1729 H 0.79145 0.32391 0.75939 0.0
H1730 H 0.01949 0.41558 0.8275 0.0
H1731 H 1.01229 0.44799 0.85859 0.0
H1732 H 0.94426 0.46756 0.82557 0.0
H1733 H 0.95173 0.43565 0.79465 0.0
H1734 H 0.96914 0.50952 0.833 0.0
H1735 H 0.95179 0.43228 0.88013 0.0
H1736 H 0.96302 0.39008 0.89811 0.0
H1737 H 0.02035 0.42477 0.93683 0.0
H1738 H 1.00973 0.46708 0.91875 0.0
H1739 H 0.90627 0.58686 0.91259 0.0
H1740 H 0.92085 0.55224 0.88712 0.0
H1741 H 0.98215 0.54073 0.93362 0.0
H1742 H 0.96706 0.57491 0.95968 0.0
H1743 H 0.96764 0.49594 0.92069 0.0
H1744 H 0.98561 0.57208 0.87815 0.0
H1745 H 0.97848 0.61517 0.86019 0.0
H1746 H 0.92603 0.58425 0.81256 0.0
H1747 H 0.93252 0.54104 0.83053 0.0
C1748 C 1.0027 0.42623 0.82756 0.0
C1749 C 0.9859 0.4228 0.80918 0.0
C1750 C 0.99866 0.44491 0.84512 0.0
C1751 C 0.97764 0.46025 0.84452 0.0
C1752 C 0.96062 0.45609 0.82644 0.0
C1753 C 0.96479 0.43773 0.80888 0.0
C1754 C 0.97358 0.48172 0.86159 0.0
C1755 C 0.96856 0.50646 0.85216 0.0
C1756 C 0.97412 0.47815 0.88669 0.0
C1757 C 0.9801 0.45279 0.89791 0.0
C1758 C 0.96687 0.43087 0.89237 0.0
C1759 C 0.97314 0.40694 0.90258 0.0
C1760 C 0.99243 0.40474 0.91854 0.0
C1761 C 1.00542 0.4265 0.92444 0.0
C1762 C 0.9993 0.45045 0.91421 0.0
C1763 C 0.92298 0.57713 0.91726 0.0
C1764 C 0.93564 0.58381 0.938 0.0
C1765 C 0.93135 0.55731 0.90267 0.0
C1766 C 0.95291 0.54409 0.9081 0.0
C1767 C 0.96552 0.55061 0.92895 0.0
C1768 C 0.95692 0.5702 0.9438 0.0
C1769 C 0.96204 0.52348 0.89196 0.0
C1770 C 0.96828 0.49905 0.90154 0.0
C1771 C 0.96321 0.52742 0.86695 0.0
C1772 C 0.95945 0.55332 0.85582 0.0
C1773 C 0.97246 0.57449 0.86394 0.0
C1774 C 0.96853 0.59894 0.85375 0.0
C1775 C 0.95179 0.60244 0.83526 0.0
C1776 C 0.93899 0.5815 0.82689 0.0
C1777 C 0.9428 0.55701 0.83706 0.0
H1778 H 0.94877 0.62139 0.8274 0.0
H1779 H 0.99728 0.38618 0.92638 0.0
H1780 H 0.8416 0.73632 0.10523 0.0
H1781 H 0.80699 0.72638 0.12959 0.0
H1782 H 0.79968 0.65414 0.0931 0.0
H1783 H 0.83435 0.66364 0.06906 0.0
H1784 H 0.7618 0.71978 0.11735 0.0
H1785 H 0.77677 0.60923 0.12937 0.0
H1786 H 0.81024 0.57789 0.13369 0.0
H1787 H 0.85488 0.63708 0.1614 0.0
H1788 H 0.82159 0.66869 0.15756 0.0
H1789 H 0.65415 0.65719 0.14392 0.0
H1790 H 0.69202 0.6707 0.12741 0.0
H1791 H 0.72673 0.65613 0.19547 0.0
H1792 H 0.68882 0.64278 0.21222 0.0
H1793 H 0.75293 0.6367 0.1606 0.0
H1794 H 0.71509 0.71767 0.17597 0.0
H1795 H 0.68269 0.7505 0.1747 0.0
H1796 H 0.68611 0.75362 0.09822 0.0
H1797 H 0.71831 0.7205 0.099 0.0
C1798 C 0.83283 0.71816 0.10258 0.0
C1799 C 0.8409 0.70075 0.08519 0.0
C1800 C 0.81293 0.71257 0.11646 0.0
C1801 C 0.80077 0.6894 0.11336 0.0
C1802 C 0.80894 0.67194 0.09616 0.0
C1803 C 0.8288 0.67747 0.08233 0.0
C1804 C 0.77907 0.68377 0.12744 0.0
C1805 C 0.75992 0.70165 0.12687 0.0
C1806 C 0.77667 0.66033 0.14031 0.0
C1807 C 0.79672 0.64137 0.14298 0.0
C1808 C 0.79369 0.61553 0.13649 0.0
C1809 C 0.81264 0.59772 0.13884 0.0
C1810 C 0.83469 0.6055 0.14775 0.0
C1811 C 0.83781 0.6311 0.15442 0.0
C1812 C 0.81892 0.64897 0.15213 0.0
C1813 C 0.66973 0.65721 0.15553 0.0
C1814 C 0.66833 0.64893 0.17947 0.0
C1815 C 0.69143 0.6649 0.14601 0.0
C1816 C 0.71226 0.66467 0.16022 0.0
C1817 C 0.71095 0.65644 0.18412 0.0
C1818 C 0.68924 0.64873 0.19366 0.0
C1819 C 0.73546 0.6724 0.14993 0.0
C1820 C 0.75487 0.65489 0.1512 0.0
C1821 C 0.73825 0.69639 0.1381 0.0
C1822 C 0.71899 0.71644 0.13754 0.0
C1823 C 0.70882 0.72522 0.15887 0.0
C1824 C 0.69051 0.7439 0.15824 0.0
C1825 C 0.68231 0.7541 0.13639 0.0
C1826 C 0.69247 0.74568 0.11513 0.0
C1827 C 0.71077 0.72697 0.11566 0.0
H1828 H 0.66813 0.76856 0.13594 0.0
H1829 H 0.84934 0.59169 0.14953 0.0
H1830 H 0.58459 0.38502 0.42595 0.0
H1831 H 0.56681 0.42007 0.40149 0.0
H1832 H 0.61551 0.47361 0.43301 0.0
H1833 H 0.63299 0.43888 0.45776 0.0
H1834 H 0.57087 0.49565 0.42626 0.0
H1835 H 0.62828 0.44686 0.38047 0.0
H1836 H 0.64535 0.40706 0.36336 0.0
H1837 H 0.58 0.39481 0.32478 0.0
H1838 H 0.56244 0.43438 0.34195 0.0
H1839 H 0.57426 0.59336 0.334 0.0
H1840 H 0.58013 0.56152 0.36644 0.0
H1841 H 0.53943 0.50663 0.32629 0.0
H1842 H 0.53499 0.53778 0.29355 0.0
H1843 H 0.57771 0.48471 0.33883 0.0
H1844 H 0.52152 0.53744 0.38138 0.0
H1845 H 0.5051 0.57714 0.39928 0.0
H1846 H 0.56703 0.58239 0.44445 0.0
H1847 H 0.58425 0.5432 0.42644 0.0
C1848 C 0.59122 0.40434 0.42795 0.0
C1849 C 0.61044 0.40907 0.44355 0.0
C1850 C 0.58112 0.42434 0.4139 0.0
C1851 C 0.59002 0.44945 0.4152 0.0
C1852 C 0.60837 0.45444 0.43163 0.0
C1853 C 0.61852 0.43448 0.44558 0.0
C1854 C 0.58162 0.47008 0.39822 0.0
C1855 C 0.57239 0.49341 0.40712 0.0
C1856 C 0.58332 0.46699 0.37326 0.0
C1857 C 0.59397 0.44341 0.36268 0.0
C1858 C 0.61751 0.43558 0.36846 0.0
C1859 C 0.62727 0.41308 0.35874 0.0
C1860 C 0.61374 0.39837 0.34305 0.0
C1861 C 0.59045 0.40619 0.33697 0.0
C1862 C 0.58058 0.42866 0.34668 0.0
C1863 C 0.56617 0.57466 0.33248 0.0
C1864 C 0.55434 0.56785 0.31133 0.0
C1865 C 0.56944 0.55645 0.35104 0.0
C1866 C 0.56025 0.53147 0.34895 0.0
C1867 C 0.54696 0.52555 0.32837 0.0
C1868 C 0.54431 0.54339 0.30968 0.0
C1869 C 0.56649 0.51057 0.36666 0.0
C1870 C 0.57565 0.48709 0.35791 0.0
C1871 C 0.56462 0.51365 0.39171 0.0
C1872 C 0.55429 0.53742 0.40238 0.0
C1873 C 0.53178 0.54717 0.39495 0.0
C1874 C 0.52229 0.56957 0.40515 0.0
C1875 C 0.53496 0.58222 0.42298 0.0
C1876 C 0.55722 0.57257 0.43063 0.0
C1877 C 0.56687 0.55028 0.42042 0.0
H1878 H 0.52751 0.59949 0.43089 0.0
H1879 H 0.62133 0.38095 0.33555 0.0
H1880 H 0.34394 0.332 0.20834 0.0
H1881 H 0.36937 0.29563 0.2219 0.0
H1882 H 0.39116 0.28256 0.14941 0.0
H1883 H 0.36536 0.31829 0.13569 0.0
H1884 H 0.38116 0.23796 0.17089 0.0
H1885 H 0.42746 0.31203 0.1891 0.0
H1886 H 0.43569 0.35417 0.20704 0.0
H1887 H 0.42568 0.32207 0.27704 0.0
H1888 H 0.41703 0.27979 0.25948 0.0
H1889 H 0.49229 0.17138 0.18402 0.0
H1890 H 0.45989 0.20288 0.17636 0.0
H1891 H 0.43837 0.19635 0.24977 0.0
H1892 H 0.47086 0.16447 0.25733 0.0
H1893 H 0.44504 0.24857 0.23186 0.0
H1894 H 0.4031 0.17231 0.21183 0.0
H1895 H 0.39796 0.13052 0.19209 0.0
H1896 H 0.40255 0.16744 0.12342 0.0
H1897 H 0.40811 0.20942 0.14276 0.0
C1898 C 0.35408 0.32131 0.19529 0.0
C1899 C 0.35272 0.3282 0.17094 0.0
C1900 C 0.36872 0.30062 0.20308 0.0
C1901 C 0.3823 0.28643 0.18669 0.0
C1902 C 0.38086 0.2932 0.16239 0.0
C1903 C 0.3663 0.31386 0.15461 0.0
C1904 C 0.39811 0.26455 0.1947 0.0
C1905 C 0.39519 0.24035 0.18414 0.0
C1906 C 0.41614 0.26745 0.21234 0.0
C1907 C 0.42128 0.29284 0.22296 0.0
C1908 C 0.42678 0.31402 0.20831 0.0
C1909 C 0.43157 0.33791 0.21841 0.0
C1910 C 0.43112 0.34081 0.24316 0.0
C1911 C 0.42596 0.3198 0.25787 0.0
C1912 C 0.42111 0.29587 0.24785 0.0
C1913 C 0.4803 0.17629 0.19835 0.0
C1914 C 0.48352 0.16513 0.22109 0.0
C1915 C 0.46187 0.19428 0.194 0.0
C1916 C 0.44663 0.20179 0.21245 0.0
C1917 C 0.44981 0.19061 0.23525 0.0
C1918 C 0.46807 0.1722 0.23948 0.0
C1919 C 0.4282 0.2222 0.20786 0.0
C1920 C 0.4307 0.24613 0.21896 0.0
C1921 C 0.40999 0.21915 0.1905 0.0
C1922 C 0.40619 0.19401 0.17877 0.0
C1923 C 0.40317 0.1715 0.19252 0.0
C1924 C 0.40016 0.14778 0.1814 0.0
C1925 C 0.39998 0.14631 0.15652 0.0
C1926 C 0.40271 0.1686 0.1427 0.0
C1927 C 0.40576 0.19238 0.15373 0.0
H1928 H 0.3977 0.12791 0.14794 0.0
H1929 H 0.43485 0.35932 0.25095 0.0
H1930 H 0.9876 0.28768 0.80979 0.0
H1931 H 0.96111 0.25173 0.81682 0.0
H1932 H 0.90713 0.28839 0.77194 0.0
H1933 H 0.93376 0.32448 0.76445 0.0
H1934 H 0.89013 0.26842 0.8169 0.0
H1935 H 0.93368 0.24101 0.7494 0.0
H1936 H 0.9695 0.23319 0.72537 0.0
H1937 H 0.99633 0.17875 0.77788 0.0
H1938 H 0.96085 0.18667 0.80252 0.0
H1939 H 0.81913 0.15642 0.82333 0.0
H1940 H 0.84155 0.19189 0.80615 0.0
H1941 H 0.90601 0.16155 0.83957 0.0
H1942 H 0.88389 0.12566 0.85619 0.0
H1943 H 0.91498 0.17937 0.79541 0.0
H1944 H 0.87319 0.21087 0.86462 0.0
H1945 H 0.83761 0.21963 0.88885 0.0
H1946 H 0.80733 0.26683 0.83233 0.0
H1947 H 0.84263 0.25806 0.80763 0.0
C1948 C 0.97008 0.28823 0.80143 0.0
C1949 C 0.96283 0.30904 0.78656 0.0
C1950 C 0.95498 0.26757 0.80541 0.0
C1951 C 0.93219 0.2673 0.79482 0.0
C1952 C 0.92466 0.2882 0.78027 0.0
C1953 C 0.93994 0.30876 0.77596 0.0
C1954 C 0.91644 0.24505 0.79913 0.0
C1955 C 0.8953 0.249 0.81179 0.0
C1956 C 0.92337 0.21968 0.79275 0.0
C1957 C 0.94468 0.21462 0.77793 0.0
C1958 C 0.94731 0.22754 0.75595 0.0
C1959 C 0.96754 0.22306 0.74219 0.0
C1960 C 0.9852 0.2055 0.75009 0.0
C1961 C 0.98264 0.19236 0.77178 0.0
C1962 C 0.96246 0.19684 0.78566 0.0
C1963 C 0.83815 0.15699 0.82667 0.0
C1964 C 0.84963 0.13824 0.84137 0.0
C1965 C 0.85093 0.17746 0.817 0.0
C1966 C 0.87544 0.1797 0.82186 0.0
C1967 C 0.88711 0.16039 0.83564 0.0
C1968 C 0.87437 0.13995 0.84531 0.0
C1969 C 0.88883 0.20263 0.81361 0.0
C1970 C 0.90961 0.1988 0.80025 0.0
C1971 C 0.88153 0.22814 0.81929 0.0
C1972 C 0.86041 0.23357 0.83418 0.0
C1973 C 0.85886 0.22297 0.8573 0.0
C1974 C 0.83876 0.22795 0.87113 0.0
C1975 C 0.82019 0.24371 0.86211 0.0
C1976 C 0.82171 0.25458 0.83927 0.0
C1977 C 0.84176 0.24962 0.82536 0.0
H1978 H 0.80464 0.24755 0.87284 0.0
H1979 H 1.00085 0.20205 0.7394 0.0
H1980 H 0.13388 0.60576 0.09195 0.0
H1981 H 0.09535 0.62579 0.08109 0.0
H1982 H 0.05913 0.56388 0.1163 0.0
H1983 H 0.09774 0.5436 0.12714 0.0
H1984 H 0.03827 0.57836 0.07176 0.0
H1985 H 0.06245 0.61758 0.14457 0.0
H1986 H 0.08997 0.63935 0.17205 0.0
H1987 H 0.09358 0.70352 0.12333 0.0
H1988 H 0.06636 0.68195 0.09537 0.0
H1989 H 0.92752 0.6575 0.0711 0.0
H1990 H 0.96071 0.62689 0.08061 0.0
H1991 H 1.01079 0.68234 0.05488 0.0
H1992 H 0.97821 0.71258 0.0458 0.0
H1993 H 0.02172 0.66733 0.09938 0.0
H1994 H 0.99989 0.6266 0.02522 0.0
H1995 H 0.97606 0.60258 0.99603 0.0
H1996 H 0.96877 0.54072 0.04673 0.0
H1997 H 0.99231 0.56454 0.07635 0.0
C1998 C 0.11773 0.59622 0.09711 0.0
C1999 C 0.11886 0.57313 0.11047 0.0
C2000 C 0.09572 0.60777 0.09104 0.0
C2001 C 0.07437 0.59645 0.09809 0.0
C2002 C 0.07539 0.57297 0.11074 0.0
C2003 C 0.09743 0.56151 0.11704 0.0
C2004 C 0.05114 0.6097 0.09282 0.0
C2005 C 0.03437 0.59766 0.07811 0.0
C2006 C 0.04622 0.63492 0.10096 0.0
C2007 C 0.06251 0.64804 0.11778 0.0
C2008 C 0.06926 0.63624 0.13962 0.0
C2009 C 0.08478 0.64856 0.1553 0.0
C2010 C 0.09356 0.67278 0.14942 0.0
C2011 C 0.08679 0.68475 0.12786 0.0
C2012 C 0.07129 0.67249 0.1121 0.0
C2013 C 0.94561 0.66279 0.06709 0.0
C2014 C 0.95037 0.68752 0.05809 0.0
C2015 C 0.96454 0.64535 0.07251 0.0
C2016 C 0.98831 0.65245 0.06873 0.0
C2017 C 0.9927 0.67651 0.05827 0.0
C2018 C 0.97401 0.6938 0.05307 0.0
C2019 C 1.00901 0.63641 0.07751 0.0
C2020 C 0.02534 0.64792 0.09316 0.0
C2021 C 1.01343 0.61074 0.07019 0.0
C2022 C 0.9976 0.5975 0.05311 0.0
C2023 C 0.99281 0.60811 0.03031 0.0
C2024 C 0.97947 0.59444 1.01363 0.0
C2025 C 0.97095 0.5701 0.01952 0.0
C2026 C 0.9754 0.55956 0.04221 0.0
C2027 C 0.98872 0.57314 0.05894 0.0
H2028 H 0.96109 0.55923 1.00648 0.0
H2029 H 0.10557 0.68229 0.16159 0.0
H2030 H 0.66455 0.84716 0.38601 0.0
H2031 H 0.64355 0.81112 0.36862 0.0
H2032 H 0.69603 0.80543 0.31332 0.0
H2033 H 0.71755 0.84142 0.33094 0.0
H2034 H 0.65014 0.79998 0.29545 0.0
H2035 H 0.69831 0.76271 0.35784 0.0
H2036 H 0.71543 0.75825 0.39845 0.0
H2037 H 0.64565 0.74664 0.42665 0.0
H2038 H 0.62804 0.75143 0.38623 0.0
H2039 H 0.60499 0.67628 0.26098 0.0
H2040 H 0.63149 0.71084 0.27335 0.0
H2041 H 0.58734 0.72556 0.33433 0.0
H2042 H 0.56105 0.69112 0.32236 0.0
H2043 H 0.63349 0.72435 0.34703 0.0
H2044 H 0.58537 0.76492 0.28435 0.0
H2045 H 0.56877 0.76864 0.24345 0.0
H2046 H 0.63943 0.77284 0.21538 0.0
H2047 H 0.65647 0.76882 0.25612 0.0
C2048 C 0.67187 0.83815 0.3703 0.0
C2049 C 0.69302 0.8471 0.36014 0.0
C2050 C 0.65972 0.81756 0.36028 0.0
C2051 C 0.66835 0.80526 0.33982 0.0
C2052 C 0.68903 0.81456 0.32913 0.0
C2053 C 0.70129 0.83521 0.33922 0.0
C2054 C 0.65586 0.78243 0.33012 0.0
C2055 C 0.64684 0.78324 0.3066 0.0
C2056 C 0.65133 0.76063 0.34466 0.0
C2057 C 0.66183 0.75765 0.36901 0.0
C2058 C 0.68659 0.75941 0.37272 0.0
C2059 C 0.69639 0.75679 0.39571 0.0
C2060 C 0.68163 0.75222 0.41512 0.0
C2061 C 0.65705 0.75021 0.41159 0.0
C2062 C 0.64715 0.75285 0.38864 0.0
C2063 C 0.60091 0.68688 0.27703 0.0
C2064 C 0.58081 0.68083 0.29064 0.0
C2065 C 0.61605 0.70673 0.28403 0.0
C2066 C 0.61136 0.72099 0.30473 0.0
C2067 C 0.59139 0.71487 0.31833 0.0
C2068 C 0.57629 0.69514 0.31137 0.0
C2069 C 0.6272 0.74214 0.31258 0.0
C2070 C 0.63693 0.74097 0.3358 0.0
C2071 C 0.63243 0.76349 0.2977 0.0
C2072 C 0.6222 0.7663 0.27325 0.0
C2073 C 0.59737 0.76647 0.26944 0.0
C2074 C 0.58788 0.76866 0.24629 0.0
C2075 C 0.60303 0.77089 0.22682 0.0
C2076 C 0.62771 0.77106 0.23048 0.0
C2077 C 0.6373 0.76885 0.25359 0.0
H2078 H 0.59565 0.77256 0.20892 0.0
H2079 H 0.68926 0.75019 0.4329 0.0
H2080 H 0.62429 0.33027 0.56923 0.0
H2081 H 0.59362 0.36416 0.57542 0.0
H2082 H 0.54008 0.31439 0.54651 0.0
H2083 H 0.57033 0.2806 0.54079 0.0
H2084 H 0.53482 0.36739 0.53165 0.0
H2085 H 0.54782 0.3142 0.60378 0.0
H2086 H 0.57307 0.2963 0.63656 0.0
H2087 H 0.59005 0.37283 0.65866 0.0
H2088 H 0.56513 0.39116 0.62577 0.0
H2089 H 0.42117 0.39162 0.57738 0.0
H2090 H 0.4599 0.37568 0.564 0.0
H2091 H 0.49502 0.42679 0.61285 0.0
H2092 H 0.45611 0.4423 0.62676 0.0
H2093 H 0.51513 0.38227 0.61654 0.0
H2094 H 0.49591 0.43611 0.55029 0.0
H2095 H 0.47151 0.45537 0.51755 0.0
H2096 H 0.46782 0.38167 0.48372 0.0
H2097 H 0.49191 0.36186 0.51642 0.0
C2098 C 0.60602 0.32685 0.56386 0.0
C2099 C 0.59953 0.30282 0.55481 0.0
C2100 C 0.58857 0.34614 0.5674 0.0
C2101 C 0.56458 0.34168 0.56151 0.0
C2102 C 0.55847 0.31823 0.55111 0.0
C2103 C 0.57574 0.2989 0.548 0.0
C2104 C 0.54526 0.36003 0.56819 0.0
C2105 C 0.53046 0.37079 0.55018 0.0
C2106 C 0.54009 0.36506 0.59235 0.0
C2107 C 0.55489 0.35403 0.61217 0.0
C2108 C 0.5571 0.32719 0.61552 0.0
C2109 C 0.57132 0.31697 0.63413 0.0
C2110 C 0.58322 0.33341 0.64964 0.0
C2111 C 0.58086 0.36012 0.64661 0.0
C2112 C 0.5667 0.37043 0.62799 0.0
C2113 C 0.43714 0.39976 0.58499 0.0
C2114 C 0.43561 0.41823 0.60309 0.0
C2115 C 0.45933 0.39072 0.57726 0.0
C2116 C 0.48051 0.40031 0.5871 0.0
C2117 C 0.47899 0.4191 0.60493 0.0
C2118 C 0.45676 0.42793 0.61289 0.0
C2119 C 0.50404 0.38923 0.57998 0.0
C2120 C 0.51965 0.37968 0.59794 0.0
C2121 C 0.5101 0.38567 0.55573 0.0
C2122 C 0.49563 0.39747 0.53592 0.0
C2123 C 0.48977 0.42396 0.53596 0.0
C2124 C 0.47601 0.43498 0.51739 0.0
C2125 C 0.46809 0.41974 0.49859 0.0
C2126 C 0.47397 0.39345 0.49829 0.0
C2127 C 0.48771 0.38232 0.51683 0.0
H2128 H 0.45744 0.42831 0.48423 0.0
H2129 H 0.59421 0.32547 0.66404 0.0
H2130 H 0.17147 0.62902 0.67605 0.0
H2131 H 0.14857 0.66581 0.69102 0.0
H2132 H 0.21302 0.70892 0.69841 0.0
H2133 H 0.23614 0.67232 0.68283 0.0
H2134 H 0.17913 0.71562 0.73717 0.0
H2135 H 0.1826 0.72167 0.65189 0.0
H2136 H 0.17961 0.70521 0.61086 0.0
H2137 H 0.10565 0.68926 0.62108 0.0
H2138 H 0.10829 0.70524 0.66233 0.0
H2139 H 0.10156 0.83521 0.73196 0.0
H2140 H 0.13532 0.8045 0.72689 0.0
H2141 H 0.08589 0.74254 0.71924 0.0
H2142 H 0.05262 0.77254 0.72474 0.0
H2143 H 0.1183 0.75094 0.68 0.0
H2144 H 0.11494 0.74326 0.76563 0.0
H2145 H 0.11849 0.75546 0.80784 0.0
H2146 H 0.19226 0.77262 0.79824 0.0
H2147 H 0.189 0.76132 0.7557 0.0
C2148 C 0.18085 0.64627 0.68087 0.0
C2149 C 0.20563 0.64779 0.67783 0.0
C2150 C 0.16774 0.66723 0.68958 0.0
C2151 C 0.17906 0.6902 0.69554 0.0
C2152 C 0.20394 0.69137 0.69391 0.0
C2153 C 0.21712 0.67038 0.68505 0.0
C2154 C 0.16448 0.71339 0.7016 0.0
C2155 C 0.16613 0.7238 0.72458 0.0
C2156 C 0.14745 0.72382 0.68517 0.0
C2157 C 0.1457 0.7145 0.66026 0.0
C2158 C 0.16574 0.71449 0.64545 0.0
C2159 C 0.1641 0.70526 0.62215 0.0
C2160 C 0.14246 0.69615 0.61338 0.0
C2161 C 0.1224 0.69631 0.62789 0.0
C2162 C 0.12395 0.70548 0.65123 0.0
C2163 C 0.09805 0.81495 0.72968 0.0
C2164 C 0.07446 0.80631 0.72857 0.0
C2165 C 0.11729 0.79746 0.72681 0.0
C2166 C 0.11306 0.77125 0.72267 0.0
C2167 C 0.08956 0.76265 0.72242 0.0
C2168 C 0.07054 0.7799 0.72547 0.0
C2169 C 0.13237 0.75287 0.71587 0.0
C2170 C 0.13163 0.7433 0.69254 0.0
C2171 C 0.15012 0.74333 0.73208 0.0
C2172 C 0.15158 0.75192 0.75725 0.0
C2173 C 0.13178 0.75025 0.77229 0.0
C2174 C 0.13379 0.75683 0.79636 0.0
C2175 C 0.1556 0.76472 0.80573 0.0
C2176 C 0.1754 0.76639 0.79098 0.0
C2177 C 0.17343 0.76005 0.76685 0.0
H2178 H 0.15717 0.76955 0.82442 0.0
H2179 H 0.14123 0.68901 0.59534 0.0
H2180 H 0.45314 0.78781 0.93732 0.0
H2181 H 0.4893 0.81079 0.92802 0.0
H2182 H 0.49059 0.84245 0.99886 0.0
H2183 H 0.45386 0.81975 1.00826 0.0
H2184 H 0.50339 0.87826 0.96652 0.0
H2185 H 0.52723 0.79149 0.98455 0.0
H2186 H 0.5262 0.74413 0.98194 0.0
H2187 H 0.54355 0.74845 0.90761 0.0
H2188 H 0.54433 0.79589 0.90969 0.0
H2189 H 0.62452 0.91783 0.95257 0.0
H2190 H 0.58844 0.89757 0.96727 0.0
H2191 H 0.5787 0.86069 0.89932 0.0
H2192 H 0.61509 0.88 0.88486 0.0
H2193 H 0.57138 0.82742 0.9344 0.0
H2194 H 0.54505 0.91499 0.91657 0.0
H2195 H 0.54628 0.96229 0.92001 0.0
H2196 H 0.53452 0.95614 0.99541 0.0
H2197 H 0.53349 0.90876 0.99245 0.0
C2198 C 0.46096 0.79973 0.95097 0.0
C2199 C 0.4506 0.80168 0.97365 0.0
C2200 C 0.48178 0.81282 0.94562 0.0
C2201 C 0.49308 0.82797 0.96287 0.0
C2202 C 0.48235 0.83077 0.98527 0.0
C2203 C 0.46133 0.81774 0.99063 0.0
C2204 C 0.51629 0.84028 0.95745 0.0
C2205 C 0.51838 0.86707 0.95986 0.0
C2206 C 0.53589 0.82583 0.94853 0.0
C2207 C 0.53566 0.79727 0.94724 0.0
C2208 C 0.53067 0.78236 0.96761 0.0
C2209 C 0.53015 0.7555 0.96623 0.0
C2210 C 0.53476 0.74329 0.94461 0.0
C2211 C 0.53997 0.75793 0.92434 0.0
C2212 C 0.54048 0.78481 0.92562 0.0
C2213 C 0.61481 0.90526 0.9408 0.0
C2214 C 0.62277 0.90075 0.91742 0.0
C2215 C 0.594 0.89387 0.94916 0.0
C2216 C 0.58056 0.87778 0.93434 0.0
C2217 C 0.58861 0.87307 0.91112 0.0
C2218 C 0.60938 0.88439 0.90277 0.0
C2219 C 0.55831 0.86549 0.94289 0.0
C2220 C 0.55644 0.83862 0.94117 0.0
C2221 C 0.53902 0.87986 0.95257 0.0
C2222 C 0.53944 0.90833 0.95432 0.0
C2223 C 0.54288 0.92372 0.9339 0.0
C2224 C 0.54352 0.95054 0.93576 0.0
C2225 C 0.54055 0.96221 0.95792 0.0
C2226 C 0.53685 0.94708 0.97826 0.0
C2227 C 0.53622 0.92024 0.9765 0.0
H2228 H 0.54105 0.98298 0.95933 0.0
H2229 H 0.53435 0.72249 0.94358 0.0
H2230 H 0.92115 0.0864 0.45914 0.0
H2231 H 0.95728 0.10804 0.47284 0.0
H2232 H 0.9964 0.07521 0.41441 0.0
H2233 H 0.96047 0.05351 0.40074 0.0
H2234 H 0.02336 0.07508 0.45674 0.0
H2235 H 0.9757 0.13481 0.40907 0.0
H2236 H 0.93902 0.1592 0.39777 0.0
H2237 H 0.93861 0.19544 0.46632 0.0
H2238 H 0.97513 0.17095 0.47816 0.0
H2239 H 0.12019 0.16475 0.45266 0.0
H2240 H 0.08775 0.1344 0.44596 0.0
H2241 H 0.04382 0.17688 0.49525 0.0
H2242 H 0.07558 0.20772 0.50079 0.0
H2243 H 0.01932 0.17057 0.45804 0.0
H2244 H 0.06918 0.11259 0.50515 0.0
H2245 H 0.10606 0.08814 0.51574 0.0
H2246 H 0.1028 0.04843 0.44905 0.0
H2247 H 0.06621 0.07297 0.43775 0.0
C2248 C 0.93754 0.0835 0.44943 0.0
C2249 C 0.93783 0.06843 0.4287 0.0
C2250 C 0.95816 0.09596 0.45721 0.0
C2251 C 0.97958 0.09346 0.44454 0.0
C2252 C 0.98016 0.07749 0.42449 0.0
C2253 C 0.95952 0.06526 0.41658 0.0
C2254 C 1.00089 0.10877 0.45119 0.0
C2255 C 0.02259 0.09598 0.45693 0.0
C2256 C 0.99986 0.13601 0.45171 0.0
C2257 C 0.97798 0.15084 0.44459 0.0
C2258 C 0.96767 0.14782 0.42181 0.0
C2259 C 0.94693 0.16169 0.41529 0.0
C2260 C 0.93645 0.1788 0.43134 0.0
C2261 C 0.94673 0.18214 0.45392 0.0
C2262 C 0.96745 0.16828 0.46054 0.0
C2263 C 0.10378 0.16713 0.46243 0.0
C2264 C 0.10033 0.18856 0.47719 0.0
C2265 C 0.08519 0.14978 0.45864 0.0
C2266 C 0.06309 0.1532 0.47007 0.0
C2267 C 0.06043 0.17381 0.48597 0.0
C2268 C 0.07869 0.19137 0.48927 0.0
C2269 C 0.04201 0.137 0.46416 0.0
C2270 C 0.02025 0.14967 0.45827 0.0
C2271 C 0.04308 0.10966 0.46362 0.0
C2272 C 0.06503 0.0948 0.4705 0.0
C2273 C 0.07641 0.09879 0.49265 0.0
C2274 C 0.09725 0.0849 0.4988 0.0
C2275 C 0.10675 0.06678 0.4831 0.0
C2276 C 0.09543 0.06248 0.46119 0.0
C2277 C 0.07464 0.07638 0.4549 0.0
H2278 H 0.12288 0.05605 0.48792 0.0
H2279 H 0.9204 0.18953 0.42626 0.0
loop_
_geom_bond_atom_site_label_1
_geom_bond_atom_site_label_2
_geom_bond_distance
_geom_bond_site_symmetry_2
_ccdc_geom_bond_type
La0 C2 2.928 . S
La0 O20 2.521 . S
La0 O21 2.628 . S
La0 O22 2.554 . S
La0 O23 2.757 . S
La0 O24 2.470 . S
La0 O29 2.482 . S
La0 O31 2.503 . S
La1 C11 2.928 . S
La1 O23 2.482 . S
La1 O25 2.503 . S
La1 O26 2.521 . S
La1 O27 2.628 . S
La1 O28 2.554 . S
La1 O29 2.757 . S
La1 O30 2.470 . S
C2 La0 2.928 . S
C2 C3 1.503 . S
C2 O20 1.261 . S
C2 O21 1.243 . S
C3 C2 1.503 . S
C3 C4 1.394 . S
C3 C8 1.373 . S
C4 C3 1.394 . S
C4 C5 1.380 . S
C4 H32 0.930 . S
C5 C4 1.380 . S
C5 C6 1.376 . S
C5 H33 0.930 . S
C6 C5 1.376 . S
C6 C7 1.370 . S
C7 C6 1.370 . S
C7 C8 1.396 . S
C7 H34 0.929 . S
C8 C3 1.373 . S
C8 C7 1.396 . S
C8 H35 0.929 . S
C9 O22 1.240 . S
C9 O23 1.289 . S
C10 O24 1.258 . S
C10 O25 1.256 . S
C11 La1 2.928 . S
C11 C12 1.503 . S
C11 O26 1.261 . S
C11 O27 1.243 . S
C12 C11 1.503 . S
C12 C13 1.394 . S
C12 C17 1.373 . S
C13 C12 1.394 . S
C13 C14 1.380 . S
C13 H36 0.930 . S
C14 C13 1.380 . S
C14 C15 1.376 . S
C14 H37 0.930 . S
C15 C14 1.376 . S
C15 C16 1.370 . S
C16 C15 1.370 . S
C16 C17 1.396 . S
C16 H38 0.929 . S
C17 C12 1.373 . S
C17 C16 1.396 . S
C17 H39 0.929 . S
C18 O28 1.240 . S
C18 O29 1.289 . S
C19 O30 1.258 . S
C19 O31 1.256 . S
O20 La0 2.521 . S
O20 C2 1.261 . S
O21 La0 2.628 . S
O21 C2 1.243 . S
O22 La0 2.554 . S
O22 C9 1.240 . S
O23 La0 2.757 . S
O23 La1 2.482 . S
O23 C9 1.289 . S
O24 La0 2.470 . S
O24 C10 1.258 . S
O25 La1 2.503 . S
O25 C10 1.256 . S
O26 La1 2.521 . S
O26 C11 1.261 . S
O27 La1 2.628 . S
O27 C11 1.243 . S
O28 La1 2.554 . S
O28 C18 1.240 . S
O29 La0 2.482 . S
O29 La1 2.757 . S
O29 C18 1.289 . S
O30 La1 2.470 . S
O30 C19 1.258 . S
O31 La0 2.503 . S
O31 C19 1.256 . S
H32 C4 0.930 . S
H33 C5 0.930 . S
H34 C7 0.929 . S
H35 C8 0.929 . S
H36 C13 0.930 . S
H37 C14 0.930 . S
H38 C16 0.929 . S
H39 C17 0.929 . S
La40 C42 2.928 . S
La40 O60 2.521 . S
La40 O61 2.628 . S
La40 O62 2.554 1_655 S
La40 O63 2.757 1_655 S
La40 O64 2.470 1_655 S
La40 O69 2.484 . S
La40 O71 2.503 . S
La41 C51 2.928 . S
La41 O63 2.482 . S
La41 O65 2.503 . S
La41 O66 2.521 . S
La41 O67 2.628 . S
La41 O68 2.554 . S
La41 O69 2.741 1_455 S
La41 O70 2.470 . S
C42 La40 2.928 . S
C42 C43 1.503 . S
C42 O60 1.261 . S
C42 O61 1.243 . S
C43 C42 1.503 . S
C43 C44 1.394 . S
C43 C48 1.373 . S
C44 C43 1.394 . S
C44 C45 1.380 . S
C44 H72 0.930 . S
C45 C44 1.380 . S
C45 C46 1.376 . S
C45 H73 0.930 . S
C46 C45 1.376 . S
C46 C47 1.370 . S
C47 C46 1.370 . S
C47 C48 1.396 . S
C47 H74 0.929 . S
C48 C43 1.373 . S
C48 C47 1.396 . S
C48 H75 0.929 . S
C49 O62 1.240 . S
C49 O63 1.289 . S
C50 O64 1.258 . S
C50 O65 1.256 . S
C51 La41 2.928 . S
C51 C52 1.503 . S
C51 O66 1.261 . S
C51 O67 1.243 . S
C52 C51 1.503 . S
C52 C53 1.394 . S
C52 C57 1.373 . S
C53 C52 1.394 . S
C53 C54 1.380 . S
C53 H76 0.930 . S
C54 C53 1.380 . S
C54 C55 1.376 . S
C54 H77 0.930 . S
C55 C54 1.376 . S
C55 C56 1.370 . S
C56 C55 1.370 . S
C56 C57 1.396 . S
C56 H78 0.929 . S
C57 C52 1.373 . S
C57 C56 1.396 . S
C57 H79 0.929 . S
C58 O68 1.240 1_655 S
C58 O69 1.293 . S
C59 O70 1.258 . S
C59 O71 1.256 1_455 S
O60 La40 2.521 . S
O60 C42 1.261 . S
O61 La40 2.628 . S
O61 C42 1.243 . S
O62 La40 2.554 1_455 S
O62 C49 1.240 . S
O63 La40 2.757 1_455 S
O63 La41 2.482 . S
O63 C49 1.289 . S
O64 La40 2.470 1_455 S
O64 C50 1.258 . S
O65 La41 2.503 . S
O65 C50 1.256 . S
O66 La41 2.521 . S
O66 C51 1.261 . S
O67 La41 2.628 . S
O67 C51 1.243 . S
O68 La41 2.554 . S
O68 C58 1.240 1_455 S
O69 La40 2.484 . S
O69 La41 2.741 1_655 S
O69 C58 1.293 . S
O70 La41 2.470 . S
O70 C59 1.258 . S
O71 La40 2.503 . S
O71 C59 1.256 1_655 S
H72 C44 0.930 . S
H73 C45 0.930 . S
H74 C47 0.929 . S
H75 C48 0.929 . S
H76 C53 0.930 . S
H77 C54 0.930 . S
H78 C56 0.929 . S
H79 C57 0.929 . S
La80 C82 2.928 . S
La80 O100 2.521 . S
La80 O101 2.628 . S
La80 O102 2.554 1_554 S
La80 O103 2.757 1_554 S
La80 O104 2.470 1_554 S
La80 O109 2.482 . S
La80 O111 2.503 . S
La81 C91 2.928 . S
La81 O103 2.482 . S
La81 O105 2.503 . S
La81 O106 2.521 . S
La81 O107 2.628 . S
La81 O108 2.554 . S
La81 O109 2.757 1_556 S
La81 O110 2.470 . S
C82 La80 2.928 . S
C82 C83 1.503 . S
C82 O100 1.261 . S
C82 O101 1.243 . S
C83 C82 1.503 . S
C83 C84 1.394 . S
C83 C88 1.373 . S
C84 C83 1.394 . S
C84 C85 1.380 . S
C84 H112 0.930 . S
C85 C84 1.380 . S
C85 C86 1.376 . S
C85 H113 0.930 . S
C86 C85 1.376 . S
C86 C87 1.370 . S
C87 C86 1.370 . S
C87 C88 1.396 . S
C87 H114 0.929 . S
C88 C83 1.373 . S
C88 C87 1.396 . S
C88 H115 0.929 . S
C89 O102 1.240 . S
C89 O103 1.289 . S
C90 O104 1.258 . S
C90 O105 1.256 . S
C91 La81 2.928 . S
C91 C92 1.503 . S
C91 O106 1.261 . S
C91 O107 1.243 . S
C92 C91 1.503 . S
C92 C93 1.394 . S
C92 C97 1.373 . S
C93 C92 1.394 . S
C93 C94 1.380 . S
C93 H116 0.930 . S
C94 C93 1.380 . S
C94 C95 1.376 . S
C94 H117 0.930 . S
C95 C94 1.376 . S
C95 C96 1.370 . S
C96 C95 1.370 . S
C96 C97 1.396 . S
C96 H118 0.929 . S
C97 C92 1.373 . S
C97 C96 1.396 . S
C97 H119 0.929 . S
C98 O108 1.240 1_554 S
C98 O109 1.289 . S
C99 O110 1.258 . S
C99 O111 1.256 1_556 S
O100 La80 2.521 . S
O100 C82 1.261 . S
O101 La80 2.628 . S
O101 C82 1.243 . S
O102 La80 2.554 1_556 S
O102 C89 1.240 . S
O103 La80 2.757 1_556 S
O103 La81 2.482 . S
O103 C89 1.289 . S
O104 La80 2.470 1_556 S
O104 C90 1.258 . S
O105 La81 2.503 . S
O105 C90 1.256 . S
O106 La81 2.521 . S
O106 C91 1.261 . S
O107 La81 2.628 . S
O107 C91 1.243 . S
O108 La81 2.554 . S
O108 C98 1.240 1_556 S
O109 La80 2.482 . S
O109 La81 2.757 1_554 S
O109 C98 1.289 . S
O110 La81 2.470 . S
O110 C99 1.258 . S
O111 La80 2.503 . S
O111 C99 1.256 1_554 S
H112 C84 0.930 . S
H113 C85 0.930 . S
H114 C87 0.929 . S
H115 C88 0.929 . S
H116 C93 0.930 . S
H117 C94 0.930 . S
H118 C96 0.929 . S
H119 C97 0.929 . S
La120 C122 2.928 . S
La120 O140 2.521 . S
La120 O141 2.628 . S
La120 O142 2.554 . S
La120 O143 2.757 . S
La120 O144 2.470 . S
La120 O149 2.482 . S
La120 O151 2.503 . S
La121 C131 2.928 . S
La121 O143 2.482 . S
La121 O145 2.503 . S
La121 O146 2.521 . S
La121 O147 2.628 . S
La121 O148 2.554 . S
La121 O149 2.757 . S
La121 O150 2.470 . S
C122 La120 2.928 . S
C122 C123 1.503 . S
C122 O140 1.261 . S
C122 O141 1.243 . S
C123 C122 1.503 . S
C123 C124 1.394 . S
C123 C128 1.373 . S
C124 C123 1.394 . S
C124 C125 1.380 . S
C124 H152 0.930 . S
C125 C124 1.380 . S
C125 C126 1.376 . S
C125 H153 0.930 . S
C126 C125 1.376 . S
C126 C127 1.370 . S
C127 C126 1.370 . S
C127 C128 1.396 . S
C127 H154 0.929 . S
C128 C123 1.373 . S
C128 C127 1.396 . S
C128 H155 0.929 . S
C129 O142 1.240 . S
C129 O143 1.289 . S
C130 O144 1.258 . S
C130 O145 1.256 . S
C131 La121 2.928 . S
C131 C132 1.503 . S
C131 O146 1.261 . S
C131 O147 1.243 . S
C132 C131 1.503 . S
C132 C133 1.394 . S
C132 C137 1.373 . S
C133 C132 1.394 . S
C133 C134 1.380 . S
C133 H156 0.930 . S
C134 C133 1.380 . S
C134 C135 1.376 . S
C134 H157 0.930 . S
C135 C134 1.376 . S
C135 C136 1.370 . S
C136 C135 1.370 . S
C136 C137 1.396 . S
C136 H158 0.929 . S
C137 C132 1.373 . S
C137 C136 1.396 . S
C137 H159 0.929 . S
C138 O148 1.240 . S
C138 O149 1.289 . S
C139 O150 1.258 . S
C139 O151 1.256 . S
O140 La120 2.521 . S
O140 C122 1.261 . S
O141 La120 2.628 . S
O141 C122 1.243 . S
O142 La120 2.554 . S
O142 C129 1.240 . S
O143 La120 2.757 . S
O143 La121 2.482 . S
O143 C129 1.289 . S
O144 La120 2.470 . S
O144 C130 1.258 . S
O145 La121 2.503 . S
O145 C130 1.256 . S
O146 La121 2.521 . S
O146 C131 1.261 . S
O147 La121 2.628 . S
O147 C131 1.243 . S
O148 La121 2.554 . S
O148 C138 1.240 . S
O149 La120 2.482 . S
O149 La121 2.757 . S
O149 C138 1.289 . S
O150 La121 2.470 . S
O150 C139 1.258 . S
O151 La120 2.503 . S
O151 C139 1.256 . S
H152 C124 0.930 . S
H153 C125 0.930 . S
H154 C127 0.929 . S
H155 C128 0.929 . S
H156 C133 0.930 . S
H157 C134 0.930 . S
H158 C136 0.929 . S
H159 C137 0.929 . S
La160 C162 2.928 . S
La160 O180 2.521 . S
La160 O181 2.628 . S
La160 O182 2.554 . S
La160 O183 2.757 . S
La160 O184 2.470 . S
La160 O189 2.482 . S
La160 O191 2.503 . S
La161 C171 2.928 . S
La161 O183 2.482 . S
La161 O185 2.503 . S
La161 O186 2.521 . S
La161 O187 2.628 . S
La161 O188 2.554 . S
La161 O189 2.757 . S
La161 O190 2.470 . S
C162 La160 2.928 . S
C162 C163 1.503 . S
C162 O180 1.261 . S
C162 O181 1.243 . S
C163 C162 1.503 . S
C163 C164 1.394 . S
C163 C168 1.373 . S
C164 C163 1.394 . S
C164 C165 1.380 . S
C164 H192 0.930 . S
C165 C164 1.380 . S
C165 C166 1.376 . S
C165 H193 0.930 . S
C166 C165 1.376 . S
C166 C167 1.370 . S
C167 C166 1.370 . S
C167 C168 1.396 . S
C167 H194 0.929 . S
C168 C163 1.373 . S
C168 C167 1.396 . S
C168 H195 0.929 . S
C169 O182 1.240 . S
C169 O183 1.289 . S
C170 O184 1.258 . S
C170 O185 1.256 . S
C171 La161 2.928 . S
C171 C172 1.503 . S
C171 O186 1.261 . S
C171 O187 1.243 . S
C172 C171 1.503 . S
C172 C173 1.394 . S
C172 C177 1.373 . S
C173 C172 1.394 . S
C173 C174 1.380 . S
C173 H196 0.930 . S
C174 C173 1.380 . S
C174 C175 1.376 . S
C174 H197 0.930 . S
C175 C174 1.376 . S
C175 C176 1.370 . S
C176 C175 1.370 . S
C176 C177 1.396 . S
C176 H198 0.929 . S
C177 C172 1.373 . S
C177 C176 1.396 . S
C177 H199 0.929 . S
C178 O188 1.240 . S
C178 O189 1.289 . S
C179 O190 1.258 . S
C179 O191 1.256 . S
O180 La160 2.521 . S
O180 C162 1.261 . S
O181 La160 2.628 . S
O181 C162 1.243 . S
O182 La160 2.554 . S
O182 C169 1.240 . S
O183 La160 2.757 . S
O183 La161 2.482 . S
O183 C169 1.289 . S
O184 La160 2.470 . S
O184 C170 1.258 . S
O185 La161 2.503 . S
O185 C170 1.256 . S
O186 La161 2.521 . S
O186 C171 1.261 . S
O187 La161 2.628 . S
O187 C171 1.243 . S
O188 La161 2.554 . S
O188 C178 1.240 . S
O189 La160 2.482 . S
O189 La161 2.757 . S
O189 C178 1.289 . S
O190 La161 2.470 . S
O190 C179 1.258 . S
O191 La160 2.503 . S
O191 C179 1.256 . S
H192 C164 0.930 . S
H193 C165 0.930 . S
H194 C167 0.929 . S
H195 C168 0.929 . S
H196 C173 0.930 . S
H197 C174 0.930 . S
H198 C176 0.929 . S
H199 C177 0.929 . S
La200 C202 2.928 . S
La200 O220 2.521 . S
La200 O221 2.628 . S
La200 O222 2.554 . S
La200 O223 2.757 . S
La200 O224 2.470 . S
La200 O229 2.482 . S
La200 O231 2.503 1_655 S
La201 C211 2.928 . S
La201 O223 2.482 1_455 S
La201 O225 2.503 1_455 S
La201 O226 2.521 . S
La201 O227 2.628 . S
La201 O228 2.554 . S
La201 O229 2.757 1_455 S
La201 O230 2.470 . S
C202 La200 2.928 . S
C202 C203 1.503 . S
C202 O220 1.261 . S
C202 O221 1.243 . S
C203 C202 1.503 . S
C203 C204 1.394 . S
C203 C208 1.373 . S
C204 C203 1.394 . S
C204 C205 1.380 . S
C204 H232 0.930 . S
C205 C204 1.380 . S
C205 C206 1.376 . S
C205 H233 0.930 . S
C206 C205 1.376 . S
C206 C207 1.370 . S
C207 C206 1.370 . S
C207 C208 1.396 . S
C207 H234 0.929 . S
C208 C203 1.373 . S
C208 C207 1.396 . S
C208 H235 0.929 . S
C209 O222 1.240 . S
C209 O223 1.289 . S
C210 O224 1.258 . S
C210 O225 1.256 . S
C211 La201 2.928 . S
C211 C212 1.503 . S
C211 O226 1.261 . S
C211 O227 1.243 . S
C212 C211 1.503 . S
C212 C213 1.394 . S
C212 C217 1.373 . S
C213 C212 1.394 . S
C213 C214 1.380 . S
C213 H236 0.930 . S
C214 C213 1.380 . S
C214 C215 1.376 . S
C214 H237 0.930 . S
C215 C214 1.376 . S
C215 C216 1.370 . S
C216 C215 1.370 . S
C216 C217 1.396 . S
C216 H238 0.929 . S
C217 C212 1.373 . S
C217 C216 1.396 . S
C217 H239 0.929 . S
C218 O228 1.240 . S
C218 O229 1.289 1_455 S
C219 O230 1.258 . S
C219 O231 1.256 . S
O220 La200 2.521 . S
O220 C202 1.261 . S
O221 La200 2.628 . S
O221 C202 1.243 . S
O222 La200 2.554 . S
O222 C209 1.240 . S
O223 La200 2.757 . S
O223 La201 2.482 1_655 S
O223 C209 1.289 . S
O224 La200 2.470 . S
O224 C210 1.258 . S
O225 La201 2.503 1_655 S
O225 C210 1.256 . S
O226 La201 2.521 . S
O226 C211 1.261 . S
O227 La201 2.628 . S
O227 C211 1.243 . S
O228 La201 2.554 . S
O228 C218 1.240 . S
O229 La200 2.482 . S
O229 La201 2.757 1_655 S
O229 C218 1.289 1_655 S
O230 La201 2.470 . S
O230 C219 1.258 . S
O231 La200 2.503 1_455 S
O231 C219 1.256 . S
H232 C204 0.930 . S
H233 C205 0.930 . S
H234 C207 0.929 . S
H235 C208 0.929 . S
H236 C213 0.930 . S
H237 C214 0.930 . S
H238 C216 0.929 . S
H239 C217 0.929 . S
La240 C242 2.928 . S
La240 O260 2.521 . S
La240 O261 2.628 . S
La240 O262 2.554 . S
La240 O263 2.757 . S
La240 O264 2.470 . S
La240 O269 2.482 . S
La240 O271 2.503 1_554 S
La241 C251 2.928 . S
La241 O263 2.482 1_556 S
La241 O265 2.503 1_556 S
La241 O266 2.521 . S
La241 O267 2.628 . S
La241 O268 2.554 . S
La241 O269 2.757 1_556 S
La241 O270 2.470 . S
C242 La240 2.928 . S
C242 C243 1.503 . S
C242 O260 1.261 . S
C242 O261 1.243 . S
C243 C242 1.503 . S
C243 C244 1.394 . S
C243 C248 1.373 . S
C244 C243 1.394 . S
C244 C245 1.380 . S
C244 H272 0.930 . S
C245 C244 1.380 . S
C245 C246 1.376 . S
C245 H273 0.930 . S
C246 C245 1.376 . S
C246 C247 1.370 . S
C247 C246 1.370 . S
C247 C248 1.396 . S
C247 H274 0.929 . S
C248 C243 1.373 . S
C248 C247 1.396 . S
C248 H275 0.929 . S
C249 O262 1.240 . S
C249 O263 1.289 . S
C250 O264 1.258 . S
C250 O265 1.256 . S
C251 La241 2.928 . S
C251 C252 1.503 . S
C251 O266 1.261 . S
C251 O267 1.243 . S
C252 C251 1.503 . S
C252 C253 1.394 . S
C252 C257 1.373 . S
C253 C252 1.394 . S
C253 C254 1.380 . S
C253 H276 0.930 . S
C254 C253 1.380 . S
C254 C255 1.376 . S
C254 H277 0.930 . S
C255 C254 1.376 . S
C255 C256 1.370 . S
C256 C255 1.370 . S
C256 C257 1.396 . S
C256 H278 0.929 . S
C257 C252 1.373 . S
C257 C256 1.396 . S
C257 H279 0.929 . S
C258 O268 1.240 . S
C258 O269 1.289 1_556 S
C259 O270 1.258 . S
C259 O271 1.256 . S
O260 La240 2.521 . S
O260 C242 1.261 . S
O261 La240 2.628 . S
O261 C242 1.243 . S
O262 La240 2.554 . S
O262 C249 1.240 . S
O263 La240 2.757 . S
O263 La241 2.482 1_554 S
O263 C249 1.289 . S
O264 La240 2.470 . S
O264 C250 1.258 . S
O265 La241 2.503 1_554 S
O265 C250 1.256 . S
O266 La241 2.521 . S
O266 C251 1.261 . S
O267 La241 2.628 . S
O267 C251 1.243 . S
O268 La241 2.554 . S
O268 C258 1.240 . S
O269 La240 2.482 . S
O269 La241 2.757 1_554 S
O269 C258 1.289 1_554 S
O270 La241 2.470 . S
O270 C259 1.258 . S
O271 La240 2.503 1_556 S
O271 C259 1.256 . S
H272 C244 0.930 . S
H273 C245 0.930 . S
H274 C247 0.929 . S
H275 C248 0.929 . S
H276 C253 0.930 . S
H277 C254 0.930 . S
H278 C256 0.929 . S
H279 C257 0.929 . S
La280 C282 2.928 . S
La280 O300 2.521 . S
La280 O301 2.628 . S
La280 O302 2.554 . S
La280 O303 2.757 . S
La280 O304 2.470 . S
La280 O309 2.482 . S
La280 O311 2.503 . S
La281 C291 2.928 . S
La281 O303 2.482 . S
La281 O305 2.503 . S
La281 O306 2.521 . S
La281 O307 2.628 . S
La281 O308 2.554 . S
La281 O309 2.757 . S
La281 O310 2.470 . S
C282 La280 2.928 . S
C282 C283 1.503 . S
C282 O300 1.261 . S
C282 O301 1.243 . S
C283 C282 1.503 . S
C283 C284 1.394 . S
C283 C288 1.373 . S
C284 C283 1.394 . S
C284 C285 1.380 . S
C284 H312 0.930 . S
C285 C284 1.380 . S
C285 C286 1.376 . S
C285 H313 0.930 . S
C286 C285 1.376 . S
C286 C287 1.370 . S
C287 C286 1.370 . S
C287 C288 1.396 . S
C287 H314 0.929 . S
C288 C283 1.373 . S
C288 C287 1.396 . S
C288 H315 0.929 . S
C289 O302 1.240 . S
C289 O303 1.289 . S
C290 O304 1.258 . S
C290 O305 1.256 . S
C291 La281 2.928 . S
C291 C292 1.503 . S
C291 O306 1.261 . S
C291 O307 1.243 . S
C292 C291 1.503 . S
C292 C293 1.394 . S
C292 C297 1.373 . S
C293 C292 1.394 . S
C293 C294 1.380 . S
C293 H316 0.930 . S
C294 C293 1.380 . S
C294 C295 1.376 . S
C294 H317 0.930 . S
C295 C294 1.376 . S
C295 C296 1.370 . S
C296 C295 1.370 . S
C296 C297 1.396 . S
C296 H318 0.929 . S
C297 C292 1.373 . S
C297 C296 1.396 . S
C297 H319 0.929 . S
C298 O308 1.240 . S
C298 O309 1.289 . S
C299 O310 1.258 . S
C299 O311 1.256 . S
O300 La280 2.521 . S
O300 C282 1.261 . S
O301 La280 2.628 . S
O301 C282 1.243 . S
O302 La280 2.554 . S
O302 C289 1.240 . S
O303 La280 2.757 . S
O303 La281 2.482 . S
O303 C289 1.289 . S
O304 La280 2.470 . S
O304 C290 1.258 . S
O305 La281 2.503 . S
O305 C290 1.256 . S
O306 La281 2.521 . S
O306 C291 1.261 . S
O307 La281 2.628 . S
O307 C291 1.243 . S
O308 La281 2.554 . S
O308 C298 1.240 . S
O309 La280 2.482 . S
O309 La281 2.757 . S
O309 C298 1.289 . S
O310 La281 2.470 . S
O310 C299 1.258 . S
O311 La280 2.503 . S
O311 C299 1.256 . S
H312 C284 0.930 . S
H313 C285 0.930 . S
H314 C287 0.929 . S
H315 C288 0.929 . S
H316 C293 0.930 . S
H317 C294 0.930 . S
H318 C296 0.929 . S
H319 C297 0.929 . S
La320 C322 2.928 . S
La320 O340 2.521 . S
La320 O341 2.628 . S
La320 O342 2.554 . S
La320 O343 2.757 . S
La320 O344 2.470 . S
La320 O349 2.482 . S
La320 O351 2.503 . S
La321 C331 2.928 . S
La321 O343 2.482 . S
La321 O345 2.503 . S
La321 O346 2.521 . S
La321 O347 2.628 . S
La321 O348 2.554 . S
La321 O349 2.757 . S
La321 O350 2.470 . S
C322 La320 2.928 . S
C322 C323 1.503 . S
C322 O340 1.261 . S
C322 O341 1.243 . S
C323 C322 1.503 . S
C323 C324 1.394 . S
C323 C328 1.373 . S
C324 C323 1.394 . S
C324 C325 1.380 . S
C324 H352 0.930 . S
C325 C324 1.380 . S
C325 C326 1.376 . S
C325 H353 0.930 . S
C326 C325 1.376 . S
C326 C327 1.370 . S
C327 C326 1.370 . S
C327 C328 1.396 . S
C327 H354 0.929 . S
C328 C323 1.373 . S
C328 C327 1.396 . S
C328 H355 0.929 . S
C329 O342 1.240 . S
C329 O343 1.289 . S
C330 O344 1.258 . S
C330 O345 1.256 . S
C331 La321 2.928 . S
C331 C332 1.503 . S
C331 O346 1.261 . S
C331 O347 1.243 . S
C332 C331 1.503 . S
C332 C333 1.394 . S
C332 C337 1.373 . S
C333 C332 1.394 . S
C333 C334 1.380 . S
C333 H356 0.930 . S
C334 C333 1.380 . S
C334 C335 1.376 . S
C334 H357 0.930 . S
C335 C334 1.376 . S
C335 C336 1.370 . S
C336 C335 1.370 . S
C336 C337 1.396 . S
C336 H358 0.929 . S
C337 C332 1.373 . S
C337 C336 1.396 . S
C337 H359 0.929 . S
C338 O348 1.240 . S
C338 O349 1.289 . S
C339 O350 1.258 . S
C339 O351 1.256 . S
O340 La320 2.521 . S
O340 C322 1.261 . S
O341 La320 2.628 . S
O341 C322 1.243 . S
O342 La320 2.554 . S
O342 C329 1.240 . S
O343 La320 2.757 . S
O343 La321 2.482 . S
O343 C329 1.289 . S
O344 La320 2.470 . S
O344 C330 1.258 . S
O345 La321 2.503 . S
O345 C330 1.256 . S
O346 La321 2.521 . S
O346 C331 1.261 . S
O347 La321 2.628 . S
O347 C331 1.243 . S
O348 La321 2.554 . S
O348 C338 1.240 . S
O349 La320 2.482 . S
O349 La321 2.757 . S
O349 C338 1.289 . S
O350 La321 2.470 . S
O350 C339 1.258 . S
O351 La320 2.503 . S
O351 C339 1.256 . S
H352 C324 0.930 . S
H353 C325 0.930 . S
H354 C327 0.929 . S
H355 C328 0.929 . S
H356 C333 0.930 . S
H357 C334 0.930 . S
H358 C336 0.929 . S
H359 C337 0.929 . S
La360 C362 2.928 . S
La360 O380 2.521 . S
La360 O381 2.628 . S
La360 O382 2.554 1_565 S
La360 O383 2.757 1_565 S
La360 O384 2.470 1_565 S
La360 O389 2.482 . S
La360 O391 2.503 . S
La361 C371 2.928 . S
La361 O383 2.482 . S
La361 O385 2.503 . S
La361 O386 2.521 . S
La361 O387 2.628 . S
La361 O388 2.554 1_545 S
La361 O389 2.757 1_545 S
La361 O390 2.470 1_545 S
C362 La360 2.928 . S
C362 C363 1.503 . S
C362 O380 1.261 . S
C362 O381 1.243 . S
C363 C362 1.503 . S
C363 C364 1.394 . S
C363 C368 1.373 . S
C364 C363 1.394 . S
C364 C365 1.380 . S
C364 H392 0.930 . S
C365 C364 1.380 . S
C365 C366 1.376 . S
C365 H393 0.930 . S
C366 C365 1.376 . S
C366 C367 1.370 . S
C367 C366 1.370 . S
C367 C368 1.396 . S
C367 H394 0.929 . S
C368 C363 1.373 . S
C368 C367 1.396 . S
C368 H395 0.929 . S
C369 O382 1.240 . S
C369 O383 1.289 . S
C370 O384 1.258 . S
C370 O385 1.256 . S
C371 La361 2.928 . S
C371 C372 1.503 . S
C371 O386 1.261 . S
C371 O387 1.243 . S
C372 C371 1.503 . S
C372 C373 1.394 . S
C372 C377 1.373 . S
C373 C372 1.394 . S
C373 C374 1.380 . S
C373 H396 0.930 . S
C374 C373 1.380 . S
C374 C375 1.376 . S
C374 H397 0.930 . S
C375 C374 1.376 . S
C375 C376 1.370 . S
C376 C375 1.370 . S
C376 C377 1.396 . S
C376 H398 0.929 . S
C377 C372 1.373 . S
C377 C376 1.396 . S
C377 H399 0.929 . S
C378 O388 1.240 . S
C378 O389 1.289 . S
C379 O390 1.258 . S
C379 O391 1.256 . S
O380 La360 2.521 . S
O380 C362 1.261 . S
O381 La360 2.628 . S
O381 C362 1.243 . S
O382 La360 2.554 1_545 S
O382 C369 1.240 . S
O383 La360 2.757 1_545 S
O383 La361 2.482 . S
O383 C369 1.289 . S
O384 La360 2.470 1_545 S
O384 C370 1.258 . S
O385 La361 2.503 . S
O385 C370 1.256 . S
O386 La361 2.521 . S
O386 C371 1.261 . S
O387 La361 2.628 . S
O387 C371 1.243 . S
O388 La361 2.554 1_565 S
O388 C378 1.240 . S
O389 La360 2.482 . S
O389 La361 2.757 1_565 S
O389 C378 1.289 . S
O390 La361 2.470 1_565 S
O390 C379 1.258 . S
O391 La360 2.503 . S
O391 C379 1.256 . S
H392 C364 0.930 . S
H393 C365 0.930 . S
H394 C367 0.929 . S
H395 C368 0.929 . S
H396 C373 0.930 . S
H397 C374 0.930 . S
H398 C376 0.929 . S
H399 C377 0.929 . S
La400 C402 2.928 . S
La400 O420 2.521 . S
La400 O421 2.628 . S
La400 O422 2.554 . S
La400 O423 2.757 . S
La400 O424 2.470 . S
La400 O429 2.482 . S
La400 O431 2.503 1_565 S
La401 C411 2.928 . S
La401 O423 2.482 1_545 S
La401 O425 2.503 1_545 S
La401 O426 2.521 . S
La401 O427 2.628 . S
La401 O428 2.554 . S
La401 O429 2.757 1_545 S
La401 O430 2.470 . S
C402 La400 2.928 . S
C402 C403 1.503 . S
C402 O420 1.261 . S
C402 O421 1.243 . S
C403 C402 1.503 . S
C403 C404 1.394 . S
C403 C408 1.373 . S
C404 C403 1.394 . S
C404 C405 1.380 . S
C404 H432 0.930 . S
C405 C404 1.380 . S
C405 C406 1.376 . S
C405 H433 0.930 . S
C406 C405 1.376 . S
C406 C407 1.370 . S
C407 C406 1.370 . S
C407 C408 1.396 . S
C407 H434 0.929 . S
C408 C403 1.373 . S
C408 C407 1.396 . S
C408 H435 0.929 . S
C409 O422 1.240 . S
C409 O423 1.289 . S
C410 O424 1.258 . S
C410 O425 1.256 . S
C411 La401 2.928 . S
C411 C412 1.503 . S
C411 O426 1.261 . S
C411 O427 1.243 . S
C412 C411 1.503 . S
C412 C413 1.394 . S
C412 C417 1.373 . S
C413 C412 1.394 . S
C413 C414 1.380 . S
C413 H436 0.930 . S
C414 C413 1.380 . S
C414 C415 1.376 . S
C414 H437 0.930 . S
C415 C414 1.376 . S
C415 C416 1.370 . S
C416 C415 1.370 . S
C416 C417 1.396 . S
C416 H438 0.929 . S
C417 C412 1.373 . S
C417 C416 1.396 . S
C417 H439 0.929 . S
C418 O428 1.240 . S
C418 O429 1.289 1_545 S
C419 O430 1.258 . S
C419 O431 1.256 . S
O420 La400 2.521 . S
O420 C402 1.261 . S
O421 La400 2.628 . S
O421 C402 1.243 . S
O422 La400 2.554 . S
O422 C409 1.240 . S
O423 La400 2.757 . S
O423 La401 2.482 1_565 S
O423 C409 1.289 . S
O424 La400 2.470 . S
O424 C410 1.258 . S
O425 La401 2.503 1_565 S
O425 C410 1.256 . S
O426 La401 2.521 . S
O426 C411 1.261 . S
O427 La401 2.628 . S
O427 C411 1.243 . S
O428 La401 2.554 . S
O428 C418 1.240 . S
O429 La400 2.482 . S
O429 La401 2.757 1_565 S
O429 C418 1.289 1_565 S
O430 La401 2.470 . S
O430 C419 1.258 . S
O431 La400 2.503 1_545 S
O431 C419 1.256 . S
H432 C404 0.930 . S
H433 C405 0.930 . S
H434 C407 0.929 . S
H435 C408 0.929 . S
H436 C413 0.930 . S
H437 C414 0.930 . S
H438 C416 0.929 . S
H439 C417 0.929 . S
La440 C442 2.928 . S
La440 O460 2.521 . S
La440 O461 2.628 . S
La440 O462 2.554 . S
La440 O463 2.757 . S
La440 O464 2.470 . S
La440 O469 2.482 . S
La440 O471 2.503 . S
La441 C451 2.928 . S
La441 O463 2.482 . S
La441 O465 2.503 . S
La441 O466 2.521 . S
La441 O467 2.628 . S
La441 O468 2.554 . S
La441 O469 2.757 . S
La441 O470 2.470 . S
C442 La440 2.928 . S
C442 C443 1.503 . S
C442 O460 1.261 . S
C442 O461 1.243 . S
C443 C442 1.503 . S
C443 C444 1.394 . S
C443 C448 1.373 . S
C444 C443 1.394 . S
C444 C445 1.380 . S
C444 H472 0.930 . S
C445 C444 1.380 . S
C445 C446 1.376 . S
C445 H473 0.930 . S
C446 C445 1.376 . S
C446 C447 1.370 . S
C447 C446 1.370 . S
C447 C448 1.396 . S
C447 H474 0.929 . S
C448 C443 1.373 . S
C448 C447 1.396 . S
C448 H475 0.929 . S
C449 O462 1.240 . S
C449 O463 1.289 . S
C450 O464 1.258 . S
C450 O465 1.256 . S
C451 La441 2.928 . S
C451 C452 1.503 . S
C451 O466 1.261 . S
C451 O467 1.243 . S
C452 C451 1.503 . S
C452 C453 1.394 . S
C452 C457 1.373 . S
C453 C452 1.394 . S
C453 C454 1.380 . S
C453 H476 0.930 . S
C454 C453 1.380 . S
C454 C455 1.376 . S
C454 H477 0.930 . S
C455 C454 1.376 . S
C455 C456 1.370 . S
C456 C455 1.370 . S
C456 C457 1.396 . S
C456 H478 0.929 . S
C457 C452 1.373 . S
C457 C456 1.396 . S
C457 H479 0.929 . S
C458 O468 1.240 . S
C458 O469 1.289 . S
C459 O470 1.258 . S
C459 O471 1.256 . S
O460 La440 2.521 . S
O460 C442 1.261 . S
O461 La440 2.628 . S
O461 C442 1.243 . S
O462 La440 2.554 . S
O462 C449 1.240 . S
O463 La440 2.757 . S
O463 La441 2.482 . S
O463 C449 1.289 . S
O464 La440 2.470 . S
O464 C450 1.258 . S
O465 La441 2.503 . S
O465 C450 1.256 . S
O466 La441 2.521 . S
O466 C451 1.261 . S
O467 La441 2.628 . S
O467 C451 1.243 . S
O468 La441 2.554 . S
O468 C458 1.240 . S
O469 La440 2.482 . S
O469 La441 2.757 . S
O469 C458 1.289 . S
O470 La441 2.470 . S
O470 C459 1.258 . S
O471 La440 2.503 . S
O471 C459 1.256 . S
H472 C444 0.930 . S
H473 C445 0.930 . S
H474 C447 0.929 . S
H475 C448 0.929 . S
H476 C453 0.930 . S
H477 C454 0.930 . S
H478 C456 0.929 . S
H479 C457 0.929 . S
H480 C498 0.951 . S
H481 C500 0.951 . S
H482 C502 0.950 . S
H483 C503 0.950 . S
H484 C505 0.950 . S
H485 C508 0.950 . S
H486 C509 0.950 . S
H487 C511 0.950 . S
H488 C512 0.950 . S
H489 C513 0.951 . S
H490 C515 0.951 . S
H491 C517 0.950 . S
H492 C518 0.950 . S
H493 C520 0.950 . S
H494 C523 0.950 . S
H495 C524 0.950 . S
H496 C526 0.950 . S
H497 C527 0.950 . S
C498 H480 0.951 . S
C498 C499 1.366 . S
C498 C500 1.388 . S
C499 C498 1.366 . S
C499 C503 1.385 . S
C500 H481 0.951 . S
C500 C498 1.388 . S
C500 C501 1.366 . S
C501 C500 1.366 . S
C501 C502 1.414 . S
C501 C504 1.499 . S
C502 H482 0.950 . S
C502 C501 1.414 . S
C502 C503 1.374 . S
C503 H483 0.950 . S
C503 C499 1.385 . S
C503 C502 1.374 . S
C504 C501 1.499 . S
C504 C505 1.373 . S
C504 C506 1.389 . S
C505 H484 0.950 . S
C505 C504 1.373 . S
C505 C521 1.377 . S
C506 C504 1.389 . S
C506 C507 1.524 . S
C506 C520 1.377 . S
C507 C506 1.524 . S
C507 C508 1.397 . S
C507 C512 1.363 . S
C508 H485 0.950 . S
C508 C507 1.397 . S
C508 C509 1.334 . S
C509 H486 0.950 . S
C509 C508 1.334 . S
C509 C510 1.287 . S
C510 C509 1.287 . S
C510 C511 1.524 . S
C510 H529 0.913 . S
C511 H487 0.950 . S
C511 C510 1.524 . S
C511 C512 1.415 . S
C512 H488 0.950 . S
C512 C507 1.363 . S
C512 C511 1.415 . S
C513 H489 0.951 . S
C513 C514 1.366 . S
C513 C515 1.388 . S
C514 C513 1.366 . S
C514 C518 1.385 . S
C515 H490 0.951 . S
C515 C513 1.388 . S
C515 C516 1.366 . S
C516 C515 1.366 . S
C516 C517 1.414 . S
C516 C519 1.499 . S
C517 H491 0.950 . S
C517 C516 1.414 . S
C517 C518 1.374 . S
C518 H492 0.950 . S
C518 C514 1.385 . S
C518 C517 1.374 . S
C519 C516 1.499 . S
C519 C520 1.373 . S
C519 C521 1.389 . S
C520 H493 0.950 . S
C520 C506 1.377 . S
C520 C519 1.373 . S
C521 C505 1.377 . S
C521 C519 1.389 . S
C521 C522 1.524 . S
C522 C521 1.524 . S
C522 C523 1.397 . S
C522 C527 1.363 . S
C523 H494 0.950 . S
C523 C522 1.397 . S
C523 C524 1.334 . S
C524 H495 0.950 . S
C524 C523 1.334 . S
C524 C525 1.287 . S
C525 C524 1.287 . S
C525 C526 1.524 . S
C525 H528 0.999 . S
C526 H496 0.950 . S
C526 C525 1.524 . S
C526 C527 1.415 . S
C527 H497 0.950 . S
C527 C522 1.363 . S
C527 C526 1.415 . S
H528 C525 0.999 . S
H529 C510 0.913 . S
H530 C548 0.951 . S
H531 C550 0.951 . S
H532 C552 0.950 . S
H533 C553 0.950 . S
H534 C555 0.950 . S
H535 C558 0.950 . S
H536 C559 0.950 . S
H537 C561 0.950 . S
H538 C562 0.950 . S
H539 C563 0.951 . S
H540 C565 0.951 . S
H541 C567 0.950 . S
H542 C568 0.950 . S
H543 C570 0.950 . S
H544 C573 0.950 . S
H545 C574 0.950 . S
H546 C576 0.950 . S
H547 C577 0.950 . S
C548 H530 0.951 . S
C548 C549 1.366 . S
C548 C550 1.388 . S
C549 C548 1.366 . S
C549 C553 1.385 . S
C550 H531 0.951 . S
C550 C548 1.388 . S
C550 C551 1.366 . S
C551 C550 1.366 . S
C551 C552 1.414 . S
C551 C554 1.499 . S
C552 H532 0.950 . S
C552 C551 1.414 . S
C552 C553 1.374 . S
C553 H533 0.950 . S
C553 C549 1.385 . S
C553 C552 1.374 . S
C554 C551 1.499 . S
C554 C555 1.373 . S
C554 C556 1.389 . S
C555 H534 0.950 . S
C555 C554 1.373 . S
C555 C571 1.377 . S
C556 C554 1.389 . S
C556 C557 1.524 . S
C556 C570 1.377 . S
C557 C556 1.524 . S
C557 C558 1.397 . S
C557 C562 1.363 . S
C558 H535 0.950 . S
C558 C557 1.397 . S
C558 C559 1.334 . S
C559 H536 0.950 . S
C559 C558 1.334 . S
C559 C560 1.287 . S
C560 C559 1.287 . S
C560 C561 1.524 . S
C560 H579 0.913 . S
C561 H537 0.950 . S
C561 C560 1.524 . S
C561 C562 1.415 . S
C562 H538 0.950 . S
C562 C557 1.363 . S
C562 C561 1.415 . S
C563 H539 0.951 . S
C563 C564 1.366 . S
C563 C565 1.388 . S
C564 C563 1.366 . S
C564 C568 1.385 . S
C565 H540 0.951 . S
C565 C563 1.388 . S
C565 C566 1.366 . S
C566 C565 1.366 . S
C566 C567 1.414 . S
C566 C569 1.499 . S
C567 H541 0.950 . S
C567 C566 1.414 . S
C567 C568 1.374 . S
C568 H542 0.950 . S
C568 C564 1.385 . S
C568 C567 1.374 . S
C569 C566 1.499 . S
C569 C570 1.373 . S
C569 C571 1.389 . S
C570 H543 0.950 . S
C570 C556 1.377 . S
C570 C569 1.373 . S
C571 C555 1.377 . S
C571 C569 1.389 . S
C571 C572 1.524 . S
C572 C571 1.524 . S
C572 C573 1.397 . S
C572 C577 1.363 . S
C573 H544 0.950 . S
C573 C572 1.397 . S
C573 C574 1.334 1_565 S
C574 H545 0.950 . S
C574 C573 1.334 1_545 S
C574 C575 1.287 . S
C575 C574 1.287 . S
C575 C576 1.524 . S
C575 H578 0.999 . S
C576 H546 0.950 . S
C576 C575 1.524 . S
C576 C577 1.415 1_545 S
C577 H547 0.950 . S
C577 C572 1.363 . S
C577 C576 1.415 1_565 S
H578 C575 0.999 . S
H579 C560 0.913 . S
H580 C598 0.951 . S
H581 C600 0.951 . S
H582 C602 0.950 . S
H583 C603 0.950 . S
H584 C605 0.950 . S
H585 C608 0.950 . S
H586 C609 0.950 . S
H587 C611 0.950 . S
H588 C612 0.950 . S
H589 C613 0.951 . S
H590 C615 0.951 . S
H591 C617 0.950 . S
H592 C618 0.950 . S
H593 C620 0.950 . S
H594 C623 0.950 . S
H595 C624 0.950 . S
H596 C626 0.950 . S
H597 C627 0.950 . S
C598 H580 0.951 . S
C598 C599 1.366 1_554 S
C598 C600 1.388 . S
C599 C598 1.366 1_556 S
C599 C603 1.385 . S
C600 H581 0.951 . S
C600 C598 1.388 . S
C600 C601 1.366 . S
C601 C600 1.366 . S
C601 C602 1.414 . S
C601 C604 1.499 . S
C602 H582 0.950 . S
C602 C601 1.414 . S
C602 C603 1.374 1_554 S
C603 H583 0.950 . S
C603 C599 1.385 . S
C603 C602 1.374 1_556 S
C604 C601 1.499 . S
C604 C605 1.373 . S
C604 C606 1.389 . S
C605 H584 0.950 . S
C605 C604 1.373 . S
C605 C621 1.377 . S
C606 C604 1.389 . S
C606 C607 1.524 1_554 S
C606 C620 1.377 . S
C607 C606 1.524 1_556 S
C607 C608 1.397 . S
C607 C612 1.363 1_556 S
C608 H585 0.950 . S
C608 C607 1.397 . S
C608 C609 1.334 . S
C609 H586 0.950 . S
C609 C608 1.334 . S
C609 C610 1.287 . S
C610 C609 1.287 . S
C610 C611 1.524 . S
C610 H629 0.913 . S
C611 H587 0.950 . S
C611 C610 1.524 . S
C611 C612 1.415 1_556 S
C612 H588 0.950 . S
C612 C607 1.363 1_554 S
C612 C611 1.415 1_554 S
C613 H589 0.951 . S
C613 C614 1.366 . S
C613 C615 1.388 . S
C614 C613 1.366 . S
C614 C618 1.385 . S
C615 H590 0.951 . S
C615 C613 1.388 . S
C615 C616 1.366 . S
C616 C615 1.366 . S
C616 C617 1.414 . S
C616 C619 1.499 . S
C617 H591 0.950 . S
C617 C616 1.414 . S
C617 C618 1.374 . S
C618 H592 0.950 . S
C618 C614 1.385 . S
C618 C617 1.374 . S
C619 C616 1.499 . S
C619 C620 1.373 . S
C619 C621 1.389 . S
C620 H593 0.950 . S
C620 C606 1.377 . S
C620 C619 1.373 . S
C621 C605 1.377 . S
C621 C619 1.389 . S
C621 C622 1.524 . S
C622 C621 1.524 . S
C622 C623 1.397 . S
C622 C627 1.363 . S
C623 H594 0.950 . S
C623 C622 1.397 . S
C623 C624 1.334 . S
C624 H595 0.950 . S
C624 C623 1.334 . S
C624 C625 1.287 . S
C625 C624 1.287 . S
C625 C626 1.524 . S
C625 H628 0.999 . S
C626 H596 0.950 . S
C626 C625 1.524 . S
C626 C627 1.415 . S
C627 H597 0.950 . S
C627 C622 1.363 . S
C627 C626 1.415 . S
H628 C625 0.999 . S
H629 C610 0.913 . S
H630 C648 0.951 . S
H631 C650 0.951 . S
H632 C652 0.950 . S
H633 C653 0.950 . S
H634 C655 0.950 . S
H635 C658 0.950 . S
H636 C659 0.950 . S
H637 C661 0.950 . S
H638 C662 0.950 . S
H639 C663 0.951 . S
H640 C665 0.951 . S
H641 C667 0.950 . S
H642 C668 0.950 . S
H643 C670 0.950 . S
H644 C673 0.950 . S
H645 C674 0.950 . S
H646 C676 0.950 . S
H647 C677 0.950 . S
C648 H630 0.951 . S
C648 C649 1.366 . S
C648 C650 1.388 . S
C649 C648 1.366 . S
C649 C653 1.385 . S
C650 H631 0.951 . S
C650 C648 1.388 . S
C650 C651 1.366 . S
C651 C650 1.366 . S
C651 C652 1.414 . S
C651 C654 1.499 . S
C652 H632 0.950 . S
C652 C651 1.414 . S
C652 C653 1.374 . S
C653 H633 0.950 . S
C653 C649 1.385 . S
C653 C652 1.374 . S
C654 C651 1.499 . S
C654 C655 1.373 . S
C654 C656 1.389 . S
C655 H634 0.950 . S
C655 C654 1.373 . S
C655 C671 1.377 . S
C656 C654 1.389 . S
C656 C657 1.524 . S
C656 C670 1.377 . S
C657 C656 1.524 . S
C657 C658 1.397 . S
C657 C662 1.363 . S
C658 H635 0.950 . S
C658 C657 1.397 . S
C658 C659 1.334 1_545 S
C659 H636 0.950 . S
C659 C658 1.334 1_565 S
C659 C660 1.287 . S
C660 C659 1.287 . S
C660 C661 1.524 1_565 S
C660 H679 0.913 . S
C661 H637 0.950 . S
C661 C660 1.524 1_545 S
C661 C662 1.415 . S
C662 H638 0.950 . S
C662 C657 1.363 . S
C662 C661 1.415 . S
C663 H639 0.951 . S
C663 C664 1.366 . S
C663 C665 1.388 . S
C664 C663 1.366 . S
C664 C668 1.385 . S
C665 H640 0.951 . S
C665 C663 1.388 . S
C665 C666 1.366 . S
C666 C665 1.366 . S
C666 C667 1.414 . S
C666 C669 1.499 . S
C667 H641 0.950 . S
C667 C666 1.414 . S
C667 C668 1.374 . S
C668 H642 0.950 . S
C668 C664 1.385 . S
C668 C667 1.374 . S
C669 C666 1.499 . S
C669 C670 1.373 . S
C669 C671 1.389 . S
C670 H643 0.950 . S
C670 C656 1.377 . S
C670 C669 1.373 . S
C671 C655 1.377 . S
C671 C669 1.389 . S
C671 C672 1.524 . S
C672 C671 1.524 . S
C672 C673 1.397 . S
C672 C677 1.363 . S
C673 H644 0.950 . S
C673 C672 1.397 . S
C673 C674 1.334 . S
C674 H645 0.950 . S
C674 C673 1.334 . S
C674 C675 1.287 . S
C675 C674 1.287 . S
C675 C676 1.524 . S
C675 H678 0.999 . S
C676 H646 0.950 . S
C676 C675 1.524 . S
C676 C677 1.415 . S
C677 H647 0.950 . S
C677 C672 1.363 . S
C677 C676 1.415 . S
H678 C675 0.999 . S
H679 C660 0.913 . S
H680 C698 0.951 . S
H681 C700 0.951 . S
H682 C702 0.950 . S
H683 C703 0.950 . S
H684 C705 0.950 . S
H685 C708 0.950 . S
H686 C709 0.950 . S
H687 C711 0.950 . S
H688 C712 0.950 . S
H689 C713 0.951 . S
H690 C715 0.951 . S
H691 C717 0.950 . S
H692 C718 0.950 . S
H693 C720 0.950 . S
H694 C723 0.950 . S
H695 C724 0.950 . S
H696 C726 0.950 . S
H697 C727 0.950 . S
C698 H680 0.951 . S
C698 C699 1.366 . S
C698 C700 1.388 . S
C699 C698 1.366 . S
C699 C703 1.385 . S
C700 H681 0.951 . S
C700 C698 1.388 . S
C700 C701 1.366 . S
C701 C700 1.366 . S
C701 C702 1.414 . S
C701 C704 1.499 . S
C702 H682 0.950 . S
C702 C701 1.414 . S
C702 C703 1.374 . S
C703 H683 0.950 . S
C703 C699 1.385 . S
C703 C702 1.374 . S
C704 C701 1.499 . S
C704 C705 1.373 . S
C704 C706 1.389 . S
C705 H684 0.950 . S
C705 C704 1.373 . S
C705 C721 1.377 . S
C706 C704 1.389 . S
C706 C707 1.524 . S
C706 C720 1.377 . S
C707 C706 1.524 . S
C707 C708 1.397 . S
C707 C712 1.363 . S
C708 H685 0.950 . S
C708 C707 1.397 . S
C708 C709 1.334 . S
C709 H686 0.950 . S
C709 C708 1.334 . S
C709 C710 1.287 . S
C710 C709 1.287 . S
C710 C711 1.524 . S
C710 H729 0.913 . S
C711 H687 0.950 . S
C711 C710 1.524 . S
C711 C712 1.415 . S
C712 H688 0.950 . S
C712 C707 1.363 . S
C712 C711 1.415 . S
C713 H689 0.951 . S
C713 C714 1.366 . S
C713 C715 1.388 . S
C714 C713 1.366 . S
C714 C718 1.385 . S
C715 H690 0.951 . S
C715 C713 1.388 . S
C715 C716 1.366 . S
C716 C715 1.366 . S
C716 C717 1.414 . S
C716 C719 1.499 . S
C717 H691 0.950 . S
C717 C716 1.414 . S
C717 C718 1.374 . S
C718 H692 0.950 . S
C718 C714 1.385 . S
C718 C717 1.374 . S
C719 C716 1.499 . S
C719 C720 1.373 . S
C719 C721 1.389 . S
C720 H693 0.950 . S
C720 C706 1.377 . S
C720 C719 1.373 . S
C721 C705 1.377 . S
C721 C719 1.389 . S
C721 C722 1.524 . S
C722 C721 1.524 . S
C722 C723 1.397 . S
C722 C727 1.363 . S
C723 H694 0.950 . S
C723 C722 1.397 . S
C723 C724 1.334 . S
C724 H695 0.950 . S
C724 C723 1.334 . S
C724 C725 1.287 . S
C725 C724 1.287 . S
C725 C726 1.524 . S
C725 H728 0.999 . S
C726 H696 0.950 . S
C726 C725 1.524 . S
C726 C727 1.415 . S
C727 H697 0.950 . S
C727 C722 1.363 . S
C727 C726 1.415 . S
H728 C725 0.999 . S
H729 C710 0.913 . S
H730 C748 0.951 . S
H731 C750 0.951 . S
H732 C752 0.950 . S
H733 C753 0.950 . S
H734 C755 0.950 . S
H735 C758 0.950 . S
H736 C759 0.950 . S
H737 C761 0.950 . S
H738 C762 0.950 . S
H739 C763 0.951 . S
H740 C765 0.951 . S
H741 C767 0.950 . S
H742 C768 0.950 . S
H743 C770 0.950 . S
H744 C773 0.950 . S
H745 C774 0.950 . S
H746 C776 0.950 . S
H747 C777 0.950 . S
C748 H730 0.951 . S
C748 C749 1.366 . S
C748 C750 1.388 . S
C749 C748 1.366 . S
C749 C753 1.385 . S
C750 H731 0.951 . S
C750 C748 1.388 . S
C750 C751 1.366 . S
C751 C750 1.366 . S
C751 C752 1.414 . S
C751 C754 1.499 . S
C752 H732 0.950 . S
C752 C751 1.414 . S
C752 C753 1.374 . S
C753 H733 0.950 . S
C753 C749 1.385 . S
C753 C752 1.374 . S
C754 C751 1.499 . S
C754 C755 1.373 . S
C754 C756 1.389 . S
C755 H734 0.950 . S
C755 C754 1.373 . S
C755 C771 1.377 . S
C756 C754 1.389 . S
C756 C757 1.524 . S
C756 C770 1.377 . S
C757 C756 1.524 . S
C757 C758 1.397 . S
C757 C762 1.363 . S
C758 H735 0.950 . S
C758 C757 1.397 . S
C758 C759 1.334 . S
C759 H736 0.950 . S
C759 C758 1.334 . S
C759 C760 1.287 . S
C760 C759 1.287 . S
C760 C761 1.524 . S
C760 H779 0.913 . S
C761 H737 0.950 . S
C761 C760 1.524 . S
C761 C762 1.415 . S
C762 H738 0.950 . S
C762 C757 1.363 . S
C762 C761 1.415 . S
C763 H739 0.951 . S
C763 C764 1.366 . S
C763 C765 1.388 . S
C764 C763 1.366 . S
C764 C768 1.385 . S
C765 H740 0.951 . S
C765 C763 1.388 . S
C765 C766 1.366 . S
C766 C765 1.366 . S
C766 C767 1.414 . S
C766 C769 1.499 . S
C767 H741 0.950 . S
C767 C766 1.414 . S
C767 C768 1.374 . S
C768 H742 0.950 . S
C768 C764 1.385 . S
C768 C767 1.374 . S
C769 C766 1.499 . S
C769 C770 1.373 . S
C769 C771 1.389 . S
C770 H743 0.950 . S
C770 C756 1.377 . S
C770 C769 1.373 . S
C771 C755 1.377 . S
C771 C769 1.389 . S
C771 C772 1.524 . S
C772 C771 1.524 . S
C772 C773 1.397 . S
C772 C777 1.363 . S
C773 H744 0.950 . S
C773 C772 1.397 . S
C773 C774 1.334 . S
C774 H745 0.950 . S
C774 C773 1.334 . S
C774 C775 1.287 . S
C775 C774 1.287 . S
C775 C776 1.524 . S
C775 H778 0.999 . S
C776 H746 0.950 . S
C776 C775 1.524 . S
C776 C777 1.415 . S
C777 H747 0.950 . S
C777 C772 1.363 . S
C777 C776 1.415 . S
H778 C775 0.999 . S
H779 C760 0.913 . S
H780 C798 0.951 . S
H781 C800 0.951 . S
H782 C802 0.950 . S
H783 C803 0.950 . S
H784 C805 0.950 . S
H785 C808 0.950 . S
H786 C809 0.950 1_554 S
H787 C811 0.950 . S
H788 C812 0.950 . S
H789 C813 0.951 . S
H790 C815 0.951 . S
H791 C817 0.950 . S
H792 C818 0.950 . S
H793 C820 0.950 . S
H794 C823 0.950 . S
H795 C824 0.950 . S
H796 C826 0.950 . S
H797 C827 0.950 . S
C798 H780 0.951 . S
C798 C799 1.366 . S
C798 C800 1.388 . S
C799 C798 1.366 . S
C799 C803 1.385 . S
C800 H781 0.951 . S
C800 C798 1.388 . S
C800 C801 1.366 . S
C801 C800 1.366 . S
C801 C802 1.414 . S
C801 C804 1.499 . S
C802 H782 0.950 . S
C802 C801 1.414 . S
C802 C803 1.374 . S
C803 H783 0.950 . S
C803 C799 1.385 . S
C803 C802 1.374 . S
C804 C801 1.499 . S
C804 C805 1.373 . S
C804 C806 1.389 . S
C805 H784 0.950 . S
C805 C804 1.373 . S
C805 C821 1.377 . S
C806 C804 1.389 . S
C806 C807 1.524 . S
C806 C820 1.377 . S
C807 C806 1.524 . S
C807 C808 1.397 . S
C807 C812 1.363 . S
C808 H785 0.950 . S
C808 C807 1.397 . S
C808 C809 1.334 . S
C809 H786 0.950 1_556 S
C809 C808 1.334 . S
C809 C810 1.287 . S
C810 C809 1.287 . S
C810 C811 1.524 . S
C810 H829 0.913 1_556 S
C811 H787 0.950 . S
C811 C810 1.524 . S
C811 C812 1.415 . S
C812 H788 0.950 . S
C812 C807 1.363 . S
C812 C811 1.415 . S
C813 H789 0.951 . S
C813 C814 1.366 . S
C813 C815 1.388 . S
C814 C813 1.366 . S
C814 C818 1.385 . S
C815 H790 0.951 . S
C815 C813 1.388 . S
C815 C816 1.366 . S
C816 C815 1.366 . S
C816 C817 1.414 . S
C816 C819 1.499 . S
C817 H791 0.950 . S
C817 C816 1.414 . S
C817 C818 1.374 . S
C818 H792 0.950 . S
C818 C814 1.385 . S
C818 C817 1.374 . S
C819 C816 1.499 . S
C819 C820 1.373 . S
C819 C821 1.389 . S
C820 H793 0.950 . S
C820 C806 1.377 . S
C820 C819 1.373 . S
C821 C805 1.377 . S
C821 C819 1.389 . S
C821 C822 1.524 . S
C822 C821 1.524 . S
C822 C823 1.397 . S
C822 C827 1.363 . S
C823 H794 0.950 . S
C823 C822 1.397 . S
C823 C824 1.334 . S
C824 H795 0.950 . S
C824 C823 1.334 . S
C824 C825 1.287 . S
C825 C824 1.287 . S
C825 C826 1.524 . S
C825 H828 0.999 . S
C826 H796 0.950 . S
C826 C825 1.524 . S
C826 C827 1.415 . S
C827 H797 0.950 . S
C827 C822 1.363 . S
C827 C826 1.415 . S
H828 C825 0.999 . S
H829 C810 0.913 1_554 S
H830 C848 0.951 . S
H831 C850 0.951 . S
H832 C852 0.950 . S
H833 C853 0.950 . S
H834 C855 0.950 . S
H835 C858 0.950 . S
H836 C859 0.950 . S
H837 C861 0.950 . S
H838 C862 0.950 . S
H839 C863 0.951 . S
H840 C865 0.951 . S
H841 C867 0.950 . S
H842 C868 0.950 . S
H843 C870 0.950 . S
H844 C873 0.950 . S
H845 C874 0.950 . S
H846 C876 0.950 . S
H847 C877 0.950 . S
C848 H830 0.951 . S
C848 C849 1.366 . S
C848 C850 1.388 . S
C849 C848 1.366 . S
C849 C853 1.385 . S
C850 H831 0.951 . S
C850 C848 1.388 . S
C850 C851 1.366 . S
C851 C850 1.366 . S
C851 C852 1.414 . S
C851 C854 1.499 . S
C852 H832 0.950 . S
C852 C851 1.414 . S
C852 C853 1.374 . S
C853 H833 0.950 . S
C853 C849 1.385 . S
C853 C852 1.374 . S
C854 C851 1.499 . S
C854 C855 1.373 . S
C854 C856 1.389 . S
C855 H834 0.950 . S
C855 C854 1.373 . S
C855 C871 1.377 . S
C856 C854 1.389 . S
C856 C857 1.524 . S
C856 C870 1.377 . S
C857 C856 1.524 . S
C857 C858 1.397 . S
C857 C862 1.363 . S
C858 H835 0.950 . S
C858 C857 1.397 . S
C858 C859 1.334 . S
C859 H836 0.950 . S
C859 C858 1.334 . S
C859 C860 1.287 . S
C860 C859 1.287 . S
C860 C861 1.524 . S
C860 H879 0.913 . S
C861 H837 0.950 . S
C861 C860 1.524 . S
C861 C862 1.415 . S
C862 H838 0.950 . S
C862 C857 1.363 . S
C862 C861 1.415 . S
C863 H839 0.951 . S
C863 C864 1.366 . S
C863 C865 1.388 . S
C864 C863 1.366 . S
C864 C868 1.385 . S
C865 H840 0.951 . S
C865 C863 1.388 . S
C865 C866 1.366 . S
C866 C865 1.366 . S
C866 C867 1.414 . S
C866 C869 1.499 . S
C867 H841 0.950 . S
C867 C866 1.414 . S
C867 C868 1.374 . S
C868 H842 0.950 . S
C868 C864 1.385 . S
C868 C867 1.374 . S
C869 C866 1.499 . S
C869 C870 1.373 . S
C869 C871 1.389 . S
C870 H843 0.950 . S
C870 C856 1.377 . S
C870 C869 1.373 . S
C871 C855 1.377 . S
C871 C869 1.389 . S
C871 C872 1.524 . S
C872 C871 1.524 . S
C872 C873 1.397 . S
C872 C877 1.363 . S
C873 H844 0.950 . S
C873 C872 1.397 . S
C873 C874 1.334 . S
C874 H845 0.950 . S
C874 C873 1.334 . S
C874 C875 1.287 . S
C875 C874 1.287 . S
C875 C876 1.524 . S
C875 H878 0.999 . S
C876 H846 0.950 . S
C876 C875 1.524 . S
C876 C877 1.415 . S
C877 H847 0.950 . S
C877 C872 1.363 . S
C877 C876 1.415 . S
H878 C875 0.999 . S
H879 C860 0.913 . S
H880 C898 0.951 . S
H881 C900 0.951 . S
H882 C902 0.950 . S
H883 C903 0.950 . S
H884 C905 0.950 . S
H885 C908 0.950 . S
H886 C909 0.950 . S
H887 C911 0.950 . S
H888 C912 0.950 . S
H889 C913 0.951 . S
H890 C915 0.951 . S
H891 C917 0.950 . S
H892 C918 0.950 . S
H893 C920 0.950 . S
H894 C923 0.950 . S
H895 C924 0.950 . S
H896 C926 0.950 . S
H897 C927 0.950 . S
C898 H880 0.951 . S
C898 C899 1.366 . S
C898 C900 1.388 . S
C899 C898 1.366 . S
C899 C903 1.385 . S
C900 H881 0.951 . S
C900 C898 1.388 . S
C900 C901 1.366 . S
C901 C900 1.366 . S
C901 C902 1.414 . S
C901 C904 1.499 . S
C902 H882 0.950 . S
C902 C901 1.414 . S
C902 C903 1.374 . S
C903 H883 0.950 . S
C903 C899 1.385 . S
C903 C902 1.374 . S
C904 C901 1.499 . S
C904 C905 1.373 . S
C904 C906 1.389 . S
C905 H884 0.950 . S
C905 C904 1.373 . S
C905 C921 1.377 . S
C906 C904 1.389 . S
C906 C907 1.524 . S
C906 C920 1.377 . S
C907 C906 1.524 . S
C907 C908 1.397 . S
C907 C912 1.363 . S
C908 H885 0.950 . S
C908 C907 1.397 . S
C908 C909 1.334 . S
C909 H886 0.950 . S
C909 C908 1.334 . S
C909 C910 1.287 . S
C910 C909 1.287 . S
C910 C911 1.524 . S
C910 H929 0.913 . S
C911 H887 0.950 . S
C911 C910 1.524 . S
C911 C912 1.415 . S
C912 H888 0.950 . S
C912 C907 1.363 . S
C912 C911 1.415 . S
C913 H889 0.951 . S
C913 C914 1.366 . S
C913 C915 1.388 . S
C914 C913 1.366 . S
C914 C918 1.385 . S
C915 H890 0.951 . S
C915 C913 1.388 . S
C915 C916 1.366 . S
C916 C915 1.366 . S
C916 C917 1.414 . S
C916 C919 1.499 . S
C917 H891 0.950 . S
C917 C916 1.414 . S
C917 C918 1.374 . S
C918 H892 0.950 . S
C918 C914 1.385 . S
C918 C917 1.374 . S
C919 C916 1.499 . S
C919 C920 1.373 . S
C919 C921 1.389 . S
C920 H893 0.950 . S
C920 C906 1.377 . S
C920 C919 1.373 . S
C921 C905 1.377 . S
C921 C919 1.389 . S
C921 C922 1.524 . S
C922 C921 1.524 . S
C922 C923 1.397 . S
C922 C927 1.363 . S
C923 H894 0.950 . S
C923 C922 1.397 . S
C923 C924 1.334 . S
C924 H895 0.950 . S
C924 C923 1.334 . S
C924 C925 1.287 . S
C925 C924 1.287 . S
C925 C926 1.524 . S
C925 H928 0.999 . S
C926 H896 0.950 . S
C926 C925 1.524 . S
C926 C927 1.415 . S
C927 H897 0.950 . S
C927 C922 1.363 . S
C927 C926 1.415 . S
H928 C925 0.999 . S
H929 C910 0.913 . S
H930 C948 0.951 . S
H931 C950 0.951 . S
H932 C952 0.950 . S
H933 C953 0.950 . S
H934 C955 0.950 . S
H935 C958 0.950 . S
H936 C959 0.950 . S
H937 C961 0.950 . S
H938 C962 0.950 . S
H939 C963 0.951 . S
H940 C965 0.951 . S
H941 C967 0.950 . S
H942 C968 0.950 . S
H943 C970 0.950 . S
H944 C973 0.950 . S
H945 C974 0.950 . S
H946 C976 0.950 . S
H947 C977 0.950 . S
C948 H930 0.951 . S
C948 C949 1.366 . S
C948 C950 1.388 . S
C949 C948 1.366 . S
C949 C953 1.385 . S
C950 H931 0.951 . S
C950 C948 1.388 . S
C950 C951 1.366 . S
C951 C950 1.366 . S
C951 C952 1.414 . S
C951 C954 1.499 . S
C952 H932 0.950 . S
C952 C951 1.414 . S
C952 C953 1.374 . S
C953 H933 0.950 . S
C953 C949 1.385 . S
C953 C952 1.374 . S
C954 C951 1.499 . S
C954 C955 1.373 . S
C954 C956 1.389 . S
C955 H934 0.950 . S
C955 C954 1.373 . S
C955 C971 1.377 . S
C956 C954 1.389 . S
C956 C957 1.524 . S
C956 C970 1.377 . S
C957 C956 1.524 . S
C957 C958 1.397 . S
C957 C962 1.363 . S
C958 H935 0.950 . S
C958 C957 1.397 . S
C958 C959 1.334 . S
C959 H936 0.950 . S
C959 C958 1.334 . S
C959 C960 1.287 . S
C960 C959 1.287 . S
C960 C961 1.524 . S
C960 H979 0.913 . S
C961 H937 0.950 . S
C961 C960 1.524 . S
C961 C962 1.415 . S
C962 H938 0.950 . S
C962 C957 1.363 . S
C962 C961 1.415 . S
C963 H939 0.951 . S
C963 C964 1.366 . S
C963 C965 1.388 . S
C964 C963 1.366 . S
C964 C968 1.385 . S
C965 H940 0.951 . S
C965 C963 1.388 . S
C965 C966 1.366 . S
C966 C965 1.366 . S
C966 C967 1.414 . S
C966 C969 1.499 . S
C967 H941 0.950 . S
C967 C966 1.414 . S
C967 C968 1.374 . S
C968 H942 0.950 . S
C968 C964 1.385 . S
C968 C967 1.374 . S
C969 C966 1.499 . S
C969 C970 1.373 . S
C969 C971 1.389 . S
C970 H943 0.950 . S
C970 C956 1.377 . S
C970 C969 1.373 . S
C971 C955 1.377 . S
C971 C969 1.389 . S
C971 C972 1.524 . S
C972 C971 1.524 . S
C972 C973 1.397 1_455 S
C972 C977 1.363 . S
C973 H944 0.950 . S
C973 C972 1.397 1_655 S
C973 C974 1.334 . S
C974 H945 0.950 . S
C974 C973 1.334 . S
C974 C975 1.287 . S
C975 C974 1.287 . S
C975 C976 1.524 . S
C975 H978 0.999 . S
C976 H946 0.950 . S
C976 C975 1.524 . S
C976 C977 1.415 1_655 S
C977 H947 0.950 . S
C977 C972 1.363 . S
C977 C976 1.415 1_455 S
H978 C975 0.999 . S
H979 C960 0.913 . S
H980 C998 0.951 . S
H981 C1000 0.951 . S
H982 C1002 0.950 . S
H983 C1003 0.950 . S
H984 C1005 0.950 . S
H985 C1008 0.950 . S
H986 C1009 0.950 . S
H987 C1011 0.950 . S
H988 C1012 0.950 . S
H989 C1013 0.951 . S
H990 C1015 0.951 . S
H991 C1017 0.950 . S
H992 C1018 0.950 . S
H993 C1020 0.950 . S
H994 C1023 0.950 . S
H995 C1024 0.950 . S
H996 C1026 0.950 . S
H997 C1027 0.950 . S
C998 H980 0.951 . S
C998 C999 1.366 1_655 S
C998 C1000 1.388 . S
C999 C998 1.366 1_455 S
C999 C1003 1.385 . S
C1000 H981 0.951 . S
C1000 C998 1.388 . S
C1000 C1001 1.366 . S
C1001 C1000 1.366 . S
C1001 C1002 1.414 1_655 S
C1001 C1004 1.499 . S
C1002 H982 0.950 . S
C1002 C1001 1.414 1_455 S
C1002 C1003 1.374 . S
C1003 H983 0.950 . S
C1003 C999 1.385 . S
C1003 C1002 1.374 . S
C1004 C1001 1.499 . S
C1004 C1005 1.373 . S
C1004 C1006 1.389 . S
C1005 H984 0.950 . S
C1005 C1004 1.373 . S
C1005 C1021 1.377 . S
C1006 C1004 1.389 . S
C1006 C1007 1.524 . S
C1006 C1020 1.377 . S
C1007 C1006 1.524 . S
C1007 C1008 1.397 . S
C1007 C1012 1.363 . S
C1008 H985 0.950 . S
C1008 C1007 1.397 . S
C1008 C1009 1.334 . S
C1009 H986 0.950 . S
C1009 C1008 1.334 . S
C1009 C1010 1.287 . S
C1010 C1009 1.287 . S
C1010 C1011 1.524 . S
C1010 H1029 0.913 . S
C1011 H987 0.950 . S
C1011 C1010 1.524 . S
C1011 C1012 1.415 . S
C1012 H988 0.950 . S
C1012 C1007 1.363 . S
C1012 C1011 1.415 . S
C1013 H989 0.951 . S
C1013 C1014 1.366 . S
C1013 C1015 1.388 . S
C1014 C1013 1.366 . S
C1014 C1018 1.385 . S
C1015 H990 0.951 . S
C1015 C1013 1.388 . S
C1015 C1016 1.366 . S
C1016 C1015 1.366 . S
C1016 C1017 1.414 . S
C1016 C1019 1.499 . S
C1017 H991 0.950 . S
C1017 C1016 1.414 . S
C1017 C1018 1.374 . S
C1018 H992 0.950 . S
C1018 C1014 1.385 . S
C1018 C1017 1.374 . S
C1019 C1016 1.499 . S
C1019 C1020 1.373 . S
C1019 C1021 1.389 . S
C1020 H993 0.950 . S
C1020 C1006 1.377 . S
C1020 C1019 1.373 . S
C1021 C1005 1.377 . S
C1021 C1019 1.389 . S
C1021 C1022 1.524 . S
C1022 C1021 1.524 . S
C1022 C1023 1.397 . S
C1022 C1027 1.363 1_655 S
C1023 H994 0.950 . S
C1023 C1022 1.397 . S
C1023 C1024 1.334 . S
C1024 H995 0.950 . S
C1024 C1023 1.334 . S
C1024 C1025 1.287 . S
C1025 C1024 1.287 . S
C1025 C1026 1.524 1_655 S
C1025 H1028 0.999 1_655 S
C1026 H996 0.950 . S
C1026 C1025 1.524 1_455 S
C1026 C1027 1.415 . S
C1027 H997 0.950 . S
C1027 C1022 1.363 1_455 S
C1027 C1026 1.415 . S
H1028 C1025 0.999 1_455 S
H1029 C1010 0.913 . S
H1030 C1048 0.951 . S
H1031 C1050 0.951 . S
H1032 C1052 0.950 . S
H1033 C1053 0.950 . S
H1034 C1055 0.950 . S
H1035 C1058 0.950 . S
H1036 C1059 0.950 . S
H1037 C1061 0.950 . S
H1038 C1062 0.950 . S
H1039 C1063 0.951 . S
H1040 C1065 0.951 . S
H1041 C1067 0.950 . S
H1042 C1068 0.950 . S
H1043 C1070 0.950 . S
H1044 C1073 0.950 . S
H1045 C1074 0.950 . S
H1046 C1076 0.950 . S
H1047 C1077 0.950 . S
C1048 H1030 0.951 . S
C1048 C1049 1.366 . S
C1048 C1050 1.388 . S
C1049 C1048 1.366 . S
C1049 C1053 1.385 . S
C1050 H1031 0.951 . S
C1050 C1048 1.388 . S
C1050 C1051 1.366 . S
C1051 C1050 1.366 . S
C1051 C1052 1.414 . S
C1051 C1054 1.499 . S
C1052 H1032 0.950 . S
C1052 C1051 1.414 . S
C1052 C1053 1.374 . S
C1053 H1033 0.950 . S
C1053 C1049 1.385 . S
C1053 C1052 1.374 . S
C1054 C1051 1.499 . S
C1054 C1055 1.373 . S
C1054 C1056 1.389 . S
C1055 H1034 0.950 . S
C1055 C1054 1.373 . S
C1055 C1071 1.377 . S
C1056 C1054 1.389 . S
C1056 C1057 1.524 . S
C1056 C1070 1.377 . S
C1057 C1056 1.524 . S
C1057 C1058 1.397 . S
C1057 C1062 1.363 . S
C1058 H1035 0.950 . S
C1058 C1057 1.397 . S
C1058 C1059 1.334 . S
C1059 H1036 0.950 . S
C1059 C1058 1.334 . S
C1059 C1060 1.287 . S
C1060 C1059 1.287 . S
C1060 C1061 1.524 . S
C1060 H1079 0.913 . S
C1061 H1037 0.950 . S
C1061 C1060 1.524 . S
C1061 C1062 1.415 . S
C1062 H1038 0.950 . S
C1062 C1057 1.363 . S
C1062 C1061 1.415 . S
C1063 H1039 0.951 . S
C1063 C1064 1.366 . S
C1063 C1065 1.388 . S
C1064 C1063 1.366 . S
C1064 C1068 1.385 . S
C1065 H1040 0.951 . S
C1065 C1063 1.388 . S
C1065 C1066 1.366 . S
C1066 C1065 1.366 . S
C1066 C1067 1.414 . S
C1066 C1069 1.499 . S
C1067 H1041 0.950 . S
C1067 C1066 1.414 . S
C1067 C1068 1.374 . S
C1068 H1042 0.950 . S
C1068 C1064 1.385 . S
C1068 C1067 1.374 . S
C1069 C1066 1.499 . S
C1069 C1070 1.373 . S
C1069 C1071 1.389 . S
C1070 H1043 0.950 . S
C1070 C1056 1.377 . S
C1070 C1069 1.373 . S
C1071 C1055 1.377 . S
C1071 C1069 1.389 . S
C1071 C1072 1.524 . S
C1072 C1071 1.524 . S
C1072 C1073 1.397 . S
C1072 C1077 1.363 . S
C1073 H1044 0.950 . S
C1073 C1072 1.397 . S
C1073 C1074 1.334 . S
C1074 H1045 0.950 . S
C1074 C1073 1.334 . S
C1074 C1075 1.287 . S
C1075 C1074 1.287 . S
C1075 C1076 1.524 . S
C1075 H1078 0.999 . S
C1076 H1046 0.950 . S
C1076 C1075 1.524 . S
C1076 C1077 1.415 . S
C1077 H1047 0.950 . S
C1077 C1072 1.363 . S
C1077 C1076 1.415 . S
H1078 C1075 0.999 . S
H1079 C1060 0.913 . S
H1080 C1098 0.951 . S
H1081 C1100 0.951 . S
H1082 C1102 0.950 . S
H1083 C1103 0.950 . S
H1084 C1105 0.950 . S
H1085 C1108 0.950 . S
H1086 C1109 0.950 . S
H1087 C1111 0.950 . S
H1088 C1112 0.950 . S
H1089 C1113 0.951 . S
H1090 C1115 0.951 . S
H1091 C1117 0.950 . S
H1092 C1118 0.950 . S
H1093 C1120 0.950 . S
H1094 C1123 0.950 . S
H1095 C1124 0.950 . S
H1096 C1126 0.950 . S
H1097 C1127 0.950 . S
C1098 H1080 0.951 . S
C1098 C1099 1.366 . S
C1098 C1100 1.388 . S
C1099 C1098 1.366 . S
C1099 C1103 1.385 . S
C1100 H1081 0.951 . S
C1100 C1098 1.388 . S
C1100 C1101 1.366 . S
C1101 C1100 1.366 . S
C1101 C1102 1.414 . S
C1101 C1104 1.499 . S
C1102 H1082 0.950 . S
C1102 C1101 1.414 . S
C1102 C1103 1.374 . S
C1103 H1083 0.950 . S
C1103 C1099 1.385 . S
C1103 C1102 1.374 . S
C1104 C1101 1.499 . S
C1104 C1105 1.373 . S
C1104 C1106 1.389 . S
C1105 H1084 0.950 . S
C1105 C1104 1.373 . S
C1105 C1121 1.377 . S
C1106 C1104 1.389 . S
C1106 C1107 1.524 . S
C1106 C1120 1.377 . S
C1107 C1106 1.524 . S
C1107 C1108 1.397 . S
C1107 C1112 1.363 . S
C1108 H1085 0.950 . S
C1108 C1107 1.397 . S
C1108 C1109 1.334 . S
C1109 H1086 0.950 . S
C1109 C1108 1.334 . S
C1109 C1110 1.287 . S
C1110 C1109 1.287 . S
C1110 C1111 1.524 . S
C1110 H1129 0.913 . S
C1111 H1087 0.950 . S
C1111 C1110 1.524 . S
C1111 C1112 1.415 . S
C1112 H1088 0.950 . S
C1112 C1107 1.363 . S
C1112 C1111 1.415 . S
C1113 H1089 0.951 . S
C1113 C1114 1.366 . S
C1113 C1115 1.388 . S
C1114 C1113 1.366 . S
C1114 C1118 1.385 . S
C1115 H1090 0.951 . S
C1115 C1113 1.388 . S
C1115 C1116 1.366 . S
C1116 C1115 1.366 . S
C1116 C1117 1.414 . S
C1116 C1119 1.499 . S
C1117 H1091 0.950 . S
C1117 C1116 1.414 . S
C1117 C1118 1.374 . S
C1118 H1092 0.950 . S
C1118 C1114 1.385 . S
C1118 C1117 1.374 . S
C1119 C1116 1.499 . S
C1119 C1120 1.373 . S
C1119 C1121 1.389 . S
C1120 H1093 0.950 . S
C1120 C1106 1.377 . S
C1120 C1119 1.373 . S
C1121 C1105 1.377 . S
C1121 C1119 1.389 . S
C1121 C1122 1.524 . S
C1122 C1121 1.524 . S
C1122 C1123 1.397 . S
C1122 C1127 1.363 . S
C1123 H1094 0.950 . S
C1123 C1122 1.397 . S
C1123 C1124 1.334 . S
C1124 H1095 0.950 . S
C1124 C1123 1.334 . S
C1124 C1125 1.287 . S
C1125 C1124 1.287 . S
C1125 C1126 1.524 . S
C1125 H1128 0.999 . S
C1126 H1096 0.950 . S
C1126 C1125 1.524 . S
C1126 C1127 1.415 . S
C1127 H1097 0.950 . S
C1127 C1122 1.363 . S
C1127 C1126 1.415 . S
H1128 C1125 0.999 . S
H1129 C1110 0.913 . S
H1130 C1148 0.951 . S
H1131 C1150 0.951 . S
H1132 C1152 0.950 . S
H1133 C1153 0.950 . S
H1134 C1155 0.950 . S
H1135 C1158 0.950 . S
H1136 C1159 0.950 . S
H1137 C1161 0.950 . S
H1138 C1162 0.950 . S
H1139 C1163 0.951 . S
H1140 C1165 0.951 . S
H1141 C1167 0.950 . S
H1142 C1168 0.950 . S
H1143 C1170 0.950 . S
H1144 C1173 0.950 . S
H1145 C1174 0.950 . S
H1146 C1176 0.950 . S
H1147 C1177 0.950 . S
C1148 H1130 0.951 . S
C1148 C1149 1.366 . S
C1148 C1150 1.388 . S
C1149 C1148 1.366 . S
C1149 C1153 1.385 . S
C1150 H1131 0.951 . S
C1150 C1148 1.388 . S
C1150 C1151 1.366 . S
C1151 C1150 1.366 . S
C1151 C1152 1.414 . S
C1151 C1154 1.499 . S
C1152 H1132 0.950 . S
C1152 C1151 1.414 . S
C1152 C1153 1.374 . S
C1153 H1133 0.950 . S
C1153 C1149 1.385 . S
C1153 C1152 1.374 . S
C1154 C1151 1.499 . S
C1154 C1155 1.373 . S
C1154 C1156 1.389 . S
C1155 H1134 0.950 . S
C1155 C1154 1.373 . S
C1155 C1171 1.377 . S
C1156 C1154 1.389 . S
C1156 C1157 1.524 . S
C1156 C1170 1.377 . S
C1157 C1156 1.524 . S
C1157 C1158 1.397 . S
C1157 C1162 1.363 . S
C1158 H1135 0.950 . S
C1158 C1157 1.397 . S
C1158 C1159 1.334 . S
C1159 H1136 0.950 . S
C1159 C1158 1.334 . S
C1159 C1160 1.287 . S
C1160 C1159 1.287 . S
C1160 C1161 1.524 . S
C1160 H1179 0.913 . S
C1161 H1137 0.950 . S
C1161 C1160 1.524 . S
C1161 C1162 1.415 . S
C1162 H1138 0.950 . S
C1162 C1157 1.363 . S
C1162 C1161 1.415 . S
C1163 H1139 0.951 . S
C1163 C1164 1.366 . S
C1163 C1165 1.388 . S
C1164 C1163 1.366 . S
C1164 C1168 1.385 . S
C1165 H1140 0.951 . S
C1165 C1163 1.388 . S
C1165 C1166 1.366 . S
C1166 C1165 1.366 . S
C1166 C1167 1.414 . S
C1166 C1169 1.499 . S
C1167 H1141 0.950 . S
C1167 C1166 1.414 . S
C1167 C1168 1.374 . S
C1168 H1142 0.950 . S
C1168 C1164 1.385 . S
C1168 C1167 1.374 . S
C1169 C1166 1.499 . S
C1169 C1170 1.373 . S
C1169 C1171 1.389 . S
C1170 H1143 0.950 . S
C1170 C1156 1.377 . S
C1170 C1169 1.373 . S
C1171 C1155 1.377 . S
C1171 C1169 1.389 . S
C1171 C1172 1.524 . S
C1172 C1171 1.524 . S
C1172 C1173 1.397 . S
C1172 C1177 1.363 . S
C1173 H1144 0.950 . S
C1173 C1172 1.397 . S
C1173 C1174 1.334 . S
C1174 H1145 0.950 . S
C1174 C1173 1.334 . S
C1174 C1175 1.287 . S
C1175 C1174 1.287 . S
C1175 C1176 1.524 . S
C1175 H1178 0.999 . S
C1176 H1146 0.950 . S
C1176 C1175 1.524 . S
C1176 C1177 1.415 . S
C1177 H1147 0.950 . S
C1177 C1172 1.363 . S
C1177 C1176 1.415 . S
H1178 C1175 0.999 . S
H1179 C1160 0.913 . S
H1180 C1198 0.951 . S
H1181 C1200 0.951 . S
H1182 C1202 0.950 . S
H1183 C1203 0.950 . S
H1184 C1205 0.950 . S
H1185 C1208 0.950 . S
H1186 C1209 0.950 . S
H1187 C1211 0.950 . S
H1188 C1212 0.950 . S
H1189 C1213 0.951 . S
H1190 C1215 0.951 . S
H1191 C1217 0.950 . S
H1192 C1218 0.950 . S
H1193 C1220 0.950 . S
H1194 C1223 0.950 . S
H1195 C1224 0.950 . S
H1196 C1226 0.950 . S
H1197 C1227 0.950 . S
C1198 H1180 0.951 . S
C1198 C1199 1.366 . S
C1198 C1200 1.388 . S
C1199 C1198 1.366 . S
C1199 C1203 1.385 . S
C1200 H1181 0.951 . S
C1200 C1198 1.388 . S
C1200 C1201 1.366 . S
C1201 C1200 1.366 . S
C1201 C1202 1.414 . S
C1201 C1204 1.499 . S
C1202 H1182 0.950 . S
C1202 C1201 1.414 . S
C1202 C1203 1.374 . S
C1203 H1183 0.950 . S
C1203 C1199 1.385 . S
C1203 C1202 1.374 . S
C1204 C1201 1.499 . S
C1204 C1205 1.373 . S
C1204 C1206 1.389 . S
C1205 H1184 0.950 . S
C1205 C1204 1.373 . S
C1205 C1221 1.377 . S
C1206 C1204 1.389 . S
C1206 C1207 1.524 . S
C1206 C1220 1.377 . S
C1207 C1206 1.524 . S
C1207 C1208 1.397 . S
C1207 C1212 1.363 . S
C1208 H1185 0.950 . S
C1208 C1207 1.397 . S
C1208 C1209 1.334 . S
C1209 H1186 0.950 . S
C1209 C1208 1.334 . S
C1209 C1210 1.287 . S
C1210 C1209 1.287 . S
C1210 C1211 1.524 . S
C1210 H1229 0.913 . S
C1211 H1187 0.950 . S
C1211 C1210 1.524 . S
C1211 C1212 1.415 . S
C1212 H1188 0.950 . S
C1212 C1207 1.363 . S
C1212 C1211 1.415 . S
C1213 H1189 0.951 . S
C1213 C1214 1.366 . S
C1213 C1215 1.388 . S
C1214 C1213 1.366 . S
C1214 C1218 1.385 . S
C1215 H1190 0.951 . S
C1215 C1213 1.388 . S
C1215 C1216 1.366 . S
C1216 C1215 1.366 . S
C1216 C1217 1.414 . S
C1216 C1219 1.499 . S
C1217 H1191 0.950 . S
C1217 C1216 1.414 . S
C1217 C1218 1.374 . S
C1218 H1192 0.950 . S
C1218 C1214 1.385 . S
C1218 C1217 1.374 . S
C1219 C1216 1.499 . S
C1219 C1220 1.373 . S
C1219 C1221 1.389 . S
C1220 H1193 0.950 . S
C1220 C1206 1.377 . S
C1220 C1219 1.373 . S
C1221 C1205 1.377 . S
C1221 C1219 1.389 . S
C1221 C1222 1.524 . S
C1222 C1221 1.524 . S
C1222 C1223 1.397 . S
C1222 C1227 1.363 . S
C1223 H1194 0.950 . S
C1223 C1222 1.397 . S
C1223 C1224 1.334 . S
C1224 H1195 0.950 . S
C1224 C1223 1.334 . S
C1224 C1225 1.287 . S
C1225 C1224 1.287 . S
C1225 C1226 1.524 . S
C1225 H1228 0.999 . S
C1226 H1196 0.950 . S
C1226 C1225 1.524 . S
C1226 C1227 1.415 . S
C1227 H1197 0.950 . S
C1227 C1222 1.363 . S
C1227 C1226 1.415 . S
H1228 C1225 0.999 . S
H1229 C1210 0.913 . S
H1230 C1248 0.951 . S
H1231 C1250 0.951 . S
H1232 C1252 0.950 . S
H1233 C1253 0.950 . S
H1234 C1255 0.950 . S
H1235 C1258 0.950 . S
H1236 C1259 0.950 . S
H1237 C1261 0.950 . S
H1238 C1262 0.950 . S
H1239 C1263 0.951 . S
H1240 C1265 0.951 . S
H1241 C1267 0.950 . S
H1242 C1268 0.950 . S
H1243 C1270 0.950 . S
H1244 C1273 0.950 . S
H1245 C1274 0.950 . S
H1246 C1276 0.950 . S
H1247 C1277 0.950 . S
C1248 H1230 0.951 . S
C1248 C1249 1.366 . S
C1248 C1250 1.388 . S
C1249 C1248 1.366 . S
C1249 C1253 1.385 . S
C1250 H1231 0.951 . S
C1250 C1248 1.388 . S
C1250 C1251 1.366 . S
C1251 C1250 1.366 . S
C1251 C1252 1.414 . S
C1251 C1254 1.499 . S
C1252 H1232 0.950 . S
C1252 C1251 1.414 . S
C1252 C1253 1.374 . S
C1253 H1233 0.950 . S
C1253 C1249 1.385 . S
C1253 C1252 1.374 . S
C1254 C1251 1.499 . S
C1254 C1255 1.373 . S
C1254 C1256 1.389 . S
C1255 H1234 0.950 . S
C1255 C1254 1.373 . S
C1255 C1271 1.377 1_554 S
C1256 C1254 1.389 . S
C1256 C1257 1.524 . S
C1256 C1270 1.377 1_554 S
C1257 C1256 1.524 . S
C1257 C1258 1.397 . S
C1257 C1262 1.363 1_554 S
C1258 H1235 0.950 . S
C1258 C1257 1.397 . S
C1258 C1259 1.334 . S
C1259 H1236 0.950 . S
C1259 C1258 1.334 . S
C1259 C1260 1.287 . S
C1260 C1259 1.287 . S
C1260 C1261 1.524 1_554 S
C1260 H1279 0.913 . S
C1261 H1237 0.950 . S
C1261 C1260 1.524 1_556 S
C1261 C1262 1.415 . S
C1262 H1238 0.950 . S
C1262 C1257 1.363 1_556 S
C1262 C1261 1.415 . S
C1263 H1239 0.951 . S
C1263 C1264 1.366 . S
C1263 C1265 1.388 . S
C1264 C1263 1.366 . S
C1264 C1268 1.385 . S
C1265 H1240 0.951 . S
C1265 C1263 1.388 . S
C1265 C1266 1.366 . S
C1266 C1265 1.366 . S
C1266 C1267 1.414 . S
C1266 C1269 1.499 . S
C1267 H1241 0.950 . S
C1267 C1266 1.414 . S
C1267 C1268 1.374 . S
C1268 H1242 0.950 . S
C1268 C1264 1.385 . S
C1268 C1267 1.374 . S
C1269 C1266 1.499 . S
C1269 C1270 1.373 . S
C1269 C1271 1.389 . S
C1270 H1243 0.950 . S
C1270 C1256 1.377 1_556 S
C1270 C1269 1.373 . S
C1271 C1255 1.377 1_556 S
C1271 C1269 1.389 . S
C1271 C1272 1.524 . S
C1272 C1271 1.524 . S
C1272 C1273 1.397 . S
C1272 C1277 1.363 1_556 S
C1273 H1244 0.950 . S
C1273 C1272 1.397 . S
C1273 C1274 1.334 . S
C1274 H1245 0.950 . S
C1274 C1273 1.334 . S
C1274 C1275 1.287 . S
C1275 C1274 1.287 . S
C1275 C1276 1.524 1_556 S
C1275 H1278 0.999 . S
C1276 H1246 0.950 . S
C1276 C1275 1.524 1_554 S
C1276 C1277 1.415 . S
C1277 H1247 0.950 . S
C1277 C1272 1.363 1_554 S
C1277 C1276 1.415 . S
H1278 C1275 0.999 . S
H1279 C1260 0.913 . S
H1280 C1298 0.951 . S
H1281 C1300 0.951 . S
H1282 C1302 0.950 . S
H1283 C1303 0.950 . S
H1284 C1305 0.950 . S
H1285 C1308 0.950 . S
H1286 C1309 0.950 . S
H1287 C1311 0.950 . S
H1288 C1312 0.950 . S
H1289 C1313 0.951 . S
H1290 C1315 0.951 . S
H1291 C1317 0.950 . S
H1292 C1318 0.950 . S
H1293 C1320 0.950 . S
H1294 C1323 0.950 . S
H1295 C1324 0.950 . S
H1296 C1326 0.950 . S
H1297 C1327 0.950 . S
C1298 H1280 0.951 . S
C1298 C1299 1.366 . S
C1298 C1300 1.388 . S
C1299 C1298 1.366 . S
C1299 C1303 1.385 . S
C1300 H1281 0.951 . S
C1300 C1298 1.388 . S
C1300 C1301 1.366 . S
C1301 C1300 1.366 . S
C1301 C1302 1.414 . S
C1301 C1304 1.499 . S
C1302 H1282 0.950 . S
C1302 C1301 1.414 . S
C1302 C1303 1.374 . S
C1303 H1283 0.950 . S
C1303 C1299 1.385 . S
C1303 C1302 1.374 . S
C1304 C1301 1.499 . S
C1304 C1305 1.373 . S
C1304 C1306 1.389 . S
C1305 H1284 0.950 . S
C1305 C1304 1.373 . S
C1305 C1321 1.377 . S
C1306 C1304 1.389 . S
C1306 C1307 1.524 . S
C1306 C1320 1.377 . S
C1307 C1306 1.524 . S
C1307 C1308 1.397 . S
C1307 C1312 1.363 . S
C1308 H1285 0.950 . S
C1308 C1307 1.397 . S
C1308 C1309 1.334 . S
C1309 H1286 0.950 . S
C1309 C1308 1.334 . S
C1309 C1310 1.287 . S
C1310 C1309 1.287 . S
C1310 C1311 1.524 . S
C1310 H1329 0.913 . S
C1311 H1287 0.950 . S
C1311 C1310 1.524 . S
C1311 C1312 1.415 . S
C1312 H1288 0.950 . S
C1312 C1307 1.363 . S
C1312 C1311 1.415 . S
C1313 H1289 0.951 . S
C1313 C1314 1.366 . S
C1313 C1315 1.388 . S
C1314 C1313 1.366 . S
C1314 C1318 1.385 . S
C1315 H1290 0.951 . S
C1315 C1313 1.388 . S
C1315 C1316 1.366 . S
C1316 C1315 1.366 . S
C1316 C1317 1.414 . S
C1316 C1319 1.499 . S
C1317 H1291 0.950 . S
C1317 C1316 1.414 . S
C1317 C1318 1.374 . S
C1318 H1292 0.950 . S
C1318 C1314 1.385 . S
C1318 C1317 1.374 . S
C1319 C1316 1.499 . S
C1319 C1320 1.373 . S
C1319 C1321 1.389 . S
C1320 H1293 0.950 . S
C1320 C1306 1.377 . S
C1320 C1319 1.373 . S
C1321 C1305 1.377 . S
C1321 C1319 1.389 . S
C1321 C1322 1.524 . S
C1322 C1321 1.524 . S
C1322 C1323 1.397 . S
C1322 C1327 1.363 . S
C1323 H1294 0.950 . S
C1323 C1322 1.397 . S
C1323 C1324 1.334 . S
C1324 H1295 0.950 . S
C1324 C1323 1.334 . S
C1324 C1325 1.287 . S
C1325 C1324 1.287 . S
C1325 C1326 1.524 . S
C1325 H1328 0.999 . S
C1326 H1296 0.950 . S
C1326 C1325 1.524 . S
C1326 C1327 1.415 . S
C1327 H1297 0.950 . S
C1327 C1322 1.363 . S
C1327 C1326 1.415 . S
H1328 C1325 0.999 . S
H1329 C1310 0.913 . S
H1330 C1348 0.951 . S
H1331 C1350 0.951 1_556 S
H1332 C1352 0.950 . S
H1333 C1353 0.950 . S
H1334 C1355 0.950 . S
H1335 C1358 0.950 . S
H1336 C1359 0.950 . S
H1337 C1361 0.950 . S
H1338 C1362 0.950 . S
H1339 C1363 0.951 . S
H1340 C1365 0.951 . S
H1341 C1367 0.950 . S
H1342 C1368 0.950 . S
H1343 C1370 0.950 . S
H1344 C1373 0.950 . S
H1345 C1374 0.950 . S
H1346 C1376 0.950 . S
H1347 C1377 0.950 . S
C1348 H1330 0.951 . S
C1348 C1349 1.366 . S
C1348 C1350 1.388 . S
C1349 C1348 1.366 . S
C1349 C1353 1.385 . S
C1350 H1331 0.951 1_554 S
C1350 C1348 1.388 . S
C1350 C1351 1.366 . S
C1351 C1350 1.366 . S
C1351 C1352 1.414 . S
C1351 C1354 1.499 1_554 S
C1352 H1332 0.950 . S
C1352 C1351 1.414 . S
C1352 C1353 1.374 . S
C1353 H1333 0.950 . S
C1353 C1349 1.385 . S
C1353 C1352 1.374 . S
C1354 C1351 1.499 1_556 S
C1354 C1355 1.373 . S
C1354 C1356 1.389 . S
C1355 H1334 0.950 . S
C1355 C1354 1.373 . S
C1355 C1371 1.377 . S
C1356 C1354 1.389 . S
C1356 C1357 1.524 . S
C1356 C1370 1.377 . S
C1357 C1356 1.524 . S
C1357 C1358 1.397 . S
C1357 C1362 1.363 . S
C1358 H1335 0.950 . S
C1358 C1357 1.397 . S
C1358 C1359 1.334 . S
C1359 H1336 0.950 . S
C1359 C1358 1.334 . S
C1359 C1360 1.287 . S
C1360 C1359 1.287 . S
C1360 C1361 1.524 . S
C1360 H1379 0.913 . S
C1361 H1337 0.950 . S
C1361 C1360 1.524 . S
C1361 C1362 1.415 . S
C1362 H1338 0.950 . S
C1362 C1357 1.363 . S
C1362 C1361 1.415 . S
C1363 H1339 0.951 . S
C1363 C1364 1.366 . S
C1363 C1365 1.388 . S
C1364 C1363 1.366 . S
C1364 C1368 1.385 . S
C1365 H1340 0.951 . S
C1365 C1363 1.388 . S
C1365 C1366 1.366 . S
C1366 C1365 1.366 . S
C1366 C1367 1.414 . S
C1366 C1369 1.499 . S
C1367 H1341 0.950 . S
C1367 C1366 1.414 . S
C1367 C1368 1.374 . S
C1368 H1342 0.950 . S
C1368 C1364 1.385 . S
C1368 C1367 1.374 . S
C1369 C1366 1.499 . S
C1369 C1370 1.373 . S
C1369 C1371 1.389 . S
C1370 H1343 0.950 . S
C1370 C1356 1.377 . S
C1370 C1369 1.373 . S
C1371 C1355 1.377 . S
C1371 C1369 1.389 . S
C1371 C1372 1.524 . S
C1372 C1371 1.524 . S
C1372 C1373 1.397 . S
C1372 C1377 1.363 . S
C1373 H1344 0.950 . S
C1373 C1372 1.397 . S
C1373 C1374 1.334 . S
C1374 H1345 0.950 . S
C1374 C1373 1.334 . S
C1374 C1375 1.287 . S
C1375 C1374 1.287 . S
C1375 C1376 1.524 . S
C1375 H1378 0.999 . S
C1376 H1346 0.950 . S
C1376 C1375 1.524 . S
C1376 C1377 1.415 . S
C1377 H1347 0.950 . S
C1377 C1372 1.363 . S
C1377 C1376 1.415 . S
H1378 C1375 0.999 . S
H1379 C1360 0.913 . S
H1380 C1398 0.951 . S
H1381 C1400 0.951 . S
H1382 C1402 0.950 . S
H1383 C1403 0.950 . S
H1384 C1405 0.950 . S
H1385 C1408 0.950 . S
H1386 C1409 0.950 . S
H1387 C1411 0.950 . S
H1388 C1412 0.950 . S
H1389 C1413 0.951 . S
H1390 C1415 0.951 . S
H1391 C1417 0.950 . S
H1392 C1418 0.950 . S
H1393 C1420 0.950 . S
H1394 C1423 0.950 . S
H1395 C1424 0.950 . S
H1396 C1426 0.950 . S
H1397 C1427 0.950 . S
C1398 H1380 0.951 . S
C1398 C1399 1.366 . S
C1398 C1400 1.388 . S
C1399 C1398 1.366 . S
C1399 C1403 1.385 . S
C1400 H1381 0.951 . S
C1400 C1398 1.388 . S
C1400 C1401 1.366 . S
C1401 C1400 1.366 . S
C1401 C1402 1.414 . S
C1401 C1404 1.499 . S
C1402 H1382 0.950 . S
C1402 C1401 1.414 . S
C1402 C1403 1.374 . S
C1403 H1383 0.950 . S
C1403 C1399 1.385 . S
C1403 C1402 1.374 . S
C1404 C1401 1.499 . S
C1404 C1405 1.373 . S
C1404 C1406 1.389 . S
C1405 H1384 0.950 . S
C1405 C1404 1.373 . S
C1405 C1421 1.377 . S
C1406 C1404 1.389 . S
C1406 C1407 1.524 . S
C1406 C1420 1.377 . S
C1407 C1406 1.524 . S
C1407 C1408 1.397 . S
C1407 C1412 1.363 . S
C1408 H1385 0.950 . S
C1408 C1407 1.397 . S
C1408 C1409 1.334 . S
C1409 H1386 0.950 . S
C1409 C1408 1.334 . S
C1409 C1410 1.287 . S
C1410 C1409 1.287 . S
C1410 C1411 1.524 . S
C1410 H1429 0.913 . S
C1411 H1387 0.950 . S
C1411 C1410 1.524 . S
C1411 C1412 1.415 . S
C1412 H1388 0.950 . S
C1412 C1407 1.363 . S
C1412 C1411 1.415 . S
C1413 H1389 0.951 . S
C1413 C1414 1.366 . S
C1413 C1415 1.388 . S
C1414 C1413 1.366 . S
C1414 C1418 1.385 . S
C1415 H1390 0.951 . S
C1415 C1413 1.388 . S
C1415 C1416 1.366 . S
C1416 C1415 1.366 . S
C1416 C1417 1.414 . S
C1416 C1419 1.499 . S
C1417 H1391 0.950 . S
C1417 C1416 1.414 . S
C1417 C1418 1.374 . S
C1418 H1392 0.950 . S
C1418 C1414 1.385 . S
C1418 C1417 1.374 . S
C1419 C1416 1.499 . S
C1419 C1420 1.373 . S
C1419 C1421 1.389 . S
C1420 H1393 0.950 . S
C1420 C1406 1.377 . S
C1420 C1419 1.373 . S
C1421 C1405 1.377 . S
C1421 C1419 1.389 . S
C1421 C1422 1.524 . S
C1422 C1421 1.524 . S
C1422 C1423 1.397 . S
C1422 C1427 1.363 . S
C1423 H1394 0.950 . S
C1423 C1422 1.397 . S
C1423 C1424 1.334 . S
C1424 H1395 0.950 . S
C1424 C1423 1.334 . S
C1424 C1425 1.287 . S
C1425 C1424 1.287 . S
C1425 C1426 1.524 . S
C1425 H1428 0.999 . S
C1426 H1396 0.950 . S
C1426 C1425 1.524 . S
C1426 C1427 1.415 . S
C1427 H1397 0.950 . S
C1427 C1422 1.363 . S
C1427 C1426 1.415 . S
H1428 C1425 0.999 . S
H1429 C1410 0.913 . S
H1430 C1448 0.951 . S
H1431 C1450 0.951 . S
H1432 C1452 0.950 . S
H1433 C1453 0.950 . S
H1434 C1455 0.950 . S
H1435 C1458 0.950 . S
H1436 C1459 0.950 . S
H1437 C1461 0.950 . S
H1438 C1462 0.950 . S
H1439 C1463 0.951 . S
H1440 C1465 0.951 . S
H1441 C1467 0.950 . S
H1442 C1468 0.950 . S
H1443 C1470 0.950 . S
H1444 C1473 0.950 . S
H1445 C1474 0.950 . S
H1446 C1476 0.950 . S
H1447 C1477 0.950 . S
C1448 H1430 0.951 . S
C1448 C1449 1.366 . S
C1448 C1450 1.388 . S
C1449 C1448 1.366 . S
C1449 C1453 1.385 . S
C1450 H1431 0.951 . S
C1450 C1448 1.388 . S
C1450 C1451 1.366 . S
C1451 C1450 1.366 . S
C1451 C1452 1.414 . S
C1451 C1454 1.499 . S
C1452 H1432 0.950 . S
C1452 C1451 1.414 . S
C1452 C1453 1.374 . S
C1453 H1433 0.950 . S
C1453 C1449 1.385 . S
C1453 C1452 1.374 . S
C1454 C1451 1.499 . S
C1454 C1455 1.373 . S
C1454 C1456 1.389 . S
C1455 H1434 0.950 . S
C1455 C1454 1.373 . S
C1455 C1471 1.377 . S
C1456 C1454 1.389 . S
C1456 C1457 1.524 . S
C1456 C1470 1.377 . S
C1457 C1456 1.524 . S
C1457 C1458 1.397 . S
C1457 C1462 1.363 . S
C1458 H1435 0.950 . S
C1458 C1457 1.397 . S
C1458 C1459 1.334 . S
C1459 H1436 0.950 . S
C1459 C1458 1.334 . S
C1459 C1460 1.287 . S
C1460 C1459 1.287 . S
C1460 C1461 1.524 . S
C1460 H1479 0.913 . S
C1461 H1437 0.950 . S
C1461 C1460 1.524 . S
C1461 C1462 1.415 . S
C1462 H1438 0.950 . S
C1462 C1457 1.363 . S
C1462 C1461 1.415 . S
C1463 H1439 0.951 . S
C1463 C1464 1.366 . S
C1463 C1465 1.388 . S
C1464 C1463 1.366 . S
C1464 C1468 1.385 . S
C1465 H1440 0.951 . S
C1465 C1463 1.388 . S
C1465 C1466 1.366 . S
C1466 C1465 1.366 . S
C1466 C1467 1.414 . S
C1466 C1469 1.499 . S
C1467 H1441 0.950 . S
C1467 C1466 1.414 . S
C1467 C1468 1.374 . S
C1468 H1442 0.950 . S
C1468 C1464 1.385 . S
C1468 C1467 1.374 . S
C1469 C1466 1.499 . S
C1469 C1470 1.373 . S
C1469 C1471 1.389 . S
C1470 H1443 0.950 . S
C1470 C1456 1.377 . S
C1470 C1469 1.373 . S
C1471 C1455 1.377 . S
C1471 C1469 1.389 . S
C1471 C1472 1.524 . S
C1472 C1471 1.524 . S
C1472 C1473 1.397 . S
C1472 C1477 1.363 . S
C1473 H1444 0.950 . S
C1473 C1472 1.397 . S
C1473 C1474 1.334 . S
C1474 H1445 0.950 . S
C1474 C1473 1.334 . S
C1474 C1475 1.287 . S
C1475 C1474 1.287 . S
C1475 C1476 1.524 . S
C1475 H1478 0.999 . S
C1476 H1446 0.950 . S
C1476 C1475 1.524 . S
C1476 C1477 1.415 . S
C1477 H1447 0.950 . S
C1477 C1472 1.363 . S
C1477 C1476 1.415 . S
H1478 C1475 0.999 . S
H1479 C1460 0.913 . S
H1480 C1498 0.951 . S
H1481 C1500 0.951 . S
H1482 C1502 0.950 . S
H1483 C1503 0.950 . S
H1484 C1505 0.950 . S
H1485 C1508 0.950 . S
H1486 C1509 0.950 . S
H1487 C1511 0.950 . S
H1488 C1512 0.950 . S
H1489 C1513 0.951 . S
H1490 C1515 0.951 . S
H1491 C1517 0.950 . S
H1492 C1518 0.950 . S
H1493 C1520 0.950 . S
H1494 C1523 0.950 . S
H1495 C1524 0.950 . S
H1496 C1526 0.950 . S
H1497 C1527 0.950 . S
C1498 H1480 0.951 . S
C1498 C1499 1.366 . S
C1498 C1500 1.388 . S
C1499 C1498 1.366 . S
C1499 C1503 1.385 . S
C1500 H1481 0.951 . S
C1500 C1498 1.388 . S
C1500 C1501 1.366 . S
C1501 C1500 1.366 . S
C1501 C1502 1.414 . S
C1501 C1504 1.499 . S
C1502 H1482 0.950 . S
C1502 C1501 1.414 . S
C1502 C1503 1.374 . S
C1503 H1483 0.950 . S
C1503 C1499 1.385 . S
C1503 C1502 1.374 . S
C1504 C1501 1.499 . S
C1504 C1505 1.373 . S
C1504 C1506 1.389 . S
C1505 H1484 0.950 . S
C1505 C1504 1.373 . S
C1505 C1521 1.377 . S
C1506 C1504 1.389 . S
C1506 C1507 1.524 . S
C1506 C1520 1.377 . S
C1507 C1506 1.524 . S
C1507 C1508 1.397 . S
C1507 C1512 1.363 . S
C1508 H1485 0.950 . S
C1508 C1507 1.397 . S
C1508 C1509 1.334 . S
C1509 H1486 0.950 . S
C1509 C1508 1.334 . S
C1509 C1510 1.287 . S
C1510 C1509 1.287 . S
C1510 C1511 1.524 . S
C1510 H1529 0.913 . S
C1511 H1487 0.950 . S
C1511 C1510 1.524 . S
C1511 C1512 1.415 . S
C1512 H1488 0.950 . S
C1512 C1507 1.363 . S
C1512 C1511 1.415 . S
C1513 H1489 0.951 . S
C1513 C1514 1.366 . S
C1513 C1515 1.388 . S
C1514 C1513 1.366 . S
C1514 C1518 1.385 . S
C1515 H1490 0.951 . S
C1515 C1513 1.388 . S
C1515 C1516 1.366 . S
C1516 C1515 1.366 . S
C1516 C1517 1.414 . S
C1516 C1519 1.499 . S
C1517 H1491 0.950 . S
C1517 C1516 1.414 . S
C1517 C1518 1.374 . S
C1518 H1492 0.950 . S
C1518 C1514 1.385 . S
C1518 C1517 1.374 . S
C1519 C1516 1.499 . S
C1519 C1520 1.373 . S
C1519 C1521 1.389 . S
C1520 H1493 0.950 . S
C1520 C1506 1.377 . S
C1520 C1519 1.373 . S
C1521 C1505 1.377 . S
C1521 C1519 1.389 . S
C1521 C1522 1.524 . S
C1522 C1521 1.524 . S
C1522 C1523 1.397 . S
C1522 C1527 1.363 . S
C1523 H1494 0.950 . S
C1523 C1522 1.397 . S
C1523 C1524 1.334 . S
C1524 H1495 0.950 . S
C1524 C1523 1.334 . S
C1524 C1525 1.287 . S
C1525 C1524 1.287 . S
C1525 C1526 1.524 . S
C1525 H1528 0.999 . S
C1526 H1496 0.950 . S
C1526 C1525 1.524 . S
C1526 C1527 1.415 . S
C1527 H1497 0.950 . S
C1527 C1522 1.363 . S
C1527 C1526 1.415 . S
H1528 C1525 0.999 . S
H1529 C1510 0.913 . S
H1530 C1548 0.951 . S
H1531 C1550 0.951 . S
H1532 C1552 0.950 . S
H1533 C1553 0.950 . S
H1534 C1555 0.950 . S
H1535 C1558 0.950 . S
H1536 C1559 0.950 . S
H1537 C1561 0.950 . S
H1538 C1562 0.950 . S
H1539 C1563 0.951 . S
H1540 C1565 0.951 . S
H1541 C1567 0.950 . S
H1542 C1568 0.950 . S
H1543 C1570 0.950 . S
H1544 C1573 0.948 1_545 S
H1545 C1574 0.950 . S
H1546 C1576 0.955 . S
H1547 C1577 0.950 . S
C1548 H1530 0.951 . S
C1548 C1549 1.366 . S
C1548 C1550 1.388 . S
C1549 C1548 1.366 . S
C1549 C1553 1.385 . S
C1550 H1531 0.951 . S
C1550 C1548 1.388 . S
C1550 C1551 1.366 . S
C1551 C1550 1.366 . S
C1551 C1552 1.414 . S
C1551 C1554 1.499 . S
C1552 H1532 0.950 . S
C1552 C1551 1.414 . S
C1552 C1553 1.374 . S
C1553 H1533 0.950 . S
C1553 C1549 1.385 . S
C1553 C1552 1.374 . S
C1554 C1551 1.499 . S
C1554 C1555 1.373 . S
C1554 C1556 1.389 . S
C1555 H1534 0.950 . S
C1555 C1554 1.373 . S
C1555 C1571 1.377 . S
C1556 C1554 1.389 . S
C1556 C1557 1.524 . S
C1556 C1570 1.377 . S
C1557 C1556 1.524 . S
C1557 C1558 1.397 . S
C1557 C1562 1.363 . S
C1558 H1535 0.950 . S
C1558 C1557 1.397 . S
C1558 C1559 1.334 . S
C1559 H1536 0.950 . S
C1559 C1558 1.334 . S
C1559 C1560 1.287 . S
C1560 C1559 1.287 . S
C1560 C1561 1.524 . S
C1560 H1579 0.913 . S
C1561 H1537 0.950 . S
C1561 C1560 1.524 . S
C1561 C1562 1.415 . S
C1562 H1538 0.950 . S
C1562 C1557 1.363 . S
C1562 C1561 1.415 . S
C1563 H1539 0.951 . S
C1563 C1564 1.366 . S
C1563 C1565 1.388 . S
C1564 C1563 1.366 . S
C1564 C1568 1.385 . S
C1565 H1540 0.951 . S
C1565 C1563 1.388 . S
C1565 C1566 1.366 . S
C1566 C1565 1.366 . S
C1566 C1567 1.414 . S
C1566 C1569 1.499 1_565 S
C1567 H1541 0.950 . S
C1567 C1566 1.414 . S
C1567 C1568 1.374 . S
C1568 H1542 0.950 . S
C1568 C1564 1.385 . S
C1568 C1567 1.374 . S
C1569 C1566 1.499 1_545 S
C1569 C1570 1.373 . S
C1569 C1571 1.389 . S
C1570 H1543 0.950 . S
C1570 C1556 1.377 . S
C1570 C1569 1.373 . S
C1571 C1555 1.377 . S
C1571 C1569 1.389 . S
C1571 C1572 1.524 . S
C1572 C1571 1.524 . S
C1572 C1573 1.395 1_545 S
C1572 C1577 1.363 . S
C1573 H1544 0.948 1_565 S
C1573 C1572 1.395 1_565 S
C1573 C1574 1.338 1_455 S
C1574 H1545 0.950 . S
C1574 C1573 1.338 1_655 S
C1574 C1575 1.287 . S
C1575 C1574 1.287 . S
C1575 C1576 1.556 . S
C1575 H1578 0.999 . S
C1576 H1546 0.955 . S
C1576 C1575 1.556 . S
C1576 C1577 1.379 1_665 S
C1577 H1547 0.950 . S
C1577 C1572 1.363 . S
C1577 C1576 1.379 1_445 S
H1578 C1575 0.999 . S
H1579 C1560 0.913 . S
H1580 C1598 0.951 . S
H1581 C1600 0.951 . S
H1582 C1602 0.950 . S
H1583 C1603 0.950 . S
H1584 C1605 0.950 . S
H1585 C1608 0.950 . S
H1586 C1609 0.950 . S
H1587 C1611 0.950 . S
H1588 C1612 0.950 . S
H1589 C1613 0.951 . S
H1590 C1615 0.951 . S
H1591 C1617 0.950 . S
H1592 C1618 0.950 . S
H1593 C1620 0.950 . S
H1594 C1623 0.950 . S
H1595 C1624 0.950 . S
H1596 C1626 0.950 1_554 S
H1597 C1627 0.950 . S
C1598 H1580 0.951 . S
C1598 C1599 1.366 . S
C1598 C1600 1.388 . S
C1599 C1598 1.366 . S
C1599 C1603 1.385 . S
C1600 H1581 0.951 . S
C1600 C1598 1.388 . S
C1600 C1601 1.366 . S
C1601 C1600 1.366 . S
C1601 C1602 1.414 . S
C1601 C1604 1.499 . S
C1602 H1582 0.950 . S
C1602 C1601 1.414 . S
C1602 C1603 1.374 . S
C1603 H1583 0.950 . S
C1603 C1599 1.385 . S
C1603 C1602 1.374 . S
C1604 C1601 1.499 . S
C1604 C1605 1.373 . S
C1604 C1606 1.389 . S
C1605 H1584 0.950 . S
C1605 C1604 1.373 . S
C1605 C1621 1.377 . S
C1606 C1604 1.389 . S
C1606 C1607 1.524 . S
C1606 C1620 1.377 . S
C1607 C1606 1.524 . S
C1607 C1608 1.397 . S
C1607 C1612 1.363 . S
C1608 H1585 0.950 . S
C1608 C1607 1.397 . S
C1608 C1609 1.334 . S
C1609 H1586 0.950 . S
C1609 C1608 1.334 . S
C1609 C1610 1.287 . S
C1610 C1609 1.287 . S
C1610 C1611 1.524 . S
C1610 H1629 0.913 . S
C1611 H1587 0.950 . S
C1611 C1610 1.524 . S
C1611 C1612 1.415 . S
C1612 H1588 0.950 . S
C1612 C1607 1.363 . S
C1612 C1611 1.415 . S
C1613 H1589 0.951 . S
C1613 C1614 1.366 . S
C1613 C1615 1.388 . S
C1614 C1613 1.366 . S
C1614 C1618 1.385 . S
C1615 H1590 0.951 . S
C1615 C1613 1.388 . S
C1615 C1616 1.366 . S
C1616 C1615 1.366 . S
C1616 C1617 1.414 . S
C1616 C1619 1.499 . S
C1617 H1591 0.950 . S
C1617 C1616 1.414 . S
C1617 C1618 1.374 . S
C1618 H1592 0.950 . S
C1618 C1614 1.385 . S
C1618 C1617 1.374 . S
C1619 C1616 1.499 . S
C1619 C1620 1.373 . S
C1619 C1621 1.389 . S
C1620 H1593 0.950 . S
C1620 C1606 1.377 . S
C1620 C1619 1.373 . S
C1621 C1605 1.377 . S
C1621 C1619 1.389 . S
C1621 C1622 1.524 . S
C1622 C1621 1.524 . S
C1622 C1623 1.397 . S
C1622 C1627 1.363 . S
C1623 H1594 0.950 . S
C1623 C1622 1.397 . S
C1623 C1624 1.334 . S
C1624 H1595 0.950 . S
C1624 C1623 1.334 . S
C1624 C1625 1.287 . S
C1625 C1624 1.287 . S
C1625 C1626 1.524 . S
C1625 H1628 0.999 . S
C1626 H1596 0.950 1_556 S
C1626 C1625 1.524 . S
C1626 C1627 1.415 . S
C1627 H1597 0.950 . S
C1627 C1622 1.363 . S
C1627 C1626 1.415 . S
H1628 C1625 0.999 . S
H1629 C1610 0.913 . S
H1630 C1648 0.951 . S
H1631 C1650 0.951 . S
H1632 C1652 0.950 . S
H1633 C1653 0.950 . S
H1634 C1655 0.950 . S
H1635 C1658 0.950 . S
H1636 C1659 0.950 . S
H1637 C1661 0.950 . S
H1638 C1662 0.950 . S
H1639 C1663 0.951 . S
H1640 C1665 0.951 . S
H1641 C1667 0.950 . S
H1642 C1668 0.950 . S
H1643 C1670 0.950 . S
H1644 C1673 0.950 . S
H1645 C1674 0.950 . S
H1646 C1676 0.950 . S
H1647 C1677 0.950 . S
C1648 H1630 0.951 . S
C1648 C1649 1.366 . S
C1648 C1650 1.388 . S
C1649 C1648 1.366 . S
C1649 C1653 1.385 . S
C1650 H1631 0.951 . S
C1650 C1648 1.388 . S
C1650 C1651 1.366 . S
C1651 C1650 1.366 . S
C1651 C1652 1.414 . S
C1651 C1654 1.499 . S
C1652 H1632 0.950 . S
C1652 C1651 1.414 . S
C1652 C1653 1.374 . S
C1653 H1633 0.950 . S
C1653 C1649 1.385 . S
C1653 C1652 1.374 . S
C1654 C1651 1.499 . S
C1654 C1655 1.373 1_545 S
C1654 C1656 1.389 . S
C1655 H1634 0.950 . S
C1655 C1654 1.373 1_565 S
C1655 C1671 1.377 . S
C1656 C1654 1.389 . S
C1656 C1657 1.524 . S
C1656 C1670 1.377 1_545 S
C1657 C1656 1.524 . S
C1657 C1658 1.397 . S
C1657 C1662 1.363 . S
C1658 H1635 0.950 . S
C1658 C1657 1.397 . S
C1658 C1659 1.334 . S
C1659 H1636 0.950 . S
C1659 C1658 1.334 . S
C1659 C1660 1.287 . S
C1660 C1659 1.287 . S
C1660 C1661 1.524 . S
C1660 H1679 0.913 . S
C1661 H1637 0.950 . S
C1661 C1660 1.524 . S
C1661 C1662 1.415 . S
C1662 H1638 0.950 . S
C1662 C1657 1.363 . S
C1662 C1661 1.415 . S
C1663 H1639 0.951 . S
C1663 C1664 1.366 . S
C1663 C1665 1.388 . S
C1664 C1663 1.366 . S
C1664 C1668 1.385 . S
C1665 H1640 0.951 . S
C1665 C1663 1.388 . S
C1665 C1666 1.366 . S
C1666 C1665 1.366 . S
C1666 C1667 1.414 . S
C1666 C1669 1.499 . S
C1667 H1641 0.950 . S
C1667 C1666 1.414 . S
C1667 C1668 1.374 . S
C1668 H1642 0.950 . S
C1668 C1664 1.385 . S
C1668 C1667 1.374 . S
C1669 C1666 1.499 . S
C1669 C1670 1.373 . S
C1669 C1671 1.389 . S
C1670 H1643 0.950 . S
C1670 C1656 1.377 1_565 S
C1670 C1669 1.373 . S
C1671 C1655 1.377 . S
C1671 C1669 1.389 . S
C1671 C1672 1.524 . S
C1672 C1671 1.524 . S
C1672 C1673 1.397 . S
C1672 C1677 1.363 . S
C1673 H1644 0.950 . S
C1673 C1672 1.397 . S
C1673 C1674 1.334 . S
C1674 H1645 0.950 . S
C1674 C1673 1.334 . S
C1674 C1675 1.287 . S
C1675 C1674 1.287 . S
C1675 C1676 1.524 . S
C1675 H1678 0.999 . S
C1676 H1646 0.950 . S
C1676 C1675 1.524 . S
C1676 C1677 1.415 . S
C1677 H1647 0.950 . S
C1677 C1672 1.363 . S
C1677 C1676 1.415 . S
H1678 C1675 0.999 . S
H1679 C1660 0.913 . S
H1680 C1698 0.951 . S
H1681 C1700 0.951 . S
H1682 C1702 0.950 . S
H1683 C1703 0.950 . S
H1684 C1705 0.950 . S
H1685 C1708 0.950 . S
H1686 C1709 0.950 . S
H1687 C1711 0.950 . S
H1688 C1712 0.950 . S
H1689 C1713 0.951 . S
H1690 C1715 0.951 . S
H1691 C1717 0.950 . S
H1692 C1718 0.950 . S
H1693 C1720 0.950 . S
H1694 C1723 0.950 . S
H1695 C1724 0.950 . S
H1696 C1726 0.950 . S
H1697 C1727 0.950 . S
C1698 H1680 0.951 . S
C1698 C1699 1.366 . S
C1698 C1700 1.388 . S
C1699 C1698 1.366 . S
C1699 C1703 1.385 . S
C1700 H1681 0.951 . S
C1700 C1698 1.388 . S
C1700 C1701 1.366 . S
C1701 C1700 1.366 . S
C1701 C1702 1.414 . S
C1701 C1704 1.499 . S
C1702 H1682 0.950 . S
C1702 C1701 1.414 . S
C1702 C1703 1.374 . S
C1703 H1683 0.950 . S
C1703 C1699 1.385 . S
C1703 C1702 1.374 . S
C1704 C1701 1.499 . S
C1704 C1705 1.373 . S
C1704 C1706 1.389 . S
C1705 H1684 0.950 . S
C1705 C1704 1.373 . S
C1705 C1721 1.377 . S
C1706 C1704 1.389 . S
C1706 C1707 1.524 . S
C1706 C1720 1.377 . S
C1707 C1706 1.524 . S
C1707 C1708 1.397 . S
C1707 C1712 1.363 . S
C1708 H1685 0.950 . S
C1708 C1707 1.397 . S
C1708 C1709 1.334 . S
C1709 H1686 0.950 . S
C1709 C1708 1.334 . S
C1709 C1710 1.287 . S
C1710 C1709 1.287 . S
C1710 C1711 1.524 . S
C1710 H1729 0.913 . S
C1711 H1687 0.950 . S
C1711 C1710 1.524 . S
C1711 C1712 1.415 . S
C1712 H1688 0.950 . S
C1712 C1707 1.363 . S
C1712 C1711 1.415 . S
C1713 H1689 0.951 . S
C1713 C1714 1.366 . S
C1713 C1715 1.388 . S
C1714 C1713 1.366 . S
C1714 C1718 1.385 . S
C1715 H1690 0.951 . S
C1715 C1713 1.388 . S
C1715 C1716 1.366 . S
C1716 C1715 1.366 . S
C1716 C1717 1.414 . S
C1716 C1719 1.499 . S
C1717 H1691 0.950 . S
C1717 C1716 1.414 . S
C1717 C1718 1.374 . S
C1718 H1692 0.950 . S
C1718 C1714 1.385 . S
C1718 C1717 1.374 . S
C1719 C1716 1.499 . S
C1719 C1720 1.373 . S
C1719 C1721 1.389 . S
C1720 H1693 0.950 . S
C1720 C1706 1.377 . S
C1720 C1719 1.373 . S
C1721 C1705 1.377 . S
C1721 C1719 1.389 . S
C1721 C1722 1.524 . S
C1722 C1721 1.524 . S
C1722 C1723 1.397 . S
C1722 C1727 1.363 . S
C1723 H1694 0.950 . S
C1723 C1722 1.397 . S
C1723 C1724 1.334 . S
C1724 H1695 0.950 . S
C1724 C1723 1.334 . S
C1724 C1725 1.287 . S
C1725 C1724 1.287 . S
C1725 C1726 1.524 . S
C1725 H1728 0.999 . S
C1726 H1696 0.950 . S
C1726 C1725 1.524 . S
C1726 C1727 1.415 . S
C1727 H1697 0.950 . S
C1727 C1722 1.363 . S
C1727 C1726 1.415 . S
H1728 C1725 0.999 . S
H1729 C1710 0.913 . S
H1730 C1748 0.951 . S
H1731 C1750 0.951 . S
H1732 C1752 0.950 . S
H1733 C1753 0.950 . S
H1734 C1755 0.950 . S
H1735 C1758 0.950 . S
H1736 C1759 0.950 . S
H1737 C1761 0.950 . S
H1738 C1762 0.950 . S
H1739 C1763 0.951 . S
H1740 C1765 0.951 . S
H1741 C1767 0.950 . S
H1742 C1768 0.950 . S
H1743 C1770 0.950 . S
H1744 C1773 0.950 . S
H1745 C1774 0.950 . S
H1746 C1776 0.950 . S
H1747 C1777 0.950 . S
C1748 H1730 0.951 . S
C1748 C1749 1.366 . S
C1748 C1750 1.388 . S
C1749 C1748 1.366 . S
C1749 C1753 1.385 . S
C1750 H1731 0.951 . S
C1750 C1748 1.388 . S
C1750 C1751 1.366 . S
C1751 C1750 1.366 . S
C1751 C1752 1.414 . S
C1751 C1754 1.499 . S
C1752 H1732 0.950 . S
C1752 C1751 1.414 . S
C1752 C1753 1.374 . S
C1753 H1733 0.950 . S
C1753 C1749 1.385 . S
C1753 C1752 1.374 . S
C1754 C1751 1.499 . S
C1754 C1755 1.373 . S
C1754 C1756 1.389 . S
C1755 H1734 0.950 . S
C1755 C1754 1.373 . S
C1755 C1771 1.377 . S
C1756 C1754 1.389 . S
C1756 C1757 1.524 . S
C1756 C1770 1.377 . S
C1757 C1756 1.524 . S
C1757 C1758 1.397 . S
C1757 C1762 1.363 . S
C1758 H1735 0.950 . S
C1758 C1757 1.397 . S
C1758 C1759 1.334 . S
C1759 H1736 0.950 . S
C1759 C1758 1.334 . S
C1759 C1760 1.287 . S
C1760 C1759 1.287 . S
C1760 C1761 1.524 . S
C1760 H1779 0.913 . S
C1761 H1737 0.950 . S
C1761 C1760 1.524 . S
C1761 C1762 1.415 . S
C1762 H1738 0.950 . S
C1762 C1757 1.363 . S
C1762 C1761 1.415 . S
C1763 H1739 0.951 . S
C1763 C1764 1.366 . S
C1763 C1765 1.388 . S
C1764 C1763 1.366 . S
C1764 C1768 1.385 . S
C1765 H1740 0.951 . S
C1765 C1763 1.388 . S
C1765 C1766 1.366 . S
C1766 C1765 1.366 . S
C1766 C1767 1.414 . S
C1766 C1769 1.499 . S
C1767 H1741 0.950 . S
C1767 C1766 1.414 . S
C1767 C1768 1.374 . S
C1768 H1742 0.950 . S
C1768 C1764 1.385 . S
C1768 C1767 1.374 . S
C1769 C1766 1.499 . S
C1769 C1770 1.373 . S
C1769 C1771 1.389 . S
C1770 H1743 0.950 . S
C1770 C1756 1.377 . S
C1770 C1769 1.373 . S
C1771 C1755 1.377 . S
C1771 C1769 1.389 . S
C1771 C1772 1.524 . S
C1772 C1771 1.524 . S
C1772 C1773 1.397 . S
C1772 C1777 1.363 . S
C1773 H1744 0.950 . S
C1773 C1772 1.397 . S
C1773 C1774 1.334 . S
C1774 H1745 0.950 . S
C1774 C1773 1.334 . S
C1774 C1775 1.287 . S
C1775 C1774 1.287 . S
C1775 C1776 1.524 . S
C1775 H1778 0.999 . S
C1776 H1746 0.950 . S
C1776 C1775 1.524 . S
C1776 C1777 1.415 . S
C1777 H1747 0.950 . S
C1777 C1772 1.363 . S
C1777 C1776 1.415 . S
H1778 C1775 0.999 . S
H1779 C1760 0.913 . S
H1780 C1798 0.951 . S
H1781 C1800 0.951 . S
H1782 C1802 0.950 . S
H1783 C1803 0.950 . S
H1784 C1805 0.950 . S
H1785 C1808 0.950 . S
H1786 C1809 0.950 . S
H1787 C1811 0.950 . S
H1788 C1812 0.950 . S
H1789 C1813 0.951 . S
H1790 C1815 0.951 . S
H1791 C1817 0.950 . S
H1792 C1818 0.950 . S
H1793 C1820 0.950 . S
H1794 C1823 0.950 . S
H1795 C1824 0.950 . S
H1796 C1826 0.950 . S
H1797 C1827 0.950 . S
C1798 H1780 0.951 . S
C1798 C1799 1.366 . S
C1798 C1800 1.388 . S
C1799 C1798 1.366 . S
C1799 C1803 1.385 . S
C1800 H1781 0.951 . S
C1800 C1798 1.388 . S
C1800 C1801 1.366 . S
C1801 C1800 1.366 . S
C1801 C1802 1.414 . S
C1801 C1804 1.499 . S
C1802 H1782 0.950 . S
C1802 C1801 1.414 . S
C1802 C1803 1.374 . S
C1803 H1783 0.950 . S
C1803 C1799 1.385 . S
C1803 C1802 1.374 . S
C1804 C1801 1.499 . S
C1804 C1805 1.373 . S
C1804 C1806 1.389 . S
C1805 H1784 0.950 . S
C1805 C1804 1.373 . S
C1805 C1821 1.377 . S
C1806 C1804 1.389 . S
C1806 C1807 1.524 . S
C1806 C1820 1.377 . S
C1807 C1806 1.524 . S
C1807 C1808 1.397 . S
C1807 C1812 1.363 . S
C1808 H1785 0.950 . S
C1808 C1807 1.397 . S
C1808 C1809 1.334 . S
C1809 H1786 0.950 . S
C1809 C1808 1.334 . S
C1809 C1810 1.287 . S
C1810 C1809 1.287 . S
C1810 C1811 1.524 . S
C1810 H1829 0.913 . S
C1811 H1787 0.950 . S
C1811 C1810 1.524 . S
C1811 C1812 1.415 . S
C1812 H1788 0.950 . S
C1812 C1807 1.363 . S
C1812 C1811 1.415 . S
C1813 H1789 0.951 . S
C1813 C1814 1.366 . S
C1813 C1815 1.388 . S
C1814 C1813 1.366 . S
C1814 C1818 1.385 . S
C1815 H1790 0.951 . S
C1815 C1813 1.388 . S
C1815 C1816 1.366 . S
C1816 C1815 1.366 . S
C1816 C1817 1.414 . S
C1816 C1819 1.499 . S
C1817 H1791 0.950 . S
C1817 C1816 1.414 . S
C1817 C1818 1.374 . S
C1818 H1792 0.950 . S
C1818 C1814 1.385 . S
C1818 C1817 1.374 . S
C1819 C1816 1.499 . S
C1819 C1820 1.373 . S
C1819 C1821 1.389 . S
C1820 H1793 0.950 . S
C1820 C1806 1.377 . S
C1820 C1819 1.373 . S
C1821 C1805 1.377 . S
C1821 C1819 1.389 . S
C1821 C1822 1.524 . S
C1822 C1821 1.524 . S
C1822 C1823 1.397 . S
C1822 C1827 1.363 . S
C1823 H1794 0.950 . S
C1823 C1822 1.397 . S
C1823 C1824 1.334 . S
C1824 H1795 0.950 . S
C1824 C1823 1.334 . S
C1824 C1825 1.287 . S
C1825 C1824 1.287 . S
C1825 C1826 1.524 . S
C1825 H1828 0.999 . S
C1826 H1796 0.950 . S
C1826 C1825 1.524 . S
C1826 C1827 1.415 . S
C1827 H1797 0.950 . S
C1827 C1822 1.363 . S
C1827 C1826 1.415 . S
H1828 C1825 0.999 . S
H1829 C1810 0.913 . S
H1830 C1848 0.951 . S
H1831 C1850 0.951 . S
H1832 C1852 0.950 . S
H1833 C1853 0.950 . S
H1834 C1855 0.950 . S
H1835 C1858 0.950 . S
H1836 C1859 0.950 . S
H1837 C1861 0.950 . S
H1838 C1862 0.950 . S
H1839 C1863 0.951 . S
H1840 C1865 0.951 . S
H1841 C1867 0.950 . S
H1842 C1868 0.950 . S
H1843 C1870 0.950 . S
H1844 C1873 0.950 . S
H1845 C1874 0.950 . S
H1846 C1876 0.950 . S
H1847 C1877 0.950 . S
C1848 H1830 0.951 . S
C1848 C1849 1.366 . S
C1848 C1850 1.388 . S
C1849 C1848 1.366 . S
C1849 C1853 1.385 . S
C1850 H1831 0.951 . S
C1850 C1848 1.388 . S
C1850 C1851 1.366 . S
C1851 C1850 1.366 . S
C1851 C1852 1.414 . S
C1851 C1854 1.499 . S
C1852 H1832 0.950 . S
C1852 C1851 1.414 . S
C1852 C1853 1.374 . S
C1853 H1833 0.950 . S
C1853 C1849 1.385 . S
C1853 C1852 1.374 . S
C1854 C1851 1.499 . S
C1854 C1855 1.373 . S
C1854 C1856 1.389 . S
C1855 H1834 0.950 . S
C1855 C1854 1.373 . S
C1855 C1871 1.377 . S
C1856 C1854 1.389 . S
C1856 C1857 1.524 . S
C1856 C1870 1.377 . S
C1857 C1856 1.524 . S
C1857 C1858 1.397 . S
C1857 C1862 1.363 . S
C1858 H1835 0.950 . S
C1858 C1857 1.397 . S
C1858 C1859 1.334 . S
C1859 H1836 0.950 . S
C1859 C1858 1.334 . S
C1859 C1860 1.287 . S
C1860 C1859 1.287 . S
C1860 C1861 1.524 . S
C1860 H1879 0.913 . S
C1861 H1837 0.950 . S
C1861 C1860 1.524 . S
C1861 C1862 1.415 . S
C1862 H1838 0.950 . S
C1862 C1857 1.363 . S
C1862 C1861 1.415 . S
C1863 H1839 0.951 . S
C1863 C1864 1.366 . S
C1863 C1865 1.388 . S
C1864 C1863 1.366 . S
C1864 C1868 1.385 . S
C1865 H1840 0.951 . S
C1865 C1863 1.388 . S
C1865 C1866 1.366 . S
C1866 C1865 1.366 . S
C1866 C1867 1.414 . S
C1866 C1869 1.499 . S
C1867 H1841 0.950 . S
C1867 C1866 1.414 . S
C1867 C1868 1.374 . S
C1868 H1842 0.950 . S
C1868 C1864 1.385 . S
C1868 C1867 1.374 . S
C1869 C1866 1.499 . S
C1869 C1870 1.373 . S
C1869 C1871 1.389 . S
C1870 H1843 0.950 . S
C1870 C1856 1.377 . S
C1870 C1869 1.373 . S
C1871 C1855 1.377 . S
C1871 C1869 1.389 . S
C1871 C1872 1.524 . S
C1872 C1871 1.524 . S
C1872 C1873 1.397 . S
C1872 C1877 1.363 . S
C1873 H1844 0.950 . S
C1873 C1872 1.397 . S
C1873 C1874 1.334 . S
C1874 H1845 0.950 . S
C1874 C1873 1.334 . S
C1874 C1875 1.287 . S
C1875 C1874 1.287 . S
C1875 C1876 1.524 . S
C1875 H1878 0.999 . S
C1876 H1846 0.950 . S
C1876 C1875 1.524 . S
C1876 C1877 1.415 . S
C1877 H1847 0.950 . S
C1877 C1872 1.363 . S
C1877 C1876 1.415 . S
H1878 C1875 0.999 . S
H1879 C1860 0.913 . S
H1880 C1898 0.951 . S
H1881 C1900 0.951 . S
H1882 C1902 0.950 . S
H1883 C1903 0.950 . S
H1884 C1905 0.950 . S
H1885 C1908 0.950 . S
H1886 C1909 0.950 . S
H1887 C1911 0.950 . S
H1888 C1912 0.950 . S
H1889 C1913 0.951 . S
H1890 C1915 0.951 . S
H1891 C1917 0.950 . S
H1892 C1918 0.950 . S
H1893 C1920 0.950 . S
H1894 C1923 0.950 . S
H1895 C1924 0.950 . S
H1896 C1926 0.950 . S
H1897 C1927 0.950 . S
C1898 H1880 0.951 . S
C1898 C1899 1.366 . S
C1898 C1900 1.388 . S
C1899 C1898 1.366 . S
C1899 C1903 1.385 . S
C1900 H1881 0.951 . S
C1900 C1898 1.388 . S
C1900 C1901 1.366 . S
C1901 C1900 1.366 . S
C1901 C1902 1.414 . S
C1901 C1904 1.499 . S
C1902 H1882 0.950 . S
C1902 C1901 1.414 . S
C1902 C1903 1.374 . S
C1903 H1883 0.950 . S
C1903 C1899 1.385 . S
C1903 C1902 1.374 . S
C1904 C1901 1.499 . S
C1904 C1905 1.373 . S
C1904 C1906 1.389 . S
C1905 H1884 0.950 . S
C1905 C1904 1.373 . S
C1905 C1921 1.377 . S
C1906 C1904 1.389 . S
C1906 C1907 1.524 . S
C1906 C1920 1.377 . S
C1907 C1906 1.524 . S
C1907 C1908 1.397 . S
C1907 C1912 1.363 . S
C1908 H1885 0.950 . S
C1908 C1907 1.397 . S
C1908 C1909 1.334 . S
C1909 H1886 0.950 . S
C1909 C1908 1.334 . S
C1909 C1910 1.287 . S
C1910 C1909 1.287 . S
C1910 C1911 1.524 . S
C1910 H1929 0.913 . S
C1911 H1887 0.950 . S
C1911 C1910 1.524 . S
C1911 C1912 1.415 . S
C1912 H1888 0.950 . S
C1912 C1907 1.363 . S
C1912 C1911 1.415 . S
C1913 H1889 0.951 . S
C1913 C1914 1.366 . S
C1913 C1915 1.388 . S
C1914 C1913 1.366 . S
C1914 C1918 1.385 . S
C1915 H1890 0.951 . S
C1915 C1913 1.388 . S
C1915 C1916 1.366 . S
C1916 C1915 1.366 . S
C1916 C1917 1.414 . S
C1916 C1919 1.499 . S
C1917 H1891 0.950 . S
C1917 C1916 1.414 . S
C1917 C1918 1.374 . S
C1918 H1892 0.950 . S
C1918 C1914 1.385 . S
C1918 C1917 1.374 . S
C1919 C1916 1.499 . S
C1919 C1920 1.373 . S
C1919 C1921 1.389 . S
C1920 H1893 0.950 . S
C1920 C1906 1.377 . S
C1920 C1919 1.373 . S
C1921 C1905 1.377 . S
C1921 C1919 1.389 . S
C1921 C1922 1.524 . S
C1922 C1921 1.524 . S
C1922 C1923 1.397 . S
C1922 C1927 1.363 . S
C1923 H1894 0.950 . S
C1923 C1922 1.397 . S
C1923 C1924 1.334 . S
C1924 H1895 0.950 . S
C1924 C1923 1.334 . S
C1924 C1925 1.287 . S
C1925 C1924 1.287 . S
C1925 C1926 1.524 . S
C1925 H1928 0.999 . S
C1926 H1896 0.950 . S
C1926 C1925 1.524 . S
C1926 C1927 1.415 . S
C1927 H1897 0.950 . S
C1927 C1922 1.363 . S
C1927 C1926 1.415 . S
H1928 C1925 0.999 . S
H1929 C1910 0.913 . S
H1930 C1948 0.951 . S
H1931 C1950 0.951 . S
H1932 C1952 0.950 . S
H1933 C1953 0.950 . S
H1934 C1955 0.950 . S
H1935 C1958 0.950 . S
H1936 C1959 0.950 . S
H1937 C1961 0.950 . S
H1938 C1962 0.950 . S
H1939 C1963 0.951 . S
H1940 C1965 0.951 . S
H1941 C1967 0.950 . S
H1942 C1968 0.950 . S
H1943 C1970 0.950 . S
H1944 C1973 0.950 . S
H1945 C1974 0.950 . S
H1946 C1976 0.950 . S
H1947 C1977 0.950 . S
C1948 H1930 0.951 . S
C1948 C1949 1.366 . S
C1948 C1950 1.388 . S
C1949 C1948 1.366 . S
C1949 C1953 1.385 . S
C1950 H1931 0.951 . S
C1950 C1948 1.388 . S
C1950 C1951 1.366 . S
C1951 C1950 1.366 . S
C1951 C1952 1.414 . S
C1951 C1954 1.499 . S
C1952 H1932 0.950 . S
C1952 C1951 1.414 . S
C1952 C1953 1.374 . S
C1953 H1933 0.950 . S
C1953 C1949 1.385 . S
C1953 C1952 1.374 . S
C1954 C1951 1.499 . S
C1954 C1955 1.373 . S
C1954 C1956 1.389 . S
C1955 H1934 0.950 . S
C1955 C1954 1.373 . S
C1955 C1971 1.377 . S
C1956 C1954 1.389 . S
C1956 C1957 1.524 . S
C1956 C1970 1.377 . S
C1957 C1956 1.524 . S
C1957 C1958 1.397 . S
C1957 C1962 1.363 . S
C1958 H1935 0.950 . S
C1958 C1957 1.397 . S
C1958 C1959 1.334 . S
C1959 H1936 0.950 . S
C1959 C1958 1.334 . S
C1959 C1960 1.287 . S
C1960 C1959 1.287 . S
C1960 C1961 1.524 . S
C1960 H1979 0.913 . S
C1961 H1937 0.950 . S
C1961 C1960 1.524 . S
C1961 C1962 1.415 . S
C1962 H1938 0.950 . S
C1962 C1957 1.363 . S
C1962 C1961 1.415 . S
C1963 H1939 0.951 . S
C1963 C1964 1.366 . S
C1963 C1965 1.388 . S
C1964 C1963 1.366 . S
C1964 C1968 1.385 . S
C1965 H1940 0.951 . S
C1965 C1963 1.388 . S
C1965 C1966 1.366 . S
C1966 C1965 1.366 . S
C1966 C1967 1.414 . S
C1966 C1969 1.499 . S
C1967 H1941 0.950 . S
C1967 C1966 1.414 . S
C1967 C1968 1.374 . S
C1968 H1942 0.950 . S
C1968 C1964 1.385 . S
C1968 C1967 1.374 . S
C1969 C1966 1.499 . S
C1969 C1970 1.373 . S
C1969 C1971 1.389 . S
C1970 H1943 0.950 . S
C1970 C1956 1.377 . S
C1970 C1969 1.373 . S
C1971 C1955 1.377 . S
C1971 C1969 1.389 . S
C1971 C1972 1.524 . S
C1972 C1971 1.524 . S
C1972 C1973 1.397 . S
C1972 C1977 1.363 . S
C1973 H1944 0.950 . S
C1973 C1972 1.397 . S
C1973 C1974 1.334 . S
C1974 H1945 0.950 . S
C1974 C1973 1.334 . S
C1974 C1975 1.287 . S
C1975 C1974 1.287 . S
C1975 C1976 1.524 . S
C1975 H1978 0.999 . S
C1976 H1946 0.950 . S
C1976 C1975 1.524 . S
C1976 C1977 1.415 . S
C1977 H1947 0.950 . S
C1977 C1972 1.363 . S
C1977 C1976 1.415 . S
H1978 C1975 0.999 . S
H1979 C1960 0.913 . S
H1980 C1998 0.951 . S
H1981 C2000 0.951 . S
H1982 C2002 0.950 . S
H1983 C2003 0.950 . S
H1984 C2005 0.950 . S
H1985 C2008 0.950 . S
H1986 C2009 0.950 . S
H1987 C2011 0.950 . S
H1988 C2012 0.950 . S
H1989 C2013 0.951 . S
H1990 C2015 0.951 . S
H1991 C2017 0.950 . S
H1992 C2018 0.950 . S
H1993 C2020 0.950 . S
H1994 C2023 0.950 . S
H1995 C2024 0.950 . S
H1996 C2026 0.950 . S
H1997 C2027 0.950 . S
C1998 H1980 0.951 . S
C1998 C1999 1.366 . S
C1998 C2000 1.388 . S
C1999 C1998 1.366 . S
C1999 C2003 1.385 . S
C2000 H1981 0.951 . S
C2000 C1998 1.388 . S
C2000 C2001 1.366 . S
C2001 C2000 1.366 . S
C2001 C2002 1.414 . S
C2001 C2004 1.499 . S
C2002 H1982 0.950 . S
C2002 C2001 1.414 . S
C2002 C2003 1.374 . S
C2003 H1983 0.950 . S
C2003 C1999 1.385 . S
C2003 C2002 1.374 . S
C2004 C2001 1.499 . S
C2004 C2005 1.373 . S
C2004 C2006 1.389 . S
C2005 H1984 0.950 . S
C2005 C2004 1.373 . S
C2005 C2021 1.377 . S
C2006 C2004 1.389 . S
C2006 C2007 1.524 . S
C2006 C2020 1.377 . S
C2007 C2006 1.524 . S
C2007 C2008 1.397 . S
C2007 C2012 1.363 . S
C2008 H1985 0.950 . S
C2008 C2007 1.397 . S
C2008 C2009 1.334 . S
C2009 H1986 0.950 . S
C2009 C2008 1.334 . S
C2009 C2010 1.287 . S
C2010 C2009 1.287 . S
C2010 C2011 1.524 . S
C2010 H2029 0.913 . S
C2011 H1987 0.950 . S
C2011 C2010 1.524 . S
C2011 C2012 1.415 . S
C2012 H1988 0.950 . S
C2012 C2007 1.363 . S
C2012 C2011 1.415 . S
C2013 H1989 0.951 . S
C2013 C2014 1.366 . S
C2013 C2015 1.388 . S
C2014 C2013 1.366 . S
C2014 C2018 1.385 . S
C2015 H1990 0.951 . S
C2015 C2013 1.388 . S
C2015 C2016 1.366 . S
C2016 C2015 1.366 . S
C2016 C2017 1.414 . S
C2016 C2019 1.499 . S
C2017 H1991 0.950 . S
C2017 C2016 1.414 . S
C2017 C2018 1.374 . S
C2018 H1992 0.950 . S
C2018 C2014 1.385 . S
C2018 C2017 1.374 . S
C2019 C2016 1.499 . S
C2019 C2020 1.373 1_655 S
C2019 C2021 1.389 1_655 S
C2020 H1993 0.950 . S
C2020 C2006 1.377 . S
C2020 C2019 1.373 1_455 S
C2021 C2005 1.377 . S
C2021 C2019 1.389 1_455 S
C2021 C2022 1.524 1_455 S
C2022 C2021 1.524 1_655 S
C2022 C2023 1.397 . S
C2022 C2027 1.363 . S
C2023 H1994 0.950 . S
C2023 C2022 1.397 . S
C2023 C2024 1.334 1_554 S
C2024 H1995 0.950 . S
C2024 C2023 1.334 1_556 S
C2024 C2025 1.287 . S
C2025 C2024 1.287 . S
C2025 C2026 1.524 1_556 S
C2025 H2028 0.999 . S
C2026 H1996 0.950 . S
C2026 C2025 1.524 1_554 S
C2026 C2027 1.415 . S
C2027 H1997 0.950 . S
C2027 C2022 1.363 . S
C2027 C2026 1.415 . S
H2028 C2025 0.999 . S
H2029 C2010 0.913 . S
H2030 C2048 0.951 . S
H2031 C2050 0.951 . S
H2032 C2052 0.950 . S
H2033 C2053 0.950 . S
H2034 C2055 0.950 . S
H2035 C2058 0.950 . S
H2036 C2059 0.950 . S
H2037 C2061 0.950 . S
H2038 C2062 0.950 . S
H2039 C2063 0.951 . S
H2040 C2065 0.951 . S
H2041 C2067 0.950 . S
H2042 C2068 0.950 . S
H2043 C2070 0.950 . S
H2044 C2073 0.950 . S
H2045 C2074 0.950 . S
H2046 C2076 0.950 . S
H2047 C2077 0.950 . S
C2048 H2030 0.951 . S
C2048 C2049 1.366 . S
C2048 C2050 1.388 . S
C2049 C2048 1.366 . S
C2049 C2053 1.385 . S
C2050 H2031 0.951 . S
C2050 C2048 1.388 . S
C2050 C2051 1.366 . S
C2051 C2050 1.366 . S
C2051 C2052 1.414 . S
C2051 C2054 1.499 . S
C2052 H2032 0.950 . S
C2052 C2051 1.414 . S
C2052 C2053 1.374 . S
C2053 H2033 0.950 . S
C2053 C2049 1.385 . S
C2053 C2052 1.374 . S
C2054 C2051 1.499 . S
C2054 C2055 1.373 . S
C2054 C2056 1.389 . S
C2055 H2034 0.950 . S
C2055 C2054 1.373 . S
C2055 C2071 1.377 . S
C2056 C2054 1.389 . S
C2056 C2057 1.524 . S
C2056 C2070 1.377 . S
C2057 C2056 1.524 . S
C2057 C2058 1.397 . S
C2057 C2062 1.363 . S
C2058 H2035 0.950 . S
C2058 C2057 1.397 . S
C2058 C2059 1.334 . S
C2059 H2036 0.950 . S
C2059 C2058 1.334 . S
C2059 C2060 1.287 . S
C2060 C2059 1.287 . S
C2060 C2061 1.524 . S
C2060 H2079 0.913 . S
C2061 H2037 0.950 . S
C2061 C2060 1.524 . S
C2061 C2062 1.415 . S
C2062 H2038 0.950 . S
C2062 C2057 1.363 . S
C2062 C2061 1.415 . S
C2063 H2039 0.951 . S
C2063 C2064 1.366 . S
C2063 C2065 1.388 . S
C2064 C2063 1.366 . S
C2064 C2068 1.385 . S
C2065 H2040 0.951 . S
C2065 C2063 1.388 . S
C2065 C2066 1.366 . S
C2066 C2065 1.366 . S
C2066 C2067 1.414 . S
C2066 C2069 1.499 . S
C2067 H2041 0.950 . S
C2067 C2066 1.414 . S
C2067 C2068 1.374 . S
C2068 H2042 0.950 . S
C2068 C2064 1.385 . S
C2068 C2067 1.374 . S
C2069 C2066 1.499 . S
C2069 C2070 1.373 . S
C2069 C2071 1.389 . S
C2070 H2043 0.950 . S
C2070 C2056 1.377 . S
C2070 C2069 1.373 . S
C2071 C2055 1.377 . S
C2071 C2069 1.389 . S
C2071 C2072 1.524 . S
C2072 C2071 1.524 . S
C2072 C2073 1.397 . S
C2072 C2077 1.363 . S
C2073 H2044 0.950 . S
C2073 C2072 1.397 . S
C2073 C2074 1.334 . S
C2074 H2045 0.950 . S
C2074 C2073 1.334 . S
C2074 C2075 1.287 . S
C2075 C2074 1.287 . S
C2075 C2076 1.524 . S
C2075 H2078 0.999 . S
C2076 H2046 0.950 . S
C2076 C2075 1.524 . S
C2076 C2077 1.415 . S
C2077 H2047 0.950 . S
C2077 C2072 1.363 . S
C2077 C2076 1.415 . S
H2078 C2075 0.999 . S
H2079 C2060 0.913 . S
H2080 C2098 0.951 . S
H2081 C2100 0.951 . S
H2082 C2102 0.950 . S
H2083 C2103 0.950 . S
H2084 C2105 0.950 . S
H2085 C2108 0.950 . S
H2086 C2109 0.950 . S
H2087 C2111 0.950 . S
H2088 C2112 0.950 . S
H2089 C2113 0.951 . S
H2090 C2115 0.951 . S
H2091 C2117 0.950 . S
H2092 C2118 0.950 . S
H2093 C2120 0.950 . S
H2094 C2123 0.950 . S
H2095 C2124 0.950 . S
H2096 C2126 0.950 . S
H2097 C2127 0.950 . S
C2098 H2080 0.951 . S
C2098 C2099 1.366 . S
C2098 C2100 1.388 . S
C2099 C2098 1.366 . S
C2099 C2103 1.385 . S
C2100 H2081 0.951 . S
C2100 C2098 1.388 . S
C2100 C2101 1.366 . S
C2101 C2100 1.366 . S
C2101 C2102 1.414 . S
C2101 C2104 1.499 . S
C2102 H2082 0.950 . S
C2102 C2101 1.414 . S
C2102 C2103 1.374 . S
C2103 H2083 0.950 . S
C2103 C2099 1.385 . S
C2103 C2102 1.374 . S
C2104 C2101 1.499 . S
C2104 C2105 1.373 . S
C2104 C2106 1.389 . S
C2105 H2084 0.950 . S
C2105 C2104 1.373 . S
C2105 C2121 1.377 . S
C2106 C2104 1.389 . S
C2106 C2107 1.524 . S
C2106 C2120 1.377 . S
C2107 C2106 1.524 . S
C2107 C2108 1.397 . S
C2107 C2112 1.363 . S
C2108 H2085 0.950 . S
C2108 C2107 1.397 . S
C2108 C2109 1.334 . S
C2109 H2086 0.950 . S
C2109 C2108 1.334 . S
C2109 C2110 1.287 . S
C2110 C2109 1.287 . S
C2110 C2111 1.524 . S
C2110 H2129 0.913 . S
C2111 H2087 0.950 . S
C2111 C2110 1.524 . S
C2111 C2112 1.415 . S
C2112 H2088 0.950 . S
C2112 C2107 1.363 . S
C2112 C2111 1.415 . S
C2113 H2089 0.951 . S
C2113 C2114 1.366 . S
C2113 C2115 1.388 . S
C2114 C2113 1.366 . S
C2114 C2118 1.385 . S
C2115 H2090 0.951 . S
C2115 C2113 1.388 . S
C2115 C2116 1.366 . S
C2116 C2115 1.366 . S
C2116 C2117 1.414 . S
C2116 C2119 1.499 . S
C2117 H2091 0.950 . S
C2117 C2116 1.414 . S
C2117 C2118 1.374 . S
C2118 H2092 0.950 . S
C2118 C2114 1.385 . S
C2118 C2117 1.374 . S
C2119 C2116 1.499 . S
C2119 C2120 1.373 . S
C2119 C2121 1.389 . S
C2120 H2093 0.950 . S
C2120 C2106 1.377 . S
C2120 C2119 1.373 . S
C2121 C2105 1.377 . S
C2121 C2119 1.389 . S
C2121 C2122 1.524 . S
C2122 C2121 1.524 . S
C2122 C2123 1.397 . S
C2122 C2127 1.363 . S
C2123 H2094 0.950 . S
C2123 C2122 1.397 . S
C2123 C2124 1.334 . S
C2124 H2095 0.950 . S
C2124 C2123 1.334 . S
C2124 C2125 1.287 . S
C2125 C2124 1.287 . S
C2125 C2126 1.524 . S
C2125 H2128 0.999 . S
C2126 H2096 0.950 . S
C2126 C2125 1.524 . S
C2126 C2127 1.415 . S
C2127 H2097 0.950 . S
C2127 C2122 1.363 . S
C2127 C2126 1.415 . S
H2128 C2125 0.999 . S
H2129 C2110 0.913 . S
H2130 C2148 0.951 . S
H2131 C2150 0.951 . S
H2132 C2152 0.950 . S
H2133 C2153 0.950 . S
H2134 C2155 0.950 . S
H2135 C2158 0.950 . S
H2136 C2159 0.950 . S
H2137 C2161 0.950 . S
H2138 C2162 0.950 . S
H2139 C2163 0.951 . S
H2140 C2165 0.951 . S
H2141 C2167 0.950 . S
H2142 C2168 0.950 . S
H2143 C2170 0.950 . S
H2144 C2173 0.950 . S
H2145 C2174 0.950 . S
H2146 C2176 0.950 . S
H2147 C2177 0.950 . S
C2148 H2130 0.951 . S
C2148 C2149 1.366 . S
C2148 C2150 1.388 . S
C2149 C2148 1.366 . S
C2149 C2153 1.385 . S
C2150 H2131 0.951 . S
C2150 C2148 1.388 . S
C2150 C2151 1.366 . S
C2151 C2150 1.366 . S
C2151 C2152 1.414 . S
C2151 C2154 1.499 . S
C2152 H2132 0.950 . S
C2152 C2151 1.414 . S
C2152 C2153 1.374 . S
C2153 H2133 0.950 . S
C2153 C2149 1.385 . S
C2153 C2152 1.374 . S
C2154 C2151 1.499 . S
C2154 C2155 1.373 . S
C2154 C2156 1.389 . S
C2155 H2134 0.950 . S
C2155 C2154 1.373 . S
C2155 C2171 1.377 . S
C2156 C2154 1.389 . S
C2156 C2157 1.524 . S
C2156 C2170 1.377 . S
C2157 C2156 1.524 . S
C2157 C2158 1.397 . S
C2157 C2162 1.363 . S
C2158 H2135 0.950 . S
C2158 C2157 1.397 . S
C2158 C2159 1.334 . S
C2159 H2136 0.950 . S
C2159 C2158 1.334 . S
C2159 C2160 1.287 . S
C2160 C2159 1.287 . S
C2160 C2161 1.524 . S
C2160 H2179 0.913 . S
C2161 H2137 0.950 . S
C2161 C2160 1.524 . S
C2161 C2162 1.415 . S
C2162 H2138 0.950 . S
C2162 C2157 1.363 . S
C2162 C2161 1.415 . S
C2163 H2139 0.951 . S
C2163 C2164 1.366 . S
C2163 C2165 1.388 . S
C2164 C2163 1.366 . S
C2164 C2168 1.385 . S
C2165 H2140 0.951 . S
C2165 C2163 1.388 . S
C2165 C2166 1.366 . S
C2166 C2165 1.366 . S
C2166 C2167 1.414 . S
C2166 C2169 1.499 . S
C2167 H2141 0.950 . S
C2167 C2166 1.414 . S
C2167 C2168 1.374 . S
C2168 H2142 0.950 . S
C2168 C2164 1.385 . S
C2168 C2167 1.374 . S
C2169 C2166 1.499 . S
C2169 C2170 1.373 . S
C2169 C2171 1.389 . S
C2170 H2143 0.950 . S
C2170 C2156 1.377 . S
C2170 C2169 1.373 . S
C2171 C2155 1.377 . S
C2171 C2169 1.389 . S
C2171 C2172 1.524 . S
C2172 C2171 1.524 . S
C2172 C2173 1.397 . S
C2172 C2177 1.363 . S
C2173 H2144 0.950 . S
C2173 C2172 1.397 . S
C2173 C2174 1.334 . S
C2174 H2145 0.950 . S
C2174 C2173 1.334 . S
C2174 C2175 1.287 . S
C2175 C2174 1.287 . S
C2175 C2176 1.524 . S
C2175 H2178 0.999 . S
C2176 H2146 0.950 . S
C2176 C2175 1.524 . S
C2176 C2177 1.415 . S
C2177 H2147 0.950 . S
C2177 C2172 1.363 . S
C2177 C2176 1.415 . S
H2178 C2175 0.999 . S
H2179 C2160 0.913 . S
H2180 C2198 0.951 . S
H2181 C2200 0.951 . S
H2182 C2202 0.950 . S
H2183 C2203 0.950 . S
H2184 C2205 0.950 . S
H2185 C2208 0.950 . S
H2186 C2209 0.950 . S
H2187 C2211 0.950 . S
H2188 C2212 0.950 . S
H2189 C2213 0.951 . S
H2190 C2215 0.951 . S
H2191 C2217 0.950 . S
H2192 C2218 0.950 . S
H2193 C2220 0.950 . S
H2194 C2223 0.950 . S
H2195 C2224 0.950 . S
H2196 C2226 0.950 . S
H2197 C2227 0.950 . S
C2198 H2180 0.951 . S
C2198 C2199 1.366 . S
C2198 C2200 1.388 . S
C2199 C2198 1.366 . S
C2199 C2203 1.385 . S
C2200 H2181 0.951 . S
C2200 C2198 1.388 . S
C2200 C2201 1.366 . S
C2201 C2200 1.366 . S
C2201 C2202 1.414 . S
C2201 C2204 1.499 . S
C2202 H2182 0.950 . S
C2202 C2201 1.414 . S
C2202 C2203 1.374 . S
C2203 H2183 0.950 . S
C2203 C2199 1.385 . S
C2203 C2202 1.374 . S
C2204 C2201 1.499 . S
C2204 C2205 1.373 . S
C2204 C2206 1.389 . S
C2205 H2184 0.950 . S
C2205 C2204 1.373 . S
C2205 C2221 1.377 . S
C2206 C2204 1.389 . S
C2206 C2207 1.524 . S
C2206 C2220 1.377 . S
C2207 C2206 1.524 . S
C2207 C2208 1.397 . S
C2207 C2212 1.363 . S
C2208 H2185 0.950 . S
C2208 C2207 1.397 . S
C2208 C2209 1.334 . S
C2209 H2186 0.950 . S
C2209 C2208 1.334 . S
C2209 C2210 1.287 . S
C2210 C2209 1.287 . S
C2210 C2211 1.524 . S
C2210 H2229 0.913 . S
C2211 H2187 0.950 . S
C2211 C2210 1.524 . S
C2211 C2212 1.415 . S
C2212 H2188 0.950 . S
C2212 C2207 1.363 . S
C2212 C2211 1.415 . S
C2213 H2189 0.951 . S
C2213 C2214 1.366 . S
C2213 C2215 1.388 . S
C2214 C2213 1.366 . S
C2214 C2218 1.385 . S
C2215 H2190 0.951 . S
C2215 C2213 1.388 . S
C2215 C2216 1.366 . S
C2216 C2215 1.366 . S
C2216 C2217 1.414 . S
C2216 C2219 1.499 . S
C2217 H2191 0.950 . S
C2217 C2216 1.414 . S
C2217 C2218 1.374 . S
C2218 H2192 0.950 . S
C2218 C2214 1.385 . S
C2218 C2217 1.374 . S
C2219 C2216 1.499 . S
C2219 C2220 1.373 . S
C2219 C2221 1.389 . S
C2220 H2193 0.950 . S
C2220 C2206 1.377 . S
C2220 C2219 1.373 . S
C2221 C2205 1.377 . S
C2221 C2219 1.389 . S
C2221 C2222 1.524 . S
C2222 C2221 1.524 . S
C2222 C2223 1.397 . S
C2222 C2227 1.363 . S
C2223 H2194 0.950 . S
C2223 C2222 1.397 . S
C2223 C2224 1.334 . S
C2224 H2195 0.950 . S
C2224 C2223 1.334 . S
C2224 C2225 1.287 . S
C2225 C2224 1.287 . S
C2225 C2226 1.524 . S
C2225 H2228 0.999 . S
C2226 H2196 0.950 . S
C2226 C2225 1.524 . S
C2226 C2227 1.415 . S
C2227 H2197 0.950 . S
C2227 C2222 1.363 . S
C2227 C2226 1.415 . S
H2228 C2225 0.999 . S
H2229 C2210 0.913 . S
H2230 C2248 0.951 . S
H2231 C2250 0.951 . S
H2232 C2252 0.950 . S
H2233 C2253 0.950 . S
H2234 C2255 0.950 . S
H2235 C2258 0.950 . S
H2236 C2259 0.950 . S
H2237 C2261 0.950 . S
H2238 C2262 0.950 . S
H2239 C2263 0.951 . S
H2240 C2265 0.951 . S
H2241 C2267 0.950 . S
H2242 C2268 0.950 . S
H2243 C2270 0.950 . S
H2244 C2273 0.950 . S
H2245 C2274 0.950 . S
H2246 C2276 0.950 . S
H2247 C2277 0.950 . S
C2248 H2230 0.951 . S
C2248 C2249 1.366 . S
C2248 C2250 1.388 . S
C2249 C2248 1.366 . S
C2249 C2253 1.385 . S
C2250 H2231 0.951 . S
C2250 C2248 1.388 . S
C2250 C2251 1.366 . S
C2251 C2250 1.366 . S
C2251 C2252 1.414 . S
C2251 C2254 1.499 . S
C2252 H2232 0.950 . S
C2252 C2251 1.414 . S
C2252 C2253 1.374 . S
C2253 H2233 0.950 . S
C2253 C2249 1.385 . S
C2253 C2252 1.374 . S
C2254 C2251 1.499 . S
C2254 C2255 1.373 . S
C2254 C2256 1.389 . S
C2255 H2234 0.950 . S
C2255 C2254 1.373 . S
C2255 C2271 1.377 . S
C2256 C2254 1.389 . S
C2256 C2257 1.524 . S
C2256 C2270 1.377 . S
C2257 C2256 1.524 . S
C2257 C2258 1.397 . S
C2257 C2262 1.363 . S
C2258 H2235 0.950 . S
C2258 C2257 1.397 . S
C2258 C2259 1.334 . S
C2259 H2236 0.950 . S
C2259 C2258 1.334 . S
C2259 C2260 1.287 . S
C2260 C2259 1.287 . S
C2260 C2261 1.524 . S
C2260 H2279 0.913 . S
C2261 H2237 0.950 . S
C2261 C2260 1.524 . S
C2261 C2262 1.415 . S
C2262 H2238 0.950 . S
C2262 C2257 1.363 . S
C2262 C2261 1.415 . S
C2263 H2239 0.951 . S
C2263 C2264 1.366 . S
C2263 C2265 1.388 . S
C2264 C2263 1.366 . S
C2264 C2268 1.385 . S
C2265 H2240 0.951 . S
C2265 C2263 1.388 . S
C2265 C2266 1.366 . S
C2266 C2265 1.366 . S
C2266 C2267 1.414 . S
C2266 C2269 1.540 . S
C2267 H2241 0.950 . S
C2267 C2266 1.414 . S
C2267 C2268 1.374 . S
C2268 H2242 0.950 . S
C2268 C2264 1.385 . S
C2268 C2267 1.374 . S
C2269 C2266 1.540 . S
C2269 C2270 1.340 1_455 S
C2269 C2271 1.382 1_455 S
C2270 H2243 0.950 . S
C2270 C2256 1.377 . S
C2270 C2269 1.340 1_655 S
C2271 C2255 1.377 . S
C2271 C2269 1.382 1_655 S
C2271 C2272 1.524 1_655 S
C2272 C2271 1.524 1_455 S
C2272 C2273 1.397 . S
C2272 C2277 1.363 . S
C2273 H2244 0.950 . S
C2273 C2272 1.397 . S
C2273 C2274 1.334 . S
C2274 H2245 0.950 . S
C2274 C2273 1.334 . S
C2274 C2275 1.287 . S
C2275 C2274 1.287 . S
C2275 C2276 1.524 . S
C2275 H2278 0.999 . S
C2276 H2246 0.950 . S
C2276 C2275 1.524 . S
C2276 C2277 1.415 . S
C2277 H2247 0.950 . S
C2277 C2272 1.363 . S
C2277 C2276 1.415 . S
H2278 C2275 0.999 . S
H2279 C2260 0.913 . S
C499 C18 0.846 . S
C514 C458 0.845 . S
C549 C379 1.565 . S
C564 C58 1.648 . S
C599 C99 1.114 . S
C614 C338 1.165 . S
C649 C138 1.937 . S
C664 C418 1.931 . S
C699 C178 1.607 . S
C714 C419 1.548 . S
C749 C219 1.360 . S
C764 C459 1.381 . S
C799 C378 1.703 . S
C814 C258 1.704 . S
C849 C299 1.627 . S
C864 C339 1.683 . S
C899 C139 1.687 . S
C914 C179 1.723 . S
C949 C19 1.413 . S
C964 C218 1.487 . S
C999 C59 1.555 . S
C1014 C259 1.558 . S
C1049 C298 1.796 . S
C1064 C98 1.803 . S
C1099 C6 1.515 . S
C1114 C329 1.416 . S
C1149 C46 1.829 . S
C1164 C409 1.743 . S
C1199 C449 1.776 . S
C1214 C95 1.807 . S
C1249 C126 1.490 . S
C1264 C370 1.462 . S
C1299 C166 1.131 . S
C1314 C369 1.091 . S
C1349 C330 1.759 . S
C1364 C215 1.702 . S
C1399 C410 1.284 . S
C1414 C246 1.295 . S
C1449 C450 2.696 . S
C1464 C295 2.622 . S
C1499 C10 2.754 . S
C1514 C135 2.675 . S
C1549 C15 1.887 . S
C1564 C50 1.931 . S
C1599 C55 2.177 . S
C1614 C89 2.145 . S
C1649 C130 1.676 . S
C1664 C86 1.712 . S
C1699 C206 1.420 . S
C1714 C170 1.401 . S
C1749 C209 1.084 . S
C1764 C255 1.116 . S
C1799 C250 1.423 . S
C1814 C286 1.444 . S
C1849 C175 0.592 . S
C1864 C289 0.613 . S
C1899 C335 0.502 . S
C1914 C129 0.552 . S
C1949 C210 1.479 . S
C1964 C375 1.451 . S
C1999 C326 1.287 . S
C2014 C249 1.229 . S
C2049 C406 1.857 . S
C2064 C290 1.833 . S
C2099 C169 1.147 . S
C2114 C446 1.208 . S
C2149 C455 1.532 . S
C2164 C49 1.487 . S
C2199 C90 1.470 . S
C2214 C366 1.493 . S
C2249 C415 1.606 . S
C2264 C9 1.574 . S
