# Generated by pormake.
# Topology wlh, (5)-cn, num edge types: 1
# Building blocks:
#     Node 0, Type 0, BuildingBlock: BEQFEK_clean_sbu_0, # of connection points: 5
#     Node 1, Type 0, BuildingBlock: BEQFEK_clean_sbu_0, # of connection points: 5
#     Node 2, Type 0, BuildingBlock: BEQFEK_clean_sbu_0, # of connection points: 5
#     Node 3, Type 0, BuildingBlock: BEQFEK_clean_sbu_0, # of connection points: 5
#     Node 4, Type 0, BuildingBlock: BEQFEK_clean_sbu_0, # of connection points: 5
#     Node 5, Type 0, BuildingBlock: BEQFEK_clean_sbu_0, # of connection points: 5
#     Node 6, Type 0, BuildingBlock: BEQFEK_clean_sbu_0, # of connection points: 5
#     Node 7, Type 0, BuildingBlock: BEQFEK_clean_sbu_0, # of connection points: 5
#     Node 8, Type 0, BuildingBlock: BEQFEK_clean_sbu_0, # of connection points: 5
#     Node 9, Type 0, BuildingBlock: BEQFEK_clean_sbu_0, # of connection points: 5
#     Node 10, Type 0, BuildingBlock: BEQFEK_clean_sbu_0, # of connection points: 5
#     Node 11, Type 0, BuildingBlock: BEQFEK_clean_sbu_0, # of connection points: 5
#     Node 12, Type 0, BuildingBlock: BEQFEK_clean_sbu_0, # of connection points: 5
#     Node 13, Type 0, BuildingBlock: BEQFEK_clean_sbu_0, # of connection points: 5
#     Node 14, Type 0, BuildingBlock: BEQFEK_clean_sbu_0, # of connection points: 5
#     Node 15, Type 0, BuildingBlock: BEQFEK_clean_sbu_0, # of connection points: 5
#     Node 16, Type 0, BuildingBlock: BEQFEK_clean_sbu_0, # of connection points: 5
#     Node 17, Type 0, BuildingBlock: BEQFEK_clean_sbu_0, # of connection points: 5
#     Node 18, Type 0, BuildingBlock: BEQFEK_clean_sbu_0, # of connection points: 5
#     Node 19, Type 0, BuildingBlock: BEQFEK_clean_sbu_0, # of connection points: 5
#     Node 20, Type 0, BuildingBlock: BEQFEK_clean_sbu_0, # of connection points: 5
#     Node 21, Type 0, BuildingBlock: BEQFEK_clean_sbu_0, # of connection points: 5
#     Node 22, Type 0, BuildingBlock: BEQFEK_clean_sbu_0, # of connection points: 5
#     Node 23, Type 0, BuildingBlock: BEQFEK_clean_sbu_0, # of connection points: 5
#     Node 24, Type 0, BuildingBlock: BEQFEK_clean_sbu_0, # of connection points: 5
#     Node 25, Type 0, BuildingBlock: BEQFEK_clean_sbu_0, # of connection points: 5
#     Node 26, Type 0, BuildingBlock: BEQFEK_clean_sbu_0, # of connection points: 5
#     Node 27, Type 0, BuildingBlock: BEQFEK_clean_sbu_0, # of connection points: 5
#     Node 28, Type 0, BuildingBlock: BEQFEK_clean_sbu_0, # of connection points: 5
#     Node 29, Type 0, BuildingBlock: BEQFEK_clean_sbu_0, # of connection points: 5
#     Node 30, Type 0, BuildingBlock: BEQFEK_clean_sbu_0, # of connection points: 5
#     Node 31, Type 0, BuildingBlock: BEQFEK_clean_sbu_0, # of connection points: 5
#     Node 32, Type 0, BuildingBlock: BEQFEK_clean_sbu_0, # of connection points: 5
#     Node 33, Type 0, BuildingBlock: BEQFEK_clean_sbu_0, # of connection points: 5
#     Node 34, Type 0, BuildingBlock: BEQFEK_clean_sbu_0, # of connection points: 5
#     Node 35, Type 0, BuildingBlock: BEQFEK_clean_sbu_0, # of connection points: 5
#     Edge 36, Type (0, 0), None
#     Edge 37, Type (0, 0), None
#     Edge 38, Type (0, 0), None
#     Edge 39, Type (0, 0), None
#     Edge 40, Type (0, 0), None
#     Edge 41, Type (0, 0), None
#     Edge 42, Type (0, 0), None
#     Edge 43, Type (0, 0), None
#     Edge 44, Type (0, 0), None
#     Edge 45, Type (0, 0), None
#     Edge 46, Type (0, 0), None
#     Edge 47, Type (0, 0), None
#     Edge 48, Type (0, 0), None
#     Edge 49, Type (0, 0), None
#     Edge 50, Type (0, 0), None
#     Edge 51, Type (0, 0), None
#     Edge 52, Type (0, 0), None
#     Edge 53, Type (0, 0), None
#     Edge 54, Type (0, 0), None
#     Edge 55, Type (0, 0), None
#     Edge 56, Type (0, 0), None
#     Edge 57, Type (0, 0), None
#     Edge 58, Type (0, 0), None
#     Edge 59, Type (0, 0), None
#     Edge 60, Type (0, 0), None
#     Edge 61, Type (0, 0), None
#     Edge 62, Type (0, 0), None
#     Edge 63, Type (0, 0), None
#     Edge 64, Type (0, 0), None
#     Edge 65, Type (0, 0), None
#     Edge 66, Type (0, 0), None
#     Edge 67, Type (0, 0), None
#     Edge 68, Type (0, 0), None
#     Edge 69, Type (0, 0), None
#     Edge 70, Type (0, 0), None
#     Edge 71, Type (0, 0), None
#     Edge 72, Type (0, 0), None
#     Edge 73, Type (0, 0), None
#     Edge 74, Type (0, 0), None
#     Edge 75, Type (0, 0), None
#     Edge 76, Type (0, 0), None
#     Edge 77, Type (0, 0), None
#     Edge 78, Type (0, 0), None
#     Edge 79, Type (0, 0), None
#     Edge 80, Type (0, 0), None
#     Edge 81, Type (0, 0), None
#     Edge 82, Type (0, 0), None
#     Edge 83, Type (0, 0), None
#     Edge 84, Type (0, 0), None
#     Edge 85, Type (0, 0), None
#     Edge 86, Type (0, 0), None
#     Edge 87, Type (0, 0), None
#     Edge 88, Type (0, 0), None
#     Edge 89, Type (0, 0), None
#     Edge 90, Type (0, 0), None
#     Edge 91, Type (0, 0), None
#     Edge 92, Type (0, 0), None
#     Edge 93, Type (0, 0), None
#     Edge 94, Type (0, 0), None
#     Edge 95, Type (0, 0), None
#     Edge 96, Type (0, 0), None
#     Edge 97, Type (0, 0), None
#     Edge 98, Type (0, 0), None
#     Edge 99, Type (0, 0), None
#     Edge 100, Type (0, 0), None
#     Edge 101, Type (0, 0), None
#     Edge 102, Type (0, 0), None
#     Edge 103, Type (0, 0), None
#     Edge 104, Type (0, 0), None
#     Edge 105, Type (0, 0), None
#     Edge 106, Type (0, 0), None
#     Edge 107, Type (0, 0), None
#     Edge 108, Type (0, 0), None
#     Edge 109, Type (0, 0), None
#     Edge 110, Type (0, 0), None
#     Edge 111, Type (0, 0), None
#     Edge 112, Type (0, 0), None
#     Edge 113, Type (0, 0), None
#     Edge 114, Type (0, 0), None
#     Edge 115, Type (0, 0), None
#     Edge 116, Type (0, 0), None
#     Edge 117, Type (0, 0), None
#     Edge 118, Type (0, 0), None
#     Edge 119, Type (0, 0), None
#     Edge 120, Type (0, 0), None
#     Edge 121, Type (0, 0), None
#     Edge 122, Type (0, 0), None
#     Edge 123, Type (0, 0), None
#     Edge 124, Type (0, 0), None
#     Edge 125, Type (0, 0), None
# Relax obj value: 0.216
# Max RMSD: 0.186
# Mean RMSD: 0.186
data_MOF--net-wlh--node1-BEQFEK_clean_sbu_0--edge1-none
_symmetry_space_group_name_H-M    P1
_symmetry_Int_Tables_number       1
_symmetry_cell_setting            triclinic
loop_
_symmetry_equiv_pos_as_xyz
'x, y, z'
_cell_length_a     23.40765
_cell_length_b     23.415321
_cell_length_c     65.250769
_cell_angle_alpha  90.012501
_cell_angle_beta   89.982041
_cell_angle_gamma 120.01448
loop_
_atom_site_label
_atom_site_type_symbol
_atom_site_fract_x
_atom_site_fract_y
_atom_site_fract_z
_atom_type_partial_charge
Co0 Co 0.08025 0.1551 0.20909 0.0
Co1 Co 0.033 0.25526 0.20122 0.0
C2 C 0.96011 0.11647 0.18809 0.0
O3 O 0.01469 0.11767 0.18718 0.0
O4 O 0.95798 0.16786 0.19302 0.0
C5 C 0.14126 0.09032 0.1902 0.0
O6 O 0.13294 0.1182 0.1739 0.0
C7 C 0.97814 0.33001 0.18047 0.0
C8 C 0.0618 0.4318 0.18325 0.0
C9 C 0.00055 0.39485 0.17414 0.0
N10 N 0.02502 0.32907 0.19213 0.0
N11 N 0.07434 0.39027 0.194 0.0
C12 C 0.91205 0.27036 0.17711 0.0
H13 H 0.89772 0.23784 0.19076 0.0
H14 H 0.91458 0.242 0.16387 0.0
H15 H 0.87411 0.28448 0.17438 0.0
C16 C 0.20431 0.2589 0.1944 0.0
N17 N 0.14345 0.23989 0.20157 0.0
N18 N 0.11854 0.27153 0.19199 0.0
C19 C 0.16165 0.30913 0.17724 0.0
C20 C 0.21747 0.30201 0.17812 0.0
C21 C 0.25241 0.246 0.20574 0.0
H22 H 0.23837 0.23639 0.22217 0.0
H23 H 0.25205 0.20186 0.1996 0.0
H24 H 0.30318 0.28877 0.20439 0.0
O25 O 0.02796 0.15185 0.23421 0.0
O26 O 0.01843 0.24208 0.23185 0.0
H27 H 0.17095 0.39871 0.16565 0.0
H28 H 0.16748 0.3428 0.1462 0.0
C29 C 0.14714 0.34594 0.16125 0.0
H30 H 0.09322 0.32561 0.15973 0.0
H31 H 0.1179 0.40336 0.20194 0.0
O32 O 0.12172 0.09858 0.20772 0.0
C33 C 0.00734 0.18947 0.24129 0.0
Co34 Co 0.83039 0.93781 0.21555 0.0
Co35 Co 0.74819 0.78962 0.20115 0.0
C36 C 0.88523 0.85771 0.19454 0.0
O37 O 0.88328 0.9042 0.20374 0.0
O38 O 0.83293 0.80487 0.18949 0.0
C39 C 0.90267 0.05207 0.19223 0.0
O40 O 0.88153 0.00694 0.17782 0.0
C41 C 0.67358 0.65515 0.18413 0.0
C42 C 0.57145 0.63701 0.18544 0.0
C43 C 0.60904 0.61098 0.17806 0.0
N44 N 0.67405 0.70579 0.19392 0.0
N45 N 0.61266 0.69395 0.19502 0.0
C46 C 0.73351 0.64828 0.18214 0.0
H47 H 0.76401 0.66722 0.19621 0.0
H48 H 0.76409 0.67897 0.16917 0.0
H49 H 0.71982 0.59603 0.17975 0.0
C50 C 0.73146 0.94858 0.19317 0.0
N51 N 0.75276 0.9101 0.20141 0.0
N52 N 0.72811 0.85433 0.1914 0.0
C53 C 0.69269 0.85695 0.17547 0.0
C54 C 0.69451 0.91736 0.17589 0.0
C55 C 0.74028 0.00976 0.20342 0.0
H56 H 0.74434 0.00585 0.22025 0.0
H57 H 0.7865 0.05332 0.19819 0.0
H58 H 0.69817 0.01743 0.19995 0.0
O59 O 0.81944 0.8981 0.24273 0.0
O60 O 0.76635 0.79315 0.23181 0.0
H61 H 0.60906 0.77415 0.16207 0.0
H62 H 0.66902 0.82879 0.14387 0.0
C63 C 0.66273 0.8054 0.15913 0.0
H64 H 0.68572 0.77391 0.15901 0.0
H65 H 0.59925 0.72632 0.2015 0.0
O66 O 0.88676 0.0344 0.21091 0.0
C67 C 0.79603 0.83634 0.24586 0.0
Co68 Co 0.07973 0.92121 0.21038 0.0
Co69 Co 0.22436 0.96977 0.20277 0.0
C70 C 0.15431 0.03603 0.18756 0.0
O71 O 0.1038 0.9794 0.18688 0.0
O72 O 0.20917 0.04302 0.19354 0.0
C73 C 0.94947 0.86259 0.19435 0.0
O74 O 0.97691 0.86147 0.17694 0.0
C75 C 0.35198 0.0221 0.18207 0.0
C76 C 0.3709 0.93912 0.18598 0.0
C77 C 0.3937 -0.00121 0.17604 0.0
N78 N 0.3054 0.97692 0.19433 0.0
N79 N 0.31769 0.92811 0.19696 0.0
C80 C 0.35747 0.0873 0.17763 0.0
H81 H 0.34344 0.10513 0.19145 0.0
H82 H 0.32232 0.08135 0.16529 0.0
H83 H 0.40842 0.1244 0.17312 0.0
C84 C 0.05896 0.7973 0.19629 0.0
N85 N 0.10068 0.85705 0.20414 0.0
N86 N 0.15691 0.88347 0.19431 0.0
C87 C 0.15172 0.84266 0.17892 0.0
C88 C 0.08917 0.78663 0.17955 0.0
C89 C -0.00254 0.74795 0.20715 0.0
H90 H 0.00207 0.75889 0.22382 0.0
H91 H 0.95438 0.75078 0.20155 0.0
H92 H 0.98832 0.69715 0.20468 0.0
O93 O 0.12918 0.97763 0.23453 0.0
O94 O 0.22754 0.98444 0.23294 0.0
H95 H 0.23317 0.83798 0.166 0.0
H96 H 0.17836 0.84127 0.14737 0.0
C97 C 0.20238 0.86047 0.16243 0.0
H98 H 0.23446 0.91473 0.16136 0.0
H99 H 0.28771 0.8856 0.20542 0.0
O100 O 0.98399 0.88354 0.21069 0.0
C101 C 0.18678 0.99737 0.24185 0.0
Co102 Co 0.17358 0.10732 0.29032 0.0
Co103 Co 0.25134 0.03944 0.30599 0.0
C104 C 0.1151 0.97487 0.313 0.0
O105 O 0.11944 0.02311 0.30305 0.0
O106 O 0.16615 0.97233 0.31831 0.0
C107 C 0.09791 0.15223 0.31127 0.0
O108 O 0.12079 0.13703 0.32746 0.0
C109 C 0.32489 0.97921 0.32328 0.0
C110 C 0.42708 0.06335 0.3224 0.0
C111 C 0.38919 -0.00046 0.32958 0.0
N112 N 0.32484 0.02961 0.31355 0.0
N113 N 0.38624 0.07925 0.31269 0.0
C114 C 0.26489 0.91233 0.32493 0.0
H115 H 0.23481 0.90147 0.31079 0.0
H116 H 0.23389 0.91183 0.33786 0.0
H117 H 0.27849 0.87366 0.32716 0.0
C118 C 0.27192 0.21735 0.31269 0.0
N119 N 0.25053 0.15744 0.30455 0.0
N120 N 0.27339 0.12557 0.31503 0.0
C121 C 0.30782 0.16335 0.33112 0.0
C122 C 0.30717 0.22248 0.33033 0.0
C123 C 0.26413 0.27001 0.30225 0.0
H124 H 0.26164 0.26249 0.2854 0.0
H125 H 0.21743 0.26719 0.30701 0.0
H126 H 0.3059 0.31969 0.30603 0.0
O127 O 0.18378 0.07624 0.26359 0.0
O128 O 0.23316 0.02187 0.27534 0.0
H129 H 0.38892 0.16241 0.34575 0.0
H130 H 0.32734 0.1581 0.36308 0.0
C131 C 0.33503 0.1408 0.34804 0.0
H132 H 0.31117 0.08624 0.34816 0.0
H133 H 0.39988 0.12513 0.30626 0.0
O134 O 0.11684 0.14655 0.29336 0.0
C135 C 0.20511 0.03605 0.26095 0.0
Co136 Co 0.90134 0.0661 0.29148 0.0
Co137 Co 0.96123 0.21477 0.30521 0.0
C138 C 0.03499 0.15016 0.31255 0.0
O139 O 0.98755 0.1003 0.30409 0.0
O140 O 0.03274 0.20234 0.31632 0.0
C141 C 0.85298 0.94967 0.31441 0.0
O142 O 0.8756 0.9939 0.3291 0.0
C143 C 0.01656 0.34628 0.32487 0.0
C144 C 0.93184 0.36289 0.32274 0.0
C145 C 0.99397 0.38847 0.33134 0.0
N146 N 0.96904 0.29742 0.31363 0.0
N147 N 0.91902 0.30838 0.31216 0.0
C148 C 0.08321 0.35368 0.32784 0.0
H149 H 0.09678 0.33483 0.31417 0.0
H150 H 0.08197 0.32375 0.34118 0.0
H151 H 0.12095 0.40607 0.33023 0.0
C152 C 0.78716 0.05151 0.31233 0.0
N153 N 0.84784 0.09157 0.30478 0.0
N154 N 0.87637 0.14725 0.31488 0.0
C155 C 0.83572 0.14266 0.33035 0.0
C156 C 0.77798 0.08121 0.32945 0.0
C157 C 0.73652 0.99123 0.30124 0.0
H158 H 0.74754 0.99633 0.28457 0.0
H159 H 0.73763 0.947 0.30658 0.0
H160 H 0.6863 0.98365 0.30379 0.0
O161 O 0.93329 0.10755 0.26438 0.0
O162 O 0.97835 0.2133 0.27422 0.0
H163 H 0.83047 0.22376 0.34322 0.0
H164 H 0.83507 0.16973 0.36182 0.0
C165 C 0.85377 0.19365 0.34671 0.0
H166 H 0.90805 0.22629 0.34753 0.0
H167 H 0.87477 0.2769 0.30471 0.0
O168 O 0.85959 0.96872 0.29572 0.0
C169 C 0.96894 0.16947 0.26071 0.0
Co170 Co 0.91724 0.84676 0.29778 0.0
Co171 Co 0.77273 0.74684 0.30351 0.0
C172 C 0.83852 0.88264 0.31904 0.0
O173 O 0.88825 0.87585 0.32148 0.0
O174 O 0.78513 0.83446 0.31235 0.0
C175 C 0.04918 0.9178 0.31383 0.0
O176 O 0.02415 0.88711 0.33119 0.0
C177 C 0.64468 0.66983 0.32367 0.0
C178 C 0.62629 0.5683 0.31929 0.0
C179 C 0.60329 0.60455 0.32951 0.0
N180 N 0.69136 0.672 0.31129 0.0
N181 N 0.67934 0.61111 0.30835 0.0
C182 C 0.63883 0.72915 0.32845 0.0
H183 H 0.65205 0.7612 0.3147 0.0
H184 H 0.67438 0.75835 0.34071 0.0
H185 H 0.58796 0.71485 0.33321 0.0
C186 C 0.93974 0.74311 0.31074 0.0
N187 N 0.89796 0.76151 0.30315 0.0
N188 N 0.84082 0.72916 0.31238 0.0
C189 C 0.84534 0.69132 0.32717 0.0
C190 C 0.90845 0.69902 0.32672 0.0
C191 C 0.00205 0.75737 0.29995 0.0
H192 H -0.00115 0.76728 0.28348 0.0
H193 H 0.04478 0.80182 0.30643 0.0
H194 H 0.0108 0.71513 0.30146 0.0
O195 O 0.86916 0.85437 0.27327 0.0
O196 O 0.77266 0.76036 0.27338 0.0
H197 H 0.76381 0.60191 0.33841 0.0
H198 H 0.81564 0.65719 0.35812 0.0
C199 C 0.7931 0.65454 0.34294 0.0
H200 H 0.75989 0.67535 0.3443 0.0
H201 H 0.70955 0.59915 0.29978 0.0
O202 O 0.01274 0.9062 0.29804 0.0
C203 C 0.81284 0.81582 0.26522 0.0
Co204 Co 0.89873 0.83535 0.79199 0.0
Co205 Co 0.95803 0.74629 0.80542 0.0
C206 C 0.03211 0.88404 0.8132 0.0
O207 O 0.98489 0.88706 0.8048 0.0
O208 O 0.02955 0.82937 0.81674 0.0
C209 C 0.84927 0.90259 0.81467 0.0
O210 O 0.87191 0.88143 0.82947 0.0
C211 C 0.01171 0.66887 0.82471 0.0
C212 C 0.92673 0.56781 0.82197 0.0
C213 C 0.98844 0.60381 0.83088 0.0
N214 N 0.96492 0.67097 0.81334 0.0
N215 N 0.91474 0.61021 0.81149 0.0
C216 C 0.07831 0.72776 0.82814 0.0
H217 H 0.09304 0.76063 0.81455 0.0
H218 H 0.0763 0.75615 0.84146 0.0
H219 H 0.11564 0.71275 0.83081 0.0
C220 C 0.78436 0.73522 0.81258 0.0
N221 N 0.84503 0.75607 0.80502 0.0
N222 N 0.87371 0.72909 0.8151 0.0
C223 C 0.83333 0.69295 0.83057 0.0
C224 C 0.77552 0.69641 0.82968 0.0
C225 C 0.7334 0.74428 0.80147 0.0
H226 H 0.74421 0.74975 0.78478 0.0
H227 H 0.73436 0.78967 0.80668 0.0
H228 H 0.68329 0.70157 0.80412 0.0
O229 O 0.93039 0.82645 0.7649 0.0
O230 O 0.97505 0.7654 0.77466 0.0
H231 H 0.82847 0.60679 0.84344 0.0
H232 H 0.83332 0.66556 0.86204 0.0
C233 C 0.85175 0.66022 0.84689 0.0
H234 H 0.90605 0.68195 0.84762 0.0
H235 H 0.87089 0.59808 0.80389 0.0
O236 O 0.85652 0.89032 0.79603 0.0
C237 C 0.96587 0.80006 0.76123 0.0
Co238 Co 0.17187 0.06415 0.7912 0.0
Co239 Co 0.24749 0.20905 0.8073 0.0
C240 C 0.11011 0.13743 0.81251 0.0
O241 O 0.11546 0.09369 0.80281 0.0
O242 O 0.16065 0.19046 0.81851 0.0
C243 C 0.09528 0.94452 0.81202 0.0
O244 O 0.11699 0.98339 0.82808 0.0
C245 C 0.31994 0.34316 0.82481 0.0
C246 C 0.42189 0.36052 0.82482 0.0
C247 C 0.38397 0.38706 0.83145 0.0
N248 N 0.32019 0.29232 0.81542 0.0
N249 N 0.38147 0.30366 0.81511 0.0
C250 C 0.26015 0.35057 0.82567 0.0
H251 H 0.23003 0.32919 0.81164 0.0
H252 H 0.22911 0.32238 0.83891 0.0
H253 H 0.2741 0.40321 0.82692 0.0
C254 C 0.26849 0.05223 0.81471 0.0
N255 N 0.24693 0.09047 0.80645 0.0
N256 N 0.269 0.14505 0.81695 0.0
C257 C 0.30308 0.14184 0.83319 0.0
C258 C 0.30309 0.08237 0.83245 0.0
C259 C 0.26136 0.99194 0.80432 0.0
H260 H 0.25904 0.99684 0.78746 0.0
H261 H 0.21478 0.94788 0.80906 0.0
H262 H 0.30332 0.98444 0.8082 0.0
O263 O 0.18578 0.10544 0.76436 0.0
O264 O 0.23277 0.20881 0.77633 0.0
H265 H 0.38371 0.22385 0.84801 0.0
H266 H 0.32163 0.16648 0.86517 0.0
C267 C 0.32975 0.19155 0.85013 0.0
H268 H 0.30584 0.22221 0.85013 0.0
H269 H 0.39532 0.2712 0.80898 0.0
O270 O 0.11531 0.9683 0.7941 0.0
C271 C 0.20702 0.16692 0.76171 0.0
Co272 Co 0.91175 0.0669 0.79687 0.0
Co273 Co 0.76685 0.02211 0.80285 0.0
C274 C 0.83375 0.95446 0.8191 0.0
O275 O 0.88295 0.01148 0.82118 0.0
O276 O 0.78006 0.94803 0.81227 0.0
C277 C 0.0439 0.12821 0.813 0.0
O278 O 0.01872 0.13532 0.83012 0.0
C279 C 0.63946 0.97059 0.8238 0.0
C280 C 0.62091 0.05378 0.82001 0.0
C281 C 0.59843 0.99445 0.83015 0.0
N282 N 0.68546 0.01522 0.81123 0.0
N283 N 0.67324 0.0641 0.80866 0.0
C284 C 0.63345 0.90512 0.82818 0.0
H285 H 0.64658 0.88688 0.81427 0.0
H286 H 0.66897 0.9108 0.84036 0.0
H287 H 0.58251 0.86841 0.83288 0.0
C288 C 0.9345 0.19371 0.80885 0.0
N289 N 0.89242 0.13317 0.80157 0.0
N290 N 0.83559 0.10882 0.81101 0.0
C291 C 0.84083 0.15188 0.82566 0.0
C292 C 0.90387 0.20729 0.82485 0.0
C293 C 0.99667 0.24103 0.79787 0.0
H294 H 0.99307 0.22712 0.78145 0.0
H295 H 0.03939 0.23935 0.80437 0.0
H296 H 0.0057 0.29217 0.79914 0.0
O297 O 0.86288 0.00988 0.77258 0.0
O298 O 0.76575 0.00624 0.77269 0.0
H299 H 0.76 0.15999 0.83747 0.0
H300 H 0.81328 0.15736 0.8568 0.0
C301 C 0.78968 0.13688 0.84178 0.0
H302 H 0.7567 0.08291 0.84339 0.0
H303 H 0.70291 0.10635 0.80005 0.0
O304 O 0.00758 0.1025 0.79722 0.0
C305 C 0.8064 0.99151 0.76453 0.0
Co306 Co 0.82821 0.88973 0.71502 0.0
Co307 Co 0.74869 0.95703 0.69959 0.0
C308 C 0.88665 0.02641 0.69485 0.0
O309 O 0.88331 0.97739 0.70409 0.0
O310 O 0.83512 0.02706 0.6889 0.0
C311 C 0.90211 0.84934 0.69226 0.0
O312 O 0.88254 0.87495 0.6779 0.0
C313 C 0.6751 0.01771 0.68189 0.0
C314 C 0.57323 0.93315 0.68254 0.0
C315 C 0.6107 0.99726 0.67554 0.0
N316 N 0.67541 0.96716 0.69152 0.0
N317 N 0.61417 0.91723 0.69216 0.0
C318 C 0.73481 0.08482 0.68049 0.0
H319 H 0.76605 0.09441 0.6943 0.0
H320 H 0.76471 0.08691 0.66702 0.0
H321 H 0.72074 0.12339 0.67925 0.0
C322 C 0.73135 0.78103 0.69156 0.0
N323 N 0.75253 0.84079 0.69983 0.0
N324 N 0.72902 0.87245 0.68957 0.0
C325 C 0.69442 0.83468 0.67345 0.0
C326 C 0.69559 0.77574 0.67401 0.0
C327 C 0.73937 0.72834 0.7019 0.0
H328 H 0.74269 0.73606 0.71874 0.0
H329 H 0.78572 0.73084 0.69688 0.0
H330 H 0.6973 0.67869 0.69827 0.0
O331 O 0.81355 0.91591 0.74214 0.0
O332 O 0.76324 0.96979 0.7306 0.0
H333 H 0.61181 0.83438 0.65948 0.0
H334 H 0.67268 0.83955 0.64169 0.0
C335 C 0.66563 0.85664 0.65686 0.0
H336 H 0.68886 0.91115 0.65676 0.0
H337 H 0.60066 0.87125 0.69849 0.0
O338 O 0.88458 0.84945 0.71084 0.0
C339 C 0.79041 0.95459 0.74504 0.0
Co340 Co 0.07798 0.92441 0.70973 0.0
Co341 Co 0.03173 0.77729 0.70255 0.0
C342 C 0.95928 0.84181 0.68831 0.0
O343 O 0.01405 0.89496 0.68726 0.0
O344 O 0.95677 0.78852 0.69373 0.0
C345 C 0.14064 0.04961 0.69056 0.0
O346 O 0.13252 0.01287 0.67442 0.0
C347 C 0.9808 0.64906 0.68174 0.0
C348 C 0.06441 0.6314 0.68586 0.0
C349 C 0.00466 0.60756 0.67583 0.0
N350 N 0.02554 0.69611 0.69406 0.0
N351 N 0.07485 0.6846 0.69673 0.0
C352 C 0.9154 0.64281 0.67715 0.0
H353 H 0.89796 0.65869 0.69063 0.0
H354 H 0.92063 0.67574 0.66419 0.0
H355 H 0.87836 0.59122 0.6734 0.0
C356 C 0.20256 0.94451 0.69611 0.0
N357 N 0.14175 0.90268 0.70327 0.0
N358 N 0.11684 0.84631 0.69359 0.0
C359 C 0.15968 0.8518 0.6788 0.0
C360 C 0.21547 0.91461 0.67976 0.0
C361 C 0.25099 0.00495 0.70764 0.0
H362 H 0.23734 -0.00039 0.72412 0.0
H363 H 0.25041 0.04904 0.7019 0.0
H364 H 0.30172 0.01304 0.70603 0.0
O365 O 0.02442 0.87614 0.73464 0.0
O366 O 0.01664 0.77701 0.73291 0.0
H367 H 0.16852 0.77146 0.66699 0.0
H368 H 0.16475 0.82412 0.64766 0.0
C369 C 0.14477 0.80057 0.66273 0.0
H370 H 0.0908 0.76706 0.66129 0.0
H371 H 0.11719 0.71496 0.70521 0.0
O372 O 0.11982 0.02233 0.70808 0.0
C373 C 0.00429 0.81825 0.74193 0.0
Co374 Co 0.08221 0.15684 0.71094 0.0
Co375 Co 0.22728 0.25309 0.70333 0.0
C376 C 0.15588 0.11757 0.68765 0.0
O377 O 0.10656 0.12554 0.68684 0.0
O378 O 0.21102 0.16438 0.69387 0.0
C379 C 0.95142 0.08539 0.69488 0.0
O380 O 0.97837 0.11588 0.67765 0.0
C381 C 0.35556 0.32712 0.68254 0.0
C382 C 0.37452 0.42925 0.68555 0.0
C383 C 0.39749 0.39174 0.6761 0.0
N384 N 0.30872 0.32656 0.69451 0.0
N385 N 0.32115 0.38789 0.69662 0.0
C386 C 0.36157 0.26726 0.67893 0.0
H387 H 0.34676 0.23635 0.69297 0.0
H388 H 0.32722 0.23709 0.66655 0.0
H389 H 0.41289 0.28105 0.67487 0.0
C390 C 0.06163 0.2609 0.69785 0.0
N391 N 0.10334 0.24233 0.70535 0.0
N392 N 0.15949 0.2725 0.69545 0.0
C393 C 0.1541 0.30885 0.68034 0.0
C394 C 0.0917 0.30258 0.68129 0.0
C395 C -8e-05 0.2477 0.7088 0.0
H396 H 0.00421 0.23984 0.72538 0.0
H397 H 0.95699 0.20232 0.70284 0.0
H398 H 0.99081 0.28955 0.70679 0.0
O399 O 0.13216 0.14942 0.73495 0.0
O400 O 0.23079 0.24087 0.73352 0.0
H401 H 0.23493 0.39505 0.66721 0.0
H402 H 0.1794 0.33685 0.64874 0.0
C403 C 0.20409 0.34174 0.66368 0.0
H404 H 0.23615 0.31961 0.66235 0.0
H405 H 0.29122 0.40111 0.70481 0.0
O406 O 0.98623 0.09783 0.71112 0.0
C407 C 0.1897 0.18716 0.74238 0.0
Co408 Co 0.73948 0.48157 0.53876 0.0
Co409 Co 0.69368 0.58063 0.53157 0.0
C410 C 0.6244 0.44245 0.51788 0.0
O411 O 0.68118 0.45012 0.51522 0.0
O412 O 0.61882 0.4913 0.52365 0.0
C413 C 0.80094 0.40859 0.52474 0.0
O414 O 0.80938 0.43841 0.50705 0.0
C415 C 0.63705 0.65492 0.51197 0.0
C416 C 0.72073 0.75691 0.51454 0.0
C417 C 0.65872 0.71985 0.50595 0.0
N418 N 0.68521 0.65403 0.52287 0.0
N419 N 0.73445 0.71528 0.52472 0.0
C420 C 0.57042 0.59526 0.50932 0.0
H421 H 0.55795 0.56306 0.52301 0.0
H422 H 0.57112 0.5664 0.49594 0.0
H423 H 0.53208 0.60927 0.50725 0.0
C424 C 0.86602 0.58587 0.52549 0.0
N425 N 0.80481 0.56625 0.5324 0.0
N426 N 0.78042 0.59874 0.52302 0.0
C427 C 0.82449 0.63808 0.50877 0.0
C428 C 0.88031 0.63119 0.5098 0.0
C429 C 0.91287 0.57024 0.5364 0.0
H430 H 0.89736 0.55714 0.55261 0.0
H431 H 0.91282 0.52747 0.52924 0.0
H432 H 0.96382 0.61305 0.53585 0.0
O433 O 0.68486 0.47666 0.56314 0.0
O434 O 0.68017 0.56941 0.56194 0.0
H435 H 0.83385 0.72812 0.49754 0.0
H436 H 0.83231 0.67372 0.4779 0.0
C437 C 0.81071 0.67565 0.49285 0.0
H438 H 0.75686 0.65498 0.49094 0.0
H439 H 0.77855 0.7284 0.53232 0.0
O440 O 0.775 0.42189 0.53987 0.0
C441 C 0.66643 0.51518 0.57073 0.0
Co442 Co 0.51006 0.26456 0.54935 0.0
Co443 Co 0.42 0.11411 0.53737 0.0
C444 C 0.55833 0.1774 0.52982 0.0
O445 O 0.56116 0.22841 0.53749 0.0
O446 O 0.5037 0.12478 0.52661 0.0
C447 C 0.57365 0.37617 0.52411 0.0
O448 O 0.55001 0.32893 0.51036 0.0
C449 C 0.34168 0.9835 0.51778 0.0
C450 C 0.24042 0.96588 0.52187 0.0
C451 C 0.27627 0.9419 0.51188 0.0
N452 N 0.34424 0.03099 0.52999 0.0
N453 N 0.28334 0.01934 0.53267 0.0
C454 C 0.4007 0.977 0.51307 0.0
H455 H 0.43329 0.99121 0.52672 0.0
H456 H 0.42944 0.0114 0.50052 0.0
H457 H 0.38594 0.92567 0.5087 0.0
C458 C 0.40826 0.27562 0.52934 0.0
N459 N 0.43013 0.23667 0.53679 0.0
N460 N 0.40276 0.18038 0.52704 0.0
C461 C 0.36512 0.18331 0.51184 0.0
C462 C 0.36834 0.24447 0.51259 0.0
C463 C 0.41766 0.33597 0.54033 0.0
H464 H 0.42389 0.33123 0.557 0.0
H465 H 0.46285 0.38028 0.53491 0.0
H466 H 0.37477 0.34316 0.53783 0.0
O467 O 0.50099 0.22697 0.57688 0.0
O468 O 0.4387 0.12011 0.56818 0.0
H469 H 0.2777 0.10047 0.50018 0.0
H470 H 0.33371 0.15312 0.48077 0.0
C471 C 0.3306 0.13074 0.49602 0.0
H472 H 0.35267 0.09851 0.49512 0.0
H473 H 0.27143 0.05014 0.54094 0.0
O474 O 0.56464 0.36109 0.54319 0.0
C475 C 0.4735 0.1654 0.58123 0.0
Co476 Co 0.74067 0.2229 0.55146 0.0
Co477 Co 0.88368 0.28986 0.53429 0.0
C478 C 0.81106 0.35259 0.52692 0.0
O479 O 0.76851 0.30572 0.53768 0.0
O480 O 0.86416 0.3547 0.52131 0.0
C481 C 0.61936 0.17579 0.5312 0.0
O482 O 0.65747 0.19131 0.51499 0.0
C483 C 0.01392 0.34698 0.51468 0.0
C484 C 0.03105 0.26236 0.51597 0.0
C485 C 0.05629 0.32515 0.50797 0.0
N486 N 0.9652 0.2984 0.52555 0.0
N487 N 0.97626 0.24838 0.52653 0.0
C488 C 0.02069 0.41354 0.5123 0.0
H489 H 0.00054 0.42536 0.52604 0.0
H490 H 0.99136 0.41323 0.49891 0.0
H491 H 0.07308 0.45191 0.51029 0.0
C492 C 0.72601 0.11114 0.52936 0.0
N493 N 0.76595 0.17096 0.53743 0.0
N494 N 0.81884 0.20292 0.52615 0.0
C495 C 0.81274 0.16551 0.50964 0.0
C496 C 0.75308 0.10634 0.51096 0.0
C497 C 0.66733 0.05811 0.54044 0.0
H498 H 0.67548 0.0648 0.55724 0.0
H499 H 0.62276 0.06124 0.53695 0.0
H500 H 0.65842 0.00855 0.53598 0.0
O501 O 0.78486 0.25706 0.57775 0.0
O502 O 0.88737 0.31141 0.56503 0.0
H503 H 0.89239 0.16775 0.493 0.0
H504 H 0.83175 0.17183 0.4772 0.0
C505 C 0.85935 0.18887 0.49185 0.0
H506 H 0.88967 0.24347 0.49178 0.0
H507 H 0.94482 0.20356 0.5337 0.0
O508 O 0.64435 0.18262 0.5491 0.0
C509 C 0.84653 0.29788 0.57985 0.0
Co510 Co 0.83672 0.41948 0.62827 0.0
Co511 Co 0.92809 0.36641 0.63925 0.0
C512 C 0.79049 0.30433 0.65312 0.0
O513 O 0.79488 0.35998 0.65108 0.0
O514 O 0.83924 0.29638 0.64903 0.0
C515 C 0.76413 0.47822 0.64258 0.0
O516 O 0.78961 0.47697 0.66036 0.0
C517 C 0.00049 0.31148 0.66094 0.0
C518 C 0.10263 0.39505 0.6585 0.0
C519 C 0.06501 0.33379 0.6675 0.0
N520 N 0.00037 0.35846 0.64919 0.0
N521 N 0.06167 0.40775 0.64754 0.0
C522 C 0.9404 0.2456 0.66415 0.0
H523 H 0.90797 0.23193 0.65048 0.0
H524 H 0.91207 0.24814 0.6774 0.0
H525 H 0.95402 0.20729 0.66682 0.0
C526 C 0.93903 0.54149 0.64391 0.0
N527 N 0.92102 0.48154 0.6362 0.0
N528 N 0.94803 0.45392 0.64688 0.0
C529 C 0.98145 0.49419 0.66266 0.0
C530 C 0.97658 0.55105 0.66141 0.0
C531 C 0.92926 0.59163 0.63259 0.0
H532 H 0.92547 0.58131 0.61589 0.0
H533 H 0.88279 0.58914 0.63739 0.0
H534 H 0.97082 0.64216 0.63556 0.0
O535 O 0.83191 0.36294 0.60457 0.0
O536 O 0.91754 0.34728 0.6089 0.0
H537 H 0.06378 0.49675 0.67769 0.0
H538 H 0.00249 0.49426 0.69482 0.0
C539 C 0.00994 0.47504 0.68011 0.0
H540 H 0.98658 0.42065 0.68117 0.0
H541 H 0.0752 0.45126 0.63952 0.0
O542 O 0.78051 0.45917 0.62639 0.0
C543 C 0.86754 0.33892 0.59857 0.0
Co544 Co 0.56772 0.39648 0.62182 0.0
Co545 Co 0.63144 0.54582 0.63479 0.0
C546 C 0.70368 0.48099 0.64183 0.0
O547 O 0.65547 0.43237 0.63322 0.0
O548 O 0.70271 0.53345 0.64623 0.0
C549 C 0.52607 0.28629 0.64707 0.0
O550 O 0.55144 0.33433 0.66054 0.0
C551 C 0.68756 0.67781 0.65308 0.0
C552 C 0.6035 0.69551 0.65064 0.0
C553 C 0.66535 0.72025 0.65932 0.0
N554 N 0.63993 0.62907 0.64194 0.0
N555 N 0.59037 0.64068 0.64019 0.0
C556 C 0.75378 0.68441 0.65649 0.0
H557 H 0.76936 0.669 0.64246 0.0
H558 H 0.75036 0.65084 0.66902 0.0
H559 H 0.79132 0.73599 0.6603 0.0
C560 C 0.45765 0.38575 0.64384 0.0
N561 N 0.51712 0.4245 0.63541 0.0
N562 N 0.54791 0.4807 0.64518 0.0
C563 C 0.51022 0.47808 0.66122 0.0
C564 C 0.45205 0.41714 0.6611 0.0
C565 C 0.40506 0.32459 0.63363 0.0
H566 H 0.41247 0.3288 0.61677 0.0
H567 H 0.40799 0.281 0.63862 0.0
H568 H 0.3553 0.31666 0.63731 0.0
O569 O 0.5944 0.43425 0.59425 0.0
O570 O 0.64384 0.54042 0.60401 0.0
H571 H 0.50913 0.56119 0.67423 0.0
H572 H 0.51525 0.50765 0.6927 0.0
C573 C 0.53185 0.53032 0.67734 0.0
H574 H 0.58632 0.56208 0.67731 0.0
H575 H 0.54597 0.6091 0.63282 0.0
O576 O 0.52764 0.30024 0.628 0.0
C577 C 0.6305 0.49598 0.59039 0.0
Co578 Co 0.59598 0.1826 0.63358 0.0
Co579 Co 0.44889 0.08204 0.64062 0.0
C580 C 0.51497 0.22137 0.65311 0.0
O581 O 0.56634 0.21738 0.65573 0.0
O582 O 0.46133 0.17058 0.64786 0.0
C583 C 0.72377 0.24853 0.65158 0.0
O584 O 0.69091 0.21952 0.6683 0.0
C585 C 0.31778 0.00712 0.6604 0.0
C586 C 0.29916 0.9052 0.65736 0.0
C587 C 0.27456 0.94204 0.66634 0.0
N588 N 0.36646 0.00828 0.64916 0.0
N589 N 0.35424 0.94704 0.64707 0.0
C590 C 0.3112 0.06678 0.66359 0.0
H591 H 0.33015 0.09937 0.64997 0.0
H592 H 0.34158 0.09514 0.67692 0.0
H593 H 0.259 0.05279 0.66607 0.0
C594 C 0.61595 0.07781 0.64749 0.0
N595 N 0.57472 0.09804 0.64076 0.0
N596 N 0.51761 0.06536 0.65 0.0
C597 C 0.52196 0.02539 0.66409 0.0
C598 C 0.58473 0.03227 0.66309 0.0
C599 C 0.67788 0.09269 0.63633 0.0
H600 H 0.67507 0.10574 0.62015 0.0
H601 H 0.72118 0.13528 0.64334 0.0
H602 H 0.68546 0.04954 0.63679 0.0
O603 O 0.54798 0.1856 0.60842 0.0
O604 O 0.44934 0.09362 0.61013 0.0
H605 H 0.441 0.93404 0.67441 0.0
H606 H 0.49221 0.98693 0.6946 0.0
C607 C 0.46961 0.98609 0.67957 0.0
H608 H 0.43589 0.00611 0.6815 0.0
H609 H 0.38506 0.93409 0.63928 0.0
O610 O 0.69312 0.23978 0.6346 0.0
C611 C 0.49064 0.14689 0.60097 0.0
Co612 Co 0.56208 0.15986 0.12113 0.0
Co613 Co 0.62954 0.08104 0.13596 0.0
C614 C 0.69532 0.21711 0.14338 0.0
O615 O 0.64706 0.21381 0.13369 0.0
O616 O 0.6973 0.16553 0.14831 0.0
C617 C 0.51656 0.23223 0.14363 0.0
O618 O 0.53277 0.20781 0.15921 0.0
C619 C 0.68627 0.00675 0.15478 0.0
C620 C 0.60235 0.90474 0.15253 0.0
C621 C 0.66411 0.94228 0.16121 0.0
N622 N 0.63862 0.00729 0.14353 0.0
N623 N 0.58917 0.94602 0.14188 0.0
C624 C 0.7524 0.06666 0.15802 0.0
H625 H 0.76735 0.09761 0.14398 0.0
H626 H 0.74916 0.09677 0.1706 0.0
H627 H 0.79027 0.05295 0.16166 0.0
C628 C 0.45218 0.06089 0.14313 0.0
N629 N 0.51188 0.08203 0.13486 0.0
N630 N 0.54403 0.05952 0.14533 0.0
C631 C 0.50682 0.02577 0.16159 0.0
C632 C 0.44769 0.02651 0.16091 0.0
C633 C 0.39888 0.06744 0.13259 0.0
H634 H 0.40563 0.0682 0.11573 0.0
H635 H 0.40173 0.11453 0.13683 0.0
H636 H 0.34942 0.026 0.13675 0.0
O637 O 0.59195 0.14999 0.09416 0.0
O638 O 0.64555 0.09892 0.10521 0.0
H639 H 0.50881 0.94529 0.17625 0.0
H640 H 0.51289 0.00685 0.19356 0.0
C641 C 0.53 -0.00087 0.17849 0.0
H642 H 0.58461 0.02336 0.17851 0.0
H643 H 0.54482 0.93287 0.13443 0.0
O644 O 0.52237 0.21594 0.12533 0.0
C645 C 0.63105 0.12753 0.09107 0.0
Co646 Co 0.82506 0.41585 0.13026 0.0
Co647 Co 0.92321 0.56008 0.13775 0.0
C648 C 0.78704 0.49121 0.15311 0.0
O649 O 0.79312 0.44072 0.15427 0.0
O650 O 0.8353 0.54546 0.14697 0.0
C651 C 0.75269 0.28266 0.14477 0.0
O652 O 0.78149 0.30642 0.16245 0.0
C653 C -0.00244 0.68792 0.15885 0.0
C654 C 0.0994 0.70599 0.15602 0.0
C655 C 0.06226 0.72968 0.16534 0.0
N656 N 0.9968 0.64089 0.14691 0.0
N657 N 0.05795 0.65266 0.14497 0.0
C658 C 0.93781 0.69406 0.16238 0.0
H659 H 0.90564 0.67691 0.14863 0.0
H660 H 0.90902 0.66204 0.17538 0.0
H661 H 0.95181 0.74584 0.16556 0.0
C662 C 0.92784 0.39271 0.14372 0.0
N663 N 0.91025 0.43515 0.13612 0.0
N664 N 0.94125 0.49132 0.14596 0.0
C665 C 0.97706 0.48521 0.16114 0.0
C666 C 0.96971 0.42228 0.16032 0.0
C667 C 0.91486 0.33135 0.1326 0.0
H668 H 0.90683 0.3359 0.11605 0.0
H669 H 0.86973 0.28809 0.13853 0.0
H670 H 0.95693 0.32249 0.13448 0.0
O671 O 0.81815 0.46612 0.10622 0.0
O672 O 0.9102 0.56412 0.10739 0.0
H673 H 0.06414 0.56538 0.1741 0.0
H674 H 0.00574 0.51068 0.19269 0.0
C675 C 0.0108 0.53527 0.17772 0.0
H676 H 0.98943 0.568 0.17903 0.0
H677 H 0.07099 0.62249 0.13684 0.0
O678 O 0.76595 0.32033 0.12921 0.0
C679 C 0.85578 0.52349 0.0987 0.0
Co680 Co 0.60313 0.4308 0.12673 0.0
Co681 Co 0.45357 0.36936 0.14 0.0
C682 C 0.51844 0.29479 0.14606 0.0
O683 O 0.5688 0.34339 0.13823 0.0
O684 O 0.46598 0.29647 0.15002 0.0
C685 C 0.72022 0.47825 0.14924 0.0
O686 O 0.67683 0.45505 0.16417 0.0
C687 C 0.32021 0.31225 0.1587 0.0
C688 C 0.30294 0.39653 0.1564 0.0
C689 C 0.27705 0.33413 0.16479 0.0
N690 N 0.36996 0.3605 0.14793 0.0
N691 N 0.35854 0.41019 0.14631 0.0
C692 C 0.31286 0.24556 0.1615 0.0
H693 H 0.33242 0.23267 0.14785 0.0
H694 H 0.34242 0.24642 0.1749 0.0
H695 H 0.2604 0.20749 0.16367 0.0
C696 C 0.6157 0.54306 0.14809 0.0
N697 N 0.57677 0.48214 0.14065 0.0
N698 N 0.52026 0.45332 0.15032 0.0
C699 C 0.52309 0.49423 0.16543 0.0
C700 C 0.58421 0.55225 0.16468 0.0
C701 C 0.6766 0.59375 0.13726 0.0
H702 H 0.67311 0.58199 0.12066 0.0
H703 H 0.72066 0.59356 0.14327 0.0
H704 H 0.68327 0.64379 0.13932 0.0
O705 O 0.56359 0.40296 0.09947 0.0
O706 O 0.45744 0.35646 0.10908 0.0
H707 H 0.44054 0.49959 0.17699 0.0
H708 H 0.49293 0.49621 0.19643 0.0
C709 C 0.47047 0.47667 0.18121 0.0
H710 H 0.43797 0.42241 0.18219 0.0
H711 H 0.39035 0.45475 0.13907 0.0
O712 O 0.70022 0.47255 0.1307 0.0
C713 C 0.50186 0.3676 0.09562 0.0
Co714 Co 0.51543 0.26 0.04302 0.0
Co715 Co 0.41327 0.30537 0.03702 0.0
C716 C 0.54979 0.3786 0.02259 0.0
O717 O 0.54634 0.32331 0.02043 0.0
O718 O 0.49965 0.38144 0.02856 0.0
C719 C 0.57619 0.19748 0.02236 0.0
O720 O 0.54454 0.2042 0.0068 0.0
C721 C 0.33515 0.3547 0.01603 0.0
C722 C 0.23387 0.27193 0.02104 0.0
C723 C 0.26962 0.33014 0.01024 0.0
N724 N 0.33786 0.31156 0.02898 0.0
N725 N 0.27703 0.26288 0.03222 0.0
C726 C 0.39418 0.41941 0.01061 0.0
H727 H 0.42704 0.43966 0.02414 0.0
H728 H 0.4226 0.41191 0.99835 0.0
H729 H 0.3795 0.45544 0.00557 0.0
C730 C 0.41016 0.13497 0.03038 0.0
N731 N 0.42966 0.19605 0.0373 0.0
N732 N 0.39729 0.22046 0.02789 0.0
C733 C 0.35859 0.17685 0.01348 0.0
C734 C 0.36585 0.12121 0.01443 0.0
C735 C 0.42355 0.08738 0.04183 0.0
H736 H 0.43301 0.10172 0.05824 0.0
H737 H 0.46807 0.08823 0.03578 0.0
H738 H 0.38105 0.03643 0.04057 0.0
O739 O 0.52098 0.31264 0.06827 0.0
O740 O 0.42822 0.31831 0.0673 0.0
H741 H 0.26807 0.16719 1.00262 0.0
H742 H 0.32249 0.17005 0.9827 0.0
C743 C 0.32047 0.19077 0.9978 0.0
H744 H 0.34069 0.24462 0.99615 0.0
H745 H 0.26532 0.22153 0.04118 0.0
O746 O 0.57224 0.21897 0.04008 0.0
C747 C 0.48241 0.33118 0.07601 0.0
Co748 Co 0.74448 0.25434 0.04075 0.0
Co749 Co 0.69404 0.10942 0.03205 0.0
C750 C 0.62897 0.18285 0.0184 0.0
O751 O 0.68612 0.23247 0.01746 0.0
O752 O 0.62127 0.12708 0.02369 0.0
C753 C 0.80319 0.38645 0.02637 0.0
O754 O 0.80648 0.36195 0.00862 0.0
C755 C 0.63547 0.97802 0.01273 0.0
C756 C 0.71941 0.95978 0.01434 0.0
C757 C 0.65649 0.9345 0.00647 0.0
N758 N 0.68483 0.02762 0.02309 0.0
N759 N 0.73424 0.01566 0.02439 0.0
C760 C 0.56851 0.97084 0.01089 0.0
H761 H 0.55745 0.99069 0.02485 0.0
H762 H 0.56789 0.00044 0.99771 0.0
H763 H 0.53 0.91842 0.00895 0.0
C764 C 0.86813 0.27399 0.02611 0.0
N765 N 0.80758 0.23288 0.03356 0.0
N766 N 0.78102 0.17669 0.02368 0.0
C767 C 0.82285 0.18142 0.00866 0.0
C768 C 0.87949 0.24339 0.00963 0.0
C769 C 0.91677 0.33607 0.03684 0.0
H770 H 0.90416 0.33291 0.05336 0.0
H771 H 0.91514 0.37891 0.03043 0.0
H772 H 0.9676 0.3445 0.03511 0.0
O773 O 0.68887 0.20375 0.06477 0.0
O774 O 0.68027 0.1048 0.06237 0.0
H775 H 0.8284 0.10059 0.99561 0.0
H776 H 0.82579 0.15593 0.97712 0.0
C777 C 0.8058 0.13128 0.99206 0.0
H778 H 0.75158 0.09917 0.99072 0.0
H779 H 0.77912 0.04697 0.03155 0.0
O780 O 0.78188 0.34974 0.04223 0.0
C781 C 0.66868 0.14577 0.07177 0.0
Co782 Co 0.73 0.50575 0.04988 0.0
Co783 Co 0.876 0.58713 0.03413 0.0
C784 C 0.80824 0.45067 0.02755 0.0
O785 O 0.76261 0.45237 0.03742 0.0
O786 O 0.86026 0.50303 0.0221 0.0
C787 C 0.61526 0.43403 0.02707 0.0
O788 O 0.66042 0.45486 0.01267 0.0
C789 C 0.00793 0.66119 0.01528 0.0
C790 C 0.02447 0.76271 0.0162 0.0
C791 C 0.05062 0.72542 0.00863 0.0
N792 N 0.95818 0.66074 0.02568 0.0
N793 N 0.96894 0.72174 0.02644 0.0
C794 C 0.01549 0.60174 0.01329 0.0
H795 H 0.99492 0.57003 0.02706 0.0
H796 H 0.98702 0.57233 0.99984 0.0
H797 H 0.06813 0.61621 0.0116 0.0
C798 C 0.71581 0.60286 0.02744 0.0
N799 N 0.75576 0.58321 0.03567 0.0
N800 N 0.81009 0.6065 0.02496 0.0
C801 C 0.80492 0.63905 0.00861 0.0
C802 C 0.74436 0.63697 0.00945 0.0
C803 C 0.65595 0.59553 0.03821 0.0
H804 H 0.66236 0.59463 0.05504 0.0
H805 H 0.61181 0.54833 0.03398 0.0
H806 H 0.64739 0.63671 0.0342 0.0
O807 O 0.77236 0.51747 0.07677 0.0
O808 O 0.87641 0.57007 0.06506 0.0
H809 H 0.88545 0.71999 0.99339 0.0
H810 H 0.82818 0.65662 0.97651 0.0
C811 C 0.85389 0.66587 0.99147 0.0
H812 H 0.88547 0.64297 0.99145 0.0
H813 H 0.93686 0.73498 0.03323 0.0
O814 O 0.633 0.44936 0.04578 0.0
C815 C 0.83438 0.54095 0.07949 0.0
Co816 Co 0.431 0.83387 0.88574 0.0
Co817 Co 0.36629 0.91703 0.87199 0.0
C818 C 0.29623 0.7805 0.86449 0.0
O819 O 0.34402 0.78098 0.87371 0.0
O820 O 0.29663 0.83352 0.85992 0.0
C821 C 0.47265 0.76416 0.86136 0.0
O822 O 0.44815 0.78683 0.84759 0.0
C823 C 0.31062 0.99252 0.85343 0.0
C824 C 0.39442 0.09441 0.85613 0.0
C825 C 0.33291 0.05719 0.84725 0.0
N826 N 0.3579 0.99151 0.86476 0.0
N827 N 0.40732 0.0527 0.86665 0.0
C828 C 0.24476 0.93273 0.84973 0.0
H829 H 0.22868 0.90142 0.86368 0.0
H830 H 0.24899 0.90301 0.83721 0.0
H831 H 0.2072 0.94655 0.84574 0.0
C832 C 0.54089 0.9324 0.8633 0.0
N833 N 0.48186 0.91232 0.87199 0.0
N834 N 0.45034 0.93641 0.86196 0.0
C835 C 0.48696 0.96988 0.84556 0.0
C836 C 0.54527 0.96745 0.84566 0.0
C837 C 0.59419 0.92492 0.87346 0.0
H838 H 0.58819 0.92397 0.89036 0.0
H839 H 0.59064 0.87767 0.86902 0.0
H840 H 0.64368 0.96609 0.86918 0.0
O841 O 0.4032 0.84471 0.91314 0.0
O842 O 0.35236 0.89929 0.90274 0.0
H843 H 0.48586 0.05182 0.83164 0.0
H844 H 0.47991 0.99062 0.81381 0.0
C845 C 0.46382 0.99801 0.8291 0.0
H846 H 0.40928 0.97456 0.82934 0.0
H847 H 0.45148 0.06553 0.87417 0.0
O848 O 0.47124 0.77785 0.8803 0.0
C849 C 0.36613 0.86941 0.91665 0.0
Co850 Co 0.16228 0.58227 0.8755 0.0
Co851 Co 0.06707 0.43808 0.86587 0.0
C852 C 0.20375 0.51197 0.85089 0.0
O853 O 0.19751 0.56242 0.85136 0.0
O854 O 0.15585 0.45614 0.85614 0.0
C855 C 0.23707 0.7164 0.86264 0.0
O856 O 0.21028 0.69408 0.84462 0.0
C857 C 0.99481 0.3094 0.84474 0.0
C858 C 0.89258 0.2907 0.84669 0.0
C859 C 0.9304 0.2665 0.83815 0.0
N860 N 0.99464 0.35732 0.856 0.0
N861 N 0.93325 0.34517 0.85739 0.0
C862 C 0.05491 0.30323 0.84217 0.0
H863 H 0.08707 0.3234 0.85585 0.0
H864 H 0.08353 0.33264 0.82873 0.0
H865 H 0.04124 0.25102 0.84017 0.0
C866 C 0.05934 0.60433 0.86154 0.0
N867 N 0.07726 0.5619 0.8689 0.0
N868 N 0.04756 0.50654 0.85857 0.0
C869 C 0.0123 0.51336 0.84334 0.0
C870 C 0.01866 0.57574 0.84464 0.0
C871 C 0.07237 0.66553 0.87275 0.0
H872 H 0.07979 0.66048 0.88932 0.0
H873 H 0.11787 0.70868 0.86698 0.0
H874 H 0.03064 0.67485 0.87075 0.0
O875 O 0.16854 0.52988 0.89888 0.0
O876 O 0.07899 0.43048 0.8962 0.0
H877 H 0.92712 0.43386 0.8293 0.0
H878 H 0.98655 0.49125 0.81148 0.0
C879 C 0.98069 0.46507 0.82619 0.0
H880 H 0.00302 0.43324 0.82466 0.0
H881 H 0.9194 0.37541 0.86511 0.0
O882 O 0.22097 0.67763 0.878 0.0
C883 C 0.13174 0.47131 0.90562 0.0
Co884 Co 0.39376 0.58364 0.87434 0.0
Co885 Co 0.54233 0.63069 0.86826 0.0
C886 C 0.47968 0.70747 0.85608 0.0
O887 O 0.42619 0.65362 0.8538 0.0
O888 O 0.53222 0.70785 0.86121 0.0
C889 C 0.27077 0.52482 0.85393 0.0
O890 O 0.30853 0.53435 0.83794 0.0
C891 C 0.67462 0.68717 0.84949 0.0
C892 C 0.69372 0.60426 0.85281 0.0
C893 C 0.71804 0.66548 0.84372 0.0
N894 N 0.62582 0.6397 0.8607 0.0
N895 N 0.63837 0.59095 0.86299 0.0
C896 C 0.68115 0.75332 0.84606 0.0
H897 H 0.66444 0.76834 0.85991 0.0
H898 H 0.64866 0.75019 0.83321 0.0
H899 H 0.73302 0.79119 0.84275 0.0
C900 C 0.37609 0.46106 0.8593 0.0
N901 N 0.41652 0.52226 0.86632 0.0
N902 N 0.47457 0.5471 0.85769 0.0
C903 C 0.47175 0.50338 0.84362 0.0
C904 C 0.40886 0.44751 0.84404 0.0
C905 C 0.31348 0.41342 0.87004 0.0
H906 H 0.31529 0.42851 0.88627 0.0
H907 H 0.2706 0.41308 0.86285 0.0
H908 H 0.30596 0.36273 0.86946 0.0
O909 O 0.43681 0.62825 0.90068 0.0
O910 O 0.53703 0.63839 0.89868 0.0
H911 H 0.55371 0.49276 0.83464 0.0
H912 H 0.50561 0.49558 0.81365 0.0
C913 C 0.52613 0.51667 0.82893 0.0
H914 H 0.56039 0.57044 0.82734 0.0
H915 H 0.60736 0.54708 0.87071 0.0
O916 O 0.29659 0.54259 0.87174 0.0
C917 C 0.4939 0.64664 0.90827 0.0
Co918 Co 0.47303 0.74122 0.96258 0.0
Co919 Co 0.57393 0.69303 0.96882 0.0
C920 C 0.43487 0.61541 0.98096 0.0
O921 O 0.43319 0.6685 0.98221 0.0
O922 O 0.48768 0.61575 0.97624 0.0
C923 C 0.41339 0.7996 0.98521 0.0
O924 O 0.44223 0.78602 1.00014 0.0
C925 C 0.6514 0.64053 0.98862 0.0
C926 C 0.75291 0.72348 0.98419 0.0
C927 C 0.71683 0.6641 0.99438 0.0
N928 N 0.64906 0.68531 0.97632 0.0
N929 N 0.71006 0.73409 0.9734 0.0
C930 C 0.59221 0.57523 0.99341 0.0
H931 H 0.55976 0.55657 0.97975 0.0
H932 H 0.56341 0.58132 0.00586 0.0
H933 H 0.60673 0.5386 0.99793 0.0
C934 C 0.57816 0.86253 0.9777 0.0
N935 N 0.55736 0.80144 0.97063 0.0
N936 N 0.58934 0.77589 0.97958 0.0
C937 C 0.62923 0.81889 0.99395 0.0
C938 C 0.62278 0.87507 0.99341 0.0
C939 C 0.56532 0.91108 0.96659 0.0
H940 H 0.55511 0.8972 0.95017 0.0
H941 H 0.52142 0.91087 0.97291 0.0
H942 H 0.60837 0.9617 0.96787 0.0
O943 O 0.47176 0.69849 0.93589 0.0
O944 O 0.56016 0.68546 0.93839 0.0
H945 H 0.72087 0.82854 0.00357 0.0
H946 H 0.66844 0.82505 0.02421 0.0
C947 C 0.66895 0.80466 0.00891 0.0
H948 H 0.64903 0.75078 0.0103 0.0
H949 H 0.7221 0.77651 0.96496 0.0
O950 O 0.41855 0.78392 0.96676 0.0
C951 C 0.50999 0.67912 0.92851 0.0
Co952 Co 0.25064 0.74319 0.9669 0.0
Co953 Co 0.29816 0.8879 0.97518 0.0
C954 C 0.36214 0.81546 0.99018 0.0
O955 O 0.30463 0.76652 0.99134 0.0
O956 O 0.37019 0.87094 0.98448 0.0
C957 C 0.18972 0.60802 0.97984 0.0
O958 O 0.18146 0.62854 0.99772 0.0
C959 C 0.35469 0.01819 0.99527 0.0
C960 C 0.27132 0.03697 0.99267 0.0
C961 C 0.33321 0.06158 1.00133 0.0
N962 N 0.30656 0.96944 0.98426 0.0
N963 N 0.2575 0.98171 0.98242 0.0
C964 C 0.42111 0.02473 0.99798 0.0
H965 H 0.43335 0.00446 0.98437 0.0
H966 H 0.42021 0.99542 0.01145 0.0
H967 H 0.45967 0.07703 0.99996 0.0
C968 C 0.12431 0.72159 0.97961 0.0
N969 N 0.18546 0.76336 0.97269 0.0
N970 N 0.21026 0.81954 0.98255 0.0
C971 C 0.1666 0.8141 0.99704 0.0
C972 C 0.11058 0.75177 0.99571 0.0
C973 C 0.07732 0.65935 0.96863 0.0
H974 H 0.09199 0.66252 0.9523 0.0
H975 H 0.07837 0.61668 0.97544 0.0
H976 H 0.0262 0.65058 0.96961 0.0
O977 O 0.30893 0.7945 0.94335 0.0
O978 O 0.3157 0.89277 0.94498 0.0
H979 H 0.15912 0.89443 0.00961 0.0
H980 H 0.15973 0.8388 0.0284 0.0
C981 C 0.18143 0.86381 0.01363 0.0
H982 H 0.23542 0.896 0.01559 0.0
H983 H 0.21351 0.95105 0.97472 0.0
O984 O 0.21507 0.64799 0.96487 0.0
C985 C 0.32912 0.85221 0.93611 0.0
Co986 Co 0.25678 0.48576 0.95418 0.0
Co987 Co 0.11138 0.40672 0.97008 0.0
C988 C 0.18168 0.54272 0.97749 0.0
O989 O 0.22625 0.54012 0.96728 0.0
O990 O 0.12887 0.4908 0.98272 0.0
C991 C 0.37171 0.55651 0.97689 0.0
O992 O 0.32688 0.53428 0.99141 0.0
C993 C 0.98045 0.33334 0.98938 0.0
C994 C 0.96306 0.23152 0.98807 0.0
C995 C 0.93793 0.26916 0.99609 0.0
N996 N 0.02921 0.33344 0.97852 0.0
N997 N 0.01796 0.27229 0.97753 0.0
C998 C 0.97379 0.39319 0.99185 0.0
H999 H 0.99323 0.42485 0.97802 0.0
H1000 H 0.00383 0.42249 0.0051 0.0
H1001 H 0.9215 0.37926 0.99413 0.0
C1002 C 0.26987 0.38801 0.97653 0.0
N1003 N 0.23019 0.40771 0.96812 0.0
N1004 N 0.17631 0.3858 0.97898 0.0
C1005 C 0.18153 0.35424 0.99557 0.0
C1006 C 0.24167 0.35552 0.99476 0.0
C1007 C 0.32929 0.39405 0.96581 0.0
H1008 H 0.32221 0.39304 0.94897 0.0
H1009 H 0.37363 0.44168 0.96956 0.0
H1010 H 0.33796 0.35332 0.97034 0.0
O1011 O 0.21442 0.47538 0.92739 0.0
O1012 O 0.11055 0.42423 0.93919 0.0
H1013 H 0.10081 0.27562 0.01149 0.0
H1014 H 0.15966 0.33986 0.02783 0.0
C1015 C 0.13335 0.32977 0.01295 0.0
H1016 H 0.10264 0.35362 0.01278 0.0
H1017 H 0.04944 0.25884 0.97042 0.0
O1018 O 0.35361 0.54138 0.9582 0.0
C1019 C 0.15253 0.45266 0.92471 0.0
Co1020 Co 0.2527 0.5056 0.46539 0.0
Co1021 Co 0.30145 0.40934 0.47331 0.0
C1022 C 0.36497 0.54573 0.48854 0.0
O1023 O 0.30733 0.53677 0.48964 0.0
O1024 O 0.37358 0.49877 0.48263 0.0
C1025 C 0.1927 0.57888 0.47974 0.0
O1026 O 0.18688 0.54971 0.49741 0.0
C1027 C 0.35796 0.33511 0.49282 0.0
C1028 C 0.27472 0.23285 0.49008 0.0
C1029 C 0.33649 0.27024 0.49876 0.0
N1030 N 0.30986 0.33585 0.48189 0.0
N1031 N 0.2609 0.27446 0.47991 0.0
C1032 C 0.42441 0.39496 0.49566 0.0
H1033 H 0.43797 0.42622 0.48172 0.0
H1034 H 0.42244 0.42481 0.50855 0.0
H1035 H 0.46263 0.38119 0.49859 0.0
C1036 C 0.12761 0.40085 0.47837 0.0
N1037 N 0.18835 0.42014 0.47113 0.0
N1038 N 0.21393 0.38944 0.48095 0.0
C1039 C 0.1713 0.3518 0.4957 0.0
C1040 C 0.11513 0.35787 0.49463 0.0
C1041 C 0.07978 0.41522 0.46753 0.0
H1042 H 0.09314 0.42525 0.45107 0.0
H1043 H 0.08157 0.45965 0.47405 0.0
H1044 H 0.02873 0.37302 0.469 0.0
O1045 O 0.31073 0.51302 0.44168 0.0
O1046 O 0.31744 0.42144 0.4432 0.0
H1047 H 0.16497 0.26464 0.50837 0.0
H1048 H 0.16667 0.32157 0.52713 0.0
C1049 C 0.18738 0.31771 0.51223 0.0
H1050 H 0.24151 0.33968 0.51382 0.0
H1051 H 0.21683 0.26123 0.47227 0.0
O1052 O 0.21625 0.56469 0.46416 0.0
C1053 C 0.33061 0.47531 0.43437 0.0
Co1054 Co 0.47701 0.73608 0.46374 0.0
Co1055 Co 0.57959 0.88339 0.46977 0.0
C1056 C 0.44247 0.82141 0.48366 0.0
O1057 O 0.44457 0.76882 0.48584 0.0
O1058 O 0.49341 0.87405 0.47791 0.0
C1059 C 0.41652 0.61361 0.48453 0.0
O1060 O 0.44725 0.65262 0.50006 0.0
C1061 C 0.65864 0.01117 0.4903 0.0
C1062 C 0.75968 0.02946 0.48487 0.0
C1063 C 0.72443 0.05236 0.49574 0.0
N1064 N 0.65532 0.96481 0.47748 0.0
N1065 N 0.71596 0.97674 0.47399 0.0
C1066 C 0.59985 0.01695 0.49597 0.0
H1067 H 0.56644 0.00409 0.48257 0.0
H1068 H 0.57196 0.98127 0.50835 0.0
H1069 H 0.61471 0.06772 0.50096 0.0
C1070 C 0.5819 0.71618 0.47688 0.0
N1071 N 0.56246 0.75775 0.46991 0.0
N1072 N 0.59493 0.8146 0.47926 0.0
C1073 C 0.63368 0.80986 0.49368 0.0
C1074 C 0.62623 0.74687 0.49282 0.0
C1075 C 0.56876 0.65527 0.46541 0.0
H1076 H 0.55948 0.6602 0.449 0.0
H1077 H 0.52422 0.61151 0.47141 0.0
H1078 H 0.6113 0.64691 0.46673 0.0
O1079 O 0.47237 0.78269 0.43834 0.0
O1080 O 0.5654 0.88081 0.43953 0.0
H1081 H 0.72473 0.8908 0.50418 0.0
H1082 H 0.67077 0.84013 0.52432 0.0
C1083 C 0.67246 0.86238 0.50916 0.0
H1084 H 0.65259 0.89632 0.51074 0.0
H1085 H 0.72718 0.94672 0.46503 0.0
O1086 O 0.42059 0.63835 0.4667 0.0
C1087 C 0.51139 0.83979 0.4307 0.0
Co1088 Co 0.26341 0.77075 0.45611 0.0
Co1089 Co 0.1173 0.70516 0.47194 0.0
C1090 C 0.18629 0.63732 0.47841 0.0
O1091 O 0.23145 0.68493 0.46852 0.0
O1092 O 0.13401 0.63708 0.48394 0.0
C1093 C 0.37763 0.81289 0.47911 0.0
O1094 O 0.33213 0.78873 0.49341 0.0
C1095 C 0.98434 0.64539 0.49045 0.0
C1096 C 0.96729 0.73006 0.49008 0.0
C1097 C 0.94095 0.66605 0.49717 0.0
N1098 N 0.03457 0.69565 0.48048 0.0
N1099 N 0.02347 0.74571 0.48005 0.0
C1100 C 0.97699 0.57835 0.49189 0.0
H1101 H -0.00151 0.56858 0.47808 0.0
H1102 H 0.00481 0.5764 0.50537 0.0
H1103 H 0.92433 0.53986 0.4932 0.0
C1104 C 0.27733 0.8817 0.47877 0.0
N1105 N 0.23744 0.82212 0.47049 0.0
N1106 N 0.18303 0.79093 0.48116 0.0
C1107 C 0.18813 0.82864 0.49753 0.0
C1108 C 0.24872 0.88721 0.49676 0.0
C1109 C 0.33748 0.93418 0.46812 0.0
H1110 H 0.33144 0.92697 0.45127 0.0
H1111 H 0.38143 0.93095 0.47247 0.0
H1112 H 0.34609 0.98395 0.47212 0.0
O1113 O 0.22085 0.73978 0.42919 0.0
O1114 O 0.11681 0.68766 0.4409 0.0
H1115 H 0.10754 0.82898 0.51274 0.0
H1116 H 0.16478 0.82288 0.52963 0.0
C1117 C 0.13911 0.80642 0.51466 0.0
H1118 H 0.10753 0.75194 0.51465 0.0
H1119 H 0.05564 0.79156 0.47358 0.0
O1120 O 0.36037 0.8111 0.46037 0.0
C1121 C 0.15887 0.7009 0.42644 0.0
Co1122 Co 0.16994 0.58577 0.37561 0.0
Co1123 Co 0.07168 0.63192 0.36772 0.0
C1124 C 0.20879 0.69967 0.35285 0.0
O1125 O 0.20325 0.64331 0.35183 0.0
O1126 O 0.16012 0.7053 0.35879 0.0
C1127 C 0.2439 0.52618 0.36143 0.0
O1128 O 0.21517 0.52063 0.34369 0.0
C1129 C -0.00114 0.68828 0.34702 0.0
C1130 C 0.89678 0.60446 0.34876 0.0
C1131 C 0.93457 0.66657 0.34029 0.0
N1132 N -0.00125 0.64019 0.35826 0.0
N1133 N 0.9374 0.59078 0.35956 0.0
C1134 C 0.05879 0.75474 0.34456 0.0
H1135 H 0.09022 0.76714 0.35844 0.0
H1136 H 0.08827 0.75399 0.33136 0.0
H1137 H 0.0449 0.79302 0.34227 0.0
C1138 C 0.06752 0.45988 0.36155 0.0
N1139 N 0.08513 0.51999 0.36911 0.0
N1140 N 0.05373 0.54492 0.35937 0.0
C1141 C 0.01759 0.50263 0.34427 0.0
C1142 C 0.02516 0.44714 0.34506 0.0
C1143 C 0.08154 0.41199 0.37252 0.0
H1144 H 0.0907 0.42502 0.38902 0.0
H1145 H 0.1263 0.41388 0.36625 0.0
H1146 H 0.03949 0.36094 0.37087 0.0
O1147 O 0.17553 0.6423 0.39975 0.0
O1148 O 0.08384 0.64879 0.39822 0.0
H1149 H 0.92999 0.49496 0.33148 0.0
H1150 H 0.98806 0.49863 0.31279 0.0
C1151 C 0.98326 0.51841 0.32775 0.0
H1152 H 0.00436 0.57246 0.32636 0.0
H1153 H 0.92363 0.54656 0.36717 0.0
O1154 O 0.22971 0.55 0.37694 0.0
C1155 C 0.1378 0.66209 0.40716 0.0
Co1156 Co 0.4357 0.59579 0.3849 0.0
Co1157 Co 0.36897 0.44996 0.37016 0.0
C1158 C 0.30182 0.51889 0.36292 0.0
O1159 O 0.34997 0.56433 0.37254 0.0
O1160 O 0.30058 0.46573 0.35791 0.0
C1161 C 0.4806 0.71264 0.3622 0.0
O1162 O 0.4625 0.67105 0.34682 0.0
C1163 C 0.31378 0.31944 0.35132 0.0
C1164 C 0.39775 0.30161 0.35418 0.0
C1165 C 0.33651 0.27741 0.34513 0.0
N1166 N 0.36063 0.36747 0.36281 0.0
N1167 N 0.41013 0.35588 0.3648 0.0
C1168 C 0.24794 0.31331 0.34753 0.0
H1169 H 0.23181 0.32878 0.36142 0.0
H1170 H 0.25223 0.34707 0.33495 0.0
H1171 H 0.21043 0.26187 0.3436 0.0
C1172 C 0.54559 0.60725 0.36274 0.0
N1173 N 0.48612 0.56843 0.37112 0.0
N1174 N 0.45393 0.51392 0.3606 0.0
C1175 C 0.49079 0.51765 0.34421 0.0
C1176 C 0.54977 0.57768 0.34483 0.0
C1177 C 0.59914 0.66682 0.37333 0.0
H1178 H 0.59291 0.66024 0.39019 0.0
H1179 H 0.59605 0.71114 0.36941 0.0
H1180 H 0.64852 0.6751 0.36892 0.0
O1181 O 0.40696 0.55686 0.412 0.0
O1182 O 0.35364 0.45229 0.40088 0.0
H1183 H 0.4887 0.43516 0.32953 0.0
H1184 H 0.48426 0.49247 0.31223 0.0
C1185 C 0.46743 0.46775 0.32732 0.0
H1186 H 0.41283 0.43727 0.3274 0.0
H1187 H 0.45401 0.38711 0.37247 0.0
O1188 O 0.47581 0.69139 0.38056 0.0
C1189 C 0.36814 0.49525 0.41507 0.0
Co1190 Co 0.39265 0.82178 0.3795 0.0
Co1191 Co 0.54333 0.91222 0.36754 0.0
C1192 C 0.47841 0.77307 0.35976 0.0
O1193 O 0.42669 0.76986 0.36701 0.0
O1194 O 0.53155 0.82776 0.35712 0.0
C1195 C 0.27537 0.75388 0.35679 0.0
O1196 O 0.31859 0.77524 0.3418 0.0
C1197 C 0.67675 0.98912 0.34922 0.0
C1198 C 0.69496 0.09086 0.35228 0.0
C1199 C 0.7201 0.05432 0.34342 0.0
N1200 N 0.62735 0.98741 0.36023 0.0
N1201 N 0.63937 0.04861 0.36234 0.0
C1202 C 0.68362 0.92968 0.34583 0.0
H1203 H 0.66608 0.89753 0.35959 0.0
H1204 H 0.65194 0.90065 0.33281 0.0
H1205 H 0.73571 0.94392 0.34279 0.0
C1206 C 0.38121 0.92337 0.35916 0.0
N1207 N 0.4199 0.9011 0.36657 0.0
N1208 N 0.47702 0.92983 0.35724 0.0
C1209 C 0.47491 0.96886 0.34235 0.0
C1210 C 0.41357 0.96527 0.34291 0.0
C1211 C 0.31988 0.91252 0.36986 0.0
H1212 H 0.32275 0.90336 0.38642 0.0
H1213 H 0.27604 0.86858 0.36361 0.0
H1214 H 0.31326 0.95598 0.368 0.0
O1215 O 0.4313 0.83013 0.40677 0.0
O1216 O 0.53803 0.8934 0.39821 0.0
H1217 H 0.55812 0.05764 0.33157 0.0
H1218 H 0.50684 0.00344 0.31163 0.0
C1219 C 0.52841 0.00515 0.32693 0.0
H1220 H 0.56094 0.98346 0.32586 0.0
H1221 H 0.60782 0.06125 0.36981 0.0
O1222 O 0.29558 0.76701 0.37534 0.0
C1223 C 0.49277 0.85745 0.41111 0.0
loop_
_geom_bond_atom_site_label_1
_geom_bond_atom_site_label_2
_geom_bond_distance
_geom_bond_site_symmetry_2
_ccdc_geom_bond_type
Co0 O3 1.970 . S
Co0 N17 1.989 . S
Co0 O25 1.967 . S
Co0 O32 1.920 . S
Co1 O4 1.966 1_455 S
Co1 N10 2.022 . S
Co1 N18 1.993 . S
Co1 O26 1.941 . S
C2 O3 1.258 1_655 S
C2 O4 1.263 . S
O3 Co0 1.970 . S
O3 C2 1.258 1_455 S
O4 Co1 1.966 1_655 S
O4 C2 1.263 . S
C5 O6 1.235 . S
C5 O32 1.289 . S
O6 C5 1.235 . S
C7 C9 1.400 1_655 S
C7 N10 1.351 1_655 S
C7 C12 1.501 . S
C8 C9 1.387 . S
C8 N11 1.341 . S
C9 C7 1.400 1_455 S
C9 C8 1.387 . S
N10 Co1 2.022 . S
N10 C7 1.351 1_455 S
N10 N11 1.365 . S
N11 C8 1.341 . S
N11 N10 1.365 . S
N11 H31 0.862 . S
C12 C7 1.501 . S
C12 H13 0.961 . S
C12 H14 0.961 . S
C12 H15 0.960 . S
H13 C12 0.961 . S
H14 C12 0.961 . S
H15 C12 0.960 . S
C16 N17 1.342 . S
C16 C20 1.401 . S
C16 C21 1.499 . S
N17 Co0 1.989 . S
N17 C16 1.342 . S
N17 N18 1.388 . S
N18 Co1 1.993 . S
N18 N17 1.388 . S
N18 C19 1.346 . S
C19 N18 1.346 . S
C19 C20 1.396 . S
C19 C29 1.510 . S
C20 C16 1.401 . S
C20 C19 1.396 . S
C21 C16 1.499 . S
C21 H22 0.959 . S
C21 H23 0.960 . S
C21 H24 0.961 . S
H22 C21 0.959 . S
H23 C21 0.960 . S
H24 C21 0.961 . S
O25 Co0 1.967 . S
O25 C33 1.258 . S
O26 Co1 1.941 . S
O26 C33 1.266 . S
H27 C29 0.959 . S
H28 C29 0.961 . S
C29 C19 1.510 . S
C29 H27 0.959 . S
C29 H28 0.961 . S
C29 H30 0.960 . S
H30 C29 0.960 . S
H31 N11 0.862 . S
O32 Co0 1.920 . S
O32 C5 1.289 . S
C33 O25 1.258 . S
C33 O26 1.266 . S
Co34 O37 1.970 . S
Co34 N51 1.989 . S
Co34 O59 1.967 . S
Co34 O66 1.920 1_565 S
Co35 O38 1.966 . S
Co35 N44 2.022 . S
Co35 N52 1.993 . S
Co35 O60 1.941 . S
C36 O37 1.258 . S
C36 O38 1.263 . S
O37 Co34 1.970 . S
O37 C36 1.258 . S
O38 Co35 1.966 . S
O38 C36 1.263 . S
C39 O40 1.235 . S
C39 O66 1.289 . S
O40 C39 1.235 . S
C41 C43 1.400 . S
C41 N44 1.351 . S
C41 C46 1.501 . S
C42 C43 1.387 . S
C42 N45 1.341 . S
C43 C41 1.400 . S
C43 C42 1.387 . S
N44 Co35 2.022 . S
N44 C41 1.351 . S
N44 N45 1.365 . S
N45 C42 1.341 . S
N45 N44 1.365 . S
N45 H65 0.862 . S
C46 C41 1.501 . S
C46 H47 0.961 . S
C46 H48 0.961 . S
C46 H49 0.960 . S
H47 C46 0.961 . S
H48 C46 0.961 . S
H49 C46 0.960 . S
C50 N51 1.342 . S
C50 C54 1.401 . S
C50 C55 1.499 1_565 S
N51 Co34 1.989 . S
N51 C50 1.342 . S
N51 N52 1.388 . S
N52 Co35 1.993 . S
N52 N51 1.388 . S
N52 C53 1.346 . S
C53 N52 1.346 . S
C53 C54 1.396 . S
C53 C63 1.510 . S
C54 C50 1.401 . S
C54 C53 1.396 . S
C55 C50 1.499 1_545 S
C55 H56 0.959 . S
C55 H57 0.960 . S
C55 H58 0.961 . S
H56 C55 0.959 . S
H57 C55 0.960 . S
H58 C55 0.961 . S
O59 Co34 1.967 . S
O59 C67 1.258 . S
O60 Co35 1.941 . S
O60 C67 1.266 . S
H61 C63 0.959 . S
H62 C63 0.961 . S
C63 C53 1.510 . S
C63 H61 0.959 . S
C63 H62 0.961 . S
C63 H64 0.960 . S
H64 C63 0.960 . S
H65 N45 0.862 . S
O66 Co34 1.920 1_545 S
O66 C39 1.289 . S
C67 O59 1.258 . S
C67 O60 1.266 . S
Co68 O71 1.970 . S
Co68 N85 1.989 . S
Co68 O93 1.967 . S
Co68 O100 1.920 1_455 S
Co69 O72 1.966 1_565 S
Co69 N78 2.022 . S
Co69 N86 1.993 . S
Co69 O94 1.941 . S
C70 O71 1.258 1_545 S
C70 O72 1.263 . S
O71 Co68 1.970 . S
O71 C70 1.258 1_565 S
O72 Co69 1.966 1_545 S
O72 C70 1.263 . S
C73 O74 1.235 . S
C73 O100 1.289 . S
O74 C73 1.235 . S
C75 C77 1.400 1_545 S
C75 N78 1.351 1_545 S
C75 C80 1.501 . S
C76 C77 1.387 . S
C76 N79 1.341 . S
C77 C75 1.400 1_565 S
C77 C76 1.387 . S
N78 Co69 2.022 . S
N78 C75 1.351 1_565 S
N78 N79 1.365 . S
N79 C76 1.341 . S
N79 N78 1.365 . S
N79 H99 0.862 . S
C80 C75 1.501 . S
C80 H81 0.961 . S
C80 H82 0.961 . S
C80 H83 0.960 . S
H81 C80 0.961 . S
H82 C80 0.961 . S
H83 C80 0.960 . S
C84 N85 1.342 . S
C84 C88 1.401 . S
C84 C89 1.499 1_455 S
N85 Co68 1.989 . S
N85 C84 1.342 . S
N85 N86 1.388 . S
N86 Co69 1.993 . S
N86 N85 1.388 . S
N86 C87 1.346 . S
C87 N86 1.346 . S
C87 C88 1.396 . S
C87 C97 1.510 . S
C88 C84 1.401 . S
C88 C87 1.396 . S
C89 C84 1.499 1_655 S
C89 H90 0.959 . S
C89 H91 0.960 . S
C89 H92 0.961 . S
H90 C89 0.959 . S
H91 C89 0.960 . S
H92 C89 0.961 . S
O93 Co68 1.967 . S
O93 C101 1.258 . S
O94 Co69 1.941 . S
O94 C101 1.266 . S
H95 C97 0.959 . S
H96 C97 0.961 . S
C97 C87 1.510 . S
C97 H95 0.959 . S
C97 H96 0.961 . S
C97 H98 0.960 . S
H98 C97 0.960 . S
H99 N79 0.862 . S
O100 Co68 1.920 1_655 S
O100 C73 1.289 . S
C101 O93 1.258 . S
C101 O94 1.266 . S
Co102 O105 1.970 . S
Co102 N119 1.989 . S
Co102 O127 1.967 . S
Co102 O134 1.920 . S
Co103 O106 1.966 1_545 S
Co103 N112 2.022 . S
Co103 N120 1.993 . S
Co103 O128 1.941 . S
C104 O105 1.258 1_565 S
C104 O106 1.263 . S
O105 Co102 1.970 . S
O105 C104 1.258 1_545 S
O106 Co103 1.966 1_565 S
O106 C104 1.263 . S
C107 O108 1.235 . S
C107 O134 1.289 . S
O108 C107 1.235 . S
C109 C111 1.400 1_565 S
C109 N112 1.351 1_565 S
C109 C114 1.501 . S
C110 C111 1.387 . S
C110 N113 1.341 . S
C111 C109 1.400 1_545 S
C111 C110 1.387 . S
N112 Co103 2.022 . S
N112 C109 1.351 1_545 S
N112 N113 1.365 . S
N113 C110 1.341 . S
N113 N112 1.365 . S
N113 H133 0.862 . S
C114 C109 1.501 . S
C114 H115 0.961 . S
C114 H116 0.961 . S
C114 H117 0.960 . S
H115 C114 0.961 . S
H116 C114 0.961 . S
H117 C114 0.960 . S
C118 N119 1.342 . S
C118 C122 1.401 . S
C118 C123 1.499 . S
N119 Co102 1.989 . S
N119 C118 1.342 . S
N119 N120 1.388 . S
N120 Co103 1.993 . S
N120 N119 1.388 . S
N120 C121 1.346 . S
C121 N120 1.346 . S
C121 C122 1.396 . S
C121 C131 1.510 . S
C122 C118 1.401 . S
C122 C121 1.396 . S
C123 C118 1.499 . S
C123 H124 0.959 . S
C123 H125 0.960 . S
C123 H126 0.961 . S
H124 C123 0.959 . S
H125 C123 0.960 . S
H126 C123 0.961 . S
O127 Co102 1.967 . S
O127 C135 1.258 . S
O128 Co103 1.941 . S
O128 C135 1.266 . S
H129 C131 0.959 . S
H130 C131 0.961 . S
C131 C121 1.510 . S
C131 H129 0.959 . S
C131 H130 0.961 . S
C131 H132 0.960 . S
H132 C131 0.960 . S
H133 N113 0.862 . S
O134 Co102 1.920 . S
O134 C107 1.289 . S
C135 O127 1.258 . S
C135 O128 1.266 . S
Co136 O139 1.970 . S
Co136 N153 1.989 . S
Co136 O161 1.967 . S
Co136 O168 1.920 1_545 S
Co137 O140 1.966 1_655 S
Co137 N146 2.022 . S
Co137 N154 1.993 . S
Co137 O162 1.941 . S
C138 O139 1.258 1_455 S
C138 O140 1.263 . S
O139 Co136 1.970 . S
O139 C138 1.258 1_655 S
O140 Co137 1.966 1_455 S
O140 C138 1.263 . S
C141 O142 1.235 . S
C141 O168 1.289 . S
O142 C141 1.235 . S
C143 C145 1.400 1_455 S
C143 N146 1.351 1_455 S
C143 C148 1.501 . S
C144 C145 1.387 . S
C144 N147 1.341 . S
C145 C143 1.400 1_655 S
C145 C144 1.387 . S
N146 Co137 2.022 . S
N146 C143 1.351 1_655 S
N146 N147 1.365 . S
N147 C144 1.341 . S
N147 N146 1.365 . S
N147 H167 0.862 . S
C148 C143 1.501 . S
C148 H149 0.961 . S
C148 H150 0.961 . S
C148 H151 0.960 . S
H149 C148 0.961 . S
H150 C148 0.961 . S
H151 C148 0.960 . S
C152 N153 1.342 . S
C152 C156 1.401 . S
C152 C157 1.499 1_545 S
N153 Co136 1.989 . S
N153 C152 1.342 . S
N153 N154 1.388 . S
N154 Co137 1.993 . S
N154 N153 1.388 . S
N154 C155 1.346 . S
C155 N154 1.346 . S
C155 C156 1.396 . S
C155 C165 1.510 . S
C156 C152 1.401 . S
C156 C155 1.396 . S
C157 C152 1.499 1_565 S
C157 H158 0.959 . S
C157 H159 0.960 . S
C157 H160 0.961 . S
H158 C157 0.959 . S
H159 C157 0.960 . S
H160 C157 0.961 . S
O161 Co136 1.967 . S
O161 C169 1.258 . S
O162 Co137 1.941 . S
O162 C169 1.266 . S
H163 C165 0.959 . S
H164 C165 0.961 . S
C165 C155 1.510 . S
C165 H163 0.959 . S
C165 H164 0.961 . S
C165 H166 0.960 . S
H166 C165 0.960 . S
H167 N147 0.862 . S
O168 Co136 1.920 1_565 S
O168 C141 1.289 . S
C169 O161 1.258 . S
C169 O162 1.266 . S
Co170 O173 1.970 . S
Co170 N187 1.989 . S
Co170 O195 1.967 . S
Co170 O202 1.920 1_655 S
Co171 O174 1.966 . S
Co171 N180 2.022 . S
Co171 N188 1.993 . S
Co171 O196 1.941 . S
C172 O173 1.258 . S
C172 O174 1.263 . S
O173 Co170 1.970 . S
O173 C172 1.258 . S
O174 Co171 1.966 . S
O174 C172 1.263 . S
C175 O176 1.235 . S
C175 O202 1.289 . S
O176 C175 1.235 . S
C177 C179 1.400 . S
C177 N180 1.351 . S
C177 C182 1.501 . S
C178 C179 1.387 . S
C178 N181 1.341 . S
C179 C177 1.400 . S
C179 C178 1.387 . S
N180 Co171 2.022 . S
N180 C177 1.351 . S
N180 N181 1.365 . S
N181 C178 1.341 . S
N181 N180 1.365 . S
N181 H201 0.862 . S
C182 C177 1.501 . S
C182 H183 0.961 . S
C182 H184 0.961 . S
C182 H185 0.960 . S
H183 C182 0.961 . S
H184 C182 0.961 . S
H185 C182 0.960 . S
C186 N187 1.342 . S
C186 C190 1.401 . S
C186 C191 1.499 1_655 S
N187 Co170 1.989 . S
N187 C186 1.342 . S
N187 N188 1.388 . S
N188 Co171 1.993 . S
N188 N187 1.388 . S
N188 C189 1.346 . S
C189 N188 1.346 . S
C189 C190 1.396 . S
C189 C199 1.510 . S
C190 C186 1.401 . S
C190 C189 1.396 . S
C191 C186 1.499 1_455 S
C191 H192 0.959 . S
C191 H193 0.960 . S
C191 H194 0.961 . S
H192 C191 0.959 . S
H193 C191 0.960 . S
H194 C191 0.961 . S
O195 Co170 1.967 . S
O195 C203 1.258 . S
O196 Co171 1.941 . S
O196 C203 1.266 . S
H197 C199 0.959 . S
H198 C199 0.961 . S
C199 C189 1.510 . S
C199 H197 0.959 . S
C199 H198 0.961 . S
C199 H200 0.960 . S
H200 C199 0.960 . S
H201 N181 0.862 . S
O202 Co170 1.920 1_455 S
O202 C175 1.289 . S
C203 O195 1.258 . S
C203 O196 1.266 . S
Co204 O207 1.970 . S
Co204 N221 1.989 . S
Co204 O229 1.967 . S
Co204 O236 1.920 . S
Co205 O208 1.966 1_655 S
Co205 N214 2.022 . S
Co205 N222 1.993 . S
Co205 O230 1.941 . S
C206 O207 1.258 1_455 S
C206 O208 1.263 . S
O207 Co204 1.970 . S
O207 C206 1.258 1_655 S
O208 Co205 1.966 1_455 S
O208 C206 1.263 . S
C209 O210 1.235 . S
C209 O236 1.289 . S
O210 C209 1.235 . S
C211 C213 1.400 1_455 S
C211 N214 1.351 1_455 S
C211 C216 1.501 . S
C212 C213 1.387 . S
C212 N215 1.341 . S
C213 C211 1.400 1_655 S
C213 C212 1.387 . S
N214 Co205 2.022 . S
N214 C211 1.351 1_655 S
N214 N215 1.365 . S
N215 C212 1.341 . S
N215 N214 1.365 . S
N215 H235 0.862 . S
C216 C211 1.501 . S
C216 H217 0.961 . S
C216 H218 0.961 . S
C216 H219 0.960 . S
H217 C216 0.961 . S
H218 C216 0.961 . S
H219 C216 0.960 . S
C220 N221 1.342 . S
C220 C224 1.401 . S
C220 C225 1.499 . S
N221 Co204 1.989 . S
N221 C220 1.342 . S
N221 N222 1.388 . S
N222 Co205 1.993 . S
N222 N221 1.388 . S
N222 C223 1.346 . S
C223 N222 1.346 . S
C223 C224 1.396 . S
C223 C233 1.510 . S
C224 C220 1.401 . S
C224 C223 1.396 . S
C225 C220 1.499 . S
C225 H226 0.959 . S
C225 H227 0.960 . S
C225 H228 0.961 . S
H226 C225 0.959 . S
H227 C225 0.960 . S
H228 C225 0.961 . S
O229 Co204 1.967 . S
O229 C237 1.258 . S
O230 Co205 1.941 . S
O230 C237 1.266 . S
H231 C233 0.959 . S
H232 C233 0.961 . S
C233 C223 1.510 . S
C233 H231 0.959 . S
C233 H232 0.961 . S
C233 H234 0.960 . S
H234 C233 0.960 . S
H235 N215 0.862 . S
O236 Co204 1.920 . S
O236 C209 1.289 . S
C237 O229 1.258 . S
C237 O230 1.266 . S
Co238 O241 1.970 . S
Co238 N255 1.989 . S
Co238 O263 1.967 . S
Co238 O270 1.920 1_545 S
Co239 O242 1.966 . S
Co239 N248 2.022 . S
Co239 N256 1.993 . S
Co239 O264 1.941 . S
C240 O241 1.258 . S
C240 O242 1.263 . S
O241 Co238 1.970 . S
O241 C240 1.258 . S
O242 Co239 1.966 . S
O242 C240 1.263 . S
C243 O244 1.235 . S
C243 O270 1.289 . S
O244 C243 1.235 . S
C245 C247 1.400 . S
C245 N248 1.351 . S
C245 C250 1.501 . S
C246 C247 1.387 . S
C246 N249 1.341 . S
C247 C245 1.400 . S
C247 C246 1.387 . S
N248 Co239 2.022 . S
N248 C245 1.351 . S
N248 N249 1.365 . S
N249 C246 1.341 . S
N249 N248 1.365 . S
N249 H269 0.862 . S
C250 C245 1.501 . S
C250 H251 0.961 . S
C250 H252 0.961 . S
C250 H253 0.960 . S
H251 C250 0.961 . S
H252 C250 0.961 . S
H253 C250 0.960 . S
C254 N255 1.342 . S
C254 C258 1.401 . S
C254 C259 1.499 1_545 S
N255 Co238 1.989 . S
N255 C254 1.342 . S
N255 N256 1.388 . S
N256 Co239 1.993 . S
N256 N255 1.388 . S
N256 C257 1.346 . S
C257 N256 1.346 . S
C257 C258 1.396 . S
C257 C267 1.510 . S
C258 C254 1.401 . S
C258 C257 1.396 . S
C259 C254 1.499 1_565 S
C259 H260 0.959 . S
C259 H261 0.960 . S
C259 H262 0.961 . S
H260 C259 0.959 . S
H261 C259 0.960 . S
H262 C259 0.961 . S
O263 Co238 1.967 . S
O263 C271 1.258 . S
O264 Co239 1.941 . S
O264 C271 1.266 . S
H265 C267 0.959 . S
H266 C267 0.961 . S
C267 C257 1.510 . S
C267 H265 0.959 . S
C267 H266 0.961 . S
C267 H268 0.960 . S
H268 C267 0.960 . S
H269 N249 0.862 . S
O270 Co238 1.920 1_565 S
O270 C243 1.289 . S
C271 O263 1.258 . S
C271 O264 1.266 . S
Co272 O275 1.970 . S
Co272 N289 1.989 . S
Co272 O297 1.967 . S
Co272 O304 1.920 1_655 S
Co273 O276 1.966 1_545 S
Co273 N282 2.022 . S
Co273 N290 1.993 . S
Co273 O298 1.941 . S
C274 O275 1.258 1_565 S
C274 O276 1.263 . S
O275 Co272 1.970 . S
O275 C274 1.258 1_545 S
O276 Co273 1.966 1_565 S
O276 C274 1.263 . S
C277 O278 1.235 . S
C277 O304 1.289 . S
O278 C277 1.235 . S
C279 C281 1.400 1_565 S
C279 N282 1.351 1_565 S
C279 C284 1.501 . S
C280 C281 1.387 . S
C280 N283 1.341 . S
C281 C279 1.400 1_545 S
C281 C280 1.387 . S
N282 Co273 2.022 . S
N282 C279 1.351 1_545 S
N282 N283 1.365 . S
N283 C280 1.341 . S
N283 N282 1.365 . S
N283 H303 0.862 . S
C284 C279 1.501 . S
C284 H285 0.961 . S
C284 H286 0.961 . S
C284 H287 0.960 . S
H285 C284 0.961 . S
H286 C284 0.961 . S
H287 C284 0.960 . S
C288 N289 1.342 . S
C288 C292 1.401 . S
C288 C293 1.499 1_655 S
N289 Co272 1.989 . S
N289 C288 1.342 . S
N289 N290 1.388 . S
N290 Co273 1.993 . S
N290 N289 1.388 . S
N290 C291 1.346 . S
C291 N290 1.346 . S
C291 C292 1.396 . S
C291 C301 1.510 . S
C292 C288 1.401 . S
C292 C291 1.396 . S
C293 C288 1.499 1_455 S
C293 H294 0.959 . S
C293 H295 0.960 . S
C293 H296 0.961 . S
H294 C293 0.959 . S
H295 C293 0.960 . S
H296 C293 0.961 . S
O297 Co272 1.967 . S
O297 C305 1.258 . S
O298 Co273 1.941 . S
O298 C305 1.266 . S
H299 C301 0.959 . S
H300 C301 0.961 . S
C301 C291 1.510 . S
C301 H299 0.959 . S
C301 H300 0.961 . S
C301 H302 0.960 . S
H302 C301 0.960 . S
H303 N283 0.862 . S
O304 Co272 1.920 1_455 S
O304 C277 1.289 . S
C305 O297 1.258 . S
C305 O298 1.266 . S
Co306 O309 1.970 . S
Co306 N323 1.989 . S
Co306 O331 1.967 . S
Co306 O338 1.920 . S
Co307 O310 1.966 1_565 S
Co307 N316 2.022 . S
Co307 N324 1.993 . S
Co307 O332 1.941 . S
C308 O309 1.258 1_545 S
C308 O310 1.263 . S
O309 Co306 1.970 . S
O309 C308 1.258 1_565 S
O310 Co307 1.966 1_545 S
O310 C308 1.263 . S
C311 O312 1.235 . S
C311 O338 1.289 . S
O312 C311 1.235 . S
C313 C315 1.400 1_545 S
C313 N316 1.351 1_545 S
C313 C318 1.501 . S
C314 C315 1.387 . S
C314 N317 1.341 . S
C315 C313 1.400 1_565 S
C315 C314 1.387 . S
N316 Co307 2.022 . S
N316 C313 1.351 1_565 S
N316 N317 1.365 . S
N317 C314 1.341 . S
N317 N316 1.365 . S
N317 H337 0.862 . S
C318 C313 1.501 . S
C318 H319 0.961 . S
C318 H320 0.961 . S
C318 H321 0.960 . S
H319 C318 0.961 . S
H320 C318 0.961 . S
H321 C318 0.960 . S
C322 N323 1.342 . S
C322 C326 1.401 . S
C322 C327 1.499 . S
N323 Co306 1.989 . S
N323 C322 1.342 . S
N323 N324 1.388 . S
N324 Co307 1.993 . S
N324 N323 1.388 . S
N324 C325 1.346 . S
C325 N324 1.346 . S
C325 C326 1.396 . S
C325 C335 1.510 . S
C326 C322 1.401 . S
C326 C325 1.396 . S
C327 C322 1.499 . S
C327 H328 0.959 . S
C327 H329 0.960 . S
C327 H330 0.961 . S
H328 C327 0.959 . S
H329 C327 0.960 . S
H330 C327 0.961 . S
O331 Co306 1.967 . S
O331 C339 1.258 . S
O332 Co307 1.941 . S
O332 C339 1.266 . S
H333 C335 0.959 . S
H334 C335 0.961 . S
C335 C325 1.510 . S
C335 H333 0.959 . S
C335 H334 0.961 . S
C335 H336 0.960 . S
H336 C335 0.960 . S
H337 N317 0.862 . S
O338 Co306 1.920 . S
O338 C311 1.289 . S
C339 O331 1.258 . S
C339 O332 1.266 . S
Co340 O343 1.970 . S
Co340 N357 1.989 . S
Co340 O365 1.967 . S
Co340 O372 1.920 1_565 S
Co341 O344 1.966 1_455 S
Co341 N350 2.022 . S
Co341 N358 1.993 . S
Co341 O366 1.941 . S
C342 O343 1.258 1_655 S
C342 O344 1.263 . S
O343 Co340 1.970 . S
O343 C342 1.258 1_455 S
O344 Co341 1.966 1_655 S
O344 C342 1.263 . S
C345 O346 1.235 . S
C345 O372 1.289 . S
O346 C345 1.235 . S
C347 C349 1.400 1_655 S
C347 N350 1.351 1_655 S
C347 C352 1.501 . S
C348 C349 1.387 . S
C348 N351 1.341 . S
C349 C347 1.400 1_455 S
C349 C348 1.387 . S
N350 Co341 2.022 . S
N350 C347 1.351 1_455 S
N350 N351 1.365 . S
N351 C348 1.341 . S
N351 N350 1.365 . S
N351 H371 0.862 . S
C352 C347 1.501 . S
C352 H353 0.961 . S
C352 H354 0.961 . S
C352 H355 0.960 . S
H353 C352 0.961 . S
H354 C352 0.961 . S
H355 C352 0.960 . S
C356 N357 1.342 . S
C356 C360 1.401 . S
C356 C361 1.499 1_565 S
N357 Co340 1.989 . S
N357 C356 1.342 . S
N357 N358 1.388 . S
N358 Co341 1.993 . S
N358 N357 1.388 . S
N358 C359 1.346 . S
C359 N358 1.346 . S
C359 C360 1.396 . S
C359 C369 1.510 . S
C360 C356 1.401 . S
C360 C359 1.396 . S
C361 C356 1.499 1_545 S
C361 H362 0.959 . S
C361 H363 0.960 . S
C361 H364 0.961 . S
H362 C361 0.959 . S
H363 C361 0.960 . S
H364 C361 0.961 . S
O365 Co340 1.967 . S
O365 C373 1.258 . S
O366 Co341 1.941 . S
O366 C373 1.266 . S
H367 C369 0.959 . S
H368 C369 0.961 . S
C369 C359 1.510 . S
C369 H367 0.959 . S
C369 H368 0.961 . S
C369 H370 0.960 . S
H370 C369 0.960 . S
H371 N351 0.862 . S
O372 Co340 1.920 1_545 S
O372 C345 1.289 . S
C373 O365 1.258 . S
C373 O366 1.266 . S
Co374 O377 1.970 . S
Co374 N391 1.989 . S
Co374 O399 1.967 . S
Co374 O406 1.920 1_455 S
Co375 O378 1.966 . S
Co375 N384 2.022 . S
Co375 N392 1.993 . S
Co375 O400 1.941 . S
C376 O377 1.258 . S
C376 O378 1.263 . S
O377 Co374 1.970 . S
O377 C376 1.258 . S
O378 Co375 1.966 . S
O378 C376 1.263 . S
C379 O380 1.235 . S
C379 O406 1.289 . S
O380 C379 1.235 . S
C381 C383 1.400 . S
C381 N384 1.351 . S
C381 C386 1.501 . S
C382 C383 1.387 . S
C382 N385 1.341 . S
C383 C381 1.400 . S
C383 C382 1.387 . S
N384 Co375 2.022 . S
N384 C381 1.351 . S
N384 N385 1.365 . S
N385 C382 1.341 . S
N385 N384 1.365 . S
N385 H405 0.862 . S
C386 C381 1.501 . S
C386 H387 0.961 . S
C386 H388 0.961 . S
C386 H389 0.960 . S
H387 C386 0.961 . S
H388 C386 0.961 . S
H389 C386 0.960 . S
C390 N391 1.342 . S
C390 C394 1.401 . S
C390 C395 1.499 1_455 S
N391 Co374 1.989 . S
N391 C390 1.342 . S
N391 N392 1.388 . S
N392 Co375 1.993 . S
N392 N391 1.388 . S
N392 C393 1.346 . S
C393 N392 1.346 . S
C393 C394 1.396 . S
C393 C403 1.510 . S
C394 C390 1.401 . S
C394 C393 1.396 . S
C395 C390 1.499 1_655 S
C395 H396 0.959 . S
C395 H397 0.960 . S
C395 H398 0.961 . S
H396 C395 0.959 . S
H397 C395 0.960 . S
H398 C395 0.961 . S
O399 Co374 1.967 . S
O399 C407 1.258 . S
O400 Co375 1.941 . S
O400 C407 1.266 . S
H401 C403 0.959 . S
H402 C403 0.961 . S
C403 C393 1.510 . S
C403 H401 0.959 . S
C403 H402 0.961 . S
C403 H404 0.960 . S
H404 C403 0.960 . S
H405 N385 0.862 . S
O406 Co374 1.920 1_655 S
O406 C379 1.289 . S
C407 O399 1.258 . S
C407 O400 1.266 . S
Co408 O411 1.970 . S
Co408 N425 1.989 . S
Co408 O433 1.967 . S
Co408 O440 1.920 . S
Co409 O412 1.966 . S
Co409 N418 2.022 . S
Co409 N426 1.993 . S
Co409 O434 1.941 . S
C410 O411 1.258 . S
C410 O412 1.263 . S
O411 Co408 1.970 . S
O411 C410 1.258 . S
O412 Co409 1.966 . S
O412 C410 1.263 . S
C413 O414 1.235 . S
C413 O440 1.289 . S
O414 C413 1.235 . S
C415 C417 1.400 . S
C415 N418 1.351 . S
C415 C420 1.501 . S
C416 C417 1.387 . S
C416 N419 1.341 . S
C417 C415 1.400 . S
C417 C416 1.387 . S
N418 Co409 2.022 . S
N418 C415 1.351 . S
N418 N419 1.365 . S
N419 C416 1.341 . S
N419 N418 1.365 . S
N419 H439 0.862 . S
C420 C415 1.501 . S
C420 H421 0.961 . S
C420 H422 0.961 . S
C420 H423 0.960 . S
H421 C420 0.961 . S
H422 C420 0.961 . S
H423 C420 0.960 . S
C424 N425 1.342 . S
C424 C428 1.401 . S
C424 C429 1.499 . S
N425 Co408 1.989 . S
N425 C424 1.342 . S
N425 N426 1.388 . S
N426 Co409 1.993 . S
N426 N425 1.388 . S
N426 C427 1.346 . S
C427 N426 1.346 . S
C427 C428 1.396 . S
C427 C437 1.510 . S
C428 C424 1.401 . S
C428 C427 1.396 . S
C429 C424 1.499 . S
C429 H430 0.959 . S
C429 H431 0.960 . S
C429 H432 0.961 . S
H430 C429 0.959 . S
H431 C429 0.960 . S
H432 C429 0.961 . S
O433 Co408 1.967 . S
O433 C441 1.258 . S
O434 Co409 1.941 . S
O434 C441 1.266 . S
H435 C437 0.959 . S
H436 C437 0.961 . S
C437 C427 1.510 . S
C437 H435 0.959 . S
C437 H436 0.961 . S
C437 H438 0.960 . S
H438 C437 0.960 . S
H439 N419 0.862 . S
O440 Co408 1.920 . S
O440 C413 1.289 . S
C441 O433 1.258 . S
C441 O434 1.266 . S
Co442 O445 1.970 . S
Co442 N459 1.989 . S
Co442 O467 1.967 . S
Co442 O474 1.920 . S
Co443 O446 1.966 . S
Co443 N452 2.022 . S
Co443 N460 1.993 . S
Co443 O468 1.941 . S
C444 O445 1.258 . S
C444 O446 1.263 . S
O445 Co442 1.970 . S
O445 C444 1.258 . S
O446 Co443 1.966 . S
O446 C444 1.263 . S
C447 O448 1.235 . S
C447 O474 1.289 . S
O448 C447 1.235 . S
C449 C451 1.400 1_545 S
C449 N452 1.352 . S
C449 C454 1.500 . S
C450 C451 1.387 . S
C450 N453 1.341 . S
C451 C449 1.400 1_565 S
C451 C450 1.387 . S
N452 Co443 2.022 . S
N452 C449 1.352 . S
N452 N453 1.365 1_545 S
N453 C450 1.341 . S
N453 N452 1.365 1_565 S
N453 H473 0.862 1_565 S
C454 C449 1.500 . S
C454 H455 0.961 . S
C454 H456 0.961 . S
C454 H457 0.960 1_545 S
H455 C454 0.961 . S
H456 C454 0.961 . S
H457 C454 0.960 1_565 S
C458 N459 1.342 . S
C458 C462 1.401 . S
C458 C463 1.499 . S
N459 Co442 1.989 . S
N459 C458 1.342 . S
N459 N460 1.388 . S
N460 Co443 1.993 . S
N460 N459 1.388 . S
N460 C461 1.346 . S
C461 N460 1.346 . S
C461 C462 1.396 . S
C461 C471 1.510 . S
C462 C458 1.401 . S
C462 C461 1.396 . S
C463 C458 1.499 . S
C463 H464 0.959 . S
C463 H465 0.960 . S
C463 H466 0.961 . S
H464 C463 0.959 . S
H465 C463 0.960 . S
H466 C463 0.961 . S
O467 Co442 1.967 . S
O467 C475 1.258 . S
O468 Co443 1.941 . S
O468 C475 1.266 . S
H469 C471 0.959 . S
H470 C471 0.961 . S
C471 C461 1.510 . S
C471 H469 0.959 . S
C471 H470 0.961 . S
C471 H472 0.960 . S
H472 C471 0.960 . S
H473 N453 0.862 1_545 S
O474 Co442 1.920 . S
O474 C447 1.289 . S
C475 O467 1.258 . S
C475 O468 1.266 . S
Co476 O479 1.970 . S
Co476 N493 1.989 . S
Co476 O501 1.967 . S
Co476 O508 1.920 . S
Co477 O480 1.966 . S
Co477 N486 2.022 . S
Co477 N494 1.993 . S
Co477 O502 1.941 . S
C478 O479 1.258 . S
C478 O480 1.263 . S
O479 Co476 1.970 . S
O479 C478 1.258 . S
O480 Co477 1.966 . S
O480 C478 1.263 . S
C481 O482 1.235 . S
C481 O508 1.289 . S
O482 C481 1.235 . S
C483 C485 1.400 1_655 S
C483 N486 1.351 . S
C483 C488 1.501 . S
C484 C485 1.387 . S
C484 N487 1.341 . S
C485 C483 1.400 1_455 S
C485 C484 1.387 . S
N486 Co477 2.022 . S
N486 C483 1.351 . S
N486 N487 1.365 1_655 S
N487 C484 1.341 . S
N487 N486 1.365 1_455 S
N487 H507 0.862 1_455 S
C488 C483 1.501 . S
C488 H489 0.961 . S
C488 H490 0.961 . S
C488 H491 0.960 1_655 S
H489 C488 0.961 . S
H490 C488 0.961 . S
H491 C488 0.960 1_455 S
C492 N493 1.342 . S
C492 C496 1.401 . S
C492 C497 1.499 . S
N493 Co476 1.989 . S
N493 C492 1.342 . S
N493 N494 1.388 . S
N494 Co477 1.993 . S
N494 N493 1.388 . S
N494 C495 1.346 . S
C495 N494 1.346 . S
C495 C496 1.396 . S
C495 C505 1.510 . S
C496 C492 1.401 . S
C496 C495 1.396 . S
C497 C492 1.499 . S
C497 H498 0.959 . S
C497 H499 0.960 . S
C497 H500 0.961 . S
H498 C497 0.959 . S
H499 C497 0.960 . S
H500 C497 0.961 . S
O501 Co476 1.967 . S
O501 C509 1.258 . S
O502 Co477 1.941 . S
O502 C509 1.266 . S
H503 C505 0.959 . S
H504 C505 0.961 . S
C505 C495 1.510 . S
C505 H503 0.959 . S
C505 H504 0.961 . S
C505 H506 0.960 . S
H506 C505 0.960 . S
H507 N487 0.862 1_655 S
O508 Co476 1.920 . S
O508 C481 1.289 . S
C509 O501 1.258 . S
C509 O502 1.266 . S
Co510 O513 1.970 . S
Co510 N527 1.989 . S
Co510 O535 1.967 . S
Co510 O542 1.920 . S
Co511 O514 1.966 . S
Co511 N520 2.022 1_655 S
Co511 N528 1.993 . S
Co511 O536 1.941 . S
C512 O513 1.258 . S
C512 O514 1.263 . S
O513 Co510 1.970 . S
O513 C512 1.258 . S
O514 Co511 1.966 . S
O514 C512 1.263 . S
C515 O516 1.235 . S
C515 O542 1.289 . S
O516 C515 1.235 . S
C517 C519 1.400 1_655 S
C517 N520 1.351 1_655 S
C517 C522 1.501 . S
C518 C519 1.387 . S
C518 N521 1.341 . S
C519 C517 1.400 1_455 S
C519 C518 1.387 . S
N520 Co511 2.022 1_455 S
N520 C517 1.351 1_455 S
N520 N521 1.365 . S
N521 C518 1.341 . S
N521 N520 1.365 . S
N521 H541 0.862 . S
C522 C517 1.501 . S
C522 H523 0.961 . S
C522 H524 0.961 . S
C522 H525 0.960 . S
H523 C522 0.961 . S
H524 C522 0.961 . S
H525 C522 0.960 . S
C526 N527 1.342 . S
C526 C530 1.401 . S
C526 C531 1.499 . S
N527 Co510 1.989 . S
N527 C526 1.342 . S
N527 N528 1.388 . S
N528 Co511 1.993 . S
N528 N527 1.388 . S
N528 C529 1.346 1_655 S
C529 N528 1.346 1_455 S
C529 C530 1.396 1_455 S
C529 C539 1.510 . S
C530 C526 1.401 . S
C530 C529 1.396 1_655 S
C531 C526 1.499 . S
C531 H532 0.959 . S
C531 H533 0.960 . S
C531 H534 0.961 . S
H532 C531 0.959 . S
H533 C531 0.960 . S
H534 C531 0.961 . S
O535 Co510 1.967 . S
O535 C543 1.258 . S
O536 Co511 1.941 . S
O536 C543 1.266 . S
H537 C539 0.959 . S
H538 C539 0.961 . S
C539 C529 1.510 . S
C539 H537 0.959 . S
C539 H538 0.961 . S
C539 H540 0.960 . S
H540 C539 0.960 . S
H541 N521 0.862 . S
O542 Co510 1.920 . S
O542 C515 1.289 . S
C543 O535 1.258 . S
C543 O536 1.266 . S
Co544 O547 1.970 . S
Co544 N561 1.989 . S
Co544 O569 1.967 . S
Co544 O576 1.920 . S
Co545 O548 1.966 . S
Co545 N554 2.022 . S
Co545 N562 1.993 . S
Co545 O570 1.941 . S
C546 O547 1.258 . S
C546 O548 1.263 . S
O547 Co544 1.970 . S
O547 C546 1.258 . S
O548 Co545 1.966 . S
O548 C546 1.263 . S
C549 O550 1.235 . S
C549 O576 1.289 . S
O550 C549 1.235 . S
C551 C553 1.400 . S
C551 N554 1.351 . S
C551 C556 1.501 . S
C552 C553 1.387 . S
C552 N555 1.341 . S
C553 C551 1.400 . S
C553 C552 1.387 . S
N554 Co545 2.022 . S
N554 C551 1.351 . S
N554 N555 1.365 . S
N555 C552 1.341 . S
N555 N554 1.365 . S
N555 H575 0.862 . S
C556 C551 1.501 . S
C556 H557 0.961 . S
C556 H558 0.961 . S
C556 H559 0.960 . S
H557 C556 0.961 . S
H558 C556 0.961 . S
H559 C556 0.960 . S
C560 N561 1.342 . S
C560 C564 1.401 . S
C560 C565 1.499 . S
N561 Co544 1.989 . S
N561 C560 1.342 . S
N561 N562 1.388 . S
N562 Co545 1.993 . S
N562 N561 1.388 . S
N562 C563 1.346 . S
C563 N562 1.346 . S
C563 C564 1.396 . S
C563 C573 1.510 . S
C564 C560 1.401 . S
C564 C563 1.396 . S
C565 C560 1.499 . S
C565 H566 0.959 . S
C565 H567 0.960 . S
C565 H568 0.961 . S
H566 C565 0.959 . S
H567 C565 0.960 . S
H568 C565 0.961 . S
O569 Co544 1.967 . S
O569 C577 1.258 . S
O570 Co545 1.941 . S
O570 C577 1.266 . S
H571 C573 0.959 . S
H572 C573 0.961 . S
C573 C563 1.510 . S
C573 H571 0.959 . S
C573 H572 0.961 . S
C573 H574 0.960 . S
H574 C573 0.960 . S
H575 N555 0.862 . S
O576 Co544 1.920 . S
O576 C549 1.289 . S
C577 O569 1.258 . S
C577 O570 1.266 . S
Co578 O581 1.970 . S
Co578 N595 1.989 . S
Co578 O603 1.967 . S
Co578 O610 1.920 . S
Co579 O582 1.966 . S
Co579 N588 2.022 1_545 S
Co579 N596 1.993 . S
Co579 O604 1.941 . S
C580 O581 1.258 . S
C580 O582 1.263 . S
O581 Co578 1.970 . S
O581 C580 1.258 . S
O582 Co579 1.966 . S
O582 C580 1.263 . S
C583 O584 1.235 . S
C583 O610 1.289 . S
O584 C583 1.235 . S
C585 C587 1.400 1_545 S
C585 N588 1.351 1_545 S
C585 C590 1.501 . S
C586 C587 1.387 . S
C586 N589 1.341 . S
C587 C585 1.400 1_565 S
C587 C586 1.387 . S
N588 Co579 2.022 1_565 S
N588 C585 1.351 1_565 S
N588 N589 1.365 . S
N589 C586 1.341 . S
N589 N588 1.365 . S
N589 H609 0.862 . S
C590 C585 1.501 . S
C590 H591 0.961 . S
C590 H592 0.961 . S
C590 H593 0.960 . S
H591 C590 0.961 . S
H592 C590 0.961 . S
H593 C590 0.960 . S
C594 N595 1.342 . S
C594 C598 1.401 . S
C594 C599 1.499 . S
N595 Co578 1.989 . S
N595 C594 1.342 . S
N595 N596 1.388 . S
N596 Co579 1.993 . S
N596 N595 1.388 . S
N596 C597 1.346 1_545 S
C597 N596 1.346 1_565 S
C597 C598 1.396 1_565 S
C597 C607 1.510 . S
C598 C594 1.401 . S
C598 C597 1.396 1_545 S
C599 C594 1.499 . S
C599 H600 0.959 . S
C599 H601 0.960 . S
C599 H602 0.961 . S
H600 C599 0.959 . S
H601 C599 0.960 . S
H602 C599 0.961 . S
O603 Co578 1.967 . S
O603 C611 1.258 . S
O604 Co579 1.941 . S
O604 C611 1.266 . S
H605 C607 0.959 . S
H606 C607 0.961 . S
C607 C597 1.510 . S
C607 H605 0.959 . S
C607 H606 0.961 . S
C607 H608 0.960 . S
H608 C607 0.960 . S
H609 N589 0.862 . S
O610 Co578 1.920 . S
O610 C583 1.289 . S
C611 O603 1.258 . S
C611 O604 1.266 . S
Co612 O615 1.970 . S
Co612 N629 1.989 . S
Co612 O637 1.967 . S
Co612 O644 1.920 . S
Co613 O616 1.966 . S
Co613 N622 2.022 1_545 S
Co613 N630 1.993 . S
Co613 O638 1.941 . S
C614 O615 1.258 . S
C614 O616 1.263 . S
O615 Co612 1.970 . S
O615 C614 1.258 . S
O616 Co613 1.966 . S
O616 C614 1.263 . S
C617 O618 1.235 . S
C617 O644 1.289 . S
O618 C617 1.235 . S
C619 C621 1.400 1_545 S
C619 N622 1.351 1_545 S
C619 C624 1.501 . S
C620 C621 1.387 . S
C620 N623 1.341 . S
C621 C619 1.400 1_565 S
C621 C620 1.387 . S
N622 Co613 2.022 1_565 S
N622 C619 1.351 1_565 S
N622 N623 1.365 . S
N623 C620 1.341 . S
N623 N622 1.365 . S
N623 H643 0.862 . S
C624 C619 1.501 . S
C624 H625 0.961 . S
C624 H626 0.961 . S
C624 H627 0.960 . S
H625 C624 0.961 . S
H626 C624 0.961 . S
H627 C624 0.960 . S
C628 N629 1.342 . S
C628 C632 1.401 . S
C628 C633 1.499 . S
N629 Co612 1.989 . S
N629 C628 1.342 . S
N629 N630 1.388 . S
N630 Co613 1.993 . S
N630 N629 1.388 . S
N630 C631 1.346 1_545 S
C631 N630 1.346 1_565 S
C631 C632 1.396 1_565 S
C631 C641 1.510 . S
C632 C628 1.401 . S
C632 C631 1.396 1_545 S
C633 C628 1.499 . S
C633 H634 0.959 . S
C633 H635 0.960 . S
C633 H636 0.961 . S
H634 C633 0.959 . S
H635 C633 0.960 . S
H636 C633 0.961 . S
O637 Co612 1.967 . S
O637 C645 1.258 . S
O638 Co613 1.941 . S
O638 C645 1.266 . S
H639 C641 0.959 . S
H640 C641 0.961 . S
C641 C631 1.510 . S
C641 H639 0.959 . S
C641 H640 0.961 . S
C641 H642 0.960 . S
H642 C641 0.960 . S
H643 N623 0.862 . S
O644 Co612 1.920 . S
O644 C617 1.289 . S
C645 O637 1.258 . S
C645 O638 1.266 . S
Co646 O649 1.970 . S
Co646 N663 1.989 . S
Co646 O671 1.967 . S
Co646 O678 1.920 . S
Co647 O650 1.966 . S
Co647 N656 2.022 1_655 S
Co647 N664 1.993 . S
Co647 O672 1.941 . S
C648 O649 1.258 . S
C648 O650 1.263 . S
O649 Co646 1.970 . S
O649 C648 1.258 . S
O650 Co647 1.966 . S
O650 C648 1.263 . S
C651 O652 1.235 . S
C651 O678 1.289 . S
O652 C651 1.235 . S
C653 C655 1.400 1_655 S
C653 N656 1.351 1_655 S
C653 C658 1.501 . S
C654 C655 1.387 . S
C654 N657 1.341 . S
C655 C653 1.400 1_455 S
C655 C654 1.387 . S
N656 Co647 2.022 1_455 S
N656 C653 1.351 1_455 S
N656 N657 1.365 . S
N657 C654 1.341 . S
N657 N656 1.365 . S
N657 H677 0.862 . S
C658 C653 1.501 . S
C658 H659 0.961 . S
C658 H660 0.961 . S
C658 H661 0.960 . S
H659 C658 0.961 . S
H660 C658 0.961 . S
H661 C658 0.960 . S
C662 N663 1.342 . S
C662 C666 1.401 . S
C662 C667 1.499 . S
N663 Co646 1.989 . S
N663 C662 1.342 . S
N663 N664 1.388 . S
N664 Co647 1.993 . S
N664 N663 1.388 . S
N664 C665 1.346 1_655 S
C665 N664 1.346 1_455 S
C665 C666 1.396 1_455 S
C665 C675 1.510 . S
C666 C662 1.401 . S
C666 C665 1.396 1_655 S
C667 C662 1.499 . S
C667 H668 0.959 . S
C667 H669 0.960 . S
C667 H670 0.961 . S
H668 C667 0.959 . S
H669 C667 0.960 . S
H670 C667 0.961 . S
O671 Co646 1.967 . S
O671 C679 1.258 . S
O672 Co647 1.941 . S
O672 C679 1.266 . S
H673 C675 0.959 . S
H674 C675 0.961 . S
C675 C665 1.510 . S
C675 H673 0.959 . S
C675 H674 0.961 . S
C675 H676 0.960 . S
H676 C675 0.960 . S
H677 N657 0.862 . S
O678 Co646 1.920 . S
O678 C651 1.289 . S
C679 O671 1.258 . S
C679 O672 1.266 . S
Co680 O683 1.970 . S
Co680 N697 1.989 . S
Co680 O705 1.967 . S
Co680 O712 1.920 . S
Co681 O684 1.966 . S
Co681 N690 2.022 . S
Co681 N698 1.993 . S
Co681 O706 1.941 . S
C682 O683 1.258 . S
C682 O684 1.263 . S
O683 Co680 1.970 . S
O683 C682 1.258 . S
O684 Co681 1.966 . S
O684 C682 1.263 . S
C685 O686 1.235 . S
C685 O712 1.289 . S
O686 C685 1.235 . S
C687 C689 1.400 . S
C687 N690 1.351 . S
C687 C692 1.501 . S
C688 C689 1.387 . S
C688 N691 1.341 . S
C689 C687 1.400 . S
C689 C688 1.387 . S
N690 Co681 2.022 . S
N690 C687 1.351 . S
N690 N691 1.365 . S
N691 C688 1.341 . S
N691 N690 1.365 . S
N691 H711 0.862 . S
C692 C687 1.501 . S
C692 H693 0.961 . S
C692 H694 0.961 . S
C692 H695 0.960 . S
H693 C692 0.961 . S
H694 C692 0.961 . S
H695 C692 0.960 . S
C696 N697 1.342 . S
C696 C700 1.401 . S
C696 C701 1.499 . S
N697 Co680 1.989 . S
N697 C696 1.342 . S
N697 N698 1.388 . S
N698 Co681 1.993 . S
N698 N697 1.388 . S
N698 C699 1.346 . S
C699 N698 1.346 . S
C699 C700 1.396 . S
C699 C709 1.510 . S
C700 C696 1.401 . S
C700 C699 1.396 . S
C701 C696 1.499 . S
C701 H702 0.959 . S
C701 H703 0.960 . S
C701 H704 0.961 . S
H702 C701 0.959 . S
H703 C701 0.960 . S
H704 C701 0.961 . S
O705 Co680 1.967 . S
O705 C713 1.258 . S
O706 Co681 1.941 . S
O706 C713 1.266 . S
H707 C709 0.959 . S
H708 C709 0.961 . S
C709 C699 1.510 . S
C709 H707 0.959 . S
C709 H708 0.961 . S
C709 H710 0.960 . S
H710 C709 0.960 . S
H711 N691 0.862 . S
O712 Co680 1.920 . S
O712 C685 1.289 . S
C713 O705 1.258 . S
C713 O706 1.266 . S
Co714 O717 1.970 . S
Co714 N731 1.989 . S
Co714 O739 1.967 . S
Co714 O746 1.920 . S
Co715 O718 1.966 . S
Co715 N724 2.022 . S
Co715 N732 1.993 . S
Co715 O740 1.941 . S
C716 O717 1.258 . S
C716 O718 1.263 . S
O717 Co714 1.970 . S
O717 C716 1.258 . S
O718 Co715 1.966 . S
O718 C716 1.263 . S
C719 O720 1.235 . S
C719 O746 1.289 . S
O720 C719 1.235 . S
C721 C723 1.400 . S
C721 N724 1.351 . S
C721 C726 1.501 . S
C722 C723 1.387 . S
C722 N725 1.341 . S
C723 C721 1.400 . S
C723 C722 1.387 . S
N724 Co715 2.022 . S
N724 C721 1.351 . S
N724 N725 1.365 . S
N725 C722 1.341 . S
N725 N724 1.365 . S
N725 H745 0.862 . S
C726 C721 1.501 . S
C726 H727 0.961 . S
C726 H728 0.961 1_554 S
C726 H729 0.960 . S
H727 C726 0.961 . S
H728 C726 0.961 1_556 S
H729 C726 0.960 . S
C730 N731 1.342 . S
C730 C734 1.401 . S
C730 C735 1.499 . S
N731 Co714 1.989 . S
N731 C730 1.342 . S
N731 N732 1.388 . S
N732 Co715 1.993 . S
N732 N731 1.388 . S
N732 C733 1.346 . S
C733 N732 1.346 . S
C733 C734 1.396 . S
C733 C743 1.510 . S
C734 C730 1.401 . S
C734 C733 1.396 . S
C735 C730 1.499 . S
C735 H736 0.959 . S
C735 H737 0.960 . S
C735 H738 0.961 . S
H736 C735 0.959 . S
H737 C735 0.960 . S
H738 C735 0.961 . S
O739 Co714 1.967 . S
O739 C747 1.258 . S
O740 Co715 1.941 . S
O740 C747 1.266 . S
H741 C743 0.959 . S
H742 C743 0.961 1_556 S
C743 C733 1.510 . S
C743 H741 0.959 . S
C743 H742 0.961 1_554 S
C743 H744 0.960 . S
H744 C743 0.960 . S
H745 N725 0.862 . S
O746 Co714 1.920 . S
O746 C719 1.289 . S
C747 O739 1.258 . S
C747 O740 1.266 . S
Co748 O751 1.970 . S
Co748 N765 1.989 . S
Co748 O773 1.967 . S
Co748 O780 1.920 . S
Co749 O752 1.966 . S
Co749 N758 2.022 . S
Co749 N766 1.993 . S
Co749 O774 1.941 . S
C750 O751 1.258 . S
C750 O752 1.263 . S
O751 Co748 1.970 . S
O751 C750 1.258 . S
O752 Co749 1.966 . S
O752 C750 1.263 . S
C753 O754 1.235 . S
C753 O780 1.289 . S
O754 C753 1.235 . S
C755 C757 1.400 1_545 S
C755 N758 1.351 . S
C755 C760 1.501 . S
C756 C757 1.387 . S
C756 N759 1.341 . S
C757 C755 1.400 1_565 S
C757 C756 1.387 . S
N758 Co749 2.022 . S
N758 C755 1.351 . S
N758 N759 1.365 1_545 S
N759 C756 1.341 . S
N759 N758 1.365 1_565 S
N759 H779 0.862 1_565 S
C760 C755 1.501 . S
C760 H761 0.961 . S
C760 H762 0.961 1_554 S
C760 H763 0.960 1_545 S
H761 C760 0.961 . S
H762 C760 0.961 1_556 S
H763 C760 0.960 1_565 S
C764 N765 1.342 . S
C764 C768 1.401 . S
C764 C769 1.499 . S
N765 Co748 1.989 . S
N765 C764 1.342 . S
N765 N766 1.388 . S
N766 Co749 1.993 . S
N766 N765 1.388 . S
N766 C767 1.346 . S
C767 N766 1.346 . S
C767 C768 1.396 . S
C767 C777 1.510 . S
C768 C764 1.401 . S
C768 C767 1.396 . S
C769 C764 1.499 . S
C769 H770 0.959 . S
C769 H771 0.960 . S
C769 H772 0.961 . S
H770 C769 0.959 . S
H771 C769 0.960 . S
H772 C769 0.961 . S
O773 Co748 1.967 . S
O773 C781 1.258 . S
O774 Co749 1.941 . S
O774 C781 1.266 . S
H775 C777 0.959 . S
H776 C777 0.961 1_556 S
C777 C767 1.510 . S
C777 H775 0.959 . S
C777 H776 0.961 1_554 S
C777 H778 0.960 . S
H778 C777 0.960 . S
H779 N759 0.862 1_545 S
O780 Co748 1.920 . S
O780 C753 1.289 . S
C781 O773 1.258 . S
C781 O774 1.266 . S
Co782 O785 1.970 . S
Co782 N799 1.989 . S
Co782 O807 1.967 . S
Co782 O814 1.920 . S
Co783 O786 1.966 . S
Co783 N792 2.022 . S
Co783 N800 1.993 . S
Co783 O808 1.941 . S
C784 O785 1.258 . S
C784 O786 1.263 . S
O785 Co782 1.970 . S
O785 C784 1.258 . S
O786 Co783 1.966 . S
O786 C784 1.263 . S
C787 O788 1.235 . S
C787 O814 1.289 . S
O788 C787 1.235 . S
C789 C791 1.400 1_655 S
C789 N792 1.352 . S
C789 C794 1.500 . S
C790 C791 1.387 . S
C790 N793 1.341 . S
C791 C789 1.400 1_455 S
C791 C790 1.387 . S
N792 Co783 2.022 . S
N792 C789 1.352 . S
N792 N793 1.365 1_655 S
N793 C790 1.341 . S
N793 N792 1.365 1_455 S
N793 H813 0.862 1_455 S
C794 C789 1.500 . S
C794 H795 0.961 . S
C794 H796 0.961 1_554 S
C794 H797 0.960 1_655 S
H795 C794 0.961 . S
H796 C794 0.961 1_556 S
H797 C794 0.960 1_455 S
C798 N799 1.342 . S
C798 C802 1.401 . S
C798 C803 1.499 . S
N799 Co782 1.989 . S
N799 C798 1.342 . S
N799 N800 1.388 . S
N800 Co783 1.993 . S
N800 N799 1.388 . S
N800 C801 1.346 . S
C801 N800 1.346 . S
C801 C802 1.396 . S
C801 C811 1.510 . S
C802 C798 1.401 . S
C802 C801 1.396 . S
C803 C798 1.499 . S
C803 H804 0.959 . S
C803 H805 0.960 . S
C803 H806 0.961 . S
H804 C803 0.959 . S
H805 C803 0.960 . S
H806 C803 0.961 . S
O807 Co782 1.967 . S
O807 C815 1.258 . S
O808 Co783 1.941 . S
O808 C815 1.266 . S
H809 C811 0.959 . S
H810 C811 0.961 1_556 S
C811 C801 1.510 . S
C811 H809 0.959 . S
C811 H810 0.961 1_554 S
C811 H812 0.960 . S
H812 C811 0.960 . S
H813 N793 0.862 1_655 S
O814 Co782 1.920 . S
O814 C787 1.289 . S
C815 O807 1.258 . S
C815 O808 1.266 . S
Co816 O819 1.970 . S
Co816 N833 1.989 . S
Co816 O841 1.967 . S
Co816 O848 1.920 . S
Co817 O820 1.966 . S
Co817 N826 2.022 1_565 S
Co817 N834 1.993 . S
Co817 O842 1.941 . S
C818 O819 1.258 . S
C818 O820 1.263 . S
O819 Co816 1.970 . S
O819 C818 1.258 . S
O820 Co817 1.966 . S
O820 C818 1.263 . S
C821 O822 1.235 . S
C821 O848 1.289 . S
O822 C821 1.235 . S
C823 C825 1.400 1_565 S
C823 N826 1.351 1_565 S
C823 C828 1.501 . S
C824 C825 1.387 . S
C824 N827 1.341 . S
C825 C823 1.400 1_545 S
C825 C824 1.387 . S
N826 Co817 2.022 1_545 S
N826 C823 1.351 1_545 S
N826 N827 1.365 . S
N827 C824 1.341 . S
N827 N826 1.365 . S
N827 H847 0.862 . S
C828 C823 1.501 . S
C828 H829 0.961 . S
C828 H830 0.961 . S
C828 H831 0.960 . S
H829 C828 0.961 . S
H830 C828 0.961 . S
H831 C828 0.960 . S
C832 N833 1.342 . S
C832 C836 1.401 . S
C832 C837 1.499 . S
N833 Co816 1.989 . S
N833 C832 1.342 . S
N833 N834 1.388 . S
N834 Co817 1.993 . S
N834 N833 1.388 . S
N834 C835 1.346 1_565 S
C835 N834 1.346 1_545 S
C835 C836 1.396 1_545 S
C835 C845 1.510 . S
C836 C832 1.401 . S
C836 C835 1.396 1_565 S
C837 C832 1.499 . S
C837 H838 0.959 . S
C837 H839 0.960 . S
C837 H840 0.961 . S
H838 C837 0.959 . S
H839 C837 0.960 . S
H840 C837 0.961 . S
O841 Co816 1.967 . S
O841 C849 1.258 . S
O842 Co817 1.941 . S
O842 C849 1.266 . S
H843 C845 0.959 . S
H844 C845 0.961 . S
C845 C835 1.510 . S
C845 H843 0.959 . S
C845 H844 0.961 . S
C845 H846 0.960 . S
H846 C845 0.960 . S
H847 N827 0.862 . S
O848 Co816 1.920 . S
O848 C821 1.289 . S
C849 O841 1.258 . S
C849 O842 1.266 . S
Co850 O853 1.970 . S
Co850 N867 1.989 . S
Co850 O875 1.967 . S
Co850 O882 1.920 . S
Co851 O854 1.966 . S
Co851 N860 2.022 1_455 S
Co851 N868 1.993 . S
Co851 O876 1.941 . S
C852 O853 1.258 . S
C852 O854 1.263 . S
O853 Co850 1.970 . S
O853 C852 1.258 . S
O854 Co851 1.966 . S
O854 C852 1.263 . S
C855 O856 1.235 . S
C855 O882 1.289 . S
O856 C855 1.235 . S
C857 C859 1.400 1_455 S
C857 N860 1.351 1_455 S
C857 C862 1.501 . S
C858 C859 1.387 . S
C858 N861 1.341 . S
C859 C857 1.400 1_655 S
C859 C858 1.387 . S
N860 Co851 2.022 1_655 S
N860 C857 1.351 1_655 S
N860 N861 1.365 . S
N861 C858 1.341 . S
N861 N860 1.365 . S
N861 H881 0.862 . S
C862 C857 1.501 . S
C862 H863 0.961 . S
C862 H864 0.961 . S
C862 H865 0.960 . S
H863 C862 0.961 . S
H864 C862 0.961 . S
H865 C862 0.960 . S
C866 N867 1.342 . S
C866 C870 1.401 . S
C866 C871 1.499 . S
N867 Co850 1.989 . S
N867 C866 1.342 . S
N867 N868 1.388 . S
N868 Co851 1.993 . S
N868 N867 1.388 . S
N868 C869 1.346 1_455 S
C869 N868 1.346 1_655 S
C869 C870 1.396 1_655 S
C869 C879 1.510 . S
C870 C866 1.401 . S
C870 C869 1.396 1_455 S
C871 C866 1.499 . S
C871 H872 0.959 . S
C871 H873 0.960 . S
C871 H874 0.961 . S
H872 C871 0.959 . S
H873 C871 0.960 . S
H874 C871 0.961 . S
O875 Co850 1.967 . S
O875 C883 1.258 . S
O876 Co851 1.941 . S
O876 C883 1.266 . S
H877 C879 0.959 . S
H878 C879 0.961 . S
C879 C869 1.510 . S
C879 H877 0.959 . S
C879 H878 0.961 . S
C879 H880 0.960 . S
H880 C879 0.960 . S
H881 N861 0.862 . S
O882 Co850 1.920 . S
O882 C855 1.289 . S
C883 O875 1.258 . S
C883 O876 1.266 . S
Co884 O887 1.970 . S
Co884 N901 1.989 . S
Co884 O909 1.967 . S
Co884 O916 1.920 . S
Co885 O888 1.966 . S
Co885 N894 2.022 . S
Co885 N902 1.993 . S
Co885 O910 1.941 . S
C886 O887 1.258 . S
C886 O888 1.263 . S
O887 Co884 1.970 . S
O887 C886 1.258 . S
O888 Co885 1.966 . S
O888 C886 1.263 . S
C889 O890 1.235 . S
C889 O916 1.289 . S
O890 C889 1.235 . S
C891 C893 1.400 . S
C891 N894 1.351 . S
C891 C896 1.501 . S
C892 C893 1.387 . S
C892 N895 1.341 . S
C893 C891 1.400 . S
C893 C892 1.387 . S
N894 Co885 2.022 . S
N894 C891 1.351 . S
N894 N895 1.365 . S
N895 C892 1.341 . S
N895 N894 1.365 . S
N895 H915 0.862 . S
C896 C891 1.501 . S
C896 H897 0.961 . S
C896 H898 0.961 . S
C896 H899 0.960 . S
H897 C896 0.961 . S
H898 C896 0.961 . S
H899 C896 0.960 . S
C900 N901 1.342 . S
C900 C904 1.401 . S
C900 C905 1.499 . S
N901 Co884 1.989 . S
N901 C900 1.342 . S
N901 N902 1.388 . S
N902 Co885 1.993 . S
N902 N901 1.388 . S
N902 C903 1.346 . S
C903 N902 1.346 . S
C903 C904 1.396 . S
C903 C913 1.510 . S
C904 C900 1.401 . S
C904 C903 1.396 . S
C905 C900 1.499 . S
C905 H906 0.959 . S
C905 H907 0.960 . S
C905 H908 0.961 . S
H906 C905 0.959 . S
H907 C905 0.960 . S
H908 C905 0.961 . S
O909 Co884 1.967 . S
O909 C917 1.258 . S
O910 Co885 1.941 . S
O910 C917 1.266 . S
H911 C913 0.959 . S
H912 C913 0.961 . S
C913 C903 1.510 . S
C913 H911 0.959 . S
C913 H912 0.961 . S
C913 H914 0.960 . S
H914 C913 0.960 . S
H915 N895 0.862 . S
O916 Co884 1.920 . S
O916 C889 1.289 . S
C917 O909 1.258 . S
C917 O910 1.266 . S
Co918 O921 1.970 . S
Co918 N935 1.989 . S
Co918 O943 1.967 . S
Co918 O950 1.920 . S
Co919 O922 1.966 . S
Co919 N928 2.022 . S
Co919 N936 1.993 . S
Co919 O944 1.941 . S
C920 O921 1.258 . S
C920 O922 1.263 . S
O921 Co918 1.970 . S
O921 C920 1.258 . S
O922 Co919 1.966 . S
O922 C920 1.263 . S
C923 O924 1.235 . S
C923 O950 1.289 . S
O924 C923 1.235 . S
C925 C927 1.400 . S
C925 N928 1.351 . S
C925 C930 1.501 . S
C926 C927 1.387 . S
C926 N929 1.341 . S
C927 C925 1.400 . S
C927 C926 1.387 . S
N928 Co919 2.022 . S
N928 C925 1.351 . S
N928 N929 1.365 . S
N929 C926 1.341 . S
N929 N928 1.365 . S
N929 H949 0.862 . S
C930 C925 1.501 . S
C930 H931 0.961 . S
C930 H932 0.961 1_556 S
C930 H933 0.960 . S
H931 C930 0.961 . S
H932 C930 0.961 1_554 S
H933 C930 0.960 . S
C934 N935 1.342 . S
C934 C938 1.401 . S
C934 C939 1.499 . S
N935 Co918 1.989 . S
N935 C934 1.342 . S
N935 N936 1.388 . S
N936 Co919 1.993 . S
N936 N935 1.388 . S
N936 C937 1.346 . S
C937 N936 1.346 . S
C937 C938 1.396 . S
C937 C947 1.510 . S
C938 C934 1.401 . S
C938 C937 1.396 . S
C939 C934 1.499 . S
C939 H940 0.959 . S
C939 H941 0.960 . S
C939 H942 0.961 . S
H940 C939 0.959 . S
H941 C939 0.960 . S
H942 C939 0.961 . S
O943 Co918 1.967 . S
O943 C951 1.258 . S
O944 Co919 1.941 . S
O944 C951 1.266 . S
H945 C947 0.959 . S
H946 C947 0.961 1_554 S
C947 C937 1.510 . S
C947 H945 0.959 . S
C947 H946 0.961 1_556 S
C947 H948 0.960 . S
H948 C947 0.960 . S
H949 N929 0.862 . S
O950 Co918 1.920 . S
O950 C923 1.289 . S
C951 O943 1.258 . S
C951 O944 1.266 . S
Co952 O955 1.970 . S
Co952 N969 1.989 . S
Co952 O977 1.967 . S
Co952 O984 1.920 . S
Co953 O956 1.966 . S
Co953 N962 2.022 . S
Co953 N970 1.993 . S
Co953 O978 1.941 . S
C954 O955 1.258 . S
C954 O956 1.263 . S
O955 Co952 1.970 . S
O955 C954 1.258 . S
O956 Co953 1.966 . S
O956 C954 1.263 . S
C957 O958 1.235 . S
C957 O984 1.289 . S
O958 C957 1.235 . S
C959 C961 1.400 1_565 S
C959 N962 1.351 . S
C959 C964 1.501 . S
C960 C961 1.387 . S
C960 N963 1.341 . S
C961 C959 1.400 1_545 S
C961 C960 1.387 . S
N962 Co953 2.022 . S
N962 C959 1.351 . S
N962 N963 1.365 1_565 S
N963 C960 1.341 . S
N963 N962 1.365 1_545 S
N963 H983 0.862 1_545 S
C964 C959 1.501 . S
C964 H965 0.961 . S
C964 H966 0.961 1_556 S
C964 H967 0.960 1_565 S
H965 C964 0.961 . S
H966 C964 0.961 1_554 S
H967 C964 0.960 1_545 S
C968 N969 1.342 . S
C968 C972 1.401 . S
C968 C973 1.499 . S
N969 Co952 1.989 . S
N969 C968 1.342 . S
N969 N970 1.388 . S
N970 Co953 1.993 . S
N970 N969 1.388 . S
N970 C971 1.346 . S
C971 N970 1.346 . S
C971 C972 1.396 . S
C971 C981 1.510 . S
C972 C968 1.401 . S
C972 C971 1.396 . S
C973 C968 1.499 . S
C973 H974 0.959 . S
C973 H975 0.960 . S
C973 H976 0.961 . S
H974 C973 0.959 . S
H975 C973 0.960 . S
H976 C973 0.961 . S
O977 Co952 1.967 . S
O977 C985 1.258 . S
O978 Co953 1.941 . S
O978 C985 1.266 . S
H979 C981 0.959 . S
H980 C981 0.961 1_554 S
C981 C971 1.510 . S
C981 H979 0.959 . S
C981 H980 0.961 1_556 S
C981 H982 0.960 . S
H982 C981 0.960 . S
H983 N963 0.862 1_565 S
O984 Co952 1.920 . S
O984 C957 1.289 . S
C985 O977 1.258 . S
C985 O978 1.266 . S
Co986 O989 1.970 . S
Co986 N1003 1.989 . S
Co986 O1011 1.967 . S
Co986 O1018 1.920 . S
Co987 O990 1.966 . S
Co987 N996 2.022 . S
Co987 N1004 1.993 . S
Co987 O1012 1.941 . S
C988 O989 1.258 . S
C988 O990 1.263 . S
O989 Co986 1.970 . S
O989 C988 1.258 . S
O990 Co987 1.966 . S
O990 C988 1.263 . S
C991 O992 1.235 . S
C991 O1018 1.289 . S
O992 C991 1.235 . S
C993 C995 1.400 1_455 S
C993 N996 1.352 . S
C993 C998 1.500 . S
C994 C995 1.387 . S
C994 N997 1.341 . S
C995 C993 1.400 1_655 S
C995 C994 1.387 . S
N996 Co987 2.022 . S
N996 C993 1.352 . S
N996 N997 1.365 1_455 S
N997 C994 1.341 . S
N997 N996 1.365 1_655 S
N997 H1017 0.862 1_655 S
C998 C993 1.500 . S
C998 H999 0.961 . S
C998 H1000 0.961 1_556 S
C998 H1001 0.960 1_455 S
H999 C998 0.961 . S
H1000 C998 0.961 1_554 S
H1001 C998 0.960 1_655 S
C1002 N1003 1.342 . S
C1002 C1006 1.401 . S
C1002 C1007 1.499 . S
N1003 Co986 1.989 . S
N1003 C1002 1.342 . S
N1003 N1004 1.388 . S
N1004 Co987 1.993 . S
N1004 N1003 1.388 . S
N1004 C1005 1.346 . S
C1005 N1004 1.346 . S
C1005 C1006 1.396 . S
C1005 C1015 1.510 . S
C1006 C1002 1.401 . S
C1006 C1005 1.396 . S
C1007 C1002 1.499 . S
C1007 H1008 0.959 . S
C1007 H1009 0.960 . S
C1007 H1010 0.961 . S
H1008 C1007 0.959 . S
H1009 C1007 0.960 . S
H1010 C1007 0.961 . S
O1011 Co986 1.967 . S
O1011 C1019 1.258 . S
O1012 Co987 1.941 . S
O1012 C1019 1.266 . S
H1013 C1015 0.959 . S
H1014 C1015 0.961 1_554 S
C1015 C1005 1.510 . S
C1015 H1013 0.959 . S
C1015 H1014 0.961 1_556 S
C1015 H1016 0.960 . S
H1016 C1015 0.960 . S
H1017 N997 0.862 1_455 S
O1018 Co986 1.920 . S
O1018 C991 1.289 . S
C1019 O1011 1.258 . S
C1019 O1012 1.266 . S
Co1020 O1023 1.970 . S
Co1020 N1037 1.989 . S
Co1020 O1045 1.967 . S
Co1020 O1052 1.920 . S
Co1021 O1024 1.966 . S
Co1021 N1030 2.022 . S
Co1021 N1038 1.993 . S
Co1021 O1046 1.941 . S
C1022 O1023 1.258 . S
C1022 O1024 1.263 . S
O1023 Co1020 1.970 . S
O1023 C1022 1.258 . S
O1024 Co1021 1.966 . S
O1024 C1022 1.263 . S
C1025 O1026 1.235 . S
C1025 O1052 1.289 . S
O1026 C1025 1.235 . S
C1027 C1029 1.400 . S
C1027 N1030 1.351 . S
C1027 C1032 1.501 . S
C1028 C1029 1.387 . S
C1028 N1031 1.341 . S
C1029 C1027 1.400 . S
C1029 C1028 1.387 . S
N1030 Co1021 2.022 . S
N1030 C1027 1.351 . S
N1030 N1031 1.365 . S
N1031 C1028 1.341 . S
N1031 N1030 1.365 . S
N1031 H1051 0.862 . S
C1032 C1027 1.501 . S
C1032 H1033 0.961 . S
C1032 H1034 0.961 . S
C1032 H1035 0.960 . S
H1033 C1032 0.961 . S
H1034 C1032 0.961 . S
H1035 C1032 0.960 . S
C1036 N1037 1.342 . S
C1036 C1040 1.401 . S
C1036 C1041 1.499 . S
N1037 Co1020 1.989 . S
N1037 C1036 1.342 . S
N1037 N1038 1.388 . S
N1038 Co1021 1.993 . S
N1038 N1037 1.388 . S
N1038 C1039 1.346 . S
C1039 N1038 1.346 . S
C1039 C1040 1.396 . S
C1039 C1049 1.510 . S
C1040 C1036 1.401 . S
C1040 C1039 1.396 . S
C1041 C1036 1.499 . S
C1041 H1042 0.959 . S
C1041 H1043 0.960 . S
C1041 H1044 0.961 . S
H1042 C1041 0.959 . S
H1043 C1041 0.960 . S
H1044 C1041 0.961 . S
O1045 Co1020 1.967 . S
O1045 C1053 1.258 . S
O1046 Co1021 1.941 . S
O1046 C1053 1.266 . S
H1047 C1049 0.959 . S
H1048 C1049 0.961 . S
C1049 C1039 1.510 . S
C1049 H1047 0.959 . S
C1049 H1048 0.961 . S
C1049 H1050 0.960 . S
H1050 C1049 0.960 . S
H1051 N1031 0.862 . S
O1052 Co1020 1.920 . S
O1052 C1025 1.289 . S
C1053 O1045 1.258 . S
C1053 O1046 1.266 . S
Co1054 O1057 1.970 . S
Co1054 N1071 1.989 . S
Co1054 O1079 1.967 . S
Co1054 O1086 1.920 . S
Co1055 O1058 1.966 . S
Co1055 N1064 2.022 . S
Co1055 N1072 1.993 . S
Co1055 O1080 1.941 . S
C1056 O1057 1.258 . S
C1056 O1058 1.263 . S
O1057 Co1054 1.970 . S
O1057 C1056 1.258 . S
O1058 Co1055 1.966 . S
O1058 C1056 1.263 . S
C1059 O1060 1.235 . S
C1059 O1086 1.289 . S
O1060 C1059 1.235 . S
C1061 C1063 1.400 1_565 S
C1061 N1064 1.352 . S
C1061 C1066 1.500 . S
C1062 C1063 1.387 . S
C1062 N1065 1.341 . S
C1063 C1061 1.400 1_545 S
C1063 C1062 1.387 . S
N1064 Co1055 2.022 . S
N1064 C1061 1.352 . S
N1064 N1065 1.365 1_565 S
N1065 C1062 1.341 . S
N1065 N1064 1.365 1_545 S
N1065 H1085 0.862 1_545 S
C1066 C1061 1.500 . S
C1066 H1067 0.961 . S
C1066 H1068 0.961 . S
C1066 H1069 0.960 1_565 S
H1067 C1066 0.961 . S
H1068 C1066 0.961 . S
H1069 C1066 0.960 1_545 S
C1070 N1071 1.342 . S
C1070 C1074 1.401 . S
C1070 C1075 1.499 . S
N1071 Co1054 1.989 . S
N1071 C1070 1.342 . S
N1071 N1072 1.388 . S
N1072 Co1055 1.993 . S
N1072 N1071 1.388 . S
N1072 C1073 1.346 . S
C1073 N1072 1.346 . S
C1073 C1074 1.396 . S
C1073 C1083 1.510 . S
C1074 C1070 1.401 . S
C1074 C1073 1.396 . S
C1075 C1070 1.499 . S
C1075 H1076 0.959 . S
C1075 H1077 0.960 . S
C1075 H1078 0.961 . S
H1076 C1075 0.959 . S
H1077 C1075 0.960 . S
H1078 C1075 0.961 . S
O1079 Co1054 1.967 . S
O1079 C1087 1.258 . S
O1080 Co1055 1.941 . S
O1080 C1087 1.266 . S
H1081 C1083 0.959 . S
H1082 C1083 0.961 . S
C1083 C1073 1.510 . S
C1083 H1081 0.959 . S
C1083 H1082 0.961 . S
C1083 H1084 0.960 . S
H1084 C1083 0.960 . S
H1085 N1065 0.862 1_565 S
O1086 Co1054 1.920 . S
O1086 C1059 1.289 . S
C1087 O1079 1.258 . S
C1087 O1080 1.266 . S
Co1088 O1091 1.970 . S
Co1088 N1105 1.989 . S
Co1088 O1113 1.967 . S
Co1088 O1120 1.920 . S
Co1089 O1092 1.966 . S
Co1089 N1098 2.022 . S
Co1089 N1106 1.993 . S
Co1089 O1114 1.941 . S
C1090 O1091 1.258 . S
C1090 O1092 1.263 . S
O1091 Co1088 1.970 . S
O1091 C1090 1.258 . S
O1092 Co1089 1.966 . S
O1092 C1090 1.263 . S
C1093 O1094 1.235 . S
C1093 O1120 1.289 . S
O1094 C1093 1.235 . S
C1095 C1097 1.400 1_455 S
C1095 N1098 1.351 . S
C1095 C1100 1.501 . S
C1096 C1097 1.387 . S
C1096 N1099 1.341 . S
C1097 C1095 1.400 1_655 S
C1097 C1096 1.387 . S
N1098 Co1089 2.022 . S
N1098 C1095 1.351 . S
N1098 N1099 1.365 1_455 S
N1099 C1096 1.341 . S
N1099 N1098 1.365 1_655 S
N1099 H1119 0.862 1_655 S
C1100 C1095 1.501 . S
C1100 H1101 0.961 . S
C1100 H1102 0.961 . S
C1100 H1103 0.960 1_455 S
H1101 C1100 0.961 . S
H1102 C1100 0.961 . S
H1103 C1100 0.960 1_655 S
C1104 N1105 1.342 . S
C1104 C1108 1.401 . S
C1104 C1109 1.499 . S
N1105 Co1088 1.989 . S
N1105 C1104 1.342 . S
N1105 N1106 1.388 . S
N1106 Co1089 1.993 . S
N1106 N1105 1.388 . S
N1106 C1107 1.346 . S
C1107 N1106 1.346 . S
C1107 C1108 1.396 . S
C1107 C1117 1.510 . S
C1108 C1104 1.401 . S
C1108 C1107 1.396 . S
C1109 C1104 1.499 . S
C1109 H1110 0.959 . S
C1109 H1111 0.960 . S
C1109 H1112 0.961 . S
H1110 C1109 0.959 . S
H1111 C1109 0.960 . S
H1112 C1109 0.961 . S
O1113 Co1088 1.967 . S
O1113 C1121 1.258 . S
O1114 Co1089 1.941 . S
O1114 C1121 1.266 . S
H1115 C1117 0.959 . S
H1116 C1117 0.961 . S
C1117 C1107 1.510 . S
C1117 H1115 0.959 . S
C1117 H1116 0.961 . S
C1117 H1118 0.960 . S
H1118 C1117 0.960 . S
H1119 N1099 0.862 1_455 S
O1120 Co1088 1.920 . S
O1120 C1093 1.289 . S
C1121 O1113 1.258 . S
C1121 O1114 1.266 . S
Co1122 O1125 1.970 . S
Co1122 N1139 1.989 . S
Co1122 O1147 1.967 . S
Co1122 O1154 1.920 . S
Co1123 O1126 1.966 . S
Co1123 N1132 2.022 1_455 S
Co1123 N1140 1.993 . S
Co1123 O1148 1.941 . S
C1124 O1125 1.258 . S
C1124 O1126 1.263 . S
O1125 Co1122 1.970 . S
O1125 C1124 1.258 . S
O1126 Co1123 1.966 . S
O1126 C1124 1.263 . S
C1127 O1128 1.235 . S
C1127 O1154 1.289 . S
O1128 C1127 1.235 . S
C1129 C1131 1.400 1_455 S
C1129 N1132 1.351 1_455 S
C1129 C1134 1.501 . S
C1130 C1131 1.387 . S
C1130 N1133 1.341 . S
C1131 C1129 1.400 1_655 S
C1131 C1130 1.387 . S
N1132 Co1123 2.022 1_655 S
N1132 C1129 1.351 1_655 S
N1132 N1133 1.365 . S
N1133 C1130 1.341 . S
N1133 N1132 1.365 . S
N1133 H1153 0.862 . S
C1134 C1129 1.501 . S
C1134 H1135 0.961 . S
C1134 H1136 0.961 . S
C1134 H1137 0.960 . S
H1135 C1134 0.961 . S
H1136 C1134 0.961 . S
H1137 C1134 0.960 . S
C1138 N1139 1.342 . S
C1138 C1142 1.401 . S
C1138 C1143 1.499 . S
N1139 Co1122 1.989 . S
N1139 C1138 1.342 . S
N1139 N1140 1.388 . S
N1140 Co1123 1.993 . S
N1140 N1139 1.388 . S
N1140 C1141 1.346 1_455 S
C1141 N1140 1.346 1_655 S
C1141 C1142 1.396 1_655 S
C1141 C1151 1.510 . S
C1142 C1138 1.401 . S
C1142 C1141 1.396 1_455 S
C1143 C1138 1.499 . S
C1143 H1144 0.959 . S
C1143 H1145 0.960 . S
C1143 H1146 0.961 . S
H1144 C1143 0.959 . S
H1145 C1143 0.960 . S
H1146 C1143 0.961 . S
O1147 Co1122 1.967 . S
O1147 C1155 1.258 . S
O1148 Co1123 1.941 . S
O1148 C1155 1.266 . S
H1149 C1151 0.959 . S
H1150 C1151 0.961 . S
C1151 C1141 1.510 . S
C1151 H1149 0.959 . S
C1151 H1150 0.961 . S
C1151 H1152 0.960 . S
H1152 C1151 0.960 . S
H1153 N1133 0.862 . S
O1154 Co1122 1.920 . S
O1154 C1127 1.289 . S
C1155 O1147 1.258 . S
C1155 O1148 1.266 . S
Co1156 O1159 1.970 . S
Co1156 N1173 1.989 . S
Co1156 O1181 1.967 . S
Co1156 O1188 1.920 . S
Co1157 O1160 1.966 . S
Co1157 N1166 2.022 . S
Co1157 N1174 1.993 . S
Co1157 O1182 1.941 . S
C1158 O1159 1.258 . S
C1158 O1160 1.263 . S
O1159 Co1156 1.970 . S
O1159 C1158 1.258 . S
O1160 Co1157 1.966 . S
O1160 C1158 1.263 . S
C1161 O1162 1.235 . S
C1161 O1188 1.289 . S
O1162 C1161 1.235 . S
C1163 C1165 1.400 . S
C1163 N1166 1.351 . S
C1163 C1168 1.501 . S
C1164 C1165 1.387 . S
C1164 N1167 1.341 . S
C1165 C1163 1.400 . S
C1165 C1164 1.387 . S
N1166 Co1157 2.022 . S
N1166 C1163 1.351 . S
N1166 N1167 1.365 . S
N1167 C1164 1.341 . S
N1167 N1166 1.365 . S
N1167 H1187 0.862 . S
C1168 C1163 1.501 . S
C1168 H1169 0.961 . S
C1168 H1170 0.961 . S
C1168 H1171 0.960 . S
H1169 C1168 0.961 . S
H1170 C1168 0.961 . S
H1171 C1168 0.960 . S
C1172 N1173 1.342 . S
C1172 C1176 1.401 . S
C1172 C1177 1.499 . S
N1173 Co1156 1.989 . S
N1173 C1172 1.342 . S
N1173 N1174 1.388 . S
N1174 Co1157 1.993 . S
N1174 N1173 1.388 . S
N1174 C1175 1.346 . S
C1175 N1174 1.346 . S
C1175 C1176 1.396 . S
C1175 C1185 1.510 . S
C1176 C1172 1.401 . S
C1176 C1175 1.396 . S
C1177 C1172 1.499 . S
C1177 H1178 0.959 . S
C1177 H1179 0.960 . S
C1177 H1180 0.961 . S
H1178 C1177 0.959 . S
H1179 C1177 0.960 . S
H1180 C1177 0.961 . S
O1181 Co1156 1.967 . S
O1181 C1189 1.258 . S
O1182 Co1157 1.941 . S
O1182 C1189 1.266 . S
H1183 C1185 0.959 . S
H1184 C1185 0.961 . S
C1185 C1175 1.510 . S
C1185 H1183 0.959 . S
C1185 H1184 0.961 . S
C1185 H1186 0.960 . S
H1186 C1185 0.960 . S
H1187 N1167 0.862 . S
O1188 Co1156 1.920 . S
O1188 C1161 1.289 . S
C1189 O1181 1.258 . S
C1189 O1182 1.266 . S
Co1190 O1193 1.970 . S
Co1190 N1207 1.989 . S
Co1190 O1215 1.967 . S
Co1190 O1222 1.920 . S
Co1191 O1194 1.966 . S
Co1191 N1200 2.022 1_565 S
Co1191 N1208 1.993 . S
Co1191 O1216 1.941 . S
C1192 O1193 1.258 . S
C1192 O1194 1.263 . S
O1193 Co1190 1.970 . S
O1193 C1192 1.258 . S
O1194 Co1191 1.966 . S
O1194 C1192 1.263 . S
C1195 O1196 1.235 . S
C1195 O1222 1.289 . S
O1196 C1195 1.235 . S
C1197 C1199 1.400 1_565 S
C1197 N1200 1.351 1_565 S
C1197 C1202 1.501 . S
C1198 C1199 1.387 . S
C1198 N1201 1.341 . S
C1199 C1197 1.400 1_545 S
C1199 C1198 1.387 . S
N1200 Co1191 2.022 1_545 S
N1200 C1197 1.351 1_545 S
N1200 N1201 1.365 . S
N1201 C1198 1.341 . S
N1201 N1200 1.365 . S
N1201 H1221 0.862 . S
C1202 C1197 1.501 . S
C1202 H1203 0.961 . S
C1202 H1204 0.961 . S
C1202 H1205 0.960 . S
H1203 C1202 0.961 . S
H1204 C1202 0.961 . S
H1205 C1202 0.960 . S
C1206 N1207 1.342 . S
C1206 C1210 1.401 . S
C1206 C1211 1.499 . S
N1207 Co1190 1.989 . S
N1207 C1206 1.342 . S
N1207 N1208 1.388 . S
N1208 Co1191 1.993 . S
N1208 N1207 1.388 . S
N1208 C1209 1.346 1_565 S
C1209 N1208 1.346 1_545 S
C1209 C1210 1.396 1_545 S
C1209 C1219 1.510 . S
C1210 C1206 1.401 . S
C1210 C1209 1.396 1_565 S
C1211 C1206 1.499 . S
C1211 H1212 0.959 . S
C1211 H1213 0.960 . S
C1211 H1214 0.961 . S
H1212 C1211 0.959 . S
H1213 C1211 0.960 . S
H1214 C1211 0.961 . S
O1215 Co1190 1.967 . S
O1215 C1223 1.258 . S
O1216 Co1191 1.941 . S
O1216 C1223 1.266 . S
H1217 C1219 0.959 . S
H1218 C1219 0.961 . S
C1219 C1209 1.510 . S
C1219 H1217 0.959 . S
C1219 H1218 0.961 . S
C1219 H1220 0.960 . S
H1220 C1219 0.960 . S
H1221 N1201 0.862 . S
O1222 Co1190 1.920 . S
O1222 C1195 1.289 . S
C1223 O1215 1.258 . S
C1223 O1216 1.266 . S
C5 C70 1.664 . S
C2 C39 1.664 . S
C36 C73 1.664 . S
C138 C107 1.664 . S
C172 C141 1.664 . S
C104 C175 1.664 . S
C274 C209 1.664 . S
C243 C206 1.664 . S
C240 C277 1.664 . S
C342 C311 1.664 . S
C345 C376 1.664 . S
C308 C379 1.664 . S
C413 C478 1.664 . S
C447 C410 1.664 . S
C481 C444 1.664 . S
C546 C515 1.664 . S
C580 C549 1.664 . S
C583 C512 1.664 . S
C617 C682 1.664 . S
C651 C614 1.664 . S
C685 C648 1.664 . S
C750 C719 1.663 . S
C784 C753 1.664 . S
C787 C716 1.664 . S
C886 C821 1.664 . S
C818 C855 1.664 . S
C889 C852 1.663 . S
C954 C923 1.664 . S
C957 C988 1.664 . S
C920 C991 1.664 . S
C1090 C1025 1.664 . S
C1059 C1022 1.664 . S
C1093 C1056 1.664 . S
C1158 C1127 1.664 . S
C1192 C1161 1.664 . S
C1195 C1124 1.664 . S
C689 C20 1.927 . S
C54 C621 1.927 . S
C88 C655 1.926 . S
C1165 C122 1.927 . S
C1199 C156 1.927 . S
C190 C1131 1.927 . S
C224 C893 1.927 . S
C258 C825 1.927 . S
C292 C859 1.927 . S
C553 C326 1.927 . S
C360 C587 1.927 . S
C394 C519 1.926 . S
C428 C1097 1.927 . S
C1029 C462 1.927 . S
C1063 C496 1.927 . S
C530 C349 1.927 1_655 S
C564 C383 1.927 . S
C598 C315 1.927 1_545 S
C77 C632 1.927 1_565 S
C666 C9 1.926 1_655 S
C700 C43 1.927 . S
C961 C734 1.926 1_556 S
C768 C995 1.927 1_554 S
C802 C927 1.926 1_554 S
C281 C836 1.927 1_545 S
C213 C870 1.926 1_655 S
C904 C247 1.926 . S
C938 C757 1.927 1_556 S
C791 C972 1.927 1_554 S
C1006 C723 1.926 1_556 S
C485 C1040 1.927 . S
C1074 C417 1.927 . S
C1108 C451 1.927 . S
C145 C1142 1.927 1_655 S
C1176 C179 1.927 . S
C111 C1210 1.926 1_545 S
C169 C33 2.685 1_655 S
C67 C203 2.685 . S
C101 C135 2.686 1_565 S
C237 C373 2.685 1_655 S
C271 C407 2.685 . S
C305 C339 2.685 1_545 S
C577 C441 2.686 . S
C611 C475 2.685 . S
C543 C509 2.685 . S
C781 C645 2.686 . S
C815 C679 2.685 . S
C747 C713 2.685 . S
C985 C849 2.686 . S
C883 C1019 2.685 . S
C951 C917 2.685 . S
C1189 C1053 2.686 . S
C1223 C1087 2.685 . S
C1121 C1155 2.685 . S
