# Generated by pormake.
# Topology eta, (3)-cn, num edge types: 1
# Building blocks:
#     Node 0, Type 0, BuildingBlock: WUSLED_clean_sbu_0, # of connection points: 3
#     Node 1, Type 0, BuildingBlock: WUSLED_clean_sbu_0, # of connection points: 3
#     Node 2, Type 0, BuildingBlock: WUSLED_clean_sbu_0, # of connection points: 3
#     Node 3, Type 0, BuildingBlock: WUSLED_clean_sbu_0, # of connection points: 3
#     Node 4, Type 0, BuildingBlock: WUSLED_clean_sbu_0, # of connection points: 3
#     Node 5, Type 0, BuildingBlock: WUSLED_clean_sbu_0, # of connection points: 3
#     Edge 6, Type (0, 0), BuildingBlock: FUNLAD_clean_linker_1, # of connection points: 2
#     Edge 7, Type (0, 0), BuildingBlock: FUNLAD_clean_linker_1, # of connection points: 2
#     Edge 8, Type (0, 0), BuildingBlock: FUNLAD_clean_linker_1, # of connection points: 2
#     Edge 9, Type (0, 0), BuildingBlock: FUNLAD_clean_linker_1, # of connection points: 2
#     Edge 10, Type (0, 0), BuildingBlock: FUNLAD_clean_linker_1, # of connection points: 2
#     Edge 11, Type (0, 0), BuildingBlock: FUNLAD_clean_linker_1, # of connection points: 2
#     Edge 12, Type (0, 0), BuildingBlock: FUNLAD_clean_linker_1, # of connection points: 2
#     Edge 13, Type (0, 0), BuildingBlock: FUNLAD_clean_linker_1, # of connection points: 2
#     Edge 14, Type (0, 0), BuildingBlock: FUNLAD_clean_linker_1, # of connection points: 2
# Relax obj value: 0.000
# Max RMSD: 0.005
# Mean RMSD: 0.004
data_MOF--net-eta--node1-WUSLED_clean_sbu_0--edge1-FUNLAD_clean_linker_1
_symmetry_space_group_name_H-M    P1
_symmetry_Int_Tables_number       1
_symmetry_cell_setting            triclinic
loop_
_symmetry_equiv_pos_as_xyz
'x, y, z'
_cell_length_a     68.521938
_cell_length_b     69.305221
_cell_length_c     56.202222
_cell_angle_alpha  89.562887
_cell_angle_beta   89.802034
_cell_angle_gamma 120.89193
loop_
_atom_site_label
_atom_site_type_symbol
_atom_site_fract_x
_atom_site_fract_y
_atom_site_fract_z
_atom_type_partial_charge
C0 C 0.25489 0.61069 0.12697 0.0
C1 C 0.27751 0.61802 0.13288 0.0
C2 C 0.28636 0.61544 0.0913 0.0
C3 C 0.29307 0.62036 0.1152 0.0
C4 C 0.26366 0.60838 0.0855 0.0
C5 C 0.24812 0.60597 0.1032 0.0
U6 U 0.23944 0.6233 0.18823 0.0
O7 O 0.2125 0.63031 0.19797 0.0
O8 O 0.21241 0.6011 0.21345 0.0
C9 C 0.20145 0.61196 0.21109 0.0
C10 C 0.2382 0.6082 0.14517 0.0
C11 C 0.17681 0.59797 0.20681 0.0
C12 C 0.13831 0.58839 0.217 0.0
C13 C 0.16183 0.60198 0.21992 0.0
C14 C 0.14441 0.56662 0.18758 0.0
C15 C 0.12929 0.5705 0.20076 0.0
C16 C 0.16797 0.58032 0.19044 0.0
C17 C 0.28699 0.66203 0.23097 0.0
C18 C 0.28119 0.67796 0.26681 0.0
C19 C 0.31807 0.68255 0.25857 0.0
C20 C 0.30963 0.67041 0.23756 0.0
C21 C 0.30391 0.68646 0.27351 0.0
C22 C 0.27274 0.66573 0.2458 0.0
C23 C 0.27884 0.65004 0.2083 0.0
O24 O 0.23732 0.59711 0.16463 0.0
O25 O 0.23738 0.62639 0.14941 0.0
O26 O 0.26868 0.65725 0.19407 0.0
O27 O 0.26842 0.628 0.20966 0.0
H28 H 0.28313 0.62195 0.15113 0.0
H29 H 0.31043 0.62603 0.12023 0.0
H30 H 0.25772 0.60501 0.06738 0.0
H31 H 0.23078 0.60053 0.09828 0.0
H32 H 0.12736 0.59159 0.22807 0.0
H33 H 0.16834 0.61542 0.23276 0.0
H34 H 0.13797 0.55289 0.1751 0.0
H35 H 0.17926 0.57694 0.18013 0.0
H36 H 0.26995 0.68085 0.27783 0.0
H37 H 0.33583 0.68934 0.26258 0.0
H38 H 0.32092 0.66786 0.22623 0.0
H39 H 0.25519 0.6594 0.241 0.0
C40 C 0.61466 0.23443 0.58591 0.0
C41 C 0.63473 0.25459 0.59147 0.0
C42 C 0.61406 0.26353 0.62056 0.0
C43 C 0.63445 0.26902 0.60866 0.0
C44 C 0.59402 0.24359 0.61454 0.0
C45 C 0.59434 0.22913 0.59753 0.0
U46 U 0.63063 0.21967 0.5257 0.0
O47 O 0.64005 0.19445 0.51754 0.0
O48 O 0.60944 0.19161 0.50185 0.0
C49 C 0.62166 0.18213 0.50497 0.0
C50 C 0.6144 0.21843 0.56847 0.0
C51 C 0.60874 0.15799 0.51103 0.0
C52 C 0.58326 0.12704 0.53725 0.0
C53 C 0.59555 0.1501 0.5319 0.0
C54 C 0.59739 0.11956 0.50104 0.0
C55 C 0.58383 0.11144 0.52182 0.0
C56 C 0.60963 0.1426 0.49572 0.0
C57 C 0.6669 0.26629 0.48021 0.0
C58 C 0.68141 0.25999 0.44338 0.0
C59 C 0.68489 0.29606 0.45037 0.0
C60 C 0.67409 0.28822 0.47248 0.0
C61 C 0.68887 0.28207 0.43557 0.0
C62 C 0.67054 0.25216 0.4655 0.0
C63 C 0.65534 0.25843 0.50345 0.0
O64 O 0.60288 0.21591 0.54892 0.0
O65 O 0.63374 0.21921 0.56461 0.0
O66 O 0.66391 0.24988 0.51812 0.0
O67 O 0.63301 0.24674 0.50282 0.0
H68 H 0.65061 0.25922 0.58257 0.0
H69 H 0.65013 0.28453 0.61227 0.0
H70 H 0.57805 0.23901 0.62323 0.0
H71 H 0.57866 0.21371 0.59351 0.0
H72 H 0.57319 0.12137 0.55348 0.0
H73 H 0.59474 0.16177 0.54401 0.0
H74 H 0.59897 0.10836 0.48898 0.0
H75 H 0.61991 0.14843 0.47963 0.0
H76 H 0.684 0.24874 0.43233 0.0
H77 H 0.68963 0.31291 0.44493 0.0
H78 H 0.67118 0.29928 0.48351 0.0
H79 H 0.66494 0.23508 0.4711 0.0
C80 C 0.45972 0.65178 0.79284 0.0
C81 C 0.44254 0.65712 0.79249 0.0
C82 C 0.45803 0.67834 0.7554 0.0
C83 C 0.44169 0.67032 0.77394 0.0
C84 C 0.47543 0.67329 0.75627 0.0
C85 C 0.47622 0.66009 0.77474 0.0
U86 U 0.44209 0.62176 0.85374 0.0
O87 O 0.43447 0.58775 0.86356 0.0
O88 O 0.46283 0.61719 0.88043 0.0
C89 C 0.45209 0.59528 0.87769 0.0
C90 C 0.46063 0.63735 0.81165 0.0
C91 C 0.46664 0.58563 0.87405 0.0
C92 C 0.49574 0.5831 0.85182 0.0
C93 C 0.48182 0.59227 0.8547 0.0
C94 C 0.47934 0.56047 0.88748 0.0
C95 C 0.4946 0.56699 0.86806 0.0
C96 C 0.46548 0.56967 0.89035 0.0
C97 C 0.39945 0.62758 0.89352 0.0
C98 C 0.39447 0.62366 0.93659 0.0
C99 C 0.36385 0.61974 0.91177 0.0
C100 C 0.3773 0.6236 0.89149 0.0
C101 C 0.37233 0.62004 0.93457 0.0
C102 C 0.40789 0.62737 0.91623 0.0
C103 C 0.4134 0.63234 0.87172 0.0
O104 O 0.47025 0.64742 0.83164 0.0
O105 O 0.44195 0.61776 0.81496 0.0
O106 O 0.40718 0.61531 0.85736 0.0
O107 O 0.43557 0.64484 0.87417 0.0
H108 H 0.42977 0.65101 0.80648 0.0
H109 H 0.42834 0.67426 0.77439 0.0
H110 H 0.48834 0.67933 0.74241 0.0
H111 H 0.48967 0.65622 0.77477 0.0
H112 H 0.50745 0.58861 0.83684 0.0
H113 H 0.48298 0.60462 0.84194 0.0
H114 H 0.47834 0.5487 0.90086 0.0
H115 H 0.45397 0.56448 0.90549 0.0
H116 H 0.40141 0.62337 0.95375 0.0
H117 H 0.34684 0.61682 0.90962 0.0
H118 H 0.37042 0.62363 0.87417 0.0
H119 H 0.42485 0.63013 0.91826 0.0
C120 C 0.82524 0.43625 0.12694 0.0
C121 C 0.80256 0.41851 0.12855 0.0
C122 C 0.79437 0.42929 0.09009 0.0
C123 C 0.78732 0.415 0.1102 0.0
C124 C 0.81716 0.4471 0.08867 0.0
C125 C 0.83238 0.45053 0.10696 0.0
U126 U 0.84053 0.42733 0.1901 0.0
O127 O 0.86795 0.42185 0.20192 0.0
O128 O 0.86712 0.45147 0.21396 0.0
C129 C 0.87851 0.44093 0.21346 0.0
C130 C 0.8418 0.43991 0.14561 0.0
C131 C 0.90315 0.45504 0.20889 0.0
C132 C 0.93543 0.48459 0.18681 0.0
C133 C 0.91187 0.47089 0.1902 0.0
C134 C 0.94174 0.46649 0.22046 0.0
C135 C 0.95066 0.48251 0.20181 0.0
C136 C 0.91823 0.45289 0.22387 0.0
C137 C 0.79336 0.39096 0.23546 0.0
C138 C 0.76597 0.35934 0.25992 0.0
C139 C 0.79486 0.39344 0.27866 0.0
C140 C 0.80359 0.40303 0.25625 0.0
C141 C 0.77599 0.3715 0.28079 0.0
C142 C 0.77461 0.36901 0.23751 0.0
C143 C 0.80133 0.40116 0.21157 0.0
O144 O 0.84221 0.4519 0.16381 0.0
O145 O 0.84295 0.4222 0.15189 0.0
O146 O 0.8119 0.39336 0.1989 0.0
O147 O 0.81098 0.42315 0.21012 0.0
H148 H 0.79672 0.40729 0.14386 0.0
H149 H 0.76996 0.40105 0.11171 0.0
H150 H 0.82355 0.45809 0.07323 0.0
H151 H 0.84986 0.46421 0.10534 0.0
H152 H 0.94177 0.4969 0.17245 0.0
H153 H 0.90048 0.47281 0.17842 0.0
H154 H 0.95276 0.46477 0.23292 0.0
H155 H 0.91181 0.44086 0.2385 0.0
H156 H 0.75105 0.34265 0.26072 0.0
H157 H 0.80283 0.40325 0.2944 0.0
H158 H 0.81813 0.41999 0.25519 0.0
H159 H 0.76636 0.35946 0.22171 0.0
C160 C 0.41351 0.81007 0.46154 0.0
C161 C 0.4118 0.78902 0.46107 0.0
C162 C 0.38908 0.77926 0.42494 0.0
C163 C 0.39972 0.7738 0.44293 0.0
C164 C 0.39036 0.80022 0.42594 0.0
C165 C 0.40254 0.81545 0.44401 0.0
U166 U 0.43953 0.82608 0.52383 0.0
O167 O 0.47308 0.85367 0.53476 0.0
O168 O 0.4422 0.85229 0.54787 0.0
C169 C 0.46453 0.86397 0.54657 0.0
C170 C 0.42679 0.82673 0.47993 0.0
C171 C 0.47483 0.88812 0.54116 0.0
C172 C 0.48559 0.91884 0.513 0.0
C173 C 0.47497 0.89575 0.51793 0.0
C174 C 0.49581 0.92686 0.55448 0.0
C175 C 0.49607 0.93469 0.53119 0.0
C176 C 0.48523 0.90379 0.55937 0.0
C177 C 0.43044 0.77923 0.56795 0.0
C178 C 0.43373 0.78153 0.61107 0.0
C179 C 0.43301 0.75057 0.59057 0.0
C180 C 0.43111 0.75936 0.5688 0.0
C181 C 0.43437 0.76158 0.61202 0.0
C182 C 0.43195 0.79039 0.58923 0.0
C183 C 0.42739 0.78743 0.54476 0.0
O184 O 0.41524 0.82668 0.49866 0.0
O185 O 0.44644 0.82882 0.48535 0.0
O186 O 0.44573 0.79841 0.53136 0.0
O187 O 0.41469 0.79661 0.54476 0.0
H188 H 0.41997 0.78442 0.47458 0.0
H189 H 0.39891 0.75777 0.44284 0.0
H190 H 0.38201 0.80508 0.41301 0.0
H191 H 0.40347 0.83153 0.44423 0.0
H192 H 0.48566 0.92433 0.49488 0.0
H193 H 0.46707 0.88388 0.50361 0.0
H194 H 0.5042 0.93838 0.56892 0.0
H195 H 0.48545 0.89819 0.57736 0.0
H196 H 0.43457 0.79027 0.62728 0.0
H197 H 0.43272 0.73482 0.59048 0.0
H198 H 0.42978 0.7504 0.5526 0.0
H199 H 0.43148 0.80578 0.58901 0.0
C200 C 0.6227 0.39589 0.79484 0.0
C201 C 0.63945 0.3901 0.79726 0.0
C202 C 0.62784 0.36969 0.75986 0.0
C203 C 0.64206 0.37723 0.77985 0.0
C204 C 0.61108 0.37561 0.75754 0.0
C205 C 0.60855 0.38854 0.77492 0.0
U206 U 0.63522 0.42407 0.8557 0.0
O207 O 0.64244 0.45793 0.86518 0.0
O208 O 0.61275 0.42801 0.88061 0.0
C209 C 0.62383 0.45002 0.87815 0.0
C210 C 0.62006 0.4099 0.81263 0.0
C211 C 0.60984 0.46025 0.87379 0.0
C212 C 0.57669 0.45922 0.85685 0.0
C213 C 0.59039 0.44976 0.85949 0.0
C214 C 0.60203 0.49003 0.88222 0.0
C215 C 0.58233 0.47946 0.86814 0.0
C216 C 0.61562 0.4805 0.88494 0.0
C217 C 0.67372 0.41588 0.8992 0.0
C218 C 0.69391 0.4394 0.93294 0.0
C219 C 0.68906 0.40238 0.9297 0.0
C220 C 0.67719 0.39906 0.90847 0.0
C221 C 0.69795 0.4228 0.94205 0.0
C222 C 0.68192 0.436 0.91174 0.0
C223 C 0.66183 0.41212 0.87634 0.0
O224 O 0.60872 0.39935 0.83204 0.0
O225 O 0.63846 0.42936 0.81692 0.0
O226 O 0.66939 0.42967 0.86204 0.0
O227 O 0.63952 0.39989 0.8774 0.0
H228 H 0.65058 0.39567 0.81253 0.0
H229 H 0.65521 0.3731 0.78203 0.0
H230 H 0.60021 0.37079 0.74213 0.0
H231 H 0.59565 0.39301 0.77267 0.0
H232 H 0.56155 0.45062 0.84606 0.0
H233 H 0.58559 0.4341 0.85068 0.0
H234 H 0.60668 0.50524 0.89183 0.0
H235 H 0.63047 0.48876 0.89619 0.0
H236 H 0.70029 0.4552 0.94211 0.0
H237 H 0.69103 0.38878 0.93625 0.0
H238 H 0.67078 0.38331 0.89918 0.0
H239 H 0.67924 0.44916 0.90505 0.0
H240 H 0.33919 0.60826 0.95246 0.0
C241 C 0.35736 0.61613 0.95557 0.0
H242 H 0.38308 0.63225 0.98145 0.0
H243 H 0.31939 0.65412 0.04412 0.0
H244 H 0.34663 0.69105 0.02846 0.0
H245 H 0.37542 0.69599 0.99869 0.0
H246 H 0.37696 0.66392 0.98423 0.0
C247 C 0.365 0.62286 0.97779 0.0
C248 C 0.34897 0.61993 0.99746 0.0
C249 C 0.34874 0.6389 1.00636 0.0
C250 C 0.33242 0.63609 1.02394 0.0
C251 C 0.33183 0.65526 0.03143 0.0
C252 C 0.34729 0.6766 1.02244 0.0
C253 C 0.36347 0.67938 1.00565 0.0
C254 C 0.3642 0.66081 0.99754 0.0
H255 H 0.32145 0.62747 0.07832 0.0
C256 C 0.30369 0.61857 0.07304 0.0
H257 H 0.28124 0.60064 0.04491 0.0
H258 H 0.34633 0.58033 0.98612 0.0
H259 H 0.31956 0.54335 1.00228 0.0
H260 H 0.29132 0.53841 0.03276 0.0
H261 H 0.2897 0.57041 0.04733 0.0
C262 C 0.29872 0.61089 0.05059 0.0
C263 C 0.31671 0.61431 0.03309 0.0
C264 C 0.31736 0.59541 0.02461 0.0
C265 C 0.33354 0.59822 1.00689 0.0
C266 C 0.33409 0.5791 0.99917 0.0
C267 C 0.31891 0.55778 1.00841 0.0
C268 C 0.30302 0.555 0.02558 0.0
C269 C 0.30222 0.57352 0.03371 0.0
H270 H 0.69828 0.27664 0.39947 0.0
C271 C 0.69992 0.28952 0.41163 0.0
H272 H 0.71541 0.3247 0.4163 0.0
H273 H 0.78999 0.35294 0.33625 0.0
H274 H 0.81282 0.36138 0.37175 0.0
H275 H 0.79476 0.35001 0.41144 0.0
H276 H 0.75371 0.32993 0.41585 0.0
C277 C 0.71194 0.31116 0.40428 0.0
C278 C 0.72265 0.31767 0.38012 0.0
C279 C 0.74669 0.3298 0.37782 0.0
C280 C 0.75714 0.33677 0.35494 0.0
C281 C 0.78116 0.34795 0.3532 0.0
C282 C 0.79449 0.35273 0.37344 0.0
C283 C 0.78432 0.34631 0.39578 0.0
C284 C 0.76072 0.33486 0.39806 0.0
H285 H 0.76993 0.37446 0.31897 0.0
C286 C 0.76646 0.36243 0.30492 0.0
H287 H 0.75067 0.32782 0.29688 0.0
H288 H 0.6761 0.29587 0.37809 0.0
H289 H 0.65329 0.2872 0.3426 0.0
H290 H 0.67136 0.29888 0.30294 0.0
H291 H 0.71238 0.31943 0.29857 0.0
C292 C 0.75418 0.34032 0.31034 0.0
C293 C 0.74353 0.33212 0.33436 0.0
C294 C 0.71947 0.31964 0.33661 0.0
C295 C 0.70902 0.31259 0.35949 0.0
C296 C 0.68498 0.30107 0.36119 0.0
C297 C 0.67164 0.29611 0.34094 0.0
C298 C 0.68181 0.30271 0.31862 0.0
C299 C 0.70541 0.31445 0.31637 0.0
H300 H 0.473 0.7006 0.72381 0.0
C301 C 0.45776 0.692 0.7349 0.0
H302 H 0.42346 0.68371 0.73775 0.0
H303 H 0.47203 0.77262 0.66364 0.0
H304 H 0.49318 0.79398 0.69796 0.0
H305 H 0.48964 0.7751 0.73649 0.0
H306 H 0.46519 0.73466 0.74079 0.0
C307 C 0.43954 0.69322 0.7283 0.0
C308 C 0.43993 0.70512 0.70587 0.0
C309 C 0.45363 0.72888 0.70386 0.0
C310 C 0.45494 0.73988 0.68188 0.0
C311 C 0.46971 0.76347 0.68009 0.0
C312 C 0.48208 0.77594 0.69963 0.0
C313 C 0.48015 0.7653 0.7213 0.0
C314 C 0.46613 0.74206 0.7235 0.0
H315 H 0.42895 0.75672 0.65107 0.0
C316 C 0.43519 0.75207 0.63562 0.0
H317 H 0.45005 0.73354 0.62381 0.0
H318 H 0.41166 0.65943 0.70374 0.0
H319 H 0.38932 0.6382 0.66991 0.0
H320 H 0.39044 0.65736 0.63232 0.0
H321 H 0.41402 0.69786 0.62827 0.0
C322 C 0.44338 0.73824 0.63877 0.0
C323 C 0.44186 0.72718 0.66217 0.0
C324 C 0.42771 0.70349 0.66441 0.0
C325 C 0.42679 0.69246 0.68622 0.0
C326 C 0.41282 0.66873 0.68772 0.0
C327 C 0.39991 0.65631 0.66841 0.0
C328 C 0.40057 0.66709 0.64724 0.0
C329 C 0.41425 0.69038 0.64515 0.0
H330 H 0.76347 0.40734 0.06916 0.0
C331 C 0.77793 0.42439 0.07046 0.0
H332 H 0.79397 0.45713 0.05528 0.0
H333 H 0.75804 0.42722 0.95135 0.0
H334 H 0.79787 0.43926 0.94651 0.0
H335 H 0.82284 0.44868 0.98135 0.0
H336 H 0.80815 0.44622 1.02125 0.0
C337 C 0.77997 0.43987 0.0544 0.0
C338 C 0.76446 0.43368 0.03359 0.0
C339 C 0.77326 0.43504 1.01035 0.0
C340 C 0.75877 0.42926 0.99027 0.0
C341 C 0.76815 0.43106 0.96727 0.0
C342 C 0.79103 0.43802 0.96421 0.0
C343 C 0.80509 0.44335 0.98382 0.0
C344 C 0.79642 0.44191 1.00665 0.0
H345 H 0.71498 0.44233 0.97439 0.0
C346 C 0.71143 0.42753 0.96434 0.0
H347 H 0.7186 0.40126 0.962 0.0
H348 H 0.74258 0.43149 0.07529 0.0
H349 H 0.70248 0.41835 0.08029 0.0
H350 H 0.67684 0.40597 0.04579 0.0
H351 H 0.6912 0.40702 1.00603 0.0
C352 C 0.72034 0.41526 0.97218 0.0
C353 C 0.73543 0.42199 0.99339 0.0
C354 C 0.72658 0.42056 1.01665 0.0
C355 C 0.7412 0.42681 0.03671 0.0
C356 C 0.73212 0.4262 0.05956 0.0
C357 C 0.70915 0.41881 0.06267 0.0
C358 C 0.69472 0.4119 0.04323 0.0
C359 C 0.70323 0.41271 1.02046 0.0
H360 H 0.37483 0.74606 0.40767 0.0
C361 C 0.37699 0.76267 0.40561 0.0
H362 H 0.37244 0.78387 0.38173 0.0
H363 H 0.36786 0.73374 0.28785 0.0
H364 H 0.4047 0.76782 0.28365 0.0
H365 H 0.42145 0.79424 0.31696 0.0
H366 H 0.4014 0.78681 0.35463 0.0
C367 C 0.36951 0.76721 0.38538 0.0
C368 C 0.35951 0.75055 0.36577 0.0
C369 C 0.37155 0.75501 0.34389 0.0
C370 C 0.36205 0.73958 0.3248 0.0
C371 C 0.37437 0.74469 0.30307 0.0
C372 C 0.39553 0.76423 0.30038 0.0
C373 C 0.40495 0.77912 0.31911 0.0
C374 C 0.3932 0.77466 0.34064 0.0
H375 H 0.30346 0.7083 0.30187 0.0
C376 C 0.31259 0.70036 0.29535 0.0
H377 H 0.34037 0.6957 0.30165 0.0
H378 H 0.33094 0.73767 0.40447 0.0
H379 H 0.29472 0.70293 0.40918 0.0
H380 H 0.27942 0.67506 0.37701 0.0
H381 H 0.30008 0.68195 0.33978 0.0
C382 C 0.33099 0.70358 0.30738 0.0
C383 C 0.34055 0.71961 0.32758 0.0
C384 C 0.32863 0.71497 0.34957 0.0
C385 C 0.33792 0.73064 0.36852 0.0
C386 C 0.32511 0.72605 0.38982 0.0
C387 C 0.30422 0.70621 0.39271 0.0
C388 C 0.29557 0.69055 0.37457 0.0
C389 C 0.30755 0.69477 0.35323 0.0
H390 H 0.64809 0.35788 0.74076 0.0
C391 C 0.63156 0.3565 0.74145 0.0
H392 H 0.59861 0.34041 0.72651 0.0
H393 H 0.62645 0.32204 0.62618 0.0
H394 H 0.61888 0.35171 0.61638 0.0
H395 H 0.61189 0.37199 0.64799 0.0
H396 H 0.61249 0.36279 0.68958 0.0
C397 C 0.61542 0.34252 0.72619 0.0
C398 C 0.62017 0.33038 0.70732 0.0
C399 C 0.61952 0.33578 0.68304 0.0
C400 C 0.62335 0.32394 0.66478 0.0
C401 C 0.62317 0.33013 0.64074 0.0
C402 C 0.61898 0.34723 0.63486 0.0
C403 C 0.61506 0.35866 0.65266 0.0
C404 C 0.61538 0.35314 0.67648 0.0
H405 H 0.59614 0.27606 0.64266 0.0
C406 C 0.61277 0.27829 0.63885 0.0
H407 H 0.64714 0.29497 0.64983 0.0
H408 H 0.62085 0.31437 0.75191 0.0
H409 H 0.62886 0.28503 0.7616 0.0
H410 H 0.6366 0.26532 0.72996 0.0
H411 H 0.63617 0.27473 0.68839 0.0
C412 C 0.63059 0.29334 0.65173 0.0
C413 C 0.62759 0.30652 0.67078 0.0
C414 C 0.62858 0.30133 0.69503 0.0
C415 C 0.62457 0.31304 0.71332 0.0
C416 C 0.6245 0.30661 0.73732 0.0
C417 C 0.62891 0.28964 0.74314 0.0
C418 C 0.63323 0.27852 0.72533 0.0
C419 C 0.63298 0.28414 0.70153 0.0
H420 H 0.09858 0.53801 0.19163 0.0
C421 C 0.10431 0.55478 0.19826 0.0
H422 H 0.09363 0.57683 0.21022 0.0
H423 H 0.99926 0.49502 0.16088 0.0
H424 H 1.01983 0.5076 0.12336 0.0
H425 H 0.06048 0.53704 0.12222 0.0
H426 H 0.0809 0.55383 0.15863 0.0
C427 C 0.08858 0.56017 0.20387 0.0
C428 C 0.06375 0.54308 0.20403 0.0
C429 C 0.05188 0.53393 0.18251 0.0
C430 C 1.02819 0.51753 0.18309 0.0
C431 C 1.01703 0.50801 0.16142 0.0
C432 C 1.02867 0.515 0.13976 0.0
C433 C 0.05158 0.53153 0.13913 0.0
C434 C 0.06313 0.54096 0.16018 0.0
H435 H 0.9812 0.51402 0.18922 0.0
C436 C 0.9756 0.49814 0.19842 0.0
H437 H 0.98654 0.47786 0.21514 0.0
H438 H 0.08125 0.55711 0.24855 0.0
H439 H 0.06043 0.54536 0.28593 0.0
H440 H 1.0192 0.51791 0.28683 0.0
H441 H 0.99854 0.50195 0.25037 0.0
C442 C 0.99146 0.49366 0.2062 0.0
C443 C 1.01625 0.51085 0.20514 0.0
C444 C 1.02808 0.52017 0.22661 0.0
C445 C 0.05181 0.53626 0.22606 0.0
C446 C 0.06319 0.54506 0.24785 0.0
C447 C 0.05145 0.53843 0.26947 0.0
C448 C 1.02825 0.52295 0.26998 0.0
C449 C 1.01661 0.51388 0.24889 0.0
H450 H 0.5647 0.08262 0.54671 0.0
C451 C 0.57068 0.08706 0.52841 0.0
H452 H 0.56955 0.07379 0.49425 0.0
H453 H 0.54931 0.98743 0.56377 0.0
H454 H 0.58771 1.01132 0.57809 0.0
H455 H 0.61039 0.05119 0.5658 0.0
H456 H 0.59477 0.06746 0.53927 0.0
C457 C 0.56539 0.07028 0.51301 0.0
C458 C 0.55186 0.04615 0.52055 0.0
C459 C 0.56136 0.03683 0.53593 0.0
C460 C 0.54839 1.0137 0.54272 0.0
C461 C 0.55833 1.00487 0.55807 0.0
C462 C 0.5804 1.01837 0.56638 0.0
C463 C 0.59316 0.04083 0.55949 0.0
C464 C 0.5839 0.05 0.54436 0.0
H465 H 0.51254 0.96389 0.50637 0.0
C466 C 0.50794 0.95912 0.52494 0.0
H467 H 0.50841 0.97153 0.55943 0.0
H468 H 0.52858 0.05856 0.49079 0.0
H469 H 0.49012 0.03468 0.47657 0.0
H470 H 0.46746 0.9948 0.48883 0.0
H471 H 0.48316 0.9785 0.51526 0.0
C472 C 0.51291 0.9755 0.54078 0.0
C473 C 0.52612 0.99978 0.53378 0.0
C474 C 0.51657 1.00913 0.51851 0.0
C475 C 0.52953 0.03226 0.51173 0.0
C476 C 0.51956 0.04111 0.49645 0.0
C477 C 0.49746 0.02761 0.48821 0.0
C478 C 0.48471 1.00515 0.4951 0.0
C479 C 0.49401 0.99596 0.51015 0.0
H480 H 0.52541 0.56808 0.85386 0.0
C481 C 0.51029 0.55823 0.86483 0.0
H482 H 0.49171 0.52833 0.88538 0.0
H483 H 0.56121 0.50605 0.82519 0.0
H484 H 0.53978 0.50479 0.79039 0.0
H485 H 0.51043 0.51524 0.79299 0.0
H486 H 0.50258 0.52735 0.83034 0.0
C487 C 0.50671 0.53884 0.87458 0.0
C488 C 0.52395 0.53185 0.87277 0.0
C489 C 0.52787 0.52418 0.85094 0.0
C490 C 0.54422 0.51732 0.84965 0.0
C491 C 0.54847 0.51069 0.82739 0.0
C492 C 0.53638 0.51002 0.80723 0.0
C493 C 0.5199 0.51597 0.80868 0.0
C494 C 0.51562 0.52298 0.83022 0.0
H495 H 0.5489 0.47635 0.86185 0.0
C496 C 0.56656 0.48824 0.86617 0.0
H497 H 0.59049 0.52232 0.87355 0.0
H498 H 0.52084 0.54595 0.91723 0.0
H499 H 0.54156 0.54632 0.95227 0.0
H500 H 0.56895 0.53331 0.95037 0.0
H501 H 0.57587 0.51995 0.91341 0.0
C502 C 0.57296 0.50993 0.86955 0.0
C503 C 0.55607 0.51744 0.87037 0.0
C504 C 0.55211 0.5251 0.89217 0.0
C505 C 0.53607 0.53231 0.89336 0.0
C506 C 0.53262 0.54003 0.91536 0.0
C507 C 0.54444 0.54038 0.93562 0.0
C508 C 0.55988 0.53309 0.93454 0.0
C509 C 0.56372 0.5255 0.91316 0.0
loop_
_geom_bond_atom_site_label_1
_geom_bond_atom_site_label_2
_geom_bond_distance
_geom_bond_site_symmetry_2
_ccdc_geom_bond_type
C0 C1 1.264 . S
C0 C5 1.479 . S
C0 C10 1.465 . S
C1 C0 1.264 . S
C1 C3 1.339 . S
C1 H28 0.931 . S
C2 C3 1.395 . S
C2 C4 1.320 . S
C3 C1 1.339 . S
C3 C2 1.395 . S
C3 H29 0.929 . S
C4 C2 1.320 . S
C4 C5 1.405 . S
C4 H30 0.930 . S
C5 C0 1.479 . S
C5 C4 1.405 . S
C5 H31 0.931 . S
U6 O7 2.454 . S
U6 O8 2.458 . S
U6 C9 2.984 . S
U6 C10 2.847 . S
U6 C23 2.882 . S
U6 O24 2.441 . S
U6 O25 2.420 . S
U6 O26 2.455 . S
U6 O27 2.449 . S
O7 U6 2.454 . S
O7 C9 1.353 . S
O8 U6 2.458 . S
O8 C9 1.286 . S
C9 U6 2.984 . S
C9 O7 1.353 . S
C9 O8 1.286 . S
C9 C11 1.363 . S
C10 C0 1.465 . S
C10 U6 2.847 . S
C10 O24 1.249 . S
C10 O25 1.202 . S
C11 C9 1.363 . S
C11 C13 1.408 . S
C11 C16 1.342 . S
C12 C13 1.310 . S
C12 C15 1.461 . S
C12 H32 0.932 . S
C13 C11 1.408 . S
C13 C12 1.310 . S
C13 H33 0.930 . S
C14 C15 1.474 . S
C14 C16 1.285 . S
C14 H34 0.929 . S
C15 C12 1.461 . S
C15 C14 1.474 . S
C16 C11 1.342 . S
C16 C14 1.285 . S
C16 H35 0.930 . S
C17 C20 1.424 . S
C17 C22 1.245 . S
C17 C23 1.428 . S
C18 C21 1.260 . S
C18 C22 1.477 . S
C18 H36 0.932 . S
C19 C20 1.384 . S
C19 C21 1.479 . S
C19 H37 0.929 . S
C20 C17 1.424 . S
C20 C19 1.384 . S
C20 H38 0.928 . S
C21 C18 1.260 . S
C21 C19 1.479 . S
C22 C17 1.245 . S
C22 C18 1.477 . S
C22 H39 0.932 . S
C23 U6 2.882 . S
C23 C17 1.428 . S
C23 O26 1.301 . S
C23 O27 1.282 . S
O24 U6 2.441 . S
O24 C10 1.249 . S
O25 U6 2.420 . S
O25 C10 1.202 . S
O26 U6 2.455 . S
O26 C23 1.301 . S
O27 U6 2.449 . S
O27 C23 1.282 . S
H28 C1 0.931 . S
H29 C3 0.929 . S
H30 C4 0.930 . S
H31 C5 0.931 . S
H32 C12 0.932 . S
H33 C13 0.930 . S
H34 C14 0.929 . S
H35 C16 0.930 . S
H36 C18 0.932 . S
H37 C19 0.929 . S
H38 C20 0.928 . S
H39 C22 0.932 . S
C40 C41 1.264 . S
C40 C45 1.479 . S
C40 C50 1.465 . S
C41 C40 1.264 . S
C41 C43 1.339 . S
C41 H68 0.931 . S
C42 C43 1.395 . S
C42 C44 1.320 . S
C43 C41 1.339 . S
C43 C42 1.395 . S
C43 H69 0.929 . S
C44 C42 1.320 . S
C44 C45 1.405 . S
C44 H70 0.930 . S
C45 C40 1.479 . S
C45 C44 1.405 . S
C45 H71 0.931 . S
U46 O47 2.454 . S
U46 O48 2.458 . S
U46 C49 2.984 . S
U46 C50 2.847 . S
U46 C63 2.882 . S
U46 O64 2.441 . S
U46 O65 2.420 . S
U46 O66 2.455 . S
U46 O67 2.449 . S
O47 U46 2.454 . S
O47 C49 1.353 . S
O48 U46 2.458 . S
O48 C49 1.286 . S
C49 U46 2.984 . S
C49 O47 1.353 . S
C49 O48 1.286 . S
C49 C51 1.363 . S
C50 C40 1.465 . S
C50 U46 2.847 . S
C50 O64 1.249 . S
C50 O65 1.202 . S
C51 C49 1.363 . S
C51 C53 1.408 . S
C51 C56 1.342 . S
C52 C53 1.310 . S
C52 C55 1.461 . S
C52 H72 0.932 . S
C53 C51 1.408 . S
C53 C52 1.310 . S
C53 H73 0.930 . S
C54 C55 1.474 . S
C54 C56 1.285 . S
C54 H74 0.929 . S
C55 C52 1.461 . S
C55 C54 1.474 . S
C56 C51 1.342 . S
C56 C54 1.285 . S
C56 H75 0.930 . S
C57 C60 1.424 . S
C57 C62 1.245 . S
C57 C63 1.428 . S
C58 C61 1.260 . S
C58 C62 1.477 . S
C58 H76 0.932 . S
C59 C60 1.384 . S
C59 C61 1.479 . S
C59 H77 0.929 . S
C60 C57 1.424 . S
C60 C59 1.384 . S
C60 H78 0.928 . S
C61 C58 1.260 . S
C61 C59 1.479 . S
C62 C57 1.245 . S
C62 C58 1.477 . S
C62 H79 0.932 . S
C63 U46 2.882 . S
C63 C57 1.428 . S
C63 O66 1.301 . S
C63 O67 1.282 . S
O64 U46 2.441 . S
O64 C50 1.249 . S
O65 U46 2.420 . S
O65 C50 1.202 . S
O66 U46 2.455 . S
O66 C63 1.301 . S
O67 U46 2.449 . S
O67 C63 1.282 . S
H68 C41 0.931 . S
H69 C43 0.929 . S
H70 C44 0.930 . S
H71 C45 0.931 . S
H72 C52 0.932 . S
H73 C53 0.930 . S
H74 C54 0.929 . S
H75 C56 0.930 . S
H76 C58 0.932 . S
H77 C59 0.929 . S
H78 C60 0.928 . S
H79 C62 0.932 . S
C80 C81 1.264 . S
C80 C85 1.479 . S
C80 C90 1.465 . S
C81 C80 1.264 . S
C81 C83 1.339 . S
C81 H108 0.931 . S
C82 C83 1.395 . S
C82 C84 1.320 . S
C83 C81 1.339 . S
C83 C82 1.395 . S
C83 H109 0.929 . S
C84 C82 1.320 . S
C84 C85 1.405 . S
C84 H110 0.930 . S
C85 C80 1.479 . S
C85 C84 1.405 . S
C85 H111 0.931 . S
U86 O87 2.454 . S
U86 O88 2.458 . S
U86 C89 2.984 . S
U86 C90 2.847 . S
U86 C103 2.882 . S
U86 O104 2.441 . S
U86 O105 2.420 . S
U86 O106 2.455 . S
U86 O107 2.449 . S
O87 U86 2.454 . S
O87 C89 1.353 . S
O88 U86 2.458 . S
O88 C89 1.286 . S
C89 U86 2.984 . S
C89 O87 1.353 . S
C89 O88 1.286 . S
C89 C91 1.363 . S
C90 C80 1.465 . S
C90 U86 2.847 . S
C90 O104 1.249 . S
C90 O105 1.202 . S
C91 C89 1.363 . S
C91 C93 1.408 . S
C91 C96 1.342 . S
C92 C93 1.310 . S
C92 C95 1.461 . S
C92 H112 0.932 . S
C93 C91 1.408 . S
C93 C92 1.310 . S
C93 H113 0.930 . S
C94 C95 1.474 . S
C94 C96 1.285 . S
C94 H114 0.929 . S
C95 C92 1.461 . S
C95 C94 1.474 . S
C96 C91 1.342 . S
C96 C94 1.285 . S
C96 H115 0.930 . S
C97 C100 1.424 . S
C97 C102 1.245 . S
C97 C103 1.428 . S
C98 C101 1.260 . S
C98 C102 1.477 . S
C98 H116 0.932 . S
C99 C100 1.384 . S
C99 C101 1.479 . S
C99 H117 0.929 . S
C100 C97 1.424 . S
C100 C99 1.384 . S
C100 H118 0.928 . S
C101 C98 1.260 . S
C101 C99 1.479 . S
C102 C97 1.245 . S
C102 C98 1.477 . S
C102 H119 0.932 . S
C103 U86 2.882 . S
C103 C97 1.428 . S
C103 O106 1.301 . S
C103 O107 1.282 . S
O104 U86 2.441 . S
O104 C90 1.249 . S
O105 U86 2.420 . S
O105 C90 1.202 . S
O106 U86 2.455 . S
O106 C103 1.301 . S
O107 U86 2.449 . S
O107 C103 1.282 . S
H108 C81 0.931 . S
H109 C83 0.929 . S
H110 C84 0.930 . S
H111 C85 0.931 . S
H112 C92 0.932 . S
H113 C93 0.930 . S
H114 C94 0.929 . S
H115 C96 0.930 . S
H116 C98 0.932 . S
H117 C99 0.929 . S
H118 C100 0.928 . S
H119 C102 0.932 . S
C120 C121 1.264 . S
C120 C125 1.479 . S
C120 C130 1.465 . S
C121 C120 1.264 . S
C121 C123 1.339 . S
C121 H148 0.931 . S
C122 C123 1.395 . S
C122 C124 1.320 . S
C123 C121 1.339 . S
C123 C122 1.395 . S
C123 H149 0.929 . S
C124 C122 1.320 . S
C124 C125 1.405 . S
C124 H150 0.930 . S
C125 C120 1.479 . S
C125 C124 1.405 . S
C125 H151 0.931 . S
U126 O127 2.454 . S
U126 O128 2.458 . S
U126 C129 2.984 . S
U126 C130 2.847 . S
U126 C143 2.882 . S
U126 O144 2.441 . S
U126 O145 2.420 . S
U126 O146 2.455 . S
U126 O147 2.449 . S
O127 U126 2.454 . S
O127 C129 1.353 . S
O128 U126 2.458 . S
O128 C129 1.286 . S
C129 U126 2.984 . S
C129 O127 1.353 . S
C129 O128 1.286 . S
C129 C131 1.363 . S
C130 C120 1.465 . S
C130 U126 2.847 . S
C130 O144 1.249 . S
C130 O145 1.202 . S
C131 C129 1.363 . S
C131 C133 1.408 . S
C131 C136 1.342 . S
C132 C133 1.310 . S
C132 C135 1.461 . S
C132 H152 0.932 . S
C133 C131 1.408 . S
C133 C132 1.310 . S
C133 H153 0.930 . S
C134 C135 1.474 . S
C134 C136 1.285 . S
C134 H154 0.929 . S
C135 C132 1.461 . S
C135 C134 1.474 . S
C136 C131 1.342 . S
C136 C134 1.285 . S
C136 H155 0.930 . S
C137 C140 1.424 . S
C137 C142 1.245 . S
C137 C143 1.428 . S
C138 C141 1.260 . S
C138 C142 1.477 . S
C138 H156 0.932 . S
C139 C140 1.384 . S
C139 C141 1.479 . S
C139 H157 0.929 . S
C140 C137 1.424 . S
C140 C139 1.384 . S
C140 H158 0.928 . S
C141 C138 1.260 . S
C141 C139 1.479 . S
C142 C137 1.245 . S
C142 C138 1.477 . S
C142 H159 0.932 . S
C143 U126 2.882 . S
C143 C137 1.428 . S
C143 O146 1.301 . S
C143 O147 1.282 . S
O144 U126 2.441 . S
O144 C130 1.249 . S
O145 U126 2.420 . S
O145 C130 1.202 . S
O146 U126 2.455 . S
O146 C143 1.301 . S
O147 U126 2.449 . S
O147 C143 1.282 . S
H148 C121 0.931 . S
H149 C123 0.929 . S
H150 C124 0.930 . S
H151 C125 0.931 . S
H152 C132 0.932 . S
H153 C133 0.930 . S
H154 C134 0.929 . S
H155 C136 0.930 . S
H156 C138 0.932 . S
H157 C139 0.929 . S
H158 C140 0.928 . S
H159 C142 0.932 . S
C160 C161 1.264 . S
C160 C165 1.479 . S
C160 C170 1.465 . S
C161 C160 1.264 . S
C161 C163 1.339 . S
C161 H188 0.931 . S
C162 C163 1.395 . S
C162 C164 1.320 . S
C163 C161 1.339 . S
C163 C162 1.395 . S
C163 H189 0.929 . S
C164 C162 1.320 . S
C164 C165 1.405 . S
C164 H190 0.930 . S
C165 C160 1.479 . S
C165 C164 1.405 . S
C165 H191 0.931 . S
U166 O167 2.454 . S
U166 O168 2.458 . S
U166 C169 2.984 . S
U166 C170 2.847 . S
U166 C183 2.882 . S
U166 O184 2.441 . S
U166 O185 2.420 . S
U166 O186 2.455 . S
U166 O187 2.449 . S
O167 U166 2.454 . S
O167 C169 1.353 . S
O168 U166 2.458 . S
O168 C169 1.286 . S
C169 U166 2.984 . S
C169 O167 1.353 . S
C169 O168 1.286 . S
C169 C171 1.363 . S
C170 C160 1.465 . S
C170 U166 2.847 . S
C170 O184 1.249 . S
C170 O185 1.202 . S
C171 C169 1.363 . S
C171 C173 1.408 . S
C171 C176 1.342 . S
C172 C173 1.310 . S
C172 C175 1.461 . S
C172 H192 0.932 . S
C173 C171 1.408 . S
C173 C172 1.310 . S
C173 H193 0.930 . S
C174 C175 1.474 . S
C174 C176 1.285 . S
C174 H194 0.929 . S
C175 C172 1.461 . S
C175 C174 1.474 . S
C176 C171 1.342 . S
C176 C174 1.285 . S
C176 H195 0.930 . S
C177 C180 1.424 . S
C177 C182 1.245 . S
C177 C183 1.428 . S
C178 C181 1.260 . S
C178 C182 1.477 . S
C178 H196 0.932 . S
C179 C180 1.384 . S
C179 C181 1.479 . S
C179 H197 0.929 . S
C180 C177 1.424 . S
C180 C179 1.384 . S
C180 H198 0.928 . S
C181 C178 1.260 . S
C181 C179 1.479 . S
C182 C177 1.245 . S
C182 C178 1.477 . S
C182 H199 0.932 . S
C183 U166 2.882 . S
C183 C177 1.428 . S
C183 O186 1.301 . S
C183 O187 1.282 . S
O184 U166 2.441 . S
O184 C170 1.249 . S
O185 U166 2.420 . S
O185 C170 1.202 . S
O186 U166 2.455 . S
O186 C183 1.301 . S
O187 U166 2.449 . S
O187 C183 1.282 . S
H188 C161 0.931 . S
H189 C163 0.929 . S
H190 C164 0.930 . S
H191 C165 0.931 . S
H192 C172 0.932 . S
H193 C173 0.930 . S
H194 C174 0.929 . S
H195 C176 0.930 . S
H196 C178 0.932 . S
H197 C179 0.929 . S
H198 C180 0.928 . S
H199 C182 0.932 . S
C200 C201 1.264 . S
C200 C205 1.479 . S
C200 C210 1.465 . S
C201 C200 1.264 . S
C201 C203 1.339 . S
C201 H228 0.931 . S
C202 C203 1.395 . S
C202 C204 1.320 . S
C203 C201 1.339 . S
C203 C202 1.395 . S
C203 H229 0.929 . S
C204 C202 1.320 . S
C204 C205 1.405 . S
C204 H230 0.930 . S
C205 C200 1.479 . S
C205 C204 1.405 . S
C205 H231 0.931 . S
U206 O207 2.454 . S
U206 O208 2.458 . S
U206 C209 2.984 . S
U206 C210 2.847 . S
U206 C223 2.882 . S
U206 O224 2.441 . S
U206 O225 2.420 . S
U206 O226 2.455 . S
U206 O227 2.449 . S
O207 U206 2.454 . S
O207 C209 1.353 . S
O208 U206 2.458 . S
O208 C209 1.286 . S
C209 U206 2.984 . S
C209 O207 1.353 . S
C209 O208 1.286 . S
C209 C211 1.363 . S
C210 C200 1.465 . S
C210 U206 2.847 . S
C210 O224 1.249 . S
C210 O225 1.202 . S
C211 C209 1.363 . S
C211 C213 1.408 . S
C211 C216 1.342 . S
C212 C213 1.310 . S
C212 C215 1.461 . S
C212 H232 0.932 . S
C213 C211 1.408 . S
C213 C212 1.310 . S
C213 H233 0.930 . S
C214 C215 1.474 . S
C214 C216 1.285 . S
C214 H234 0.929 . S
C215 C212 1.461 . S
C215 C214 1.474 . S
C216 C211 1.342 . S
C216 C214 1.285 . S
C216 H235 0.930 . S
C217 C220 1.424 . S
C217 C222 1.245 . S
C217 C223 1.428 . S
C218 C221 1.260 . S
C218 C222 1.477 . S
C218 H236 0.932 . S
C219 C220 1.384 . S
C219 C221 1.479 . S
C219 H237 0.929 . S
C220 C217 1.424 . S
C220 C219 1.384 . S
C220 H238 0.928 . S
C221 C218 1.260 . S
C221 C219 1.479 . S
C222 C217 1.245 . S
C222 C218 1.477 . S
C222 H239 0.932 . S
C223 U206 2.882 . S
C223 C217 1.428 . S
C223 O226 1.301 . S
C223 O227 1.282 . S
O224 U206 2.441 . S
O224 C210 1.249 . S
O225 U206 2.420 . S
O225 C210 1.202 . S
O226 U206 2.455 . S
O226 C223 1.301 . S
O227 U206 2.449 . S
O227 C223 1.282 . S
H228 C201 0.931 . S
H229 C203 0.929 . S
H230 C204 0.930 . S
H231 C205 0.931 . S
H232 C212 0.932 . S
H233 C213 0.930 . S
H234 C214 0.929 . S
H235 C216 0.930 . S
H236 C218 0.932 . S
H237 C219 0.929 . S
H238 C220 0.928 . S
H239 C222 0.932 . S
H240 C241 0.951 . S
C241 H240 0.951 . S
C241 C247 1.265 . S
H242 C247 0.950 . S
H243 C251 0.949 . S
H244 C252 0.950 . S
H245 C253 0.951 . S
H246 C254 0.951 . S
C247 C241 1.265 . S
C247 H242 0.950 . S
C247 C248 1.478 . S
C248 C247 1.478 . S
C248 C249 1.397 . S
C248 C265 1.394 . S
C249 C248 1.397 . S
C249 C250 1.438 1_556 S
C249 C254 1.429 . S
C250 C249 1.438 1_554 S
C250 C251 1.428 . S
C250 C263 1.394 . S
C251 H243 0.949 . S
C251 C250 1.428 . S
C251 C252 1.345 . S
C252 H244 0.950 . S
C252 C251 1.345 . S
C252 C253 1.424 . S
C253 H245 0.951 . S
C253 C252 1.424 . S
C253 C254 1.347 1_554 S
C254 H246 0.951 . S
C254 C249 1.429 . S
C254 C253 1.347 1_556 S
H255 C256 0.951 . S
C256 H255 0.951 . S
C256 C262 1.265 . S
H257 C262 0.950 . S
H258 C266 0.949 . S
H259 C267 0.950 . S
H260 C268 0.951 . S
H261 C269 0.951 . S
C262 C256 1.265 . S
C262 H257 0.950 . S
C262 C263 1.478 . S
C263 C250 1.394 . S
C263 C262 1.478 . S
C263 C264 1.427 . S
C264 C263 1.427 . S
C264 C265 1.406 1_554 S
C264 C269 1.432 . S
C265 C248 1.394 . S
C265 C264 1.406 1_556 S
C265 C266 1.428 . S
C266 H258 0.949 . S
C266 C265 1.428 . S
C266 C267 1.345 . S
C267 H259 0.950 . S
C267 C266 1.345 . S
C267 C268 1.424 . S
C268 H260 0.951 . S
C268 C267 1.424 . S
C268 C269 1.347 1_556 S
C269 H261 0.951 . S
C269 C264 1.432 . S
C269 C268 1.347 1_554 S
H270 C271 0.951 . S
C271 H270 0.951 . S
C271 C277 1.265 . S
H272 C277 0.950 . S
H273 C281 0.949 . S
H274 C282 0.950 . S
H275 C283 0.951 . S
H276 C284 0.951 . S
C277 C271 1.265 . S
C277 H272 0.950 . S
C277 C278 1.478 . S
C278 C277 1.478 . S
C278 C279 1.397 . S
C278 C295 1.394 . S
C279 C278 1.397 . S
C279 C280 1.438 . S
C279 C284 1.429 . S
C280 C279 1.438 . S
C280 C281 1.428 . S
C280 C293 1.394 . S
C281 H273 0.949 . S
C281 C280 1.428 . S
C281 C282 1.345 . S
C282 H274 0.950 . S
C282 C281 1.345 . S
C282 C283 1.424 . S
C283 H275 0.951 . S
C283 C282 1.424 . S
C283 C284 1.347 . S
C284 H276 0.951 . S
C284 C279 1.429 . S
C284 C283 1.347 . S
H285 C286 0.951 . S
C286 H285 0.951 . S
C286 C292 1.265 . S
H287 C292 0.950 . S
H288 C296 0.949 . S
H289 C297 0.950 . S
H290 C298 0.951 . S
H291 C299 0.951 . S
C292 C286 1.265 . S
C292 H287 0.950 . S
C292 C293 1.478 . S
C293 C280 1.394 . S
C293 C292 1.478 . S
C293 C294 1.397 . S
C294 C293 1.397 . S
C294 C295 1.438 . S
C294 C299 1.429 . S
C295 C278 1.394 . S
C295 C294 1.438 . S
C295 C296 1.428 . S
C296 H288 0.949 . S
C296 C295 1.428 . S
C296 C297 1.345 . S
C297 H289 0.950 . S
C297 C296 1.345 . S
C297 C298 1.424 . S
C298 H290 0.951 . S
C298 C297 1.424 . S
C298 C299 1.347 . S
C299 H291 0.951 . S
C299 C294 1.429 . S
C299 C298 1.347 . S
H300 C301 0.951 . S
C301 H300 0.951 . S
C301 C307 1.265 . S
H302 C307 0.950 . S
H303 C311 0.949 . S
H304 C312 0.950 . S
H305 C313 0.951 . S
H306 C314 0.951 . S
C307 C301 1.265 . S
C307 H302 0.950 . S
C307 C308 1.478 . S
C308 C307 1.478 . S
C308 C309 1.397 . S
C308 C325 1.394 . S
C309 C308 1.397 . S
C309 C310 1.438 . S
C309 C314 1.429 . S
C310 C309 1.438 . S
C310 C311 1.428 . S
C310 C323 1.394 . S
C311 H303 0.949 . S
C311 C310 1.428 . S
C311 C312 1.345 . S
C312 H304 0.950 . S
C312 C311 1.345 . S
C312 C313 1.424 . S
C313 H305 0.951 . S
C313 C312 1.424 . S
C313 C314 1.347 . S
C314 H306 0.951 . S
C314 C309 1.429 . S
C314 C313 1.347 . S
H315 C316 0.951 . S
C316 H315 0.951 . S
C316 C322 1.265 . S
H317 C322 0.950 . S
H318 C326 0.949 . S
H319 C327 0.950 . S
H320 C328 0.951 . S
H321 C329 0.951 . S
C322 C316 1.265 . S
C322 H317 0.950 . S
C322 C323 1.478 . S
C323 C310 1.394 . S
C323 C322 1.478 . S
C323 C324 1.397 . S
C324 C323 1.397 . S
C324 C325 1.438 . S
C324 C329 1.429 . S
C325 C308 1.394 . S
C325 C324 1.438 . S
C325 C326 1.428 . S
C326 H318 0.949 . S
C326 C325 1.428 . S
C326 C327 1.345 . S
C327 H319 0.950 . S
C327 C326 1.345 . S
C327 C328 1.424 . S
C328 H320 0.951 . S
C328 C327 1.424 . S
C328 C329 1.347 . S
C329 H321 0.951 . S
C329 C324 1.429 . S
C329 C328 1.347 . S
H330 C331 0.951 . S
C331 H330 0.951 . S
C331 C337 1.265 . S
H332 C337 0.950 . S
H333 C341 0.949 . S
H334 C342 0.950 . S
H335 C343 0.951 . S
H336 C344 0.951 1_554 S
C337 C331 1.265 . S
C337 H332 0.950 . S
C337 C338 1.478 . S
C338 C337 1.478 . S
C338 C339 1.397 1_554 S
C338 C355 1.394 . S
C339 C338 1.397 1_556 S
C339 C340 1.438 . S
C339 C344 1.429 . S
C340 C339 1.438 . S
C340 C341 1.428 . S
C340 C353 1.394 . S
C341 H333 0.949 . S
C341 C340 1.428 . S
C341 C342 1.345 . S
C342 H334 0.950 . S
C342 C341 1.345 . S
C342 C343 1.424 . S
C343 H335 0.951 . S
C343 C342 1.424 . S
C343 C344 1.347 . S
C344 H336 0.951 1_556 S
C344 C339 1.429 . S
C344 C343 1.347 . S
H345 C346 0.951 . S
C346 H345 0.951 . S
C346 C352 1.265 . S
H347 C352 0.950 . S
H348 C356 0.949 . S
H349 C357 0.950 . S
H350 C358 0.951 . S
H351 C359 0.936 1_556 S
C352 C346 1.265 . S
C352 H347 0.950 . S
C352 C353 1.478 . S
C353 C340 1.394 . S
C353 C352 1.478 . S
C353 C354 1.397 1_556 S
C354 C353 1.397 1_554 S
C354 C355 1.438 . S
C354 C359 1.429 . S
C355 C338 1.394 . S
C355 C354 1.438 . S
C355 C356 1.428 . S
C356 H348 0.949 . S
C356 C355 1.428 . S
C356 C357 1.345 . S
C357 H349 0.950 . S
C357 C356 1.345 . S
C357 C358 1.424 . S
C358 H350 0.951 . S
C358 C357 1.424 . S
C358 C359 1.347 . S
C359 H351 0.936 1_554 S
C359 C354 1.429 . S
C359 C358 1.347 . S
H360 C361 0.951 . S
C361 H360 0.951 . S
C361 C367 1.265 . S
H362 C367 0.950 . S
H363 C371 0.949 . S
H364 C372 0.950 . S
H365 C373 0.951 . S
H366 C374 0.951 . S
C367 C361 1.265 . S
C367 H362 0.950 . S
C367 C368 1.478 . S
C368 C367 1.478 . S
C368 C369 1.397 . S
C368 C385 1.394 . S
C369 C368 1.397 . S
C369 C370 1.438 . S
C369 C374 1.429 . S
C370 C369 1.438 . S
C370 C371 1.428 . S
C370 C383 1.394 . S
C371 H363 0.949 . S
C371 C370 1.428 . S
C371 C372 1.345 . S
C372 H364 0.950 . S
C372 C371 1.345 . S
C372 C373 1.424 . S
C373 H365 0.951 . S
C373 C372 1.424 . S
C373 C374 1.347 . S
C374 H366 0.951 . S
C374 C369 1.429 . S
C374 C373 1.347 . S
H375 C376 0.951 . S
C376 H375 0.951 . S
C376 C382 1.265 . S
H377 C382 0.950 . S
H378 C386 0.949 . S
H379 C387 0.950 . S
H380 C388 0.951 . S
H381 C389 0.951 . S
C382 C376 1.265 . S
C382 H377 0.950 . S
C382 C383 1.478 . S
C383 C370 1.394 . S
C383 C382 1.478 . S
C383 C384 1.397 . S
C384 C383 1.397 . S
C384 C385 1.438 . S
C384 C389 1.429 . S
C385 C368 1.394 . S
C385 C384 1.438 . S
C385 C386 1.428 . S
C386 H378 0.949 . S
C386 C385 1.428 . S
C386 C387 1.345 . S
C387 H379 0.950 . S
C387 C386 1.345 . S
C387 C388 1.424 . S
C388 H380 0.951 . S
C388 C387 1.424 . S
C388 C389 1.347 . S
C389 H381 0.951 . S
C389 C384 1.429 . S
C389 C388 1.347 . S
H390 C391 0.951 . S
C391 H390 0.951 . S
C391 C397 1.265 . S
H392 C397 0.950 . S
H393 C401 0.949 . S
H394 C402 0.950 . S
H395 C403 0.951 . S
H396 C404 0.951 . S
C397 C391 1.265 . S
C397 H392 0.950 . S
C397 C398 1.478 . S
C398 C397 1.478 . S
C398 C399 1.397 . S
C398 C415 1.394 . S
C399 C398 1.397 . S
C399 C400 1.438 . S
C399 C404 1.429 . S
C400 C399 1.438 . S
C400 C401 1.428 . S
C400 C413 1.394 . S
C401 H393 0.949 . S
C401 C400 1.428 . S
C401 C402 1.345 . S
C402 H394 0.950 . S
C402 C401 1.345 . S
C402 C403 1.424 . S
C403 H395 0.951 . S
C403 C402 1.424 . S
C403 C404 1.347 . S
C404 H396 0.951 . S
C404 C399 1.429 . S
C404 C403 1.347 . S
H405 C406 0.951 . S
C406 H405 0.951 . S
C406 C412 1.265 . S
H407 C412 0.950 . S
H408 C416 0.949 . S
H409 C417 0.950 . S
H410 C418 0.951 . S
H411 C419 0.951 . S
C412 C406 1.265 . S
C412 H407 0.950 . S
C412 C413 1.478 . S
C413 C400 1.394 . S
C413 C412 1.478 . S
C413 C414 1.397 . S
C414 C413 1.397 . S
C414 C415 1.438 . S
C414 C419 1.429 . S
C415 C398 1.394 . S
C415 C414 1.438 . S
C415 C416 1.428 . S
C416 H408 0.949 . S
C416 C415 1.428 . S
C416 C417 1.345 . S
C417 H409 0.950 . S
C417 C416 1.345 . S
C417 C418 1.424 . S
C418 H410 0.951 . S
C418 C417 1.424 . S
C418 C419 1.347 . S
C419 H411 0.951 . S
C419 C414 1.429 . S
C419 C418 1.347 . S
H420 C421 0.951 . S
C421 H420 0.951 . S
C421 C427 1.265 . S
H422 C427 0.950 . S
H423 C431 0.949 . S
H424 C432 0.950 . S
H425 C433 0.951 . S
H426 C434 0.951 . S
C427 C421 1.265 . S
C427 H422 0.950 . S
C427 C428 1.478 . S
C428 C427 1.478 . S
C428 C429 1.397 . S
C428 C445 1.394 . S
C429 C428 1.397 . S
C429 C430 1.438 1_455 S
C429 C434 1.429 . S
C430 C429 1.438 1_655 S
C430 C431 1.428 . S
C430 C443 1.394 . S
C431 H423 0.949 . S
C431 C430 1.428 . S
C431 C432 1.345 . S
C432 H424 0.950 . S
C432 C431 1.345 . S
C432 C433 1.424 1_655 S
C433 H425 0.951 . S
C433 C432 1.424 1_455 S
C433 C434 1.347 . S
C434 H426 0.951 . S
C434 C429 1.429 . S
C434 C433 1.347 . S
H435 C436 0.951 . S
C436 H435 0.951 . S
C436 C442 1.265 . S
H437 C442 0.950 . S
H438 C446 0.949 . S
H439 C447 0.950 . S
H440 C448 0.951 . S
H441 C449 0.951 . S
C442 C436 1.265 . S
C442 H437 0.950 . S
C442 C443 1.478 . S
C443 C430 1.394 . S
C443 C442 1.478 . S
C443 C444 1.397 . S
C444 C443 1.397 . S
C444 C445 1.438 1_655 S
C444 C449 1.429 . S
C445 C428 1.394 . S
C445 C444 1.438 1_455 S
C445 C446 1.428 . S
C446 H438 0.949 . S
C446 C445 1.428 . S
C446 C447 1.345 . S
C447 H439 0.950 . S
C447 C446 1.345 . S
C447 C448 1.424 1_455 S
C448 H440 0.951 . S
C448 C447 1.424 1_655 S
C448 C449 1.347 . S
C449 H441 0.951 . S
C449 C444 1.429 . S
C449 C448 1.347 . S
H450 C451 0.951 . S
C451 H450 0.951 . S
C451 C457 1.265 . S
H452 C457 0.950 . S
H453 C461 0.949 . S
H454 C462 0.950 . S
H455 C463 0.951 . S
H456 C464 0.951 . S
C457 C451 1.265 . S
C457 H452 0.950 . S
C457 C458 1.478 . S
C458 C457 1.478 . S
C458 C459 1.397 . S
C458 C475 1.394 . S
C459 C458 1.397 . S
C459 C460 1.438 1_545 S
C459 C464 1.429 . S
C460 C459 1.438 1_565 S
C460 C461 1.428 . S
C460 C473 1.394 . S
C461 H453 0.949 . S
C461 C460 1.428 . S
C461 C462 1.345 . S
C462 H454 0.950 . S
C462 C461 1.345 . S
C462 C463 1.424 1_565 S
C463 H455 0.951 . S
C463 C462 1.424 1_545 S
C463 C464 1.347 . S
C464 H456 0.951 . S
C464 C459 1.429 . S
C464 C463 1.347 . S
H465 C466 0.951 . S
C466 H465 0.951 . S
C466 C472 1.265 . S
H467 C472 0.950 . S
H468 C476 0.949 . S
H469 C477 0.950 . S
H470 C478 0.951 . S
H471 C479 0.951 . S
C472 C466 1.265 . S
C472 H467 0.950 . S
C472 C473 1.478 . S
C473 C460 1.394 . S
C473 C472 1.478 . S
C473 C474 1.397 . S
C474 C473 1.397 . S
C474 C475 1.438 1_565 S
C474 C479 1.429 . S
C475 C458 1.394 . S
C475 C474 1.438 1_545 S
C475 C476 1.428 . S
C476 H468 0.949 . S
C476 C475 1.428 . S
C476 C477 1.345 . S
C477 H469 0.950 . S
C477 C476 1.345 . S
C477 C478 1.424 1_545 S
C478 H470 0.951 . S
C478 C477 1.424 1_565 S
C478 C479 1.347 . S
C479 H471 0.951 . S
C479 C474 1.429 . S
C479 C478 1.347 . S
H480 C481 0.951 . S
C481 H480 0.951 . S
C481 C487 1.265 . S
H482 C487 0.950 . S
H483 C491 0.949 . S
H484 C492 0.950 . S
H485 C493 0.951 . S
H486 C494 0.951 . S
C487 C481 1.265 . S
C487 H482 0.950 . S
C487 C488 1.478 . S
C488 C487 1.478 . S
C488 C489 1.397 . S
C488 C505 1.394 . S
C489 C488 1.397 . S
C489 C490 1.438 . S
C489 C494 1.429 . S
C490 C489 1.438 . S
C490 C491 1.428 . S
C490 C503 1.394 . S
C491 H483 0.949 . S
C491 C490 1.428 . S
C491 C492 1.345 . S
C492 H484 0.950 . S
C492 C491 1.345 . S
C492 C493 1.424 . S
C493 H485 0.951 . S
C493 C492 1.424 . S
C493 C494 1.347 . S
C494 H486 0.951 . S
C494 C489 1.429 . S
C494 C493 1.347 . S
H495 C496 0.951 . S
C496 H495 0.951 . S
C496 C502 1.265 . S
H497 C502 0.950 . S
H498 C506 0.949 . S
H499 C507 0.950 . S
H500 C508 0.951 . S
H501 C509 0.951 . S
C502 C496 1.265 . S
C502 H497 0.950 . S
C502 C503 1.478 . S
C503 C490 1.394 . S
C503 C502 1.478 . S
C503 C504 1.397 . S
C504 C503 1.397 . S
C504 C505 1.438 . S
C504 C509 1.429 . S
C505 C488 1.394 . S
C505 C504 1.438 . S
C505 C506 1.428 . S
C506 H498 0.949 . S
C506 C505 1.428 . S
C506 C507 1.345 . S
C507 H499 0.950 . S
C507 C506 1.345 . S
C507 C508 1.424 . S
C508 H500 0.951 . S
C508 C507 1.424 . S
C508 C509 1.347 . S
C509 H501 0.951 . S
C509 C504 1.429 . S
C509 C508 1.347 . S
C241 C101 1.461 . S
C256 C2 1.499 . S
C271 C61 1.467 . S
C286 C141 1.496 . S
C301 C82 1.475 . S
C316 C181 1.502 . S
C331 C122 1.469 . S
C346 C221 1.456 . S
C361 C162 1.482 . S
C376 C21 1.452 . S
C391 C202 1.460 . S
C406 C42 1.484 . S
C421 C15 1.498 . S
C436 C135 1.497 . S
C451 C55 1.491 . S
C466 C175 1.488 . S
C481 C95 1.499 . S
C496 C215 1.499 . S
