# Generated by pormake.
# Topology sml, (6)-cn, num edge types: 1
# Building blocks:
#     Node 0, Type 0, BuildingBlock: KUMBUR_clean_sbu_0, # of connection points: 6
#     Node 1, Type 0, BuildingBlock: KUMBUR_clean_sbu_0, # of connection points: 6
#     Node 2, Type 0, BuildingBlock: KUMBUR_clean_sbu_0, # of connection points: 6
#     Node 3, Type 0, BuildingBlock: KUMBUR_clean_sbu_0, # of connection points: 6
#     Node 4, Type 0, BuildingBlock: KUMBUR_clean_sbu_0, # of connection points: 6
#     Node 5, Type 0, BuildingBlock: KUMBUR_clean_sbu_0, # of connection points: 6
#     Edge 6, Type (0, 0), BuildingBlock: KIFKEQ_clean_linker_1, # of connection points: 2
#     Edge 7, Type (0, 0), BuildingBlock: KIFKEQ_clean_linker_1, # of connection points: 2
#     Edge 8, Type (0, 0), BuildingBlock: KIFKEQ_clean_linker_1, # of connection points: 2
#     Edge 9, Type (0, 0), BuildingBlock: KIFKEQ_clean_linker_1, # of connection points: 2
#     Edge 10, Type (0, 0), BuildingBlock: KIFKEQ_clean_linker_1, # of connection points: 2
#     Edge 11, Type (0, 0), BuildingBlock: KIFKEQ_clean_linker_1, # of connection points: 2
#     Edge 12, Type (0, 0), BuildingBlock: KIFKEQ_clean_linker_1, # of connection points: 2
#     Edge 13, Type (0, 0), BuildingBlock: KIFKEQ_clean_linker_1, # of connection points: 2
#     Edge 14, Type (0, 0), BuildingBlock: KIFKEQ_clean_linker_1, # of connection points: 2
#     Edge 15, Type (0, 0), BuildingBlock: KIFKEQ_clean_linker_1, # of connection points: 2
#     Edge 16, Type (0, 0), BuildingBlock: KIFKEQ_clean_linker_1, # of connection points: 2
#     Edge 17, Type (0, 0), BuildingBlock: KIFKEQ_clean_linker_1, # of connection points: 2
#     Edge 18, Type (0, 0), BuildingBlock: KIFKEQ_clean_linker_1, # of connection points: 2
#     Edge 19, Type (0, 0), BuildingBlock: KIFKEQ_clean_linker_1, # of connection points: 2
#     Edge 20, Type (0, 0), BuildingBlock: KIFKEQ_clean_linker_1, # of connection points: 2
#     Edge 21, Type (0, 0), BuildingBlock: KIFKEQ_clean_linker_1, # of connection points: 2
#     Edge 22, Type (0, 0), BuildingBlock: KIFKEQ_clean_linker_1, # of connection points: 2
#     Edge 23, Type (0, 0), BuildingBlock: KIFKEQ_clean_linker_1, # of connection points: 2
# Relax obj value: 0.027
# Max RMSD: 0.150
# Mean RMSD: 0.150
data_MOF--net-sml--node1-KUMBUR_clean_sbu_0--edge1-KIFKEQ_clean_linker_1
_symmetry_space_group_name_H-M    P1
_symmetry_Int_Tables_number       1
_symmetry_cell_setting            triclinic
loop_
_symmetry_equiv_pos_as_xyz
'x, y, z'
_cell_length_a     33.566416
_cell_length_b     33.57487
_cell_length_c     24.112826
_cell_angle_alpha  90.041167
_cell_angle_beta   90.015837
_cell_angle_gamma 120.04306
loop_
_atom_site_label
_atom_site_type_symbol
_atom_site_fract_x
_atom_site_fract_y
_atom_site_fract_z
_atom_type_partial_charge
Tb0 Tb 0.18457 0.42828 0.97286 0.0
C1 C 0.34501 0.41485 0.07759 0.0
C2 C 0.31928 0.33381 0.0697 0.0
C3 C 0.40118 0.38949 0.07132 0.0
C4 C 0.30976 0.37011 0.07405 0.0
C5 C 0.39123 0.42522 0.07758 0.0
C6 C 0.36521 0.3438 0.06726 0.0
C7 C 0.41383 0.50468 0.0944 0.0
N8 N 0.3338 0.44807 0.08391 0.0
C9 C 0.3674 0.49249 0.09436 0.0
C10 C 0.42586 0.47097 0.08532 0.0
Tb11 Tb 0.25707 0.4257 0.08201 0.0
N12 N 0.26603 0.36215 0.07671 0.0
C13 C 0.23004 0.31787 0.07918 0.0
C14 C 0.28241 0.28862 0.06905 0.0
C15 C 0.23762 0.28063 0.07453 0.0
H16 H 0.35846 0.51885 0.10121 0.0
H17 H 0.20884 0.24577 0.07507 0.0
H18 H 0.37326 0.31643 0.06346 0.0
H19 H 0.44029 0.54005 0.10145 0.0
H20 H 0.19509 0.31066 0.08307 0.0
H21 H 0.21524 0.60258 0.97634 0.0
H22 H 0.2882 0.25973 0.06554 0.0
H23 H 0.08788 0.32812 0.95947 0.0
H24 H 0.23694 0.5429 0.96849 0.0
H25 H 1.00434 0.29931 0.96128 0.0
H26 H 0.43647 0.39673 0.07072 0.0
H27 H 0.13357 0.58057 0.98844 0.0
H28 H 0.05072 0.51783 0.99293 0.0
H29 H 0.46181 0.4804 0.08562 0.0
H30 H 0.99309 0.43523 0.98795 0.0
N31 N 0.16842 0.48697 0.9783 0.0
C32 C 0.20113 0.53247 0.97393 0.0
C33 C 0.1429 0.55408 0.98529 0.0
C34 C 0.10926 0.50746 0.98623 0.0
C35 C 0.18899 0.56661 0.97832 0.0
C36 C 0.12332 0.47441 0.98221 0.0
H37 H 0.97548 0.35347 0.97541 0.0
N38 N 0.10636 0.39793 0.97363 0.0
C39 C 0.02838 0.33567 0.96663 0.0
C40 C 0.09108 0.42824 0.97931 0.0
C41 C 0.0758 0.35215 0.96551 0.0
C42 C 0.01222 0.36634 0.97469 0.0
C43 C 0.04368 0.41337 0.98053 0.0
O44 O 0.16708 0.39299 0.89673 0.0
O45 O 0.22893 0.40305 1.00066 0.0
O46 O 0.30355 0.46334 1.01201 0.0
O47 O 0.25646 0.48278 0.96054 0.0
O48 O 0.17165 0.35782 0.95929 0.0
O49 O 0.2051 0.46721 0.8993 0.0
O50 O 0.27938 0.46154 0.1579 0.0
O51 O 0.21545 0.45364 0.05305 0.0
O52 O 0.14073 0.39969 0.04544 0.0
O53 O 0.18276 0.37364 0.09508 0.0
O54 O 0.27491 0.49742 0.09305 0.0
O55 O 0.22867 0.38946 0.15592 0.0
C56 C 0.20902 0.36301 0.98077 0.0
C57 C 0.16115 0.43185 0.81856 0.0
C58 C 0.15484 0.42995 0.71728 0.0
C59 C 0.17919 0.43217 0.76594 0.0
C60 C 0.11225 0.42836 0.7227 0.0
C61 C 0.11892 0.43053 0.82298 0.0
C62 C 0.09472 0.42897 0.77514 0.0
C63 C 0.29679 0.48599 0.9711 0.0
C64 C 0.18638 0.43078 0.86777 0.0
C65 C 0.02936 0.44594 0.98653 0.0
C66 C 0.06213 0.49294 0.98943 0.0
C67 C 0.23887 0.49448 0.07047 0.0
C68 C 0.27398 0.41709 0.2366 0.0
C69 C 0.25896 0.42177 0.28931 0.0
C70 C 0.27578 0.41158 0.3375 0.0
C71 C 0.30838 0.39716 0.33215 0.0
C72 C 0.30664 0.4029 0.23204 0.0
C73 C 0.32385 0.39315 0.27972 0.0
C74 C 0.14415 0.37467 0.08548 0.0
C75 C 0.25332 0.4251 0.18723 0.0
H76 H 0.21233 0.43406 0.76322 0.0
H77 H 0.09192 0.42574 0.68658 0.0
H78 H 0.10451 0.43025 0.86317 0.0
H79 H 0.06189 0.42757 0.77869 0.0
H80 H 0.2332 0.43214 0.2927 0.0
H81 H 0.3221 0.3893 0.36854 0.0
H82 H 0.31842 0.3989 0.1918 0.0
H83 H 0.349 0.3821 0.27604 0.0
Tb84 Tb 0.76272 0.18252 0.30703 0.0
C85 C 0.93514 0.34421 0.41063 0.0
C86 C 0.99061 0.31871 0.40319 0.0
C87 C 0.01656 0.40052 0.40262 0.0
C88 C 0.94474 0.30907 0.40776 0.0
C89 C 0.97089 0.39046 0.40949 0.0
C90 C 0.02642 0.36463 0.39939 0.0
C91 C 0.91405 0.41295 0.42694 0.0
N92 N 0.89073 0.33288 0.41773 0.0
C93 C 0.87991 0.36647 0.42803 0.0
C94 C 0.95972 0.42505 0.4169 0.0
Tb95 Tb 0.83638 0.2561 0.41661 0.0
N96 N 0.90911 0.26539 0.41199 0.0
C97 C 0.91763 0.22965 0.41609 0.0
C98 C 0.99912 0.282 0.40404 0.0
C99 C 0.9625 0.23733 0.41134 0.0
H100 H 0.84464 0.35746 0.43546 0.0
H101 H 0.96875 0.20871 0.41315 0.0
H102 H 0.06186 0.37276 0.39536 0.0
H103 H 0.9051 0.43937 0.43379 0.0
H104 H 0.89003 0.19477 0.42131 0.0
H105 H 0.61667 0.2093 0.30638 0.0
H106 H 0.03383 0.28787 0.40046 0.0
H107 H 0.76874 0.08707 0.2965 0.0
H108 H 0.69865 0.23267 0.30027 0.0
H109 H 0.71528 1.00327 0.29859 0.0
H110 H 0.04454 0.43583 0.40111 0.0
H111 H 0.55802 0.12723 0.31828 0.0
H112 H 0.53953 0.04493 0.32374 0.0
H113 H 0.98615 0.46103 0.41631 0.0
H114 H 0.56622 0.98865 0.32072 0.0
N115 N 0.68733 0.16476 0.31105 0.0
C116 C 0.67369 0.19673 0.30574 0.0
C117 C 0.5941 0.13732 0.31596 0.0
C118 C 0.608 0.10442 0.31788 0.0
C119 C 0.62709 0.18363 0.30911 0.0
C120 C 0.65541 0.11944 0.31492 0.0
H121 H 0.63174 0.9728 0.31065 0.0
N122 N 0.71616 0.10413 0.30843 0.0
C123 C 0.70219 0.02673 0.30292 0.0
C124 C 0.67028 0.08793 0.31308 0.0
C125 C 0.73239 0.07429 0.30163 0.0
C126 C 0.65505 0.00965 0.3098 0.0
C127 C 0.63846 0.04034 0.31439 0.0
O128 O 0.78093 0.16464 0.23148 0.0
O129 O 0.83181 0.2276 0.33582 0.0
O130 O 0.84454 0.30217 0.34651 0.0
O131 O 0.77926 0.254 0.29341 0.0
O132 O 0.82139 0.17098 0.29459 0.0
O133 O 0.74462 0.20254 0.23285 0.0
O134 O 0.82272 0.27913 0.49184 0.0
O135 O 0.76704 0.21389 0.38671 0.0
O136 O 0.74687 0.13936 0.3803 0.0
O137 O 0.81443 0.18201 0.43078 0.0
O138 O 0.78215 0.27353 0.42594 0.0
O139 O 0.84331 0.22789 0.49117 0.0
C140 C 0.8529 0.20848 0.31663 0.0
C141 C 0.73583 0.15765 0.15309 0.0
C142 C 0.72997 0.15031 0.05218 0.0
C143 C 0.75277 0.17533 0.10008 0.0
C144 C 0.68956 0.10744 0.05814 0.0
C145 C 0.69529 0.11505 0.15827 0.0
C146 C 0.67225 0.09016 0.1109 0.0
C147 C 0.8156 0.29478 0.30478 0.0
C148 C 0.76237 0.18356 0.20189 0.0
C149 C 0.59126 0.02508 0.31927 0.0
C150 C 0.57606 0.05709 0.32107 0.0
C151 C 0.74935 0.23735 0.40313 0.0
C152 C 0.86084 0.27349 0.57145 0.0
C153 C 0.84078 0.25801 0.62386 0.0
C154 C 0.86732 0.27442 0.67266 0.0
C155 C 0.9144 0.30744 0.66764 0.0
C156 C 0.90764 0.30641 0.56743 0.0
C157 C 0.9342 0.32341 0.61545 0.0
C158 C 0.775 0.1432 0.42097 0.0
C159 C 0.83247 0.25295 0.52181 0.0
H160 H 0.78442 0.20806 0.09618 0.0
H161 H 0.67118 0.0875 1.022 0.0
H162 H 0.68174 0.1009 0.19869 0.0
H163 H 0.64103 0.0572 0.11507 0.0
H164 H 0.80436 0.23304 0.62631 0.0
H165 H 0.9363 0.32037 0.70388 0.0
H166 H 0.92367 0.31851 0.52736 0.0
H167 H 0.97045 0.34861 0.6122 0.0
Tb168 Tb 0.58614 0.76139 0.64101 0.0
C169 C 0.5945 0.93261 0.74473 0.0
C170 C 0.67543 0.98875 0.73835 0.0
C171 C 0.61895 0.01388 0.73737 0.0
C172 C 0.63944 0.9427 0.74234 0.0
C173 C 0.58355 0.96802 0.74367 0.0
C174 C 0.66489 0.02424 0.73465 0.0
C175 C 0.50425 0.9105 0.76023 0.0
N176 N 0.56165 0.88804 0.75138 0.0
C177 C 0.51703 0.87671 0.76129 0.0
C178 C 0.53758 0.95634 0.75066 0.0
Tb179 Tb 0.58485 0.83433 0.75053 0.0
N180 N 0.64791 0.90737 0.74653 0.0
C181 C 0.69231 0.91634 0.75112 0.0
C182 C 0.72082 0.99775 0.73971 0.0
C183 C 0.72927 0.96141 0.74692 0.0
H184 H 0.49095 0.84131 0.76839 0.0
H185 H 0.76428 0.96802 0.74913 0.0
H186 H 0.69202 0.05982 0.7311 0.0
H187 H 0.46871 0.90115 0.76677 0.0
H188 H 0.69988 0.88896 0.75633 0.0
H189 H 0.41316 0.6152 0.63885 0.0
H190 H 0.74949 0.03261 0.7366 0.0
H191 H 0.6877 0.76761 0.63129 0.0
H192 H 0.47175 0.69716 0.63342 0.0
H193 H 0.71812 0.71423 0.63359 0.0
H194 H 0.61127 0.04161 0.73594 0.0
H195 H 0.43659 0.55663 0.65078 0.0
H196 H 0.50038 0.53828 0.65661 0.0
H197 H 0.52768 0.9825 0.75013 0.0
H198 H 0.58345 0.56501 0.6544 0.0
N199 N 0.52844 0.68598 0.64453 0.0
C200 C 0.4828 0.67228 0.63889 0.0
C201 C 0.46261 0.59272 0.64875 0.0
C202 C 0.50943 0.60669 0.65107 0.0
C203 C 0.44927 0.62566 0.64188 0.0
C204 C 0.54184 0.6541 0.64848 0.0
H205 H 0.66496 0.63064 0.64516 0.0
N206 N 0.61799 0.71492 0.6427 0.0
C207 C 0.68151 0.70108 0.63763 0.0
C208 C 0.58828 0.66903 0.64707 0.0
C209 C 0.66413 0.73123 0.63624 0.0
C210 C 0.6514 0.65391 0.64424 0.0
C211 C 0.60406 0.63726 0.64844 0.0
O212 O 0.6228 0.77997 0.56587 0.0
O213 O 0.60946 0.83028 0.66998 0.0
O214 O 0.54695 0.84215 0.68005 0.0
O215 O 0.53084 0.77722 0.62695 0.0
O216 O 0.65631 0.82045 0.62938 0.0
O217 O 0.54854 0.74347 0.56642 0.0
O218 O 0.54766 0.82016 0.82539 0.0
O219 O 0.55861 0.76523 0.72047 0.0
O220 O 0.61344 0.74577 0.71442 0.0
O221 O 0.63736 0.81295 0.76537 0.0
O222 O 0.51334 0.77937 0.75934 0.0
O223 O 0.61975 0.84161 0.82543 0.0
C224 C 0.64984 0.85168 0.65128 0.0
C225 C 0.58518 0.73513 0.48703 0.0
C226 C 0.58627 0.7292 0.38611 0.0
C227 C 0.58385 0.7518 0.43406 0.0
C228 C 0.58947 0.68922 0.39199 0.0
C229 C 0.58799 0.69503 0.49214 0.0
C230 C 0.59001 0.67216 0.44471 0.0
C231 C 0.52584 0.81319 0.63815 0.0
C232 C 0.5855 0.76144 0.53587 0.0
C233 C 0.57207 0.59003 0.65294 0.0
C234 C 0.52481 0.57479 0.65429 0.0
C235 C 0.51735 0.74693 0.73666 0.0
C236 C 0.5908 0.8585 0.90536 0.0
C237 C 0.58648 0.83854 0.95777 0.0
C238 C 0.59611 0.86498 1.00659 0.0
C239 C 0.60937 0.91184 1.00158 0.0
C240 C 0.60391 0.90509 0.90136 0.0
C241 C 0.61294 0.93153 0.94939 0.0
C242 C 0.63725 0.7738 0.75542 0.0
C243 C 0.58356 0.83031 0.85572 0.0
H244 H 0.58218 0.78312 0.43021 0.0
H245 H 0.59118 0.671 0.3558 0.0
H246 H 0.58903 0.68168 0.53252 0.0
H247 H 0.59232 0.64128 0.44882 0.0
H248 H 0.57564 0.80228 0.96022 0.0
H249 H 0.61794 0.93367 0.03783 0.0
H250 H 0.60764 0.92106 0.86129 0.0
H251 H 0.6234 0.96762 0.94615 0.0
Tb252 Tb 0.83172 0.58637 0.9745 0.0
C253 C 0.66747 0.59222 0.07739 0.0
C254 C 0.69251 0.67327 0.07236 0.0
C255 C 0.61081 0.61689 0.07041 0.0
C256 C 0.70245 0.63721 0.07586 0.0
C257 C 0.62112 0.58138 0.07619 0.0
C258 C 0.6465 0.66283 0.0684 0.0
C259 C 0.59903 0.50192 0.09197 0.0
N260 N 0.67899 0.55918 0.08343 0.0
C261 C 0.64559 0.51458 0.09315 0.0
C262 C 0.58669 0.53539 0.08265 0.0
Tb263 Tb 0.75588 0.58248 0.08368 0.0
N264 N 0.74625 0.64563 0.0802 0.0
C265 C 0.78178 0.68995 0.08541 0.0
C266 C 0.729 0.71863 0.07439 0.0
C267 C 0.77378 0.72697 0.08174 0.0
H268 H 0.65486 0.48848 0.10024 0.0
H269 H 0.80222 0.76193 0.08441 0.0
H270 H 0.63814 0.69001 0.06521 0.0
H271 H 0.57273 0.46639 0.09826 0.0
H272 H 0.81671 0.69735 0.09062 0.0
H273 H 0.80395 0.41305 0.97425 0.0
H274 H 0.72289 0.74734 0.07166 0.0
H275 H 0.92741 0.68592 0.95521 0.0
H276 H 0.78138 0.47201 0.96576 0.0
H277 H 0.01127 0.71593 0.95735 0.0
H278 H 0.57541 0.60929 0.06886 0.0
H279 H 0.8854 0.43591 0.99071 0.0
H280 H 0.9678 0.49943 0.99829 0.0
H281 H 0.55065 0.52558 0.08201 0.0
H282 H 0.02469 0.58223 0.99278 0.0
N283 N 0.84904 0.52839 0.97987 0.0
C284 C 0.81708 0.48285 0.9731 0.0
C285 C 0.87566 0.46209 0.98737 0.0
C286 C 0.90876 0.50883 0.98988 0.0
C287 C 0.82971 0.44909 0.97787 0.0
C288 C 0.89414 0.54144 0.98546 0.0
H289 H 0.04124 0.66328 0.97638 0.0
N290 N 0.91004 0.6172 0.97442 0.0
C291 C 0.98763 0.67976 0.96473 0.0
C292 C 0.92592 0.58762 0.98225 0.0
C293 C 0.94009 0.66262 0.96338 0.0
C294 C 1.00442 0.64997 0.97566 0.0
C295 C 0.97344 0.60308 0.98363 0.0
O296 O 0.85101 0.62223 0.89843 0.0
O297 O 0.78568 0.60873 1.00393 0.0
O298 O 0.71054 0.54537 1.01287 0.0
O299 O 0.76035 0.53105 0.95933 0.0
O300 O 0.8416 0.65589 0.96226 0.0
O301 O 0.80924 0.54831 0.90078 0.0
O302 O 0.73468 0.54261 0.1565 0.0
O303 O 0.80109 0.55848 0.05451 0.0
O304 O 0.87694 0.62043 0.04502 0.0
O305 O 0.82881 0.6338 0.10294 0.0
O306 O 0.73976 0.51121 0.08912 0.0
O307 O 0.77722 0.61629 0.16071 0.0
C308 C 0.80405 0.64902 0.98498 0.0
C309 C 0.85354 0.58063 0.82031 0.0
C310 C 0.8565 0.57601 0.71911 0.0
C311 C 0.83736 0.58326 0.76752 0.0
C312 C 0.89307 0.56705 0.72501 0.0
C313 C 0.89 0.57184 0.82518 0.0
C314 C 0.90979 0.56533 0.7776 0.0
C315 C 0.71898 0.52518 0.97057 0.0
C316 C 0.82979 0.58456 0.86933 0.0
C317 C 0.98832 0.57106 0.99107 0.0
C318 C 0.95597 0.52396 0.99425 0.0
C319 C 0.77764 0.5167 0.06892 0.0
C320 C 0.73064 0.5788 0.23857 0.0
C321 C 0.74954 0.57994 0.29093 0.0
C322 C 0.72555 0.5779 0.33964 0.0
C323 C 0.6825 0.5752 0.33522 0.0
C324 C 0.68796 0.57671 0.23486 0.0
C325 C 0.66406 0.57496 0.2831 0.0
C326 C 0.8698 0.6399 0.08867 0.0
C327 C 0.75564 0.57824 0.18887 0.0
H328 H 0.8096 0.5908 0.76449 0.0
H329 H 0.90827 0.56038 0.68918 0.0
H330 H 0.9027 0.56943 0.86554 0.0
H331 H 0.93774 0.55819 0.7815 0.0
H332 H 0.78245 0.58129 0.29375 0.0
H333 H 0.66336 0.57374 0.37208 0.0
H334 H 0.67299 0.57607 0.19495 0.0
H335 H 0.63103 0.57317 0.2801 0.0
Tb336 Tb 0.2516 0.82656 0.30736 0.0
C337 C 0.07714 0.66613 0.41216 0.0
C338 C 0.02213 0.69227 0.40522 0.0
C339 C 0.99539 0.61031 0.40655 0.0
C340 C 0.06793 0.70154 0.40902 0.0
C341 C 0.04106 0.62 0.41221 0.0
C342 C 0.98594 0.64644 0.40296 0.0
C343 C 0.09771 0.59696 0.4278 0.0
N344 N 0.12158 0.6771 0.41791 0.0
C345 C 0.13219 0.64331 0.42774 0.0
C346 C 0.05194 0.58519 0.41937 0.0
Tb347 Tb 0.17636 0.7537 0.41618 0.0
N348 N 0.10394 0.74516 0.41151 0.0
C349 C 0.09595 0.78131 0.41429 0.0
C350 C 0.01411 0.72929 0.40493 0.0
C351 C 0.05118 0.77399 0.41016 0.0
H352 H 0.1675 0.65205 0.43411 0.0
H353 H 0.04533 0.80289 0.41096 0.0
H354 H 0.95054 0.6386 0.39962 0.0
H355 H 0.10646 0.57037 0.43437 0.0
H356 H 0.12387 0.8162 0.41803 0.0
H357 H 0.39537 0.79614 0.30977 0.0
H358 H 0.97947 0.72371 0.40185 0.0
H359 H 0.24807 0.92324 0.29523 0.0
H360 H 0.31392 0.77439 0.30205 0.0
H361 H 0.30282 0.00676 0.29772 0.0
H362 H 0.96716 0.57509 0.40604 0.0
H363 H 0.45506 0.87776 0.32254 0.0
H364 H 0.47516 0.96056 0.32798 0.0
H365 H 0.02524 0.54931 0.41969 0.0
H366 H 0.45012 0.01809 0.32377 0.0
N367 N 0.3265 0.8428 0.31264 0.0
C368 C 0.33932 0.81016 0.30781 0.0
C369 C 0.4192 0.8684 0.31947 0.0
C370 C 0.4062 0.90198 0.32088 0.0
C371 C 0.38563 0.82234 0.31211 0.0
C372 C 0.35905 0.88788 0.31693 0.0
H373 H 0.3859 0.03564 0.31173 0.0
N374 N 0.29946 0.90477 0.30885 0.0
C375 C 0.31515 0.98273 0.30271 0.0
C376 C 0.3451 0.92009 0.31448 0.0
C377 C 0.28421 0.93532 0.30121 0.0
C378 C 0.36203 0.99891 0.3107 0.0
C379 C 0.37763 0.96748 0.31609 0.0
O380 O 0.23408 0.84454 0.23139 0.0
O381 O 0.18192 0.78217 0.33508 0.0
O382 O 0.16746 0.70749 0.34576 0.0
O383 O 0.23407 0.75475 0.29444 0.0
O384 O 0.19413 0.83963 0.29425 0.0
O385 O 0.26979 0.8061 0.23356 0.0
O386 O 0.18953 0.73076 0.49178 0.0
O387 O 0.24598 0.79517 0.38717 0.0
O388 O 0.2671 0.86997 0.38045 0.0
O389 O 0.19885 0.82795 0.4298 0.0
O390 O 0.23003 0.73552 0.42664 0.0
O391 O 0.1697 0.78259 0.49037 0.0
C392 C 0.16188 0.80224 0.31554 0.0
C393 C 0.27933 0.85082 0.15349 0.0
C394 C 0.28532 0.85824 0.05259 0.0
C395 C 0.26211 0.83347 0.1004 0.0
C396 C 0.32641 0.90051 0.05876 0.0
C397 C 0.32052 0.8928 0.15887 0.0
C398 C 0.34396 0.91744 0.1116 0.0
C399 C 0.1969 0.71439 0.3048 0.0
C400 C 0.25245 0.82523 0.2022 0.0
C401 C 0.42456 0.98183 0.32203 0.0
C402 C 0.43882 0.9491 0.32449 0.0
C403 C 0.26324 0.77155 0.40423 0.0
C404 C 0.15196 0.73762 0.57123 0.0
C405 C 0.17247 0.75276 0.62357 0.0
C406 C 0.14609 0.73696 0.67253 0.0
C407 C 0.09869 0.70495 0.66771 0.0
C408 C 0.10485 0.70569 0.56746 0.0
C409 C 0.07843 0.68934 0.61561 0.0
C410 C 0.23867 0.86646 0.42056 0.0
C411 C 0.18023 0.75749 0.52139 0.0
H412 H 0.22996 0.80121 0.09636 0.0
H413 H 0.34513 0.92024 0.02271 0.0
H414 H 0.3343 0.90667 0.19936 0.0
H415 H 0.3757 0.94993 0.11592 0.0
H416 H 0.20909 0.77696 0.62585 0.0
H417 H 0.07691 0.69256 0.70405 0.0
H418 H 0.08847 0.69387 0.52749 0.0
H419 H 0.04195 0.66492 0.61254 0.0
Tb420 Tb 0.42555 0.24821 0.6409 0.0
C421 C 0.41234 0.07498 0.74206 0.0
C422 C 0.33021 0.02297 0.73942 0.0
C423 C 0.38235 0.9926 0.73429 0.0
C424 C 0.36838 0.06795 0.74245 0.0
C425 C 0.42004 0.03743 0.7394 0.0
C426 C 0.33744 0.98537 0.73421 0.0
C427 C 0.50109 0.09098 0.75221 0.0
N428 N 0.44754 0.11867 0.74752 0.0
C429 C 0.49151 0.12698 0.75496 0.0
C430 C 0.46524 0.04601 0.74366 0.0
Tb431 Tb 0.4294 0.17608 0.75003 0.0
N432 N 0.36308 0.10522 0.74776 0.0
C433 C 0.31989 0.09934 0.75399 0.0
C434 C 0.28603 0.01711 0.74293 0.0
C435 C 0.2809 0.05545 0.75095 0.0
H436 H 0.51943 0.16175 0.76134 0.0
H437 H 0.24688 0.05128 0.75456 0.0
H438 H 0.30858 0.95058 0.7314 0.0
H439 H 0.53609 0.09794 0.75671 0.0
H440 H 0.31475 0.12827 0.75952 0.0
H441 H 0.59746 0.39631 0.64514 0.0
H442 H 0.25578 0.98317 0.74062 0.0
H443 H 0.32541 0.24226 0.61764 0.0
H444 H 0.53983 0.3144 0.63453 0.0
H445 H 0.29386 0.29475 0.61877 0.0
H446 H 0.38752 0.96327 0.73168 0.0
H447 H 0.57266 0.4534 0.66162 0.0
H448 H 0.50786 0.47033 0.66778 0.0
H449 H 0.47266 0.01813 0.74182 0.0
H450 H 0.42485 0.44285 0.65953 0.0
N451 N 0.48235 0.32398 0.64775 0.0
C452 C 0.5282 0.33862 0.64199 0.0
C453 C 0.54708 0.4173 0.6574 0.0
C454 C 0.50007 0.40262 0.65864 0.0
C455 C 0.56119 0.38522 0.6479 0.0
C456 C 0.46827 0.35523 0.6531 0.0
H457 H 0.34471 0.37736 0.64005 0.0
N458 N 0.39321 0.29432 0.63984 0.0
C459 C 0.32993 0.30787 0.62761 0.0
C460 C 0.42196 0.3399 0.64853 0.0
C461 C 0.34795 0.27823 0.62691 0.0
C462 C 0.35871 0.35445 0.63979 0.0
C463 C 0.40557 0.3712 0.64946 0.0
O464 O 0.39016 0.22638 0.5649 0.0
O465 O 0.40367 0.17974 0.67011 0.0
O466 O 0.46697 0.16907 0.67864 0.0
O467 O 0.48175 0.23373 0.6262 0.0
O468 O 0.35611 0.1883 0.62888 0.0
O469 O 0.46386 0.2691 0.56682 0.0
O470 O 0.46954 0.18715 0.82191 0.0
O471 O 0.45403 0.24533 0.72085 0.0
O472 O 0.38995 0.25866 0.71003 0.0
O473 O 0.38097 0.20079 0.77179 0.0
O474 O 0.50091 0.23067 0.75559 0.0
O475 O 0.39912 0.17132 0.8277 0.0
C476 C 0.36329 0.15772 0.65132 0.0
C477 C 0.4254 0.27186 0.48583 0.0
C478 C 0.42318 0.27501 0.38441 0.0
C479 C 0.42764 0.2547 0.43347 0.0
C480 C 0.41708 0.31347 0.38917 0.0
C481 C 0.41972 0.31034 0.48954 0.0
C482 C 0.41566 0.33104 0.4413 0.0
C483 C 0.48737 0.19805 0.6367 0.0
C484 C 0.42754 0.24774 0.53555 0.0
C485 C 0.43673 0.41822 0.65808 0.0
C486 C 0.48395 0.43389 0.66279 0.0
C487 C 0.49576 0.26332 0.73559 0.0
C488 C 0.42865 0.15087 0.90406 0.0
C489 C 0.43114 0.16955 0.95698 0.0
C490 C 0.42149 0.14222 1.00483 0.0
C491 C 0.40979 0.09593 0.99887 0.0
C492 C 0.41706 0.10472 0.89893 0.0
C493 C 0.40785 0.07747 0.94624 0.0
C494 C 0.37281 0.23395 0.75554 0.0
C495 C 0.43593 0.17973 0.85508 0.0
H496 H 0.43297 0.22546 0.43124 0.0
H497 H 0.41257 0.32962 0.35272 0.0
H498 H 0.41807 0.3241 0.52949 0.0
H499 H 0.41087 0.36055 0.44431 0.0
H500 H 0.43937 0.20506 0.96077 0.0
H501 H 0.40244 0.07412 0.03492 0.0
H502 H 0.41469 0.08968 0.85854 0.0
H503 H 0.39884 0.04182 0.94211 0.0
H504 H 0.38484 0.25272 0.86642 0.0
H505 H 0.29982 0.24461 0.72797 0.0
H506 H 0.34489 0.28154 0.92548 0.0
H507 H 0.25921 0.27225 0.78708 0.0
H508 H 0.16963 0.27726 0.93541 0.0
H509 H 0.20706 0.24206 0.88346 0.0
H510 H 0.33949 0.36164 0.91476 0.0
H511 H 0.30216 0.39781 0.96338 0.0
C512 C 0.35711 0.25637 0.84891 0.0
C513 C 0.34549 0.24657 0.79254 0.0
C514 C 0.33447 0.27307 0.88256 0.0
C515 C 0.29889 0.27906 0.86088 0.0
C516 C 0.28631 0.26776 0.80498 0.0
C517 C 0.30973 0.25224 0.77105 0.0
C518 C 0.20678 0.29587 0.93165 0.0
C519 C 0.23285 0.34005 0.95497 0.0
C520 C 0.22815 0.27572 0.90186 0.0
C521 C 0.27623 0.29894 0.89545 0.0
C522 C 0.30243 0.34264 0.91963 0.0
C523 C 0.28094 0.36329 0.94796 0.0
H524 H 0.12905 0.31025 0.16697 0.0
H525 H 0.06614 0.3808 0.08854 0.0
H526 H 0.06176 0.27039 0.22809 0.0
H527 H 0.99951 0.34069 0.14766 0.0
H528 H 0.90558 0.30072 0.29241 0.0
H529 H 0.97772 0.33981 0.24253 0.0
H530 H 0.97812 0.21184 0.22805 0.0
H531 H 0.90574 0.17274 0.28042 0.0
C532 C 0.10094 0.31711 0.16241 0.0
C533 C 0.1032 0.34866 0.12228 0.0
C534 C 0.06226 0.29411 0.19733 0.0
C535 C 0.02515 0.30248 0.19332 0.0
C536 C 0.02756 0.33381 0.15293 0.0
C537 C 0.06584 0.35652 0.11824 0.0
C538 C 0.92122 0.28089 0.27996 0.0
C539 C 0.89984 0.23355 0.29134 0.0
C540 C 0.96264 0.30332 0.25048 0.0
C541 C 0.98375 0.27902 0.23036 0.0
C542 C 0.96315 0.23184 0.24308 0.0
C543 C 0.92154 0.20936 0.27288 0.0
H544 H 0.69088 0.0651 0.42379 0.0
H545 H 0.82408 0.12853 0.5033 0.0
H546 H 0.66432 0.99848 0.48282 0.0
H547 H 0.79658 0.06124 0.5644 0.0
H548 H 0.73868 0.90518 0.61605 0.0
H549 H 0.77193 0.97776 0.56417 0.0
H550 H 0.64292 0.97624 0.57737 0.0
H551 H 0.60988 0.90387 0.62675 0.0
C552 C 0.71479 0.06492 0.45373 0.0
C553 C 0.75996 0.10241 0.45805 0.0
C554 C 0.69918 0.02664 0.48838 0.0
C555 C 0.72801 0.02435 0.52904 0.0
C556 C 0.77342 0.06163 0.53342 0.0
C557 C 0.78915 0.10032 0.49851 0.0
C558 C 0.71771 0.92077 0.60833 0.0
C559 C 0.67164 0.89869 0.62627 0.0
C560 C 0.73682 0.9625 0.57882 0.0
C561 C 0.71007 0.98286 0.56588 0.0
C562 C 0.66447 0.96137 0.5855 0.0
C563 C 0.6455 0.91982 0.61468 0.0
H564 H 0.6318 0.69003 0.75773 0.0
H565 H 0.70001 0.82255 0.83895 0.0
H566 H 0.67168 0.66348 0.817 0.0
H567 H 0.73959 0.79499 0.90038 0.0
H568 H 0.83856 0.73808 0.95181 0.0
H569 H 0.79891 0.77122 0.90048 0.0
H570 H 0.67206 0.64121 0.91107 0.0
H571 H 0.7118 0.60828 0.9598 0.0
C572 C 0.65551 0.7138 0.78811 0.0
C573 C 0.66285 0.7588 0.7928 0.0
C574 C 0.67805 0.69816 0.82292 0.0
C575 C 0.70867 0.72678 0.86414 0.0
C576 C 0.71642 0.77201 0.86896 0.0
C577 C 0.69359 0.78777 0.83386 0.0
C578 C 0.80205 0.71687 0.94368 0.0
C579 C 0.77837 0.67056 0.9607 0.0
C580 C 0.77924 0.73591 0.91448 0.0
C581 C 0.73225 0.70886 0.90095 0.0
C582 C 0.7084 0.66301 0.9197 0.0
C583 C 0.73119 0.64409 0.94853 0.0
H584 H 0.11598 0.84206 0.27037 0.0
H585 H 0.10294 0.70919 0.2982 0.0
H586 H 0.04344 0.80505 0.21812 0.0
H587 H 0.02952 0.67228 0.24922 0.0
H588 H 0.87585 0.62732 0.19932 0.0
H589 H 0.94435 0.66693 0.25903 0.0
H590 H 0.02152 0.75355 0.12174 0.0
H591 H 0.95351 0.71329 0.062 0.0
C592 C 0.09722 0.80493 0.26652 0.0
C593 C 0.11503 0.77864 0.28983 0.0
C594 C 0.05575 0.7838 0.23655 0.0
C595 C 0.03064 0.73575 0.22994 0.0
C596 C 0.04779 0.70933 0.25422 0.0
C597 C 0.08988 0.73057 0.28275 0.0
C598 C 0.90735 0.65521 0.18223 0.0
C599 C 0.90949 0.66721 0.12601 0.0
C600 C 0.94653 0.67764 0.21623 0.0
C601 C 0.98824 0.71336 0.19503 0.0
C602 C 0.98981 0.72633 0.13927 0.0
C603 C 0.95102 0.70313 0.10499 0.0
H604 H 0.40416 0.10644 0.62605 0.0
H605 H 0.2742 0.10295 0.6181 0.0
H606 H 0.37138 0.03393 0.57683 0.0
H607 H 0.24124 0.03041 0.56619 0.0
H608 H 0.18975 0.88081 0.50328 0.0
H609 H 0.21733 0.94775 0.56502 0.0
H610 H 0.34935 0.01108 0.483 0.0
H611 H 0.32274 0.94468 0.42345 0.0
C612 C 0.36834 0.08995 0.61468 0.0
C613 C 0.34177 0.11047 0.62702 0.0
C614 C 0.34951 0.04835 0.58554 0.0
C615 C 0.30367 0.0263 0.56659 0.0
C616 C 0.27654 0.04607 0.58032 0.0
C617 C 0.29547 0.08778 0.60987 0.0
C618 C 0.22465 0.90907 0.49853 0.0
C619 C 0.25375 0.90719 0.4578 0.0
C620 C 0.24043 0.94756 0.53382 0.0
C621 C 0.2858 0.9849 0.52951 0.0
C622 C 0.31455 0.98285 0.48857 0.0
C623 C 0.2989 0.94471 0.45358 0.0
H624 H 0.14696 0.4673 0.61892 0.0
H625 H 0.20458 0.38831 0.68807 0.0
H626 H 0.17459 0.46186 0.52772 0.0
H627 H 0.23561 0.38641 0.59809 0.0
H628 H 0.24519 0.34795 0.42058 0.0
H629 H 0.2155 0.35233 0.5111 0.0
H630 H 0.23943 0.48819 0.47121 0.0
H631 H 0.26719 0.48256 0.37968 0.0
C632 C 0.16561 0.44886 0.61492 0.0
C633 C 0.17328 0.42819 0.66137 0.0
C634 C 0.18221 0.4464 0.5625 0.0
C635 C 0.20753 0.42371 0.55505 0.0
C636 C 0.21566 0.40354 0.60164 0.0
C637 C 0.19848 0.40539 0.65381 0.0
C638 C 0.24421 0.37878 0.43136 0.0
C639 C 0.25856 0.41492 0.39311 0.0
C640 C 0.22737 0.38148 0.48344 0.0
C641 C 0.2251 0.42074 0.49905 0.0
C642 C 0.23977 0.45703 0.46063 0.0
C643 C 0.25596 0.45398 0.40818 0.0
H644 H 0.75959 0.23667 1.01156 0.0
H645 H 0.74338 0.10493 0.96676 0.0
H646 H 0.79095 0.26654 0.91989 0.0
H647 H 0.77655 0.13499 0.87597 0.0
H648 H 0.79933 0.1868 0.70008 0.0
H649 H 0.76431 0.15787 0.78985 0.0
H650 H 0.85504 0.2909 0.86293 0.0
H651 H 0.88729 0.32095 0.77215 0.0
C652 C 0.76316 0.21425 0.98214 0.0
C653 C 0.74893 0.16845 0.99624 0.0
C654 C 0.7814 0.23139 0.9296 0.0
C655 C 0.78654 0.20335 0.89006 0.0
C656 C 0.77237 0.1575 0.90456 0.0
C657 C 0.7535 0.14021 0.95678 0.0
C658 C 0.81128 0.21029 0.73494 0.0
C659 C 0.8462 0.25645 0.72831 0.0
C660 C 0.79164 0.19336 0.78695 0.0
C661 C 0.80681 0.22181 0.83422 0.0
C662 C 0.84183 0.26794 0.82763 0.0
C663 C 0.86099 0.28507 0.77544 0.0
H664 H 0.52813 0.75715 0.34568 0.0
H665 H 0.64525 0.74379 0.3006 0.0
H666 H 0.52871 0.78807 0.25399 0.0
H667 H 0.64747 0.77656 0.20983 0.0
H668 H 0.61735 0.79819 0.03406 0.0
H669 H 0.612 0.76348 0.12383 0.0
H670 H 0.56729 0.85221 0.19684 0.0
H671 H 0.56878 0.8841 0.10603 0.0
C672 C 0.55426 0.76125 0.31619 0.0
C673 C 0.58654 0.74793 0.3302 0.0
C674 C 0.55484 0.77924 0.26365 0.0
C675 C 0.5882 0.78505 0.22403 0.0
C676 C 0.62061 0.77182 0.23847 0.0
C677 C 0.61955 0.75319 0.29068 0.0
C678 C 0.60543 0.80975 0.0689 0.0
C679 C 0.59332 0.84401 0.06223 0.0
C680 C 0.60316 0.79031 0.12091 0.0
C681 C 0.58945 0.80503 0.16817 0.0
C682 C 0.57741 0.83936 0.16155 0.0
C683 C 0.57902 0.85832 0.10934 0.0
H684 H 0.76683 0.54801 0.6904 0.0
H685 H 0.903 0.60528 0.61973 0.0
H686 H 0.73649 0.55085 0.60043 0.0
H687 H 0.87174 0.60384 0.52853 0.0
H688 H 0.81159 0.63768 0.37895 0.0
H689 H 0.84323 0.6383 0.4702 0.0
H690 H 0.71553 0.51631 0.51474 0.0
H691 H 0.68353 0.51766 0.4246 0.0
C692 C 0.79049 0.56128 0.65581 0.0
C693 C 0.83765 0.57673 0.66304 0.0
C694 C 0.77277 0.56203 0.60358 0.0
C695 C 0.80139 0.57732 0.55651 0.0
C696 C 0.84851 0.59243 0.5636 0.0
C697 C 0.86642 0.59249 0.61609 0.0
C698 C 0.79042 0.61112 0.40848 0.0
C699 C 0.74505 0.5778 0.39489 0.0
C700 C 0.8086 0.6112 0.46078 0.0
C701 C 0.78211 0.57738 0.50049 0.0
C702 C 0.73682 0.54365 0.48619 0.0
C703 C 0.71842 0.54415 0.4343 0.0
H704 H 0.12525 0.69026 0.77184 0.0
H705 H 0.21604 0.8237 0.70013 0.0
H706 H 0.15805 0.71966 0.86265 0.0
H707 H 0.25153 0.8519 0.78998 0.0
H708 H 0.27379 0.90487 0.96718 0.0
H709 H 0.24037 0.87553 0.87621 0.0
H710 H 0.22171 0.74227 0.91981 0.0
H711 H 0.25336 0.77148 1.01164 0.0
C712 C 0.1523 0.72584 0.77521 0.0
C713 C 0.16768 0.75447 0.72816 0.0
C714 C 0.17177 0.74258 0.82744 0.0
C715 C 0.20769 0.7883 0.83417 0.0
C716 C 0.2235 0.81674 0.78698 0.0
C717 C 0.20357 0.8002 0.73492 0.0
C718 C 0.26268 0.86937 0.9571 0.0
C719 C 0.26614 0.84047 0.99653 0.0
C720 C 0.24367 0.85248 0.90476 0.0
C721 C 0.22822 0.80636 0.89011 0.0
C722 C 0.23226 0.77766 0.92962 0.0
C723 C 0.25066 0.79443 0.98227 0.0
H724 H 0.38942 0.18433 0.35548 0.0
H725 H 0.4587 0.32151 0.28632 0.0
H726 H 0.39158 0.15298 0.26565 0.0
H727 H 0.4574 0.28972 0.19539 0.0
H728 H 0.48788 0.22414 0.04839 0.0
H729 H 0.48966 0.25591 0.13996 0.0
H730 H 0.35796 0.13655 0.17788 0.0
H731 H 0.35737 0.10432 0.08719 0.0
C732 C 0.40522 0.20797 0.32126 0.0
C733 C 0.42403 0.25567 0.32873 0.0
C734 C 0.40572 0.18978 0.2692 0.0
C735 C 0.42443 0.21861 0.2227 0.0
C736 C 0.4432 0.26631 0.23011 0.0
C737 C 0.44326 0.28458 0.28237 0.0
C738 C 0.45936 0.20481 0.07641 0.0
C739 C 0.42257 0.16167 0.06066 0.0
C740 C 0.4602 0.22309 0.12891 0.0
C741 C 0.42394 0.19896 0.16679 0.0
C742 C 0.38702 0.15585 0.15062 0.0
C743 C 0.38652 0.13735 0.09843 0.0
H744 H 0.28552 0.58632 0.07805 0.0
H745 H 0.15388 0.46823 0.11686 0.0
H746 H 0.26529 0.63548 0.13074 0.0
H747 H 0.1334 0.51771 0.1708 0.0
H748 H 0.211 0.7216 0.19428 0.0
H749 H 0.21105 0.66547 0.1308 0.0
H750 H 0.16442 0.56508 0.26248 0.0
H751 H 0.16423 0.62201 0.32674 0.0
C752 C 0.25168 0.57114 0.09677 0.0
C753 C 0.22104 0.5237 0.09251 0.0
C754 C 0.24003 0.59925 0.12708 0.0
C755 C 0.1977 0.58057 0.15513 0.0
C756 C 0.16631 0.53309 0.14982 0.0
C757 C 0.17777 0.50489 0.11839 0.0
C758 C 0.20034 0.68747 0.20982 0.0
C759 C 0.18859 0.67662 0.26596 0.0
C760 C 0.20023 0.65521 0.17326 0.0
C761 C 0.18854 0.61103 0.19169 0.0
C762 C 0.17351 0.59884 0.24694 0.0
C763 C 0.17345 0.63141 0.28381 0.0
H764 H 0.70447 0.2843 0.40734 0.0
H765 H 0.68962 0.15293 0.45024 0.0
H766 H 0.63546 0.26575 0.45965 0.0
H767 H 0.61973 0.13391 0.50354 0.0
H768 H 0.49691 0.2162 0.52672 0.0
H769 H 0.55241 0.21546 0.46296 0.0
H770 H 0.60281 0.16375 0.59287 0.0
H771 H 0.54614 0.16399 0.65723 0.0
C772 C 0.6855 0.25078 0.42676 0.0
C773 C 0.70198 0.21984 0.42394 0.0
C774 C 0.64589 0.24006 0.45688 0.0
C775 C 0.62192 0.19831 0.48605 0.0
C776 C 0.63751 0.16646 0.48181 0.0
C777 C 0.67711 0.17703 0.4507 0.0
C778 C 0.51956 0.2044 0.5419 0.0
C779 C 0.51768 0.19113 0.59759 0.0
C780 C 0.55139 0.20386 0.50512 0.0
C781 C 0.58273 0.19035 0.52288 0.0
C782 C 0.57908 0.17423 0.57771 0.0
C783 C 0.54671 0.17448 0.61472 0.0
H784 H 0.38904 0.54635 0.9934 0.0
H785 H 0.28989 0.49186 0.86036 0.0
H786 H 0.44615 0.60294 0.92892 0.0
H787 H 0.34625 0.54736 0.79655 0.0
H788 H 0.42537 0.69988 0.74029 0.0
H789 H 0.37604 0.6307 0.79307 0.0
H790 H 0.49437 0.61956 0.83945 0.0
H791 H 0.54405 0.68941 0.78548 0.0
C792 C 0.37978 0.5457 0.9503 0.0
C793 C 0.33464 0.51532 0.9323 0.0
C794 C 0.41247 0.57803 0.91328 0.0
C795 C 0.40051 0.58022 0.8577 0.0
C796 C 0.35637 0.5474 0.83923 0.0
C797 C 0.32397 0.5156 0.87597 0.0
C798 C 0.44067 0.68186 0.76034 0.0
C799 C 0.48834 0.69956 0.75793 0.0
C800 C 0.41244 0.6422 0.79074 0.0
C801 C 0.43118 0.61949 0.82071 0.0
C802 C 0.4789 0.63634 0.81703 0.0
C803 C 0.50725 0.67593 0.78553 0.0
H804 H 0.84747 0.38691 0.32749 0.0
H805 H 0.80234 0.28817 0.19396 0.0
H806 H 0.84862 0.44443 0.26332 0.0
H807 H 0.80396 0.34499 0.13041 0.0
H808 H 0.73227 0.42485 0.07292 0.0
H809 H 0.75123 0.37525 0.1263 0.0
H810 H 0.88059 0.49314 0.17457 0.0
H811 H 0.86123 0.54324 0.11992 0.0
C812 C 0.83884 0.3778 0.28436 0.0
C813 C 0.8238 0.33266 0.26617 0.0
C814 C 0.8396 0.41074 0.2475 0.0
C815 C 0.82559 0.39908 0.19183 0.0
C816 C 0.81393 0.35491 0.17317 0.0
C817 C 0.81287 0.32222 0.20978 0.0
C818 C 0.76535 0.44003 0.09364 0.0
C819 C 0.79551 0.48769 0.09156 0.0
C820 C 0.7763 0.41163 0.12434 0.0
C821 C 0.81748 0.43011 0.15489 0.0
C822 C 0.84853 0.47786 0.15169 0.0
C823 C 0.83776 0.50643 0.11991 0.0
H824 H 0.30801 0.72449 0.41103 0.0
H825 H 0.32249 0.85628 0.45107 0.0
H826 H 0.3773 0.74411 0.46367 0.0
H827 H 0.39239 0.87618 0.50487 0.0
H828 H 0.51776 0.79759 0.52771 0.0
H829 H 0.46143 0.79736 0.46443 0.0
H830 H 0.40872 0.84535 0.59591 0.0
H831 H 0.46596 0.8457 0.65998 0.0
C832 C 0.32686 0.75824 0.43 0.0
C833 C 0.31032 0.78909 0.42612 0.0
C834 C 0.36657 0.76955 0.46028 0.0
C835 C 0.39046 0.81174 0.48865 0.0
C836 C 0.37467 0.84335 0.48367 0.0
C837 C 0.33504 0.83223 0.4523 0.0
C838 C 0.49444 0.80841 0.54332 0.0
C839 C 0.49573 0.82065 0.59937 0.0
C840 C 0.46219 0.80843 0.50684 0.0
C841 C 0.43 0.82055 0.52522 0.0
C842 C 0.43315 0.83592 0.58038 0.0
C843 C 0.46586 0.83606 0.61717 0.0
H844 H 0.62683 0.46478 0.99291 0.0
H845 H 0.72589 0.51683 0.8598 0.0
H846 H 0.56935 0.40787 0.92916 0.0
H847 H 0.6691 0.4609 0.79667 0.0
H848 H 0.4701 0.32109 0.78634 0.0
H849 H 0.5208 0.39076 0.84057 0.0
H850 H 0.63786 0.37778 0.79301 0.0
H851 H 0.58767 0.30904 0.73999 0.0
C852 C 0.6361 0.46478 0.94998 0.0
C853 C 0.68133 0.4947 0.9319 0.0
C854 C 0.60313 0.43225 0.91333 0.0
C855 C 0.61482 0.42927 0.85791 0.0
C856 C 0.65914 0.46143 0.83928 0.0
C857 C 0.69185 0.49347 0.8757 0.0
C858 C 0.50686 0.33411 0.78646 0.0
C859 C 0.52519 0.31015 0.75839 0.0
C860 C 0.53579 0.37359 0.81797 0.0
C861 C 0.58348 0.38995 0.82123 0.0
C862 C 0.60154 0.36674 0.79101 0.0
C863 C 0.57279 0.32727 0.76054 0.0
loop_
_geom_bond_atom_site_label_1
_geom_bond_atom_site_label_2
_geom_bond_distance
_geom_bond_site_symmetry_2
_ccdc_geom_bond_type
Tb0 N31 2.660 . S
Tb0 N38 2.600 . S
Tb0 O44 2.546 . S
Tb0 O45 2.610 . S
Tb0 O47 2.320 . S
Tb0 O48 2.552 . S
Tb0 O49 2.413 . S
Tb0 O51 2.362 1_556 S
Tb0 O52 2.421 1_556 S
Tb0 C64 2.833 . S
C1 C4 1.432 . S
C1 C5 1.414 . S
C1 N8 1.359 . S
C2 C4 1.417 . S
C2 C6 1.432 . S
C2 C14 1.410 . S
C3 C5 1.444 . S
C3 C6 1.317 . S
C3 H26 0.929 . S
C4 C1 1.432 . S
C4 C2 1.417 . S
C4 N12 1.360 . S
C5 C1 1.414 . S
C5 C3 1.444 . S
C5 C10 1.385 . S
C6 C2 1.432 . S
C6 C3 1.317 . S
C6 H18 0.930 . S
C7 C9 1.392 . S
C7 C10 1.370 . S
C7 H19 0.931 . S
N8 C1 1.359 . S
N8 C9 1.327 . S
N8 Tb11 2.600 . S
C9 C7 1.392 . S
C9 N8 1.327 . S
C9 H16 0.930 . S
C10 C5 1.385 . S
C10 C7 1.370 . S
C10 H29 0.930 . S
Tb11 N8 2.600 . S
Tb11 N12 2.660 . S
Tb11 O45 2.362 1_554 S
Tb11 O46 2.421 . S
Tb11 O50 2.546 . S
Tb11 O51 2.610 . S
Tb11 O53 2.320 . S
Tb11 O54 2.552 . S
Tb11 O55 2.413 . S
Tb11 C75 2.833 . S
N12 C4 1.360 . S
N12 Tb11 2.660 . S
N12 C13 1.305 . S
C13 N12 1.305 . S
C13 C15 1.407 . S
C13 H20 0.930 . S
C14 C2 1.410 . S
C14 C15 1.345 . S
C14 H22 0.930 . S
C15 C13 1.407 . S
C15 C14 1.345 . S
C15 H17 0.930 . S
H16 C9 0.930 . S
H17 C15 0.930 . S
H18 C6 0.930 . S
H19 C7 0.931 . S
H20 C13 0.930 . S
H21 C35 0.930 . S
H22 C14 0.930 . S
H23 C41 0.930 . S
H24 C32 0.930 . S
H25 C39 0.931 1_655 S
H26 C3 0.929 . S
H27 C33 0.930 . S
H28 C66 0.930 . S
H29 C10 0.930 . S
H30 C65 0.929 . S
N31 Tb0 2.660 . S
N31 C32 1.305 . S
N31 C36 1.360 . S
C32 H24 0.930 . S
C32 N31 1.305 . S
C32 C35 1.407 . S
C33 H27 0.930 . S
C33 C34 1.410 . S
C33 C35 1.345 . S
C34 C33 1.410 . S
C34 C36 1.417 . S
C34 C66 1.432 . S
C35 H21 0.930 . S
C35 C32 1.407 . S
C35 C33 1.345 . S
C36 N31 1.360 . S
C36 C34 1.417 . S
C36 C40 1.432 . S
H37 C42 0.930 1_655 S
N38 Tb0 2.600 . S
N38 C40 1.359 . S
N38 C41 1.327 . S
C39 H25 0.931 1_455 S
C39 C41 1.392 . S
C39 C42 1.370 . S
C40 C36 1.432 . S
C40 N38 1.359 . S
C40 C43 1.414 . S
C41 H23 0.930 . S
C41 N38 1.327 . S
C41 C39 1.392 . S
C42 H37 0.930 1_455 S
C42 C39 1.370 . S
C42 C43 1.385 . S
C43 C40 1.414 . S
C43 C42 1.385 . S
C43 C65 1.444 . S
O44 Tb0 2.546 . S
O44 C64 1.251 . S
O45 Tb0 2.610 . S
O45 Tb11 2.362 1_556 S
O45 C56 1.283 . S
O46 Tb11 2.421 . S
O46 C63 1.262 1_554 S
O47 Tb0 2.320 . S
O47 C63 1.260 . S
O48 Tb0 2.552 . S
O48 C56 1.243 . S
O49 Tb0 2.413 . S
O49 C64 1.256 . S
O50 Tb11 2.546 . S
O50 C75 1.251 . S
O51 Tb0 2.362 1_554 S
O51 Tb11 2.610 . S
O51 C67 1.283 . S
O52 Tb0 2.421 1_554 S
O52 C74 1.262 . S
O53 Tb11 2.320 . S
O53 C74 1.260 . S
O54 Tb11 2.552 . S
O54 C67 1.243 . S
O55 Tb11 2.413 . S
O55 C75 1.256 . S
C56 O45 1.283 . S
C56 O48 1.243 . S
C57 C59 1.382 . S
C57 C61 1.393 . S
C57 C64 1.500 . S
C58 C59 1.400 . S
C58 C60 1.384 . S
C59 C57 1.382 . S
C59 C58 1.400 . S
C59 H76 0.930 . S
C60 C58 1.384 . S
C60 C62 1.392 . S
C60 H77 0.931 . S
C61 C57 1.393 . S
C61 C62 1.401 . S
C61 H78 0.930 . S
C62 C60 1.392 . S
C62 C61 1.401 . S
C62 H79 0.930 . S
C63 O46 1.262 1_556 S
C63 O47 1.260 . S
C64 Tb0 2.833 . S
C64 O44 1.251 . S
C64 O49 1.256 . S
C64 C57 1.500 . S
C65 H30 0.929 . S
C65 C43 1.444 . S
C65 C66 1.317 . S
C66 H28 0.930 . S
C66 C34 1.432 . S
C66 C65 1.317 . S
C67 O51 1.283 . S
C67 O54 1.243 . S
C68 C69 1.382 . S
C68 C72 1.393 . S
C68 C75 1.500 . S
C69 C68 1.382 . S
C69 C70 1.400 . S
C69 H80 0.930 . S
C70 C69 1.400 . S
C70 C71 1.384 . S
C71 C70 1.384 . S
C71 C73 1.392 . S
C71 H81 0.931 . S
C72 C68 1.393 . S
C72 C73 1.401 . S
C72 H82 0.930 . S
C73 C71 1.392 . S
C73 C72 1.401 . S
C73 H83 0.930 . S
C74 O52 1.262 . S
C74 O53 1.260 . S
C75 Tb11 2.833 . S
C75 O50 1.251 . S
C75 O55 1.256 . S
C75 C68 1.500 . S
H76 C59 0.930 . S
H77 C60 0.931 . S
H78 C61 0.930 . S
H79 C62 0.930 . S
H80 C69 0.930 . S
H81 C71 0.931 . S
H82 C72 0.930 . S
H83 C73 0.930 . S
Tb84 N115 2.660 . S
Tb84 N122 2.600 . S
Tb84 O128 2.546 . S
Tb84 O129 2.610 . S
Tb84 O131 2.320 . S
Tb84 O132 2.552 . S
Tb84 O133 2.413 . S
Tb84 O135 2.362 . S
Tb84 O136 2.421 . S
Tb84 C148 2.833 . S
C85 C88 1.432 . S
C85 C89 1.414 . S
C85 N92 1.359 . S
C86 C88 1.417 . S
C86 C90 1.432 1_655 S
C86 C98 1.410 . S
C87 C89 1.444 1_455 S
C87 C90 1.317 . S
C87 H110 0.929 . S
C88 C85 1.432 . S
C88 C86 1.417 . S
C88 N96 1.360 . S
C89 C85 1.414 . S
C89 C87 1.444 1_655 S
C89 C94 1.385 . S
C90 C86 1.432 1_455 S
C90 C87 1.317 . S
C90 H102 0.930 . S
C91 C93 1.392 . S
C91 C94 1.370 . S
C91 H103 0.931 . S
N92 C85 1.359 . S
N92 C93 1.327 . S
N92 Tb95 2.600 . S
C93 C91 1.392 . S
C93 N92 1.327 . S
C93 H100 0.930 . S
C94 C89 1.385 . S
C94 C91 1.370 . S
C94 H113 0.930 1_655 S
Tb95 N92 2.600 . S
Tb95 N96 2.660 . S
Tb95 O129 2.362 . S
Tb95 O130 2.421 . S
Tb95 O134 2.546 . S
Tb95 O135 2.610 . S
Tb95 O137 2.320 . S
Tb95 O138 2.552 . S
Tb95 O139 2.413 . S
Tb95 C159 2.833 . S
N96 C88 1.360 . S
N96 Tb95 2.660 . S
N96 C97 1.305 . S
C97 N96 1.305 . S
C97 C99 1.407 . S
C97 H104 0.930 . S
C98 C86 1.410 . S
C98 C99 1.345 . S
C98 H106 0.930 1_655 S
C99 C97 1.407 . S
C99 C98 1.345 . S
C99 H101 0.930 . S
H100 C93 0.930 . S
H101 C99 0.930 . S
H102 C90 0.930 . S
H103 C91 0.931 . S
H104 C97 0.930 . S
H105 C119 0.930 . S
H106 C98 0.930 1_455 S
H107 C125 0.930 . S
H108 C116 0.930 . S
H109 C123 0.931 1_565 S
H110 C87 0.929 . S
H111 C117 0.930 . S
H112 C150 0.930 . S
H113 C94 0.930 1_455 S
H114 C149 0.929 . S
N115 Tb84 2.660 . S
N115 C116 1.305 . S
N115 C120 1.360 . S
C116 H108 0.930 . S
C116 N115 1.305 . S
C116 C119 1.407 . S
C117 H111 0.930 . S
C117 C118 1.410 . S
C117 C119 1.345 . S
C118 C117 1.410 . S
C118 C120 1.417 . S
C118 C150 1.432 . S
C119 H105 0.930 . S
C119 C116 1.407 . S
C119 C117 1.345 . S
C120 N115 1.360 . S
C120 C118 1.417 . S
C120 C124 1.432 . S
H121 C126 0.930 1_565 S
N122 Tb84 2.600 . S
N122 C124 1.359 . S
N122 C125 1.327 . S
C123 H109 0.931 1_545 S
C123 C125 1.392 . S
C123 C126 1.370 . S
C124 C120 1.432 . S
C124 N122 1.359 . S
C124 C127 1.414 . S
C125 H107 0.930 . S
C125 N122 1.327 . S
C125 C123 1.392 . S
C126 H121 0.930 1_545 S
C126 C123 1.370 . S
C126 C127 1.385 . S
C127 C124 1.414 . S
C127 C126 1.385 . S
C127 C149 1.444 . S
O128 Tb84 2.546 . S
O128 C148 1.251 . S
O129 Tb84 2.610 . S
O129 Tb95 2.362 . S
O129 C140 1.283 . S
O130 Tb95 2.421 . S
O130 C147 1.262 . S
O131 Tb84 2.320 . S
O131 C147 1.260 . S
O132 Tb84 2.552 . S
O132 C140 1.243 . S
O133 Tb84 2.413 . S
O133 C148 1.256 . S
O134 Tb95 2.546 . S
O134 C159 1.251 . S
O135 Tb84 2.362 . S
O135 Tb95 2.610 . S
O135 C151 1.283 . S
O136 Tb84 2.421 . S
O136 C158 1.262 . S
O137 Tb95 2.320 . S
O137 C158 1.260 . S
O138 Tb95 2.552 . S
O138 C151 1.243 . S
O139 Tb95 2.413 . S
O139 C159 1.256 . S
C140 O129 1.283 . S
C140 O132 1.243 . S
C141 C143 1.382 . S
C141 C145 1.393 . S
C141 C148 1.500 . S
C142 C143 1.400 . S
C142 C144 1.384 . S
C143 C141 1.382 . S
C143 C142 1.400 . S
C143 H160 0.930 . S
C144 C142 1.384 . S
C144 C146 1.392 . S
C144 H161 0.931 1_554 S
C145 C141 1.393 . S
C145 C146 1.401 . S
C145 H162 0.930 . S
C146 C144 1.392 . S
C146 C145 1.401 . S
C146 H163 0.930 . S
C147 O130 1.262 . S
C147 O131 1.260 . S
C148 Tb84 2.833 . S
C148 O128 1.251 . S
C148 O133 1.256 . S
C148 C141 1.500 . S
C149 H114 0.929 . S
C149 C127 1.444 . S
C149 C150 1.317 . S
C150 H112 0.930 . S
C150 C118 1.432 . S
C150 C149 1.317 . S
C151 O135 1.283 . S
C151 O138 1.243 . S
C152 C153 1.382 . S
C152 C156 1.393 . S
C152 C159 1.500 . S
C153 C152 1.382 . S
C153 C154 1.400 . S
C153 H164 0.930 . S
C154 C153 1.400 . S
C154 C155 1.384 . S
C155 C154 1.384 . S
C155 C157 1.392 . S
C155 H165 0.931 . S
C156 C152 1.393 . S
C156 C157 1.401 . S
C156 H166 0.930 . S
C157 C155 1.392 . S
C157 C156 1.401 . S
C157 H167 0.930 . S
C158 O136 1.262 . S
C158 O137 1.260 . S
C159 Tb95 2.833 . S
C159 O134 1.251 . S
C159 O139 1.256 . S
C159 C152 1.500 . S
H160 C143 0.930 . S
H161 C144 0.931 1_556 S
H162 C145 0.930 . S
H163 C146 0.930 . S
H164 C153 0.930 . S
H165 C155 0.931 . S
H166 C156 0.930 . S
H167 C157 0.930 . S
Tb168 N199 2.660 . S
Tb168 N206 2.600 . S
Tb168 O212 2.546 . S
Tb168 O213 2.610 . S
Tb168 O215 2.320 . S
Tb168 O216 2.552 . S
Tb168 O217 2.413 . S
Tb168 O219 2.362 . S
Tb168 O220 2.421 . S
Tb168 C232 2.833 . S
C169 C172 1.432 . S
C169 C173 1.414 . S
C169 N176 1.359 . S
C170 C172 1.417 . S
C170 C174 1.432 1_565 S
C170 C182 1.410 . S
C171 C173 1.444 1_545 S
C171 C174 1.317 . S
C171 H194 0.929 . S
C172 C169 1.432 . S
C172 C170 1.417 . S
C172 N180 1.360 . S
C173 C169 1.414 . S
C173 C171 1.444 1_565 S
C173 C178 1.385 . S
C174 C170 1.432 1_545 S
C174 C171 1.317 . S
C174 H186 0.930 . S
C175 C177 1.392 . S
C175 C178 1.370 . S
C175 H187 0.931 . S
N176 C169 1.359 . S
N176 C177 1.327 . S
N176 Tb179 2.600 . S
C177 C175 1.392 . S
C177 N176 1.327 . S
C177 H184 0.930 . S
C178 C173 1.385 . S
C178 C175 1.370 . S
C178 H197 0.930 1_565 S
Tb179 N176 2.600 . S
Tb179 N180 2.660 . S
Tb179 O213 2.362 . S
Tb179 O214 2.421 . S
Tb179 O218 2.546 . S
Tb179 O219 2.610 . S
Tb179 O221 2.320 . S
Tb179 O222 2.552 . S
Tb179 O223 2.413 . S
Tb179 C243 2.833 . S
N180 C172 1.360 . S
N180 Tb179 2.660 . S
N180 C181 1.305 . S
C181 N180 1.305 . S
C181 C183 1.407 . S
C181 H188 0.930 . S
C182 C170 1.410 . S
C182 C183 1.345 . S
C182 H190 0.930 1_565 S
C183 C181 1.407 . S
C183 C182 1.345 . S
C183 H185 0.930 . S
H184 C177 0.930 . S
H185 C183 0.930 . S
H186 C174 0.930 . S
H187 C175 0.931 . S
H188 C181 0.930 . S
H189 C203 0.930 . S
H190 C182 0.930 1_545 S
H191 C209 0.930 . S
H192 C200 0.930 . S
H193 C207 0.931 . S
H194 C171 0.929 . S
H195 C201 0.930 . S
H196 C234 0.930 . S
H197 C178 0.930 1_545 S
H198 C233 0.929 . S
N199 Tb168 2.660 . S
N199 C200 1.305 . S
N199 C204 1.360 . S
C200 H192 0.930 . S
C200 N199 1.305 . S
C200 C203 1.407 . S
C201 H195 0.930 . S
C201 C202 1.410 . S
C201 C203 1.345 . S
C202 C201 1.410 . S
C202 C204 1.417 . S
C202 C234 1.432 . S
C203 H189 0.930 . S
C203 C200 1.407 . S
C203 C201 1.345 . S
C204 N199 1.360 . S
C204 C202 1.417 . S
C204 C208 1.432 . S
H205 C210 0.930 . S
N206 Tb168 2.600 . S
N206 C208 1.359 . S
N206 C209 1.327 . S
C207 H193 0.931 . S
C207 C209 1.392 . S
C207 C210 1.370 . S
C208 C204 1.432 . S
C208 N206 1.359 . S
C208 C211 1.414 . S
C209 H191 0.930 . S
C209 N206 1.327 . S
C209 C207 1.392 . S
C210 H205 0.930 . S
C210 C207 1.370 . S
C210 C211 1.385 . S
C211 C208 1.414 . S
C211 C210 1.385 . S
C211 C233 1.444 . S
O212 Tb168 2.546 . S
O212 C232 1.251 . S
O213 Tb168 2.610 . S
O213 Tb179 2.362 . S
O213 C224 1.283 . S
O214 Tb179 2.421 . S
O214 C231 1.262 . S
O215 Tb168 2.320 . S
O215 C231 1.260 . S
O216 Tb168 2.552 . S
O216 C224 1.243 . S
O217 Tb168 2.413 . S
O217 C232 1.256 . S
O218 Tb179 2.546 . S
O218 C243 1.251 . S
O219 Tb168 2.362 . S
O219 Tb179 2.610 . S
O219 C235 1.283 . S
O220 Tb168 2.421 . S
O220 C242 1.262 . S
O221 Tb179 2.320 . S
O221 C242 1.260 . S
O222 Tb179 2.552 . S
O222 C235 1.243 . S
O223 Tb179 2.413 . S
O223 C243 1.256 . S
C224 O213 1.283 . S
C224 O216 1.243 . S
C225 C227 1.382 . S
C225 C229 1.393 . S
C225 C232 1.500 . S
C226 C227 1.400 . S
C226 C228 1.384 . S
C227 C225 1.382 . S
C227 C226 1.400 . S
C227 H244 0.930 . S
C228 C226 1.384 . S
C228 C230 1.392 . S
C228 H245 0.931 . S
C229 C225 1.393 . S
C229 C230 1.401 . S
C229 H246 0.930 . S
C230 C228 1.392 . S
C230 C229 1.401 . S
C230 H247 0.930 . S
C231 O214 1.262 . S
C231 O215 1.260 . S
C232 Tb168 2.833 . S
C232 O212 1.251 . S
C232 O217 1.256 . S
C232 C225 1.500 . S
C233 H198 0.929 . S
C233 C211 1.444 . S
C233 C234 1.317 . S
C234 H196 0.930 . S
C234 C202 1.432 . S
C234 C233 1.317 . S
C235 O219 1.283 . S
C235 O222 1.243 . S
C236 C237 1.382 . S
C236 C240 1.393 . S
C236 C243 1.500 . S
C237 C236 1.382 . S
C237 C238 1.400 . S
C237 H248 0.930 . S
C238 C237 1.400 . S
C238 C239 1.384 1_556 S
C239 C238 1.384 1_554 S
C239 C241 1.392 1_554 S
C239 H249 0.931 . S
C240 C236 1.393 . S
C240 C241 1.401 . S
C240 H250 0.930 . S
C241 C239 1.392 1_556 S
C241 C240 1.401 . S
C241 H251 0.930 . S
C242 O220 1.262 . S
C242 O221 1.260 . S
C243 Tb179 2.833 . S
C243 O218 1.251 . S
C243 O223 1.256 . S
C243 C236 1.500 . S
H244 C227 0.930 . S
H245 C228 0.931 . S
H246 C229 0.930 . S
H247 C230 0.930 . S
H248 C237 0.930 . S
H249 C239 0.931 . S
H250 C240 0.930 . S
H251 C241 0.930 . S
Tb252 N283 2.660 . S
Tb252 N290 2.600 . S
Tb252 O296 2.546 . S
Tb252 O297 2.610 . S
Tb252 O299 2.320 . S
Tb252 O300 2.552 . S
Tb252 O301 2.413 . S
Tb252 O303 2.362 1_556 S
Tb252 O304 2.421 1_556 S
Tb252 C316 2.833 . S
C253 C256 1.432 . S
C253 C257 1.414 . S
C253 N260 1.359 . S
C254 C256 1.417 . S
C254 C258 1.432 . S
C254 C266 1.410 . S
C255 C257 1.444 . S
C255 C258 1.317 . S
C255 H278 0.929 . S
C256 C253 1.432 . S
C256 C254 1.417 . S
C256 N264 1.360 . S
C257 C253 1.414 . S
C257 C255 1.444 . S
C257 C262 1.385 . S
C258 C254 1.432 . S
C258 C255 1.317 . S
C258 H270 0.930 . S
C259 C261 1.392 . S
C259 C262 1.370 . S
C259 H271 0.931 . S
N260 C253 1.359 . S
N260 C261 1.327 . S
N260 Tb263 2.600 . S
C261 C259 1.392 . S
C261 N260 1.327 . S
C261 H268 0.930 . S
C262 C257 1.385 . S
C262 C259 1.370 . S
C262 H281 0.930 . S
Tb263 N260 2.600 . S
Tb263 N264 2.660 . S
Tb263 O297 2.362 1_554 S
Tb263 O298 2.421 . S
Tb263 O302 2.546 . S
Tb263 O303 2.610 . S
Tb263 O305 2.320 . S
Tb263 O306 2.552 . S
Tb263 O307 2.413 . S
Tb263 C327 2.833 . S
N264 C256 1.360 . S
N264 Tb263 2.660 . S
N264 C265 1.305 . S
C265 N264 1.305 . S
C265 C267 1.407 . S
C265 H272 0.930 . S
C266 C254 1.410 . S
C266 C267 1.345 . S
C266 H274 0.930 . S
C267 C265 1.407 . S
C267 C266 1.345 . S
C267 H269 0.930 . S
H268 C261 0.930 . S
H269 C267 0.930 . S
H270 C258 0.930 . S
H271 C259 0.931 . S
H272 C265 0.930 . S
H273 C287 0.930 . S
H274 C266 0.930 . S
H275 C293 0.930 . S
H276 C284 0.930 . S
H277 C291 0.931 1_455 S
H278 C255 0.929 . S
H279 C285 0.930 . S
H280 C318 0.930 . S
H281 C262 0.930 . S
H282 C317 0.929 . S
N283 Tb252 2.660 . S
N283 C284 1.305 . S
N283 C288 1.360 . S
C284 H276 0.930 . S
C284 N283 1.305 . S
C284 C287 1.407 . S
C285 H279 0.930 . S
C285 C286 1.410 . S
C285 C287 1.345 . S
C286 C285 1.410 . S
C286 C288 1.417 . S
C286 C318 1.432 . S
C287 H273 0.930 . S
C287 C284 1.407 . S
C287 C285 1.345 . S
C288 N283 1.360 . S
C288 C286 1.417 . S
C288 C292 1.432 . S
H289 C294 0.930 1_455 S
N290 Tb252 2.600 . S
N290 C292 1.359 . S
N290 C293 1.327 . S
C291 H277 0.931 1_655 S
C291 C293 1.392 . S
C291 C294 1.370 . S
C292 C288 1.432 . S
C292 N290 1.359 . S
C292 C295 1.414 . S
C293 H275 0.930 . S
C293 N290 1.327 . S
C293 C291 1.392 . S
C294 H289 0.930 1_655 S
C294 C291 1.370 . S
C294 C295 1.385 . S
C295 C292 1.414 . S
C295 C294 1.385 . S
C295 C317 1.444 . S
O296 Tb252 2.546 . S
O296 C316 1.251 . S
O297 Tb252 2.610 . S
O297 Tb263 2.362 1_556 S
O297 C308 1.283 . S
O298 Tb263 2.421 . S
O298 C315 1.262 1_554 S
O299 Tb252 2.320 . S
O299 C315 1.260 . S
O300 Tb252 2.552 . S
O300 C308 1.243 . S
O301 Tb252 2.413 . S
O301 C316 1.256 . S
O302 Tb263 2.546 . S
O302 C327 1.251 . S
O303 Tb252 2.362 1_554 S
O303 Tb263 2.610 . S
O303 C319 1.283 . S
O304 Tb252 2.421 1_554 S
O304 C326 1.262 . S
O305 Tb263 2.320 . S
O305 C326 1.260 . S
O306 Tb263 2.552 . S
O306 C319 1.243 . S
O307 Tb263 2.413 . S
O307 C327 1.256 . S
C308 O297 1.283 . S
C308 O300 1.243 . S
C309 C311 1.382 . S
C309 C313 1.393 . S
C309 C316 1.500 . S
C310 C311 1.400 . S
C310 C312 1.384 . S
C311 C309 1.382 . S
C311 C310 1.400 . S
C311 H328 0.930 . S
C312 C310 1.384 . S
C312 C314 1.392 . S
C312 H329 0.931 . S
C313 C309 1.393 . S
C313 C314 1.401 . S
C313 H330 0.930 . S
C314 C312 1.392 . S
C314 C313 1.401 . S
C314 H331 0.930 . S
C315 O298 1.262 1_556 S
C315 O299 1.260 . S
C316 Tb252 2.833 . S
C316 O296 1.251 . S
C316 O301 1.256 . S
C316 C309 1.500 . S
C317 H282 0.929 . S
C317 C295 1.444 . S
C317 C318 1.317 . S
C318 H280 0.930 . S
C318 C286 1.432 . S
C318 C317 1.317 . S
C319 O303 1.283 . S
C319 O306 1.243 . S
C320 C321 1.382 . S
C320 C324 1.393 . S
C320 C327 1.500 . S
C321 C320 1.382 . S
C321 C322 1.400 . S
C321 H332 0.930 . S
C322 C321 1.400 . S
C322 C323 1.384 . S
C323 C322 1.384 . S
C323 C325 1.392 . S
C323 H333 0.931 . S
C324 C320 1.393 . S
C324 C325 1.401 . S
C324 H334 0.930 . S
C325 C323 1.392 . S
C325 C324 1.401 . S
C325 H335 0.930 . S
C326 O304 1.262 . S
C326 O305 1.260 . S
C327 Tb263 2.833 . S
C327 O302 1.251 . S
C327 O307 1.256 . S
C327 C320 1.500 . S
H328 C311 0.930 . S
H329 C312 0.931 . S
H330 C313 0.930 . S
H331 C314 0.930 . S
H332 C321 0.930 . S
H333 C323 0.931 . S
H334 C324 0.930 . S
H335 C325 0.930 . S
Tb336 N367 2.660 . S
Tb336 N374 2.600 . S
Tb336 O380 2.546 . S
Tb336 O381 2.610 . S
Tb336 O383 2.320 . S
Tb336 O384 2.552 . S
Tb336 O385 2.413 . S
Tb336 O387 2.362 . S
Tb336 O388 2.421 . S
Tb336 C400 2.833 . S
C337 C340 1.432 . S
C337 C341 1.414 . S
C337 N344 1.359 . S
C338 C340 1.417 . S
C338 C342 1.432 1_455 S
C338 C350 1.410 . S
C339 C341 1.444 1_655 S
C339 C342 1.317 . S
C339 H362 0.929 . S
C340 C337 1.432 . S
C340 C338 1.417 . S
C340 N348 1.360 . S
C341 C337 1.414 . S
C341 C339 1.444 1_455 S
C341 C346 1.385 . S
C342 C338 1.432 1_655 S
C342 C339 1.317 . S
C342 H354 0.930 . S
C343 C345 1.392 . S
C343 C346 1.370 . S
C343 H355 0.931 . S
N344 C337 1.359 . S
N344 C345 1.327 . S
N344 Tb347 2.600 . S
C345 C343 1.392 . S
C345 N344 1.327 . S
C345 H352 0.930 . S
C346 C341 1.385 . S
C346 C343 1.370 . S
C346 H365 0.930 1_455 S
Tb347 N344 2.600 . S
Tb347 N348 2.660 . S
Tb347 O381 2.362 . S
Tb347 O382 2.421 . S
Tb347 O386 2.546 . S
Tb347 O387 2.610 . S
Tb347 O389 2.320 . S
Tb347 O390 2.552 . S
Tb347 O391 2.413 . S
Tb347 C411 2.833 . S
N348 C340 1.360 . S
N348 Tb347 2.660 . S
N348 C349 1.305 . S
C349 N348 1.305 . S
C349 C351 1.407 . S
C349 H356 0.930 . S
C350 C338 1.410 . S
C350 C351 1.345 . S
C350 H358 0.930 1_455 S
C351 C349 1.407 . S
C351 C350 1.345 . S
C351 H353 0.930 . S
H352 C345 0.930 . S
H353 C351 0.930 . S
H354 C342 0.930 . S
H355 C343 0.931 . S
H356 C349 0.930 . S
H357 C371 0.930 . S
H358 C350 0.930 1_655 S
H359 C377 0.930 . S
H360 C368 0.930 . S
H361 C375 0.931 1_545 S
H362 C339 0.929 . S
H363 C369 0.930 . S
H364 C402 0.930 . S
H365 C346 0.930 1_655 S
H366 C401 0.929 . S
N367 Tb336 2.660 . S
N367 C368 1.305 . S
N367 C372 1.360 . S
C368 H360 0.930 . S
C368 N367 1.305 . S
C368 C371 1.407 . S
C369 H363 0.930 . S
C369 C370 1.410 . S
C369 C371 1.345 . S
C370 C369 1.410 . S
C370 C372 1.417 . S
C370 C402 1.432 . S
C371 H357 0.930 . S
C371 C368 1.407 . S
C371 C369 1.345 . S
C372 N367 1.360 . S
C372 C370 1.417 . S
C372 C376 1.432 . S
H373 C378 0.930 1_545 S
N374 Tb336 2.600 . S
N374 C376 1.359 . S
N374 C377 1.327 . S
C375 H361 0.931 1_565 S
C375 C377 1.392 . S
C375 C378 1.370 . S
C376 C372 1.432 . S
C376 N374 1.359 . S
C376 C379 1.414 . S
C377 H359 0.930 . S
C377 N374 1.327 . S
C377 C375 1.392 . S
C378 H373 0.930 1_565 S
C378 C375 1.370 . S
C378 C379 1.385 . S
C379 C376 1.414 . S
C379 C378 1.385 . S
C379 C401 1.444 . S
O380 Tb336 2.546 . S
O380 C400 1.251 . S
O381 Tb336 2.610 . S
O381 Tb347 2.362 . S
O381 C392 1.283 . S
O382 Tb347 2.421 . S
O382 C399 1.262 . S
O383 Tb336 2.320 . S
O383 C399 1.260 . S
O384 Tb336 2.552 . S
O384 C392 1.243 . S
O385 Tb336 2.413 . S
O385 C400 1.256 . S
O386 Tb347 2.546 . S
O386 C411 1.251 . S
O387 Tb336 2.362 . S
O387 Tb347 2.610 . S
O387 C403 1.283 . S
O388 Tb336 2.421 . S
O388 C410 1.262 . S
O389 Tb347 2.320 . S
O389 C410 1.260 . S
O390 Tb347 2.552 . S
O390 C403 1.243 . S
O391 Tb347 2.413 . S
O391 C411 1.256 . S
C392 O381 1.283 . S
C392 O384 1.243 . S
C393 C395 1.382 . S
C393 C397 1.393 . S
C393 C400 1.500 . S
C394 C395 1.400 . S
C394 C396 1.384 . S
C395 C393 1.382 . S
C395 C394 1.400 . S
C395 H412 0.930 . S
C396 C394 1.384 . S
C396 C398 1.392 . S
C396 H413 0.931 1_554 S
C397 C393 1.393 . S
C397 C398 1.401 . S
C397 H414 0.930 . S
C398 C396 1.392 . S
C398 C397 1.401 . S
C398 H415 0.930 . S
C399 O382 1.262 . S
C399 O383 1.260 . S
C400 Tb336 2.833 . S
C400 O380 1.251 . S
C400 O385 1.256 . S
C400 C393 1.500 . S
C401 H366 0.929 . S
C401 C379 1.444 . S
C401 C402 1.317 . S
C402 H364 0.930 . S
C402 C370 1.432 . S
C402 C401 1.317 . S
C403 O387 1.283 . S
C403 O390 1.243 . S
C404 C405 1.382 . S
C404 C408 1.393 . S
C404 C411 1.500 . S
C405 C404 1.382 . S
C405 C406 1.400 . S
C405 H416 0.930 . S
C406 C405 1.400 . S
C406 C407 1.384 . S
C407 C406 1.384 . S
C407 C409 1.392 . S
C407 H417 0.931 . S
C408 C404 1.393 . S
C408 C409 1.401 . S
C408 H418 0.930 . S
C409 C407 1.392 . S
C409 C408 1.401 . S
C409 H419 0.930 . S
C410 O388 1.262 . S
C410 O389 1.260 . S
C411 Tb347 2.833 . S
C411 O386 1.251 . S
C411 O391 1.256 . S
C411 C404 1.500 . S
H412 C395 0.930 . S
H413 C396 0.931 1_556 S
H414 C397 0.930 . S
H415 C398 0.930 . S
H416 C405 0.930 . S
H417 C407 0.931 . S
H418 C408 0.930 . S
H419 C409 0.930 . S
Tb420 N451 2.660 . S
Tb420 N458 2.600 . S
Tb420 O464 2.546 . S
Tb420 O465 2.610 . S
Tb420 O467 2.320 . S
Tb420 O468 2.552 . S
Tb420 O469 2.413 . S
Tb420 O471 2.362 . S
Tb420 O472 2.421 . S
Tb420 C484 2.833 . S
C421 C424 1.432 . S
C421 C425 1.414 . S
C421 N428 1.359 . S
C422 C424 1.417 . S
C422 C426 1.432 1_545 S
C422 C434 1.410 . S
C423 C425 1.444 1_565 S
C423 C426 1.317 . S
C423 H446 0.929 . S
C424 C421 1.432 . S
C424 C422 1.417 . S
C424 N432 1.360 . S
C425 C421 1.414 . S
C425 C423 1.444 1_545 S
C425 C430 1.385 . S
C426 C422 1.432 1_565 S
C426 C423 1.317 . S
C426 H438 0.930 . S
C427 C429 1.392 . S
C427 C430 1.370 . S
C427 H439 0.931 . S
N428 C421 1.359 . S
N428 C429 1.327 . S
N428 Tb431 2.600 . S
C429 C427 1.392 . S
C429 N428 1.327 . S
C429 H436 0.930 . S
C430 C425 1.385 . S
C430 C427 1.370 . S
C430 H449 0.930 1_545 S
Tb431 N428 2.600 . S
Tb431 N432 2.660 . S
Tb431 O465 2.362 . S
Tb431 O466 2.421 . S
Tb431 O470 2.546 . S
Tb431 O471 2.610 . S
Tb431 O473 2.320 . S
Tb431 O474 2.552 . S
Tb431 O475 2.413 . S
Tb431 C495 2.833 . S
N432 C424 1.360 . S
N432 Tb431 2.660 . S
N432 C433 1.305 . S
C433 N432 1.305 . S
C433 C435 1.407 . S
C433 H440 0.930 . S
C434 C422 1.410 . S
C434 C435 1.345 . S
C434 H442 0.930 1_545 S
C435 C433 1.407 . S
C435 C434 1.345 . S
C435 H437 0.930 . S
H436 C429 0.930 . S
H437 C435 0.930 . S
H438 C426 0.930 . S
H439 C427 0.931 . S
H440 C433 0.930 . S
H441 C455 0.930 . S
H442 C434 0.930 1_565 S
H443 C461 0.930 . S
H444 C452 0.930 . S
H445 C459 0.931 . S
H446 C423 0.929 . S
H447 C453 0.930 . S
H448 C486 0.930 . S
H449 C430 0.930 1_565 S
H450 C485 0.929 . S
N451 Tb420 2.660 . S
N451 C452 1.305 . S
N451 C456 1.360 . S
C452 H444 0.930 . S
C452 N451 1.305 . S
C452 C455 1.407 . S
C453 H447 0.930 . S
C453 C454 1.410 . S
C453 C455 1.345 . S
C454 C453 1.410 . S
C454 C456 1.417 . S
C454 C486 1.432 . S
C455 H441 0.930 . S
C455 C452 1.407 . S
C455 C453 1.345 . S
C456 N451 1.360 . S
C456 C454 1.417 . S
C456 C460 1.432 . S
H457 C462 0.930 . S
N458 Tb420 2.600 . S
N458 C460 1.359 . S
N458 C461 1.327 . S
C459 H445 0.931 . S
C459 C461 1.392 . S
C459 C462 1.370 . S
C460 C456 1.432 . S
C460 N458 1.359 . S
C460 C463 1.414 . S
C461 H443 0.930 . S
C461 N458 1.327 . S
C461 C459 1.392 . S
C462 H457 0.930 . S
C462 C459 1.370 . S
C462 C463 1.385 . S
C463 C460 1.414 . S
C463 C462 1.385 . S
C463 C485 1.444 . S
O464 Tb420 2.546 . S
O464 C484 1.251 . S
O465 Tb420 2.610 . S
O465 Tb431 2.362 . S
O465 C476 1.283 . S
O466 Tb431 2.421 . S
O466 C483 1.262 . S
O467 Tb420 2.320 . S
O467 C483 1.260 . S
O468 Tb420 2.552 . S
O468 C476 1.243 . S
O469 Tb420 2.413 . S
O469 C484 1.256 . S
O470 Tb431 2.546 . S
O470 C495 1.251 . S
O471 Tb420 2.362 . S
O471 Tb431 2.610 . S
O471 C487 1.283 . S
O472 Tb420 2.421 . S
O472 C494 1.262 . S
O473 Tb431 2.320 . S
O473 C494 1.260 . S
O474 Tb431 2.552 . S
O474 C487 1.243 . S
O475 Tb431 2.413 . S
O475 C495 1.256 . S
C476 O465 1.283 . S
C476 O468 1.243 . S
C477 C479 1.382 . S
C477 C481 1.393 . S
C477 C484 1.500 . S
C478 C479 1.400 . S
C478 C480 1.384 . S
C479 C477 1.382 . S
C479 C478 1.400 . S
C479 H496 0.930 . S
C480 C478 1.384 . S
C480 C482 1.392 . S
C480 H497 0.931 . S
C481 C477 1.393 . S
C481 C482 1.401 . S
C481 H498 0.930 . S
C482 C480 1.392 . S
C482 C481 1.401 . S
C482 H499 0.930 . S
C483 O466 1.262 . S
C483 O467 1.260 . S
C484 Tb420 2.833 . S
C484 O464 1.251 . S
C484 O469 1.256 . S
C484 C477 1.500 . S
C485 H450 0.929 . S
C485 C463 1.444 . S
C485 C486 1.317 . S
C486 H448 0.930 . S
C486 C454 1.432 . S
C486 C485 1.317 . S
C487 O471 1.283 . S
C487 O474 1.243 . S
C488 C489 1.382 . S
C488 C492 1.393 . S
C488 C495 1.500 . S
C489 C488 1.382 . S
C489 C490 1.400 . S
C489 H500 0.930 . S
C490 C489 1.400 . S
C490 C491 1.384 1_556 S
C491 C490 1.384 1_554 S
C491 C493 1.392 1_554 S
C491 H501 0.931 . S
C492 C488 1.393 . S
C492 C493 1.401 . S
C492 H502 0.930 . S
C493 C491 1.392 1_556 S
C493 C492 1.401 . S
C493 H503 0.930 . S
C494 O472 1.262 . S
C494 O473 1.260 . S
C495 Tb431 2.833 . S
C495 O470 1.251 . S
C495 O475 1.256 . S
C495 C488 1.500 . S
H496 C479 0.930 . S
H497 C480 0.931 . S
H498 C481 0.930 . S
H499 C482 0.930 . S
H500 C489 0.930 . S
H501 C491 0.931 . S
H502 C492 0.930 . S
H503 C493 0.930 . S
H504 C512 0.950 . S
H505 C517 0.950 . S
H506 C514 0.950 . S
H507 C516 0.950 . S
H508 C518 0.950 . S
H509 C520 0.950 . S
H510 C522 0.950 . S
H511 C523 0.950 . S
C512 H504 0.950 . S
C512 C513 1.386 . S
C512 C514 1.391 . S
C513 C512 1.386 . S
C513 C517 1.393 . S
C514 H506 0.950 . S
C514 C512 1.391 . S
C514 C515 1.400 . S
C515 C514 1.400 . S
C515 C516 1.398 . S
C515 C521 1.491 . S
C516 H507 0.950 . S
C516 C515 1.398 . S
C516 C517 1.391 . S
C517 H505 0.950 . S
C517 C513 1.393 . S
C517 C516 1.391 . S
C518 H508 0.950 . S
C518 C519 1.386 . S
C518 C520 1.391 . S
C519 C518 1.386 . S
C519 C523 1.393 . S
C520 H509 0.950 . S
C520 C518 1.391 . S
C520 C521 1.400 . S
C521 C515 1.491 . S
C521 C520 1.400 . S
C521 C522 1.398 . S
C522 H510 0.950 . S
C522 C521 1.398 . S
C522 C523 1.391 . S
C523 H511 0.950 . S
C523 C519 1.393 . S
C523 C522 1.391 . S
H524 C532 0.950 . S
H525 C537 0.950 . S
H526 C534 0.950 . S
H527 C536 0.950 . S
H528 C538 0.950 . S
H529 C540 0.950 . S
H530 C542 0.950 . S
H531 C543 0.950 . S
C532 H524 0.950 . S
C532 C533 1.386 . S
C532 C534 1.391 . S
C533 C532 1.386 . S
C533 C537 1.393 . S
C534 H526 0.950 . S
C534 C532 1.391 . S
C534 C535 1.400 . S
C535 C534 1.400 . S
C535 C536 1.398 . S
C535 C541 1.491 1_455 S
C536 H527 0.950 . S
C536 C535 1.398 . S
C536 C537 1.391 . S
C537 H525 0.950 . S
C537 C533 1.393 . S
C537 C536 1.391 . S
C538 H528 0.950 . S
C538 C539 1.386 . S
C538 C540 1.391 . S
C539 C538 1.386 . S
C539 C543 1.393 . S
C540 H529 0.950 . S
C540 C538 1.391 . S
C540 C541 1.400 . S
C541 C535 1.491 1_655 S
C541 C540 1.400 . S
C541 C542 1.398 . S
C542 H530 0.950 . S
C542 C541 1.398 . S
C542 C543 1.391 . S
C543 H531 0.950 . S
C543 C539 1.393 . S
C543 C542 1.391 . S
H544 C552 0.950 . S
H545 C557 0.950 . S
H546 C554 0.950 . S
H547 C556 0.950 . S
H548 C558 0.950 . S
H549 C560 0.950 . S
H550 C562 0.950 . S
H551 C563 0.950 . S
C552 H544 0.950 . S
C552 C553 1.386 . S
C552 C554 1.391 . S
C553 C552 1.386 . S
C553 C557 1.393 . S
C554 H546 0.950 . S
C554 C552 1.391 . S
C554 C555 1.400 . S
C555 C554 1.400 . S
C555 C556 1.398 . S
C555 C561 1.491 1_545 S
C556 H547 0.950 . S
C556 C555 1.398 . S
C556 C557 1.391 . S
C557 H545 0.950 . S
C557 C553 1.393 . S
C557 C556 1.391 . S
C558 H548 0.950 . S
C558 C559 1.386 . S
C558 C560 1.391 . S
C559 C558 1.386 . S
C559 C563 1.393 . S
C560 H549 0.950 . S
C560 C558 1.391 . S
C560 C561 1.400 . S
C561 C555 1.491 1_565 S
C561 C560 1.400 . S
C561 C562 1.398 . S
C562 H550 0.950 . S
C562 C561 1.398 . S
C562 C563 1.391 . S
C563 H551 0.950 . S
C563 C559 1.393 . S
C563 C562 1.391 . S
H564 C572 0.950 . S
H565 C577 0.950 . S
H566 C574 0.950 . S
H567 C576 0.950 . S
H568 C578 0.950 . S
H569 C580 0.950 . S
H570 C582 0.950 . S
H571 C583 0.950 . S
C572 H564 0.950 . S
C572 C573 1.386 . S
C572 C574 1.391 . S
C573 C572 1.386 . S
C573 C577 1.393 . S
C574 H566 0.950 . S
C574 C572 1.391 . S
C574 C575 1.400 . S
C575 C574 1.400 . S
C575 C576 1.398 . S
C575 C581 1.491 . S
C576 H567 0.950 . S
C576 C575 1.398 . S
C576 C577 1.391 . S
C577 H565 0.950 . S
C577 C573 1.393 . S
C577 C576 1.391 . S
C578 H568 0.950 . S
C578 C579 1.386 . S
C578 C580 1.391 . S
C579 C578 1.386 . S
C579 C583 1.393 . S
C580 H569 0.950 . S
C580 C578 1.391 . S
C580 C581 1.400 . S
C581 C575 1.491 . S
C581 C580 1.400 . S
C581 C582 1.398 . S
C582 H570 0.950 . S
C582 C581 1.398 . S
C582 C583 1.391 . S
C583 H571 0.950 . S
C583 C579 1.393 . S
C583 C582 1.391 . S
H584 C592 0.950 . S
H585 C597 0.950 . S
H586 C594 0.950 . S
H587 C596 0.950 1_655 S
H588 C598 0.950 . S
H589 C600 0.950 . S
H590 C602 0.950 1_455 S
H591 C603 0.950 . S
C592 H584 0.950 . S
C592 C593 1.386 . S
C592 C594 1.391 . S
C593 C592 1.386 . S
C593 C597 1.393 . S
C594 H586 0.950 . S
C594 C592 1.391 . S
C594 C595 1.400 . S
C595 C594 1.400 . S
C595 C596 1.398 . S
C595 C601 1.491 1_455 S
C596 H587 0.950 1_455 S
C596 C595 1.398 . S
C596 C597 1.391 . S
C597 H585 0.950 . S
C597 C593 1.393 . S
C597 C596 1.391 . S
C598 H588 0.950 . S
C598 C599 1.386 . S
C598 C600 1.391 . S
C599 C598 1.386 . S
C599 C603 1.393 . S
C600 H589 0.950 . S
C600 C598 1.391 . S
C600 C601 1.400 . S
C601 C595 1.491 1_655 S
C601 C600 1.400 . S
C601 C602 1.398 . S
C602 H590 0.950 1_655 S
C602 C601 1.398 . S
C602 C603 1.391 . S
C603 H591 0.950 . S
C603 C599 1.393 . S
C603 C602 1.391 . S
H604 C612 0.950 . S
H605 C617 0.950 . S
H606 C614 0.950 . S
H607 C616 0.950 . S
H608 C618 0.950 . S
H609 C620 0.950 . S
H610 C622 0.950 . S
H611 C623 0.950 . S
C612 H604 0.950 . S
C612 C613 1.386 . S
C612 C614 1.391 . S
C613 C612 1.386 . S
C613 C617 1.393 . S
C614 H606 0.950 . S
C614 C612 1.391 . S
C614 C615 1.400 . S
C615 C614 1.400 . S
C615 C616 1.398 . S
C615 C621 1.491 1_545 S
C616 H607 0.950 . S
C616 C615 1.398 . S
C616 C617 1.391 . S
C617 H605 0.950 . S
C617 C613 1.393 . S
C617 C616 1.391 . S
C618 H608 0.950 . S
C618 C619 1.386 . S
C618 C620 1.391 . S
C619 C618 1.386 . S
C619 C623 1.393 . S
C620 H609 0.950 . S
C620 C618 1.391 . S
C620 C621 1.400 . S
C621 C615 1.491 1_565 S
C621 C620 1.400 . S
C621 C622 1.398 . S
C622 H610 0.950 . S
C622 C621 1.398 . S
C622 C623 1.391 . S
C623 H611 0.950 . S
C623 C619 1.393 . S
C623 C622 1.391 . S
H624 C632 0.950 . S
H625 C637 0.950 . S
H626 C634 0.950 . S
H627 C636 0.950 . S
H628 C638 0.950 . S
H629 C640 0.950 . S
H630 C642 0.950 . S
H631 C643 0.950 . S
C632 H624 0.950 . S
C632 C633 1.386 . S
C632 C634 1.391 . S
C633 C632 1.386 . S
C633 C637 1.393 . S
C634 H626 0.950 . S
C634 C632 1.391 . S
C634 C635 1.400 . S
C635 C634 1.400 . S
C635 C636 1.398 . S
C635 C641 1.491 . S
C636 H627 0.950 . S
C636 C635 1.398 . S
C636 C637 1.391 . S
C637 H625 0.950 . S
C637 C633 1.393 . S
C637 C636 1.391 . S
C638 H628 0.950 . S
C638 C639 1.386 . S
C638 C640 1.391 . S
C639 C638 1.386 . S
C639 C643 1.393 . S
C640 H629 0.950 . S
C640 C638 1.391 . S
C640 C641 1.400 . S
C641 C635 1.491 . S
C641 C640 1.400 . S
C641 C642 1.398 . S
C642 H630 0.950 . S
C642 C641 1.398 . S
C642 C643 1.391 . S
C643 H631 0.950 . S
C643 C639 1.393 . S
C643 C642 1.391 . S
H644 C652 0.950 . S
H645 C657 0.950 . S
H646 C654 0.950 . S
H647 C656 0.950 . S
H648 C658 0.950 . S
H649 C660 0.950 . S
H650 C662 0.950 . S
H651 C663 0.950 . S
C652 H644 0.950 . S
C652 C653 1.386 . S
C652 C654 1.391 . S
C653 C652 1.386 . S
C653 C657 1.393 . S
C654 H646 0.950 . S
C654 C652 1.391 . S
C654 C655 1.400 . S
C655 C654 1.400 . S
C655 C656 1.398 . S
C655 C661 1.491 . S
C656 H647 0.950 . S
C656 C655 1.398 . S
C656 C657 1.391 . S
C657 H645 0.950 . S
C657 C653 1.393 . S
C657 C656 1.391 . S
C658 H648 0.950 . S
C658 C659 1.386 . S
C658 C660 1.391 . S
C659 C658 1.386 . S
C659 C663 1.393 . S
C660 H649 0.950 . S
C660 C658 1.391 . S
C660 C661 1.400 . S
C661 C655 1.491 . S
C661 C660 1.400 . S
C661 C662 1.398 . S
C662 H650 0.950 . S
C662 C661 1.398 . S
C662 C663 1.391 . S
C663 H651 0.950 . S
C663 C659 1.393 . S
C663 C662 1.391 . S
H664 C672 0.950 . S
H665 C677 0.950 . S
H666 C674 0.950 . S
H667 C676 0.950 . S
H668 C678 0.950 . S
H669 C680 0.950 . S
H670 C682 0.950 . S
H671 C683 0.950 . S
C672 H664 0.950 . S
C672 C673 1.386 . S
C672 C674 1.391 . S
C673 C672 1.386 . S
C673 C677 1.393 . S
C674 H666 0.950 . S
C674 C672 1.391 . S
C674 C675 1.400 . S
C675 C674 1.400 . S
C675 C676 1.398 . S
C675 C681 1.491 . S
C676 H667 0.950 . S
C676 C675 1.398 . S
C676 C677 1.391 . S
C677 H665 0.950 . S
C677 C673 1.393 . S
C677 C676 1.391 . S
C678 H668 0.950 . S
C678 C679 1.386 . S
C678 C680 1.391 . S
C679 C678 1.386 . S
C679 C683 1.393 . S
C680 H669 0.950 . S
C680 C678 1.391 . S
C680 C681 1.400 . S
C681 C675 1.491 . S
C681 C680 1.400 . S
C681 C682 1.398 . S
C682 H670 0.950 . S
C682 C681 1.398 . S
C682 C683 1.391 . S
C683 H671 0.950 . S
C683 C679 1.393 . S
C683 C682 1.391 . S
H684 C692 0.950 . S
H685 C697 0.950 . S
H686 C694 0.950 . S
H687 C696 0.950 . S
H688 C698 0.950 . S
H689 C700 0.950 . S
H690 C702 0.950 . S
H691 C703 0.950 . S
C692 H684 0.950 . S
C692 C693 1.386 . S
C692 C694 1.391 . S
C693 C692 1.386 . S
C693 C697 1.393 . S
C694 H686 0.950 . S
C694 C692 1.391 . S
C694 C695 1.400 . S
C695 C694 1.400 . S
C695 C696 1.398 . S
C695 C701 1.491 . S
C696 H687 0.950 . S
C696 C695 1.398 . S
C696 C697 1.391 . S
C697 H685 0.950 . S
C697 C693 1.393 . S
C697 C696 1.391 . S
C698 H688 0.950 . S
C698 C699 1.386 . S
C698 C700 1.391 . S
C699 C698 1.386 . S
C699 C703 1.393 . S
C700 H689 0.950 . S
C700 C698 1.391 . S
C700 C701 1.400 . S
C701 C695 1.491 . S
C701 C700 1.400 . S
C701 C702 1.398 . S
C702 H690 0.950 . S
C702 C701 1.398 . S
C702 C703 1.391 . S
C703 H691 0.950 . S
C703 C699 1.393 . S
C703 C702 1.391 . S
H704 C712 0.950 . S
H705 C717 0.950 . S
H706 C714 0.950 . S
H707 C716 0.950 . S
H708 C718 0.950 . S
H709 C720 0.950 . S
H710 C722 0.950 . S
H711 C723 0.950 . S
C712 H704 0.950 . S
C712 C713 1.386 . S
C712 C714 1.391 . S
C713 C712 1.386 . S
C713 C717 1.393 . S
C714 H706 0.950 . S
C714 C712 1.391 . S
C714 C715 1.400 . S
C715 C714 1.400 . S
C715 C716 1.398 . S
C715 C721 1.491 . S
C716 H707 0.950 . S
C716 C715 1.398 . S
C716 C717 1.391 . S
C717 H705 0.950 . S
C717 C713 1.393 . S
C717 C716 1.391 . S
C718 H708 0.950 . S
C718 C719 1.386 . S
C718 C720 1.391 . S
C719 C718 1.386 . S
C719 C723 1.393 . S
C720 H709 0.950 . S
C720 C718 1.391 . S
C720 C721 1.400 . S
C721 C715 1.491 . S
C721 C720 1.400 . S
C721 C722 1.398 . S
C722 H710 0.950 . S
C722 C721 1.398 . S
C722 C723 1.391 . S
C723 H711 0.950 . S
C723 C719 1.393 . S
C723 C722 1.391 . S
H724 C732 0.950 . S
H725 C737 0.950 . S
H726 C734 0.950 . S
H727 C736 0.950 . S
H728 C738 0.950 . S
H729 C740 0.950 . S
H730 C742 0.950 . S
H731 C743 0.950 . S
C732 H724 0.950 . S
C732 C733 1.386 . S
C732 C734 1.391 . S
C733 C732 1.386 . S
C733 C737 1.393 . S
C734 H726 0.950 . S
C734 C732 1.391 . S
C734 C735 1.400 . S
C735 C734 1.400 . S
C735 C736 1.398 . S
C735 C741 1.491 . S
C736 H727 0.950 . S
C736 C735 1.398 . S
C736 C737 1.391 . S
C737 H725 0.950 . S
C737 C733 1.393 . S
C737 C736 1.391 . S
C738 H728 0.950 . S
C738 C739 1.386 . S
C738 C740 1.391 . S
C739 C738 1.386 . S
C739 C743 1.393 . S
C740 H729 0.950 . S
C740 C738 1.391 . S
C740 C741 1.400 . S
C741 C735 1.491 . S
C741 C740 1.400 . S
C741 C742 1.398 . S
C742 H730 0.950 . S
C742 C741 1.398 . S
C742 C743 1.391 . S
C743 H731 0.950 . S
C743 C739 1.393 . S
C743 C742 1.391 . S
H744 C752 0.950 . S
H745 C757 0.950 . S
H746 C754 0.950 . S
H747 C756 0.950 . S
H748 C758 0.950 . S
H749 C760 0.950 . S
H750 C762 0.950 . S
H751 C763 0.950 . S
C752 H744 0.950 . S
C752 C753 1.386 . S
C752 C754 1.391 . S
C753 C752 1.386 . S
C753 C757 1.393 . S
C754 H746 0.950 . S
C754 C752 1.391 . S
C754 C755 1.400 . S
C755 C754 1.400 . S
C755 C756 1.398 . S
C755 C761 1.491 . S
C756 H747 0.950 . S
C756 C755 1.398 . S
C756 C757 1.391 . S
C757 H745 0.950 . S
C757 C753 1.393 . S
C757 C756 1.391 . S
C758 H748 0.950 . S
C758 C759 1.386 . S
C758 C760 1.391 . S
C759 C758 1.386 . S
C759 C763 1.393 . S
C760 H749 0.950 . S
C760 C758 1.391 . S
C760 C761 1.400 . S
C761 C755 1.491 . S
C761 C760 1.400 . S
C761 C762 1.398 . S
C762 H750 0.950 . S
C762 C761 1.398 . S
C762 C763 1.391 . S
C763 H751 0.950 . S
C763 C759 1.393 . S
C763 C762 1.391 . S
H764 C772 0.950 . S
H765 C777 0.950 . S
H766 C774 0.950 . S
H767 C776 0.950 . S
H768 C778 0.950 . S
H769 C780 0.950 . S
H770 C782 0.950 . S
H771 C783 0.950 . S
C772 H764 0.950 . S
C772 C773 1.386 . S
C772 C774 1.391 . S
C773 C772 1.386 . S
C773 C777 1.393 . S
C774 H766 0.950 . S
C774 C772 1.391 . S
C774 C775 1.400 . S
C775 C774 1.400 . S
C775 C776 1.398 . S
C775 C781 1.491 . S
C776 H767 0.950 . S
C776 C775 1.398 . S
C776 C777 1.391 . S
C777 H765 0.950 . S
C777 C773 1.393 . S
C777 C776 1.391 . S
C778 H768 0.950 . S
C778 C779 1.386 . S
C778 C780 1.391 . S
C779 C778 1.386 . S
C779 C783 1.393 . S
C780 H769 0.950 . S
C780 C778 1.391 . S
C780 C781 1.400 . S
C781 C775 1.491 . S
C781 C780 1.400 . S
C781 C782 1.398 . S
C782 H770 0.950 . S
C782 C781 1.398 . S
C782 C783 1.391 . S
C783 H771 0.950 . S
C783 C779 1.393 . S
C783 C782 1.391 . S
H784 C792 0.950 . S
H785 C797 0.950 . S
H786 C794 0.950 . S
H787 C796 0.950 . S
H788 C798 0.950 . S
H789 C800 0.950 . S
H790 C802 0.950 . S
H791 C803 0.950 . S
C792 H784 0.950 . S
C792 C793 1.386 . S
C792 C794 1.391 . S
C793 C792 1.386 . S
C793 C797 1.393 . S
C794 H786 0.950 . S
C794 C792 1.391 . S
C794 C795 1.400 . S
C795 C794 1.400 . S
C795 C796 1.398 . S
C795 C801 1.491 . S
C796 H787 0.950 . S
C796 C795 1.398 . S
C796 C797 1.391 . S
C797 H785 0.950 . S
C797 C793 1.393 . S
C797 C796 1.391 . S
C798 H788 0.950 . S
C798 C799 1.386 . S
C798 C800 1.391 . S
C799 C798 1.386 . S
C799 C803 1.393 . S
C800 H789 0.950 . S
C800 C798 1.391 . S
C800 C801 1.400 . S
C801 C795 1.491 . S
C801 C800 1.400 . S
C801 C802 1.398 . S
C802 H790 0.950 . S
C802 C801 1.398 . S
C802 C803 1.391 . S
C803 H791 0.950 . S
C803 C799 1.393 . S
C803 C802 1.391 . S
H804 C812 0.950 . S
H805 C817 0.950 . S
H806 C814 0.950 . S
H807 C816 0.950 . S
H808 C818 0.950 . S
H809 C820 0.950 . S
H810 C822 0.950 . S
H811 C823 0.950 . S
C812 H804 0.950 . S
C812 C813 1.386 . S
C812 C814 1.391 . S
C813 C812 1.386 . S
C813 C817 1.393 . S
C814 H806 0.950 . S
C814 C812 1.391 . S
C814 C815 1.400 . S
C815 C814 1.400 . S
C815 C816 1.398 . S
C815 C821 1.491 . S
C816 H807 0.950 . S
C816 C815 1.398 . S
C816 C817 1.391 . S
C817 H805 0.950 . S
C817 C813 1.393 . S
C817 C816 1.391 . S
C818 H808 0.950 . S
C818 C819 1.386 . S
C818 C820 1.391 . S
C819 C818 1.386 . S
C819 C823 1.393 . S
C820 H809 0.950 . S
C820 C818 1.391 . S
C820 C821 1.400 . S
C821 C815 1.491 . S
C821 C820 1.400 . S
C821 C822 1.398 . S
C822 H810 0.950 . S
C822 C821 1.398 . S
C822 C823 1.391 . S
C823 H811 0.950 . S
C823 C819 1.393 . S
C823 C822 1.391 . S
H824 C832 0.950 . S
H825 C837 0.950 . S
H826 C834 0.950 . S
H827 C836 0.950 . S
H828 C838 0.950 . S
H829 C840 0.950 . S
H830 C842 0.950 . S
H831 C843 0.950 . S
C832 H824 0.950 . S
C832 C833 1.386 . S
C832 C834 1.391 . S
C833 C832 1.386 . S
C833 C837 1.393 . S
C834 H826 0.950 . S
C834 C832 1.391 . S
C834 C835 1.400 . S
C835 C834 1.400 . S
C835 C836 1.398 . S
C835 C841 1.491 . S
C836 H827 0.950 . S
C836 C835 1.398 . S
C836 C837 1.391 . S
C837 H825 0.950 . S
C837 C833 1.393 . S
C837 C836 1.391 . S
C838 H828 0.950 . S
C838 C839 1.386 . S
C838 C840 1.391 . S
C839 C838 1.386 . S
C839 C843 1.393 . S
C840 H829 0.950 . S
C840 C838 1.391 . S
C840 C841 1.400 . S
C841 C835 1.491 . S
C841 C840 1.400 . S
C841 C842 1.398 . S
C842 H830 0.950 . S
C842 C841 1.398 . S
C842 C843 1.391 . S
C843 H831 0.950 . S
C843 C839 1.393 . S
C843 C842 1.391 . S
H844 C852 0.950 . S
H845 C857 0.950 . S
H846 C854 0.950 . S
H847 C856 0.950 . S
H848 C858 0.950 . S
H849 C860 0.950 . S
H850 C862 0.950 . S
H851 C863 0.950 . S
C852 H844 0.950 . S
C852 C853 1.386 . S
C852 C854 1.391 . S
C853 C852 1.386 . S
C853 C857 1.393 . S
C854 H846 0.950 . S
C854 C852 1.391 . S
C854 C855 1.400 . S
C855 C854 1.400 . S
C855 C856 1.398 . S
C855 C861 1.491 . S
C856 H847 0.950 . S
C856 C855 1.398 . S
C856 C857 1.391 . S
C857 H845 0.950 . S
C857 C853 1.393 . S
C857 C856 1.391 . S
C858 H848 0.950 . S
C858 C859 1.386 . S
C858 C860 1.391 . S
C859 C858 1.386 . S
C859 C863 1.393 . S
C860 H849 0.950 . S
C860 C858 1.391 . S
C860 C861 1.400 . S
C861 C855 1.491 . S
C861 C860 1.400 . S
C861 C862 1.398 . S
C862 H850 0.950 . S
C862 C861 1.398 . S
C862 C863 1.391 . S
C863 H851 0.950 . S
C863 C859 1.393 . S
C863 C862 1.391 . S
C513 C494 1.442 . S
C519 C56 1.397 . S
C533 C74 1.444 . S
C539 C140 1.380 . S
C553 C158 1.438 . S
C559 C224 1.405 . S
C573 C242 1.438 . S
C579 C308 1.396 . S
C593 C392 1.393 . S
C599 C326 1.439 . S
C613 C476 1.406 . S
C619 C410 1.437 . S
C633 C58 1.330 . S
C639 C70 1.330 . S
C653 C142 1.321 1_556 S
C659 C154 1.321 . S
C673 C226 1.327 . S
C679 C238 1.327 1_554 S
C693 C310 1.320 . S
C699 C322 1.320 . S
C713 C406 1.319 . S
C719 C394 1.319 1_556 S
C733 C478 1.304 . S
C739 C490 1.304 1_554 S
C753 C67 1.370 . S
C759 C399 1.430 . S
C773 C151 1.365 . S
C779 C483 1.433 . S
C793 C63 1.438 . S
C799 C235 1.357 . S
C813 C147 1.438 . S
C819 C319 1.357 . S
C833 C403 1.369 . S
C839 C231 1.431 . S
C853 C315 1.433 . S
C859 C487 1.365 . S
